# Generated by pormake.
# Topology uoy, (4)-cn, num edge types: 1
# Building blocks:
#     Node 0, Type 0, BuildingBlock: AZAVOO_clean_sbu_0, # of connection points: 4
#     Node 1, Type 0, BuildingBlock: AZAVOO_clean_sbu_0, # of connection points: 4
#     Node 2, Type 0, BuildingBlock: AZAVOO_clean_sbu_0, # of connection points: 4
#     Node 3, Type 0, BuildingBlock: AZAVOO_clean_sbu_0, # of connection points: 4
#     Node 4, Type 0, BuildingBlock: AZAVOO_clean_sbu_0, # of connection points: 4
#     Node 5, Type 0, BuildingBlock: AZAVOO_clean_sbu_0, # of connection points: 4
#     Node 6, Type 0, BuildingBlock: AZAVOO_clean_sbu_0, # of connection points: 4
#     Node 7, Type 0, BuildingBlock: AZAVOO_clean_sbu_0, # of connection points: 4
#     Node 8, Type 0, BuildingBlock: AZAVOO_clean_sbu_0, # of connection points: 4
#     Node 9, Type 0, BuildingBlock: AZAVOO_clean_sbu_0, # of connection points: 4
#     Node 10, Type 0, BuildingBlock: AZAVOO_clean_sbu_0, # of connection points: 4
#     Node 11, Type 0, BuildingBlock: AZAVOO_clean_sbu_0, # of connection points: 4
#     Node 12, Type 0, BuildingBlock: AZAVOO_clean_sbu_0, # of connection points: 4
#     Node 13, Type 0, BuildingBlock: AZAVOO_clean_sbu_0, # of connection points: 4
#     Node 14, Type 0, BuildingBlock: AZAVOO_clean_sbu_0, # of connection points: 4
#     Node 15, Type 0, BuildingBlock: AZAVOO_clean_sbu_0, # of connection points: 4
#     Edge 16, Type (0, 0), BuildingBlock: MIFKUJ_clean_linker_0, # of connection points: 2
#     Edge 17, Type (0, 0), BuildingBlock: MIFKUJ_clean_linker_0, # of connection points: 2
#     Edge 18, Type (0, 0), BuildingBlock: MIFKUJ_clean_linker_0, # of connection points: 2
#     Edge 19, Type (0, 0), BuildingBlock: MIFKUJ_clean_linker_0, # of connection points: 2
#     Edge 20, Type (0, 0), BuildingBlock: MIFKUJ_clean_linker_0, # of connection points: 2
#     Edge 21, Type (0, 0), BuildingBlock: MIFKUJ_clean_linker_0, # of connection points: 2
#     Edge 22, Type (0, 0), BuildingBlock: MIFKUJ_clean_linker_0, # of connection points: 2
#     Edge 23, Type (0, 0), BuildingBlock: MIFKUJ_clean_linker_0, # of connection points: 2
#     Edge 24, Type (0, 0), BuildingBlock: MIFKUJ_clean_linker_0, # of connection points: 2
#     Edge 25, Type (0, 0), BuildingBlock: MIFKUJ_clean_linker_0, # of connection points: 2
#     Edge 26, Type (0, 0), BuildingBlock: MIFKUJ_clean_linker_0, # of connection points: 2
#     Edge 27, Type (0, 0), BuildingBlock: MIFKUJ_clean_linker_0, # of connection points: 2
#     Edge 28, Type (0, 0), BuildingBlock: MIFKUJ_clean_linker_0, # of connection points: 2
#     Edge 29, Type (0, 0), BuildingBlock: MIFKUJ_clean_linker_0, # of connection points: 2
#     Edge 30, Type (0, 0), BuildingBlock: MIFKUJ_clean_linker_0, # of connection points: 2
#     Edge 31, Type (0, 0), BuildingBlock: MIFKUJ_clean_linker_0, # of connection points: 2
#     Edge 32, Type (0, 0), BuildingBlock: MIFKUJ_clean_linker_0, # of connection points: 2
#     Edge 33, Type (0, 0), BuildingBlock: MIFKUJ_clean_linker_0, # of connection points: 2
#     Edge 34, Type (0, 0), BuildingBlock: MIFKUJ_clean_linker_0, # of connection points: 2
#     Edge 35, Type (0, 0), BuildingBlock: MIFKUJ_clean_linker_0, # of connection points: 2
#     Edge 36, Type (0, 0), BuildingBlock: MIFKUJ_clean_linker_0, # of connection points: 2
#     Edge 37, Type (0, 0), BuildingBlock: MIFKUJ_clean_linker_0, # of connection points: 2
#     Edge 38, Type (0, 0), BuildingBlock: MIFKUJ_clean_linker_0, # of connection points: 2
#     Edge 39, Type (0, 0), BuildingBlock: MIFKUJ_clean_linker_0, # of connection points: 2
#     Edge 40, Type (0, 0), BuildingBlock: MIFKUJ_clean_linker_0, # of connection points: 2
#     Edge 41, Type (0, 0), BuildingBlock: MIFKUJ_clean_linker_0, # of connection points: 2
#     Edge 42, Type (0, 0), BuildingBlock: MIFKUJ_clean_linker_0, # of connection points: 2
#     Edge 43, Type (0, 0), BuildingBlock: MIFKUJ_clean_linker_0, # of connection points: 2
#     Edge 44, Type (0, 0), BuildingBlock: MIFKUJ_clean_linker_0, # of connection points: 2
#     Edge 45, Type (0, 0), BuildingBlock: MIFKUJ_clean_linker_0, # of connection points: 2
#     Edge 46, Type (0, 0), BuildingBlock: MIFKUJ_clean_linker_0, # of connection points: 2
#     Edge 47, Type (0, 0), BuildingBlock: MIFKUJ_clean_linker_0, # of connection points: 2
# Relax obj value: 0.168
# Max RMSD: 0.197
# Mean RMSD: 0.197
data_MOF--net-uoy--node1-AZAVOO_clean_sbu_0--edge1-MIFKUJ_clean_linker_0
_symmetry_space_group_name_H-M    P1
_symmetry_Int_Tables_number       1
_symmetry_cell_setting            triclinic
loop_
_symmetry_equiv_pos_as_xyz
'x, y, z'
_cell_length_a     34.250131
_cell_length_b     34.260274
_cell_length_c     140.69552
_cell_angle_alpha  90.004766
_cell_angle_beta   89.991896
_cell_angle_gamma 89.956824
loop_
_atom_site_label
_atom_site_type_symbol
_atom_site_fract_x
_atom_site_fract_y
_atom_site_fract_z
_atom_type_partial_charge
Mg0 Mg 0.25988 0.16081 0.18142 0.0
O1 O 0.3064 0.11278 0.18174 0.0
O2 O 0.30712 0.08313 0.16761 0.0
Mg3 Mg 0.26013 0.11142 0.1584 0.0
C4 C 0.32019 0.08726 0.17604 0.0
C5 C 0.23528 0.17114 0.2027 0.0
O6 O 0.20028 0.17299 0.1989 0.0
O7 O 0.21106 0.11624 0.18266 0.0
O8 O 0.21228 0.08794 0.16834 0.0
O9 O 0.30481 0.20158 0.17582 0.0
O10 O 0.26603 0.16539 0.16683 0.0
C11 C 0.19784 0.09164 0.17667 0.0
C12 C 0.29506 0.18916 0.16746 0.0
O13 O 0.26475 0.16614 0.19737 0.0
Mg14 Mg 0.80506 0.74011 0.42083 0.0
O15 O 0.85634 0.78304 0.41954 0.0
O16 O 0.87556 0.7826 0.40436 0.0
Mg17 Mg 0.83975 0.73721 0.39633 0.0
C18 C 0.87799 0.7958 0.41283 0.0
C19 C 0.78095 0.72778 0.44145 0.0
O20 O 0.75309 0.70964 0.43679 0.0
O21 O 0.8461 0.68786 0.42056 0.0
O22 O 0.86453 0.68693 0.40535 0.0
O23 O 0.76587 0.78927 0.41688 0.0
O24 O 0.79243 0.74818 0.40658 0.0
C25 C 0.8651 0.67246 0.41372 0.0
C26 C 0.77324 0.77995 0.40814 0.0
O27 O 0.80854 0.74347 0.4368 0.0
Mg28 Mg 0.21585 0.35609 0.67991 0.0
O29 O 0.16582 0.39867 0.68321 0.0
O30 O 0.16485 0.44296 0.67156 0.0
Mg31 Mg 0.21255 0.42826 0.66084 0.0
C32 C 0.1514 0.42914 0.67932 0.0
C33 C 0.24246 0.31311 0.69795 0.0
O34 O 0.27187 0.30592 0.69221 0.0
O35 O 0.26126 0.40101 0.68414 0.0
O36 O 0.25968 0.44267 0.67193 0.0
O37 O 0.17538 0.31826 0.67167 0.0
O38 O 0.2095 0.36693 0.66553 0.0
C39 C 0.27381 0.43131 0.67986 0.0
C40 C 0.18394 0.33974 0.66439 0.0
O41 O 0.21385 0.33318 0.69493 0.0
Mg42 Mg 0.62186 0.74573 0.92352 0.0
O43 O 0.57664 0.69653 0.92426 0.0
O44 O 0.54604 0.6951 0.91023 0.0
Mg45 Mg 0.57041 0.74351 0.9008 0.0
C46 C 0.55158 0.68168 0.91859 0.0
C47 C 0.65092 0.76894 0.94341 0.0
O48 O 0.66417 0.79827 0.93833 0.0
O49 O 0.57467 0.79175 0.92518 0.0
O50 O 0.54691 0.79104 0.91084 0.0
O51 O 0.66512 0.70343 0.91794 0.0
O52 O 0.6251 0.73805 0.90889 0.0
C53 C 0.55003 0.8051 0.91921 0.0
C54 C 0.65082 0.71065 0.90961 0.0
O55 O 0.63073 0.74269 0.93937 0.0
Mg56 Mg 0.25502 0.33788 0.06691 0.0
O57 O 0.29891 0.38711 0.06428 0.0
O58 O 0.29924 0.42602 0.07703 0.0
Mg59 Mg 0.25547 0.40148 0.0877 0.0
C60 C 0.31165 0.41686 0.06877 0.0
C61 C 0.25684 0.28747 0.04869 0.0
O62 O 0.2543 0.25981 0.05513 0.0
O63 O 0.20361 0.37847 0.0645 0.0
O64 O 0.20478 0.41589 0.07751 0.0
O65 O 0.30297 0.30346 0.07331 0.0
O66 O 0.264 0.34296 0.08142 0.0
C67 C 0.1896 0.40594 0.06958 0.0
C68 C 0.29428 0.32053 0.08125 0.0
O69 O 0.25726 0.32289 0.05132 0.0
Mg70 Mg 0.68261 0.7565 0.31094 0.0
O71 O 0.63336 0.80196 0.31205 0.0
O72 O 0.612 0.80165 0.32706 0.0
Mg73 Mg 0.64341 0.75324 0.33506 0.0
C74 C 0.61151 0.81549 0.31864 0.0
C75 C 0.68582 0.73043 0.29 0.0
O76 O 0.69133 0.69688 0.29432 0.0
O77 O 0.63909 0.7066 0.31061 0.0
O78 O 0.61578 0.70652 0.32544 0.0
O79 O 0.72353 0.80309 0.31568 0.0
O80 O 0.69304 0.76198 0.32531 0.0
C81 C 0.6167 0.69276 0.31701 0.0
C82 C 0.71427 0.79272 0.32424 0.0
O83 O 0.68108 0.76108 0.29494 0.0
Mg84 Mg 0.26921 0.16374 0.55956 0.0
O85 O 0.2211 0.11748 0.56006 0.0
O86 O 0.22488 0.08647 0.57399 0.0
Mg87 Mg 0.27533 0.11354 0.58237 0.0
C88 C 0.20878 0.09183 0.56591 0.0
C89 C 0.26302 0.20429 0.54026 0.0
O90 O 0.27616 0.23264 0.54567 0.0
O91 O 0.31632 0.11802 0.55722 0.0
O92 O 0.32053 0.09054 0.57158 0.0
O93 O 0.22775 0.20568 0.56594 0.0
O94 O 0.26785 0.16824 0.57428 0.0
C95 C 0.33207 0.09391 0.56297 0.0
C96 C 0.23947 0.19302 0.57413 0.0
O97 O 0.25858 0.17056 0.54383 0.0
Mg98 Mg 0.88203 0.73646 0.8143 0.0
O99 O 0.92544 0.68607 0.81319 0.0
O100 O 0.95473 0.67989 0.82729 0.0
Mg101 Mg 0.92938 0.72587 0.83737 0.0
C102 C 0.94969 0.66906 0.81869 0.0
C103 C 0.84163 0.73735 0.79513 0.0
O104 O 0.81234 0.73686 0.80116 0.0
O105 O 0.93077 0.78106 0.81393 0.0
O106 O 0.95578 0.77611 0.82854 0.0
O107 O 0.83676 0.69433 0.8189 0.0
O108 O 0.87574 0.72628 0.82874 0.0
C109 C 0.95444 0.79235 0.82037 0.0
C110 C 0.84903 0.70029 0.82749 0.0
O111 O 0.87627 0.73776 0.79834 0.0
Mg112 Mg 0.71582 0.6527 0.6788 0.0
O113 O 0.7628 0.60584 0.68076 0.0
O114 O 0.76203 0.56633 0.66814 0.0
Mg115 Mg 0.71359 0.58734 0.65823 0.0
C116 C 0.77601 0.57656 0.67618 0.0
C117 C 0.75827 0.67942 0.69656 0.0
O118 O 0.78596 0.6791 0.6901 0.0
O119 O 0.66875 0.6089 0.6825 0.0
O120 O 0.66716 0.57161 0.66947 0.0
O121 O 0.75784 0.69059 0.67124 0.0
O122 O 0.72064 0.64651 0.66413 0.0
C123 C 0.65438 0.58072 0.67772 0.0
C124 C 0.74843 0.67182 0.66361 0.0
O125 O 0.72381 0.66976 0.69418 0.0
Mg126 Mg 0.3205 0.25096 0.92821 0.0
O127 O 0.3739 0.29079 0.92711 0.0
O128 O 0.39514 0.28855 0.9121 0.0
Mg129 Mg 0.35713 0.24536 0.90387 0.0
C130 C 0.39731 0.30179 0.92057 0.0
C131 C 0.31463 0.22478 0.94916 0.0
O132 O 0.30701 0.19166 0.94483 0.0
O133 O 0.35919 0.19696 0.92825 0.0
O134 O 0.37794 0.19391 0.91307 0.0
O135 O 0.28389 0.30166 0.92377 0.0
O136 O 0.30972 0.25843 0.91389 0.0
C137 C 0.37736 0.18003 0.9215 0.0
C138 C 0.29119 0.29075 0.91513 0.0
O139 O 0.32242 0.25481 0.94423 0.0
Mg140 Mg 0.75828 0.8536 0.17397 0.0
O141 O 0.7106 0.89989 0.17603 0.0
O142 O 0.71031 0.93777 0.1631 0.0
Mg143 Mg 0.75761 0.91625 0.15296 0.0
C144 C 0.69679 0.92842 0.17125 0.0
C145 C 0.75328 0.80182 0.19165 0.0
O146 O 0.757 0.77556 0.1849 0.0
O147 O 0.80572 0.89795 0.17691 0.0
O148 O 0.80568 0.93371 0.16363 0.0
O149 O 0.71518 0.81462 0.16714 0.0
O150 O 0.75119 0.8581 0.15941 0.0
C151 C 0.81954 0.92548 0.17183 0.0
C152 C 0.72334 0.83278 0.15932 0.0
O153 O 0.75395 0.83775 0.18946 0.0
Mg154 Mg 0.11303 0.23857 0.42643 0.0
O155 O 0.0705 0.18754 0.42403 0.0
O156 O 0.05763 0.18715 0.40844 0.0
Mg157 Mg 0.09121 0.23611 0.40107 0.0
C158 C 0.0535 0.17285 0.41677 0.0
C159 C 0.11533 0.26721 0.44672 0.0
O160 O 0.12689 0.29756 0.44176 0.0
O161 O 0.06465 0.28334 0.42464 0.0
O162 O 0.05637 0.28378 0.40891 0.0
O163 O 0.16315 0.19849 0.42416 0.0
O164 O 0.13375 0.23164 0.4127 0.0
C165 C 0.04877 0.29728 0.41718 0.0
C166 C 0.15922 0.20582 0.41519 0.0
O167 O 0.10427 0.2368 0.44233 0.0
Mg168 Mg 0.76568 0.85157 0.55987 0.0
O169 O 0.81622 0.8955 0.56005 0.0
O170 O 0.81257 0.92752 0.57388 0.0
Mg171 Mg 0.76294 0.90148 0.58272 0.0
C172 C 0.82867 0.92142 0.56583 0.0
C173 C 0.74372 0.82551 0.53999 0.0
O174 O 0.71385 0.81394 0.54513 0.0
O175 O 0.7208 0.8996 0.55788 0.0
O176 O 0.71686 0.92602 0.57235 0.0
O177 O 0.8045 0.8062 0.56587 0.0
O178 O 0.76889 0.84689 0.57451 0.0
C179 C 0.70535 0.92348 0.56373 0.0
C180 C 0.79455 0.81932 0.57416 0.0
O181 O 0.77135 0.8438 0.54402 0.0
Mg182 Mg 0.18358 0.23927 0.81668 0.0
O183 O 0.1326 0.28141 0.81463 0.0
O184 O 0.09844 0.28405 0.82813 0.0
Mg185 Mg 0.12742 0.24238 0.83872 0.0
C186 C 0.10444 0.29495 0.81957 0.0
C187 C 0.22244 0.22417 0.7969 0.0
O188 O 0.24919 0.20742 0.80221 0.0
O189 O 0.14322 0.18686 0.8156 0.0
O190 O 0.11234 0.18879 0.82958 0.0
O191 O 0.21856 0.28952 0.82199 0.0
O192 O 0.18312 0.25066 0.83113 0.0
C193 C 0.11919 0.1725 0.82158 0.0
C194 C 0.20402 0.28173 0.83027 0.0
O195 O 0.19263 0.23924 0.80082 0.0
Mg196 Mg 0.75434 0.6489 0.05818 0.0
O197 O 0.70373 0.60483 0.05801 0.0
O198 O 0.70264 0.57663 0.07235 0.0
Mg199 Mg 0.75002 0.60361 0.08161 0.0
C200 C 0.68917 0.58064 0.06394 0.0
C201 C 0.76628 0.68509 0.03874 0.0
O202 O 0.78214 0.71081 0.0445 0.0
O203 O 0.79965 0.60058 0.05749 0.0
O204 O 0.79774 0.57624 0.0722 0.0
O205 O 0.71333 0.69476 0.06289 0.0
O206 O 0.74649 0.65646 0.07268 0.0
C207 C 0.81215 0.57711 0.06383 0.0
C208 C 0.72027 0.68313 0.07148 0.0
O209 O 0.75238 0.65385 0.04222 0.0
Mg210 Mg 0.37294 0.25464 0.31819 0.0
O211 O 0.42017 0.20699 0.3171 0.0
O212 O 0.45362 0.2086 0.33075 0.0
Mg213 Mg 0.42996 0.25727 0.34015 0.0
C214 C 0.44695 0.19389 0.32257 0.0
C215 C 0.32416 0.25017 0.30022 0.0
O216 O 0.29782 0.25545 0.30688 0.0
O217 O 0.41741 0.30235 0.31559 0.0
O218 O 0.44983 0.30386 0.32936 0.0
O219 O 0.33282 0.21179 0.32473 0.0
O220 O 0.37384 0.24905 0.33286 0.0
C221 C 0.44359 0.3168 0.32098 0.0
C222 C 0.34892 0.22085 0.33275 0.0
O223 O 0.35999 0.24919 0.30252 0.0
H224 H 0.27793 0.34442 0.09924 0.0
H225 H 0.31191 0.32668 0.11371 0.0
H226 H 0.3993 0.26556 0.09732 0.0
H227 H 0.36436 0.28243 0.0827 0.0
H228 H 0.37621 0.21996 0.10994 0.0
H229 H 0.42718 0.34319 0.11267 0.0
H230 H 0.43357 0.41462 0.11168 0.0
H231 H 0.34405 0.42838 0.13278 0.0
H232 H 0.33695 0.35696 0.13389 0.0
H233 H 0.36418 0.22959 0.16643 0.0
H234 H 0.3978 0.25153 0.15196 0.0
H235 H 0.308 0.19766 0.1349 0.0
H236 H 0.27515 0.17534 0.14912 0.0
H237 H 0.37529 0.30057 0.13923 0.0
H238 H 0.33536 0.16551 0.11483 0.0
H239 H 0.33893 0.09388 0.11598 0.0
H240 H 0.42489 0.1033 0.13806 0.0
H241 H 0.42246 0.17502 0.13694 0.0
C242 C 0.30484 0.32797 0.09867 0.0
C243 C 0.31821 0.31446 0.08984 0.0
C244 C 0.32464 0.31817 0.10698 0.0
C245 C 0.35861 0.29515 0.10664 0.0
C246 C 0.37325 0.28343 0.09777 0.0
C247 C 0.35319 0.29299 0.08943 0.0
C248 C 0.37411 0.2784 0.11561 0.0
C249 C 0.37689 0.23762 0.11633 0.0
C250 C 0.37776 0.30139 0.12392 0.0
C251 C 0.38161 0.34456 0.12337 0.0
C252 C 0.40871 0.36141 0.11708 0.0
C253 C 0.41246 0.40195 0.1165 0.0
C254 C 0.38916 0.42606 0.12215 0.0
C255 C 0.36214 0.40965 0.12842 0.0
C256 C 0.35838 0.3691 0.12906 0.0
C257 C 0.35204 0.22202 0.15956 0.0
C258 C 0.31707 0.20066 0.1589 0.0
C259 C 0.37132 0.23447 0.15132 0.0
C260 C 0.35592 0.22558 0.14233 0.0
C261 C 0.32128 0.20382 0.14172 0.0
C262 C 0.30225 0.19129 0.14989 0.0
C263 C 0.37263 0.24228 0.13351 0.0
C264 C 0.37631 0.28298 0.13283 0.0
C265 C 0.37676 0.21918 0.12523 0.0
C266 C 0.37879 0.17584 0.12577 0.0
C267 C 0.3554 0.1524 0.11985 0.0
C268 C 0.35712 0.11172 0.12052 0.0
C269 C 0.38213 0.09405 0.12708 0.0
C270 C 0.40551 0.11702 0.13298 0.0
C271 C 0.40395 0.15771 0.13234 0.0
H272 H 0.38337 0.06255 0.1276 0.0
H273 H 0.39207 0.45746 0.12167 0.0
H274 H 0.7795 0.76521 0.38929 0.0
H275 H 0.77249 0.81082 0.37623 0.0
H276 H 0.74036 0.90222 0.39581 0.0
H277 H 0.74868 0.85642 0.40918 0.0
H278 H 0.68949 0.88847 0.37844 0.0
H279 H 0.81385 0.92906 0.38585 0.0
H280 H 0.88107 0.92552 0.39203 0.0
H281 H 0.9125 0.84647 0.36962 0.0
H282 H 0.84539 0.8488 0.3634 0.0
H283 H 0.74066 0.86881 0.32446 0.0
H284 H 0.7502 0.91033 0.33861 0.0
H285 H 0.71592 0.8142 0.35655 0.0
H286 H 0.70757 0.77286 0.34274 0.0
H287 H 0.80018 0.89177 0.35571 0.0
H288 H 0.6446 0.84773 0.37014 0.0
H289 H 0.57778 0.84572 0.36376 0.0
H290 H 0.60852 0.92995 0.34248 0.0
H291 H 0.67547 0.93334 0.34887 0.0
C292 C 0.77147 0.79504 0.3909 0.0
C293 C 0.76529 0.80732 0.40028 0.0
C294 C 0.76753 0.82115 0.38342 0.0
C295 C 0.75692 0.86006 0.38511 0.0
C296 C 0.74925 0.87242 0.39442 0.0
C297 C 0.75372 0.84618 0.402 0.0
C298 C 0.75178 0.8857 0.37679 0.0
C299 C 0.71357 0.89081 0.37347 0.0
C300 C 0.78355 0.89103 0.3705 0.0
C301 C 0.82444 0.88953 0.37408 0.0
C302 C 0.83504 0.91087 0.38223 0.0
C303 C 0.87317 0.90903 0.38575 0.0
C304 C 0.90109 0.88597 0.38119 0.0
C305 C 0.89089 0.86454 0.37311 0.0
C306 C 0.85279 0.86622 0.36956 0.0
C307 C 0.73548 0.85663 0.33145 0.0
C308 C 0.72294 0.8177 0.3325 0.0
C309 C 0.74061 0.88043 0.33947 0.0
C310 C 0.73265 0.86554 0.34855 0.0
C311 C 0.72116 0.82651 0.34956 0.0
C312 C 0.71646 0.80285 0.34165 0.0
C313 C 0.73788 0.8886 0.3573 0.0
C314 C 0.77609 0.89264 0.3607 0.0
C315 C 0.70609 0.89208 0.36367 0.0
C316 C 0.66518 0.89117 0.36008 0.0
C317 C 0.63709 0.86645 0.36422 0.0
C318 C 0.59916 0.86492 0.36056 0.0
C319 C 0.58889 0.88784 0.35274 0.0
C320 C 0.61651 0.91237 0.34856 0.0
C321 C 0.65445 0.91412 0.3522 0.0
H322 H 0.55955 0.8865 0.3499 0.0
H323 H 0.9306 0.88459 0.38392 0.0
H324 H 0.17388 0.23794 0.57597 0.0
H325 H 0.14757 0.26619 0.59064 0.0
H326 H 0.23642 0.20685 0.60686 0.0
H327 H 0.26294 0.17861 0.5923 0.0
H328 H 0.12195 0.2346 0.60911 0.0
H329 H 0.27818 0.27719 0.6203 0.0
H330 H 0.34149 0.29259 0.61282 0.0
H331 H 0.2824 0.33284 0.58774 0.0
H332 H 0.21877 0.31825 0.59513 0.0
H333 H 0.15369 0.27087 0.65817 0.0
H334 H 0.14408 0.25158 0.64164 0.0
H335 H 0.16861 0.36942 0.6326 0.0
H336 H 0.1794 0.38849 0.64907 0.0
H337 H 0.21747 0.32201 0.6249 0.0
H338 H 0.07973 0.32445 0.62783 0.0
H339 H 0.01535 0.31123 0.63496 0.0
H340 H 0.03311 0.18808 0.6313 0.0
H341 H 0.09788 0.20048 0.62427 0.0
C342 C 0.18745 0.23046 0.58268 0.0
C343 C 0.22076 0.20642 0.58299 0.0
C344 C 0.17218 0.24638 0.59104 0.0
C345 C 0.19028 0.23873 0.59977 0.0
C346 C 0.2222 0.21311 0.60015 0.0
C347 C 0.23733 0.19706 0.59182 0.0
C348 C 0.17901 0.26069 0.60836 0.0
C349 C 0.14255 0.25393 0.61259 0.0
C350 C 0.20561 0.28668 0.61267 0.0
C351 C 0.24375 0.29631 0.60824 0.0
C352 C 0.27871 0.28952 0.61321 0.0
C353 C 0.31465 0.29807 0.60898 0.0
C354 C 0.31597 0.31358 0.5998 0.0
C355 C 0.28135 0.3207 0.59484 0.0
C356 C 0.24534 0.31225 0.59904 0.0
C357 C 0.15583 0.29294 0.65268 0.0
C358 C 0.1682 0.33097 0.65488 0.0
C359 C 0.15008 0.28192 0.64322 0.0
C360 C 0.1559 0.30901 0.63587 0.0
C361 C 0.16432 0.34797 0.63816 0.0
C362 C 0.17062 0.35881 0.64759 0.0
C363 C 0.16056 0.2953 0.62594 0.0
C364 C 0.19618 0.3034 0.62143 0.0
C365 C 0.13284 0.2711 0.62136 0.0
C366 C 0.09383 0.26342 0.62557 0.0
C367 C 0.07006 0.29452 0.62861 0.0
C368 C 0.03346 0.28718 0.63262 0.0
C369 C 0.02017 0.24884 0.63359 0.0
C370 C 0.04344 0.21777 0.63054 0.0
C371 C 0.08009 0.22494 0.62652 0.0
H372 H 0.99183 0.24321 0.63671 0.0
H373 H 0.34382 0.32014 0.59654 0.0
H374 H 0.79377 0.64269 0.82706 0.0
H375 H 0.7554 0.61887 0.84057 0.0
H376 H 0.82563 0.68776 0.85964 0.0
H377 H 0.86413 0.71159 0.84629 0.0
H378 H 0.77988 0.59275 0.86361 0.0
H379 H 0.753 0.75381 0.86368 0.0
H380 H 0.75064 0.80967 0.8526 0.0
H381 H 0.70353 0.73553 0.83083 0.0
H382 H 0.70518 0.67945 0.84184 0.0
H383 H 0.72024 0.67354 0.9072 0.0
H384 H 0.74621 0.64654 0.89245 0.0
H385 H 0.63603 0.66857 0.87854 0.0
H386 H 0.61047 0.6966 0.89319 0.0
H387 H 0.69039 0.70403 0.86968 0.0
H388 H 0.67526 0.57327 0.87986 0.0
H389 H 0.67829 0.51637 0.89055 0.0
H390 H 0.80318 0.52566 0.89171 0.0
H391 H 0.80098 0.58258 0.881 0.0
C392 C 0.80182 0.65181 0.83417 0.0
C393 C 0.83151 0.67955 0.83561 0.0
C394 C 0.78013 0.63784 0.84186 0.0
C395 C 0.78786 0.65164 0.85104 0.0
C396 C 0.81962 0.67658 0.85259 0.0
C397 C 0.84137 0.6904 0.84493 0.0
C398 C 0.75833 0.64796 0.85857 0.0
C399 C 0.75976 0.61659 0.86494 0.0
C400 C 0.73175 0.67877 0.86009 0.0
C401 C 0.72947 0.71252 0.85354 0.0
C402 C 0.74195 0.74957 0.85654 0.0
C403 C 0.74078 0.78122 0.85028 0.0
C404 C 0.72703 0.77613 0.84101 0.0
C405 C 0.71427 0.73942 0.838 0.0
C406 C 0.71534 0.7077 0.84424 0.0
C407 C 0.7013 0.67182 0.90105 0.0
C408 C 0.66374 0.68825 0.90125 0.0
C409 C 0.71602 0.65593 0.89264 0.0
C410 C 0.69308 0.65554 0.88436 0.0
C411 C 0.65435 0.66882 0.88482 0.0
C412 C 0.63988 0.68526 0.89317 0.0
C413 C 0.7117 0.64881 0.87501 0.0
C414 C 0.70894 0.67897 0.86829 0.0
C415 C 0.73629 0.61641 0.87315 0.0
C416 C 0.73791 0.58235 0.87965 0.0
C417 C 0.70337 0.56336 0.88244 0.0
C418 C 0.70494 0.53104 0.8885 0.0
C419 C 0.74087 0.51753 0.89185 0.0
C420 C 0.77535 0.53617 0.88911 0.0
C421 C 0.77398 0.56836 0.88301 0.0
H422 H 0.742 0.49256 0.89656 0.0
H423 H 0.72621 0.80065 0.83616 0.0
H424 H 0.79639 0.85048 0.59203 0.0
H425 H 0.81126 0.81615 0.60679 0.0
H426 H 0.84104 0.71275 0.59087 0.0
H427 H 0.82692 0.74721 0.57602 0.0
H428 H 0.77821 0.70529 0.60414 0.0
H429 H 0.91008 0.74767 0.60329 0.0
H430 H 0.96397 0.79467 0.60139 0.0
H431 H 0.92194 0.86016 0.62532 0.0
H432 H 0.86743 0.8139 0.62729 0.0
H433 H 0.76715 0.62003 0.64953 0.0
H434 H 0.79639 0.63515 0.63409 0.0
H435 H 0.80343 0.75674 0.64203 0.0
H436 H 0.77642 0.74121 0.65761 0.0
H437 H 0.86219 0.74125 0.63149 0.0
H438 H 0.72292 0.71454 0.62922 0.0
H439 H 0.66382 0.674 0.63094 0.0
H440 H 0.71406 0.58675 0.61274 0.0
H441 H 0.77365 0.62665 0.611 0.0
C442 C 0.80699 0.82078 0.59164 0.0
C443 C 0.81002 0.80137 0.58289 0.0
C444 C 0.8158 0.8013 0.60008 0.0
C445 C 0.82731 0.76201 0.59988 0.0
C446 C 0.83246 0.74318 0.59113 0.0
C447 C 0.82433 0.7629 0.58267 0.0
C448 C 0.82734 0.73944 0.6088 0.0
C449 C 0.79731 0.7122 0.61006 0.0
C450 C 0.85166 0.74943 0.61652 0.0
C451 C 0.88452 0.77733 0.61541 0.0
C452 C 0.91214 0.77224 0.60811 0.0
C453 C 0.94284 0.79874 0.60703 0.0
C454 C 0.94636 0.8304 0.61323 0.0
C455 C 0.9192 0.8356 0.62053 0.0
C456 C 0.88842 0.8092 0.62164 0.0
C457 C 0.77525 0.64986 0.64797 0.0
C458 C 0.76883 0.67965 0.65463 0.0
C459 C 0.79204 0.65849 0.63917 0.0
C460 C 0.80121 0.69726 0.63679 0.0
C461 C 0.7966 0.72661 0.64367 0.0
C462 C 0.7809 0.7178 0.65255 0.0
C463 C 0.81193 0.70829 0.62694 0.0
C464 C 0.84388 0.73335 0.6255 0.0
C465 C 0.78867 0.69719 0.61906 0.0
C466 C 0.75287 0.67328 0.62008 0.0
C467 C 0.72142 0.68659 0.62563 0.0
C468 C 0.68785 0.66375 0.62661 0.0
C469 C 0.68525 0.62775 0.62198 0.0
C470 C 0.71617 0.61458 0.61634 0.0
C471 C 0.74984 0.63728 0.61536 0.0
H472 H 0.65923 0.61011 0.62275 0.0
H473 H 0.97015 0.85088 0.61238 0.0
H474 H 0.27306 0.36911 0.91492 0.0
H475 H 0.25914 0.40945 0.90081 0.0
H476 H 0.27403 0.3082 0.88293 0.0
H477 H 0.28844 0.26844 0.89676 0.0
H478 H 0.31377 0.38385 0.87692 0.0
H479 H 0.1607 0.32907 0.88261 0.0
H480 H 0.10974 0.32739 0.89502 0.0
H481 H 0.14881 0.43822 0.90563 0.0
H482 H 0.19972 0.44064 0.89322 0.0
H483 H 0.18379 0.26831 0.8486 0.0
H484 H 0.19459 0.30985 0.86225 0.0
H485 H 0.24605 0.39784 0.84422 0.0
H486 H 0.23548 0.3556 0.83033 0.0
H487 H 0.17359 0.38152 0.86823 0.0
H488 H 0.31726 0.43824 0.85722 0.0
H489 H 0.36945 0.42884 0.8453 0.0
H490 H 0.35052 0.30494 0.84597 0.0
H491 H 0.2984 0.31375 0.85792 0.0
C492 C 0.27328 0.35565 0.90795 0.0
C493 C 0.28178 0.31565 0.90691 0.0
C494 C 0.26546 0.37871 0.89993 0.0
C495 C 0.26571 0.36176 0.89085 0.0
C496 C 0.27422 0.32192 0.88988 0.0
C497 C 0.28229 0.29917 0.89779 0.0
C498 C 0.25474 0.38326 0.88217 0.0
C499 C 0.28312 0.38567 0.875 0.0
C500 C 0.21492 0.38602 0.87969 0.0
C501 C 0.18402 0.38495 0.88704 0.0
C502 C 0.15825 0.35313 0.88757 0.0
C503 C 0.12943 0.35202 0.89461 0.0
C504 C 0.12609 0.38264 0.90112 0.0
C505 C 0.15149 0.41448 0.9006 0.0
C506 C 0.18033 0.41572 0.89357 0.0
C507 C 0.19677 0.29672 0.84746 0.0
C508 C 0.20895 0.30856 0.83839 0.0
C509 C 0.20269 0.32069 0.85529 0.0
C510 C 0.22096 0.35711 0.85427 0.0
C511 C 0.23191 0.36985 0.84516 0.0
C512 C 0.22606 0.34562 0.83726 0.0
C513 C 0.23267 0.37802 0.86303 0.0
C514 C 0.20426 0.38365 0.8701 0.0
C515 C 0.27254 0.38231 0.86542 0.0
C516 C 0.30393 0.37669 0.85836 0.0
C517 C 0.32436 0.40905 0.85481 0.0
C518 C 0.35386 0.40382 0.84806 0.0
C519 C 0.36323 0.36633 0.84486 0.0
C520 C 0.3432 0.33396 0.84843 0.0
C521 C 0.31372 0.33904 0.8552 0.0
H522 H 0.38604 0.36235 0.83962 0.0
H523 H 0.10379 0.38172 0.90657 0.0
H524 H 0.71351 0.65436 0.08954 0.0
H525 H 0.68679 0.68783 0.10336 0.0
H526 H 0.65385 0.7854 0.08573 0.0
H527 H 0.68003 0.75168 0.07177 0.0
H528 H 0.70613 0.80266 0.10054 0.0
H529 H 0.583 0.74236 0.09666 0.0
H530 H 0.5369 0.68856 0.09365 0.0
H531 H 0.57606 0.63022 0.11892 0.0
H532 H 0.62286 0.68334 0.12201 0.0
H533 H 0.69755 0.88421 0.14592 0.0
H534 H 0.66987 0.86811 0.13035 0.0
H535 H 0.67547 0.74549 0.1374 0.0
H536 H 0.70053 0.76184 0.15313 0.0
H537 H 0.61792 0.75536 0.12602 0.0
H538 H 0.75398 0.79882 0.12616 0.0
H539 H 0.80655 0.84653 0.12913 0.0
H540 H 0.74967 0.92925 0.11084 0.0
H541 H 0.69655 0.8821 0.10785 0.0
C542 C 0.69987 0.6825 0.08854 0.0
C543 C 0.69935 0.70059 0.07959 0.0
C544 C 0.6842 0.70144 0.09644 0.0
C545 C 0.66814 0.73893 0.09553 0.0
C546 C 0.6658 0.7563 0.08653 0.0
C547 C 0.68091 0.73705 0.07859 0.0
C548 C 0.66061 0.76202 0.10418 0.0
C549 C 0.6859 0.79322 0.10602 0.0
C550 C 0.63484 0.74895 0.11134 0.0
C551 C 0.60657 0.7169 0.10956 0.0
C552 C 0.582 0.71795 0.10155 0.0
C553 C 0.55569 0.68757 0.09983 0.0
C554 C 0.55356 0.65599 0.10608 0.0
C555 C 0.57771 0.65474 0.11408 0.0
C556 C 0.60408 0.68503 0.11583 0.0
C557 C 0.69219 0.85393 0.14416 0.0
C558 C 0.70195 0.8241 0.15055 0.0
C559 C 0.6763 0.84474 0.13529 0.0
C560 C 0.67172 0.80552 0.13258 0.0
C561 C 0.67884 0.77596 0.13929 0.0
C562 C 0.69345 0.78525 0.14825 0.0
C563 C 0.66493 0.79461 0.12252 0.0
C564 C 0.63704 0.7658 0.12042 0.0
C565 C 0.68914 0.80902 0.11514 0.0
C566 C 0.72112 0.83722 0.11688 0.0
C567 C 0.75264 0.82727 0.12281 0.0
C568 C 0.7825 0.85419 0.1245 0.0
C569 C 0.78137 0.89095 0.1202 0.0
C570 C 0.75044 0.90081 0.11418 0.0
C571 C 0.72045 0.87402 0.11249 0.0
H572 H 0.80452 0.91175 0.12152 0.0
H573 H 0.53319 0.63249 0.10474 0.0
H574 H 0.1414 0.19096 0.39665 0.0
H575 H 0.18535 0.16704 0.38437 0.0
H576 H 0.27605 0.15115 0.40529 0.0
H577 H 0.23179 0.1751 0.4177 0.0
H578 H 0.29587 0.20112 0.39074 0.0
H579 H 0.24774 0.07272 0.39346 0.0
H580 H 0.19843 0.02083 0.39518 0.0
H581 H 0.14888 0.05185 0.36819 0.0
H582 H 0.19746 0.10433 0.36636 0.0
H583 H 0.397 0.20063 0.34745 0.0
H584 H 0.37759 0.17208 0.36269 0.0
H585 H 0.25823 0.16602 0.35289 0.0
H586 H 0.27805 0.19246 0.33753 0.0
H587 H 0.27038 0.1084 0.36439 0.0
H588 H 0.29868 0.24878 0.36524 0.0
H589 H 0.34181 0.30601 0.36346 0.0
H590 H 0.42183 0.257 0.38372 0.0
H591 H 0.37928 0.19929 0.38552 0.0
C592 C 0.17043 0.18186 0.39867 0.0
C593 C 0.18346 0.18566 0.40808 0.0
C594 C 0.19538 0.16759 0.39167 0.0
C595 C 0.23387 0.15711 0.39394 0.0
C596 C 0.24632 0.15879 0.40343 0.0
C597 C 0.22109 0.17256 0.41048 0.0
C598 C 0.26221 0.15151 0.38615 0.0
C599 C 0.29128 0.17994 0.38511 0.0
C600 C 0.25559 0.12432 0.37877 0.0
C601 C 0.22634 0.09256 0.37978 0.0
C602 C 0.22621 0.06865 0.38791 0.0
C603 C 0.19838 0.03909 0.3889 0.0
C604 C 0.17054 0.03305 0.3818 0.0
C605 C 0.17051 0.05652 0.37368 0.0
C606 C 0.19826 0.08613 0.37265 0.0
C607 C 0.36676 0.19276 0.34855 0.0
C608 C 0.33875 0.19961 0.34147 0.0
C609 C 0.35572 0.17629 0.35722 0.0
C610 C 0.31627 0.16788 0.35903 0.0
C611 C 0.28883 0.17231 0.35169 0.0
C612 C 0.30008 0.18771 0.34294 0.0
C613 C 0.30227 0.15949 0.36879 0.0
C614 C 0.27607 0.12847 0.37019 0.0
C615 C 0.31073 0.1849 0.37646 0.0
C616 C 0.33615 0.2196 0.37542 0.0
C617 C 0.32558 0.25018 0.36927 0.0
C618 C 0.3499 0.28267 0.36826 0.0
C619 C 0.38461 0.28507 0.37345 0.0
C620 C 0.395 0.25504 0.37968 0.0
C621 C 0.37081 0.22244 0.3807 0.0
H622 H 0.40341 0.31025 0.37266 0.0
H623 H 0.14901 0.01017 0.38258 0.0
H624 H 0.17922 0.18188 0.21636 0.0
H625 H 0.18946 0.19272 0.23338 0.0
H626 H 0.314 0.18346 0.22931 0.0
H627 H 0.30409 0.17194 0.21241 0.0
H628 H 0.29165 0.14461 0.24481 0.0
H629 H 0.2688 0.27228 0.23123 0.0
H630 H 0.23142 0.32164 0.22228 0.0
H631 H 0.13609 0.3106 0.24192 0.0
H632 H 0.17275 0.26078 0.25093 0.0
H633 H 0.37117 0.23726 0.28485 0.0
H634 H 0.35105 0.2221 0.26863 0.0
H635 H 0.23009 0.23121 0.2769 0.0
H636 H 0.24993 0.24696 0.29315 0.0
H637 H 0.24422 0.26669 0.25991 0.0
H638 H 0.27067 0.14283 0.27435 0.0
H639 H 0.30989 0.09526 0.28341 0.0
H640 H 0.39971 0.09992 0.26216 0.0
H641 H 0.36131 0.14797 0.25303 0.0
C642 C 0.20875 0.18198 0.21911 0.0
C643 C 0.24085 0.17629 0.21303 0.0
C644 C 0.21455 0.18829 0.22882 0.0
C645 C 0.25251 0.1893 0.23258 0.0
C646 C 0.28447 0.18277 0.22656 0.0
C647 C 0.27873 0.17633 0.21688 0.0
C648 C 0.25941 0.19796 0.24274 0.0
C649 C 0.2815 0.17141 0.2481 0.0
C650 C 0.24531 0.23248 0.24707 0.0
C651 C 0.22332 0.2625 0.24168 0.0
C652 C 0.23974 0.28016 0.2336 0.0
C653 C 0.21871 0.30826 0.22852 0.0
C654 C 0.18135 0.31916 0.23151 0.0
C655 C 0.165 0.30207 0.2396 0.0
C656 C 0.18589 0.27392 0.2447 0.0
C657 C 0.34029 0.23624 0.28322 0.0
C658 C 0.31213 0.24306 0.2903 0.0
C659 C 0.32885 0.2274 0.27396 0.0
C660 C 0.2891 0.22492 0.27162 0.0
C661 C 0.26091 0.23282 0.27859 0.0
C662 C 0.27232 0.24173 0.28786 0.0
C663 C 0.27711 0.21371 0.26191 0.0
C664 C 0.25399 0.23969 0.25665 0.0
C665 C 0.29036 0.17871 0.25765 0.0
C666 C 0.31321 0.14924 0.26304 0.0
C667 C 0.29888 0.13388 0.27163 0.0
C668 C 0.32096 0.10682 0.27678 0.0
C669 C 0.3573 0.09466 0.27337 0.0
C670 C 0.37157 0.1094 0.26479 0.0
C671 C 0.34964 0.13651 0.25962 0.0
H672 H 0.37438 0.0738 0.27737 0.0
H673 H 0.16512 0.34092 0.22757 0.0
H674 H 0.72301 0.70275 0.45332 0.0
H675 H 0.71658 0.71575 0.47033 0.0
H676 H 0.82646 0.77721 0.47007 0.0
H677 H 0.83337 0.76407 0.45309 0.0
H678 H 0.81872 0.73029 0.48571 0.0
H679 H 0.74298 0.82749 0.46913 0.0
H680 H 0.69272 0.85059 0.45791 0.0
H681 H 0.60434 0.78996 0.47373 0.0
H682 H 0.65421 0.76605 0.48498 0.0
H683 H 0.80282 0.84235 0.52761 0.0
H684 H 0.80839 0.82233 0.51101 0.0
H685 H 0.69657 0.7649 0.51281 0.0
H686 H 0.69048 0.78519 0.5294 0.0
H687 H 0.70378 0.80656 0.49657 0.0
H688 H 0.77893 0.71176 0.5136 0.0
H689 H 0.8291 0.68871 0.52485 0.0
H690 H 0.91838 0.74435 0.50826 0.0
H691 H 0.86865 0.76821 0.49698 0.0
C692 C 0.74599 0.71873 0.45689 0.0
C693 C 0.77854 0.7327 0.45185 0.0
C694 C 0.7422 0.72621 0.4666 0.0
C695 C 0.77079 0.74788 0.4714 0.0
C696 C 0.80405 0.76051 0.46647 0.0
C697 C 0.80786 0.75308 0.45677 0.0
C698 C 0.76541 0.75874 0.48147 0.0
C699 C 0.79381 0.74728 0.48808 0.0
C700 C 0.73242 0.78015 0.48456 0.0
C701 C 0.70238 0.79464 0.47783 0.0
C702 C 0.71288 0.81883 0.47017 0.0
C703 C 0.68445 0.83211 0.46382 0.0
C704 C 0.64537 0.82166 0.46509 0.0
C705 C 0.63463 0.79798 0.47274 0.0
C706 C 0.66295 0.78458 0.47911 0.0
C707 C 0.77932 0.8256 0.52447 0.0
C708 C 0.74629 0.81517 0.52983 0.0
C709 C 0.78265 0.81402 0.515 0.0
C710 C 0.75316 0.79164 0.51075 0.0
C711 C 0.71971 0.78202 0.51599 0.0
C712 C 0.71633 0.7936 0.52547 0.0
C713 C 0.75724 0.77834 0.50081 0.0
C714 C 0.72859 0.78937 0.49422 0.0
C715 C 0.78999 0.75651 0.49774 0.0
C716 C 0.82001 0.74207 0.50449 0.0
C717 C 0.80922 0.71934 0.51239 0.0
C718 C 0.83759 0.70608 0.51877 0.0
C719 C 0.87689 0.71514 0.51728 0.0
C720 C 0.88792 0.73739 0.50941 0.0
C721 C 0.85966 0.75076 0.50302 0.0
H722 H 0.89881 0.70484 0.52223 0.0
H723 H 0.62341 0.83198 0.46016 0.0
H724 H 0.29979 0.27115 0.70689 0.0
H725 H 0.30183 0.25148 0.72361 0.0
H726 H 0.18902 0.30444 0.72814 0.0
H727 H 0.18684 0.32447 0.71152 0.0
H728 H 0.2417 0.32655 0.74143 0.0
H729 H 0.19883 0.20637 0.72669 0.0
H730 H 0.20397 0.15091 0.71559 0.0
H731 H 0.31273 0.117 0.72834 0.0
H732 H 0.30848 0.17262 0.73944 0.0
H733 H 0.17128 0.25532 0.7842 0.0
H734 H 0.18114 0.26578 0.76727 0.0
H735 H 0.29482 0.21204 0.76905 0.0
H736 H 0.28511 0.20104 0.78612 0.0
H737 H 0.25211 0.1898 0.7528 0.0
H738 H 0.292 0.3068 0.76844 0.0
H739 H 0.28605 0.36161 0.7797 0.0
H740 H 0.18316 0.40157 0.76522 0.0
H741 H 0.18816 0.34665 0.75395 0.0
C742 C 0.27533 0.2784 0.71144 0.0
C743 C 0.2432 0.29947 0.7079 0.0
C744 C 0.2765 0.26703 0.72097 0.0
C745 C 0.24552 0.27644 0.72708 0.0
C746 C 0.21327 0.29702 0.72353 0.0
C747 C 0.21205 0.30836 0.71403 0.0
C748 C 0.24695 0.26625 0.73728 0.0
C749 C 0.24369 0.29663 0.74391 0.0
C750 C 0.251 0.22732 0.74049 0.0
C751 C 0.25357 0.19393 0.73382 0.0
C752 C 0.22402 0.18731 0.72707 0.0
C753 C 0.22673 0.1558 0.72079 0.0
C754 C 0.25872 0.13053 0.72124 0.0
C755 C 0.28801 0.13665 0.72799 0.0
C756 C 0.28545 0.16814 0.73428 0.0
C757 C 0.19834 0.24546 0.78102 0.0
C758 C 0.22763 0.22773 0.78653 0.0
C759 C 0.20392 0.25152 0.77134 0.0
C760 C 0.23894 0.24024 0.76697 0.0
C761 C 0.26768 0.22109 0.77233 0.0
C762 C 0.26211 0.21495 0.78207 0.0
C763 C 0.2456 0.25003 0.75688 0.0
C764 C 0.2506 0.21972 0.7503 0.0
C765 C 0.24323 0.28907 0.75368 0.0
C766 C 0.24033 0.32243 0.76038 0.0
C767 C 0.26796 0.32712 0.76769 0.0
C768 C 0.26477 0.35823 0.77407 0.0
C769 C 0.23421 0.38502 0.77319 0.0
C770 C 0.20682 0.3808 0.7659 0.0
C771 C 0.20984 0.34971 0.75951 0.0
H772 H 0.23178 0.40908 0.77814 0.0
H773 H 0.26076 0.10614 0.71637 0.0
H774 H 0.73054 0.64035 0.02526 0.0
H775 H 0.71705 0.65784 0.00879 0.0
H776 H 0.77696 0.76745 0.01266 0.0
H777 H 0.7901 0.75044 0.02924 0.0
H778 H 0.70762 0.77805 0.00434 0.0
H779 H 0.81772 0.69597 -0.00076 0.0
H780 H 0.85864 0.63712 0.00087 0.0
H781 H 0.76876 0.56782 0.98794 0.0
H782 H 0.72703 0.62617 0.98636 0.0
H783 H 0.69493 0.81867 0.95422 0.0
H784 H 0.71892 0.8076 0.97039 0.0
H785 H 0.65805 0.69748 0.97133 0.0
H786 H 0.63406 0.70814 0.95521 0.0
H787 H 0.73492 0.69146 0.97687 0.0
H788 H 0.62326 0.77383 0.9833 0.0
H789 H 0.58311 0.83325 0.98171 0.0
H790 H 0.67822 0.90291 0.99206 0.0
H791 H 0.71914 0.84392 0.99358 0.0
C792 C 0.74126 0.668 0.02259 0.0
C793 C 0.76131 0.69406 0.02856 0.0
C794 C 0.73365 0.67788 0.01316 0.0
C795 C 0.74629 0.71381 0.0095 0.0
C796 C 0.767 0.73958 0.01537 0.0
C797 C 0.77456 0.72974 0.02482 0.0
C798 C 0.73589 0.72516 -0.00032 0.0
C799 C 0.71426 0.75952 -0.0017 0.0
C800 C 0.74408 0.70065 0.99184 0.0
C801 C 0.76912 0.66544 0.99275 0.0
C802 C 0.80655 0.66814 -0.00319 0.0
C803 C 0.82991 0.63487 -0.00228 0.0
C804 C 0.81628 0.59874 0.99453 0.0
C805 C 0.77927 0.59583 0.99041 0.0
C806 C 0.75577 0.629 0.9895 0.0
C807 C 0.68636 0.79227 0.95791 0.0
C808 C 0.66271 0.76422 0.95343 0.0
C809 C 0.70006 0.78604 0.96714 0.0
C810 C 0.69025 0.75171 0.97202 0.0
C811 C 0.66606 0.72407 0.96764 0.0
C812 C 0.65225 0.73031 0.95845 0.0
C813 C 0.706 0.74382 0.9816 0.0
C814 C 0.72871 0.71016 0.98291 0.0
C815 C 0.699 0.76908 0.98936 0.0
C816 C 0.67441 0.80453 0.98844 0.0
C817 C 0.63573 0.80186 0.98515 0.0
C818 C 0.61281 0.83545 0.98428 0.0
C819 C 0.62814 0.87185 0.98675 0.0
C820 C 0.6664 0.87471 0.99013 0.0
C821 C 0.68947 0.84121 0.991 0.0
H822 H 0.61034 0.89782 0.98608 0.0
H823 H 0.83441 0.57302 -0.00477 0.0
H824 H 0.26651 0.33794 0.03391 0.0
H825 H 0.2743 0.32215 0.01715 0.0
H826 H 0.26296 0.19951 0.02355 0.0
H827 H 0.25581 0.21504 0.04045 0.0
H828 H 0.3228 0.2129 0.01156 0.0
H829 H 0.18824 0.24804 0.01313 0.0
H830 H 0.13147 0.28869 0.01742 0.0
H831 H 0.17618 0.38259 0.0004 0.0
H832 H 0.23354 0.34271 -0.00388 0.0
H833 H 0.30187 0.166 0.96194 0.0
H834 H 0.29132 0.17236 0.97909 0.0
H835 H 0.30819 0.29683 0.97702 0.0
H836 H 0.31876 0.29085 0.95992 0.0
H837 H 0.24124 0.27647 0.98685 0.0
H838 H 0.37795 0.24224 0.98629 0.0
H839 H 0.43471 0.20137 0.98211 0.0
H840 H 0.38464 0.10468 -0.00278 0.0
H841 H 0.32729 0.14486 0.00138 0.0
C842 C 0.26548 0.30759 0.03177 0.0
C843 C 0.26042 0.27772 0.03851 0.0
C844 C 0.26979 0.29863 0.02217 0.0
C845 C 0.26866 0.25971 0.0191 0.0
C846 C 0.26376 0.22975 0.02579 0.0
C847 C 0.25958 0.23869 0.03543 0.0
C848 C 0.27357 0.25058 0.0089 0.0
C849 C 0.30451 0.22618 0.00615 0.0
C850 C 0.25003 0.26843 0.00187 0.0
C851 C 0.21536 0.29245 0.00436 0.0
C852 C 0.18611 0.27745 0.01035 0.0
C853 C 0.1538 0.30035 0.01277 0.0
C854 C 0.15026 0.33823 0.0092 0.0
C855 C 0.17897 0.35325 0.00317 0.0
C856 C 0.21137 0.33049 0.00073 0.0
C857 C 0.30363 0.19468 0.96515 0.0
C858 C 0.31102 0.22794 0.95958 0.0
C859 C 0.29767 0.19823 0.97494 0.0
C860 C 0.29899 0.23506 0.97928 0.0
C861 C 0.30695 0.26818 0.97376 0.0
C862 C 0.31313 0.26466 0.96401 0.0
C863 C 0.29088 0.23946 0.98953 0.0
C864 C 0.25924 0.26289 0.99227 0.0
C865 C 0.31365 0.22058 -0.00347 0.0
C866 C 0.34812 0.19641 0.99405 0.0
C867 C 0.37887 0.21216 0.98865 0.0
C868 C 0.41119 0.18914 0.9863 0.0
C869 C 0.41322 0.15041 0.98937 0.0
C870 C 0.38299 0.13466 -0.00517 0.0
C871 C 0.35059 0.15754 -0.00282 0.0
H872 H 0.43827 0.13264 0.98755 0.0
H873 H 0.12524 0.35593 0.01109 0.0
H874 H 0.69503 0.67071 0.27729 0.0
H875 H 0.70104 0.67577 0.26001 0.0
H876 H 0.68592 0.8006 0.26183 0.0
H877 H 0.67923 0.79579 0.27905 0.0
H878 H 0.64626 0.77079 0.24699 0.0
H879 H 0.77647 0.76025 0.26019 0.0
H880 H 0.82867 0.72887 0.26955 0.0
H881 H 0.82142 0.62674 0.25194 0.0
H882 H 0.76878 0.65738 0.24255 0.0
H883 H 0.73744 0.84898 0.20677 0.0
H884 H 0.72123 0.82928 0.22294 0.0
H885 H 0.73479 0.70825 0.21514 0.0
H886 H 0.7513 0.72771 0.19887 0.0
H887 H 0.7704 0.72684 0.23223 0.0
H888 H 0.64573 0.74256 0.2176 0.0
H889 H 0.5956 0.77635 0.20807 0.0
H890 H 0.59336 0.87039 0.22824 0.0
H891 H 0.64394 0.83748 0.23781 0.0
C892 C 0.6927 0.6992 0.274 0.0
C893 C 0.68705 0.73291 0.27954 0.0
C894 C 0.69619 0.70202 0.26414 0.0
C895 C 0.6944 0.73861 0.25968 0.0
C896 C 0.68739 0.77209 0.26515 0.0
C897 C 0.68376 0.7693 0.27499 0.0
C898 C 0.70164 0.74257 0.24937 0.0
C899 C 0.67344 0.76132 0.24376 0.0
C900 C 0.73671 0.72928 0.24513 0.0
C901 C 0.76839 0.7109 0.25075 0.0
C902 C 0.7858 0.73098 0.25837 0.0
C903 C 0.8155 0.71335 0.26366 0.0
C904 C 0.82827 0.67578 0.26136 0.0
C905 C 0.81144 0.6558 0.25373 0.0
C906 C 0.78169 0.67329 0.24842 0.0
C907 C 0.73715 0.81816 0.20848 0.0
C908 C 0.74549 0.78987 0.20153 0.0
C909 C 0.72765 0.80697 0.21771 0.0
C910 C 0.72623 0.76733 0.22016 0.0
C911 C 0.73552 0.73899 0.21333 0.0
C912 C 0.7449 0.75016 0.20406 0.0
C913 C 0.71541 0.75585 0.22992 0.0
C914 C 0.74292 0.73567 0.23542 0.0
C915 C 0.67978 0.76799 0.23406 0.0
C916 C 0.64886 0.78764 0.22839 0.0
C917 C 0.63474 0.77057 0.21997 0.0
C918 C 0.60621 0.78955 0.21457 0.0
C919 C 0.59136 0.82553 0.21754 0.0
C920 C 0.60491 0.84253 0.22594 0.0
C921 C 0.63347 0.82369 0.23137 0.0
H922 H 0.56932 0.8402 0.21334 0.0
H923 H 0.85127 0.66218 0.26547 0.0
H924 H 0.14577 0.32458 0.45796 0.0
H925 H 0.16715 0.31841 0.47446 0.0
H926 H 0.1224 0.20082 0.47537 0.0
H927 H 0.10057 0.20677 0.4589 0.0
H928 H 0.11006 0.23997 0.49211 0.0
H929 H 0.21621 0.21528 0.47046 0.0
H930 H 0.26081 0.2304 0.45721 0.0
H931 H 0.30177 0.33193 0.47206 0.0
H932 H 0.25695 0.3177 0.48535 0.0
H933 H 0.22408 0.15506 0.52832 0.0
H934 H 0.19622 0.17052 0.5128 0.0
H935 H 0.24241 0.28735 0.51465 0.0
H936 H 0.27052 0.27218 0.53022 0.0
H937 H 0.25307 0.25325 0.4969 0.0
H938 H 0.14946 0.27449 0.51917 0.0
H939 H 0.10577 0.25739 0.53246 0.0
H940 H 0.06071 0.1606 0.51649 0.0
H941 H 0.10458 0.17679 0.50315 0.0
C942 C 0.13981 0.29764 0.46172 0.0
C943 C 0.12198 0.26594 0.45709 0.0
C944 C 0.15217 0.29415 0.47113 0.0
C945 C 0.14701 0.25891 0.47604 0.0
C946 C 0.12682 0.22818 0.47167 0.0
C947 C 0.11444 0.23163 0.46225 0.0
C948 C 0.16516 0.25298 0.48546 0.0
C949 C 0.14133 0.2426 0.49316 0.0
C950 C 0.20591 0.25709 0.48683 0.0
C951 C 0.2329 0.26569 0.47885 0.0
C952 C 0.23448 0.24102 0.47086 0.0
C953 C 0.25984 0.24939 0.46335 0.0
C954 C 0.28402 0.28218 0.46378 0.0
C955 C 0.28296 0.30659 0.47173 0.0
C956 C 0.2576 0.29838 0.47926 0.0
C957 C 0.22864 0.18396 0.5254 0.0
C958 C 0.24932 0.2125 0.53052 0.0
C959 C 0.21251 0.19278 0.51656 0.0
C960 C 0.21679 0.23023 0.51268 0.0
C961 C 0.23865 0.25835 0.51758 0.0
C962 C 0.25463 0.24963 0.52646 0.0
C963 C 0.198 0.24002 0.50354 0.0
C964 C 0.22174 0.25103 0.49589 0.0
C965 C 0.15722 0.23632 0.50221 0.0
C966 C 0.13057 0.22666 0.51019 0.0
C967 C 0.13046 0.24938 0.51852 0.0
C968 C 0.10562 0.23988 0.52606 0.0
C969 C 0.08055 0.20788 0.52533 0.0
C970 C 0.08018 0.18537 0.51704 0.0
C971 C 0.10499 0.19471 0.50949 0.0
H972 H 0.06134 0.20056 0.53117 0.0
H973 H 0.30366 0.2886 0.45796 0.0
H974 H 0.82884 0.70144 0.70374 0.0
H975 H 0.84467 0.71653 0.72026 0.0
H976 H 0.72495 0.69533 0.72829 0.0
H977 H 0.70863 0.68086 0.71175 0.0
H978 H 0.75451 0.76002 0.73689 0.0
H979 H 0.79397 0.62655 0.7315 0.0
H980 H 0.8295 0.57449 0.72302 0.0
H981 H 0.93866 0.62938 0.72979 0.0
H982 H 0.90373 0.68226 0.73814 0.0
H983 H 0.77175 0.72768 0.78618 0.0
H984 H 0.75988 0.72276 0.76913 0.0
H985 H 0.88274 0.73945 0.76368 0.0
H986 H 0.89504 0.7435 0.78077 0.0
H987 H 0.85496 0.6807 0.75344 0.0
H988 H 0.81646 0.81258 0.75942 0.0
H989 H 0.78145 0.86595 0.76753 0.0
H990 H 0.67159 0.81533 0.75955 0.0
H991 H 0.70594 0.76133 0.7515 0.0
C992 C 0.8058 0.70019 0.70901 0.0
C993 C 0.7675 0.68977 0.70647 0.0
C994 C 0.81494 0.70873 0.71844 0.0
C995 C 0.78605 0.70659 0.72548 0.0
C996 C 0.74762 0.69711 0.72294 0.0
C997 C 0.7384 0.6887 0.7135 0.0
C998 C 0.79604 0.71313 0.73556 0.0
C999 C 0.77618 0.74248 0.74055 0.0
C1000 C 0.82512 0.69085 0.74021 0.0
C1001 C 0.8462 0.65859 0.73537 0.0
C1002 C 0.82554 0.62767 0.73113 0.0
C1003 C 0.84557 0.59802 0.72634 0.0
C1004 C 0.8863 0.59868 0.72585 0.0
C1005 C 0.9071 0.62893 0.73017 0.0
C1006 C 0.8872 0.65877 0.73492 0.0
C1007 C 0.79624 0.73054 0.78136 0.0
C1008 C 0.83433 0.73601 0.78481 0.0
C1009 C 0.78937 0.72791 0.77162 0.0
C1010 C 0.82037 0.73124 0.76514 0.0
C1011 C 0.85842 0.73688 0.76856 0.0
C1012 C 0.86537 0.73926 0.77832 0.0
C1013 C 0.81312 0.72741 0.75483 0.0
C1014 C 0.83349 0.69851 0.74978 0.0
C1015 C 0.78458 0.75019 0.75011 0.0
C1016 C 0.76381 0.78272 0.75492 0.0
C1017 C 0.78484 0.81266 0.75945 0.0
C1018 C 0.7651 0.84306 0.76403 0.0
C1019 C 0.72432 0.84399 0.76407 0.0
C1020 C 0.70318 0.81456 0.75952 0.0
C1021 C 0.72277 0.78407 0.75494 0.0
H1022 H 0.7091 0.86755 0.76762 0.0
H1023 H 0.90175 0.57572 0.72213 0.0
H1024 H 0.13861 0.11274 0.18859 0.0
H1025 H 0.07485 0.08141 0.19006 0.0
H1026 H 0.11352 0.98824 0.17164 0.0
H1027 H 0.17654 0.02058 0.16977 0.0
H1028 H 0.04946 0.01275 0.16544 0.0
H1029 H 0.09263 0.97587 0.19631 0.0
H1030 H 0.12052 0.98491 0.21231 0.0
H1031 H 0.0264 0.06215 0.21962 0.0
H1032 H 0.99821 0.05399 0.20361 0.0
H1033 H 0.87221 0.90107 0.18517 0.0
H1034 H 0.93687 0.92839 0.18823 0.0
H1035 H 0.91216 0.02334 0.169 0.0
H1036 H 0.84804 0.99545 0.16563 0.0
H1037 H 0.97035 0.99273 0.19457 0.0
H1038 H 0.98955 0.04143 0.15537 0.0
H1039 H 0.96472 0.02392 0.13947 0.0
H1040 H 0.94101 0.9074 0.14911 0.0
H1041 H 0.96618 0.92407 0.16502 0.0
C1042 C 0.13373 0.08515 0.18502 0.0
C1043 C 0.16235 0.06921 0.179 0.0
C1044 C 0.09729 0.06715 0.1859 0.0
C1045 C 0.08926 0.03236 0.18097 0.0
C1046 C 0.11883 0.01522 0.17544 0.0
C1047 C 0.15488 0.03364 0.1744 0.0
C1048 C 0.04908 0.01602 0.18075 0.0
C1049 C 0.03238 0.00824 0.17184 0.0
C1050 C 0.0267 0.00965 0.18908 0.0
C1051 C 0.04348 0.01457 0.19873 0.0
C1052 C 0.07803 0.99501 0.2013 0.0
C1053 C 0.09386 -6e-05 0.21038 0.0
C1054 C 0.07529 0.02416 0.21697 0.0
C1055 C 0.04078 0.04342 0.21451 0.0
C1056 C 0.02483 0.03862 0.20543 0.0
C1057 C 0.88026 0.92815 0.18171 0.0
C1058 C 0.8553 0.94575 0.17502 0.0
C1059 C 0.91723 0.94377 0.18349 0.0
C1060 C 0.92968 0.97738 0.17867 0.0
C1061 C 0.9035 0.99682 0.17262 0.0
C1062 C 0.86682 0.98091 0.17072 0.0
C1063 C 0.971 0.99006 0.17928 0.0
C1064 C 0.98774 0.9972 0.18822 0.0
C1065 C 0.99404 0.99461 0.171 0.0
C1066 C 0.97938 0.98415 0.16141 0.0
C1067 C 0.97918 0.01204 0.15408 0.0
C1068 C 0.96503 0.00227 0.14507 0.0
C1069 C 0.95118 0.96461 0.14329 0.0
C1070 C 0.95161 0.9366 0.1505 0.0
C1071 C 0.96579 0.9462 0.15952 0.0
H1072 H 0.94019 0.95712 0.13631 0.0
H1073 H 0.08761 0.02794 0.224 0.0
H1074 H 0.01806 0.3408 0.40272 0.0
H1075 H 0.98654 0.40442 0.40387 0.0
H1076 H 0.99278 0.39894 0.43444 0.0
H1077 H 0.02474 0.33505 0.4334 0.0
H1078 H 0.92021 0.42985 0.42687 0.0
H1079 H 0.05865 0.44925 0.42453 0.0
H1080 H 0.12418 0.43949 0.41766 0.0
H1081 H 0.08476 0.48626 0.39102 0.0
H1082 H 0.0188 0.49574 0.39769 0.0
H1083 H 0.87706 0.63347 0.43056 0.0
H1084 H 0.90882 0.57009 0.43279 0.0
H1085 H 0.93198 0.56369 0.40269 0.0
H1086 H 0.90145 0.62713 0.40043 0.0
H1087 H 0.99295 0.53938 0.41207 0.0
H1088 H 0.85421 0.51453 0.41353 0.0
H1089 H 0.7874 0.52266 0.41977 0.0
H1090 H 0.82569 0.48521 0.44736 0.0
H1091 H 0.89288 0.47733 0.4413 0.0
C1092 C 0.01228 0.35269 0.40971 0.0
C1093 C 0.02433 0.33288 0.41797 0.0
C1094 C 0.99434 0.38916 0.41034 0.0
C1095 C 0.98791 0.40652 0.41923 0.0
C1096 C 0.9977 0.386 0.42752 0.0
C1097 C 0.01598 0.34953 0.4269 0.0
C1098 C 0.97306 0.44704 0.41975 0.0
C1099 C 0.93631 0.454 0.42379 0.0
C1100 C 0.99396 0.47829 0.4156 0.0
C1101 C 0.03369 0.4729 0.41159 0.0
C1102 C 0.06387 0.45716 0.41718 0.0
C1103 C 0.10111 0.45173 0.41333 0.0
C1104 C 0.10861 0.46217 0.40391 0.0
C1105 C 0.0789 0.47815 0.39832 0.0
C1106 C 0.04159 0.4836 0.40213 0.0
C1107 C 0.8892 0.6187 0.42443 0.0
C1108 C 0.88651 0.63538 0.41531 0.0
C1109 C 0.90715 0.58236 0.42571 0.0
C1110 C 0.92227 0.56183 0.41788 0.0
C1111 C 0.92052 0.57893 0.40883 0.0
C1112 C 0.90293 0.61527 0.40756 0.0
C1113 C 0.93947 0.52227 0.41898 0.0
C1114 C 0.97687 0.51544 0.41526 0.0
C1115 C 0.91897 0.49114 0.42335 0.0
C1116 C 0.87863 0.49579 0.42699 0.0
C1117 C 0.84843 0.50833 0.42094 0.0
C1118 C 0.8105 0.51284 0.42444 0.0
C1119 C 0.80234 0.50458 0.43397 0.0
C1120 C 0.83208 0.49168 0.44 0.0
C1121 C 0.87008 0.48716 0.43653 0.0
H1122 H 0.77295 0.50809 0.43666 0.0
H1123 H 0.13746 0.45794 0.40094 0.0
H1124 H 0.3315 0.40079 0.69101 0.0
H1125 H 0.39569 0.42923 0.69397 0.0
H1126 H 0.35938 0.53559 0.68009 0.0
H1127 H 0.29575 0.50663 0.67675 0.0
H1128 H 0.42166 0.51116 0.6723 0.0
H1129 H 0.3832 0.53029 0.70453 0.0
H1130 H 0.35657 0.5122 0.72021 0.0
H1131 H 0.44795 0.42762 0.7238 0.0
H1132 H 0.47484 0.44481 0.70809 0.0
H1133 H 0.60597 0.60388 0.69217 0.0
H1134 H 0.54104 0.57815 0.69574 0.0
H1135 H 0.55814 0.48651 0.67514 0.0
H1136 H 0.62264 0.51243 0.67136 0.0
H1137 H 0.50472 0.50946 0.70119 0.0
H1138 H 0.47933 0.48322 0.66113 0.0
H1139 H 0.50462 0.50656 0.64572 0.0
H1140 H 0.53611 0.61602 0.65844 0.0
H1141 H 0.5105 0.59355 0.67389 0.0
C1142 C 0.33687 0.43062 0.68881 0.0
C1143 C 0.30883 0.45136 0.68354 0.0
C1144 C 0.37358 0.44693 0.69055 0.0
C1145 C 0.38248 0.48456 0.68723 0.0
C1146 C 0.35332 0.50638 0.68264 0.0
C1147 C 0.31694 0.48985 0.68075 0.0
C1148 C 0.42332 0.49904 0.68734 0.0
C1149 C 0.43957 0.51098 0.67866 0.0
C1150 C 0.44687 0.49899 0.69562 0.0
C1151 C 0.43086 0.48865 0.70509 0.0
C1152 C 0.39745 0.50762 0.70863 0.0
C1153 C 0.38234 0.49757 0.71753 0.0
C1154 C 0.40051 0.46872 0.72299 0.0
C1155 C 0.43389 0.44994 0.71956 0.0
C1156 C 0.44911 0.45987 0.71067 0.0
C1157 C 0.5963 0.57772 0.68855 0.0
C1158 C 0.61911 0.56069 0.68132 0.0
C1159 C 0.55923 0.56298 0.69063 0.0
C1160 C 0.54456 0.53096 0.68556 0.0
C1161 C 0.56874 0.51171 0.67901 0.0
C1162 C 0.60557 0.5266 0.67685 0.0
C1163 C 0.50262 0.52087 0.68615 0.0
C1164 C 0.48641 0.50972 0.6949 0.0
C1165 C 0.47862 0.52242 0.67798 0.0
C1166 C 0.49334 0.53654 0.66867 0.0
C1167 C 0.49148 0.51233 0.66062 0.0
C1168 C 0.5059 0.5254 0.65188 0.0
C1169 C 0.52207 0.5627 0.65111 0.0
C1170 C 0.5237 0.58709 0.65906 0.0
C1171 C 0.50926 0.57419 0.6678 0.0
H1172 H 0.53327 0.57273 0.64434 0.0
H1173 H 0.38875 0.46098 0.72987 0.0
H1174 H 0.39527 0.14578 0.93863 0.0
H1175 H 0.42191 0.08 0.94122 0.0
H1176 H 0.42644 0.06165 0.91093 0.0
H1177 H 0.40075 0.12705 0.90825 0.0
H1178 H 0.38647 0.00134 0.92238 0.0
H1179 H 0.50642 0.07877 0.92067 0.0
H1180 H 0.55028 0.13114 0.92619 0.0
H1181 H 0.55438 0.07927 0.95396 0.0
H1182 H 0.51007 0.02685 0.94862 0.0
H1183 H 0.50228 0.84725 0.90759 0.0
H1184 H 0.46905 0.90811 0.91112 0.0
H1185 H 0.51037 0.90315 0.94007 0.0
H1186 H 0.54509 0.84235 0.93649 0.0
H1187 H 0.52129 0.97323 0.93333 0.0
H1188 H 0.41205 0.88949 0.93465 0.0
H1189 H 0.36754 0.83668 0.92975 0.0
H1190 H 0.34009 0.89893 0.90412 0.0
H1191 H 0.38486 0.95188 0.90879 0.0
C1192 C 0.40228 0.12783 0.93253 0.0
C1193 C 0.3959 0.14166 0.92323 0.0
C1194 C 0.41744 0.09035 0.93403 0.0
C1195 C 0.42584 0.06611 0.92625 0.0
C1196 C 0.41992 0.07998 0.917 0.0
C1197 C 0.40544 0.11747 0.9155 0.0
C1198 C 0.44014 0.02583 0.9276 0.0
C1199 C 0.41592 0.99501 0.92477 0.0
C1200 C 0.47791 0.01777 0.93111 0.0
C1201 C 0.50452 0.04924 0.93429 0.0
C1202 C 0.51634 0.07878 0.92798 0.0
C1203 C 0.54136 0.10841 0.93107 0.0
C1204 C 0.55499 0.10862 0.94043 0.0
C1205 C 0.54372 0.07912 0.94671 0.0
C1206 C 0.51867 0.04945 0.94366 0.0
C1207 C 0.50398 0.85866 0.91475 0.0
C1208 C 0.52641 0.83981 0.92175 0.0
C1209 C 0.48468 0.89348 0.91678 0.0
C1210 C 0.48664 0.90998 0.92591 0.0
C1211 C 0.50831 0.89088 0.93299 0.0
C1212 C 0.52803 0.85607 0.93094 0.0
C1213 C 0.46814 0.94847 0.92771 0.0
C1214 C 0.49146 0.9791 0.93116 0.0
C1215 C 0.42922 0.9563 0.9249 0.0
C1216 C 0.40198 0.92463 0.92206 0.0
C1217 C 0.3967 0.89184 0.92794 0.0
C1218 C 0.3714 0.86188 0.9252 0.0
C1219 C 0.35103 0.86443 0.91662 0.0
C1220 C 0.35587 0.897 0.91077 0.0
C1221 C 0.38116 0.92704 0.91346 0.0
H1222 H 0.33147 0.84119 0.91452 0.0
H1223 H 0.57437 0.13157 0.9428 0.0
H1224 H 0.13101 0.37521 0.05878 0.0
H1225 H 0.06684 0.40374 0.05572 0.0
H1226 H 0.10189 0.50893 0.07032 0.0
H1227 H 0.16529 0.47962 0.07381 0.0
H1228 H 0.03651 0.48925 0.07665 0.0
H1229 H 0.08655 0.50226 0.04511 0.0
H1230 H 0.11754 0.48041 0.03021 0.0
H1231 H 0.02389 0.39943 0.02552 0.0
H1232 H 0.99257 0.42045 0.04046 0.0
H1233 H 0.86777 0.58939 0.05021 0.0
H1234 H 0.9317 0.55794 0.04912 0.0
H1235 H 0.89952 0.47904 0.07169 0.0
H1236 H 0.83613 0.51125 0.07306 0.0
H1237 H 0.96417 0.48871 0.0461 0.0
H1238 H 0.97336 0.46901 0.08692 0.0
H1239 H 0.94564 0.4982 0.10148 0.0
H1240 H 0.92781 0.60658 0.08677 0.0
H1241 H 0.9559 0.57821 0.07218 0.0
C1242 C 0.12519 0.40466 0.0612 0.0
C1243 C 0.15302 0.42515 0.06658 0.0
C1244 C 0.08852 0.42105 0.05941 0.0
C1245 C 0.07945 0.45866 0.06273 0.0
C1246 C 0.10801 0.47978 0.06773 0.0
C1247 C 0.14428 0.46307 0.0697 0.0
C1248 C 0.03934 0.4748 0.06174 0.0
C1249 C 0.0209 0.48919 0.06994 0.0
C1250 C 0.01883 0.47516 0.05299 0.0
C1251 C 0.03739 0.4627 0.04395 0.0
C1252 C 0.07269 0.47962 0.04093 0.0
C1253 C 0.0903 0.46741 0.03247 0.0
C1254 C 0.07275 0.43847 0.02693 0.0
C1255 C 0.03747 0.42181 0.02982 0.0
C1256 C 0.01975 0.4339 0.03828 0.0
C1257 C 0.87401 0.56483 0.05482 0.0
C1258 C 0.8472 0.55324 0.06184 0.0
C1259 C 0.91057 0.54684 0.05417 0.0
C1260 C 0.92073 0.51678 0.06048 0.0
C1261 C 0.89264 0.50284 0.06691 0.0
C1262 C 0.85639 0.52121 0.06767 0.0
C1263 C 0.96167 0.50273 0.06101 0.0
C1264 C 0.98007 0.48871 0.05277 0.0
C1265 C 0.98277 0.50382 0.06966 0.0
C1266 C 0.96636 0.52133 0.07844 0.0
C1267 C 0.96366 0.49911 0.08681 0.0
C1268 C 0.94787 0.51551 0.09506 0.0
C1269 C 0.93486 0.55418 0.09504 0.0
C1270 C 0.93777 0.57659 0.08677 0.0
C1271 C 0.9536 0.56036 0.07851 0.0
H1272 H 0.9226 0.56679 0.10143 0.0
H1273 H 0.08645 0.42902 0.02039 0.0
H1274 H 0.63474 0.63396 0.30472 0.0
H1275 H 0.60216 0.57086 0.30331 0.0
H1276 H 0.51327 0.60939 0.32297 0.0
H1277 H 0.54716 0.67164 0.32481 0.0
H1278 H 0.53598 0.54424 0.3284 0.0
H1279 H 0.49657 0.59154 0.29813 0.0
H1280 H 0.50418 0.6211 0.28226 0.0
H1281 H 0.57855 0.52641 0.27373 0.0
H1282 H 0.57181 0.49652 0.2896 0.0
H1283 H 0.41981 0.37068 0.30789 0.0
H1284 H 0.44789 0.43528 0.30516 0.0
H1285 H 0.54287 0.40758 0.32415 0.0
H1286 H 0.51403 0.34363 0.32723 0.0
H1287 H 0.51136 0.46881 0.29891 0.0
H1288 H 0.56384 0.48307 0.33801 0.0
H1289 H 0.54694 0.45717 0.35385 0.0
H1290 H 0.42931 0.43654 0.34458 0.0
H1291 H 0.44537 0.4628 0.32873 0.0
C1292 C 0.60784 0.62917 0.3086 0.0
C1293 C 0.59356 0.65751 0.31492 0.0
C1294 C 0.58909 0.59312 0.30775 0.0
C1295 C 0.55506 0.58525 0.313 0.0
C1296 C 0.53963 0.61454 0.31891 0.0
C1297 C 0.55891 0.65016 0.31993 0.0
C1298 C 0.53772 0.54548 0.31308 0.0
C1299 C 0.53045 0.52798 0.32192 0.0
C1300 C 0.52991 0.52417 0.30465 0.0
C1301 C 0.53393 0.54196 0.29509 0.0
C1302 C 0.51477 0.57715 0.29289 0.0
C1303 C 0.51889 0.59395 0.28389 0.0
C1304 C 0.54191 0.57569 0.277 0.0
C1305 C 0.56076 0.54054 0.27908 0.0
C1306 C 0.55676 0.52363 0.28808 0.0
C1307 C 0.44705 0.3781 0.31135 0.0
C1308 C 0.4644 0.35238 0.3179 0.0
C1309 C 0.4631 0.41504 0.30977 0.0
C1310 C 0.49694 0.42663 0.31463 0.0
C1311 C 0.51614 0.39964 0.32052 0.0
C1312 C 0.49973 0.36306 0.32225 0.0
C1313 C 0.51024 0.46781 0.31422 0.0
C1314 C 0.51681 0.48539 0.30534 0.0
C1315 C 0.51602 0.48989 0.3226 0.0
C1316 C 0.50595 0.47454 0.33216 0.0
C1317 C 0.53434 0.47315 0.33937 0.0
C1318 C 0.52491 0.45838 0.34834 0.0
C1319 C 0.48711 0.4451 0.35021 0.0
C1320 C 0.45861 0.44671 0.34311 0.0
C1321 C 0.46787 0.4615 0.33413 0.0
H1322 H 0.47989 0.43363 0.35716 0.0
H1323 H 0.54507 0.58875 0.27004 0.0
H1324 H 0.66298 0.91563 0.54731 0.0
H1325 H 0.60044 0.94633 0.5435 0.0
H1326 H 0.60553 0.01195 0.56963 0.0
H1327 H 0.66802 0.98166 0.57349 0.0
H1328 H 0.53398 0.93894 0.55368 0.0
H1329 H 0.55882 0.09794 0.56689 0.0
H1330 H 0.61167 0.14677 0.56722 0.0
H1331 H 0.66561 0.09218 0.54308 0.0
H1332 H 0.61282 0.04336 0.54252 0.0
H1333 H 0.36747 0.03308 0.57213 0.0
H1334 H 0.43058 0.00372 0.56847 0.0
H1335 H 0.44042 0.07617 0.54352 0.0
H1336 H 0.37715 0.10593 0.54713 0.0
H1337 H 0.50491 0.08077 0.55468 0.0
H1338 H 0.42889 0.98 0.54075 0.0
H1339 H 0.37615 0.93124 0.53977 0.0
H1340 H 0.4247 0.86969 0.56359 0.0
H1341 H 0.47744 0.91839 0.5648 0.0
C1342 C 0.65121 0.93715 0.55217 0.0
C1343 C 0.67048 0.94603 0.56074 0.0
C1344 C 0.61535 0.95453 0.54999 0.0
C1345 C 0.59838 0.98146 0.55626 0.0
C1346 C 0.6183 0.99157 0.56462 0.0
C1347 C 0.654 0.97409 0.56684 0.0
C1348 C 0.5585 0.99674 0.55452 0.0
C1349 C 0.52762 0.96996 0.55381 0.0
C1350 C 0.55032 0.03721 0.5545 0.0
C1351 C 0.58194 0.06682 0.55471 0.0
C1352 C 0.58183 0.09647 0.56162 0.0
C1353 C 0.61181 0.12413 0.56185 0.0
C1354 C 0.64202 0.12253 0.55519 0.0
C1355 C 0.64226 0.09332 0.54826 0.0
C1356 C 0.61234 0.06561 0.54799 0.0
C1357 C 0.38267 0.04237 0.56577 0.0
C1358 C 0.3673 0.07203 0.55995 0.0
C1359 C 0.41872 0.02541 0.56366 0.0
C1360 C 0.44015 0.03771 0.55571 0.0
C1361 C 0.42431 0.06627 0.54969 0.0
C1362 C 0.38805 0.08309 0.55175 0.0
C1363 C 0.48037 0.02292 0.5542 0.0
C1364 C 0.5113 0.04978 0.55436 0.0
C1365 C 0.48862 0.98253 0.55362 0.0
C1366 C 0.45704 0.95301 0.5529 0.0
C1367 C 0.42819 0.95622 0.54582 0.0
C1368 C 0.3983 0.92856 0.54522 0.0
C1369 C 0.39704 0.89741 0.55162 0.0
C1370 C 0.42571 0.89383 0.55863 0.0
C1371 C 0.45565 0.92142 0.55927 0.0
H1372 H 0.37388 0.87603 0.55114 0.0
H1373 H 0.66522 0.14395 0.55539 0.0
H1374 H 0.08516 0.12312 0.83428 0.0
H1375 H 0.06113 0.05718 0.8314 0.0
H1376 H 0.08773 0.06865 0.80159 0.0
H1377 H 0.11283 0.13481 0.80441 0.0
H1378 H 0.0064 0.03361 0.8085 0.0
H1379 H 0.14697 0.01975 0.80996 0.0
H1380 H 0.21169 0.03213 0.81701 0.0
H1381 H 0.17425 0.97988 0.84321 0.0
H1382 H 0.10906 0.96776 0.83636 0.0
H1383 H 0.96569 0.83139 0.80355 0.0
H1384 H 0.99846 0.89411 0.80129 0.0
H1385 H 0.0282 0.89677 0.83108 0.0
H1386 H 0.99678 0.83378 0.83335 0.0
H1387 H 0.086 0.92464 0.82138 0.0
H1388 H 0.94662 0.94525 0.82171 0.0
H1389 H 0.87878 0.93597 0.81629 0.0
H1390 H 0.90982 0.97786 0.78853 0.0
H1391 H 0.97801 0.98692 0.79377 0.0
C1392 C 0.08555 0.11194 0.82708 0.0
C1393 C 0.10107 0.13419 0.81958 0.0
C1394 C 0.07189 0.07422 0.82546 0.0
C1395 C 0.07295 0.05821 0.81631 0.0
C1396 C 0.08682 0.0807 0.80871 0.0
C1397 C 0.10118 0.11835 0.81034 0.0
C1398 C 0.06098 0.01725 0.81492 0.0
C1399 C 0.02408 0.00955 0.81108 0.0
C1400 C 0.08376 0.98631 0.81856 0.0
C1401 C 0.12305 0.99315 0.82267 0.0
C1402 C 0.15243 0.01121 0.81725 0.0
C1403 C 0.18922 0.01812 0.82121 0.0
C1404 C 0.19705 0.00687 0.83056 0.0
C1405 C 0.16813 0.9886 0.83597 0.0
C1406 C 0.13128 0.98167 0.83205 0.0
C1407 C 0.97971 0.84507 0.8096 0.0
C1408 C 0.97829 0.82769 0.81865 0.0
C1409 C 0.99825 0.88103 0.80829 0.0
C1410 C 0.01511 0.90053 0.81605 0.0
C1411 C 0.01533 0.88234 0.82499 0.0
C1412 C 0.99725 0.84626 0.82627 0.0
C1413 C 0.0309 0.94067 0.81507 0.0
C1414 C 0.06854 0.94837 0.81854 0.0
C1415 C 0.00841 0.9717 0.81125 0.0
C1416 C 0.96748 0.96627 0.80809 0.0
C1417 C 0.93903 0.95218 0.81443 0.0
C1418 C 0.90052 0.94701 0.8114 0.0
C1419 C 0.89003 0.95619 0.80206 0.0
C1420 C 0.91801 0.97067 0.79575 0.0
C1421 C 0.95659 0.97583 0.79875 0.0
H1422 H 0.86019 0.95218 0.79973 0.0
H1423 H 0.22555 0.01224 0.83361 0.0
H1424 H 0.65868 0.9181 0.18827 0.0
H1425 H 0.59577 0.94593 0.19298 0.0
H1426 H 0.59183 0.01172 0.16685 0.0
H1427 H 0.65482 0.98512 0.16222 0.0
H1428 H 0.56246 0.05381 0.1807 0.0
H1429 H 0.54723 0.9199 0.16926 0.0
H1430 H 0.56066 0.84916 0.16988 0.0
H1431 H 0.517 0.84452 0.19847 0.0
H1432 H 0.50365 0.91535 0.19804 0.0
H1433 H 0.35351 0.02542 0.1668 0.0
H1434 H 0.41719 0.99622 0.16995 0.0
H1435 H 0.43011 0.06867 0.19482 0.0
H1436 H 0.36638 0.09824 0.19172 0.0
H1437 H 0.45533 0.95773 0.1848 0.0
H1438 H 0.52342 0.10606 0.19342 0.0
H1439 H 0.50971 0.17623 0.19117 0.0
H1440 H 0.44687 0.15075 0.1655 0.0
H1441 H 0.46073 0.08057 0.16753 0.0
C1442 C 0.64474 0.93901 0.1836 0.0
C1443 C 0.66162 0.94898 0.1748 0.0
C1444 C 0.60871 0.95479 0.1863 0.0
C1445 C 0.58877 0.98037 0.18019 0.0
C1446 C 0.60663 0.99201 0.17168 0.0
C1447 C 0.64267 0.97658 0.16902 0.0
C1448 C 0.54808 0.99286 0.18216 0.0
C1449 C 0.53915 0.03282 0.18176 0.0
C1450 C 0.51753 0.96551 0.18346 0.0
C1451 C 0.52479 0.92288 0.18365 0.0
C1452 C 0.54062 0.90377 0.17568 0.0
C1453 C 0.54822 0.86369 0.176 0.0
C1454 C 0.53978 0.84238 0.18422 0.0
C1455 C 0.52357 0.86108 0.19212 0.0
C1456 C 0.51595 0.90117 0.19184 0.0
C1457 C 0.36947 0.03465 0.17305 0.0
C1458 C 0.3551 0.06463 0.17892 0.0
C1459 C 0.40577 0.0177 0.17488 0.0
C1460 C 0.42847 0.03063 0.18255 0.0
C1461 C 0.41308 0.05852 0.18882 0.0
C1462 C 0.37664 0.07537 0.18703 0.0
C1463 C 0.46986 0.01851 0.18319 0.0
C1464 C 0.47883 0.97873 0.18406 0.0
C1465 C 0.50043 0.04592 0.18212 0.0
C1466 C 0.49268 0.0881 0.18071 0.0
C1467 C 0.50679 0.1155 0.18729 0.0
C1468 C 0.499 0.15525 0.18605 0.0
C1469 C 0.4773 0.16792 0.17822 0.0
C1470 C 0.46355 0.14089 0.17158 0.0
C1471 C 0.47135 0.10114 0.17278 0.0
H1472 H 0.47123 0.19869 0.17728 0.0
H1473 H 0.54574 0.81137 0.18446 0.0
H1474 H 0.91445 0.84135 0.39966 0.0
H1475 H 0.94748 0.90314 0.40224 0.0
H1476 H 0.93192 0.89076 0.43253 0.0
H1477 H 0.89719 0.82921 0.42996 0.0
H1478 H 0.91257 0.96092 0.42761 0.0
H1479 H 0.02419 0.88251 0.42156 0.0
H1480 H 0.06515 0.83412 0.41326 0.0
H1481 H 0.06598 0.90612 0.38828 0.0
H1482 H 0.02456 0.95472 0.39639 0.0
H1483 H 0.03744 0.13167 0.43311 0.0
H1484 H 0.00956 0.06592 0.43425 0.0
H1485 H 0.9942 0.0634 0.40384 0.0
H1486 H 0.02152 0.12876 0.40261 0.0
H1487 H 0.035 0.99866 0.41119 0.0
H1488 H 0.91725 0.07349 0.41738 0.0
H1489 H 0.87749 0.12148 0.42617 0.0
H1490 H 0.8916 0.05492 0.4518 0.0
H1491 H 0.93191 0.00679 0.44319 0.0
C1492 C 0.91857 0.8513 0.4069 0.0
C1493 C 0.90315 0.83021 0.41461 0.0
C1494 C 0.93768 0.88671 0.40837 0.0
C1495 C 0.94272 0.9015 0.4176 0.0
C1496 C 0.92843 0.87995 0.42535 0.0
C1497 C 0.90877 0.84466 0.42387 0.0
C1498 C 0.96062 0.9406 0.419 0.0
C1499 C 0.93982 0.96887 0.42419 0.0
C1500 C 0.99598 0.95127 0.41448 0.0
C1501 C 0.02107 0.92218 0.40958 0.0
C1502 C 0.0329 0.88792 0.41428 0.0
C1503 C 0.05623 0.86046 0.40961 0.0
C1504 C 0.06811 0.86701 0.40024 0.0
C1505 C 0.05675 0.90108 0.39553 0.0
C1506 C 0.0334 0.92863 0.40017 0.0
C1507 C 0.02757 0.11738 0.42668 0.0
C1508 C 0.03194 0.13552 0.41776 0.0
C1509 C 0.01169 0.07981 0.42735 0.0
C1510 C 0.00011 0.05979 0.41912 0.0
C1511 C 0.00322 0.0783 0.41027 0.0
C1512 C 0.0187 0.11582 0.4096 0.0
C1513 C 0.98639 0.01886 0.41955 0.0
C1514 C 0.00811 0.99034 0.41473 0.0
C1515 C 0.95223 0.00791 0.4245 0.0
C1516 C 0.92799 0.03682 0.42967 0.0
C1517 C 0.91219 0.06929 0.42491 0.0
C1518 C 0.88948 0.09647 0.42986 0.0
C1519 C 0.88213 0.09132 0.43955 0.0
C1520 C 0.89738 0.05892 0.4443 0.0
C1521 C 0.92014 0.03167 0.43939 0.0
H1522 H 0.86454 0.11239 0.44336 0.0
H1523 H 0.08617 0.84571 0.39664 0.0
H1524 H 0.10598 0.40221 0.69404 0.0
H1525 H 0.0416 0.42644 0.69877 0.0
H1526 H 0.05163 0.52026 0.67848 0.0
H1527 H 0.11591 0.49684 0.67383 0.0
H1528 H 0.01218 0.54417 0.69407 0.0
H1529 H 0.01088 0.43334 0.67211 0.0
H1530 H 0.02622 0.36548 0.66755 0.0
H1531 H 0.96381 0.32319 0.69194 0.0
H1532 H 0.94853 0.3909 0.69669 0.0
H1533 H 0.82281 0.52512 0.66676 0.0
H1534 H 0.88413 0.4972 0.67218 0.0
H1535 H 0.86845 0.55119 0.69964 0.0
H1536 H 0.80743 0.58074 0.69411 0.0
H1537 H 0.90872 0.44963 0.68519 0.0
H1538 H 0.95813 0.57684 0.70812 0.0
H1539 H 0.9425 0.64634 0.71086 0.0
H1540 H 0.90892 0.65891 0.68162 0.0
H1541 H 0.92491 0.58969 0.67868 0.0
C1542 C 0.09489 0.42852 0.69074 0.0
C1543 C 0.11581 0.44714 0.68341 0.0
C1544 C 0.05808 0.44232 0.69346 0.0
C1545 C 0.04161 0.4748 0.68887 0.0
C1546 C 0.06375 0.49514 0.68211 0.0
C1547 C 0.10044 0.48145 0.6794 0.0
C1548 C -0.00024 0.4848 0.69004 0.0
C1549 C 0.98945 0.52335 0.69231 0.0
C1550 C 0.97009 0.4577 0.6877 0.0
C1551 C 0.97901 0.41708 0.68481 0.0
C1552 C 0.00066 0.40954 0.67652 0.0
C1553 C 0.00931 0.37114 0.6739 0.0
C1554 C 0.99611 0.34005 0.67947 0.0
C1555 C 0.97411 0.34731 0.68765 0.0
C1556 C 0.96545 0.38567 0.69031 0.0
C1557 C 0.83206 0.53076 0.674 0.0
C1558 C 0.81046 0.5556 0.67995 0.0
C1559 C 0.86713 0.51457 0.67711 0.0
C1560 C 0.88124 0.52249 0.68628 0.0
C1561 C 0.85852 0.54525 0.69248 0.0
C1562 C 0.82361 0.56204 0.68931 0.0
C1563 C 0.92119 0.50941 0.68885 0.0
C1564 C 0.93118 0.47018 0.68731 0.0
C1565 C 0.95062 0.53613 0.69164 0.0
C1566 C 0.94229 0.57807 0.69322 0.0
C1567 C 0.94759 0.59453 0.70227 0.0
C1568 C 0.93862 0.63382 0.70386 0.0
C1569 C 0.92451 0.65694 0.69644 0.0
C1570 C 0.91971 0.64093 0.68738 0.0
C1571 C 0.92876 0.6017 0.68574 0.0
H1572 H 0.91741 0.6873 0.6977 0.0
H1573 H 0.00283 0.31033 0.67743 0.0
H1574 H 0.4139 0.3358 0.93776 0.0
H1575 H 0.44697 0.39809 0.94037 0.0
H1576 H 0.47218 0.40602 0.91039 0.0
H1577 H 0.44036 0.34348 0.90775 0.0
H1578 H 0.52984 0.43713 0.92005 0.0
H1579 H 0.38911 0.44709 0.92019 0.0
H1580 H 0.32282 0.43109 0.92582 0.0
H1581 H 0.3523 0.47207 0.95376 0.0
H1582 H 0.41899 0.4878 0.94831 0.0
H1583 H 0.50879 0.63363 0.90718 0.0
H1584 H 0.48662 0.5677 0.91075 0.0
H1585 H 0.52767 0.57933 0.93956 0.0
H1586 H 0.55088 0.64553 0.93604 0.0
H1587 H 0.44208 0.53863 0.93347 0.0
H1588 H 0.58485 0.53337 0.9317 0.0
H1589 H 0.64675 0.55361 0.92422 0.0
H1590 H 0.6083 0.50678 0.8975 0.0
H1591 H 0.54592 0.48676 0.90481 0.0
C1592 C 0.42728 0.35035 0.93175 0.0
C1593 C 0.42389 0.33493 0.92252 0.0
C1594 C 0.44604 0.38604 0.93326 0.0
C1595 C 0.46117 0.40717 0.92554 0.0
C1596 C 0.46054 0.39036 0.91645 0.0
C1597 C 0.4422 0.35453 0.91495 0.0
C1598 C 0.47412 0.44822 0.92668 0.0
C1599 C 0.51075 0.45915 0.92308 0.0
C1600 C 0.44928 0.47717 0.93062 0.0
C1601 C 0.40912 0.46817 0.93388 0.0
C1602 C 0.3815 0.45246 0.92755 0.0
C1603 C 0.34387 0.44346 0.9307 0.0
C1604 C 0.33339 0.45045 0.94015 0.0
C1605 C 0.36049 0.46659 0.94645 0.0
C1606 C 0.39821 0.47555 0.94334 0.0
C1607 C 0.51251 0.62267 0.91434 0.0
C1608 C 0.532 0.6448 0.9213 0.0
C1609 C 0.4998 0.58494 0.91635 0.0
C1610 C 0.50584 0.56882 0.92538 0.0
C1611 C 0.52286 0.59151 0.93255 0.0
C1612 C 0.53613 0.62922 0.93051 0.0
C1613 C 0.49753 0.52707 0.92688 0.0
C1614 C 0.46163 0.51621 0.93081 0.0
C1615 C 0.52267 0.49826 0.92311 0.0
C1616 C 0.56068 0.50882 0.91878 0.0
C1617 C 0.58955 0.52757 0.92422 0.0
C1618 C 0.62472 0.53898 0.92001 0.0
C1619 C 0.63143 0.53157 0.91038 0.0
C1620 C 0.60307 0.51251 0.90496 0.0
C1621 C 0.56783 0.50106 0.90913 0.0
H1622 H 0.65863 0.54057 0.90715 0.0
H1623 H 0.30424 0.44347 0.94258 0.0
H1624 H 0.66285 0.51257 0.07157 0.0
H1625 H 0.5985 0.48329 0.06952 0.0
H1626 H 0.56841 0.57271 0.04918 0.0
H1627 H 0.63341 0.60133 0.05096 0.0
H1628 H 0.53423 0.5154 0.07455 0.0
H1629 H 0.49282 0.54161 0.03509 0.0
H1630 H 0.52448 0.54312 0.01935 0.0
H1631 H 0.61467 0.46658 0.02947 0.0
H1632 H 0.58329 0.46419 0.04523 0.0
H1633 H 0.33373 0.49174 0.0727 0.0
H1634 H 0.39625 0.52221 0.06881 0.0
H1635 H 0.42934 0.42023 0.0527 0.0
H1636 H 0.36623 0.39038 0.0562 0.0
H1637 H 0.46186 0.48298 0.04505 0.0
H1638 H 0.45099 0.42843 0.0766 0.0
H1639 H 0.4204 0.42091 0.09237 0.0
H1640 H 0.44035 0.54225 0.09827 0.0
H1641 H 0.47054 0.5506 0.08247 0.0
C1642 C 0.64283 0.52548 0.0665 0.0
C1643 C 0.65307 0.55936 0.06146 0.0
C1644 C 0.60601 0.5088 0.06536 0.0
C1645 C 0.57846 0.52587 0.05924 0.0
C1646 C 0.58927 0.55866 0.05385 0.0
C1647 C 0.62644 0.57505 0.05488 0.0
C1648 C 0.53754 0.51156 0.05927 0.0
C1649 C 0.51856 0.50826 0.06808 0.0
C1650 C 0.51694 0.50214 0.05085 0.0
C1651 C 0.5359 0.50308 0.04137 0.0
C1652 C 0.51934 0.525 0.03395 0.0
C1653 C 0.53725 0.52602 0.02502 0.0
C1654 C 0.57164 0.50507 0.02342 0.0
C1655 C 0.58813 0.48293 0.03073 0.0
C1656 C 0.57032 0.48179 0.03967 0.0
C1657 C 0.35394 0.47626 0.06812 0.0
C1658 C 0.34539 0.43844 0.06488 0.0
C1659 C 0.38967 0.49364 0.06592 0.0
C1660 C 0.4179 0.473 0.0607 0.0
C1661 C 0.40812 0.43661 0.05679 0.0
C1662 C 0.37203 0.41954 0.05882 0.0
C1663 C 0.45888 0.48694 0.06031 0.0
C1664 C 0.47772 0.49027 0.05148 0.0
C1665 C 0.47988 0.49547 0.06873 0.0
C1666 C 0.46267 0.49022 0.07832 0.0
C1667 C 0.44872 0.45353 0.08125 0.0
C1668 C 0.43144 0.44912 0.09019 0.0
C1669 C 0.42832 0.48113 0.0963 0.0
C1670 C 0.44271 0.51752 0.09352 0.0
C1671 C 0.45992 0.5221 0.08458 0.0
H1672 H 0.41477 0.47777 0.1032 0.0
H1673 H 0.58547 0.50591 0.01651 0.0
H1674 H 0.4519 0.15916 0.30495 0.0
H1675 H 0.48257 0.09639 0.30111 0.0
H1676 H 0.51855 0.08408 0.33037 0.0
H1677 H 0.48989 0.14692 0.33411 0.0
H1678 H 0.57347 0.05921 0.3199 0.0
H1679 H 0.43242 0.04148 0.31995 0.0
H1680 H 0.36536 0.05335 0.31424 0.0
H1681 H 0.39799 0.01438 0.28633 0.0
H1682 H 0.46546 0.00318 0.29183 0.0
H1683 H 0.57618 0.86216 0.33177 0.0
H1684 H 0.54924 0.92716 0.32929 0.0
H1685 H 0.56849 0.9165 0.29912 0.0
H1686 H 0.59646 0.85125 0.30153 0.0
H1687 H 0.49143 0.95376 0.3063 0.0
H1688 H 0.63159 0.96071 0.30823 0.0
H1689 H 0.69568 0.94582 0.31533 0.0
H1690 H 0.66165 0.00368 0.3411 0.0
H1691 H 0.59682 0.01764 0.3343 0.0
C1692 C 0.46686 0.14324 0.31052 0.0
C1693 C 0.46834 0.15802 0.31984 0.0
C1694 C 0.48416 0.10727 0.30833 0.0
C1695 C 0.50235 0.0851 0.31548 0.0
C1696 C 0.50483 0.10054 0.3247 0.0
C1697 C 0.48829 0.13661 0.32684 0.0
C1698 C 0.51772 0.0452 0.31367 0.0
C1699 C 0.55544 0.03624 0.31693 0.0
C1700 C 0.49468 0.01525 0.30955 0.0
C1701 C 0.45411 0.02206 0.30626 0.0
C1702 C 0.42537 0.03583 0.31257 0.0
C1703 C 0.38729 0.04245 0.30937 0.0
C1704 C 0.37747 0.0349 0.29991 0.0
C1705 C 0.40568 0.02053 0.29364 0.0
C1706 C 0.44385 0.01408 0.29679 0.0
C1707 C 0.57411 0.87315 0.32457 0.0
C1708 C 0.58888 0.85159 0.31685 0.0
C1709 C 0.55873 0.91037 0.32318 0.0
C1710 C 0.55735 0.92659 0.31405 0.0
C1711 C 0.56948 0.90432 0.30622 0.0
C1712 C 0.58548 0.86715 0.30762 0.0
C1713 C 0.54621 0.96796 0.31292 0.0
C1714 C 0.50957 0.97707 0.30909 0.0
C1715 C 0.56987 0.99799 0.31669 0.0
C1716 C 0.6091 0.98988 0.32077 0.0
C1717 C 0.63753 0.96981 0.31546 0.0
C1718 C 0.67404 0.96154 0.31943 0.0
C1719 C 0.6827 0.97372 0.32866 0.0
C1720 C 0.6549 0.99425 0.33394 0.0
C1721 C 0.61822 0.00225 0.33004 0.0
H1722 H 0.71099 0.9674 0.33172 0.0
H1723 H 0.34798 0.04002 0.29744 0.0
H1724 H 0.85097 0.99306 0.57228 0.0
H1725 H 0.91418 0.02479 0.57011 0.0
H1726 H 0.95269 0.92822 0.55274 0.0
H1727 H 0.88881 0.89744 0.5545 0.0
H1728 H 0.97939 0.00369 0.57621 0.0
H1729 H 0.02743 0.95309 0.53843 0.0
H1730 H 0.99784 0.94065 0.52273 0.0
H1731 H 0.90341 0.01842 0.52945 0.0
H1732 H 0.93268 0.03173 0.54513 0.0
H1733 H 0.18118 0.02509 0.5742 0.0
H1734 H 0.11663 0.99595 0.57218 0.0
H1735 H 0.08823 0.08269 0.55105 0.0
H1736 H 0.15322 0.11107 0.55276 0.0
H1737 H 0.05513 0.01707 0.54633 0.0
H1738 H 0.06096 0.0941 0.57451 0.0
H1739 H 0.08707 0.11621 0.58993 0.0
H1740 H 0.06626 0.00273 0.60185 0.0
H1741 H 0.04052 0.97978 0.58645 0.0
C1742 C 0.87268 0.97902 0.56784 0.0
C1743 C 0.86497 0.94279 0.56356 0.0
C1744 C 0.90887 0.99708 0.56663 0.0
C1745 C 0.93837 0.97903 0.56125 0.0
C1746 C 0.9303 0.94326 0.55676 0.0
C1747 C 0.89377 0.92557 0.5578 0.0
C1748 C 0.97833 0.99607 0.56099 0.0
C1749 C 0.99576 0.0067 0.56965 0.0
C1750 C -0.00025 0.00067 0.55244 0.0
C1751 C 0.98208 0.99309 0.54299 0.0
C1752 C 0.00043 0.96765 0.53654 0.0
C1753 C 0.9837 0.96042 0.52765 0.0
C1754 C 0.9487 0.97863 0.52511 0.0
C1755 C 0.93043 0.00421 0.53144 0.0
C1756 C 0.94705 0.01156 0.54034 0.0
C1757 C 0.16143 0.03756 0.56901 0.0
C1758 C 0.17218 0.07068 0.56372 0.0
C1759 C 0.12447 0.02098 0.56789 0.0
C1760 C 0.0972 0.03774 0.56164 0.0
C1761 C 0.10867 0.06936 0.55595 0.0
C1762 C 0.14588 0.08559 0.55695 0.0
C1763 C 0.05603 0.02409 0.56154 0.0
C1764 C 0.03852 0.01406 0.55285 0.0
C1765 C 0.03388 0.02141 0.57001 0.0
C1766 C 0.04916 0.03512 0.57931 0.0
C1767 C 0.06219 0.07379 0.5804 0.0
C1768 C 0.0769 0.08648 0.58914 0.0
C1769 C 0.0784 0.06086 0.59686 0.0
C1770 C 0.06512 0.02252 0.59586 0.0
C1771 C 0.05045 0.00966 0.58713 0.0
H1772 H 0.08979 0.07075 0.60362 0.0
H1773 H 0.93579 0.97298 0.51822 0.0
H1774 H 0.00796 0.62832 0.82754 0.0
H1775 H 0.03395 0.5646 0.82312 0.0
H1776 H 0.96228 0.56427 0.79792 0.0
H1777 H 0.93584 0.62811 0.8023 0.0
H1778 H 0.95356 0.49797 0.80796 0.0
H1779 H 0.05932 0.5702 0.79547 0.0
H1780 H 0.11102 0.6202 0.79512 0.0
H1781 H 0.16828 0.5648 0.81868 0.0
H1782 H 0.11663 0.51477 0.81927 0.0
H1783 H 0.11558 0.33382 0.80277 0.0
H1784 H 0.0861 0.39566 0.79796 0.0
H1785 H 0.01292 0.39369 0.82291 0.0
H1786 H 0.04192 0.33182 0.82775 0.0
H1787 H 0.09366 0.46118 0.80788 0.0
H1788 H 0.93034 0.44423 0.8192 0.0
H1789 H 0.87858 0.39434 0.8185 0.0
H1790 H 0.93628 0.33904 0.79498 0.0
H1791 H 0.98809 0.38891 0.79544 0.0
C1792 C 0.99814 0.61508 0.82097 0.0
C1793 C 0.96962 0.63327 0.81531 0.0
C1794 C 0.01319 0.57869 0.81843 0.0
C1795 C 0.00013 0.55977 0.81017 0.0
C1796 C 0.97275 0.57842 0.80432 0.0
C1797 C 0.9578 0.61498 0.80682 0.0
C1798 C 0.01274 0.51921 0.80819 0.0
C1799 C 0.98418 0.48987 0.80783 0.0
C1800 C 0.05266 0.50883 0.80776 0.0
C1801 C 0.08395 0.5388 0.80744 0.0
C1802 C 0.08279 0.56881 0.80062 0.0
C1803 C 0.11212 0.59715 0.80038 0.0
C1804 C 0.1429 0.5957 0.80688 0.0
C1805 C 0.14443 0.56587 0.81364 0.0
C1806 C 0.11516 0.53747 0.81393 0.0
C1807 C 0.09254 0.346 0.80712 0.0
C1808 C 0.08144 0.32801 0.81571 0.0
C1809 C 0.0758 0.38144 0.80437 0.0
C1810 C 0.04737 0.39931 0.81008 0.0
C1811 C 0.03449 0.38022 0.81833 0.0
C1812 C 0.05128 0.34488 0.82111 0.0
C1813 C 0.03449 0.43983 0.80812 0.0
C1814 C 0.06302 0.46921 0.80777 0.0
C1815 C 0.99454 0.45022 0.80775 0.0
C1816 C 0.96327 0.42025 0.80739 0.0
C1817 C 0.9319 0.42158 0.81384 0.0
C1818 C 0.90256 0.39325 0.81349 0.0
C1819 C 0.90419 0.3635 0.80671 0.0
C1820 C 0.93512 0.36204 0.80025 0.0
C1821 C 0.96452 0.39029 0.80056 0.0
H1822 H 0.88145 0.3416 0.80646 0.0
H1823 H 0.16558 0.61767 0.80668 0.0
loop_
_geom_bond_atom_site_label_1
_geom_bond_atom_site_label_2
_geom_bond_distance
_geom_bond_site_symmetry_2
_ccdc_geom_bond_type
Mg0 O1 2.028 . S
Mg0 O7 1.986 . S
Mg0 O9 2.114 . S
Mg0 O10 2.251 . S
Mg0 O13 2.010 . S
O1 Mg0 2.028 . S
O1 C4 1.250 . S
O2 Mg3 2.028 . S
O2 C4 1.248 . S
Mg3 O2 2.028 . S
Mg3 O8 2.032 . S
Mg3 O10 2.079 . S
C4 O1 1.250 . S
C4 O2 1.248 . S
C5 O6 1.264 . S
C5 O13 1.249 . S
O6 C5 1.264 . S
O7 Mg0 1.986 . S
O7 C11 1.246 . S
O8 Mg3 2.032 . S
O8 C11 1.259 . S
O9 Mg0 2.114 . S
O9 C12 1.252 . S
O10 Mg0 2.251 . S
O10 Mg3 2.079 . S
O10 C12 1.273 . S
C11 O7 1.246 . S
C11 O8 1.259 . S
C12 O9 1.252 . S
C12 O10 1.273 . S
O13 Mg0 2.010 . S
O13 C5 1.249 . S
Mg14 O15 2.028 . S
Mg14 O21 1.986 . S
Mg14 O23 2.114 . S
Mg14 O24 2.251 . S
Mg14 O27 2.010 . S
O15 Mg14 2.028 . S
O15 C18 1.250 . S
O16 Mg17 2.028 . S
O16 C18 1.248 . S
Mg17 O16 2.028 . S
Mg17 O22 2.032 . S
Mg17 O24 2.079 . S
C18 O15 1.250 . S
C18 O16 1.248 . S
C19 O20 1.264 . S
C19 O27 1.249 . S
O20 C19 1.264 . S
O21 Mg14 1.986 . S
O21 C25 1.246 . S
O22 Mg17 2.032 . S
O22 C25 1.259 . S
O23 Mg14 2.114 . S
O23 C26 1.252 . S
O24 Mg14 2.251 . S
O24 Mg17 2.079 . S
O24 C26 1.273 . S
C25 O21 1.246 . S
C25 O22 1.259 . S
C26 O23 1.252 . S
C26 O24 1.273 . S
O27 Mg14 2.010 . S
O27 C19 1.249 . S
Mg28 O29 2.028 . S
Mg28 O35 1.986 . S
Mg28 O37 2.114 . S
Mg28 O38 2.251 . S
Mg28 O41 2.010 . S
O29 Mg28 2.028 . S
O29 C32 1.250 . S
O30 Mg31 2.028 . S
O30 C32 1.248 . S
Mg31 O30 2.028 . S
Mg31 O36 2.032 . S
Mg31 O38 2.079 . S
C32 O29 1.250 . S
C32 O30 1.248 . S
C33 O34 1.264 . S
C33 O41 1.249 . S
O34 C33 1.264 . S
O35 Mg28 1.986 . S
O35 C39 1.246 . S
O36 Mg31 2.032 . S
O36 C39 1.259 . S
O37 Mg28 2.114 . S
O37 C40 1.252 . S
O38 Mg28 2.251 . S
O38 Mg31 2.079 . S
O38 C40 1.273 . S
C39 O35 1.246 . S
C39 O36 1.259 . S
C40 O37 1.252 . S
C40 O38 1.273 . S
O41 Mg28 2.010 . S
O41 C33 1.249 . S
Mg42 O43 2.028 . S
Mg42 O49 1.986 . S
Mg42 O51 2.114 . S
Mg42 O52 2.251 . S
Mg42 O55 2.010 . S
O43 Mg42 2.028 . S
O43 C46 1.250 . S
O44 Mg45 2.028 . S
O44 C46 1.248 . S
Mg45 O44 2.028 . S
Mg45 O50 2.032 . S
Mg45 O52 2.079 . S
C46 O43 1.250 . S
C46 O44 1.248 . S
C47 O48 1.264 . S
C47 O55 1.249 . S
O48 C47 1.264 . S
O49 Mg42 1.986 . S
O49 C53 1.246 . S
O50 Mg45 2.032 . S
O50 C53 1.259 . S
O51 Mg42 2.114 . S
O51 C54 1.252 . S
O52 Mg42 2.251 . S
O52 Mg45 2.079 . S
O52 C54 1.273 . S
C53 O49 1.246 . S
C53 O50 1.259 . S
C54 O51 1.252 . S
C54 O52 1.273 . S
O55 Mg42 2.010 . S
O55 C47 1.249 . S
Mg56 O57 2.028 . S
Mg56 O63 1.986 . S
Mg56 O65 2.114 . S
Mg56 O66 2.251 . S
Mg56 O69 2.010 . S
O57 Mg56 2.028 . S
O57 C60 1.250 . S
O58 Mg59 2.028 . S
O58 C60 1.248 . S
Mg59 O58 2.028 . S
Mg59 O64 2.032 . S
Mg59 O66 2.079 . S
C60 O57 1.250 . S
C60 O58 1.248 . S
C61 O62 1.264 . S
C61 O69 1.249 . S
O62 C61 1.264 . S
O63 Mg56 1.986 . S
O63 C67 1.246 . S
O64 Mg59 2.032 . S
O64 C67 1.259 . S
O65 Mg56 2.114 . S
O65 C68 1.252 . S
O66 Mg56 2.251 . S
O66 Mg59 2.079 . S
O66 C68 1.273 . S
C67 O63 1.246 . S
C67 O64 1.259 . S
C68 O65 1.252 . S
C68 O66 1.273 . S
O69 Mg56 2.010 . S
O69 C61 1.249 . S
Mg70 O71 2.028 . S
Mg70 O77 1.986 . S
Mg70 O79 2.114 . S
Mg70 O80 2.251 . S
Mg70 O83 2.010 . S
O71 Mg70 2.028 . S
O71 C74 1.250 . S
O72 Mg73 2.028 . S
O72 C74 1.248 . S
Mg73 O72 2.028 . S
Mg73 O78 2.032 . S
Mg73 O80 2.079 . S
C74 O71 1.250 . S
C74 O72 1.248 . S
C75 O76 1.264 . S
C75 O83 1.249 . S
O76 C75 1.264 . S
O77 Mg70 1.986 . S
O77 C81 1.246 . S
O78 Mg73 2.032 . S
O78 C81 1.259 . S
O79 Mg70 2.114 . S
O79 C82 1.252 . S
O80 Mg70 2.251 . S
O80 Mg73 2.079 . S
O80 C82 1.273 . S
C81 O77 1.246 . S
C81 O78 1.259 . S
C82 O79 1.252 . S
C82 O80 1.273 . S
O83 Mg70 2.010 . S
O83 C75 1.249 . S
Mg84 O85 2.028 . S
Mg84 O91 1.986 . S
Mg84 O93 2.114 . S
Mg84 O94 2.251 . S
Mg84 O97 2.010 . S
O85 Mg84 2.028 . S
O85 C88 1.250 . S
O86 Mg87 2.028 . S
O86 C88 1.248 . S
Mg87 O86 2.028 . S
Mg87 O92 2.032 . S
Mg87 O94 2.079 . S
C88 O85 1.250 . S
C88 O86 1.248 . S
C89 O90 1.264 . S
C89 O97 1.249 . S
O90 C89 1.264 . S
O91 Mg84 1.986 . S
O91 C95 1.246 . S
O92 Mg87 2.032 . S
O92 C95 1.259 . S
O93 Mg84 2.114 . S
O93 C96 1.252 . S
O94 Mg84 2.251 . S
O94 Mg87 2.079 . S
O94 C96 1.273 . S
C95 O91 1.246 . S
C95 O92 1.259 . S
C96 O93 1.252 . S
C96 O94 1.273 . S
O97 Mg84 2.010 . S
O97 C89 1.249 . S
Mg98 O99 2.028 . S
Mg98 O105 1.986 . S
Mg98 O107 2.114 . S
Mg98 O108 2.251 . S
Mg98 O111 2.010 . S
O99 Mg98 2.028 . S
O99 C102 1.250 . S
O100 Mg101 2.028 . S
O100 C102 1.248 . S
Mg101 O100 2.028 . S
Mg101 O106 2.032 . S
Mg101 O108 2.079 . S
C102 O99 1.250 . S
C102 O100 1.248 . S
C103 O104 1.264 . S
C103 O111 1.249 . S
O104 C103 1.264 . S
O105 Mg98 1.986 . S
O105 C109 1.246 . S
O106 Mg101 2.032 . S
O106 C109 1.259 . S
O107 Mg98 2.114 . S
O107 C110 1.252 . S
O108 Mg98 2.251 . S
O108 Mg101 2.079 . S
O108 C110 1.273 . S
C109 O105 1.246 . S
C109 O106 1.259 . S
C110 O107 1.252 . S
C110 O108 1.273 . S
O111 Mg98 2.010 . S
O111 C103 1.249 . S
Mg112 O113 2.028 . S
Mg112 O119 1.986 . S
Mg112 O121 2.114 . S
Mg112 O122 2.251 . S
Mg112 O125 2.010 . S
O113 Mg112 2.028 . S
O113 C116 1.250 . S
O114 Mg115 2.028 . S
O114 C116 1.248 . S
Mg115 O114 2.028 . S
Mg115 O120 2.032 . S
Mg115 O122 2.079 . S
C116 O113 1.250 . S
C116 O114 1.248 . S
C117 O118 1.264 . S
C117 O125 1.249 . S
O118 C117 1.264 . S
O119 Mg112 1.986 . S
O119 C123 1.246 . S
O120 Mg115 2.032 . S
O120 C123 1.259 . S
O121 Mg112 2.114 . S
O121 C124 1.252 . S
O122 Mg112 2.251 . S
O122 Mg115 2.079 . S
O122 C124 1.273 . S
C123 O119 1.246 . S
C123 O120 1.259 . S
C124 O121 1.252 . S
C124 O122 1.273 . S
O125 Mg112 2.010 . S
O125 C117 1.249 . S
Mg126 O127 2.028 . S
Mg126 O133 1.986 . S
Mg126 O135 2.114 . S
Mg126 O136 2.251 . S
Mg126 O139 2.010 . S
O127 Mg126 2.028 . S
O127 C130 1.250 . S
O128 Mg129 2.028 . S
O128 C130 1.248 . S
Mg129 O128 2.028 . S
Mg129 O134 2.032 . S
Mg129 O136 2.079 . S
C130 O127 1.250 . S
C130 O128 1.248 . S
C131 O132 1.264 . S
C131 O139 1.249 . S
O132 C131 1.264 . S
O133 Mg126 1.986 . S
O133 C137 1.246 . S
O134 Mg129 2.032 . S
O134 C137 1.259 . S
O135 Mg126 2.114 . S
O135 C138 1.252 . S
O136 Mg126 2.251 . S
O136 Mg129 2.079 . S
O136 C138 1.273 . S
C137 O133 1.246 . S
C137 O134 1.259 . S
C138 O135 1.252 . S
C138 O136 1.273 . S
O139 Mg126 2.010 . S
O139 C131 1.249 . S
Mg140 O141 2.028 . S
Mg140 O147 1.986 . S
Mg140 O149 2.114 . S
Mg140 O150 2.251 . S
Mg140 O153 2.010 . S
O141 Mg140 2.028 . S
O141 C144 1.250 . S
O142 Mg143 2.028 . S
O142 C144 1.248 . S
Mg143 O142 2.028 . S
Mg143 O148 2.032 . S
Mg143 O150 2.079 . S
C144 O141 1.250 . S
C144 O142 1.248 . S
C145 O146 1.264 . S
C145 O153 1.249 . S
O146 C145 1.264 . S
O147 Mg140 1.986 . S
O147 C151 1.246 . S
O148 Mg143 2.032 . S
O148 C151 1.259 . S
O149 Mg140 2.114 . S
O149 C152 1.252 . S
O150 Mg140 2.251 . S
O150 Mg143 2.079 . S
O150 C152 1.273 . S
C151 O147 1.246 . S
C151 O148 1.259 . S
C152 O149 1.252 . S
C152 O150 1.273 . S
O153 Mg140 2.010 . S
O153 C145 1.249 . S
Mg154 O155 2.028 . S
Mg154 O161 1.986 . S
Mg154 O163 2.114 . S
Mg154 O164 2.251 . S
Mg154 O167 2.010 . S
O155 Mg154 2.028 . S
O155 C158 1.250 . S
O156 Mg157 2.028 . S
O156 C158 1.248 . S
Mg157 O156 2.028 . S
Mg157 O162 2.032 . S
Mg157 O164 2.079 . S
C158 O155 1.250 . S
C158 O156 1.248 . S
C159 O160 1.264 . S
C159 O167 1.249 . S
O160 C159 1.264 . S
O161 Mg154 1.986 . S
O161 C165 1.246 . S
O162 Mg157 2.032 . S
O162 C165 1.259 . S
O163 Mg154 2.114 . S
O163 C166 1.252 . S
O164 Mg154 2.251 . S
O164 Mg157 2.079 . S
O164 C166 1.273 . S
C165 O161 1.246 . S
C165 O162 1.259 . S
C166 O163 1.252 . S
C166 O164 1.273 . S
O167 Mg154 2.010 . S
O167 C159 1.249 . S
Mg168 O169 2.028 . S
Mg168 O175 1.986 . S
Mg168 O177 2.114 . S
Mg168 O178 2.251 . S
Mg168 O181 2.010 . S
O169 Mg168 2.028 . S
O169 C172 1.250 . S
O170 Mg171 2.028 . S
O170 C172 1.248 . S
Mg171 O170 2.028 . S
Mg171 O176 2.032 . S
Mg171 O178 2.079 . S
C172 O169 1.250 . S
C172 O170 1.248 . S
C173 O174 1.264 . S
C173 O181 1.249 . S
O174 C173 1.264 . S
O175 Mg168 1.986 . S
O175 C179 1.246 . S
O176 Mg171 2.032 . S
O176 C179 1.259 . S
O177 Mg168 2.114 . S
O177 C180 1.252 . S
O178 Mg168 2.251 . S
O178 Mg171 2.079 . S
O178 C180 1.273 . S
C179 O175 1.246 . S
C179 O176 1.259 . S
C180 O177 1.252 . S
C180 O178 1.273 . S
O181 Mg168 2.010 . S
O181 C173 1.249 . S
Mg182 O183 2.028 . S
Mg182 O189 1.986 . S
Mg182 O191 2.114 . S
Mg182 O192 2.251 . S
Mg182 O195 2.010 . S
O183 Mg182 2.028 . S
O183 C186 1.250 . S
O184 Mg185 2.028 . S
O184 C186 1.248 . S
Mg185 O184 2.028 . S
Mg185 O190 2.032 . S
Mg185 O192 2.079 . S
C186 O183 1.250 . S
C186 O184 1.248 . S
C187 O188 1.264 . S
C187 O195 1.249 . S
O188 C187 1.264 . S
O189 Mg182 1.986 . S
O189 C193 1.246 . S
O190 Mg185 2.032 . S
O190 C193 1.259 . S
O191 Mg182 2.114 . S
O191 C194 1.252 . S
O192 Mg182 2.251 . S
O192 Mg185 2.079 . S
O192 C194 1.273 . S
C193 O189 1.246 . S
C193 O190 1.259 . S
C194 O191 1.252 . S
C194 O192 1.273 . S
O195 Mg182 2.010 . S
O195 C187 1.249 . S
Mg196 O197 2.028 . S
Mg196 O203 1.986 . S
Mg196 O205 2.114 . S
Mg196 O206 2.251 . S
Mg196 O209 2.010 . S
O197 Mg196 2.028 . S
O197 C200 1.250 . S
O198 Mg199 2.028 . S
O198 C200 1.248 . S
Mg199 O198 2.028 . S
Mg199 O204 2.032 . S
Mg199 O206 2.079 . S
C200 O197 1.250 . S
C200 O198 1.248 . S
C201 O202 1.264 . S
C201 O209 1.249 . S
O202 C201 1.264 . S
O203 Mg196 1.986 . S
O203 C207 1.246 . S
O204 Mg199 2.032 . S
O204 C207 1.259 . S
O205 Mg196 2.114 . S
O205 C208 1.252 . S
O206 Mg196 2.251 . S
O206 Mg199 2.079 . S
O206 C208 1.273 . S
C207 O203 1.246 . S
C207 O204 1.259 . S
C208 O205 1.252 . S
C208 O206 1.273 . S
O209 Mg196 2.010 . S
O209 C201 1.249 . S
Mg210 O211 2.028 . S
Mg210 O217 1.986 . S
Mg210 O219 2.114 . S
Mg210 O220 2.251 . S
Mg210 O223 2.010 . S
O211 Mg210 2.028 . S
O211 C214 1.250 . S
O212 Mg213 2.028 . S
O212 C214 1.248 . S
Mg213 O212 2.028 . S
Mg213 O218 2.032 . S
Mg213 O220 2.079 . S
C214 O211 1.250 . S
C214 O212 1.248 . S
C215 O216 1.264 . S
C215 O223 1.249 . S
O216 C215 1.264 . S
O217 Mg210 1.986 . S
O217 C221 1.246 . S
O218 Mg213 2.032 . S
O218 C221 1.259 . S
O219 Mg210 2.114 . S
O219 C222 1.252 . S
O220 Mg210 2.251 . S
O220 Mg213 2.079 . S
O220 C222 1.273 . S
C221 O217 1.246 . S
C221 O218 1.259 . S
C222 O219 1.252 . S
C222 O220 1.273 . S
O223 Mg210 2.010 . S
O223 C215 1.249 . S
H224 C242 0.951 . S
H225 C244 0.951 . S
H226 C246 0.950 . S
H227 C247 0.950 . S
H228 C249 0.950 . S
H229 C252 0.950 . S
H230 C253 0.950 . S
H231 C255 0.950 . S
H232 C256 0.950 . S
H233 C257 0.951 . S
H234 C259 0.951 . S
H235 C261 0.950 . S
H236 C262 0.950 . S
H237 C264 0.950 . S
H238 C267 0.950 . S
H239 C268 0.950 . S
H240 C270 0.950 . S
H241 C271 0.950 . S
C242 H224 0.951 . S
C242 C243 1.366 . S
C242 C244 1.388 . S
C243 C242 1.366 . S
C243 C247 1.385 . S
C244 H225 0.951 . S
C244 C242 1.388 . S
C244 C245 1.366 . S
C245 C244 1.366 . S
C245 C246 1.414 . S
C245 C248 1.499 . S
C246 H226 0.950 . S
C246 C245 1.414 . S
C246 C247 1.374 . S
C247 H227 0.950 . S
C247 C243 1.385 . S
C247 C246 1.374 . S
C248 C245 1.499 . S
C248 C249 1.373 . S
C248 C250 1.389 . S
C249 H228 0.950 . S
C249 C248 1.373 . S
C249 C265 1.377 . S
C250 C248 1.389 . S
C250 C251 1.524 . S
C250 C264 1.377 . S
C251 C250 1.524 . S
C251 C252 1.397 . S
C251 C256 1.363 . S
C252 H229 0.950 . S
C252 C251 1.397 . S
C252 C253 1.334 . S
C253 H230 0.950 . S
C253 C252 1.334 . S
C253 C254 1.287 . S
C254 C253 1.287 . S
C254 C255 1.524 . S
C254 H273 0.913 . S
C255 H231 0.950 . S
C255 C254 1.524 . S
C255 C256 1.415 . S
C256 H232 0.950 . S
C256 C251 1.363 . S
C256 C255 1.415 . S
C257 H233 0.951 . S
C257 C258 1.366 . S
C257 C259 1.388 . S
C258 C257 1.366 . S
C258 C262 1.385 . S
C259 H234 0.951 . S
C259 C257 1.388 . S
C259 C260 1.366 . S
C260 C259 1.366 . S
C260 C261 1.414 . S
C260 C263 1.499 . S
C261 H235 0.950 . S
C261 C260 1.414 . S
C261 C262 1.374 . S
C262 H236 0.950 . S
C262 C258 1.385 . S
C262 C261 1.374 . S
C263 C260 1.499 . S
C263 C264 1.373 . S
C263 C265 1.389 . S
C264 H237 0.950 . S
C264 C250 1.377 . S
C264 C263 1.373 . S
C265 C249 1.377 . S
C265 C263 1.389 . S
C265 C266 1.524 . S
C266 C265 1.524 . S
C266 C267 1.397 . S
C266 C271 1.363 . S
C267 H238 0.950 . S
C267 C266 1.397 . S
C267 C268 1.334 . S
C268 H239 0.950 . S
C268 C267 1.334 . S
C268 C269 1.287 . S
C269 C268 1.287 . S
C269 C270 1.524 . S
C269 H272 0.999 . S
C270 H240 0.950 . S
C270 C269 1.524 . S
C270 C271 1.415 . S
C271 H241 0.950 . S
C271 C266 1.363 . S
C271 C270 1.415 . S
H272 C269 0.999 . S
H273 C254 0.913 . S
H274 C292 0.951 . S
H275 C294 0.951 . S
H276 C296 0.950 . S
H277 C297 0.950 . S
H278 C299 0.950 . S
H279 C302 0.950 . S
H280 C303 0.950 . S
H281 C305 0.950 . S
H282 C306 0.950 . S
H283 C307 0.951 . S
H284 C309 0.951 . S
H285 C311 0.950 . S
H286 C312 0.950 . S
H287 C314 0.950 . S
H288 C317 0.950 . S
H289 C318 0.950 . S
H290 C320 0.950 . S
H291 C321 0.950 . S
C292 H274 0.951 . S
C292 C293 1.366 . S
C292 C294 1.388 . S
C293 C292 1.366 . S
C293 C297 1.385 . S
C294 H275 0.951 . S
C294 C292 1.388 . S
C294 C295 1.366 . S
C295 C294 1.366 . S
C295 C296 1.414 . S
C295 C298 1.499 . S
C296 H276 0.950 . S
C296 C295 1.414 . S
C296 C297 1.374 . S
C297 H277 0.950 . S
C297 C293 1.385 . S
C297 C296 1.374 . S
C298 C295 1.499 . S
C298 C299 1.373 . S
C298 C300 1.389 . S
C299 H278 0.950 . S
C299 C298 1.373 . S
C299 C315 1.377 . S
C300 C298 1.389 . S
C300 C301 1.524 . S
C300 C314 1.377 . S
C301 C300 1.524 . S
C301 C302 1.397 . S
C301 C306 1.363 . S
C302 H279 0.950 . S
C302 C301 1.397 . S
C302 C303 1.334 . S
C303 H280 0.950 . S
C303 C302 1.334 . S
C303 C304 1.287 . S
C304 C303 1.287 . S
C304 C305 1.524 . S
C304 H323 0.913 . S
C305 H281 0.950 . S
C305 C304 1.524 . S
C305 C306 1.415 . S
C306 H282 0.950 . S
C306 C301 1.363 . S
C306 C305 1.415 . S
C307 H283 0.951 . S
C307 C308 1.366 . S
C307 C309 1.388 . S
C308 C307 1.366 . S
C308 C312 1.385 . S
C309 H284 0.951 . S
C309 C307 1.388 . S
C309 C310 1.366 . S
C310 C309 1.366 . S
C310 C311 1.414 . S
C310 C313 1.499 . S
C311 H285 0.950 . S
C311 C310 1.414 . S
C311 C312 1.374 . S
C312 H286 0.950 . S
C312 C308 1.385 . S
C312 C311 1.374 . S
C313 C310 1.499 . S
C313 C314 1.373 . S
C313 C315 1.389 . S
C314 H287 0.950 . S
C314 C300 1.377 . S
C314 C313 1.373 . S
C315 C299 1.377 . S
C315 C313 1.389 . S
C315 C316 1.524 . S
C316 C315 1.524 . S
C316 C317 1.397 . S
C316 C321 1.363 . S
C317 H288 0.950 . S
C317 C316 1.397 . S
C317 C318 1.334 . S
C318 H289 0.950 . S
C318 C317 1.334 . S
C318 C319 1.287 . S
C319 C318 1.287 . S
C319 C320 1.524 . S
C319 H322 0.999 . S
C320 H290 0.950 . S
C320 C319 1.524 . S
C320 C321 1.415 . S
C321 H291 0.950 . S
C321 C316 1.363 . S
C321 C320 1.415 . S
H322 C319 0.999 . S
H323 C304 0.913 . S
H324 C342 0.951 . S
H325 C344 0.951 . S
H326 C346 0.950 . S
H327 C347 0.950 . S
H328 C349 0.950 . S
H329 C352 0.950 . S
H330 C353 0.950 . S
H331 C355 0.950 . S
H332 C356 0.950 . S
H333 C357 0.951 . S
H334 C359 0.951 . S
H335 C361 0.950 . S
H336 C362 0.950 . S
H337 C364 0.950 . S
H338 C367 0.950 . S
H339 C368 0.950 . S
H340 C370 0.950 . S
H341 C371 0.950 . S
C342 H324 0.951 . S
C342 C343 1.366 . S
C342 C344 1.388 . S
C343 C342 1.366 . S
C343 C347 1.385 . S
C344 H325 0.951 . S
C344 C342 1.388 . S
C344 C345 1.366 . S
C345 C344 1.366 . S
C345 C346 1.414 . S
C345 C348 1.499 . S
C346 H326 0.950 . S
C346 C345 1.414 . S
C346 C347 1.374 . S
C347 H327 0.950 . S
C347 C343 1.385 . S
C347 C346 1.374 . S
C348 C345 1.499 . S
C348 C349 1.373 . S
C348 C350 1.389 . S
C349 H328 0.950 . S
C349 C348 1.373 . S
C349 C365 1.377 . S
C350 C348 1.389 . S
C350 C351 1.524 . S
C350 C364 1.377 . S
C351 C350 1.524 . S
C351 C352 1.397 . S
C351 C356 1.363 . S
C352 H329 0.950 . S
C352 C351 1.397 . S
C352 C353 1.334 . S
C353 H330 0.950 . S
C353 C352 1.334 . S
C353 C354 1.287 . S
C354 C353 1.287 . S
C354 C355 1.524 . S
C354 H373 0.913 . S
C355 H331 0.950 . S
C355 C354 1.524 . S
C355 C356 1.415 . S
C356 H332 0.950 . S
C356 C351 1.363 . S
C356 C355 1.415 . S
C357 H333 0.951 . S
C357 C358 1.366 . S
C357 C359 1.388 . S
C358 C357 1.366 . S
C358 C362 1.385 . S
C359 H334 0.951 . S
C359 C357 1.388 . S
C359 C360 1.366 . S
C360 C359 1.366 . S
C360 C361 1.414 . S
C360 C363 1.499 . S
C361 H335 0.950 . S
C361 C360 1.414 . S
C361 C362 1.374 . S
C362 H336 0.950 . S
C362 C358 1.385 . S
C362 C361 1.374 . S
C363 C360 1.499 . S
C363 C364 1.373 . S
C363 C365 1.389 . S
C364 H337 0.950 . S
C364 C350 1.377 . S
C364 C363 1.373 . S
C365 C349 1.377 . S
C365 C363 1.389 . S
C365 C366 1.524 . S
C366 C365 1.524 . S
C366 C367 1.397 . S
C366 C371 1.363 . S
C367 H338 0.950 . S
C367 C366 1.397 . S
C367 C368 1.334 . S
C368 H339 0.950 . S
C368 C367 1.334 . S
C368 C369 1.287 . S
C369 C368 1.287 . S
C369 C370 1.524 . S
C369 H372 0.999 . S
C370 H340 0.950 . S
C370 C369 1.524 . S
C370 C371 1.415 . S
C371 H341 0.950 . S
C371 C366 1.363 . S
C371 C370 1.415 . S
H372 C369 0.999 . S
H373 C354 0.913 . S
H374 C392 0.951 . S
H375 C394 0.951 . S
H376 C396 0.950 . S
H377 C397 0.950 . S
H378 C399 0.950 . S
H379 C402 0.950 . S
H380 C403 0.950 . S
H381 C405 0.950 . S
H382 C406 0.950 . S
H383 C407 0.951 . S
H384 C409 0.951 . S
H385 C411 0.950 . S
H386 C412 0.950 . S
H387 C414 0.950 . S
H388 C417 0.950 . S
H389 C418 0.950 . S
H390 C420 0.950 . S
H391 C421 0.950 . S
C392 H374 0.951 . S
C392 C393 1.366 . S
C392 C394 1.388 . S
C393 C392 1.366 . S
C393 C397 1.385 . S
C394 H375 0.951 . S
C394 C392 1.388 . S
C394 C395 1.366 . S
C395 C394 1.366 . S
C395 C396 1.414 . S
C395 C398 1.499 . S
C396 H376 0.950 . S
C396 C395 1.414 . S
C396 C397 1.374 . S
C397 H377 0.950 . S
C397 C393 1.385 . S
C397 C396 1.374 . S
C398 C395 1.499 . S
C398 C399 1.373 . S
C398 C400 1.389 . S
C399 H378 0.950 . S
C399 C398 1.373 . S
C399 C415 1.377 . S
C400 C398 1.389 . S
C400 C401 1.524 . S
C400 C414 1.377 . S
C401 C400 1.524 . S
C401 C402 1.397 . S
C401 C406 1.363 . S
C402 H379 0.950 . S
C402 C401 1.397 . S
C402 C403 1.334 . S
C403 H380 0.950 . S
C403 C402 1.334 . S
C403 C404 1.287 . S
C404 C403 1.287 . S
C404 C405 1.524 . S
C404 H423 0.913 . S
C405 H381 0.950 . S
C405 C404 1.524 . S
C405 C406 1.415 . S
C406 H382 0.950 . S
C406 C401 1.363 . S
C406 C405 1.415 . S
C407 H383 0.951 . S
C407 C408 1.366 . S
C407 C409 1.388 . S
C408 C407 1.366 . S
C408 C412 1.385 . S
C409 H384 0.951 . S
C409 C407 1.388 . S
C409 C410 1.366 . S
C410 C409 1.366 . S
C410 C411 1.414 . S
C410 C413 1.499 . S
C411 H385 0.950 . S
C411 C410 1.414 . S
C411 C412 1.374 . S
C412 H386 0.950 . S
C412 C408 1.385 . S
C412 C411 1.374 . S
C413 C410 1.499 . S
C413 C414 1.373 . S
C413 C415 1.389 . S
C414 H387 0.950 . S
C414 C400 1.377 . S
C414 C413 1.373 . S
C415 C399 1.377 . S
C415 C413 1.389 . S
C415 C416 1.524 . S
C416 C415 1.524 . S
C416 C417 1.397 . S
C416 C421 1.363 . S
C417 H388 0.950 . S
C417 C416 1.397 . S
C417 C418 1.334 . S
C418 H389 0.950 . S
C418 C417 1.334 . S
C418 C419 1.287 . S
C419 C418 1.287 . S
C419 C420 1.524 . S
C419 H422 0.999 . S
C420 H390 0.950 . S
C420 C419 1.524 . S
C420 C421 1.415 . S
C421 H391 0.950 . S
C421 C416 1.363 . S
C421 C420 1.415 . S
H422 C419 0.999 . S
H423 C404 0.913 . S
H424 C442 0.951 . S
H425 C444 0.951 . S
H426 C446 0.950 . S
H427 C447 0.950 . S
H428 C449 0.950 . S
H429 C452 0.950 . S
H430 C453 0.950 . S
H431 C455 0.950 . S
H432 C456 0.950 . S
H433 C457 0.951 . S
H434 C459 0.951 . S
H435 C461 0.950 . S
H436 C462 0.950 . S
H437 C464 0.950 . S
H438 C467 0.950 . S
H439 C468 0.950 . S
H440 C470 0.950 . S
H441 C471 0.950 . S
C442 H424 0.951 . S
C442 C443 1.366 . S
C442 C444 1.388 . S
C443 C442 1.366 . S
C443 C447 1.385 . S
C444 H425 0.951 . S
C444 C442 1.388 . S
C444 C445 1.366 . S
C445 C444 1.366 . S
C445 C446 1.414 . S
C445 C448 1.499 . S
C446 H426 0.950 . S
C446 C445 1.414 . S
C446 C447 1.374 . S
C447 H427 0.950 . S
C447 C443 1.385 . S
C447 C446 1.374 . S
C448 C445 1.499 . S
C448 C449 1.373 . S
C448 C450 1.389 . S
C449 H428 0.950 . S
C449 C448 1.373 . S
C449 C465 1.377 . S
C450 C448 1.389 . S
C450 C451 1.524 . S
C450 C464 1.377 . S
C451 C450 1.524 . S
C451 C452 1.397 . S
C451 C456 1.363 . S
C452 H429 0.950 . S
C452 C451 1.397 . S
C452 C453 1.334 . S
C453 H430 0.950 . S
C453 C452 1.334 . S
C453 C454 1.287 . S
C454 C453 1.287 . S
C454 C455 1.524 . S
C454 H473 0.913 . S
C455 H431 0.950 . S
C455 C454 1.524 . S
C455 C456 1.415 . S
C456 H432 0.950 . S
C456 C451 1.363 . S
C456 C455 1.415 . S
C457 H433 0.951 . S
C457 C458 1.366 . S
C457 C459 1.388 . S
C458 C457 1.366 . S
C458 C462 1.385 . S
C459 H434 0.951 . S
C459 C457 1.388 . S
C459 C460 1.366 . S
C460 C459 1.366 . S
C460 C461 1.414 . S
C460 C463 1.499 . S
C461 H435 0.950 . S
C461 C460 1.414 . S
C461 C462 1.374 . S
C462 H436 0.950 . S
C462 C458 1.385 . S
C462 C461 1.374 . S
C463 C460 1.499 . S
C463 C464 1.373 . S
C463 C465 1.389 . S
C464 H437 0.950 . S
C464 C450 1.377 . S
C464 C463 1.373 . S
C465 C449 1.377 . S
C465 C463 1.389 . S
C465 C466 1.524 . S
C466 C465 1.524 . S
C466 C467 1.397 . S
C466 C471 1.363 . S
C467 H438 0.950 . S
C467 C466 1.397 . S
C467 C468 1.334 . S
C468 H439 0.950 . S
C468 C467 1.334 . S
C468 C469 1.287 . S
C469 C468 1.287 . S
C469 C470 1.524 . S
C469 H472 0.999 . S
C470 H440 0.950 . S
C470 C469 1.524 . S
C470 C471 1.415 . S
C471 H441 0.950 . S
C471 C466 1.363 . S
C471 C470 1.415 . S
H472 C469 0.999 . S
H473 C454 0.913 . S
H474 C492 0.951 . S
H475 C494 0.951 . S
H476 C496 0.950 . S
H477 C497 0.950 . S
H478 C499 0.950 . S
H479 C502 0.950 . S
H480 C503 0.950 . S
H481 C505 0.950 . S
H482 C506 0.950 . S
H483 C507 0.951 . S
H484 C509 0.951 . S
H485 C511 0.950 . S
H486 C512 0.950 . S
H487 C514 0.950 . S
H488 C517 0.950 . S
H489 C518 0.950 . S
H490 C520 0.950 . S
H491 C521 0.950 . S
C492 H474 0.951 . S
C492 C493 1.366 . S
C492 C494 1.388 . S
C493 C492 1.366 . S
C493 C497 1.385 . S
C494 H475 0.951 . S
C494 C492 1.388 . S
C494 C495 1.366 . S
C495 C494 1.366 . S
C495 C496 1.414 . S
C495 C498 1.499 . S
C496 H476 0.950 . S
C496 C495 1.414 . S
C496 C497 1.374 . S
C497 H477 0.950 . S
C497 C493 1.385 . S
C497 C496 1.374 . S
C498 C495 1.499 . S
C498 C499 1.373 . S
C498 C500 1.389 . S
C499 H478 0.950 . S
C499 C498 1.373 . S
C499 C515 1.377 . S
C500 C498 1.389 . S
C500 C501 1.524 . S
C500 C514 1.377 . S
C501 C500 1.524 . S
C501 C502 1.397 . S
C501 C506 1.363 . S
C502 H479 0.950 . S
C502 C501 1.397 . S
C502 C503 1.334 . S
C503 H480 0.950 . S
C503 C502 1.334 . S
C503 C504 1.287 . S
C504 C503 1.287 . S
C504 C505 1.524 . S
C504 H523 0.913 . S
C505 H481 0.950 . S
C505 C504 1.524 . S
C505 C506 1.415 . S
C506 H482 0.950 . S
C506 C501 1.363 . S
C506 C505 1.415 . S
C507 H483 0.951 . S
C507 C508 1.366 . S
C507 C509 1.388 . S
C508 C507 1.366 . S
C508 C512 1.385 . S
C509 H484 0.951 . S
C509 C507 1.388 . S
C509 C510 1.366 . S
C510 C509 1.366 . S
C510 C511 1.414 . S
C510 C513 1.499 . S
C511 H485 0.950 . S
C511 C510 1.414 . S
C511 C512 1.374 . S
C512 H486 0.950 . S
C512 C508 1.385 . S
C512 C511 1.374 . S
C513 C510 1.499 . S
C513 C514 1.373 . S
C513 C515 1.389 . S
C514 H487 0.950 . S
C514 C500 1.377 . S
C514 C513 1.373 . S
C515 C499 1.377 . S
C515 C513 1.389 . S
C515 C516 1.524 . S
C516 C515 1.524 . S
C516 C517 1.397 . S
C516 C521 1.363 . S
C517 H488 0.950 . S
C517 C516 1.397 . S
C517 C518 1.334 . S
C518 H489 0.950 . S
C518 C517 1.334 . S
C518 C519 1.287 . S
C519 C518 1.287 . S
C519 C520 1.524 . S
C519 H522 0.999 . S
C520 H490 0.950 . S
C520 C519 1.524 . S
C520 C521 1.415 . S
C521 H491 0.950 . S
C521 C516 1.363 . S
C521 C520 1.415 . S
H522 C519 0.999 . S
H523 C504 0.913 . S
H524 C542 0.951 . S
H525 C544 0.951 . S
H526 C546 0.950 . S
H527 C547 0.950 . S
H528 C549 0.950 . S
H529 C552 0.950 . S
H530 C553 0.950 . S
H531 C555 0.950 . S
H532 C556 0.950 . S
H533 C557 0.951 . S
H534 C559 0.951 . S
H535 C561 0.950 . S
H536 C562 0.950 . S
H537 C564 0.950 . S
H538 C567 0.950 . S
H539 C568 0.950 . S
H540 C570 0.950 . S
H541 C571 0.950 . S
C542 H524 0.951 . S
C542 C543 1.366 . S
C542 C544 1.388 . S
C543 C542 1.366 . S
C543 C547 1.385 . S
C544 H525 0.951 . S
C544 C542 1.388 . S
C544 C545 1.366 . S
C545 C544 1.366 . S
C545 C546 1.414 . S
C545 C548 1.499 . S
C546 H526 0.950 . S
C546 C545 1.414 . S
C546 C547 1.374 . S
C547 H527 0.950 . S
C547 C543 1.385 . S
C547 C546 1.374 . S
C548 C545 1.499 . S
C548 C549 1.373 . S
C548 C550 1.389 . S
C549 H528 0.950 . S
C549 C548 1.373 . S
C549 C565 1.377 . S
C550 C548 1.389 . S
C550 C551 1.524 . S
C550 C564 1.377 . S
C551 C550 1.524 . S
C551 C552 1.397 . S
C551 C556 1.363 . S
C552 H529 0.950 . S
C552 C551 1.397 . S
C552 C553 1.334 . S
C553 H530 0.950 . S
C553 C552 1.334 . S
C553 C554 1.287 . S
C554 C553 1.287 . S
C554 C555 1.524 . S
C554 H573 0.913 . S
C555 H531 0.950 . S
C555 C554 1.524 . S
C555 C556 1.415 . S
C556 H532 0.950 . S
C556 C551 1.363 . S
C556 C555 1.415 . S
C557 H533 0.951 . S
C557 C558 1.366 . S
C557 C559 1.388 . S
C558 C557 1.366 . S
C558 C562 1.385 . S
C559 H534 0.951 . S
C559 C557 1.388 . S
C559 C560 1.366 . S
C560 C559 1.366 . S
C560 C561 1.414 . S
C560 C563 1.499 . S
C561 H535 0.950 . S
C561 C560 1.414 . S
C561 C562 1.374 . S
C562 H536 0.950 . S
C562 C558 1.385 . S
C562 C561 1.374 . S
C563 C560 1.499 . S
C563 C564 1.373 . S
C563 C565 1.389 . S
C564 H537 0.950 . S
C564 C550 1.377 . S
C564 C563 1.373 . S
C565 C549 1.377 . S
C565 C563 1.389 . S
C565 C566 1.524 . S
C566 C565 1.524 . S
C566 C567 1.397 . S
C566 C571 1.363 . S
C567 H538 0.950 . S
C567 C566 1.397 . S
C567 C568 1.334 . S
C568 H539 0.950 . S
C568 C567 1.334 . S
C568 C569 1.287 . S
C569 C568 1.287 . S
C569 C570 1.524 . S
C569 H572 0.999 . S
C570 H540 0.950 . S
C570 C569 1.524 . S
C570 C571 1.415 . S
C571 H541 0.950 . S
C571 C566 1.363 . S
C571 C570 1.415 . S
H572 C569 0.999 . S
H573 C554 0.913 . S
H574 C592 0.951 . S
H575 C594 0.951 . S
H576 C596 0.950 . S
H577 C597 0.950 . S
H578 C599 0.950 . S
H579 C602 0.950 . S
H580 C603 0.950 . S
H581 C605 0.950 . S
H582 C606 0.950 . S
H583 C607 0.951 . S
H584 C609 0.951 . S
H585 C611 0.950 . S
H586 C612 0.950 . S
H587 C614 0.950 . S
H588 C617 0.950 . S
H589 C618 0.950 . S
H590 C620 0.950 . S
H591 C621 0.950 . S
C592 H574 0.951 . S
C592 C593 1.366 . S
C592 C594 1.388 . S
C593 C592 1.366 . S
C593 C597 1.385 . S
C594 H575 0.951 . S
C594 C592 1.388 . S
C594 C595 1.366 . S
C595 C594 1.366 . S
C595 C596 1.414 . S
C595 C598 1.499 . S
C596 H576 0.950 . S
C596 C595 1.414 . S
C596 C597 1.374 . S
C597 H577 0.950 . S
C597 C593 1.385 . S
C597 C596 1.374 . S
C598 C595 1.499 . S
C598 C599 1.373 . S
C598 C600 1.389 . S
C599 H578 0.950 . S
C599 C598 1.373 . S
C599 C615 1.377 . S
C600 C598 1.389 . S
C600 C601 1.524 . S
C600 C614 1.377 . S
C601 C600 1.524 . S
C601 C602 1.397 . S
C601 C606 1.363 . S
C602 H579 0.950 . S
C602 C601 1.397 . S
C602 C603 1.334 . S
C603 H580 0.950 . S
C603 C602 1.334 . S
C603 C604 1.287 . S
C604 C603 1.287 . S
C604 C605 1.524 . S
C604 H623 0.913 . S
C605 H581 0.950 . S
C605 C604 1.524 . S
C605 C606 1.415 . S
C606 H582 0.950 . S
C606 C601 1.363 . S
C606 C605 1.415 . S
C607 H583 0.951 . S
C607 C608 1.366 . S
C607 C609 1.388 . S
C608 C607 1.366 . S
C608 C612 1.385 . S
C609 H584 0.951 . S
C609 C607 1.388 . S
C609 C610 1.366 . S
C610 C609 1.366 . S
C610 C611 1.414 . S
C610 C613 1.499 . S
C611 H585 0.950 . S
C611 C610 1.414 . S
C611 C612 1.374 . S
C612 H586 0.950 . S
C612 C608 1.385 . S
C612 C611 1.374 . S
C613 C610 1.499 . S
C613 C614 1.373 . S
C613 C615 1.389 . S
C614 H587 0.950 . S
C614 C600 1.377 . S
C614 C613 1.373 . S
C615 C599 1.377 . S
C615 C613 1.389 . S
C615 C616 1.524 . S
C616 C615 1.524 . S
C616 C617 1.397 . S
C616 C621 1.363 . S
C617 H588 0.950 . S
C617 C616 1.397 . S
C617 C618 1.334 . S
C618 H589 0.950 . S
C618 C617 1.334 . S
C618 C619 1.287 . S
C619 C618 1.287 . S
C619 C620 1.524 . S
C619 H622 0.999 . S
C620 H590 0.950 . S
C620 C619 1.524 . S
C620 C621 1.415 . S
C621 H591 0.950 . S
C621 C616 1.363 . S
C621 C620 1.415 . S
H622 C619 0.999 . S
H623 C604 0.913 . S
H624 C642 0.951 . S
H625 C644 0.951 . S
H626 C646 0.950 . S
H627 C647 0.950 . S
H628 C649 0.950 . S
H629 C652 0.950 . S
H630 C653 0.950 . S
H631 C655 0.950 . S
H632 C656 0.950 . S
H633 C657 0.951 . S
H634 C659 0.951 . S
H635 C661 0.950 . S
H636 C662 0.950 . S
H637 C664 0.950 . S
H638 C667 0.950 . S
H639 C668 0.950 . S
H640 C670 0.950 . S
H641 C671 0.950 . S
C642 H624 0.951 . S
C642 C643 1.366 . S
C642 C644 1.388 . S
C643 C642 1.366 . S
C643 C647 1.385 . S
C644 H625 0.951 . S
C644 C642 1.388 . S
C644 C645 1.366 . S
C645 C644 1.366 . S
C645 C646 1.414 . S
C645 C648 1.499 . S
C646 H626 0.950 . S
C646 C645 1.414 . S
C646 C647 1.374 . S
C647 H627 0.950 . S
C647 C643 1.385 . S
C647 C646 1.374 . S
C648 C645 1.499 . S
C648 C649 1.373 . S
C648 C650 1.389 . S
C649 H628 0.950 . S
C649 C648 1.373 . S
C649 C665 1.377 . S
C650 C648 1.389 . S
C650 C651 1.524 . S
C650 C664 1.377 . S
C651 C650 1.524 . S
C651 C652 1.397 . S
C651 C656 1.363 . S
C652 H629 0.950 . S
C652 C651 1.397 . S
C652 C653 1.334 . S
C653 H630 0.950 . S
C653 C652 1.334 . S
C653 C654 1.287 . S
C654 C653 1.287 . S
C654 C655 1.524 . S
C654 H673 0.913 . S
C655 H631 0.950 . S
C655 C654 1.524 . S
C655 C656 1.415 . S
C656 H632 0.950 . S
C656 C651 1.363 . S
C656 C655 1.415 . S
C657 H633 0.951 . S
C657 C658 1.366 . S
C657 C659 1.388 . S
C658 C657 1.366 . S
C658 C662 1.385 . S
C659 H634 0.951 . S
C659 C657 1.388 . S
C659 C660 1.366 . S
C660 C659 1.366 . S
C660 C661 1.414 . S
C660 C663 1.499 . S
C661 H635 0.950 . S
C661 C660 1.414 . S
C661 C662 1.374 . S
C662 H636 0.950 . S
C662 C658 1.385 . S
C662 C661 1.374 . S
C663 C660 1.499 . S
C663 C664 1.373 . S
C663 C665 1.389 . S
C664 H637 0.950 . S
C664 C650 1.377 . S
C664 C663 1.373 . S
C665 C649 1.377 . S
C665 C663 1.389 . S
C665 C666 1.524 . S
C666 C665 1.524 . S
C666 C667 1.397 . S
C666 C671 1.363 . S
C667 H638 0.950 . S
C667 C666 1.397 . S
C667 C668 1.334 . S
C668 H639 0.950 . S
C668 C667 1.334 . S
C668 C669 1.287 . S
C669 C668 1.287 . S
C669 C670 1.524 . S
C669 H672 0.999 . S
C670 H640 0.950 . S
C670 C669 1.524 . S
C670 C671 1.415 . S
C671 H641 0.950 . S
C671 C666 1.363 . S
C671 C670 1.415 . S
H672 C669 0.999 . S
H673 C654 0.913 . S
H674 C692 0.951 . S
H675 C694 0.951 . S
H676 C696 0.950 . S
H677 C697 0.950 . S
H678 C699 0.950 . S
H679 C702 0.950 . S
H680 C703 0.950 . S
H681 C705 0.950 . S
H682 C706 0.950 . S
H683 C707 0.951 . S
H684 C709 0.951 . S
H685 C711 0.950 . S
H686 C712 0.950 . S
H687 C714 0.950 . S
H688 C717 0.950 . S
H689 C718 0.950 . S
H690 C720 0.950 . S
H691 C721 0.950 . S
C692 H674 0.951 . S
C692 C693 1.366 . S
C692 C694 1.388 . S
C693 C692 1.366 . S
C693 C697 1.385 . S
C694 H675 0.951 . S
C694 C692 1.388 . S
C694 C695 1.366 . S
C695 C694 1.366 . S
C695 C696 1.414 . S
C695 C698 1.499 . S
C696 H676 0.950 . S
C696 C695 1.414 . S
C696 C697 1.374 . S
C697 H677 0.950 . S
C697 C693 1.385 . S
C697 C696 1.374 . S
C698 C695 1.499 . S
C698 C699 1.373 . S
C698 C700 1.389 . S
C699 H678 0.950 . S
C699 C698 1.373 . S
C699 C715 1.377 . S
C700 C698 1.389 . S
C700 C701 1.524 . S
C700 C714 1.377 . S
C701 C700 1.524 . S
C701 C702 1.397 . S
C701 C706 1.363 . S
C702 H679 0.950 . S
C702 C701 1.397 . S
C702 C703 1.334 . S
C703 H680 0.950 . S
C703 C702 1.334 . S
C703 C704 1.287 . S
C704 C703 1.287 . S
C704 C705 1.524 . S
C704 H723 0.913 . S
C705 H681 0.950 . S
C705 C704 1.524 . S
C705 C706 1.415 . S
C706 H682 0.950 . S
C706 C701 1.363 . S
C706 C705 1.415 . S
C707 H683 0.951 . S
C707 C708 1.366 . S
C707 C709 1.388 . S
C708 C707 1.366 . S
C708 C712 1.385 . S
C709 H684 0.951 . S
C709 C707 1.388 . S
C709 C710 1.366 . S
C710 C709 1.366 . S
C710 C711 1.414 . S
C710 C713 1.499 . S
C711 H685 0.950 . S
C711 C710 1.414 . S
C711 C712 1.374 . S
C712 H686 0.950 . S
C712 C708 1.385 . S
C712 C711 1.374 . S
C713 C710 1.499 . S
C713 C714 1.373 . S
C713 C715 1.389 . S
C714 H687 0.950 . S
C714 C700 1.377 . S
C714 C713 1.373 . S
C715 C699 1.377 . S
C715 C713 1.389 . S
C715 C716 1.524 . S
C716 C715 1.524 . S
C716 C717 1.397 . S
C716 C721 1.363 . S
C717 H688 0.950 . S
C717 C716 1.397 . S
C717 C718 1.334 . S
C718 H689 0.950 . S
C718 C717 1.334 . S
C718 C719 1.287 . S
C719 C718 1.287 . S
C719 C720 1.524 . S
C719 H722 0.999 . S
C720 H690 0.950 . S
C720 C719 1.524 . S
C720 C721 1.415 . S
C721 H691 0.950 . S
C721 C716 1.363 . S
C721 C720 1.415 . S
H722 C719 0.999 . S
H723 C704 0.913 . S
H724 C742 0.951 . S
H725 C744 0.951 . S
H726 C746 0.950 . S
H727 C747 0.950 . S
H728 C749 0.950 . S
H729 C752 0.950 . S
H730 C753 0.950 . S
H731 C755 0.950 . S
H732 C756 0.950 . S
H733 C757 0.951 . S
H734 C759 0.951 . S
H735 C761 0.950 . S
H736 C762 0.950 . S
H737 C764 0.950 . S
H738 C767 0.950 . S
H739 C768 0.950 . S
H740 C770 0.950 . S
H741 C771 0.950 . S
C742 H724 0.951 . S
C742 C743 1.366 . S
C742 C744 1.388 . S
C743 C742 1.366 . S
C743 C747 1.385 . S
C744 H725 0.951 . S
C744 C742 1.388 . S
C744 C745 1.366 . S
C745 C744 1.366 . S
C745 C746 1.414 . S
C745 C748 1.499 . S
C746 H726 0.950 . S
C746 C745 1.414 . S
C746 C747 1.374 . S
C747 H727 0.950 . S
C747 C743 1.385 . S
C747 C746 1.374 . S
C748 C745 1.499 . S
C748 C749 1.373 . S
C748 C750 1.389 . S
C749 H728 0.950 . S
C749 C748 1.373 . S
C749 C765 1.377 . S
C750 C748 1.389 . S
C750 C751 1.524 . S
C750 C764 1.377 . S
C751 C750 1.524 . S
C751 C752 1.397 . S
C751 C756 1.363 . S
C752 H729 0.950 . S
C752 C751 1.397 . S
C752 C753 1.334 . S
C753 H730 0.950 . S
C753 C752 1.334 . S
C753 C754 1.287 . S
C754 C753 1.287 . S
C754 C755 1.524 . S
C754 H773 0.913 . S
C755 H731 0.950 . S
C755 C754 1.524 . S
C755 C756 1.415 . S
C756 H732 0.950 . S
C756 C751 1.363 . S
C756 C755 1.415 . S
C757 H733 0.951 . S
C757 C758 1.366 . S
C757 C759 1.388 . S
C758 C757 1.366 . S
C758 C762 1.385 . S
C759 H734 0.951 . S
C759 C757 1.388 . S
C759 C760 1.366 . S
C760 C759 1.366 . S
C760 C761 1.414 . S
C760 C763 1.499 . S
C761 H735 0.950 . S
C761 C760 1.414 . S
C761 C762 1.374 . S
C762 H736 0.950 . S
C762 C758 1.385 . S
C762 C761 1.374 . S
C763 C760 1.499 . S
C763 C764 1.373 . S
C763 C765 1.389 . S
C764 H737 0.950 . S
C764 C750 1.377 . S
C764 C763 1.373 . S
C765 C749 1.377 . S
C765 C763 1.389 . S
C765 C766 1.524 . S
C766 C765 1.524 . S
C766 C767 1.397 . S
C766 C771 1.363 . S
C767 H738 0.950 . S
C767 C766 1.397 . S
C767 C768 1.334 . S
C768 H739 0.950 . S
C768 C767 1.334 . S
C768 C769 1.287 . S
C769 C768 1.287 . S
C769 C770 1.524 . S
C769 H772 0.999 . S
C770 H740 0.950 . S
C770 C769 1.524 . S
C770 C771 1.415 . S
C771 H741 0.950 . S
C771 C766 1.363 . S
C771 C770 1.415 . S
H772 C769 0.999 . S
H773 C754 0.913 . S
H774 C792 0.951 . S
H775 C794 0.951 . S
H776 C796 0.950 . S
H777 C797 0.950 . S
H778 C799 0.950 . S
H779 C802 0.950 . S
H780 C803 0.950 . S
H781 C805 0.950 . S
H782 C806 0.950 1_556 S
H783 C807 0.951 . S
H784 C809 0.951 . S
H785 C811 0.950 . S
H786 C812 0.950 . S
H787 C814 0.950 . S
H788 C817 0.950 . S
H789 C818 0.950 . S
H790 C820 0.950 . S
H791 C821 0.950 1_554 S
C792 H774 0.951 . S
C792 C793 1.366 . S
C792 C794 1.388 . S
C793 C792 1.366 . S
C793 C797 1.385 . S
C794 H775 0.951 . S
C794 C792 1.388 . S
C794 C795 1.366 . S
C795 C794 1.366 . S
C795 C796 1.414 . S
C795 C798 1.499 . S
C796 H776 0.950 . S
C796 C795 1.414 . S
C796 C797 1.374 . S
C797 H777 0.950 . S
C797 C793 1.385 . S
C797 C796 1.374 . S
C798 C795 1.499 . S
C798 C799 1.373 . S
C798 C800 1.389 . S
C799 H778 0.950 . S
C799 C798 1.373 . S
C799 C815 1.377 1_554 S
C800 C798 1.389 . S
C800 C801 1.524 . S
C800 C814 1.377 1_554 S
C801 C800 1.524 . S
C801 C802 1.397 . S
C801 C806 1.363 . S
C802 H779 0.950 . S
C802 C801 1.397 . S
C802 C803 1.334 . S
C803 H780 0.950 . S
C803 C802 1.334 . S
C803 C804 1.287 . S
C804 C803 1.287 . S
C804 C805 1.524 . S
C804 H823 0.913 . S
C805 H781 0.950 . S
C805 C804 1.524 . S
C805 C806 1.415 . S
C806 H782 0.950 1_554 S
C806 C801 1.363 . S
C806 C805 1.415 . S
C807 H783 0.951 . S
C807 C808 1.366 . S
C807 C809 1.388 . S
C808 C807 1.366 . S
C808 C812 1.385 . S
C809 H784 0.951 . S
C809 C807 1.388 . S
C809 C810 1.366 . S
C810 C809 1.366 . S
C810 C811 1.414 . S
C810 C813 1.499 . S
C811 H785 0.950 . S
C811 C810 1.414 . S
C811 C812 1.374 . S
C812 H786 0.950 . S
C812 C808 1.385 . S
C812 C811 1.374 . S
C813 C810 1.499 . S
C813 C814 1.373 . S
C813 C815 1.389 . S
C814 H787 0.950 . S
C814 C800 1.377 1_556 S
C814 C813 1.373 . S
C815 C799 1.377 1_556 S
C815 C813 1.389 . S
C815 C816 1.524 . S
C816 C815 1.524 . S
C816 C817 1.397 . S
C816 C821 1.363 . S
C817 H788 0.950 . S
C817 C816 1.397 . S
C817 C818 1.334 . S
C818 H789 0.950 . S
C818 C817 1.334 . S
C818 C819 1.287 . S
C819 C818 1.287 . S
C819 C820 1.524 . S
C819 H822 0.999 . S
C820 H790 0.950 . S
C820 C819 1.524 . S
C820 C821 1.415 . S
C821 H791 0.950 1_556 S
C821 C816 1.363 . S
C821 C820 1.415 . S
H822 C819 0.999 . S
H823 C804 0.913 . S
H824 C842 0.951 . S
H825 C844 0.951 . S
H826 C846 0.950 . S
H827 C847 0.950 . S
H828 C849 0.950 . S
H829 C852 0.950 . S
H830 C853 0.950 . S
H831 C855 0.950 . S
H832 C856 0.950 1_556 S
H833 C857 0.951 . S
H834 C859 0.951 . S
H835 C861 0.950 . S
H836 C862 0.950 . S
H837 C864 0.950 . S
H838 C867 0.950 . S
H839 C868 0.950 . S
H840 C870 0.950 . S
H841 C871 0.950 1_554 S
C842 H824 0.951 . S
C842 C843 1.366 . S
C842 C844 1.388 . S
C843 C842 1.366 . S
C843 C847 1.385 . S
C844 H825 0.951 . S
C844 C842 1.388 . S
C844 C845 1.366 . S
C845 C844 1.366 . S
C845 C846 1.414 . S
C845 C848 1.499 . S
C846 H826 0.950 . S
C846 C845 1.414 . S
C846 C847 1.374 . S
C847 H827 0.950 . S
C847 C843 1.385 . S
C847 C846 1.374 . S
C848 C845 1.499 . S
C848 C849 1.373 . S
C848 C850 1.389 . S
C849 H828 0.950 . S
C849 C848 1.373 . S
C849 C865 1.377 1_554 S
C850 C848 1.389 . S
C850 C851 1.524 . S
C850 C864 1.377 1_554 S
C851 C850 1.524 . S
C851 C852 1.397 . S
C851 C856 1.363 . S
C852 H829 0.950 . S
C852 C851 1.397 . S
C852 C853 1.334 . S
C853 H830 0.950 . S
C853 C852 1.334 . S
C853 C854 1.287 . S
C854 C853 1.287 . S
C854 C855 1.524 . S
C854 H873 0.913 . S
C855 H831 0.950 . S
C855 C854 1.524 . S
C855 C856 1.415 . S
C856 H832 0.950 1_554 S
C856 C851 1.363 . S
C856 C855 1.415 . S
C857 H833 0.951 . S
C857 C858 1.366 . S
C857 C859 1.388 . S
C858 C857 1.366 . S
C858 C862 1.385 . S
C859 H834 0.951 . S
C859 C857 1.388 . S
C859 C860 1.366 . S
C860 C859 1.366 . S
C860 C861 1.414 . S
C860 C863 1.499 . S
C861 H835 0.950 . S
C861 C860 1.414 . S
C861 C862 1.374 . S
C862 H836 0.950 . S
C862 C858 1.385 . S
C862 C861 1.374 . S
C863 C860 1.499 . S
C863 C864 1.373 . S
C863 C865 1.389 . S
C864 H837 0.950 . S
C864 C850 1.377 1_556 S
C864 C863 1.373 . S
C865 C849 1.377 1_556 S
C865 C863 1.389 . S
C865 C866 1.524 . S
C866 C865 1.524 . S
C866 C867 1.397 . S
C866 C871 1.363 . S
C867 H838 0.950 . S
C867 C866 1.397 . S
C867 C868 1.334 . S
C868 H839 0.950 . S
C868 C867 1.334 . S
C868 C869 1.287 . S
C869 C868 1.287 . S
C869 C870 1.524 . S
C869 H872 0.999 . S
C870 H840 0.950 . S
C870 C869 1.524 . S
C870 C871 1.415 . S
C871 H841 0.950 1_556 S
C871 C866 1.363 . S
C871 C870 1.415 . S
H872 C869 0.999 . S
H873 C854 0.913 . S
H874 C892 0.951 . S
H875 C894 0.951 . S
H876 C896 0.950 . S
H877 C897 0.950 . S
H878 C899 0.950 . S
H879 C902 0.950 . S
H880 C903 0.950 . S
H881 C905 0.950 . S
H882 C906 0.950 . S
H883 C907 0.951 . S
H884 C909 0.951 . S
H885 C911 0.950 . S
H886 C912 0.950 . S
H887 C914 0.950 . S
H888 C917 0.950 . S
H889 C918 0.950 . S
H890 C920 0.950 . S
H891 C921 0.950 . S
C892 H874 0.951 . S
C892 C893 1.366 . S
C892 C894 1.388 . S
C893 C892 1.366 . S
C893 C897 1.385 . S
C894 H875 0.951 . S
C894 C892 1.388 . S
C894 C895 1.366 . S
C895 C894 1.366 . S
C895 C896 1.414 . S
C895 C898 1.499 . S
C896 H876 0.950 . S
C896 C895 1.414 . S
C896 C897 1.374 . S
C897 H877 0.950 . S
C897 C893 1.385 . S
C897 C896 1.374 . S
C898 C895 1.499 . S
C898 C899 1.373 . S
C898 C900 1.389 . S
C899 H878 0.950 . S
C899 C898 1.373 . S
C899 C915 1.377 . S
C900 C898 1.389 . S
C900 C901 1.524 . S
C900 C914 1.377 . S
C901 C900 1.524 . S
C901 C902 1.397 . S
C901 C906 1.363 . S
C902 H879 0.950 . S
C902 C901 1.397 . S
C902 C903 1.334 . S
C903 H880 0.950 . S
C903 C902 1.334 . S
C903 C904 1.287 . S
C904 C903 1.287 . S
C904 C905 1.524 . S
C904 H923 0.913 . S
C905 H881 0.950 . S
C905 C904 1.524 . S
C905 C906 1.415 . S
C906 H882 0.950 . S
C906 C901 1.363 . S
C906 C905 1.415 . S
C907 H883 0.951 . S
C907 C908 1.366 . S
C907 C909 1.388 . S
C908 C907 1.366 . S
C908 C912 1.385 . S
C909 H884 0.951 . S
C909 C907 1.388 . S
C909 C910 1.366 . S
C910 C909 1.366 . S
C910 C911 1.414 . S
C910 C913 1.499 . S
C911 H885 0.950 . S
C911 C910 1.414 . S
C911 C912 1.374 . S
C912 H886 0.950 . S
C912 C908 1.385 . S
C912 C911 1.374 . S
C913 C910 1.499 . S
C913 C914 1.373 . S
C913 C915 1.389 . S
C914 H887 0.950 . S
C914 C900 1.377 . S
C914 C913 1.373 . S
C915 C899 1.377 . S
C915 C913 1.389 . S
C915 C916 1.524 . S
C916 C915 1.524 . S
C916 C917 1.397 . S
C916 C921 1.363 . S
C917 H888 0.950 . S
C917 C916 1.397 . S
C917 C918 1.334 . S
C918 H889 0.950 . S
C918 C917 1.334 . S
C918 C919 1.287 . S
C919 C918 1.287 . S
C919 C920 1.524 . S
C919 H922 0.999 . S
C920 H890 0.950 . S
C920 C919 1.524 . S
C920 C921 1.415 . S
C921 H891 0.950 . S
C921 C916 1.363 . S
C921 C920 1.415 . S
H922 C919 0.999 . S
H923 C904 0.913 . S
H924 C942 0.951 . S
H925 C944 0.951 . S
H926 C946 0.950 . S
H927 C947 0.950 . S
H928 C949 0.950 . S
H929 C952 0.950 . S
H930 C953 0.950 . S
H931 C955 0.950 . S
H932 C956 0.950 . S
H933 C957 0.951 . S
H934 C959 0.951 . S
H935 C961 0.950 . S
H936 C962 0.950 . S
H937 C964 0.950 . S
H938 C967 0.950 . S
H939 C968 0.950 . S
H940 C970 0.950 . S
H941 C971 0.950 . S
C942 H924 0.951 . S
C942 C943 1.366 . S
C942 C944 1.388 . S
C943 C942 1.366 . S
C943 C947 1.385 . S
C944 H925 0.951 . S
C944 C942 1.388 . S
C944 C945 1.366 . S
C945 C944 1.366 . S
C945 C946 1.414 . S
C945 C948 1.499 . S
C946 H926 0.950 . S
C946 C945 1.414 . S
C946 C947 1.374 . S
C947 H927 0.950 . S
C947 C943 1.385 . S
C947 C946 1.374 . S
C948 C945 1.499 . S
C948 C949 1.373 . S
C948 C950 1.389 . S
C949 H928 0.950 . S
C949 C948 1.373 . S
C949 C965 1.377 . S
C950 C948 1.389 . S
C950 C951 1.524 . S
C950 C964 1.377 . S
C951 C950 1.524 . S
C951 C952 1.397 . S
C951 C956 1.363 . S
C952 H929 0.950 . S
C952 C951 1.397 . S
C952 C953 1.334 . S
C953 H930 0.950 . S
C953 C952 1.334 . S
C953 C954 1.287 . S
C954 C953 1.287 . S
C954 C955 1.524 . S
C954 H973 0.913 . S
C955 H931 0.950 . S
C955 C954 1.524 . S
C955 C956 1.415 . S
C956 H932 0.950 . S
C956 C951 1.363 . S
C956 C955 1.415 . S
C957 H933 0.951 . S
C957 C958 1.366 . S
C957 C959 1.388 . S
C958 C957 1.366 . S
C958 C962 1.385 . S
C959 H934 0.951 . S
C959 C957 1.388 . S
C959 C960 1.366 . S
C960 C959 1.366 . S
C960 C961 1.414 . S
C960 C963 1.499 . S
C961 H935 0.950 . S
C961 C960 1.414 . S
C961 C962 1.374 . S
C962 H936 0.950 . S
C962 C958 1.385 . S
C962 C961 1.374 . S
C963 C960 1.499 . S
C963 C964 1.373 . S
C963 C965 1.389 . S
C964 H937 0.950 . S
C964 C950 1.377 . S
C964 C963 1.373 . S
C965 C949 1.377 . S
C965 C963 1.389 . S
C965 C966 1.524 . S
C966 C965 1.524 . S
C966 C967 1.397 . S
C966 C971 1.363 . S
C967 H938 0.950 . S
C967 C966 1.397 . S
C967 C968 1.334 . S
C968 H939 0.950 . S
C968 C967 1.334 . S
C968 C969 1.287 . S
C969 C968 1.287 . S
C969 C970 1.524 . S
C969 H972 0.999 . S
C970 H940 0.950 . S
C970 C969 1.524 . S
C970 C971 1.415 . S
C971 H941 0.950 . S
C971 C966 1.363 . S
C971 C970 1.415 . S
H972 C969 0.999 . S
H973 C954 0.913 . S
H974 C992 0.951 . S
H975 C994 0.951 . S
H976 C996 0.950 . S
H977 C997 0.950 . S
H978 C999 0.950 . S
H979 C1002 0.950 . S
H980 C1003 0.950 . S
H981 C1005 0.950 . S
H982 C1006 0.950 . S
H983 C1007 0.951 . S
H984 C1009 0.951 . S
H985 C1011 0.950 . S
H986 C1012 0.950 . S
H987 C1014 0.950 . S
H988 C1017 0.950 . S
H989 C1018 0.950 . S
H990 C1020 0.950 . S
H991 C1021 0.950 . S
C992 H974 0.951 . S
C992 C993 1.366 . S
C992 C994 1.388 . S
C993 C992 1.366 . S
C993 C997 1.385 . S
C994 H975 0.951 . S
C994 C992 1.388 . S
C994 C995 1.366 . S
C995 C994 1.366 . S
C995 C996 1.414 . S
C995 C998 1.499 . S
C996 H976 0.950 . S
C996 C995 1.414 . S
C996 C997 1.374 . S
C997 H977 0.950 . S
C997 C993 1.385 . S
C997 C996 1.374 . S
C998 C995 1.499 . S
C998 C999 1.373 . S
C998 C1000 1.389 . S
C999 H978 0.950 . S
C999 C998 1.373 . S
C999 C1015 1.377 . S
C1000 C998 1.389 . S
C1000 C1001 1.524 . S
C1000 C1014 1.377 . S
C1001 C1000 1.524 . S
C1001 C1002 1.397 . S
C1001 C1006 1.363 . S
C1002 H979 0.950 . S
C1002 C1001 1.397 . S
C1002 C1003 1.334 . S
C1003 H980 0.950 . S
C1003 C1002 1.334 . S
C1003 C1004 1.287 . S
C1004 C1003 1.287 . S
C1004 C1005 1.524 . S
C1004 H1023 0.913 . S
C1005 H981 0.950 . S
C1005 C1004 1.524 . S
C1005 C1006 1.415 . S
C1006 H982 0.950 . S
C1006 C1001 1.363 . S
C1006 C1005 1.415 . S
C1007 H983 0.951 . S
C1007 C1008 1.366 . S
C1007 C1009 1.388 . S
C1008 C1007 1.366 . S
C1008 C1012 1.385 . S
C1009 H984 0.951 . S
C1009 C1007 1.388 . S
C1009 C1010 1.366 . S
C1010 C1009 1.366 . S
C1010 C1011 1.414 . S
C1010 C1013 1.499 . S
C1011 H985 0.950 . S
C1011 C1010 1.414 . S
C1011 C1012 1.374 . S
C1012 H986 0.950 . S
C1012 C1008 1.385 . S
C1012 C1011 1.374 . S
C1013 C1010 1.499 . S
C1013 C1014 1.373 . S
C1013 C1015 1.389 . S
C1014 H987 0.950 . S
C1014 C1000 1.377 . S
C1014 C1013 1.373 . S
C1015 C999 1.377 . S
C1015 C1013 1.389 . S
C1015 C1016 1.524 . S
C1016 C1015 1.524 . S
C1016 C1017 1.397 . S
C1016 C1021 1.363 . S
C1017 H988 0.950 . S
C1017 C1016 1.397 . S
C1017 C1018 1.334 . S
C1018 H989 0.950 . S
C1018 C1017 1.334 . S
C1018 C1019 1.287 . S
C1019 C1018 1.287 . S
C1019 C1020 1.524 . S
C1019 H1022 0.999 . S
C1020 H990 0.950 . S
C1020 C1019 1.524 . S
C1020 C1021 1.415 . S
C1021 H991 0.950 . S
C1021 C1016 1.363 . S
C1021 C1020 1.415 . S
H1022 C1019 0.999 . S
H1023 C1004 0.913 . S
H1024 C1042 0.951 . S
H1025 C1044 0.951 . S
H1026 C1046 0.950 1_565 S
H1027 C1047 0.950 . S
H1028 C1049 0.950 . S
H1029 C1052 0.950 . S
H1030 C1053 0.950 . S
H1031 C1055 0.941 1_655 S
H1032 C1056 0.950 . S
H1033 C1057 0.951 . S
H1034 C1059 0.951 . S
H1035 C1061 0.950 1_545 S
H1036 C1062 0.950 . S
H1037 C1064 0.950 . S
H1038 C1067 0.950 . S
H1039 C1068 0.950 . S
H1040 C1070 0.941 1_455 S
H1041 C1071 0.950 . S
C1042 H1024 0.951 . S
C1042 C1043 1.366 . S
C1042 C1044 1.388 . S
C1043 C1042 1.366 . S
C1043 C1047 1.385 . S
C1044 H1025 0.951 . S
C1044 C1042 1.388 . S
C1044 C1045 1.366 . S
C1045 C1044 1.366 . S
C1045 C1046 1.414 . S
C1045 C1048 1.499 . S
C1046 H1026 0.950 1_545 S
C1046 C1045 1.414 . S
C1046 C1047 1.374 . S
C1047 H1027 0.950 . S
C1047 C1043 1.385 . S
C1047 C1046 1.374 . S
C1048 C1045 1.499 . S
C1048 C1049 1.373 1_545 S
C1048 C1050 1.389 . S
C1049 H1028 0.950 . S
C1049 C1048 1.373 1_565 S
C1049 C1065 1.377 1_455 S
C1050 C1048 1.389 . S
C1050 C1051 1.524 . S
C1050 C1064 1.377 1_455 S
C1051 C1050 1.524 . S
C1051 C1052 1.397 . S
C1051 C1056 1.363 1_455 S
C1052 H1029 0.950 . S
C1052 C1051 1.397 . S
C1052 C1053 1.334 . S
C1053 H1030 0.950 . S
C1053 C1052 1.334 . S
C1053 C1054 1.287 . S
C1054 C1053 1.287 . S
C1054 C1055 1.536 . S
C1054 H1073 0.913 . S
C1055 H1031 0.941 1_455 S
C1055 C1054 1.536 . S
C1055 C1056 1.412 1_455 S
C1056 H1032 0.950 . S
C1056 C1051 1.363 1_655 S
C1056 C1055 1.412 1_655 S
C1057 H1033 0.951 . S
C1057 C1058 1.366 . S
C1057 C1059 1.388 . S
C1058 C1057 1.366 . S
C1058 C1062 1.385 . S
C1059 H1034 0.951 . S
C1059 C1057 1.388 . S
C1059 C1060 1.366 . S
C1060 C1059 1.366 . S
C1060 C1061 1.414 . S
C1060 C1063 1.499 . S
C1061 H1035 0.950 1_565 S
C1061 C1060 1.414 . S
C1061 C1062 1.374 . S
C1062 H1036 0.950 . S
C1062 C1058 1.385 . S
C1062 C1061 1.374 . S
C1063 C1060 1.499 . S
C1063 C1064 1.373 1_565 S
C1063 C1065 1.389 . S
C1064 H1037 0.950 . S
C1064 C1050 1.377 1_655 S
C1064 C1063 1.373 1_545 S
C1065 C1049 1.377 1_655 S
C1065 C1063 1.389 . S
C1065 C1066 1.524 . S
C1066 C1065 1.524 . S
C1066 C1067 1.397 . S
C1066 C1071 1.363 1_655 S
C1067 H1038 0.950 . S
C1067 C1066 1.397 . S
C1067 C1068 1.334 . S
C1068 H1039 0.950 . S
C1068 C1067 1.334 . S
C1068 C1069 1.287 . S
C1069 C1068 1.287 . S
C1069 C1070 1.537 . S
C1069 H1072 0.999 . S
C1070 H1040 0.941 1_655 S
C1070 C1069 1.537 . S
C1070 C1071 1.412 1_655 S
C1071 H1041 0.950 . S
C1071 C1066 1.363 1_455 S
C1071 C1070 1.412 1_455 S
H1072 C1069 0.999 . S
H1073 C1054 0.913 . S
H1074 C1092 0.951 . S
H1075 C1094 0.951 . S
H1076 C1096 0.950 . S
H1077 C1097 0.950 . S
H1078 C1099 0.950 . S
H1079 C1102 0.950 . S
H1080 C1103 0.950 . S
H1081 C1105 0.950 . S
H1082 C1106 0.950 . S
H1083 C1107 0.951 . S
H1084 C1109 0.951 . S
H1085 C1111 0.950 . S
H1086 C1112 0.950 . S
H1087 C1114 0.950 . S
H1088 C1117 0.950 . S
H1089 C1118 0.950 . S
H1090 C1120 0.950 . S
H1091 C1121 0.950 . S
C1092 H1074 0.951 . S
C1092 C1093 1.366 . S
C1092 C1094 1.388 . S
C1093 C1092 1.366 . S
C1093 C1097 1.385 . S
C1094 H1075 0.951 . S
C1094 C1092 1.388 . S
C1094 C1095 1.366 . S
C1095 C1094 1.366 . S
C1095 C1096 1.414 . S
C1095 C1098 1.499 . S
C1096 H1076 0.950 . S
C1096 C1095 1.414 . S
C1096 C1097 1.374 . S
C1097 H1077 0.950 . S
C1097 C1093 1.385 . S
C1097 C1096 1.374 . S
C1098 C1095 1.499 . S
C1098 C1099 1.373 1_455 S
C1098 C1100 1.389 . S
C1099 H1078 0.950 . S
C1099 C1098 1.373 1_655 S
C1099 C1115 1.377 . S
C1100 C1098 1.389 . S
C1100 C1101 1.524 . S
C1100 C1114 1.377 . S
C1101 C1100 1.524 . S
C1101 C1102 1.397 . S
C1101 C1106 1.363 . S
C1102 H1079 0.950 . S
C1102 C1101 1.397 . S
C1102 C1103 1.334 . S
C1103 H1080 0.950 . S
C1103 C1102 1.334 . S
C1103 C1104 1.287 . S
C1104 C1103 1.287 . S
C1104 C1105 1.524 . S
C1104 H1123 0.913 . S
C1105 H1081 0.950 . S
C1105 C1104 1.524 . S
C1105 C1106 1.415 . S
C1106 H1082 0.950 . S
C1106 C1101 1.363 . S
C1106 C1105 1.415 . S
C1107 H1083 0.951 . S
C1107 C1108 1.366 . S
C1107 C1109 1.388 . S
C1108 C1107 1.366 . S
C1108 C1112 1.385 . S
C1109 H1084 0.951 . S
C1109 C1107 1.388 . S
C1109 C1110 1.366 . S
C1110 C1109 1.366 . S
C1110 C1111 1.414 . S
C1110 C1113 1.499 . S
C1111 H1085 0.950 . S
C1111 C1110 1.414 . S
C1111 C1112 1.374 . S
C1112 H1086 0.950 . S
C1112 C1108 1.385 . S
C1112 C1111 1.374 . S
C1113 C1110 1.499 . S
C1113 C1114 1.373 1_655 S
C1113 C1115 1.389 . S
C1114 H1087 0.950 . S
C1114 C1100 1.377 . S
C1114 C1113 1.373 1_455 S
C1115 C1099 1.377 . S
C1115 C1113 1.389 . S
C1115 C1116 1.524 . S
C1116 C1115 1.524 . S
C1116 C1117 1.397 . S
C1116 C1121 1.363 . S
C1117 H1088 0.950 . S
C1117 C1116 1.397 . S
C1117 C1118 1.334 . S
C1118 H1089 0.950 . S
C1118 C1117 1.334 . S
C1118 C1119 1.287 . S
C1119 C1118 1.287 . S
C1119 C1120 1.524 . S
C1119 H1122 0.999 . S
C1120 H1090 0.950 . S
C1120 C1119 1.524 . S
C1120 C1121 1.415 . S
C1121 H1091 0.950 . S
C1121 C1116 1.363 . S
C1121 C1120 1.415 . S
H1122 C1119 0.999 . S
H1123 C1104 0.913 . S
H1124 C1142 0.951 . S
H1125 C1144 0.951 . S
H1126 C1146 0.950 . S
H1127 C1147 0.950 . S
H1128 C1149 0.950 . S
H1129 C1152 0.950 . S
H1130 C1153 0.950 . S
H1131 C1155 0.950 . S
H1132 C1156 0.950 . S
H1133 C1157 0.951 . S
H1134 C1159 0.951 . S
H1135 C1161 0.950 . S
H1136 C1162 0.950 . S
H1137 C1164 0.950 . S
H1138 C1167 0.950 . S
H1139 C1168 0.950 . S
H1140 C1170 0.950 . S
H1141 C1171 0.950 . S
C1142 H1124 0.951 . S
C1142 C1143 1.366 . S
C1142 C1144 1.388 . S
C1143 C1142 1.366 . S
C1143 C1147 1.385 . S
C1144 H1125 0.951 . S
C1144 C1142 1.388 . S
C1144 C1145 1.366 . S
C1145 C1144 1.366 . S
C1145 C1146 1.414 . S
C1145 C1148 1.499 . S
C1146 H1126 0.950 . S
C1146 C1145 1.414 . S
C1146 C1147 1.374 . S
C1147 H1127 0.950 . S
C1147 C1143 1.385 . S
C1147 C1146 1.374 . S
C1148 C1145 1.499 . S
C1148 C1149 1.373 . S
C1148 C1150 1.389 . S
C1149 H1128 0.950 . S
C1149 C1148 1.373 . S
C1149 C1165 1.377 . S
C1150 C1148 1.389 . S
C1150 C1151 1.524 . S
C1150 C1164 1.377 . S
C1151 C1150 1.524 . S
C1151 C1152 1.397 . S
C1151 C1156 1.363 . S
C1152 H1129 0.950 . S
C1152 C1151 1.397 . S
C1152 C1153 1.334 . S
C1153 H1130 0.950 . S
C1153 C1152 1.334 . S
C1153 C1154 1.287 . S
C1154 C1153 1.287 . S
C1154 C1155 1.524 . S
C1154 H1173 0.913 . S
C1155 H1131 0.950 . S
C1155 C1154 1.524 . S
C1155 C1156 1.415 . S
C1156 H1132 0.950 . S
C1156 C1151 1.363 . S
C1156 C1155 1.415 . S
C1157 H1133 0.951 . S
C1157 C1158 1.366 . S
C1157 C1159 1.388 . S
C1158 C1157 1.366 . S
C1158 C1162 1.385 . S
C1159 H1134 0.951 . S
C1159 C1157 1.388 . S
C1159 C1160 1.366 . S
C1160 C1159 1.366 . S
C1160 C1161 1.414 . S
C1160 C1163 1.499 . S
C1161 H1135 0.950 . S
C1161 C1160 1.414 . S
C1161 C1162 1.374 . S
C1162 H1136 0.950 . S
C1162 C1158 1.385 . S
C1162 C1161 1.374 . S
C1163 C1160 1.499 . S
C1163 C1164 1.373 . S
C1163 C1165 1.389 . S
C1164 H1137 0.950 . S
C1164 C1150 1.377 . S
C1164 C1163 1.373 . S
C1165 C1149 1.377 . S
C1165 C1163 1.389 . S
C1165 C1166 1.524 . S
C1166 C1165 1.524 . S
C1166 C1167 1.397 . S
C1166 C1171 1.363 . S
C1167 H1138 0.950 . S
C1167 C1166 1.397 . S
C1167 C1168 1.334 . S
C1168 H1139 0.950 . S
C1168 C1167 1.334 . S
C1168 C1169 1.287 . S
C1169 C1168 1.287 . S
C1169 C1170 1.524 . S
C1169 H1172 0.999 . S
C1170 H1140 0.950 . S
C1170 C1169 1.524 . S
C1170 C1171 1.415 . S
C1171 H1141 0.950 . S
C1171 C1166 1.363 . S
C1171 C1170 1.415 . S
H1172 C1169 0.999 . S
H1173 C1154 0.913 . S
H1174 C1192 0.951 . S
H1175 C1194 0.951 . S
H1176 C1196 0.950 . S
H1177 C1197 0.950 . S
H1178 C1199 0.950 . S
H1179 C1202 0.950 . S
H1180 C1203 0.950 . S
H1181 C1205 0.950 . S
H1182 C1206 0.950 . S
H1183 C1207 0.951 . S
H1184 C1209 0.951 . S
H1185 C1211 0.950 . S
H1186 C1212 0.950 . S
H1187 C1214 0.950 . S
H1188 C1217 0.950 . S
H1189 C1218 0.950 . S
H1190 C1220 0.950 . S
H1191 C1221 0.950 . S
C1192 H1174 0.951 . S
C1192 C1193 1.366 . S
C1192 C1194 1.388 . S
C1193 C1192 1.366 . S
C1193 C1197 1.385 . S
C1194 H1175 0.951 . S
C1194 C1192 1.388 . S
C1194 C1195 1.366 . S
C1195 C1194 1.366 . S
C1195 C1196 1.414 . S
C1195 C1198 1.499 . S
C1196 H1176 0.950 . S
C1196 C1195 1.414 . S
C1196 C1197 1.374 . S
C1197 H1177 0.950 . S
C1197 C1193 1.385 . S
C1197 C1196 1.374 . S
C1198 C1195 1.499 . S
C1198 C1199 1.373 . S
C1198 C1200 1.389 . S
C1199 H1178 0.950 . S
C1199 C1198 1.373 . S
C1199 C1215 1.377 1_545 S
C1200 C1198 1.389 . S
C1200 C1201 1.524 . S
C1200 C1214 1.377 1_545 S
C1201 C1200 1.524 . S
C1201 C1202 1.397 . S
C1201 C1206 1.363 . S
C1202 H1179 0.950 . S
C1202 C1201 1.397 . S
C1202 C1203 1.334 . S
C1203 H1180 0.950 . S
C1203 C1202 1.334 . S
C1203 C1204 1.287 . S
C1204 C1203 1.287 . S
C1204 C1205 1.524 . S
C1204 H1223 0.913 . S
C1205 H1181 0.950 . S
C1205 C1204 1.524 . S
C1205 C1206 1.415 . S
C1206 H1182 0.950 . S
C1206 C1201 1.363 . S
C1206 C1205 1.415 . S
C1207 H1183 0.951 . S
C1207 C1208 1.366 . S
C1207 C1209 1.388 . S
C1208 C1207 1.366 . S
C1208 C1212 1.385 . S
C1209 H1184 0.951 . S
C1209 C1207 1.388 . S
C1209 C1210 1.366 . S
C1210 C1209 1.366 . S
C1210 C1211 1.414 . S
C1210 C1213 1.499 . S
C1211 H1185 0.950 . S
C1211 C1210 1.414 . S
C1211 C1212 1.374 . S
C1212 H1186 0.950 . S
C1212 C1208 1.385 . S
C1212 C1211 1.374 . S
C1213 C1210 1.499 . S
C1213 C1214 1.373 . S
C1213 C1215 1.389 . S
C1214 H1187 0.950 . S
C1214 C1200 1.377 1_565 S
C1214 C1213 1.373 . S
C1215 C1199 1.377 1_565 S
C1215 C1213 1.389 . S
C1215 C1216 1.524 . S
C1216 C1215 1.524 . S
C1216 C1217 1.397 . S
C1216 C1221 1.363 . S
C1217 H1188 0.950 . S
C1217 C1216 1.397 . S
C1217 C1218 1.334 . S
C1218 H1189 0.950 . S
C1218 C1217 1.334 . S
C1218 C1219 1.287 . S
C1219 C1218 1.287 . S
C1219 C1220 1.524 . S
C1219 H1222 0.999 . S
C1220 H1190 0.950 . S
C1220 C1219 1.524 . S
C1220 C1221 1.415 . S
C1221 H1191 0.950 . S
C1221 C1216 1.363 . S
C1221 C1220 1.415 . S
H1222 C1219 0.999 . S
H1223 C1204 0.913 . S
H1224 C1242 0.951 . S
H1225 C1244 0.951 . S
H1226 C1246 0.950 . S
H1227 C1247 0.950 . S
H1228 C1249 0.950 . S
H1229 C1252 0.950 . S
H1230 C1253 0.950 . S
H1231 C1255 0.950 1_655 S
H1232 C1256 0.950 . S
H1233 C1257 0.951 . S
H1234 C1259 0.951 . S
H1235 C1261 0.950 . S
H1236 C1262 0.950 . S
H1237 C1264 0.950 . S
H1238 C1267 0.950 . S
H1239 C1268 0.950 . S
H1240 C1270 0.950 1_455 S
H1241 C1271 0.950 . S
C1242 H1224 0.951 . S
C1242 C1243 1.366 . S
C1242 C1244 1.388 . S
C1243 C1242 1.366 . S
C1243 C1247 1.385 . S
C1244 H1225 0.951 . S
C1244 C1242 1.388 . S
C1244 C1245 1.366 . S
C1245 C1244 1.366 . S
C1245 C1246 1.414 . S
C1245 C1248 1.499 . S
C1246 H1226 0.950 . S
C1246 C1245 1.414 . S
C1246 C1247 1.374 . S
C1247 H1227 0.950 . S
C1247 C1243 1.385 . S
C1247 C1246 1.374 . S
C1248 C1245 1.499 . S
C1248 C1249 1.373 . S
C1248 C1250 1.389 . S
C1249 H1228 0.950 . S
C1249 C1248 1.373 . S
C1249 C1265 1.377 1_455 S
C1250 C1248 1.389 . S
C1250 C1251 1.524 . S
C1250 C1264 1.377 1_455 S
C1251 C1250 1.524 . S
C1251 C1252 1.397 . S
C1251 C1256 1.363 1_455 S
C1252 H1229 0.950 . S
C1252 C1251 1.397 . S
C1252 C1253 1.334 . S
C1253 H1230 0.950 . S
C1253 C1252 1.334 . S
C1253 C1254 1.287 . S
C1254 C1253 1.287 . S
C1254 C1255 1.524 . S
C1254 H1273 0.913 . S
C1255 H1231 0.950 1_455 S
C1255 C1254 1.524 . S
C1255 C1256 1.415 1_455 S
C1256 H1232 0.950 . S
C1256 C1251 1.363 1_655 S
C1256 C1255 1.415 1_655 S
C1257 H1233 0.951 . S
C1257 C1258 1.366 . S
C1257 C1259 1.388 . S
C1258 C1257 1.366 . S
C1258 C1262 1.385 . S
C1259 H1234 0.951 . S
C1259 C1257 1.388 . S
C1259 C1260 1.366 . S
C1260 C1259 1.366 . S
C1260 C1261 1.414 . S
C1260 C1263 1.499 . S
C1261 H1235 0.950 . S
C1261 C1260 1.414 . S
C1261 C1262 1.374 . S
C1262 H1236 0.950 . S
C1262 C1258 1.385 . S
C1262 C1261 1.374 . S
C1263 C1260 1.499 . S
C1263 C1264 1.373 . S
C1263 C1265 1.389 . S
C1264 H1237 0.950 . S
C1264 C1250 1.377 1_655 S
C1264 C1263 1.373 . S
C1265 C1249 1.377 1_655 S
C1265 C1263 1.389 . S
C1265 C1266 1.524 . S
C1266 C1265 1.524 . S
C1266 C1267 1.397 . S
C1266 C1271 1.363 1_655 S
C1267 H1238 0.950 . S
C1267 C1266 1.397 . S
C1267 C1268 1.334 . S
C1268 H1239 0.950 . S
C1268 C1267 1.334 . S
C1268 C1269 1.287 . S
C1269 C1268 1.287 . S
C1269 C1270 1.524 . S
C1269 H1272 0.999 . S
C1270 H1240 0.950 1_655 S
C1270 C1269 1.524 . S
C1270 C1271 1.415 1_655 S
C1271 H1241 0.950 . S
C1271 C1266 1.363 1_455 S
C1271 C1270 1.415 1_455 S
H1272 C1269 0.999 . S
H1273 C1254 0.913 . S
H1274 C1292 0.951 . S
H1275 C1294 0.951 . S
H1276 C1296 0.950 . S
H1277 C1297 0.950 . S
H1278 C1299 0.950 . S
H1279 C1302 0.950 . S
H1280 C1303 0.950 . S
H1281 C1305 0.950 . S
H1282 C1306 0.950 . S
H1283 C1307 0.951 . S
H1284 C1309 0.951 . S
H1285 C1311 0.950 . S
H1286 C1312 0.950 . S
H1287 C1314 0.950 . S
H1288 C1317 0.950 . S
H1289 C1318 0.950 . S
H1290 C1320 0.950 . S
H1291 C1321 0.950 . S
C1292 H1274 0.951 . S
C1292 C1293 1.366 . S
C1292 C1294 1.388 . S
C1293 C1292 1.366 . S
C1293 C1297 1.385 . S
C1294 H1275 0.951 . S
C1294 C1292 1.388 . S
C1294 C1295 1.366 . S
C1295 C1294 1.366 . S
C1295 C1296 1.414 . S
C1295 C1298 1.499 . S
C1296 H1276 0.950 . S
C1296 C1295 1.414 . S
C1296 C1297 1.374 . S
C1297 H1277 0.950 . S
C1297 C1293 1.385 . S
C1297 C1296 1.374 . S
C1298 C1295 1.499 . S
C1298 C1299 1.373 . S
C1298 C1300 1.389 . S
C1299 H1278 0.950 . S
C1299 C1298 1.373 . S
C1299 C1315 1.377 . S
C1300 C1298 1.389 . S
C1300 C1301 1.524 . S
C1300 C1314 1.377 . S
C1301 C1300 1.524 . S
C1301 C1302 1.397 . S
C1301 C1306 1.363 . S
C1302 H1279 0.950 . S
C1302 C1301 1.397 . S
C1302 C1303 1.334 . S
C1303 H1280 0.950 . S
C1303 C1302 1.334 . S
C1303 C1304 1.287 . S
C1304 C1303 1.287 . S
C1304 C1305 1.524 . S
C1304 H1323 0.913 . S
C1305 H1281 0.950 . S
C1305 C1304 1.524 . S
C1305 C1306 1.415 . S
C1306 H1282 0.950 . S
C1306 C1301 1.363 . S
C1306 C1305 1.415 . S
C1307 H1283 0.951 . S
C1307 C1308 1.366 . S
C1307 C1309 1.388 . S
C1308 C1307 1.366 . S
C1308 C1312 1.385 . S
C1309 H1284 0.951 . S
C1309 C1307 1.388 . S
C1309 C1310 1.366 . S
C1310 C1309 1.366 . S
C1310 C1311 1.414 . S
C1310 C1313 1.499 . S
C1311 H1285 0.950 . S
C1311 C1310 1.414 . S
C1311 C1312 1.374 . S
C1312 H1286 0.950 . S
C1312 C1308 1.385 . S
C1312 C1311 1.374 . S
C1313 C1310 1.499 . S
C1313 C1314 1.373 . S
C1313 C1315 1.389 . S
C1314 H1287 0.950 . S
C1314 C1300 1.377 . S
C1314 C1313 1.373 . S
C1315 C1299 1.377 . S
C1315 C1313 1.389 . S
C1315 C1316 1.524 . S
C1316 C1315 1.524 . S
C1316 C1317 1.397 . S
C1316 C1321 1.363 . S
C1317 H1288 0.950 . S
C1317 C1316 1.397 . S
C1317 C1318 1.334 . S
C1318 H1289 0.950 . S
C1318 C1317 1.334 . S
C1318 C1319 1.287 . S
C1319 C1318 1.287 . S
C1319 C1320 1.524 . S
C1319 H1322 0.999 . S
C1320 H1290 0.950 . S
C1320 C1319 1.524 . S
C1320 C1321 1.415 . S
C1321 H1291 0.950 . S
C1321 C1316 1.363 . S
C1321 C1320 1.415 . S
H1322 C1319 0.999 . S
H1323 C1304 0.913 . S
H1324 C1342 0.951 . S
H1325 C1344 0.951 1_545 S
H1326 C1346 0.950 . S
H1327 C1347 0.950 . S
H1328 C1349 0.950 . S
H1329 C1352 0.931 1_565 S
H1330 C1353 0.950 . S
H1331 C1355 0.950 . S
H1332 C1356 0.950 . S
H1333 C1357 0.951 . S
H1334 C1359 0.951 1_565 S
H1335 C1361 0.950 . S
H1336 C1362 0.950 . S
H1337 C1364 0.950 . S
H1338 C1367 0.929 1_545 S
H1339 C1368 0.950 . S
H1340 C1370 0.950 . S
H1341 C1371 0.950 . S
C1342 H1324 0.951 . S
C1342 C1343 1.366 . S
C1342 C1344 1.388 . S
C1343 C1342 1.366 . S
C1343 C1347 1.385 . S
C1344 H1325 0.951 1_565 S
C1344 C1342 1.388 . S
C1344 C1345 1.366 . S
C1345 C1344 1.366 . S
C1345 C1346 1.414 . S
C1345 C1348 1.499 . S
C1346 H1326 0.950 . S
C1346 C1345 1.414 . S
C1346 C1347 1.374 . S
C1347 H1327 0.950 . S
C1347 C1343 1.385 . S
C1347 C1346 1.374 . S
C1348 C1345 1.499 . S
C1348 C1349 1.373 . S
C1348 C1350 1.389 1_565 S
C1349 H1328 0.950 . S
C1349 C1348 1.373 . S
C1349 C1365 1.377 . S
C1350 C1348 1.389 1_545 S
C1350 C1351 1.524 . S
C1350 C1364 1.377 . S
C1351 C1350 1.524 . S
C1351 C1352 1.397 . S
C1351 C1356 1.363 . S
C1352 H1329 0.931 1_545 S
C1352 C1351 1.397 . S
C1352 C1353 1.334 . S
C1353 H1330 0.950 . S
C1353 C1352 1.334 . S
C1353 C1354 1.287 . S
C1354 C1353 1.287 . S
C1354 C1355 1.524 . S
C1354 H1373 0.913 . S
C1355 H1331 0.950 . S
C1355 C1354 1.524 . S
C1355 C1356 1.415 . S
C1356 H1332 0.950 . S
C1356 C1351 1.363 . S
C1356 C1355 1.415 . S
C1357 H1333 0.951 . S
C1357 C1358 1.366 . S
C1357 C1359 1.388 . S
C1358 C1357 1.366 . S
C1358 C1362 1.385 . S
C1359 H1334 0.951 1_545 S
C1359 C1357 1.388 . S
C1359 C1360 1.366 . S
C1360 C1359 1.366 . S
C1360 C1361 1.414 . S
C1360 C1363 1.499 . S
C1361 H1335 0.950 . S
C1361 C1360 1.414 . S
C1361 C1362 1.374 . S
C1362 H1336 0.950 . S
C1362 C1358 1.385 . S
C1362 C1361 1.374 . S
C1363 C1360 1.499 . S
C1363 C1364 1.373 . S
C1363 C1365 1.389 1_545 S
C1364 H1337 0.950 . S
C1364 C1350 1.377 . S
C1364 C1363 1.373 . S
C1365 C1349 1.377 . S
C1365 C1363 1.389 1_565 S
C1365 C1366 1.524 . S
C1366 C1365 1.524 . S
C1366 C1367 1.397 . S
C1366 C1371 1.363 . S
C1367 H1338 0.929 1_565 S
C1367 C1366 1.397 . S
C1367 C1368 1.334 . S
C1368 H1339 0.950 . S
C1368 C1367 1.334 . S
C1368 C1369 1.287 . S
C1369 C1368 1.287 . S
C1369 C1370 1.524 . S
C1369 H1372 0.999 . S
C1370 H1340 0.950 . S
C1370 C1369 1.524 . S
C1370 C1371 1.415 . S
C1371 H1341 0.950 . S
C1371 C1366 1.363 . S
C1371 C1370 1.415 . S
H1372 C1369 0.999 . S
H1373 C1354 0.913 . S
H1374 C1392 0.951 . S
H1375 C1394 0.951 . S
H1376 C1396 0.950 . S
H1377 C1397 0.950 . S
H1378 C1399 0.950 . S
H1379 C1402 0.950 . S
H1380 C1403 0.950 . S
H1381 C1405 0.950 . S
H1382 C1406 0.950 . S
H1383 C1407 0.951 . S
H1384 C1409 0.951 . S
H1385 C1411 0.950 . S
H1386 C1412 0.950 . S
H1387 C1414 0.950 . S
H1388 C1417 0.950 . S
H1389 C1418 0.950 . S
H1390 C1420 0.950 . S
H1391 C1421 0.950 . S
C1392 H1374 0.951 . S
C1392 C1393 1.366 . S
C1392 C1394 1.388 . S
C1393 C1392 1.366 . S
C1393 C1397 1.385 . S
C1394 H1375 0.951 . S
C1394 C1392 1.388 . S
C1394 C1395 1.366 . S
C1395 C1394 1.366 . S
C1395 C1396 1.414 . S
C1395 C1398 1.499 . S
C1396 H1376 0.950 . S
C1396 C1395 1.414 . S
C1396 C1397 1.374 . S
C1397 H1377 0.950 . S
C1397 C1393 1.385 . S
C1397 C1396 1.374 . S
C1398 C1395 1.499 . S
C1398 C1399 1.373 1_455 S
C1398 C1400 1.389 . S
C1399 H1378 0.950 . S
C1399 C1398 1.373 1_655 S
C1399 C1415 1.377 1_545 S
C1400 C1398 1.389 . S
C1400 C1401 1.524 . S
C1400 C1414 1.377 1_545 S
C1401 C1400 1.524 . S
C1401 C1402 1.397 . S
C1401 C1406 1.363 1_545 S
C1402 H1379 0.950 . S
C1402 C1401 1.397 . S
C1402 C1403 1.334 . S
C1403 H1380 0.950 . S
C1403 C1402 1.334 . S
C1403 C1404 1.287 . S
C1404 C1403 1.287 . S
C1404 C1405 1.524 1_545 S
C1404 H1423 0.913 . S
C1405 H1381 0.950 . S
C1405 C1404 1.524 1_565 S
C1405 C1406 1.415 . S
C1406 H1382 0.950 . S
C1406 C1401 1.363 1_565 S
C1406 C1405 1.415 . S
C1407 H1383 0.951 . S
C1407 C1408 1.366 . S
C1407 C1409 1.388 . S
C1408 C1407 1.366 . S
C1408 C1412 1.385 . S
C1409 H1384 0.951 . S
C1409 C1407 1.388 . S
C1409 C1410 1.366 . S
C1410 C1409 1.366 . S
C1410 C1411 1.414 . S
C1410 C1413 1.499 . S
C1411 H1385 0.950 . S
C1411 C1410 1.414 . S
C1411 C1412 1.374 . S
C1412 H1386 0.950 . S
C1412 C1408 1.385 . S
C1412 C1411 1.374 . S
C1413 C1410 1.499 . S
C1413 C1414 1.373 1_655 S
C1413 C1415 1.389 . S
C1414 H1387 0.950 . S
C1414 C1400 1.377 1_565 S
C1414 C1413 1.373 1_455 S
C1415 C1399 1.377 1_565 S
C1415 C1413 1.389 . S
C1415 C1416 1.524 . S
C1416 C1415 1.524 . S
C1416 C1417 1.397 . S
C1416 C1421 1.363 1_565 S
C1417 H1388 0.950 . S
C1417 C1416 1.397 . S
C1417 C1418 1.334 . S
C1418 H1389 0.950 . S
C1418 C1417 1.334 . S
C1418 C1419 1.287 . S
C1419 C1418 1.287 . S
C1419 C1420 1.524 1_565 S
C1419 H1422 0.999 . S
C1420 H1390 0.950 . S
C1420 C1419 1.524 1_545 S
C1420 C1421 1.415 . S
C1421 H1391 0.950 . S
C1421 C1416 1.363 1_545 S
C1421 C1420 1.415 . S
H1422 C1419 0.999 . S
H1423 C1404 0.913 . S
H1424 C1442 0.951 . S
H1425 C1444 0.951 . S
H1426 C1446 0.950 1_545 S
H1427 C1447 0.950 . S
H1428 C1449 0.950 . S
H1429 C1452 0.950 . S
H1430 C1453 0.950 . S
H1431 C1455 0.950 . S
H1432 C1456 0.950 . S
H1433 C1457 0.951 . S
H1434 C1459 0.951 . S
H1435 C1461 0.950 1_565 S
H1436 C1462 0.950 . S
H1437 C1464 0.950 . S
H1438 C1467 0.950 . S
H1439 C1468 0.950 . S
H1440 C1470 0.950 . S
H1441 C1471 0.950 . S
C1442 H1424 0.951 . S
C1442 C1443 1.366 . S
C1442 C1444 1.388 . S
C1443 C1442 1.366 . S
C1443 C1447 1.385 . S
C1444 H1425 0.951 . S
C1444 C1442 1.388 . S
C1444 C1445 1.366 . S
C1445 C1444 1.366 . S
C1445 C1446 1.414 . S
C1445 C1448 1.499 . S
C1446 H1426 0.950 1_565 S
C1446 C1445 1.414 . S
C1446 C1447 1.374 . S
C1447 H1427 0.950 . S
C1447 C1443 1.385 . S
C1447 C1446 1.374 . S
C1448 C1445 1.499 . S
C1448 C1449 1.373 1_565 S
C1448 C1450 1.389 . S
C1449 H1428 0.950 . S
C1449 C1448 1.373 1_545 S
C1449 C1465 1.377 . S
C1450 C1448 1.389 . S
C1450 C1451 1.524 . S
C1450 C1464 1.377 . S
C1451 C1450 1.524 . S
C1451 C1452 1.397 . S
C1451 C1456 1.363 . S
C1452 H1429 0.950 . S
C1452 C1451 1.397 . S
C1452 C1453 1.334 . S
C1453 H1430 0.950 . S
C1453 C1452 1.334 . S
C1453 C1454 1.287 . S
C1454 C1453 1.287 . S
C1454 C1455 1.524 . S
C1454 H1473 0.913 . S
C1455 H1431 0.950 . S
C1455 C1454 1.524 . S
C1455 C1456 1.415 . S
C1456 H1432 0.950 . S
C1456 C1451 1.363 . S
C1456 C1455 1.415 . S
C1457 H1433 0.951 . S
C1457 C1458 1.366 . S
C1457 C1459 1.388 . S
C1458 C1457 1.366 . S
C1458 C1462 1.385 . S
C1459 H1434 0.951 . S
C1459 C1457 1.388 . S
C1459 C1460 1.366 . S
C1460 C1459 1.366 . S
C1460 C1461 1.414 . S
C1460 C1463 1.499 . S
C1461 H1435 0.950 1_545 S
C1461 C1460 1.414 . S
C1461 C1462 1.374 . S
C1462 H1436 0.950 . S
C1462 C1458 1.385 . S
C1462 C1461 1.374 . S
C1463 C1460 1.499 . S
C1463 C1464 1.373 1_545 S
C1463 C1465 1.389 . S
C1464 H1437 0.950 . S
C1464 C1450 1.377 . S
C1464 C1463 1.373 1_565 S
C1465 C1449 1.377 . S
C1465 C1463 1.389 . S
C1465 C1466 1.524 . S
C1466 C1465 1.524 . S
C1466 C1467 1.397 . S
C1466 C1471 1.363 . S
C1467 H1438 0.950 . S
C1467 C1466 1.397 . S
C1467 C1468 1.334 . S
C1468 H1439 0.950 . S
C1468 C1467 1.334 . S
C1468 C1469 1.287 . S
C1469 C1468 1.287 . S
C1469 C1470 1.524 . S
C1469 H1472 0.999 . S
C1470 H1440 0.950 . S
C1470 C1469 1.524 . S
C1470 C1471 1.415 . S
C1471 H1441 0.950 . S
C1471 C1466 1.363 . S
C1471 C1470 1.415 . S
H1472 C1469 0.999 . S
H1473 C1454 0.913 . S
H1474 C1492 0.951 . S
H1475 C1494 0.951 . S
H1476 C1496 0.950 . S
H1477 C1497 0.950 . S
H1478 C1499 0.950 . S
H1479 C1502 0.950 . S
H1480 C1503 0.950 . S
H1481 C1505 0.950 . S
H1482 C1506 0.950 . S
H1483 C1507 0.951 . S
H1484 C1509 0.951 . S
H1485 C1511 0.950 . S
H1486 C1512 0.950 . S
H1487 C1514 0.950 . S
H1488 C1517 0.950 . S
H1489 C1518 0.950 . S
H1490 C1520 0.950 . S
H1491 C1521 0.950 . S
C1492 H1474 0.951 . S
C1492 C1493 1.366 . S
C1492 C1494 1.388 . S
C1493 C1492 1.366 . S
C1493 C1497 1.385 . S
C1494 H1475 0.951 . S
C1494 C1492 1.388 . S
C1494 C1495 1.366 . S
C1495 C1494 1.366 . S
C1495 C1496 1.414 . S
C1495 C1498 1.499 . S
C1496 H1476 0.950 . S
C1496 C1495 1.414 . S
C1496 C1497 1.374 . S
C1497 H1477 0.950 . S
C1497 C1493 1.385 . S
C1497 C1496 1.374 . S
C1498 C1495 1.499 . S
C1498 C1499 1.373 . S
C1498 C1500 1.389 1_655 S
C1499 H1478 0.950 . S
C1499 C1498 1.373 . S
C1499 C1515 1.377 1_565 S
C1500 C1498 1.389 1_455 S
C1500 C1501 1.524 . S
C1500 C1514 1.377 1_565 S
C1501 C1500 1.524 . S
C1501 C1502 1.397 . S
C1501 C1506 1.363 . S
C1502 H1479 0.950 . S
C1502 C1501 1.397 . S
C1502 C1503 1.334 . S
C1503 H1480 0.950 . S
C1503 C1502 1.334 . S
C1503 C1504 1.287 . S
C1504 C1503 1.287 . S
C1504 C1505 1.524 . S
C1504 H1523 0.913 . S
C1505 H1481 0.950 . S
C1505 C1504 1.524 . S
C1505 C1506 1.415 . S
C1506 H1482 0.950 . S
C1506 C1501 1.363 . S
C1506 C1505 1.415 . S
C1507 H1483 0.951 . S
C1507 C1508 1.366 . S
C1507 C1509 1.388 . S
C1508 C1507 1.366 . S
C1508 C1512 1.385 . S
C1509 H1484 0.951 . S
C1509 C1507 1.388 . S
C1509 C1510 1.366 . S
C1510 C1509 1.366 . S
C1510 C1511 1.414 . S
C1510 C1513 1.499 . S
C1511 H1485 0.950 . S
C1511 C1510 1.414 . S
C1511 C1512 1.374 . S
C1512 H1486 0.950 . S
C1512 C1508 1.385 . S
C1512 C1511 1.374 . S
C1513 C1510 1.499 . S
C1513 C1514 1.373 . S
C1513 C1515 1.389 1_455 S
C1514 H1487 0.950 . S
C1514 C1500 1.377 1_545 S
C1514 C1513 1.373 . S
C1515 C1499 1.377 1_545 S
C1515 C1513 1.389 1_655 S
C1515 C1516 1.524 . S
C1516 C1515 1.524 . S
C1516 C1517 1.397 . S
C1516 C1521 1.363 . S
C1517 H1488 0.950 . S
C1517 C1516 1.397 . S
C1517 C1518 1.334 . S
C1518 H1489 0.950 . S
C1518 C1517 1.334 . S
C1518 C1519 1.287 . S
C1519 C1518 1.287 . S
C1519 C1520 1.524 . S
C1519 H1522 0.999 . S
C1520 H1490 0.950 . S
C1520 C1519 1.524 . S
C1520 C1521 1.415 . S
C1521 H1491 0.950 . S
C1521 C1516 1.363 . S
C1521 C1520 1.415 . S
H1522 C1519 0.999 . S
H1523 C1504 0.913 . S
H1524 C1542 0.951 . S
H1525 C1544 0.951 . S
H1526 C1546 0.950 . S
H1527 C1547 0.950 . S
H1528 C1549 0.950 . S
H1529 C1552 0.950 . S
H1530 C1553 0.950 . S
H1531 C1555 0.950 . S
H1532 C1556 0.950 . S
H1533 C1557 0.951 . S
H1534 C1559 0.951 . S
H1535 C1561 0.950 . S
H1536 C1562 0.950 . S
H1537 C1564 0.950 . S
H1538 C1567 0.950 . S
H1539 C1568 0.950 . S
H1540 C1570 0.950 . S
H1541 C1571 0.950 . S
C1542 H1524 0.951 . S
C1542 C1543 1.366 . S
C1542 C1544 1.388 . S
C1543 C1542 1.366 . S
C1543 C1547 1.385 . S
C1544 H1525 0.951 . S
C1544 C1542 1.388 . S
C1544 C1545 1.366 . S
C1545 C1544 1.366 . S
C1545 C1546 1.414 . S
C1545 C1548 1.499 . S
C1546 H1526 0.950 . S
C1546 C1545 1.414 . S
C1546 C1547 1.374 . S
C1547 H1527 0.950 . S
C1547 C1543 1.385 . S
C1547 C1546 1.374 . S
C1548 C1545 1.499 . S
C1548 C1549 1.373 . S
C1548 C1550 1.389 . S
C1549 H1528 0.950 . S
C1549 C1548 1.373 . S
C1549 C1565 1.377 1_455 S
C1550 C1548 1.389 . S
C1550 C1551 1.524 . S
C1550 C1564 1.377 1_455 S
C1551 C1550 1.524 . S
C1551 C1552 1.397 . S
C1551 C1556 1.363 1_455 S
C1552 H1529 0.950 . S
C1552 C1551 1.397 . S
C1552 C1553 1.334 . S
C1553 H1530 0.950 . S
C1553 C1552 1.334 . S
C1553 C1554 1.287 . S
C1554 C1553 1.287 . S
C1554 C1555 1.524 1_455 S
C1554 H1573 0.913 . S
C1555 H1531 0.950 . S
C1555 C1554 1.524 1_655 S
C1555 C1556 1.415 . S
C1556 H1532 0.950 . S
C1556 C1551 1.363 1_655 S
C1556 C1555 1.415 . S
C1557 H1533 0.951 . S
C1557 C1558 1.366 . S
C1557 C1559 1.388 . S
C1558 C1557 1.366 . S
C1558 C1562 1.385 . S
C1559 H1534 0.951 . S
C1559 C1557 1.388 . S
C1559 C1560 1.366 . S
C1560 C1559 1.366 . S
C1560 C1561 1.414 . S
C1560 C1563 1.499 . S
C1561 H1535 0.950 . S
C1561 C1560 1.414 . S
C1561 C1562 1.374 . S
C1562 H1536 0.950 . S
C1562 C1558 1.385 . S
C1562 C1561 1.374 . S
C1563 C1560 1.499 . S
C1563 C1564 1.373 . S
C1563 C1565 1.389 . S
C1564 H1537 0.950 . S
C1564 C1550 1.377 1_655 S
C1564 C1563 1.373 . S
C1565 C1549 1.377 1_655 S
C1565 C1563 1.389 . S
C1565 C1566 1.524 . S
C1566 C1565 1.524 . S
C1566 C1567 1.397 . S
C1566 C1571 1.363 1_655 S
C1567 H1538 0.950 . S
C1567 C1566 1.397 . S
C1567 C1568 1.334 . S
C1568 H1539 0.950 . S
C1568 C1567 1.334 . S
C1568 C1569 1.287 . S
C1569 C1568 1.287 . S
C1569 C1570 1.524 1_655 S
C1569 H1572 0.999 . S
C1570 H1540 0.950 . S
C1570 C1569 1.524 1_455 S
C1570 C1571 1.415 . S
C1571 H1541 0.950 . S
C1571 C1566 1.363 1_455 S
C1571 C1570 1.415 . S
H1572 C1569 0.999 . S
H1573 C1554 0.913 . S
H1574 C1592 0.951 . S
H1575 C1594 0.951 . S
H1576 C1596 0.950 . S
H1577 C1597 0.950 . S
H1578 C1599 0.950 . S
H1579 C1602 0.950 . S
H1580 C1603 0.950 . S
H1581 C1605 0.950 . S
H1582 C1606 0.950 . S
H1583 C1607 0.951 . S
H1584 C1609 0.951 . S
H1585 C1611 0.950 . S
H1586 C1612 0.950 . S
H1587 C1614 0.950 . S
H1588 C1617 0.950 . S
H1589 C1618 0.950 . S
H1590 C1620 0.950 . S
H1591 C1621 0.950 . S
C1592 H1574 0.951 . S
C1592 C1593 1.366 . S
C1592 C1594 1.388 . S
C1593 C1592 1.366 . S
C1593 C1597 1.385 . S
C1594 H1575 0.951 . S
C1594 C1592 1.388 . S
C1594 C1595 1.366 . S
C1595 C1594 1.366 . S
C1595 C1596 1.414 . S
C1595 C1598 1.499 . S
C1596 H1576 0.950 . S
C1596 C1595 1.414 . S
C1596 C1597 1.374 . S
C1597 H1577 0.950 . S
C1597 C1593 1.385 . S
C1597 C1596 1.374 . S
C1598 C1595 1.499 . S
C1598 C1599 1.373 . S
C1598 C1600 1.389 . S
C1599 H1578 0.950 . S
C1599 C1598 1.373 . S
C1599 C1615 1.377 . S
C1600 C1598 1.389 . S
C1600 C1601 1.524 . S
C1600 C1614 1.377 . S
C1601 C1600 1.524 . S
C1601 C1602 1.397 . S
C1601 C1606 1.363 . S
C1602 H1579 0.950 . S
C1602 C1601 1.397 . S
C1602 C1603 1.334 . S
C1603 H1580 0.950 . S
C1603 C1602 1.334 . S
C1603 C1604 1.287 . S
C1604 C1603 1.287 . S
C1604 C1605 1.524 . S
C1604 H1623 0.913 . S
C1605 H1581 0.950 . S
C1605 C1604 1.524 . S
C1605 C1606 1.415 . S
C1606 H1582 0.950 . S
C1606 C1601 1.363 . S
C1606 C1605 1.415 . S
C1607 H1583 0.951 . S
C1607 C1608 1.366 . S
C1607 C1609 1.388 . S
C1608 C1607 1.366 . S
C1608 C1612 1.385 . S
C1609 H1584 0.951 . S
C1609 C1607 1.388 . S
C1609 C1610 1.366 . S
C1610 C1609 1.366 . S
C1610 C1611 1.414 . S
C1610 C1613 1.499 . S
C1611 H1585 0.950 . S
C1611 C1610 1.414 . S
C1611 C1612 1.374 . S
C1612 H1586 0.950 . S
C1612 C1608 1.385 . S
C1612 C1611 1.374 . S
C1613 C1610 1.499 . S
C1613 C1614 1.373 . S
C1613 C1615 1.389 . S
C1614 H1587 0.950 . S
C1614 C1600 1.377 . S
C1614 C1613 1.373 . S
C1615 C1599 1.377 . S
C1615 C1613 1.389 . S
C1615 C1616 1.524 . S
C1616 C1615 1.524 . S
C1616 C1617 1.397 . S
C1616 C1621 1.363 . S
C1617 H1588 0.950 . S
C1617 C1616 1.397 . S
C1617 C1618 1.334 . S
C1618 H1589 0.950 . S
C1618 C1617 1.334 . S
C1618 C1619 1.287 . S
C1619 C1618 1.287 . S
C1619 C1620 1.524 . S
C1619 H1622 0.999 . S
C1620 H1590 0.950 . S
C1620 C1619 1.524 . S
C1620 C1621 1.415 . S
C1621 H1591 0.950 . S
C1621 C1616 1.363 . S
C1621 C1620 1.415 . S
H1622 C1619 0.999 . S
H1623 C1604 0.913 . S
H1624 C1642 0.951 . S
H1625 C1644 0.951 . S
H1626 C1646 0.950 . S
H1627 C1647 0.950 . S
H1628 C1649 0.950 . S
H1629 C1652 0.950 . S
H1630 C1653 0.950 . S
H1631 C1655 0.950 . S
H1632 C1656 0.950 . S
H1633 C1657 0.951 . S
H1634 C1659 0.951 . S
H1635 C1661 0.950 . S
H1636 C1662 0.950 . S
H1637 C1664 0.950 . S
H1638 C1667 0.950 . S
H1639 C1668 0.950 . S
H1640 C1670 0.950 . S
H1641 C1671 0.950 . S
C1642 H1624 0.951 . S
C1642 C1643 1.366 . S
C1642 C1644 1.388 . S
C1643 C1642 1.366 . S
C1643 C1647 1.385 . S
C1644 H1625 0.951 . S
C1644 C1642 1.388 . S
C1644 C1645 1.366 . S
C1645 C1644 1.366 . S
C1645 C1646 1.414 . S
C1645 C1648 1.499 . S
C1646 H1626 0.950 . S
C1646 C1645 1.414 . S
C1646 C1647 1.374 . S
C1647 H1627 0.950 . S
C1647 C1643 1.385 . S
C1647 C1646 1.374 . S
C1648 C1645 1.499 . S
C1648 C1649 1.373 . S
C1648 C1650 1.389 . S
C1649 H1628 0.950 . S
C1649 C1648 1.373 . S
C1649 C1665 1.377 . S
C1650 C1648 1.389 . S
C1650 C1651 1.524 . S
C1650 C1664 1.377 . S
C1651 C1650 1.524 . S
C1651 C1652 1.397 . S
C1651 C1656 1.363 . S
C1652 H1629 0.950 . S
C1652 C1651 1.397 . S
C1652 C1653 1.334 . S
C1653 H1630 0.950 . S
C1653 C1652 1.334 . S
C1653 C1654 1.287 . S
C1654 C1653 1.287 . S
C1654 C1655 1.524 . S
C1654 H1673 0.913 . S
C1655 H1631 0.950 . S
C1655 C1654 1.524 . S
C1655 C1656 1.415 . S
C1656 H1632 0.950 . S
C1656 C1651 1.363 . S
C1656 C1655 1.415 . S
C1657 H1633 0.951 . S
C1657 C1658 1.366 . S
C1657 C1659 1.388 . S
C1658 C1657 1.366 . S
C1658 C1662 1.385 . S
C1659 H1634 0.951 . S
C1659 C1657 1.388 . S
C1659 C1660 1.366 . S
C1660 C1659 1.366 . S
C1660 C1661 1.414 . S
C1660 C1663 1.499 . S
C1661 H1635 0.950 . S
C1661 C1660 1.414 . S
C1661 C1662 1.374 . S
C1662 H1636 0.950 . S
C1662 C1658 1.385 . S
C1662 C1661 1.374 . S
C1663 C1660 1.499 . S
C1663 C1664 1.373 . S
C1663 C1665 1.389 . S
C1664 H1637 0.950 . S
C1664 C1650 1.377 . S
C1664 C1663 1.373 . S
C1665 C1649 1.377 . S
C1665 C1663 1.389 . S
C1665 C1666 1.524 . S
C1666 C1665 1.524 . S
C1666 C1667 1.397 . S
C1666 C1671 1.363 . S
C1667 H1638 0.950 . S
C1667 C1666 1.397 . S
C1667 C1668 1.334 . S
C1668 H1639 0.950 . S
C1668 C1667 1.334 . S
C1668 C1669 1.287 . S
C1669 C1668 1.287 . S
C1669 C1670 1.524 . S
C1669 H1672 0.999 . S
C1670 H1640 0.950 . S
C1670 C1669 1.524 . S
C1670 C1671 1.415 . S
C1671 H1641 0.950 . S
C1671 C1666 1.363 . S
C1671 C1670 1.415 . S
H1672 C1669 0.999 . S
H1673 C1654 0.913 . S
H1674 C1692 0.951 . S
H1675 C1694 0.951 . S
H1676 C1696 0.950 . S
H1677 C1697 0.950 . S
H1678 C1699 0.950 . S
H1679 C1702 0.950 . S
H1680 C1703 0.950 . S
H1681 C1705 0.950 . S
H1682 C1706 0.950 . S
H1683 C1707 0.951 . S
H1684 C1709 0.951 . S
H1685 C1711 0.950 . S
H1686 C1712 0.950 . S
H1687 C1714 0.950 . S
H1688 C1717 0.950 . S
H1689 C1718 0.950 . S
H1690 C1720 0.950 . S
H1691 C1721 0.950 . S
C1692 H1674 0.951 . S
C1692 C1693 1.366 . S
C1692 C1694 1.388 . S
C1693 C1692 1.366 . S
C1693 C1697 1.385 . S
C1694 H1675 0.951 . S
C1694 C1692 1.388 . S
C1694 C1695 1.366 . S
C1695 C1694 1.366 . S
C1695 C1696 1.414 . S
C1695 C1698 1.499 . S
C1696 H1676 0.950 . S
C1696 C1695 1.414 . S
C1696 C1697 1.374 . S
C1697 H1677 0.950 . S
C1697 C1693 1.385 . S
C1697 C1696 1.374 . S
C1698 C1695 1.499 . S
C1698 C1699 1.373 . S
C1698 C1700 1.389 . S
C1699 H1678 0.950 . S
C1699 C1698 1.373 . S
C1699 C1715 1.377 1_545 S
C1700 C1698 1.389 . S
C1700 C1701 1.524 . S
C1700 C1714 1.377 1_545 S
C1701 C1700 1.524 . S
C1701 C1702 1.397 . S
C1701 C1706 1.363 . S
C1702 H1679 0.950 . S
C1702 C1701 1.397 . S
C1702 C1703 1.334 . S
C1703 H1680 0.950 . S
C1703 C1702 1.334 . S
C1703 C1704 1.287 . S
C1704 C1703 1.287 . S
C1704 C1705 1.524 . S
C1704 H1723 0.913 . S
C1705 H1681 0.950 . S
C1705 C1704 1.524 . S
C1705 C1706 1.415 . S
C1706 H1682 0.950 . S
C1706 C1701 1.363 . S
C1706 C1705 1.415 . S
C1707 H1683 0.951 . S
C1707 C1708 1.366 . S
C1707 C1709 1.388 . S
C1708 C1707 1.366 . S
C1708 C1712 1.385 . S
C1709 H1684 0.951 . S
C1709 C1707 1.388 . S
C1709 C1710 1.366 . S
C1710 C1709 1.366 . S
C1710 C1711 1.414 . S
C1710 C1713 1.499 . S
C1711 H1685 0.950 . S
C1711 C1710 1.414 . S
C1711 C1712 1.374 . S
C1712 H1686 0.950 . S
C1712 C1708 1.385 . S
C1712 C1711 1.374 . S
C1713 C1710 1.499 . S
C1713 C1714 1.373 . S
C1713 C1715 1.389 . S
C1714 H1687 0.950 . S
C1714 C1700 1.377 1_565 S
C1714 C1713 1.373 . S
C1715 C1699 1.377 1_565 S
C1715 C1713 1.389 . S
C1715 C1716 1.524 . S
C1716 C1715 1.524 . S
C1716 C1717 1.397 . S
C1716 C1721 1.363 . S
C1717 H1688 0.950 . S
C1717 C1716 1.397 . S
C1717 C1718 1.334 . S
C1718 H1689 0.950 . S
C1718 C1717 1.334 . S
C1718 C1719 1.287 . S
C1719 C1718 1.287 . S
C1719 C1720 1.524 . S
C1719 H1722 0.999 . S
C1720 H1690 0.950 . S
C1720 C1719 1.524 . S
C1720 C1721 1.415 . S
C1721 H1691 0.950 . S
C1721 C1716 1.363 . S
C1721 C1720 1.415 . S
H1722 C1719 0.999 . S
H1723 C1704 0.913 . S
H1724 C1742 0.951 . S
H1725 C1744 0.951 1_545 S
H1726 C1746 0.950 . S
H1727 C1747 0.950 . S
H1728 C1749 0.950 . S
H1729 C1752 0.950 . S
H1730 C1753 0.950 1_565 S
H1731 C1755 0.950 . S
H1732 C1756 0.950 . S
H1733 C1757 0.951 . S
H1734 C1759 0.951 1_565 S
H1735 C1761 0.950 . S
H1736 C1762 0.950 . S
H1737 C1764 0.950 . S
H1738 C1767 0.950 . S
H1739 C1768 0.950 1_545 S
H1740 C1770 0.950 . S
H1741 C1771 0.950 . S
C1742 H1724 0.951 . S
C1742 C1743 1.366 . S
C1742 C1744 1.388 . S
C1743 C1742 1.366 . S
C1743 C1747 1.385 . S
C1744 H1725 0.951 1_565 S
C1744 C1742 1.388 . S
C1744 C1745 1.366 . S
C1745 C1744 1.366 . S
C1745 C1746 1.414 . S
C1745 C1748 1.499 . S
C1746 H1726 0.950 . S
C1746 C1745 1.414 . S
C1746 C1747 1.374 . S
C1747 H1727 0.950 . S
C1747 C1743 1.385 . S
C1747 C1746 1.374 . S
C1748 C1745 1.499 . S
C1748 C1749 1.373 . S
C1748 C1750 1.389 1_565 S
C1749 H1728 0.950 . S
C1749 C1748 1.373 . S
C1749 C1765 1.377 1_655 S
C1750 C1748 1.389 1_545 S
C1750 C1751 1.524 . S
C1750 C1764 1.377 1_655 S
C1751 C1750 1.524 . S
C1751 C1752 1.397 1_545 S
C1751 C1756 1.363 . S
C1752 H1729 0.950 . S
C1752 C1751 1.397 1_565 S
C1752 C1753 1.334 1_565 S
C1753 H1730 0.950 1_545 S
C1753 C1752 1.334 1_545 S
C1753 C1754 1.287 . S
C1754 C1753 1.287 . S
C1754 C1755 1.524 . S
C1754 H1773 0.913 . S
C1755 H1731 0.950 . S
C1755 C1754 1.524 . S
C1755 C1756 1.415 . S
C1756 H1732 0.950 . S
C1756 C1751 1.363 . S
C1756 C1755 1.415 . S
C1757 H1733 0.951 . S
C1757 C1758 1.366 . S
C1757 C1759 1.388 . S
C1758 C1757 1.366 . S
C1758 C1762 1.385 . S
C1759 H1734 0.951 1_545 S
C1759 C1757 1.388 . S
C1759 C1760 1.366 . S
C1760 C1759 1.366 . S
C1760 C1761 1.414 . S
C1760 C1763 1.499 . S
C1761 H1735 0.950 . S
C1761 C1760 1.414 . S
C1761 C1762 1.374 . S
C1762 H1736 0.950 . S
C1762 C1758 1.385 . S
C1762 C1761 1.374 . S
C1763 C1760 1.499 . S
C1763 C1764 1.373 . S
C1763 C1765 1.389 1_545 S
C1764 H1737 0.950 . S
C1764 C1750 1.377 1_455 S
C1764 C1763 1.373 . S
C1765 C1749 1.377 1_455 S
C1765 C1763 1.389 1_565 S
C1765 C1766 1.524 . S
C1766 C1765 1.524 . S
C1766 C1767 1.397 1_565 S
C1766 C1771 1.363 . S
C1767 H1738 0.950 . S
C1767 C1766 1.397 1_545 S
C1767 C1768 1.334 1_545 S
C1768 H1739 0.950 1_565 S
C1768 C1767 1.334 1_565 S
C1768 C1769 1.287 . S
C1769 C1768 1.287 . S
C1769 C1770 1.524 . S
C1769 H1772 0.999 . S
C1770 H1740 0.950 . S
C1770 C1769 1.524 . S
C1770 C1771 1.415 . S
C1771 H1741 0.950 . S
C1771 C1766 1.363 . S
C1771 C1770 1.415 . S
H1772 C1769 0.999 . S
H1773 C1754 0.913 . S
H1774 C1792 0.951 . S
H1775 C1794 0.951 1_455 S
H1776 C1796 0.950 . S
H1777 C1797 0.950 . S
H1778 C1799 0.950 . S
H1779 C1802 0.950 . S
H1780 C1803 0.950 . S
H1781 C1805 0.950 . S
H1782 C1806 0.950 . S
H1783 C1807 0.951 . S
H1784 C1809 0.951 1_655 S
H1785 C1811 0.950 . S
H1786 C1812 0.950 . S
H1787 C1814 0.950 . S
H1788 C1817 0.950 . S
H1789 C1818 0.950 . S
H1790 C1820 0.950 . S
H1791 C1821 0.950 . S
C1792 H1774 0.951 . S
C1792 C1793 1.366 . S
C1792 C1794 1.388 . S
C1793 C1792 1.366 . S
C1793 C1797 1.385 . S
C1794 H1775 0.951 1_655 S
C1794 C1792 1.388 . S
C1794 C1795 1.366 . S
C1795 C1794 1.366 . S
C1795 C1796 1.414 . S
C1795 C1798 1.499 . S
C1796 H1776 0.950 . S
C1796 C1795 1.414 . S
C1796 C1797 1.374 . S
C1797 H1777 0.950 . S
C1797 C1793 1.385 . S
C1797 C1796 1.374 . S
C1798 C1795 1.499 . S
C1798 C1799 1.373 . S
C1798 C1800 1.389 1_655 S
C1799 H1778 0.950 . S
C1799 C1798 1.373 . S
C1799 C1815 1.377 . S
C1800 C1798 1.389 1_455 S
C1800 C1801 1.524 . S
C1800 C1814 1.377 . S
C1801 C1800 1.524 . S
C1801 C1802 1.397 . S
C1801 C1806 1.363 . S
C1802 H1779 0.950 . S
C1802 C1801 1.397 . S
C1802 C1803 1.334 . S
C1803 H1780 0.950 . S
C1803 C1802 1.334 . S
C1803 C1804 1.287 . S
C1804 C1803 1.287 . S
C1804 C1805 1.524 . S
C1804 H1823 0.913 . S
C1805 H1781 0.950 . S
C1805 C1804 1.524 . S
C1805 C1806 1.415 . S
C1806 H1782 0.950 . S
C1806 C1801 1.363 . S
C1806 C1805 1.415 . S
C1807 H1783 0.951 . S
C1807 C1808 1.366 . S
C1807 C1809 1.388 . S
C1808 C1807 1.366 . S
C1808 C1812 1.385 . S
C1809 H1784 0.951 1_455 S
C1809 C1807 1.388 . S
C1809 C1810 1.366 . S
C1810 C1809 1.366 . S
C1810 C1811 1.414 . S
C1810 C1813 1.499 . S
C1811 H1785 0.950 . S
C1811 C1810 1.414 . S
C1811 C1812 1.374 . S
C1812 H1786 0.950 . S
C1812 C1808 1.385 . S
C1812 C1811 1.374 . S
C1813 C1810 1.499 . S
C1813 C1814 1.373 . S
C1813 C1815 1.389 1_455 S
C1814 H1787 0.950 . S
C1814 C1800 1.377 . S
C1814 C1813 1.373 . S
C1815 C1799 1.377 . S
C1815 C1813 1.389 1_655 S
C1815 C1816 1.524 . S
C1816 C1815 1.524 . S
C1816 C1817 1.397 . S
C1816 C1821 1.363 . S
C1817 H1788 0.950 . S
C1817 C1816 1.397 . S
C1817 C1818 1.334 . S
C1818 H1789 0.950 . S
C1818 C1817 1.334 . S
C1818 C1819 1.287 . S
C1819 C1818 1.287 . S
C1819 C1820 1.524 . S
C1819 H1822 0.999 . S
C1820 H1790 0.950 . S
C1820 C1819 1.524 . S
C1820 C1821 1.415 . S
C1821 H1791 0.950 . S
C1821 C1816 1.363 . S
C1821 C1820 1.415 . S
H1822 C1819 0.999 . S
H1823 C1804 0.913 . S
C243 C68 0.841 . S
C258 C12 0.841 . S
C293 C26 0.840 . S
C308 C82 0.840 . S
C343 C96 0.839 . S
C358 C40 0.839 . S
C393 C110 0.841 . S
C408 C54 0.841 . S
C443 C180 0.840 . S
C458 C124 0.840 . S
C493 C138 0.839 . S
C508 C194 0.839 . S
C543 C208 0.839 . S
C558 C152 0.840 . S
C593 C166 0.840 . S
C608 C222 0.841 . S
C643 C5 0.986 . S
C658 C215 0.983 . S
C693 C19 0.984 . S
C708 C173 0.984 . S
C743 C33 0.985 . S
C758 C187 0.984 . S
C793 C201 0.985 . S
C808 C47 0.985 . S
C843 C61 0.986 . S
C858 C131 0.984 . S
C893 C75 0.986 . S
C908 C145 0.983 . S
C943 C159 0.984 . S
C958 C89 0.984 . S
C993 C117 0.983 . S
C1008 C103 0.986 . S
C1043 C11 1.423 . S
C1058 C151 1.423 . S
C1093 C165 1.423 . S
C1108 C25 1.422 . S
C1143 C39 1.423 . S
C1158 C123 1.423 . S
C1193 C137 1.422 . S
C1208 C53 1.423 . S
C1243 C67 1.422 . S
C1258 C207 1.423 . S
C1293 C81 1.423 . S
C1308 C221 1.423 . S
C1343 C179 1.423 . S
C1358 C95 1.422 . S
C1393 C193 1.423 . S
C1408 C109 1.423 . S
C1443 C144 1.573 . S
C1458 C4 1.572 . S
C1493 C18 1.573 . S
C1508 C158 1.573 . S
C1543 C32 1.573 . S
C1558 C116 1.572 . S
C1593 C130 1.573 . S
C1608 C46 1.574 . S
C1643 C200 1.573 . S
C1658 C60 1.574 . S
C1693 C214 1.572 . S
C1708 C74 1.573 . S
C1743 C172 1.573 . S
C1758 C88 1.574 . S
C1793 C102 1.572 . S
C1808 C186 1.573 . S
