# Generated by pormake.
# Topology utc, (3)-cn, num edge types: 1
# Building blocks:
#     Node 0, Type 0, BuildingBlock: WUSLED_clean_sbu_0, # of connection points: 3
#     Node 1, Type 0, BuildingBlock: WUSLED_clean_sbu_0, # of connection points: 3
#     Node 2, Type 0, BuildingBlock: WUSLED_clean_sbu_0, # of connection points: 3
#     Node 3, Type 0, BuildingBlock: WUSLED_clean_sbu_0, # of connection points: 3
#     Node 4, Type 0, BuildingBlock: WUSLED_clean_sbu_0, # of connection points: 3
#     Node 5, Type 0, BuildingBlock: WUSLED_clean_sbu_0, # of connection points: 3
#     Node 6, Type 0, BuildingBlock: WUSLED_clean_sbu_0, # of connection points: 3
#     Node 7, Type 0, BuildingBlock: WUSLED_clean_sbu_0, # of connection points: 3
#     Node 8, Type 0, BuildingBlock: WUSLED_clean_sbu_0, # of connection points: 3
#     Node 9, Type 0, BuildingBlock: WUSLED_clean_sbu_0, # of connection points: 3
#     Node 10, Type 0, BuildingBlock: WUSLED_clean_sbu_0, # of connection points: 3
#     Node 11, Type 0, BuildingBlock: WUSLED_clean_sbu_0, # of connection points: 3
#     Node 12, Type 0, BuildingBlock: WUSLED_clean_sbu_0, # of connection points: 3
#     Node 13, Type 0, BuildingBlock: WUSLED_clean_sbu_0, # of connection points: 3
#     Node 14, Type 0, BuildingBlock: WUSLED_clean_sbu_0, # of connection points: 3
#     Node 15, Type 0, BuildingBlock: WUSLED_clean_sbu_0, # of connection points: 3
#     Node 16, Type 0, BuildingBlock: WUSLED_clean_sbu_0, # of connection points: 3
#     Node 17, Type 0, BuildingBlock: WUSLED_clean_sbu_0, # of connection points: 3
#     Node 18, Type 0, BuildingBlock: WUSLED_clean_sbu_0, # of connection points: 3
#     Node 19, Type 0, BuildingBlock: WUSLED_clean_sbu_0, # of connection points: 3
#     Node 20, Type 0, BuildingBlock: WUSLED_clean_sbu_0, # of connection points: 3
#     Node 21, Type 0, BuildingBlock: WUSLED_clean_sbu_0, # of connection points: 3
#     Node 22, Type 0, BuildingBlock: WUSLED_clean_sbu_0, # of connection points: 3
#     Node 23, Type 0, BuildingBlock: WUSLED_clean_sbu_0, # of connection points: 3
#     Node 24, Type 0, BuildingBlock: WUSLED_clean_sbu_0, # of connection points: 3
#     Node 25, Type 0, BuildingBlock: WUSLED_clean_sbu_0, # of connection points: 3
#     Node 26, Type 0, BuildingBlock: WUSLED_clean_sbu_0, # of connection points: 3
#     Node 27, Type 0, BuildingBlock: WUSLED_clean_sbu_0, # of connection points: 3
#     Node 28, Type 0, BuildingBlock: WUSLED_clean_sbu_0, # of connection points: 3
#     Node 29, Type 0, BuildingBlock: WUSLED_clean_sbu_0, # of connection points: 3
#     Node 30, Type 0, BuildingBlock: WUSLED_clean_sbu_0, # of connection points: 3
#     Node 31, Type 0, BuildingBlock: WUSLED_clean_sbu_0, # of connection points: 3
#     Node 32, Type 0, BuildingBlock: WUSLED_clean_sbu_0, # of connection points: 3
#     Node 33, Type 0, BuildingBlock: WUSLED_clean_sbu_0, # of connection points: 3
#     Node 34, Type 0, BuildingBlock: WUSLED_clean_sbu_0, # of connection points: 3
#     Node 35, Type 0, BuildingBlock: WUSLED_clean_sbu_0, # of connection points: 3
#     Node 36, Type 0, BuildingBlock: WUSLED_clean_sbu_0, # of connection points: 3
#     Node 37, Type 0, BuildingBlock: WUSLED_clean_sbu_0, # of connection points: 3
#     Node 38, Type 0, BuildingBlock: WUSLED_clean_sbu_0, # of connection points: 3
#     Node 39, Type 0, BuildingBlock: WUSLED_clean_sbu_0, # of connection points: 3
#     Node 40, Type 0, BuildingBlock: WUSLED_clean_sbu_0, # of connection points: 3
#     Node 41, Type 0, BuildingBlock: WUSLED_clean_sbu_0, # of connection points: 3
#     Node 42, Type 0, BuildingBlock: WUSLED_clean_sbu_0, # of connection points: 3
#     Node 43, Type 0, BuildingBlock: WUSLED_clean_sbu_0, # of connection points: 3
#     Node 44, Type 0, BuildingBlock: WUSLED_clean_sbu_0, # of connection points: 3
#     Node 45, Type 0, BuildingBlock: WUSLED_clean_sbu_0, # of connection points: 3
#     Node 46, Type 0, BuildingBlock: WUSLED_clean_sbu_0, # of connection points: 3
#     Node 47, Type 0, BuildingBlock: WUSLED_clean_sbu_0, # of connection points: 3
#     Edge 48, Type (0, 0), BuildingBlock: UVAHIK_clean_linker_0, # of connection points: 2
#     Edge 49, Type (0, 0), BuildingBlock: UVAHIK_clean_linker_0, # of connection points: 2
#     Edge 50, Type (0, 0), BuildingBlock: UVAHIK_clean_linker_0, # of connection points: 2
#     Edge 51, Type (0, 0), BuildingBlock: UVAHIK_clean_linker_0, # of connection points: 2
#     Edge 52, Type (0, 0), BuildingBlock: UVAHIK_clean_linker_0, # of connection points: 2
#     Edge 53, Type (0, 0), BuildingBlock: UVAHIK_clean_linker_0, # of connection points: 2
#     Edge 54, Type (0, 0), BuildingBlock: UVAHIK_clean_linker_0, # of connection points: 2
#     Edge 55, Type (0, 0), BuildingBlock: UVAHIK_clean_linker_0, # of connection points: 2
#     Edge 56, Type (0, 0), BuildingBlock: UVAHIK_clean_linker_0, # of connection points: 2
#     Edge 57, Type (0, 0), BuildingBlock: UVAHIK_clean_linker_0, # of connection points: 2
#     Edge 58, Type (0, 0), BuildingBlock: UVAHIK_clean_linker_0, # of connection points: 2
#     Edge 59, Type (0, 0), BuildingBlock: UVAHIK_clean_linker_0, # of connection points: 2
#     Edge 60, Type (0, 0), BuildingBlock: UVAHIK_clean_linker_0, # of connection points: 2
#     Edge 61, Type (0, 0), BuildingBlock: UVAHIK_clean_linker_0, # of connection points: 2
#     Edge 62, Type (0, 0), BuildingBlock: UVAHIK_clean_linker_0, # of connection points: 2
#     Edge 63, Type (0, 0), BuildingBlock: UVAHIK_clean_linker_0, # of connection points: 2
#     Edge 64, Type (0, 0), BuildingBlock: UVAHIK_clean_linker_0, # of connection points: 2
#     Edge 65, Type (0, 0), BuildingBlock: UVAHIK_clean_linker_0, # of connection points: 2
#     Edge 66, Type (0, 0), BuildingBlock: UVAHIK_clean_linker_0, # of connection points: 2
#     Edge 67, Type (0, 0), BuildingBlock: UVAHIK_clean_linker_0, # of connection points: 2
#     Edge 68, Type (0, 0), BuildingBlock: UVAHIK_clean_linker_0, # of connection points: 2
#     Edge 69, Type (0, 0), BuildingBlock: UVAHIK_clean_linker_0, # of connection points: 2
#     Edge 70, Type (0, 0), BuildingBlock: UVAHIK_clean_linker_0, # of connection points: 2
#     Edge 71, Type (0, 0), BuildingBlock: UVAHIK_clean_linker_0, # of connection points: 2
#     Edge 72, Type (0, 0), BuildingBlock: UVAHIK_clean_linker_0, # of connection points: 2
#     Edge 73, Type (0, 0), BuildingBlock: UVAHIK_clean_linker_0, # of connection points: 2
#     Edge 74, Type (0, 0), BuildingBlock: UVAHIK_clean_linker_0, # of connection points: 2
#     Edge 75, Type (0, 0), BuildingBlock: UVAHIK_clean_linker_0, # of connection points: 2
#     Edge 76, Type (0, 0), BuildingBlock: UVAHIK_clean_linker_0, # of connection points: 2
#     Edge 77, Type (0, 0), BuildingBlock: UVAHIK_clean_linker_0, # of connection points: 2
#     Edge 78, Type (0, 0), BuildingBlock: UVAHIK_clean_linker_0, # of connection points: 2
#     Edge 79, Type (0, 0), BuildingBlock: UVAHIK_clean_linker_0, # of connection points: 2
#     Edge 80, Type (0, 0), BuildingBlock: UVAHIK_clean_linker_0, # of connection points: 2
#     Edge 81, Type (0, 0), BuildingBlock: UVAHIK_clean_linker_0, # of connection points: 2
#     Edge 82, Type (0, 0), BuildingBlock: UVAHIK_clean_linker_0, # of connection points: 2
#     Edge 83, Type (0, 0), BuildingBlock: UVAHIK_clean_linker_0, # of connection points: 2
#     Edge 84, Type (0, 0), BuildingBlock: UVAHIK_clean_linker_0, # of connection points: 2
#     Edge 85, Type (0, 0), BuildingBlock: UVAHIK_clean_linker_0, # of connection points: 2
#     Edge 86, Type (0, 0), BuildingBlock: UVAHIK_clean_linker_0, # of connection points: 2
#     Edge 87, Type (0, 0), BuildingBlock: UVAHIK_clean_linker_0, # of connection points: 2
#     Edge 88, Type (0, 0), BuildingBlock: UVAHIK_clean_linker_0, # of connection points: 2
#     Edge 89, Type (0, 0), BuildingBlock: UVAHIK_clean_linker_0, # of connection points: 2
#     Edge 90, Type (0, 0), BuildingBlock: UVAHIK_clean_linker_0, # of connection points: 2
#     Edge 91, Type (0, 0), BuildingBlock: UVAHIK_clean_linker_0, # of connection points: 2
#     Edge 92, Type (0, 0), BuildingBlock: UVAHIK_clean_linker_0, # of connection points: 2
#     Edge 93, Type (0, 0), BuildingBlock: UVAHIK_clean_linker_0, # of connection points: 2
#     Edge 94, Type (0, 0), BuildingBlock: UVAHIK_clean_linker_0, # of connection points: 2
#     Edge 95, Type (0, 0), BuildingBlock: UVAHIK_clean_linker_0, # of connection points: 2
#     Edge 96, Type (0, 0), BuildingBlock: UVAHIK_clean_linker_0, # of connection points: 2
#     Edge 97, Type (0, 0), BuildingBlock: UVAHIK_clean_linker_0, # of connection points: 2
#     Edge 98, Type (0, 0), BuildingBlock: UVAHIK_clean_linker_0, # of connection points: 2
#     Edge 99, Type (0, 0), BuildingBlock: UVAHIK_clean_linker_0, # of connection points: 2
#     Edge 100, Type (0, 0), BuildingBlock: UVAHIK_clean_linker_0, # of connection points: 2
#     Edge 101, Type (0, 0), BuildingBlock: UVAHIK_clean_linker_0, # of connection points: 2
#     Edge 102, Type (0, 0), BuildingBlock: UVAHIK_clean_linker_0, # of connection points: 2
#     Edge 103, Type (0, 0), BuildingBlock: UVAHIK_clean_linker_0, # of connection points: 2
#     Edge 104, Type (0, 0), BuildingBlock: UVAHIK_clean_linker_0, # of connection points: 2
#     Edge 105, Type (0, 0), BuildingBlock: UVAHIK_clean_linker_0, # of connection points: 2
#     Edge 106, Type (0, 0), BuildingBlock: UVAHIK_clean_linker_0, # of connection points: 2
#     Edge 107, Type (0, 0), BuildingBlock: UVAHIK_clean_linker_0, # of connection points: 2
#     Edge 108, Type (0, 0), BuildingBlock: UVAHIK_clean_linker_0, # of connection points: 2
#     Edge 109, Type (0, 0), BuildingBlock: UVAHIK_clean_linker_0, # of connection points: 2
#     Edge 110, Type (0, 0), BuildingBlock: UVAHIK_clean_linker_0, # of connection points: 2
#     Edge 111, Type (0, 0), BuildingBlock: UVAHIK_clean_linker_0, # of connection points: 2
#     Edge 112, Type (0, 0), BuildingBlock: UVAHIK_clean_linker_0, # of connection points: 2
#     Edge 113, Type (0, 0), BuildingBlock: UVAHIK_clean_linker_0, # of connection points: 2
#     Edge 114, Type (0, 0), BuildingBlock: UVAHIK_clean_linker_0, # of connection points: 2
#     Edge 115, Type (0, 0), BuildingBlock: UVAHIK_clean_linker_0, # of connection points: 2
#     Edge 116, Type (0, 0), BuildingBlock: UVAHIK_clean_linker_0, # of connection points: 2
#     Edge 117, Type (0, 0), BuildingBlock: UVAHIK_clean_linker_0, # of connection points: 2
#     Edge 118, Type (0, 0), BuildingBlock: UVAHIK_clean_linker_0, # of connection points: 2
#     Edge 119, Type (0, 0), BuildingBlock: UVAHIK_clean_linker_0, # of connection points: 2
# Relax obj value: 0.085
# Max RMSD: 0.110
# Mean RMSD: 0.093
data_MOF--net-utc--node1-WUSLED_clean_sbu_0--edge1-UVAHIK_clean_linker_0
_symmetry_space_group_name_H-M    P1
_symmetry_Int_Tables_number       1
_symmetry_cell_setting            triclinic
loop_
_symmetry_equiv_pos_as_xyz
'x, y, z'
_cell_length_a     136.08226
_cell_length_b     136.23491
_cell_length_c     136.1518
_cell_angle_alpha  89.388913
_cell_angle_beta   89.444237
_cell_angle_gamma 89.370089
loop_
_atom_site_label
_atom_site_type_symbol
_atom_site_fract_x
_atom_site_fract_y
_atom_site_fract_z
_atom_type_partial_charge
C0 C 0.06475 0.18755 0.3838 0.0
C1 C 0.05588 0.18851 0.3787 0.0
C2 C 0.05313 0.20475 0.38557 0.0
C3 C 0.05014 0.19701 0.37956 0.0
C4 C 0.06209 0.20379 0.39061 0.0
C5 C 0.06785 0.19524 0.38974 0.0
U6 U 0.06657 0.16223 0.37367 0.0
O7 O 0.07863 0.15378 0.36685 0.0
O8 O 0.07125 0.14805 0.3801 0.0
C9 C 0.07847 0.14692 0.37371 0.0
C10 C 0.07056 0.17842 0.38297 0.0
C11 C 0.08805 0.144 0.37782 0.0
C12 C 0.10393 0.14793 0.38474 0.0
C13 C 0.09473 0.15096 0.38118 0.0
C14 C 0.09974 0.13099 0.38175 0.0
C15 C 0.10658 0.1379 0.38498 0.0
C16 C 0.09059 0.13402 0.3782 0.0
C17 C 0.04388 0.15535 0.35821 0.0
C18 C 0.04221 0.142 0.34665 0.0
C19 C 0.02789 0.15149 0.35164 0.0
C20 C 0.03375 0.15715 0.35767 0.0
C21 C 0.03204 0.14388 0.34601 0.0
C22 C 0.0481 0.14769 0.35273 0.0
C23 C 0.04981 0.16185 0.36426 0.0
O24 O 0.06658 0.17075 0.38731 0.0
O25 O 0.07389 0.17654 0.37408 0.0
O26 O 0.05803 0.16507 0.36029 0.0
O27 O 0.05067 0.15935 0.37356 0.0
H28 H 0.05338 0.18264 0.37406 0.0
H29 H 0.04338 0.19755 0.37544 0.0
H30 H 0.06456 0.20957 0.39535 0.0
H31 H 0.07466 0.1946 0.39375 0.0
H32 H 0.10904 0.15345 0.3871 0.0
H33 H 0.09288 0.15871 0.38096 0.0
H34 H 0.10144 0.12321 0.38201 0.0
H35 H 0.0855 0.12855 0.3757 0.0
H36 H 0.04562 0.13613 0.34248 0.0
H37 H 0.02012 0.15325 0.35121 0.0
H38 H 0.03039 0.16307 0.36181 0.0
H39 H 0.05592 0.14617 0.35308 0.0
C40 C 0.04175 0.78722 0.63787 0.0
C41 C 0.04245 0.7786 0.63235 0.0
C42 C 0.02661 0.77322 0.63879 0.0
C43 C 0.03497 0.77167 0.63282 0.0
C44 C 0.02603 0.78181 0.64445 0.0
C45 C 0.03354 0.78877 0.64397 0.0
U46 U 0.06424 0.79581 0.62447 0.0
O47 O 0.06877 0.81035 0.61892 0.0
O48 O 0.07811 0.80221 0.62933 0.0
C49 C 0.07663 0.81047 0.62445 0.0
C50 C 0.04943 0.7947 0.63688 0.0
C51 C 0.07833 0.81964 0.62982 0.0
C52 C 0.0784 0.82918 0.64485 0.0
C53 C 0.07625 0.82049 0.63991 0.0
C54 C 0.08453 0.8363 0.62964 0.0
C55 C 0.08261 0.83718 0.63977 0.0
C56 C 0.08242 0.82763 0.62474 0.0
C57 C 0.07244 0.7783 0.60349 0.0
C58 C 0.08148 0.78139 0.58829 0.0
C59 C 0.07935 0.76471 0.59421 0.0
C60 C 0.07412 0.76821 0.60234 0.0
C61 C 0.08301 0.77124 0.58702 0.0
C62 C 0.07625 0.7849 0.59647 0.0
C63 C 0.06616 0.78155 0.61173 0.0
O64 O 0.05836 0.79163 0.63902 0.0
O65 O 0.04909 0.79986 0.62868 0.0
O66 O 0.06067 0.78941 0.61022 0.0
O67 O 0.07012 0.78123 0.6205 0.0
H68 H 0.04874 0.77729 0.62759 0.0
H69 H 0.03575 0.76508 0.62849 0.0
H70 H 0.01965 0.78327 0.64905 0.0
H71 H 0.03286 0.79541 0.64824 0.0
H72 H 0.07674 0.82964 0.65262 0.0
H73 H 0.07304 0.81442 0.64398 0.0
H74 H 0.08789 0.84225 0.62552 0.0
H75 H 0.08412 0.82711 0.61697 0.0
H76 H 0.0843 0.78661 0.58294 0.0
H77 H 0.08026 0.75685 0.59341 0.0
H78 H 0.07118 0.763 0.60764 0.0
H79 H 0.07506 0.79273 0.59723 0.0
C80 C 0.45212 0.84645 0.81005 0.0
C81 C 0.46195 0.84402 0.80787 0.0
C82 C 0.45924 0.82711 0.81312 0.0
C83 C 0.46548 0.83448 0.80945 0.0
C84 C 0.44936 0.82958 0.81525 0.0
C85 C 0.44585 0.83917 0.81373 0.0
U86 U 0.45459 0.87031 0.7962 0.0
O87 O 0.4437 0.88035 0.78958 0.0
O88 O 0.45355 0.88568 0.80099 0.0
C89 C 0.44585 0.88757 0.7955 0.0
C90 C 0.4484 0.85647 0.80818 0.0
C91 C 0.43745 0.89223 0.80059 0.0
C92 C 0.42226 0.89114 0.81008 0.0
C93 C 0.43019 0.88657 0.80527 0.0
C94 C 0.42884 0.90706 0.80569 0.0
C95 C 0.42148 0.90145 0.81035 0.0
C96 C 0.43673 0.90249 0.80086 0.0
C97 C 0.47639 0.87042 0.77741 0.0
C98 C 0.48772 0.88293 0.77155 0.0
C99 C 0.48605 0.8678 0.76255 0.0
C100 C 0.47902 0.86459 0.76936 0.0
C101 C 0.49065 0.87691 0.76367 0.0
C102 C 0.48065 0.8797 0.77837 0.0
C103 C 0.46989 0.86617 0.78504 0.0
O104 O 0.45425 0.86353 0.81092 0.0
O105 O 0.44469 0.85797 0.79941 0.0
O106 O 0.46081 0.8644 0.78245 0.0
O107 O 0.4706 0.86966 0.79397 0.0
H108 H 0.46691 0.84952 0.80495 0.0
H109 H 0.47315 0.83293 0.80788 0.0
H110 H 0.44431 0.82407 0.81796 0.0
H111 H 0.43822 0.84089 0.81536 0.0
H112 H 0.41669 0.88658 0.81347 0.0
H113 H 0.43065 0.87863 0.80518 0.0
H114 H 0.42859 0.915 0.80589 0.0
H115 H 0.44231 0.90697 0.79735 0.0
H116 H 0.49115 0.88996 0.77265 0.0
H117 H 0.488 0.86307 0.75648 0.0
H118 H 0.47583 0.85741 0.76847 0.0
H119 H 0.47875 0.88434 0.78453 0.0
C120 C 0.46505 0.23886 0.0887 0.0
C121 C 0.46599 0.24754 0.08316 0.0
C122 C 0.48354 0.24786 0.08651 0.0
C123 C 0.47514 0.25199 0.08206 0.0
C124 C 0.48253 0.23914 0.09207 0.0
C125 C 0.47336 0.23469 0.09316 0.0
U126 U 0.43783 0.2398 0.08413 0.0
O127 O 0.42749 0.22848 0.07947 0.0
O128 O 0.42515 0.236 0.0935 0.0
C129 C 0.42237 0.2289 0.0877 0.0
C130 C 0.4554 0.23422 0.08982 0.0
C131 C 0.42045 0.21941 0.09255 0.0
C132 C 0.42566 0.20558 0.10275 0.0
C133 C 0.42768 0.2146 0.09815 0.0
C134 C 0.40921 0.20608 0.0961 0.0
C135 C 0.41638 0.20121 0.10179 0.0
C136 C 0.41123 0.21508 0.09154 0.0
C137 C 0.42877 0.26305 0.07013 0.0
C138 C 0.41372 0.26552 0.06089 0.0
C139 C 0.42379 0.27945 0.06491 0.0
C140 C 0.43039 0.27318 0.06974 0.0
C141 C 0.41542 0.2757 0.06035 0.0
C142 C 0.42033 0.25924 0.06576 0.0
C143 C 0.43624 0.25667 0.07474 0.0
O144 O 0.44915 0.2389 0.09556 0.0
O145 O 0.45145 0.23133 0.08158 0.0
O146 O 0.43821 0.24832 0.07035 0.0
O147 O 0.43579 0.25586 0.08436 0.0
H148 H 0.45964 0.25086 0.07965 0.0
H149 H 0.47566 0.25861 0.07761 0.0
H150 H 0.48881 0.23583 0.0957 0.0
H151 H 0.47274 0.228 0.09749 0.0
H152 H 0.43133 0.20209 0.10714 0.0
H153 H 0.43485 0.21783 0.099 0.0
H154 H 0.40206 0.20287 0.09505 0.0
H155 H 0.40558 0.21867 0.08719 0.0
H156 H 0.40729 0.26242 0.05754 0.0
H157 H 0.42541 0.28721 0.06452 0.0
H158 H 0.43688 0.27624 0.07303 0.0
H159 H 0.41893 0.25143 0.06602 0.0
C160 C 0.07583 0.8273 0.13105 0.0
C161 C 0.06989 0.82393 0.13884 0.0
C162 C 0.06158 0.81276 0.12791 0.0
C163 C 0.0629 0.8167 0.1373 0.0
C164 C 0.0676 0.81612 0.12011 0.0
C165 C 0.07466 0.82335 0.12168 0.0
U166 U 0.08308 0.84819 0.14682 0.0
O167 O 0.09723 0.85285 0.15284 0.0
O168 O 0.0886 0.863 0.14361 0.0
C169 C 0.09686 0.86143 0.14835 0.0
C170 C 0.08286 0.83524 0.13274 0.0
C171 C 0.10596 0.86453 0.14333 0.0
C172 C 0.11652 0.86575 0.12885 0.0
C173 C 0.10784 0.86247 0.1334 0.0
C174 C 0.12151 0.87303 0.14414 0.0
C175 C 0.12347 0.87107 0.13419 0.0
C176 C 0.11286 0.86979 0.14865 0.0
C177 C 0.06488 0.85212 0.16881 0.0
C178 C 0.06532 0.8546 0.18649 0.0
C179 C 0.05102 0.85978 0.17727 0.0
C180 C 0.05552 0.85653 0.16861 0.0
C181 C 0.05575 0.85863 0.18635 0.0
C182 C 0.06983 0.85135 0.17781 0.0
C183 C 0.0687 0.84736 0.15981 0.0
O184 O 0.07919 0.84416 0.13172 0.0
O185 O 0.08821 0.83416 0.14068 0.0
O186 O 0.07687 0.84217 0.16054 0.0
O187 O 0.06814 0.85247 0.15159 0.0
H188 H 0.07063 0.82693 0.14613 0.0
H189 H 0.05856 0.81419 0.14352 0.0
H190 H 0.06671 0.81332 0.11276 0.0
H191 H 0.07911 0.82593 0.11556 0.0
H192 H 0.11784 0.86405 0.12119 0.0
H193 H 0.10261 0.85837 0.12917 0.0
H194 H 0.1266 0.87724 0.14844 0.0
H195 H 0.11152 0.87148 0.15631 0.0
H196 H 0.06914 0.85354 0.19336 0.0
H197 H 0.04372 0.86301 0.17687 0.0
H198 H 0.05151 0.85716 0.16179 0.0
H199 H 0.07704 0.84793 0.17823 0.0
C200 C 0.45425 0.78352 0.37866 0.0
C201 C 0.4546 0.77477 0.38418 0.0
C202 C 0.47079 0.7709 0.3774 0.0
C203 C 0.46279 0.76853 0.38357 0.0
C204 C 0.47034 0.77962 0.37177 0.0
C205 C 0.46214 0.7859 0.37242 0.0
U206 U 0.429 0.78802 0.3891 0.0
O207 O 0.4221 0.80098 0.39591 0.0
O208 O 0.41558 0.79455 0.38281 0.0
C209 C 0.41533 0.80179 0.38912 0.0
C210 C 0.44566 0.79012 0.37951 0.0
C211 C 0.41389 0.81168 0.38492 0.0
C212 C 0.41928 0.82537 0.37467 0.0
C213 C 0.42084 0.8159 0.37852 0.0
C214 C 0.40382 0.82645 0.3836 0.0
C215 C 0.41073 0.83076 0.37716 0.0
C216 C 0.40539 0.81702 0.38742 0.0
C217 C 0.41903 0.76672 0.40521 0.0
C218 C 0.40539 0.7673 0.41686 0.0
C219 C 0.41279 0.75166 0.4125 0.0
C220 C 0.41935 0.75648 0.4062 0.0
C221 C 0.40578 0.75701 0.41797 0.0
C222 C 0.41196 0.77212 0.41051 0.0
C223 C 0.42641 0.77152 0.39889 0.0
O224 O 0.43763 0.78693 0.37538 0.0
O225 O 0.44409 0.79361 0.38835 0.0
O226 O 0.43076 0.7792 0.40258 0.0
O227 O 0.42408 0.77267 0.3896 0.0
H228 H 0.44854 0.77279 0.389 0.0
H229 H 0.46282 0.7618 0.38788 0.0
H230 H 0.47642 0.78169 0.36701 0.0
H231 H 0.46198 0.79262 0.3681 0.0
H232 H 0.4247 0.82842 0.36967 0.0
H233 H 0.42745 0.81187 0.37651 0.0
H234 H 0.39725 0.83043 0.38582 0.0
H235 H 0.39997 0.81389 0.39239 0.0
H236 H 0.40001 0.77162 0.42089 0.0
H237 H 0.4134 0.74376 0.41328 0.0
H238 H 0.42479 0.7522 0.40219 0.0
H239 H 0.41159 0.78004 0.40981 0.0
C240 C 0.4608 0.16477 0.6891 0.0
C241 C 0.46904 0.1675 0.6945 0.0
C242 C 0.46908 0.18352 0.68639 0.0
C243 C 0.47313 0.17678 0.69318 0.0
C244 C 0.46076 0.18077 0.68105 0.0
C245 C 0.45666 0.17146 0.68239 0.0
U246 U 0.46336 0.13937 0.69984 0.0
O247 O 0.45269 0.12939 0.70675 0.0
O248 O 0.46085 0.12479 0.69356 0.0
C249 C 0.45374 0.12277 0.69985 0.0
C250 C 0.45676 0.15486 0.69027 0.0
C251 C 0.44457 0.11928 0.69552 0.0
C252 C 0.42889 0.12244 0.6876 0.0
C253 C 0.43763 0.12589 0.69159 0.0
C254 C 0.43401 0.10573 0.69131 0.0
C255 C 0.42695 0.11231 0.68744 0.0
C256 C 0.44272 0.1092 0.69532 0.0
C257 C 0.48693 0.13558 0.71543 0.0
C258 C 0.49574 0.12056 0.71979 0.0
C259 C 0.5 0.13591 0.72742 0.0
C260 C 0.49267 0.14074 0.72207 0.0
C261 C 0.50175 0.1258 0.72622 0.0
C262 C 0.48839 0.12542 0.71441 0.0
C263 C 0.47997 0.14118 0.70929 0.0
O264 O 0.46201 0.14789 0.68608 0.0
O265 O 0.45388 0.15255 0.69924 0.0
O266 O 0.47135 0.14321 0.71325 0.0
O267 O 0.47949 0.13868 0.70001 0.0
H268 H 0.47234 0.16241 0.69971 0.0
H269 H 0.47943 0.1787 0.69753 0.0
H270 H 0.45753 0.18573 0.67568 0.0
H271 H 0.45033 0.16944 0.67811 0.0
H272 H 0.42359 0.12772 0.68479 0.0
H273 H 0.43895 0.13372 0.69167 0.0
H274 H 0.43285 0.09788 0.69117 0.0
H275 H 0.44802 0.10399 0.69826 0.0
H276 H 0.49693 0.11277 0.71868 0.0
H277 H 0.50436 0.14012 0.73244 0.0
H278 H 0.49163 0.14858 0.72297 0.0
H279 H 0.48401 0.12131 0.70932 0.0
C280 C 0.04836 0.24816 0.93048 0.0
C281 C 0.04735 0.25619 0.93679 0.0
C282 C 0.02991 0.25745 0.93312 0.0
C283 C 0.03822 0.26079 0.93811 0.0
C284 C 0.03098 0.24944 0.92673 0.0
C285 C 0.04014 0.24482 0.92544 0.0
U286 U 0.07527 0.24766 0.93622 0.0
O287 O 0.0854 0.2356 0.94023 0.0
O288 O 0.08839 0.24465 0.92713 0.0
C289 C 0.0909 0.23685 0.93234 0.0
C290 C 0.05799 0.24332 0.92923 0.0
C291 C 0.09309 0.22793 0.9267 0.0
C292 C 0.08805 0.2148 0.91594 0.0
C293 C 0.0858 0.22332 0.92123 0.0
C294 C 0.10486 0.21543 0.92157 0.0
C295 C 0.09762 0.21075 0.91604 0.0
C296 C 0.10261 0.22393 0.92683 0.0
C297 C 0.08334 0.269 0.95297 0.0
C298 C 0.09753 0.27022 0.96359 0.0
C299 C 0.08755 0.28464 0.96009 0.0
C300 C 0.08151 0.27905 0.95416 0.0
C301 C 0.09558 0.28029 0.96497 0.0
C302 C 0.09147 0.26461 0.95762 0.0
C303 C 0.0763 0.26327 0.94731 0.0
O304 O 0.06451 0.24847 0.92427 0.0
O305 O 0.06157 0.23929 0.93727 0.0
O306 O 0.07419 0.25448 0.95075 0.0
O307 O 0.07729 0.26361 0.93771 0.0
H308 H 0.05365 0.2589 0.9407 0.0
H309 H 0.03768 0.26703 0.94296 0.0
H310 H 0.02471 0.24664 0.92285 0.0
H311 H 0.0408 0.23863 0.92054 0.0
H312 H 0.08232 0.21145 0.9117 0.0
H313 H 0.0784 0.22632 0.92104 0.0
H314 H 0.11225 0.21244 0.92196 0.0
H315 H 0.10831 0.22737 0.93106 0.0
H316 H 0.10372 0.26667 0.96716 0.0
H317 H 0.08573 0.29233 0.96109 0.0
H318 H 0.07524 0.28255 0.95067 0.0
H319 H 0.09303 0.25685 0.95677 0.0
C320 C 0.38334 0.06396 0.18769 0.0
C321 C 0.37776 0.05542 0.18878 0.0
C322 C 0.38465 0.05244 0.20499 0.0
C323 C 0.3784 0.04972 0.19734 0.0
C324 C 0.3903 0.06098 0.20383 0.0
C325 C 0.38963 0.06671 0.19524 0.0
U326 U 0.37262 0.0669 0.16257 0.0
O327 O 0.36615 0.0796 0.15476 0.0
O328 O 0.37887 0.0718 0.14841 0.0
C329 C 0.37281 0.07935 0.1477 0.0
C330 C 0.38255 0.0699 0.17865 0.0
C331 C 0.37725 0.08882 0.14503 0.0
C332 C 0.38926 0.10164 0.14747 0.0
C333 C 0.3851 0.09266 0.15032 0.0
C334 C 0.37768 0.10302 0.13411 0.0
C335 C 0.38563 0.1069 0.13928 0.0
C336 C 0.37356 0.09407 0.13695 0.0
C337 C 0.3555 0.04567 0.15503 0.0
C338 C 0.35279 0.03551 0.14072 0.0
C339 C 0.3395 0.03841 0.15231 0.0
C340 C 0.34568 0.04421 0.15791 0.0
C341 C 0.34302 0.03386 0.14373 0.0
C342 C 0.35896 0.04136 0.1463 0.0
C343 C 0.36214 0.05086 0.16172 0.0
O344 O 0.38645 0.06584 0.17078 0.0
O345 O 0.3738 0.07374 0.17707 0.0
O346 O 0.35879 0.05909 0.1655 0.0
O347 O 0.3715 0.05121 0.15923 0.0
H348 H 0.3729 0.05315 0.18299 0.0
H349 H 0.37407 0.04311 0.19791 0.0
H350 H 0.39513 0.06332 0.20961 0.0
H351 H 0.394 0.07328 0.19451 0.0
H352 H 0.39541 0.10438 0.15158 0.0
H353 H 0.38804 0.0887 0.1566 0.0
H354 H 0.37456 0.10694 0.1279 0.0
H355 H 0.36746 0.09124 0.13282 0.0
H356 H 0.35569 0.03219 0.13409 0.0
H357 H 0.33206 0.03719 0.1549 0.0
H358 H 0.34285 0.04734 0.16467 0.0
H359 H 0.3665 0.0423 0.14388 0.0
C360 C 0.23903 0.08843 0.46492 0.0
C361 C 0.24765 0.08278 0.46595 0.0
C362 C 0.24802 0.08634 0.48344 0.0
C363 C 0.25209 0.08173 0.47512 0.0
C364 C 0.23936 0.09201 0.48235 0.0
C365 C 0.23491 0.09304 0.47316 0.0
U366 U 0.24023 0.08393 0.43773 0.0
O367 O 0.22911 0.07922 0.42722 0.0
O368 O 0.23647 0.09334 0.42503 0.0
C369 C 0.22952 0.08744 0.42211 0.0
C370 C 0.23445 0.08956 0.45524 0.0
C371 C 0.21999 0.09215 0.41992 0.0
C372 C 0.20427 0.09907 0.42516 0.0
C373 C 0.21343 0.09489 0.42745 0.0
C374 C 0.20823 0.09793 0.40782 0.0
C375 C 0.20152 0.10055 0.4153 0.0
C376 C 0.21736 0.09376 0.41012 0.0
C377 C 0.26358 0.07001 0.42888 0.0
C378 C 0.2661 0.06116 0.41363 0.0
C379 C 0.27993 0.06439 0.42414 0.0
C380 C 0.27367 0.06923 0.43073 0.0
C381 C 0.27622 0.06022 0.41555 0.0
C382 C 0.25983 0.06604 0.42023 0.0
C383 C 0.25718 0.07461 0.43632 0.0
O384 O 0.23916 0.09533 0.44904 0.0
O385 O 0.23162 0.08133 0.45124 0.0
O386 O 0.24882 0.0702 0.43823 0.0
O387 O 0.25633 0.08422 0.43584 0.0
H388 H 0.25093 0.07916 0.45966 0.0
H389 H 0.25865 0.0772 0.4757 0.0
H390 H 0.2361 0.09576 0.48857 0.0
H391 H 0.22829 0.09746 0.47247 0.0
H392 H 0.19925 0.10092 0.43109 0.0
H393 H 0.21535 0.0937 0.43508 0.0
H394 H 0.20644 0.09912 0.40016 0.0
H395 H 0.22236 0.09174 0.40422 0.0
H396 H 0.26303 0.05813 0.40702 0.0
H397 H 0.28764 0.06369 0.42593 0.0
H398 H 0.27669 0.07221 0.43739 0.0
H399 H 0.25205 0.06661 0.41865 0.0
C400 C 0.12311 0.97474 0.72128 0.0
C401 C 0.12828 0.98359 0.72072 0.0
C402 C 0.12133 0.98865 0.73644 0.0
C403 C 0.12738 0.99048 0.72821 0.0
C404 C 0.11619 0.97973 0.737 0.0
C405 C 0.11707 0.97284 0.72946 0.0
U406 U 0.13688 0.96683 0.69875 0.0
O407 O 0.14211 0.95247 0.6935 0.0
O408 O 0.13206 0.96136 0.68443 0.0
C409 C 0.13671 0.95292 0.68554 0.0
C410 C 0.12424 0.9675 0.71338 0.0
C411 C 0.13102 0.94409 0.68324 0.0
C412 C 0.12122 0.93 0.68815 0.0
C413 C 0.12629 0.93853 0.69059 0.0
C414 C 0.12543 0.93262 0.671 0.0
C415 C 0.12074 0.92693 0.67832 0.0
C416 C 0.13051 0.9411 0.67345 0.0
C417 C 0.15809 0.98455 0.69176 0.0
C418 C 0.17121 0.98211 0.67976 0.0
C419 C 0.16928 0.99779 0.68783 0.0
C420 C 0.16121 0.99419 0.69308 0.0
C421 C 0.17441 0.99181 0.68112 0.0
C422 C 0.16309 0.97851 0.68503 0.0
C423 C 0.14979 0.98102 0.69775 0.0
O424 O 0.12227 0.97089 0.70453 0.0
O425 O 0.13241 0.96226 0.71369 0.0
O426 O 0.15124 0.9728 0.70271 0.0
O427 O 0.14108 0.98163 0.69372 0.0
H428 H 0.13307 0.98514 0.7145 0.0
H429 H 0.13157 0.99718 0.72762 0.0
H430 H 0.11143 0.97813 0.74321 0.0
H431 H 0.11305 0.96604 0.73002 0.0
H432 H 0.11761 0.92584 0.69394 0.0
H433 H 0.12655 0.94075 0.6982 0.0
H434 H 0.12534 0.93042 0.66339 0.0
H435 H 0.13414 0.94528 0.66768 0.0
H436 H 0.17495 0.97734 0.67459 0.0
H437 H 0.17162 1.00522 0.68921 0.0
H438 H 0.15746 0.99893 0.69828 0.0
H439 H 0.16076 0.97103 0.68392 0.0
C440 C 0.31082 0.95128 0.91478 0.0
C441 C 0.30383 0.95759 0.91907 0.0
C442 C 0.30375 0.94757 0.93399 0.0
C443 C 0.30034 0.95577 0.92859 0.0
C444 C 0.31078 0.94127 0.92965 0.0
C445 C 0.31429 0.94312 0.92011 0.0
U446 U 0.30787 0.9652 0.89098 0.0
O447 O 0.3186 0.97161 0.88066 0.0
O448 O 0.30848 0.96033 0.87561 0.0
C449 C 0.31622 0.96568 0.87353 0.0
C450 C 0.3142 0.95305 0.90464 0.0
C451 C 0.32447 0.96043 0.86879 0.0
C452 C 0.3395 0.95066 0.8698 0.0
C453 C 0.33164 0.95554 0.87441 0.0
C454 C 0.33301 0.95537 0.8539 0.0
C455 C 0.3403 0.95052 0.85947 0.0
C456 C 0.32519 0.96028 0.85853 0.0
C457 C 0.28647 0.98442 0.89128 0.0
C458 C 0.2755 0.99063 0.87859 0.0
C459 C 0.2766 0.9991 0.89409 0.0
C460 C 0.28359 0.99224 0.89729 0.0
C461 C 0.2723 0.99826 0.88479 0.0
C462 C 0.28252 0.98375 0.88182 0.0
C463 C 0.29291 0.9767 0.89546 0.0
O464 O 0.30794 0.95051 0.89786 0.0
O465 O 0.31808 0.96171 0.90298 0.0
O466 O 0.3021 0.9791 0.897 0.0
O467 O 0.29194 0.96778 0.89203 0.0
H468 H 0.301 0.96387 0.91501 0.0
H469 H 0.29483 0.96068 0.93165 0.0
H470 H 0.31361 0.93495 0.93364 0.0
H471 H 0.31967 0.93817 0.91689 0.0
H472 H 0.34502 0.94712 0.87433 0.0
H473 H 0.33119 0.95555 0.88236 0.0
H474 H 0.33328 0.95528 0.84595 0.0
H475 H 0.31968 0.96395 0.85408 0.0
H476 H 0.2723 0.98975 0.87141 0.0
H477 H 0.27445 1.00499 0.89897 0.0
H478 H 0.28656 0.99289 0.90461 0.0
H479 H 0.28464 0.97777 0.87703 0.0
C480 C 0.38444 0.97741 0.30788 0.0
C481 C 0.37963 0.98656 0.30753 0.0
C482 C 0.38636 0.98971 0.29116 0.0
C483 C 0.38057 0.99265 0.29926 0.0
C484 C 0.39123 0.98053 0.29159 0.0
C485 C 0.39027 0.97444 0.29989 0.0
U486 U 0.37341 0.9733 0.33301 0.0
O487 O 0.3663 0.96045 0.3398 0.0
O488 O 0.37939 0.96671 0.34653 0.0
C489 C 0.37299 0.95954 0.34666 0.0
C490 C 0.38324 0.97095 0.31652 0.0
C491 C 0.37708 0.9496 0.34813 0.0
C492 C 0.38775 0.93607 0.34314 0.0
C493 C 0.38396 0.94556 0.34153 0.0
C494 C 0.37777 0.9346 0.3579 0.0
C495 C 0.38472 0.93048 0.35137 0.0
C496 C 0.374 0.94406 0.35629 0.0
C497 C 0.35747 0.99478 0.3428 0.0
C498 C 0.34579 0.99422 0.35642 0.0
C499 C 0.35022 0.00985 0.34906 0.0
C500 C 0.35652 1.00502 0.3425 0.0
C501 C 0.34473 1.00451 0.35606 0.0
C502 C 0.35214 0.98938 0.34985 0.0
C503 C 0.36382 0.98995 0.33546 0.0
O504 O 0.38728 0.97412 0.3246 0.0
O505 O 0.37428 0.96768 0.31794 0.0
O506 O 0.36008 0.98233 0.33104 0.0
O507 O 0.37307 0.98866 0.3379 0.0
H508 H 0.37507 0.98896 0.31363 0.0
H509 H 0.3766 0.99958 0.29913 0.0
H510 H 0.39583 0.97809 0.28554 0.0
H511 H 0.39405 0.9674 0.30005 0.0
H512 H 0.39315 0.93317 0.33801 0.0
H513 H 0.38641 0.94975 0.33518 0.0
H514 H 0.37512 0.93046 0.36421 0.0
H515 H 0.36865 0.94704 0.36143 0.0
H516 H 0.34175 0.9899 0.36179 0.0
H517 H 0.34949 0.01776 0.34849 0.0
H518 H 0.36055 0.00929 0.33708 0.0
H519 H 0.35282 0.98146 0.3502 0.0
C520 C 0.30227 0.07074 0.59678 0.0
C521 C 0.29397 0.06541 0.59412 0.0
C522 C 0.29421 0.07305 0.57787 0.0
C523 C 0.28998 0.06653 0.58475 0.0
C524 C 0.30257 0.07835 0.58057 0.0
C525 C 0.30657 0.07719 0.58995 0.0
U526 U 0.29947 0.06134 0.62279 0.0
O527 O 0.31007 0.05479 0.63311 0.0
O528 O 0.30225 0.06842 0.63695 0.0
C529 C 0.30919 0.06207 0.63933 0.0
C530 C 0.30622 0.06984 0.60676 0.0
C531 C 0.31847 0.06634 0.64262 0.0
C532 C 0.3344 0.07358 0.63914 0.0
C533 C 0.32555 0.0697 0.63585 0.0
C534 C 0.32912 0.07091 0.65599 0.0
C535 C 0.33633 0.07419 0.64926 0.0
C536 C 0.3203 0.06702 0.65269 0.0
C537 C 0.27569 0.04666 0.62825 0.0
C538 C 0.26361 0.04597 0.64154 0.0
C539 C 0.26564 0.03214 0.63065 0.0
C540 C 0.27302 0.03715 0.62551 0.0
C541 C 0.26071 0.03658 0.6386 0.0
C542 C 0.27103 0.05096 0.63643 0.0
C543 C 0.28261 0.0522 0.62192 0.0
O544 O 0.30112 0.07454 0.61351 0.0
O545 O 0.3088 0.06091 0.60951 0.0
O546 O 0.29109 0.04792 0.61994 0.0
O547 O 0.28335 0.06167 0.62353 0.0
H548 H 0.2905 0.06045 0.59935 0.0
H549 H 0.28347 0.06245 0.58297 0.0
H550 H 0.30605 0.08336 0.57541 0.0
H551 H 0.31297 0.08139 0.5919 0.0
H552 H 0.33981 0.07594 0.63375 0.0
H553 H 0.32425 0.06925 0.62802 0.0
H554 H 0.33026 0.07142 0.66383 0.0
H555 H 0.31489 0.06451 0.65802 0.0
H556 H 0.26003 0.04953 0.64771 0.0
H557 H 0.26351 0.02496 0.62814 0.0
H558 H 0.27643 0.03371 0.61918 0.0
H559 H 0.27293 0.05828 0.63875 0.0
C560 C 0.12932 0.07344 0.82893 0.0
C561 C 0.13483 0.0647 0.82837 0.0
C562 C 0.12567 0.05976 0.814 0.0
C563 C 0.13301 0.05792 0.821 0.0
C564 C 0.12016 0.06856 0.81458 0.0
C565 C 0.12197 0.07534 0.82201 0.0
U566 U 0.14639 0.08153 0.84859 0.0
O567 O 0.15191 0.09602 0.85275 0.0
O568 O 0.14392 0.087 0.86357 0.0
C569 C 0.14809 0.09547 0.86165 0.0
C570 C 0.1315 0.08063 0.83658 0.0
C571 C 0.14273 0.10424 0.86509 0.0
C572 C 0.12909 0.11589 0.86418 0.0
C573 C 0.13401 0.10752 0.86065 0.0
C574 C 0.14156 0.11771 0.87659 0.0
C575 C 0.13279 0.12106 0.87224 0.0
C576 C 0.14646 0.10939 0.87305 0.0
C577 C 0.16937 0.06455 0.85175 0.0
C578 C 0.18726 0.06491 0.85219 0.0
C579 C 0.17849 0.05247 0.86145 0.0
C580 C 0.16956 0.05638 0.85814 0.0
C581 C 0.18745 0.05658 0.85837 0.0
C582 C 0.17833 0.06885 0.84889 0.0
C583 C 0.15996 0.06772 0.84725 0.0
O584 O 0.1312 0.07716 0.84563 0.0
O585 O 0.13927 0.08604 0.83478 0.0
O586 O 0.16003 0.07581 0.84189 0.0
O587 O 0.152 0.06686 0.85272 0.0
H588 H 0.14062 0.06315 0.83359 0.0
H589 H 0.1375 0.05131 0.82067 0.0
H590 H 0.1144 0.07016 0.80935 0.0
H591 H 0.11766 0.08207 0.82232 0.0
H592 H 0.12231 0.11822 0.86071 0.0
H593 H 0.13102 0.10361 0.85449 0.0
H594 H 0.14472 0.12159 0.88267 0.0
H595 H 0.1532 0.10697 0.87654 0.0
H596 H 0.19404 0.06831 0.84976 0.0
H597 H 0.17837 0.04598 0.8661 0.0
H598 H 0.16281 0.0528 0.86033 0.0
H599 H 0.17848 0.07508 0.8439 0.0
C600 C 0.2491 0.92974 0.04753 0.0
C601 C 0.25747 0.93558 0.04647 0.0
C602 C 0.25843 0.93182 0.02905 0.0
C603 C 0.26209 0.93662 0.03732 0.0
C604 C 0.25008 0.92588 0.03018 0.0
C605 C 0.24544 0.92487 0.03936 0.0
U606 U 0.24871 0.93622 0.07423 0.0
O607 O 0.23675 0.9409 0.08417 0.0
O608 O 0.24538 0.92761 0.0876 0.0
C609 C 0.23777 0.93316 0.08995 0.0
C610 C 0.2442 0.92886 0.05716 0.0
C611 C 0.22866 0.92793 0.0924 0.0
C612 C 0.21486 0.9178 0.08782 0.0
C613 C 0.2236 0.92262 0.08531 0.0
C614 C 0.21623 0.92354 0.10453 0.0
C615 C 0.21105 0.91825 0.09746 0.0
C616 C 0.22494 0.92833 0.10201 0.0
C617 C 0.27036 0.95261 0.08201 0.0
C618 C 0.27159 0.96312 0.09626 0.0
C619 C 0.28598 0.95986 0.08615 0.0
C620 C 0.28039 0.95393 0.0801 0.0
C621 C 0.28164 0.96461 0.09425 0.0
C622 C 0.26599 0.95714 0.09019 0.0
C623 C 0.26462 0.94691 0.07501 0.0
O624 O 0.2492 0.92395 0.06384 0.0
O625 O 0.24036 0.93709 0.06049 0.0
O626 O 0.25593 0.9505 0.0727 0.0
O627 O 0.2647 0.93734 0.07631 0.0
H628 H 0.26042 0.93937 0.05273 0.0
H629 H 0.26859 0.94112 0.03675 0.0
H630 H 0.24703 0.92216 0.02393 0.0
H631 H 0.23897 0.92034 0.04006 0.0
H632 H 0.21102 0.91386 0.08218 0.0
H633 H 0.22637 0.92226 0.07783 0.0
H634 H 0.21361 0.92391 0.11205 0.0
H635 H 0.22878 0.93237 0.10759 0.0
H636 H 0.26805 0.96658 0.1025 0.0
H637 H 0.29365 0.96095 0.08428 0.0
H638 H 0.28387 0.95052 0.07379 0.0
H639 H 0.25824 0.95618 0.0918 0.0
C640 C 0.18777 0.3833 0.06392 0.0
C641 C 0.18883 0.37773 0.05537 0.0
C642 C 0.20481 0.385 0.05205 0.0
C643 C 0.19726 0.37856 0.0495 0.0
C644 C 0.20374 0.39053 0.0607 0.0
C645 C 0.19527 0.38969 0.06658 0.0
U646 U 0.16275 0.37243 0.06705 0.0
O647 O 0.15485 0.36628 0.07981 0.0
O648 O 0.1485 0.37879 0.07166 0.0
C649 C 0.14776 0.37291 0.07935 0.0
C650 C 0.17875 0.38251 0.0699 0.0
C651 C 0.14487 0.37755 0.08868 0.0
C652 C 0.14872 0.384 0.10478 0.0
C653 C 0.15181 0.38017 0.09573 0.0
C654 C 0.13176 0.38287 0.0997 0.0
C655 C 0.13864 0.38527 0.10693 0.0
C656 C 0.13485 0.37905 0.09069 0.0
C657 C 0.15539 0.35489 0.04607 0.0
C658 C 0.14112 0.35199 0.03589 0.0
C659 C 0.15283 0.33882 0.03894 0.0
C660 C 0.15836 0.34509 0.04471 0.0
C661 C 0.14423 0.34224 0.03432 0.0
C662 C 0.14663 0.35825 0.04171 0.0
C663 C 0.16203 0.36164 0.0512 0.0
O664 O 0.17085 0.38628 0.06578 0.0
O665 O 0.17725 0.37381 0.07388 0.0
O666 O 0.16574 0.35845 0.05953 0.0
O667 O 0.15952 0.37098 0.05135 0.0
H668 H 0.1831 0.37274 0.05322 0.0
H669 H 0.19789 0.37407 0.043 0.0
H670 H 0.20937 0.39562 0.06283 0.0
H671 H 0.19455 0.39407 0.07314 0.0
H672 H 0.15421 0.38571 0.11019 0.0
H673 H 0.15959 0.37909 0.09431 0.0
H674 H 0.12396 0.38394 0.101 0.0
H675 H 0.12939 0.37712 0.08533 0.0
H676 H 0.13447 0.35481 0.03253 0.0
H677 H 0.1555 0.3314 0.03778 0.0
H678 H 0.16514 0.34235 0.04787 0.0
H679 H 0.14414 0.36577 0.04259 0.0
C680 C 0.72042 0.12252 0.97618 0.0
C681 C 0.71986 0.12822 0.9847 0.0
C682 C 0.73566 0.1217 0.99012 0.0
C683 C 0.72737 0.12779 0.9916 0.0
C684 C 0.73614 0.11589 0.98161 0.0
C685 C 0.72857 0.11633 0.97469 0.0
U686 U 0.69781 0.13588 0.96821 0.0
O687 O 0.69258 0.14134 0.95392 0.0
O688 O 0.68356 0.13105 0.96255 0.0
C689 C 0.68462 0.13595 0.95425 0.0
C690 C 0.71257 0.12339 0.96886 0.0
C691 C 0.68228 0.13062 0.94523 0.0
C692 C 0.687 0.1206 0.93123 0.0
C693 C 0.68939 0.1251 0.9401 0.0
C694 C 0.67035 0.12692 0.93269 0.0
C695 C 0.67747 0.12158 0.92735 0.0
C696 C 0.67273 0.13139 0.94152 0.0
C697 C 0.69069 0.15696 0.98599 0.0
C698 C 0.679 0.17032 0.98334 0.0
C699 C 0.68658 0.16806 0.99925 0.0
C700 C 0.69177 0.15993 0.99572 0.0
C701 C 0.68015 0.1734 0.99311 0.0
C702 C 0.68423 0.16214 0.97981 0.0
C703 C 0.69672 0.14867 0.9825 0.0
O704 O 0.70373 0.1213 0.9722 0.0
O705 O 0.71276 0.13152 0.96357 0.0
O706 O 0.70176 0.15015 0.97434 0.0
O707 O 0.69267 0.13997 0.98303 0.0
H708 H 0.71362 0.13305 0.98599 0.0
H709 H 0.72666 0.13222 0.99813 0.0
H710 H 0.74245 0.11118 0.98022 0.0
H711 H 0.72914 0.11191 0.96813 0.0
H712 H 0.69267 0.11659 0.92728 0.0
H713 H 0.6968 0.12441 0.94287 0.0
H714 H 0.6629 0.12767 0.93003 0.0
H715 H 0.66714 0.13557 0.94541 0.0
H716 H 0.67405 0.17422 0.97845 0.0
H717 H 0.68779 0.1703 0.00675 0.0
H718 H 0.69678 0.15605 1.00057 0.0
H719 H 0.6833 0.15993 0.97226 0.0
C720 C 0.08972 0.46482 0.23938 0.0
C721 C 0.08431 0.4659 0.24813 0.0
C722 C 0.08796 0.48337 0.2483 0.0
C723 C 0.08343 0.47509 0.25254 0.0
C724 C 0.09339 0.48222 0.23952 0.0
C725 C 0.09426 0.47301 0.2351 0.0
U726 U 0.08475 0.43771 0.2405 0.0
O727 O 0.07981 0.42737 0.22933 0.0
O728 O 0.09393 0.42488 0.23666 0.0
C729 C 0.08797 0.42212 0.2297 0.0
C730 C 0.09065 0.45513 0.23478 0.0
C731 C 0.09262 0.41996 0.22015 0.0
C732 C 0.10028 0.42525 0.2048 0.0
C733 C 0.09611 0.42749 0.21398 0.0
C734 C 0.0976 0.40795 0.20798 0.0
C735 C 0.101 0.41545 0.20166 0.0
C736 C 0.09345 0.41019 0.21712 0.0
C737 C 0.07074 0.42896 0.26383 0.0
C738 C 0.06173 0.4138 0.26629 0.0
C739 C 0.06503 0.42425 0.28014 0.0
C740 C 0.06994 0.4308 0.2739 0.0
C741 C 0.06078 0.41571 0.27641 0.0
C742 C 0.06669 0.42036 0.26005 0.0
C743 C 0.07545 0.43635 0.25745 0.0
O744 O 0.09634 0.44882 0.23947 0.0
O745 O 0.08233 0.4513 0.23197 0.0
O746 O 0.07103 0.43838 0.24912 0.0
O747 O 0.08506 0.43572 0.25658 0.0
H748 H 0.08075 0.45964 0.25153 0.0
H749 H 0.07908 0.47572 0.25921 0.0
H750 H 0.09707 0.48841 0.23612 0.0
H751 H 0.0985 0.47229 0.22836 0.0
H752 H 0.10273 0.43121 0.2001 0.0
H753 H 0.09552 0.43508 0.21622 0.0
H754 H 0.09818 0.40032 0.20587 0.0
H755 H 0.09084 0.40429 0.22182 0.0
H756 H 0.05863 0.40723 0.26321 0.0
H757 H 0.06433 0.42603 0.28785 0.0
H758 H 0.07299 0.43741 0.27694 0.0
H759 H 0.06726 0.4188 0.25228 0.0
C760 C 0.84756 0.81003 0.45183 0.0
C761 C 0.84334 0.80382 0.45894 0.0
C762 C 0.82835 0.81375 0.45892 0.0
C763 C 0.83382 0.80565 0.46244 0.0
C764 C 0.83263 0.81996 0.45178 0.0
C765 C 0.84216 0.8181 0.44825 0.0
U766 U 0.87124 0.79583 0.45448 0.0
O767 O 0.88137 0.78941 0.44354 0.0
O768 O 0.88667 0.80044 0.45379 0.0
C769 C 0.88862 0.79517 0.44597 0.0
C770 C 0.85766 0.80819 0.44836 0.0
C771 C 0.89331 0.80048 0.43774 0.0
C772 C 0.89297 0.81329 0.42518 0.0
C773 C 0.88843 0.8083 0.433 0.0
C774 C 0.90729 0.80268 0.42675 0.0
C775 C 0.90247 0.81055 0.42196 0.0
C776 C 0.90274 0.7977 0.43457 0.0
C777 C 0.8709 0.77649 0.47575 0.0
C778 C 0.88353 0.77018 0.48674 0.0
C779 C 0.86802 0.76175 0.4855 0.0
C780 C 0.86486 0.76866 0.47854 0.0
C781 C 0.8773 0.76254 0.48986 0.0
C782 C 0.88035 0.77711 0.47975 0.0
C783 C 0.86675 0.78428 0.46938 0.0
O784 O 0.86453 0.8106 0.45458 0.0
O785 O 0.85919 0.79955 0.44439 0.0
O786 O 0.86511 0.78196 0.4602 0.0
O787 O 0.87028 0.79315 0.47038 0.0
H788 H 0.84744 0.7976 0.46184 0.0
H789 H 0.83081 0.80081 0.46805 0.0
H790 H 0.82858 0.82621 0.44886 0.0
H791 H 0.84533 0.82298 0.44277 0.0
H792 H 0.88909 0.81938 0.42175 0.0
H793 H 0.88113 0.81054 0.43538 0.0
H794 H 0.91453 0.80028 0.42437 0.0
H795 H 0.90659 0.79165 0.43812 0.0
H796 H 0.8907 0.77104 0.48999 0.0
H797 H 0.86312 0.75586 0.48759 0.0
H798 H 0.85755 0.76804 0.47554 0.0
H799 H 0.88516 0.78309 0.4777 0.0
C800 C 0.93138 0.04731 0.2489 0.0
C801 C 0.93759 0.04622 0.257 0.0
C802 C 0.93371 0.02884 0.2582 0.0
C803 C 0.93876 0.03707 0.2616 0.0
C804 C 0.92742 0.03 0.2501 0.0
C805 C 0.92628 0.03917 0.24548 0.0
U806 U 0.93724 0.07419 0.2485 0.0
O807 O 0.9413 0.08434 0.23652 0.0
O808 O 0.92809 0.0873 0.24544 0.0
C809 C 0.93334 0.08979 0.23767 0.0
C810 C 0.93022 0.05696 0.24409 0.0
C811 C 0.92774 0.09192 0.22868 0.0
C812 C 0.92048 0.08675 0.21335 0.0
C813 C 0.92557 0.0845 0.22199 0.0
C814 C 0.91947 0.10382 0.21811 0.0
C815 C 0.9174 0.09645 0.21129 0.0
C816 C 0.92461 0.10157 0.22671 0.0
C817 C 0.9539 0.08227 0.26992 0.0
C818 C 0.96507 0.09601 0.27113 0.0
C819 C 0.96041 0.08684 0.28575 0.0
C820 C 0.95451 0.08082 0.2801 0.0
C821 C 0.96585 0.09444 0.28133 0.0
C822 C 0.95912 0.08998 0.26546 0.0
C823 C 0.94826 0.07521 0.26418 0.0
O824 O 0.92526 0.06348 0.24923 0.0
O825 O 0.93831 0.0605 0.24013 0.0
O826 O 0.95173 0.07307 0.25541 0.0
O827 O 0.93865 0.07621 0.26447 0.0
H828 H 0.94154 0.05246 0.25978 0.0
H829 H 0.94354 0.03647 0.2679 0.0
H830 H 0.9235 0.02379 0.24724 0.0
H831 H 0.92145 0.0399 0.23923 0.0
H832 H 0.9189 0.08089 0.20831 0.0
H833 H 0.92787 0.07698 0.22342 0.0
H834 H 0.91731 0.11138 0.21671 0.0
H835 H 0.92621 0.10739 0.23179 0.0
H836 H 0.96908 0.10187 0.26752 0.0
H837 H 0.96094 0.08532 0.29356 0.0
H838 H 0.95058 0.07487 0.28366 0.0
H839 H 0.95873 0.09125 0.25761 0.0
C840 C 0.29686 0.67301 0.52337 0.0
C841 C 0.29565 0.67964 0.51551 0.0
C842 C 0.27843 0.6752 0.51424 0.0
C843 C 0.28652 0.68075 0.51101 0.0
C844 C 0.2797 0.66853 0.52211 0.0
C845 C 0.28885 0.66746 0.52665 0.0
U846 U 0.32409 0.67745 0.5224 0.0
O847 O 0.33462 0.68179 0.53364 0.0
O848 O 0.33675 0.66786 0.52589 0.0
C849 C 0.33967 0.67352 0.53303 0.0
C850 C 0.30654 0.67174 0.52796 0.0
C851 C 0.3419 0.66851 0.54241 0.0
C852 C 0.33744 0.66358 0.55908 0.0
C853 C 0.33496 0.66802 0.5501 0.0
C854 C 0.35371 0.65984 0.55268 0.0
C855 C 0.34689 0.65951 0.56052 0.0
C856 C 0.35124 0.66432 0.54374 0.0
C857 C 0.33302 0.69185 0.49937 0.0
C858 C 0.34825 0.70078 0.49698 0.0
C859 C 0.33788 0.69747 0.48306 0.0
C860 C 0.33125 0.69262 0.48927 0.0
C861 C 0.34642 0.70167 0.48684 0.0
C862 C 0.34161 0.69588 0.5032 0.0
C863 C 0.32556 0.68717 0.50569 0.0
O864 O 0.31273 0.66607 0.52312 0.0
O865 O 0.31056 0.67987 0.53104 0.0
O866 O 0.3237 0.6914 0.51416 0.0
O867 O 0.32596 0.67755 0.5063 0.0
H868 H 0.3018 0.68392 0.51281 0.0
H869 H 0.28583 0.68584 0.50488 0.0
H870 H 0.2736 0.66421 0.52483 0.0
H871 H 0.28967 0.66228 0.53269 0.0
H872 H 0.33203 0.66353 0.56496 0.0
H873 H 0.32768 0.67119 0.5492 0.0
H874 H 0.36098 0.65663 0.55344 0.0
H875 H 0.35667 0.66456 0.53787 0.0
H876 H 0.35482 0.70385 0.5001 0.0
H877 H 0.33617 0.69813 0.47533 0.0
H878 H 0.32464 0.68959 0.48619 0.0
H879 H 0.34312 0.69533 0.51098 0.0
C880 C 0.07279 0.59696 0.3019 0.0
C881 C 0.06732 0.59422 0.2937 0.0
C882 C 0.07544 0.57819 0.29362 0.0
C883 C 0.06861 0.58493 0.28962 0.0
C884 C 0.08085 0.58096 0.3019 0.0
C885 C 0.07953 0.59028 0.30599 0.0
U886 U 0.06224 0.62248 0.29939 0.0
O887 O 0.05536 0.63247 0.31007 0.0
O888 O 0.06865 0.63698 0.30204 0.0
C889 C 0.06236 0.639 0.30914 0.0
C890 C 0.07165 0.60687 0.30594 0.0
C891 C 0.06671 0.64233 0.31838 0.0
C892 C 0.07354 0.63891 0.33451 0.0
C893 C 0.06954 0.63559 0.32573 0.0
C894 C 0.0721 0.6557 0.32862 0.0
C895 C 0.07486 0.64901 0.33607 0.0
C896 C 0.06804 0.65238 0.31987 0.0
C897 C 0.04675 0.62646 0.27575 0.0
C898 C 0.04244 0.6415 0.26694 0.0
C899 C 0.03484 0.62616 0.26261 0.0
C900 C 0.04014 0.62132 0.26995 0.0
C901 C 0.03605 0.63627 0.26088 0.0
C902 C 0.04778 0.63662 0.27431 0.0
C903 C 0.05284 0.62083 0.28274 0.0
O904 O 0.07592 0.61383 0.30073 0.0
O905 O 0.06268 0.60925 0.30879 0.0
O906 O 0.04882 0.6188 0.29133 0.0
O907 O 0.06213 0.62329 0.28327 0.0
H908 H 0.06209 0.59931 0.29044 0.0
H909 H 0.06422 0.583 0.28335 0.0
H910 H 0.08624 0.57601 0.30509 0.0
H911 H 0.08386 0.5923 0.31228 0.0
H912 H 0.07571 0.63356 0.34004 0.0
H913 H 0.06864 0.62778 0.32467 0.0
H914 H 0.07291 0.66352 0.32962 0.0
H915 H 0.06591 0.65768 0.31428 0.0
H916 H 0.04357 0.64928 0.26577 0.0
H917 H 0.02984 0.62196 0.25821 0.0
H918 H 0.03923 0.61348 0.27098 0.0
H919 H 0.05285 0.64072 0.27873 0.0
C920 C 0.37756 0.4537 0.78376 0.0
C921 C 0.37853 0.45296 0.77352 0.0
C922 C 0.37607 0.47061 0.77167 0.0
C923 C 0.37773 0.46132 0.76752 0.0
C924 C 0.37508 0.47132 0.78194 0.0
C925 C 0.3758 0.46293 0.78793 0.0
U926 U 0.38886 0.42861 0.78761 0.0
O927 O 0.396 0.42169 0.80038 0.0
O928 O 0.38298 0.41493 0.79401 0.0
C929 C 0.38937 0.41478 0.80119 0.0
C930 C 0.3789 0.44498 0.79012 0.0
C931 C 0.38532 0.41301 0.81112 0.0
C932 C 0.37946 0.4188 0.82701 0.0
C933 C 0.38287 0.42076 0.81744 0.0
C934 C 0.38069 0.40135 0.82393 0.0
C935 C 0.37844 0.40906 0.83041 0.0
C936 C 0.38411 0.40332 0.81441 0.0
C937 C 0.40504 0.41936 0.76607 0.0
C938 C 0.41632 0.40541 0.76652 0.0
C939 C 0.4135 0.41418 0.75121 0.0
C940 C 0.40691 0.42047 0.75599 0.0
C941 C 0.41839 0.40664 0.75642 0.0
C942 C 0.4097 0.41174 0.77131 0.0
C943 C 0.39852 0.42651 0.77095 0.0
O944 O 0.3749 0.43687 0.78696 0.0
O945 O 0.38788 0.44363 0.79338 0.0
O946 O 0.40216 0.43086 0.77865 0.0
O947 O 0.38932 0.42389 0.77218 0.0
H948 H 0.38003 0.44592 0.77015 0.0
H949 H 0.37867 0.46054 0.75966 0.0
H950 H 0.37374 0.47836 0.78534 0.0
H951 H 0.3751 0.46365 0.79582 0.0
H952 H 0.37786 0.42491 0.83181 0.0
H953 H 0.38371 0.42831 0.81502 0.0
H954 H 0.37981 0.39377 0.82621 0.0
H955 H 0.3859 0.39724 0.80962 0.0
H956 H 0.42001 0.39973 0.77076 0.0
H957 H 0.41477 0.41522 0.7434 0.0
H958 H 0.40334 0.4263 0.75183 0.0
H959 H 0.40834 0.41078 0.77912 0.0
C960 C 0.51337 0.71353 0.83239 0.0
C961 C 0.50306 0.71432 0.83236 0.0
C962 C 0.50407 0.73203 0.83008 0.0
C963 C 0.49846 0.72349 0.83129 0.0
C964 C 0.51439 0.73122 0.83015 0.0
C965 C 0.51899 0.72205 0.83132 0.0
U966 U 0.51391 0.68674 0.82567 0.0
O967 O 0.52603 0.67707 0.82074 0.0
O968 O 0.51764 0.67339 0.83411 0.0
C969 C 0.52529 0.67129 0.8285 0.0
C970 C 0.5183 0.70385 0.83294 0.0
C971 C 0.53454 0.66915 0.83367 0.0
C972 C 0.54645 0.67274 0.84632 0.0
C973 C 0.53769 0.67501 0.84144 0.0
C974 C 0.54908 0.65884 0.83563 0.0
C975 C 0.55226 0.66462 0.84347 0.0
C976 C 0.54031 0.66108 0.8308 0.0
C977 C 0.49196 0.67875 0.80966 0.0
C978 C 0.49061 0.66519 0.79829 0.0
C979 C 0.47604 0.67429 0.80328 0.0
C980 C 0.48177 0.6802 0.80921 0.0
C981 C 0.48039 0.66678 0.79765 0.0
C982 C 0.49635 0.67112 0.80426 0.0
C983 C 0.49778 0.68573 0.8153 0.0
O984 O 0.51365 0.69703 0.838 0.0
O985 O 0.52192 0.70067 0.82456 0.0
O986 O 0.50636 0.68818 0.81154 0.0
O987 O 0.49793 0.68441 0.82487 0.0
H988 H 0.49856 0.70784 0.83301 0.0
H989 H 0.49051 0.72387 0.83113 0.0
H990 H 0.51889 0.73768 0.8293 0.0
H991 H 0.52694 0.72159 0.83126 0.0
H992 H 0.54874 0.67741 0.85225 0.0
H993 H 0.53336 0.68132 0.84372 0.0
H994 H 0.55331 0.65247 0.83333 0.0
H995 H 0.53799 0.65647 0.82483 0.0
H996 H 0.49417 0.6594 0.79414 0.0
H997 H 0.46822 0.67582 0.80288 0.0
H998 H 0.47825 0.68609 0.81328 0.0
H999 H 0.50422 0.66986 0.80452 0.0
C1000 C 0.59673 0.30222 0.07064 0.0
C1001 C 0.59418 0.29402 0.06511 0.0
C1002 C 0.57795 0.29384 0.07282 0.0
C1003 C 0.58487 0.28988 0.06616 0.0
C1004 C 0.58053 0.30214 0.07827 0.0
C1005 C 0.58985 0.30628 0.07719 0.0
U1006 U 0.62287 0.29952 0.06163 0.0
O1007 O 0.63329 0.3101 0.05526 0.0
O1008 O 0.63692 0.30228 0.06895 0.0
C1009 C 0.63937 0.30925 0.06267 0.0
C1010 C 0.6067 0.30623 0.0699 0.0
C1011 C 0.64253 0.31852 0.06706 0.0
C1012 C 0.63894 0.33487 0.07323 0.0
C1013 C 0.63575 0.32606 0.06919 0.0
C1014 C 0.65568 0.32861 0.07321 0.0
C1015 C 0.64895 0.33625 0.07528 0.0
C1016 C 0.65249 0.31984 0.06912 0.0
C1017 C 0.62853 0.27571 0.04704 0.0
C1018 C 0.64158 0.26336 0.04665 0.0
C1019 C 0.63112 0.26571 0.03252 0.0
C1020 C 0.626 0.27316 0.03744 0.0
C1021 C 0.63884 0.26058 0.03715 0.0
C1022 C 0.63649 0.27086 0.05155 0.0
C1023 C 0.62214 0.28267 0.05249 0.0
O1024 O 0.61341 0.30117 0.07471 0.0
O1025 O 0.60956 0.30882 0.061 0.0
O1026 O 0.62023 0.29114 0.04816 0.0
O1027 O 0.62361 0.28342 0.06198 0.0
H1028 H 0.59943 0.29076 0.06004 0.0
H1029 H 0.5831 0.2836 0.06174 0.0
H1030 H 0.57543 0.3053 0.08355 0.0
H1031 H 0.59174 0.31257 0.08158 0.0
H1032 H 0.63357 0.34056 0.07485 0.0
H1033 H 0.62801 0.32514 0.06772 0.0
H1034 H 0.66344 0.32948 0.0746 0.0
H1035 H 0.65782 0.3141 0.06752 0.0
H1036 H 0.64758 0.25963 0.05036 0.0
H1037 H 0.62876 0.26369 0.02525 0.0
H1038 H 0.61983 0.27672 0.03384 0.0
H1039 H 0.63864 0.27265 0.05895 0.0
C1040 C 0.97817 0.30775 0.38422 0.0
C1041 C 0.98706 0.30727 0.37894 0.0
C1042 C 0.9906 0.2911 0.38595 0.0
C1043 C 0.99321 0.29902 0.37978 0.0
C1044 C 0.98168 0.29166 0.39128 0.0
C1045 C 0.97552 0.29992 0.39041 0.0
U1046 U 0.97386 0.33305 0.37363 0.0
O1047 O 0.96088 0.34005 0.36696 0.0
O1048 O 0.96744 0.34647 0.38006 0.0
C1049 C 0.96011 0.34673 0.37384 0.0
C1050 C 0.9717 0.31641 0.38324 0.0
C1051 C 0.95025 0.34816 0.37819 0.0
C1052 C 0.93461 0.34183 0.38416 0.0
C1053 C 0.9441 0.3402 0.38039 0.0
C1054 C 0.93741 0.35936 0.3838 0.0
C1055 C 0.93114 0.35144 0.38588 0.0
C1056 C 0.94685 0.35773 0.37999 0.0
C1057 C 0.99511 0.34303 0.35746 0.0
C1058 C 0.99449 0.35668 0.34583 0.0
C1059 C 0.01017 0.34938 0.35025 0.0
C1060 C 1.00537 0.34278 0.35652 0.0
C1061 C 1.00479 0.35637 0.34477 0.0
C1062 C 0.98968 0.35007 0.35215 0.0
C1063 C 0.99033 0.33563 0.36376 0.0
O1064 O 0.97497 0.32441 0.38734 0.0
O1065 O 0.96824 0.31798 0.37437 0.0
O1066 O 0.9826 0.33133 0.36009 0.0
O1067 O 0.98925 0.33789 0.37307 0.0
H1068 H 0.98921 0.31326 0.37411 0.0
H1069 H 0.99993 0.29879 0.37547 0.0
H1070 H 0.9795 0.28575 0.39618 0.0
H1071 H 0.9687 0.30019 0.39457 0.0
H1072 H 0.93001 0.33557 0.38578 0.0
H1073 H 0.94661 0.33274 0.37912 0.0
H1074 H 0.93494 0.36686 0.38491 0.0
H1075 H 0.95148 0.36396 0.37833 0.0
H1076 H 0.99015 0.36205 0.3418 0.0
H1077 H 0.01809 0.34884 0.34951 0.0
H1078 H 0.00967 0.33737 0.36053 0.0
H1079 H 0.98174 0.3504 0.35282 0.0
C1080 C 0.93417 0.68789 0.63194 0.0
C1081 C 0.93557 0.69552 0.62509 0.0
C1082 C 0.94954 0.7014 0.63431 0.0
C1083 C 0.94316 0.7022 0.62626 0.0
C1084 C 0.94805 0.69377 0.64122 0.0
C1085 C 0.94042 0.68706 0.64003 0.0
U1086 U 0.91357 0.67977 0.61613 0.0
O1087 O 0.90864 0.66529 0.61133 0.0
O1088 O 0.89847 0.67496 0.61944 0.0
C1089 C 0.89997 0.66626 0.61559 0.0
C1090 C 0.9262 0.68086 0.63048 0.0
C1091 C 0.89629 0.65776 0.62133 0.0
C1092 C 0.89863 0.64174 0.62914 0.0
C1093 C 0.90254 0.65013 0.62459 0.0
C1094 C 0.88225 0.64863 0.62754 0.0
C1095 C 0.88841 0.64081 0.63051 0.0
C1096 C 0.88614 0.65698 0.62298 0.0
C1097 C 0.91022 0.69606 0.59264 0.0
C1098 C 0.90982 0.69576 0.57476 0.0
C1099 C 0.90028 0.70797 0.58356 0.0
C1100 C 0.90365 0.70409 0.59247 0.0
C1101 C 0.90347 0.70398 0.57459 0.0
C1102 C 0.91317 0.69186 0.58367 0.0
C1103 C 0.91489 0.693 0.602 0.0
O1104 O 0.91729 0.68468 0.63097 0.0
O1105 O 0.92747 0.67503 0.62293 0.0
O1106 O 0.91993 0.68471 0.60204 0.0
O1107 O 0.90975 0.69436 0.61011 0.0
H1108 H 0.93078 0.6963 0.61881 0.0
H1109 H 0.94397 0.70807 0.62089 0.0
H1110 H 0.95287 0.6929 0.64746 0.0
H1111 H 0.93944 0.6812 0.64538 0.0
H1112 H 0.90359 0.63584 0.63128 0.0
H1113 H 0.91041 0.65053 0.62341 0.0
H1114 H 0.87437 0.64827 0.62864 0.0
H1115 H 0.88118 0.66277 0.62054 0.0
H1116 H 0.91233 0.69244 0.56797 0.0
H1117 H 0.89551 0.71439 0.5837 0.0
H1118 H 0.90137 0.70762 0.59923 0.0
H1119 H 0.91832 0.68574 0.58351 0.0
C1120 C 0.52339 0.29684 0.67214 0.0
C1121 C 0.51474 0.2957 0.6777 0.0
C1122 C 0.51452 0.27827 0.67392 0.0
C1123 C 0.51035 0.28651 0.6786 0.0
C1124 C 0.52322 0.27946 0.66837 0.0
C1125 C 0.52761 0.28868 0.66748 0.0
U1126 U 0.52218 0.32387 0.67736 0.0
O1127 O 0.53335 0.3343 0.68208 0.0
O1128 O 0.52564 0.33681 0.66817 0.0
C1129 C 0.53276 0.33957 0.67396 0.0
C1130 C 0.52792 0.30655 0.67117 0.0
C1131 C 0.54216 0.34187 0.66904 0.0
C1132 C 0.5586 0.33721 0.6635 0.0
C1133 C 0.54959 0.33473 0.6679 0.0
C1134 C 0.55273 0.3539 0.66113 0.0
C1135 C 0.56031 0.34686 0.66014 0.0
C1136 C 0.54377 0.35143 0.66556 0.0
C1137 C 0.49901 0.33205 0.69205 0.0
C1138 C 0.49626 0.34752 0.70044 0.0
C1139 C 0.48303 0.33585 0.6992 0.0
C1140 C 0.48923 0.32951 0.69398 0.0
C1141 C 0.48648 0.34488 0.7026 0.0
C1142 C 0.50248 0.34114 0.69521 0.0
C1143 C 0.50543 0.32488 0.68708 0.0
O1144 O 0.52306 0.31287 0.66565 0.0
O1145 O 0.53091 0.31033 0.67945 0.0
O1146 O 0.51391 0.32298 0.69127 0.0
O1147 O 0.50607 0.32567 0.67747 0.0
H1148 H 0.51139 0.30194 0.68136 0.0
H1149 H 0.50375 0.28584 0.68305 0.0
H1150 H 0.52655 0.2733 0.66458 0.0
H1151 H 0.53427 0.28944 0.66313 0.0
H1152 H 0.56428 0.33161 0.66294 0.0
H1153 H 0.54848 0.32728 0.67052 0.0
H1154 H 0.5537 0.36135 0.65846 0.0
H1155 H 0.53809 0.35702 0.6663 0.0
H1156 H 0.49916 0.35439 0.70301 0.0
H1157 H 0.4755 0.33366 0.70056 0.0
H1158 H 0.48642 0.32254 0.69156 0.0
H1159 H 0.51002 0.34322 0.69376 0.0
C1160 C 0.91612 0.3108 0.95361 0.0
C1161 C 0.92015 0.3035 0.95975 0.0
C1162 C 0.93532 0.30357 0.95011 0.0
C1163 C 0.92967 0.29993 0.95803 0.0
C1164 C 0.93126 0.31094 0.94402 0.0
C1165 C 0.92172 0.31453 0.94577 0.0
U1166 U 0.89162 0.30737 0.96622 0.0
O1167 O 0.88092 0.31792 0.97237 0.0
O1168 O 0.87657 0.30813 0.96052 0.0
C1169 C 0.87411 0.31566 0.96602 0.0
C1170 C 0.90592 0.31417 0.95513 0.0
C1171 C 0.86956 0.32401 0.96078 0.0
C1172 C 0.87012 0.33679 0.9482 0.0
C1173 C 0.87462 0.32896 0.95323 0.0
C1174 C 0.8555 0.33485 0.9583 0.0
C1175 C 0.86048 0.33982 0.95065 0.0
C1176 C 0.86 0.32702 0.9633 0.0
C1177 C 0.89034 0.28499 0.98419 0.0
C1178 C 0.88009 0.27073 0.98729 0.0
C1179 C 0.89004 0.27713 1.00034 0.0
C1180 C 0.89346 0.2845 0.99399 0.0
C1181 C 0.88352 0.27 0.99698 0.0
C1182 C 0.88345 0.27813 0.98096 0.0
C1183 C 0.89523 0.29182 0.97722 0.0
O1184 O 0.89924 0.30814 0.95191 0.0
O1185 O 0.90388 0.31757 0.96392 0.0
O1186 O 0.89663 0.30084 0.98022 0.0
O1187 O 0.89266 0.29137 0.96795 0.0
H1188 H 0.91587 0.30046 0.96578 0.0
H1189 H 0.93252 0.29416 0.96277 0.0
H1190 H 0.93545 0.31396 0.93792 0.0
H1191 H 0.9187 0.32015 0.94094 0.0
H1192 H 0.87413 0.34037 0.94229 0.0
H1193 H 0.88202 0.32672 0.95118 0.0
H1194 H 0.84814 0.33707 0.96049 0.0
H1195 H 0.856 0.3233 0.96914 0.0
H1196 H 0.87496 0.26542 0.98453 0.0
H1197 H 0.89288 0.27672 0.00774 0.0
H1198 H 0.89885 0.28961 0.99665 0.0
H1199 H 0.8809 0.27826 0.97345 0.0
C1200 C 0.97509 0.72133 0.12406 0.0
C1201 C 0.97907 0.72516 0.13268 0.0
C1202 C 0.98874 0.73679 0.12305 0.0
C1203 C 0.98577 0.73284 0.13218 0.0
C1204 C 0.98483 0.73288 0.11442 0.0
C1205 C 0.97802 0.72523 0.11493 0.0
U1206 U 0.96664 0.69835 0.13705 0.0
O1207 O 0.952 0.6929 0.14107 0.0
O1208 O 0.96168 0.68408 0.13154 0.0
C1209 C 0.9529 0.68507 0.13554 0.0
C1210 C 0.9682 0.71305 0.12458 0.0
C1211 C 0.94447 0.6828 0.12923 0.0
C1212 C 0.92967 0.68762 0.12042 0.0
C1213 C 0.93804 0.69014 0.12572 0.0
C1214 C 0.93424 0.67044 0.1218 0.0
C1215 C 0.92762 0.67773 0.11848 0.0
C1216 C 0.94255 0.67296 0.12713 0.0
C1217 C 0.98209 0.69098 0.15992 0.0
C1218 C 0.97977 0.68611 0.17705 0.0
C1219 C 0.99416 0.68047 0.16809 0.0
C1220 C 0.99091 0.68553 0.15972 0.0
C1221 C 0.9887 0.68083 0.1769 0.0
C1222 C 0.97649 0.69114 0.16866 0.0
C1223 C 0.97946 0.69721 0.15133 0.0
O1224 O 0.97217 0.70437 0.12297 0.0
O1225 O 0.96207 0.71311 0.13211 0.0
O1226 O 0.97125 0.70236 0.15189 0.0
O1227 O 0.98102 0.69339 0.14262 0.0
H1228 H 0.97705 0.72215 0.13981 0.0
H1229 H 0.98878 0.73558 0.13895 0.0
H1230 H 0.98695 0.7358 0.10729 0.0
H1231 H 0.97509 0.72233 0.1082 0.0
H1232 H 0.92479 0.69342 0.11787 0.0
H1233 H 0.93938 0.69781 0.1272 0.0
H1234 H 0.93283 0.66274 0.12056 0.0
H1235 H 0.94739 0.66717 0.12981 0.0
H1236 H 0.97534 0.68644 0.1837 0.0
H1237 H 1.00114 0.67659 0.16775 0.0
H1238 H 0.99547 0.6854 0.15315 0.0
H1239 H 0.96969 0.69532 0.16911 0.0
C1240 C 0.57432 0.69677 0.37869 0.0
C1241 C 0.57254 0.70457 0.38514 0.0
C1242 C 0.55667 0.70779 0.37759 0.0
C1243 C 0.56379 0.71 0.38462 0.0
C1244 C 0.55852 0.7 0.37107 0.0
C1245 C 0.56727 0.69452 0.37164 0.0
U1246 U 0.60012 0.69528 0.38803 0.0
O1247 O 0.60888 0.68323 0.39447 0.0
O1248 O 0.61409 0.6907 0.38105 0.0
C1249 C 0.61543 0.6834 0.3873 0.0
C1250 C 0.58365 0.69123 0.37919 0.0
C1251 C 0.61795 0.67384 0.38294 0.0
C1252 C 0.61327 0.65799 0.3765 0.0
C1253 C 0.61065 0.66717 0.38033 0.0
C1254 C 0.63048 0.66214 0.37767 0.0
C1255 C 0.62323 0.65535 0.37515 0.0
C1256 C 0.62786 0.67128 0.38153 0.0
C1257 C 0.60736 0.7178 0.40355 0.0
C1258 C 0.62032 0.71943 0.41559 0.0
C1259 C 0.61177 0.7339 0.40945 0.0
C1260 C 0.60606 0.72801 0.40348 0.0
C1261 C 0.61892 0.72969 0.41564 0.0
C1262 C 0.61459 0.71352 0.40956 0.0
C1263 C 0.60071 0.71188 0.39762 0.0
O1264 O 0.5911 0.69545 0.37469 0.0
O1265 O 0.58589 0.68779 0.38795 0.0
O1266 O 0.59765 0.70361 0.40158 0.0
O1267 O 0.60292 0.71117 0.38824 0.0
H1268 H 0.57795 0.70649 0.39056 0.0
H1269 H 0.56268 0.71604 0.38963 0.0
H1270 H 0.55315 0.69808 0.36562 0.0
H1271 H 0.56856 0.68856 0.36657 0.0
H1272 H 0.60751 0.65298 0.37453 0.0
H1273 H 0.60295 0.66904 0.38131 0.0
H1274 H 0.63821 0.66031 0.37685 0.0
H1275 H 0.63359 0.67633 0.38352 0.0
H1276 H 0.62583 0.71597 0.42019 0.0
H1277 H 0.61038 0.74174 0.40941 0.0
H1278 H 0.60048 0.73144 0.39893 0.0
H1279 H 0.61572 0.70564 0.4097 0.0
C1280 C 0.83214 0.51278 0.71385 0.0
C1281 C 0.83172 0.50251 0.71474 0.0
C1282 C 0.82952 0.50377 0.73244 0.0
C1283 C 0.83048 0.49805 0.72395 0.0
C1284 C 0.82996 0.51405 0.73154 0.0
C1285 C 0.83129 0.51852 0.72232 0.0
U1286 U 0.82586 0.51281 0.68698 0.0
O1287 O 0.82116 0.52463 0.67688 0.0
O1288 O 0.8346 0.51614 0.67369 0.0
C1289 C 0.829 0.52368 0.67123 0.0
C1290 C 0.83289 0.51756 0.70411 0.0
C1291 C 0.83421 0.53283 0.66886 0.0
C1292 C 0.84287 0.54746 0.67381 0.0
C1293 C 0.83812 0.53868 0.67625 0.0
C1294 C 0.83995 0.54453 0.65657 0.0
C1295 C 0.84378 0.55053 0.66393 0.0
C1296 C 0.83521 0.53577 0.65902 0.0
C1297 C 0.80983 0.49087 0.67922 0.0
C1298 C 0.79893 0.48942 0.66528 0.0
C1299 C 0.80307 0.47504 0.67508 0.0
C1300 C 0.80897 0.48077 0.68101 0.0
C1301 C 0.79787 0.47931 0.6672 0.0
C1302 C 0.80488 0.49516 0.67123 0.0
C1303 C 0.81541 0.49675 0.6862 0.0
O1304 O 0.83805 0.51274 0.69747 0.0
O1305 O 0.82459 0.52116 0.70071 0.0
O1306 O 0.81167 0.5054 0.6884 0.0
O1307 O 0.82501 0.4968 0.68501 0.0
H1308 H 0.83219 0.49793 0.70829 0.0
H1309 H 0.83003 0.49012 0.7244 0.0
H1310 H 0.82929 0.51864 0.73796 0.0
H1311 H 0.83153 0.52645 0.72178 0.0
H1312 H 0.84565 0.55194 0.67967 0.0
H1313 H 0.83742 0.5365 0.6839 0.0
H1314 H 0.84066 0.54656 0.64889 0.0
H1315 H 0.83229 0.53131 0.65321 0.0
H1316 H 0.79512 0.49291 0.6592 0.0
H1317 H 0.80233 0.46732 0.67686 0.0
H1318 H 0.8127 0.47734 0.68718 0.0
H1319 H 0.80547 0.50295 0.66971 0.0
C1320 C 0.68655 0.63285 0.93406 0.0
C1321 C 0.69573 0.62806 0.93424 0.0
C1322 C 0.70008 0.63671 0.94911 0.0
C1323 C 0.70243 0.62998 0.94166 0.0
C1324 C 0.69082 0.64145 0.94896 0.0
C1325 C 0.68412 0.63955 0.94147 0.0
U1326 U 0.68008 0.61612 0.91371 0.0
O1327 O 0.66618 0.60979 0.90877 0.0
O1328 O 0.67508 0.61869 0.89858 0.0
C1329 C 0.66681 0.61397 0.90003 0.0
C1330 C 0.67955 0.63058 0.92625 0.0
C1331 C 0.65788 0.61899 0.89649 0.0
C1332 C 0.64552 0.63199 0.89754 0.0
C1333 C 0.65394 0.62726 0.90124 0.0
C1334 C 0.64494 0.6202 0.88436 0.0
C1335 C 0.64096 0.62854 0.88901 0.0
C1336 C 0.65332 0.61549 0.88807 0.0
C1337 C 0.69939 0.59497 0.91101 0.0
C1338 C 0.69851 0.57993 0.9016 0.0
C1339 C 0.71375 0.58439 0.90938 0.0
C1340 C 0.70927 0.59288 0.91299 0.0
C1341 C 0.70845 0.57779 0.90365 0.0
C1342 C 0.69402 0.58849 0.90525 0.0
C1343 C 0.69497 0.6038 0.91537 0.0
O1344 O 0.6831 0.6315 0.91727 0.0
O1345 O 0.67467 0.6224 0.92763 0.0
O1346 O 0.68658 0.60269 0.9201 0.0
O1347 O 0.69532 0.61188 0.91003 0.0
H1348 H 0.6977 0.62277 0.92865 0.0
H1349 H 0.7094 0.62606 0.94164 0.0
H1350 H 0.68882 0.6467 0.95457 0.0
H1351 H 0.67705 0.64328 0.94147 0.0
H1352 H 0.64269 0.63843 0.90125 0.0
H1353 H 0.6574 0.63008 0.90774 0.0
H1354 H 0.64154 0.61724 0.87789 0.0
H1355 H 0.65625 0.6091 0.88432 0.0
H1356 H 0.69424 0.57504 0.89716 0.0
H1357 H 0.72133 0.5829 0.91128 0.0
H1358 H 0.71351 0.59778 0.91748 0.0
H1359 H 0.68636 0.59001 0.90364 0.0
C1360 C 0.68997 0.46028 0.16506 0.0
C1361 C 0.69548 0.46843 0.16782 0.0
C1362 C 0.68747 0.46845 0.18389 0.0
C1363 C 0.69426 0.47246 0.17715 0.0
C1364 C 0.68202 0.46021 0.18111 0.0
C1365 C 0.68326 0.45617 0.17175 0.0
U1366 U 0.70025 0.46312 0.1395 0.0
O1367 O 0.70704 0.4526 0.12928 0.0
O1368 O 0.6937 0.46071 0.125 0.0
C1369 C 0.69997 0.45363 0.12282 0.0
C1370 C 0.69101 0.45634 0.15509 0.0
C1371 C 0.69556 0.44446 0.11945 0.0
C1372 C 0.68829 0.42854 0.12285 0.0
C1373 C 0.69241 0.43725 0.12618 0.0
C1374 C 0.69028 0.43422 0.10603 0.0
C1375 C 0.68718 0.42692 0.11273 0.0
C1376 C 0.69445 0.4429 0.10937 0.0
C1377 C 0.71559 0.48682 0.13571 0.0
C1378 C 0.72006 0.49535 0.12056 0.0
C1379 C 0.727 0.50037 0.13602 0.0
C1380 C 0.7218 0.49298 0.1409 0.0
C1381 C 0.72607 0.50176 0.12582 0.0
C1382 C 0.71483 0.48794 0.12548 0.0
C1383 C 0.70961 0.47975 0.14132 0.0
O1384 O 0.68665 0.46162 0.14823 0.0
O1385 O 0.69996 0.45354 0.1526 0.0
O1386 O 0.71368 0.47115 0.14316 0.0
O1387 O 0.70029 0.47924 0.13894 0.0
H1388 H 0.70069 0.47171 0.16272 0.0
H1389 H 0.69868 0.47869 0.17909 0.0
H1390 H 0.67665 0.45701 0.18607 0.0
H1391 H 0.67891 0.44992 0.16971 0.0
H1392 H 0.68587 0.42312 0.1282 0.0
H1393 H 0.69315 0.43836 0.13401 0.0
H1394 H 0.68963 0.43316 0.09819 0.0
H1395 H 0.69683 0.44838 0.10407 0.0
H1396 H 0.71917 0.49626 0.11271 0.0
H1397 H 0.7317 0.50505 0.14026 0.0
H1398 H 0.7225 0.4922 0.14879 0.0
H1399 H 0.71006 0.48323 0.12135 0.0
C1400 C 0.78382 0.37666 0.45427 0.0
C1401 C 0.77474 0.38162 0.4547 0.0
C1402 C 0.77147 0.37463 0.47093 0.0
C1403 C 0.76863 0.38062 0.46295 0.0
C1404 C 0.78057 0.36962 0.47043 0.0
C1405 C 0.78669 0.37063 0.46215 0.0
U1406 U 0.78793 0.38819 0.42942 0.0
O1407 O 0.80076 0.39534 0.42267 0.0
O1408 O 0.79438 0.38246 0.41569 0.0
C1409 C 0.80158 0.38881 0.41565 0.0
C1410 C 0.79028 0.37792 0.44564 0.0
C1411 C 0.81152 0.38475 0.41398 0.0
C1412 C 0.82683 0.37766 0.42001 0.0
C1413 C 0.81721 0.38104 0.42175 0.0
C1414 C 0.82506 0.38147 0.40269 0.0
C1415 C 0.83092 0.37795 0.41046 0.0
C1416 C 0.81547 0.38484 0.40445 0.0
C1417 C 0.7665 0.40477 0.42048 0.0
C1418 C 0.76675 0.41549 0.4061 0.0
C1419 C 0.75191 0.41411 0.41598 0.0
C1420 C 0.75667 0.40742 0.4222 0.0
C1421 C 0.75691 0.41831 0.40791 0.0
C1422 C 0.77152 0.40877 0.41236 0.0
C1423 C 0.77136 0.39807 0.42747 0.0
O1424 O 0.78699 0.37414 0.43748 0.0
O1425 O 0.79372 0.38683 0.4444 0.0
O1426 O 0.77911 0.40155 0.43189 0.0
O1427 O 0.77252 0.38894 0.42465 0.0
H1428 H 0.77242 0.38634 0.44868 0.0
H1429 H 0.76176 0.38471 0.46313 0.0
H1430 H 0.78294 0.36487 0.4764 0.0
H1431 H 0.79367 0.36673 0.46193 0.0
H1432 H 0.83115 0.37507 0.42617 0.0
H1433 H 0.81427 0.38089 0.42918 0.0
H1434 H 0.82788 0.38163 0.39523 0.0
H1435 H 0.81116 0.38763 0.39835 0.0
H1436 H 0.77082 0.41864 0.39998 0.0
H1437 H 0.74429 0.41597 0.41749 0.0
H1438 H 0.75268 0.40436 0.42843 0.0
H1439 H 0.77913 0.4068 0.41094 0.0
C1440 C 0.80799 0.45112 0.84634 0.0
C1441 C 0.80604 0.46104 0.84414 0.0
C1442 C 0.811 0.45853 0.8271 0.0
C1443 C 0.80759 0.46471 0.83464 0.0
C1444 C 0.81286 0.44856 0.82933 0.0
C1445 C 0.81138 0.4449 0.83888 0.0
U1446 U 0.79527 0.4536 0.87086 0.0
O1447 O 0.78897 0.44268 0.88109 0.0
O1448 O 0.80077 0.45228 0.88594 0.0
C1449 C 0.79523 0.44469 0.88806 0.0
C1450 C 0.80637 0.44729 0.85636 0.0
C1451 C 0.8004 0.4362 0.89243 0.0
C1452 C 0.81328 0.42371 0.8919 0.0
C1453 C 0.80826 0.4316 0.8875 0.0
C1454 C 0.80253 0.42486 0.90615 0.0
C1455 C 0.81051 0.42027 0.90131 0.0
C1456 C 0.79754 0.43275 0.90174 0.0
C1457 C 0.77736 0.47601 0.87275 0.0
C1458 C 0.77402 0.4894 0.88403 0.0
C1459 C 0.76147 0.48439 0.87271 0.0
C1460 C 0.76781 0.47712 0.86906 0.0
C1461 C 0.76459 0.49077 0.88007 0.0
C1462 C 0.78034 0.4821 0.88043 0.0
C1463 C 0.78438 0.46934 0.86771 0.0
O1464 O 0.80964 0.45288 0.8634 0.0
O1465 O 0.79751 0.44391 0.85816 0.0
O1466 O 0.78135 0.4604 0.86595 0.0
O1467 O 0.79362 0.46964 0.87042 0.0
H1468 H 0.80337 0.46596 0.84979 0.0
H1469 H 0.80622 0.47245 0.83327 0.0
H1470 H 0.81535 0.44355 0.82369 0.0
H1471 H 0.81284 0.43721 0.84043 0.0
H1472 H 0.81944 0.42043 0.88802 0.0
H1473 H 0.81057 0.43419 0.8803 0.0
H1474 H 0.80009 0.42231 0.91332 0.0
H1475 H 0.79145 0.43619 0.90564 0.0
H1476 H 0.77659 0.49413 0.8898 0.0
H1477 H 0.75429 0.48531 0.86944 0.0
H1478 H 0.76536 0.4726 0.86307 0.0
H1479 H 0.78766 0.48145 0.88344 0.0
C1480 C 0.7857 0.63951 0.0414 0.0
C1481 C 0.77723 0.63373 0.04166 0.0
C1482 C 0.77155 0.64132 0.02643 0.0
C1483 C 0.77022 0.63464 0.03426 0.0
C1484 C 0.78007 0.64711 0.0262 0.0
C1485 C 0.78708 0.64622 0.03364 0.0
U1486 U 0.79477 0.62527 0.0633 0.0
O1487 O 0.80949 0.62035 0.06782 0.0
O1488 O 0.8007 0.62987 0.07752 0.0
C1489 C 0.80921 0.62547 0.07596 0.0
C1490 C 0.79313 0.63834 0.04911 0.0
C1491 C 0.81805 0.63114 0.07828 0.0
C1492 C 0.833 0.63967 0.07345 0.0
C1493 C 0.82424 0.63503 0.07093 0.0
C1494 C 0.82931 0.63685 0.09068 0.0
C1495 C 0.83572 0.64049 0.08337 0.0
C1496 C 0.82059 0.63222 0.08816 0.0
C1497 C 0.77859 0.60306 0.07076 0.0
C1498 C 0.78139 0.58618 0.0762 0.0
C1499 C 0.76628 0.59463 0.08068 0.0
C1500 C 0.76945 0.60301 0.07562 0.0
C1501 C 0.77214 0.58607 0.08091 0.0
C1502 C 0.78459 0.5946 0.07118 0.0
C1503 C 0.78125 0.6117 0.06465 0.0
O1504 O 0.78989 0.63986 0.0581 0.0
O1505 O 0.79866 0.6304 0.04838 0.0
O1506 O 0.78913 0.6109 0.05903 0.0
O1507 O 0.78036 0.62032 0.06882 0.0
H1508 H 0.77608 0.62845 0.04756 0.0
H1509 H 0.76384 0.62995 0.03459 0.0
H1510 H 0.78128 0.65239 0.02032 0.0
H1511 H 0.79358 0.65073 0.03332 0.0
H1512 H 0.83778 0.64234 0.06763 0.0
H1513 H 0.82242 0.63431 0.06325 0.0
H1514 H 0.83106 0.63752 0.09839 0.0
H1515 H 0.81591 0.62931 0.09395 0.0
H1516 H 0.78612 0.57974 0.07634 0.0
H1517 H 0.75907 0.59475 0.08412 0.0
H1518 H 0.76464 0.60939 0.07531 0.0
H1519 H 0.79168 0.59439 0.06749 0.0
C1520 C 0.67264 0.52255 0.29729 0.0
C1521 C 0.67815 0.51385 0.29626 0.0
C1522 C 0.6746 0.51363 0.27876 0.0
C1523 C 0.67913 0.50944 0.28708 0.0
C1524 C 0.66908 0.52236 0.27986 0.0
C1525 C 0.66811 0.52678 0.28906 0.0
U1526 U 0.67763 0.52159 0.32443 0.0
O1527 O 0.68233 0.53287 0.33475 0.0
O1528 O 0.66835 0.5253 0.33723 0.0
C1529 C 0.67413 0.53243 0.33993 0.0
C1530 C 0.67162 0.52715 0.30697 0.0
C1531 C 0.66921 0.54191 0.34187 0.0
C1532 C 0.66306 0.55784 0.33634 0.0
C1533 C 0.66756 0.54879 0.33429 0.0
C1534 C 0.66164 0.55315 0.35351 0.0
C1535 C 0.66006 0.56014 0.34598 0.0
C1536 C 0.66619 0.54413 0.35146 0.0
C1537 C 0.69212 0.49846 0.3331 0.0
C1538 C 0.70126 0.49603 0.34821 0.0
C1539 C 0.69842 0.48228 0.33749 0.0
C1540 C 0.69324 0.48845 0.33108 0.0
C1541 C 0.70262 0.486 0.34607 0.0
C1542 C 0.69605 0.50221 0.34177 0.0
C1543 C 0.68725 0.50481 0.32578 0.0
O1544 O 0.66603 0.52238 0.31329 0.0
O1545 O 0.67989 0.53012 0.3108 0.0
O1546 O 0.69151 0.51322 0.32378 0.0
O1547 O 0.67763 0.50551 0.32646 0.0
H1548 H 0.68171 0.51049 0.30255 0.0
H1549 H 0.68355 0.50281 0.28648 0.0
H1550 H 0.6654 0.52571 0.27363 0.0
H1551 H 0.6638 0.53348 0.28975 0.0
H1552 H 0.66185 0.56301 0.33036 0.0
H1553 H 0.66979 0.54717 0.32682 0.0
H1554 H 0.65954 0.55472 0.36102 0.0
H1555 H 0.6674 0.53891 0.35739 0.0
H1556 H 0.70444 0.49914 0.35472 0.0
H1557 H 0.69915 0.47457 0.33571 0.0
H1558 H 0.69022 0.48542 0.32445 0.0
H1559 H 0.69526 0.50994 0.34345 0.0
C1560 C 0.69738 0.37822 0.57444 0.0
C1561 C 0.70611 0.38352 0.57333 0.0
C1562 C 0.70864 0.37683 0.55698 0.0
C1563 C 0.71167 0.38285 0.56469 0.0
C1564 C 0.69991 0.37146 0.55815 0.0
C1565 C 0.69431 0.37217 0.56682 0.0
U1566 U 0.6958 0.38799 0.59997 0.0
O1567 O 0.68387 0.39506 0.6084 0.0
O1568 O 0.69081 0.38153 0.61401 0.0
C1569 C 0.68377 0.3881 0.61517 0.0
C1570 C 0.69165 0.379 0.58362 0.0
C1571 C 0.67403 0.38425 0.61782 0.0
C1572 C 0.65904 0.37569 0.61375 0.0
C1573 C 0.66838 0.37909 0.61106 0.0
C1574 C 0.66097 0.38251 0.62997 0.0
C1575 C 0.65518 0.37742 0.62322 0.0
C1576 C 0.67028 0.38588 0.62728 0.0
C1577 C 0.71875 0.40292 0.60713 0.0
C1578 C 0.72054 0.41475 0.62022 0.0
C1579 C 0.7349 0.40893 0.61126 0.0
C1580 C 0.72894 0.40299 0.6056 0.0
C1581 C 0.73078 0.41495 0.6186 0.0
C1582 C 0.71457 0.40876 0.61453 0.0
C1583 C 0.71274 0.39702 0.60054 0.0
O1584 O 0.69558 0.37449 0.59123 0.0
O1585 O 0.68847 0.38791 0.58564 0.0
O1586 O 0.70462 0.40118 0.59728 0.0
O1587 O 0.71168 0.38773 0.60298 0.0
H1588 H 0.70863 0.38818 0.57917 0.0
H1589 H 0.71843 0.38695 0.56411 0.0
H1590 H 0.69734 0.36682 0.55233 0.0
H1591 H 0.6876 0.36801 0.56758 0.0
H1592 H 0.65475 0.37187 0.60835 0.0
H1593 H 0.67117 0.37777 0.60371 0.0
H1594 H 0.65832 0.38383 0.63737 0.0
H1595 H 0.67456 0.38982 0.6326 0.0
H1596 H 0.71715 0.41922 0.62587 0.0
H1597 H 0.74271 0.40901 0.6097 0.0
H1598 H 0.73229 0.39857 0.59988 0.0
H1599 H 0.7067 0.40878 0.61583 0.0
C1600 C 0.7144 0.83143 0.51287 0.0
C1601 C 0.71559 0.8254 0.50465 0.0
C1602 C 0.73299 0.8293 0.50375 0.0
C1603 C 0.72479 0.82434 0.50013 0.0
C1604 C 0.73173 0.83542 0.51195 0.0
C1605 C 0.7225 0.83646 0.51648 0.0
U1606 U 0.68764 0.8251 0.51293 0.0
O1607 O 0.67746 0.82066 0.52475 0.0
O1608 O 0.6743 0.8339 0.51595 0.0
C1609 C 0.6718 0.82846 0.52359 0.0
C1610 C 0.70469 0.8324 0.51761 0.0
C1611 C 0.66933 0.83383 0.53262 0.0
C1612 C 0.67417 0.84232 0.54741 0.0
C1613 C 0.67669 0.83753 0.53866 0.0
C1614 C 0.65692 0.83988 0.54404 0.0
C1615 C 0.66424 0.84347 0.55025 0.0
C1616 C 0.65945 0.8351 0.53532 0.0
C1617 C 0.68015 0.80849 0.49131 0.0
C1618 C 0.66605 0.7978 0.4899 0.0
C1619 C 0.67617 0.80138 0.47559 0.0
C1620 C 0.68211 0.80732 0.48128 0.0
C1621 C 0.66812 0.79646 0.47984 0.0
C1622 C 0.67201 0.80379 0.49559 0.0
C1623 C 0.68705 0.81422 0.49714 0.0
O1624 O 0.69812 0.8373 0.51245 0.0
O1625 O 0.70126 0.82424 0.52148 0.0
O1626 O 0.68918 0.81072 0.50591 0.0
O1627 O 0.68582 0.8238 0.49693 0.0
H1628 H 0.70938 0.8215 0.50173 0.0
H1629 H 0.72546 0.81969 0.49375 0.0
H1630 H 0.73792 0.83927 0.51496 0.0
H1631 H 0.7217 0.84114 0.52283 0.0
H1632 H 0.67999 0.84491 0.55205 0.0
H1633 H 0.68437 0.83661 0.53667 0.0
H1634 H 0.64921 0.84078 0.54589 0.0
H1635 H 0.65368 0.83234 0.53071 0.0
H1636 H 0.65984 0.79421 0.49337 0.0
H1637 H 0.67807 0.80041 0.46792 0.0
H1638 H 0.68839 0.81085 0.47786 0.0
H1639 H 0.67036 0.80463 0.50334 0.0
C1640 C 0.16551 0.68995 0.45913 0.0
C1641 C 0.16861 0.69578 0.46693 0.0
C1642 C 0.1846 0.68759 0.46679 0.0
C1643 C 0.17807 0.69464 0.4707 0.0
C1644 C 0.18147 0.68178 0.45895 0.0
C1645 C 0.172 0.68297 0.45514 0.0
U1646 U 0.13966 0.69912 0.46319 0.0
O1647 O 0.12885 0.70602 0.45332 0.0
O1648 O 0.12537 0.69213 0.46082 0.0
C1649 C 0.12273 0.69865 0.45413 0.0
C1650 C 0.15539 0.69086 0.45552 0.0
C1651 C 0.11929 0.69457 0.44481 0.0
C1652 C 0.12256 0.6883 0.42842 0.0
C1653 C 0.12594 0.69218 0.43724 0.0
C1654 C 0.10585 0.68902 0.43472 0.0
C1655 C 0.11246 0.68667 0.42706 0.0
C1656 C 0.10924 0.69295 0.4435 0.0
C1657 C 0.13617 0.7128 0.48798 0.0
C1658 C 0.12143 0.72085 0.49433 0.0
C1659 C 0.13605 0.7197 0.50432 0.0
C1660 C 0.14095 0.71477 0.49678 0.0
C1661 C 0.12621 0.72276 0.50323 0.0
C1662 C 0.12638 0.71587 0.48675 0.0
C1663 C 0.14168 0.70751 0.48032 0.0
O1664 O 0.14885 0.68597 0.4607 0.0
O1665 O 0.15249 0.69983 0.45326 0.0
O1666 O 0.14299 0.71215 0.47191 0.0
O1667 O 0.1396 0.69818 0.47933 0.0
H1668 H 0.16365 0.70114 0.47019 0.0
H1669 H 0.18019 0.69912 0.47683 0.0
H1670 H 0.18635 0.67634 0.45573 0.0
H1671 H 0.16971 0.67837 0.44915 0.0
H1672 H 0.12785 0.68646 0.42273 0.0
H1673 H 0.13375 0.6933 0.43815 0.0
H1674 H 0.09803 0.68795 0.43387 0.0
H1675 H 0.10401 0.69474 0.44927 0.0
H1676 H 0.11384 0.72307 0.49329 0.0
H1677 H 0.14001 0.7212 0.51099 0.0
H1678 H 0.14853 0.71248 0.49782 0.0
H1679 H 0.12258 0.71439 0.47997 0.0
C1680 C 0.63253 0.93296 0.68753 0.0
C1681 C 0.62597 0.93433 0.69542 0.0
C1682 C 0.63511 0.94859 0.70067 0.0
C1683 C 0.62725 0.94205 0.70193 0.0
C1684 C 0.64174 0.94712 0.6928 0.0
C1685 C 0.64044 0.93936 0.68626 0.0
U1686 U 0.61646 0.91239 0.67984 0.0
O1687 O 0.61141 0.9074 0.66546 0.0
O1688 O 0.61964 0.89726 0.67508 0.0
C1689 C 0.61568 0.89873 0.66641 0.0
C1690 C 0.63091 0.92492 0.68062 0.0
C1691 C 0.62133 0.89505 0.65787 0.0
C1692 C 0.62942 0.89749 0.642 0.0
C1693 C 0.62489 0.90135 0.65043 0.0
C1694 C 0.62719 0.88104 0.64848 0.0
C1695 C 0.63047 0.88727 0.64085 0.0
C1696 C 0.62265 0.88489 0.65687 0.0
C1697 C 0.59314 0.90936 0.69642 0.0
C1698 C 0.57523 0.90935 0.69656 0.0
C1699 C 0.58415 0.8993 0.70829 0.0
C1700 C 0.59304 0.90257 0.70428 0.0
C1701 C 0.57514 0.9028 0.70461 0.0
C1702 C 0.58412 0.91261 0.69253 0.0
C1703 C 0.6025 0.91392 0.69323 0.0
O1704 O 0.63139 0.91607 0.68453 0.0
O1705 O 0.62327 0.92619 0.67488 0.0
O1706 O 0.60247 0.9189 0.6849 0.0
O1707 O 0.6106 0.90873 0.69453 0.0
H1708 H 0.61983 0.92944 0.69653 0.0
H1709 H 0.62211 0.94286 0.70799 0.0
H1710 H 0.64781 0.95207 0.69157 0.0
H1711 H 0.64555 0.93841 0.68019 0.0
H1712 H 0.63181 0.9025 0.63625 0.0
H1713 H 0.62398 0.90923 0.65102 0.0
H1714 H 0.62805 0.87315 0.64795 0.0
H1715 H 0.61999 0.8799 0.66251 0.0
H1716 H 0.56841 0.9121 0.69348 0.0
H1717 H 0.58436 0.89435 0.71457 0.0
H1718 H 0.59984 0.90005 0.70757 0.0
H1719 H 0.5839 0.91793 0.68656 0.0
C1720 C 0.308 0.38411 0.97737 0.0
C1721 C 0.30762 0.37925 0.9865 0.0
C1722 C 0.29121 0.38592 0.98959 0.0
C1723 C 0.29931 0.38014 0.99255 0.0
C1724 C 0.29166 0.39082 0.98044 0.0
C1725 C 0.29999 0.38992 0.97438 0.0
U1726 U 0.33328 0.37336 0.97354 0.0
O1727 O 0.34036 0.3663 0.96084 0.0
O1728 O 0.34683 0.37951 0.9671 0.0
C1729 C 0.34715 0.37306 0.95999 0.0
C1730 C 0.31671 0.38301 0.97099 0.0
C1731 C 0.34883 0.37702 0.95002 0.0
C1732 C 0.34284 0.38348 0.93444 0.0
C1733 C 0.34103 0.38025 0.94409 0.0
C1734 C 0.36026 0.38052 0.93666 0.0
C1735 C 0.35248 0.38354 0.93056 0.0
C1736 C 0.35845 0.37729 0.94628 0.0
C1737 C 0.34294 0.35747 0.99511 0.0
C1738 C 0.35677 0.34603 0.99464 0.0
C1739 C 0.34892 0.34995 0.01018 0.0
C1740 C 0.34238 0.35626 1.00532 0.0
C1741 C 0.35615 0.3447 1.0049 0.0
C1742 C 0.35022 0.35239 0.98978 0.0
C1743 C 0.33561 0.36379 0.99022 0.0
O1744 O 0.32471 0.38713 0.97425 0.0
O1745 O 0.31827 0.37409 0.96771 0.0
O1746 O 0.3313 0.36004 0.98254 0.0
O1747 O 0.338 0.37304 0.98898 0.0
H1748 H 0.31374 0.37471 0.98891 0.0
H1749 H 0.29917 0.37614 0.99947 0.0
H1750 H 0.2856 0.39542 0.97798 0.0
H1751 H 0.30018 0.39374 0.96736 0.0
H1752 H 0.33666 0.38569 0.92993 0.0
H1753 H 0.33355 0.38011 0.94687 0.0
H1754 H 0.36779 0.38064 0.934 0.0
H1755 H 0.36457 0.37488 0.95077 0.0
H1756 H 0.36233 0.34219 0.99037 0.0
H1757 H 0.34814 0.349 0.01805 0.0
H1758 H 0.33678 0.36009 0.00954 0.0
H1759 H 0.35078 0.35327 0.98187 0.0
C1760 C 0.37764 0.57468 0.69814 0.0
C1761 C 0.378 0.57506 0.70843 0.0
C1762 C 0.37663 0.55727 0.70957 0.0
C1763 C 0.37743 0.56647 0.71408 0.0
C1764 C 0.37617 0.55693 0.69924 0.0
C1765 C 0.37668 0.56557 0.69358 0.0
U1766 U 0.38815 0.59993 0.6962 0.0
O1767 O 0.39565 0.6079 0.6842 0.0
O1768 O 0.38217 0.61403 0.6908 0.0
C1769 C 0.38888 0.61485 0.68384 0.0
C1770 C 0.37891 0.58371 0.69222 0.0
C1771 C 0.38518 0.61735 0.674 0.0
C1772 C 0.37596 0.61343 0.65936 0.0
C1773 C 0.37938 0.61083 0.66873 0.0
C1774 C 0.38412 0.62909 0.66049 0.0
C1775 C 0.37833 0.62259 0.65511 0.0
C1776 C 0.38751 0.62649 0.66983 0.0
C1777 C 0.40278 0.60719 0.71932 0.0
C1778 C 0.41443 0.62045 0.72104 0.0
C1779 C 0.40925 0.61105 0.73535 0.0
C1780 C 0.40321 0.60542 0.72945 0.0
C1781 C 0.41499 0.61859 0.73123 0.0
C1782 C 0.40835 0.6148 0.71513 0.0
C1783 C 0.39682 0.60064 0.71333 0.0
O1784 O 0.37444 0.59157 0.69567 0.0
O1785 O 0.38798 0.58538 0.6893 0.0
O1786 O 0.40108 0.59712 0.7054 0.0
O1787 O 0.38762 0.6033 0.712 0.0
H1788 H 0.37883 0.58201 0.71211 0.0
H1789 H 0.37763 0.56706 0.722 0.0
H1790 H 0.37568 0.54998 0.69551 0.0
H1791 H 0.3765 0.56512 0.68565 0.0
H1792 H 0.3716 0.60822 0.65539 0.0
H1793 H 0.37752 0.60373 0.67185 0.0
H1794 H 0.38595 0.63626 0.65753 0.0
H1795 H 0.39194 0.63163 0.67382 0.0
H1796 H 0.41868 0.62627 0.71765 0.0
H1797 H 0.40961 0.6093 0.74311 0.0
H1798 H 0.399 0.59954 0.73279 0.0
H1799 H 0.40809 0.61627 0.7073 0.0
C1800 C 0.82802 0.12945 0.07539 0.0
C1801 C 0.82644 0.13607 0.06759 0.0
C1802 C 0.81233 0.12671 0.06231 0.0
C1803 C 0.81869 0.13472 0.06112 0.0
C1804 C 0.81399 0.12003 0.0701 0.0
C1805 C 0.82178 0.1214 0.07661 0.0
U1806 U 0.84973 0.14462 0.08156 0.0
O1807 O 0.85543 0.15036 0.09538 0.0
O1808 O 0.86476 0.14078 0.08624 0.0
C1809 C 0.86375 0.1454 0.09463 0.0
C1810 C 0.83625 0.13102 0.0821 0.0
C1811 C 0.867 0.13993 0.10347 0.0
C1812 C 0.86369 0.13191 0.11921 0.0
C1813 C 0.8603 0.13658 0.11065 0.0
C1814 C 0.88047 0.13363 0.11341 0.0
C1815 C 0.87382 0.13043 0.12071 0.0
C1816 C 0.87708 0.13835 0.1049 0.0
C1817 C 0.85348 0.16604 0.06271 0.0
C1818 C 0.86208 0.18152 0.06401 0.0
C1819 C 0.85661 0.17597 0.04814 0.0
C1820 C 0.85279 0.16754 0.05255 0.0
C1821 C 0.86125 0.18312 0.0538 0.0
C1822 C 0.85824 0.17302 0.06843 0.0
C1823 C 0.84862 0.1574 0.06703 0.0
O1824 O 0.845 0.12965 0.07815 0.0
O1825 O 0.8356 0.13912 0.08725 0.0
O1826 O 0.8441 0.15858 0.07552 0.0
O1827 O 0.85339 0.14899 0.06635 0.0
H1828 H 0.83123 0.14229 0.06649 0.0
H1829 H 0.81774 0.13991 0.05511 0.0
H1830 H 0.80919 0.11383 0.07126 0.0
H1831 H 0.82291 0.11621 0.08259 0.0
H1832 H 0.85838 0.12944 0.12465 0.0
H1833 H 0.85247 0.13766 0.1097 0.0
H1834 H 0.88831 0.13273 0.11438 0.0
H1835 H 0.88237 0.1409 0.09948 0.0
H1836 H 0.86569 0.18683 0.06856 0.0
H1837 H 0.85565 0.17702 0.04031 0.0
H1838 H 0.84907 0.16226 0.04803 0.0
H1839 H 0.85885 0.17199 0.0763 0.0
C1840 C 0.6389 0.0411 0.78606 0.0
C1841 C 0.6328 0.04155 0.77782 0.0
C1842 C 0.6396 0.02604 0.77197 0.0
C1843 C 0.63316 0.03412 0.77083 0.0
C1844 C 0.64577 0.02567 0.78021 0.0
C1845 C 0.64541 0.03315 0.78721 0.0
U1846 U 0.62549 0.06331 0.79542 0.0
O1847 O 0.62118 0.06807 0.81025 0.0
O1848 O 0.63056 0.07748 0.801 0.0
C1849 C 0.62651 0.07606 0.8097 0.0
C1850 C 0.63821 0.04885 0.79349 0.0
C1851 C 0.63262 0.07841 0.81829 0.0
C1852 C 0.63891 0.07462 0.83462 0.0
C1853 C 0.63398 0.07175 0.82614 0.0
C1854 C 0.64147 0.09072 0.82741 0.0
C1855 C 0.64256 0.08421 0.83543 0.0
C1856 C 0.63653 0.08786 0.81897 0.0
C1857 C 0.60286 0.07102 0.77978 0.0
C1858 C 0.58574 0.0759 0.78223 0.0
C1859 C 0.59463 0.08154 0.76779 0.0
C1860 C 0.60302 0.07648 0.77097 0.0
C1861 C 0.58584 0.08119 0.7733 0.0
C1862 C 0.59416 0.07086 0.78544 0.0
C1863 C 0.61148 0.0648 0.78234 0.0
O1864 O 0.63982 0.05778 0.79014 0.0
O1865 O 0.63045 0.04833 0.79929 0.0
O1866 O 0.61081 0.05932 0.79032 0.0
O1867 O 0.62017 0.06878 0.78113 0.0
H1868 H 0.62771 0.04765 0.7768 0.0
H1869 H 0.62842 0.03474 0.76451 0.0
H1870 H 0.65074 0.01951 0.78137 0.0
H1871 H 0.65014 0.03267 0.79356 0.0
H1872 H 0.63955 0.06944 0.84067 0.0
H1873 H 0.63103 0.06441 0.82585 0.0
H1874 H 0.64434 0.09809 0.82768 0.0
H1875 H 0.63556 0.09314 0.81304 0.0
H1876 H 0.57912 0.07557 0.78669 0.0
H1877 H 0.59492 0.08544 0.76082 0.0
H1878 H 0.60957 0.07661 0.76639 0.0
H1879 H 0.59376 0.06668 0.79224 0.0
C1880 C 0.95292 0.9147 0.311 0.0
C1881 C 0.95911 0.9188 0.30379 0.0
C1882 C 0.94937 0.9339 0.3038 0.0
C1883 C 0.95737 0.92831 0.30024 0.0
C1884 C 0.94319 0.92976 0.31106 0.0
C1885 C 0.94497 0.92023 0.31463 0.0
U1886 U 0.96657 0.89072 0.30824 0.0
O1887 O 0.97287 0.88044 0.31912 0.0
O1888 O 0.96156 0.87543 0.30899 0.0
C1889 C 0.96691 0.87334 0.31675 0.0
C1890 C 0.95461 0.90459 0.31447 0.0
C1891 C 0.96161 0.86871 0.32501 0.0
C1892 C 0.94886 0.86913 0.33764 0.0
C1893 C 0.95386 0.87364 0.3298 0.0
C1894 C 0.95936 0.85475 0.33601 0.0
C1895 C 0.95154 0.85961 0.34083 0.0
C1896 C 0.96434 0.85926 0.32817 0.0
C1897 C 0.98557 0.89024 0.2868 0.0
C1898 C 0.99159 0.8767 0.27683 0.0
C1899 C 0.99993 0.89232 0.27627 0.0
C1900 C 0.99322 0.89607 0.28313 0.0
C1901 C 0.9991 0.88264 0.2729 0.0
C1902 C 0.98489 0.88046 0.28374 0.0
C1903 C 0.97805 0.89482 0.29316 0.0
O1904 O 0.95195 0.89777 0.30832 0.0
O1905 O 0.9633 0.90288 0.31831 0.0
O1906 O 0.98055 0.89642 0.3023 0.0
O1907 O 0.96902 0.89162 0.2923 0.0
H1908 H 0.96524 0.91459 0.30084 0.0
H1909 H 0.96218 0.93121 0.29455 0.0
H1910 H 0.93703 0.9339 0.31402 0.0
H1911 H 0.9401 0.91716 0.32018 0.0
H1912 H 0.94281 0.87304 0.3411 0.0
H1913 H 0.95166 0.88095 0.32744 0.0
H1914 H 0.96172 0.84749 0.33836 0.0
H1915 H 0.97034 0.85537 0.32459 0.0
H1916 H 0.99083 0.86918 0.27448 0.0
H1917 H 1.00553 0.89714 0.27332 0.0
H1918 H 0.99384 0.90365 0.28537 0.0
H1919 H 0.97906 0.87581 0.28651 0.0
C1920 C 0.98204 0.10274 0.28391 0.0
C1921 C 0.97257 0.10041 0.28736 0.0
C1922 C 0.98861 0.10771 0.28988 0.0
C1923 C 0.98979 0.123 0.31224 0.0
H1924 H 0.01693 0.11404 0.31294 0.0
C1925 C 0.0162 0.13544 0.34228 0.0
C1926 C 0.02573 0.13816 0.33932 0.0
C1927 C 0.00995 0.13078 0.33577 0.0
C1928 C 0.0094 0.11669 0.31275 0.0
H1929 H 0.96247 0.10181 0.2997 0.0
H1930 H 0.97393 0.11031 0.31016 0.0
H1931 H 1.00549 0.10642 0.3017 0.0
H1932 H 0.03621 0.13791 0.32722 0.0
H1933 H 0.0253 0.12969 0.31586 0.0
H1934 H 0.99368 0.13321 0.32335 0.0
C1935 C 0.97629 0.10836 0.30281 0.0
C1936 C 1.00284 0.11234 0.3063 0.0
C1937 C 0.96974 0.10339 0.29684 0.0
C1938 C 0.02896 0.13582 0.32977 0.0
C1939 C 0.0227 0.13113 0.32325 0.0
C1940 C 0.99633 0.12732 0.3187 0.0
C1941 C 0.98585 0.1105 0.29945 0.0
C1942 C 0.99294 0.1154 0.30601 0.0
C1943 C 0.01307 0.12869 0.32613 0.0
C1944 C 0.0062 0.12418 0.31909 0.0
H1945 H 0.98449 0.10047 0.27668 0.0
H1946 H 0.99587 0.10935 0.28702 0.0
H1947 H 0.98226 0.12566 0.31209 0.0
H1948 H 0.01354 0.13696 0.34964 0.0
H1949 H 1.00266 0.12881 0.33829 0.0
C1950 C 0.12254 0.72477 0.52119 0.0
C1951 C 0.12109 0.72791 0.51143 0.0
C1952 C 0.11839 0.72997 0.529 0.0
C1953 C 0.09898 0.74786 0.53566 0.0
H1954 H 0.11545 0.75195 0.55831 0.0
C1955 C 0.08606 0.77128 0.56876 0.0
C1956 C 0.0881 0.76736 0.57813 0.0
C1957 C 0.09032 0.76714 0.56034 0.0
C1958 C 0.11072 0.7508 0.55209 0.0
H1959 H 0.1139 0.73886 0.50225 0.0
H1960 H 0.10657 0.74794 0.51595 0.0
H1961 H 0.12208 0.74325 0.54415 0.0
H1962 H 0.0965 0.75624 0.586 0.0
H1963 H 0.10377 0.74893 0.57137 0.0
H1964 H 0.08757 0.75531 0.54368 0.0
C1965 C 0.11092 0.74142 0.51752 0.0
C1966 C 0.11452 0.74581 0.54396 0.0
C1967 C 0.1151 0.73621 0.50967 0.0
C1968 C 0.09469 0.75937 0.57889 0.0
C1969 C 0.09894 0.75525 0.5705 0.0
C1970 C 0.09516 0.75284 0.54381 0.0
C1971 C 0.11266 0.73844 0.52728 0.0
C1972 C 0.10867 0.74417 0.5357 0.0
C1973 C 0.09674 0.75901 0.56111 0.0
C1974 C 0.10095 0.75427 0.55218 0.0
H1975 H 0.12693 0.71829 0.5228 0.0
H1976 H 0.11968 0.72734 0.53642 0.0
H1977 H 0.09426 0.74665 0.52944 0.0
H1978 H 0.08096 0.77738 0.5679 0.0
H1979 H 0.08855 0.77029 0.55323 0.0
C1980 C 0.55843 0.90726 0.71128 0.0
C1981 C 0.56574 0.90009 0.70954 0.0
C1982 C 0.54985 0.9049 0.71648 0.0
C1983 C 0.5345 0.88403 0.72461 0.0
H1984 H 0.52547 0.902 0.74476 0.0
C1985 C 0.50594 0.87287 0.75404 0.0
C1986 C 0.49881 0.87983 0.75693 0.0
C1987 C 0.5137 0.87553 0.74781 0.0
C1988 C 0.52779 0.89696 0.73907 0.0
H1989 H 0.56962 0.88474 0.71169 0.0
H1990 H 0.55469 0.88064 0.72086 0.0
H1991 H 0.53967 0.90621 0.73458 0.0
H1992 H 0.49422 0.89506 0.75547 0.0
H1993 H 0.50778 0.89972 0.74454 0.0
H1994 H 0.52267 0.87475 0.72913 0.0
C1995 C 0.55557 0.88808 0.71814 0.0
C1996 C 0.53595 0.89938 0.73323 0.0
C1997 C 0.56417 0.89045 0.71297 0.0
C1998 C 0.49964 0.88954 0.75346 0.0
C1999 C 0.50742 0.89221 0.7472 0.0
C2000 C 0.52634 0.88162 0.73043 0.0
C2001 C 0.54836 0.89531 0.72006 0.0
C2002 C 0.53945 0.8929 0.72598 0.0
C2003 C 0.51454 0.88522 0.7443 0.0
C2004 C 0.52293 0.88802 0.73779 0.0
H2005 H 0.55944 0.91478 0.70885 0.0
H2006 H 0.5444 0.91061 0.71774 0.0
H2007 H 0.53691 0.87895 0.71899 0.0
H2008 H 0.50565 0.86537 0.75674 0.0
H2009 H 0.51916 0.87 0.74591 0.0
C2010 C 0.36675 0.3401 0.01928 0.0
C2011 C 0.36283 0.3377 0.01011 0.0
C2012 C 0.37256 0.33333 0.02446 0.0
C2013 C 0.37782 0.30675 0.02665 0.0
H2014 H 0.40056 0.31534 0.04105 0.0
C2015 C 0.40505 0.27969 0.0456 0.0
C2016 C 0.40872 0.2824 0.0548 0.0
C2017 C 0.39932 0.28628 0.04009 0.0
C2018 C 0.39416 0.31283 0.03716 0.0
H2019 H 0.36205 0.32632 0.99914 0.0
H2020 H 0.37236 0.31457 0.00809 0.0
H2021 H 0.39116 0.32719 0.03133 0.0
H2022 H 0.40889 0.294 0.06557 0.0
H2023 H 0.39889 0.30546 0.05597 0.0
H2024 H 0.38084 0.29238 0.03251 0.0
C2025 C 0.37083 0.32165 0.01133 0.0
C2026 C 0.38878 0.31963 0.03158 0.0
C2027 C 0.36502 0.32844 0.00615 0.0
C2028 C 0.40632 0.29175 0.05844 0.0
C2029 C 0.40061 0.29833 0.05293 0.0
C2030 C 0.38321 0.29994 0.03224 0.0
C2031 C 0.37461 0.32399 0.02059 0.0
C2032 C 0.38051 0.31668 0.02629 0.0
C2033 C 0.39713 0.29572 0.04363 0.0
C2034 C 0.39142 0.30291 0.0376 0.0
H2035 H 0.36529 0.34721 0.0225 0.0
H2036 H 0.37528 0.33535 0.0316 0.0
H2037 H 0.37141 0.30425 0.02279 0.0
H2038 H 0.40686 0.2726 0.04252 0.0
H2039 H 0.39684 0.28407 0.03291 0.0
C2040 C 0.01572 0.88141 0.2647 0.0
C2041 C 1.00569 0.87903 0.2649 0.0
C2042 C 0.02171 0.87869 0.25676 0.0
C2043 C 0.02308 0.86206 0.23536 0.0
H2044 H 0.04101 0.8815 0.22475 0.0
C2045 C 0.04053 0.85852 0.19688 0.0
C2046 C 0.05047 0.86103 0.19565 0.0
C2047 C 0.03556 0.86047 0.20568 0.0
C2048 C 0.03614 0.87594 0.2277 0.0
H2049 H 0.99413 0.87183 0.25693 0.0
H2050 H 1.00456 0.86708 0.24311 0.0
H2051 H 0.03152 0.88509 0.2396 0.0
H2052 H 0.06294 0.86765 0.20271 0.0
H2053 H 0.05425 0.87098 0.21816 0.0
H2054 H 0.0276 0.85297 0.22338 0.0
C2055 C 0.00784 0.87093 0.24915 0.0
C2056 C 0.0307 0.87799 0.23622 0.0
C2057 C 1.00185 0.87365 0.25709 0.0
C2058 C 0.0553 0.86558 0.20344 0.0
C2059 C 0.05031 0.86755 0.21226 0.0
C2060 C 0.0285 0.86002 0.22684 0.0
C2061 C 0.01782 0.87352 0.24883 0.0
C2062 C 0.02403 0.87112 0.24009 0.0
C2063 C 0.04038 0.86497 0.21349 0.0
C2064 C 0.03501 0.86698 0.22284 0.0
H2065 H 0.01893 0.88543 0.27067 0.0
H2066 H 0.0294 0.88065 0.25683 0.0
H2067 H 0.01814 0.85653 0.23824 0.0
H2068 H 0.03661 0.85488 0.1911 0.0
H2069 H 0.02789 0.8585 0.20633 0.0
C2070 C 0.35543 0.70368 0.47077 0.0
C2071 C 0.35321 0.70718 0.48022 0.0
C2072 C 0.36131 0.70913 0.46429 0.0
C2073 C 0.36971 0.73441 0.45933 0.0
H2074 H 0.38873 0.72142 0.44237 0.0
C2075 C 0.39721 0.75562 0.43439 0.0
C2076 C 0.39913 0.75182 0.42499 0.0
C2077 C 0.39152 0.75037 0.44121 0.0
C2078 C 0.38337 0.72516 0.44697 0.0
H2079 H 0.35554 0.71913 0.49031 0.0
H2080 H 0.36596 0.72856 0.47906 0.0
H2081 H 0.37936 0.71179 0.45429 0.0
H2082 H 0.39617 0.73972 0.41526 0.0
H2083 H 0.38624 0.73059 0.42714 0.0
H2084 H 0.37373 0.74778 0.45198 0.0
C2085 C 0.36305 0.72165 0.47662 0.0
C2086 C 0.37801 0.71963 0.45382 0.0
C2087 C 0.35717 0.71618 0.48311 0.0
C2088 C 0.395 0.74277 0.4225 0.0
C2089 C 0.38932 0.73753 0.42931 0.0
C2090 C 0.37509 0.73994 0.45248 0.0
C2091 C 0.36512 0.71823 0.4671 0.0
C2092 C 0.37107 0.72417 0.46005 0.0
C2093 C 0.38761 0.7412 0.4388 0.0
C2094 C 0.38194 0.73537 0.44618 0.0
H2095 H 0.35259 0.69673 0.46834 0.0
H2096 H 0.36269 0.70631 0.457 0.0
H2097 H 0.36432 0.73812 0.46391 0.0
H2098 H 0.40038 0.76251 0.43659 0.0
H2099 H 0.39043 0.75336 0.44848 0.0
C2100 C 0.57707 0.09528 0.76498 0.0
C2101 C 0.57674 0.08595 0.76949 0.0
C2102 C 0.56862 0.09951 0.76092 0.0
C2103 C 0.54451 0.09306 0.75087 0.0
H2104 H 0.53893 0.12086 0.75373 0.0
C2105 C 0.50902 0.11157 0.73578 0.0
C2106 C 0.51007 0.1209 0.73142 0.0
C2107 C 0.51686 0.10714 0.74081 0.0
C2108 C 0.54043 0.1131 0.75277 0.0
H2109 H 0.56723 0.07379 0.77329 0.0
H2110 H 0.55244 0.08124 0.76629 0.0
H2111 H 0.55311 0.11355 0.76194 0.0
H2112 H 0.52029 0.13273 0.7286 0.0
H2113 H 0.53392 0.12502 0.73727 0.0
H2114 H 0.53191 0.09264 0.74159 0.0
C2115 C 0.55927 0.08524 0.76585 0.0
C2116 C 0.54855 0.10892 0.75749 0.0
C2117 C 0.56772 0.08102 0.76996 0.0
C2118 C 0.51917 0.12563 0.73206 0.0
C2119 C 0.52699 0.12121 0.73705 0.0
C2120 C 0.53639 0.09726 0.74612 0.0
C2121 C 0.55963 0.09451 0.76122 0.0
C2122 C 0.55074 0.09886 0.75654 0.0
C2123 C 0.52593 0.11194 0.74155 0.0
C2124 C 0.5343 0.10735 0.74694 0.0
H2125 H 0.58389 0.09929 0.76457 0.0
H2126 H 0.56917 0.10662 0.75733 0.0
H2127 H 0.54606 0.08532 0.74988 0.0
H2128 H 0.50208 0.10777 0.73548 0.0
H2129 H 0.51577 0.10004 0.74427 0.0
C2130 C 0.10391 0.296 0.9694 0.0
C2131 C 0.10157 0.28622 0.97177 0.0
C2132 C 0.10877 0.30186 0.97612 0.0
C2133 C 0.12395 0.30108 0.99848 0.0
H2134 H 0.11393 0.32758 1.00198 0.0
C2135 C 0.13734 0.32586 0.02978 0.0
C2136 C 0.13886 0.33582 0.02748 0.0
C2137 C 0.13271 0.31973 0.02311 0.0
C2138 C 0.1169 0.32024 1.00103 0.0
H2139 H 0.10272 0.27489 0.98303 0.0
H2140 H 0.11128 0.28511 0.99473 0.0
H2141 H 0.10644 0.31699 0.98992 0.0
H2142 H 0.13676 0.34712 0.01634 0.0
H2143 H 0.12875 0.33644 1.00471 0.0
H2144 H 0.13446 0.30435 0.00954 0.0
C2145 C 0.1094 0.28822 0.98763 0.0
C2146 C 0.1126 0.31417 0.99411 0.0
C2147 C 0.10451 0.28235 0.98091 0.0
C2148 C 0.13555 0.33952 0.01841 0.0
C2149 C 0.13096 0.33339 0.01173 0.0
C2150 C 0.12828 0.30717 1.00539 0.0
C2151 C 0.11144 0.29809 0.98538 0.0
C2152 C 0.11609 0.30452 0.99273 0.0
C2153 C 0.12952 0.3234 0.01397 0.0
C2154 C 0.12482 0.31684 0.00674 0.0
H2155 H 0.10192 0.29916 0.96235 0.0
H2156 H 0.11041 0.30937 0.97408 0.0
H2157 H 0.12687 0.29372 0.99753 0.0
H2158 H 0.1397 0.32281 0.03675 0.0
H2159 H 0.13158 0.31212 0.02515 0.0
C2160 C 0.32671 0.02926 0.13668 0.0
C2161 C 0.33668 0.02702 0.13827 0.0
C2162 C 0.32065 0.02258 0.13197 0.0
C2163 C 0.32141 1.00065 0.11602 0.0
H2164 H 0.29484 0.99688 0.12582 0.0
C2165 C 0.29737 0.96906 0.10256 0.0
C2166 C 0.28755 0.97138 0.10027 0.0
C2167 C 0.30319 0.97576 0.1075 0.0
C2168 C 0.30221 0.99791 0.12294 0.0
H2169 H 0.34808 0.01597 0.1362 0.0
H2170 H 0.33754 1.00432 0.12804 0.0
H2171 H 0.30537 0.00888 0.13357 0.0
H2172 H 0.27613 0.98254 0.10155 0.0
H2173 H 0.28629 0.99421 0.11024 0.0
H2174 H 0.31827 0.98965 0.10544 0.0
C2175 C 0.33442 0.01131 0.13027 0.0
C2176 C 0.30824 1.00481 0.12737 0.0
C2177 C 0.34047 0.01799 0.13495 0.0
C2178 C 0.28362 0.98046 0.10331 0.0
C2179 C 0.28945 0.98716 0.10827 0.0
C2180 C 0.31539 0.99374 0.11163 0.0
C2181 C 0.32441 0.01349 0.12876 0.0
C2182 C 0.31793 0.00626 0.12397 0.0
C2183 C 0.29935 0.98494 0.11029 0.0
C2184 C 0.30573 0.99227 0.11504 0.0
H2185 H 0.32359 0.0362 0.13905 0.0
H2186 H 0.31303 0.02458 0.13078 0.0
H2187 H 0.32876 1.00169 0.1131 0.0
H2188 H 0.30058 0.96206 0.1005 0.0
H2189 H 0.31073 0.97375 0.10912 0.0
C2190 C 0.32835 0.00596 0.36468 0.0
C2191 C 0.33777 0.00971 0.36277 0.0
C2192 C 0.32161 0.01117 0.37051 0.0
C2193 C 0.31984 0.03091 0.38899 0.0
H2194 H 0.29275 0.03293 0.38053 0.0
C2195 C 0.29242 0.05807 0.40677 0.0
C2196 C 0.28289 0.05467 0.40884 0.0
C2197 C 0.29894 0.05253 0.40103 0.0
C2198 C 0.30026 0.03235 0.38305 0.0
H2199 H 0.34759 0.02173 0.36575 0.0
H2200 H 0.33581 0.03086 0.37578 0.0
H2201 H 0.30452 0.02313 0.37107 0.0
H2202 H 0.27274 0.04281 0.40638 0.0
H2203 H 0.28413 0.03315 0.39633 0.0
H2204 H 0.3156 0.04015 0.40095 0.0
C2205 C 0.33363 0.02387 0.37283 0.0
C2206 C 0.30701 0.02672 0.37764 0.0
C2207 C 0.34036 0.01868 0.36699 0.0
C2208 C 0.27997 0.0457 0.40482 0.0
C2209 C 0.28651 0.04016 0.39908 0.0
C2210 C 0.3131 0.03654 0.3944 0.0
C2211 C 0.32415 0.02023 0.3746 0.0
C2212 C 0.31689 0.02597 0.38052 0.0
C2213 C 0.29612 0.04345 0.39721 0.0
C2214 C 0.30324 0.03737 0.39147 0.0
H2215 H 0.32609 0.99911 0.36148 0.0
H2216 H 0.3144 0.0081 0.37183 0.0
H2217 H 0.32735 0.03036 0.39151 0.0
H2218 H 0.29484 0.06503 0.4096 0.0
H2219 H 0.30622 0.05538 0.39957 0.0
C2220 C 0.24356 0.03701 0.6455 0.0
C2221 C 0.2522 0.03166 0.64341 0.0
C2222 C 0.23536 0.03236 0.64958 0.0
C2223 C 0.2241 0.00786 0.65293 0.0
H2224 H 0.20786 0.02163 0.67198 0.0
C2225 C 0.19173 0.98992 0.67462 0.0
C2226 C 0.18318 0.9957 0.67581 0.0
C2227 C 0.20023 0.99393 0.6704 0.0
C2228 C 0.21227 0.01772 0.6666 0.0
H2229 H 0.25907 0.01724 0.64415 0.0
H2230 H 0.24479 0.00912 0.65144 0.0
H2231 H 0.22269 0.02932 0.66558 0.0
H2232 H 0.17672 0.01007 0.67295 0.0
H2233 H 0.19153 0.01705 0.66569 0.0
H2234 H 0.21366 0.99621 0.65408 0.0
C2235 C 0.24428 0.0169 0.64974 0.0
C2236 C 0.22078 0.02213 0.66291 0.0
C2237 C 0.25248 0.02155 0.6456 0.0
C2238 C 0.18323 1.00547 0.67236 0.0
C2239 C 0.19172 0.00948 0.66819 0.0
C2240 C 0.2156 1.00341 0.65668 0.0
C2241 C 0.2356 0.02224 0.65174 0.0
C2242 C 0.22676 0.01731 0.65596 0.0
C2243 C 0.20037 1.00381 0.66731 0.0
C2244 C 0.20954 0.00834 0.66348 0.0
H2245 H 0.24304 0.04477 0.64374 0.0
H2246 H 0.22875 0.03669 0.65084 0.0
H2247 H 0.22846 1.00398 0.64749 0.0
H2248 H 0.19197 0.9824 0.67727 0.0
H2249 H 0.2068 0.98939 0.66986 0.0
C2250 C 0.20448 0.05058 0.85414 0.0
C2251 C 0.19693 0.05183 0.86117 0.0
C2252 C 0.21313 0.04552 0.85655 0.0
C2253 C 0.22813 0.037 0.87757 0.0
H2254 H 0.23807 0.01765 0.85919 0.0
C2255 C 0.2568 0.00762 0.88866 0.0
C2256 C 0.26417 1.00503 0.88183 0.0
C2257 C 0.24905 0.01385 0.88596 0.0
C2258 C 0.23549 0.02312 0.86435 0.0
H2259 H 0.19271 0.04901 0.87632 0.0
H2260 H 0.20778 0.04011 0.88051 0.0
H2261 H 0.2238 0.02772 0.85488 0.0
H2262 H 0.2692 0.00704 0.8668 0.0
H2263 H 0.25565 0.01798 0.86206 0.0
H2264 H 0.23977 0.03237 0.88707 0.0
C2265 C 0.20702 0.04308 0.87314 0.0
C2266 C 0.2273 0.02889 0.86188 0.0
C2267 C 0.19835 0.0481 0.87072 0.0
C2268 C 0.26359 0.00882 0.87221 0.0
C2269 C 0.25583 0.01508 0.8695 0.0
C2270 C 0.23633 0.03124 0.88003 0.0
C2271 C 0.21447 0.04163 0.86606 0.0
C2272 C 0.22347 0.03584 0.8685 0.0
C2273 C 0.24845 0.01767 0.87635 0.0
C2274 C 0.24006 0.02416 0.87349 0.0
H2275 H 0.20358 0.05327 0.84669 0.0
H2276 H 0.21877 0.04463 0.85096 0.0
H2277 H 0.22546 0.04239 0.88277 0.0
H2278 H 0.2569 1.00467 0.89608 0.0
H2279 H 0.2434 0.01551 0.89137 0.0
C2280 C 0.67124 0.18238 0.00659 0.0
C2281 C 0.67496 0.18227 0.99692 0.0
C2282 C 0.66721 0.19095 0.01054 0.0
C2283 C 0.65652 0.21515 1.00428 0.0
H2284 H 0.66498 0.22188 0.03046 0.0
C2285 C 0.64603 0.25223 0.02228 0.0
C2286 C 0.64357 0.25198 0.03233 0.0
C2287 C 0.65007 0.24395 0.0177 0.0
C2288 C 0.66244 0.22007 0.0232 0.0
H2289 H 0.67702 0.19107 0.9837 0.0
H2290 H 0.66983 0.20605 0.99058 0.0
H2291 H 0.67114 0.2069 0.02288 0.0
H2292 H 0.6433 0.24279 0.04542 0.0
H2293 H 0.65022 0.22835 0.03747 0.0
H2294 H 0.64769 0.22826 1.00466 0.0
C2295 C 0.67006 0.19946 0.99509 0.0
C2296 C 0.66599 0.21148 0.01885 0.0
C2297 C 0.67416 0.19087 0.99115 0.0
C2298 C 0.64529 0.24329 0.03771 0.0
C2299 C 0.64926 0.235 0.03314 0.0
C2300 C 0.65291 0.22373 0.00867 0.0
C2301 C 0.66672 0.19963 1.0049 0.0
C2302 C 0.66302 0.20888 0.00937 0.0
C2303 C 0.65169 0.2352 0.02307 0.0
C2304 C 0.65578 0.22627 0.01821 0.0
H2305 H 0.67154 0.17583 0.01117 0.0
H2306 H 0.6645 0.1908 0.01805 0.0
H2307 H 0.65404 0.21331 0.997 0.0
H2308 H 0.64488 0.25886 0.01795 0.0
H2309 H 0.65199 0.24442 0.00998 0.0
C2310 C 0.01895 0.36734 0.34042 0.0
C2311 C 0.00997 0.36311 0.33783 0.0
C2312 C 0.02413 0.37319 0.3337 0.0
C2313 C 0.02697 0.37801 0.30709 0.0
H2314 H 0.0405 0.40124 0.3157 0.0
C2315 C 0.04616 0.40509 0.28011 0.0
C2316 C 0.05516 0.40904 0.28306 0.0
C2317 C 0.04055 0.39938 0.28663 0.0
C2318 C 0.03686 0.39471 0.31319 0.0
H2319 H 0.99935 0.36183 0.32615 0.0
H2320 H 0.00832 0.37219 0.31448 0.0
H2321 H 0.03065 0.39184 0.32742 0.0
H2322 H 0.06552 0.40969 0.29504 0.0
H2323 H 0.05577 0.39973 0.30637 0.0
H2324 H 0.0332 0.38088 0.29285 0.0
C2325 C 0.01141 0.37088 0.32168 0.0
C2326 C 0.0312 0.38933 0.31992 0.0
C2327 C 0.0062 0.36504 0.32841 0.0
C2328 C 0.05853 0.40692 0.29259 0.0
C2329 C 0.05294 0.40122 0.29909 0.0
C2330 C 0.03263 0.3834 0.30036 0.0
C2331 C 0.02048 0.37496 0.32422 0.0
C2332 C 0.02622 0.38088 0.31697 0.0
C2333 C 0.04382 0.39748 0.29624 0.0
C2334 C 0.03769 0.39178 0.30334 0.0
H2335 H 0.022 0.36609 0.34765 0.0
H2336 H 0.03113 0.37613 0.33589 0.0
H2337 H 0.02335 0.37146 0.3046 0.0
H2338 H 0.04328 0.40668 0.27287 0.0
H2339 H 0.03352 0.3967 0.28422 0.0
C2340 C 0.87332 0.75311 0.50529 0.0
C2341 C 0.8802 0.75574 0.49797 0.0
C2342 C 0.87599 0.74687 0.51304 0.0
C2343 C 0.89753 0.73766 0.52673 0.0
H2344 H 0.87913 0.71827 0.53657 0.0
C2345 C 0.90774 0.71013 0.55764 0.0
C2346 C 0.90068 0.70876 0.56513 0.0
C2347 C 0.90533 0.71522 0.54901 0.0
C2348 C 0.88432 0.7237 0.53395 0.0
H2349 H 0.89528 0.75376 0.49305 0.0
H2350 H 0.89995 0.74281 0.5066 0.0
H2351 H 0.87488 0.72833 0.52227 0.0
H2352 H 0.88547 0.71141 0.56927 0.0
H2353 H 0.88129 0.72039 0.55425 0.0
H2354 H 0.90695 0.73307 0.53846 0.0
C2355 C 0.8925 0.74569 0.50638 0.0
C2356 C 0.88189 0.72947 0.52576 0.0
C2357 C 0.88983 0.75196 0.49861 0.0
C2358 C 0.8911 0.71241 0.56368 0.0
C2359 C 0.88868 0.71748 0.55503 0.0
C2360 C 0.89998 0.73187 0.53491 0.0
C2361 C 0.8856 0.74308 0.51369 0.0
C2362 C 0.88842 0.73659 0.5221 0.0
C2363 C 0.8958 0.71904 0.54764 0.0
C2364 C 0.89337 0.72488 0.53867 0.0
H2365 H 0.8659 0.75605 0.50514 0.0
H2366 H 0.87054 0.74519 0.51864 0.0
H2367 H 0.90268 0.74316 0.5242 0.0
H2368 H 0.91522 0.70751 0.55855 0.0
H2369 H 0.91096 0.71621 0.54341 0.0
C2370 C 0.99213 0.68099 0.19501 0.0
C2371 C 0.99258 0.67607 0.18598 0.0
C2372 C 0.99629 0.67678 0.20343 0.0
C2373 C 1.00481 0.65311 0.21406 0.0
H2374 H 0.02061 0.66945 0.23074 0.0
C2375 C 0.03029 0.63647 0.24344 0.0
C2376 C 0.03089 0.64118 0.25255 0.0
C2377 C 0.02531 0.64089 0.23562 0.0
C2378 C 0.01612 0.66481 0.22624 0.0
H2379 H 0.99754 0.66276 0.17879 0.0
H2380 H 1.00487 0.65544 0.19346 0.0
H2381 H 0.01227 0.67675 0.21661 0.0
H2382 H 0.02675 0.65429 0.26055 0.0
H2383 H 0.01798 0.66202 0.24685 0.0
H2384 H 0.00865 0.64118 0.22365 0.0
C2385 C 1.00125 0.66254 0.19404 0.0
C2386 C 0.01133 0.669 0.21814 0.0
C2387 C 0.99713 0.66677 0.18561 0.0
C2388 C 0.02649 0.6505 0.2536 0.0
C2389 C 0.02146 0.65493 0.24575 0.0
C2390 C 0.00956 0.64894 0.22217 0.0
C2391 C 1.00096 0.66753 0.20303 0.0
C2392 C 1.0057 0.66318 0.2119 0.0
C2393 C 0.02076 0.65013 0.23668 0.0
C2394 C 0.01536 0.65471 0.22831 0.0
H2395 H 0.98877 0.68821 0.19552 0.0
H2396 H 0.99585 0.68077 0.21026 0.0
H2397 H 1.00038 0.64846 0.20951 0.0
H2398 H 0.03378 0.62938 0.24231 0.0
H2399 H 0.02512 0.63708 0.22868 0.0
C2400 C 0.47362 0.34731 0.71573 0.0
C2401 C 0.47991 0.35136 0.70854 0.0
C2402 C 0.46723 0.35329 0.72114 0.0
C2403 C 0.46284 0.37899 0.72868 0.0
H2404 H 0.43626 0.37002 0.73351 0.0
C2405 C 0.43233 0.40428 0.74443 0.0
C2406 C 0.42572 0.40025 0.75133 0.0
C2407 C 0.43911 0.39831 0.73947 0.0
C2408 C 0.44369 0.37258 0.73234 0.0
H2409 H 0.48443 0.36493 0.70146 0.0
H2410 H 0.47324 0.37541 0.71092 0.0
H2411 H 0.44777 0.35972 0.72432 0.0
H2412 H 0.42112 0.38673 0.75847 0.0
H2413 H 0.43308 0.37631 0.74993 0.0
H2414 H 0.45874 0.39187 0.73667 0.0
C2415 C 0.47334 0.36759 0.71243 0.0
C2416 C 0.45029 0.36668 0.72706 0.0
C2417 C 0.47976 0.36158 0.70701 0.0
C2418 C 0.42614 0.39009 0.75324 0.0
C2419 C 0.43293 0.3841 0.74827 0.0
C2420 C 0.45623 0.3849 0.73396 0.0
C2421 C 0.46695 0.3635 0.71952 0.0
C2422 C 0.45995 0.36981 0.72516 0.0
C2423 C 0.43948 0.38814 0.7413 0.0
C2424 C 0.44657 0.38177 0.73585 0.0
H2425 H 0.4737 0.33949 0.71724 0.0
H2426 H 0.46255 0.34992 0.72668 0.0
H2427 H 0.47026 0.38156 0.72747 0.0
H2428 H 0.43231 0.41209 0.74287 0.0
H2429 H 0.44398 0.40165 0.73409 0.0
C2430 C 0.47764 0.65874 0.78136 0.0
C2431 C 0.47427 0.66094 0.7909 0.0
C2432 C 0.47158 0.6539 0.77477 0.0
C2433 C 0.44908 0.63879 0.77353 0.0
H2434 H 0.44833 0.64806 0.74651 0.0
C2435 C 0.41881 0.62693 0.7471 0.0
C2436 C 0.42173 0.62422 0.73756 0.0
C2437 C 0.42538 0.63148 0.75337 0.0
C2438 C 0.44853 0.64532 0.75401 0.0
H2439 H 0.46201 0.65943 0.80108 0.0
H2440 H 0.4514 0.65118 0.78956 0.0
H2441 H 0.45969 0.65545 0.75799 0.0
H2442 H 0.43384 0.6244 0.72708 0.0
H2443 H 0.44529 0.63244 0.73802 0.0
H2444 H 0.43786 0.62873 0.76958 0.0
C2445 C 0.45875 0.65312 0.78718 0.0
C2446 C 0.45506 0.64954 0.76059 0.0
C2447 C 0.4648 0.65796 0.79375 0.0
C2448 C 0.43131 0.62648 0.73434 0.0
C2449 C 0.43788 0.63106 0.74061 0.0
C2450 C 0.44254 0.6346 0.76697 0.0
C2451 C 0.46202 0.65112 0.77757 0.0
C2452 C 0.45537 0.64637 0.77045 0.0
C2453 C 0.43504 0.63347 0.75026 0.0
C2454 C 0.44214 0.63786 0.75715 0.0
H2455 H 0.48486 0.66101 0.77889 0.0
H2456 H 0.47438 0.65236 0.76747 0.0
H2457 H 0.44925 0.63603 0.78102 0.0
H2458 H 0.41143 0.62548 0.74975 0.0
H2459 H 0.42289 0.63343 0.76068 0.0
C2460 C 0.86324 0.20149 0.05345 0.0
C2461 C 0.86478 0.19232 0.04901 0.0
C2462 C 0.86557 0.21019 0.0484 0.0
C2463 C 0.86778 0.21967 0.02325 0.0
H2464 H 0.88149 0.24153 0.03464 0.0
C2465 C 0.88121 0.25194 0.99941 0.0
C2466 C 0.88088 0.26145 1.0033 0.0
C2467 C 0.87914 0.24379 1.00534 0.0
C2468 C 0.87752 0.23555 0.03139 0.0
H2469 H 0.87063 0.18509 0.03604 0.0
H2470 H 0.87453 0.20022 0.02722 0.0
H2471 H 0.87841 0.22677 0.04455 0.0
H2472 H 0.87803 0.26988 0.01644 0.0
H2473 H 0.87418 0.25562 0.0268 0.0
H2474 H 0.86669 0.22839 0.01017 0.0
C2475 C 0.87137 0.2007 0.03454 0.0
C2476 C 0.8758 0.22709 0.03707 0.0
C2477 C 0.86912 0.19203 0.0396 0.0
C2478 C 0.87839 0.26263 0.01326 0.0
C2479 C 0.87623 0.25445 0.0192 0.0
C2480 C 0.86941 0.22813 0.01762 0.0
C2481 C 0.86943 0.20987 0.0388 0.0
C2482 C 0.87103 0.21902 0.033 0.0
C2483 C 0.8766 0.24492 0.01531 0.0
C2484 C 0.87442 0.23614 0.02156 0.0
H2485 H 0.85984 0.20199 0.06066 0.0
H2486 H 0.86397 0.21716 0.05185 0.0
H2487 H 0.8639 0.21364 0.01998 0.0
H2488 H 0.88331 0.25077 0.99182 0.0
H2489 H 0.87973 0.23657 1.00213 0.0
C2490 C 0.65922 0.78056 0.47755 0.0
C2491 C 0.66216 0.78974 0.4738 0.0
C2492 C 0.65425 0.77396 0.47161 0.0
C2493 C 0.64008 0.77244 0.44852 0.0
H2494 H 0.64778 0.74495 0.44952 0.0
C2495 C 0.62792 0.74527 0.41907 0.0
C2496 C 0.6246 0.73603 0.42231 0.0
C2497 C 0.63255 0.75159 0.42553 0.0
C2498 C 0.64548 0.75258 0.44923 0.0
H2499 H 0.66186 0.79931 0.46097 0.0
H2500 H 0.65338 0.78777 0.45059 0.0
H2501 H 0.65535 0.75653 0.46064 0.0
H2502 H 0.62376 0.72614 0.43488 0.0
H2503 H 0.63191 0.73718 0.44615 0.0
H2504 H 0.63028 0.76851 0.43705 0.0
C2505 C 0.65484 0.78567 0.45813 0.0
C2506 C 0.6498 0.75922 0.45562 0.0
C2507 C 0.6598 0.79226 0.46406 0.0
C2508 C 0.62631 0.73316 0.43211 0.0
C2509 C 0.63097 0.73949 0.43858 0.0
C2510 C 0.63579 0.76581 0.44213 0.0
C2511 C 0.65209 0.7764 0.46179 0.0
C2512 C 0.6472 0.76925 0.4553 0.0
C2513 C 0.634 0.74884 0.4354 0.0
C2514 C 0.63848 0.75582 0.44235 0.0
H2515 H 0.661 0.77836 0.48499 0.0
H2516 H 0.65213 0.76694 0.4747 0.0
H2517 H 0.63777 0.78006 0.44819 0.0
H2518 H 0.6269 0.74764 0.41153 0.0
H2519 H 0.63499 0.75866 0.42279 0.0
C2520 C 0.79374 0.46358 0.65876 0.0
C2521 C 0.79111 0.47323 0.66132 0.0
C2522 C 0.78713 0.45761 0.65388 0.0
C2523 C 0.76056 0.45472 0.64946 0.0
H2524 H 0.76964 0.43664 0.62944 0.0
C2525 C 0.73422 0.43131 0.62619 0.0
C2526 C 0.73718 0.42159 0.62424 0.0
C2527 C 0.74059 0.43777 0.63081 0.0
C2528 C 0.767 0.44158 0.63509 0.0
H2529 H 0.77948 0.48422 0.6606 0.0
H2530 H 0.76801 0.47387 0.65187 0.0
H2531 H 0.78123 0.44781 0.63683 0.0
H2532 H 0.74899 0.41093 0.62608 0.0
H2533 H 0.76008 0.42217 0.63411 0.0
H2534 H 0.74632 0.44846 0.64768 0.0
C2535 C 0.77516 0.47087 0.65378 0.0
C2536 C 0.77365 0.44799 0.63933 0.0
C2537 C 0.78178 0.47685 0.65866 0.0
C2538 C 0.74655 0.41841 0.62729 0.0
C2539 C 0.75291 0.42486 0.63188 0.0
C2540 C 0.7539 0.44831 0.6452 0.0
C2541 C 0.77771 0.46114 0.65142 0.0
C2542 C 0.77054 0.4546 0.64662 0.0
C2543 C 0.75007 0.43465 0.63358 0.0
C2544 C 0.75707 0.44161 0.63801 0.0
H2545 H 0.80091 0.46059 0.6606 0.0
H2546 H 0.78932 0.45013 0.65226 0.0
H2547 H 0.75794 0.45961 0.65515 0.0
H2548 H 0.72711 0.43403 0.62384 0.0
H2549 H 0.73821 0.44528 0.63194 0.0
C2550 C 0.74818 0.49824 0.88463 0.0
C2551 C 0.75834 0.49927 0.88305 0.0
C2552 C 0.7423 0.5064 0.88701 0.0
C2553 C 0.74391 0.53198 0.89612 0.0
H2554 H 0.71806 0.53506 0.88465 0.0
C2555 C 0.72317 0.56879 0.89692 0.0
C2556 C 0.71332 0.56863 0.90012 0.0
C2557 C 0.72816 0.56009 0.89464 0.0
C2558 C 0.72523 0.53425 0.88797 0.0
H2559 H 0.77027 0.50969 0.88253 0.0
H2560 H 0.76007 0.52387 0.88653 0.0
H2561 H 0.72779 0.52023 0.88138 0.0
H2562 H 0.70087 0.55918 0.90302 0.0
H2563 H 0.70959 0.54395 0.89885 0.0
H2564 H 0.74144 0.54608 0.90253 0.0
C2565 C 0.75663 0.51675 0.88621 0.0
C2566 C 0.7308 0.52574 0.88613 0.0
C2567 C 0.7625 0.50861 0.88391 0.0
C2568 C 0.70843 0.55958 0.90052 0.0
C2569 C 0.71343 0.55085 0.89816 0.0
C2570 C 0.73839 0.54049 0.89787 0.0
C2571 C 0.74646 0.51577 0.88779 0.0
C2572 C 0.74026 0.52455 0.89011 0.0
C2573 C 0.72341 0.55101 0.89542 0.0
C2574 C 0.72904 0.54177 0.89374 0.0
H2575 H 0.74478 0.49112 0.88408 0.0
H2576 H 0.73452 0.50534 0.8883 0.0
H2577 H 0.75105 0.53123 0.89951 0.0
H2578 H 0.72709 0.57564 0.8963 0.0
H2579 H 0.73579 0.56047 0.89234 0.0
C2580 C 0.76951 0.56784 0.0811 0.0
C2581 C 0.76842 0.57697 0.08572 0.0
C2582 C 0.7655 0.55937 0.08534 0.0
C2583 C 0.75635 0.54905 0.10888 0.0
H2584 H 0.74186 0.5314 0.09235 0.0
C2585 C 0.7312 0.51937 0.12531 0.0
C2586 C 0.73111 0.51011 0.12085 0.0
C2587 C 0.7361 0.52722 0.12086 0.0
C2588 C 0.746 0.53617 0.09705 0.0
H2589 H 0.7625 0.58432 0.09857 0.0
H2590 H 0.75546 0.56956 0.10595 0.0
H2591 H 0.75002 0.5456 0.08501 0.0
H2592 H 0.73602 0.50186 0.10816 0.0
H2593 H 0.74465 0.5156 0.10038 0.0
H2594 H 0.75234 0.53967 0.12092 0.0
C2595 C 0.75944 0.56893 0.09905 0.0
C2596 C 0.75067 0.54431 0.09285 0.0
C2597 C 0.7634 0.57741 0.09478 0.0
C2598 C 0.73591 0.50892 0.11175 0.0
C2599 C 0.74085 0.51679 0.10729 0.0
C2600 C 0.75171 0.5409 0.11308 0.0
C2601 C 0.76037 0.55983 0.09434 0.0
C2602 C 0.75581 0.55091 0.09873 0.0
C2603 C 0.74106 0.52602 0.11184 0.0
C2604 C 0.74638 0.53442 0.10724 0.0
H2605 H 0.77325 0.56727 0.07407 0.0
H2606 H 0.76642 0.55245 0.08158 0.0
H2607 H 0.7604 0.55389 0.11359 0.0
H2608 H 0.7274 0.52059 0.13222 0.0
H2609 H 0.7359 0.53427 0.12446 0.0
C2610 C 0.71508 0.47249 0.34852 0.0
C2611 C 0.70855 0.47946 0.35258 0.0
C2612 C 0.72056 0.46619 0.35457 0.0
C2613 C 0.72095 0.45551 0.37959 0.0
H2614 H 0.74807 0.4492 0.37301 0.0
C2615 C 0.74569 0.43291 0.40572 0.0
C2616 C 0.75185 0.42569 0.40154 0.0
C2617 C 0.74066 0.43967 0.39979 0.0
C2618 C 0.74048 0.4508 0.37489 0.0
H2619 H 0.70272 0.48528 0.36623 0.0
H2620 H 0.71241 0.47438 0.37681 0.0
H2621 H 0.73886 0.46071 0.36269 0.0
H2622 H 0.75758 0.41998 0.38781 0.0
H2623 H 0.74878 0.4318 0.37742 0.0
H2624 H 0.72255 0.44557 0.39176 0.0
C2625 C 0.7132 0.47372 0.36892 0.0
C2626 C 0.73519 0.45741 0.36898 0.0
C2627 C 0.70772 0.48004 0.36286 0.0
C2628 C 0.75298 0.42551 0.39127 0.0
C2629 C 0.74793 0.43228 0.38532 0.0
C2630 C 0.72624 0.4489 0.38549 0.0
C2631 C 0.71966 0.4667 0.36484 0.0
C2632 C 0.72536 0.45983 0.37125 0.0
C2633 C 0.74165 0.4394 0.38951 0.0
C2634 C 0.73606 0.44646 0.38322 0.0
H2635 H 0.71601 0.47193 0.34064 0.0
H2636 H 0.72538 0.46081 0.35117 0.0
H2637 H 0.71335 0.45707 0.38145 0.0
H2638 H 0.74481 0.43338 0.41362 0.0
H2639 H 0.73604 0.44517 0.40328 0.0
C2640 C 0.18638 0.10075 0.40487 0.0
C2641 C 0.19163 0.10462 0.41276 0.0
C2642 C 0.17714 0.10454 0.40239 0.0
C2643 C 0.16104 0.12645 0.40504 0.0
H2644 H 0.14083 0.1085 0.39691 0.0
C2645 C 0.12087 0.13887 0.39662 0.0
C2646 C 0.11646 0.13459 0.38842 0.0
C2647 C 0.13002 0.13546 0.39997 0.0
C2648 C 0.14642 0.11363 0.39907 0.0
H2649 H 0.19124 0.11556 0.42421 0.0
H2650 H 0.175 0.12208 0.41998 0.0
H2651 H 0.15669 0.10205 0.40219 0.0
H2652 H 0.11844 0.12363 0.3771 0.0
H2653 H 0.13428 0.11769 0.38296 0.0
H2654 H 0.15072 0.13803 0.40188 0.0
C2655 C 0.1781 0.11617 0.41565 0.0
C2656 C 0.15552 0.10992 0.4021 0.0
C2657 C 0.18737 0.11236 0.41814 0.0
C2658 C 0.1215 0.12695 0.38357 0.0
C2659 C 0.1306 0.12354 0.38693 0.0
C2660 C 0.1519 0.13016 0.40202 0.0
C2661 C 0.17287 0.11229 0.40774 0.0
C2662 C 0.163 0.11628 0.40501 0.0
C2663 C 0.13494 0.12768 0.39522 0.0
C2664 C 0.14452 0.1238 0.39888 0.0
H2665 H 0.18936 0.09471 0.40064 0.0
H2666 H 0.17339 0.10145 0.39618 0.0
H2667 H 0.16666 0.13156 0.40714 0.0
H2668 H 0.11717 0.1447 0.40058 0.0
H2669 H 0.13312 0.13876 0.40643 0.0
C2670 C 0.08972 0.84596 0.65422 0.0
C2671 C 0.08521 0.84635 0.64498 0.0
C2672 C 0.09274 0.85457 0.6588 0.0
C2673 C 0.08938 0.8817 0.6584 0.0
H2674 H 0.1152 0.8817 0.67019 0.0
C2675 C 0.10986 0.91744 0.6671 0.0
C2676 C 0.11557 0.91776 0.67564 0.0
C2677 C 0.10547 0.9087 0.66423 0.0
C2678 C 0.10791 0.88181 0.66707 0.0
H2679 H 0.07999 0.85618 0.63348 0.0
H2680 H 0.08536 0.87114 0.64136 0.0
H2681 H 0.10873 0.86651 0.66367 0.0
H2682 H 0.12101 0.90913 0.68794 0.0
H2683 H 0.11324 0.8939 0.68302 0.0
H2684 H 0.08861 0.89703 0.66168 0.0
C2685 C 0.08653 0.86419 0.64512 0.0
C2686 C 0.10419 0.87308 0.66332 0.0
C2687 C 0.08355 0.85559 0.64054 0.0
C2688 C 0.11661 0.90916 0.68136 0.0
C2689 C 0.11224 0.9004 0.67848 0.0
C2690 C 0.09309 0.89042 0.66215 0.0
C2691 C 0.09126 0.86379 0.65426 0.0
C2692 C 0.09493 0.87294 0.65883 0.0
C2693 C 0.10669 0.90004 0.66982 0.0
C2694 C 0.10245 0.89062 0.66642 0.0
H2695 H 0.09118 0.83897 0.65782 0.0
H2696 H 0.09626 0.85399 0.66588 0.0
H2697 H 0.08214 0.88183 0.65515 0.0
H2698 H 0.10881 0.92395 0.66257 0.0
H2699 H 0.10133 0.90868 0.65748 0.0
C2700 C 0.40924 0.90254 0.82433 0.0
C2701 C 0.41304 0.90636 0.81545 0.0
C2702 C 0.40138 0.90721 0.82915 0.0
C2703 C 0.38868 0.93118 0.83121 0.0
H2704 H 0.3673 0.91589 0.8422 0.0
C2705 C 0.35311 0.94945 0.84604 0.0
C2706 C 0.3487 0.9454 0.85453 0.0
C2707 C 0.36097 0.94464 0.84137 0.0
C2708 C 0.37327 0.92027 0.8393 0.0
H2709 H 0.41133 0.91802 0.80459 0.0
H2710 H 0.39773 0.9262 0.81305 0.0
H2711 H 0.38096 0.90758 0.83394 0.0
H2712 H 0.34913 0.93303 0.86469 0.0
H2713 H 0.36299 0.9248 0.85672 0.0
H2714 H 0.38107 0.94386 0.83662 0.0
C2715 C 0.40092 0.91965 0.81635 0.0
C2716 C 0.3811 0.9155 0.83454 0.0
C2717 C 0.40874 0.91496 0.8115 0.0
C2718 C 0.35239 0.93643 0.85824 0.0
C2719 C 0.36028 0.93164 0.85358 0.0
C2720 C 0.38088 0.93595 0.83601 0.0
C2721 C 0.39716 0.91585 0.82523 0.0
C2722 C 0.38888 0.9209 0.8304 0.0
C2723 C 0.36467 0.93567 0.84508 0.0
C2724 C 0.37305 0.93056 0.84008 0.0
H2725 H 0.41245 0.89602 0.82767 0.0
H2726 H 0.39873 0.90416 0.83605 0.0
H2727 H 0.39464 0.93554 0.82823 0.0
H2728 H 0.35056 0.9564 0.84304 0.0
H2729 H 0.36407 0.94793 0.83478 0.0
C2730 C 0.40487 0.1899 0.11089 0.0
C2731 C 0.41417 0.19161 0.10664 0.0
C2732 C 0.40262 0.18078 0.1151 0.0
C2733 C 0.41028 0.15465 0.11464 0.0
H2734 H 0.39337 0.15279 0.13765 0.0
C2735 C 0.39123 0.11862 0.12603 0.0
C2736 C 0.39005 0.11639 0.13608 0.0
C2737 C 0.39496 0.12767 0.12294 0.0
C2738 C 0.3982 0.15316 0.13129 0.0
H2739 H 0.42845 0.18501 0.10364 0.0
H2740 H 0.42462 0.16918 0.1112 0.0
H2741 H 0.39856 0.16885 0.13167 0.0
H2742 H 0.39204 0.12197 0.15078 0.0
H2743 H 0.39877 0.1377 0.1454 0.0
H2744 H 0.41002 0.13895 0.11433 0.0
C2745 C 0.419 0.17487 0.11114 0.0
C2746 C 0.40107 0.16239 0.12778 0.0
C2747 C 0.42124 0.184 0.1069 0.0
C2748 C 0.39291 0.1234 0.14298 0.0
C2749 C 0.39666 0.13247 0.13989 0.0
C2750 C 0.40742 0.14542 0.11816 0.0
C2751 C 0.40963 0.17312 0.11523 0.0
C2752 C 0.40705 0.16327 0.11933 0.0
C2753 C 0.39766 0.13475 0.12983 0.0
C2754 C 0.40124 0.14455 0.12646 0.0
H2755 H 0.39928 0.19563 0.11095 0.0
H2756 H 0.3953 0.17969 0.11807 0.0
H2757 H 0.41481 0.15502 0.10807 0.0
H2758 H 0.38925 0.11335 0.1205 0.0
H2759 H 0.39552 0.12919 0.11514 0.0
C2760 C 0.19489 0.91784 0.10655 0.0
C2761 C 0.20171 0.91326 0.10022 0.0
C2762 C 0.18636 0.91302 0.10959 0.0
C2763 C 0.16985 0.89248 0.1038 0.0
H2764 H 0.16254 0.89469 0.1313 0.0
C2765 C 0.13253 0.87903 0.12001 0.0
C2766 C 0.13266 0.87474 0.12946 0.0
C2767 C 0.14105 0.8832 0.11596 0.0
C2768 C 0.16451 0.89391 0.12362 0.0
H2769 H 0.20476 0.90002 0.09197 0.0
H2770 H 0.18983 0.89159 0.09727 0.0
H2771 H 0.17709 0.90302 0.12512 0.0
H2772 H 0.142 0.87096 0.14178 0.0
H2773 H 0.15679 0.87819 0.13473 0.0
H2774 H 0.15728 0.88325 0.10238 0.0
C2775 C 0.19107 0.89897 0.09982 0.0
C2776 C 0.17279 0.89881 0.12004 0.0
C2777 C 0.19963 0.9038 0.09678 0.0
C2778 C 0.14158 0.8744 0.13458 0.0
C2779 C 0.15007 0.87855 0.13054 0.0
C2780 C 0.16151 0.8876 0.10739 0.0
C2781 C 0.1844 0.90347 0.10637 0.0
C2782 C 0.17556 0.89818 0.11009 0.0
C2783 C 0.14988 0.88316 0.12126 0.0
C2784 C 0.15876 0.88825 0.11735 0.0
H2785 H 0.19614 0.9252 0.10917 0.0
H2786 H 0.18128 0.91679 0.11446 0.0
H2787 H 0.17174 0.89189 0.09609 0.0
H2788 H 0.12577 0.87949 0.11589 0.0
H2789 H 0.14062 0.88675 0.10882 0.0
C2790 C 0.4167 0.84763 0.3724 0.0
C2791 C 0.40899 0.84086 0.37317 0.0
C2792 C 0.41492 0.85726 0.36914 0.0
C2793 C 0.39653 0.873 0.35614 0.0
H2794 H 0.40905 0.8941 0.37003 0.0
C2795 C 0.39013 0.9138 0.34538 0.0
C2796 C 0.38869 0.92038 0.35317 0.0
C2797 C 0.39343 0.90418 0.34718 0.0
C2798 C 0.40546 0.8883 0.36609 0.0
H2799 H 0.39341 0.83887 0.37073 0.0
H2800 H 0.39027 0.85567 0.36529 0.0
H2801 H 0.41305 0.87712 0.37426 0.0
H2802 H 0.38998 0.92206 0.36893 0.0
H2803 H 0.39548 0.90529 0.37208 0.0
H2804 H 0.38865 0.88418 0.34823 0.0
C2805 C 0.39773 0.85354 0.36712 0.0
C2806 C 0.40785 0.87855 0.36844 0.0
C2807 C 0.39951 0.84392 0.37037 0.0
C2808 C 0.39085 0.91716 0.36276 0.0
C2809 C 0.39415 0.90756 0.36456 0.0
C2810 C 0.39412 0.88276 0.3538 0.0
C2811 C 0.40539 0.86037 0.36654 0.0
C2812 C 0.40333 0.87076 0.36358 0.0
C2813 C 0.39541 0.90091 0.3568 0.0
C2814 C 0.39846 0.89054 0.35884 0.0
H2815 H 0.42409 0.84556 0.37455 0.0
H2816 H 0.42102 0.86229 0.36868 0.0
H2817 H 0.393 0.8672 0.35214 0.0
H2818 H 0.38847 0.916 0.3379 0.0
H2819 H 0.39443 0.8993 0.34101 0.0
C2820 C 0.3502 0.0863 0.64819 0.0
C2821 C 0.34581 0.07815 0.65283 0.0
C2822 C 0.35905 0.09005 0.65163 0.0
C2823 C 0.38061 0.0834 0.66695 0.0
H2824 H 0.38423 0.11156 0.66798 0.0
C2825 C 0.41272 0.10065 0.68782 0.0
C2826 C 0.4176 0.10858 0.68331 0.0
C2827 C 0.40404 0.09703 0.68389 0.0
C2828 C 0.38338 0.10368 0.66764 0.0
H2829 H 0.34745 0.06747 0.66465 0.0
H2830 H 0.36269 0.07414 0.67078 0.0
H2831 H 0.36901 0.10505 0.66147 0.0
H2832 H 0.41713 0.11888 0.67106 0.0
H2833 H 0.40194 0.11261 0.66425 0.0
H2834 H 0.39494 0.08203 0.67321 0.0
C2835 C 0.35936 0.07758 0.66441 0.0
C2836 C 0.37465 0.09994 0.66389 0.0
C2837 C 0.35053 0.07383 0.66096 0.0
C2838 C 0.41351 0.11286 0.67481 0.0
C2839 C 0.4048 0.10925 0.67089 0.0
C2840 C 0.38931 0.08713 0.67072 0.0
C2841 C 0.36374 0.08574 0.6598 0.0
C2842 C 0.37313 0.08975 0.66355 0.0
C2843 C 0.39999 0.10126 0.67536 0.0
C2844 C 0.39079 0.09732 0.67116 0.0
H2845 H 0.34673 0.08988 0.64196 0.0
H2846 H 0.36226 0.09628 0.64783 0.0
H2847 H 0.37978 0.07551 0.66663 0.0
H2848 H 0.41554 0.09729 0.69449 0.0
H2849 H 0.40043 0.09099 0.68762 0.0
C2850 C 0.09349 0.19375 0.91032 0.0
C2851 C 0.10007 0.20164 0.91051 0.0
C2852 C 0.09601 0.18505 0.90548 0.0
C2853 C 0.11349 0.17455 0.88708 0.0
H2854 H 0.10733 0.14989 0.90007 0.0
C2855 C 0.12359 0.13706 0.86974 0.0
C2856 C 0.12763 0.12993 0.87612 0.0
C2857 C 0.11927 0.14565 0.87344 0.0
C2858 C 0.10914 0.1567 0.89635 0.0
H2859 H 0.11434 0.20663 0.90543 0.0
H2860 H 0.11882 0.19142 0.89722 0.0
H2861 H 0.10181 0.16527 0.90735 0.0
H2862 H 0.12991 0.12613 0.89145 0.0
H2863 H 0.12259 0.14114 0.89787 0.0
H2864 H 0.12114 0.16599 0.87628 0.0
C2865 C 0.11166 0.19197 0.90073 0.0
C2866 C 0.10587 0.16554 0.90047 0.0
C2867 C 0.10915 0.20067 0.90556 0.0
C2868 C 0.127 0.13151 0.8863 0.0
C2869 C 0.12269 0.14008 0.89 0.0
C2870 C 0.11677 0.16571 0.88297 0.0
C2871 C 0.10517 0.18401 0.90069 0.0
C2872 C 0.1081 0.17459 0.89595 0.0
C2873 C 0.11885 0.14732 0.88363 0.0
C2874 C 0.11475 0.15668 0.88762 0.0
H2875 H 0.08647 0.19421 0.9141 0.0
H2876 H 0.09077 0.17912 0.9055 0.0
H2877 H 0.11524 0.18136 0.88332 0.0
H2878 H 0.124 0.13611 0.86185 0.0
H2879 H 0.11629 0.15101 0.86832 0.0
C2880 C 0.10068 0.40576 0.18606 0.0
C2881 C 0.10508 0.41302 0.19177 0.0
C2882 C 0.10451 0.40336 0.17683 0.0
C2883 C 0.12708 0.40462 0.16154 0.0
H2884 H 0.1091 0.39908 0.14044 0.0
C2885 C 0.14011 0.3964 0.12156 0.0
C2886 C 0.13521 0.38882 0.11672 0.0
C2887 C 0.13667 0.39981 0.13066 0.0
C2888 C 0.11423 0.40051 0.14627 0.0
H2889 H 0.11702 0.42342 0.19219 0.0
H2890 H 0.12362 0.41932 0.17596 0.0
H2891 H 0.10264 0.4043 0.1563 0.0
H2892 H 0.12308 0.37866 0.11789 0.0
H2893 H 0.11712 0.3846 0.13365 0.0
H2894 H 0.13868 0.40077 0.15147 0.0
C2895 C 0.11725 0.41543 0.1787 0.0
C2896 C 0.11052 0.40351 0.15538 0.0
C2897 C 0.1134 0.41785 0.18796 0.0
C2898 C 0.12691 0.38465 0.12128 0.0
C2899 C 0.12348 0.38806 0.13034 0.0
C2900 C 0.13081 0.40162 0.1524 0.0
C2901 C 0.11284 0.40815 0.17302 0.0
C2902 C 0.11688 0.40548 0.16317 0.0
C2903 C 0.12826 0.39573 0.13512 0.0
C2904 C 0.12441 0.39941 0.1447 0.0
H2905 H 0.0942 0.40197 0.1887 0.0
H2906 H 0.10099 0.39764 0.17272 0.0
H2907 H 0.13219 0.40599 0.1674 0.0
H2908 H 0.14647 0.39983 0.11822 0.0
H2909 H 0.14049 0.40577 0.13411 0.0
C2910 C 0.64501 0.09708 0.84822 0.0
C2911 C 0.64708 0.0876 0.84472 0.0
C2912 C 0.64915 0.10035 0.85693 0.0
C2913 C 0.66035 0.09173 0.8801 0.0
H2914 H 0.66903 0.11869 0.88142 0.0
C2915 C 0.67825 0.10791 0.91497 0.0
C2916 C 0.67497 0.11735 0.91765 0.0
C2917 C 0.67565 0.10394 0.9059 0.0
C2918 C 0.66658 0.11116 0.88121 0.0
H2919 H 0.6552 0.07412 0.84769 0.0
H2920 H 0.66243 0.07984 0.86296 0.0
H2921 H 0.66303 0.11236 0.86597 0.0
H2922 H 0.66658 0.13009 0.91276 0.0
H2923 H 0.66193 0.12316 0.89713 0.0
H2924 H 0.6638 0.0906 0.8954 0.0
C2925 C 0.65752 0.08471 0.85897 0.0
C2926 C 0.66313 0.10753 0.87234 0.0
C2927 C 0.65337 0.08143 0.85022 0.0
C2928 C 0.66914 0.12275 0.911 0.0
C2929 C 0.66657 0.11882 0.90197 0.0
C2930 C 0.6638 0.09538 0.889 0.0
C2931 C 0.65548 0.09423 0.8624 0.0
C2932 C 0.65981 0.09782 0.8717 0.0
C2933 C 0.66977 0.10936 0.89929 0.0
C2934 C 0.66681 0.1052 0.88969 0.0
H2935 H 0.64002 0.10195 0.84432 0.0
H2936 H 0.64724 0.10764 0.85946 0.0
H2937 H 0.65778 0.08424 0.87989 0.0
H2938 H 0.68271 0.10353 0.91993 0.0
H2939 H 0.6783 0.09667 0.90404 0.0
C2940 C 0.91742 0.81797 0.41392 0.0
C2941 C 0.90733 0.81586 0.41364 0.0
C2942 C 0.92202 0.82287 0.40608 0.0
C2943 C 0.91921 0.8287 0.37962 0.0
H2944 H 0.93903 0.84818 0.38474 0.0
C2945 C 0.94404 0.8447 0.34885 0.0
C2946 C 0.94622 0.85476 0.34915 0.0
C2947 C 0.93914 0.84011 0.35668 0.0
C2948 C 0.93345 0.84282 0.38317 0.0
H2949 H 0.89419 0.81725 0.40482 0.0
H2950 H 0.90215 0.82598 0.39126 0.0
H2951 H 0.93066 0.8401 0.39845 0.0
H2952 H 0.94496 0.86786 0.35801 0.0
H2953 H 0.93623 0.8599 0.37159 0.0
H2954 H 0.92188 0.83155 0.36435 0.0
C2955 C 0.90654 0.82374 0.3975 0.0
C2956 C 0.92873 0.83809 0.39105 0.0
C2957 C 0.90195 0.81883 0.40534 0.0
C2958 C 0.94332 0.86012 0.35748 0.0
C2959 C 0.93841 0.85553 0.36532 0.0
C2960 C 0.92393 0.83343 0.37175 0.0
C2961 C 0.91664 0.82581 0.39776 0.0
C2962 C 0.92157 0.83095 0.38938 0.0
C2963 C 0.93627 0.84546 0.36503 0.0
C2964 C 0.93113 0.84053 0.37342 0.0
H2965 H 0.92178 0.81589 0.42024 0.0
H2966 H 0.92982 0.82425 0.4065 0.0
H2967 H 0.91381 0.82317 0.37806 0.0
H2968 H 0.94606 0.84036 0.34251 0.0
H2969 H 0.93771 0.83232 0.35625 0.0
C2970 C 0.88534 0.11901 0.12973 0.0
C2971 C 0.87752 0.12584 0.12996 0.0
C2972 C 0.88919 0.11511 0.13844 0.0
C2973 C 0.88391 0.11196 0.16518 0.0
H2974 H 0.91223 0.10912 0.16684 0.0
C2975 C 0.90423 0.10557 0.20194 0.0
C2976 C 0.91224 0.09895 0.20198 0.0
C2977 C 0.89964 0.10823 0.19314 0.0
C2978 C 0.9043 0.10975 0.16646 0.0
H2979 H 0.86757 0.13386 0.13956 0.0
H2980 H 0.87433 0.12713 0.15476 0.0
H2981 H 0.90486 0.11486 0.15157 0.0
H2982 H 0.92166 0.08992 0.19276 0.0
H2983 H 0.91361 0.0945 0.17742 0.0
H2984 H 0.8834 0.10698 0.18016 0.0
C2985 C 0.87739 0.12465 0.14784 0.0
C2986 C 0.90006 0.11303 0.15769 0.0
C2987 C 0.87351 0.12852 0.13912 0.0
C2988 C 0.91546 0.09497 0.19301 0.0
C2989 C 0.91091 0.09767 0.1842 0.0
C2990 C 0.88816 0.10871 0.17397 0.0
C2991 C 0.88535 0.11797 0.14763 0.0
C2992 C 0.88981 0.11421 0.15693 0.0
C2993 C 0.90299 0.10439 0.18415 0.0
C2994 C 0.89841 0.10759 0.17473 0.0
H2995 H 0.88849 0.11667 0.1228 0.0
H2996 H 0.89518 0.10983 0.13797 0.0
H2997 H 0.87598 0.11263 0.16482 0.0
H2998 H 0.90149 0.1087 0.20873 0.0
H2999 H 0.89361 0.11348 0.19336 0.0
C3000 C 0.36524 0.62329 0.64211 0.0
C3001 C 0.37485 0.62541 0.64511 0.0
C3002 C 0.36193 0.62627 0.63282 0.0
C3003 C 0.37088 0.63443 0.60821 0.0
H3004 H 0.34475 0.64577 0.6057 0.0
C3005 C 0.3592 0.65658 0.57392 0.0
C3006 C 0.34973 0.65512 0.57019 0.0
C3007 C 0.36197 0.65243 0.58292 0.0
C3008 C 0.35202 0.64251 0.60625 0.0
H3009 H 0.38857 0.63209 0.64054 0.0
H3010 H 0.38276 0.63744 0.6245 0.0
H3011 H 0.35013 0.63934 0.6216 0.0
H3012 H 0.33576 0.64809 0.57306 0.0
H3013 H 0.34058 0.6409 0.58884 0.0
H3014 H 0.37282 0.63771 0.59291 0.0
C3015 C 0.37779 0.63341 0.62927 0.0
C3016 C 0.35511 0.63881 0.61537 0.0
C3017 C 0.38109 0.63044 0.63854 0.0
C3018 C 0.34307 0.64946 0.57576 0.0
C3019 C 0.34583 0.64533 0.5848 0.0
C3020 C 0.3678 0.63814 0.59912 0.0
C3021 C 0.36815 0.6314 0.6263 0.0
C3022 C 0.36462 0.63483 0.61649 0.0
C3023 C 0.35534 0.64673 0.58847 0.0
C3024 C 0.35838 0.64233 0.59805 0.0
H3025 H 0.36022 0.6195 0.64701 0.0
H3026 H 0.35449 0.62452 0.63074 0.0
H3027 H 0.37818 0.63123 0.60875 0.0
H3028 H 0.36447 0.66106 0.56996 0.0
H3029 H 0.36928 0.65382 0.58561 0.0
C3030 C 0.11257 0.68583 0.40861 0.0
C3031 C 0.10883 0.68253 0.41771 0.0
C3032 C 0.10904 0.68205 0.39981 0.0
C3033 C 0.08783 0.66878 0.38953 0.0
H3034 H 0.10566 0.66421 0.36763 0.0
C3035 C 0.07597 0.64853 0.3545 0.0
C3036 C 0.07902 0.65257 0.34544 0.0
C3037 C 0.07971 0.65204 0.36332 0.0
C3038 C 0.10057 0.66553 0.37365 0.0
H3039 H 0.09861 0.67249 0.42469 0.0
H3040 H 0.09253 0.66581 0.40938 0.0
H3041 H 0.112 0.67054 0.38299 0.0
H3042 H 0.08855 0.66334 0.33856 0.0
H3043 H 0.09504 0.66949 0.35395 0.0
H3044 H 0.07641 0.6637 0.3802 0.0
C3045 C 0.09804 0.67149 0.40901 0.0
C3046 C 0.1042 0.66917 0.38246 0.0
C3047 C 0.10154 0.6753 0.4178 0.0
C3048 C 0.08598 0.66013 0.34541 0.0
C3049 C 0.08977 0.66359 0.35423 0.0
C3050 C 0.08421 0.66509 0.38074 0.0
C3051 C 0.10171 0.67484 0.39989 0.0
C3052 C 0.09787 0.67087 0.39052 0.0
C3053 C 0.08664 0.65962 0.3633 0.0
C3054 C 0.09053 0.66344 0.37269 0.0
H3055 H 0.1181 0.69149 0.40827 0.0
H3056 H 0.11194 0.68493 0.39294 0.0
H3057 H 0.0827 0.67015 0.39551 0.0
H3058 H 0.07056 0.64276 0.35479 0.0
H3059 H 0.07722 0.64875 0.37017 0.0
C3060 C 0.36783 0.41247 0.84535 0.0
C3061 C 0.37525 0.40687 0.84071 0.0
C3062 C 0.36479 0.41022 0.85497 0.0
C3063 C 0.36474 0.38984 0.87317 0.0
H3064 H 0.36027 0.41033 0.89231 0.0
C3065 C 0.36137 0.38117 0.91449 0.0
C3066 C 0.35444 0.38643 0.92014 0.0
C3067 C 0.36332 0.38384 0.90474 0.0
C3068 C 0.36136 0.40452 0.88702 0.0
H3069 H 0.38552 0.39473 0.84275 0.0
H3070 H 0.38019 0.39081 0.85941 0.0
H3071 H 0.36477 0.41473 0.87542 0.0
H3072 H 0.34412 0.39868 0.91989 0.0
H3073 H 0.34742 0.40325 0.90276 0.0
H3074 H 0.36138 0.37962 0.88472 0.0
C3075 C 0.37658 0.39681 0.85556 0.0
C3076 C 0.36394 0.40705 0.87734 0.0
C3077 C 0.37963 0.39906 0.84599 0.0
C3078 C 0.34945 0.39442 0.91574 0.0
C3079 C 0.35142 0.3971 0.90595 0.0
C3080 C 0.36214 0.38732 0.88282 0.0
C3081 C 0.36908 0.40231 0.86017 0.0
C3082 C 0.3658 0.39973 0.87033 0.0
C3083 C 0.35837 0.39183 0.90033 0.0
C3084 C 0.36055 0.39461 0.88991 0.0
H3085 H 0.36423 0.41847 0.84148 0.0
H3086 H 0.35894 0.41455 0.85828 0.0
H3087 H 0.36591 0.38402 0.86792 0.0
H3088 H 0.36525 0.3749 0.91759 0.0
H3089 H 0.36881 0.37968 0.90069 0.0
C3090 C 0.56998 0.6592 0.84329 0.0
C3091 C 0.56158 0.66214 0.84863 0.0
C3092 C 0.57865 0.65655 0.84812 0.0
C3093 C 0.58787 0.64755 0.87198 0.0
H3094 H 0.6132 0.65501 0.86116 0.0
C3095 C 0.62447 0.63696 0.89106 0.0
C3096 C 0.63211 0.63358 0.88489 0.0
C3097 C 0.61598 0.64128 0.8871 0.0
C3098 C 0.60619 0.6528 0.86424 0.0
H3099 H 0.55575 0.66463 0.86328 0.0
H3100 H 0.57093 0.66009 0.87172 0.0
H3101 H 0.59818 0.661 0.8534 0.0
H3102 H 0.6369 0.6324 0.86971 0.0
H3103 H 0.62209 0.63972 0.86281 0.0
H3104 H 0.59587 0.63921 0.88273 0.0
C3105 C 0.57078 0.65977 0.86378 0.0
C3106 C 0.59757 0.65624 0.85979 0.0
C3107 C 0.56211 0.66247 0.85894 0.0
C3108 C 0.63112 0.6348 0.87468 0.0
C3109 C 0.62266 0.63912 0.87072 0.0
C3110 C 0.59649 0.64409 0.87643 0.0
C3111 C 0.57915 0.65674 0.85842 0.0
C3112 C 0.5883 0.65357 0.86353 0.0
C3113 C 0.61494 0.64236 0.87686 0.0
C3114 C 0.60576 0.64657 0.87254 0.0
H3115 H 0.56986 0.65895 0.83534 0.0
H3116 H 0.58492 0.65416 0.84376 0.0
H3117 H 0.58085 0.64526 0.87499 0.0
H3118 H 0.62496 0.63608 0.89896 0.0
H3119 H 0.61022 0.64378 0.89205 0.0
C3120 C 0.64883 0.3547 0.07589 0.0
C3121 C 0.6524 0.34564 0.07947 0.0
C3122 C 0.65229 0.36352 0.07964 0.0
C3123 C 0.66461 0.37409 0.1011 0.0
H3124 H 0.67124 0.39518 0.08295 0.0
C3125 C 0.68552 0.40855 0.11337 0.0
C3126 C 0.68285 0.41764 0.10915 0.0
C3127 C 0.68159 0.39982 0.10987 0.0
C3128 C 0.6693 0.38943 0.08815 0.0
H3129 H 0.66226 0.33876 0.08997 0.0
H3130 H 0.66834 0.35415 0.09647 0.0
H3131 H 0.66468 0.37992 0.07669 0.0
H3132 H 0.67374 0.4247 0.09811 0.0
H3133 H 0.6668 0.40951 0.09208 0.0
H3134 H 0.66919 0.3836 0.11257 0.0
C3135 C 0.66284 0.35443 0.09078 0.0
C3136 C 0.66555 0.38067 0.08455 0.0
C3137 C 0.65943 0.34561 0.08699 0.0
C3138 C 0.67607 0.4178 0.10142 0.0
C3139 C 0.67211 0.40908 0.09795 0.0
C3140 C 0.66833 0.38287 0.10471 0.0
C3141 C 0.65936 0.3635 0.08711 0.0
C3142 C 0.66319 0.37288 0.09098 0.0
C3143 C 0.67484 0.39996 0.1021 0.0
C3144 C 0.67075 0.39065 0.09828 0.0
H3145 H 0.64348 0.35498 0.07005 0.0
H3146 H 0.64939 0.37038 0.07672 0.0
H3147 H 0.66274 0.36829 0.10627 0.0
H3148 H 0.69082 0.40816 0.11924 0.0
H3149 H 0.684 0.39294 0.11315 0.0
C3150 C 0.84538 0.36655 0.41336 0.0
C3151 C 0.8413 0.37484 0.4086 0.0
C3152 C 0.85514 0.36368 0.41153 0.0
C3153 C 0.87881 0.3732 0.40182 0.0
H3154 H 0.88564 0.34567 0.39892 0.0
C3155 C 0.91908 0.36054 0.39665 0.0
C3156 C 0.92095 0.35329 0.38958 0.0
C3157 C 0.90946 0.36272 0.39968 0.0
C3158 C 0.88385 0.35339 0.39966 0.0
H3159 H 0.84441 0.38668 0.39829 0.0
H3160 H 0.86128 0.38157 0.39495 0.0
H3161 H 0.86867 0.35043 0.40263 0.0
H3162 H 0.91415 0.34256 0.38024 0.0
H3163 H 0.89736 0.34641 0.38546 0.0
H3164 H 0.89389 0.37621 0.39858 0.0
C3165 C 0.85698 0.37733 0.40018 0.0
C3166 C 0.87414 0.35612 0.4019 0.0
C3167 C 0.84725 0.38019 0.402 0.0
C3168 C 0.91298 0.34811 0.38579 0.0
C3169 C 0.90334 0.35032 0.38879 0.0
C3170 C 0.88851 0.37048 0.39959 0.0
C3171 C 0.86107 0.36905 0.40492 0.0
C3172 C 0.87148 0.36607 0.40293 0.0
C3173 C 0.90144 0.35774 0.39568 0.0
C3174 C 0.89116 0.36055 0.39842 0.0
H3175 H 0.841 0.36221 0.41843 0.0
H3176 H 0.85807 0.35731 0.41538 0.0
H3177 H 0.87707 0.38092 0.40269 0.0
H3178 H 0.92506 0.36455 0.39985 0.0
H3179 H 0.9083 0.36834 0.40515 0.0
C3180 C 0.84456 0.56607 0.65385 0.0
C3181 C 0.84854 0.56002 0.66127 0.0
C3182 C 0.84902 0.57492 0.65123 0.0
C3183 C 0.8726 0.5881 0.65219 0.0
H3184 H 0.85621 0.6107 0.64586 0.0
C3185 C 0.88857 0.62651 0.64249 0.0
C3186 C 0.8841 0.63161 0.63465 0.0
C3187 C 0.88442 0.61789 0.64631 0.0
C3188 C 0.8609 0.60444 0.64752 0.0
H3189 H 0.86039 0.55857 0.67174 0.0
H3190 H 0.8681 0.57413 0.66726 0.0
H3191 H 0.84862 0.59555 0.65156 0.0
H3192 H 0.87191 0.63141 0.62449 0.0
H3193 H 0.8647 0.61649 0.63116 0.0
H3194 H 0.88489 0.59702 0.64808 0.0
C3195 C 0.86156 0.57196 0.66341 0.0
C3196 C 0.85654 0.59574 0.65079 0.0
C3197 C 0.85708 0.56309 0.66605 0.0
C3198 C 0.87544 0.62782 0.63068 0.0
C3199 C 0.8713 0.61924 0.6345 0.0
C3200 C 0.87697 0.59682 0.64892 0.0
C3201 C 0.85758 0.57799 0.65596 0.0
C3202 C 0.86232 0.58741 0.65304 0.0
C3203 C 0.8757 0.61418 0.64239 0.0
C3204 C 0.87116 0.60506 0.64642 0.0
H3205 H 0.83792 0.56401 0.65009 0.0
H3206 H 0.84581 0.57931 0.64538 0.0
H3207 H 0.87728 0.5818 0.65376 0.0
H3208 H 0.8952 0.62926 0.64578 0.0
H3209 H 0.88796 0.61421 0.65245 0.0
C3210 C 0.63896 0.38012 0.6318 0.0
C3211 C 0.64516 0.37408 0.6261 0.0
C3212 C 0.62965 0.37695 0.63477 0.0
C3213 C 0.61502 0.35452 0.6388 0.0
H3214 H 0.59321 0.37307 0.6396 0.0
C3215 C 0.5752 0.34324 0.64949 0.0
C3216 C 0.57 0.34965 0.65576 0.0
C3217 C 0.58425 0.34596 0.64537 0.0
C3218 C 0.59924 0.36781 0.6395 0.0
H3219 H 0.64635 0.35993 0.61902 0.0
H3220 H 0.63001 0.35444 0.62407 0.0
H3221 H 0.60909 0.37829 0.63315 0.0
H3222 H 0.57045 0.36386 0.66279 0.0
H3223 H 0.58614 0.3686 0.65557 0.0
H3224 H 0.60513 0.34406 0.64521 0.0
C3225 C 0.63242 0.36161 0.62633 0.0
C3226 C 0.60836 0.37081 0.6358 0.0
C3227 C 0.64174 0.3648 0.62334 0.0
C3228 C 0.57412 0.35881 0.65784 0.0
C3229 C 0.58314 0.36154 0.6537 0.0
C3230 C 0.60587 0.35152 0.64249 0.0
C3231 C 0.62626 0.36764 0.63211 0.0
C3232 C 0.6164 0.36424 0.63551 0.0
C3233 C 0.58831 0.35517 0.64739 0.0
C3234 C 0.59791 0.35817 0.643 0.0
H3235 H 0.64128 0.38736 0.63395 0.0
H3236 H 0.62518 0.38175 0.63931 0.0
H3237 H 0.62107 0.3493 0.63879 0.0
H3238 H 0.5722 0.33618 0.64763 0.0
H3239 H 0.588 0.34092 0.64047 0.0
C3240 C 0.8456 0.34759 0.9428 0.0
C3241 C 0.85561 0.34807 0.94524 0.0
C3242 C 0.84098 0.35536 0.93781 0.0
C3243 C 0.84332 0.38191 0.93232 0.0
H3244 H 0.82411 0.37654 0.91228 0.0
C3245 C 0.81797 0.41221 0.91624 0.0
C3246 C 0.81596 0.41201 0.90613 0.0
C3247 C 0.82302 0.40445 0.9208 0.0
C3248 C 0.82952 0.37818 0.91779 0.0
H3249 H 0.86857 0.35717 0.94435 0.0
H3250 H 0.86057 0.37063 0.93546 0.0
H3251 H 0.83265 0.36295 0.9204 0.0
H3252 H 0.8177 0.40339 0.8929 0.0
H3253 H 0.82669 0.38994 0.90081 0.0
H3254 H 0.84031 0.39714 0.92959 0.0
C3255 C 0.85626 0.36428 0.93751 0.0
C3256 C 0.83433 0.37038 0.92254 0.0
C3257 C 0.86088 0.35651 0.94251 0.0
C3258 C 0.81919 0.40385 0.90068 0.0
C3259 C 0.82425 0.39607 0.90525 0.0
C3260 C 0.8385 0.38971 0.92757 0.0
C3261 C 0.84624 0.36381 0.93511 0.0
C3262 C 0.84127 0.37213 0.9299 0.0
C3263 C 0.82621 0.39627 0.91537 0.0
C3264 C 0.8315 0.38795 0.92027 0.0
H3265 H 0.84134 0.34116 0.94468 0.0
H3266 H 0.83324 0.35478 0.93618 0.0
H3267 H 0.84854 0.38354 0.93801 0.0
H3268 H 0.8157 0.41843 0.92064 0.0
H3269 H 0.8243 0.4048 0.92862 0.0
C3270 C 0.90941 0.67943 0.11575 0.0
C3271 C 0.91845 0.67491 0.11337 0.0
C3272 C 0.90067 0.67623 0.11155 0.0
C3273 C 0.89012 0.65432 0.10004 0.0
H3274 H 0.86865 0.67209 0.0935 0.0
C3275 C 0.85093 0.64043 0.09368 0.0
C3276 C 0.84534 0.64476 0.08613 0.0
C3277 C 0.85995 0.64435 0.09636 0.0
C3278 C 0.87461 0.66703 0.0952 0.0
H3279 H 0.92543 0.6638 0.10431 0.0
H3280 H 0.91023 0.65826 0.09695 0.0
H3281 H 0.88428 0.6787 0.09894 0.0
H3282 H 0.84492 0.65669 0.07546 0.0
H3283 H 0.86078 0.66348 0.08004 0.0
H3284 H 0.88053 0.64266 0.09623 0.0
C3285 C 0.90985 0.66414 0.10223 0.0
C3286 C 0.88354 0.67082 0.09842 0.0
C3287 C 0.91857 0.66732 0.10645 0.0
C3288 C 0.84905 0.65313 0.08127 0.0
C3289 C 0.8581 0.65707 0.08396 0.0
C3290 C 0.88122 0.65054 0.09683 0.0
C3291 C 0.90076 0.66844 0.10485 0.0
C3292 C 0.89139 0.66451 0.10096 0.0
C3293 C 0.86367 0.65272 0.09153 0.0
C3294 C 0.8733 0.65683 0.09446 0.0
H3295 H 0.90902 0.68521 0.12115 0.0
H3296 H 0.8938 0.67964 0.11384 0.0
H3297 H 0.89595 0.64922 0.10203 0.0
H3298 H 0.84838 0.6339 0.0975 0.0
H3299 H 0.86396 0.64087 0.1023 0.0
C3300 C 0.63388 0.64449 0.36454 0.0
C3301 C 0.6261 0.64551 0.37134 0.0
C3302 C 0.63689 0.63521 0.36131 0.0
C3303 C 0.63658 0.60909 0.36867 0.0
H3304 H 0.6441 0.60465 0.34152 0.0
C3305 C 0.64743 0.57049 0.35481 0.0
C3306 C 0.65545 0.56983 0.34825 0.0
C3307 C 0.64333 0.57962 0.35723 0.0
C3308 C 0.64212 0.60578 0.34915 0.0
H3309 H 0.61533 0.63751 0.38002 0.0
H3310 H 0.62051 0.62132 0.37431 0.0
H3311 H 0.63785 0.62074 0.34642 0.0
H3312 H 0.66545 0.57829 0.3391 0.0
H3313 H 0.65836 0.59421 0.34338 0.0
H3314 H 0.64097 0.5942 0.37145 0.0
C3315 C 0.62434 0.62772 0.37153 0.0
C3316 C 0.63853 0.61501 0.35196 0.0
C3317 C 0.6213 0.63701 0.37472 0.0
C3318 C 0.65919 0.57852 0.34408 0.0
C3319 C 0.65512 0.58766 0.34653 0.0
C3320 C 0.6402 0.59987 0.36587 0.0
C3321 C 0.63222 0.62669 0.36484 0.0
C3322 C 0.63575 0.61679 0.36176 0.0
C3323 C 0.64717 0.58834 0.35319 0.0
C3324 C 0.64306 0.5981 0.35609 0.0
H3325 H 0.63767 0.65089 0.36171 0.0
H3326 H 0.64303 0.63469 0.35622 0.0
H3327 H 0.63465 0.61024 0.37631 0.0
H3328 H 0.64427 0.56393 0.35804 0.0
H3329 H 0.63711 0.57984 0.36225 0.0
C3330 C 0.63046 0.87462 0.62756 0.0
C3331 C 0.63462 0.88305 0.63161 0.0
C3332 C 0.6343 0.87055 0.61895 0.0
C3333 C 0.64924 0.87623 0.59688 0.0
H3334 H 0.65116 0.84789 0.59509 0.0
C3335 C 0.66643 0.85652 0.56304 0.0
C3336 C 0.66149 0.84817 0.55974 0.0
C3337 C 0.66373 0.86092 0.57195 0.0
C3338 C 0.65059 0.85581 0.59542 0.0
H3339 H 0.64612 0.89382 0.62969 0.0
H3340 H 0.65282 0.88672 0.61459 0.0
H3341 H 0.64542 0.85533 0.6103 0.0
H3342 H 0.64997 0.83782 0.56334 0.0
H3343 H 0.64517 0.84557 0.57868 0.0
H3344 H 0.65433 0.87669 0.58194 0.0
C3345 C 0.64652 0.8833 0.61808 0.0
C3346 C 0.6473 0.86008 0.60416 0.0
C3347 C 0.64268 0.88738 0.62674 0.0
C3348 C 0.65385 0.84431 0.56558 0.0
C3349 C 0.65118 0.84869 0.57446 0.0
C3350 C 0.65253 0.87195 0.58812 0.0
C3351 C 0.64241 0.8748 0.61412 0.0
C3352 C 0.64646 0.87034 0.60497 0.0
C3353 C 0.65608 0.85705 0.57777 0.0
C3354 C 0.65313 0.86168 0.58724 0.0
H3355 H 0.62411 0.87121 0.63096 0.0
H3356 H 0.63082 0.86413 0.61599 0.0
H3357 H 0.6486 0.88415 0.59722 0.0
H3358 H 0.67229 0.85973 0.55869 0.0
H3359 H 0.66772 0.8673 0.57431 0.0
C3360 C 0.99307 0.27279 0.38703 0.0
C3361 C 0.99709 0.28225 0.3867 0.0
C3362 C 0.99918 0.26447 0.38739 0.0
C3363 C 0.02459 0.2562 0.3931 0.0
H3364 H 0.01775 0.23386 0.37724 0.0
C3365 C 0.05103 0.22312 0.38653 0.0
C3366 C 0.04685 0.21372 0.38653 0.0
C3367 C 0.04504 0.23153 0.38697 0.0
C3368 C 0.01971 0.23999 0.38181 0.0
H3369 H 0.01072 0.29036 0.38676 0.0
H3370 H 0.02137 0.27586 0.38717 0.0
H3371 H 0.00715 0.24837 0.37725 0.0
H3372 H 0.03312 0.20581 0.38741 0.0
H3373 H 0.02271 0.22044 0.38814 0.0
H3374 H 0.03721 0.24779 0.39759 0.0
C3375 C 0.01348 0.27486 0.38724 0.0
C3376 C 0.01362 0.24831 0.38182 0.0
C3377 C 0.00737 0.28318 0.38688 0.0
C3378 C 0.03657 0.21294 0.38719 0.0
C3379 C 0.0306 0.22133 0.38761 0.0
C3380 C 0.0307 0.24786 0.39307 0.0
C3381 C 0.00946 0.2654 0.38743 0.0
C3382 C 0.01596 0.25652 0.38748 0.0
C3383 C 0.03474 0.23073 0.3874 0.0
C3384 C 0.02831 0.23964 0.38744 0.0
H3385 H 0.98519 0.27178 0.38681 0.0
H3386 H 0.99582 0.2573 0.38766 0.0
H3387 H 0.02655 0.26234 0.39764 0.0
H3388 H 0.05891 0.22399 0.38593 0.0
H3389 H 0.04847 0.23867 0.3867 0.0
C3390 C 0.01551 0.76167 0.63005 0.0
C3391 C 0.01846 0.76601 0.63885 0.0
C3392 C 0.00793 0.75484 0.63002 0.0
C3393 C 0.99427 0.73753 0.646 0.0
H3394 H 0.97563 0.73828 0.62463 0.0
C3395 C 0.95999 0.71241 0.64458 0.0
C3396 C 0.9577 0.7085 0.63538 0.0
C3397 C 0.96736 0.71944 0.64542 0.0
C3398 C 0.98083 0.7379 0.6306 0.0
H3399 H 0.01575 0.7665 0.65456 0.0
H3400 H 1.00239 0.75465 0.65449 0.0
H3401 H 0.98837 0.75064 0.62537 0.0
H3402 H 0.96168 0.70859 0.61991 0.0
H3403 H 0.97448 0.72081 0.62137 0.0
H3404 H 0.9867 0.72474 0.6512 0.0
C3405 C 1.00602 0.75649 0.64761 0.0
C3406 C 0.98814 0.745 0.63103 0.0
C3407 C 0.01361 0.76336 0.64764 0.0
C3408 C 0.9631 0.71161 0.62708 0.0
C3409 C 0.97045 0.71862 0.62792 0.0
C3410 C 0.98693 0.73042 0.64557 0.0
C3411 C 1.00308 0.75216 0.63879 0.0
C3412 C 0.99502 0.74485 0.63866 0.0
C3413 C 0.9726 0.72272 0.63707 0.0
C3414 C 0.98019 0.73046 0.6378 0.0
H3415 H 0.01899 0.76363 0.62312 0.0
H3416 H 1.00596 0.75157 0.62311 0.0
H3417 H 0.99951 0.73713 0.65193 0.0
H3418 H 0.95591 0.71024 0.65111 0.0
H3419 H 0.96879 0.7225 0.65257 0.0
C3420 C 0.46004 0.81129 0.82288 0.0
C3421 C 0.46306 0.81692 0.8147 0.0
C3422 C 0.46391 0.80186 0.8245 0.0
C3423 C 0.47766 0.78163 0.81205 0.0
H3424 H 0.48383 0.77356 0.83871 0.0
C3425 C 0.50244 0.74809 0.82102 0.0
C3426 C 0.49916 0.7417 0.82851 0.0
C3427 C 0.49766 0.75708 0.81934 0.0
C3428 C 0.48206 0.77568 0.83124 0.0
H3429 H 0.47232 0.81685 0.80163 0.0
H3430 H 0.47933 0.80064 0.80464 0.0
H3431 H 0.47609 0.78953 0.83571 0.0
H3432 H 0.4884 0.73978 0.84019 0.0
H3433 H 0.48008 0.75555 0.83729 0.0
H3434 H 0.48389 0.76785 0.80759 0.0
C3435 C 0.47386 0.80343 0.80975 0.0
C3436 C 0.47759 0.78482 0.82951 0.0
C3437 C 0.46994 0.81281 0.8081 0.0
C3438 C 0.49105 0.74453 0.83433 0.0
C3439 C 0.48634 0.75358 0.83272 0.0
C3440 C 0.48222 0.77253 0.81378 0.0
C3441 C 0.47094 0.79783 0.818 0.0
C3442 C 0.47537 0.78794 0.81988 0.0
C3443 C 0.48956 0.75992 0.82517 0.0
C3444 C 0.48451 0.76948 0.82338 0.0
H3445 H 0.45482 0.81424 0.82816 0.0
H3446 H 0.46138 0.79773 0.83085 0.0
H3447 H 0.4759 0.78368 0.80456 0.0
H3448 H 0.50861 0.74606 0.81636 0.0
H3449 H 0.50037 0.76185 0.81353 0.0
C3450 C 0.56731 0.27892 0.07432 0.0
C3451 C 0.56816 0.2892 0.07418 0.0
C3452 C 0.55814 0.27453 0.07563 0.0
C3453 C 0.53311 0.27923 0.08526 0.0
H3454 H 0.52639 0.2567 0.06961 0.0
C3455 C 0.49408 0.2629 0.08551 0.0
C3456 C 0.49328 0.25262 0.0853 0.0
C3457 C 0.50319 0.26739 0.0842 0.0
C3458 C 0.52819 0.26291 0.07413 0.0
H3459 H 0.55999 0.30292 0.0752 0.0
H3460 H 0.544 0.29525 0.07753 0.0
H3461 H 0.54227 0.26451 0.06718 0.0
H3462 H 0.50149 0.23901 0.0835 0.0
H3463 H 0.51742 0.24682 0.08143 0.0
H3464 H 0.51906 0.27761 0.09224 0.0
C3465 C 0.55045 0.29059 0.07674 0.0
C3466 C 0.5373 0.2674 0.07273 0.0
C3467 C 0.55962 0.29498 0.07541 0.0
C3468 C 0.50184 0.24694 0.0838 0.0
C3469 C 0.51096 0.25143 0.08249 0.0
C3470 C 0.52401 0.27473 0.08668 0.0
C3471 C 0.54961 0.28031 0.07685 0.0
C3472 C 0.53987 0.2756 0.07828 0.0
C3473 C 0.51175 0.26171 0.08264 0.0
C3474 C 0.52144 0.26651 0.08114 0.0
H3475 H 0.57375 0.27424 0.07359 0.0
H3476 H 0.55778 0.26659 0.07584 0.0
H3477 H 0.53492 0.28545 0.08976 0.0
H3478 H 0.48766 0.2675 0.08676 0.0
H3479 H 0.5035 0.27533 0.08426 0.0
C3480 C 0.05561 0.79719 0.12013 0.0
C3481 C 0.05388 0.80524 0.12634 0.0
C3482 C 0.04851 0.7899 0.11913 0.0
C3483 C 0.02765 0.77897 0.13245 0.0
H3484 H 0.02054 0.76829 0.10725 0.0
C3485 C 0.99501 0.75286 0.12906 0.0
C3486 C 0.99595 0.74491 0.12262 0.0
C3487 C 1.00201 0.76029 0.12903 0.0
C3488 C 0.02253 0.77109 0.11436 0.0
H3489 H 0.04309 0.81213 0.13596 0.0
H3490 H 0.03086 0.79938 0.13435 0.0
H3491 H 0.03299 0.78105 0.10802 0.0
H3492 H 1.00491 0.73855 0.11104 0.0
H3493 H 0.01725 0.75144 0.11109 0.0
H3494 H 0.01739 0.76898 0.13886 0.0
C3495 C 0.03775 0.79863 0.13038 0.0
C3496 C 0.02965 0.77842 0.11479 0.0
C3497 C 0.04479 0.80593 0.13132 0.0
C3498 C 1.00395 0.74464 0.11603 0.0
C3499 C 0.01101 0.75204 0.11605 0.0
C3500 C 0.02061 0.77161 0.13204 0.0
C3501 C 0.03957 0.79047 0.12437 0.0
C3502 C 0.03222 0.7825 0.12384 0.0
C3503 C 0.01018 0.75992 0.12263 0.0
C3504 C 0.01787 0.76763 0.12299 0.0
H3505 H 0.06255 0.79637 0.11625 0.0
H3506 H 0.05014 0.78367 0.11449 0.0
H3507 H 0.02961 0.78184 0.13955 0.0
H3508 H 0.98884 0.75336 0.13411 0.0
H3509 H 1.00098 0.76635 0.13403 0.0
C3510 C 0.48334 0.76004 0.3856 0.0
C3511 C 0.47957 0.76431 0.37696 0.0
C3512 C 0.49147 0.7537 0.38525 0.0
C3513 C 0.51267 0.74638 0.3696 0.0
H3514 H 0.51312 0.72355 0.38686 0.0
C3515 C 0.54364 0.71682 0.36797 0.0
C3516 C 0.5474 0.71365 0.37707 0.0
C3517 C 0.53513 0.72268 0.36756 0.0
C3518 C 0.51314 0.72993 0.38205 0.0
H3519 H 0.4814 0.76522 0.36115 0.0
H3520 H 0.49557 0.75407 0.3605 0.0
H3521 H 0.49879 0.73443 0.38685 0.0
H3522 H 0.54503 0.71394 0.39283 0.0
H3523 H 0.53027 0.7242 0.39212 0.0
H3524 H 0.52705 0.74185 0.36482 0.0
C3525 C 0.49231 0.75575 0.36758 0.0
C3526 C 0.50493 0.73619 0.38205 0.0
C3527 C 0.48419 0.76214 0.36795 0.0
C3528 C 0.54238 0.71634 0.38572 0.0
C3529 C 0.53386 0.72214 0.3853 0.0
C3530 C 0.52088 0.7401 0.36958 0.0
C3531 C 0.49603 0.75142 0.37623 0.0
C3532 C 0.50463 0.74455 0.3759 0.0
C3533 C 0.53016 0.72544 0.37623 0.0
C3534 C 0.52125 0.73185 0.37588 0.0
H3535 H 0.48008 0.7617 0.39269 0.0
H3536 H 0.49425 0.75067 0.39207 0.0
H3537 H 0.51275 0.75281 0.36486 0.0
H3538 H 0.54738 0.71494 0.36118 0.0
H3539 H 0.53242 0.72504 0.36045 0.0
C3540 C 0.4995 0.26767 0.67463 0.0
C3541 C 0.50979 0.26849 0.67487 0.0
C3542 C 0.49503 0.25852 0.6757 0.0
C3543 C 0.49991 0.23189 0.67355 0.0
H3544 H 0.47663 0.22949 0.69001 0.0
C3545 C 0.48392 0.19425 0.68461 0.0
C3546 C 0.47363 0.19331 0.68483 0.0
C3547 C 0.48823 0.20343 0.68324 0.0
C3548 C 0.48305 0.23005 0.68528 0.0
H3549 H 0.52344 0.26029 0.6765 0.0
H3550 H 0.51565 0.24432 0.67831 0.0
H3551 H 0.48435 0.24545 0.68789 0.0
H3552 H 0.45983 0.20135 0.6838 0.0
H3553 H 0.46736 0.21735 0.6812 0.0
H3554 H 0.49862 0.2165 0.67092 0.0
C3555 C 0.51104 0.25076 0.67718 0.0
C3556 C 0.48748 0.2392 0.68408 0.0
C3557 C 0.5155 0.25991 0.67613 0.0
C3558 C 0.46777 0.20179 0.68358 0.0
C3559 C 0.47209 0.21098 0.68221 0.0
C3560 C 0.49547 0.22274 0.67474 0.0
C3561 C 0.50074 0.24996 0.677 0.0
C3562 C 0.49598 0.24023 0.67821 0.0
C3563 C 0.48237 0.21192 0.68203 0.0
C3564 C 0.487 0.2217 0.68064 0.0
H3565 H 0.49487 0.2741 0.67351 0.0
H3566 H 0.4871 0.25815 0.67537 0.0
H3567 H 0.50636 0.23246 0.66886 0.0
H3568 H 0.48866 0.18787 0.68542 0.0
H3569 H 0.49617 0.20389 0.68325 0.0
C3570 C 0.9518 0.29743 0.95586 0.0
C3571 C 0.94532 0.29949 0.94811 0.0
C3572 C 0.96105 0.29324 0.95401 0.0
C3573 C 0.97468 0.27854 0.93571 0.0
H3574 H 0.99759 0.28728 0.94974 0.0
C3575 C 0.01392 0.26424 0.92668 0.0
C3576 C 0.02017 0.26232 0.93464 0.0
C3577 C 1.00484 0.26896 0.92813 0.0
C3578 C 0.99125 0.28467 0.94583 0.0
H3579 H 0.9435 0.29877 0.93232 0.0
H3580 H 0.95971 0.29159 0.92909 0.0
H3581 H 0.98173 0.29529 0.95261 0.0
H3582 H 0.02168 0.26365 0.95041 0.0
H3583 H 1.00587 0.27182 0.95295 0.0
H3584 H 0.98417 0.26787 0.929 0.0
C3585 C 0.95759 0.29315 0.93661 0.0
C3586 C 0.98216 0.28928 0.94747 0.0
C3587 C 0.94835 0.29736 0.93845 0.0
C3588 C 0.01711 0.26516 0.94409 0.0
C3589 C 0.00804 0.26986 0.94555 0.0
C3590 C 0.98377 0.27392 0.93408 0.0
C3591 C 0.96403 0.29099 0.94437 0.0
C3592 C 0.97376 0.28625 0.94245 0.0
C3593 C 1.0018 0.27186 0.93758 0.0
C3594 C 0.99216 0.2769 0.93916 0.0
H3595 H 0.94973 0.29906 0.96337 0.0
H3596 H 0.9658 0.2916 0.96017 0.0
H3597 H 0.96833 0.27593 0.93183 0.0
H3598 H 0.01611 0.26226 0.91929 0.0
H3599 H 1.00028 0.2705 0.92181 0.0
C3600 C 0.38785 0.00637 0.28314 0.0
C3601 C 0.38713 0.99612 0.28226 0.0
C3602 C 0.38813 0.01243 0.27479 0.0
C3603 C 0.38128 0.01284 0.2486 0.0
H3604 H 0.39774 0.03589 0.24739 0.0
C3605 C 0.37667 0.04234 0.21833 0.0
C3606 C 0.38523 0.04634 0.21411 0.0
C3607 C 0.37719 0.03631 0.22667 0.0
C3608 C 0.39315 0.02944 0.24757 0.0
H3609 H 0.38622 0.98423 0.27185 0.0
H3610 H 0.38691 0.99478 0.25729 0.0
H3611 H 0.39848 0.02499 0.26171 0.0
H3612 H 0.40107 0.04714 0.21542 0.0
H3613 H 0.40199 0.03659 0.23 0.0
H3614 H 0.37607 0.01719 0.23442 0.0
C3615 C 0.38714 0.99814 0.26446 0.0
C3616 C 0.3935 0.02325 0.25583 0.0
C3617 C 0.38686 0.99208 0.27281 0.0
C3618 C 0.39432 0.04428 0.21854 0.0
C3619 C 0.39485 0.03822 0.2269 0.0
C3620 C 0.38093 0.01904 0.24036 0.0
C3621 C 0.38769 0.0084 0.26534 0.0
C3622 C 0.38754 0.01488 0.25646 0.0
C3623 C 0.38629 0.0341 0.23102 0.0
C3624 C 0.38683 0.02744 0.23976 0.0
H3625 H 0.3882 0.00972 0.2903 0.0
H3626 H 0.38847 0.02029 0.27576 0.0
H3627 H 0.37651 0.00654 0.24888 0.0
H3628 H 0.36953 0.04393 0.21521 0.0
H3629 H 0.37044 0.03344 0.22977 0.0
C3630 C 0.2888 0.08388 0.56382 0.0
C3631 C 0.28978 0.07444 0.568 0.0
C3632 C 0.28438 0.08521 0.55466 0.0
C3633 C 0.26769 0.07313 0.53732 0.0
H3634 H 0.27805 0.09223 0.51874 0.0
C3635 C 0.24712 0.08395 0.50179 0.0
C3636 C 0.2528 0.08523 0.49319 0.0
C3637 C 0.25164 0.08273 0.51092 0.0
C3638 C 0.2751 0.08681 0.52381 0.0
H3639 H 0.28709 0.05898 0.5657 0.0
H3640 H 0.27945 0.06129 0.5497 0.0
H3641 H 0.28613 0.08969 0.53447 0.0
H3642 H 0.2677 0.0864 0.48751 0.0
H3643 H 0.27556 0.08405 0.50337 0.0
H3644 H 0.2568 0.07008 0.52657 0.0
C3645 C 0.28192 0.06769 0.55359 0.0
C3646 C 0.27967 0.08544 0.53288 0.0
C3647 C 0.28632 0.06636 0.56276 0.0
C3648 C 0.2631 0.08532 0.49396 0.0
C3649 C 0.26761 0.08409 0.50308 0.0
C3650 C 0.26313 0.07449 0.52824 0.0
C3651 C 0.28086 0.07714 0.54944 0.0
C3652 C 0.27602 0.07858 0.53976 0.0
C3653 C 0.26194 0.08276 0.51167 0.0
C3654 C 0.26677 0.08135 0.52137 0.0
H3655 H 0.29125 0.09027 0.56772 0.0
H3656 H 0.28355 0.09261 0.55176 0.0
H3657 H 0.26461 0.06786 0.54247 0.0
H3658 H 0.23918 0.08375 0.50146 0.0
H3659 H 0.24704 0.08184 0.51739 0.0
C3660 C 0.12248 0.05579 0.79631 0.0
C3661 C 0.12394 0.05259 0.80604 0.0
C3662 C 0.1214 0.04901 0.78876 0.0
C3663 C 0.11553 0.02299 0.78391 0.0
H3664 H 0.12984 0.02759 0.75957 0.0
C3665 C 0.12076 0.99305 0.75435 0.0
C3666 C 0.12053 0.996 0.74443 0.0
C3667 C 0.12054 1.00002 0.76183 0.0
C3668 C 0.12568 0.02625 0.76625 0.0
H3669 H 0.12508 0.03972 0.8155 0.0
H3670 H 0.12333 0.0279 0.80233 0.0
H3671 H 0.13048 0.03965 0.7726 0.0
H3672 H 0.11948 0.0086 0.73462 0.0
H3673 H 0.11902 0.02074 0.74763 0.0
H3674 H 0.11077 0.00956 0.77757 0.0
C3675 C 0.12297 0.03566 0.80053 0.0
C3676 C 0.12605 0.03317 0.77374 0.0
C3677 C 0.12408 0.04244 0.80807 0.0
C3678 C 0.11985 0.00608 0.74218 0.0
C3679 C 0.1196 0.01305 0.74965 0.0
C3680 C 0.11514 0.01607 0.77641 0.0
C3681 C 0.12172 0.03886 0.79076 0.0
C3682 C 0.12102 0.03162 0.78268 0.0
C3683 C 0.12005 0.01012 0.75957 0.0
C3684 C 0.12025 0.01758 0.7675 0.0
H3685 H 0.12241 0.06355 0.79448 0.0
H3686 H 0.12034 0.05172 0.78133 0.0
H3687 H 0.11147 0.02163 0.79066 0.0
H3688 H 0.1214 0.98535 0.75634 0.0
H3689 H 0.12102 0.9975 0.76938 0.0
C3690 C 0.26659 0.9424 0.01622 0.0
C3691 C 0.26328 0.93311 0.01929 0.0
C3692 C 0.27127 0.94364 0.00711 0.0
C3693 C 0.2744 0.93215 0.98278 0.0
H3694 H 0.29669 0.94956 0.98058 0.0
C3695 C 0.29732 0.93596 0.94695 0.0
C3696 C 0.29982 0.94555 0.94403 0.0
C3697 C 0.29323 0.93414 0.95626 0.0
C3698 C 0.29043 0.94474 0.98105 0.0
H3699 H 0.26237 0.91781 0.01519 0.0
H3700 H 0.27057 0.91996 0.9993 0.0
H3701 H 0.2888 0.94693 0.99652 0.0
H3702 H 0.30022 0.96071 0.94871 0.0
H3703 H 0.29299 0.95756 0.96487 0.0
H3704 H 0.27603 0.92999 0.96729 0.0
C3705 C 0.26942 0.92632 1.00389 0.0
C3706 C 0.28589 0.94323 0.99019 0.0
C3707 C 0.26472 0.92509 0.013 0.0
C3708 C 0.29829 0.95325 0.95069 0.0
C3709 C 0.29424 0.95143 0.96 0.0
C3710 C 0.27895 0.93364 0.97364 0.0
C3711 C 0.27277 0.93561 1.00084 0.0
C3712 C 0.27778 0.93697 0.99116 0.0
C3713 C 0.2916 0.94186 0.96287 0.0
C3714 C 0.28698 0.94 0.97265 0.0
H3715 H 0.26545 0.94877 0.02081 0.0
H3716 H 0.27358 0.95093 1.00493 0.0
H3717 H 0.26809 0.92739 0.98323 0.0
H3718 H 0.29833 0.92988 0.94197 0.0
H3719 H 0.29137 0.92667 0.95828 0.0
C3720 C 0.22313 0.38655 0.04978 0.0
C3721 C 0.21371 0.38592 0.04568 0.0
C3722 C 0.23149 0.38704 0.04374 0.0
C3723 C 0.24014 0.38107 0.01866 0.0
H3724 H 0.26175 0.39822 0.02474 0.0
C3725 C 0.27284 0.38643 0.99191 0.0
C3726 C 0.28229 0.38667 0.99598 0.0
C3727 C 0.26447 0.38675 0.99794 0.0
C3728 C 0.25582 0.39332 0.02299 0.0
H3729 H 0.20572 0.38568 0.03197 0.0
H3730 H 0.22027 0.38651 0.02147 0.0
H3731 H 0.2472 0.39801 0.03536 0.0
H3732 H 0.2903 0.3877 0.00962 0.0
H3733 H 0.27572 0.38804 0.02015 0.0
H3734 H 0.24875 0.37632 0.00635 0.0
C3735 C 0.22121 0.38644 0.02936 0.0
C3736 C 0.24748 0.3932 0.02908 0.0
C3737 C 0.21286 0.38596 0.03539 0.0
C3738 C 0.28315 0.38738 0.00624 0.0
C3739 C 0.27478 0.3877 0.01228 0.0
C3740 C 0.24847 0.38118 0.01258 0.0
C3741 C 0.23064 0.38691 0.03345 0.0
C3742 C 0.23953 0.38708 0.02699 0.0
C3743 C 0.26533 0.38731 0.00821 0.0
C3744 C 0.25642 0.38731 0.01466 0.0
H3745 H 0.22405 0.38643 0.05767 0.0
H3746 H 0.23865 0.38729 0.04713 0.0
H3747 H 0.23422 0.37614 0.01693 0.0
H3748 H 0.2719 0.38579 0.98405 0.0
H3749 H 0.25731 0.38657 0.99455 0.0
C3750 C 0.74841 0.11273 1.00025 0.0
C3751 C 0.74375 0.12157 0.9974 0.0
C3752 C 0.75572 0.11267 0.00743 0.0
C3753 C 0.7647 0.12739 0.02811 0.0
H3754 H 0.78864 0.11195 0.02522 0.0
C3755 C 0.79847 0.13363 0.05227 0.0
C3756 C 0.80402 0.12544 0.05543 0.0
C3757 C 0.7909 0.13258 0.04552 0.0
C3758 C 0.78193 0.11619 0.02621 0.0
H3759 H 0.74346 0.13733 0.9996 0.0
H3760 H 0.75612 0.13721 0.01209 0.0
H3761 H 0.77597 0.11117 0.01266 0.0
H3762 H 0.80587 0.10969 0.054 0.0
H3763 H 0.79251 0.10783 0.04231 0.0
H3764 H 0.77064 0.13246 0.0416 0.0
C3765 C 0.75399 0.13029 0.00894 0.0
C3766 C 0.77468 0.11576 0.019 0.0
C3767 C 0.74673 0.13036 1.00176 0.0
C3768 C 0.8017 0.11614 0.05177 0.0
C3769 C 0.79411 0.11509 0.04499 0.0
C3770 C 0.77193 0.12782 0.0353 0.0
C3771 C 0.75851 0.12145 0.01194 0.0
C3772 C 0.76604 0.12146 0.01981 0.0
C3773 C 0.78864 0.12331 0.04176 0.0
C3774 C 0.7807 0.12233 0.03439 0.0
H3775 H 0.74624 0.10583 0.9971 0.0
H3776 H 0.75901 0.10573 0.00963 0.0
H3777 H 0.75805 0.13172 0.02907 0.0
H3778 H 0.79997 0.14088 0.05502 0.0
H3779 H 0.78692 0.13909 0.04312 0.0
C3780 C 0.08559 0.5017 0.24732 0.0
C3781 C 0.08699 0.49315 0.25303 0.0
C3782 C 0.08453 0.51086 0.25178 0.0
C3783 C 0.07784 0.52244 0.27537 0.0
H3784 H 0.09072 0.54519 0.26402 0.0
C3785 C 0.0783 0.55993 0.29495 0.0
C3786 C 0.07697 0.56839 0.28908 0.0
C3787 C 0.07967 0.55073 0.29064 0.0
C3788 C 0.08698 0.53894 0.26722 0.0
H3789 H 0.08859 0.48759 0.26792 0.0
H3790 H 0.0867 0.50354 0.27569 0.0
H3791 H 0.0928 0.52923 0.2563 0.0
H3792 H 0.07621 0.57379 0.27405 0.0
H3793 H 0.07837 0.55775 0.26657 0.0
H3794 H 0.07196 0.53215 0.28625 0.0
C3795 C 0.08628 0.50315 0.26776 0.0
C3796 C 0.08818 0.52978 0.2628 0.0
C3797 C 0.08735 0.49399 0.26331 0.0
C3798 C 0.07709 0.56742 0.27881 0.0
C3799 C 0.07845 0.55823 0.27451 0.0
C3800 C 0.07662 0.5316 0.27978 0.0
C3801 C 0.08484 0.51169 0.26206 0.0
C3802 C 0.08361 0.52142 0.26681 0.0
C3803 C 0.07976 0.54976 0.28037 0.0
C3804 C 0.08116 0.53997 0.27575 0.0
H3805 H 0.08511 0.50131 0.23939 0.0
H3806 H 0.08329 0.51728 0.24717 0.0
H3807 H 0.0741 0.51618 0.27856 0.0
H3808 H 0.07816 0.56039 0.30289 0.0
H3809 H 0.08075 0.54438 0.29538 0.0
C3810 C 0.74899 0.8361 0.49741 0.0
C3811 C 0.7428 0.82803 0.49898 0.0
C3812 C 0.75814 0.83488 0.49276 0.0
C3813 C 0.77207 0.81782 0.47664 0.0
H3814 H 0.79481 0.83151 0.48628 0.0
C3815 C 0.8117 0.80801 0.46448 0.0
C3816 C 0.81828 0.81575 0.46282 0.0
C3817 C 0.80237 0.80981 0.46848 0.0
C3818 C 0.78851 0.82773 0.48342 0.0
H3819 H 0.74148 0.81231 0.49712 0.0
H3820 H 0.75741 0.81017 0.48908 0.0
H3821 H 0.77882 0.83408 0.49415 0.0
H3822 H 0.82019 0.83147 0.46404 0.0
H3823 H 0.80383 0.83463 0.47092 0.0
H3824 H 0.78178 0.81141 0.46597 0.0
C3825 C 0.75513 0.81748 0.49125 0.0
C3826 C 0.77934 0.8292 0.48793 0.0
C3827 C 0.74599 0.81871 0.49587 0.0
C3828 C 0.81526 0.82535 0.46515 0.0
C3829 C 0.80593 0.82715 0.46919 0.0
C3830 C 0.78124 0.81634 0.47214 0.0
C3831 C 0.7613 0.82556 0.4896 0.0
C3832 C 0.77102 0.82422 0.48464 0.0
C3833 C 0.7994 0.81939 0.47095 0.0
C3834 C 0.78958 0.82124 0.47551 0.0
H3835 H 0.7467 0.84339 0.4996 0.0
H3836 H 0.76265 0.84127 0.4915 0.0
H3837 H 0.76579 0.814 0.4738 0.0
H3838 H 0.81376 0.80053 0.46267 0.0
H3839 H 0.79755 0.80365 0.46983 0.0
C3840 C 0.93781 0.94703 0.2976 0.0
C3841 C 0.94743 0.94394 0.29982 0.0
C3842 C 0.93604 0.95632 0.29347 0.0
C3843 C 0.94706 0.98086 0.29007 0.0
H3844 H 0.92893 0.98321 0.26835 0.0
C3845 C 0.94442 0.01591 0.26607 0.0
C3846 C 0.93504 0.0191 0.26308 0.0
C3847 C 0.9457 0.00682 0.27077 0.0
C3848 C 0.93392 0.98271 0.27449 0.0
H3849 H 0.96271 0.9483 0.29971 0.0
H3850 H 0.95965 0.96445 0.29241 0.0
H3851 H 0.93152 0.96729 0.27633 0.0
H3852 H 0.91963 0.01525 0.26278 0.0
H3853 H 0.92185 0.99938 0.271 0.0
H3854 H 0.94948 0.99626 0.28823 0.0
C3855 C 0.95345 0.95971 0.29389 0.0
C3856 C 0.9354 0.97358 0.27907 0.0
C3857 C 0.95522 0.95041 0.29798 0.0
C3858 C 0.92697 0.01295 0.26487 0.0
C3859 C 0.92825 1.00386 0.26958 0.0
C3860 C 0.94556 0.98998 0.28551 0.0
C3861 C 0.94385 0.96276 0.29153 0.0
C3862 C 0.94203 0.97253 0.28687 0.0
C3863 C 0.93763 1.00069 0.27261 0.0
C3864 C 0.93902 0.99102 0.27762 0.0
H3865 H 0.93165 0.94219 0.29884 0.0
H3866 H 0.92855 0.95848 0.29183 0.0
H3867 H 0.9521 0.98033 0.29617 0.0
H3868 H 0.95082 0.02039 0.26466 0.0
H3869 H 0.95305 1.00454 0.27283 0.0
C3870 C 0.2631 0.66809 0.50715 0.0
C3871 C 0.26875 0.67635 0.50936 0.0
C3872 C 0.2541 0.66918 0.50236 0.0
C3873 C 0.2398 0.68677 0.487 0.0
H3874 H 0.21778 0.67048 0.49466 0.0
C3875 C 0.20018 0.69431 0.47368 0.0
C3876 C 0.19454 0.68617 0.47107 0.0
C3877 C 0.20937 0.69299 0.47805 0.0
C3878 C 0.22389 0.67501 0.49236 0.0
H3879 H 0.26924 0.69223 0.50848 0.0
H3880 H 0.25351 0.69414 0.50023 0.0
H3881 H 0.23345 0.66844 0.50301 0.0
H3882 H 0.19413 0.67027 0.47099 0.0
H3883 H 0.21021 0.66796 0.47853 0.0
H3884 H 0.23019 0.6934 0.47642 0.0
C3885 C 0.25613 0.6868 0.50199 0.0
C3886 C 0.23288 0.67384 0.49714 0.0
C3887 C 0.26514 0.68571 0.50675 0.0
C3888 C 0.19833 0.67669 0.47283 0.0
C3889 C 0.2075 0.67536 0.47725 0.0
C3890 C 0.2308 0.68796 0.48224 0.0
C3891 C 0.25051 0.67855 0.49969 0.0
C3892 C 0.24095 0.67972 0.49454 0.0
C3893 C 0.2131 0.6835 0.47995 0.0
C3894 C 0.22273 0.68211 0.48488 0.0
H3895 H 0.26574 0.66077 0.50894 0.0
H3896 H 0.25005 0.66265 0.50058 0.0
H3897 H 0.2459 0.69131 0.48468 0.0
H3898 H 0.1975 0.70171 0.47234 0.0
H3899 H 0.21346 0.69941 0.48011 0.0
C3900 C 0.38076 0.48803 0.7679 0.0
C3901 C 0.37567 0.47953 0.7653 0.0
C3902 C 0.38074 0.49629 0.76171 0.0
C3903 C 0.36707 0.5085 0.74174 0.0
H3904 H 0.39174 0.52166 0.73662 0.0
C3905 C 0.37048 0.54019 0.7132 0.0
C3906 C 0.37652 0.5481 0.71565 0.0
C3907 C 0.37035 0.53165 0.71902 0.0
C3908 C 0.38476 0.51816 0.73806 0.0
H3909 H 0.36638 0.47313 0.75428 0.0
H3910 H 0.36633 0.48758 0.74348 0.0
H3911 H 0.3914 0.50728 0.7474 0.0
H3912 H 0.38732 0.55308 0.72605 0.0
H3913 H 0.38684 0.53842 0.73632 0.0
H3914 H 0.36038 0.51947 0.73254 0.0
C3915 C 0.37034 0.48784 0.7503 0.0
C3916 C 0.38458 0.5099 0.74423 0.0
C3917 C 0.37043 0.47954 0.75645 0.0
C3918 C 0.38246 0.54722 0.72401 0.0
C3919 C 0.38229 0.53872 0.72984 0.0
C3920 C 0.36723 0.51682 0.73562 0.0
C3921 C 0.37556 0.49628 0.75283 0.0
C3922 C 0.37573 0.505 0.74617 0.0
C3923 C 0.37625 0.53081 0.72743 0.0
C3924 C 0.37608 0.52179 0.73373 0.0
H3925 H 0.38494 0.48822 0.77462 0.0
H3926 H 0.38476 0.50271 0.76391 0.0
H3927 H 0.36012 0.50493 0.74317 0.0
H3928 H 0.36575 0.54063 0.70686 0.0
H3929 H 0.36569 0.52567 0.71686 0.0
C3930 C 0.82075 0.45936 0.81128 0.0
C3931 C 0.81268 0.46253 0.81699 0.0
C3932 C 0.8225 0.4634 0.80194 0.0
C3933 C 0.81054 0.47806 0.78202 0.0
H3934 H 0.83745 0.48323 0.77405 0.0
C3935 C 0.82047 0.50259 0.74856 0.0
C3936 C 0.82781 0.499 0.74216 0.0
C3937 C 0.81862 0.49791 0.75756 0.0
C3938 C 0.8299 0.48175 0.77614 0.0
H3939 H 0.79994 0.47227 0.81716 0.0
H3940 H 0.80319 0.47955 0.80111 0.0
H3941 H 0.83415 0.4754 0.78991 0.0
H3942 H 0.83907 0.48779 0.74026 0.0
H3943 H 0.83588 0.47963 0.75604 0.0
H3944 H 0.80632 0.48464 0.76831 0.0
C3945 C 0.80811 0.47383 0.80376 0.0
C3946 C 0.828 0.47722 0.78522 0.0
C3947 C 0.80633 0.46975 0.81305 0.0
C3948 C 0.83333 0.49069 0.74502 0.0
C3949 C 0.83156 0.48606 0.75407 0.0
C3950 C 0.81244 0.48267 0.77299 0.0
C3951 C 0.81625 0.47075 0.79809 0.0
C3952 C 0.81829 0.47534 0.7883 0.0
C3953 C 0.82414 0.48959 0.76041 0.0
C3954 C 0.82214 0.48459 0.76996 0.0
H3955 H 0.82585 0.45389 0.81409 0.0
H3956 H 0.82875 0.46073 0.79774 0.0
H3957 H 0.80299 0.47657 0.78404 0.0
H3958 H 0.81604 0.50893 0.74652 0.0
H3959 H 0.81292 0.50084 0.76234 0.0
C3960 C 0.71732 0.63951 0.95476 0.0
C3961 C 0.70727 0.63858 0.95702 0.0
C3962 C 0.7242 0.6406 0.9622 0.0
C3963 C 0.72688 0.64708 0.98845 0.0
H3964 H 0.75126 0.63226 0.98605 0.0
C3965 C 0.75405 0.64174 0.02063 0.0
C3966 C 0.76417 0.64205 0.01844 0.0
C3967 C 0.74712 0.64196 0.01311 0.0
C3968 C 0.74455 0.63655 0.98678 0.0
H3969 H 0.69656 0.63827 0.9689 0.0
H3970 H 0.70859 0.64014 0.98193 0.0
H3971 H 0.73914 0.6315 0.97306 0.0
H3972 H 0.77491 0.64293 0.0066 0.0
H3973 H 0.76281 0.64345 0.99349 0.0
H3974 H 0.73229 0.65203 1.00226 0.0
C3975 C 0.71114 0.64013 0.97437 0.0
C3976 C 0.73759 0.63612 0.97932 0.0
C3977 C 0.70423 0.63905 0.96691 0.0
C3978 C 0.76718 0.64276 0.00855 0.0
C3979 C 0.76024 0.64295 1.00103 0.0
C3980 C 0.73385 0.64749 0.99593 0.0
C3981 C 0.72123 0.64079 0.97212 0.0
C3982 C 0.72866 0.64138 0.98005 0.0
C3983 C 0.75013 0.64247 1.00321 0.0
C3984 C 0.74277 0.64222 0.99519 0.0
H3985 H 0.71988 0.63936 0.9472 0.0
H3986 H 0.73188 0.64131 0.96017 0.0
H3987 H 0.72014 0.65132 0.98921 0.0
H3988 H 0.75148 0.64131 0.02817 0.0
H3989 H 0.7394 0.64151 0.01505 0.0
C3990 C 0.6754 0.49864 0.26813 0.0
C3991 C 0.67569 0.50891 0.26898 0.0
C3992 C 0.6766 0.49419 0.25898 0.0
C3993 C 0.68649 0.49876 0.23395 0.0
H3994 H 0.67058 0.47644 0.22714 0.0
C3995 C 0.6859 0.48323 0.19471 0.0
C3996 C 0.68599 0.47296 0.19372 0.0
C3997 C 0.68463 0.48751 0.20392 0.0
C3998 C 0.67515 0.48259 0.22897 0.0
H3999 H 0.6775 0.52255 0.26084 0.0
H4000 H 0.67937 0.51482 0.24486 0.0
H4001 H 0.66831 0.48415 0.2431 0.0
H4002 H 0.68485 0.45915 0.20169 0.0
H4003 H 0.68259 0.46663 0.21779 0.0
H4004 H 0.6933 0.49723 0.21981 0.0
C4005 C 0.67834 0.51018 0.25129 0.0
C4006 C 0.67386 0.48702 0.23812 0.0
C4007 C 0.67714 0.51463 0.26044 0.0
C4008 C 0.6847 0.46708 0.20217 0.0
C4009 C 0.68341 0.47137 0.2114 0.0
C4010 C 0.68777 0.49435 0.2248 0.0
C4011 C 0.67811 0.49991 0.25045 0.0
C4012 C 0.6795 0.49517 0.24072 0.0
C4013 C 0.6834 0.48163 0.21238 0.0
C4014 C 0.6821 0.48623 0.22218 0.0
H4015 H 0.67419 0.49401 0.27453 0.0
H4016 H 0.67648 0.48626 0.25862 0.0
H4017 H 0.69109 0.5049 0.23577 0.0
H4018 H 0.68669 0.48799 0.18833 0.0
H4019 H 0.68449 0.49544 0.20439 0.0
C4020 C 0.71887 0.38466 0.54367 0.0
C4021 C 0.71464 0.37618 0.5478 0.0
C4022 C 0.72489 0.38405 0.53532 0.0
C4023 C 0.73141 0.36815 0.5143 0.0
H4024 H 0.75479 0.38415 0.51329 0.0
C4025 C 0.75475 0.37331 0.47889 0.0
C4026 C 0.76502 0.37381 0.47981 0.0
C4027 C 0.74866 0.37304 0.48722 0.0
C4028 C 0.74835 0.37955 0.51348 0.0
H4029 H 0.71335 0.36042 0.54633 0.0
H4030 H 0.72389 0.35935 0.53174 0.0
H4031 H 0.74407 0.38472 0.52769 0.0
H4032 H 0.77693 0.3743 0.49027 0.0
H4033 H 0.76632 0.37361 0.50479 0.0
H4034 H 0.73579 0.36287 0.50013 0.0
C4035 C 0.72246 0.36649 0.53491 0.0
C4036 C 0.74212 0.37998 0.52169 0.0
C4037 C 0.71642 0.3671 0.54327 0.0
C4038 C 0.76906 0.37383 0.48928 0.0
C4039 C 0.76297 0.37356 0.49761 0.0
C4040 C 0.73764 0.36772 0.50607 0.0
C4041 C 0.72685 0.37495 0.53089 0.0
C4042 C 0.73354 0.37433 0.52219 0.0
C4043 C 0.75269 0.37325 0.49669 0.0
C4044 C 0.74617 0.37345 0.50554 0.0
H4045 H 0.7175 0.39179 0.54686 0.0
H4046 H 0.72796 0.39075 0.5323 0.0
H4047 H 0.72482 0.36375 0.5144 0.0
H4048 H 0.7514 0.37315 0.47171 0.0
H4049 H 0.74078 0.37289 0.48622 0.0
C4050 C 0.62793 0.96227 0.71075 0.0
C4051 C 0.63623 0.95696 0.70751 0.0
C4052 C 0.62886 0.96994 0.71739 0.0
C4053 C 0.64539 0.97969 0.73622 0.0
H4054 H 0.62905 1.00303 0.73336 0.0
C4055 C 0.64861 0.01362 0.76151 0.0
C4056 C 0.63972 0.01802 0.76461 0.0
C4057 C 0.64866 0.00628 0.75439 0.0
C4058 C 0.63361 0.99653 0.73431 0.0
H4059 H 0.65207 0.95561 0.70868 0.0
H4060 H 0.65373 0.96915 0.72016 0.0
H4061 H 0.62838 0.99021 0.72106 0.0
H4062 H 0.62389 0.01785 0.76288 0.0
H4063 H 0.62399 1.00513 0.75047 0.0
H4064 H 0.65058 0.98603 0.74952 0.0
C4065 C 0.64647 0.96729 0.71764 0.0
C4066 C 0.63322 0.98917 0.72726 0.0
C4067 C 0.64553 0.9596 0.71097 0.0
C4068 C 0.63089 0.01479 0.76052 0.0
C4069 C 0.63095 0.00749 0.7534 0.0
C4070 C 0.64579 0.98708 0.74328 0.0
C4071 C 0.63813 0.97254 0.72095 0.0
C4072 C 0.63901 0.9806 0.72818 0.0
C4073 C 0.63983 1.00318 0.75019 0.0
C4074 C 0.63981 0.99552 0.74247 0.0
H4075 H 0.62067 0.96053 0.70814 0.0
H4076 H 0.62227 0.97374 0.71986 0.0
H4077 H 0.64987 0.97315 0.73722 0.0
H4078 H 0.65555 0.016 0.76443 0.0
H4079 H 0.65564 1.00317 0.75202 0.0
loop_
_geom_bond_atom_site_label_1
_geom_bond_atom_site_label_2
_geom_bond_distance
_geom_bond_site_symmetry_2
_ccdc_geom_bond_type
C0 C1 1.264 . S
C0 C5 1.479 . S
C0 C10 1.465 . S
C1 C0 1.264 . S
C1 C3 1.339 . S
C1 H28 0.931 . S
C2 C3 1.395 . S
C2 C4 1.320 . S
C3 C1 1.339 . S
C3 C2 1.395 . S
C3 H29 0.929 . S
C4 C2 1.320 . S
C4 C5 1.405 . S
C4 H30 0.930 . S
C5 C0 1.479 . S
C5 C4 1.405 . S
C5 H31 0.931 . S
U6 O7 2.454 . S
U6 O8 2.458 . S
U6 C9 2.984 . S
U6 C10 2.847 . S
U6 C23 2.882 . S
U6 O24 2.441 . S
U6 O25 2.420 . S
U6 O26 2.455 . S
U6 O27 2.449 . S
O7 U6 2.454 . S
O7 C9 1.353 . S
O8 U6 2.458 . S
O8 C9 1.286 . S
C9 U6 2.984 . S
C9 O7 1.353 . S
C9 O8 1.286 . S
C9 C11 1.363 . S
C10 C0 1.465 . S
C10 U6 2.847 . S
C10 O24 1.249 . S
C10 O25 1.202 . S
C11 C9 1.363 . S
C11 C13 1.408 . S
C11 C16 1.342 . S
C12 C13 1.310 . S
C12 C15 1.461 . S
C12 H32 0.932 . S
C13 C11 1.408 . S
C13 C12 1.310 . S
C13 H33 0.930 . S
C14 C15 1.474 . S
C14 C16 1.285 . S
C14 H34 0.929 . S
C15 C12 1.461 . S
C15 C14 1.474 . S
C16 C11 1.342 . S
C16 C14 1.285 . S
C16 H35 0.930 . S
C17 C20 1.424 . S
C17 C22 1.245 . S
C17 C23 1.428 . S
C18 C21 1.260 . S
C18 C22 1.477 . S
C18 H36 0.932 . S
C19 C20 1.384 . S
C19 C21 1.479 . S
C19 H37 0.929 . S
C20 C17 1.424 . S
C20 C19 1.384 . S
C20 H38 0.928 . S
C21 C18 1.260 . S
C21 C19 1.479 . S
C22 C17 1.245 . S
C22 C18 1.477 . S
C22 H39 0.932 . S
C23 U6 2.882 . S
C23 C17 1.428 . S
C23 O26 1.301 . S
C23 O27 1.282 . S
O24 U6 2.441 . S
O24 C10 1.249 . S
O25 U6 2.420 . S
O25 C10 1.202 . S
O26 U6 2.455 . S
O26 C23 1.301 . S
O27 U6 2.449 . S
O27 C23 1.282 . S
H28 C1 0.931 . S
H29 C3 0.929 . S
H30 C4 0.930 . S
H31 C5 0.931 . S
H32 C12 0.932 . S
H33 C13 0.930 . S
H34 C14 0.929 . S
H35 C16 0.930 . S
H36 C18 0.932 . S
H37 C19 0.929 . S
H38 C20 0.928 . S
H39 C22 0.932 . S
C40 C41 1.264 . S
C40 C45 1.479 . S
C40 C50 1.465 . S
C41 C40 1.264 . S
C41 C43 1.339 . S
C41 H68 0.931 . S
C42 C43 1.395 . S
C42 C44 1.320 . S
C43 C41 1.339 . S
C43 C42 1.395 . S
C43 H69 0.929 . S
C44 C42 1.320 . S
C44 C45 1.405 . S
C44 H70 0.930 . S
C45 C40 1.479 . S
C45 C44 1.405 . S
C45 H71 0.931 . S
U46 O47 2.454 . S
U46 O48 2.458 . S
U46 C49 2.984 . S
U46 C50 2.847 . S
U46 C63 2.882 . S
U46 O64 2.441 . S
U46 O65 2.420 . S
U46 O66 2.455 . S
U46 O67 2.449 . S
O47 U46 2.454 . S
O47 C49 1.353 . S
O48 U46 2.458 . S
O48 C49 1.286 . S
C49 U46 2.984 . S
C49 O47 1.353 . S
C49 O48 1.286 . S
C49 C51 1.363 . S
C50 C40 1.465 . S
C50 U46 2.847 . S
C50 O64 1.249 . S
C50 O65 1.202 . S
C51 C49 1.363 . S
C51 C53 1.408 . S
C51 C56 1.342 . S
C52 C53 1.310 . S
C52 C55 1.461 . S
C52 H72 0.932 . S
C53 C51 1.408 . S
C53 C52 1.310 . S
C53 H73 0.930 . S
C54 C55 1.474 . S
C54 C56 1.285 . S
C54 H74 0.929 . S
C55 C52 1.461 . S
C55 C54 1.474 . S
C56 C51 1.342 . S
C56 C54 1.285 . S
C56 H75 0.930 . S
C57 C60 1.424 . S
C57 C62 1.245 . S
C57 C63 1.428 . S
C58 C61 1.260 . S
C58 C62 1.477 . S
C58 H76 0.932 . S
C59 C60 1.384 . S
C59 C61 1.479 . S
C59 H77 0.929 . S
C60 C57 1.424 . S
C60 C59 1.384 . S
C60 H78 0.928 . S
C61 C58 1.260 . S
C61 C59 1.479 . S
C62 C57 1.245 . S
C62 C58 1.477 . S
C62 H79 0.932 . S
C63 U46 2.882 . S
C63 C57 1.428 . S
C63 O66 1.301 . S
C63 O67 1.282 . S
O64 U46 2.441 . S
O64 C50 1.249 . S
O65 U46 2.420 . S
O65 C50 1.202 . S
O66 U46 2.455 . S
O66 C63 1.301 . S
O67 U46 2.449 . S
O67 C63 1.282 . S
H68 C41 0.931 . S
H69 C43 0.929 . S
H70 C44 0.930 . S
H71 C45 0.931 . S
H72 C52 0.932 . S
H73 C53 0.930 . S
H74 C54 0.929 . S
H75 C56 0.930 . S
H76 C58 0.932 . S
H77 C59 0.929 . S
H78 C60 0.928 . S
H79 C62 0.932 . S
C80 C81 1.264 . S
C80 C85 1.479 . S
C80 C90 1.465 . S
C81 C80 1.264 . S
C81 C83 1.339 . S
C81 H108 0.931 . S
C82 C83 1.395 . S
C82 C84 1.320 . S
C83 C81 1.339 . S
C83 C82 1.395 . S
C83 H109 0.929 . S
C84 C82 1.320 . S
C84 C85 1.405 . S
C84 H110 0.930 . S
C85 C80 1.479 . S
C85 C84 1.405 . S
C85 H111 0.931 . S
U86 O87 2.454 . S
U86 O88 2.458 . S
U86 C89 2.984 . S
U86 C90 2.847 . S
U86 C103 2.882 . S
U86 O104 2.441 . S
U86 O105 2.420 . S
U86 O106 2.455 . S
U86 O107 2.449 . S
O87 U86 2.454 . S
O87 C89 1.353 . S
O88 U86 2.458 . S
O88 C89 1.286 . S
C89 U86 2.984 . S
C89 O87 1.353 . S
C89 O88 1.286 . S
C89 C91 1.363 . S
C90 C80 1.465 . S
C90 U86 2.847 . S
C90 O104 1.249 . S
C90 O105 1.202 . S
C91 C89 1.363 . S
C91 C93 1.408 . S
C91 C96 1.342 . S
C92 C93 1.310 . S
C92 C95 1.461 . S
C92 H112 0.932 . S
C93 C91 1.408 . S
C93 C92 1.310 . S
C93 H113 0.930 . S
C94 C95 1.474 . S
C94 C96 1.285 . S
C94 H114 0.929 . S
C95 C92 1.461 . S
C95 C94 1.474 . S
C96 C91 1.342 . S
C96 C94 1.285 . S
C96 H115 0.930 . S
C97 C100 1.424 . S
C97 C102 1.245 . S
C97 C103 1.428 . S
C98 C101 1.260 . S
C98 C102 1.477 . S
C98 H116 0.932 . S
C99 C100 1.384 . S
C99 C101 1.479 . S
C99 H117 0.929 . S
C100 C97 1.424 . S
C100 C99 1.384 . S
C100 H118 0.928 . S
C101 C98 1.260 . S
C101 C99 1.479 . S
C102 C97 1.245 . S
C102 C98 1.477 . S
C102 H119 0.932 . S
C103 U86 2.882 . S
C103 C97 1.428 . S
C103 O106 1.301 . S
C103 O107 1.282 . S
O104 U86 2.441 . S
O104 C90 1.249 . S
O105 U86 2.420 . S
O105 C90 1.202 . S
O106 U86 2.455 . S
O106 C103 1.301 . S
O107 U86 2.449 . S
O107 C103 1.282 . S
H108 C81 0.931 . S
H109 C83 0.929 . S
H110 C84 0.930 . S
H111 C85 0.931 . S
H112 C92 0.932 . S
H113 C93 0.930 . S
H114 C94 0.929 . S
H115 C96 0.930 . S
H116 C98 0.932 . S
H117 C99 0.929 . S
H118 C100 0.928 . S
H119 C102 0.932 . S
C120 C121 1.264 . S
C120 C125 1.479 . S
C120 C130 1.465 . S
C121 C120 1.264 . S
C121 C123 1.339 . S
C121 H148 0.931 . S
C122 C123 1.395 . S
C122 C124 1.320 . S
C123 C121 1.339 . S
C123 C122 1.395 . S
C123 H149 0.929 . S
C124 C122 1.320 . S
C124 C125 1.405 . S
C124 H150 0.930 . S
C125 C120 1.479 . S
C125 C124 1.405 . S
C125 H151 0.931 . S
U126 O127 2.454 . S
U126 O128 2.458 . S
U126 C129 2.984 . S
U126 C130 2.847 . S
U126 C143 2.882 . S
U126 O144 2.441 . S
U126 O145 2.420 . S
U126 O146 2.455 . S
U126 O147 2.449 . S
O127 U126 2.454 . S
O127 C129 1.353 . S
O128 U126 2.458 . S
O128 C129 1.286 . S
C129 U126 2.984 . S
C129 O127 1.353 . S
C129 O128 1.286 . S
C129 C131 1.363 . S
C130 C120 1.465 . S
C130 U126 2.847 . S
C130 O144 1.249 . S
C130 O145 1.202 . S
C131 C129 1.363 . S
C131 C133 1.408 . S
C131 C136 1.342 . S
C132 C133 1.310 . S
C132 C135 1.461 . S
C132 H152 0.932 . S
C133 C131 1.408 . S
C133 C132 1.310 . S
C133 H153 0.930 . S
C134 C135 1.474 . S
C134 C136 1.285 . S
C134 H154 0.929 . S
C135 C132 1.461 . S
C135 C134 1.474 . S
C136 C131 1.342 . S
C136 C134 1.285 . S
C136 H155 0.930 . S
C137 C140 1.424 . S
C137 C142 1.245 . S
C137 C143 1.428 . S
C138 C141 1.260 . S
C138 C142 1.477 . S
C138 H156 0.932 . S
C139 C140 1.384 . S
C139 C141 1.479 . S
C139 H157 0.929 . S
C140 C137 1.424 . S
C140 C139 1.384 . S
C140 H158 0.928 . S
C141 C138 1.260 . S
C141 C139 1.479 . S
C142 C137 1.245 . S
C142 C138 1.477 . S
C142 H159 0.932 . S
C143 U126 2.882 . S
C143 C137 1.428 . S
C143 O146 1.301 . S
C143 O147 1.282 . S
O144 U126 2.441 . S
O144 C130 1.249 . S
O145 U126 2.420 . S
O145 C130 1.202 . S
O146 U126 2.455 . S
O146 C143 1.301 . S
O147 U126 2.449 . S
O147 C143 1.282 . S
H148 C121 0.931 . S
H149 C123 0.929 . S
H150 C124 0.930 . S
H151 C125 0.931 . S
H152 C132 0.932 . S
H153 C133 0.930 . S
H154 C134 0.929 . S
H155 C136 0.930 . S
H156 C138 0.932 . S
H157 C139 0.929 . S
H158 C140 0.928 . S
H159 C142 0.932 . S
C160 C161 1.264 . S
C160 C165 1.479 . S
C160 C170 1.465 . S
C161 C160 1.264 . S
C161 C163 1.339 . S
C161 H188 0.931 . S
C162 C163 1.395 . S
C162 C164 1.320 . S
C163 C161 1.339 . S
C163 C162 1.395 . S
C163 H189 0.929 . S
C164 C162 1.320 . S
C164 C165 1.405 . S
C164 H190 0.930 . S
C165 C160 1.479 . S
C165 C164 1.405 . S
C165 H191 0.931 . S
U166 O167 2.454 . S
U166 O168 2.458 . S
U166 C169 2.984 . S
U166 C170 2.847 . S
U166 C183 2.882 . S
U166 O184 2.441 . S
U166 O185 2.420 . S
U166 O186 2.455 . S
U166 O187 2.449 . S
O167 U166 2.454 . S
O167 C169 1.353 . S
O168 U166 2.458 . S
O168 C169 1.286 . S
C169 U166 2.984 . S
C169 O167 1.353 . S
C169 O168 1.286 . S
C169 C171 1.363 . S
C170 C160 1.465 . S
C170 U166 2.847 . S
C170 O184 1.249 . S
C170 O185 1.202 . S
C171 C169 1.363 . S
C171 C173 1.408 . S
C171 C176 1.342 . S
C172 C173 1.310 . S
C172 C175 1.461 . S
C172 H192 0.932 . S
C173 C171 1.408 . S
C173 C172 1.310 . S
C173 H193 0.930 . S
C174 C175 1.474 . S
C174 C176 1.285 . S
C174 H194 0.929 . S
C175 C172 1.461 . S
C175 C174 1.474 . S
C176 C171 1.342 . S
C176 C174 1.285 . S
C176 H195 0.930 . S
C177 C180 1.424 . S
C177 C182 1.245 . S
C177 C183 1.428 . S
C178 C181 1.260 . S
C178 C182 1.477 . S
C178 H196 0.932 . S
C179 C180 1.384 . S
C179 C181 1.479 . S
C179 H197 0.929 . S
C180 C177 1.424 . S
C180 C179 1.384 . S
C180 H198 0.928 . S
C181 C178 1.260 . S
C181 C179 1.479 . S
C182 C177 1.245 . S
C182 C178 1.477 . S
C182 H199 0.932 . S
C183 U166 2.882 . S
C183 C177 1.428 . S
C183 O186 1.301 . S
C183 O187 1.282 . S
O184 U166 2.441 . S
O184 C170 1.249 . S
O185 U166 2.420 . S
O185 C170 1.202 . S
O186 U166 2.455 . S
O186 C183 1.301 . S
O187 U166 2.449 . S
O187 C183 1.282 . S
H188 C161 0.931 . S
H189 C163 0.929 . S
H190 C164 0.930 . S
H191 C165 0.931 . S
H192 C172 0.932 . S
H193 C173 0.930 . S
H194 C174 0.929 . S
H195 C176 0.930 . S
H196 C178 0.932 . S
H197 C179 0.929 . S
H198 C180 0.928 . S
H199 C182 0.932 . S
C200 C201 1.264 . S
C200 C205 1.479 . S
C200 C210 1.465 . S
C201 C200 1.264 . S
C201 C203 1.339 . S
C201 H228 0.931 . S
C202 C203 1.395 . S
C202 C204 1.320 . S
C203 C201 1.339 . S
C203 C202 1.395 . S
C203 H229 0.929 . S
C204 C202 1.320 . S
C204 C205 1.405 . S
C204 H230 0.930 . S
C205 C200 1.479 . S
C205 C204 1.405 . S
C205 H231 0.931 . S
U206 O207 2.454 . S
U206 O208 2.458 . S
U206 C209 2.984 . S
U206 C210 2.847 . S
U206 C223 2.882 . S
U206 O224 2.441 . S
U206 O225 2.420 . S
U206 O226 2.455 . S
U206 O227 2.449 . S
O207 U206 2.454 . S
O207 C209 1.353 . S
O208 U206 2.458 . S
O208 C209 1.286 . S
C209 U206 2.984 . S
C209 O207 1.353 . S
C209 O208 1.286 . S
C209 C211 1.363 . S
C210 C200 1.465 . S
C210 U206 2.847 . S
C210 O224 1.249 . S
C210 O225 1.202 . S
C211 C209 1.363 . S
C211 C213 1.408 . S
C211 C216 1.342 . S
C212 C213 1.310 . S
C212 C215 1.461 . S
C212 H232 0.932 . S
C213 C211 1.408 . S
C213 C212 1.310 . S
C213 H233 0.930 . S
C214 C215 1.474 . S
C214 C216 1.285 . S
C214 H234 0.929 . S
C215 C212 1.461 . S
C215 C214 1.474 . S
C216 C211 1.342 . S
C216 C214 1.285 . S
C216 H235 0.930 . S
C217 C220 1.424 . S
C217 C222 1.245 . S
C217 C223 1.428 . S
C218 C221 1.260 . S
C218 C222 1.477 . S
C218 H236 0.932 . S
C219 C220 1.384 . S
C219 C221 1.479 . S
C219 H237 0.929 . S
C220 C217 1.424 . S
C220 C219 1.384 . S
C220 H238 0.928 . S
C221 C218 1.260 . S
C221 C219 1.479 . S
C222 C217 1.245 . S
C222 C218 1.477 . S
C222 H239 0.932 . S
C223 U206 2.882 . S
C223 C217 1.428 . S
C223 O226 1.301 . S
C223 O227 1.282 . S
O224 U206 2.441 . S
O224 C210 1.249 . S
O225 U206 2.420 . S
O225 C210 1.202 . S
O226 U206 2.455 . S
O226 C223 1.301 . S
O227 U206 2.449 . S
O227 C223 1.282 . S
H228 C201 0.931 . S
H229 C203 0.929 . S
H230 C204 0.930 . S
H231 C205 0.931 . S
H232 C212 0.932 . S
H233 C213 0.930 . S
H234 C214 0.929 . S
H235 C216 0.930 . S
H236 C218 0.932 . S
H237 C219 0.929 . S
H238 C220 0.928 . S
H239 C222 0.932 . S
C240 C241 1.264 . S
C240 C245 1.479 . S
C240 C250 1.465 . S
C241 C240 1.264 . S
C241 C243 1.339 . S
C241 H268 0.931 . S
C242 C243 1.395 . S
C242 C244 1.320 . S
C243 C241 1.339 . S
C243 C242 1.395 . S
C243 H269 0.929 . S
C244 C242 1.320 . S
C244 C245 1.405 . S
C244 H270 0.930 . S
C245 C240 1.479 . S
C245 C244 1.405 . S
C245 H271 0.931 . S
U246 O247 2.454 . S
U246 O248 2.458 . S
U246 C249 2.984 . S
U246 C250 2.847 . S
U246 C263 2.882 . S
U246 O264 2.441 . S
U246 O265 2.420 . S
U246 O266 2.455 . S
U246 O267 2.449 . S
O247 U246 2.454 . S
O247 C249 1.353 . S
O248 U246 2.458 . S
O248 C249 1.286 . S
C249 U246 2.984 . S
C249 O247 1.353 . S
C249 O248 1.286 . S
C249 C251 1.363 . S
C250 C240 1.465 . S
C250 U246 2.847 . S
C250 O264 1.249 . S
C250 O265 1.202 . S
C251 C249 1.363 . S
C251 C253 1.408 . S
C251 C256 1.342 . S
C252 C253 1.310 . S
C252 C255 1.461 . S
C252 H272 0.932 . S
C253 C251 1.408 . S
C253 C252 1.310 . S
C253 H273 0.930 . S
C254 C255 1.474 . S
C254 C256 1.285 . S
C254 H274 0.929 . S
C255 C252 1.461 . S
C255 C254 1.474 . S
C256 C251 1.342 . S
C256 C254 1.285 . S
C256 H275 0.930 . S
C257 C260 1.424 . S
C257 C262 1.245 . S
C257 C263 1.428 . S
C258 C261 1.260 . S
C258 C262 1.477 . S
C258 H276 0.932 . S
C259 C260 1.384 . S
C259 C261 1.479 . S
C259 H277 0.929 . S
C260 C257 1.424 . S
C260 C259 1.384 . S
C260 H278 0.928 . S
C261 C258 1.260 . S
C261 C259 1.479 . S
C262 C257 1.245 . S
C262 C258 1.477 . S
C262 H279 0.932 . S
C263 U246 2.882 . S
C263 C257 1.428 . S
C263 O266 1.301 . S
C263 O267 1.282 . S
O264 U246 2.441 . S
O264 C250 1.249 . S
O265 U246 2.420 . S
O265 C250 1.202 . S
O266 U246 2.455 . S
O266 C263 1.301 . S
O267 U246 2.449 . S
O267 C263 1.282 . S
H268 C241 0.931 . S
H269 C243 0.929 . S
H270 C244 0.930 . S
H271 C245 0.931 . S
H272 C252 0.932 . S
H273 C253 0.930 . S
H274 C254 0.929 . S
H275 C256 0.930 . S
H276 C258 0.932 . S
H277 C259 0.929 . S
H278 C260 0.928 . S
H279 C262 0.932 . S
C280 C281 1.264 . S
C280 C285 1.479 . S
C280 C290 1.465 . S
C281 C280 1.264 . S
C281 C283 1.339 . S
C281 H308 0.931 . S
C282 C283 1.395 . S
C282 C284 1.320 . S
C283 C281 1.339 . S
C283 C282 1.395 . S
C283 H309 0.929 . S
C284 C282 1.320 . S
C284 C285 1.405 . S
C284 H310 0.930 . S
C285 C280 1.479 . S
C285 C284 1.405 . S
C285 H311 0.931 . S
U286 O287 2.454 . S
U286 O288 2.458 . S
U286 C289 2.984 . S
U286 C290 2.847 . S
U286 C303 2.882 . S
U286 O304 2.441 . S
U286 O305 2.420 . S
U286 O306 2.455 . S
U286 O307 2.449 . S
O287 U286 2.454 . S
O287 C289 1.353 . S
O288 U286 2.458 . S
O288 C289 1.286 . S
C289 U286 2.984 . S
C289 O287 1.353 . S
C289 O288 1.286 . S
C289 C291 1.363 . S
C290 C280 1.465 . S
C290 U286 2.847 . S
C290 O304 1.249 . S
C290 O305 1.202 . S
C291 C289 1.363 . S
C291 C293 1.408 . S
C291 C296 1.342 . S
C292 C293 1.310 . S
C292 C295 1.461 . S
C292 H312 0.932 . S
C293 C291 1.408 . S
C293 C292 1.310 . S
C293 H313 0.930 . S
C294 C295 1.474 . S
C294 C296 1.285 . S
C294 H314 0.929 . S
C295 C292 1.461 . S
C295 C294 1.474 . S
C296 C291 1.342 . S
C296 C294 1.285 . S
C296 H315 0.930 . S
C297 C300 1.424 . S
C297 C302 1.245 . S
C297 C303 1.428 . S
C298 C301 1.260 . S
C298 C302 1.477 . S
C298 H316 0.932 . S
C299 C300 1.384 . S
C299 C301 1.479 . S
C299 H317 0.929 . S
C300 C297 1.424 . S
C300 C299 1.384 . S
C300 H318 0.928 . S
C301 C298 1.260 . S
C301 C299 1.479 . S
C302 C297 1.245 . S
C302 C298 1.477 . S
C302 H319 0.932 . S
C303 U286 2.882 . S
C303 C297 1.428 . S
C303 O306 1.301 . S
C303 O307 1.282 . S
O304 U286 2.441 . S
O304 C290 1.249 . S
O305 U286 2.420 . S
O305 C290 1.202 . S
O306 U286 2.455 . S
O306 C303 1.301 . S
O307 U286 2.449 . S
O307 C303 1.282 . S
H308 C281 0.931 . S
H309 C283 0.929 . S
H310 C284 0.930 . S
H311 C285 0.931 . S
H312 C292 0.932 . S
H313 C293 0.930 . S
H314 C294 0.929 . S
H315 C296 0.930 . S
H316 C298 0.932 . S
H317 C299 0.929 . S
H318 C300 0.928 . S
H319 C302 0.932 . S
C320 C321 1.264 . S
C320 C325 1.479 . S
C320 C330 1.465 . S
C321 C320 1.264 . S
C321 C323 1.339 . S
C321 H348 0.931 . S
C322 C323 1.395 . S
C322 C324 1.320 . S
C323 C321 1.339 . S
C323 C322 1.395 . S
C323 H349 0.929 . S
C324 C322 1.320 . S
C324 C325 1.405 . S
C324 H350 0.930 . S
C325 C320 1.479 . S
C325 C324 1.405 . S
C325 H351 0.931 . S
U326 O327 2.454 . S
U326 O328 2.458 . S
U326 C329 2.984 . S
U326 C330 2.847 . S
U326 C343 2.882 . S
U326 O344 2.441 . S
U326 O345 2.420 . S
U326 O346 2.455 . S
U326 O347 2.449 . S
O327 U326 2.454 . S
O327 C329 1.353 . S
O328 U326 2.458 . S
O328 C329 1.286 . S
C329 U326 2.984 . S
C329 O327 1.353 . S
C329 O328 1.286 . S
C329 C331 1.363 . S
C330 C320 1.465 . S
C330 U326 2.847 . S
C330 O344 1.249 . S
C330 O345 1.202 . S
C331 C329 1.363 . S
C331 C333 1.408 . S
C331 C336 1.342 . S
C332 C333 1.310 . S
C332 C335 1.461 . S
C332 H352 0.932 . S
C333 C331 1.408 . S
C333 C332 1.310 . S
C333 H353 0.930 . S
C334 C335 1.474 . S
C334 C336 1.285 . S
C334 H354 0.929 . S
C335 C332 1.461 . S
C335 C334 1.474 . S
C336 C331 1.342 . S
C336 C334 1.285 . S
C336 H355 0.930 . S
C337 C340 1.424 . S
C337 C342 1.245 . S
C337 C343 1.428 . S
C338 C341 1.260 . S
C338 C342 1.477 . S
C338 H356 0.932 . S
C339 C340 1.384 . S
C339 C341 1.479 . S
C339 H357 0.929 . S
C340 C337 1.424 . S
C340 C339 1.384 . S
C340 H358 0.928 . S
C341 C338 1.260 . S
C341 C339 1.479 . S
C342 C337 1.245 . S
C342 C338 1.477 . S
C342 H359 0.932 . S
C343 U326 2.882 . S
C343 C337 1.428 . S
C343 O346 1.301 . S
C343 O347 1.282 . S
O344 U326 2.441 . S
O344 C330 1.249 . S
O345 U326 2.420 . S
O345 C330 1.202 . S
O346 U326 2.455 . S
O346 C343 1.301 . S
O347 U326 2.449 . S
O347 C343 1.282 . S
H348 C321 0.931 . S
H349 C323 0.929 . S
H350 C324 0.930 . S
H351 C325 0.931 . S
H352 C332 0.932 . S
H353 C333 0.930 . S
H354 C334 0.929 . S
H355 C336 0.930 . S
H356 C338 0.932 . S
H357 C339 0.929 . S
H358 C340 0.928 . S
H359 C342 0.932 . S
C360 C361 1.264 . S
C360 C365 1.479 . S
C360 C370 1.465 . S
C361 C360 1.264 . S
C361 C363 1.339 . S
C361 H388 0.931 . S
C362 C363 1.395 . S
C362 C364 1.320 . S
C363 C361 1.339 . S
C363 C362 1.395 . S
C363 H389 0.929 . S
C364 C362 1.320 . S
C364 C365 1.405 . S
C364 H390 0.930 . S
C365 C360 1.479 . S
C365 C364 1.405 . S
C365 H391 0.931 . S
U366 O367 2.454 . S
U366 O368 2.458 . S
U366 C369 2.984 . S
U366 C370 2.847 . S
U366 C383 2.882 . S
U366 O384 2.441 . S
U366 O385 2.420 . S
U366 O386 2.455 . S
U366 O387 2.449 . S
O367 U366 2.454 . S
O367 C369 1.353 . S
O368 U366 2.458 . S
O368 C369 1.286 . S
C369 U366 2.984 . S
C369 O367 1.353 . S
C369 O368 1.286 . S
C369 C371 1.363 . S
C370 C360 1.465 . S
C370 U366 2.847 . S
C370 O384 1.249 . S
C370 O385 1.202 . S
C371 C369 1.363 . S
C371 C373 1.408 . S
C371 C376 1.342 . S
C372 C373 1.310 . S
C372 C375 1.461 . S
C372 H392 0.932 . S
C373 C371 1.408 . S
C373 C372 1.310 . S
C373 H393 0.930 . S
C374 C375 1.474 . S
C374 C376 1.285 . S
C374 H394 0.929 . S
C375 C372 1.461 . S
C375 C374 1.474 . S
C376 C371 1.342 . S
C376 C374 1.285 . S
C376 H395 0.930 . S
C377 C380 1.424 . S
C377 C382 1.245 . S
C377 C383 1.428 . S
C378 C381 1.260 . S
C378 C382 1.477 . S
C378 H396 0.932 . S
C379 C380 1.384 . S
C379 C381 1.479 . S
C379 H397 0.929 . S
C380 C377 1.424 . S
C380 C379 1.384 . S
C380 H398 0.928 . S
C381 C378 1.260 . S
C381 C379 1.479 . S
C382 C377 1.245 . S
C382 C378 1.477 . S
C382 H399 0.932 . S
C383 U366 2.882 . S
C383 C377 1.428 . S
C383 O386 1.301 . S
C383 O387 1.282 . S
O384 U366 2.441 . S
O384 C370 1.249 . S
O385 U366 2.420 . S
O385 C370 1.202 . S
O386 U366 2.455 . S
O386 C383 1.301 . S
O387 U366 2.449 . S
O387 C383 1.282 . S
H388 C361 0.931 . S
H389 C363 0.929 . S
H390 C364 0.930 . S
H391 C365 0.931 . S
H392 C372 0.932 . S
H393 C373 0.930 . S
H394 C374 0.929 . S
H395 C376 0.930 . S
H396 C378 0.932 . S
H397 C379 0.929 . S
H398 C380 0.928 . S
H399 C382 0.932 . S
C400 C401 1.264 . S
C400 C405 1.479 . S
C400 C410 1.465 . S
C401 C400 1.264 . S
C401 C403 1.339 1_565 S
C401 H428 0.931 . S
C402 C403 1.407 . S
C402 C404 1.271 1_545 S
C403 C401 1.339 1_545 S
C403 C402 1.407 . S
C403 H429 0.929 . S
C404 C402 1.271 1_565 S
C404 C405 1.405 . S
C404 H430 0.930 . S
C405 C400 1.479 . S
C405 C404 1.405 . S
C405 H431 0.931 . S
U406 O407 2.454 . S
U406 O408 2.458 . S
U406 C409 2.984 . S
U406 C410 2.847 . S
U406 C423 2.882 . S
U406 O424 2.441 . S
U406 O425 2.420 . S
U406 O426 2.455 . S
U406 O427 2.449 . S
O407 U406 2.454 . S
O407 C409 1.353 . S
O408 U406 2.458 . S
O408 C409 1.286 . S
C409 U406 2.984 . S
C409 O407 1.353 . S
C409 O408 1.286 . S
C409 C411 1.363 . S
C410 C400 1.465 . S
C410 U406 2.847 . S
C410 O424 1.249 . S
C410 O425 1.202 . S
C411 C409 1.363 . S
C411 C413 1.408 . S
C411 C416 1.342 . S
C412 C413 1.310 . S
C412 C415 1.461 . S
C412 H432 0.932 . S
C413 C411 1.408 . S
C413 C412 1.310 . S
C413 H433 0.930 . S
C414 C415 1.474 . S
C414 C416 1.285 . S
C414 H434 0.929 . S
C415 C412 1.461 . S
C415 C414 1.474 . S
C416 C411 1.342 . S
C416 C414 1.285 . S
C416 H435 0.930 . S
C417 C420 1.424 . S
C417 C422 1.245 . S
C417 C423 1.428 . S
C418 C421 1.260 . S
C418 C422 1.477 . S
C418 H436 0.932 . S
C419 C420 1.376 1_545 S
C419 C421 1.473 1_545 S
C419 H437 0.943 . S
C420 C417 1.424 . S
C420 C419 1.376 1_565 S
C420 H438 0.928 . S
C421 C418 1.260 . S
C421 C419 1.473 1_565 S
C422 C417 1.245 . S
C422 C418 1.477 . S
C422 H439 0.932 . S
C423 U406 2.882 . S
C423 C417 1.428 . S
C423 O426 1.301 . S
C423 O427 1.282 . S
O424 U406 2.441 . S
O424 C410 1.249 . S
O425 U406 2.420 . S
O425 C410 1.202 . S
O426 U406 2.455 . S
O426 C423 1.301 . S
O427 U406 2.449 . S
O427 C423 1.282 . S
H428 C401 0.931 . S
H429 C403 0.929 . S
H430 C404 0.930 . S
H431 C405 0.931 . S
H432 C412 0.932 . S
H433 C413 0.930 . S
H434 C414 0.929 . S
H435 C416 0.930 . S
H436 C418 0.932 . S
H437 C419 0.943 . S
H438 C420 0.928 . S
H439 C422 0.932 . S
C440 C441 1.264 . S
C440 C445 1.479 . S
C440 C450 1.465 . S
C441 C440 1.264 . S
C441 C443 1.339 . S
C441 H468 0.931 . S
C442 C443 1.395 . S
C442 C444 1.320 . S
C443 C441 1.339 . S
C443 C442 1.395 . S
C443 H469 0.929 . S
C444 C442 1.320 . S
C444 C445 1.405 . S
C444 H470 0.930 . S
C445 C440 1.479 . S
C445 C444 1.405 . S
C445 H471 0.931 . S
U446 O447 2.454 . S
U446 O448 2.458 . S
U446 C449 2.984 . S
U446 C450 2.847 . S
U446 C463 2.882 . S
U446 O464 2.441 . S
U446 O465 2.420 . S
U446 O466 2.455 . S
U446 O467 2.449 . S
O447 U446 2.454 . S
O447 C449 1.353 . S
O448 U446 2.458 . S
O448 C449 1.286 . S
C449 U446 2.984 . S
C449 O447 1.353 . S
C449 O448 1.286 . S
C449 C451 1.363 . S
C450 C440 1.465 . S
C450 U446 2.847 . S
C450 O464 1.249 . S
C450 O465 1.202 . S
C451 C449 1.363 . S
C451 C453 1.408 . S
C451 C456 1.342 . S
C452 C453 1.310 . S
C452 C455 1.461 . S
C452 H472 0.932 . S
C453 C451 1.408 . S
C453 C452 1.310 . S
C453 H473 0.930 . S
C454 C455 1.474 . S
C454 C456 1.285 . S
C454 H474 0.929 . S
C455 C452 1.461 . S
C455 C454 1.474 . S
C456 C451 1.342 . S
C456 C454 1.285 . S
C456 H475 0.930 . S
C457 C460 1.411 1_565 S
C457 C462 1.234 1_565 S
C457 C463 1.469 . S
C458 C461 1.260 . S
C458 C462 1.514 . S
C458 H476 0.932 . S
C459 C460 1.384 . S
C459 C461 1.479 . S
C459 H477 0.929 . S
C460 C457 1.411 1_545 S
C460 C459 1.384 . S
C460 H478 0.928 1_545 S
C461 C458 1.260 . S
C461 C459 1.479 . S
C462 C457 1.234 1_545 S
C462 C458 1.514 . S
C462 H479 0.910 1_545 S
C463 U446 2.882 . S
C463 C457 1.469 . S
C463 O466 1.301 . S
C463 O467 1.282 . S
O464 U446 2.441 . S
O464 C450 1.249 . S
O465 U446 2.420 . S
O465 C450 1.202 . S
O466 U446 2.455 . S
O466 C463 1.301 . S
O467 U446 2.449 . S
O467 C463 1.282 . S
H468 C441 0.931 . S
H469 C443 0.929 . S
H470 C444 0.930 . S
H471 C445 0.931 . S
H472 C452 0.932 . S
H473 C453 0.930 . S
H474 C454 0.929 . S
H475 C456 0.930 . S
H476 C458 0.932 . S
H477 C459 0.929 . S
H478 C460 0.928 1_565 S
H479 C462 0.910 1_565 S
C480 C481 1.264 . S
C480 C485 1.479 . S
C480 C490 1.465 . S
C481 C480 1.264 . S
C481 C483 1.339 1_565 S
C481 H508 0.886 1_565 S
C482 C483 1.395 1_565 S
C482 C484 1.320 . S
C483 C481 1.339 1_545 S
C483 C482 1.395 1_545 S
C483 H509 0.929 . S
C484 C482 1.320 . S
C484 C485 1.405 . S
C484 H510 0.930 . S
C485 C480 1.479 . S
C485 C484 1.405 . S
C485 H511 0.931 . S
U486 O487 2.454 . S
U486 O488 2.458 . S
U486 C489 2.984 . S
U486 C490 2.847 . S
U486 C503 2.882 . S
U486 O504 2.441 . S
U486 O505 2.420 . S
U486 O506 2.455 . S
U486 O507 2.449 . S
O487 U486 2.454 . S
O487 C489 1.353 . S
O488 U486 2.458 . S
O488 C489 1.286 . S
C489 U486 2.984 . S
C489 O487 1.353 . S
C489 O488 1.286 . S
C489 C491 1.363 . S
C490 C480 1.465 . S
C490 U486 2.847 . S
C490 O504 1.249 . S
C490 O505 1.202 . S
C491 C489 1.363 . S
C491 C493 1.408 . S
C491 C496 1.342 . S
C492 C493 1.310 . S
C492 C495 1.461 . S
C492 H512 0.932 . S
C493 C491 1.408 . S
C493 C492 1.310 . S
C493 H513 0.930 . S
C494 C495 1.474 . S
C494 C496 1.285 . S
C494 H514 0.929 . S
C495 C492 1.461 . S
C495 C494 1.474 . S
C496 C491 1.342 . S
C496 C494 1.285 . S
C496 H515 0.930 . S
C497 C500 1.424 1_565 S
C497 C502 1.245 . S
C497 C503 1.428 . S
C498 C501 1.260 1_565 S
C498 C502 1.477 . S
C498 H516 0.932 . S
C499 C500 1.384 . S
C499 C501 1.479 . S
C499 H517 0.929 . S
C500 C497 1.424 1_545 S
C500 C499 1.384 . S
C500 H518 0.928 . S
C501 C498 1.260 1_545 S
C501 C499 1.479 . S
C502 C497 1.245 . S
C502 C498 1.477 . S
C502 H519 0.932 . S
C503 U486 2.882 . S
C503 C497 1.428 . S
C503 O506 1.301 . S
C503 O507 1.282 . S
O504 U486 2.441 . S
O504 C490 1.249 . S
O505 U486 2.420 . S
O505 C490 1.202 . S
O506 U486 2.455 . S
O506 C503 1.301 . S
O507 U486 2.449 . S
O507 C503 1.282 . S
H508 C481 0.886 1_545 S
H509 C483 0.929 . S
H510 C484 0.930 . S
H511 C485 0.931 . S
H512 C492 0.932 . S
H513 C493 0.930 . S
H514 C494 0.929 . S
H515 C496 0.930 . S
H516 C498 0.932 . S
H517 C499 0.929 . S
H518 C500 0.928 . S
H519 C502 0.932 . S
C520 C521 1.264 . S
C520 C525 1.479 . S
C520 C530 1.465 . S
C521 C520 1.264 . S
C521 C523 1.339 . S
C521 H548 0.931 . S
C522 C523 1.395 . S
C522 C524 1.320 . S
C523 C521 1.339 . S
C523 C522 1.395 . S
C523 H549 0.929 . S
C524 C522 1.320 . S
C524 C525 1.405 . S
C524 H550 0.930 . S
C525 C520 1.479 . S
C525 C524 1.405 . S
C525 H551 0.931 . S
U526 O527 2.454 . S
U526 O528 2.458 . S
U526 C529 2.984 . S
U526 C530 2.847 . S
U526 C543 2.882 . S
U526 O544 2.441 . S
U526 O545 2.420 . S
U526 O546 2.455 . S
U526 O547 2.449 . S
O527 U526 2.454 . S
O527 C529 1.353 . S
O528 U526 2.458 . S
O528 C529 1.286 . S
C529 U526 2.984 . S
C529 O527 1.353 . S
C529 O528 1.286 . S
C529 C531 1.363 . S
C530 C520 1.465 . S
C530 U526 2.847 . S
C530 O544 1.249 . S
C530 O545 1.202 . S
C531 C529 1.363 . S
C531 C533 1.408 . S
C531 C536 1.342 . S
C532 C533 1.310 . S
C532 C535 1.461 . S
C532 H552 0.932 . S
C533 C531 1.408 . S
C533 C532 1.310 . S
C533 H553 0.930 . S
C534 C535 1.474 . S
C534 C536 1.285 . S
C534 H554 0.929 . S
C535 C532 1.461 . S
C535 C534 1.474 . S
C536 C531 1.342 . S
C536 C534 1.285 . S
C536 H555 0.930 . S
C537 C540 1.424 . S
C537 C542 1.245 . S
C537 C543 1.428 . S
C538 C541 1.260 . S
C538 C542 1.477 . S
C538 H556 0.932 . S
C539 C540 1.384 . S
C539 C541 1.479 . S
C539 H557 0.929 . S
C540 C537 1.424 . S
C540 C539 1.384 . S
C540 H558 0.928 . S
C541 C538 1.260 . S
C541 C539 1.479 . S
C542 C537 1.245 . S
C542 C538 1.477 . S
C542 H559 0.932 . S
C543 U526 2.882 . S
C543 C537 1.428 . S
C543 O546 1.301 . S
C543 O547 1.282 . S
O544 U526 2.441 . S
O544 C530 1.249 . S
O545 U526 2.420 . S
O545 C530 1.202 . S
O546 U526 2.455 . S
O546 C543 1.301 . S
O547 U526 2.449 . S
O547 C543 1.282 . S
H548 C521 0.931 . S
H549 C523 0.929 . S
H550 C524 0.930 . S
H551 C525 0.931 . S
H552 C532 0.932 . S
H553 C533 0.930 . S
H554 C534 0.929 . S
H555 C536 0.930 . S
H556 C538 0.932 . S
H557 C539 0.929 . S
H558 C540 0.928 . S
H559 C542 0.932 . S
C560 C561 1.264 . S
C560 C565 1.479 . S
C560 C570 1.465 . S
C561 C560 1.264 . S
C561 C563 1.339 . S
C561 H588 0.931 . S
C562 C563 1.395 . S
C562 C564 1.320 . S
C563 C561 1.339 . S
C563 C562 1.395 . S
C563 H589 0.929 . S
C564 C562 1.320 . S
C564 C565 1.405 . S
C564 H590 0.930 . S
C565 C560 1.479 . S
C565 C564 1.405 . S
C565 H591 0.931 . S
U566 O567 2.454 . S
U566 O568 2.458 . S
U566 C569 2.984 . S
U566 C570 2.847 . S
U566 C583 2.882 . S
U566 O584 2.441 . S
U566 O585 2.420 . S
U566 O586 2.455 . S
U566 O587 2.449 . S
O567 U566 2.454 . S
O567 C569 1.353 . S
O568 U566 2.458 . S
O568 C569 1.286 . S
C569 U566 2.984 . S
C569 O567 1.353 . S
C569 O568 1.286 . S
C569 C571 1.363 . S
C570 C560 1.465 . S
C570 U566 2.847 . S
C570 O584 1.249 . S
C570 O585 1.202 . S
C571 C569 1.363 . S
C571 C573 1.408 . S
C571 C576 1.342 . S
C572 C573 1.310 . S
C572 C575 1.461 . S
C572 H592 0.932 . S
C573 C571 1.408 . S
C573 C572 1.310 . S
C573 H593 0.930 . S
C574 C575 1.474 . S
C574 C576 1.285 . S
C574 H594 0.929 . S
C575 C572 1.461 . S
C575 C574 1.474 . S
C576 C571 1.342 . S
C576 C574 1.285 . S
C576 H595 0.930 . S
C577 C580 1.424 . S
C577 C582 1.245 . S
C577 C583 1.428 . S
C578 C581 1.260 . S
C578 C582 1.477 . S
C578 H596 0.932 . S
C579 C580 1.384 . S
C579 C581 1.479 . S
C579 H597 0.929 . S
C580 C577 1.424 . S
C580 C579 1.384 . S
C580 H598 0.928 . S
C581 C578 1.260 . S
C581 C579 1.479 . S
C582 C577 1.245 . S
C582 C578 1.477 . S
C582 H599 0.932 . S
C583 U566 2.882 . S
C583 C577 1.428 . S
C583 O586 1.301 . S
C583 O587 1.282 . S
O584 U566 2.441 . S
O584 C570 1.249 . S
O585 U566 2.420 . S
O585 C570 1.202 . S
O586 U566 2.455 . S
O586 C583 1.301 . S
O587 U566 2.449 . S
O587 C583 1.282 . S
H588 C561 0.931 . S
H589 C563 0.929 . S
H590 C564 0.930 . S
H591 C565 0.931 . S
H592 C572 0.932 . S
H593 C573 0.930 . S
H594 C574 0.929 . S
H595 C576 0.930 . S
H596 C578 0.932 . S
H597 C579 0.929 . S
H598 C580 0.928 . S
H599 C582 0.932 . S
C600 C601 1.264 . S
C600 C605 1.479 . S
C600 C610 1.465 . S
C601 C600 1.264 . S
C601 C603 1.339 . S
C601 H628 0.931 . S
C602 C603 1.395 . S
C602 C604 1.320 . S
C603 C601 1.339 . S
C603 C602 1.395 . S
C603 H629 0.929 . S
C604 C602 1.320 . S
C604 C605 1.405 . S
C604 H630 0.930 . S
C605 C600 1.479 . S
C605 C604 1.405 . S
C605 H631 0.931 . S
U606 O607 2.454 . S
U606 O608 2.458 . S
U606 C609 2.984 . S
U606 C610 2.847 . S
U606 C623 2.882 . S
U606 O624 2.441 . S
U606 O625 2.420 . S
U606 O626 2.455 . S
U606 O627 2.449 . S
O607 U606 2.454 . S
O607 C609 1.353 . S
O608 U606 2.458 . S
O608 C609 1.286 . S
C609 U606 2.984 . S
C609 O607 1.353 . S
C609 O608 1.286 . S
C609 C611 1.363 . S
C610 C600 1.465 . S
C610 U606 2.847 . S
C610 O624 1.249 . S
C610 O625 1.202 . S
C611 C609 1.363 . S
C611 C613 1.408 . S
C611 C616 1.342 . S
C612 C613 1.310 . S
C612 C615 1.461 . S
C612 H632 0.932 . S
C613 C611 1.408 . S
C613 C612 1.310 . S
C613 H633 0.930 . S
C614 C615 1.474 . S
C614 C616 1.285 . S
C614 H634 0.929 . S
C615 C612 1.461 . S
C615 C614 1.474 . S
C616 C611 1.342 . S
C616 C614 1.285 . S
C616 H635 0.930 . S
C617 C620 1.424 . S
C617 C622 1.245 . S
C617 C623 1.428 . S
C618 C621 1.260 . S
C618 C622 1.477 . S
C618 H636 0.932 . S
C619 C620 1.384 . S
C619 C621 1.479 . S
C619 H637 0.929 . S
C620 C617 1.424 . S
C620 C619 1.384 . S
C620 H638 0.928 . S
C621 C618 1.260 . S
C621 C619 1.479 . S
C622 C617 1.245 . S
C622 C618 1.477 . S
C622 H639 0.932 . S
C623 U606 2.882 . S
C623 C617 1.428 . S
C623 O626 1.301 . S
C623 O627 1.282 . S
O624 U606 2.441 . S
O624 C610 1.249 . S
O625 U606 2.420 . S
O625 C610 1.202 . S
O626 U606 2.455 . S
O626 C623 1.301 . S
O627 U606 2.449 . S
O627 C623 1.282 . S
H628 C601 0.931 . S
H629 C603 0.929 . S
H630 C604 0.930 . S
H631 C605 0.931 . S
H632 C612 0.932 . S
H633 C613 0.930 . S
H634 C614 0.929 . S
H635 C616 0.930 . S
H636 C618 0.932 . S
H637 C619 0.929 . S
H638 C620 0.928 . S
H639 C622 0.932 . S
C640 C641 1.264 . S
C640 C645 1.479 . S
C640 C650 1.465 . S
C641 C640 1.264 . S
C641 C643 1.339 . S
C641 H668 0.931 . S
C642 C643 1.395 . S
C642 C644 1.320 . S
C643 C641 1.339 . S
C643 C642 1.395 . S
C643 H669 0.929 . S
C644 C642 1.320 . S
C644 C645 1.405 . S
C644 H670 0.930 . S
C645 C640 1.479 . S
C645 C644 1.405 . S
C645 H671 0.931 . S
U646 O647 2.454 . S
U646 O648 2.458 . S
U646 C649 2.984 . S
U646 C650 2.847 . S
U646 C663 2.882 . S
U646 O664 2.441 . S
U646 O665 2.420 . S
U646 O666 2.455 . S
U646 O667 2.449 . S
O647 U646 2.454 . S
O647 C649 1.353 . S
O648 U646 2.458 . S
O648 C649 1.286 . S
C649 U646 2.984 . S
C649 O647 1.353 . S
C649 O648 1.286 . S
C649 C651 1.363 . S
C650 C640 1.465 . S
C650 U646 2.847 . S
C650 O664 1.249 . S
C650 O665 1.202 . S
C651 C649 1.363 . S
C651 C653 1.408 . S
C651 C656 1.342 . S
C652 C653 1.310 . S
C652 C655 1.461 . S
C652 H672 0.932 . S
C653 C651 1.408 . S
C653 C652 1.310 . S
C653 H673 0.930 . S
C654 C655 1.474 . S
C654 C656 1.285 . S
C654 H674 0.929 . S
C655 C652 1.461 . S
C655 C654 1.474 . S
C656 C651 1.342 . S
C656 C654 1.285 . S
C656 H675 0.930 . S
C657 C660 1.424 . S
C657 C662 1.245 . S
C657 C663 1.428 . S
C658 C661 1.260 . S
C658 C662 1.477 . S
C658 H676 0.932 . S
C659 C660 1.384 . S
C659 C661 1.479 . S
C659 H677 0.929 . S
C660 C657 1.424 . S
C660 C659 1.384 . S
C660 H678 0.928 . S
C661 C658 1.260 . S
C661 C659 1.479 . S
C662 C657 1.245 . S
C662 C658 1.477 . S
C662 H679 0.932 . S
C663 U646 2.882 . S
C663 C657 1.428 . S
C663 O666 1.301 . S
C663 O667 1.282 . S
O664 U646 2.441 . S
O664 C650 1.249 . S
O665 U646 2.420 . S
O665 C650 1.202 . S
O666 U646 2.455 . S
O666 C663 1.301 . S
O667 U646 2.449 . S
O667 C663 1.282 . S
H668 C641 0.931 . S
H669 C643 0.929 . S
H670 C644 0.930 . S
H671 C645 0.931 . S
H672 C652 0.932 . S
H673 C653 0.930 . S
H674 C654 0.929 . S
H675 C656 0.930 . S
H676 C658 0.932 . S
H677 C659 0.929 . S
H678 C660 0.928 . S
H679 C662 0.932 . S
C680 C681 1.264 . S
C680 C685 1.479 . S
C680 C690 1.465 . S
C681 C680 1.264 . S
C681 C683 1.339 1_556 S
C681 H708 0.931 . S
C682 C683 1.407 . S
C682 C684 1.271 1_554 S
C683 C681 1.339 1_554 S
C683 C682 1.407 . S
C683 H709 0.929 . S
C684 C682 1.271 1_556 S
C684 C685 1.405 . S
C684 H710 0.930 . S
C685 C680 1.479 . S
C685 C684 1.405 . S
C685 H711 0.931 . S
U686 O687 2.454 . S
U686 O688 2.458 . S
U686 C689 2.984 . S
U686 C690 2.847 . S
U686 C703 2.882 . S
U686 O704 2.441 . S
U686 O705 2.420 . S
U686 O706 2.455 . S
U686 O707 2.449 . S
O687 U686 2.454 . S
O687 C689 1.353 . S
O688 U686 2.458 . S
O688 C689 1.286 . S
C689 U686 2.984 . S
C689 O687 1.353 . S
C689 O688 1.286 . S
C689 C691 1.363 . S
C690 C680 1.465 . S
C690 U686 2.847 . S
C690 O704 1.249 . S
C690 O705 1.202 . S
C691 C689 1.363 . S
C691 C693 1.408 . S
C691 C696 1.342 . S
C692 C693 1.310 . S
C692 C695 1.461 . S
C692 H712 0.932 . S
C693 C691 1.408 . S
C693 C692 1.310 . S
C693 H713 0.930 . S
C694 C695 1.474 . S
C694 C696 1.285 . S
C694 H714 0.929 . S
C695 C692 1.461 . S
C695 C694 1.474 . S
C696 C691 1.342 . S
C696 C694 1.285 . S
C696 H715 0.930 . S
C697 C700 1.424 . S
C697 C702 1.245 . S
C697 C703 1.428 . S
C698 C701 1.260 . S
C698 C702 1.477 . S
C698 H716 0.932 . S
C699 C700 1.376 1_554 S
C699 C701 1.473 1_554 S
C699 H717 0.943 . S
C700 C697 1.424 . S
C700 C699 1.376 1_556 S
C700 H718 0.928 . S
C701 C698 1.260 . S
C701 C699 1.473 1_556 S
C702 C697 1.245 . S
C702 C698 1.477 . S
C702 H719 0.932 . S
C703 U686 2.882 . S
C703 C697 1.428 . S
C703 O706 1.301 . S
C703 O707 1.282 . S
O704 U686 2.441 . S
O704 C690 1.249 . S
O705 U686 2.420 . S
O705 C690 1.202 . S
O706 U686 2.455 . S
O706 C703 1.301 . S
O707 U686 2.449 . S
O707 C703 1.282 . S
H708 C681 0.931 . S
H709 C683 0.929 . S
H710 C684 0.930 . S
H711 C685 0.931 . S
H712 C692 0.932 . S
H713 C693 0.930 . S
H714 C694 0.929 . S
H715 C696 0.930 . S
H716 C698 0.932 . S
H717 C699 0.943 . S
H718 C700 0.928 . S
H719 C702 0.932 . S
C720 C721 1.264 . S
C720 C725 1.479 . S
C720 C730 1.465 . S
C721 C720 1.264 . S
C721 C723 1.339 . S
C721 H748 0.931 . S
C722 C723 1.395 . S
C722 C724 1.320 . S
C723 C721 1.339 . S
C723 C722 1.395 . S
C723 H749 0.929 . S
C724 C722 1.320 . S
C724 C725 1.405 . S
C724 H750 0.930 . S
C725 C720 1.479 . S
C725 C724 1.405 . S
C725 H751 0.931 . S
U726 O727 2.454 . S
U726 O728 2.458 . S
U726 C729 2.984 . S
U726 C730 2.847 . S
U726 C743 2.882 . S
U726 O744 2.441 . S
U726 O745 2.420 . S
U726 O746 2.455 . S
U726 O747 2.449 . S
O727 U726 2.454 . S
O727 C729 1.353 . S
O728 U726 2.458 . S
O728 C729 1.286 . S
C729 U726 2.984 . S
C729 O727 1.353 . S
C729 O728 1.286 . S
C729 C731 1.363 . S
C730 C720 1.465 . S
C730 U726 2.847 . S
C730 O744 1.249 . S
C730 O745 1.202 . S
C731 C729 1.363 . S
C731 C733 1.408 . S
C731 C736 1.342 . S
C732 C733 1.310 . S
C732 C735 1.461 . S
C732 H752 0.932 . S
C733 C731 1.408 . S
C733 C732 1.310 . S
C733 H753 0.930 . S
C734 C735 1.474 . S
C734 C736 1.285 . S
C734 H754 0.929 . S
C735 C732 1.461 . S
C735 C734 1.474 . S
C736 C731 1.342 . S
C736 C734 1.285 . S
C736 H755 0.930 . S
C737 C740 1.424 . S
C737 C742 1.245 . S
C737 C743 1.428 . S
C738 C741 1.260 . S
C738 C742 1.477 . S
C738 H756 0.932 . S
C739 C740 1.384 . S
C739 C741 1.479 . S
C739 H757 0.929 . S
C740 C737 1.424 . S
C740 C739 1.384 . S
C740 H758 0.928 . S
C741 C738 1.260 . S
C741 C739 1.479 . S
C742 C737 1.245 . S
C742 C738 1.477 . S
C742 H759 0.932 . S
C743 U726 2.882 . S
C743 C737 1.428 . S
C743 O746 1.301 . S
C743 O747 1.282 . S
O744 U726 2.441 . S
O744 C730 1.249 . S
O745 U726 2.420 . S
O745 C730 1.202 . S
O746 U726 2.455 . S
O746 C743 1.301 . S
O747 U726 2.449 . S
O747 C743 1.282 . S
H748 C721 0.931 . S
H749 C723 0.929 . S
H750 C724 0.930 . S
H751 C725 0.931 . S
H752 C732 0.932 . S
H753 C733 0.930 . S
H754 C734 0.929 . S
H755 C736 0.930 . S
H756 C738 0.932 . S
H757 C739 0.929 . S
H758 C740 0.928 . S
H759 C742 0.932 . S
C760 C761 1.264 . S
C760 C765 1.479 . S
C760 C770 1.465 . S
C761 C760 1.264 . S
C761 C763 1.339 . S
C761 H788 0.931 . S
C762 C763 1.395 . S
C762 C764 1.320 . S
C763 C761 1.339 . S
C763 C762 1.395 . S
C763 H789 0.929 . S
C764 C762 1.320 . S
C764 C765 1.405 . S
C764 H790 0.930 . S
C765 C760 1.479 . S
C765 C764 1.405 . S
C765 H791 0.931 . S
U766 O767 2.454 . S
U766 O768 2.458 . S
U766 C769 2.984 . S
U766 C770 2.847 . S
U766 C783 2.882 . S
U766 O784 2.441 . S
U766 O785 2.420 . S
U766 O786 2.455 . S
U766 O787 2.449 . S
O767 U766 2.454 . S
O767 C769 1.353 . S
O768 U766 2.458 . S
O768 C769 1.286 . S
C769 U766 2.984 . S
C769 O767 1.353 . S
C769 O768 1.286 . S
C769 C771 1.363 . S
C770 C760 1.465 . S
C770 U766 2.847 . S
C770 O784 1.249 . S
C770 O785 1.202 . S
C771 C769 1.363 . S
C771 C773 1.408 . S
C771 C776 1.342 . S
C772 C773 1.310 . S
C772 C775 1.461 . S
C772 H792 0.932 . S
C773 C771 1.408 . S
C773 C772 1.310 . S
C773 H793 0.930 . S
C774 C775 1.474 . S
C774 C776 1.285 . S
C774 H794 0.929 . S
C775 C772 1.461 . S
C775 C774 1.474 . S
C776 C771 1.342 . S
C776 C774 1.285 . S
C776 H795 0.930 . S
C777 C780 1.424 . S
C777 C782 1.245 . S
C777 C783 1.428 . S
C778 C781 1.260 . S
C778 C782 1.477 . S
C778 H796 0.932 . S
C779 C780 1.384 . S
C779 C781 1.479 . S
C779 H797 0.929 . S
C780 C777 1.424 . S
C780 C779 1.384 . S
C780 H798 0.928 . S
C781 C778 1.260 . S
C781 C779 1.479 . S
C782 C777 1.245 . S
C782 C778 1.477 . S
C782 H799 0.932 . S
C783 U766 2.882 . S
C783 C777 1.428 . S
C783 O786 1.301 . S
C783 O787 1.282 . S
O784 U766 2.441 . S
O784 C770 1.249 . S
O785 U766 2.420 . S
O785 C770 1.202 . S
O786 U766 2.455 . S
O786 C783 1.301 . S
O787 U766 2.449 . S
O787 C783 1.282 . S
H788 C761 0.931 . S
H789 C763 0.929 . S
H790 C764 0.930 . S
H791 C765 0.931 . S
H792 C772 0.932 . S
H793 C773 0.930 . S
H794 C774 0.929 . S
H795 C776 0.930 . S
H796 C778 0.932 . S
H797 C779 0.929 . S
H798 C780 0.928 . S
H799 C782 0.932 . S
C800 C801 1.264 . S
C800 C805 1.479 . S
C800 C810 1.465 . S
C801 C800 1.264 . S
C801 C803 1.339 . S
C801 H828 0.931 . S
C802 C803 1.395 . S
C802 C804 1.320 . S
C803 C801 1.339 . S
C803 C802 1.395 . S
C803 H829 0.929 . S
C804 C802 1.320 . S
C804 C805 1.405 . S
C804 H830 0.930 . S
C805 C800 1.479 . S
C805 C804 1.405 . S
C805 H831 0.931 . S
U806 O807 2.454 . S
U806 O808 2.458 . S
U806 C809 2.984 . S
U806 C810 2.847 . S
U806 C823 2.882 . S
U806 O824 2.441 . S
U806 O825 2.420 . S
U806 O826 2.455 . S
U806 O827 2.449 . S
O807 U806 2.454 . S
O807 C809 1.353 . S
O808 U806 2.458 . S
O808 C809 1.286 . S
C809 U806 2.984 . S
C809 O807 1.353 . S
C809 O808 1.286 . S
C809 C811 1.363 . S
C810 C800 1.465 . S
C810 U806 2.847 . S
C810 O824 1.249 . S
C810 O825 1.202 . S
C811 C809 1.363 . S
C811 C813 1.408 . S
C811 C816 1.342 . S
C812 C813 1.310 . S
C812 C815 1.461 . S
C812 H832 0.932 . S
C813 C811 1.408 . S
C813 C812 1.310 . S
C813 H833 0.930 . S
C814 C815 1.474 . S
C814 C816 1.285 . S
C814 H834 0.929 . S
C815 C812 1.461 . S
C815 C814 1.474 . S
C816 C811 1.342 . S
C816 C814 1.285 . S
C816 H835 0.930 . S
C817 C820 1.424 . S
C817 C822 1.245 . S
C817 C823 1.428 . S
C818 C821 1.260 . S
C818 C822 1.477 . S
C818 H836 0.932 . S
C819 C820 1.384 . S
C819 C821 1.479 . S
C819 H837 0.929 . S
C820 C817 1.424 . S
C820 C819 1.384 . S
C820 H838 0.928 . S
C821 C818 1.260 . S
C821 C819 1.479 . S
C822 C817 1.245 . S
C822 C818 1.477 . S
C822 H839 0.932 . S
C823 U806 2.882 . S
C823 C817 1.428 . S
C823 O826 1.301 . S
C823 O827 1.282 . S
O824 U806 2.441 . S
O824 C810 1.249 . S
O825 U806 2.420 . S
O825 C810 1.202 . S
O826 U806 2.455 . S
O826 C823 1.301 . S
O827 U806 2.449 . S
O827 C823 1.282 . S
H828 C801 0.931 . S
H829 C803 0.929 . S
H830 C804 0.930 . S
H831 C805 0.931 . S
H832 C812 0.932 . S
H833 C813 0.930 . S
H834 C814 0.929 . S
H835 C816 0.930 . S
H836 C818 0.932 . S
H837 C819 0.929 . S
H838 C820 0.928 . S
H839 C822 0.932 . S
C840 C841 1.264 . S
C840 C845 1.479 . S
C840 C850 1.465 . S
C841 C840 1.264 . S
C841 C843 1.339 . S
C841 H868 0.931 . S
C842 C843 1.395 . S
C842 C844 1.320 . S
C843 C841 1.339 . S
C843 C842 1.395 . S
C843 H869 0.929 . S
C844 C842 1.320 . S
C844 C845 1.405 . S
C844 H870 0.930 . S
C845 C840 1.479 . S
C845 C844 1.405 . S
C845 H871 0.931 . S
U846 O847 2.454 . S
U846 O848 2.458 . S
U846 C849 2.984 . S
U846 C850 2.847 . S
U846 C863 2.882 . S
U846 O864 2.441 . S
U846 O865 2.420 . S
U846 O866 2.455 . S
U846 O867 2.449 . S
O847 U846 2.454 . S
O847 C849 1.353 . S
O848 U846 2.458 . S
O848 C849 1.286 . S
C849 U846 2.984 . S
C849 O847 1.353 . S
C849 O848 1.286 . S
C849 C851 1.363 . S
C850 C840 1.465 . S
C850 U846 2.847 . S
C850 O864 1.249 . S
C850 O865 1.202 . S
C851 C849 1.363 . S
C851 C853 1.408 . S
C851 C856 1.342 . S
C852 C853 1.310 . S
C852 C855 1.461 . S
C852 H872 0.932 . S
C853 C851 1.408 . S
C853 C852 1.310 . S
C853 H873 0.930 . S
C854 C855 1.474 . S
C854 C856 1.285 . S
C854 H874 0.929 . S
C855 C852 1.461 . S
C855 C854 1.474 . S
C856 C851 1.342 . S
C856 C854 1.285 . S
C856 H875 0.930 . S
C857 C860 1.424 . S
C857 C862 1.245 . S
C857 C863 1.428 . S
C858 C861 1.260 . S
C858 C862 1.477 . S
C858 H876 0.932 . S
C859 C860 1.384 . S
C859 C861 1.479 . S
C859 H877 0.929 . S
C860 C857 1.424 . S
C860 C859 1.384 . S
C860 H878 0.928 . S
C861 C858 1.260 . S
C861 C859 1.479 . S
C862 C857 1.245 . S
C862 C858 1.477 . S
C862 H879 0.932 . S
C863 U846 2.882 . S
C863 C857 1.428 . S
C863 O866 1.301 . S
C863 O867 1.282 . S
O864 U846 2.441 . S
O864 C850 1.249 . S
O865 U846 2.420 . S
O865 C850 1.202 . S
O866 U846 2.455 . S
O866 C863 1.301 . S
O867 U846 2.449 . S
O867 C863 1.282 . S
H868 C841 0.931 . S
H869 C843 0.929 . S
H870 C844 0.930 . S
H871 C845 0.931 . S
H872 C852 0.932 . S
H873 C853 0.930 . S
H874 C854 0.929 . S
H875 C856 0.930 . S
H876 C858 0.932 . S
H877 C859 0.929 . S
H878 C860 0.928 . S
H879 C862 0.932 . S
C880 C881 1.264 . S
C880 C885 1.479 . S
C880 C890 1.465 . S
C881 C880 1.264 . S
C881 C883 1.339 . S
C881 H908 0.931 . S
C882 C883 1.395 . S
C882 C884 1.320 . S
C883 C881 1.339 . S
C883 C882 1.395 . S
C883 H909 0.929 . S
C884 C882 1.320 . S
C884 C885 1.405 . S
C884 H910 0.930 . S
C885 C880 1.479 . S
C885 C884 1.405 . S
C885 H911 0.931 . S
U886 O887 2.454 . S
U886 O888 2.458 . S
U886 C889 2.984 . S
U886 C890 2.847 . S
U886 C903 2.882 . S
U886 O904 2.441 . S
U886 O905 2.420 . S
U886 O906 2.455 . S
U886 O907 2.449 . S
O887 U886 2.454 . S
O887 C889 1.353 . S
O888 U886 2.458 . S
O888 C889 1.286 . S
C889 U886 2.984 . S
C889 O887 1.353 . S
C889 O888 1.286 . S
C889 C891 1.363 . S
C890 C880 1.465 . S
C890 U886 2.847 . S
C890 O904 1.249 . S
C890 O905 1.202 . S
C891 C889 1.363 . S
C891 C893 1.408 . S
C891 C896 1.342 . S
C892 C893 1.310 . S
C892 C895 1.461 . S
C892 H912 0.932 . S
C893 C891 1.408 . S
C893 C892 1.310 . S
C893 H913 0.930 . S
C894 C895 1.474 . S
C894 C896 1.285 . S
C894 H914 0.929 . S
C895 C892 1.461 . S
C895 C894 1.474 . S
C896 C891 1.342 . S
C896 C894 1.285 . S
C896 H915 0.930 . S
C897 C900 1.424 . S
C897 C902 1.245 . S
C897 C903 1.428 . S
C898 C901 1.260 . S
C898 C902 1.477 . S
C898 H916 0.932 . S
C899 C900 1.384 . S
C899 C901 1.479 . S
C899 H917 0.929 . S
C900 C897 1.424 . S
C900 C899 1.384 . S
C900 H918 0.928 . S
C901 C898 1.260 . S
C901 C899 1.479 . S
C902 C897 1.245 . S
C902 C898 1.477 . S
C902 H919 0.932 . S
C903 U886 2.882 . S
C903 C897 1.428 . S
C903 O906 1.301 . S
C903 O907 1.282 . S
O904 U886 2.441 . S
O904 C890 1.249 . S
O905 U886 2.420 . S
O905 C890 1.202 . S
O906 U886 2.455 . S
O906 C903 1.301 . S
O907 U886 2.449 . S
O907 C903 1.282 . S
H908 C881 0.931 . S
H909 C883 0.929 . S
H910 C884 0.930 . S
H911 C885 0.931 . S
H912 C892 0.932 . S
H913 C893 0.930 . S
H914 C894 0.929 . S
H915 C896 0.930 . S
H916 C898 0.932 . S
H917 C899 0.929 . S
H918 C900 0.928 . S
H919 C902 0.932 . S
C920 C921 1.264 . S
C920 C925 1.479 . S
C920 C930 1.465 . S
C921 C920 1.264 . S
C921 C923 1.339 . S
C921 H948 0.931 . S
C922 C923 1.395 . S
C922 C924 1.320 . S
C923 C921 1.339 . S
C923 C922 1.395 . S
C923 H949 0.929 . S
C924 C922 1.320 . S
C924 C925 1.405 . S
C924 H950 0.930 . S
C925 C920 1.479 . S
C925 C924 1.405 . S
C925 H951 0.931 . S
U926 O927 2.454 . S
U926 O928 2.458 . S
U926 C929 2.984 . S
U926 C930 2.847 . S
U926 C943 2.882 . S
U926 O944 2.441 . S
U926 O945 2.420 . S
U926 O946 2.455 . S
U926 O947 2.449 . S
O927 U926 2.454 . S
O927 C929 1.353 . S
O928 U926 2.458 . S
O928 C929 1.286 . S
C929 U926 2.984 . S
C929 O927 1.353 . S
C929 O928 1.286 . S
C929 C931 1.363 . S
C930 C920 1.465 . S
C930 U926 2.847 . S
C930 O944 1.249 . S
C930 O945 1.202 . S
C931 C929 1.363 . S
C931 C933 1.408 . S
C931 C936 1.342 . S
C932 C933 1.310 . S
C932 C935 1.461 . S
C932 H952 0.932 . S
C933 C931 1.408 . S
C933 C932 1.310 . S
C933 H953 0.930 . S
C934 C935 1.474 . S
C934 C936 1.285 . S
C934 H954 0.929 . S
C935 C932 1.461 . S
C935 C934 1.474 . S
C936 C931 1.342 . S
C936 C934 1.285 . S
C936 H955 0.930 . S
C937 C940 1.424 . S
C937 C942 1.245 . S
C937 C943 1.428 . S
C938 C941 1.260 . S
C938 C942 1.477 . S
C938 H956 0.932 . S
C939 C940 1.384 . S
C939 C941 1.479 . S
C939 H957 0.929 . S
C940 C937 1.424 . S
C940 C939 1.384 . S
C940 H958 0.928 . S
C941 C938 1.260 . S
C941 C939 1.479 . S
C942 C937 1.245 . S
C942 C938 1.477 . S
C942 H959 0.932 . S
C943 U926 2.882 . S
C943 C937 1.428 . S
C943 O946 1.301 . S
C943 O947 1.282 . S
O944 U926 2.441 . S
O944 C930 1.249 . S
O945 U926 2.420 . S
O945 C930 1.202 . S
O946 U926 2.455 . S
O946 C943 1.301 . S
O947 U926 2.449 . S
O947 C943 1.282 . S
H948 C921 0.931 . S
H949 C923 0.929 . S
H950 C924 0.930 . S
H951 C925 0.931 . S
H952 C932 0.932 . S
H953 C933 0.930 . S
H954 C934 0.929 . S
H955 C936 0.930 . S
H956 C938 0.932 . S
H957 C939 0.929 . S
H958 C940 0.928 . S
H959 C942 0.932 . S
C960 C961 1.264 . S
C960 C965 1.479 . S
C960 C970 1.465 . S
C961 C960 1.264 . S
C961 C963 1.339 . S
C961 H988 0.931 . S
C962 C963 1.395 . S
C962 C964 1.320 . S
C963 C961 1.339 . S
C963 C962 1.395 . S
C963 H989 0.929 . S
C964 C962 1.320 . S
C964 C965 1.405 . S
C964 H990 0.930 . S
C965 C960 1.479 . S
C965 C964 1.405 . S
C965 H991 0.931 . S
U966 O967 2.454 . S
U966 O968 2.458 . S
U966 C969 2.984 . S
U966 C970 2.847 . S
U966 C983 2.882 . S
U966 O984 2.441 . S
U966 O985 2.420 . S
U966 O986 2.455 . S
U966 O987 2.449 . S
O967 U966 2.454 . S
O967 C969 1.353 . S
O968 U966 2.458 . S
O968 C969 1.286 . S
C969 U966 2.984 . S
C969 O967 1.353 . S
C969 O968 1.286 . S
C969 C971 1.363 . S
C970 C960 1.465 . S
C970 U966 2.847 . S
C970 O984 1.249 . S
C970 O985 1.202 . S
C971 C969 1.363 . S
C971 C973 1.408 . S
C971 C976 1.342 . S
C972 C973 1.310 . S
C972 C975 1.461 . S
C972 H992 0.932 . S
C973 C971 1.408 . S
C973 C972 1.310 . S
C973 H993 0.930 . S
C974 C975 1.474 . S
C974 C976 1.285 . S
C974 H994 0.929 . S
C975 C972 1.461 . S
C975 C974 1.474 . S
C976 C971 1.342 . S
C976 C974 1.285 . S
C976 H995 0.930 . S
C977 C980 1.424 . S
C977 C982 1.245 . S
C977 C983 1.428 . S
C978 C981 1.260 . S
C978 C982 1.477 . S
C978 H996 0.932 . S
C979 C980 1.384 . S
C979 C981 1.479 . S
C979 H997 0.929 . S
C980 C977 1.424 . S
C980 C979 1.384 . S
C980 H998 0.928 . S
C981 C978 1.260 . S
C981 C979 1.479 . S
C982 C977 1.245 . S
C982 C978 1.477 . S
C982 H999 0.932 . S
C983 U966 2.882 . S
C983 C977 1.428 . S
C983 O986 1.301 . S
C983 O987 1.282 . S
O984 U966 2.441 . S
O984 C970 1.249 . S
O985 U966 2.420 . S
O985 C970 1.202 . S
O986 U966 2.455 . S
O986 C983 1.301 . S
O987 U966 2.449 . S
O987 C983 1.282 . S
H988 C961 0.931 . S
H989 C963 0.929 . S
H990 C964 0.930 . S
H991 C965 0.931 . S
H992 C972 0.932 . S
H993 C973 0.930 . S
H994 C974 0.929 . S
H995 C976 0.930 . S
H996 C978 0.932 . S
H997 C979 0.929 . S
H998 C980 0.928 . S
H999 C982 0.932 . S
C1000 C1001 1.264 . S
C1000 C1005 1.479 . S
C1000 C1010 1.465 . S
C1001 C1000 1.264 . S
C1001 C1003 1.339 . S
C1001 H1028 0.931 . S
C1002 C1003 1.395 . S
C1002 C1004 1.320 . S
C1003 C1001 1.339 . S
C1003 C1002 1.395 . S
C1003 H1029 0.929 . S
C1004 C1002 1.320 . S
C1004 C1005 1.405 . S
C1004 H1030 0.930 . S
C1005 C1000 1.479 . S
C1005 C1004 1.405 . S
C1005 H1031 0.931 . S
U1006 O1007 2.454 . S
U1006 O1008 2.458 . S
U1006 C1009 2.984 . S
U1006 C1010 2.847 . S
U1006 C1023 2.882 . S
U1006 O1024 2.441 . S
U1006 O1025 2.420 . S
U1006 O1026 2.455 . S
U1006 O1027 2.449 . S
O1007 U1006 2.454 . S
O1007 C1009 1.353 . S
O1008 U1006 2.458 . S
O1008 C1009 1.286 . S
C1009 U1006 2.984 . S
C1009 O1007 1.353 . S
C1009 O1008 1.286 . S
C1009 C1011 1.363 . S
C1010 C1000 1.465 . S
C1010 U1006 2.847 . S
C1010 O1024 1.249 . S
C1010 O1025 1.202 . S
C1011 C1009 1.363 . S
C1011 C1013 1.408 . S
C1011 C1016 1.342 . S
C1012 C1013 1.310 . S
C1012 C1015 1.461 . S
C1012 H1032 0.932 . S
C1013 C1011 1.408 . S
C1013 C1012 1.310 . S
C1013 H1033 0.930 . S
C1014 C1015 1.474 . S
C1014 C1016 1.285 . S
C1014 H1034 0.929 . S
C1015 C1012 1.461 . S
C1015 C1014 1.474 . S
C1016 C1011 1.342 . S
C1016 C1014 1.285 . S
C1016 H1035 0.930 . S
C1017 C1020 1.424 . S
C1017 C1022 1.245 . S
C1017 C1023 1.428 . S
C1018 C1021 1.260 . S
C1018 C1022 1.477 . S
C1018 H1036 0.932 . S
C1019 C1020 1.384 . S
C1019 C1021 1.479 . S
C1019 H1037 0.929 . S
C1020 C1017 1.424 . S
C1020 C1019 1.384 . S
C1020 H1038 0.928 . S
C1021 C1018 1.260 . S
C1021 C1019 1.479 . S
C1022 C1017 1.245 . S
C1022 C1018 1.477 . S
C1022 H1039 0.932 . S
C1023 U1006 2.882 . S
C1023 C1017 1.428 . S
C1023 O1026 1.301 . S
C1023 O1027 1.282 . S
O1024 U1006 2.441 . S
O1024 C1010 1.249 . S
O1025 U1006 2.420 . S
O1025 C1010 1.202 . S
O1026 U1006 2.455 . S
O1026 C1023 1.301 . S
O1027 U1006 2.449 . S
O1027 C1023 1.282 . S
H1028 C1001 0.931 . S
H1029 C1003 0.929 . S
H1030 C1004 0.930 . S
H1031 C1005 0.931 . S
H1032 C1012 0.932 . S
H1033 C1013 0.930 . S
H1034 C1014 0.929 . S
H1035 C1016 0.930 . S
H1036 C1018 0.932 . S
H1037 C1019 0.929 . S
H1038 C1020 0.928 . S
H1039 C1022 0.932 . S
C1040 C1041 1.264 . S
C1040 C1045 1.479 . S
C1040 C1050 1.465 . S
C1041 C1040 1.264 . S
C1041 C1043 1.339 1_655 S
C1041 H1068 0.886 1_655 S
C1042 C1043 1.395 1_655 S
C1042 C1044 1.320 . S
C1043 C1041 1.339 1_455 S
C1043 C1042 1.395 1_455 S
C1043 H1069 0.929 . S
C1044 C1042 1.320 . S
C1044 C1045 1.405 . S
C1044 H1070 0.930 . S
C1045 C1040 1.479 . S
C1045 C1044 1.405 . S
C1045 H1071 0.931 . S
U1046 O1047 2.454 . S
U1046 O1048 2.458 . S
U1046 C1049 2.984 . S
U1046 C1050 2.847 . S
U1046 C1063 2.882 . S
U1046 O1064 2.441 . S
U1046 O1065 2.420 . S
U1046 O1066 2.455 . S
U1046 O1067 2.449 . S
O1047 U1046 2.454 . S
O1047 C1049 1.353 . S
O1048 U1046 2.458 . S
O1048 C1049 1.286 . S
C1049 U1046 2.984 . S
C1049 O1047 1.353 . S
C1049 O1048 1.286 . S
C1049 C1051 1.363 . S
C1050 C1040 1.465 . S
C1050 U1046 2.847 . S
C1050 O1064 1.249 . S
C1050 O1065 1.202 . S
C1051 C1049 1.363 . S
C1051 C1053 1.408 . S
C1051 C1056 1.342 . S
C1052 C1053 1.310 . S
C1052 C1055 1.461 . S
C1052 H1072 0.932 . S
C1053 C1051 1.408 . S
C1053 C1052 1.310 . S
C1053 H1073 0.930 . S
C1054 C1055 1.474 . S
C1054 C1056 1.285 . S
C1054 H1074 0.929 . S
C1055 C1052 1.461 . S
C1055 C1054 1.474 . S
C1056 C1051 1.342 . S
C1056 C1054 1.285 . S
C1056 H1075 0.930 . S
C1057 C1060 1.424 1_655 S
C1057 C1062 1.245 . S
C1057 C1063 1.428 . S
C1058 C1061 1.260 1_655 S
C1058 C1062 1.477 . S
C1058 H1076 0.932 . S
C1059 C1060 1.384 . S
C1059 C1061 1.479 . S
C1059 H1077 0.929 . S
C1060 C1057 1.424 1_455 S
C1060 C1059 1.384 . S
C1060 H1078 0.928 . S
C1061 C1058 1.260 1_455 S
C1061 C1059 1.479 . S
C1062 C1057 1.245 . S
C1062 C1058 1.477 . S
C1062 H1079 0.932 . S
C1063 U1046 2.882 . S
C1063 C1057 1.428 . S
C1063 O1066 1.301 . S
C1063 O1067 1.282 . S
O1064 U1046 2.441 . S
O1064 C1050 1.249 . S
O1065 U1046 2.420 . S
O1065 C1050 1.202 . S
O1066 U1046 2.455 . S
O1066 C1063 1.301 . S
O1067 U1046 2.449 . S
O1067 C1063 1.282 . S
H1068 C1041 0.886 1_455 S
H1069 C1043 0.929 . S
H1070 C1044 0.930 . S
H1071 C1045 0.931 . S
H1072 C1052 0.932 . S
H1073 C1053 0.930 . S
H1074 C1054 0.929 . S
H1075 C1056 0.930 . S
H1076 C1058 0.932 . S
H1077 C1059 0.929 . S
H1078 C1060 0.928 . S
H1079 C1062 0.932 . S
C1080 C1081 1.264 . S
C1080 C1085 1.479 . S
C1080 C1090 1.465 . S
C1081 C1080 1.264 . S
C1081 C1083 1.339 . S
C1081 H1108 0.931 . S
C1082 C1083 1.395 . S
C1082 C1084 1.320 . S
C1083 C1081 1.339 . S
C1083 C1082 1.395 . S
C1083 H1109 0.929 . S
C1084 C1082 1.320 . S
C1084 C1085 1.405 . S
C1084 H1110 0.930 . S
C1085 C1080 1.479 . S
C1085 C1084 1.405 . S
C1085 H1111 0.931 . S
U1086 O1087 2.454 . S
U1086 O1088 2.458 . S
U1086 C1089 2.984 . S
U1086 C1090 2.847 . S
U1086 C1103 2.882 . S
U1086 O1104 2.441 . S
U1086 O1105 2.420 . S
U1086 O1106 2.455 . S
U1086 O1107 2.449 . S
O1087 U1086 2.454 . S
O1087 C1089 1.353 . S
O1088 U1086 2.458 . S
O1088 C1089 1.286 . S
C1089 U1086 2.984 . S
C1089 O1087 1.353 . S
C1089 O1088 1.286 . S
C1089 C1091 1.363 . S
C1090 C1080 1.465 . S
C1090 U1086 2.847 . S
C1090 O1104 1.249 . S
C1090 O1105 1.202 . S
C1091 C1089 1.363 . S
C1091 C1093 1.408 . S
C1091 C1096 1.342 . S
C1092 C1093 1.310 . S
C1092 C1095 1.461 . S
C1092 H1112 0.932 . S
C1093 C1091 1.408 . S
C1093 C1092 1.310 . S
C1093 H1113 0.930 . S
C1094 C1095 1.474 . S
C1094 C1096 1.285 . S
C1094 H1114 0.929 . S
C1095 C1092 1.461 . S
C1095 C1094 1.474 . S
C1096 C1091 1.342 . S
C1096 C1094 1.285 . S
C1096 H1115 0.930 . S
C1097 C1100 1.424 . S
C1097 C1102 1.245 . S
C1097 C1103 1.428 . S
C1098 C1101 1.260 . S
C1098 C1102 1.477 . S
C1098 H1116 0.932 . S
C1099 C1100 1.384 . S
C1099 C1101 1.479 . S
C1099 H1117 0.929 . S
C1100 C1097 1.424 . S
C1100 C1099 1.384 . S
C1100 H1118 0.928 . S
C1101 C1098 1.260 . S
C1101 C1099 1.479 . S
C1102 C1097 1.245 . S
C1102 C1098 1.477 . S
C1102 H1119 0.932 . S
C1103 U1086 2.882 . S
C1103 C1097 1.428 . S
C1103 O1106 1.301 . S
C1103 O1107 1.282 . S
O1104 U1086 2.441 . S
O1104 C1090 1.249 . S
O1105 U1086 2.420 . S
O1105 C1090 1.202 . S
O1106 U1086 2.455 . S
O1106 C1103 1.301 . S
O1107 U1086 2.449 . S
O1107 C1103 1.282 . S
H1108 C1081 0.931 . S
H1109 C1083 0.929 . S
H1110 C1084 0.930 . S
H1111 C1085 0.931 . S
H1112 C1092 0.932 . S
H1113 C1093 0.930 . S
H1114 C1094 0.929 . S
H1115 C1096 0.930 . S
H1116 C1098 0.932 . S
H1117 C1099 0.929 . S
H1118 C1100 0.928 . S
H1119 C1102 0.932 . S
C1120 C1121 1.264 . S
C1120 C1125 1.479 . S
C1120 C1130 1.465 . S
C1121 C1120 1.264 . S
C1121 C1123 1.339 . S
C1121 H1148 0.931 . S
C1122 C1123 1.395 . S
C1122 C1124 1.320 . S
C1123 C1121 1.339 . S
C1123 C1122 1.395 . S
C1123 H1149 0.929 . S
C1124 C1122 1.320 . S
C1124 C1125 1.405 . S
C1124 H1150 0.930 . S
C1125 C1120 1.479 . S
C1125 C1124 1.405 . S
C1125 H1151 0.931 . S
U1126 O1127 2.454 . S
U1126 O1128 2.458 . S
U1126 C1129 2.984 . S
U1126 C1130 2.847 . S
U1126 C1143 2.882 . S
U1126 O1144 2.441 . S
U1126 O1145 2.420 . S
U1126 O1146 2.455 . S
U1126 O1147 2.449 . S
O1127 U1126 2.454 . S
O1127 C1129 1.353 . S
O1128 U1126 2.458 . S
O1128 C1129 1.286 . S
C1129 U1126 2.984 . S
C1129 O1127 1.353 . S
C1129 O1128 1.286 . S
C1129 C1131 1.363 . S
C1130 C1120 1.465 . S
C1130 U1126 2.847 . S
C1130 O1144 1.249 . S
C1130 O1145 1.202 . S
C1131 C1129 1.363 . S
C1131 C1133 1.408 . S
C1131 C1136 1.342 . S
C1132 C1133 1.310 . S
C1132 C1135 1.461 . S
C1132 H1152 0.932 . S
C1133 C1131 1.408 . S
C1133 C1132 1.310 . S
C1133 H1153 0.930 . S
C1134 C1135 1.474 . S
C1134 C1136 1.285 . S
C1134 H1154 0.929 . S
C1135 C1132 1.461 . S
C1135 C1134 1.474 . S
C1136 C1131 1.342 . S
C1136 C1134 1.285 . S
C1136 H1155 0.930 . S
C1137 C1140 1.424 . S
C1137 C1142 1.245 . S
C1137 C1143 1.428 . S
C1138 C1141 1.260 . S
C1138 C1142 1.477 . S
C1138 H1156 0.932 . S
C1139 C1140 1.384 . S
C1139 C1141 1.479 . S
C1139 H1157 0.929 . S
C1140 C1137 1.424 . S
C1140 C1139 1.384 . S
C1140 H1158 0.928 . S
C1141 C1138 1.260 . S
C1141 C1139 1.479 . S
C1142 C1137 1.245 . S
C1142 C1138 1.477 . S
C1142 H1159 0.932 . S
C1143 U1126 2.882 . S
C1143 C1137 1.428 . S
C1143 O1146 1.301 . S
C1143 O1147 1.282 . S
O1144 U1126 2.441 . S
O1144 C1130 1.249 . S
O1145 U1126 2.420 . S
O1145 C1130 1.202 . S
O1146 U1126 2.455 . S
O1146 C1143 1.301 . S
O1147 U1126 2.449 . S
O1147 C1143 1.282 . S
H1148 C1121 0.931 . S
H1149 C1123 0.929 . S
H1150 C1124 0.930 . S
H1151 C1125 0.931 . S
H1152 C1132 0.932 . S
H1153 C1133 0.930 . S
H1154 C1134 0.929 . S
H1155 C1136 0.930 . S
H1156 C1138 0.932 . S
H1157 C1139 0.929 . S
H1158 C1140 0.928 . S
H1159 C1142 0.932 . S
C1160 C1161 1.264 . S
C1160 C1165 1.479 . S
C1160 C1170 1.465 . S
C1161 C1160 1.264 . S
C1161 C1163 1.339 . S
C1161 H1188 0.931 . S
C1162 C1163 1.395 . S
C1162 C1164 1.320 . S
C1163 C1161 1.339 . S
C1163 C1162 1.395 . S
C1163 H1189 0.929 . S
C1164 C1162 1.320 . S
C1164 C1165 1.405 . S
C1164 H1190 0.930 . S
C1165 C1160 1.479 . S
C1165 C1164 1.405 . S
C1165 H1191 0.931 . S
U1166 O1167 2.454 . S
U1166 O1168 2.458 . S
U1166 C1169 2.984 . S
U1166 C1170 2.847 . S
U1166 C1183 2.882 . S
U1166 O1184 2.441 . S
U1166 O1185 2.420 . S
U1166 O1186 2.455 . S
U1166 O1187 2.449 . S
O1167 U1166 2.454 . S
O1167 C1169 1.353 . S
O1168 U1166 2.458 . S
O1168 C1169 1.286 . S
C1169 U1166 2.984 . S
C1169 O1167 1.353 . S
C1169 O1168 1.286 . S
C1169 C1171 1.363 . S
C1170 C1160 1.465 . S
C1170 U1166 2.847 . S
C1170 O1184 1.249 . S
C1170 O1185 1.202 . S
C1171 C1169 1.363 . S
C1171 C1173 1.408 . S
C1171 C1176 1.342 . S
C1172 C1173 1.310 . S
C1172 C1175 1.461 . S
C1172 H1192 0.932 . S
C1173 C1171 1.408 . S
C1173 C1172 1.310 . S
C1173 H1193 0.930 . S
C1174 C1175 1.474 . S
C1174 C1176 1.285 . S
C1174 H1194 0.929 . S
C1175 C1172 1.461 . S
C1175 C1174 1.474 . S
C1176 C1171 1.342 . S
C1176 C1174 1.285 . S
C1176 H1195 0.930 . S
C1177 C1180 1.411 1_556 S
C1177 C1182 1.234 1_556 S
C1177 C1183 1.469 . S
C1178 C1181 1.260 . S
C1178 C1182 1.514 . S
C1178 H1196 0.932 . S
C1179 C1180 1.384 . S
C1179 C1181 1.479 . S
C1179 H1197 0.929 . S
C1180 C1177 1.411 1_554 S
C1180 C1179 1.384 . S
C1180 H1198 0.928 1_554 S
C1181 C1178 1.260 . S
C1181 C1179 1.479 . S
C1182 C1177 1.234 1_554 S
C1182 C1178 1.514 . S
C1182 H1199 0.910 1_554 S
C1183 U1166 2.882 . S
C1183 C1177 1.469 . S
C1183 O1186 1.301 . S
C1183 O1187 1.282 . S
O1184 U1166 2.441 . S
O1184 C1170 1.249 . S
O1185 U1166 2.420 . S
O1185 C1170 1.202 . S
O1186 U1166 2.455 . S
O1186 C1183 1.301 . S
O1187 U1166 2.449 . S
O1187 C1183 1.282 . S
H1188 C1161 0.931 . S
H1189 C1163 0.929 . S
H1190 C1164 0.930 . S
H1191 C1165 0.931 . S
H1192 C1172 0.932 . S
H1193 C1173 0.930 . S
H1194 C1174 0.929 . S
H1195 C1176 0.930 . S
H1196 C1178 0.932 . S
H1197 C1179 0.929 . S
H1198 C1180 0.928 1_556 S
H1199 C1182 0.910 1_556 S
C1200 C1201 1.264 . S
C1200 C1205 1.479 . S
C1200 C1210 1.465 . S
C1201 C1200 1.264 . S
C1201 C1203 1.339 1_655 S
C1201 H1228 0.931 . S
C1202 C1203 1.407 . S
C1202 C1204 1.271 1_455 S
C1203 C1201 1.339 1_455 S
C1203 C1202 1.407 . S
C1203 H1229 0.929 . S
C1204 C1202 1.271 1_655 S
C1204 C1205 1.405 . S
C1204 H1230 0.930 . S
C1205 C1200 1.479 . S
C1205 C1204 1.405 . S
C1205 H1231 0.931 . S
U1206 O1207 2.454 . S
U1206 O1208 2.458 . S
U1206 C1209 2.984 . S
U1206 C1210 2.847 . S
U1206 C1223 2.882 . S
U1206 O1224 2.441 . S
U1206 O1225 2.420 . S
U1206 O1226 2.455 . S
U1206 O1227 2.449 . S
O1207 U1206 2.454 . S
O1207 C1209 1.353 . S
O1208 U1206 2.458 . S
O1208 C1209 1.286 . S
C1209 U1206 2.984 . S
C1209 O1207 1.353 . S
C1209 O1208 1.286 . S
C1209 C1211 1.363 . S
C1210 C1200 1.465 . S
C1210 U1206 2.847 . S
C1210 O1224 1.249 . S
C1210 O1225 1.202 . S
C1211 C1209 1.363 . S
C1211 C1213 1.408 . S
C1211 C1216 1.342 . S
C1212 C1213 1.310 . S
C1212 C1215 1.461 . S
C1212 H1232 0.932 . S
C1213 C1211 1.408 . S
C1213 C1212 1.310 . S
C1213 H1233 0.930 . S
C1214 C1215 1.474 . S
C1214 C1216 1.285 . S
C1214 H1234 0.929 . S
C1215 C1212 1.461 . S
C1215 C1214 1.474 . S
C1216 C1211 1.342 . S
C1216 C1214 1.285 . S
C1216 H1235 0.930 . S
C1217 C1220 1.424 . S
C1217 C1222 1.245 . S
C1217 C1223 1.428 . S
C1218 C1221 1.260 . S
C1218 C1222 1.477 . S
C1218 H1236 0.932 . S
C1219 C1220 1.376 1_455 S
C1219 C1221 1.473 1_455 S
C1219 H1237 0.943 . S
C1220 C1217 1.424 . S
C1220 C1219 1.376 1_655 S
C1220 H1238 0.928 . S
C1221 C1218 1.260 . S
C1221 C1219 1.473 1_655 S
C1222 C1217 1.245 . S
C1222 C1218 1.477 . S
C1222 H1239 0.932 . S
C1223 U1206 2.882 . S
C1223 C1217 1.428 . S
C1223 O1226 1.301 . S
C1223 O1227 1.282 . S
O1224 U1206 2.441 . S
O1224 C1210 1.249 . S
O1225 U1206 2.420 . S
O1225 C1210 1.202 . S
O1226 U1206 2.455 . S
O1226 C1223 1.301 . S
O1227 U1206 2.449 . S
O1227 C1223 1.282 . S
H1228 C1201 0.931 . S
H1229 C1203 0.929 . S
H1230 C1204 0.930 . S
H1231 C1205 0.931 . S
H1232 C1212 0.932 . S
H1233 C1213 0.930 . S
H1234 C1214 0.929 . S
H1235 C1216 0.930 . S
H1236 C1218 0.932 . S
H1237 C1219 0.943 . S
H1238 C1220 0.928 . S
H1239 C1222 0.932 . S
C1240 C1241 1.264 . S
C1240 C1245 1.479 . S
C1240 C1250 1.465 . S
C1241 C1240 1.264 . S
C1241 C1243 1.339 . S
C1241 H1268 0.931 . S
C1242 C1243 1.395 . S
C1242 C1244 1.320 . S
C1243 C1241 1.339 . S
C1243 C1242 1.395 . S
C1243 H1269 0.929 . S
C1244 C1242 1.320 . S
C1244 C1245 1.405 . S
C1244 H1270 0.930 . S
C1245 C1240 1.479 . S
C1245 C1244 1.405 . S
C1245 H1271 0.931 . S
U1246 O1247 2.454 . S
U1246 O1248 2.458 . S
U1246 C1249 2.984 . S
U1246 C1250 2.847 . S
U1246 C1263 2.882 . S
U1246 O1264 2.441 . S
U1246 O1265 2.420 . S
U1246 O1266 2.455 . S
U1246 O1267 2.449 . S
O1247 U1246 2.454 . S
O1247 C1249 1.353 . S
O1248 U1246 2.458 . S
O1248 C1249 1.286 . S
C1249 U1246 2.984 . S
C1249 O1247 1.353 . S
C1249 O1248 1.286 . S
C1249 C1251 1.363 . S
C1250 C1240 1.465 . S
C1250 U1246 2.847 . S
C1250 O1264 1.249 . S
C1250 O1265 1.202 . S
C1251 C1249 1.363 . S
C1251 C1253 1.408 . S
C1251 C1256 1.342 . S
C1252 C1253 1.310 . S
C1252 C1255 1.461 . S
C1252 H1272 0.932 . S
C1253 C1251 1.408 . S
C1253 C1252 1.310 . S
C1253 H1273 0.930 . S
C1254 C1255 1.474 . S
C1254 C1256 1.285 . S
C1254 H1274 0.929 . S
C1255 C1252 1.461 . S
C1255 C1254 1.474 . S
C1256 C1251 1.342 . S
C1256 C1254 1.285 . S
C1256 H1275 0.930 . S
C1257 C1260 1.424 . S
C1257 C1262 1.245 . S
C1257 C1263 1.428 . S
C1258 C1261 1.260 . S
C1258 C1262 1.477 . S
C1258 H1276 0.932 . S
C1259 C1260 1.384 . S
C1259 C1261 1.479 . S
C1259 H1277 0.929 . S
C1260 C1257 1.424 . S
C1260 C1259 1.384 . S
C1260 H1278 0.928 . S
C1261 C1258 1.260 . S
C1261 C1259 1.479 . S
C1262 C1257 1.245 . S
C1262 C1258 1.477 . S
C1262 H1279 0.932 . S
C1263 U1246 2.882 . S
C1263 C1257 1.428 . S
C1263 O1266 1.301 . S
C1263 O1267 1.282 . S
O1264 U1246 2.441 . S
O1264 C1250 1.249 . S
O1265 U1246 2.420 . S
O1265 C1250 1.202 . S
O1266 U1246 2.455 . S
O1266 C1263 1.301 . S
O1267 U1246 2.449 . S
O1267 C1263 1.282 . S
H1268 C1241 0.931 . S
H1269 C1243 0.929 . S
H1270 C1244 0.930 . S
H1271 C1245 0.931 . S
H1272 C1252 0.932 . S
H1273 C1253 0.930 . S
H1274 C1254 0.929 . S
H1275 C1256 0.930 . S
H1276 C1258 0.932 . S
H1277 C1259 0.929 . S
H1278 C1260 0.928 . S
H1279 C1262 0.932 . S
C1280 C1281 1.264 . S
C1280 C1285 1.479 . S
C1280 C1290 1.465 . S
C1281 C1280 1.264 . S
C1281 C1283 1.339 . S
C1281 H1308 0.931 . S
C1282 C1283 1.395 . S
C1282 C1284 1.320 . S
C1283 C1281 1.339 . S
C1283 C1282 1.395 . S
C1283 H1309 0.929 . S
C1284 C1282 1.320 . S
C1284 C1285 1.405 . S
C1284 H1310 0.930 . S
C1285 C1280 1.479 . S
C1285 C1284 1.405 . S
C1285 H1311 0.931 . S
U1286 O1287 2.454 . S
U1286 O1288 2.458 . S
U1286 C1289 2.984 . S
U1286 C1290 2.847 . S
U1286 C1303 2.882 . S
U1286 O1304 2.441 . S
U1286 O1305 2.420 . S
U1286 O1306 2.455 . S
U1286 O1307 2.449 . S
O1287 U1286 2.454 . S
O1287 C1289 1.353 . S
O1288 U1286 2.458 . S
O1288 C1289 1.286 . S
C1289 U1286 2.984 . S
C1289 O1287 1.353 . S
C1289 O1288 1.286 . S
C1289 C1291 1.363 . S
C1290 C1280 1.465 . S
C1290 U1286 2.847 . S
C1290 O1304 1.249 . S
C1290 O1305 1.202 . S
C1291 C1289 1.363 . S
C1291 C1293 1.408 . S
C1291 C1296 1.342 . S
C1292 C1293 1.310 . S
C1292 C1295 1.461 . S
C1292 H1312 0.932 . S
C1293 C1291 1.408 . S
C1293 C1292 1.310 . S
C1293 H1313 0.930 . S
C1294 C1295 1.474 . S
C1294 C1296 1.285 . S
C1294 H1314 0.929 . S
C1295 C1292 1.461 . S
C1295 C1294 1.474 . S
C1296 C1291 1.342 . S
C1296 C1294 1.285 . S
C1296 H1315 0.930 . S
C1297 C1300 1.424 . S
C1297 C1302 1.245 . S
C1297 C1303 1.428 . S
C1298 C1301 1.260 . S
C1298 C1302 1.477 . S
C1298 H1316 0.932 . S
C1299 C1300 1.384 . S
C1299 C1301 1.479 . S
C1299 H1317 0.929 . S
C1300 C1297 1.424 . S
C1300 C1299 1.384 . S
C1300 H1318 0.928 . S
C1301 C1298 1.260 . S
C1301 C1299 1.479 . S
C1302 C1297 1.245 . S
C1302 C1298 1.477 . S
C1302 H1319 0.932 . S
C1303 U1286 2.882 . S
C1303 C1297 1.428 . S
C1303 O1306 1.301 . S
C1303 O1307 1.282 . S
O1304 U1286 2.441 . S
O1304 C1290 1.249 . S
O1305 U1286 2.420 . S
O1305 C1290 1.202 . S
O1306 U1286 2.455 . S
O1306 C1303 1.301 . S
O1307 U1286 2.449 . S
O1307 C1303 1.282 . S
H1308 C1281 0.931 . S
H1309 C1283 0.929 . S
H1310 C1284 0.930 . S
H1311 C1285 0.931 . S
H1312 C1292 0.932 . S
H1313 C1293 0.930 . S
H1314 C1294 0.929 . S
H1315 C1296 0.930 . S
H1316 C1298 0.932 . S
H1317 C1299 0.929 . S
H1318 C1300 0.928 . S
H1319 C1302 0.932 . S
C1320 C1321 1.264 . S
C1320 C1325 1.479 . S
C1320 C1330 1.465 . S
C1321 C1320 1.264 . S
C1321 C1323 1.339 . S
C1321 H1348 0.931 . S
C1322 C1323 1.395 . S
C1322 C1324 1.320 . S
C1323 C1321 1.339 . S
C1323 C1322 1.395 . S
C1323 H1349 0.929 . S
C1324 C1322 1.320 . S
C1324 C1325 1.405 . S
C1324 H1350 0.930 . S
C1325 C1320 1.479 . S
C1325 C1324 1.405 . S
C1325 H1351 0.931 . S
U1326 O1327 2.454 . S
U1326 O1328 2.458 . S
U1326 C1329 2.984 . S
U1326 C1330 2.847 . S
U1326 C1343 2.882 . S
U1326 O1344 2.441 . S
U1326 O1345 2.420 . S
U1326 O1346 2.455 . S
U1326 O1347 2.449 . S
O1327 U1326 2.454 . S
O1327 C1329 1.353 . S
O1328 U1326 2.458 . S
O1328 C1329 1.286 . S
C1329 U1326 2.984 . S
C1329 O1327 1.353 . S
C1329 O1328 1.286 . S
C1329 C1331 1.363 . S
C1330 C1320 1.465 . S
C1330 U1326 2.847 . S
C1330 O1344 1.249 . S
C1330 O1345 1.202 . S
C1331 C1329 1.363 . S
C1331 C1333 1.408 . S
C1331 C1336 1.342 . S
C1332 C1333 1.310 . S
C1332 C1335 1.461 . S
C1332 H1352 0.932 . S
C1333 C1331 1.408 . S
C1333 C1332 1.310 . S
C1333 H1353 0.930 . S
C1334 C1335 1.474 . S
C1334 C1336 1.285 . S
C1334 H1354 0.929 . S
C1335 C1332 1.461 . S
C1335 C1334 1.474 . S
C1336 C1331 1.342 . S
C1336 C1334 1.285 . S
C1336 H1355 0.930 . S
C1337 C1340 1.424 . S
C1337 C1342 1.245 . S
C1337 C1343 1.428 . S
C1338 C1341 1.260 . S
C1338 C1342 1.477 . S
C1338 H1356 0.932 . S
C1339 C1340 1.384 . S
C1339 C1341 1.479 . S
C1339 H1357 0.929 . S
C1340 C1337 1.424 . S
C1340 C1339 1.384 . S
C1340 H1358 0.928 . S
C1341 C1338 1.260 . S
C1341 C1339 1.479 . S
C1342 C1337 1.245 . S
C1342 C1338 1.477 . S
C1342 H1359 0.932 . S
C1343 U1326 2.882 . S
C1343 C1337 1.428 . S
C1343 O1346 1.301 . S
C1343 O1347 1.282 . S
O1344 U1326 2.441 . S
O1344 C1330 1.249 . S
O1345 U1326 2.420 . S
O1345 C1330 1.202 . S
O1346 U1326 2.455 . S
O1346 C1343 1.301 . S
O1347 U1326 2.449 . S
O1347 C1343 1.282 . S
H1348 C1321 0.931 . S
H1349 C1323 0.929 . S
H1350 C1324 0.930 . S
H1351 C1325 0.931 . S
H1352 C1332 0.932 . S
H1353 C1333 0.930 . S
H1354 C1334 0.929 . S
H1355 C1336 0.930 . S
H1356 C1338 0.932 . S
H1357 C1339 0.929 . S
H1358 C1340 0.928 . S
H1359 C1342 0.932 . S
C1360 C1361 1.264 . S
C1360 C1365 1.479 . S
C1360 C1370 1.465 . S
C1361 C1360 1.264 . S
C1361 C1363 1.339 . S
C1361 H1388 0.931 . S
C1362 C1363 1.395 . S
C1362 C1364 1.320 . S
C1363 C1361 1.339 . S
C1363 C1362 1.395 . S
C1363 H1389 0.929 . S
C1364 C1362 1.320 . S
C1364 C1365 1.405 . S
C1364 H1390 0.930 . S
C1365 C1360 1.479 . S
C1365 C1364 1.405 . S
C1365 H1391 0.931 . S
U1366 O1367 2.454 . S
U1366 O1368 2.458 . S
U1366 C1369 2.984 . S
U1366 C1370 2.847 . S
U1366 C1383 2.882 . S
U1366 O1384 2.441 . S
U1366 O1385 2.420 . S
U1366 O1386 2.455 . S
U1366 O1387 2.449 . S
O1367 U1366 2.454 . S
O1367 C1369 1.353 . S
O1368 U1366 2.458 . S
O1368 C1369 1.286 . S
C1369 U1366 2.984 . S
C1369 O1367 1.353 . S
C1369 O1368 1.286 . S
C1369 C1371 1.363 . S
C1370 C1360 1.465 . S
C1370 U1366 2.847 . S
C1370 O1384 1.249 . S
C1370 O1385 1.202 . S
C1371 C1369 1.363 . S
C1371 C1373 1.408 . S
C1371 C1376 1.342 . S
C1372 C1373 1.310 . S
C1372 C1375 1.461 . S
C1372 H1392 0.932 . S
C1373 C1371 1.408 . S
C1373 C1372 1.310 . S
C1373 H1393 0.930 . S
C1374 C1375 1.474 . S
C1374 C1376 1.285 . S
C1374 H1394 0.929 . S
C1375 C1372 1.461 . S
C1375 C1374 1.474 . S
C1376 C1371 1.342 . S
C1376 C1374 1.285 . S
C1376 H1395 0.930 . S
C1377 C1380 1.424 . S
C1377 C1382 1.245 . S
C1377 C1383 1.428 . S
C1378 C1381 1.260 . S
C1378 C1382 1.477 . S
C1378 H1396 0.932 . S
C1379 C1380 1.384 . S
C1379 C1381 1.479 . S
C1379 H1397 0.929 . S
C1380 C1377 1.424 . S
C1380 C1379 1.384 . S
C1380 H1398 0.928 . S
C1381 C1378 1.260 . S
C1381 C1379 1.479 . S
C1382 C1377 1.245 . S
C1382 C1378 1.477 . S
C1382 H1399 0.932 . S
C1383 U1366 2.882 . S
C1383 C1377 1.428 . S
C1383 O1386 1.301 . S
C1383 O1387 1.282 . S
O1384 U1366 2.441 . S
O1384 C1370 1.249 . S
O1385 U1366 2.420 . S
O1385 C1370 1.202 . S
O1386 U1366 2.455 . S
O1386 C1383 1.301 . S
O1387 U1366 2.449 . S
O1387 C1383 1.282 . S
H1388 C1361 0.931 . S
H1389 C1363 0.929 . S
H1390 C1364 0.930 . S
H1391 C1365 0.931 . S
H1392 C1372 0.932 . S
H1393 C1373 0.930 . S
H1394 C1374 0.929 . S
H1395 C1376 0.930 . S
H1396 C1378 0.932 . S
H1397 C1379 0.929 . S
H1398 C1380 0.928 . S
H1399 C1382 0.932 . S
C1400 C1401 1.264 . S
C1400 C1405 1.479 . S
C1400 C1410 1.465 . S
C1401 C1400 1.264 . S
C1401 C1403 1.339 . S
C1401 H1428 0.931 . S
C1402 C1403 1.395 . S
C1402 C1404 1.320 . S
C1403 C1401 1.339 . S
C1403 C1402 1.395 . S
C1403 H1429 0.929 . S
C1404 C1402 1.320 . S
C1404 C1405 1.405 . S
C1404 H1430 0.930 . S
C1405 C1400 1.479 . S
C1405 C1404 1.405 . S
C1405 H1431 0.931 . S
U1406 O1407 2.454 . S
U1406 O1408 2.458 . S
U1406 C1409 2.984 . S
U1406 C1410 2.847 . S
U1406 C1423 2.882 . S
U1406 O1424 2.441 . S
U1406 O1425 2.420 . S
U1406 O1426 2.455 . S
U1406 O1427 2.449 . S
O1407 U1406 2.454 . S
O1407 C1409 1.353 . S
O1408 U1406 2.458 . S
O1408 C1409 1.286 . S
C1409 U1406 2.984 . S
C1409 O1407 1.353 . S
C1409 O1408 1.286 . S
C1409 C1411 1.363 . S
C1410 C1400 1.465 . S
C1410 U1406 2.847 . S
C1410 O1424 1.249 . S
C1410 O1425 1.202 . S
C1411 C1409 1.363 . S
C1411 C1413 1.408 . S
C1411 C1416 1.342 . S
C1412 C1413 1.310 . S
C1412 C1415 1.461 . S
C1412 H1432 0.932 . S
C1413 C1411 1.408 . S
C1413 C1412 1.310 . S
C1413 H1433 0.930 . S
C1414 C1415 1.474 . S
C1414 C1416 1.285 . S
C1414 H1434 0.929 . S
C1415 C1412 1.461 . S
C1415 C1414 1.474 . S
C1416 C1411 1.342 . S
C1416 C1414 1.285 . S
C1416 H1435 0.930 . S
C1417 C1420 1.424 . S
C1417 C1422 1.245 . S
C1417 C1423 1.428 . S
C1418 C1421 1.260 . S
C1418 C1422 1.477 . S
C1418 H1436 0.932 . S
C1419 C1420 1.384 . S
C1419 C1421 1.479 . S
C1419 H1437 0.929 . S
C1420 C1417 1.424 . S
C1420 C1419 1.384 . S
C1420 H1438 0.928 . S
C1421 C1418 1.260 . S
C1421 C1419 1.479 . S
C1422 C1417 1.245 . S
C1422 C1418 1.477 . S
C1422 H1439 0.932 . S
C1423 U1406 2.882 . S
C1423 C1417 1.428 . S
C1423 O1426 1.301 . S
C1423 O1427 1.282 . S
O1424 U1406 2.441 . S
O1424 C1410 1.249 . S
O1425 U1406 2.420 . S
O1425 C1410 1.202 . S
O1426 U1406 2.455 . S
O1426 C1423 1.301 . S
O1427 U1406 2.449 . S
O1427 C1423 1.282 . S
H1428 C1401 0.931 . S
H1429 C1403 0.929 . S
H1430 C1404 0.930 . S
H1431 C1405 0.931 . S
H1432 C1412 0.932 . S
H1433 C1413 0.930 . S
H1434 C1414 0.929 . S
H1435 C1416 0.930 . S
H1436 C1418 0.932 . S
H1437 C1419 0.929 . S
H1438 C1420 0.928 . S
H1439 C1422 0.932 . S
C1440 C1441 1.264 . S
C1440 C1445 1.479 . S
C1440 C1450 1.465 . S
C1441 C1440 1.264 . S
C1441 C1443 1.339 . S
C1441 H1468 0.931 . S
C1442 C1443 1.395 . S
C1442 C1444 1.320 . S
C1443 C1441 1.339 . S
C1443 C1442 1.395 . S
C1443 H1469 0.929 . S
C1444 C1442 1.320 . S
C1444 C1445 1.405 . S
C1444 H1470 0.930 . S
C1445 C1440 1.479 . S
C1445 C1444 1.405 . S
C1445 H1471 0.931 . S
U1446 O1447 2.454 . S
U1446 O1448 2.458 . S
U1446 C1449 2.984 . S
U1446 C1450 2.847 . S
U1446 C1463 2.882 . S
U1446 O1464 2.441 . S
U1446 O1465 2.420 . S
U1446 O1466 2.455 . S
U1446 O1467 2.449 . S
O1447 U1446 2.454 . S
O1447 C1449 1.353 . S
O1448 U1446 2.458 . S
O1448 C1449 1.286 . S
C1449 U1446 2.984 . S
C1449 O1447 1.353 . S
C1449 O1448 1.286 . S
C1449 C1451 1.363 . S
C1450 C1440 1.465 . S
C1450 U1446 2.847 . S
C1450 O1464 1.249 . S
C1450 O1465 1.202 . S
C1451 C1449 1.363 . S
C1451 C1453 1.408 . S
C1451 C1456 1.342 . S
C1452 C1453 1.310 . S
C1452 C1455 1.461 . S
C1452 H1472 0.932 . S
C1453 C1451 1.408 . S
C1453 C1452 1.310 . S
C1453 H1473 0.930 . S
C1454 C1455 1.474 . S
C1454 C1456 1.285 . S
C1454 H1474 0.929 . S
C1455 C1452 1.461 . S
C1455 C1454 1.474 . S
C1456 C1451 1.342 . S
C1456 C1454 1.285 . S
C1456 H1475 0.930 . S
C1457 C1460 1.424 . S
C1457 C1462 1.245 . S
C1457 C1463 1.428 . S
C1458 C1461 1.260 . S
C1458 C1462 1.477 . S
C1458 H1476 0.932 . S
C1459 C1460 1.384 . S
C1459 C1461 1.479 . S
C1459 H1477 0.929 . S
C1460 C1457 1.424 . S
C1460 C1459 1.384 . S
C1460 H1478 0.928 . S
C1461 C1458 1.260 . S
C1461 C1459 1.479 . S
C1462 C1457 1.245 . S
C1462 C1458 1.477 . S
C1462 H1479 0.932 . S
C1463 U1446 2.882 . S
C1463 C1457 1.428 . S
C1463 O1466 1.301 . S
C1463 O1467 1.282 . S
O1464 U1446 2.441 . S
O1464 C1450 1.249 . S
O1465 U1446 2.420 . S
O1465 C1450 1.202 . S
O1466 U1446 2.455 . S
O1466 C1463 1.301 . S
O1467 U1446 2.449 . S
O1467 C1463 1.282 . S
H1468 C1441 0.931 . S
H1469 C1443 0.929 . S
H1470 C1444 0.930 . S
H1471 C1445 0.931 . S
H1472 C1452 0.932 . S
H1473 C1453 0.930 . S
H1474 C1454 0.929 . S
H1475 C1456 0.930 . S
H1476 C1458 0.932 . S
H1477 C1459 0.929 . S
H1478 C1460 0.928 . S
H1479 C1462 0.932 . S
C1480 C1481 1.264 . S
C1480 C1485 1.479 . S
C1480 C1490 1.465 . S
C1481 C1480 1.264 . S
C1481 C1483 1.339 . S
C1481 H1508 0.931 . S
C1482 C1483 1.395 . S
C1482 C1484 1.320 . S
C1483 C1481 1.339 . S
C1483 C1482 1.395 . S
C1483 H1509 0.929 . S
C1484 C1482 1.320 . S
C1484 C1485 1.405 . S
C1484 H1510 0.930 . S
C1485 C1480 1.479 . S
C1485 C1484 1.405 . S
C1485 H1511 0.931 . S
U1486 O1487 2.454 . S
U1486 O1488 2.458 . S
U1486 C1489 2.984 . S
U1486 C1490 2.847 . S
U1486 C1503 2.882 . S
U1486 O1504 2.441 . S
U1486 O1505 2.420 . S
U1486 O1506 2.455 . S
U1486 O1507 2.449 . S
O1487 U1486 2.454 . S
O1487 C1489 1.353 . S
O1488 U1486 2.458 . S
O1488 C1489 1.286 . S
C1489 U1486 2.984 . S
C1489 O1487 1.353 . S
C1489 O1488 1.286 . S
C1489 C1491 1.363 . S
C1490 C1480 1.465 . S
C1490 U1486 2.847 . S
C1490 O1504 1.249 . S
C1490 O1505 1.202 . S
C1491 C1489 1.363 . S
C1491 C1493 1.408 . S
C1491 C1496 1.342 . S
C1492 C1493 1.310 . S
C1492 C1495 1.461 . S
C1492 H1512 0.932 . S
C1493 C1491 1.408 . S
C1493 C1492 1.310 . S
C1493 H1513 0.930 . S
C1494 C1495 1.474 . S
C1494 C1496 1.285 . S
C1494 H1514 0.929 . S
C1495 C1492 1.461 . S
C1495 C1494 1.474 . S
C1496 C1491 1.342 . S
C1496 C1494 1.285 . S
C1496 H1515 0.930 . S
C1497 C1500 1.424 . S
C1497 C1502 1.245 . S
C1497 C1503 1.428 . S
C1498 C1501 1.260 . S
C1498 C1502 1.477 . S
C1498 H1516 0.932 . S
C1499 C1500 1.384 . S
C1499 C1501 1.479 . S
C1499 H1517 0.929 . S
C1500 C1497 1.424 . S
C1500 C1499 1.384 . S
C1500 H1518 0.928 . S
C1501 C1498 1.260 . S
C1501 C1499 1.479 . S
C1502 C1497 1.245 . S
C1502 C1498 1.477 . S
C1502 H1519 0.932 . S
C1503 U1486 2.882 . S
C1503 C1497 1.428 . S
C1503 O1506 1.301 . S
C1503 O1507 1.282 . S
O1504 U1486 2.441 . S
O1504 C1490 1.249 . S
O1505 U1486 2.420 . S
O1505 C1490 1.202 . S
O1506 U1486 2.455 . S
O1506 C1503 1.301 . S
O1507 U1486 2.449 . S
O1507 C1503 1.282 . S
H1508 C1481 0.931 . S
H1509 C1483 0.929 . S
H1510 C1484 0.930 . S
H1511 C1485 0.931 . S
H1512 C1492 0.932 . S
H1513 C1493 0.930 . S
H1514 C1494 0.929 . S
H1515 C1496 0.930 . S
H1516 C1498 0.932 . S
H1517 C1499 0.929 . S
H1518 C1500 0.928 . S
H1519 C1502 0.932 . S
C1520 C1521 1.264 . S
C1520 C1525 1.479 . S
C1520 C1530 1.465 . S
C1521 C1520 1.264 . S
C1521 C1523 1.339 . S
C1521 H1548 0.931 . S
C1522 C1523 1.395 . S
C1522 C1524 1.320 . S
C1523 C1521 1.339 . S
C1523 C1522 1.395 . S
C1523 H1549 0.929 . S
C1524 C1522 1.320 . S
C1524 C1525 1.405 . S
C1524 H1550 0.930 . S
C1525 C1520 1.479 . S
C1525 C1524 1.405 . S
C1525 H1551 0.931 . S
U1526 O1527 2.454 . S
U1526 O1528 2.458 . S
U1526 C1529 2.984 . S
U1526 C1530 2.847 . S
U1526 C1543 2.882 . S
U1526 O1544 2.441 . S
U1526 O1545 2.420 . S
U1526 O1546 2.455 . S
U1526 O1547 2.449 . S
O1527 U1526 2.454 . S
O1527 C1529 1.353 . S
O1528 U1526 2.458 . S
O1528 C1529 1.286 . S
C1529 U1526 2.984 . S
C1529 O1527 1.353 . S
C1529 O1528 1.286 . S
C1529 C1531 1.363 . S
C1530 C1520 1.465 . S
C1530 U1526 2.847 . S
C1530 O1544 1.249 . S
C1530 O1545 1.202 . S
C1531 C1529 1.363 . S
C1531 C1533 1.408 . S
C1531 C1536 1.342 . S
C1532 C1533 1.310 . S
C1532 C1535 1.461 . S
C1532 H1552 0.932 . S
C1533 C1531 1.408 . S
C1533 C1532 1.310 . S
C1533 H1553 0.930 . S
C1534 C1535 1.474 . S
C1534 C1536 1.285 . S
C1534 H1554 0.929 . S
C1535 C1532 1.461 . S
C1535 C1534 1.474 . S
C1536 C1531 1.342 . S
C1536 C1534 1.285 . S
C1536 H1555 0.930 . S
C1537 C1540 1.424 . S
C1537 C1542 1.245 . S
C1537 C1543 1.428 . S
C1538 C1541 1.260 . S
C1538 C1542 1.477 . S
C1538 H1556 0.932 . S
C1539 C1540 1.384 . S
C1539 C1541 1.479 . S
C1539 H1557 0.929 . S
C1540 C1537 1.424 . S
C1540 C1539 1.384 . S
C1540 H1558 0.928 . S
C1541 C1538 1.260 . S
C1541 C1539 1.479 . S
C1542 C1537 1.245 . S
C1542 C1538 1.477 . S
C1542 H1559 0.932 . S
C1543 U1526 2.882 . S
C1543 C1537 1.428 . S
C1543 O1546 1.301 . S
C1543 O1547 1.282 . S
O1544 U1526 2.441 . S
O1544 C1530 1.249 . S
O1545 U1526 2.420 . S
O1545 C1530 1.202 . S
O1546 U1526 2.455 . S
O1546 C1543 1.301 . S
O1547 U1526 2.449 . S
O1547 C1543 1.282 . S
H1548 C1521 0.931 . S
H1549 C1523 0.929 . S
H1550 C1524 0.930 . S
H1551 C1525 0.931 . S
H1552 C1532 0.932 . S
H1553 C1533 0.930 . S
H1554 C1534 0.929 . S
H1555 C1536 0.930 . S
H1556 C1538 0.932 . S
H1557 C1539 0.929 . S
H1558 C1540 0.928 . S
H1559 C1542 0.932 . S
C1560 C1561 1.264 . S
C1560 C1565 1.479 . S
C1560 C1570 1.465 . S
C1561 C1560 1.264 . S
C1561 C1563 1.339 . S
C1561 H1588 0.931 . S
C1562 C1563 1.395 . S
C1562 C1564 1.320 . S
C1563 C1561 1.339 . S
C1563 C1562 1.395 . S
C1563 H1589 0.929 . S
C1564 C1562 1.320 . S
C1564 C1565 1.405 . S
C1564 H1590 0.930 . S
C1565 C1560 1.479 . S
C1565 C1564 1.405 . S
C1565 H1591 0.931 . S
U1566 O1567 2.454 . S
U1566 O1568 2.458 . S
U1566 C1569 2.984 . S
U1566 C1570 2.847 . S
U1566 C1583 2.882 . S
U1566 O1584 2.441 . S
U1566 O1585 2.420 . S
U1566 O1586 2.455 . S
U1566 O1587 2.449 . S
O1567 U1566 2.454 . S
O1567 C1569 1.353 . S
O1568 U1566 2.458 . S
O1568 C1569 1.286 . S
C1569 U1566 2.984 . S
C1569 O1567 1.353 . S
C1569 O1568 1.286 . S
C1569 C1571 1.363 . S
C1570 C1560 1.465 . S
C1570 U1566 2.847 . S
C1570 O1584 1.249 . S
C1570 O1585 1.202 . S
C1571 C1569 1.363 . S
C1571 C1573 1.408 . S
C1571 C1576 1.342 . S
C1572 C1573 1.310 . S
C1572 C1575 1.461 . S
C1572 H1592 0.932 . S
C1573 C1571 1.408 . S
C1573 C1572 1.310 . S
C1573 H1593 0.930 . S
C1574 C1575 1.474 . S
C1574 C1576 1.285 . S
C1574 H1594 0.929 . S
C1575 C1572 1.461 . S
C1575 C1574 1.474 . S
C1576 C1571 1.342 . S
C1576 C1574 1.285 . S
C1576 H1595 0.930 . S
C1577 C1580 1.424 . S
C1577 C1582 1.245 . S
C1577 C1583 1.428 . S
C1578 C1581 1.260 . S
C1578 C1582 1.477 . S
C1578 H1596 0.932 . S
C1579 C1580 1.384 . S
C1579 C1581 1.479 . S
C1579 H1597 0.929 . S
C1580 C1577 1.424 . S
C1580 C1579 1.384 . S
C1580 H1598 0.928 . S
C1581 C1578 1.260 . S
C1581 C1579 1.479 . S
C1582 C1577 1.245 . S
C1582 C1578 1.477 . S
C1582 H1599 0.932 . S
C1583 U1566 2.882 . S
C1583 C1577 1.428 . S
C1583 O1586 1.301 . S
C1583 O1587 1.282 . S
O1584 U1566 2.441 . S
O1584 C1570 1.249 . S
O1585 U1566 2.420 . S
O1585 C1570 1.202 . S
O1586 U1566 2.455 . S
O1586 C1583 1.301 . S
O1587 U1566 2.449 . S
O1587 C1583 1.282 . S
H1588 C1561 0.931 . S
H1589 C1563 0.929 . S
H1590 C1564 0.930 . S
H1591 C1565 0.931 . S
H1592 C1572 0.932 . S
H1593 C1573 0.930 . S
H1594 C1574 0.929 . S
H1595 C1576 0.930 . S
H1596 C1578 0.932 . S
H1597 C1579 0.929 . S
H1598 C1580 0.928 . S
H1599 C1582 0.932 . S
C1600 C1601 1.264 . S
C1600 C1605 1.479 . S
C1600 C1610 1.465 . S
C1601 C1600 1.264 . S
C1601 C1603 1.339 . S
C1601 H1628 0.931 . S
C1602 C1603 1.395 . S
C1602 C1604 1.320 . S
C1603 C1601 1.339 . S
C1603 C1602 1.395 . S
C1603 H1629 0.929 . S
C1604 C1602 1.320 . S
C1604 C1605 1.405 . S
C1604 H1630 0.930 . S
C1605 C1600 1.479 . S
C1605 C1604 1.405 . S
C1605 H1631 0.931 . S
U1606 O1607 2.454 . S
U1606 O1608 2.458 . S
U1606 C1609 2.984 . S
U1606 C1610 2.847 . S
U1606 C1623 2.882 . S
U1606 O1624 2.441 . S
U1606 O1625 2.420 . S
U1606 O1626 2.455 . S
U1606 O1627 2.449 . S
O1607 U1606 2.454 . S
O1607 C1609 1.353 . S
O1608 U1606 2.458 . S
O1608 C1609 1.286 . S
C1609 U1606 2.984 . S
C1609 O1607 1.353 . S
C1609 O1608 1.286 . S
C1609 C1611 1.363 . S
C1610 C1600 1.465 . S
C1610 U1606 2.847 . S
C1610 O1624 1.249 . S
C1610 O1625 1.202 . S
C1611 C1609 1.363 . S
C1611 C1613 1.408 . S
C1611 C1616 1.342 . S
C1612 C1613 1.310 . S
C1612 C1615 1.461 . S
C1612 H1632 0.932 . S
C1613 C1611 1.408 . S
C1613 C1612 1.310 . S
C1613 H1633 0.930 . S
C1614 C1615 1.474 . S
C1614 C1616 1.285 . S
C1614 H1634 0.929 . S
C1615 C1612 1.461 . S
C1615 C1614 1.474 . S
C1616 C1611 1.342 . S
C1616 C1614 1.285 . S
C1616 H1635 0.930 . S
C1617 C1620 1.424 . S
C1617 C1622 1.245 . S
C1617 C1623 1.428 . S
C1618 C1621 1.260 . S
C1618 C1622 1.477 . S
C1618 H1636 0.932 . S
C1619 C1620 1.384 . S
C1619 C1621 1.479 . S
C1619 H1637 0.929 . S
C1620 C1617 1.424 . S
C1620 C1619 1.384 . S
C1620 H1638 0.928 . S
C1621 C1618 1.260 . S
C1621 C1619 1.479 . S
C1622 C1617 1.245 . S
C1622 C1618 1.477 . S
C1622 H1639 0.932 . S
C1623 U1606 2.882 . S
C1623 C1617 1.428 . S
C1623 O1626 1.301 . S
C1623 O1627 1.282 . S
O1624 U1606 2.441 . S
O1624 C1610 1.249 . S
O1625 U1606 2.420 . S
O1625 C1610 1.202 . S
O1626 U1606 2.455 . S
O1626 C1623 1.301 . S
O1627 U1606 2.449 . S
O1627 C1623 1.282 . S
H1628 C1601 0.931 . S
H1629 C1603 0.929 . S
H1630 C1604 0.930 . S
H1631 C1605 0.931 . S
H1632 C1612 0.932 . S
H1633 C1613 0.930 . S
H1634 C1614 0.929 . S
H1635 C1616 0.930 . S
H1636 C1618 0.932 . S
H1637 C1619 0.929 . S
H1638 C1620 0.928 . S
H1639 C1622 0.932 . S
C1640 C1641 1.264 . S
C1640 C1645 1.479 . S
C1640 C1650 1.465 . S
C1641 C1640 1.264 . S
C1641 C1643 1.339 . S
C1641 H1668 0.931 . S
C1642 C1643 1.395 . S
C1642 C1644 1.320 . S
C1643 C1641 1.339 . S
C1643 C1642 1.395 . S
C1643 H1669 0.929 . S
C1644 C1642 1.320 . S
C1644 C1645 1.405 . S
C1644 H1670 0.930 . S
C1645 C1640 1.479 . S
C1645 C1644 1.405 . S
C1645 H1671 0.931 . S
U1646 O1647 2.454 . S
U1646 O1648 2.458 . S
U1646 C1649 2.984 . S
U1646 C1650 2.847 . S
U1646 C1663 2.882 . S
U1646 O1664 2.441 . S
U1646 O1665 2.420 . S
U1646 O1666 2.455 . S
U1646 O1667 2.449 . S
O1647 U1646 2.454 . S
O1647 C1649 1.353 . S
O1648 U1646 2.458 . S
O1648 C1649 1.286 . S
C1649 U1646 2.984 . S
C1649 O1647 1.353 . S
C1649 O1648 1.286 . S
C1649 C1651 1.363 . S
C1650 C1640 1.465 . S
C1650 U1646 2.847 . S
C1650 O1664 1.249 . S
C1650 O1665 1.202 . S
C1651 C1649 1.363 . S
C1651 C1653 1.408 . S
C1651 C1656 1.342 . S
C1652 C1653 1.310 . S
C1652 C1655 1.461 . S
C1652 H1672 0.932 . S
C1653 C1651 1.408 . S
C1653 C1652 1.310 . S
C1653 H1673 0.930 . S
C1654 C1655 1.474 . S
C1654 C1656 1.285 . S
C1654 H1674 0.929 . S
C1655 C1652 1.461 . S
C1655 C1654 1.474 . S
C1656 C1651 1.342 . S
C1656 C1654 1.285 . S
C1656 H1675 0.930 . S
C1657 C1660 1.424 . S
C1657 C1662 1.245 . S
C1657 C1663 1.428 . S
C1658 C1661 1.260 . S
C1658 C1662 1.477 . S
C1658 H1676 0.932 . S
C1659 C1660 1.384 . S
C1659 C1661 1.479 . S
C1659 H1677 0.929 . S
C1660 C1657 1.424 . S
C1660 C1659 1.384 . S
C1660 H1678 0.928 . S
C1661 C1658 1.260 . S
C1661 C1659 1.479 . S
C1662 C1657 1.245 . S
C1662 C1658 1.477 . S
C1662 H1679 0.932 . S
C1663 U1646 2.882 . S
C1663 C1657 1.428 . S
C1663 O1666 1.301 . S
C1663 O1667 1.282 . S
O1664 U1646 2.441 . S
O1664 C1650 1.249 . S
O1665 U1646 2.420 . S
O1665 C1650 1.202 . S
O1666 U1646 2.455 . S
O1666 C1663 1.301 . S
O1667 U1646 2.449 . S
O1667 C1663 1.282 . S
H1668 C1641 0.931 . S
H1669 C1643 0.929 . S
H1670 C1644 0.930 . S
H1671 C1645 0.931 . S
H1672 C1652 0.932 . S
H1673 C1653 0.930 . S
H1674 C1654 0.929 . S
H1675 C1656 0.930 . S
H1676 C1658 0.932 . S
H1677 C1659 0.929 . S
H1678 C1660 0.928 . S
H1679 C1662 0.932 . S
C1680 C1681 1.264 . S
C1680 C1685 1.479 . S
C1680 C1690 1.465 . S
C1681 C1680 1.264 . S
C1681 C1683 1.339 . S
C1681 H1708 0.931 . S
C1682 C1683 1.395 . S
C1682 C1684 1.320 . S
C1683 C1681 1.339 . S
C1683 C1682 1.395 . S
C1683 H1709 0.929 . S
C1684 C1682 1.320 . S
C1684 C1685 1.405 . S
C1684 H1710 0.930 . S
C1685 C1680 1.479 . S
C1685 C1684 1.405 . S
C1685 H1711 0.931 . S
U1686 O1687 2.454 . S
U1686 O1688 2.458 . S
U1686 C1689 2.984 . S
U1686 C1690 2.847 . S
U1686 C1703 2.882 . S
U1686 O1704 2.441 . S
U1686 O1705 2.420 . S
U1686 O1706 2.455 . S
U1686 O1707 2.449 . S
O1687 U1686 2.454 . S
O1687 C1689 1.353 . S
O1688 U1686 2.458 . S
O1688 C1689 1.286 . S
C1689 U1686 2.984 . S
C1689 O1687 1.353 . S
C1689 O1688 1.286 . S
C1689 C1691 1.363 . S
C1690 C1680 1.465 . S
C1690 U1686 2.847 . S
C1690 O1704 1.249 . S
C1690 O1705 1.202 . S
C1691 C1689 1.363 . S
C1691 C1693 1.408 . S
C1691 C1696 1.342 . S
C1692 C1693 1.310 . S
C1692 C1695 1.461 . S
C1692 H1712 0.932 . S
C1693 C1691 1.408 . S
C1693 C1692 1.310 . S
C1693 H1713 0.930 . S
C1694 C1695 1.474 . S
C1694 C1696 1.285 . S
C1694 H1714 0.929 . S
C1695 C1692 1.461 . S
C1695 C1694 1.474 . S
C1696 C1691 1.342 . S
C1696 C1694 1.285 . S
C1696 H1715 0.930 . S
C1697 C1700 1.424 . S
C1697 C1702 1.245 . S
C1697 C1703 1.428 . S
C1698 C1701 1.260 . S
C1698 C1702 1.477 . S
C1698 H1716 0.932 . S
C1699 C1700 1.384 . S
C1699 C1701 1.479 . S
C1699 H1717 0.929 . S
C1700 C1697 1.424 . S
C1700 C1699 1.384 . S
C1700 H1718 0.928 . S
C1701 C1698 1.260 . S
C1701 C1699 1.479 . S
C1702 C1697 1.245 . S
C1702 C1698 1.477 . S
C1702 H1719 0.932 . S
C1703 U1686 2.882 . S
C1703 C1697 1.428 . S
C1703 O1706 1.301 . S
C1703 O1707 1.282 . S
O1704 U1686 2.441 . S
O1704 C1690 1.249 . S
O1705 U1686 2.420 . S
O1705 C1690 1.202 . S
O1706 U1686 2.455 . S
O1706 C1703 1.301 . S
O1707 U1686 2.449 . S
O1707 C1703 1.282 . S
H1708 C1681 0.931 . S
H1709 C1683 0.929 . S
H1710 C1684 0.930 . S
H1711 C1685 0.931 . S
H1712 C1692 0.932 . S
H1713 C1693 0.930 . S
H1714 C1694 0.929 . S
H1715 C1696 0.930 . S
H1716 C1698 0.932 . S
H1717 C1699 0.929 . S
H1718 C1700 0.928 . S
H1719 C1702 0.932 . S
C1720 C1721 1.264 . S
C1720 C1725 1.479 . S
C1720 C1730 1.465 . S
C1721 C1720 1.264 . S
C1721 C1723 1.339 1_556 S
C1721 H1748 0.886 1_556 S
C1722 C1723 1.395 1_556 S
C1722 C1724 1.320 . S
C1723 C1721 1.339 1_554 S
C1723 C1722 1.395 1_554 S
C1723 H1749 0.929 . S
C1724 C1722 1.320 . S
C1724 C1725 1.405 . S
C1724 H1750 0.930 . S
C1725 C1720 1.479 . S
C1725 C1724 1.405 . S
C1725 H1751 0.931 . S
U1726 O1727 2.454 . S
U1726 O1728 2.458 . S
U1726 C1729 2.984 . S
U1726 C1730 2.847 . S
U1726 C1743 2.882 . S
U1726 O1744 2.441 . S
U1726 O1745 2.420 . S
U1726 O1746 2.455 . S
U1726 O1747 2.449 . S
O1727 U1726 2.454 . S
O1727 C1729 1.353 . S
O1728 U1726 2.458 . S
O1728 C1729 1.286 . S
C1729 U1726 2.984 . S
C1729 O1727 1.353 . S
C1729 O1728 1.286 . S
C1729 C1731 1.363 . S
C1730 C1720 1.465 . S
C1730 U1726 2.847 . S
C1730 O1744 1.249 . S
C1730 O1745 1.202 . S
C1731 C1729 1.363 . S
C1731 C1733 1.408 . S
C1731 C1736 1.342 . S
C1732 C1733 1.310 . S
C1732 C1735 1.461 . S
C1732 H1752 0.932 . S
C1733 C1731 1.408 . S
C1733 C1732 1.310 . S
C1733 H1753 0.930 . S
C1734 C1735 1.474 . S
C1734 C1736 1.285 . S
C1734 H1754 0.929 . S
C1735 C1732 1.461 . S
C1735 C1734 1.474 . S
C1736 C1731 1.342 . S
C1736 C1734 1.285 . S
C1736 H1755 0.930 . S
C1737 C1740 1.424 1_556 S
C1737 C1742 1.245 . S
C1737 C1743 1.428 . S
C1738 C1741 1.260 1_556 S
C1738 C1742 1.477 . S
C1738 H1756 0.932 . S
C1739 C1740 1.384 . S
C1739 C1741 1.479 . S
C1739 H1757 0.929 . S
C1740 C1737 1.424 1_554 S
C1740 C1739 1.384 . S
C1740 H1758 0.928 . S
C1741 C1738 1.260 1_554 S
C1741 C1739 1.479 . S
C1742 C1737 1.245 . S
C1742 C1738 1.477 . S
C1742 H1759 0.932 . S
C1743 U1726 2.882 . S
C1743 C1737 1.428 . S
C1743 O1746 1.301 . S
C1743 O1747 1.282 . S
O1744 U1726 2.441 . S
O1744 C1730 1.249 . S
O1745 U1726 2.420 . S
O1745 C1730 1.202 . S
O1746 U1726 2.455 . S
O1746 C1743 1.301 . S
O1747 U1726 2.449 . S
O1747 C1743 1.282 . S
H1748 C1721 0.886 1_554 S
H1749 C1723 0.929 . S
H1750 C1724 0.930 . S
H1751 C1725 0.931 . S
H1752 C1732 0.932 . S
H1753 C1733 0.930 . S
H1754 C1734 0.929 . S
H1755 C1736 0.930 . S
H1756 C1738 0.932 . S
H1757 C1739 0.929 . S
H1758 C1740 0.928 . S
H1759 C1742 0.932 . S
C1760 C1761 1.264 . S
C1760 C1765 1.479 . S
C1760 C1770 1.465 . S
C1761 C1760 1.264 . S
C1761 C1763 1.339 . S
C1761 H1788 0.931 . S
C1762 C1763 1.395 . S
C1762 C1764 1.320 . S
C1763 C1761 1.339 . S
C1763 C1762 1.395 . S
C1763 H1789 0.929 . S
C1764 C1762 1.320 . S
C1764 C1765 1.405 . S
C1764 H1790 0.930 . S
C1765 C1760 1.479 . S
C1765 C1764 1.405 . S
C1765 H1791 0.931 . S
U1766 O1767 2.454 . S
U1766 O1768 2.458 . S
U1766 C1769 2.984 . S
U1766 C1770 2.847 . S
U1766 C1783 2.882 . S
U1766 O1784 2.441 . S
U1766 O1785 2.420 . S
U1766 O1786 2.455 . S
U1766 O1787 2.449 . S
O1767 U1766 2.454 . S
O1767 C1769 1.353 . S
O1768 U1766 2.458 . S
O1768 C1769 1.286 . S
C1769 U1766 2.984 . S
C1769 O1767 1.353 . S
C1769 O1768 1.286 . S
C1769 C1771 1.363 . S
C1770 C1760 1.465 . S
C1770 U1766 2.847 . S
C1770 O1784 1.249 . S
C1770 O1785 1.202 . S
C1771 C1769 1.363 . S
C1771 C1773 1.408 . S
C1771 C1776 1.342 . S
C1772 C1773 1.310 . S
C1772 C1775 1.461 . S
C1772 H1792 0.932 . S
C1773 C1771 1.408 . S
C1773 C1772 1.310 . S
C1773 H1793 0.930 . S
C1774 C1775 1.474 . S
C1774 C1776 1.285 . S
C1774 H1794 0.929 . S
C1775 C1772 1.461 . S
C1775 C1774 1.474 . S
C1776 C1771 1.342 . S
C1776 C1774 1.285 . S
C1776 H1795 0.930 . S
C1777 C1780 1.424 . S
C1777 C1782 1.245 . S
C1777 C1783 1.428 . S
C1778 C1781 1.260 . S
C1778 C1782 1.477 . S
C1778 H1796 0.932 . S
C1779 C1780 1.384 . S
C1779 C1781 1.479 . S
C1779 H1797 0.929 . S
C1780 C1777 1.424 . S
C1780 C1779 1.384 . S
C1780 H1798 0.928 . S
C1781 C1778 1.260 . S
C1781 C1779 1.479 . S
C1782 C1777 1.245 . S
C1782 C1778 1.477 . S
C1782 H1799 0.932 . S
C1783 U1766 2.882 . S
C1783 C1777 1.428 . S
C1783 O1786 1.301 . S
C1783 O1787 1.282 . S
O1784 U1766 2.441 . S
O1784 C1770 1.249 . S
O1785 U1766 2.420 . S
O1785 C1770 1.202 . S
O1786 U1766 2.455 . S
O1786 C1783 1.301 . S
O1787 U1766 2.449 . S
O1787 C1783 1.282 . S
H1788 C1761 0.931 . S
H1789 C1763 0.929 . S
H1790 C1764 0.930 . S
H1791 C1765 0.931 . S
H1792 C1772 0.932 . S
H1793 C1773 0.930 . S
H1794 C1774 0.929 . S
H1795 C1776 0.930 . S
H1796 C1778 0.932 . S
H1797 C1779 0.929 . S
H1798 C1780 0.928 . S
H1799 C1782 0.932 . S
C1800 C1801 1.264 . S
C1800 C1805 1.479 . S
C1800 C1810 1.465 . S
C1801 C1800 1.264 . S
C1801 C1803 1.339 . S
C1801 H1828 0.931 . S
C1802 C1803 1.395 . S
C1802 C1804 1.320 . S
C1803 C1801 1.339 . S
C1803 C1802 1.395 . S
C1803 H1829 0.929 . S
C1804 C1802 1.320 . S
C1804 C1805 1.405 . S
C1804 H1830 0.930 . S
C1805 C1800 1.479 . S
C1805 C1804 1.405 . S
C1805 H1831 0.931 . S
U1806 O1807 2.454 . S
U1806 O1808 2.458 . S
U1806 C1809 2.984 . S
U1806 C1810 2.847 . S
U1806 C1823 2.882 . S
U1806 O1824 2.441 . S
U1806 O1825 2.420 . S
U1806 O1826 2.455 . S
U1806 O1827 2.449 . S
O1807 U1806 2.454 . S
O1807 C1809 1.353 . S
O1808 U1806 2.458 . S
O1808 C1809 1.286 . S
C1809 U1806 2.984 . S
C1809 O1807 1.353 . S
C1809 O1808 1.286 . S
C1809 C1811 1.363 . S
C1810 C1800 1.465 . S
C1810 U1806 2.847 . S
C1810 O1824 1.249 . S
C1810 O1825 1.202 . S
C1811 C1809 1.363 . S
C1811 C1813 1.408 . S
C1811 C1816 1.342 . S
C1812 C1813 1.310 . S
C1812 C1815 1.461 . S
C1812 H1832 0.932 . S
C1813 C1811 1.408 . S
C1813 C1812 1.310 . S
C1813 H1833 0.930 . S
C1814 C1815 1.474 . S
C1814 C1816 1.285 . S
C1814 H1834 0.929 . S
C1815 C1812 1.461 . S
C1815 C1814 1.474 . S
C1816 C1811 1.342 . S
C1816 C1814 1.285 . S
C1816 H1835 0.930 . S
C1817 C1820 1.424 . S
C1817 C1822 1.245 . S
C1817 C1823 1.428 . S
C1818 C1821 1.260 . S
C1818 C1822 1.477 . S
C1818 H1836 0.932 . S
C1819 C1820 1.384 . S
C1819 C1821 1.479 . S
C1819 H1837 0.929 . S
C1820 C1817 1.424 . S
C1820 C1819 1.384 . S
C1820 H1838 0.928 . S
C1821 C1818 1.260 . S
C1821 C1819 1.479 . S
C1822 C1817 1.245 . S
C1822 C1818 1.477 . S
C1822 H1839 0.932 . S
C1823 U1806 2.882 . S
C1823 C1817 1.428 . S
C1823 O1826 1.301 . S
C1823 O1827 1.282 . S
O1824 U1806 2.441 . S
O1824 C1810 1.249 . S
O1825 U1806 2.420 . S
O1825 C1810 1.202 . S
O1826 U1806 2.455 . S
O1826 C1823 1.301 . S
O1827 U1806 2.449 . S
O1827 C1823 1.282 . S
H1828 C1801 0.931 . S
H1829 C1803 0.929 . S
H1830 C1804 0.930 . S
H1831 C1805 0.931 . S
H1832 C1812 0.932 . S
H1833 C1813 0.930 . S
H1834 C1814 0.929 . S
H1835 C1816 0.930 . S
H1836 C1818 0.932 . S
H1837 C1819 0.929 . S
H1838 C1820 0.928 . S
H1839 C1822 0.932 . S
C1840 C1841 1.264 . S
C1840 C1845 1.479 . S
C1840 C1850 1.465 . S
C1841 C1840 1.264 . S
C1841 C1843 1.339 . S
C1841 H1868 0.931 . S
C1842 C1843 1.395 . S
C1842 C1844 1.320 . S
C1843 C1841 1.339 . S
C1843 C1842 1.395 . S
C1843 H1869 0.929 . S
C1844 C1842 1.320 . S
C1844 C1845 1.405 . S
C1844 H1870 0.930 . S
C1845 C1840 1.479 . S
C1845 C1844 1.405 . S
C1845 H1871 0.931 . S
U1846 O1847 2.454 . S
U1846 O1848 2.458 . S
U1846 C1849 2.984 . S
U1846 C1850 2.847 . S
U1846 C1863 2.882 . S
U1846 O1864 2.441 . S
U1846 O1865 2.420 . S
U1846 O1866 2.455 . S
U1846 O1867 2.449 . S
O1847 U1846 2.454 . S
O1847 C1849 1.353 . S
O1848 U1846 2.458 . S
O1848 C1849 1.286 . S
C1849 U1846 2.984 . S
C1849 O1847 1.353 . S
C1849 O1848 1.286 . S
C1849 C1851 1.363 . S
C1850 C1840 1.465 . S
C1850 U1846 2.847 . S
C1850 O1864 1.249 . S
C1850 O1865 1.202 . S
C1851 C1849 1.363 . S
C1851 C1853 1.408 . S
C1851 C1856 1.342 . S
C1852 C1853 1.310 . S
C1852 C1855 1.461 . S
C1852 H1872 0.932 . S
C1853 C1851 1.408 . S
C1853 C1852 1.310 . S
C1853 H1873 0.930 . S
C1854 C1855 1.474 . S
C1854 C1856 1.285 . S
C1854 H1874 0.929 . S
C1855 C1852 1.461 . S
C1855 C1854 1.474 . S
C1856 C1851 1.342 . S
C1856 C1854 1.285 . S
C1856 H1875 0.930 . S
C1857 C1860 1.424 . S
C1857 C1862 1.245 . S
C1857 C1863 1.428 . S
C1858 C1861 1.260 . S
C1858 C1862 1.477 . S
C1858 H1876 0.932 . S
C1859 C1860 1.384 . S
C1859 C1861 1.479 . S
C1859 H1877 0.929 . S
C1860 C1857 1.424 . S
C1860 C1859 1.384 . S
C1860 H1878 0.928 . S
C1861 C1858 1.260 . S
C1861 C1859 1.479 . S
C1862 C1857 1.245 . S
C1862 C1858 1.477 . S
C1862 H1879 0.932 . S
C1863 U1846 2.882 . S
C1863 C1857 1.428 . S
C1863 O1866 1.301 . S
C1863 O1867 1.282 . S
O1864 U1846 2.441 . S
O1864 C1850 1.249 . S
O1865 U1846 2.420 . S
O1865 C1850 1.202 . S
O1866 U1846 2.455 . S
O1866 C1863 1.301 . S
O1867 U1846 2.449 . S
O1867 C1863 1.282 . S
H1868 C1841 0.931 . S
H1869 C1843 0.929 . S
H1870 C1844 0.930 . S
H1871 C1845 0.931 . S
H1872 C1852 0.932 . S
H1873 C1853 0.930 . S
H1874 C1854 0.929 . S
H1875 C1856 0.930 . S
H1876 C1858 0.932 . S
H1877 C1859 0.929 . S
H1878 C1860 0.928 . S
H1879 C1862 0.932 . S
C1880 C1881 1.264 . S
C1880 C1885 1.479 . S
C1880 C1890 1.465 . S
C1881 C1880 1.264 . S
C1881 C1883 1.339 . S
C1881 H1908 0.931 . S
C1882 C1883 1.395 . S
C1882 C1884 1.320 . S
C1883 C1881 1.339 . S
C1883 C1882 1.395 . S
C1883 H1909 0.929 . S
C1884 C1882 1.320 . S
C1884 C1885 1.405 . S
C1884 H1910 0.930 . S
C1885 C1880 1.479 . S
C1885 C1884 1.405 . S
C1885 H1911 0.931 . S
U1886 O1887 2.454 . S
U1886 O1888 2.458 . S
U1886 C1889 2.984 . S
U1886 C1890 2.847 . S
U1886 C1903 2.882 . S
U1886 O1904 2.441 . S
U1886 O1905 2.420 . S
U1886 O1906 2.455 . S
U1886 O1907 2.449 . S
O1887 U1886 2.454 . S
O1887 C1889 1.353 . S
O1888 U1886 2.458 . S
O1888 C1889 1.286 . S
C1889 U1886 2.984 . S
C1889 O1887 1.353 . S
C1889 O1888 1.286 . S
C1889 C1891 1.363 . S
C1890 C1880 1.465 . S
C1890 U1886 2.847 . S
C1890 O1904 1.249 . S
C1890 O1905 1.202 . S
C1891 C1889 1.363 . S
C1891 C1893 1.408 . S
C1891 C1896 1.342 . S
C1892 C1893 1.310 . S
C1892 C1895 1.461 . S
C1892 H1912 0.932 . S
C1893 C1891 1.408 . S
C1893 C1892 1.310 . S
C1893 H1913 0.930 . S
C1894 C1895 1.474 . S
C1894 C1896 1.285 . S
C1894 H1914 0.929 . S
C1895 C1892 1.461 . S
C1895 C1894 1.474 . S
C1896 C1891 1.342 . S
C1896 C1894 1.285 . S
C1896 H1915 0.930 . S
C1897 C1900 1.411 1_655 S
C1897 C1902 1.234 1_655 S
C1897 C1903 1.469 . S
C1898 C1901 1.260 . S
C1898 C1902 1.514 . S
C1898 H1916 0.932 . S
C1899 C1900 1.384 . S
C1899 C1901 1.479 . S
C1899 H1917 0.929 . S
C1900 C1897 1.411 1_455 S
C1900 C1899 1.384 . S
C1900 H1918 0.928 1_455 S
C1901 C1898 1.260 . S
C1901 C1899 1.479 . S
C1902 C1897 1.234 1_455 S
C1902 C1898 1.514 . S
C1902 H1919 0.910 1_455 S
C1903 U1886 2.882 . S
C1903 C1897 1.469 . S
C1903 O1906 1.301 . S
C1903 O1907 1.282 . S
O1904 U1886 2.441 . S
O1904 C1890 1.249 . S
O1905 U1886 2.420 . S
O1905 C1890 1.202 . S
O1906 U1886 2.455 . S
O1906 C1903 1.301 . S
O1907 U1886 2.449 . S
O1907 C1903 1.282 . S
H1908 C1881 0.931 . S
H1909 C1883 0.929 . S
H1910 C1884 0.930 . S
H1911 C1885 0.931 . S
H1912 C1892 0.932 . S
H1913 C1893 0.930 . S
H1914 C1894 0.929 . S
H1915 C1896 0.930 . S
H1916 C1898 0.932 . S
H1917 C1899 0.929 . S
H1918 C1900 0.928 1_655 S
H1919 C1902 0.910 1_655 S
C1920 C1921 1.349 . S
C1920 C1922 1.327 . S
C1920 H1945 0.950 . S
C1921 C1920 1.349 . S
C1921 C1937 1.349 . S
C1922 C1920 1.327 . S
C1922 C1941 1.429 . S
C1922 H1946 0.950 . S
C1923 C1940 1.574 . S
C1923 C1942 1.368 . S
C1923 H1947 0.949 . S
H1924 C1928 0.949 . S
C1925 C1926 1.349 . S
C1925 C1927 1.327 1_455 S
C1925 H1948 0.950 . S
C1926 C1925 1.349 . S
C1926 C1938 1.349 . S
C1927 C1925 1.327 1_655 S
C1927 C1943 1.429 . S
C1927 H1949 0.950 . S
C1928 H1924 0.949 . S
C1928 C1936 1.574 . S
C1928 C1944 1.368 . S
H1929 C1937 0.950 . S
H1930 C1935 0.950 . S
H1931 C1936 0.949 . S
H1932 C1938 0.950 . S
H1933 C1939 0.950 . S
H1934 C1940 0.949 . S
C1935 H1930 0.950 . S
C1935 C1937 1.327 . S
C1935 C1941 1.429 . S
C1936 C1928 1.574 . S
C1936 H1931 0.949 . S
C1936 C1942 1.368 . S
C1937 C1921 1.349 . S
C1937 H1929 0.950 . S
C1937 C1935 1.327 . S
C1938 C1926 1.349 . S
C1938 H1932 0.950 . S
C1938 C1939 1.327 . S
C1939 H1933 0.950 . S
C1939 C1938 1.327 . S
C1939 C1943 1.429 1_455 S
C1940 C1923 1.574 . S
C1940 H1934 0.949 . S
C1940 C1944 1.368 . S
C1941 C1922 1.429 . S
C1941 C1935 1.429 . S
C1941 C1942 1.523 . S
C1942 C1923 1.368 . S
C1942 C1936 1.368 . S
C1942 C1941 1.523 . S
C1943 C1927 1.429 . S
C1943 C1939 1.429 1_655 S
C1943 C1944 1.523 . S
C1944 C1928 1.368 . S
C1944 C1940 1.368 . S
C1944 C1943 1.523 . S
H1945 C1920 0.950 . S
H1946 C1922 0.950 . S
H1947 C1923 0.949 . S
H1948 C1925 0.950 . S
H1949 C1927 0.950 . S
C1950 C1951 1.349 . S
C1950 C1952 1.327 . S
C1950 H1975 0.950 . S
C1951 C1950 1.349 . S
C1951 C1967 1.349 . S
C1952 C1950 1.327 . S
C1952 C1971 1.429 . S
C1952 H1976 0.950 . S
C1953 C1970 1.574 . S
C1953 C1972 1.368 . S
C1953 H1977 0.949 . S
H1954 C1958 0.949 . S
C1955 C1956 1.349 . S
C1955 C1957 1.327 . S
C1955 H1978 0.950 . S
C1956 C1955 1.349 . S
C1956 C1968 1.349 . S
C1957 C1955 1.327 . S
C1957 C1973 1.429 . S
C1957 H1979 0.950 . S
C1958 H1954 0.949 . S
C1958 C1966 1.574 . S
C1958 C1974 1.368 . S
H1959 C1967 0.950 . S
H1960 C1965 0.950 . S
H1961 C1966 0.949 . S
H1962 C1968 0.950 . S
H1963 C1969 0.950 . S
H1964 C1970 0.949 . S
C1965 H1960 0.950 . S
C1965 C1967 1.327 . S
C1965 C1971 1.429 . S
C1966 C1958 1.574 . S
C1966 H1961 0.949 . S
C1966 C1972 1.368 . S
C1967 C1951 1.349 . S
C1967 H1959 0.950 . S
C1967 C1965 1.327 . S
C1968 C1956 1.349 . S
C1968 H1962 0.950 . S
C1968 C1969 1.327 . S
C1969 H1963 0.950 . S
C1969 C1968 1.327 . S
C1969 C1973 1.429 . S
C1970 C1953 1.574 . S
C1970 H1964 0.949 . S
C1970 C1974 1.368 . S
C1971 C1952 1.429 . S
C1971 C1965 1.429 . S
C1971 C1972 1.523 . S
C1972 C1953 1.368 . S
C1972 C1966 1.368 . S
C1972 C1971 1.523 . S
C1973 C1957 1.429 . S
C1973 C1969 1.429 . S
C1973 C1974 1.523 . S
C1974 C1958 1.368 . S
C1974 C1970 1.368 . S
C1974 C1973 1.523 . S
H1975 C1950 0.950 . S
H1976 C1952 0.950 . S
H1977 C1953 0.949 . S
H1978 C1955 0.950 . S
H1979 C1957 0.950 . S
C1980 C1981 1.349 . S
C1980 C1982 1.327 . S
C1980 H2005 0.950 . S
C1981 C1980 1.349 . S
C1981 C1997 1.349 . S
C1982 C1980 1.327 . S
C1982 C2001 1.429 . S
C1982 H2006 0.950 . S
C1983 C2000 1.574 . S
C1983 C2002 1.368 . S
C1983 H2007 0.949 . S
H1984 C1988 0.949 . S
C1985 C1986 1.349 . S
C1985 C1987 1.327 . S
C1985 H2008 0.950 . S
C1986 C1985 1.349 . S
C1986 C1998 1.349 . S
C1987 C1985 1.327 . S
C1987 C2003 1.429 . S
C1987 H2009 0.950 . S
C1988 H1984 0.949 . S
C1988 C1996 1.574 . S
C1988 C2004 1.368 . S
H1989 C1997 0.950 . S
H1990 C1995 0.950 . S
H1991 C1996 0.949 . S
H1992 C1998 0.950 . S
H1993 C1999 0.950 . S
H1994 C2000 0.949 . S
C1995 H1990 0.950 . S
C1995 C1997 1.327 . S
C1995 C2001 1.429 . S
C1996 C1988 1.574 . S
C1996 H1991 0.949 . S
C1996 C2002 1.368 . S
C1997 C1981 1.349 . S
C1997 H1989 0.950 . S
C1997 C1995 1.327 . S
C1998 C1986 1.349 . S
C1998 H1992 0.950 . S
C1998 C1999 1.327 . S
C1999 H1993 0.950 . S
C1999 C1998 1.327 . S
C1999 C2003 1.429 . S
C2000 C1983 1.574 . S
C2000 H1994 0.949 . S
C2000 C2004 1.368 . S
C2001 C1982 1.429 . S
C2001 C1995 1.429 . S
C2001 C2002 1.523 . S
C2002 C1983 1.368 . S
C2002 C1996 1.368 . S
C2002 C2001 1.523 . S
C2003 C1987 1.429 . S
C2003 C1999 1.429 . S
C2003 C2004 1.523 . S
C2004 C1988 1.368 . S
C2004 C2000 1.368 . S
C2004 C2003 1.523 . S
H2005 C1980 0.950 . S
H2006 C1982 0.950 . S
H2007 C1983 0.949 . S
H2008 C1985 0.950 . S
H2009 C1987 0.950 . S
C2010 C2011 1.349 . S
C2010 C2012 1.327 . S
C2010 H2035 0.950 . S
C2011 C2010 1.349 . S
C2011 C2027 1.349 . S
C2012 C2010 1.327 . S
C2012 C2031 1.429 . S
C2012 H2036 0.950 . S
C2013 C2030 1.574 . S
C2013 C2032 1.368 . S
C2013 H2037 0.949 . S
H2014 C2018 0.949 . S
C2015 C2016 1.349 . S
C2015 C2017 1.327 . S
C2015 H2038 0.950 . S
C2016 C2015 1.349 . S
C2016 C2028 1.349 . S
C2017 C2015 1.327 . S
C2017 C2033 1.429 . S
C2017 H2039 0.950 . S
C2018 H2014 0.949 . S
C2018 C2026 1.574 . S
C2018 C2034 1.368 . S
H2019 C2027 0.950 . S
H2020 C2025 0.950 . S
H2021 C2026 0.949 . S
H2022 C2028 0.950 . S
H2023 C2029 0.950 . S
H2024 C2030 0.949 . S
C2025 H2020 0.950 . S
C2025 C2027 1.327 . S
C2025 C2031 1.429 . S
C2026 C2018 1.574 . S
C2026 H2021 0.949 . S
C2026 C2032 1.368 . S
C2027 C2011 1.349 . S
C2027 H2019 0.950 . S
C2027 C2025 1.327 . S
C2028 C2016 1.349 . S
C2028 H2022 0.950 . S
C2028 C2029 1.327 . S
C2029 H2023 0.950 . S
C2029 C2028 1.327 . S
C2029 C2033 1.429 . S
C2030 C2013 1.574 . S
C2030 H2024 0.949 . S
C2030 C2034 1.368 . S
C2031 C2012 1.429 . S
C2031 C2025 1.429 . S
C2031 C2032 1.523 . S
C2032 C2013 1.368 . S
C2032 C2026 1.368 . S
C2032 C2031 1.523 . S
C2033 C2017 1.429 . S
C2033 C2029 1.429 . S
C2033 C2034 1.523 . S
C2034 C2018 1.368 . S
C2034 C2030 1.368 . S
C2034 C2033 1.523 . S
H2035 C2010 0.950 . S
H2036 C2012 0.950 . S
H2037 C2013 0.949 . S
H2038 C2015 0.950 . S
H2039 C2017 0.950 . S
C2040 C2041 1.349 . S
C2040 C2042 1.327 . S
C2040 H2065 0.950 . S
C2041 C2040 1.349 . S
C2041 C2057 1.349 . S
C2042 C2040 1.327 . S
C2042 C2061 1.429 . S
C2042 H2066 0.950 . S
C2043 C2060 1.574 . S
C2043 C2062 1.368 . S
C2043 H2067 0.949 . S
H2044 C2048 0.949 . S
C2045 C2046 1.349 . S
C2045 C2047 1.327 . S
C2045 H2068 0.950 . S
C2046 C2045 1.349 . S
C2046 C2058 1.349 . S
C2047 C2045 1.327 . S
C2047 C2063 1.429 . S
C2047 H2069 0.950 . S
C2048 H2044 0.949 . S
C2048 C2056 1.574 . S
C2048 C2064 1.368 . S
H2049 C2057 0.950 . S
H2050 C2055 0.950 . S
H2051 C2056 0.949 . S
H2052 C2058 0.950 . S
H2053 C2059 0.950 . S
H2054 C2060 0.949 . S
C2055 H2050 0.950 . S
C2055 C2057 1.327 . S
C2055 C2061 1.429 . S
C2056 C2048 1.574 . S
C2056 H2051 0.949 . S
C2056 C2062 1.368 . S
C2057 C2041 1.349 . S
C2057 H2049 0.950 . S
C2057 C2055 1.327 . S
C2058 C2046 1.349 . S
C2058 H2052 0.950 . S
C2058 C2059 1.327 . S
C2059 H2053 0.950 . S
C2059 C2058 1.327 . S
C2059 C2063 1.429 . S
C2060 C2043 1.574 . S
C2060 H2054 0.949 . S
C2060 C2064 1.368 . S
C2061 C2042 1.429 . S
C2061 C2055 1.429 . S
C2061 C2062 1.523 . S
C2062 C2043 1.368 . S
C2062 C2056 1.368 . S
C2062 C2061 1.523 . S
C2063 C2047 1.429 . S
C2063 C2059 1.429 . S
C2063 C2064 1.523 . S
C2064 C2048 1.368 . S
C2064 C2060 1.368 . S
C2064 C2063 1.523 . S
H2065 C2040 0.950 . S
H2066 C2042 0.950 . S
H2067 C2043 0.949 . S
H2068 C2045 0.950 . S
H2069 C2047 0.950 . S
C2070 C2071 1.349 . S
C2070 C2072 1.327 . S
C2070 H2095 0.950 . S
C2071 C2070 1.349 . S
C2071 C2087 1.349 . S
C2072 C2070 1.327 . S
C2072 C2091 1.429 . S
C2072 H2096 0.950 . S
C2073 C2090 1.574 . S
C2073 C2092 1.368 . S
C2073 H2097 0.949 . S
H2074 C2078 0.949 . S
C2075 C2076 1.349 . S
C2075 C2077 1.327 . S
C2075 H2098 0.950 . S
C2076 C2075 1.349 . S
C2076 C2088 1.349 . S
C2077 C2075 1.327 . S
C2077 C2093 1.429 . S
C2077 H2099 0.950 . S
C2078 H2074 0.949 . S
C2078 C2086 1.574 . S
C2078 C2094 1.368 . S
H2079 C2087 0.950 . S
H2080 C2085 0.950 . S
H2081 C2086 0.949 . S
H2082 C2088 0.950 . S
H2083 C2089 0.950 . S
H2084 C2090 0.949 . S
C2085 H2080 0.950 . S
C2085 C2087 1.327 . S
C2085 C2091 1.429 . S
C2086 C2078 1.574 . S
C2086 H2081 0.949 . S
C2086 C2092 1.368 . S
C2087 C2071 1.349 . S
C2087 H2079 0.950 . S
C2087 C2085 1.327 . S
C2088 C2076 1.349 . S
C2088 H2082 0.950 . S
C2088 C2089 1.327 . S
C2089 H2083 0.950 . S
C2089 C2088 1.327 . S
C2089 C2093 1.429 . S
C2090 C2073 1.574 . S
C2090 H2084 0.949 . S
C2090 C2094 1.368 . S
C2091 C2072 1.429 . S
C2091 C2085 1.429 . S
C2091 C2092 1.523 . S
C2092 C2073 1.368 . S
C2092 C2086 1.368 . S
C2092 C2091 1.523 . S
C2093 C2077 1.429 . S
C2093 C2089 1.429 . S
C2093 C2094 1.523 . S
C2094 C2078 1.368 . S
C2094 C2090 1.368 . S
C2094 C2093 1.523 . S
H2095 C2070 0.950 . S
H2096 C2072 0.950 . S
H2097 C2073 0.949 . S
H2098 C2075 0.950 . S
H2099 C2077 0.950 . S
C2100 C2101 1.349 . S
C2100 C2102 1.327 . S
C2100 H2125 0.950 . S
C2101 C2100 1.349 . S
C2101 C2117 1.349 . S
C2102 C2100 1.327 . S
C2102 C2121 1.429 . S
C2102 H2126 0.950 . S
C2103 C2120 1.574 . S
C2103 C2122 1.368 . S
C2103 H2127 0.949 . S
H2104 C2108 0.949 . S
C2105 C2106 1.349 . S
C2105 C2107 1.327 . S
C2105 H2128 0.950 . S
C2106 C2105 1.349 . S
C2106 C2118 1.349 . S
C2107 C2105 1.327 . S
C2107 C2123 1.429 . S
C2107 H2129 0.950 . S
C2108 H2104 0.949 . S
C2108 C2116 1.574 . S
C2108 C2124 1.368 . S
H2109 C2117 0.950 . S
H2110 C2115 0.950 . S
H2111 C2116 0.949 . S
H2112 C2118 0.950 . S
H2113 C2119 0.950 . S
H2114 C2120 0.949 . S
C2115 H2110 0.950 . S
C2115 C2117 1.327 . S
C2115 C2121 1.429 . S
C2116 C2108 1.574 . S
C2116 H2111 0.949 . S
C2116 C2122 1.368 . S
C2117 C2101 1.349 . S
C2117 H2109 0.950 . S
C2117 C2115 1.327 . S
C2118 C2106 1.349 . S
C2118 H2112 0.950 . S
C2118 C2119 1.327 . S
C2119 H2113 0.950 . S
C2119 C2118 1.327 . S
C2119 C2123 1.429 . S
C2120 C2103 1.574 . S
C2120 H2114 0.949 . S
C2120 C2124 1.368 . S
C2121 C2102 1.429 . S
C2121 C2115 1.429 . S
C2121 C2122 1.523 . S
C2122 C2103 1.368 . S
C2122 C2116 1.368 . S
C2122 C2121 1.523 . S
C2123 C2107 1.429 . S
C2123 C2119 1.429 . S
C2123 C2124 1.523 . S
C2124 C2108 1.368 . S
C2124 C2120 1.368 . S
C2124 C2123 1.523 . S
H2125 C2100 0.950 . S
H2126 C2102 0.950 . S
H2127 C2103 0.949 . S
H2128 C2105 0.950 . S
H2129 C2107 0.950 . S
C2130 C2131 1.349 . S
C2130 C2132 1.327 . S
C2130 H2155 0.950 . S
C2131 C2130 1.349 . S
C2131 C2147 1.349 . S
C2132 C2130 1.327 . S
C2132 C2151 1.429 . S
C2132 H2156 0.950 . S
C2133 C2150 1.574 . S
C2133 C2152 1.368 . S
C2133 H2157 0.949 . S
H2134 C2138 0.949 . S
C2135 C2136 1.349 . S
C2135 C2137 1.327 . S
C2135 H2158 0.950 . S
C2136 C2135 1.349 . S
C2136 C2148 1.349 . S
C2137 C2135 1.327 . S
C2137 C2153 1.429 1_554 S
C2137 H2159 0.929 1_554 S
C2138 H2134 0.949 . S
C2138 C2146 1.574 . S
C2138 C2154 1.368 . S
H2139 C2147 0.950 . S
H2140 C2145 0.950 . S
H2141 C2146 0.949 . S
H2142 C2148 0.950 . S
H2143 C2149 0.943 1_556 S
H2144 C2150 0.949 . S
C2145 H2140 0.950 . S
C2145 C2147 1.327 . S
C2145 C2151 1.429 . S
C2146 C2138 1.574 . S
C2146 H2141 0.949 . S
C2146 C2152 1.368 . S
C2147 C2131 1.349 . S
C2147 H2139 0.950 . S
C2147 C2145 1.327 . S
C2148 C2136 1.349 . S
C2148 H2142 0.950 . S
C2148 C2149 1.327 . S
C2149 H2143 0.943 1_554 S
C2149 C2148 1.327 . S
C2149 C2153 1.429 1_554 S
C2150 C2133 1.574 . S
C2150 H2144 0.949 . S
C2150 C2154 1.368 . S
C2151 C2132 1.429 . S
C2151 C2145 1.429 . S
C2151 C2152 1.523 . S
C2152 C2133 1.368 . S
C2152 C2146 1.368 . S
C2152 C2151 1.523 . S
C2153 C2137 1.429 1_556 S
C2153 C2149 1.429 1_556 S
C2153 C2154 1.523 . S
C2154 C2138 1.368 . S
C2154 C2150 1.368 . S
C2154 C2153 1.523 . S
H2155 C2130 0.950 . S
H2156 C2132 0.950 . S
H2157 C2133 0.949 . S
H2158 C2135 0.950 . S
H2159 C2137 0.929 1_556 S
C2160 C2161 1.349 . S
C2160 C2162 1.327 . S
C2160 H2185 0.950 . S
C2161 C2160 1.349 . S
C2161 C2177 1.349 . S
C2162 C2160 1.327 . S
C2162 C2181 1.429 1_545 S
C2162 H2186 0.950 . S
C2163 C2180 1.574 . S
C2163 C2182 1.368 . S
C2163 H2187 0.949 . S
H2164 C2168 0.949 . S
C2165 C2166 1.349 . S
C2165 C2167 1.327 . S
C2165 H2188 0.950 . S
C2166 C2165 1.349 . S
C2166 C2178 1.349 . S
C2167 C2165 1.327 . S
C2167 C2183 1.429 . S
C2167 H2189 0.950 . S
C2168 H2164 0.949 . S
C2168 C2176 1.574 . S
C2168 C2184 1.368 . S
H2169 C2177 0.950 . S
H2170 C2175 0.950 1_565 S
H2171 C2176 0.949 . S
H2172 C2178 0.950 . S
H2173 C2179 0.950 . S
H2174 C2180 0.949 . S
C2175 H2170 0.950 1_545 S
C2175 C2177 1.327 . S
C2175 C2181 1.429 1_545 S
C2176 C2168 1.574 . S
C2176 H2171 0.949 . S
C2176 C2182 1.368 . S
C2177 C2161 1.349 . S
C2177 H2169 0.950 . S
C2177 C2175 1.327 . S
C2178 C2166 1.349 . S
C2178 H2172 0.950 . S
C2178 C2179 1.327 . S
C2179 H2173 0.950 . S
C2179 C2178 1.327 . S
C2179 C2183 1.429 . S
C2180 C2163 1.574 . S
C2180 H2174 0.949 . S
C2180 C2184 1.368 . S
C2181 C2162 1.429 1_565 S
C2181 C2175 1.429 1_565 S
C2181 C2182 1.523 . S
C2182 C2163 1.368 . S
C2182 C2176 1.368 . S
C2182 C2181 1.523 . S
C2183 C2167 1.429 . S
C2183 C2179 1.429 . S
C2183 C2184 1.523 . S
C2184 C2168 1.368 . S
C2184 C2180 1.368 . S
C2184 C2183 1.523 . S
H2185 C2160 0.950 . S
H2186 C2162 0.950 . S
H2187 C2163 0.949 . S
H2188 C2165 0.950 . S
H2189 C2167 0.950 . S
C2190 C2191 1.349 . S
C2190 C2192 1.327 . S
C2190 H2215 0.950 . S
C2191 C2190 1.349 . S
C2191 C2207 1.349 . S
C2192 C2190 1.327 . S
C2192 C2211 1.429 . S
C2192 H2216 0.950 . S
C2193 C2210 1.574 . S
C2193 C2212 1.368 . S
C2193 H2217 0.949 . S
H2194 C2198 0.949 . S
C2195 C2196 1.349 . S
C2195 C2197 1.327 . S
C2195 H2218 0.950 . S
C2196 C2195 1.349 . S
C2196 C2208 1.349 . S
C2197 C2195 1.327 . S
C2197 C2213 1.429 . S
C2197 H2219 0.950 . S
C2198 H2194 0.949 . S
C2198 C2206 1.574 . S
C2198 C2214 1.368 . S
H2199 C2207 0.950 . S
H2200 C2205 0.950 . S
H2201 C2206 0.949 . S
H2202 C2208 0.950 . S
H2203 C2209 0.950 . S
H2204 C2210 0.949 . S
C2205 H2200 0.950 . S
C2205 C2207 1.327 . S
C2205 C2211 1.429 . S
C2206 C2198 1.574 . S
C2206 H2201 0.949 . S
C2206 C2212 1.368 . S
C2207 C2191 1.349 . S
C2207 H2199 0.950 . S
C2207 C2205 1.327 . S
C2208 C2196 1.349 . S
C2208 H2202 0.950 . S
C2208 C2209 1.327 . S
C2209 H2203 0.950 . S
C2209 C2208 1.327 . S
C2209 C2213 1.429 . S
C2210 C2193 1.574 . S
C2210 H2204 0.949 . S
C2210 C2214 1.368 . S
C2211 C2192 1.429 . S
C2211 C2205 1.429 . S
C2211 C2212 1.523 . S
C2212 C2193 1.368 . S
C2212 C2206 1.368 . S
C2212 C2211 1.523 . S
C2213 C2197 1.429 . S
C2213 C2209 1.429 . S
C2213 C2214 1.523 . S
C2214 C2198 1.368 . S
C2214 C2210 1.368 . S
C2214 C2213 1.523 . S
H2215 C2190 0.950 . S
H2216 C2192 0.950 . S
H2217 C2193 0.949 . S
H2218 C2195 0.950 . S
H2219 C2197 0.950 . S
C2220 C2221 1.349 . S
C2220 C2222 1.327 . S
C2220 H2245 0.950 . S
C2221 C2220 1.349 . S
C2221 C2237 1.349 . S
C2222 C2220 1.327 . S
C2222 C2241 1.429 . S
C2222 H2246 0.950 . S
C2223 C2240 1.573 1_545 S
C2223 C2242 1.368 . S
C2223 H2247 0.949 1_545 S
H2224 C2228 0.949 . S
C2225 C2226 1.307 1_565 S
C2225 C2227 1.327 . S
C2225 H2248 0.950 . S
C2226 C2225 1.307 1_545 S
C2226 C2238 1.407 . S
C2227 C2225 1.327 . S
C2227 C2243 1.429 1_565 S
C2227 H2249 0.950 . S
C2228 H2224 0.949 . S
C2228 C2236 1.574 . S
C2228 C2244 1.368 . S
H2229 C2237 0.950 . S
H2230 C2235 1.014 . S
H2231 C2236 0.949 . S
H2232 C2238 0.950 . S
H2233 C2239 0.950 . S
H2234 C2240 0.951 . S
C2235 H2230 1.014 . S
C2235 C2237 1.327 . S
C2235 C2241 1.429 . S
C2236 C2228 1.574 . S
C2236 H2231 0.949 . S
C2236 C2242 1.368 . S
C2237 C2221 1.349 . S
C2237 H2229 0.950 . S
C2237 C2235 1.327 . S
C2238 C2226 1.407 . S
C2238 H2232 0.950 . S
C2238 C2239 1.327 . S
C2239 H2233 0.950 . S
C2239 C2238 1.327 . S
C2239 C2243 1.429 . S
C2240 C2223 1.573 1_565 S
C2240 H2234 0.951 . S
C2240 C2244 1.367 1_565 S
C2241 C2222 1.429 . S
C2241 C2235 1.429 . S
C2241 C2242 1.523 . S
C2242 C2223 1.368 . S
C2242 C2236 1.368 . S
C2242 C2241 1.523 . S
C2243 C2227 1.429 1_545 S
C2243 C2239 1.429 . S
C2243 C2244 1.523 . S
C2244 C2228 1.368 . S
C2244 C2240 1.367 1_545 S
C2244 C2243 1.523 . S
H2245 C2220 0.950 . S
H2246 C2222 0.950 . S
H2247 C2223 0.949 1_565 S
H2248 C2225 0.950 . S
H2249 C2227 0.950 . S
C2250 C2251 1.349 . S
C2250 C2252 1.327 . S
C2250 H2275 0.950 . S
C2251 C2250 1.349 . S
C2251 C2267 1.349 . S
C2252 C2250 1.327 . S
C2252 C2271 1.429 . S
C2252 H2276 0.950 . S
C2253 C2270 1.574 . S
C2253 C2272 1.368 . S
C2253 H2277 0.949 . S
H2254 C2258 0.949 . S
C2255 C2256 1.349 . S
C2255 C2257 1.327 . S
C2255 H2278 0.950 . S
C2256 C2255 1.349 . S
C2256 C2268 1.349 . S
C2257 C2255 1.327 . S
C2257 C2273 1.429 . S
C2257 H2279 0.950 . S
C2258 H2254 0.949 . S
C2258 C2266 1.574 . S
C2258 C2274 1.368 . S
H2259 C2267 0.950 . S
H2260 C2265 0.950 . S
H2261 C2266 0.949 . S
H2262 C2268 0.950 . S
H2263 C2269 0.950 . S
H2264 C2270 0.949 . S
C2265 H2260 0.950 . S
C2265 C2267 1.327 . S
C2265 C2271 1.429 . S
C2266 C2258 1.574 . S
C2266 H2261 0.949 . S
C2266 C2272 1.368 . S
C2267 C2251 1.349 . S
C2267 H2259 0.950 . S
C2267 C2265 1.327 . S
C2268 C2256 1.349 . S
C2268 H2262 0.950 . S
C2268 C2269 1.327 . S
C2269 H2263 0.950 . S
C2269 C2268 1.327 . S
C2269 C2273 1.429 . S
C2270 C2253 1.574 . S
C2270 H2264 0.949 . S
C2270 C2274 1.368 . S
C2271 C2252 1.429 . S
C2271 C2265 1.429 . S
C2271 C2272 1.523 . S
C2272 C2253 1.368 . S
C2272 C2266 1.368 . S
C2272 C2271 1.523 . S
C2273 C2257 1.429 . S
C2273 C2269 1.429 . S
C2273 C2274 1.523 . S
C2274 C2258 1.368 . S
C2274 C2270 1.368 . S
C2274 C2273 1.523 . S
H2275 C2250 0.950 . S
H2276 C2252 0.950 . S
H2277 C2253 0.949 . S
H2278 C2255 0.950 . S
H2279 C2257 0.950 . S
C2280 C2281 1.411 . S
C2280 C2282 1.327 . S
C2280 H2305 0.950 . S
C2281 C2280 1.411 . S
C2281 C2297 1.302 1_554 S
C2282 C2280 1.327 . S
C2282 C2301 1.429 . S
C2282 H2306 0.950 . S
C2283 C2300 1.559 1_556 S
C2283 C2302 1.303 1_556 S
C2283 H2307 1.027 . S
H2284 C2288 0.949 . S
C2285 C2286 1.349 . S
C2285 C2287 1.327 . S
C2285 H2308 0.950 . S
C2286 C2285 1.349 . S
C2286 C2298 1.349 . S
C2287 C2285 1.327 . S
C2287 C2303 1.429 . S
C2287 H2309 0.917 1_554 S
C2288 H2284 0.949 . S
C2288 C2296 1.574 . S
C2288 C2304 1.368 . S
H2289 C2297 0.950 . S
H2290 C2295 0.950 . S
H2291 C2296 0.949 . S
H2292 C2298 0.950 . S
H2293 C2299 0.950 . S
H2294 C2300 0.949 1_556 S
C2295 H2290 0.950 . S
C2295 C2297 1.327 . S
C2295 C2301 1.429 1_556 S
C2296 C2288 1.574 . S
C2296 H2291 0.949 . S
C2296 C2302 1.368 . S
C2297 C2281 1.302 1_556 S
C2297 H2289 0.950 . S
C2297 C2295 1.327 . S
C2298 C2286 1.349 . S
C2298 H2292 0.950 . S
C2298 C2299 1.327 . S
C2299 H2293 0.950 . S
C2299 C2298 1.327 . S
C2299 C2303 1.429 . S
C2300 C2283 1.559 1_554 S
C2300 H2294 0.949 1_554 S
C2300 C2304 1.368 . S
C2301 C2282 1.429 . S
C2301 C2295 1.429 1_554 S
C2301 C2302 1.523 . S
C2302 C2283 1.303 1_554 S
C2302 C2296 1.368 . S
C2302 C2301 1.523 . S
C2303 C2287 1.429 . S
C2303 C2299 1.429 . S
C2303 C2304 1.523 . S
C2304 C2288 1.368 . S
C2304 C2300 1.368 . S
C2304 C2303 1.523 . S
H2305 C2280 0.950 . S
H2306 C2282 0.950 . S
H2307 C2283 1.027 . S
H2308 C2285 0.950 . S
H2309 C2287 0.917 1_556 S
C2310 C2311 1.349 . S
C2310 C2312 1.327 . S
C2310 H2335 0.950 . S
C2311 C2310 1.349 . S
C2311 C2327 1.349 . S
C2312 C2310 1.327 . S
C2312 C2331 1.429 . S
C2312 H2336 0.950 . S
C2313 C2330 1.574 . S
C2313 C2332 1.368 . S
C2313 H2337 0.949 . S
H2314 C2318 0.949 . S
C2315 C2316 1.349 . S
C2315 C2317 1.327 . S
C2315 H2338 0.950 . S
C2316 C2315 1.349 . S
C2316 C2328 1.349 . S
C2317 C2315 1.327 . S
C2317 C2333 1.429 . S
C2317 H2339 0.950 . S
C2318 H2314 0.949 . S
C2318 C2326 1.574 . S
C2318 C2334 1.368 . S
H2319 C2327 0.950 . S
H2320 C2325 0.950 . S
H2321 C2326 0.949 . S
H2322 C2328 0.950 . S
H2323 C2329 0.950 . S
H2324 C2330 0.949 . S
C2325 H2320 0.950 . S
C2325 C2327 1.327 . S
C2325 C2331 1.429 . S
C2326 C2318 1.574 . S
C2326 H2321 0.949 . S
C2326 C2332 1.368 . S
C2327 C2311 1.349 . S
C2327 H2319 0.950 . S
C2327 C2325 1.327 . S
C2328 C2316 1.349 . S
C2328 H2322 0.950 . S
C2328 C2329 1.327 . S
C2329 H2323 0.950 . S
C2329 C2328 1.327 . S
C2329 C2333 1.429 . S
C2330 C2313 1.574 . S
C2330 H2324 0.949 . S
C2330 C2334 1.368 . S
C2331 C2312 1.429 . S
C2331 C2325 1.429 . S
C2331 C2332 1.523 . S
C2332 C2313 1.368 . S
C2332 C2326 1.368 . S
C2332 C2331 1.523 . S
C2333 C2317 1.429 . S
C2333 C2329 1.429 . S
C2333 C2334 1.523 . S
C2334 C2318 1.368 . S
C2334 C2330 1.368 . S
C2334 C2333 1.523 . S
H2335 C2310 0.950 . S
H2336 C2312 0.950 . S
H2337 C2313 0.949 . S
H2338 C2315 0.950 . S
H2339 C2317 0.950 . S
C2340 C2341 1.349 . S
C2340 C2342 1.327 . S
C2340 H2365 0.950 . S
C2341 C2340 1.349 . S
C2341 C2357 1.349 . S
C2342 C2340 1.327 . S
C2342 C2361 1.429 . S
C2342 H2366 0.950 . S
C2343 C2360 1.574 . S
C2343 C2362 1.368 . S
C2343 H2367 0.949 . S
H2344 C2348 0.949 . S
C2345 C2346 1.349 . S
C2345 C2347 1.327 . S
C2345 H2368 0.950 . S
C2346 C2345 1.349 . S
C2346 C2358 1.349 . S
C2347 C2345 1.327 . S
C2347 C2363 1.429 . S
C2347 H2369 0.950 . S
C2348 H2344 0.949 . S
C2348 C2356 1.574 . S
C2348 C2364 1.368 . S
H2349 C2357 0.950 . S
H2350 C2355 0.950 . S
H2351 C2356 0.949 . S
H2352 C2358 0.950 . S
H2353 C2359 0.950 . S
H2354 C2360 0.949 . S
C2355 H2350 0.950 . S
C2355 C2357 1.327 . S
C2355 C2361 1.429 . S
C2356 C2348 1.574 . S
C2356 H2351 0.949 . S
C2356 C2362 1.368 . S
C2357 C2341 1.349 . S
C2357 H2349 0.950 . S
C2357 C2355 1.327 . S
C2358 C2346 1.349 . S
C2358 H2352 0.950 . S
C2358 C2359 1.327 . S
C2359 H2353 0.950 . S
C2359 C2358 1.327 . S
C2359 C2363 1.429 . S
C2360 C2343 1.574 . S
C2360 H2354 0.949 . S
C2360 C2364 1.368 . S
C2361 C2342 1.429 . S
C2361 C2355 1.429 . S
C2361 C2362 1.523 . S
C2362 C2343 1.368 . S
C2362 C2356 1.368 . S
C2362 C2361 1.523 . S
C2363 C2347 1.429 . S
C2363 C2359 1.429 . S
C2363 C2364 1.523 . S
C2364 C2348 1.368 . S
C2364 C2360 1.368 . S
C2364 C2363 1.523 . S
H2365 C2340 0.950 . S
H2366 C2342 0.950 . S
H2367 C2343 0.949 . S
H2368 C2345 0.950 . S
H2369 C2347 0.950 . S
C2370 C2371 1.322 1_655 S
C2370 C2372 1.327 . S
C2370 H2395 0.950 . S
C2371 C2370 1.322 1_455 S
C2371 C2387 1.393 . S
C2372 C2370 1.327 . S
C2372 C2391 1.429 1_655 S
C2372 H2396 0.950 . S
C2373 C2390 1.574 . S
C2373 C2392 1.368 . S
C2373 H2397 0.949 . S
H2374 C2378 0.949 . S
C2375 C2376 1.349 . S
C2375 C2377 1.327 . S
C2375 H2398 0.950 . S
C2376 C2375 1.349 . S
C2376 C2388 1.349 . S
C2377 C2375 1.327 . S
C2377 C2393 1.429 . S
C2377 H2399 0.950 . S
C2378 H2374 0.949 . S
C2378 C2386 1.574 . S
C2378 C2394 1.368 . S
H2379 C2387 0.950 . S
H2380 C2385 0.950 . S
H2381 C2386 0.949 1_655 S
H2382 C2388 0.950 . S
H2383 C2389 0.950 . S
H2384 C2390 0.949 . S
C2385 H2380 0.950 . S
C2385 C2387 1.327 . S
C2385 C2391 1.429 . S
C2386 C2378 1.574 . S
C2386 H2381 0.949 1_455 S
C2386 C2392 1.368 . S
C2387 C2371 1.393 . S
C2387 H2379 0.950 . S
C2387 C2385 1.327 . S
C2388 C2376 1.349 . S
C2388 H2382 0.950 . S
C2388 C2389 1.327 . S
C2389 H2383 0.950 . S
C2389 C2388 1.327 . S
C2389 C2393 1.429 . S
C2390 C2373 1.574 . S
C2390 H2384 0.949 . S
C2390 C2394 1.368 . S
C2391 C2372 1.429 1_455 S
C2391 C2385 1.429 . S
C2391 C2392 1.523 . S
C2392 C2373 1.368 . S
C2392 C2386 1.368 . S
C2392 C2391 1.523 . S
C2393 C2377 1.429 . S
C2393 C2389 1.429 . S
C2393 C2394 1.523 . S
C2394 C2378 1.368 . S
C2394 C2390 1.368 . S
C2394 C2393 1.523 . S
H2395 C2370 0.950 . S
H2396 C2372 0.950 . S
H2397 C2373 0.949 . S
H2398 C2375 0.950 . S
H2399 C2377 0.950 . S
C2400 C2401 1.349 . S
C2400 C2402 1.327 . S
C2400 H2425 0.950 . S
C2401 C2400 1.349 . S
C2401 C2417 1.349 . S
C2402 C2400 1.327 . S
C2402 C2421 1.429 . S
C2402 H2426 0.950 . S
C2403 C2420 1.574 . S
C2403 C2422 1.368 . S
C2403 H2427 0.949 . S
H2404 C2408 0.949 . S
C2405 C2406 1.349 . S
C2405 C2407 1.327 . S
C2405 H2428 0.950 . S
C2406 C2405 1.349 . S
C2406 C2418 1.349 . S
C2407 C2405 1.327 . S
C2407 C2423 1.429 . S
C2407 H2429 0.950 . S
C2408 H2404 0.949 . S
C2408 C2416 1.574 . S
C2408 C2424 1.368 . S
H2409 C2417 0.950 . S
H2410 C2415 0.950 . S
H2411 C2416 0.949 . S
H2412 C2418 0.950 . S
H2413 C2419 0.950 . S
H2414 C2420 0.949 . S
C2415 H2410 0.950 . S
C2415 C2417 1.327 . S
C2415 C2421 1.429 . S
C2416 C2408 1.574 . S
C2416 H2411 0.949 . S
C2416 C2422 1.368 . S
C2417 C2401 1.349 . S
C2417 H2409 0.950 . S
C2417 C2415 1.327 . S
C2418 C2406 1.349 . S
C2418 H2412 0.950 . S
C2418 C2419 1.327 . S
C2419 H2413 0.950 . S
C2419 C2418 1.327 . S
C2419 C2423 1.429 . S
C2420 C2403 1.574 . S
C2420 H2414 0.949 . S
C2420 C2424 1.368 . S
C2421 C2402 1.429 . S
C2421 C2415 1.429 . S
C2421 C2422 1.523 . S
C2422 C2403 1.368 . S
C2422 C2416 1.368 . S
C2422 C2421 1.523 . S
C2423 C2407 1.429 . S
C2423 C2419 1.429 . S
C2423 C2424 1.523 . S
C2424 C2408 1.368 . S
C2424 C2420 1.368 . S
C2424 C2423 1.523 . S
H2425 C2400 0.950 . S
H2426 C2402 0.950 . S
H2427 C2403 0.949 . S
H2428 C2405 0.950 . S
H2429 C2407 0.950 . S
C2430 C2431 1.349 . S
C2430 C2432 1.327 . S
C2430 H2455 0.950 . S
C2431 C2430 1.349 . S
C2431 C2447 1.349 . S
C2432 C2430 1.327 . S
C2432 C2451 1.429 . S
C2432 H2456 0.950 . S
C2433 C2450 1.574 . S
C2433 C2452 1.368 . S
C2433 H2457 0.949 . S
H2434 C2438 0.949 . S
C2435 C2436 1.349 . S
C2435 C2437 1.327 . S
C2435 H2458 0.950 . S
C2436 C2435 1.349 . S
C2436 C2448 1.349 . S
C2437 C2435 1.327 . S
C2437 C2453 1.429 . S
C2437 H2459 0.950 . S
C2438 H2434 0.949 . S
C2438 C2446 1.574 . S
C2438 C2454 1.368 . S
H2439 C2447 0.950 . S
H2440 C2445 0.950 . S
H2441 C2446 0.949 . S
H2442 C2448 0.950 . S
H2443 C2449 0.950 . S
H2444 C2450 0.949 . S
C2445 H2440 0.950 . S
C2445 C2447 1.327 . S
C2445 C2451 1.429 . S
C2446 C2438 1.574 . S
C2446 H2441 0.949 . S
C2446 C2452 1.368 . S
C2447 C2431 1.349 . S
C2447 H2439 0.950 . S
C2447 C2445 1.327 . S
C2448 C2436 1.349 . S
C2448 H2442 0.950 . S
C2448 C2449 1.327 . S
C2449 H2443 0.950 . S
C2449 C2448 1.327 . S
C2449 C2453 1.429 . S
C2450 C2433 1.574 . S
C2450 H2444 0.949 . S
C2450 C2454 1.368 . S
C2451 C2432 1.429 . S
C2451 C2445 1.429 . S
C2451 C2452 1.523 . S
C2452 C2433 1.368 . S
C2452 C2446 1.368 . S
C2452 C2451 1.523 . S
C2453 C2437 1.429 . S
C2453 C2449 1.429 . S
C2453 C2454 1.523 . S
C2454 C2438 1.368 . S
C2454 C2450 1.368 . S
C2454 C2453 1.523 . S
H2455 C2430 0.950 . S
H2456 C2432 0.950 . S
H2457 C2433 0.949 . S
H2458 C2435 0.950 . S
H2459 C2437 0.950 . S
C2460 C2461 1.349 . S
C2460 C2462 1.327 . S
C2460 H2485 0.950 . S
C2461 C2460 1.349 . S
C2461 C2477 1.349 . S
C2462 C2460 1.327 . S
C2462 C2481 1.429 . S
C2462 H2486 0.950 . S
C2463 C2480 1.574 . S
C2463 C2482 1.368 . S
C2463 H2487 0.949 . S
H2464 C2468 0.949 . S
C2465 C2466 1.349 . S
C2465 C2467 1.327 . S
C2465 H2488 0.950 . S
C2466 C2465 1.349 . S
C2466 C2478 1.349 . S
C2467 C2465 1.327 . S
C2467 C2483 1.429 . S
C2467 H2489 0.950 . S
C2468 H2464 0.949 . S
C2468 C2476 1.574 . S
C2468 C2484 1.368 . S
H2469 C2477 0.950 . S
H2470 C2475 0.950 . S
H2471 C2476 0.949 . S
H2472 C2478 0.950 . S
H2473 C2479 0.950 . S
H2474 C2480 0.949 . S
C2475 H2470 0.950 . S
C2475 C2477 1.327 . S
C2475 C2481 1.429 . S
C2476 C2468 1.574 . S
C2476 H2471 0.949 . S
C2476 C2482 1.368 . S
C2477 C2461 1.349 . S
C2477 H2469 0.950 . S
C2477 C2475 1.327 . S
C2478 C2466 1.349 . S
C2478 H2472 0.950 . S
C2478 C2479 1.327 . S
C2479 H2473 0.950 . S
C2479 C2478 1.327 . S
C2479 C2483 1.429 . S
C2480 C2463 1.574 . S
C2480 H2474 0.949 . S
C2480 C2484 1.368 . S
C2481 C2462 1.429 . S
C2481 C2475 1.429 . S
C2481 C2482 1.523 . S
C2482 C2463 1.368 . S
C2482 C2476 1.368 . S
C2482 C2481 1.523 . S
C2483 C2467 1.429 . S
C2483 C2479 1.429 . S
C2483 C2484 1.523 . S
C2484 C2468 1.368 . S
C2484 C2480 1.368 . S
C2484 C2483 1.523 . S
H2485 C2460 0.950 . S
H2486 C2462 0.950 . S
H2487 C2463 0.949 . S
H2488 C2465 0.950 . S
H2489 C2467 0.950 . S
C2490 C2491 1.349 . S
C2490 C2492 1.327 . S
C2490 H2515 0.950 . S
C2491 C2490 1.349 . S
C2491 C2507 1.349 . S
C2492 C2490 1.327 . S
C2492 C2511 1.429 . S
C2492 H2516 0.950 . S
C2493 C2510 1.574 . S
C2493 C2512 1.368 . S
C2493 H2517 0.949 . S
H2494 C2498 0.949 . S
C2495 C2496 1.349 . S
C2495 C2497 1.327 . S
C2495 H2518 0.950 . S
C2496 C2495 1.349 . S
C2496 C2508 1.349 . S
C2497 C2495 1.327 . S
C2497 C2513 1.429 . S
C2497 H2519 0.950 . S
C2498 H2494 0.949 . S
C2498 C2506 1.574 . S
C2498 C2514 1.368 . S
H2499 C2507 0.950 . S
H2500 C2505 0.950 . S
H2501 C2506 0.949 . S
H2502 C2508 0.950 . S
H2503 C2509 0.950 . S
H2504 C2510 0.949 . S
C2505 H2500 0.950 . S
C2505 C2507 1.327 . S
C2505 C2511 1.429 . S
C2506 C2498 1.574 . S
C2506 H2501 0.949 . S
C2506 C2512 1.368 . S
C2507 C2491 1.349 . S
C2507 H2499 0.950 . S
C2507 C2505 1.327 . S
C2508 C2496 1.349 . S
C2508 H2502 0.950 . S
C2508 C2509 1.327 . S
C2509 H2503 0.950 . S
C2509 C2508 1.327 . S
C2509 C2513 1.429 . S
C2510 C2493 1.574 . S
C2510 H2504 0.949 . S
C2510 C2514 1.368 . S
C2511 C2492 1.429 . S
C2511 C2505 1.429 . S
C2511 C2512 1.523 . S
C2512 C2493 1.368 . S
C2512 C2506 1.368 . S
C2512 C2511 1.523 . S
C2513 C2497 1.429 . S
C2513 C2509 1.429 . S
C2513 C2514 1.523 . S
C2514 C2498 1.368 . S
C2514 C2510 1.368 . S
C2514 C2513 1.523 . S
H2515 C2490 0.950 . S
H2516 C2492 0.950 . S
H2517 C2493 0.949 . S
H2518 C2495 0.950 . S
H2519 C2497 0.950 . S
C2520 C2521 1.349 . S
C2520 C2522 1.327 . S
C2520 H2545 0.950 . S
C2521 C2520 1.349 . S
C2521 C2537 1.349 . S
C2522 C2520 1.327 . S
C2522 C2541 1.429 . S
C2522 H2546 0.950 . S
C2523 C2540 1.574 . S
C2523 C2542 1.368 . S
C2523 H2547 0.949 . S
H2524 C2528 0.949 . S
C2525 C2526 1.349 . S
C2525 C2527 1.327 . S
C2525 H2548 0.950 . S
C2526 C2525 1.349 . S
C2526 C2538 1.349 . S
C2527 C2525 1.327 . S
C2527 C2543 1.429 . S
C2527 H2549 0.950 . S
C2528 H2524 0.949 . S
C2528 C2536 1.574 . S
C2528 C2544 1.368 . S
H2529 C2537 0.950 . S
H2530 C2535 0.950 . S
H2531 C2536 0.949 . S
H2532 C2538 0.950 . S
H2533 C2539 0.950 . S
H2534 C2540 0.949 . S
C2535 H2530 0.950 . S
C2535 C2537 1.327 . S
C2535 C2541 1.429 . S
C2536 C2528 1.574 . S
C2536 H2531 0.949 . S
C2536 C2542 1.368 . S
C2537 C2521 1.349 . S
C2537 H2529 0.950 . S
C2537 C2535 1.327 . S
C2538 C2526 1.349 . S
C2538 H2532 0.950 . S
C2538 C2539 1.327 . S
C2539 H2533 0.950 . S
C2539 C2538 1.327 . S
C2539 C2543 1.429 . S
C2540 C2523 1.574 . S
C2540 H2534 0.949 . S
C2540 C2544 1.368 . S
C2541 C2522 1.429 . S
C2541 C2535 1.429 . S
C2541 C2542 1.523 . S
C2542 C2523 1.368 . S
C2542 C2536 1.368 . S
C2542 C2541 1.523 . S
C2543 C2527 1.429 . S
C2543 C2539 1.429 . S
C2543 C2544 1.523 . S
C2544 C2528 1.368 . S
C2544 C2540 1.368 . S
C2544 C2543 1.523 . S
H2545 C2520 0.950 . S
H2546 C2522 0.950 . S
H2547 C2523 0.949 . S
H2548 C2525 0.950 . S
H2549 C2527 0.950 . S
C2550 C2551 1.349 . S
C2550 C2552 1.327 . S
C2550 H2575 0.950 . S
C2551 C2550 1.349 . S
C2551 C2567 1.349 . S
C2552 C2550 1.327 . S
C2552 C2571 1.429 . S
C2552 H2576 0.950 . S
C2553 C2570 1.574 . S
C2553 C2572 1.368 . S
C2553 H2577 0.949 . S
H2554 C2558 0.949 . S
C2555 C2556 1.349 . S
C2555 C2557 1.327 . S
C2555 H2578 0.950 . S
C2556 C2555 1.349 . S
C2556 C2568 1.349 . S
C2557 C2555 1.327 . S
C2557 C2573 1.429 . S
C2557 H2579 0.950 . S
C2558 H2554 0.949 . S
C2558 C2566 1.574 . S
C2558 C2574 1.368 . S
H2559 C2567 0.950 . S
H2560 C2565 0.950 . S
H2561 C2566 0.949 . S
H2562 C2568 0.950 . S
H2563 C2569 0.950 . S
H2564 C2570 0.949 . S
C2565 H2560 0.950 . S
C2565 C2567 1.327 . S
C2565 C2571 1.429 . S
C2566 C2558 1.574 . S
C2566 H2561 0.949 . S
C2566 C2572 1.368 . S
C2567 C2551 1.349 . S
C2567 H2559 0.950 . S
C2567 C2565 1.327 . S
C2568 C2556 1.349 . S
C2568 H2562 0.950 . S
C2568 C2569 1.327 . S
C2569 H2563 0.950 . S
C2569 C2568 1.327 . S
C2569 C2573 1.429 . S
C2570 C2553 1.574 . S
C2570 H2564 0.949 . S
C2570 C2574 1.368 . S
C2571 C2552 1.429 . S
C2571 C2565 1.429 . S
C2571 C2572 1.523 . S
C2572 C2553 1.368 . S
C2572 C2566 1.368 . S
C2572 C2571 1.523 . S
C2573 C2557 1.429 . S
C2573 C2569 1.429 . S
C2573 C2574 1.523 . S
C2574 C2558 1.368 . S
C2574 C2570 1.368 . S
C2574 C2573 1.523 . S
H2575 C2550 0.950 . S
H2576 C2552 0.950 . S
H2577 C2553 0.949 . S
H2578 C2555 0.950 . S
H2579 C2557 0.950 . S
C2580 C2581 1.349 . S
C2580 C2582 1.327 . S
C2580 H2605 0.950 . S
C2581 C2580 1.349 . S
C2581 C2597 1.349 . S
C2582 C2580 1.327 . S
C2582 C2601 1.429 . S
C2582 H2606 0.950 . S
C2583 C2600 1.574 . S
C2583 C2602 1.368 . S
C2583 H2607 0.949 . S
H2584 C2588 0.949 . S
C2585 C2586 1.349 . S
C2585 C2587 1.327 . S
C2585 H2608 0.950 . S
C2586 C2585 1.349 . S
C2586 C2598 1.349 . S
C2587 C2585 1.327 . S
C2587 C2603 1.429 . S
C2587 H2609 0.950 . S
C2588 H2584 0.949 . S
C2588 C2596 1.574 . S
C2588 C2604 1.368 . S
H2589 C2597 0.950 . S
H2590 C2595 0.950 . S
H2591 C2596 0.949 . S
H2592 C2598 0.950 . S
H2593 C2599 0.950 . S
H2594 C2600 0.949 . S
C2595 H2590 0.950 . S
C2595 C2597 1.327 . S
C2595 C2601 1.429 . S
C2596 C2588 1.574 . S
C2596 H2591 0.949 . S
C2596 C2602 1.368 . S
C2597 C2581 1.349 . S
C2597 H2589 0.950 . S
C2597 C2595 1.327 . S
C2598 C2586 1.349 . S
C2598 H2592 0.950 . S
C2598 C2599 1.327 . S
C2599 H2593 0.950 . S
C2599 C2598 1.327 . S
C2599 C2603 1.429 . S
C2600 C2583 1.574 . S
C2600 H2594 0.949 . S
C2600 C2604 1.368 . S
C2601 C2582 1.429 . S
C2601 C2595 1.429 . S
C2601 C2602 1.523 . S
C2602 C2583 1.368 . S
C2602 C2596 1.368 . S
C2602 C2601 1.523 . S
C2603 C2587 1.429 . S
C2603 C2599 1.429 . S
C2603 C2604 1.523 . S
C2604 C2588 1.368 . S
C2604 C2600 1.368 . S
C2604 C2603 1.523 . S
H2605 C2580 0.950 . S
H2606 C2582 0.950 . S
H2607 C2583 0.949 . S
H2608 C2585 0.950 . S
H2609 C2587 0.950 . S
C2610 C2611 1.349 . S
C2610 C2612 1.327 . S
C2610 H2635 0.950 . S
C2611 C2610 1.349 . S
C2611 C2627 1.349 . S
C2612 C2610 1.327 . S
C2612 C2631 1.429 . S
C2612 H2636 0.950 . S
C2613 C2630 1.574 . S
C2613 C2632 1.368 . S
C2613 H2637 0.949 . S
H2614 C2618 0.949 . S
C2615 C2616 1.349 . S
C2615 C2617 1.327 . S
C2615 H2638 0.950 . S
C2616 C2615 1.349 . S
C2616 C2628 1.349 . S
C2617 C2615 1.327 . S
C2617 C2633 1.429 . S
C2617 H2639 0.950 . S
C2618 H2614 0.949 . S
C2618 C2626 1.574 . S
C2618 C2634 1.368 . S
H2619 C2627 0.950 . S
H2620 C2625 0.950 . S
H2621 C2626 0.949 . S
H2622 C2628 0.950 . S
H2623 C2629 0.950 . S
H2624 C2630 0.949 . S
C2625 H2620 0.950 . S
C2625 C2627 1.327 . S
C2625 C2631 1.429 . S
C2626 C2618 1.574 . S
C2626 H2621 0.949 . S
C2626 C2632 1.368 . S
C2627 C2611 1.349 . S
C2627 H2619 0.950 . S
C2627 C2625 1.327 . S
C2628 C2616 1.349 . S
C2628 H2622 0.950 . S
C2628 C2629 1.327 . S
C2629 H2623 0.950 . S
C2629 C2628 1.327 . S
C2629 C2633 1.429 . S
C2630 C2613 1.574 . S
C2630 H2624 0.949 . S
C2630 C2634 1.368 . S
C2631 C2612 1.429 . S
C2631 C2625 1.429 . S
C2631 C2632 1.523 . S
C2632 C2613 1.368 . S
C2632 C2626 1.368 . S
C2632 C2631 1.523 . S
C2633 C2617 1.429 . S
C2633 C2629 1.429 . S
C2633 C2634 1.523 . S
C2634 C2618 1.368 . S
C2634 C2630 1.368 . S
C2634 C2633 1.523 . S
H2635 C2610 0.950 . S
H2636 C2612 0.950 . S
H2637 C2613 0.949 . S
H2638 C2615 0.950 . S
H2639 C2617 0.950 . S
C2640 C2641 1.349 . S
C2640 C2642 1.327 . S
C2640 H2665 0.950 . S
C2641 C2640 1.349 . S
C2641 C2657 1.349 . S
C2642 C2640 1.327 . S
C2642 C2661 1.429 . S
C2642 H2666 0.950 . S
C2643 C2660 1.574 . S
C2643 C2662 1.368 . S
C2643 H2667 0.949 . S
H2644 C2648 0.949 . S
C2645 C2646 1.349 . S
C2645 C2647 1.327 . S
C2645 H2668 0.950 . S
C2646 C2645 1.349 . S
C2646 C2658 1.349 . S
C2647 C2645 1.327 . S
C2647 C2663 1.429 . S
C2647 H2669 0.950 . S
C2648 H2644 0.949 . S
C2648 C2656 1.574 . S
C2648 C2664 1.368 . S
H2649 C2657 0.950 . S
H2650 C2655 0.950 . S
H2651 C2656 0.949 . S
H2652 C2658 0.950 . S
H2653 C2659 0.950 . S
H2654 C2660 0.949 . S
C2655 H2650 0.950 . S
C2655 C2657 1.327 . S
C2655 C2661 1.429 . S
C2656 C2648 1.574 . S
C2656 H2651 0.949 . S
C2656 C2662 1.368 . S
C2657 C2641 1.349 . S
C2657 H2649 0.950 . S
C2657 C2655 1.327 . S
C2658 C2646 1.349 . S
C2658 H2652 0.950 . S
C2658 C2659 1.327 . S
C2659 H2653 0.950 . S
C2659 C2658 1.327 . S
C2659 C2663 1.429 . S
C2660 C2643 1.574 . S
C2660 H2654 0.949 . S
C2660 C2664 1.368 . S
C2661 C2642 1.429 . S
C2661 C2655 1.429 . S
C2661 C2662 1.523 . S
C2662 C2643 1.368 . S
C2662 C2656 1.368 . S
C2662 C2661 1.523 . S
C2663 C2647 1.429 . S
C2663 C2659 1.429 . S
C2663 C2664 1.523 . S
C2664 C2648 1.368 . S
C2664 C2660 1.368 . S
C2664 C2663 1.523 . S
H2665 C2640 0.950 . S
H2666 C2642 0.950 . S
H2667 C2643 0.949 . S
H2668 C2645 0.950 . S
H2669 C2647 0.950 . S
C2670 C2671 1.349 . S
C2670 C2672 1.327 . S
C2670 H2695 0.950 . S
C2671 C2670 1.349 . S
C2671 C2687 1.349 . S
C2672 C2670 1.327 . S
C2672 C2691 1.429 . S
C2672 H2696 0.950 . S
C2673 C2690 1.574 . S
C2673 C2692 1.368 . S
C2673 H2697 0.949 . S
H2674 C2678 0.949 . S
C2675 C2676 1.349 . S
C2675 C2677 1.327 . S
C2675 H2698 0.950 . S
C2676 C2675 1.349 . S
C2676 C2688 1.349 . S
C2677 C2675 1.327 . S
C2677 C2693 1.429 . S
C2677 H2699 0.950 . S
C2678 H2674 0.949 . S
C2678 C2686 1.574 . S
C2678 C2694 1.368 . S
H2679 C2687 0.950 . S
H2680 C2685 0.950 . S
H2681 C2686 0.949 . S
H2682 C2688 0.950 . S
H2683 C2689 0.950 . S
H2684 C2690 0.949 . S
C2685 H2680 0.950 . S
C2685 C2687 1.327 . S
C2685 C2691 1.429 . S
C2686 C2678 1.574 . S
C2686 H2681 0.949 . S
C2686 C2692 1.368 . S
C2687 C2671 1.349 . S
C2687 H2679 0.950 . S
C2687 C2685 1.327 . S
C2688 C2676 1.349 . S
C2688 H2682 0.950 . S
C2688 C2689 1.327 . S
C2689 H2683 0.950 . S
C2689 C2688 1.327 . S
C2689 C2693 1.429 . S
C2690 C2673 1.574 . S
C2690 H2684 0.949 . S
C2690 C2694 1.368 . S
C2691 C2672 1.429 . S
C2691 C2685 1.429 . S
C2691 C2692 1.523 . S
C2692 C2673 1.368 . S
C2692 C2686 1.368 . S
C2692 C2691 1.523 . S
C2693 C2677 1.429 . S
C2693 C2689 1.429 . S
C2693 C2694 1.523 . S
C2694 C2678 1.368 . S
C2694 C2690 1.368 . S
C2694 C2693 1.523 . S
H2695 C2670 0.950 . S
H2696 C2672 0.950 . S
H2697 C2673 0.949 . S
H2698 C2675 0.950 . S
H2699 C2677 0.950 . S
C2700 C2701 1.349 . S
C2700 C2702 1.327 . S
C2700 H2725 0.950 . S
C2701 C2700 1.349 . S
C2701 C2717 1.349 . S
C2702 C2700 1.327 . S
C2702 C2721 1.429 . S
C2702 H2726 0.950 . S
C2703 C2720 1.574 . S
C2703 C2722 1.368 . S
C2703 H2727 0.949 . S
H2704 C2708 0.949 . S
C2705 C2706 1.349 . S
C2705 C2707 1.327 . S
C2705 H2728 0.950 . S
C2706 C2705 1.349 . S
C2706 C2718 1.349 . S
C2707 C2705 1.327 . S
C2707 C2723 1.429 . S
C2707 H2729 0.950 . S
C2708 H2704 0.949 . S
C2708 C2716 1.574 . S
C2708 C2724 1.368 . S
H2709 C2717 0.950 . S
H2710 C2715 0.950 . S
H2711 C2716 0.949 . S
H2712 C2718 0.950 . S
H2713 C2719 0.950 . S
H2714 C2720 0.949 . S
C2715 H2710 0.950 . S
C2715 C2717 1.327 . S
C2715 C2721 1.429 . S
C2716 C2708 1.574 . S
C2716 H2711 0.949 . S
C2716 C2722 1.368 . S
C2717 C2701 1.349 . S
C2717 H2709 0.950 . S
C2717 C2715 1.327 . S
C2718 C2706 1.349 . S
C2718 H2712 0.950 . S
C2718 C2719 1.327 . S
C2719 H2713 0.950 . S
C2719 C2718 1.327 . S
C2719 C2723 1.429 . S
C2720 C2703 1.574 . S
C2720 H2714 0.949 . S
C2720 C2724 1.368 . S
C2721 C2702 1.429 . S
C2721 C2715 1.429 . S
C2721 C2722 1.523 . S
C2722 C2703 1.368 . S
C2722 C2716 1.368 . S
C2722 C2721 1.523 . S
C2723 C2707 1.429 . S
C2723 C2719 1.429 . S
C2723 C2724 1.523 . S
C2724 C2708 1.368 . S
C2724 C2720 1.368 . S
C2724 C2723 1.523 . S
H2725 C2700 0.950 . S
H2726 C2702 0.950 . S
H2727 C2703 0.949 . S
H2728 C2705 0.950 . S
H2729 C2707 0.950 . S
C2730 C2731 1.349 . S
C2730 C2732 1.327 . S
C2730 H2755 0.950 . S
C2731 C2730 1.349 . S
C2731 C2747 1.349 . S
C2732 C2730 1.327 . S
C2732 C2751 1.429 . S
C2732 H2756 0.950 . S
C2733 C2750 1.574 . S
C2733 C2752 1.368 . S
C2733 H2757 0.949 . S
H2734 C2738 0.949 . S
C2735 C2736 1.349 . S
C2735 C2737 1.327 . S
C2735 H2758 0.950 . S
C2736 C2735 1.349 . S
C2736 C2748 1.349 . S
C2737 C2735 1.327 . S
C2737 C2753 1.429 . S
C2737 H2759 0.950 . S
C2738 H2734 0.949 . S
C2738 C2746 1.574 . S
C2738 C2754 1.368 . S
H2739 C2747 0.950 . S
H2740 C2745 0.950 . S
H2741 C2746 0.949 . S
H2742 C2748 0.950 . S
H2743 C2749 0.950 . S
H2744 C2750 0.949 . S
C2745 H2740 0.950 . S
C2745 C2747 1.327 . S
C2745 C2751 1.429 . S
C2746 C2738 1.574 . S
C2746 H2741 0.949 . S
C2746 C2752 1.368 . S
C2747 C2731 1.349 . S
C2747 H2739 0.950 . S
C2747 C2745 1.327 . S
C2748 C2736 1.349 . S
C2748 H2742 0.950 . S
C2748 C2749 1.327 . S
C2749 H2743 0.950 . S
C2749 C2748 1.327 . S
C2749 C2753 1.429 . S
C2750 C2733 1.574 . S
C2750 H2744 0.949 . S
C2750 C2754 1.368 . S
C2751 C2732 1.429 . S
C2751 C2745 1.429 . S
C2751 C2752 1.523 . S
C2752 C2733 1.368 . S
C2752 C2746 1.368 . S
C2752 C2751 1.523 . S
C2753 C2737 1.429 . S
C2753 C2749 1.429 . S
C2753 C2754 1.523 . S
C2754 C2738 1.368 . S
C2754 C2750 1.368 . S
C2754 C2753 1.523 . S
H2755 C2730 0.950 . S
H2756 C2732 0.950 . S
H2757 C2733 0.949 . S
H2758 C2735 0.950 . S
H2759 C2737 0.950 . S
C2760 C2761 1.349 . S
C2760 C2762 1.327 . S
C2760 H2785 0.950 . S
C2761 C2760 1.349 . S
C2761 C2777 1.349 . S
C2762 C2760 1.327 . S
C2762 C2781 1.429 . S
C2762 H2786 0.950 . S
C2763 C2780 1.574 . S
C2763 C2782 1.368 . S
C2763 H2787 0.949 . S
H2764 C2768 0.949 . S
C2765 C2766 1.349 . S
C2765 C2767 1.327 . S
C2765 H2788 0.950 . S
C2766 C2765 1.349 . S
C2766 C2778 1.349 . S
C2767 C2765 1.327 . S
C2767 C2783 1.429 . S
C2767 H2789 0.950 . S
C2768 H2764 0.949 . S
C2768 C2776 1.574 . S
C2768 C2784 1.368 . S
H2769 C2777 0.950 . S
H2770 C2775 0.950 . S
H2771 C2776 0.949 . S
H2772 C2778 0.950 . S
H2773 C2779 0.950 . S
H2774 C2780 0.949 . S
C2775 H2770 0.950 . S
C2775 C2777 1.327 . S
C2775 C2781 1.429 . S
C2776 C2768 1.574 . S
C2776 H2771 0.949 . S
C2776 C2782 1.368 . S
C2777 C2761 1.349 . S
C2777 H2769 0.950 . S
C2777 C2775 1.327 . S
C2778 C2766 1.349 . S
C2778 H2772 0.950 . S
C2778 C2779 1.327 . S
C2779 H2773 0.950 . S
C2779 C2778 1.327 . S
C2779 C2783 1.429 . S
C2780 C2763 1.574 . S
C2780 H2774 0.949 . S
C2780 C2784 1.368 . S
C2781 C2762 1.429 . S
C2781 C2775 1.429 . S
C2781 C2782 1.523 . S
C2782 C2763 1.368 . S
C2782 C2776 1.368 . S
C2782 C2781 1.523 . S
C2783 C2767 1.429 . S
C2783 C2779 1.429 . S
C2783 C2784 1.523 . S
C2784 C2768 1.368 . S
C2784 C2780 1.368 . S
C2784 C2783 1.523 . S
H2785 C2760 0.950 . S
H2786 C2762 0.950 . S
H2787 C2763 0.949 . S
H2788 C2765 0.950 . S
H2789 C2767 0.950 . S
C2790 C2791 1.349 . S
C2790 C2792 1.327 . S
C2790 H2815 0.950 . S
C2791 C2790 1.349 . S
C2791 C2807 1.349 . S
C2792 C2790 1.327 . S
C2792 C2811 1.429 . S
C2792 H2816 0.950 . S
C2793 C2810 1.574 . S
C2793 C2812 1.368 . S
C2793 H2817 0.949 . S
H2794 C2798 0.949 . S
C2795 C2796 1.349 . S
C2795 C2797 1.327 . S
C2795 H2818 0.950 . S
C2796 C2795 1.349 . S
C2796 C2808 1.349 . S
C2797 C2795 1.327 . S
C2797 C2813 1.429 . S
C2797 H2819 0.950 . S
C2798 H2794 0.949 . S
C2798 C2806 1.574 . S
C2798 C2814 1.368 . S
H2799 C2807 0.950 . S
H2800 C2805 0.950 . S
H2801 C2806 0.949 . S
H2802 C2808 0.950 . S
H2803 C2809 0.950 . S
H2804 C2810 0.949 . S
C2805 H2800 0.950 . S
C2805 C2807 1.327 . S
C2805 C2811 1.429 . S
C2806 C2798 1.574 . S
C2806 H2801 0.949 . S
C2806 C2812 1.368 . S
C2807 C2791 1.349 . S
C2807 H2799 0.950 . S
C2807 C2805 1.327 . S
C2808 C2796 1.349 . S
C2808 H2802 0.950 . S
C2808 C2809 1.327 . S
C2809 H2803 0.950 . S
C2809 C2808 1.327 . S
C2809 C2813 1.429 . S
C2810 C2793 1.574 . S
C2810 H2804 0.949 . S
C2810 C2814 1.368 . S
C2811 C2792 1.429 . S
C2811 C2805 1.429 . S
C2811 C2812 1.523 . S
C2812 C2793 1.368 . S
C2812 C2806 1.368 . S
C2812 C2811 1.523 . S
C2813 C2797 1.429 . S
C2813 C2809 1.429 . S
C2813 C2814 1.523 . S
C2814 C2798 1.368 . S
C2814 C2810 1.368 . S
C2814 C2813 1.523 . S
H2815 C2790 0.950 . S
H2816 C2792 0.950 . S
H2817 C2793 0.949 . S
H2818 C2795 0.950 . S
H2819 C2797 0.950 . S
C2820 C2821 1.349 . S
C2820 C2822 1.327 . S
C2820 H2845 0.950 . S
C2821 C2820 1.349 . S
C2821 C2837 1.349 . S
C2822 C2820 1.327 . S
C2822 C2841 1.429 . S
C2822 H2846 0.950 . S
C2823 C2840 1.574 . S
C2823 C2842 1.368 . S
C2823 H2847 0.949 . S
H2824 C2828 0.949 . S
C2825 C2826 1.349 . S
C2825 C2827 1.327 . S
C2825 H2848 0.950 . S
C2826 C2825 1.349 . S
C2826 C2838 1.349 . S
C2827 C2825 1.327 . S
C2827 C2843 1.429 . S
C2827 H2849 0.950 . S
C2828 H2824 0.949 . S
C2828 C2836 1.574 . S
C2828 C2844 1.368 . S
H2829 C2837 0.950 . S
H2830 C2835 0.950 . S
H2831 C2836 0.949 . S
H2832 C2838 0.950 . S
H2833 C2839 0.950 . S
H2834 C2840 0.949 . S
C2835 H2830 0.950 . S
C2835 C2837 1.327 . S
C2835 C2841 1.429 . S
C2836 C2828 1.574 . S
C2836 H2831 0.949 . S
C2836 C2842 1.368 . S
C2837 C2821 1.349 . S
C2837 H2829 0.950 . S
C2837 C2835 1.327 . S
C2838 C2826 1.349 . S
C2838 H2832 0.950 . S
C2838 C2839 1.327 . S
C2839 H2833 0.950 . S
C2839 C2838 1.327 . S
C2839 C2843 1.429 . S
C2840 C2823 1.574 . S
C2840 H2834 0.949 . S
C2840 C2844 1.368 . S
C2841 C2822 1.429 . S
C2841 C2835 1.429 . S
C2841 C2842 1.523 . S
C2842 C2823 1.368 . S
C2842 C2836 1.368 . S
C2842 C2841 1.523 . S
C2843 C2827 1.429 . S
C2843 C2839 1.429 . S
C2843 C2844 1.523 . S
C2844 C2828 1.368 . S
C2844 C2840 1.368 . S
C2844 C2843 1.523 . S
H2845 C2820 0.950 . S
H2846 C2822 0.950 . S
H2847 C2823 0.949 . S
H2848 C2825 0.950 . S
H2849 C2827 0.950 . S
C2850 C2851 1.349 . S
C2850 C2852 1.327 . S
C2850 H2875 0.950 . S
C2851 C2850 1.349 . S
C2851 C2867 1.349 . S
C2852 C2850 1.327 . S
C2852 C2871 1.429 . S
C2852 H2876 0.950 . S
C2853 C2870 1.574 . S
C2853 C2872 1.368 . S
C2853 H2877 0.949 . S
H2854 C2858 0.949 . S
C2855 C2856 1.349 . S
C2855 C2857 1.327 . S
C2855 H2878 0.950 . S
C2856 C2855 1.349 . S
C2856 C2868 1.349 . S
C2857 C2855 1.327 . S
C2857 C2873 1.429 . S
C2857 H2879 0.950 . S
C2858 H2854 0.949 . S
C2858 C2866 1.574 . S
C2858 C2874 1.368 . S
H2859 C2867 0.950 . S
H2860 C2865 0.950 . S
H2861 C2866 0.949 . S
H2862 C2868 0.950 . S
H2863 C2869 0.950 . S
H2864 C2870 0.949 . S
C2865 H2860 0.950 . S
C2865 C2867 1.327 . S
C2865 C2871 1.429 . S
C2866 C2858 1.574 . S
C2866 H2861 0.949 . S
C2866 C2872 1.368 . S
C2867 C2851 1.349 . S
C2867 H2859 0.950 . S
C2867 C2865 1.327 . S
C2868 C2856 1.349 . S
C2868 H2862 0.950 . S
C2868 C2869 1.327 . S
C2869 H2863 0.950 . S
C2869 C2868 1.327 . S
C2869 C2873 1.429 . S
C2870 C2853 1.574 . S
C2870 H2864 0.949 . S
C2870 C2874 1.368 . S
C2871 C2852 1.429 . S
C2871 C2865 1.429 . S
C2871 C2872 1.523 . S
C2872 C2853 1.368 . S
C2872 C2866 1.368 . S
C2872 C2871 1.523 . S
C2873 C2857 1.429 . S
C2873 C2869 1.429 . S
C2873 C2874 1.523 . S
C2874 C2858 1.368 . S
C2874 C2870 1.368 . S
C2874 C2873 1.523 . S
H2875 C2850 0.950 . S
H2876 C2852 0.950 . S
H2877 C2853 0.949 . S
H2878 C2855 0.950 . S
H2879 C2857 0.950 . S
C2880 C2881 1.349 . S
C2880 C2882 1.327 . S
C2880 H2905 0.950 . S
C2881 C2880 1.349 . S
C2881 C2897 1.349 . S
C2882 C2880 1.327 . S
C2882 C2901 1.429 . S
C2882 H2906 0.950 . S
C2883 C2900 1.574 . S
C2883 C2902 1.368 . S
C2883 H2907 0.949 . S
H2884 C2888 0.949 . S
C2885 C2886 1.349 . S
C2885 C2887 1.327 . S
C2885 H2908 0.950 . S
C2886 C2885 1.349 . S
C2886 C2898 1.349 . S
C2887 C2885 1.327 . S
C2887 C2903 1.429 . S
C2887 H2909 0.950 . S
C2888 H2884 0.949 . S
C2888 C2896 1.574 . S
C2888 C2904 1.368 . S
H2889 C2897 0.950 . S
H2890 C2895 0.950 . S
H2891 C2896 0.949 . S
H2892 C2898 0.950 . S
H2893 C2899 0.950 . S
H2894 C2900 0.949 . S
C2895 H2890 0.950 . S
C2895 C2897 1.327 . S
C2895 C2901 1.429 . S
C2896 C2888 1.574 . S
C2896 H2891 0.949 . S
C2896 C2902 1.368 . S
C2897 C2881 1.349 . S
C2897 H2889 0.950 . S
C2897 C2895 1.327 . S
C2898 C2886 1.349 . S
C2898 H2892 0.950 . S
C2898 C2899 1.327 . S
C2899 H2893 0.950 . S
C2899 C2898 1.327 . S
C2899 C2903 1.429 . S
C2900 C2883 1.574 . S
C2900 H2894 0.949 . S
C2900 C2904 1.368 . S
C2901 C2882 1.429 . S
C2901 C2895 1.429 . S
C2901 C2902 1.523 . S
C2902 C2883 1.368 . S
C2902 C2896 1.368 . S
C2902 C2901 1.523 . S
C2903 C2887 1.429 . S
C2903 C2899 1.429 . S
C2903 C2904 1.523 . S
C2904 C2888 1.368 . S
C2904 C2900 1.368 . S
C2904 C2903 1.523 . S
H2905 C2880 0.950 . S
H2906 C2882 0.950 . S
H2907 C2883 0.949 . S
H2908 C2885 0.950 . S
H2909 C2887 0.950 . S
C2910 C2911 1.349 . S
C2910 C2912 1.327 . S
C2910 H2935 0.950 . S
C2911 C2910 1.349 . S
C2911 C2927 1.349 . S
C2912 C2910 1.327 . S
C2912 C2931 1.429 . S
C2912 H2936 0.950 . S
C2913 C2930 1.574 . S
C2913 C2932 1.368 . S
C2913 H2937 0.949 . S
H2914 C2918 0.949 . S
C2915 C2916 1.349 . S
C2915 C2917 1.327 . S
C2915 H2938 0.950 . S
C2916 C2915 1.349 . S
C2916 C2928 1.349 . S
C2917 C2915 1.327 . S
C2917 C2933 1.429 . S
C2917 H2939 0.950 . S
C2918 H2914 0.949 . S
C2918 C2926 1.574 . S
C2918 C2934 1.368 . S
H2919 C2927 0.950 . S
H2920 C2925 0.950 . S
H2921 C2926 0.949 . S
H2922 C2928 0.950 . S
H2923 C2929 0.950 . S
H2924 C2930 0.949 . S
C2925 H2920 0.950 . S
C2925 C2927 1.327 . S
C2925 C2931 1.429 . S
C2926 C2918 1.574 . S
C2926 H2921 0.949 . S
C2926 C2932 1.368 . S
C2927 C2911 1.349 . S
C2927 H2919 0.950 . S
C2927 C2925 1.327 . S
C2928 C2916 1.349 . S
C2928 H2922 0.950 . S
C2928 C2929 1.327 . S
C2929 H2923 0.950 . S
C2929 C2928 1.327 . S
C2929 C2933 1.429 . S
C2930 C2913 1.574 . S
C2930 H2924 0.949 . S
C2930 C2934 1.368 . S
C2931 C2912 1.429 . S
C2931 C2925 1.429 . S
C2931 C2932 1.523 . S
C2932 C2913 1.368 . S
C2932 C2926 1.368 . S
C2932 C2931 1.523 . S
C2933 C2917 1.429 . S
C2933 C2929 1.429 . S
C2933 C2934 1.523 . S
C2934 C2918 1.368 . S
C2934 C2930 1.368 . S
C2934 C2933 1.523 . S
H2935 C2910 0.950 . S
H2936 C2912 0.950 . S
H2937 C2913 0.949 . S
H2938 C2915 0.950 . S
H2939 C2917 0.950 . S
C2940 C2941 1.349 . S
C2940 C2942 1.327 . S
C2940 H2965 0.950 . S
C2941 C2940 1.349 . S
C2941 C2957 1.349 . S
C2942 C2940 1.327 . S
C2942 C2961 1.429 . S
C2942 H2966 0.950 . S
C2943 C2960 1.574 . S
C2943 C2962 1.368 . S
C2943 H2967 0.949 . S
H2944 C2948 0.949 . S
C2945 C2946 1.349 . S
C2945 C2947 1.327 . S
C2945 H2968 0.950 . S
C2946 C2945 1.349 . S
C2946 C2958 1.349 . S
C2947 C2945 1.327 . S
C2947 C2963 1.429 . S
C2947 H2969 0.950 . S
C2948 H2944 0.949 . S
C2948 C2956 1.574 . S
C2948 C2964 1.368 . S
H2949 C2957 0.950 . S
H2950 C2955 0.950 . S
H2951 C2956 0.949 . S
H2952 C2958 0.950 . S
H2953 C2959 0.950 . S
H2954 C2960 0.949 . S
C2955 H2950 0.950 . S
C2955 C2957 1.327 . S
C2955 C2961 1.429 . S
C2956 C2948 1.574 . S
C2956 H2951 0.949 . S
C2956 C2962 1.368 . S
C2957 C2941 1.349 . S
C2957 H2949 0.950 . S
C2957 C2955 1.327 . S
C2958 C2946 1.349 . S
C2958 H2952 0.950 . S
C2958 C2959 1.327 . S
C2959 H2953 0.950 . S
C2959 C2958 1.327 . S
C2959 C2963 1.429 . S
C2960 C2943 1.574 . S
C2960 H2954 0.949 . S
C2960 C2964 1.368 . S
C2961 C2942 1.429 . S
C2961 C2955 1.429 . S
C2961 C2962 1.523 . S
C2962 C2943 1.368 . S
C2962 C2956 1.368 . S
C2962 C2961 1.523 . S
C2963 C2947 1.429 . S
C2963 C2959 1.429 . S
C2963 C2964 1.523 . S
C2964 C2948 1.368 . S
C2964 C2960 1.368 . S
C2964 C2963 1.523 . S
H2965 C2940 0.950 . S
H2966 C2942 0.950 . S
H2967 C2943 0.949 . S
H2968 C2945 0.950 . S
H2969 C2947 0.950 . S
C2970 C2971 1.349 . S
C2970 C2972 1.327 . S
C2970 H2995 0.950 . S
C2971 C2970 1.349 . S
C2971 C2987 1.349 . S
C2972 C2970 1.327 . S
C2972 C2991 1.429 . S
C2972 H2996 0.950 . S
C2973 C2990 1.574 . S
C2973 C2992 1.368 . S
C2973 H2997 0.949 . S
H2974 C2978 0.949 . S
C2975 C2976 1.349 . S
C2975 C2977 1.327 . S
C2975 H2998 0.950 . S
C2976 C2975 1.349 . S
C2976 C2988 1.349 . S
C2977 C2975 1.327 . S
C2977 C2993 1.429 . S
C2977 H2999 0.950 . S
C2978 H2974 0.949 . S
C2978 C2986 1.574 . S
C2978 C2994 1.368 . S
H2979 C2987 0.950 . S
H2980 C2985 0.950 . S
H2981 C2986 0.949 . S
H2982 C2988 0.950 . S
H2983 C2989 0.950 . S
H2984 C2990 0.949 . S
C2985 H2980 0.950 . S
C2985 C2987 1.327 . S
C2985 C2991 1.429 . S
C2986 C2978 1.574 . S
C2986 H2981 0.949 . S
C2986 C2992 1.368 . S
C2987 C2971 1.349 . S
C2987 H2979 0.950 . S
C2987 C2985 1.327 . S
C2988 C2976 1.349 . S
C2988 H2982 0.950 . S
C2988 C2989 1.327 . S
C2989 H2983 0.950 . S
C2989 C2988 1.327 . S
C2989 C2993 1.429 . S
C2990 C2973 1.574 . S
C2990 H2984 0.949 . S
C2990 C2994 1.368 . S
C2991 C2972 1.429 . S
C2991 C2985 1.429 . S
C2991 C2992 1.523 . S
C2992 C2973 1.368 . S
C2992 C2986 1.368 . S
C2992 C2991 1.523 . S
C2993 C2977 1.429 . S
C2993 C2989 1.429 . S
C2993 C2994 1.523 . S
C2994 C2978 1.368 . S
C2994 C2990 1.368 . S
C2994 C2993 1.523 . S
H2995 C2970 0.950 . S
H2996 C2972 0.950 . S
H2997 C2973 0.949 . S
H2998 C2975 0.950 . S
H2999 C2977 0.950 . S
C3000 C3001 1.349 . S
C3000 C3002 1.327 . S
C3000 H3025 0.950 . S
C3001 C3000 1.349 . S
C3001 C3017 1.349 . S
C3002 C3000 1.327 . S
C3002 C3021 1.429 . S
C3002 H3026 0.950 . S
C3003 C3020 1.574 . S
C3003 C3022 1.368 . S
C3003 H3027 0.949 . S
H3004 C3008 0.949 . S
C3005 C3006 1.349 . S
C3005 C3007 1.327 . S
C3005 H3028 0.950 . S
C3006 C3005 1.349 . S
C3006 C3018 1.349 . S
C3007 C3005 1.327 . S
C3007 C3023 1.429 . S
C3007 H3029 0.950 . S
C3008 H3004 0.949 . S
C3008 C3016 1.574 . S
C3008 C3024 1.368 . S
H3009 C3017 0.950 . S
H3010 C3015 0.950 . S
H3011 C3016 0.949 . S
H3012 C3018 0.950 . S
H3013 C3019 0.950 . S
H3014 C3020 0.949 . S
C3015 H3010 0.950 . S
C3015 C3017 1.327 . S
C3015 C3021 1.429 . S
C3016 C3008 1.574 . S
C3016 H3011 0.949 . S
C3016 C3022 1.368 . S
C3017 C3001 1.349 . S
C3017 H3009 0.950 . S
C3017 C3015 1.327 . S
C3018 C3006 1.349 . S
C3018 H3012 0.950 . S
C3018 C3019 1.327 . S
C3019 H3013 0.950 . S
C3019 C3018 1.327 . S
C3019 C3023 1.429 . S
C3020 C3003 1.574 . S
C3020 H3014 0.949 . S
C3020 C3024 1.368 . S
C3021 C3002 1.429 . S
C3021 C3015 1.429 . S
C3021 C3022 1.523 . S
C3022 C3003 1.368 . S
C3022 C3016 1.368 . S
C3022 C3021 1.523 . S
C3023 C3007 1.429 . S
C3023 C3019 1.429 . S
C3023 C3024 1.523 . S
C3024 C3008 1.368 . S
C3024 C3020 1.368 . S
C3024 C3023 1.523 . S
H3025 C3000 0.950 . S
H3026 C3002 0.950 . S
H3027 C3003 0.949 . S
H3028 C3005 0.950 . S
H3029 C3007 0.950 . S
C3030 C3031 1.349 . S
C3030 C3032 1.327 . S
C3030 H3055 0.950 . S
C3031 C3030 1.349 . S
C3031 C3047 1.349 . S
C3032 C3030 1.327 . S
C3032 C3051 1.429 . S
C3032 H3056 0.950 . S
C3033 C3050 1.574 . S
C3033 C3052 1.368 . S
C3033 H3057 0.949 . S
H3034 C3038 0.949 . S
C3035 C3036 1.349 . S
C3035 C3037 1.327 . S
C3035 H3058 0.950 . S
C3036 C3035 1.349 . S
C3036 C3048 1.349 . S
C3037 C3035 1.327 . S
C3037 C3053 1.429 . S
C3037 H3059 0.950 . S
C3038 H3034 0.949 . S
C3038 C3046 1.574 . S
C3038 C3054 1.368 . S
H3039 C3047 0.950 . S
H3040 C3045 0.950 . S
H3041 C3046 0.949 . S
H3042 C3048 0.950 . S
H3043 C3049 0.950 . S
H3044 C3050 0.949 . S
C3045 H3040 0.950 . S
C3045 C3047 1.327 . S
C3045 C3051 1.429 . S
C3046 C3038 1.574 . S
C3046 H3041 0.949 . S
C3046 C3052 1.368 . S
C3047 C3031 1.349 . S
C3047 H3039 0.950 . S
C3047 C3045 1.327 . S
C3048 C3036 1.349 . S
C3048 H3042 0.950 . S
C3048 C3049 1.327 . S
C3049 H3043 0.950 . S
C3049 C3048 1.327 . S
C3049 C3053 1.429 . S
C3050 C3033 1.574 . S
C3050 H3044 0.949 . S
C3050 C3054 1.368 . S
C3051 C3032 1.429 . S
C3051 C3045 1.429 . S
C3051 C3052 1.523 . S
C3052 C3033 1.368 . S
C3052 C3046 1.368 . S
C3052 C3051 1.523 . S
C3053 C3037 1.429 . S
C3053 C3049 1.429 . S
C3053 C3054 1.523 . S
C3054 C3038 1.368 . S
C3054 C3050 1.368 . S
C3054 C3053 1.523 . S
H3055 C3030 0.950 . S
H3056 C3032 0.950 . S
H3057 C3033 0.949 . S
H3058 C3035 0.950 . S
H3059 C3037 0.950 . S
C3060 C3061 1.349 . S
C3060 C3062 1.327 . S
C3060 H3085 0.950 . S
C3061 C3060 1.349 . S
C3061 C3077 1.349 . S
C3062 C3060 1.327 . S
C3062 C3081 1.429 . S
C3062 H3086 0.950 . S
C3063 C3080 1.574 . S
C3063 C3082 1.368 . S
C3063 H3087 0.949 . S
H3064 C3068 0.949 . S
C3065 C3066 1.349 . S
C3065 C3067 1.327 . S
C3065 H3088 0.950 . S
C3066 C3065 1.349 . S
C3066 C3078 1.349 . S
C3067 C3065 1.327 . S
C3067 C3083 1.429 . S
C3067 H3089 0.950 . S
C3068 H3064 0.949 . S
C3068 C3076 1.574 . S
C3068 C3084 1.368 . S
H3069 C3077 0.950 . S
H3070 C3075 0.950 . S
H3071 C3076 0.949 . S
H3072 C3078 0.950 . S
H3073 C3079 0.950 . S
H3074 C3080 0.949 . S
C3075 H3070 0.950 . S
C3075 C3077 1.327 . S
C3075 C3081 1.429 . S
C3076 C3068 1.574 . S
C3076 H3071 0.949 . S
C3076 C3082 1.368 . S
C3077 C3061 1.349 . S
C3077 H3069 0.950 . S
C3077 C3075 1.327 . S
C3078 C3066 1.349 . S
C3078 H3072 0.950 . S
C3078 C3079 1.327 . S
C3079 H3073 0.950 . S
C3079 C3078 1.327 . S
C3079 C3083 1.429 . S
C3080 C3063 1.574 . S
C3080 H3074 0.949 . S
C3080 C3084 1.368 . S
C3081 C3062 1.429 . S
C3081 C3075 1.429 . S
C3081 C3082 1.523 . S
C3082 C3063 1.368 . S
C3082 C3076 1.368 . S
C3082 C3081 1.523 . S
C3083 C3067 1.429 . S
C3083 C3079 1.429 . S
C3083 C3084 1.523 . S
C3084 C3068 1.368 . S
C3084 C3080 1.368 . S
C3084 C3083 1.523 . S
H3085 C3060 0.950 . S
H3086 C3062 0.950 . S
H3087 C3063 0.949 . S
H3088 C3065 0.950 . S
H3089 C3067 0.950 . S
C3090 C3091 1.349 . S
C3090 C3092 1.327 . S
C3090 H3115 0.950 . S
C3091 C3090 1.349 . S
C3091 C3107 1.349 . S
C3092 C3090 1.327 . S
C3092 C3111 1.429 . S
C3092 H3116 0.950 . S
C3093 C3110 1.574 . S
C3093 C3112 1.368 . S
C3093 H3117 0.949 . S
H3094 C3098 0.949 . S
C3095 C3096 1.349 . S
C3095 C3097 1.327 . S
C3095 H3118 0.950 . S
C3096 C3095 1.349 . S
C3096 C3108 1.349 . S
C3097 C3095 1.327 . S
C3097 C3113 1.429 . S
C3097 H3119 0.950 . S
C3098 H3094 0.949 . S
C3098 C3106 1.574 . S
C3098 C3114 1.368 . S
H3099 C3107 0.950 . S
H3100 C3105 0.950 . S
H3101 C3106 0.949 . S
H3102 C3108 0.950 . S
H3103 C3109 0.950 . S
H3104 C3110 0.949 . S
C3105 H3100 0.950 . S
C3105 C3107 1.327 . S
C3105 C3111 1.429 . S
C3106 C3098 1.574 . S
C3106 H3101 0.949 . S
C3106 C3112 1.368 . S
C3107 C3091 1.349 . S
C3107 H3099 0.950 . S
C3107 C3105 1.327 . S
C3108 C3096 1.349 . S
C3108 H3102 0.950 . S
C3108 C3109 1.327 . S
C3109 H3103 0.950 . S
C3109 C3108 1.327 . S
C3109 C3113 1.429 . S
C3110 C3093 1.574 . S
C3110 H3104 0.949 . S
C3110 C3114 1.368 . S
C3111 C3092 1.429 . S
C3111 C3105 1.429 . S
C3111 C3112 1.523 . S
C3112 C3093 1.368 . S
C3112 C3106 1.368 . S
C3112 C3111 1.523 . S
C3113 C3097 1.429 . S
C3113 C3109 1.429 . S
C3113 C3114 1.523 . S
C3114 C3098 1.368 . S
C3114 C3110 1.368 . S
C3114 C3113 1.523 . S
H3115 C3090 0.950 . S
H3116 C3092 0.950 . S
H3117 C3093 0.949 . S
H3118 C3095 0.950 . S
H3119 C3097 0.950 . S
C3120 C3121 1.349 . S
C3120 C3122 1.327 . S
C3120 H3145 0.950 . S
C3121 C3120 1.349 . S
C3121 C3137 1.349 . S
C3122 C3120 1.327 . S
C3122 C3141 1.429 . S
C3122 H3146 0.950 . S
C3123 C3140 1.574 . S
C3123 C3142 1.368 . S
C3123 H3147 0.949 . S
H3124 C3128 0.949 . S
C3125 C3126 1.349 . S
C3125 C3127 1.327 . S
C3125 H3148 0.950 . S
C3126 C3125 1.349 . S
C3126 C3138 1.349 . S
C3127 C3125 1.327 . S
C3127 C3143 1.429 . S
C3127 H3149 0.950 . S
C3128 H3124 0.949 . S
C3128 C3136 1.574 . S
C3128 C3144 1.368 . S
H3129 C3137 0.950 . S
H3130 C3135 0.950 . S
H3131 C3136 0.949 . S
H3132 C3138 0.950 . S
H3133 C3139 0.950 . S
H3134 C3140 0.949 . S
C3135 H3130 0.950 . S
C3135 C3137 1.327 . S
C3135 C3141 1.429 . S
C3136 C3128 1.574 . S
C3136 H3131 0.949 . S
C3136 C3142 1.368 . S
C3137 C3121 1.349 . S
C3137 H3129 0.950 . S
C3137 C3135 1.327 . S
C3138 C3126 1.349 . S
C3138 H3132 0.950 . S
C3138 C3139 1.327 . S
C3139 H3133 0.950 . S
C3139 C3138 1.327 . S
C3139 C3143 1.429 . S
C3140 C3123 1.574 . S
C3140 H3134 0.949 . S
C3140 C3144 1.368 . S
C3141 C3122 1.429 . S
C3141 C3135 1.429 . S
C3141 C3142 1.523 . S
C3142 C3123 1.368 . S
C3142 C3136 1.368 . S
C3142 C3141 1.523 . S
C3143 C3127 1.429 . S
C3143 C3139 1.429 . S
C3143 C3144 1.523 . S
C3144 C3128 1.368 . S
C3144 C3140 1.368 . S
C3144 C3143 1.523 . S
H3145 C3120 0.950 . S
H3146 C3122 0.950 . S
H3147 C3123 0.949 . S
H3148 C3125 0.950 . S
H3149 C3127 0.950 . S
C3150 C3151 1.349 . S
C3150 C3152 1.327 . S
C3150 H3175 0.950 . S
C3151 C3150 1.349 . S
C3151 C3167 1.349 . S
C3152 C3150 1.327 . S
C3152 C3171 1.429 . S
C3152 H3176 0.950 . S
C3153 C3170 1.574 . S
C3153 C3172 1.368 . S
C3153 H3177 0.949 . S
H3154 C3158 0.949 . S
C3155 C3156 1.349 . S
C3155 C3157 1.327 . S
C3155 H3178 0.950 . S
C3156 C3155 1.349 . S
C3156 C3168 1.349 . S
C3157 C3155 1.327 . S
C3157 C3173 1.429 . S
C3157 H3179 0.950 . S
C3158 H3154 0.949 . S
C3158 C3166 1.574 . S
C3158 C3174 1.368 . S
H3159 C3167 0.950 . S
H3160 C3165 0.950 . S
H3161 C3166 0.949 . S
H3162 C3168 0.950 . S
H3163 C3169 0.950 . S
H3164 C3170 0.949 . S
C3165 H3160 0.950 . S
C3165 C3167 1.327 . S
C3165 C3171 1.429 . S
C3166 C3158 1.574 . S
C3166 H3161 0.949 . S
C3166 C3172 1.368 . S
C3167 C3151 1.349 . S
C3167 H3159 0.950 . S
C3167 C3165 1.327 . S
C3168 C3156 1.349 . S
C3168 H3162 0.950 . S
C3168 C3169 1.327 . S
C3169 H3163 0.950 . S
C3169 C3168 1.327 . S
C3169 C3173 1.429 . S
C3170 C3153 1.574 . S
C3170 H3164 0.949 . S
C3170 C3174 1.368 . S
C3171 C3152 1.429 . S
C3171 C3165 1.429 . S
C3171 C3172 1.523 . S
C3172 C3153 1.368 . S
C3172 C3166 1.368 . S
C3172 C3171 1.523 . S
C3173 C3157 1.429 . S
C3173 C3169 1.429 . S
C3173 C3174 1.523 . S
C3174 C3158 1.368 . S
C3174 C3170 1.368 . S
C3174 C3173 1.523 . S
H3175 C3150 0.950 . S
H3176 C3152 0.950 . S
H3177 C3153 0.949 . S
H3178 C3155 0.950 . S
H3179 C3157 0.950 . S
C3180 C3181 1.349 . S
C3180 C3182 1.327 . S
C3180 H3205 0.950 . S
C3181 C3180 1.349 . S
C3181 C3197 1.349 . S
C3182 C3180 1.327 . S
C3182 C3201 1.429 . S
C3182 H3206 0.950 . S
C3183 C3200 1.574 . S
C3183 C3202 1.368 . S
C3183 H3207 0.949 . S
H3184 C3188 0.949 . S
C3185 C3186 1.349 . S
C3185 C3187 1.327 . S
C3185 H3208 0.950 . S
C3186 C3185 1.349 . S
C3186 C3198 1.349 . S
C3187 C3185 1.327 . S
C3187 C3203 1.429 . S
C3187 H3209 0.950 . S
C3188 H3184 0.949 . S
C3188 C3196 1.574 . S
C3188 C3204 1.368 . S
H3189 C3197 0.950 . S
H3190 C3195 0.950 . S
H3191 C3196 0.949 . S
H3192 C3198 0.950 . S
H3193 C3199 0.950 . S
H3194 C3200 0.949 . S
C3195 H3190 0.950 . S
C3195 C3197 1.327 . S
C3195 C3201 1.429 . S
C3196 C3188 1.574 . S
C3196 H3191 0.949 . S
C3196 C3202 1.368 . S
C3197 C3181 1.349 . S
C3197 H3189 0.950 . S
C3197 C3195 1.327 . S
C3198 C3186 1.349 . S
C3198 H3192 0.950 . S
C3198 C3199 1.327 . S
C3199 H3193 0.950 . S
C3199 C3198 1.327 . S
C3199 C3203 1.429 . S
C3200 C3183 1.574 . S
C3200 H3194 0.949 . S
C3200 C3204 1.368 . S
C3201 C3182 1.429 . S
C3201 C3195 1.429 . S
C3201 C3202 1.523 . S
C3202 C3183 1.368 . S
C3202 C3196 1.368 . S
C3202 C3201 1.523 . S
C3203 C3187 1.429 . S
C3203 C3199 1.429 . S
C3203 C3204 1.523 . S
C3204 C3188 1.368 . S
C3204 C3200 1.368 . S
C3204 C3203 1.523 . S
H3205 C3180 0.950 . S
H3206 C3182 0.950 . S
H3207 C3183 0.949 . S
H3208 C3185 0.950 . S
H3209 C3187 0.950 . S
C3210 C3211 1.349 . S
C3210 C3212 1.327 . S
C3210 H3235 0.950 . S
C3211 C3210 1.349 . S
C3211 C3227 1.349 . S
C3212 C3210 1.327 . S
C3212 C3231 1.429 . S
C3212 H3236 0.950 . S
C3213 C3230 1.574 . S
C3213 C3232 1.368 . S
C3213 H3237 0.949 . S
H3214 C3218 0.949 . S
C3215 C3216 1.349 . S
C3215 C3217 1.327 . S
C3215 H3238 0.950 . S
C3216 C3215 1.349 . S
C3216 C3228 1.349 . S
C3217 C3215 1.327 . S
C3217 C3233 1.429 . S
C3217 H3239 0.950 . S
C3218 H3214 0.949 . S
C3218 C3226 1.574 . S
C3218 C3234 1.368 . S
H3219 C3227 0.950 . S
H3220 C3225 0.950 . S
H3221 C3226 0.949 . S
H3222 C3228 0.950 . S
H3223 C3229 0.950 . S
H3224 C3230 0.949 . S
C3225 H3220 0.950 . S
C3225 C3227 1.327 . S
C3225 C3231 1.429 . S
C3226 C3218 1.574 . S
C3226 H3221 0.949 . S
C3226 C3232 1.368 . S
C3227 C3211 1.349 . S
C3227 H3219 0.950 . S
C3227 C3225 1.327 . S
C3228 C3216 1.349 . S
C3228 H3222 0.950 . S
C3228 C3229 1.327 . S
C3229 H3223 0.950 . S
C3229 C3228 1.327 . S
C3229 C3233 1.429 . S
C3230 C3213 1.574 . S
C3230 H3224 0.949 . S
C3230 C3234 1.368 . S
C3231 C3212 1.429 . S
C3231 C3225 1.429 . S
C3231 C3232 1.523 . S
C3232 C3213 1.368 . S
C3232 C3226 1.368 . S
C3232 C3231 1.523 . S
C3233 C3217 1.429 . S
C3233 C3229 1.429 . S
C3233 C3234 1.523 . S
C3234 C3218 1.368 . S
C3234 C3230 1.368 . S
C3234 C3233 1.523 . S
H3235 C3210 0.950 . S
H3236 C3212 0.950 . S
H3237 C3213 0.949 . S
H3238 C3215 0.950 . S
H3239 C3217 0.950 . S
C3240 C3241 1.349 . S
C3240 C3242 1.327 . S
C3240 H3265 0.950 . S
C3241 C3240 1.349 . S
C3241 C3257 1.349 . S
C3242 C3240 1.327 . S
C3242 C3261 1.429 . S
C3242 H3266 0.950 . S
C3243 C3260 1.574 . S
C3243 C3262 1.368 . S
C3243 H3267 0.949 . S
H3244 C3248 0.949 . S
C3245 C3246 1.349 . S
C3245 C3247 1.327 . S
C3245 H3268 0.950 . S
C3246 C3245 1.349 . S
C3246 C3258 1.349 . S
C3247 C3245 1.327 . S
C3247 C3263 1.429 . S
C3247 H3269 0.950 . S
C3248 H3244 0.949 . S
C3248 C3256 1.574 . S
C3248 C3264 1.368 . S
H3249 C3257 0.950 . S
H3250 C3255 0.950 . S
H3251 C3256 0.949 . S
H3252 C3258 0.950 . S
H3253 C3259 0.950 . S
H3254 C3260 0.949 . S
C3255 H3250 0.950 . S
C3255 C3257 1.327 . S
C3255 C3261 1.429 . S
C3256 C3248 1.574 . S
C3256 H3251 0.949 . S
C3256 C3262 1.368 . S
C3257 C3241 1.349 . S
C3257 H3249 0.950 . S
C3257 C3255 1.327 . S
C3258 C3246 1.349 . S
C3258 H3252 0.950 . S
C3258 C3259 1.327 . S
C3259 H3253 0.950 . S
C3259 C3258 1.327 . S
C3259 C3263 1.429 . S
C3260 C3243 1.574 . S
C3260 H3254 0.949 . S
C3260 C3264 1.368 . S
C3261 C3242 1.429 . S
C3261 C3255 1.429 . S
C3261 C3262 1.523 . S
C3262 C3243 1.368 . S
C3262 C3256 1.368 . S
C3262 C3261 1.523 . S
C3263 C3247 1.429 . S
C3263 C3259 1.429 . S
C3263 C3264 1.523 . S
C3264 C3248 1.368 . S
C3264 C3260 1.368 . S
C3264 C3263 1.523 . S
H3265 C3240 0.950 . S
H3266 C3242 0.950 . S
H3267 C3243 0.949 . S
H3268 C3245 0.950 . S
H3269 C3247 0.950 . S
C3270 C3271 1.349 . S
C3270 C3272 1.327 . S
C3270 H3295 0.950 . S
C3271 C3270 1.349 . S
C3271 C3287 1.349 . S
C3272 C3270 1.327 . S
C3272 C3291 1.429 . S
C3272 H3296 0.950 . S
C3273 C3290 1.574 . S
C3273 C3292 1.368 . S
C3273 H3297 0.949 . S
H3274 C3278 0.949 . S
C3275 C3276 1.349 . S
C3275 C3277 1.327 . S
C3275 H3298 0.950 . S
C3276 C3275 1.349 . S
C3276 C3288 1.349 . S
C3277 C3275 1.327 . S
C3277 C3293 1.429 . S
C3277 H3299 0.950 . S
C3278 H3274 0.949 . S
C3278 C3286 1.574 . S
C3278 C3294 1.368 . S
H3279 C3287 0.950 . S
H3280 C3285 0.950 . S
H3281 C3286 0.949 . S
H3282 C3288 0.950 . S
H3283 C3289 0.950 . S
H3284 C3290 0.949 . S
C3285 H3280 0.950 . S
C3285 C3287 1.327 . S
C3285 C3291 1.429 . S
C3286 C3278 1.574 . S
C3286 H3281 0.949 . S
C3286 C3292 1.368 . S
C3287 C3271 1.349 . S
C3287 H3279 0.950 . S
C3287 C3285 1.327 . S
C3288 C3276 1.349 . S
C3288 H3282 0.950 . S
C3288 C3289 1.327 . S
C3289 H3283 0.950 . S
C3289 C3288 1.327 . S
C3289 C3293 1.429 . S
C3290 C3273 1.574 . S
C3290 H3284 0.949 . S
C3290 C3294 1.368 . S
C3291 C3272 1.429 . S
C3291 C3285 1.429 . S
C3291 C3292 1.523 . S
C3292 C3273 1.368 . S
C3292 C3286 1.368 . S
C3292 C3291 1.523 . S
C3293 C3277 1.429 . S
C3293 C3289 1.429 . S
C3293 C3294 1.523 . S
C3294 C3278 1.368 . S
C3294 C3290 1.368 . S
C3294 C3293 1.523 . S
H3295 C3270 0.950 . S
H3296 C3272 0.950 . S
H3297 C3273 0.949 . S
H3298 C3275 0.950 . S
H3299 C3277 0.950 . S
C3300 C3301 1.349 . S
C3300 C3302 1.327 . S
C3300 H3325 0.950 . S
C3301 C3300 1.349 . S
C3301 C3317 1.349 . S
C3302 C3300 1.327 . S
C3302 C3321 1.429 . S
C3302 H3326 0.950 . S
C3303 C3320 1.574 . S
C3303 C3322 1.368 . S
C3303 H3327 0.949 . S
H3304 C3308 0.949 . S
C3305 C3306 1.349 . S
C3305 C3307 1.327 . S
C3305 H3328 0.950 . S
C3306 C3305 1.349 . S
C3306 C3318 1.349 . S
C3307 C3305 1.327 . S
C3307 C3323 1.429 . S
C3307 H3329 0.950 . S
C3308 H3304 0.949 . S
C3308 C3316 1.574 . S
C3308 C3324 1.368 . S
H3309 C3317 0.950 . S
H3310 C3315 0.950 . S
H3311 C3316 0.949 . S
H3312 C3318 0.950 . S
H3313 C3319 0.950 . S
H3314 C3320 0.949 . S
C3315 H3310 0.950 . S
C3315 C3317 1.327 . S
C3315 C3321 1.429 . S
C3316 C3308 1.574 . S
C3316 H3311 0.949 . S
C3316 C3322 1.368 . S
C3317 C3301 1.349 . S
C3317 H3309 0.950 . S
C3317 C3315 1.327 . S
C3318 C3306 1.349 . S
C3318 H3312 0.950 . S
C3318 C3319 1.327 . S
C3319 H3313 0.950 . S
C3319 C3318 1.327 . S
C3319 C3323 1.429 . S
C3320 C3303 1.574 . S
C3320 H3314 0.949 . S
C3320 C3324 1.368 . S
C3321 C3302 1.429 . S
C3321 C3315 1.429 . S
C3321 C3322 1.523 . S
C3322 C3303 1.368 . S
C3322 C3316 1.368 . S
C3322 C3321 1.523 . S
C3323 C3307 1.429 . S
C3323 C3319 1.429 . S
C3323 C3324 1.523 . S
C3324 C3308 1.368 . S
C3324 C3320 1.368 . S
C3324 C3323 1.523 . S
H3325 C3300 0.950 . S
H3326 C3302 0.950 . S
H3327 C3303 0.949 . S
H3328 C3305 0.950 . S
H3329 C3307 0.950 . S
C3330 C3331 1.349 . S
C3330 C3332 1.327 . S
C3330 H3355 0.950 . S
C3331 C3330 1.349 . S
C3331 C3347 1.349 . S
C3332 C3330 1.327 . S
C3332 C3351 1.429 . S
C3332 H3356 0.950 . S
C3333 C3350 1.574 . S
C3333 C3352 1.368 . S
C3333 H3357 0.949 . S
H3334 C3338 0.949 . S
C3335 C3336 1.349 . S
C3335 C3337 1.327 . S
C3335 H3358 0.950 . S
C3336 C3335 1.349 . S
C3336 C3348 1.349 . S
C3337 C3335 1.327 . S
C3337 C3353 1.429 . S
C3337 H3359 0.950 . S
C3338 H3334 0.949 . S
C3338 C3346 1.574 . S
C3338 C3354 1.368 . S
H3339 C3347 0.950 . S
H3340 C3345 0.950 . S
H3341 C3346 0.949 . S
H3342 C3348 0.950 . S
H3343 C3349 0.950 . S
H3344 C3350 0.949 . S
C3345 H3340 0.950 . S
C3345 C3347 1.327 . S
C3345 C3351 1.429 . S
C3346 C3338 1.574 . S
C3346 H3341 0.949 . S
C3346 C3352 1.368 . S
C3347 C3331 1.349 . S
C3347 H3339 0.950 . S
C3347 C3345 1.327 . S
C3348 C3336 1.349 . S
C3348 H3342 0.950 . S
C3348 C3349 1.327 . S
C3349 H3343 0.950 . S
C3349 C3348 1.327 . S
C3349 C3353 1.429 . S
C3350 C3333 1.574 . S
C3350 H3344 0.949 . S
C3350 C3354 1.368 . S
C3351 C3332 1.429 . S
C3351 C3345 1.429 . S
C3351 C3352 1.523 . S
C3352 C3333 1.368 . S
C3352 C3346 1.368 . S
C3352 C3351 1.523 . S
C3353 C3337 1.429 . S
C3353 C3349 1.429 . S
C3353 C3354 1.523 . S
C3354 C3338 1.368 . S
C3354 C3350 1.368 . S
C3354 C3353 1.523 . S
H3355 C3330 0.950 . S
H3356 C3332 0.950 . S
H3357 C3333 0.949 . S
H3358 C3335 0.950 . S
H3359 C3337 0.950 . S
C3360 C3361 1.349 1_655 S
C3360 C3362 1.306 1_655 S
C3360 H3385 0.950 . S
C3361 C3360 1.349 1_455 S
C3361 C3377 1.349 . S
C3362 C3360 1.306 1_455 S
C3362 C3381 1.486 . S
C3362 H3386 0.915 1_455 S
C3363 C3380 1.574 . S
C3363 C3382 1.368 . S
C3363 H3387 0.949 . S
H3364 C3368 0.949 . S
C3365 C3366 1.349 . S
C3365 C3367 1.327 . S
C3365 H3388 0.950 . S
C3366 C3365 1.349 . S
C3366 C3378 1.349 . S
C3367 C3365 1.327 . S
C3367 C3383 1.429 . S
C3367 H3389 0.950 . S
C3368 H3364 0.949 . S
C3368 C3376 1.574 . S
C3368 C3384 1.368 . S
H3369 C3377 0.950 . S
H3370 C3375 0.950 . S
H3371 C3376 0.949 . S
H3372 C3378 0.950 . S
H3373 C3379 0.950 . S
H3374 C3380 0.949 . S
C3375 H3370 0.950 . S
C3375 C3377 1.327 . S
C3375 C3381 1.429 . S
C3376 C3368 1.574 . S
C3376 H3371 0.949 . S
C3376 C3382 1.368 . S
C3377 C3361 1.349 . S
C3377 H3369 0.950 . S
C3377 C3375 1.327 . S
C3378 C3366 1.349 . S
C3378 H3372 0.950 . S
C3378 C3379 1.327 . S
C3379 H3373 0.950 . S
C3379 C3378 1.327 . S
C3379 C3383 1.429 . S
C3380 C3363 1.574 . S
C3380 H3374 0.949 . S
C3380 C3384 1.368 . S
C3381 C3362 1.486 . S
C3381 C3375 1.429 . S
C3381 C3382 1.523 . S
C3382 C3363 1.368 . S
C3382 C3376 1.368 . S
C3382 C3381 1.523 . S
C3383 C3367 1.429 . S
C3383 C3379 1.429 . S
C3383 C3384 1.523 . S
C3384 C3368 1.368 . S
C3384 C3380 1.368 . S
C3384 C3383 1.523 . S
H3385 C3360 0.950 . S
H3386 C3362 0.915 1_655 S
H3387 C3363 0.949 . S
H3388 C3365 0.950 . S
H3389 C3367 0.950 . S
C3390 C3391 1.349 . S
C3390 C3392 1.327 . S
C3390 H3415 0.950 . S
C3391 C3390 1.349 . S
C3391 C3407 1.349 . S
C3392 C3390 1.327 . S
C3392 C3411 1.462 . S
C3392 H3416 0.950 . S
C3393 C3410 1.574 . S
C3393 C3412 1.368 . S
C3393 H3417 0.949 . S
H3394 C3398 0.949 . S
C3395 C3396 1.349 . S
C3395 C3397 1.327 . S
C3395 H3418 0.950 . S
C3396 C3395 1.349 . S
C3396 C3408 1.349 . S
C3397 C3395 1.327 . S
C3397 C3413 1.429 . S
C3397 H3419 0.950 . S
C3398 H3394 0.949 . S
C3398 C3406 1.574 . S
C3398 C3414 1.368 . S
H3399 C3407 0.950 . S
H3400 C3405 0.897 1_655 S
H3401 C3406 0.949 . S
H3402 C3408 0.950 . S
H3403 C3409 0.950 . S
H3404 C3410 0.949 . S
C3405 H3400 0.897 1_455 S
C3405 C3407 1.327 . S
C3405 C3411 1.444 . S
C3406 C3398 1.574 . S
C3406 H3401 0.949 . S
C3406 C3412 1.368 . S
C3407 C3391 1.349 . S
C3407 H3399 0.950 . S
C3407 C3405 1.327 . S
C3408 C3396 1.349 . S
C3408 H3402 0.950 . S
C3408 C3409 1.327 . S
C3409 H3403 0.950 . S
C3409 C3408 1.327 . S
C3409 C3413 1.429 . S
C3410 C3393 1.574 . S
C3410 H3404 0.949 . S
C3410 C3414 1.368 . S
C3411 C3392 1.462 . S
C3411 C3405 1.444 . S
C3411 C3412 1.479 1_455 S
C3412 C3393 1.368 . S
C3412 C3406 1.368 . S
C3412 C3411 1.479 1_655 S
C3413 C3397 1.429 . S
C3413 C3409 1.429 . S
C3413 C3414 1.523 . S
C3414 C3398 1.368 . S
C3414 C3410 1.368 . S
C3414 C3413 1.523 . S
H3415 C3390 0.950 . S
H3416 C3392 0.950 . S
H3417 C3393 0.949 . S
H3418 C3395 0.950 . S
H3419 C3397 0.950 . S
C3420 C3421 1.349 . S
C3420 C3422 1.327 . S
C3420 H3445 0.950 . S
C3421 C3420 1.349 . S
C3421 C3437 1.349 . S
C3422 C3420 1.327 . S
C3422 C3441 1.429 . S
C3422 H3446 0.950 . S
C3423 C3440 1.574 . S
C3423 C3442 1.368 . S
C3423 H3447 0.949 . S
H3424 C3428 0.949 . S
C3425 C3426 1.349 . S
C3425 C3427 1.327 . S
C3425 H3448 0.950 . S
C3426 C3425 1.349 . S
C3426 C3438 1.349 . S
C3427 C3425 1.327 . S
C3427 C3443 1.429 . S
C3427 H3449 0.950 . S
C3428 H3424 0.949 . S
C3428 C3436 1.574 . S
C3428 C3444 1.368 . S
H3429 C3437 0.950 . S
H3430 C3435 0.950 . S
H3431 C3436 0.949 . S
H3432 C3438 0.950 . S
H3433 C3439 0.950 . S
H3434 C3440 0.949 . S
C3435 H3430 0.950 . S
C3435 C3437 1.327 . S
C3435 C3441 1.429 . S
C3436 C3428 1.574 . S
C3436 H3431 0.949 . S
C3436 C3442 1.368 . S
C3437 C3421 1.349 . S
C3437 H3429 0.950 . S
C3437 C3435 1.327 . S
C3438 C3426 1.349 . S
C3438 H3432 0.950 . S
C3438 C3439 1.327 . S
C3439 H3433 0.950 . S
C3439 C3438 1.327 . S
C3439 C3443 1.429 . S
C3440 C3423 1.574 . S
C3440 H3434 0.949 . S
C3440 C3444 1.368 . S
C3441 C3422 1.429 . S
C3441 C3435 1.429 . S
C3441 C3442 1.523 . S
C3442 C3423 1.368 . S
C3442 C3436 1.368 . S
C3442 C3441 1.523 . S
C3443 C3427 1.429 . S
C3443 C3439 1.429 . S
C3443 C3444 1.523 . S
C3444 C3428 1.368 . S
C3444 C3440 1.368 . S
C3444 C3443 1.523 . S
H3445 C3420 0.950 . S
H3446 C3422 0.950 . S
H3447 C3423 0.949 . S
H3448 C3425 0.950 . S
H3449 C3427 0.950 . S
C3450 C3451 1.349 . S
C3450 C3452 1.327 . S
C3450 H3475 0.950 . S
C3451 C3450 1.349 . S
C3451 C3467 1.349 . S
C3452 C3450 1.327 . S
C3452 C3471 1.429 . S
C3452 H3476 0.950 . S
C3453 C3470 1.574 . S
C3453 C3472 1.368 . S
C3453 H3477 0.949 . S
H3454 C3458 0.949 . S
C3455 C3456 1.349 . S
C3455 C3457 1.327 . S
C3455 H3478 0.950 . S
C3456 C3455 1.349 . S
C3456 C3468 1.349 . S
C3457 C3455 1.327 . S
C3457 C3473 1.429 . S
C3457 H3479 0.950 . S
C3458 H3454 0.949 . S
C3458 C3466 1.574 . S
C3458 C3474 1.368 . S
H3459 C3467 0.950 . S
H3460 C3465 0.950 . S
H3461 C3466 0.949 . S
H3462 C3468 0.950 . S
H3463 C3469 0.950 . S
H3464 C3470 0.949 . S
C3465 H3460 0.950 . S
C3465 C3467 1.327 . S
C3465 C3471 1.429 . S
C3466 C3458 1.574 . S
C3466 H3461 0.949 . S
C3466 C3472 1.368 . S
C3467 C3451 1.349 . S
C3467 H3459 0.950 . S
C3467 C3465 1.327 . S
C3468 C3456 1.349 . S
C3468 H3462 0.950 . S
C3468 C3469 1.327 . S
C3469 H3463 0.950 . S
C3469 C3468 1.327 . S
C3469 C3473 1.429 . S
C3470 C3453 1.574 . S
C3470 H3464 0.949 . S
C3470 C3474 1.368 . S
C3471 C3452 1.429 . S
C3471 C3465 1.429 . S
C3471 C3472 1.523 . S
C3472 C3453 1.368 . S
C3472 C3466 1.368 . S
C3472 C3471 1.523 . S
C3473 C3457 1.429 . S
C3473 C3469 1.429 . S
C3473 C3474 1.523 . S
C3474 C3458 1.368 . S
C3474 C3470 1.368 . S
C3474 C3473 1.523 . S
H3475 C3450 0.950 . S
H3476 C3452 0.950 . S
H3477 C3453 0.949 . S
H3478 C3455 0.950 . S
H3479 C3457 0.950 . S
C3480 C3481 1.349 . S
C3480 C3482 1.327 . S
C3480 H3505 0.950 . S
C3481 C3480 1.349 . S
C3481 C3497 1.349 . S
C3482 C3480 1.327 . S
C3482 C3501 1.429 . S
C3482 H3506 0.950 . S
C3483 C3500 1.574 . S
C3483 C3502 1.368 . S
C3483 H3507 0.949 . S
H3484 C3488 0.949 . S
C3485 C3486 1.349 . S
C3485 C3487 1.327 . S
C3485 H3508 0.950 1_455 S
C3486 C3485 1.349 . S
C3486 C3498 1.349 . S
C3487 C3485 1.327 . S
C3487 C3503 1.429 . S
C3487 H3509 0.950 . S
C3488 H3484 0.949 . S
C3488 C3496 1.574 . S
C3488 C3504 1.368 . S
H3489 C3497 0.950 . S
H3490 C3495 0.950 . S
H3491 C3496 0.949 . S
H3492 C3498 0.950 . S
H3493 C3499 0.950 . S
H3494 C3500 0.949 . S
C3495 H3490 0.950 . S
C3495 C3497 1.327 . S
C3495 C3501 1.429 . S
C3496 C3488 1.574 . S
C3496 H3491 0.949 . S
C3496 C3502 1.368 . S
C3497 C3481 1.349 . S
C3497 H3489 0.950 . S
C3497 C3495 1.327 . S
C3498 C3486 1.349 . S
C3498 H3492 0.950 . S
C3498 C3499 1.327 . S
C3499 H3493 0.950 . S
C3499 C3498 1.327 . S
C3499 C3503 1.429 . S
C3500 C3483 1.574 . S
C3500 H3494 0.949 . S
C3500 C3504 1.368 . S
C3501 C3482 1.429 . S
C3501 C3495 1.429 . S
C3501 C3502 1.523 . S
C3502 C3483 1.368 . S
C3502 C3496 1.368 . S
C3502 C3501 1.523 . S
C3503 C3487 1.429 . S
C3503 C3499 1.429 . S
C3503 C3504 1.523 . S
C3504 C3488 1.368 . S
C3504 C3500 1.368 . S
C3504 C3503 1.523 . S
H3505 C3480 0.950 . S
H3506 C3482 0.950 . S
H3507 C3483 0.949 . S
H3508 C3485 0.950 1_655 S
H3509 C3487 0.950 . S
C3510 C3511 1.349 . S
C3510 C3512 1.327 . S
C3510 H3535 0.950 . S
C3511 C3510 1.349 . S
C3511 C3527 1.349 . S
C3512 C3510 1.327 . S
C3512 C3531 1.429 . S
C3512 H3536 0.950 . S
C3513 C3530 1.574 . S
C3513 C3532 1.368 . S
C3513 H3537 0.949 . S
H3514 C3518 0.949 . S
C3515 C3516 1.349 . S
C3515 C3517 1.327 . S
C3515 H3538 0.950 . S
C3516 C3515 1.349 . S
C3516 C3528 1.349 . S
C3517 C3515 1.327 . S
C3517 C3533 1.429 . S
C3517 H3539 0.950 . S
C3518 H3514 0.949 . S
C3518 C3526 1.574 . S
C3518 C3534 1.368 . S
H3519 C3527 0.950 . S
H3520 C3525 0.950 . S
H3521 C3526 0.949 . S
H3522 C3528 0.950 . S
H3523 C3529 0.950 . S
H3524 C3530 0.949 . S
C3525 H3520 0.950 . S
C3525 C3527 1.327 . S
C3525 C3531 1.429 . S
C3526 C3518 1.574 . S
C3526 H3521 0.949 . S
C3526 C3532 1.368 . S
C3527 C3511 1.349 . S
C3527 H3519 0.950 . S
C3527 C3525 1.327 . S
C3528 C3516 1.349 . S
C3528 H3522 0.950 . S
C3528 C3529 1.327 . S
C3529 H3523 0.950 . S
C3529 C3528 1.327 . S
C3529 C3533 1.429 . S
C3530 C3513 1.574 . S
C3530 H3524 0.949 . S
C3530 C3534 1.368 . S
C3531 C3512 1.429 . S
C3531 C3525 1.429 . S
C3531 C3532 1.523 . S
C3532 C3513 1.368 . S
C3532 C3526 1.368 . S
C3532 C3531 1.523 . S
C3533 C3517 1.429 . S
C3533 C3529 1.429 . S
C3533 C3534 1.523 . S
C3534 C3518 1.368 . S
C3534 C3530 1.368 . S
C3534 C3533 1.523 . S
H3535 C3510 0.950 . S
H3536 C3512 0.950 . S
H3537 C3513 0.949 . S
H3538 C3515 0.950 . S
H3539 C3517 0.950 . S
C3540 C3541 1.349 . S
C3540 C3542 1.327 . S
C3540 H3565 0.950 . S
C3541 C3540 1.349 . S
C3541 C3557 1.349 . S
C3542 C3540 1.327 . S
C3542 C3561 1.429 . S
C3542 H3566 0.950 . S
C3543 C3560 1.574 . S
C3543 C3562 1.368 . S
C3543 H3567 0.949 . S
H3544 C3548 0.949 . S
C3545 C3546 1.349 . S
C3545 C3547 1.327 . S
C3545 H3568 0.950 . S
C3546 C3545 1.349 . S
C3546 C3558 1.349 . S
C3547 C3545 1.327 . S
C3547 C3563 1.429 . S
C3547 H3569 0.950 . S
C3548 H3544 0.949 . S
C3548 C3556 1.574 . S
C3548 C3564 1.368 . S
H3549 C3557 0.950 . S
H3550 C3555 0.950 . S
H3551 C3556 0.949 . S
H3552 C3558 0.950 . S
H3553 C3559 0.950 . S
H3554 C3560 0.949 . S
C3555 H3550 0.950 . S
C3555 C3557 1.327 . S
C3555 C3561 1.429 . S
C3556 C3548 1.574 . S
C3556 H3551 0.949 . S
C3556 C3562 1.368 . S
C3557 C3541 1.349 . S
C3557 H3549 0.950 . S
C3557 C3555 1.327 . S
C3558 C3546 1.349 . S
C3558 H3552 0.950 . S
C3558 C3559 1.327 . S
C3559 H3553 0.950 . S
C3559 C3558 1.327 . S
C3559 C3563 1.429 . S
C3560 C3543 1.574 . S
C3560 H3554 0.949 . S
C3560 C3564 1.368 . S
C3561 C3542 1.429 . S
C3561 C3555 1.429 . S
C3561 C3562 1.523 . S
C3562 C3543 1.368 . S
C3562 C3556 1.368 . S
C3562 C3561 1.523 . S
C3563 C3547 1.429 . S
C3563 C3559 1.429 . S
C3563 C3564 1.523 . S
C3564 C3548 1.368 . S
C3564 C3560 1.368 . S
C3564 C3563 1.523 . S
H3565 C3540 0.950 . S
H3566 C3542 0.950 . S
H3567 C3543 0.949 . S
H3568 C3545 0.950 . S
H3569 C3547 0.950 . S
C3570 C3571 1.349 . S
C3570 C3572 1.327 . S
C3570 H3595 0.950 . S
C3571 C3570 1.349 . S
C3571 C3587 1.349 . S
C3572 C3570 1.327 . S
C3572 C3591 1.429 . S
C3572 H3596 0.950 . S
C3573 C3590 1.574 . S
C3573 C3592 1.368 . S
C3573 H3597 0.949 . S
H3574 C3578 0.949 . S
C3575 C3576 1.349 . S
C3575 C3577 1.327 1_455 S
C3575 H3598 0.950 . S
C3576 C3575 1.349 . S
C3576 C3588 1.349 . S
C3577 C3575 1.327 1_655 S
C3577 C3593 1.429 . S
C3577 H3599 0.950 . S
C3578 H3574 0.949 . S
C3578 C3586 1.574 . S
C3578 C3594 1.368 . S
H3579 C3587 0.950 . S
H3580 C3585 0.950 . S
H3581 C3586 0.949 . S
H3582 C3588 0.950 . S
H3583 C3589 0.950 . S
H3584 C3590 0.949 . S
C3585 H3580 0.950 . S
C3585 C3587 1.327 . S
C3585 C3591 1.429 . S
C3586 C3578 1.574 . S
C3586 H3581 0.949 . S
C3586 C3592 1.368 . S
C3587 C3571 1.349 . S
C3587 H3579 0.950 . S
C3587 C3585 1.327 . S
C3588 C3576 1.349 . S
C3588 H3582 0.950 . S
C3588 C3589 1.327 . S
C3589 H3583 0.950 . S
C3589 C3588 1.327 . S
C3589 C3593 1.429 1_455 S
C3590 C3573 1.574 . S
C3590 H3584 0.949 . S
C3590 C3594 1.368 . S
C3591 C3572 1.429 . S
C3591 C3585 1.429 . S
C3591 C3592 1.523 . S
C3592 C3573 1.368 . S
C3592 C3586 1.368 . S
C3592 C3591 1.523 . S
C3593 C3577 1.429 . S
C3593 C3589 1.429 1_655 S
C3593 C3594 1.523 . S
C3594 C3578 1.368 . S
C3594 C3590 1.368 . S
C3594 C3593 1.523 . S
H3595 C3570 0.950 . S
H3596 C3572 0.950 . S
H3597 C3573 0.949 . S
H3598 C3575 0.950 . S
H3599 C3577 0.950 . S
C3600 C3601 1.349 . S
C3600 C3602 1.327 . S
C3600 H3625 0.950 . S
C3601 C3600 1.349 . S
C3601 C3617 1.349 1_545 S
C3602 C3600 1.327 . S
C3602 C3621 1.429 . S
C3602 H3626 0.950 . S
C3603 C3620 1.574 . S
C3603 C3622 1.368 . S
C3603 H3627 0.949 . S
H3604 C3608 0.949 . S
C3605 C3606 1.349 . S
C3605 C3607 1.327 . S
C3605 H3628 0.950 . S
C3606 C3605 1.349 . S
C3606 C3618 1.349 . S
C3607 C3605 1.327 . S
C3607 C3623 1.429 . S
C3607 H3629 0.950 . S
C3608 H3604 0.949 . S
C3608 C3616 1.574 . S
C3608 C3624 1.368 . S
H3609 C3617 0.950 . S
H3610 C3615 0.952 . S
H3611 C3616 0.949 . S
H3612 C3618 0.950 . S
H3613 C3619 0.950 . S
H3614 C3620 0.949 . S
C3615 H3610 0.952 . S
C3615 C3617 1.327 1_545 S
C3615 C3621 1.429 . S
C3616 C3608 1.574 . S
C3616 H3611 0.949 . S
C3616 C3622 1.368 . S
C3617 C3601 1.349 1_565 S
C3617 H3609 0.950 . S
C3617 C3615 1.327 1_565 S
C3618 C3606 1.349 . S
C3618 H3612 0.950 . S
C3618 C3619 1.327 . S
C3619 H3613 0.950 . S
C3619 C3618 1.327 . S
C3619 C3623 1.429 . S
C3620 C3603 1.574 . S
C3620 H3614 0.949 . S
C3620 C3624 1.368 . S
C3621 C3602 1.429 . S
C3621 C3615 1.429 . S
C3621 C3622 1.523 . S
C3622 C3603 1.368 . S
C3622 C3616 1.368 . S
C3622 C3621 1.523 . S
C3623 C3607 1.429 . S
C3623 C3619 1.429 . S
C3623 C3624 1.523 . S
C3624 C3608 1.368 . S
C3624 C3620 1.368 . S
C3624 C3623 1.523 . S
H3625 C3600 0.950 . S
H3626 C3602 0.950 . S
H3627 C3603 0.949 . S
H3628 C3605 0.950 . S
H3629 C3607 0.950 . S
C3630 C3631 1.349 . S
C3630 C3632 1.327 . S
C3630 H3655 0.950 . S
C3631 C3630 1.349 . S
C3631 C3647 1.349 . S
C3632 C3630 1.327 . S
C3632 C3651 1.429 . S
C3632 H3656 0.950 . S
C3633 C3650 1.574 . S
C3633 C3652 1.368 . S
C3633 H3657 0.949 . S
H3634 C3638 0.949 . S
C3635 C3636 1.349 . S
C3635 C3637 1.327 . S
C3635 H3658 0.950 . S
C3636 C3635 1.349 . S
C3636 C3648 1.349 . S
C3637 C3635 1.327 . S
C3637 C3653 1.429 . S
C3637 H3659 0.950 . S
C3638 H3634 0.949 . S
C3638 C3646 1.574 . S
C3638 C3654 1.368 . S
H3639 C3647 0.950 . S
H3640 C3645 0.950 . S
H3641 C3646 0.949 . S
H3642 C3648 0.950 . S
H3643 C3649 0.950 . S
H3644 C3650 0.949 . S
C3645 H3640 0.950 . S
C3645 C3647 1.327 . S
C3645 C3651 1.429 . S
C3646 C3638 1.574 . S
C3646 H3641 0.949 . S
C3646 C3652 1.368 . S
C3647 C3631 1.349 . S
C3647 H3639 0.950 . S
C3647 C3645 1.327 . S
C3648 C3636 1.349 . S
C3648 H3642 0.950 . S
C3648 C3649 1.327 . S
C3649 H3643 0.950 . S
C3649 C3648 1.327 . S
C3649 C3653 1.429 . S
C3650 C3633 1.574 . S
C3650 H3644 0.949 . S
C3650 C3654 1.368 . S
C3651 C3632 1.429 . S
C3651 C3645 1.429 . S
C3651 C3652 1.523 . S
C3652 C3633 1.368 . S
C3652 C3646 1.368 . S
C3652 C3651 1.523 . S
C3653 C3637 1.429 . S
C3653 C3649 1.429 . S
C3653 C3654 1.523 . S
C3654 C3638 1.368 . S
C3654 C3650 1.368 . S
C3654 C3653 1.523 . S
H3655 C3630 0.950 . S
H3656 C3632 0.950 . S
H3657 C3633 0.949 . S
H3658 C3635 0.950 . S
H3659 C3637 0.950 . S
C3660 C3661 1.349 . S
C3660 C3662 1.327 . S
C3660 H3685 0.950 . S
C3661 C3660 1.349 . S
C3661 C3677 1.349 . S
C3662 C3660 1.327 . S
C3662 C3681 1.429 . S
C3662 H3686 0.950 . S
C3663 C3680 1.574 . S
C3663 C3682 1.368 . S
C3663 H3687 0.949 . S
H3664 C3668 0.949 . S
C3665 C3666 1.349 . S
C3665 C3667 1.327 . S
C3665 H3688 0.950 1_545 S
C3666 C3665 1.349 . S
C3666 C3678 1.349 . S
C3667 C3665 1.327 . S
C3667 C3683 1.429 . S
C3667 H3689 0.950 . S
C3668 H3664 0.949 . S
C3668 C3676 1.574 . S
C3668 C3684 1.368 . S
H3669 C3677 0.950 . S
H3670 C3675 0.950 . S
H3671 C3676 0.949 . S
H3672 C3678 0.950 . S
H3673 C3679 0.950 . S
H3674 C3680 0.949 . S
C3675 H3670 0.950 . S
C3675 C3677 1.327 . S
C3675 C3681 1.429 . S
C3676 C3668 1.574 . S
C3676 H3671 0.949 . S
C3676 C3682 1.368 . S
C3677 C3661 1.349 . S
C3677 H3669 0.950 . S
C3677 C3675 1.327 . S
C3678 C3666 1.349 . S
C3678 H3672 0.950 . S
C3678 C3679 1.327 . S
C3679 H3673 0.950 . S
C3679 C3678 1.327 . S
C3679 C3683 1.429 . S
C3680 C3663 1.574 . S
C3680 H3674 0.949 . S
C3680 C3684 1.368 . S
C3681 C3662 1.429 . S
C3681 C3675 1.429 . S
C3681 C3682 1.523 . S
C3682 C3663 1.368 . S
C3682 C3676 1.368 . S
C3682 C3681 1.523 . S
C3683 C3667 1.429 . S
C3683 C3679 1.429 . S
C3683 C3684 1.523 . S
C3684 C3668 1.368 . S
C3684 C3680 1.368 . S
C3684 C3683 1.523 . S
H3685 C3660 0.950 . S
H3686 C3662 0.950 . S
H3687 C3663 0.949 . S
H3688 C3665 0.950 1_565 S
H3689 C3667 0.950 . S
C3690 C3691 1.349 . S
C3690 C3692 1.327 . S
C3690 H3715 0.950 . S
C3691 C3690 1.349 . S
C3691 C3707 1.349 . S
C3692 C3690 1.327 . S
C3692 C3711 1.429 1_554 S
C3692 H3716 0.950 . S
C3693 C3710 1.574 . S
C3693 C3712 1.368 . S
C3693 H3717 0.949 . S
H3694 C3698 0.949 . S
C3695 C3696 1.349 . S
C3695 C3697 1.327 . S
C3695 H3718 0.950 . S
C3696 C3695 1.349 . S
C3696 C3708 1.349 . S
C3697 C3695 1.327 . S
C3697 C3713 1.429 . S
C3697 H3719 0.950 . S
C3698 H3694 0.949 . S
C3698 C3706 1.574 . S
C3698 C3714 1.368 . S
H3699 C3707 0.950 . S
H3700 C3705 0.950 . S
H3701 C3706 0.949 . S
H3702 C3708 0.950 . S
H3703 C3709 0.950 . S
H3704 C3710 0.949 . S
C3705 H3700 0.950 . S
C3705 C3707 1.327 1_556 S
C3705 C3711 1.429 . S
C3706 C3698 1.574 . S
C3706 H3701 0.949 . S
C3706 C3712 1.368 . S
C3707 C3691 1.349 . S
C3707 H3699 0.950 . S
C3707 C3705 1.327 1_554 S
C3708 C3696 1.349 . S
C3708 H3702 0.950 . S
C3708 C3709 1.327 . S
C3709 H3703 0.950 . S
C3709 C3708 1.327 . S
C3709 C3713 1.429 . S
C3710 C3693 1.574 . S
C3710 H3704 0.949 . S
C3710 C3714 1.368 . S
C3711 C3692 1.429 1_556 S
C3711 C3705 1.429 . S
C3711 C3712 1.523 . S
C3712 C3693 1.368 . S
C3712 C3706 1.368 . S
C3712 C3711 1.523 . S
C3713 C3697 1.429 . S
C3713 C3709 1.429 . S
C3713 C3714 1.523 . S
C3714 C3698 1.368 . S
C3714 C3710 1.368 . S
C3714 C3713 1.523 . S
H3715 C3690 0.950 . S
H3716 C3692 0.950 . S
H3717 C3693 0.949 . S
H3718 C3695 0.950 . S
H3719 C3697 0.950 . S
C3720 C3721 1.349 . S
C3720 C3722 1.327 . S
C3720 H3745 0.950 . S
C3721 C3720 1.349 . S
C3721 C3737 1.349 . S
C3722 C3720 1.327 . S
C3722 C3741 1.429 . S
C3722 H3746 0.950 . S
C3723 C3740 1.574 . S
C3723 C3742 1.368 . S
C3723 H3747 0.949 . S
H3724 C3728 0.949 . S
C3725 C3726 1.349 1_556 S
C3725 C3727 1.327 1_556 S
C3725 H3748 0.950 . S
C3726 C3725 1.349 1_554 S
C3726 C3738 1.349 . S
C3727 C3725 1.327 1_554 S
C3727 C3743 1.429 . S
C3727 H3749 0.950 1_554 S
C3728 H3724 0.949 . S
C3728 C3736 1.574 . S
C3728 C3744 1.368 . S
H3729 C3737 0.950 . S
H3730 C3735 0.950 . S
H3731 C3736 0.949 . S
H3732 C3738 0.950 . S
H3733 C3739 0.950 . S
H3734 C3740 0.949 . S
C3735 H3730 0.950 . S
C3735 C3737 1.327 . S
C3735 C3741 1.429 . S
C3736 C3728 1.574 . S
C3736 H3731 0.949 . S
C3736 C3742 1.368 . S
C3737 C3721 1.349 . S
C3737 H3729 0.950 . S
C3737 C3735 1.327 . S
C3738 C3726 1.349 . S
C3738 H3732 0.950 . S
C3738 C3739 1.327 . S
C3739 H3733 0.950 . S
C3739 C3738 1.327 . S
C3739 C3743 1.429 . S
C3740 C3723 1.574 . S
C3740 H3734 0.949 . S
C3740 C3744 1.368 . S
C3741 C3722 1.429 . S
C3741 C3735 1.429 . S
C3741 C3742 1.523 . S
C3742 C3723 1.368 . S
C3742 C3736 1.368 . S
C3742 C3741 1.523 . S
C3743 C3727 1.429 . S
C3743 C3739 1.429 . S
C3743 C3744 1.523 . S
C3744 C3728 1.368 . S
C3744 C3740 1.368 . S
C3744 C3743 1.523 . S
H3745 C3720 0.950 . S
H3746 C3722 0.950 . S
H3747 C3723 0.949 . S
H3748 C3725 0.950 . S
H3749 C3727 0.950 1_556 S
C3750 C3751 1.349 . S
C3750 C3752 1.327 . S
C3750 H3775 0.950 . S
C3751 C3750 1.349 . S
C3751 C3767 1.349 . S
C3752 C3750 1.327 . S
C3752 C3771 1.429 . S
C3752 H3776 0.950 . S
C3753 C3770 1.574 . S
C3753 C3772 1.368 . S
C3753 H3777 0.949 . S
H3754 C3758 0.949 . S
C3755 C3756 1.349 . S
C3755 C3757 1.327 . S
C3755 H3778 0.950 . S
C3756 C3755 1.349 . S
C3756 C3768 1.349 . S
C3757 C3755 1.327 . S
C3757 C3773 1.429 . S
C3757 H3779 0.950 . S
C3758 H3754 0.949 . S
C3758 C3766 1.574 . S
C3758 C3774 1.368 . S
H3759 C3767 0.950 . S
H3760 C3765 0.950 . S
H3761 C3766 0.949 . S
H3762 C3768 0.950 . S
H3763 C3769 0.950 . S
H3764 C3770 0.949 . S
C3765 H3760 0.950 . S
C3765 C3767 1.327 . S
C3765 C3771 1.429 . S
C3766 C3758 1.574 . S
C3766 H3761 0.949 . S
C3766 C3772 1.368 . S
C3767 C3751 1.349 . S
C3767 H3759 0.950 . S
C3767 C3765 1.327 . S
C3768 C3756 1.349 . S
C3768 H3762 0.950 . S
C3768 C3769 1.327 . S
C3769 H3763 0.950 . S
C3769 C3768 1.327 . S
C3769 C3773 1.429 . S
C3770 C3753 1.574 . S
C3770 H3764 0.949 . S
C3770 C3774 1.368 . S
C3771 C3752 1.429 . S
C3771 C3765 1.429 . S
C3771 C3772 1.523 . S
C3772 C3753 1.368 . S
C3772 C3766 1.368 . S
C3772 C3771 1.523 . S
C3773 C3757 1.429 . S
C3773 C3769 1.429 . S
C3773 C3774 1.523 . S
C3774 C3758 1.368 . S
C3774 C3770 1.368 . S
C3774 C3773 1.523 . S
H3775 C3750 0.950 . S
H3776 C3752 0.950 . S
H3777 C3753 0.949 . S
H3778 C3755 0.950 . S
H3779 C3757 0.950 . S
C3780 C3781 1.349 . S
C3780 C3782 1.327 . S
C3780 H3805 0.950 . S
C3781 C3780 1.349 . S
C3781 C3797 1.349 . S
C3782 C3780 1.327 . S
C3782 C3801 1.429 . S
C3782 H3806 0.950 . S
C3783 C3800 1.574 . S
C3783 C3802 1.368 . S
C3783 H3807 0.949 . S
H3784 C3788 0.949 . S
C3785 C3786 1.349 . S
C3785 C3787 1.327 . S
C3785 H3808 0.950 . S
C3786 C3785 1.349 . S
C3786 C3798 1.349 . S
C3787 C3785 1.327 . S
C3787 C3803 1.429 . S
C3787 H3809 0.950 . S
C3788 H3784 0.949 . S
C3788 C3796 1.574 . S
C3788 C3804 1.368 . S
H3789 C3797 0.950 . S
H3790 C3795 0.950 . S
H3791 C3796 0.949 . S
H3792 C3798 0.950 . S
H3793 C3799 0.950 . S
H3794 C3800 0.949 . S
C3795 H3790 0.950 . S
C3795 C3797 1.327 . S
C3795 C3801 1.429 . S
C3796 C3788 1.574 . S
C3796 H3791 0.949 . S
C3796 C3802 1.368 . S
C3797 C3781 1.349 . S
C3797 H3789 0.950 . S
C3797 C3795 1.327 . S
C3798 C3786 1.349 . S
C3798 H3792 0.950 . S
C3798 C3799 1.327 . S
C3799 H3793 0.950 . S
C3799 C3798 1.327 . S
C3799 C3803 1.429 . S
C3800 C3783 1.574 . S
C3800 H3794 0.949 . S
C3800 C3804 1.368 . S
C3801 C3782 1.429 . S
C3801 C3795 1.429 . S
C3801 C3802 1.523 . S
C3802 C3783 1.368 . S
C3802 C3796 1.368 . S
C3802 C3801 1.523 . S
C3803 C3787 1.429 . S
C3803 C3799 1.429 . S
C3803 C3804 1.523 . S
C3804 C3788 1.368 . S
C3804 C3800 1.368 . S
C3804 C3803 1.523 . S
H3805 C3780 0.950 . S
H3806 C3782 0.950 . S
H3807 C3783 0.949 . S
H3808 C3785 0.950 . S
H3809 C3787 0.950 . S
C3810 C3811 1.349 . S
C3810 C3812 1.327 . S
C3810 H3835 0.950 . S
C3811 C3810 1.349 . S
C3811 C3827 1.349 . S
C3812 C3810 1.327 . S
C3812 C3831 1.429 . S
C3812 H3836 0.950 . S
C3813 C3830 1.574 . S
C3813 C3832 1.368 . S
C3813 H3837 0.949 . S
H3814 C3818 0.949 . S
C3815 C3816 1.349 . S
C3815 C3817 1.327 . S
C3815 H3838 0.950 . S
C3816 C3815 1.349 . S
C3816 C3828 1.349 . S
C3817 C3815 1.327 . S
C3817 C3833 1.429 . S
C3817 H3839 0.950 . S
C3818 H3814 0.949 . S
C3818 C3826 1.574 . S
C3818 C3834 1.368 . S
H3819 C3827 0.950 . S
H3820 C3825 0.950 . S
H3821 C3826 0.949 . S
H3822 C3828 0.950 . S
H3823 C3829 0.950 . S
H3824 C3830 0.949 . S
C3825 H3820 0.950 . S
C3825 C3827 1.327 . S
C3825 C3831 1.429 . S
C3826 C3818 1.574 . S
C3826 H3821 0.949 . S
C3826 C3832 1.368 . S
C3827 C3811 1.349 . S
C3827 H3819 0.950 . S
C3827 C3825 1.327 . S
C3828 C3816 1.349 . S
C3828 H3822 0.950 . S
C3828 C3829 1.327 . S
C3829 H3823 0.950 . S
C3829 C3828 1.327 . S
C3829 C3833 1.429 . S
C3830 C3813 1.574 . S
C3830 H3824 0.949 . S
C3830 C3834 1.368 . S
C3831 C3812 1.429 . S
C3831 C3825 1.429 . S
C3831 C3832 1.523 . S
C3832 C3813 1.368 . S
C3832 C3826 1.368 . S
C3832 C3831 1.523 . S
C3833 C3817 1.429 . S
C3833 C3829 1.429 . S
C3833 C3834 1.523 . S
C3834 C3818 1.368 . S
C3834 C3830 1.368 . S
C3834 C3833 1.523 . S
H3835 C3810 0.950 . S
H3836 C3812 0.950 . S
H3837 C3813 0.949 . S
H3838 C3815 0.950 . S
H3839 C3817 0.950 . S
C3840 C3841 1.349 . S
C3840 C3842 1.327 . S
C3840 H3865 0.950 . S
C3841 C3840 1.349 . S
C3841 C3857 1.349 . S
C3842 C3840 1.327 . S
C3842 C3861 1.429 . S
C3842 H3866 0.950 . S
C3843 C3860 1.574 . S
C3843 C3862 1.368 . S
C3843 H3867 0.949 . S
H3844 C3848 0.949 . S
C3845 C3846 1.349 . S
C3845 C3847 1.327 . S
C3845 H3868 0.950 . S
C3846 C3845 1.349 . S
C3846 C3858 1.349 . S
C3847 C3845 1.327 . S
C3847 C3863 1.429 1_545 S
C3847 H3869 0.950 . S
C3848 H3844 0.949 . S
C3848 C3856 1.574 . S
C3848 C3864 1.368 . S
H3849 C3857 0.950 . S
H3850 C3855 0.950 . S
H3851 C3856 0.949 . S
H3852 C3858 0.950 . S
H3853 C3859 0.950 . S
H3854 C3860 0.949 . S
C3855 H3850 0.950 . S
C3855 C3857 1.327 . S
C3855 C3861 1.429 . S
C3856 C3848 1.574 . S
C3856 H3851 0.949 . S
C3856 C3862 1.368 . S
C3857 C3841 1.349 . S
C3857 H3849 0.950 . S
C3857 C3855 1.327 . S
C3858 C3846 1.349 . S
C3858 H3852 0.950 . S
C3858 C3859 1.327 1_545 S
C3859 H3853 0.950 . S
C3859 C3858 1.327 1_565 S
C3859 C3863 1.429 . S
C3860 C3843 1.574 . S
C3860 H3854 0.949 . S
C3860 C3864 1.368 . S
C3861 C3842 1.429 . S
C3861 C3855 1.429 . S
C3861 C3862 1.523 . S
C3862 C3843 1.368 . S
C3862 C3856 1.368 . S
C3862 C3861 1.523 . S
C3863 C3847 1.429 1_565 S
C3863 C3859 1.429 . S
C3863 C3864 1.523 . S
C3864 C3848 1.368 . S
C3864 C3860 1.368 . S
C3864 C3863 1.523 . S
H3865 C3840 0.950 . S
H3866 C3842 0.950 . S
H3867 C3843 0.949 . S
H3868 C3845 0.950 . S
H3869 C3847 0.950 . S
C3870 C3871 1.349 . S
C3870 C3872 1.327 . S
C3870 H3895 0.950 . S
C3871 C3870 1.349 . S
C3871 C3887 1.349 . S
C3872 C3870 1.327 . S
C3872 C3891 1.429 . S
C3872 H3896 0.950 . S
C3873 C3890 1.574 . S
C3873 C3892 1.368 . S
C3873 H3897 0.949 . S
H3874 C3878 0.949 . S
C3875 C3876 1.349 . S
C3875 C3877 1.327 . S
C3875 H3898 0.950 . S
C3876 C3875 1.349 . S
C3876 C3888 1.349 . S
C3877 C3875 1.327 . S
C3877 C3893 1.429 . S
C3877 H3899 0.950 . S
C3878 H3874 0.949 . S
C3878 C3886 1.574 . S
C3878 C3894 1.368 . S
H3879 C3887 0.950 . S
H3880 C3885 0.950 . S
H3881 C3886 0.949 . S
H3882 C3888 0.950 . S
H3883 C3889 0.950 . S
H3884 C3890 0.949 . S
C3885 H3880 0.950 . S
C3885 C3887 1.327 . S
C3885 C3891 1.429 . S
C3886 C3878 1.574 . S
C3886 H3881 0.949 . S
C3886 C3892 1.368 . S
C3887 C3871 1.349 . S
C3887 H3879 0.950 . S
C3887 C3885 1.327 . S
C3888 C3876 1.349 . S
C3888 H3882 0.950 . S
C3888 C3889 1.327 . S
C3889 H3883 0.950 . S
C3889 C3888 1.327 . S
C3889 C3893 1.429 . S
C3890 C3873 1.574 . S
C3890 H3884 0.949 . S
C3890 C3894 1.368 . S
C3891 C3872 1.429 . S
C3891 C3885 1.429 . S
C3891 C3892 1.523 . S
C3892 C3873 1.368 . S
C3892 C3886 1.368 . S
C3892 C3891 1.523 . S
C3893 C3877 1.429 . S
C3893 C3889 1.429 . S
C3893 C3894 1.523 . S
C3894 C3878 1.368 . S
C3894 C3890 1.368 . S
C3894 C3893 1.523 . S
H3895 C3870 0.950 . S
H3896 C3872 0.950 . S
H3897 C3873 0.949 . S
H3898 C3875 0.950 . S
H3899 C3877 0.950 . S
C3900 C3901 1.349 . S
C3900 C3902 1.327 . S
C3900 H3925 0.950 . S
C3901 C3900 1.349 . S
C3901 C3917 1.349 . S
C3902 C3900 1.327 . S
C3902 C3921 1.429 . S
C3902 H3926 0.950 . S
C3903 C3920 1.574 . S
C3903 C3922 1.368 . S
C3903 H3927 0.949 . S
H3904 C3908 0.949 . S
C3905 C3906 1.349 . S
C3905 C3907 1.327 . S
C3905 H3928 0.950 . S
C3906 C3905 1.349 . S
C3906 C3918 1.349 . S
C3907 C3905 1.327 . S
C3907 C3923 1.429 . S
C3907 H3929 0.950 . S
C3908 H3904 0.949 . S
C3908 C3916 1.574 . S
C3908 C3924 1.368 . S
H3909 C3917 0.950 . S
H3910 C3915 0.950 . S
H3911 C3916 0.949 . S
H3912 C3918 0.950 . S
H3913 C3919 0.950 . S
H3914 C3920 0.949 . S
C3915 H3910 0.950 . S
C3915 C3917 1.327 . S
C3915 C3921 1.429 . S
C3916 C3908 1.574 . S
C3916 H3911 0.949 . S
C3916 C3922 1.368 . S
C3917 C3901 1.349 . S
C3917 H3909 0.950 . S
C3917 C3915 1.327 . S
C3918 C3906 1.349 . S
C3918 H3912 0.950 . S
C3918 C3919 1.327 . S
C3919 H3913 0.950 . S
C3919 C3918 1.327 . S
C3919 C3923 1.429 . S
C3920 C3903 1.574 . S
C3920 H3914 0.949 . S
C3920 C3924 1.368 . S
C3921 C3902 1.429 . S
C3921 C3915 1.429 . S
C3921 C3922 1.523 . S
C3922 C3903 1.368 . S
C3922 C3916 1.368 . S
C3922 C3921 1.523 . S
C3923 C3907 1.429 . S
C3923 C3919 1.429 . S
C3923 C3924 1.523 . S
C3924 C3908 1.368 . S
C3924 C3920 1.368 . S
C3924 C3923 1.523 . S
H3925 C3900 0.950 . S
H3926 C3902 0.950 . S
H3927 C3903 0.949 . S
H3928 C3905 0.950 . S
H3929 C3907 0.950 . S
C3930 C3931 1.349 . S
C3930 C3932 1.327 . S
C3930 H3955 0.950 . S
C3931 C3930 1.349 . S
C3931 C3947 1.349 . S
C3932 C3930 1.327 . S
C3932 C3951 1.429 . S
C3932 H3956 0.950 . S
C3933 C3950 1.574 . S
C3933 C3952 1.368 . S
C3933 H3957 0.949 . S
H3934 C3938 0.949 . S
C3935 C3936 1.349 . S
C3935 C3937 1.327 . S
C3935 H3958 0.950 . S
C3936 C3935 1.349 . S
C3936 C3948 1.349 . S
C3937 C3935 1.327 . S
C3937 C3953 1.429 . S
C3937 H3959 0.950 . S
C3938 H3934 0.949 . S
C3938 C3946 1.574 . S
C3938 C3954 1.368 . S
H3939 C3947 0.950 . S
H3940 C3945 0.950 . S
H3941 C3946 0.949 . S
H3942 C3948 0.950 . S
H3943 C3949 0.950 . S
H3944 C3950 0.949 . S
C3945 H3940 0.950 . S
C3945 C3947 1.327 . S
C3945 C3951 1.429 . S
C3946 C3938 1.574 . S
C3946 H3941 0.949 . S
C3946 C3952 1.368 . S
C3947 C3931 1.349 . S
C3947 H3939 0.950 . S
C3947 C3945 1.327 . S
C3948 C3936 1.349 . S
C3948 H3942 0.950 . S
C3948 C3949 1.327 . S
C3949 H3943 0.950 . S
C3949 C3948 1.327 . S
C3949 C3953 1.429 . S
C3950 C3933 1.574 . S
C3950 H3944 0.949 . S
C3950 C3954 1.368 . S
C3951 C3932 1.429 . S
C3951 C3945 1.429 . S
C3951 C3952 1.523 . S
C3952 C3933 1.368 . S
C3952 C3946 1.368 . S
C3952 C3951 1.523 . S
C3953 C3937 1.429 . S
C3953 C3949 1.429 . S
C3953 C3954 1.523 . S
C3954 C3938 1.368 . S
C3954 C3950 1.368 . S
C3954 C3953 1.523 . S
H3955 C3930 0.950 . S
H3956 C3932 0.950 . S
H3957 C3933 0.949 . S
H3958 C3935 0.950 . S
H3959 C3937 0.950 . S
C3960 C3961 1.349 . S
C3960 C3962 1.327 . S
C3960 H3985 0.950 . S
C3961 C3960 1.349 . S
C3961 C3977 1.349 . S
C3962 C3960 1.327 . S
C3962 C3981 1.429 . S
C3962 H3986 0.950 . S
C3963 C3980 1.574 . S
C3963 C3982 1.368 . S
C3963 H3987 0.949 . S
H3964 C3968 0.949 . S
C3965 C3966 1.349 . S
C3965 C3967 1.327 . S
C3965 H3988 0.950 . S
C3966 C3965 1.349 . S
C3966 C3978 1.349 . S
C3967 C3965 1.327 . S
C3967 C3983 1.464 . S
C3967 H3989 0.950 . S
C3968 H3964 0.949 . S
C3968 C3976 1.574 . S
C3968 C3984 1.368 . S
H3969 C3977 0.950 . S
H3970 C3975 0.950 . S
H3971 C3976 0.949 . S
H3972 C3978 0.950 . S
H3973 C3979 0.950 1_556 S
H3974 C3980 0.949 . S
C3975 H3970 0.950 . S
C3975 C3977 1.327 . S
C3975 C3981 1.429 . S
C3976 C3968 1.574 . S
C3976 H3971 0.949 . S
C3976 C3982 1.368 . S
C3977 C3961 1.349 . S
C3977 H3969 0.950 . S
C3977 C3975 1.327 . S
C3978 C3966 1.349 . S
C3978 H3972 0.950 . S
C3978 C3979 1.327 . S
C3979 H3973 0.950 1_554 S
C3979 C3978 1.327 . S
C3979 C3983 1.442 . S
C3980 C3963 1.574 . S
C3980 H3974 0.949 . S
C3980 C3984 1.368 . S
C3981 C3962 1.429 . S
C3981 C3975 1.429 . S
C3981 C3982 1.523 . S
C3982 C3963 1.368 . S
C3982 C3976 1.368 . S
C3982 C3981 1.523 . S
C3983 C3967 1.464 . S
C3983 C3979 1.442 . S
C3983 C3984 1.479 1_554 S
C3984 C3968 1.368 . S
C3984 C3980 1.368 . S
C3984 C3983 1.479 1_556 S
H3985 C3960 0.950 . S
H3986 C3962 0.950 . S
H3987 C3963 0.949 . S
H3988 C3965 0.950 . S
H3989 C3967 0.950 . S
C3990 C3991 1.349 . S
C3990 C3992 1.327 . S
C3990 H4015 0.950 . S
C3991 C3990 1.349 . S
C3991 C4007 1.349 . S
C3992 C3990 1.327 . S
C3992 C4011 1.429 . S
C3992 H4016 0.950 . S
C3993 C4010 1.574 . S
C3993 C4012 1.368 . S
C3993 H4017 0.949 . S
H3994 C3998 0.949 . S
C3995 C3996 1.349 . S
C3995 C3997 1.327 . S
C3995 H4018 0.950 . S
C3996 C3995 1.349 . S
C3996 C4008 1.349 . S
C3997 C3995 1.327 . S
C3997 C4013 1.429 . S
C3997 H4019 0.950 . S
C3998 H3994 0.949 . S
C3998 C4006 1.574 . S
C3998 C4014 1.368 . S
H3999 C4007 0.950 . S
H4000 C4005 0.950 . S
H4001 C4006 0.949 . S
H4002 C4008 0.950 . S
H4003 C4009 0.950 . S
H4004 C4010 0.949 . S
C4005 H4000 0.950 . S
C4005 C4007 1.327 . S
C4005 C4011 1.429 . S
C4006 C3998 1.574 . S
C4006 H4001 0.949 . S
C4006 C4012 1.368 . S
C4007 C3991 1.349 . S
C4007 H3999 0.950 . S
C4007 C4005 1.327 . S
C4008 C3996 1.349 . S
C4008 H4002 0.950 . S
C4008 C4009 1.327 . S
C4009 H4003 0.950 . S
C4009 C4008 1.327 . S
C4009 C4013 1.429 . S
C4010 C3993 1.574 . S
C4010 H4004 0.949 . S
C4010 C4014 1.368 . S
C4011 C3992 1.429 . S
C4011 C4005 1.429 . S
C4011 C4012 1.523 . S
C4012 C3993 1.368 . S
C4012 C4006 1.368 . S
C4012 C4011 1.523 . S
C4013 C3997 1.429 . S
C4013 C4009 1.429 . S
C4013 C4014 1.523 . S
C4014 C3998 1.368 . S
C4014 C4010 1.368 . S
C4014 C4013 1.523 . S
H4015 C3990 0.950 . S
H4016 C3992 0.950 . S
H4017 C3993 0.949 . S
H4018 C3995 0.950 . S
H4019 C3997 0.950 . S
C4020 C4021 1.349 . S
C4020 C4022 1.327 . S
C4020 H4045 0.950 . S
C4021 C4020 1.349 . S
C4021 C4037 1.349 . S
C4022 C4020 1.327 . S
C4022 C4041 1.429 . S
C4022 H4046 0.950 . S
C4023 C4040 1.574 . S
C4023 C4042 1.368 . S
C4023 H4047 0.949 . S
H4024 C4028 0.949 . S
C4025 C4026 1.349 . S
C4025 C4027 1.327 . S
C4025 H4048 0.950 . S
C4026 C4025 1.349 . S
C4026 C4038 1.349 . S
C4027 C4025 1.327 . S
C4027 C4043 1.429 . S
C4027 H4049 0.950 . S
C4028 H4024 0.949 . S
C4028 C4036 1.574 . S
C4028 C4044 1.368 . S
H4029 C4037 0.950 . S
H4030 C4035 0.950 . S
H4031 C4036 0.949 . S
H4032 C4038 0.950 . S
H4033 C4039 0.950 . S
H4034 C4040 0.949 . S
C4035 H4030 0.950 . S
C4035 C4037 1.327 . S
C4035 C4041 1.429 . S
C4036 C4028 1.574 . S
C4036 H4031 0.949 . S
C4036 C4042 1.368 . S
C4037 C4021 1.349 . S
C4037 H4029 0.950 . S
C4037 C4035 1.327 . S
C4038 C4026 1.349 . S
C4038 H4032 0.950 . S
C4038 C4039 1.327 . S
C4039 H4033 0.950 . S
C4039 C4038 1.327 . S
C4039 C4043 1.429 . S
C4040 C4023 1.574 . S
C4040 H4034 0.949 . S
C4040 C4044 1.368 . S
C4041 C4022 1.429 . S
C4041 C4035 1.429 . S
C4041 C4042 1.523 . S
C4042 C4023 1.368 . S
C4042 C4036 1.368 . S
C4042 C4041 1.523 . S
C4043 C4027 1.429 . S
C4043 C4039 1.429 . S
C4043 C4044 1.523 . S
C4044 C4028 1.368 . S
C4044 C4040 1.368 . S
C4044 C4043 1.523 . S
H4045 C4020 0.950 . S
H4046 C4022 0.950 . S
H4047 C4023 0.949 . S
H4048 C4025 0.950 . S
H4049 C4027 0.950 . S
C4050 C4051 1.349 . S
C4050 C4052 1.327 . S
C4050 H4075 0.950 . S
C4051 C4050 1.349 . S
C4051 C4067 1.349 . S
C4052 C4050 1.327 . S
C4052 C4071 1.429 . S
C4052 H4076 0.950 . S
C4053 C4070 1.574 . S
C4053 C4072 1.368 . S
C4053 H4077 0.949 . S
H4054 C4058 0.949 . S
C4055 C4056 1.349 . S
C4055 C4057 1.327 . S
C4055 H4078 0.950 . S
C4056 C4055 1.349 . S
C4056 C4068 1.349 . S
C4057 C4055 1.327 . S
C4057 C4073 1.455 . S
C4057 H4079 0.950 . S
C4058 H4054 0.949 . S
C4058 C4066 1.574 . S
C4058 C4074 1.368 . S
H4059 C4067 0.950 . S
H4060 C4065 0.950 . S
H4061 C4066 0.949 . S
H4062 C4068 0.950 . S
H4063 C4069 0.950 . S
H4064 C4070 0.949 . S
C4065 H4060 0.950 . S
C4065 C4067 1.327 . S
C4065 C4071 1.429 . S
C4066 C4058 1.574 . S
C4066 H4061 0.949 . S
C4066 C4072 1.368 . S
C4067 C4051 1.349 . S
C4067 H4059 0.950 . S
C4067 C4065 1.327 . S
C4068 C4056 1.349 . S
C4068 H4062 0.950 . S
C4068 C4069 1.327 . S
C4069 H4063 0.950 . S
C4069 C4068 1.327 . S
C4069 C4073 1.451 . S
C4070 C4053 1.574 . S
C4070 H4064 0.949 . S
C4070 C4074 1.368 . S
C4071 C4052 1.429 . S
C4071 C4065 1.429 . S
C4071 C4072 1.523 . S
C4072 C4053 1.368 . S
C4072 C4066 1.368 . S
C4072 C4071 1.523 . S
C4073 C4057 1.455 . S
C4073 C4069 1.451 . S
C4073 C4074 1.479 1_545 S
C4074 C4058 1.368 . S
C4074 C4070 1.368 . S
C4074 C4073 1.479 1_565 S
H4075 C4050 0.950 . S
H4076 C4052 0.950 . S
H4077 C4053 0.949 . S
H4078 C4055 0.950 . S
H4079 C4057 0.950 . S
C1921 C821 1.402 . S
C1926 C21 1.464 . S
C1951 C1661 1.888 . S
C1956 C61 1.788 . S
C1981 C1701 1.724 . S
C1986 C101 1.795 . S
C2011 C1741 1.350 . S
C2016 C141 1.370 . S
C2041 C1901 1.795 . S
C2046 C181 1.723 . S
C2071 C861 1.371 . S
C2076 C221 1.350 . S
C2101 C1861 1.788 . S
C2106 C261 1.888 . S
C2131 C301 1.402 . S
C2136 C661 1.464 . S
C2161 C341 1.464 . S
C2166 C621 1.402 . S
C2191 C501 1.350 . S
C2196 C381 1.370 . S
C2221 C541 1.888 . S
C2226 C421 1.764 1_545 S
C2251 C581 1.723 . S
C2256 C461 1.795 . S
C2281 C701 1.764 1_554 S
C2286 C1021 1.888 . S
C2311 C1061 1.350 . S
C2316 C741 1.370 . S
C2341 C781 1.795 . S
C2346 C1101 1.724 . S
C2371 C1221 1.764 1_455 S
C2376 C901 1.888 . S
C2401 C1141 1.371 . S
C2406 C941 1.350 . S
C2431 C981 1.402 . S
C2436 C1781 1.464 . S
C2461 C1821 1.723 . S
C2466 C1181 1.795 . S
C2491 C1621 1.402 . S
C2496 C1261 1.464 . S
C2521 C1301 1.402 . S
C2526 C1581 1.464 . S
C2551 C1461 1.795 . S
C2556 C1341 1.724 . S
C2581 C1501 1.788 . S
C2586 C1381 1.888 . S
C2611 C1541 1.371 . S
C2616 C1421 1.350 . S
C2641 C375 1.981 . S
C2646 C15 1.989 . S
C2671 C55 2.541 . S
C2676 C415 2.541 . S
C2701 C95 2.225 . S
C2706 C455 2.225 . S
C2731 C135 1.981 . S
C2736 C335 1.989 . S
C2761 C615 2.399 . S
C2766 C175 2.408 . S
C2791 C215 2.297 . S
C2796 C495 2.297 . S
C2821 C535 2.136 . S
C2826 C255 2.136 . S
C2851 C295 2.399 . S
C2856 C575 2.408 . S
C2881 C735 1.981 . S
C2886 C655 1.989 . S
C2911 C1855 2.541 . S
C2916 C695 2.541 . S
C2941 C775 2.225 . S
C2946 C1895 2.225 . S
C2971 C1815 2.408 . S
C2976 C815 2.399 . S
C3001 C1775 1.989 . S
C3006 C855 1.981 . S
C3031 C1655 2.136 . S
C3036 C895 2.136 . S
C3061 C935 2.297 . S
C3066 C1735 2.297 . S
C3091 C975 2.399 . S
C3096 C1335 2.408 . S
C3121 C1015 2.136 . S
C3126 C1375 2.136 . S
C3151 C1415 2.297 . S
C3156 C1055 2.297 . S
C3181 C1295 2.399 . S
C3186 C1095 2.408 . S
C3211 C1575 1.989 . S
C3216 C1135 1.981 . S
C3241 C1175 2.225 . S
C3246 C1455 2.225 . S
C3271 C1215 2.541 . S
C3276 C1495 2.541 . S
C3301 C1255 1.989 . S
C3306 C1535 1.981 . S
C3331 C1695 2.408 . S
C3336 C1615 2.399 . S
C3361 C1042 0.810 1_455 S
C3366 C2 0.817 . S
C3391 C42 0.967 . S
C3396 C1082 0.979 . S
C3421 C82 1.209 . S
C3426 C962 1.158 . S
C3451 C1002 1.077 . S
C3456 C122 1.052 . S
C3481 C162 0.979 . S
C3486 C1202 1.005 . S
C3511 C202 0.810 . S
C3516 C1242 0.817 . S
C3541 C1122 1.052 . S
C3546 C242 1.077 . S
C3571 C1162 1.209 . S
C3576 C282 1.158 . S
C3601 C482 0.810 1_545 S
C3606 C322 0.817 . S
C3631 C522 1.077 . S
C3636 C362 1.052 . S
C3661 C562 0.979 . S
C3666 C402 1.005 . S
C3691 C602 1.158 . S
C3696 C442 1.209 . S
C3721 C642 0.817 . S
C3726 C1722 0.810 1_554 S
C3751 C682 1.005 . S
C3756 C1802 0.979 . S
C3781 C722 1.052 . S
C3786 C882 1.077 . S
C3811 C1602 1.158 . S
C3816 C762 1.209 . S
C3841 C1882 1.209 . S
C3846 C802 1.158 . S
C3871 C842 1.052 . S
C3876 C1642 1.077 . S
C3901 C922 0.810 . S
C3906 C1762 0.817 . S
C3931 C1442 1.209 . S
C3936 C1282 1.158 . S
C3961 C1322 0.979 . S
C3966 C1482 0.967 . S
C3991 C1522 1.052 . S
C3996 C1362 1.077 . S
C4021 C1562 0.817 . S
C4026 C1402 0.810 . S
C4051 C1682 0.979 . S
C4056 C1842 0.967 . S
