# Generated by pormake.
# Topology hcp, (12)-cn, num edge types: 1
# Building blocks:
#     Node 0, Type 0, BuildingBlock: EZIPEK_clean_sbu_0, # of connection points: 12
#     Node 1, Type 0, BuildingBlock: EZIPEK_clean_sbu_0, # of connection points: 12
#     Edge 2, Type (0, 0), BuildingBlock: UVAHIK_clean_linker_0, # of connection points: 2
#     Edge 3, Type (0, 0), BuildingBlock: UVAHIK_clean_linker_0, # of connection points: 2
#     Edge 4, Type (0, 0), BuildingBlock: UVAHIK_clean_linker_0, # of connection points: 2
#     Edge 5, Type (0, 0), BuildingBlock: UVAHIK_clean_linker_0, # of connection points: 2
#     Edge 6, Type (0, 0), BuildingBlock: UVAHIK_clean_linker_0, # of connection points: 2
#     Edge 7, Type (0, 0), BuildingBlock: UVAHIK_clean_linker_0, # of connection points: 2
#     Edge 8, Type (0, 0), BuildingBlock: UVAHIK_clean_linker_0, # of connection points: 2
#     Edge 9, Type (0, 0), BuildingBlock: UVAHIK_clean_linker_0, # of connection points: 2
#     Edge 10, Type (0, 0), BuildingBlock: UVAHIK_clean_linker_0, # of connection points: 2
#     Edge 11, Type (0, 0), BuildingBlock: UVAHIK_clean_linker_0, # of connection points: 2
#     Edge 12, Type (0, 0), BuildingBlock: UVAHIK_clean_linker_0, # of connection points: 2
#     Edge 13, Type (0, 0), BuildingBlock: UVAHIK_clean_linker_0, # of connection points: 2
# Relax obj value: 0.186
# Max RMSD: 0.270
# Mean RMSD: 0.270
data_MOF--net-hcp--node1-EZIPEK_clean_sbu_0--edge1-UVAHIK_clean_linker_0
_symmetry_space_group_name_H-M    P1
_symmetry_Int_Tables_number       1
_symmetry_cell_setting            triclinic
loop_
_symmetry_equiv_pos_as_xyz
'x, y, z'
_cell_length_a     23.275491
_cell_length_b     23.280057
_cell_length_c     36.028569
_cell_angle_alpha  89.941821
_cell_angle_beta   90.04453
_cell_angle_gamma 120.02502
loop_
_atom_site_label
_atom_site_type_symbol
_atom_site_fract_x
_atom_site_fract_y
_atom_site_fract_z
_atom_type_partial_charge
C0 C 0.66117 0.13145 0.28872 0.0
C1 C 0.78158 0.38677 0.18313 0.0
C2 C 0.52148 0.24702 0.39265 0.0
C3 C 0.63215 0.50594 0.28374 0.0
C4 C 0.44272 0.304 0.28863 0.0
C5 C 0.57689 0.18223 0.18385 0.0
C6 C 0.69864 0.44501 0.39218 0.0
C7 C 0.84635 0.33335 0.28388 0.0
C8 C 0.83394 0.52263 0.2879 0.0
C9 C 0.5769 0.38733 0.18367 0.0
C10 C 0.7197 0.26812 0.3925 0.0
C11 C 0.4596 0.11883 0.28455 0.0
Eu12 Eu 0.69807 0.27007 0.24501 0.0
O13 O 0.6456 0.31912 0.22661 0.0
O14 O 0.69846 0.27583 0.30497 0.0
Eu15 Eu 0.5442 0.26672 0.24514 0.0
Eu16 Eu 0.7475 0.37559 0.32691 0.0
O17 O 0.60062 0.22456 0.26775 0.0
O18 O 0.74057 0.36891 0.26728 0.0
Eu19 Eu 0.60088 0.21827 0.32739 0.0
Eu20 Eu 0.69491 0.42075 0.24466 0.0
O21 O 0.5501 0.26713 0.30511 0.0
O22 O 0.59639 0.36448 0.26746 0.0
O23 O 0.68968 0.41556 0.30465 0.0
O24 O 0.64624 0.31972 0.34379 0.0
Eu25 Eu 0.59022 0.36501 0.3271 0.0
O26 O 0.68945 0.1723 0.26011 0.0
O27 O 0.75806 0.32472 0.19484 0.0
O28 O 0.53954 0.30865 0.38113 0.0
O29 O 0.59999 0.46316 0.31115 0.0
O30 O 0.45501 0.27528 0.26019 0.0
O31 O 0.53861 0.20621 0.19521 0.0
O32 O 0.74213 0.42681 0.38077 0.0
O33 O 0.83588 0.36576 0.31115 0.0
O34 O 0.79292 0.50997 0.25937 0.0
O35 O 0.63929 0.42578 0.19487 0.0
O36 O 0.65791 0.22439 0.38125 0.0
O37 O 0.50263 0.12967 0.31186 0.0
O38 O 0.64336 0.43215 0.37463 0.0
O39 O 0.48461 0.33767 0.31598 0.0
O40 O 0.80307 0.29628 0.2577 0.0
O41 O 0.63551 0.19698 0.19881 0.0
O42 O 0.76691 0.43071 0.19798 0.0
O43 O 0.66894 0.49964 0.25744 0.0
O44 O 0.62803 0.13991 0.31626 0.0
O45 O 0.53423 0.20455 0.37513 0.0
O46 O 0.4656 0.16179 0.25821 0.0
O47 O 0.5332 0.32879 0.19878 0.0
O48 O 0.76194 0.3232 0.37473 0.0
O49 O 0.82569 0.48109 0.31548 0.0
C50 C 0.29882 0.45023 0.78771 0.0
C51 C 0.17747 0.58539 0.68316 0.0
C52 C 0.4383 0.70473 0.89238 0.0
C53 C 0.32903 0.8544 0.78354 0.0
C54 C 0.2622 0.72719 0.89169 0.0
C55 C 0.1139 0.46733 0.78361 0.0
C56 C 0.51801 0.84104 0.78831 0.0
C57 C 0.38295 0.5854 0.68328 0.0
C58 C 0.38327 0.79073 0.68329 0.0
C59 C 0.12662 0.66931 0.78771 0.0
C60 C 0.50072 0.63941 0.78393 0.0
C61 C 0.24046 0.52762 0.89169 0.0
Eu62 Eu 0.2619 0.5523 0.74444 0.0
O63 O 0.2198 0.60882 0.76692 0.0
O64 O 0.35944 0.60393 0.76711 0.0
Eu65 Eu 0.21305 0.60853 0.82656 0.0
Eu66 Eu 0.41598 0.70262 0.74461 0.0
O67 O 0.26174 0.55763 0.8044 0.0
O68 O 0.31451 0.65388 0.72609 0.0
Eu69 Eu 0.35934 0.59719 0.82674 0.0
Eu70 Eu 0.26549 0.70635 0.74437 0.0
O71 O 0.31432 0.65351 0.84338 0.0
O72 O 0.27098 0.70632 0.80434 0.0
O73 O 0.36405 0.74829 0.7671 0.0
O74 O 0.41025 0.69694 0.80458 0.0
Eu75 Eu 0.37048 0.75487 0.82674 0.0
O76 O 0.27023 0.46286 0.75928 0.0
O77 O 0.20144 0.54704 0.69449 0.0
O78 O 0.4206 0.74856 0.88087 0.0
O79 O 0.36127 0.8436 0.81084 0.0
O80 O 0.21857 0.66545 0.88033 0.0
O81 O 0.12456 0.51024 0.81091 0.0
O82 O 0.5054 0.80025 0.75971 0.0
O83 O 0.42138 0.64766 0.69466 0.0
O84 O 0.32088 0.76676 0.69448 0.0
O85 O 0.16775 0.69795 0.75926 0.0
O86 O 0.45771 0.60716 0.81123 0.0
O87 O 0.30192 0.54487 0.88024 0.0
O88 O 0.47627 0.83276 0.81575 0.0
O89 O 0.31758 0.76937 0.87416 0.0
O90 O 0.32425 0.54165 0.69819 0.0
O91 O 0.15697 0.47354 0.75732 0.0
O92 O 0.19235 0.644 0.69812 0.0
O93 O 0.29193 0.81134 0.75728 0.0
O94 O 0.3323 0.49181 0.81521 0.0
O95 O 0.42556 0.6496 0.87475 0.0
O96 O 0.1988 0.54182 0.87437 0.0
O97 O 0.13476 0.63571 0.81516 0.0
O98 O 0.49461 0.67632 0.75759 0.0
O99 O 0.42697 0.77589 0.69837 0.0
C100 C 0.26872 0.72427 0.96036 0.0
C101 C 0.2562 0.75124 0.92858 0.0
C102 C 0.29413 0.7626 0.99267 0.0
C103 C 0.32461 0.91688 0.04024 0.0
H104 H 0.49264 0.93366 0.06976 0.0
C105 C 0.51071 0.14137 0.12562 0.0
C106 C 0.54865 0.13312 0.15322 0.0
C107 C 0.4735 0.09075 0.10027 0.0
C108 C 0.44541 0.92906 0.06244 0.0
H109 H 0.25486 0.83706 0.90665 0.0
H110 H 0.29486 0.90228 0.96345 0.0
H111 H 0.42161 0.84791 1.0254 0.0
H112 H 0.5787 0.06565 0.17525 0.0
H113 H 0.51252 0.97609 0.13127 0.0
H114 H 0.34754 -0.00267 0.07713 0.0
C115 C 0.28633 0.85207 0.96348 0.0
C116 C 0.40454 0.87968 1.03698 0.0
C117 C 0.26254 0.81438 0.93102 0.0
C118 C 0.55064 0.07378 0.15395 0.0
C119 C 0.51239 0.02236 0.12877 0.0
C120 C 0.36493 0.9656 0.06596 0.0
C121 C 0.30573 0.82802 0.99402 0.0
C122 C 0.34427 0.87391 1.02499 0.0
C123 C 0.47187 0.02954 0.10211 0.0
C124 C 0.42684 0.97371 0.07679 0.0
H125 H 0.2654 0.67631 0.95899 0.0
H126 H 0.30794 0.74237 1.01586 0.0
H127 H 0.27823 0.91335 1.03189 0.0
H128 H 0.50848 0.18672 0.12418 0.0
H129 H 0.44513 0.09953 0.0795 0.0
C130 C 0.44956 0.61057 0.62525 0.0
C131 C 0.41119 0.56438 0.65274 0.0
C132 C 0.48689 0.59702 0.60008 0.0
C133 C 0.51467 0.46316 0.56246 0.0
H134 H 0.68273 0.61437 0.53278 0.0
C135 C 0.69158 0.4348 0.4608 0.0
C136 C 0.70466 0.47475 0.42916 0.0
C137 C 0.66612 0.44762 0.49312 0.0
C138 C 0.6361 0.57158 0.54089 0.0
H139 H 0.38048 0.46668 0.67475 0.0
H140 H 0.44681 0.44303 0.63108 0.0
H141 H 0.61309 0.62912 0.5777 0.0
H142 H 0.70696 0.56253 0.40751 0.0
H143 H 0.66682 0.58749 0.46431 0.0
H144 H 0.53851 0.40581 0.52548 0.0
C145 C 0.44722 0.48956 0.62853 0.0
C146 C 0.5956 0.58003 0.56643 0.0
C147 C 0.40887 0.50288 0.65353 0.0
C148 C 0.69883 0.53182 0.43178 0.0
C149 C 0.67498 0.54558 0.46424 0.0
C150 C 0.5557 0.45459 0.53718 0.0
C151 C 0.48819 0.53727 0.60201 0.0
C152 C 0.53339 0.52635 0.57693 0.0
C153 C 0.65499 0.50174 0.49461 0.0
C154 C 0.61629 0.50901 0.52548 0.0
H155 H 0.45207 0.65827 0.62377 0.0
H156 H 0.51564 0.63419 0.5794 0.0
H157 H 0.4672 0.42061 0.56955 0.0
H158 H 0.69446 0.38991 0.45929 0.0
H159 H 0.65185 0.41326 0.51617 0.0
C160 C 0.88798 0.4693 0.15132 0.0
C161 C 0.82944 0.40714 0.15189 0.0
C162 C 0.93777 0.48294 0.1249 0.0
C163 C 0.96559 0.42902 1.03337 0.0
H164 H 0.14754 0.49857 0.06557 0.0
C165 C 0.15426 0.43764 0.9297 0.0
C166 C 0.21572 0.49662 0.92829 0.0
C167 C 0.11276 0.42287 0.96058 0.0
C168 C 0.09714 0.4796 0.05598 0.0
H169 H 0.7762 0.31169 0.12448 0.0
H170 H 0.86139 0.33595 0.07813 0.0
H171 H 0.06315 0.48726 0.11027 0.0
H172 H 0.28463 0.58311 0.95944 0.0
H173 H 0.21204 0.55865 1.01319 0.0
H174 H -0.00136 0.42244 0.97918 0.0
C175 C 0.8695 0.3741 0.09807 0.0
C176 C 0.0488 0.47335 0.08163 0.0
C177 C 0.82061 0.36017 0.12468 0.0
C178 C 0.23788 0.53691 0.96004 0.0
C179 C 0.19574 0.52297 0.99077 0.0
C180 C 0.01371 0.43574 1.00778 0.0
C181 C 0.92925 0.43513 0.09815 0.0
C182 C -0.01777 0.44721 0.07068 0.0
C183 C 0.13095 0.46765 0.99048 0.0
C184 C 0.08015 0.4602 1.01868 0.0
H185 H 0.89657 0.50611 0.17227 0.0
H186 H -0.01694 0.53061 0.12553 0.0
H187 H 0.91508 0.40973 1.02383 0.0
H188 H 0.13551 0.40612 0.90541 0.0
H189 H 0.06441 0.37843 0.95979 0.0
C190 C 0.46573 0.89959 0.65382 0.0
C191 C 0.40448 0.84013 0.65278 0.0
C192 C 0.47896 0.95143 0.62892 0.0
C193 C 0.38813 0.00909 0.56706 0.0
H194 H 0.5621 0.12714 0.52594 0.0
C195 C 0.435 0.16059 0.43252 0.0
C196 C 0.49208 0.2235 0.42972 0.0
C197 C 0.42153 0.12309 0.46504 0.0
C198 C 0.51339 0.0953 0.53771 0.0
H199 H 0.311 0.78673 0.62345 0.0
H200 H 0.33493 0.87475 0.57927 0.0
H201 H 0.54782 0.04091 0.5699 0.0
H202 H 0.57721 0.2983 0.45955 0.0
H203 H 0.55434 0.23257 0.51655 0.0
H204 H 0.35333 0.06175 0.53362 0.0
C205 C 0.37196 0.88322 0.60006 0.0
C206 C 0.50513 0.04564 0.56291 0.0
C207 C 0.35851 0.83216 0.62512 0.0
C208 C 0.53231 0.25053 0.46123 0.0
C209 C 0.51976 0.21237 0.49361 0.0
C210 C 0.39628 0.05812 0.54162 0.0
C211 C 0.43138 0.94455 0.60228 0.0
C212 C 0.44202 0.00082 0.57738 0.0
C213 C 0.46566 0.1471 0.49527 0.0
C214 C 0.45875 0.10119 0.52614 0.0
H215 H 0.50175 0.90749 0.67518 0.0
H216 H 0.52526 -0.00222 0.63164 0.0
H217 H 0.3391 0.97716 0.57837 0.0
H218 H 0.40407 0.1379 0.40835 0.0
H219 H 0.37962 0.07299 0.46525 0.0
C220 C 0.4942 0.41312 0.15393 0.0
C221 C 0.55568 0.4154 0.15311 0.0
C222 C 0.48082 0.45148 0.12891 0.0
C223 C 0.57129 0.60012 0.06711 0.0
H224 H 0.39738 0.54286 1.02546 0.0
C225 C 0.52461 0.70497 0.93253 0.0
C226 C 0.46721 0.71016 0.92956 0.0
C227 C 0.53798 0.68077 0.96502 0.0
C228 C 0.44606 0.56011 1.03737 0.0
H229 H 0.64943 0.45609 0.12402 0.0
H230 H 0.62527 0.51977 0.07968 0.0
H231 H 0.412 0.47134 0.06957 0.0
H232 H 0.38117 0.69822 0.95904 0.0
H233 H 0.40393 0.65521 1.01601 0.0
H234 H 0.60574 0.68758 1.03371 0.0
C235 C 0.58816 0.49101 0.10038 0.0
C236 C 0.45452 0.51895 0.06266 0.0
C237 C 0.60175 0.45365 0.12554 0.0
C238 C 0.42637 0.69594 0.96087 0.0
C239 C 0.43886 0.67023 0.99322 0.0
C240 C 0.56295 0.64078 0.0416 0.0
C241 C 0.52847 0.49241 0.10237 0.0
C242 C 0.51761 0.53773 0.07734 0.0
C243 C 0.49342 0.65983 0.99506 0.0
C244 C 0.5005 0.6209 1.02593 0.0
H245 H 0.45809 0.3848 0.1752 0.0
H246 H 0.43432 0.45114 0.13146 0.0
H247 H 0.62029 0.61759 0.07858 0.0
H248 H 0.55598 0.71391 0.90849 0.0
H249 H 0.58024 0.67316 0.96535 0.0
C250 C 0.71701 0.2758 0.46112 0.0
C251 C 0.74374 0.26257 0.42951 0.0
C252 C 0.75548 0.30148 0.49338 0.0
C253 C 0.90982 0.33186 0.54109 0.0
H254 H 0.92772 0.50069 0.56959 0.0
C255 C 0.13582 0.51883 0.62514 0.0
C256 C 0.12806 0.55712 0.65266 0.0
C257 C 0.08481 0.48143 0.60002 0.0
C258 C 0.92281 0.45324 0.56255 0.0
H259 H 0.8292 0.2603 0.40787 0.0
H260 H 0.89463 0.30083 0.46459 0.0
H261 H 0.84136 0.42918 0.52561 0.0
H262 H 0.06104 0.58764 0.67474 0.0
H263 H 0.97082 0.52118 0.63114 0.0
H264 H -0.00937 0.3551 0.57784 0.0
C265 C 0.84452 0.29261 0.46453 0.0
C266 C 0.87307 0.4121 0.53732 0.0
C267 C 0.80672 0.26853 0.43211 0.0
C268 C 0.06881 0.55931 0.6535 0.0
C269 C 0.01701 0.52089 0.62855 0.0
C270 C 0.9589 0.37247 0.56657 0.0
C271 C 0.82078 0.31269 0.49486 0.0
C272 C 0.86691 0.35153 0.52568 0.0
C273 C 0.02369 0.47998 0.60202 0.0
C274 C 0.96743 0.43467 0.577 0.0
H275 H 0.66918 0.27282 0.45961 0.0
H276 H 0.73548 0.31583 0.51641 0.0
H277 H 0.90599 0.28525 0.53303 0.0
H278 H 0.18107 0.51643 0.62362 0.0
H279 H 0.09318 0.45272 0.57933 0.0
C280 C 0.68364 0.0494 0.2574 0.0
C281 C 0.66454 0.07021 0.28933 0.0
C282 C 0.68136 -0.01144 0.25704 0.0
C283 C 0.59576 0.82674 0.30162 0.0
H284 H 0.73532 0.80404 0.25788 0.0
C285 C 0.60891 0.58772 0.31467 0.0
C286 C 0.62846 0.56695 0.28292 0.0
C287 C 0.61059 0.64828 0.31474 0.0
C288 C 0.69567 0.80968 0.26975 0.0
H289 H 0.63126 0.04534 0.34648 0.0
H290 H 0.62792 0.9393 0.34578 0.0
H291 H 0.74795 0.91444 0.26058 0.0
H292 H 0.66158 0.59124 0.22572 0.0
H293 H 0.66397 0.69688 0.22591 0.0
H294 H 0.54351 0.72197 0.31082 0.0
C295 C 0.64332 0.96955 0.32091 0.0
C296 C 0.703 0.87266 0.27139 0.0
C297 C 0.64546 0.03027 0.32128 0.0
C298 C 0.64727 0.60649 0.25082 0.0
C299 C 0.64877 0.66691 0.25089 0.0
C300 C 0.58843 0.76375 0.29998 0.0
C301 C 0.66015 0.94781 0.2886 0.0
C302 C 0.65313 0.88159 0.28738 0.0
C303 C 0.6316 0.68872 0.28305 0.0
C304 C 0.63834 0.75484 0.28404 0.0
H305 H 0.69836 0.07897 0.23228 0.0
H306 H 0.69408 0.97246 0.2317 0.0
H307 H 0.55616 0.83241 0.31353 0.0
H308 H 0.59439 0.55836 0.33987 0.0
H309 H 0.59763 0.66445 0.33997 0.0
C310 C 0.0451 0.69293 0.75651 0.0
C311 C 0.06548 0.67291 0.7883 0.0
C312 C -0.01564 0.69091 0.75615 0.0
C313 C 0.85469 0.68442 0.8162 0.0
H314 H 0.74019 0.59862 0.73155 0.0
C315 C 0.5818 0.61507 0.81498 0.0
C316 C 0.56171 0.63564 0.7833 0.0
C317 C 0.64231 0.61665 0.81524 0.0
C318 C 0.77192 0.62302 0.75519 0.0
H319 H 0.0398 0.63793 0.84515 0.0
H320 H 0.93356 0.634 0.84426 0.0
H321 H 0.85145 0.61294 0.7329 0.0
H322 H 0.58738 0.67078 0.72648 0.0
H323 H 0.69335 0.674 0.72722 0.0
H324 H 0.77518 0.69449 0.8385 0.0
C325 C 0.96466 0.65136 0.81976 0.0
C326 C 0.83542 0.63145 0.7559 0.0
C327 C 0.02523 0.65317 0.82012 0.0
C328 C 0.60191 0.65534 0.75146 0.0
C329 C 0.66225 0.65667 0.75172 0.0
C330 C 0.7912 0.67596 0.8155 0.0
C331 C 0.94336 0.66915 0.78759 0.0
C332 C 0.87719 0.66223 0.7864 0.0
C333 C 0.68334 0.63845 0.78382 0.0
C334 C 0.74944 0.6452 0.785 0.0
H335 H 0.07505 0.70846 0.73155 0.0
H336 H 0.9691 0.70565 0.73119 0.0
H337 H 0.88642 0.70886 0.83983 0.0
H338 H 0.5518 0.59955 0.83992 0.0
H339 H 0.65743 0.60159 0.84015 0.0
C340 C 0.35881 0.03322 0.25192 0.0
C341 C 0.39872 0.05397 0.28388 0.0
C342 C 0.29853 0.97413 0.25213 0.0
C343 C 0.16912 0.86499 0.31573 0.0
H344 H 0.10947 0.74097 0.23344 0.0
C345 C 0.93507 0.60817 0.3204 0.0
C346 C 0.89506 0.58739 0.28847 0.0
C347 C -0.00437 0.66696 0.32005 0.0
C348 C 0.12534 0.77573 0.25635 0.0
H349 H 0.40826 0.02818 0.34065 0.0
H350 H 0.30272 0.92444 0.34079 0.0
H351 H 0.22081 0.83787 0.23222 0.0
H352 H 0.88586 0.6129 0.23156 0.0
H353 H -0.00818 0.71612 0.23123 0.0
H354 H 0.07366 0.80293 0.33984 0.0
C355 C 0.31801 0.95447 0.31583 0.0
C356 C 0.18887 0.83075 0.25572 0.0
C357 C 0.37847 0.0135 0.31562 0.0
C358 C 0.91565 0.62755 0.2566 0.0
C359 C 0.97637 0.6863 0.25626 0.0
C360 C 0.10559 0.80999 0.31635 0.0
C361 C 0.27723 0.93501 0.28429 0.0
C362 C 0.21113 0.87568 0.28541 0.0
C363 C 0.01714 0.7058 0.2878 0.0
C364 C 0.08332 0.76504 0.28666 0.0
H365 H 0.3735 0.06306 0.2269 0.0
H366 H 0.26761 0.96016 0.22754 0.0
H367 H 0.18497 0.89975 0.33863 0.0
H368 H 0.92033 0.57856 0.3455 0.0
H369 H 0.02657 0.68092 0.34464 0.0
C370 C 0.3151 0.36487 0.81998 0.0
C371 C 0.29531 0.38553 0.78821 0.0
C372 C 0.31698 0.30616 0.81953 0.0
C373 C 0.3368 0.1971 0.7555 0.0
H374 H 0.27406 0.07356 0.83812 0.0
C375 C 0.31321 0.93977 0.75101 0.0
C376 C 0.33294 0.91924 0.78285 0.0
C377 C 0.31185 -0.00123 0.75127 0.0
C378 C 0.29251 0.10817 0.81511 0.0
H379 H 0.25978 0.35984 0.73146 0.0
H380 H 0.26269 0.25677 0.73094 0.0
H381 H 0.25965 0.17035 0.83954 0.0
H382 H 0.36906 0.94535 0.83946 0.0
H383 H 0.36699 0.04889 0.83967 0.0
H384 H 0.36959 0.13484 0.73106 0.0
C385 C 0.27742 0.28663 0.75594 0.0
C386 C 0.28403 0.16318 0.81586 0.0
C387 C 0.27534 0.3453 0.75638 0.0
C388 C 0.35353 0.95985 0.81451 0.0
C389 C 0.35193 0.01877 0.81477 0.0
C390 C 0.34526 0.14206 0.75475 0.0
C391 C 0.29921 0.26723 0.78732 0.0
C392 C 0.30612 0.20798 0.78607 0.0
C393 C 0.33006 0.03802 0.78336 0.0
C394 C 0.3232 0.0973 0.78456 0.0
H395 H 0.33032 0.39453 0.84504 0.0
H396 H 0.33436 0.29231 0.84399 0.0
H397 H 0.35523 0.23171 0.7325 0.0
H398 H 0.29774 0.90984 0.72605 0.0
H399 H 0.29448 0.01255 0.72678 0.0
C400 C 0.35731 0.31955 0.32126 0.0
C401 C 0.37804 0.30051 0.28928 0.0
C402 C 0.29871 0.32165 0.32094 0.0
C403 C 0.14187 0.26208 0.27155 0.0
H404 H 0.15118 0.42169 0.31093 0.0
C405 C 0.93164 0.31814 0.25099 0.0
C406 C 0.91106 0.33705 0.28307 0.0
C407 C -0.00948 0.31656 0.25107 0.0
C408 C 0.14789 0.37674 0.30011 0.0
H409 H 0.35273 0.2667 0.23225 0.0
H410 H 0.25042 0.27092 0.23175 0.0
H411 H 0.24891 0.40892 0.31357 0.0
H412 H 0.93677 0.37123 0.33999 0.0
H413 H 0.03958 0.36784 0.34011 0.0
H414 H 0.04084 0.22986 0.25813 0.0
C415 C 0.27937 0.28363 0.25707 0.0
C416 C 0.20352 0.36933 0.3017 0.0
C417 C 0.33796 0.28138 0.25738 0.0
C418 C 0.95151 0.35664 0.31481 0.0
C419 C 0.01035 0.35487 0.31489 0.0
C420 C 0.08625 0.26948 0.26996 0.0
C421 C 0.25999 0.30484 0.28865 0.0
C422 C 0.20082 0.31192 0.28747 0.0
C423 C 0.02961 0.33373 0.28322 0.0
C424 C 0.08892 0.32686 0.28422 0.0
H425 H 0.38671 0.33374 0.34644 0.0
H426 H 0.28396 0.33704 0.34582 0.0
H427 H 0.13857 0.21711 0.26075 0.0
H428 H 0.90198 0.3038 0.2259 0.0
H429 H 0.00516 0.30128 0.22611 0.0
C430 C 0.02829 0.36684 0.75081 0.0
C431 C 0.04925 0.40622 0.78294 0.0
C432 C 0.96957 0.30621 0.75102 0.0
C433 C 0.81306 0.20826 0.80065 0.0
H434 H 0.82237 0.0585 0.76039 0.0
C435 C 0.60389 0.94135 0.82124 0.0
C436 C 0.58286 0.90204 0.78908 0.0
C437 C 0.66261 0.002 0.82105 0.0
C438 C 0.81908 0.10003 0.77145 0.0
H439 H 0.02438 0.41433 0.84008 0.0
H440 H 0.92182 0.30784 0.84042 0.0
H441 H 0.91989 0.1692 0.75779 0.0
H442 H 0.60777 0.89418 0.73189 0.0
H443 H 0.71028 0.00062 0.73162 0.0
H444 H 0.71225 0.13908 0.81431 0.0
C445 C 0.95063 0.32431 0.81507 0.0
C446 C 0.87458 0.16316 0.76987 0.0
C447 C 0.00932 0.3851 0.81487 0.0
C448 C 0.62278 0.9233 0.75715 0.0
C449 C 0.68148 0.98408 0.75697 0.0
C450 C 0.75756 0.14512 0.80222 0.0
C451 C 0.93102 0.284 0.78335 0.0
C452 C 0.8719 0.21768 0.78443 0.0
C453 C 0.70113 0.02429 0.78872 0.0
C454 C 0.76025 0.09061 0.78766 0.0
H455 H 0.05755 0.38238 0.7256 0.0
H456 H 0.95463 0.27636 0.72602 0.0
H457 H 0.80977 0.24979 0.8117 0.0
H458 H 0.57463 0.92588 0.84646 0.0
H459 H 0.67755 0.03181 0.84607 0.0
loop_
_geom_bond_atom_site_label_1
_geom_bond_atom_site_label_2
_geom_bond_distance
_geom_bond_site_symmetry_2
_ccdc_geom_bond_type
C0 O26 1.283 . S
C0 O44 1.283 . S
C1 O27 1.283 . S
C1 O42 1.283 . S
C2 O28 1.283 . S
C2 O45 1.283 . S
C3 O29 1.283 . S
C3 O43 1.283 . S
C4 O30 1.283 . S
C4 O39 1.283 . S
C5 O31 1.283 . S
C5 O41 1.283 . S
C6 O32 1.283 . S
C6 O38 1.283 . S
C7 O33 1.283 . S
C7 O40 1.283 . S
C8 O34 1.283 . S
C8 O49 1.283 . S
C9 O35 1.283 . S
C9 O47 1.283 . S
C10 O36 1.283 . S
C10 O48 1.283 . S
C11 O37 1.283 . S
C11 O46 1.283 . S
Eu12 O13 2.370 . S
Eu12 O14 2.370 . S
Eu12 O17 2.370 . S
Eu12 O18 2.370 . S
Eu12 O26 2.363 . S
Eu12 O27 2.363 . S
Eu12 O40 2.363 . S
Eu12 O41 2.363 . S
O13 Eu12 2.370 . S
O13 Eu15 2.370 . S
O13 Eu20 2.370 . S
O14 Eu12 2.370 . S
O14 Eu16 2.370 . S
O14 Eu19 2.370 . S
Eu15 O13 2.370 . S
Eu15 O17 2.370 . S
Eu15 O21 2.370 . S
Eu15 O22 2.370 . S
Eu15 O30 2.363 . S
Eu15 O31 2.363 . S
Eu15 O46 2.363 . S
Eu15 O47 2.363 . S
Eu16 O14 2.370 . S
Eu16 O18 2.370 . S
Eu16 O23 2.370 . S
Eu16 O24 2.370 . S
Eu16 O32 2.363 . S
Eu16 O33 2.363 . S
Eu16 O48 2.363 . S
Eu16 O49 2.363 . S
O17 Eu12 2.370 . S
O17 Eu15 2.370 . S
O17 Eu19 2.370 . S
O18 Eu12 2.370 . S
O18 Eu16 2.370 . S
O18 Eu20 2.370 . S
Eu19 O14 2.370 . S
Eu19 O17 2.370 . S
Eu19 O21 2.370 . S
Eu19 O24 2.370 . S
Eu19 O36 2.363 . S
Eu19 O37 2.363 . S
Eu19 O44 2.363 . S
Eu19 O45 2.363 . S
Eu20 O13 2.370 . S
Eu20 O18 2.370 . S
Eu20 O22 2.370 . S
Eu20 O23 2.370 . S
Eu20 O34 2.363 . S
Eu20 O35 2.363 . S
Eu20 O42 2.363 . S
Eu20 O43 2.363 . S
O21 Eu15 2.370 . S
O21 Eu19 2.370 . S
O21 Eu25 2.370 . S
O22 Eu15 2.370 . S
O22 Eu20 2.370 . S
O22 Eu25 2.370 . S
O23 Eu16 2.370 . S
O23 Eu20 2.370 . S
O23 Eu25 2.370 . S
O24 Eu16 2.370 . S
O24 Eu19 2.370 . S
O24 Eu25 2.370 . S
Eu25 O21 2.370 . S
Eu25 O22 2.370 . S
Eu25 O23 2.370 . S
Eu25 O24 2.370 . S
Eu25 O28 2.363 . S
Eu25 O29 2.363 . S
Eu25 O38 2.363 . S
Eu25 O39 2.363 . S
O26 C0 1.283 . S
O26 Eu12 2.363 . S
O27 C1 1.283 . S
O27 Eu12 2.363 . S
O28 C2 1.283 . S
O28 Eu25 2.363 . S
O29 C3 1.283 . S
O29 Eu25 2.363 . S
O30 C4 1.283 . S
O30 Eu15 2.363 . S
O31 C5 1.283 . S
O31 Eu15 2.363 . S
O32 C6 1.283 . S
O32 Eu16 2.363 . S
O33 C7 1.283 . S
O33 Eu16 2.363 . S
O34 C8 1.283 . S
O34 Eu20 2.363 . S
O35 C9 1.283 . S
O35 Eu20 2.363 . S
O36 C10 1.283 . S
O36 Eu19 2.363 . S
O37 C11 1.283 . S
O37 Eu19 2.363 . S
O38 C6 1.283 . S
O38 Eu25 2.363 . S
O39 C4 1.283 . S
O39 Eu25 2.363 . S
O40 C7 1.283 . S
O40 Eu12 2.363 . S
O41 C5 1.283 . S
O41 Eu12 2.363 . S
O42 C1 1.283 . S
O42 Eu20 2.363 . S
O43 C3 1.283 . S
O43 Eu20 2.363 . S
O44 C0 1.283 . S
O44 Eu19 2.363 . S
O45 C2 1.283 . S
O45 Eu19 2.363 . S
O46 C11 1.283 . S
O46 Eu15 2.363 . S
O47 C9 1.283 . S
O47 Eu15 2.363 . S
O48 C10 1.283 . S
O48 Eu16 2.363 . S
O49 C8 1.283 . S
O49 Eu16 2.363 . S
C50 O76 1.283 . S
C50 O94 1.283 . S
C51 O77 1.283 . S
C51 O92 1.283 . S
C52 O78 1.283 . S
C52 O95 1.283 . S
C53 O79 1.283 . S
C53 O93 1.283 . S
C54 O80 1.283 . S
C54 O89 1.283 . S
C55 O81 1.283 . S
C55 O91 1.283 . S
C56 O82 1.283 . S
C56 O88 1.283 . S
C57 O83 1.283 . S
C57 O90 1.283 . S
C58 O84 1.283 . S
C58 O99 1.283 . S
C59 O85 1.283 . S
C59 O97 1.283 . S
C60 O86 1.283 . S
C60 O98 1.283 . S
C61 O87 1.283 . S
C61 O96 1.283 . S
Eu62 O63 2.370 . S
Eu62 O64 2.370 . S
Eu62 O67 2.370 . S
Eu62 O68 2.370 . S
Eu62 O76 2.363 . S
Eu62 O77 2.363 . S
Eu62 O90 2.363 . S
Eu62 O91 2.363 . S
O63 Eu62 2.370 . S
O63 Eu65 2.370 . S
O63 Eu70 2.370 . S
O64 Eu62 2.370 . S
O64 Eu66 2.370 . S
O64 Eu69 2.370 . S
Eu65 O63 2.370 . S
Eu65 O67 2.370 . S
Eu65 O71 2.370 . S
Eu65 O72 2.370 . S
Eu65 O80 2.363 . S
Eu65 O81 2.363 . S
Eu65 O96 2.363 . S
Eu65 O97 2.363 . S
Eu66 O64 2.370 . S
Eu66 O68 2.370 . S
Eu66 O73 2.370 . S
Eu66 O74 2.370 . S
Eu66 O82 2.363 . S
Eu66 O83 2.363 . S
Eu66 O98 2.363 . S
Eu66 O99 2.363 . S
O67 Eu62 2.370 . S
O67 Eu65 2.370 . S
O67 Eu69 2.370 . S
O68 Eu62 2.370 . S
O68 Eu66 2.370 . S
O68 Eu70 2.370 . S
Eu69 O64 2.370 . S
Eu69 O67 2.370 . S
Eu69 O71 2.370 . S
Eu69 O74 2.370 . S
Eu69 O86 2.363 . S
Eu69 O87 2.363 . S
Eu69 O94 2.363 . S
Eu69 O95 2.363 . S
Eu70 O63 2.370 . S
Eu70 O68 2.370 . S
Eu70 O72 2.370 . S
Eu70 O73 2.370 . S
Eu70 O84 2.363 . S
Eu70 O85 2.363 . S
Eu70 O92 2.363 . S
Eu70 O93 2.363 . S
O71 Eu65 2.370 . S
O71 Eu69 2.370 . S
O71 Eu75 2.370 . S
O72 Eu65 2.370 . S
O72 Eu70 2.370 . S
O72 Eu75 2.370 . S
O73 Eu66 2.370 . S
O73 Eu70 2.370 . S
O73 Eu75 2.370 . S
O74 Eu66 2.370 . S
O74 Eu69 2.370 . S
O74 Eu75 2.370 . S
Eu75 O71 2.370 . S
Eu75 O72 2.370 . S
Eu75 O73 2.370 . S
Eu75 O74 2.370 . S
Eu75 O78 2.363 . S
Eu75 O79 2.363 . S
Eu75 O88 2.363 . S
Eu75 O89 2.363 . S
O76 C50 1.283 . S
O76 Eu62 2.363 . S
O77 C51 1.283 . S
O77 Eu62 2.363 . S
O78 C52 1.283 . S
O78 Eu75 2.363 . S
O79 C53 1.283 . S
O79 Eu75 2.363 . S
O80 C54 1.283 . S
O80 Eu65 2.363 . S
O81 C55 1.283 . S
O81 Eu65 2.363 . S
O82 C56 1.283 . S
O82 Eu66 2.363 . S
O83 C57 1.283 . S
O83 Eu66 2.363 . S
O84 C58 1.283 . S
O84 Eu70 2.363 . S
O85 C59 1.283 . S
O85 Eu70 2.363 . S
O86 C60 1.283 . S
O86 Eu69 2.363 . S
O87 C61 1.283 . S
O87 Eu69 2.363 . S
O88 C56 1.283 . S
O88 Eu75 2.363 . S
O89 C54 1.283 . S
O89 Eu75 2.363 . S
O90 C57 1.283 . S
O90 Eu62 2.363 . S
O91 C55 1.283 . S
O91 Eu62 2.363 . S
O92 C51 1.283 . S
O92 Eu70 2.363 . S
O93 C53 1.283 . S
O93 Eu70 2.363 . S
O94 C50 1.283 . S
O94 Eu69 2.363 . S
O95 C52 1.283 . S
O95 Eu69 2.363 . S
O96 C61 1.283 . S
O96 Eu65 2.363 . S
O97 C59 1.283 . S
O97 Eu65 2.363 . S
O98 C60 1.283 . S
O98 Eu66 2.363 . S
O99 C58 1.283 . S
O99 Eu66 2.363 . S
C100 C101 1.349 . S
C100 C102 1.327 . S
C100 H125 0.950 . S
C101 C100 1.349 . S
C101 C117 1.349 . S
C102 C100 1.327 . S
C102 C121 1.429 . S
C102 H126 0.950 . S
C103 C120 1.574 1_566 S
C103 C122 1.368 . S
C103 H127 0.949 . S
H104 C108 0.949 . S
C105 C106 1.349 . S
C105 C107 1.327 . S
C105 H128 0.950 . S
C106 C105 1.349 . S
C106 C118 1.349 . S
C107 C105 1.327 . S
C107 C123 1.429 . S
C107 H129 0.950 . S
C108 H104 0.949 . S
C108 C116 1.574 1_554 S
C108 C124 1.368 1_565 S
H109 C117 0.950 . S
H110 C115 0.950 . S
H111 C116 0.949 . S
H112 C118 0.950 . S
H113 C119 0.950 . S
H114 C120 0.949 . S
C115 H110 0.950 . S
C115 C117 1.327 . S
C115 C121 1.429 . S
C116 C108 1.574 1_556 S
C116 H111 0.949 . S
C116 C122 1.368 . S
C117 C101 1.349 . S
C117 H109 0.950 . S
C117 C115 1.327 . S
C118 C106 1.349 . S
C118 H112 0.950 . S
C118 C119 1.327 . S
C119 H113 0.950 . S
C119 C118 1.327 . S
C119 C123 1.429 . S
C120 C103 1.574 1_544 S
C120 H114 0.949 . S
C120 C124 1.368 . S
C121 C102 1.429 . S
C121 C115 1.429 . S
C121 C122 1.523 . S
C122 C103 1.368 . S
C122 C116 1.368 . S
C122 C121 1.523 . S
C123 C107 1.429 . S
C123 C119 1.429 . S
C123 C124 1.523 . S
C124 C108 1.368 1_545 S
C124 C120 1.368 . S
C124 C123 1.523 . S
H125 C100 0.950 . S
H126 C102 0.950 . S
H127 C103 0.949 . S
H128 C105 0.950 . S
H129 C107 0.950 . S
C130 C131 1.349 . S
C130 C132 1.327 . S
C130 H155 0.950 . S
C131 C130 1.349 . S
C131 C147 1.349 . S
C132 C130 1.327 . S
C132 C151 1.429 . S
C132 H156 0.950 . S
C133 C150 1.574 . S
C133 C152 1.368 . S
C133 H157 0.949 . S
H134 C138 0.949 . S
C135 C136 1.349 . S
C135 C137 1.327 . S
C135 H158 0.950 . S
C136 C135 1.349 . S
C136 C148 1.349 . S
C137 C135 1.327 . S
C137 C153 1.429 . S
C137 H159 0.950 . S
C138 H134 0.949 . S
C138 C146 1.574 . S
C138 C154 1.368 . S
H139 C147 0.950 . S
H140 C145 0.950 . S
H141 C146 0.949 . S
H142 C148 0.950 . S
H143 C149 0.950 . S
H144 C150 0.949 . S
C145 H140 0.950 . S
C145 C147 1.327 . S
C145 C151 1.429 . S
C146 C138 1.574 . S
C146 H141 0.949 . S
C146 C152 1.368 . S
C147 C131 1.349 . S
C147 H139 0.950 . S
C147 C145 1.327 . S
C148 C136 1.349 . S
C148 H142 0.950 . S
C148 C149 1.327 . S
C149 H143 0.950 . S
C149 C148 1.327 . S
C149 C153 1.429 . S
C150 C133 1.574 . S
C150 H144 0.949 . S
C150 C154 1.368 . S
C151 C132 1.429 . S
C151 C145 1.429 . S
C151 C152 1.523 . S
C152 C133 1.368 . S
C152 C146 1.368 . S
C152 C151 1.523 . S
C153 C137 1.429 . S
C153 C149 1.429 . S
C153 C154 1.523 . S
C154 C138 1.368 . S
C154 C150 1.368 . S
C154 C153 1.523 . S
H155 C130 0.950 . S
H156 C132 0.950 . S
H157 C133 0.949 . S
H158 C135 0.950 . S
H159 C137 0.950 . S
C160 C161 1.349 . S
C160 C162 1.327 . S
C160 H185 0.950 . S
C161 C160 1.349 . S
C161 C177 1.349 . S
C162 C160 1.327 . S
C162 C181 1.429 . S
C162 H186 0.950 1_655 S
C163 C180 1.574 1_654 S
C163 C182 1.368 . S
C163 H187 0.949 . S
H164 C168 0.949 . S
C165 C166 1.349 . S
C165 C167 1.327 . S
C165 H188 0.950 . S
C166 C165 1.349 . S
C166 C178 1.349 . S
C167 C165 1.327 . S
C167 C183 1.429 . S
C167 H189 0.950 . S
C168 H164 0.949 . S
C168 C176 1.574 1_556 S
C168 C184 1.368 . S
H169 C177 0.950 . S
H170 C175 0.950 . S
H171 C176 0.949 . S
H172 C178 0.950 . S
H173 C179 0.950 . S
H174 C180 0.949 1_655 S
C175 H170 0.950 . S
C175 C177 1.327 . S
C175 C181 1.429 . S
C176 C168 1.574 1_554 S
C176 H171 0.949 . S
C176 C182 1.368 1_455 S
C177 C161 1.349 . S
C177 H169 0.950 . S
C177 C175 1.327 . S
C178 C166 1.349 . S
C178 H172 0.950 . S
C178 C179 1.327 . S
C179 H173 0.950 . S
C179 C178 1.327 . S
C179 C183 1.429 . S
C180 C163 1.574 1_456 S
C180 H174 0.949 1_455 S
C180 C184 1.368 . S
C181 C162 1.429 . S
C181 C175 1.429 . S
C181 C182 1.523 . S
C182 C163 1.368 . S
C182 C176 1.368 1_655 S
C182 C181 1.523 . S
C183 C167 1.429 . S
C183 C179 1.429 . S
C183 C184 1.523 . S
C184 C168 1.368 . S
C184 C180 1.368 . S
C184 C183 1.523 . S
H185 C160 0.950 . S
H186 C162 0.950 1_455 S
H187 C163 0.949 . S
H188 C165 0.950 . S
H189 C167 0.950 . S
C190 C191 1.349 . S
C190 C192 1.327 . S
C190 H215 0.950 . S
C191 C190 1.349 . S
C191 C207 1.349 . S
C192 C190 1.327 . S
C192 C211 1.429 . S
C192 H216 0.950 . S
C193 C210 1.574 1_565 S
C193 C212 1.368 . S
C193 H217 0.949 . S
H194 C198 0.949 . S
C195 C196 1.349 . S
C195 C197 1.327 . S
C195 H218 0.950 . S
C196 C195 1.349 . S
C196 C208 1.349 . S
C197 C195 1.327 . S
C197 C213 1.429 . S
C197 H219 0.950 . S
C198 H194 0.949 . S
C198 C206 1.574 . S
C198 C214 1.368 . S
H199 C207 0.950 . S
H200 C205 0.950 . S
H201 C206 0.949 . S
H202 C208 0.950 . S
H203 C209 0.950 . S
H204 C210 0.949 . S
C205 H200 0.950 . S
C205 C207 1.327 . S
C205 C211 1.429 . S
C206 C198 1.574 . S
C206 H201 0.949 . S
C206 C212 1.368 1_545 S
C207 C191 1.349 . S
C207 H199 0.950 . S
C207 C205 1.327 . S
C208 C196 1.349 . S
C208 H202 0.950 . S
C208 C209 1.327 . S
C209 H203 0.950 . S
C209 C208 1.327 . S
C209 C213 1.429 . S
C210 C193 1.574 1_545 S
C210 H204 0.949 . S
C210 C214 1.368 . S
C211 C192 1.429 . S
C211 C205 1.429 . S
C211 C212 1.523 . S
C212 C193 1.368 . S
C212 C206 1.368 1_565 S
C212 C211 1.523 . S
C213 C197 1.429 . S
C213 C209 1.429 . S
C213 C214 1.523 . S
C214 C198 1.368 . S
C214 C210 1.368 . S
C214 C213 1.523 . S
H215 C190 0.950 . S
H216 C192 0.950 . S
H217 C193 0.949 . S
H218 C195 0.950 . S
H219 C197 0.950 . S
C220 C221 1.349 . S
C220 C222 1.327 . S
C220 H245 0.950 . S
C221 C220 1.349 . S
C221 C237 1.349 . S
C222 C220 1.327 . S
C222 C241 1.429 . S
C222 H246 0.950 . S
C223 C240 1.574 1_554 S
C223 C242 1.368 . S
C223 H247 0.949 . S
H224 C228 0.949 . S
C225 C226 1.349 . S
C225 C227 1.327 . S
C225 H248 0.950 . S
C226 C225 1.349 . S
C226 C238 1.349 . S
C227 C225 1.327 . S
C227 C243 1.429 . S
C227 H249 0.950 . S
C228 H224 0.949 . S
C228 C236 1.574 1_556 S
C228 C244 1.368 . S
H229 C237 0.950 . S
H230 C235 0.950 . S
H231 C236 0.949 . S
H232 C238 0.950 . S
H233 C239 0.950 . S
H234 C240 0.949 . S
C235 H230 0.950 . S
C235 C237 1.327 . S
C235 C241 1.429 . S
C236 C228 1.574 1_554 S
C236 H231 0.949 . S
C236 C242 1.368 . S
C237 C221 1.349 . S
C237 H229 0.950 . S
C237 C235 1.327 . S
C238 C226 1.349 . S
C238 H232 0.950 . S
C238 C239 1.327 . S
C239 H233 0.950 . S
C239 C238 1.327 . S
C239 C243 1.429 . S
C240 C223 1.574 1_556 S
C240 H234 0.949 . S
C240 C244 1.368 . S
C241 C222 1.429 . S
C241 C235 1.429 . S
C241 C242 1.523 . S
C242 C223 1.368 . S
C242 C236 1.368 . S
C242 C241 1.523 . S
C243 C227 1.429 . S
C243 C239 1.429 . S
C243 C244 1.523 . S
C244 C228 1.368 . S
C244 C240 1.368 . S
C244 C243 1.523 . S
H245 C220 0.950 . S
H246 C222 0.950 . S
H247 C223 0.949 . S
H248 C225 0.950 . S
H249 C227 0.950 . S
C250 C251 1.349 . S
C250 C252 1.327 . S
C250 H275 0.950 . S
C251 C250 1.349 . S
C251 C267 1.349 . S
C252 C250 1.327 . S
C252 C271 1.429 . S
C252 H276 0.950 . S
C253 C270 1.574 . S
C253 C272 1.368 . S
C253 H277 0.949 . S
H254 C258 0.949 . S
C255 C256 1.349 . S
C255 C257 1.327 . S
C255 H278 0.950 . S
C256 C255 1.349 . S
C256 C268 1.349 . S
C257 C255 1.327 . S
C257 C273 1.429 . S
C257 H279 0.950 . S
C258 H254 0.949 . S
C258 C266 1.574 1_455 S
C258 C274 1.368 . S
H259 C267 0.950 . S
H260 C265 0.950 . S
H261 C266 0.949 . S
H262 C268 0.950 . S
H263 C269 0.950 . S
H264 C270 0.949 . S
C265 H260 0.950 . S
C265 C267 1.327 . S
C265 C271 1.429 . S
C266 C258 1.574 1_655 S
C266 H261 0.949 . S
C266 C272 1.368 . S
C267 C251 1.349 . S
C267 H259 0.950 . S
C267 C265 1.327 . S
C268 C256 1.349 . S
C268 H262 0.950 . S
C268 C269 1.327 . S
C269 H263 0.950 . S
C269 C268 1.327 . S
C269 C273 1.429 . S
C270 C253 1.574 . S
C270 H264 0.949 . S
C270 C274 1.368 1_655 S
C271 C252 1.429 . S
C271 C265 1.429 . S
C271 C272 1.523 . S
C272 C253 1.368 . S
C272 C266 1.368 . S
C272 C271 1.523 . S
C273 C257 1.429 . S
C273 C269 1.429 . S
C273 C274 1.523 . S
C274 C258 1.368 . S
C274 C270 1.368 1_455 S
C274 C273 1.523 . S
H275 C250 0.950 . S
H276 C252 0.950 . S
H277 C253 0.949 . S
H278 C255 0.950 . S
H279 C257 0.950 . S
C280 C281 1.349 . S
C280 C282 1.327 . S
C280 H305 0.950 . S
C281 C280 1.349 . S
C281 C297 1.349 . S
C282 C280 1.327 . S
C282 C301 1.429 1_545 S
C282 H306 0.950 . S
C283 C300 1.574 . S
C283 C302 1.368 . S
C283 H307 0.949 . S
H284 C288 0.949 . S
C285 C286 1.349 . S
C285 C287 1.327 . S
C285 H308 0.950 . S
C286 C285 1.349 . S
C286 C298 1.349 . S
C287 C285 1.327 . S
C287 C303 1.429 . S
C287 H309 0.950 . S
C288 H284 0.949 . S
C288 C296 1.574 . S
C288 C304 1.368 . S
H289 C297 0.950 . S
H290 C295 0.950 . S
H291 C296 0.949 . S
H292 C298 0.950 . S
H293 C299 0.950 . S
H294 C300 0.949 . S
C295 H290 0.950 . S
C295 C297 1.327 1_565 S
C295 C301 1.429 . S
C296 C288 1.574 . S
C296 H291 0.949 . S
C296 C302 1.368 . S
C297 C281 1.349 . S
C297 H289 0.950 . S
C297 C295 1.327 1_545 S
C298 C286 1.349 . S
C298 H292 0.950 . S
C298 C299 1.327 . S
C299 H293 0.950 . S
C299 C298 1.327 . S
C299 C303 1.429 . S
C300 C283 1.574 . S
C300 H294 0.949 . S
C300 C304 1.368 . S
C301 C282 1.429 1_565 S
C301 C295 1.429 . S
C301 C302 1.523 . S
C302 C283 1.368 . S
C302 C296 1.368 . S
C302 C301 1.523 . S
C303 C287 1.429 . S
C303 C299 1.429 . S
C303 C304 1.523 . S
C304 C288 1.368 . S
C304 C300 1.368 . S
C304 C303 1.523 . S
H305 C280 0.950 . S
H306 C282 0.950 . S
H307 C283 0.949 . S
H308 C285 0.950 . S
H309 C287 0.950 . S
C310 C311 1.349 . S
C310 C312 1.327 1_455 S
C310 H335 0.950 . S
C311 C310 1.349 . S
C311 C327 1.349 . S
C312 C310 1.327 1_655 S
C312 C331 1.429 . S
C312 H336 0.950 . S
C313 C330 1.574 . S
C313 C332 1.368 . S
C313 H337 0.949 . S
H314 C318 0.949 . S
C315 C316 1.349 . S
C315 C317 1.327 . S
C315 H338 0.950 . S
C316 C315 1.349 . S
C316 C328 1.349 . S
C317 C315 1.327 . S
C317 C333 1.429 . S
C317 H339 0.950 . S
C318 H314 0.949 . S
C318 C326 1.574 . S
C318 C334 1.368 . S
H319 C327 0.950 . S
H320 C325 0.950 . S
H321 C326 0.949 . S
H322 C328 0.950 . S
H323 C329 0.950 . S
H324 C330 0.949 . S
C325 H320 0.950 . S
C325 C327 1.327 . S
C325 C331 1.429 1_455 S
C326 C318 1.574 . S
C326 H321 0.949 . S
C326 C332 1.368 . S
C327 C311 1.349 . S
C327 H319 0.950 . S
C327 C325 1.327 . S
C328 C316 1.349 . S
C328 H322 0.950 . S
C328 C329 1.327 . S
C329 H323 0.950 . S
C329 C328 1.327 . S
C329 C333 1.429 . S
C330 C313 1.574 . S
C330 H324 0.949 . S
C330 C334 1.368 . S
C331 C312 1.429 . S
C331 C325 1.429 1_655 S
C331 C332 1.523 . S
C332 C313 1.368 . S
C332 C326 1.368 . S
C332 C331 1.523 . S
C333 C317 1.429 . S
C333 C329 1.429 . S
C333 C334 1.523 . S
C334 C318 1.368 . S
C334 C330 1.368 . S
C334 C333 1.523 . S
H335 C310 0.950 . S
H336 C312 0.950 . S
H337 C313 0.949 . S
H338 C315 0.950 . S
H339 C317 0.950 . S
C340 C341 1.349 . S
C340 C342 1.327 1_545 S
C340 H365 0.950 . S
C341 C340 1.349 . S
C341 C357 1.349 . S
C342 C340 1.327 1_565 S
C342 C361 1.429 . S
C342 H366 0.950 . S
C343 C360 1.574 . S
C343 C362 1.368 . S
C343 H367 0.949 . S
H344 C348 0.949 . S
C345 C346 1.349 . S
C345 C347 1.327 . S
C345 H368 0.950 . S
C346 C345 1.349 . S
C346 C358 1.349 . S
C347 C345 1.327 . S
C347 C363 1.429 1_655 S
C347 H369 0.950 . S
C348 H344 0.949 . S
C348 C356 1.574 . S
C348 C364 1.368 . S
H349 C357 0.950 . S
H350 C355 0.953 1_565 S
H351 C356 0.949 . S
H352 C358 0.950 . S
H353 C359 0.950 . S
H354 C360 0.949 . S
C355 H350 0.953 1_545 S
C355 C357 1.327 . S
C355 C361 1.429 1_545 S
C356 C348 1.574 . S
C356 H351 0.949 . S
C356 C362 1.368 . S
C357 C341 1.349 . S
C357 H349 0.950 . S
C357 C355 1.327 . S
C358 C346 1.349 . S
C358 H352 0.950 . S
C358 C359 1.327 1_655 S
C359 H353 0.950 . S
C359 C358 1.327 1_455 S
C359 C363 1.429 . S
C360 C343 1.574 . S
C360 H354 0.949 . S
C360 C364 1.368 . S
C361 C342 1.429 . S
C361 C355 1.429 1_565 S
C361 C362 1.523 . S
C362 C343 1.368 . S
C362 C356 1.368 . S
C362 C361 1.523 . S
C363 C347 1.429 1_455 S
C363 C359 1.429 . S
C363 C364 1.523 . S
C364 C348 1.368 . S
C364 C360 1.368 . S
C364 C363 1.523 . S
H365 C340 0.950 . S
H366 C342 0.950 . S
H367 C343 0.949 . S
H368 C345 0.950 . S
H369 C347 0.950 . S
C370 C371 1.349 . S
C370 C372 1.327 . S
C370 H395 0.950 . S
C371 C370 1.349 . S
C371 C387 1.349 . S
C372 C370 1.327 . S
C372 C391 1.429 . S
C372 H396 0.950 . S
C373 C390 1.574 . S
C373 C392 1.368 . S
C373 H397 0.949 . S
H374 C378 0.949 . S
C375 C376 1.349 . S
C375 C377 1.327 1_565 S
C375 H398 0.950 . S
C376 C375 1.349 . S
C376 C388 1.349 . S
C377 C375 1.327 1_545 S
C377 C393 1.429 . S
C377 H399 0.950 . S
C378 H374 0.949 . S
C378 C386 1.574 . S
C378 C394 1.368 . S
H379 C387 0.950 . S
H380 C385 0.950 . S
H381 C386 0.949 . S
H382 C388 0.950 . S
H383 C389 0.945 1_545 S
H384 C390 0.949 . S
C385 H380 0.950 . S
C385 C387 1.327 . S
C385 C391 1.429 . S
C386 C378 1.574 . S
C386 H381 0.949 . S
C386 C392 1.368 . S
C387 C371 1.349 . S
C387 H379 0.950 . S
C387 C385 1.327 . S
C388 C376 1.349 . S
C388 H382 0.950 . S
C388 C389 1.327 . S
C389 H383 0.945 1_565 S
C389 C388 1.327 . S
C389 C393 1.429 1_565 S
C390 C373 1.574 . S
C390 H384 0.949 . S
C390 C394 1.368 . S
C391 C372 1.429 . S
C391 C385 1.429 . S
C391 C392 1.523 . S
C392 C373 1.368 . S
C392 C386 1.368 . S
C392 C391 1.523 . S
C393 C377 1.429 . S
C393 C389 1.429 1_545 S
C393 C394 1.523 . S
C394 C378 1.368 . S
C394 C390 1.368 . S
C394 C393 1.523 . S
H395 C370 0.950 . S
H396 C372 0.950 . S
H397 C373 0.949 . S
H398 C375 0.950 . S
H399 C377 0.950 . S
C400 C401 1.349 . S
C400 C402 1.327 . S
C400 H425 0.950 . S
C401 C400 1.349 . S
C401 C417 1.349 . S
C402 C400 1.327 . S
C402 C421 1.429 . S
C402 H426 0.950 . S
C403 C420 1.574 . S
C403 C422 1.368 . S
C403 H427 0.949 . S
H404 C408 0.949 . S
C405 C406 1.349 . S
C405 C407 1.327 . S
C405 H428 0.950 . S
C406 C405 1.349 . S
C406 C418 1.349 . S
C407 C405 1.327 . S
C407 C423 1.429 1_655 S
C407 H429 0.945 1_655 S
C408 H404 0.949 . S
C408 C416 1.574 . S
C408 C424 1.368 . S
H409 C417 0.950 . S
H410 C415 0.950 . S
H411 C416 0.949 . S
H412 C418 0.950 . S
H413 C419 0.950 . S
H414 C420 0.949 . S
C415 H410 0.950 . S
C415 C417 1.327 . S
C415 C421 1.429 . S
C416 C408 1.574 . S
C416 H411 0.949 . S
C416 C422 1.368 . S
C417 C401 1.349 . S
C417 H409 0.950 . S
C417 C415 1.327 . S
C418 C406 1.349 . S
C418 H412 0.950 . S
C418 C419 1.327 1_655 S
C419 H413 0.950 . S
C419 C418 1.327 1_455 S
C419 C423 1.429 . S
C420 C403 1.574 . S
C420 H414 0.949 . S
C420 C424 1.368 . S
C421 C402 1.429 . S
C421 C415 1.429 . S
C421 C422 1.523 . S
C422 C403 1.368 . S
C422 C416 1.368 . S
C422 C421 1.523 . S
C423 C407 1.429 1_455 S
C423 C419 1.429 . S
C423 C424 1.523 . S
C424 C408 1.368 . S
C424 C420 1.368 . S
C424 C423 1.523 . S
H425 C400 0.950 . S
H426 C402 0.950 . S
H427 C403 0.949 . S
H428 C405 0.950 . S
H429 C407 0.945 1_455 S
C430 C431 1.349 . S
C430 C432 1.327 . S
C430 H455 0.950 . S
C431 C430 1.349 . S
C431 C447 1.349 . S
C432 C430 1.327 . S
C432 C451 1.429 1_455 S
C432 H456 0.953 1_455 S
C433 C450 1.574 . S
C433 C452 1.368 . S
C433 H457 0.949 . S
H434 C438 0.949 . S
C435 C436 1.349 . S
C435 C437 1.327 1_565 S
C435 H458 0.950 . S
C436 C435 1.349 . S
C436 C448 1.349 . S
C437 C435 1.327 1_545 S
C437 C453 1.429 . S
C437 H459 0.950 . S
C438 H434 0.949 . S
C438 C446 1.574 . S
C438 C454 1.368 . S
H439 C447 0.950 . S
H440 C445 0.950 . S
H441 C446 0.949 . S
H442 C448 0.950 . S
H443 C449 0.950 . S
H444 C450 0.949 . S
C445 H440 0.950 . S
C445 C447 1.327 1_655 S
C445 C451 1.429 . S
C446 C438 1.574 . S
C446 H441 0.949 . S
C446 C452 1.368 . S
C447 C431 1.349 . S
C447 H439 0.950 . S
C447 C445 1.327 1_455 S
C448 C436 1.349 . S
C448 H442 0.950 . S
C448 C449 1.327 . S
C449 H443 0.950 . S
C449 C448 1.327 . S
C449 C453 1.429 1_565 S
C450 C433 1.574 . S
C450 H444 0.949 . S
C450 C454 1.368 . S
C451 C432 1.429 1_655 S
C451 C445 1.429 . S
C451 C452 1.523 . S
C452 C433 1.368 . S
C452 C446 1.368 . S
C452 C451 1.523 . S
C453 C437 1.429 . S
C453 C449 1.429 1_545 S
C453 C454 1.523 . S
C454 C438 1.368 . S
C454 C450 1.368 . S
C454 C453 1.523 . S
H455 C430 0.950 . S
H456 C432 0.953 1_655 S
H457 C433 0.949 . S
H458 C435 0.950 . S
H459 C437 0.950 . S
C101 C54 1.762 . S
C106 C5 1.867 . S
C131 C57 1.867 . S
C136 C6 1.762 . S
C161 C1 1.867 . S
C166 C61 1.762 . S
C191 C58 1.867 . S
C196 C2 1.762 . S
C221 C9 1.867 . S
C226 C52 1.762 . S
C251 C10 1.762 . S
C256 C51 1.867 . S
C281 C0 1.011 . S
C286 C3 1.011 . S
C311 C59 1.011 . S
C316 C60 1.011 . S
C341 C11 1.011 . S
C346 C8 1.011 . S
C371 C50 1.011 . S
C376 C53 1.011 . S
C401 C4 1.011 . S
C406 C7 1.011 . S
C431 C55 1.011 . S
C436 C56 1.011 . S
