# Generated by pormake.
# Topology wmn, (6)-cn, num edge types: 1
# Building blocks:
#     Node 0, Type 0, BuildingBlock: KUMBOL_clean_sbu_1, # of connection points: 6
#     Node 1, Type 0, BuildingBlock: KUMBOL_clean_sbu_1, # of connection points: 6
#     Node 2, Type 0, BuildingBlock: KUMBOL_clean_sbu_1, # of connection points: 6
#     Node 3, Type 0, BuildingBlock: KUMBOL_clean_sbu_1, # of connection points: 6
#     Node 4, Type 0, BuildingBlock: KUMBOL_clean_sbu_1, # of connection points: 6
#     Node 5, Type 0, BuildingBlock: KUMBOL_clean_sbu_1, # of connection points: 6
#     Node 6, Type 0, BuildingBlock: KUMBOL_clean_sbu_1, # of connection points: 6
#     Node 7, Type 0, BuildingBlock: KUMBOL_clean_sbu_1, # of connection points: 6
#     Node 8, Type 0, BuildingBlock: KUMBOL_clean_sbu_1, # of connection points: 6
#     Node 9, Type 0, BuildingBlock: KUMBOL_clean_sbu_1, # of connection points: 6
#     Node 10, Type 0, BuildingBlock: KUMBOL_clean_sbu_1, # of connection points: 6
#     Node 11, Type 0, BuildingBlock: KUMBOL_clean_sbu_1, # of connection points: 6
#     Edge 12, Type (0, 0), BuildingBlock: OJICUG_clean_linker_0, # of connection points: 2
#     Edge 13, Type (0, 0), BuildingBlock: OJICUG_clean_linker_0, # of connection points: 2
#     Edge 14, Type (0, 0), BuildingBlock: OJICUG_clean_linker_0, # of connection points: 2
#     Edge 15, Type (0, 0), BuildingBlock: OJICUG_clean_linker_0, # of connection points: 2
#     Edge 16, Type (0, 0), BuildingBlock: OJICUG_clean_linker_0, # of connection points: 2
#     Edge 17, Type (0, 0), BuildingBlock: OJICUG_clean_linker_0, # of connection points: 2
#     Edge 18, Type (0, 0), BuildingBlock: OJICUG_clean_linker_0, # of connection points: 2
#     Edge 19, Type (0, 0), BuildingBlock: OJICUG_clean_linker_0, # of connection points: 2
#     Edge 20, Type (0, 0), BuildingBlock: OJICUG_clean_linker_0, # of connection points: 2
#     Edge 21, Type (0, 0), BuildingBlock: OJICUG_clean_linker_0, # of connection points: 2
#     Edge 22, Type (0, 0), BuildingBlock: OJICUG_clean_linker_0, # of connection points: 2
#     Edge 23, Type (0, 0), BuildingBlock: OJICUG_clean_linker_0, # of connection points: 2
#     Edge 24, Type (0, 0), BuildingBlock: OJICUG_clean_linker_0, # of connection points: 2
#     Edge 25, Type (0, 0), BuildingBlock: OJICUG_clean_linker_0, # of connection points: 2
#     Edge 26, Type (0, 0), BuildingBlock: OJICUG_clean_linker_0, # of connection points: 2
#     Edge 27, Type (0, 0), BuildingBlock: OJICUG_clean_linker_0, # of connection points: 2
#     Edge 28, Type (0, 0), BuildingBlock: OJICUG_clean_linker_0, # of connection points: 2
#     Edge 29, Type (0, 0), BuildingBlock: OJICUG_clean_linker_0, # of connection points: 2
#     Edge 30, Type (0, 0), BuildingBlock: OJICUG_clean_linker_0, # of connection points: 2
#     Edge 31, Type (0, 0), BuildingBlock: OJICUG_clean_linker_0, # of connection points: 2
#     Edge 32, Type (0, 0), BuildingBlock: OJICUG_clean_linker_0, # of connection points: 2
#     Edge 33, Type (0, 0), BuildingBlock: OJICUG_clean_linker_0, # of connection points: 2
#     Edge 34, Type (0, 0), BuildingBlock: OJICUG_clean_linker_0, # of connection points: 2
#     Edge 35, Type (0, 0), BuildingBlock: OJICUG_clean_linker_0, # of connection points: 2
#     Edge 36, Type (0, 0), BuildingBlock: OJICUG_clean_linker_0, # of connection points: 2
#     Edge 37, Type (0, 0), BuildingBlock: OJICUG_clean_linker_0, # of connection points: 2
#     Edge 38, Type (0, 0), BuildingBlock: OJICUG_clean_linker_0, # of connection points: 2
#     Edge 39, Type (0, 0), BuildingBlock: OJICUG_clean_linker_0, # of connection points: 2
#     Edge 40, Type (0, 0), BuildingBlock: OJICUG_clean_linker_0, # of connection points: 2
#     Edge 41, Type (0, 0), BuildingBlock: OJICUG_clean_linker_0, # of connection points: 2
#     Edge 42, Type (0, 0), BuildingBlock: OJICUG_clean_linker_0, # of connection points: 2
#     Edge 43, Type (0, 0), BuildingBlock: OJICUG_clean_linker_0, # of connection points: 2
#     Edge 44, Type (0, 0), BuildingBlock: OJICUG_clean_linker_0, # of connection points: 2
#     Edge 45, Type (0, 0), BuildingBlock: OJICUG_clean_linker_0, # of connection points: 2
#     Edge 46, Type (0, 0), BuildingBlock: OJICUG_clean_linker_0, # of connection points: 2
#     Edge 47, Type (0, 0), BuildingBlock: OJICUG_clean_linker_0, # of connection points: 2
# Relax obj value: 0.144
# Max RMSD: 0.311
# Mean RMSD: 0.311
data_MOF--net-wmn--node1-KUMBOL_clean_sbu_1--edge1-OJICUG_clean_linker_0
_symmetry_space_group_name_H-M    P1
_symmetry_Int_Tables_number       1
_symmetry_cell_setting            triclinic
loop_
_symmetry_equiv_pos_as_xyz
'x, y, z'
_cell_length_a     47.516045
_cell_length_b     47.462058
_cell_length_c     17.19125
_cell_angle_alpha  89.970713
_cell_angle_beta   90.042452
_cell_angle_gamma 119.87916
loop_
_atom_site_label
_atom_site_type_symbol
_atom_site_fract_x
_atom_site_fract_y
_atom_site_fract_z
_atom_type_partial_charge
C0 C 0.09322 0.24712 0.09276 0.0
C1 C 0.09738 0.22971 0.963 0.0
C2 C 0.1061 0.25449 0.01877 0.0
C3 C 0.07459 0.19749 0.98249 0.0
C4 C 0.07169 0.21462 0.11408 0.0
C5 C 0.0618 0.18995 0.05799 0.0
N6 N 0.1039 0.27143 0.1457 0.0
C7 C 0.09612 0.26468 0.22253 0.0
C8 C 0.06191 0.20778 0.19187 0.0
C9 C 0.07459 0.23287 0.2466 0.0
Gd10 Gd 0.12927 0.40615 0.07843 0.0
Gd11 Gd 0.14056 0.32406 0.10151 0.0
N12 N 0.12817 0.28581 1.00217 0.0
C13 C 0.11228 0.23805 0.88985 0.0
C14 C 0.14396 0.29386 0.9324 0.0
C15 C 0.13584 0.27025 0.87474 0.0
H16 H 0.16215 0.31869 0.92066 0.0
H17 H 0.14753 0.27693 0.81859 0.0
H18 H 0.103 0.39928 0.26326 0.0
H19 H 0.10623 0.28405 0.26507 0.0
H20 H 0.12037 0.43152 0.38395 0.0
H21 H 0.10615 0.2198 0.84518 0.0
H22 H 0.06733 0.17815 0.94025 0.0
H23 H 0.18516 0.45114 0.94238 0.0
H24 H 0.04554 0.18311 0.21066 0.0
H25 H 0.06791 0.22772 0.30727 0.0
H26 H 0.21897 0.5281 0.31377 0.0
H27 H 0.045 0.16487 0.073 0.0
H28 H 0.25742 0.53801 0.05223 0.0
H29 H 0.23622 0.50329 0.93539 0.0
N30 N 0.17854 0.45482 0.06375 0.0
C31 C 0.18906 0.47414 0.1281 0.0
C32 C 0.19465 0.4653 0.99471 0.0
C33 C 0.23519 0.5148 0.05614 0.0
C34 C 0.22339 0.4952 0.99012 0.0
C35 C 0.21789 0.50454 0.12605 0.0
H36 H 0.25055 0.54721 0.19284 0.0
N37 N 0.14335 0.43394 0.1973 0.0
C38 C 0.17087 0.46359 0.19643 0.0
C39 C 0.16316 0.47102 0.33226 0.0
C40 C 0.18158 0.48282 0.26422 0.0
C41 C 0.12506 0.42249 0.26312 0.0
C42 C 0.13479 0.44076 0.33165 0.0
O43 O 0.11646 0.32913 0.99384 0.0
O44 O 0.09081 0.35805 0.02597 0.0
O45 O 0.09419 0.42227 0.09938 0.0
O46 O 0.11959 0.43344 0.99022 0.0
O47 O 0.17683 0.3732 0.04937 0.0
O48 O 0.15209 0.39471 0.97627 0.0
O49 O 0.16892 0.40711 0.15827 0.0
O50 O 0.14148 0.35494 0.19962 0.0
O51 O 0.18724 0.32748 0.07807 0.0
O52 O 0.16626 0.31403 0.1923 0.0
O53 O 0.08984 0.36484 0.14861 0.0
O54 O 0.09479 0.318 0.16199 0.0
C55 C 0.09077 0.33279 0.99351 0.0
C56 C 0.17359 0.38499 0.98271 0.0
C57 C 0.10063 0.46912 0.03325 0.0
C58 C 0.07383 0.50239 0.02673 0.0
C59 C 0.13256 0.52787 0.04278 0.0
C60 C 0.13067 0.49758 0.0418 0.0
C61 C 0.10459 0.53032 0.03525 0.0
C62 C 0.07218 0.47163 0.02553 0.0
C63 C 0.09874 0.43685 0.03274 0.0
C64 C 0.21039 0.51298 0.26225 0.0
C65 C 0.22843 0.52383 0.19339 0.0
H66 H 0.17063 0.48507 0.38555 0.0
C67 C 0.16553 0.38432 0.20742 0.0
C68 C 0.0795 0.33478 0.17357 0.0
C69 C 0.19525 0.28867 0.14573 0.0
C70 C 0.23291 0.26781 0.13228 0.0
C71 C 0.17595 0.2309 0.16025 0.0
C72 C 0.16996 0.25678 0.15888 0.0
C73 C 0.20717 0.23631 0.14747 0.0
C74 C 0.22675 0.29403 0.13157 0.0
C75 C 0.18886 0.31621 0.14578 0.0
H76 H 0.15596 0.54967 0.04901 0.0
H77 H 0.15275 0.49648 0.04731 0.0
H78 H 0.10723 0.55433 0.03478 0.0
H79 H 0.04887 0.44967 0.01953 0.0
H80 H 0.15626 0.20651 0.17127 0.0
H81 H 0.14564 0.25177 0.1702 0.0
H82 H 0.21101 0.21566 0.14768 0.0
H83 H 0.24636 0.31848 0.12041 0.0
C84 C 0.77953 0.84486 0.08684 0.0
C85 C 0.79615 0.85961 0.95296 0.0
C86 C 0.77192 0.84775 0.01082 0.0
C87 C 0.82765 0.86631 0.97204 0.0
C88 C 0.81152 0.85335 0.1074 0.0
C89 C 0.8353 0.86307 0.04914 0.0
N90 N 0.7562 0.83623 0.14166 0.0
C91 C 0.76362 0.83785 0.21892 0.0
C92 C 0.81889 0.8531 0.18622 0.0
C93 C 0.79495 0.84586 0.24235 0.0
Gd94 Gd 0.62168 0.72831 0.09006 0.0
Gd95 Gd 0.70384 0.82121 0.09738 0.0
N96 N 0.7414 0.84144 0.99478 0.0
C97 C 0.78834 0.86579 0.87872 0.0
C98 C 0.7341 0.84913 0.92387 0.0
C99 C 0.75734 0.86117 0.86467 0.0
H100 H 0.7101 0.8454 0.91281 0.0
H101 H 0.75132 0.86694 0.80853 0.0
H102 H 0.63194 0.71171 0.27496 0.0
H103 H 0.745 0.83207 0.26223 0.0
H104 H 0.60231 0.69924 0.39918 0.0
H105 H 0.80635 0.87522 0.83288 0.0
H106 H 0.84651 0.87501 0.92817 0.0
H107 H 0.57327 0.7359 0.95678 0.0
H108 H 0.84318 0.85947 0.20443 0.0
H109 H 0.80059 0.84635 0.30352 0.0
H110 H 0.50477 0.7011 0.33754 0.0
H111 H 0.85994 0.8693 0.06354 0.0
H112 H 0.48922 0.72441 0.07517 0.0
H113 H 0.52116 0.73501 0.95441 0.0
N114 N 0.57253 0.72854 0.07932 0.0
C115 C 0.55465 0.72118 0.14584 0.0
C116 C 0.56042 0.73256 0.01074 0.0
C117 C 0.51247 0.72535 0.07703 0.0
C118 C 0.53049 0.73148 0.00879 0.0
C119 C 0.52428 0.71976 0.14651 0.0
H120 H 0.48316 0.71141 0.21757 0.0
N121 N 0.59602 0.71639 0.21165 0.0
C122 C 0.56655 0.71467 0.2136 0.0
C123 C 0.56192 0.70202 0.35085 0.0
C124 C 0.5488 0.70758 0.28353 0.0
C125 C 0.60877 0.71064 0.27684 0.0
C126 C 0.59201 0.70353 0.34742 0.0
O127 O 0.69428 0.78983 0.99138 0.0
O128 O 0.66867 0.73687 0.034 0.0
O129 O 0.60571 0.67748 0.11476 0.0
O130 O 0.594 0.69057 1.00436 0.0
O131 O 0.6531 0.80722 0.05485 0.0
O132 O 0.62982 0.76038 0.98533 0.0
O133 O 0.62284 0.76819 0.16873 0.0
O134 O 0.67619 0.79513 0.20408 0.0
O135 O 0.70573 0.86616 0.06201 0.0
O136 O 0.71153 0.85823 0.18265 0.0
O137 O 0.66462 0.73189 0.15713 0.0
O138 O 0.71225 0.78319 0.15885 0.0
C139 C 0.69165 0.76102 0.99374 0.0
C140 C 0.63971 0.79161 0.98993 0.0
C141 C 0.55905 0.63659 0.05008 0.0
C142 C 0.52664 0.57694 0.03874 0.0
C143 C 0.50065 0.60903 0.06696 0.0
C144 C 0.53062 0.63764 0.06511 0.0
C145 C 0.4986 0.579 0.05389 0.0
C146 C 0.55697 0.60617 0.0368 0.0
C147 C 0.591 0.66687 0.04846 0.0
C148 C 0.51875 0.70653 0.28433 0.0
C149 C 0.50649 0.71251 0.21603 0.0
H150 H 0.54905 0.69658 0.40573 0.0
C151 C 0.6463 0.78807 0.21581 0.0
C152 C 0.69543 0.75175 0.17653 0.0
C153 C 0.7391 0.91262 0.13706 0.0
C154 C 0.75824 0.97098 0.13034 0.0
C155 C 0.79571 0.95167 0.16195 0.0
C156 C 0.77073 0.91957 0.15497 0.0
C157 C 0.78954 0.97719 0.15038 0.0
C158 C 0.73301 0.93841 0.12398 0.0
C159 C 0.71234 0.87872 0.13121 0.0
H160 H 0.47881 0.61013 0.07826 0.0
H161 H 0.53153 0.66054 0.07513 0.0
H162 H 0.47485 0.55738 0.05444 0.0
H163 H 0.57899 0.60532 0.02592 0.0
H164 H 0.82001 0.95682 0.17626 0.0
H165 H 0.77612 0.90025 0.16436 0.0
H166 H 0.80952 1.00182 0.15525 0.0
H167 H 0.70866 0.93311 0.1093 0.0
C168 C 0.19268 0.94688 0.06772 0.0
C169 C 0.17814 0.94461 0.93216 0.0
C170 C 0.18925 0.93358 0.99485 0.0
C171 C 0.17245 0.97066 0.94345 0.0
C172 C 0.18531 0.97184 0.08064 0.0
C173 C 0.1762 0.98439 0.01757 0.0
N174 N 0.20042 0.93335 0.12732 0.0
C175 C 0.19859 0.94174 0.20231 0.0
C176 C 0.18574 0.98222 0.15705 0.0
C177 C 0.19186 0.96668 0.21831 0.0
Gd178 Gd 0.30216 0.89687 0.08865 0.0
Gd179 Gd 0.2128 0.89242 0.09693 0.0
N180 N 0.19429 0.90805 0.98677 0.0
C181 C 0.17177 0.92821 0.86106 0.0
C182 C 0.18638 0.89085 0.91888 0.0
C183 C 0.17544 0.90089 0.85477 0.0
H184 H 0.18907 0.86971 0.91401 0.0
H185 H 0.16968 0.88745 0.80084 0.0
H186 H 0.3222 0.92997 0.26986 0.0
H187 H 0.20281 0.92938 0.24992 0.0
H188 H 0.33275 0.91472 0.39836 0.0
H189 H 0.16296 0.93577 0.81174 0.0
H190 H 0.16421 0.9797 0.89583 0.0
H191 H 0.28758 0.83458 0.96983 0.0
H192 H 0.18013 1.00126 0.16955 0.0
H193 H 0.19117 0.97367 0.27785 0.0
H194 H 0.32207 0.80983 0.35963 0.0
H195 H 0.17079 1.00382 0.02606 0.0
H196 H 0.29439 0.76268 0.10533 0.0
H197 H 0.28423 0.78126 0.97945 0.0
N198 N 0.29754 0.84541 0.09031 0.0
C199 C 0.30469 0.83636 0.15948 0.0
C200 C 0.29108 0.82645 0.02573 0.0
C201 C 0.29557 0.78604 0.10176 0.0
C202 C 0.28965 0.79637 0.03066 0.0
C203 C 0.30337 0.80614 0.16718 0.0
H204 H 0.30881 0.7737 0.2466 0.0
N205 N 0.31316 0.88594 0.21502 0.0
C206 C 0.31264 0.8571 0.22348 0.0
C207 C 0.32595 0.86858 0.35982 0.0
C208 C 0.31881 0.84762 0.29639 0.0
C209 C 0.32072 0.90673 0.27647 0.0
C210 C 0.327 0.89827 0.34971 0.0
O211 O 0.24507 0.91326 0.99226 0.0
O212 O 0.29761 0.93856 0.03609 0.0
O213 O 0.3541 0.92226 0.11233 0.0
O214 O 0.33686 0.90329 0.9977 0.0
O215 O 0.22125 0.85229 0.04946 0.0
O216 O 0.26944 0.87374 0.98397 0.0
O217 O 0.2598 0.85766 0.16034 0.0
O218 O 0.23826 0.88813 0.20151 0.0
O219 O 0.16831 0.84694 0.07335 0.0
O220 O 0.17471 0.87072 0.18367 0.0
O221 O 0.30327 0.93972 0.15057 0.0
O222 O 0.25176 0.93456 0.16859 0.0
C223 C 0.27414 0.93876 0.99554 0.0
C224 C 0.23782 0.8537 0.98667 0.0
C225 C 0.38832 0.95161 0.00769 0.0
C226 C 0.44637 0.99091 0.98741 0.0
C227 C 0.40465 1.00218 0.93927 0.0
C228 C 0.38031 0.97266 0.96889 0.0
C229 C 0.4373 1.01125 0.94824 0.0
C230 C 0.42143 0.96082 0.01686 0.0
C231 C 0.36229 0.92071 0.04106 0.0
C232 C 0.3174 0.81748 0.30403 0.0
C233 C 0.30979 0.79686 0.23965 0.0
H234 H 0.33076 0.86212 0.41677 0.0
C235 C 0.24206 0.86304 0.21032 0.0
C236 C 0.28376 0.94974 0.17896 0.0
C237 C 0.12164 0.84284 0.13207 0.0
C238 C 0.06425 0.80749 0.1039 0.0
C239 C 0.08467 0.86425 0.13591 0.0
C240 C 0.11591 0.86891 0.14327 0.0
C241 C 0.05896 0.83378 0.11591 0.0
C242 C 0.0956 0.81202 0.11314 0.0
C243 C 0.15463 0.8476 0.13813 0.0
H244 H 0.39817 0.01817 0.90907 0.0
H245 H 0.3552 0.96632 0.96152 0.0
H246 H 0.45548 0.03413 0.92345 0.0
H247 H 0.42767 0.94483 0.048 0.0
H248 H 0.08042 0.88441 0.14491 0.0
H249 H 0.13547 0.89286 0.15793 0.0
H250 H 0.03491 0.83072 0.10926 0.0
H251 H 0.0999 0.79192 0.10316 0.0
C252 C 0.25734 0.07704 0.44337 0.0
C253 C 0.24291 0.07847 0.57771 0.0
C254 C 0.26604 0.08976 0.51731 0.0
C255 C 0.21133 0.05289 0.56318 0.0
C256 C 0.22529 0.0524 0.42738 0.0
C257 C 0.20256 0.03975 0.48819 0.0
N258 N 0.2796 0.09054 0.38585 0.0
C259 C 0.27095 0.08202 0.30998 0.0
C260 C 0.21673 0.04223 0.35026 0.0
C261 C 0.23958 0.05741 0.29116 0.0
Gd262 Gd 0.41752 0.12718 0.42825 0.0
Gd263 Gd 0.33198 0.13128 0.42184 0.0
N264 N 0.29653 0.1148 0.52879 0.0
C265 C 0.25189 0.0941 0.64993 0.0
C266 C 0.30496 0.13117 0.59786 0.0
C267 C 0.28295 0.12086 0.65973 0.0
H268 H 0.32887 0.1519 0.60534 0.0
H269 H 0.28991 0.13368 0.71459 0.0
H270 H 0.40677 0.10193 0.241 0.0
H271 H 0.28856 0.09394 0.26412 0.0
H272 H 0.43493 0.12129 0.11585 0.0
H273 H 0.23471 0.08634 0.69748 0.0
H274 H 0.19329 0.04366 0.60901 0.0
H275 H 0.46402 0.18443 0.56061 0.0
H276 H 0.19231 0.02348 0.33551 0.0
H277 H 0.23303 0.05031 0.23112 0.0
H278 H 0.529 0.22345 0.17663 0.0
H279 H 0.17789 0.02058 0.4773 0.0
H280 H 0.5443 0.26094 0.43999 0.0
H281 H 0.51387 0.23771 0.56186 0.0
N282 N 0.46446 0.17837 0.43784 0.0
C283 C 0.4817 0.18995 0.37065 0.0
C284 C 0.4762 0.19467 0.5063 0.0
C285 C 0.52207 0.23767 0.43871 0.0
C286 C 0.50487 0.22472 0.50757 0.0
C287 C 0.51075 0.22018 0.36926 0.0
H288 H 0.54997 0.25518 0.29688 0.0
N289 N 0.44167 0.14286 0.30493 0.0
C290 C 0.47014 0.17168 0.30256 0.0
C291 C 0.47408 0.16527 0.16415 0.0
C292 C 0.48695 0.18371 0.23181 0.0
C293 C 0.42917 0.12469 0.23921 0.0
C294 C 0.44509 0.13566 0.16793 0.0
O295 O 0.3439 0.11091 0.52694 0.0
O296 O 0.3717 0.08593 0.48356 0.0
O297 O 0.44246 0.10055 0.39898 0.0
O298 O 0.44629 0.11908 0.51498 0.0
O299 O 0.381 0.17114 0.46654 0.0
O300 O 0.40749 0.14976 0.53325 0.0
O301 O 0.41335 0.1654 0.35413 0.0
O302 O 0.36084 0.13526 0.31581 0.0
O303 O 0.33016 0.17512 0.44946 0.0
O304 O 0.31753 0.15468 0.33437 0.0
O305 O 0.37682 0.08534 0.36156 0.0
O306 O 0.32813 0.08719 0.35836 0.0
C307 C 0.34783 0.08552 0.52383 0.0
C308 C 0.39591 0.16985 0.52989 0.0
C309 C 0.44879 0.07049 0.50024 0.0
C310 C 0.46861 0.03183 0.52 0.0
C311 C 0.41483 0.01903 0.56515 0.0
C312 C 0.41958 0.04863 0.53687 0.0
C313 C 0.43901 1.01068 0.55701 0.0
C314 C 0.47331 0.06202 0.49191 0.0
C315 C 0.45332 0.10163 0.46894 0.0
C316 C 0.51577 0.21386 0.23047 0.0
C317 C 0.52766 0.23198 0.29895 0.0
H318 H 0.48625 0.17375 0.10868 0.0
C319 C 0.38973 0.16006 0.30562 0.0
C320 C 0.34602 0.07366 0.34112 0.0
C321 C 0.29037 0.18153 0.38221 0.0
C322 C 0.26862 0.21848 0.39372 0.0
C323 C 0.23264 0.16111 0.36597 0.0
C324 C 0.25888 0.15565 0.36856 0.0
C325 C 0.23741 0.19226 0.37812 0.0
C326 C 0.29508 0.21285 0.39529 0.0
C327 C 0.31855 0.17643 0.38201 0.0
H328 H 0.39224 1.00242 0.59373 0.0
H329 H 0.40039 0.05445 0.54366 0.0
H330 H 0.43461 0.98771 0.5808 0.0
H331 H 0.4957 0.07867 0.46256 0.0
H332 H 0.20848 0.14109 0.35472 0.0
H333 H 0.25457 0.13132 0.35871 0.0
H334 H 0.21652 0.19566 0.37697 0.0
H335 H 0.31938 0.23284 0.40597 0.0
C336 C 0.94794 0.17702 0.41344 0.0
C337 C 0.94864 0.15659 0.54197 0.0
C338 C 0.93778 0.17213 0.49004 0.0
C339 C 0.97192 0.14851 0.5172 0.0
C340 C 0.96985 0.16726 0.3869 0.0
C341 C 0.98265 0.15402 0.43984 0.0
N342 N 0.93383 0.18827 0.36324 0.0
C343 C 0.93896 0.18857 0.28496 0.0
C344 C 0.97684 0.16945 0.30728 0.0
C345 C 0.96095 0.17971 0.25591 0.0
Gd346 Gd 0.90537 0.29415 0.43323 0.0
Gd347 Gd 0.89731 0.20267 0.41637 0.0
N348 N 0.91484 0.1796 0.51162 0.0
C349 C 0.93428 0.1478 0.61554 0.0
C350 C 0.8999 0.17008 0.58221 0.0
C351 C 0.90942 0.15412 0.63525 0.0
H352 H 0.88045 0.17468 0.59705 0.0
H353 H 0.89712 0.14617 0.69047 0.0
H354 H 0.93106 0.313 0.24765 0.0
H355 H 0.92651 0.19636 0.24521 0.0
H356 H 0.91271 0.32641 0.12639 0.0
H357 H 0.94123 0.13483 0.65592 0.0
H358 H 0.98084 0.1369 0.55659 0.0
H359 H 0.84886 0.28195 0.56881 0.0
H360 H 0.99347 0.1621 0.28462 0.0
H361 H 0.96552 0.18067 0.19403 0.0
H362 H 0.81272 0.32177 0.1958 0.0
H363 H 0.99974 0.14663 0.42078 0.0
H364 H 0.77486 0.29365 0.45787 0.0
H365 H 0.7969 0.28136 0.57525 0.0
N366 N 0.85531 0.2921 0.44736 0.0
C367 C 0.84424 0.30012 0.38265 0.0
C368 C 0.83909 0.28616 0.51632 0.0
C369 C 0.79752 0.29344 0.45424 0.0
C370 C 0.80981 0.28635 0.52057 0.0
C371 C 0.81485 0.30069 0.38434 0.0
H372 H 0.78119 0.30911 0.31686 0.0
N373 N 0.8904 0.30657 0.31368 0.0
C374 C 0.86236 0.3078 0.3142 0.0
C375 C 0.86944 0.32216 0.17786 0.0
C376 C 0.85106 0.31545 0.246 0.0
C377 C 0.90861 0.31345 0.2477 0.0
C378 C 0.89832 0.32117 0.17878 0.0
O379 O 0.92322 0.23164 0.52344 0.0
O380 O 0.94421 0.28556 0.48664 0.0
O381 O 0.94008 0.34518 0.4113 0.0
O382 O 0.91372 0.33135 0.51936 0.0
O383 O 0.86112 0.21525 0.46907 0.0
O384 O 0.88519 0.26184 0.53926 0.0
O385 O 0.86563 0.25415 0.35687 0.0
O386 O 0.89415 0.2305 0.3157 0.0
O387 O 0.85233 0.15909 0.44781 0.0
O388 O 0.86997 0.16515 0.33033 0.0
O389 O 0.94539 0.2934 0.36252 0.0
O390 O 0.94206 0.24228 0.35431 0.0
C391 C 0.9464 0.26227 0.52351 0.0
C392 C 0.86494 0.23038 0.53553 0.0
C393 C 0.93334 0.38578 0.47492 0.0
C394 C 0.96064 0.44555 0.48492 0.0
C395 C 0.90269 0.41359 0.45645 0.0
C396 C 0.90398 0.38487 0.45924 0.0
C397 C 0.93063 0.4436 0.46915 0.0
C398 C 0.96165 0.41619 0.48788 0.0
C399 C 0.93496 0.35536 0.47706 0.0
C400 C 0.82174 0.31589 0.24765 0.0
C401 C 0.80374 0.3086 0.31658 0.0
H402 H 0.86153 0.32809 0.12426 0.0
C403 C 0.86958 0.23513 0.30777 0.0
C404 C 0.95644 0.27396 0.33981 0.0
C405 C 0.84245 0.11162 0.38116 0.0
C406 C 0.80457 0.05327 0.39522 0.0
C407 C 0.8616 0.07306 0.36701 0.0
C408 C 0.86773 0.10498 0.36801 0.0
C409 C 0.83031 0.04739 0.38019 0.0
C410 C 0.8109 0.08567 0.39545 0.0
C411 C 0.84879 0.14541 0.38039 0.0
H412 H 0.87983 0.4126 0.44463 0.0
H413 H 0.88201 0.36198 0.44935 0.0
H414 H 0.92853 0.46529 0.46779 0.0
H415 H 0.98445 0.41694 0.49921 0.0
H416 H 0.88121 0.0682 0.35602 0.0
H417 H 0.89209 0.12431 0.35666 0.0
H418 H 0.82645 0.02292 0.38019 0.0
H419 H 0.79136 0.09071 0.4061 0.0
C420 C 0.84694 0.77314 0.43362 0.0
C421 C 0.85655 0.79065 0.56841 0.0
C422 C 0.84676 0.7659 0.51215 0.0
C423 C 0.86325 0.82181 0.54557 0.0
C424 C 0.85595 0.80498 0.41003 0.0
C425 C 0.86275 0.82891 0.46657 0.0
N426 N 0.84155 0.74991 0.38023 0.0
C427 C 0.84731 0.75729 0.30308 0.0
C428 C 0.85958 0.81223 0.33036 0.0
C429 C 0.85594 0.78847 0.27679 0.0
Gd430 Gd 0.73401 0.61729 0.4309 0.0
Gd431 Gd 0.82474 0.69831 0.43056 0.0
N432 N 0.84064 0.73569 0.5325 0.0
C433 C 0.86142 0.7839 0.64498 0.0
C434 C 0.84815 0.72982 0.60512 0.0
C435 C 0.85818 0.75367 0.66265 0.0
H436 H 0.8457 0.70645 0.61869 0.0
H437 H 0.8636 0.74872 0.72016 0.0
H438 H 0.71497 0.6292 0.25004 0.0
H439 H 0.84431 0.73878 0.26185 0.0
H440 H 0.70484 0.60282 0.1217 0.0
H441 H 0.86926 0.80233 0.6898 0.0
H442 H 0.87032 0.84101 0.58816 0.0
H443 H 0.74405 0.56765 0.55609 0.0
H444 H 0.8665 0.83643 0.30993 0.0
H445 H 0.85968 0.79413 0.21536 0.0
H446 H 0.71504 0.50851 0.16637 0.0
H447 H 0.86927 0.85341 0.44961 0.0
H448 H 0.73909 0.48903 0.42466 0.0
H449 H 0.74691 0.5175 0.55 0.0
N450 N 0.73731 0.56952 0.43388 0.0
C451 C 0.73126 0.55333 0.36496 0.0
C452 C 0.74188 0.55645 0.50023 0.0
C453 C 0.73835 0.51147 0.42655 0.0
C454 C 0.74293 0.52755 0.49736 0.0
C455 C 0.73206 0.52408 0.35938 0.0
H456 H 0.72693 0.48575 0.28203 0.0
N457 N 0.72326 0.5941 0.30649 0.0
C458 C 0.72388 0.56585 0.29966 0.0
C459 C 0.71132 0.56352 0.16271 0.0
C460 C 0.71809 0.54991 0.2273 0.0
C461 C 0.71611 0.60719 0.24409 0.0
C462 C 0.71023 0.59222 0.17124 0.0
O463 O 0.792 0.68893 0.53353 0.0
O464 O 0.7403 0.6639 0.48443 0.0
O465 O 0.68317 0.60014 0.40431 0.0
O466 O 0.69583 0.5871 0.51346 0.0
O467 O 0.81012 0.64786 0.47468 0.0
O468 O 0.76313 0.62413 0.54126 0.0
O469 O 0.77605 0.62269 0.35165 0.0
O470 O 0.80535 0.67645 0.3143 0.0
O471 O 0.85491 0.67658 0.41095 0.0
O472 O 0.87753 0.72814 0.43206 0.0
O473 O 0.73673 0.66071 0.36973 0.0
O474 O 0.78947 0.70452 0.35037 0.0
C475 C 0.76337 0.68637 0.52789 0.0
C476 C 0.79448 0.63486 0.5393 0.0
C477 C 0.64225 0.55227 0.46484 0.0
C478 C 0.58259 0.51922 0.47415 0.0
C479 C 0.61523 0.49429 0.44072 0.0
C480 C 0.64368 0.52436 0.44547 0.0
C481 C 0.58503 0.49166 0.45492 0.0
C482 C 0.61167 0.54962 0.4792 0.0
C483 C 0.6723 0.58437 0.46922 0.0
C484 C 0.7194 0.52107 0.22151 0.0
C485 C 0.72626 0.50816 0.28736 0.0
H486 H 0.70681 0.55203 0.1061 0.0
C487 C 0.79365 0.64551 0.29986 0.0
C488 C 0.75743 0.68963 0.34076 0.0
C489 C 0.9093 0.70929 0.36878 0.0
C490 C 0.96646 0.72463 0.35738 0.0
C491 C 0.93111 0.70609 0.24394 0.0
C492 C 0.90493 0.70201 0.28922 0.0
C493 C 0.96166 0.71752 0.27768 0.0
C494 C 0.94002 0.7205 0.40268 0.0
C495 C 0.88207 0.70378 0.41907 0.0
H496 H 0.61658 0.47281 0.42613 0.0
H497 H 0.66675 0.52579 0.43413 0.0
H498 H 0.56358 0.46783 0.45189 0.0
H499 H 0.61058 0.57131 0.49316 0.0
H500 H 0.92767 0.70003 0.18275 0.0
H501 H 0.88138 0.69311 0.26237 0.0
H502 H 0.9814 0.71983 0.24239 0.0
H503 H 0.94323 0.72571 0.4645 0.0
C504 C 0.84668 0.55077 0.88196 0.0
C505 C 0.854 0.54264 0.74538 0.0
C506 C 0.86495 0.56147 0.81375 0.0
C507 C 0.82489 0.51274 0.74662 0.0
C508 C 0.81751 0.52067 0.88325 0.0
C509 C 0.80676 0.50176 0.81533 0.0
N510 N 0.85736 0.56976 0.9468 0.0
C511 C 0.84103 0.55928 0.01555 0.0
C512 C 0.80006 0.51034 0.95295 0.0
C513 C 0.81199 0.52963 0.01944 0.0
Gd514 Gd 0.89831 0.7022 0.91458 0.0
Gd515 Gd 0.90714 0.6179 0.93345 0.0
N516 N 0.8928 0.59084 0.81365 0.0
C517 C 0.87251 0.55457 0.6775 0.0
C518 C 0.91117 0.60241 0.74798 0.0
C519 C 0.9012 0.58455 0.67887 0.0
H520 H 0.93353 0.62534 0.7484 0.0
H521 H 0.91571 0.59388 0.62672 0.0
H522 H 0.88285 0.70891 0.10066 0.0
H523 H 0.85057 0.57326 0.06812 0.0
H524 H 0.90182 0.75129 0.20305 0.0
H525 H 0.86487 0.54084 0.62377 0.0
H526 H 0.81614 0.49794 0.69464 0.0
H527 H 0.92819 0.7419 0.74835 0.0
H528 H 0.77758 0.48734 0.9563 0.0
H529 H 0.79898 0.52152 0.07395 0.0
H530 H 0.98388 0.84736 0.0764 0.0
H531 H 0.78439 0.4786 0.8153 0.0
H532 H 0.99469 0.84197 0.80033 0.0
H533 H 0.9672 0.79771 0.70392 0.0
N534 N 0.93474 0.75452 0.86817 0.0
C535 C 0.94834 0.77874 0.92141 0.0
C536 C 0.94034 0.76115 0.79062 0.0
C537 C 0.97785 0.81756 0.81992 0.0
C538 C 0.9623 0.79266 0.76536 0.0
C539 C 0.97059 0.81087 0.899 0.0
H540 H 1.00145 0.86016 0.93995 0.0
N541 N 0.91621 0.74049 0.01614 0.0
C542 C 0.93873 0.77148 0.99798 0.0
C543 C 0.93783 0.78853 0.12981 0.0
C544 C 0.95071 0.79625 0.0546 0.0
C545 C 0.90218 0.73323 0.08807 0.0
C546 C 0.91289 0.75707 0.14604 0.0
O547 O 0.86727 0.61796 0.85658 0.0
O548 O 0.89429 0.6704 0.81508 0.0
O549 O 0.85388 0.70179 0.94783 0.0
O550 O 0.87055 0.7123 0.82957 0.0
O551 O 0.94643 0.65944 0.86299 0.0
O552 O 0.94075 0.70561 0.8432 0.0
O553 O 0.92307 0.69468 0.01762 0.0
O554 O 0.9478 0.66557 0.98091 0.0
O555 O 0.94068 0.60001 0.91112 0.0
O556 O 0.91657 0.5905 0.02192 0.0
O557 O 0.86164 0.65308 0.96581 0.0
O558 O 0.88531 0.62992 0.037 0.0
C559 C 0.8701 0.64092 0.80859 0.0
C560 C 0.95615 0.6888 0.83377 0.0
C561 C 0.84448 0.73979 0.88085 0.0
C562 C 0.80774 0.76175 0.89424 0.0
C563 C 0.86503 0.7978 0.86749 0.0
C564 C 0.87027 0.77143 0.86808 0.0
C565 C 0.83405 0.79308 0.88032 0.0
C566 C 0.8132 0.73508 0.89434 0.0
C567 C 0.85002 0.71174 0.88041 0.0
C568 C 0.97406 0.82807 0.03352 0.0
C569 C 0.98404 0.83536 0.95583 0.0
H570 H 0.94611 0.80692 0.17485 0.0
C571 C 0.9487 0.69112 0.01336 0.0
C572 C 0.86471 0.64086 0.03195 0.0
C573 C 0.93415 0.55359 0.97937 0.0
C574 C 0.96034 0.5198 0.9872 0.0
C575 C 0.90168 0.49488 0.97056 0.0
C576 C 0.90395 0.52535 0.97084 0.0
C577 C 0.92944 0.49206 0.97868 0.0
C578 C 0.96236 0.55072 0.98773 0.0
C579 C 0.93659 0.5861 0.97853 0.0
H580 H 0.88512 0.82203 0.85711 0.0
H581 H 0.89439 0.77588 0.85683 0.0
H582 H 0.83087 0.81413 0.88098 0.0
H583 H 0.7932 0.71072 0.90438 0.0
H584 H 0.87817 0.47323 0.96429 0.0
H585 H 0.88206 0.52677 0.96461 0.0
H586 H 0.92654 0.46795 0.97954 0.0
H587 H 0.9858 0.57253 0.99358 0.0
C588 C 0.4825 0.30344 0.87011 0.0
C589 C 0.48742 0.31626 0.73204 0.0
C590 C 0.47031 0.3099 0.80281 0.0
C591 C 0.51712 0.3166 0.72993 0.0
C592 C 0.51254 0.30417 0.86814 0.0
C593 C 0.52968 0.31067 0.79777 0.0
N594 N 0.46521 0.29677 0.93745 0.0
C595 C 0.47768 0.29283 1.00556 0.0
C596 C 0.52468 0.29867 0.93717 0.0
C597 C 0.50731 0.29328 1.00624 0.0
Gd598 Gd 0.3332 0.20586 0.92605 0.0
Gd599 Gd 0.41644 0.29784 0.92877 0.0
N600 N 0.44119 0.3089 0.80607 0.0
C601 C 0.47405 0.32187 0.66526 0.0
C602 C 0.42824 0.31476 0.74139 0.0
C603 C 0.44437 0.32116 0.67002 0.0
H604 H 0.40541 0.31437 0.74423 0.0
H605 H 0.43389 0.32553 0.6187 0.0
H606 H 0.32135 0.18469 0.114 0.0
H607 H 0.46535 0.29004 0.06009 0.0
H608 H 0.2778 0.16745 0.21199 0.0
H609 H 0.48643 0.32676 0.60978 0.0
H610 H 0.5306 0.32144 0.67607 0.0
H611 H 0.29698 0.19334 0.7537 0.0
H612 H 0.5477 0.2991 0.93804 0.0
H613 H 0.51693 0.28982 0.06026 0.0
H614 H 0.18755 0.16012 0.06851 0.0
H615 H 0.55274 0.31121 0.79522 0.0
H616 H 0.19813 0.16893 0.791 0.0
H617 H 0.2429 0.17921 0.70089 0.0
N618 N 0.2827 0.19172 0.87144 0.0
C619 C 0.25815 0.18479 0.92175 0.0
C620 C 0.27739 0.18883 0.79298 0.0
C621 C 0.22177 0.17532 0.81414 0.0
C622 C 0.24694 0.18093 0.7631 0.0
C623 C 0.22704 0.17671 0.89458 0.0
H624 H 0.17796 0.1631 0.92872 0.0
N625 N 0.29321 0.18866 0.02304 0.0
C626 C 0.26359 0.18321 1.00023 0.0
C627 C 0.24353 0.16856 0.13165 0.0
C628 C 0.238 0.1734 0.05403 0.0
C629 C 0.29811 0.18184 0.09736 0.0
C630 C 0.27352 0.17211 0.15294 0.0
O631 O 0.41385 0.25705 0.8511 0.0
O632 O 0.36018 0.22988 0.81676 0.0
O633 O 0.32525 0.1596 0.97046 0.0
O634 O 0.32882 0.168 0.84699 0.0
O635 O 0.37337 0.29441 0.86217 0.0
O636 O 0.32515 0.24361 0.86306 0.0
O637 O 0.34448 0.23843 0.03064 0.0
O638 O 0.37016 0.29089 0.98498 0.0
O639 O 0.43324 0.34873 0.90276 0.0
O640 O 0.44487 0.33576 0.01345 0.0
O641 O 0.384 0.2194 0.96645 0.0
O642 O 0.4087 0.26633 0.0349 0.0
C643 C 0.39018 0.23736 0.80416 0.0
C644 C 0.34239 0.27479 0.84362 0.0
C645 C 0.29591 0.11379 0.89072 0.0
C646 C 0.27465 0.055 0.89521 0.0
C647 C 0.23932 0.07664 0.86095 0.0
C648 C 0.26502 0.10826 0.8701 0.0
C649 C 0.24403 0.05022 0.87301 0.0
C650 C 0.30063 0.08713 0.90336 0.0
C651 C 0.32314 0.14706 0.90216 0.0
C652 C 0.20742 0.16729 0.02796 0.0
C653 C 0.20195 0.16896 0.94834 0.0
H654 H 0.22453 0.16101 0.17487 0.0
C655 C 0.3475 0.2674 0.0272 0.0
C656 C 0.3978 0.23487 0.03113 0.0
C657 C 0.48019 0.3895 0.96677 0.0
C658 C 0.51303 0.44911 0.97831 0.0
C659 C 0.5385 0.41666 0.94859 0.0
C660 C 0.5084 0.38818 0.95076 0.0
C661 C 0.54087 0.44681 0.96226 0.0
C662 C 0.48259 0.42002 0.98057 0.0
C663 C 0.4481 0.35942 0.96886 0.0
H664 H 0.21554 0.07258 0.84497 0.0
H665 H 0.26068 0.12826 0.86107 0.0
H666 H 0.2234 0.02604 0.86688 0.0
H667 H 0.3245 0.0915 0.91975 0.0
H668 H 0.56019 0.41537 0.93657 0.0
H669 H 0.50723 0.36517 0.94019 0.0
H670 H 0.5647 0.4683 0.96142 0.0
H671 H 0.4607 0.42106 0.99208 0.0
C672 C 0.73177 0.19017 0.85908 0.0
C673 C 0.72044 0.1809 0.7205 0.0
C674 C 0.72446 0.17014 0.794 0.0
C675 C 0.72334 0.2117 0.71328 0.0
C676 C 0.73431 0.22097 0.85186 0.0
C677 C 0.73015 0.23162 0.77874 0.0
N678 N 0.73653 0.17965 0.92907 0.0
C679 C 0.7412 0.19764 0.9948 0.0
C680 C 0.74077 0.24017 0.91848 0.0
C681 C 0.74388 0.22829 0.99031 0.0
Gd682 Gd 0.81985 0.13143 0.93472 0.0
Gd683 Gd 0.73067 0.12746 0.92869 0.0
N684 N 0.72258 0.14068 0.80209 0.0
C685 C 0.71394 0.16051 0.65613 0.0
C686 C 0.71575 0.12051 0.7397 0.0
C687 C 0.7115 0.13017 0.66586 0.0
H688 H 0.71364 0.09698 0.7462 0.0
H689 H 0.70636 0.1142 0.61645 0.0
H690 H 0.83698 0.13376 0.12397 0.0
H691 H 0.74224 0.1884 0.05137 0.0
H692 H 0.85285 0.1043 0.21612 0.0
H693 H 0.71078 0.16796 0.59872 0.0
H694 H 0.72037 0.22037 0.65725 0.0
H695 H 0.83188 0.11069 0.75683 0.0
H696 H 0.74283 0.26393 0.91531 0.0
H697 H 0.74799 0.2426 0.04247 0.0
H698 H 0.86194 0.02586 0.05795 0.0
H699 H 0.73215 0.25526 0.7722 0.0
H700 H 0.85557 0.0351 0.78202 0.0
H701 H 0.84565 0.07153 0.69763 0.0
N702 N 0.83298 0.09552 0.87275 0.0
C703 C 0.83931 0.07645 0.92002 0.0
C704 C 0.8358 0.09451 0.79375 0.0
C705 C 0.84908 0.05183 0.80795 0.0
C706 C 0.84366 0.07248 0.76018 0.0
C707 C 0.84728 0.05385 0.88887 0.0
H708 H 0.86019 0.01715 0.91649 0.0
N709 N 0.83424 0.1046 0.02726 0.0
C710 C 0.83999 0.08115 0.99973 0.0
C711 C 0.85306 0.07168 0.1295 0.0
C712 C 0.84909 0.06366 0.05033 0.0
C713 C 0.83987 0.11379 0.10352 0.0
C714 C 0.84898 0.09724 0.1558 0.0
O715 O 0.77394 0.16354 0.85307 0.0
O716 O 0.79939 0.13496 0.82028 0.0
O717 O 0.86835 0.16139 0.98233 0.0
O718 O 0.85702 0.17232 0.86916 0.0
O719 O 0.73137 0.0853 0.86716 0.0
O720 O 0.78191 0.08718 0.86799 0.0
O721 O 0.78575 0.11165 0.03701 0.0
O722 O 0.73419 0.08616 0.98692 0.0
O723 O 0.67951 0.10024 0.89669 0.0
O724 O 0.693 0.12093 0.01111 0.0
O725 O 0.8075 0.16979 0.97227 0.0
O726 O 0.76049 0.15042 0.03803 0.0
C727 C 0.79177 0.15726 0.80486 0.0
C728 C 0.75079 0.07367 0.84836 0.0
C729 C 0.91138 0.18615 0.89307 0.0
C730 C 0.97023 0.2224 0.88268 0.0
C731 C 0.94374 0.16938 0.8192 0.0
C732 C 0.91397 0.16282 0.84912 0.0
C733 C 0.97134 0.1992 0.83313 0.0
C734 C 0.93957 0.21555 0.91162 0.0
C735 C 0.87951 0.17972 0.92125 0.0
C736 C 0.85534 0.03985 0.0199 0.0
C737 C 0.85438 0.03492 0.93933 0.0
H738 H 0.86025 0.059 0.1703 0.0
C739 C 0.75668 0.08609 0.03176 0.0
C740 C 0.7922 0.16929 0.03603 0.0
C741 C 0.64274 0.07162 0.99813 0.0
C742 C 0.58459 0.03256 0.01767 0.0
C743 C 0.62598 0.02129 0.06811 0.0
C744 C 0.65049 0.05066 0.03833 0.0
C745 C 0.5934 0.01229 0.05804 0.0
C746 C 0.6097 0.06251 0.98798 0.0
C747 C 0.66905 0.1024 0.96497 0.0
H748 H 0.94548 0.15122 0.78503 0.0
H749 H 0.89305 0.13961 0.83734 0.0
H750 H 0.99346 0.20346 0.8052 0.0
H751 H 0.93733 0.23241 0.94989 0.0
H752 H 0.63227 1.00538 0.09935 0.0
H753 H 0.67553 0.05699 0.04678 0.0
H754 H 0.57507 0.98952 0.08301 0.0
H755 H 0.60364 0.07845 0.95603 0.0
C756 C 0.55582 0.83754 0.6607 0.0
C757 C 0.55264 0.84797 0.79807 0.0
C758 C 0.5684 0.85784 0.72547 0.0
C759 C 0.52395 0.81787 0.80466 0.0
C760 C 0.5269 0.80738 0.66734 0.0
C761 C 0.51109 0.7977 0.73952 0.0
N762 N 0.57209 0.84701 0.59174 0.0
C763 C 0.55951 0.82861 0.52635 0.0
C764 C 0.51465 0.78779 0.60114 0.0
C765 C 0.53088 0.79859 0.53027 0.0
Gd766 Gd 0.7035 0.89225 0.59868 0.0
Gd767 Gd 0.61898 0.89836 0.59234 0.0
N768 N 0.59671 0.88662 0.71807 0.0
C769 C 0.56634 0.86851 0.86225 0.0
C770 C 0.60988 0.90696 0.78024 0.0
C771 C 0.59501 0.89813 0.8532 0.0
H772 H 0.63177 0.93006 0.77431 0.0
H773 H 0.60566 0.91422 0.90246 0.0
H774 H 0.70684 0.87385 0.41333 0.0
H775 H 0.57099 0.83711 0.47053 0.0
H776 H 0.74636 0.89247 0.30545 0.0
H777 H 0.55498 0.86174 0.919 0.0
H778 H 0.51154 0.80992 0.86 0.0
H779 H 0.74686 0.92448 0.75881 0.0
H780 H 0.49247 0.7645 0.60388 0.0
H781 H 0.52117 0.78393 0.47843 0.0
H782 H 0.84383 0.97901 0.41713 0.0
H783 H 0.4889 0.77458 0.74564 0.0
H784 H 0.84477 0.99263 0.69314 0.0
H785 H 0.80329 0.96494 0.79566 0.0
N786 N 0.75629 0.93074 0.63741 0.0
C787 C 0.77891 0.94473 0.58081 0.0
C788 C 0.76485 0.93691 0.71397 0.0
C789 C 0.81998 0.97547 0.67699 0.0
C790 C 0.7967 0.95969 0.73494 0.0
C791 C 0.81136 0.96771 0.59884 0.0
H792 H 0.85939 0.99886 0.55133 0.0
N793 N 0.73938 0.90958 0.49242 0.0
C794 C 0.77017 0.9337 0.50565 0.0
C795 C 0.78459 0.93075 0.37243 0.0
C796 C 0.7936 0.94524 0.44589 0.0
C797 C 0.73096 0.8941 0.4222 0.0
C798 C 0.75328 0.90466 0.36099 0.0
O799 O 0.62268 0.8599 0.66624 0.0
O800 O 0.67527 0.88922 0.7053 0.0
O801 O 0.70632 0.84941 0.56591 0.0
O802 O 0.71387 0.86518 0.6851 0.0
O803 O 0.66123 0.94022 0.65515 0.0
O804 O 0.70878 0.93646 0.66562 0.0
O805 O 0.69157 0.91317 0.49449 0.0
O806 O 0.66492 0.93933 0.53769 0.0
O807 O 0.59379 0.92498 0.61874 0.0
O808 O 0.59027 0.90563 0.50378 0.0
O809 O 0.65399 0.85327 0.55418 0.0
O810 O 0.62779 0.87485 0.48724 0.0
C811 C 0.64592 0.86527 0.71596 0.0
C812 C 0.69149 0.95103 0.67935 0.0
C813 C 0.7425 0.83948 0.63923 0.0
C814 C 0.76384 0.80212 0.63001 0.0
C815 C 0.7996 0.85887 0.6636 0.0
C816 C 0.77375 0.86481 0.65749 0.0
C817 C 0.79473 0.82776 0.65047 0.0
C818 C 0.73772 0.80821 0.62491 0.0
C819 C 0.71471 0.84517 0.63485 0.0
C820 C 0.82555 0.96958 0.46243 0.0
C821 C 0.83441 0.98088 0.53882 0.0
H822 H 0.80198 0.93867 0.32528 0.0
C823 C 0.68842 0.93902 0.49752 0.0
C824 C 0.63939 0.85478 0.49047 0.0
C825 C 0.58742 0.95419 0.51565 0.0
C826 C 0.56757 0.99277 0.49491 0.0
C827 C 0.62124 1.00535 0.44941 0.0
C828 C 0.61655 0.97587 0.47846 0.0
C829 C 0.59708 0.01376 0.4574 0.0
C830 C 0.56292 0.96271 0.52374 0.0
C831 C 0.58303 0.92333 0.54845 0.0
H832 H 0.82356 0.87851 0.67833 0.0
H833 H 0.77822 0.88909 0.66796 0.0
H834 H 0.81535 0.82399 0.65446 0.0
H835 H 0.71366 0.78865 0.61019 0.0
H836 H 0.64377 0.02183 0.42045 0.0
H837 H 0.63573 0.97003 0.47196 0.0
H838 H 0.60144 0.03664 0.43313 0.0
H839 H 0.5406 0.94622 0.5536 0.0
C840 C 0.19251 0.7205 0.63896 0.0
C841 C 0.18652 0.70769 0.77711 0.0
C842 C 0.17478 0.714 0.70774 0.0
C843 C 0.21596 0.70749 0.77639 0.0
C844 C 0.2219 0.71991 0.63809 0.0
C845 C 0.23354 0.71349 0.7071 0.0
N846 N 0.18088 0.72701 0.57295 0.0
C847 C 0.19637 0.73097 0.50349 0.0
C848 C 0.23861 0.72545 0.56766 0.0
C849 C 0.22563 0.73071 0.50002 0.0
Gd850 Gd 0.13966 0.81784 0.59007 0.0
Gd851 Gd 0.13103 0.72562 0.58655 0.0
N852 N 0.14658 0.71489 0.70725 0.0
C853 C 0.1684 0.70199 0.84538 0.0
C854 C 0.12856 0.70889 0.77328 0.0
C855 C 0.13929 0.70255 0.84338 0.0
H856 H 0.10602 0.70915 0.77235 0.0
H857 H 0.12511 0.69808 0.89585 0.0
H858 H 0.15362 0.83941 0.40267 0.0
H859 H 0.18605 0.73364 0.45001 0.0
H860 H 0.13015 0.8574 0.29878 0.0
H861 H 0.17666 0.69714 0.89988 0.0
H862 H 0.22535 0.70268 0.82916 0.0
H863 H 0.11185 0.83023 0.75686 0.0
H864 H 0.26123 0.72514 0.56462 0.0
H865 H 0.23796 0.7342 0.44493 0.0
H866 H 0.04441 0.86538 0.42604 0.0
H867 H 0.25612 0.71304 0.70746 0.0
H868 H 0.03868 0.85513 0.70388 0.0
H869 H 0.07062 0.84425 0.80101 0.0
N870 N 0.10237 0.83243 0.63687 0.0
C871 C 0.08619 0.83973 0.58292 0.0
C872 C 0.09791 0.83503 0.71447 0.0
C873 C 0.05653 0.84884 0.68451 0.0
C874 C 0.07464 0.84289 0.73949 0.0
C875 C 0.06259 0.84788 0.60511 0.0
H876 H 0.02833 0.86202 0.56341 0.0
N877 N 0.11967 0.83585 0.48797 0.0
C878 C 0.09518 0.84155 0.50584 0.0
C879 C 0.09314 0.85658 0.37253 0.0
C880 C 0.08091 0.85168 0.44846 0.0
C881 C 0.13311 0.84261 0.41534 0.0
C882 C 0.11981 0.85267 0.35641 0.0
O883 O 0.1693 0.76632 0.66438 0.0
O884 O 0.14299 0.79372 0.69897 0.0
O885 O 0.18085 0.86312 0.54947 0.0
O886 O 0.17003 0.85608 0.67163 0.0
O887 O 0.09181 0.72883 0.6553 0.0
O888 O 0.09476 0.77995 0.65515 0.0
O889 O 0.1157 0.78525 0.48656 0.0
O890 O 0.09145 0.73262 0.53207 0.0
O891 O 0.09672 0.675 0.61412 0.0
O892 O 0.12113 0.68698 0.50343 0.0
O893 O 0.17607 0.80359 0.54776 0.0
O894 O 0.1528 0.75678 0.47908 0.0
C895 C 0.1656 0.78628 0.71117 0.0
C896 C 0.08073 0.74868 0.67426 0.0
C897 C 0.194 0.90994 0.6236 0.0
C898 C 0.23143 0.96872 0.61668 0.0
C899 C 0.1742 0.94749 0.64618 0.0
C900 C 0.16849 0.91578 0.64054 0.0
C901 C 0.20534 0.97373 0.63471 0.0
C902 C 0.22543 0.93648 0.61134 0.0
C903 C 0.18806 0.87636 0.61797 0.0
C904 C 0.05597 0.85795 0.46943 0.0
C905 C 0.04683 0.85606 0.54767 0.0
H906 H 0.08293 0.86445 0.32673 0.0
C907 C 0.09058 0.75585 0.49193 0.0
C908 C 0.17338 0.78818 0.48239 0.0
C909 C 0.10218 0.6333 0.55205 0.0
C910 C 0.07492 0.57351 0.54278 0.0
C911 C 0.13276 0.60554 0.57258 0.0
C912 C 0.13147 0.63426 0.56893 0.0
C913 C 0.10489 0.57551 0.5596 0.0
C914 C 0.07392 0.60287 0.53894 0.0
C915 C 0.10061 0.66372 0.54859 0.0
H916 H 0.15436 0.95175 0.65938 0.0
H917 H 0.14417 0.89593 0.64975 0.0
H918 H 0.20877 0.99799 0.6384 0.0
H919 H 0.24514 0.93195 0.5982 0.0
H920 H 0.15557 0.60656 0.58526 0.0
H921 H 0.15338 0.65717 0.57906 0.0
H922 H 0.10701 0.55385 0.5616 0.0
H923 H 0.05118 0.60211 0.52677 0.0
C924 C 0.30633 0.47174 0.6428 0.0
C925 C 0.32033 0.47666 0.78014 0.0
C926 C 0.31399 0.45988 0.70885 0.0
C927 C 0.31926 0.50565 0.7841 0.0
C928 C 0.3058 0.50117 0.64651 0.0
C929 C 0.31211 0.51791 0.71747 0.0
N930 N 0.29988 0.45481 0.5749 0.0
C931 C 0.29518 0.4673 0.5077 0.0
C932 C 0.29934 0.51316 0.57852 0.0
C933 C 0.29436 0.49633 0.50873 0.0
Gd934 Gd 0.21198 0.32624 0.58781 0.0
Gd935 Gd 0.30281 0.40687 0.58089 0.0
N936 N 0.3144 0.43147 0.7038 0.0
C937 C 0.32744 0.46372 0.84553 0.0
C938 C 0.32189 0.41903 0.76696 0.0
C939 C 0.32832 0.43485 0.8388 0.0
H940 H 0.32282 0.39688 0.76242 0.0
H941 H 0.33395 0.42476 0.88896 0.0
H942 H 0.18796 0.31789 0.40308 0.0
H943 H 0.29276 0.45552 0.45254 0.0
H944 H 0.1656 0.27484 0.3035 0.0
H945 H 0.33237 0.47586 0.90136 0.0
H946 H 0.32404 0.51886 0.8384 0.0
H947 H 0.19661 0.28682 0.75734 0.0
H948 H 0.29879 0.53572 0.57898 0.0
H949 H 0.29027 0.50591 0.45542 0.0
H950 H 0.15927 0.18195 0.43128 0.0
H951 H 0.31167 0.54048 0.72137 0.0
H952 H 0.16888 0.18774 0.70851 0.0
H953 H 0.17992 0.23117 0.80376 0.0
N954 N 0.19579 0.27473 0.63825 0.0
C955 C 0.1885 0.25101 0.58481 0.0
C956 C 0.19172 0.26781 0.71583 0.0
C957 C 0.17653 0.2121 0.68816 0.0
C958 C 0.18246 0.23648 0.74209 0.0
C959 C 0.17882 0.219 0.60841 0.0
H960 H 0.16283 0.16994 0.56895 0.0
N961 N 0.19396 0.28843 0.48676 0.0
C962 C 0.18727 0.25799 0.5067 0.0
C963 C 0.1688 0.23947 0.37584 0.0
C964 C 0.17532 0.23285 0.45102 0.0
C965 C 0.18512 0.29432 0.41579 0.0
C966 C 0.17268 0.27003 0.35918 0.0
O967 O 0.26153 0.4023 0.66182 0.0
O968 O 0.23268 0.34902 0.70248 0.0
O969 O 0.18195 0.34813 0.60802 0.0
O970 O 0.15927 0.2962 0.5924 0.0
O971 O 0.30092 0.36429 0.64411 0.0
O972 O 0.24828 0.3207 0.66575 0.0
O973 O 0.24328 0.33439 0.48284 0.0
O974 O 0.29552 0.3596 0.5284 0.0
O975 O 0.35369 0.4236 0.60579 0.0
O976 O 0.34066 0.43648 0.49698 0.0
O977 O 0.22589 0.37613 0.54032 0.0
O978 O 0.27262 0.39904 0.47204 0.0
C979 C 0.24457 0.38007 0.71539 0.0
C980 C 0.28037 0.33564 0.67437 0.0
C981 C 0.12797 0.31597 0.6541 0.0
C982 C 0.07093 0.30091 0.66673 0.0
C983 C 0.10744 0.32235 0.77758 0.0
C984 C 0.13304 0.32487 0.73261 0.0
C985 C 0.07646 0.31024 0.74522 0.0
C986 C 0.09696 0.30402 0.62141 0.0
C987 C 0.15478 0.32071 0.60327 0.0
C988 C 0.16797 0.20145 0.47352 0.0
C989 C 0.1699 0.19459 0.55202 0.0
H990 H 0.15901 0.22066 0.33179 0.0
C991 C 0.27181 0.33668 0.4871 0.0
C992 C 0.24135 0.38877 0.47517 0.0
C993 C 0.39447 0.47127 0.54446 0.0
C994 C 0.45416 0.50414 0.53527 0.0
C995 C 0.42168 0.52931 0.56804 0.0
C996 C 0.39318 0.49929 0.56341 0.0
C997 C 0.45183 0.53179 0.55411 0.0
C998 C 0.42502 0.47378 0.53034 0.0
C999 C 0.36435 0.43921 0.54061 0.0
H1000 H 0.11189 0.33037 0.83733 0.0
H1001 H 0.15679 0.33417 0.75863 0.0
H1002 H 0.05707 0.30908 0.78061 0.0
H1003 H 0.09316 0.29748 0.56029 0.0
H1004 H 0.42042 0.55086 0.58235 0.0
H1005 H 0.37015 0.49798 0.57457 0.0
H1006 H 0.47334 0.55558 0.55705 0.0
H1007 H 0.42604 0.45202 0.51671 0.0
C1008 C 0.01906 0.48661 0.96606 0.0
C1009 C 0.04419 0.50608 0.01811 0.0
H1010 H 0.97393 0.47619 0.91365 0.0
C1011 C 0.04152 0.5304 0.05936 0.0
H1012 H 0.02031 0.46804 0.93215 0.0
C1013 C 1.01487 0.53524 0.04851 0.0
C1014 C 0.98978 0.51582 0.99635 0.0
H1015 H 0.05997 0.54565 0.10099 0.0
H1016 H 1.01365 0.55383 0.08237 0.0
C1017 C 0.9924 0.49144 0.95526 0.0
C1018 C 0.4975 0.48588 0.05087 0.0
C1019 C 0.51618 0.48179 0.99323 0.0
H1020 H 0.48671 0.51871 0.11186 0.0
C1021 C 0.53871 0.50953 0.9514 0.0
H1022 H 0.48035 0.46538 0.08536 0.0
C1023 C 0.54248 0.54029 0.96678 0.0
C1024 C 0.52375 0.54435 0.0243 0.0
H1025 H 0.55325 0.50745 0.90571 0.0
H1026 H 0.55963 0.56079 0.93229 0.0
C1027 C 0.50127 0.51663 0.06623 0.0
C1028 C 0.53819 0.04448 0.0159 0.0
C1029 C 0.54929 0.02215 0.00792 0.0
H1030 H 0.49746 0.0522 0.01828 0.0
C1031 C 0.52607 0.98931 0.99379 0.0
H1032 H 0.55511 0.06981 0.02813 0.0
C1033 C 0.49285 0.9791 0.9883 0.0
C1034 C 0.48174 1.00142 0.99643 0.0
H1035 H 0.53359 0.97138 0.98611 0.0
H1036 H 0.47594 0.95377 0.97612 0.0
C1037 C 0.50497 0.03427 0.01046 0.0
C1038 C 0.52724 0.04475 0.52233 0.0
C1039 C 0.49413 0.02206 0.51193 0.0
H1040 H 0.57595 0.05334 0.52757 0.0
C1041 C 0.48542 0.98948 0.49668 0.0
H1042 H 0.53497 0.06988 0.53548 0.0
C1043 C 0.50897 0.97988 0.49243 0.0
C1044 C 0.54208 1.00257 0.50284 0.0
H1045 H 0.46027 0.97129 0.48706 0.0
H1046 H 0.50125 0.95475 0.47932 0.0
C1047 C 0.5508 0.03515 0.51801 0.0
C1048 C 0.02251 0.53659 0.47091 0.0
C1049 C 0.04528 0.54084 0.52873 0.0
H1050 H 0.97893 0.50362 0.41032 0.0
C1051 C 0.04005 0.51321 0.57141 0.0
H1052 H 0.02583 0.55697 0.43578 0.0
C1053 C 1.0131 0.48242 0.55658 0.0
C1054 C 0.99032 0.47819 0.49881 0.0
H1055 H 0.05663 0.51538 0.6173 0.0
H1056 H 1.00977 0.46203 0.59168 0.0
C1057 C 0.99554 0.50581 0.45613 0.0
C1058 C 0.51438 0.52939 0.56407 0.0
C1059 C 0.48694 0.50747 0.52045 0.0
H1060 H 0.56551 0.55019 0.58446 0.0
C1061 C 0.49144 0.4897 0.46107 0.0
H1062 H 0.512 0.54321 0.61114 0.0
C1063 C 0.52232 0.49382 0.44562 0.0
C1064 C 0.54978 0.51577 0.48919 0.0
H1065 H 0.4712 0.47303 0.42523 0.0
H1066 H 0.52471 0.48002 0.39852 0.0
C1067 C 0.54526 0.53351 0.54862 0.0
C1068 C 1.00251 0.32196 0.27322 0.0
C1069 C 0.98776 0.28926 0.29664 0.0
H1070 H 0.04266 0.36186 0.21719 0.0
C1071 C 1.00378 0.27179 0.28011 0.0
H1072 H 0.99121 0.33645 0.28524 0.0
C1073 C 0.03325 0.2863 0.23969 0.0
C1074 C 0.04812 0.31902 0.21668 0.0
H1075 H 0.99386 0.24696 0.29904 0.0
H1076 H 0.04413 0.27169 0.22625 0.0
C1077 C 0.03224 0.33662 0.23401 0.0
C1078 C 0.69383 0.70482 0.24718 0.0
C1079 C 0.7121 0.73672 0.21875 0.0
H1080 H 0.69338 0.66534 0.30661 0.0
C1081 C 0.74603 0.75302 0.22883 0.0
H1082 H 0.66774 0.69109 0.24003 0.0
C1083 C 0.76108 0.73795 0.2677 0.0
C1084 C 0.74261 0.7061 0.2966 0.0
H1085 H 0.76105 0.77722 0.20588 0.0
H1086 H 0.78706 0.75133 0.27527 0.0
C1087 C 0.70875 0.68985 0.28544 0.0
C1088 C 0.34851 0.03115 0.25914 0.0
C1089 C 0.33 0.04206 0.29944 0.0
H1090 H 0.34864 0.99406 0.1891 0.0
C1091 C 0.29616 0.02171 0.30252 0.0
H1092 H 0.37469 0.04574 0.25684 0.0
C1093 C 0.28119 0.99158 0.26485 0.0
C1094 C 0.29953 0.98109 0.22233 0.0
H1095 H 0.28124 0.0286 0.33589 0.0
H1096 H 0.25533 0.97641 0.27043 0.0
C1097 C 0.33349 1.00123 0.22067 0.0
C1098 C 0.03167 0.75052 0.72379 0.0
C1099 C 0.0491 0.73389 0.71603 0.0
H1100 H 0.98924 0.7498 0.76706 0.0
C1101 C 0.03514 0.70205 0.74532 0.0
H1102 H 0.04102 0.77461 0.69997 0.0
C1103 C 1.0049 0.68745 0.78204 0.0
C1104 C 0.98759 0.7042 0.79081 0.0
H1105 H 0.04749 0.68817 0.73989 0.0
H1106 H 0.9953 0.66297 0.80402 0.0
C1107 C 1.00148 0.73597 0.76123 0.0
C1108 C 0.32907 0.33635 0.73285 0.0
C1109 C 0.29533 0.31959 0.71959 0.0
H1110 H 0.37001 0.3358 0.78145 0.0
C1111 C 0.27704 0.28761 0.74769 0.0
H1112 H 0.3443 0.36098 0.71225 0.0
C1113 C 0.29208 0.27293 0.78804 0.0
C1114 C 0.32588 0.28972 0.80037 0.0
H1115 H 0.25121 0.27377 0.73813 0.0
H1116 H 0.27712 0.24857 0.8101 0.0
C1117 C 0.34403 0.32173 0.77262 0.0
C1118 C 0.70386 0.02832 0.77702 0.0
C1119 C 0.7359 0.04238 0.80484 0.0
H1120 H 0.66496 0.98907 0.71614 0.0
C1121 C 0.75308 0.02578 0.79201 0.0
H1122 H 0.68953 0.03999 0.78637 0.0
C1123 C 0.73891 0.99637 0.75111 0.0
C1124 C 0.70694 0.98235 0.72308 0.0
H1125 H 0.77739 0.0352 0.81428 0.0
H1126 H 0.75314 0.98478 0.74175 0.0
C1127 C 0.68964 0.99883 0.7367 0.0
C1128 C 0.20999 0.40003 0.77805 0.0
C1129 C 0.23178 0.38825 0.78511 0.0
H1130 H 0.17383 0.40747 0.83427 0.0
C1131 C 0.23642 0.37833 0.85855 0.0
H1132 H 0.2055 0.40721 0.72167 0.0
C1133 C 0.2189 0.37908 0.92326 0.0
C1134 C 0.19521 0.38849 0.91566 0.0
H1135 H 0.25288 0.3689 0.86538 0.0
H1136 H 0.22307 0.37095 0.97857 0.0
C1137 C 0.19166 0.39986 0.84254 0.0
C1138 C 0.62564 0.79385 0.84887 0.0
C1139 C 0.63758 0.80957 0.9209 0.0
H1140 H 0.61805 0.79914 0.72735 0.0
C1141 C 0.64862 0.84307 0.9256 0.0
H1142 H 0.61662 0.76803 0.84309 0.0
C1143 C 0.65015 0.86082 0.85917 0.0
C1144 C 0.6394 0.84534 0.78694 0.0
H1145 H 0.65697 0.8559 0.98017 0.0
H1146 H 0.66028 0.88687 0.86398 0.0
C1147 C 0.62624 0.81155 0.78263 0.0
C1148 C 0.23649 0.83571 0.84703 0.0
C1149 C 0.22038 0.8328 0.91804 0.0
H1150 H 0.23181 0.82248 0.72577 0.0
C1151 C 0.18672 0.81098 0.92145 0.0
H1152 H 0.2624 0.85203 0.84213 0.0
C1153 C 0.16929 0.79477 0.85465 0.0
C1154 C 0.18515 0.79886 0.7832 0.0
H1155 H 0.17343 0.80744 0.97501 0.0
H1156 H 0.14315 0.77962 0.85837 0.0
C1157 C 0.21905 0.81868 0.7804 0.0
C1158 C 0.38607 0.21174 0.59471 0.0
C1159 C 0.39861 0.19042 0.59847 0.0
H1160 H 0.37329 0.24286 0.65722 0.0
C1161 C 0.41216 0.18797 0.66944 0.0
H1162 H 0.37613 0.21498 0.54107 0.0
C1163 C 0.41162 0.20512 0.73568 0.0
C1164 C 0.39698 0.22451 0.7325 0.0
H1165 H 0.42225 0.17203 0.67458 0.0
H1166 H 0.42097 0.20178 0.7903 0.0
C1167 C 0.38469 0.22802 0.66116 0.0
C1168 C 0.84674 0.22835 0.67513 0.0
C1169 C 0.84382 0.21264 0.60348 0.0
H1170 H 0.83163 0.22326 0.795 0.0
C1171 C 0.82079 0.17934 0.59779 0.0
H1172 H 0.864 0.254 0.68181 0.0
C1173 C 0.80293 0.16179 0.66278 0.0
C1174 C 0.80658 0.17726 0.73457 0.0
H1175 H 0.81695 0.16645 0.54357 0.0
H1176 H 0.78659 0.13585 0.65729 0.0
C1177 C 0.82804 0.21087 0.73986 0.0
C1178 C 0.81542 0.61939 0.74435 0.0
C1179 C 0.84931 0.63348 0.73887 0.0
H1180 H 0.77124 0.60912 0.68561 0.0
C1181 C 0.86432 0.64563 0.66684 0.0
H1182 H 0.80337 0.61031 0.79969 0.0
C1183 C 0.8462 0.64483 0.60215 0.0
C1184 C 0.81252 0.63247 0.60776 0.0
H1185 H 0.89043 0.65674 0.6611 0.0
H1186 H 0.859 0.65498 0.5483 0.0
C1187 C 0.79715 0.61904 0.6793 0.0
C1188 C 0.84681 0.62609 0.1723 0.0
C1189 C 0.8435 0.63784 0.09947 0.0
H1190 H 0.83266 0.61827 0.29298 0.0
C1191 C 0.82023 0.64782 0.09233 0.0
H1192 H 0.86431 0.61804 0.18017 0.0
C1193 C 0.80269 0.64847 0.15702 0.0
C1194 C 0.80692 0.63796 0.23007 0.0
H1195 H 0.81612 0.6561 0.03718 0.0
H1196 H 0.78638 0.65811 0.15044 0.0
C1197 C 0.82848 0.6259 0.23683 0.0
C1198 C 0.3832 0.16452 0.16317 0.0
C1199 C 0.39581 0.18002 0.23462 0.0
H1200 H 0.37565 0.16961 0.04279 0.0
C1201 C 0.41123 0.21407 0.23803 0.0
H1202 H 0.37145 0.13829 0.15876 0.0
C1203 C 0.41235 0.23211 0.17185 0.0
C1204 C 0.39876 0.21644 0.10064 0.0
H1205 H 0.42102 0.22658 0.29259 0.0
H1206 H 0.42332 0.25823 0.1769 0.0
C1207 C 0.38525 0.18251 0.09681 0.0
C1208 C 0.84529 0.20509 0.10206 0.0
C1209 C 0.8112 0.1882 0.10528 0.0
H1210 H 0.89008 0.23287 0.16314 0.0
C1211 C 0.79617 0.18945 0.17491 0.0
H1212 H 0.85787 0.20547 0.04935 0.0
C1213 C 0.81498 0.20635 0.2403 0.0
C1214 C 0.84904 0.22164 0.23744 0.0
H1215 H 0.76996 0.17701 0.17926 0.0
H1216 H 0.80293 0.20622 0.29386 0.0
C1217 C 0.86387 0.22112 0.16732 0.0
C1218 C 0.62476 0.82034 0.28389 0.0
C1219 C 0.63924 0.8008 0.28733 0.0
H1220 H 0.61388 0.85326 0.34507 0.0
C1221 C 0.65108 0.79696 0.359 0.0
H1222 H 0.61575 0.82393 0.22904 0.0
C1223 C 0.6494 0.81303 0.42553 0.0
C1224 C 0.63701 0.83446 0.42161 0.0
H1225 H 0.66232 0.78198 0.36317 0.0
H1226 H 0.65891 0.80945 0.47946 0.0
C1227 C 0.6239 0.83725 0.35029 0.0
C1228 C 0.21591 0.83969 0.41892 0.0
C1229 C 0.19328 0.80629 0.41327 0.0
H1230 H 0.24866 0.88363 0.35901 0.0
C1231 C 0.18955 0.79093 0.34072 0.0
H1232 H 0.22041 0.85225 0.4739 0.0
C1233 C 0.20699 0.80889 0.27503 0.0
C1234 C 0.22796 0.8426 0.28045 0.0
H1235 H 0.17262 0.76519 0.33421 0.0
H1236 H 0.20286 0.79676 0.21937 0.0
C1237 C 0.2325 0.85768 0.35319 0.0
C1238 C 0.17139 0.37862 0.3488 0.0
C1239 C 0.18637 0.39133 0.277 0.0
H1240 H 0.17675 0.3684 0.46675 0.0
C1241 C 0.22026 0.40554 0.27141 0.0
H1242 H 0.14527 0.36736 0.35461 0.0
C1243 C 0.23855 0.40545 0.33599 0.0
C1244 C 0.22323 0.39154 0.40729 0.0
H1245 H 0.23231 0.41502 0.21625 0.0
H1246 H 0.26447 0.41546 0.32946 0.0
C1247 C 0.18954 0.37906 0.41312 0.0
C1248 C 0.2828 0.29108 0.0485 0.0
C1249 C 0.26543 0.27239 0.11319 0.0
H1250 H 0.32272 0.30435 0.97084 0.0
C1251 C 0.27784 0.25543 0.15487 0.0
H1252 H 0.27381 0.30427 0.01492 0.0
C1253 C 0.30581 0.25553 0.12965 0.0
C1254 C 0.3217 0.27215 0.0617 0.0
H1255 H 0.26535 0.24118 0.20564 0.0
H1256 H 0.31458 0.24193 0.16224 0.0
C1257 C 0.31075 0.29102 0.02309 0.0
C1258 C 0.73426 0.02588 0.02296 0.0
C1259 C 0.75146 0.05503 0.0649 0.0
H1260 H 0.72328 0.97649 0.01007 0.0
C1261 C 0.76678 0.05488 0.13454 0.0
H1262 H 0.72171 0.02505 0.96974 0.0
C1263 C 0.76769 0.02712 0.15782 0.0
C1264 C 0.75282 0.99865 0.1125 0.0
H1265 H 0.77902 0.07663 0.16973 0.0
H1266 H 0.781 0.02832 0.21003 0.0
C1267 C 0.73505 0.99798 0.04631 0.0
C1268 C 0.99246 0.74731 0.98741 0.0
C1269 C 0.98057 0.71914 0.0324 0.0
H1270 H 0.02792 0.79757 0.9755 0.0
C1271 C 0.99911 0.71852 0.09513 0.0
H1272 H 0.98029 0.74744 0.93496 0.0
C1273 C 0.02737 0.74708 0.11753 0.0
C1274 C 0.0372 0.77619 0.0766 0.0
H1275 H 0.99101 0.69647 0.12858 0.0
H1276 H 0.04064 0.74677 0.16848 0.0
C1277 C 0.0201 0.77575 0.00984 0.0
C1278 C 0.29293 0.26983 0.47313 0.0
C1279 C 0.27304 0.25118 0.41108 0.0
H1280 H 0.30837 0.31178 0.5455 0.0
C1281 C 0.25579 0.26311 0.36893 0.0
H1282 H 0.30636 0.26126 0.50718 0.0
C1283 C 0.25719 0.29215 0.39056 0.0
C1284 C 0.27536 0.30962 0.45559 0.0
H1285 H 0.24058 0.24965 0.3202 0.0
H1286 H 0.24335 0.3005 0.35756 0.0
C1287 C 0.2941 0.2988 0.49511 0.0
C1288 C 0.73144 0.96827 0.39771 0.0
C1289 C 0.71444 0.96948 0.46311 0.0
H1290 H 0.77295 0.99366 0.32445 0.0
C1291 C 0.72491 0.99951 0.49999 0.0
H1292 H 0.72327 0.94571 0.36656 0.0
C1293 C 0.7534 0.02725 0.4756 0.0
C1294 C 0.77178 0.02545 0.4136 0.0
H1295 H 0.71217 1.00122 0.55035 0.0
H1296 H 0.76193 0.04961 0.50804 0.0
C1297 C 0.75983 0.99584 0.3734 0.0
C1298 C 0.02764 0.75729 0.35789 0.0
C1299 C 0.99847 0.73421 0.39353 0.0
H1300 H 0.07971 0.78202 0.36051 0.0
C1301 C 1.00004 0.71883 0.46187 0.0
H1302 H 0.0272 0.76958 0.30516 0.0
C1303 C 0.03 0.72583 0.49304 0.0
C1304 C 0.05915 0.74874 0.45737 0.0
H1305 H 0.97806 0.70067 0.49017 0.0
H1306 H 0.03027 0.71328 0.54542 0.0
C1307 C 0.05769 0.76461 0.3898 0.0
C1308 C 0.72804 0.73696 0.99687 0.0
C1309 C 0.7182 0.75715 0.9604 0.0
H1310 H 0.76431 0.72288 1.0053 0.0
C1311 C 0.73586 0.77586 0.89626 0.0
H1312 H 0.71481 0.72213 0.04632 0.0
C1313 C 0.76413 0.77621 0.87248 0.0
C1314 C 0.77527 0.75766 0.91212 0.0
H1315 H 0.7282 0.79076 0.86545 0.0
H1316 H 0.77772 0.79171 0.82424 0.0
C1317 C 0.75637 0.7373 0.97316 0.0
C1318 C 0.26135 0.99723 0.87184 0.0
C1319 C 0.2786 0.02643 0.91388 0.0
H1320 H 0.2471 0.94682 0.86385 0.0
C1321 C 0.29769 0.02724 0.97751 0.0
H1322 H 0.24703 0.99577 0.82137 0.0
C1323 C 0.29802 0.99915 1.00102 0.0
C1324 C 0.27886 0.96956 0.96226 0.0
H1325 H 0.31113 0.04914 0.01172 0.0
H1326 H 0.31184 1.00024 0.05213 0.0
C1327 C 0.26142 0.96914 0.89596 0.0
C1328 C 0.03073 0.30694 0.96328 0.0
C1329 C 0.06009 0.30652 0.95923 0.0
H1330 H 0.97983 0.28204 0.939 0.0
C1331 C 0.05957 0.2794 0.92601 0.0
H1332 H 0.03009 0.32762 0.98787 0.0
C1333 C 0.0308 0.25246 0.90288 0.0
C1334 C 1.00111 0.25224 0.9069 0.0
H1335 H 0.08151 0.27879 0.91699 0.0
H1336 H 0.03244 0.23172 0.88327 0.0
C1337 C 1.00167 0.28036 0.9362 0.0
C1338 C 0.77554 0.75668 0.65398 0.0
C1339 C 0.75962 0.7697 0.61039 0.0
H1340 H 0.78791 0.71915 0.66368 0.0
C1341 C 0.74167 0.75267 0.54444 0.0
H1342 H 0.78911 0.76883 0.70583 0.0
C1343 C 0.74125 0.72432 0.52013 0.0
C1344 C 0.75891 0.7126 0.56104 0.0
H1345 H 0.7293 0.76211 0.50928 0.0
H1346 H 0.72851 0.71261 0.46706 0.0
C1347 C 0.77502 0.72834 0.62971 0.0
C1348 C 0.28353 0.99664 0.53925 0.0
C1349 C 0.26418 0.99728 0.60049 0.0
H1350 H 0.32571 0.02393 0.46817 0.0
C1351 C 0.27528 0.02641 0.64246 0.0
H1352 H 0.27578 0.97476 0.50535 0.0
C1353 C 0.3036 0.05462 0.62028 0.0
C1354 C 0.32167 0.05446 0.55592 0.0
H1355 H 0.2616 0.02774 0.6913 0.0
H1356 H 0.3109 0.07683 0.65232 0.0
C1357 C 0.31212 0.02489 0.51762 0.0
C1358 C 0.9799 0.25479 0.62706 0.0
C1359 C 0.97784 0.27138 0.56141 0.0
H1360 H 1.01119 0.25177 0.71325 0.0
C1361 C 1.00656 0.29716 0.53049 0.0
H1362 H 0.95821 0.23478 0.65203 0.0
C1363 C 0.03664 0.30624 0.56414 0.0
C1364 C 0.03875 0.29023 0.63057 0.0
H1365 H 1.00588 0.3102 0.47941 0.0
H1366 H 0.05829 0.32622 0.53888 0.0
C1367 C 1.01011 0.26451 0.6621 0.0
loop_
_geom_bond_atom_site_label_1
_geom_bond_atom_site_label_2
_geom_bond_distance
_geom_bond_site_symmetry_2
_ccdc_geom_bond_type
C0 C2 1.422 . S
C0 C4 1.415 . S
C0 N6 1.369 . S
C1 C2 1.421 1_556 S
C1 C3 1.417 . S
C1 C13 1.422 . S
C2 C0 1.422 . S
C2 C1 1.421 1_554 S
C2 N12 1.359 . S
C3 C1 1.417 . S
C3 C5 1.329 1_556 S
C3 H22 0.930 . S
C4 C0 1.415 . S
C4 C5 1.437 . S
C4 C8 1.413 . S
C5 C3 1.329 1_554 S
C5 C4 1.437 . S
C5 H27 0.929 1_455 S
N6 C0 1.369 . S
N6 C7 1.338 . S
N6 Gd11 2.622 . S
C7 N6 1.338 . S
C7 C9 1.378 . S
C7 H19 0.929 . S
C8 C4 1.413 . S
C8 C9 1.348 . S
C8 H24 0.931 1_455 S
C9 C7 1.378 . S
C9 C8 1.348 . S
C9 H25 0.930 . S
Gd10 N30 2.622 . S
Gd10 N37 2.570 . S
Gd10 O44 2.353 . S
Gd10 O45 2.468 . S
Gd10 O46 2.427 . S
Gd10 O48 2.388 1_554 S
Gd10 O49 2.386 . S
Gd10 O53 2.307 . S
Gd10 C63 2.805 . S
Gd11 N6 2.622 . S
Gd11 N12 2.570 . S
Gd11 O43 2.386 . S
Gd11 O47 2.307 . S
Gd11 O50 2.353 . S
Gd11 O51 2.468 . S
Gd11 O52 2.427 . S
Gd11 O54 2.388 . S
Gd11 C75 2.805 . S
N12 C2 1.359 . S
N12 Gd11 2.570 . S
N12 C14 1.343 1_554 S
C13 C1 1.422 . S
C13 C15 1.321 . S
C13 H21 0.931 . S
C14 N12 1.343 1_556 S
C14 C15 1.390 . S
C14 H16 0.931 . S
C15 C13 1.321 . S
C15 C14 1.390 . S
C15 H17 0.930 . S
H16 C14 0.931 . S
H17 C15 0.930 . S
H18 C41 0.931 . S
H19 C7 0.929 . S
H20 C42 0.930 . S
H21 C13 0.931 . S
H22 C3 0.930 . S
H23 C32 0.929 . S
H24 C8 0.931 1_655 S
H25 C9 0.930 . S
H26 C64 0.930 . S
H27 C5 0.929 1_655 S
H28 C33 0.931 . S
H29 C34 0.930 . S
N30 Gd10 2.622 . S
N30 C31 1.369 . S
N30 C32 1.338 1_554 S
C31 N30 1.369 . S
C31 C35 1.415 . S
C31 C38 1.422 . S
C32 H23 0.929 . S
C32 N30 1.338 1_556 S
C32 C34 1.378 . S
C33 H28 0.931 . S
C33 C34 1.348 1_554 S
C33 C35 1.413 . S
C34 H29 0.930 . S
C34 C32 1.378 . S
C34 C33 1.348 1_556 S
C35 C31 1.415 . S
C35 C33 1.413 . S
C35 C65 1.437 . S
H36 C65 0.929 . S
N37 Gd10 2.570 . S
N37 C38 1.359 . S
N37 C41 1.343 . S
C38 C31 1.422 . S
C38 N37 1.359 . S
C38 C40 1.421 . S
C39 C40 1.422 . S
C39 C42 1.321 . S
C39 H66 0.931 . S
C40 C38 1.421 . S
C40 C39 1.422 . S
C40 C64 1.417 . S
C41 H18 0.931 . S
C41 N37 1.343 . S
C41 C42 1.390 . S
C42 H20 0.930 . S
C42 C39 1.321 . S
C42 C41 1.390 . S
O43 Gd11 2.386 . S
O43 C55 1.265 . S
O44 Gd10 2.353 . S
O44 C55 1.242 . S
O45 Gd10 2.468 . S
O45 C63 1.263 . S
O46 Gd10 2.427 . S
O46 C63 1.252 . S
O47 Gd11 2.307 . S
O47 C56 1.261 1_554 S
O48 Gd10 2.388 1_556 S
O48 C56 1.252 . S
O49 Gd10 2.386 . S
O49 C67 1.265 . S
O50 Gd11 2.353 . S
O50 C67 1.242 . S
O51 Gd11 2.468 . S
O51 C75 1.263 . S
O52 Gd11 2.427 . S
O52 C75 1.252 . S
O53 Gd10 2.307 . S
O53 C68 1.261 . S
O54 Gd11 2.388 . S
O54 C68 1.252 . S
C55 O43 1.265 . S
C55 O44 1.242 . S
C56 O47 1.261 1_556 S
C56 O48 1.252 . S
C57 C60 1.394 1_554 S
C57 C62 1.370 . S
C57 C63 1.500 . S
C58 C61 1.384 1_554 S
C58 C62 1.395 . S
C59 C60 1.396 . S
C59 C61 1.365 . S
C59 H76 0.929 . S
C60 C57 1.394 1_556 S
C60 C59 1.396 . S
C60 H77 0.930 . S
C61 C58 1.384 1_556 S
C61 C59 1.365 . S
C61 H78 0.931 . S
C62 C57 1.370 . S
C62 C58 1.395 . S
C62 H79 0.930 . S
C63 Gd10 2.805 . S
C63 O45 1.263 . S
C63 O46 1.252 . S
C63 C57 1.500 . S
C64 H26 0.930 . S
C64 C40 1.417 . S
C64 C65 1.329 . S
C65 C35 1.437 . S
C65 H36 0.929 . S
C65 C64 1.329 . S
H66 C39 0.931 . S
C67 O49 1.265 . S
C67 O50 1.242 . S
C68 O53 1.261 . S
C68 O54 1.252 . S
C69 C72 1.394 . S
C69 C74 1.370 . S
C69 C75 1.500 . S
C70 C73 1.383 . S
C70 C74 1.395 . S
C71 C72 1.396 . S
C71 C73 1.365 . S
C71 H80 0.929 . S
C72 C69 1.394 . S
C72 C71 1.396 . S
C72 H81 0.930 . S
C73 C70 1.383 . S
C73 C71 1.365 . S
C73 H82 0.931 . S
C74 C69 1.370 . S
C74 C70 1.395 . S
C74 H83 0.930 . S
C75 Gd11 2.805 . S
C75 O51 1.263 . S
C75 O52 1.252 . S
C75 C69 1.500 . S
H76 C59 0.929 . S
H77 C60 0.930 . S
H78 C61 0.931 . S
H79 C62 0.930 . S
H80 C71 0.929 . S
H81 C72 0.930 . S
H82 C73 0.931 . S
H83 C74 0.930 . S
C84 C86 1.422 . S
C84 C88 1.415 . S
C84 N90 1.369 . S
C85 C86 1.421 1_556 S
C85 C87 1.417 . S
C85 C97 1.422 . S
C86 C84 1.422 . S
C86 C85 1.421 1_554 S
C86 N96 1.359 . S
C87 C85 1.417 . S
C87 C89 1.329 1_556 S
C87 H106 0.930 . S
C88 C84 1.415 . S
C88 C89 1.437 . S
C88 C92 1.413 . S
C89 C87 1.329 1_554 S
C89 C88 1.437 . S
C89 H111 0.929 . S
N90 C84 1.369 . S
N90 C91 1.338 . S
N90 Gd95 2.622 . S
C91 N90 1.338 . S
C91 C93 1.378 . S
C91 H103 0.929 . S
C92 C88 1.413 . S
C92 C93 1.348 . S
C92 H108 0.931 . S
C93 C91 1.378 . S
C93 C92 1.348 . S
C93 H109 0.930 . S
Gd94 N114 2.622 . S
Gd94 N121 2.570 . S
Gd94 O128 2.353 . S
Gd94 O129 2.468 . S
Gd94 O130 2.427 . S
Gd94 O132 2.388 1_554 S
Gd94 O133 2.386 . S
Gd94 O137 2.307 . S
Gd94 C147 2.805 . S
Gd95 N90 2.622 . S
Gd95 N96 2.570 . S
Gd95 O127 2.386 . S
Gd95 O131 2.307 . S
Gd95 O134 2.353 . S
Gd95 O135 2.468 . S
Gd95 O136 2.427 . S
Gd95 O138 2.388 . S
Gd95 C159 2.805 . S
N96 C86 1.359 . S
N96 Gd95 2.570 . S
N96 C98 1.343 1_554 S
C97 C85 1.422 . S
C97 C99 1.321 . S
C97 H105 0.931 . S
C98 N96 1.343 1_556 S
C98 C99 1.390 . S
C98 H100 0.931 . S
C99 C97 1.321 . S
C99 C98 1.390 . S
C99 H101 0.930 . S
H100 C98 0.931 . S
H101 C99 0.930 . S
H102 C125 0.931 . S
H103 C91 0.929 . S
H104 C126 0.930 . S
H105 C97 0.931 . S
H106 C87 0.930 . S
H107 C116 0.929 . S
H108 C92 0.931 . S
H109 C93 0.930 . S
H110 C148 0.930 . S
H111 C89 0.929 . S
H112 C117 0.931 . S
H113 C118 0.930 . S
N114 Gd94 2.622 . S
N114 C115 1.369 . S
N114 C116 1.338 1_554 S
C115 N114 1.369 . S
C115 C119 1.415 . S
C115 C122 1.422 . S
C116 H107 0.929 . S
C116 N114 1.338 1_556 S
C116 C118 1.378 . S
C117 H112 0.931 . S
C117 C118 1.348 1_554 S
C117 C119 1.413 . S
C118 H113 0.930 . S
C118 C116 1.378 . S
C118 C117 1.348 1_556 S
C119 C115 1.415 . S
C119 C117 1.413 . S
C119 C149 1.437 . S
H120 C149 0.929 . S
N121 Gd94 2.570 . S
N121 C122 1.359 . S
N121 C125 1.343 . S
C122 C115 1.422 . S
C122 N121 1.359 . S
C122 C124 1.421 . S
C123 C124 1.422 . S
C123 C126 1.321 . S
C123 H150 0.931 . S
C124 C122 1.421 . S
C124 C123 1.422 . S
C124 C148 1.417 . S
C125 H102 0.931 . S
C125 N121 1.343 . S
C125 C126 1.390 . S
C126 H104 0.930 . S
C126 C123 1.321 . S
C126 C125 1.390 . S
O127 Gd95 2.386 . S
O127 C139 1.265 . S
O128 Gd94 2.353 . S
O128 C139 1.242 . S
O129 Gd94 2.468 . S
O129 C147 1.263 . S
O130 Gd94 2.427 . S
O130 C147 1.252 . S
O131 Gd95 2.307 . S
O131 C140 1.261 1_554 S
O132 Gd94 2.388 1_556 S
O132 C140 1.252 . S
O133 Gd94 2.386 . S
O133 C151 1.265 . S
O134 Gd95 2.353 . S
O134 C151 1.242 . S
O135 Gd95 2.468 . S
O135 C159 1.263 . S
O136 Gd95 2.427 . S
O136 C159 1.252 . S
O137 Gd94 2.307 . S
O137 C152 1.261 . S
O138 Gd95 2.388 . S
O138 C152 1.252 . S
C139 O127 1.265 . S
C139 O128 1.242 . S
C140 O131 1.261 1_556 S
C140 O132 1.252 . S
C141 C144 1.394 1_554 S
C141 C146 1.370 . S
C141 C147 1.500 . S
C142 C145 1.384 1_554 S
C142 C146 1.395 . S
C143 C144 1.396 . S
C143 C145 1.365 . S
C143 H160 0.929 . S
C144 C141 1.394 1_556 S
C144 C143 1.396 . S
C144 H161 0.930 . S
C145 C142 1.384 1_556 S
C145 C143 1.365 . S
C145 H162 0.931 . S
C146 C141 1.370 . S
C146 C142 1.395 . S
C146 H163 0.930 . S
C147 Gd94 2.805 . S
C147 O129 1.263 . S
C147 O130 1.252 . S
C147 C141 1.500 . S
C148 H110 0.930 . S
C148 C124 1.417 . S
C148 C149 1.329 . S
C149 C119 1.437 . S
C149 H120 0.929 . S
C149 C148 1.329 . S
H150 C123 0.931 . S
C151 O133 1.265 . S
C151 O134 1.242 . S
C152 O137 1.261 . S
C152 O138 1.252 . S
C153 C156 1.394 . S
C153 C158 1.370 . S
C153 C159 1.500 . S
C154 C157 1.383 . S
C154 C158 1.395 . S
C155 C156 1.396 . S
C155 C157 1.365 . S
C155 H164 0.929 . S
C156 C153 1.394 . S
C156 C155 1.396 . S
C156 H165 0.930 . S
C157 C154 1.383 . S
C157 C155 1.365 . S
C157 H166 0.931 . S
C158 C153 1.370 . S
C158 C154 1.395 . S
C158 H167 0.930 . S
C159 Gd95 2.805 . S
C159 O135 1.263 . S
C159 O136 1.252 . S
C159 C153 1.500 . S
H160 C143 0.929 . S
H161 C144 0.930 . S
H162 C145 0.931 . S
H163 C146 0.930 . S
H164 C155 0.929 . S
H165 C156 0.930 . S
H166 C157 0.931 . S
H167 C158 0.930 . S
C168 C170 1.422 . S
C168 C172 1.415 . S
C168 N174 1.369 . S
C169 C170 1.421 1_556 S
C169 C171 1.417 . S
C169 C181 1.422 . S
C170 C168 1.422 . S
C170 C169 1.421 1_554 S
C170 N180 1.359 . S
C171 C169 1.417 . S
C171 C173 1.329 1_556 S
C171 H190 0.930 . S
C172 C168 1.415 . S
C172 C173 1.437 . S
C172 C176 1.413 . S
C173 C171 1.329 1_554 S
C173 C172 1.437 . S
C173 H195 0.929 1_565 S
N174 C168 1.369 . S
N174 C175 1.338 . S
N174 Gd179 2.622 . S
C175 N174 1.338 . S
C175 C177 1.378 . S
C175 H187 0.929 . S
C176 C172 1.413 . S
C176 C177 1.348 . S
C176 H192 0.931 1_565 S
C177 C175 1.378 . S
C177 C176 1.348 . S
C177 H193 0.930 . S
Gd178 N198 2.622 . S
Gd178 N205 2.570 . S
Gd178 O212 2.353 . S
Gd178 O213 2.468 . S
Gd178 O214 2.427 . S
Gd178 O216 2.388 1_554 S
Gd178 O217 2.386 . S
Gd178 O221 2.307 . S
Gd178 C231 2.805 . S
Gd179 N174 2.622 . S
Gd179 N180 2.570 . S
Gd179 O211 2.386 . S
Gd179 O215 2.307 . S
Gd179 O218 2.353 . S
Gd179 O219 2.468 . S
Gd179 O220 2.427 . S
Gd179 O222 2.388 . S
Gd179 C243 2.805 . S
N180 C170 1.359 . S
N180 Gd179 2.570 . S
N180 C182 1.343 1_554 S
C181 C169 1.422 . S
C181 C183 1.321 . S
C181 H189 0.931 . S
C182 N180 1.343 1_556 S
C182 C183 1.390 . S
C182 H184 0.931 . S
C183 C181 1.321 . S
C183 C182 1.390 . S
C183 H185 0.930 . S
H184 C182 0.931 . S
H185 C183 0.930 . S
H186 C209 0.931 . S
H187 C175 0.929 . S
H188 C210 0.930 . S
H189 C181 0.931 . S
H190 C171 0.930 . S
H191 C200 0.929 . S
H192 C176 0.931 1_545 S
H193 C177 0.930 . S
H194 C232 0.930 . S
H195 C173 0.929 1_545 S
H196 C201 0.931 . S
H197 C202 0.930 . S
N198 Gd178 2.622 . S
N198 C199 1.369 . S
N198 C200 1.338 1_554 S
C199 N198 1.369 . S
C199 C203 1.415 . S
C199 C206 1.422 . S
C200 H191 0.929 . S
C200 N198 1.338 1_556 S
C200 C202 1.378 . S
C201 H196 0.931 . S
C201 C202 1.348 1_554 S
C201 C203 1.413 . S
C202 H197 0.930 . S
C202 C200 1.378 . S
C202 C201 1.348 1_556 S
C203 C199 1.415 . S
C203 C201 1.413 . S
C203 C233 1.437 . S
H204 C233 0.929 . S
N205 Gd178 2.570 . S
N205 C206 1.359 . S
N205 C209 1.343 . S
C206 C199 1.422 . S
C206 N205 1.359 . S
C206 C208 1.421 . S
C207 C208 1.422 . S
C207 C210 1.321 . S
C207 H234 0.931 . S
C208 C206 1.421 . S
C208 C207 1.422 . S
C208 C232 1.417 . S
C209 H186 0.931 . S
C209 N205 1.343 . S
C209 C210 1.390 . S
C210 H188 0.930 . S
C210 C207 1.321 . S
C210 C209 1.390 . S
O211 Gd179 2.386 . S
O211 C223 1.265 . S
O212 Gd178 2.353 . S
O212 C223 1.242 . S
O213 Gd178 2.468 . S
O213 C231 1.263 . S
O214 Gd178 2.427 . S
O214 C231 1.252 . S
O215 Gd179 2.307 . S
O215 C224 1.261 1_554 S
O216 Gd178 2.388 1_556 S
O216 C224 1.252 . S
O217 Gd178 2.386 . S
O217 C235 1.265 . S
O218 Gd179 2.353 . S
O218 C235 1.242 . S
O219 Gd179 2.468 . S
O219 C243 1.263 . S
O220 Gd179 2.427 . S
O220 C243 1.252 . S
O221 Gd178 2.307 . S
O221 C236 1.261 . S
O222 Gd179 2.388 . S
O222 C236 1.252 . S
C223 O211 1.265 . S
C223 O212 1.242 . S
C224 O215 1.261 1_556 S
C224 O216 1.252 . S
C225 C228 1.394 1_554 S
C225 C230 1.370 . S
C225 C231 1.500 . S
C226 C229 1.384 1_554 S
C226 C230 1.395 . S
C227 C228 1.396 . S
C227 C229 1.365 . S
C227 H244 0.929 . S
C228 C225 1.394 1_556 S
C228 C227 1.396 . S
C228 H245 0.930 . S
C229 C226 1.384 1_556 S
C229 C227 1.365 . S
C229 H246 0.931 . S
C230 C225 1.370 . S
C230 C226 1.395 . S
C230 H247 0.930 . S
C231 Gd178 2.805 . S
C231 O213 1.263 . S
C231 O214 1.252 . S
C231 C225 1.500 . S
C232 H194 0.930 . S
C232 C208 1.417 . S
C232 C233 1.329 . S
C233 C203 1.437 . S
C233 H204 0.929 . S
C233 C232 1.329 . S
H234 C207 0.931 . S
C235 O217 1.265 . S
C235 O218 1.242 . S
C236 O221 1.261 . S
C236 O222 1.252 . S
C237 C240 1.394 . S
C237 C242 1.370 . S
C237 C243 1.500 . S
C238 C241 1.383 . S
C238 C242 1.395 . S
C239 C240 1.396 . S
C239 C241 1.365 . S
C239 H248 0.929 . S
C240 C237 1.394 . S
C240 C239 1.396 . S
C240 H249 0.930 . S
C241 C238 1.383 . S
C241 C239 1.365 . S
C241 H250 0.931 . S
C242 C237 1.370 . S
C242 C238 1.395 . S
C242 H251 0.930 . S
C243 Gd179 2.805 . S
C243 O219 1.263 . S
C243 O220 1.252 . S
C243 C237 1.500 . S
H244 C227 0.929 . S
H245 C228 0.930 . S
H246 C229 0.931 . S
H247 C230 0.930 . S
H248 C239 0.929 . S
H249 C240 0.930 . S
H250 C241 0.931 . S
H251 C242 0.930 . S
C252 C254 1.422 . S
C252 C256 1.415 . S
C252 N258 1.369 . S
C253 C254 1.421 . S
C253 C255 1.417 . S
C253 C265 1.422 . S
C254 C252 1.422 . S
C254 C253 1.421 . S
C254 N264 1.359 . S
C255 C253 1.417 . S
C255 C257 1.329 . S
C255 H274 0.930 . S
C256 C252 1.415 . S
C256 C257 1.437 . S
C256 C260 1.413 . S
C257 C255 1.329 . S
C257 C256 1.437 . S
C257 H279 0.929 1_545 S
N258 C252 1.369 . S
N258 C259 1.338 . S
N258 Gd263 2.622 . S
C259 N258 1.338 . S
C259 C261 1.378 . S
C259 H271 0.929 . S
C260 C256 1.413 . S
C260 C261 1.348 . S
C260 H276 0.931 1_545 S
C261 C259 1.378 . S
C261 C260 1.348 . S
C261 H277 0.930 . S
Gd262 N282 2.622 . S
Gd262 N289 2.570 . S
Gd262 O296 2.353 . S
Gd262 O297 2.468 . S
Gd262 O298 2.427 . S
Gd262 O300 2.388 . S
Gd262 O301 2.386 . S
Gd262 O305 2.307 . S
Gd262 C315 2.805 . S
Gd263 N258 2.622 . S
Gd263 N264 2.570 . S
Gd263 O295 2.386 . S
Gd263 O299 2.307 . S
Gd263 O302 2.353 . S
Gd263 O303 2.468 . S
Gd263 O304 2.427 . S
Gd263 O306 2.388 . S
Gd263 C327 2.805 . S
N264 C254 1.359 . S
N264 Gd263 2.570 . S
N264 C266 1.343 . S
C265 C253 1.422 . S
C265 C267 1.321 . S
C265 H273 0.931 . S
C266 N264 1.343 . S
C266 C267 1.390 . S
C266 H268 0.931 . S
C267 C265 1.321 . S
C267 C266 1.390 . S
C267 H269 0.930 . S
H268 C266 0.931 . S
H269 C267 0.930 . S
H270 C293 0.931 . S
H271 C259 0.929 . S
H272 C294 0.930 . S
H273 C265 0.931 . S
H274 C255 0.930 . S
H275 C284 0.929 . S
H276 C260 0.931 1_565 S
H277 C261 0.930 . S
H278 C316 0.930 . S
H279 C257 0.929 1_565 S
H280 C285 0.931 . S
H281 C286 0.930 . S
N282 Gd262 2.622 . S
N282 C283 1.369 . S
N282 C284 1.338 . S
C283 N282 1.369 . S
C283 C287 1.415 . S
C283 C290 1.422 . S
C284 H275 0.929 . S
C284 N282 1.338 . S
C284 C286 1.378 . S
C285 H280 0.931 . S
C285 C286 1.348 . S
C285 C287 1.413 . S
C286 H281 0.930 . S
C286 C284 1.378 . S
C286 C285 1.348 . S
C287 C283 1.415 . S
C287 C285 1.413 . S
C287 C317 1.437 . S
H288 C317 0.929 . S
N289 Gd262 2.570 . S
N289 C290 1.359 . S
N289 C293 1.343 . S
C290 C283 1.422 . S
C290 N289 1.359 . S
C290 C292 1.421 . S
C291 C292 1.422 . S
C291 C294 1.321 . S
C291 H318 0.931 . S
C292 C290 1.421 . S
C292 C291 1.422 . S
C292 C316 1.417 . S
C293 H270 0.931 . S
C293 N289 1.343 . S
C293 C294 1.390 . S
C294 H272 0.930 . S
C294 C291 1.321 . S
C294 C293 1.390 . S
O295 Gd263 2.386 . S
O295 C307 1.265 . S
O296 Gd262 2.353 . S
O296 C307 1.242 . S
O297 Gd262 2.468 . S
O297 C315 1.263 . S
O298 Gd262 2.427 . S
O298 C315 1.252 . S
O299 Gd263 2.307 . S
O299 C308 1.261 . S
O300 Gd262 2.388 . S
O300 C308 1.252 . S
O301 Gd262 2.386 . S
O301 C319 1.265 . S
O302 Gd263 2.353 . S
O302 C319 1.242 . S
O303 Gd263 2.468 . S
O303 C327 1.263 . S
O304 Gd263 2.427 . S
O304 C327 1.252 . S
O305 Gd262 2.307 . S
O305 C320 1.261 . S
O306 Gd263 2.388 . S
O306 C320 1.252 . S
C307 O295 1.265 . S
C307 O296 1.242 . S
C308 O299 1.261 . S
C308 O300 1.252 . S
C309 C312 1.394 . S
C309 C314 1.370 . S
C309 C315 1.500 . S
C310 C313 1.383 . S
C310 C314 1.395 . S
C311 C312 1.396 . S
C311 C313 1.365 . S
C311 H328 0.929 . S
C312 C309 1.394 . S
C312 C311 1.396 . S
C312 H329 0.930 . S
C313 C310 1.383 . S
C313 C311 1.365 . S
C313 H330 0.931 . S
C314 C309 1.370 . S
C314 C310 1.395 . S
C314 H331 0.930 . S
C315 Gd262 2.805 . S
C315 O297 1.263 . S
C315 O298 1.252 . S
C315 C309 1.500 . S
C316 H278 0.930 . S
C316 C292 1.417 . S
C316 C317 1.329 . S
C317 C287 1.437 . S
C317 H288 0.929 . S
C317 C316 1.329 . S
H318 C291 0.931 . S
C319 O301 1.265 . S
C319 O302 1.242 . S
C320 O305 1.261 . S
C320 O306 1.252 . S
C321 C324 1.394 . S
C321 C326 1.370 . S
C321 C327 1.500 . S
C322 C325 1.383 . S
C322 C326 1.395 . S
C323 C324 1.396 . S
C323 C325 1.365 . S
C323 H332 0.929 . S
C324 C321 1.394 . S
C324 C323 1.396 . S
C324 H333 0.930 . S
C325 C322 1.383 . S
C325 C323 1.365 . S
C325 H334 0.931 . S
C326 C321 1.370 . S
C326 C322 1.395 . S
C326 H335 0.930 . S
C327 Gd263 2.805 . S
C327 O303 1.263 . S
C327 O304 1.252 . S
C327 C321 1.500 . S
H328 C311 0.929 . S
H329 C312 0.930 . S
H330 C313 0.931 . S
H331 C314 0.930 . S
H332 C323 0.929 . S
H333 C324 0.930 . S
H334 C325 0.931 . S
H335 C326 0.930 . S
C336 C338 1.422 . S
C336 C340 1.415 . S
C336 N342 1.369 . S
C337 C338 1.421 . S
C337 C339 1.417 . S
C337 C349 1.422 . S
C338 C336 1.422 . S
C338 C337 1.421 . S
C338 N348 1.359 . S
C339 C337 1.417 . S
C339 C341 1.329 . S
C339 H358 0.930 . S
C340 C336 1.415 . S
C340 C341 1.437 . S
C340 C344 1.413 . S
C341 C339 1.329 . S
C341 C340 1.437 . S
C341 H363 0.929 1_655 S
N342 C336 1.369 . S
N342 C343 1.338 . S
N342 Gd347 2.622 . S
C343 N342 1.338 . S
C343 C345 1.378 . S
C343 H355 0.929 . S
C344 C340 1.413 . S
C344 C345 1.348 . S
C344 H360 0.931 1_655 S
C345 C343 1.378 . S
C345 C344 1.348 . S
C345 H361 0.930 . S
Gd346 N366 2.622 . S
Gd346 N373 2.570 . S
Gd346 O380 2.353 . S
Gd346 O381 2.468 . S
Gd346 O382 2.427 . S
Gd346 O384 2.388 . S
Gd346 O385 2.386 . S
Gd346 O389 2.307 . S
Gd346 C399 2.805 . S
Gd347 N342 2.622 . S
Gd347 N348 2.570 . S
Gd347 O379 2.386 . S
Gd347 O383 2.307 . S
Gd347 O386 2.353 . S
Gd347 O387 2.468 . S
Gd347 O388 2.427 . S
Gd347 O390 2.388 . S
Gd347 C411 2.805 . S
N348 C338 1.359 . S
N348 Gd347 2.570 . S
N348 C350 1.343 . S
C349 C337 1.422 . S
C349 C351 1.321 . S
C349 H357 0.931 . S
C350 N348 1.343 . S
C350 C351 1.390 . S
C350 H352 0.931 . S
C351 C349 1.321 . S
C351 C350 1.390 . S
C351 H353 0.930 . S
H352 C350 0.931 . S
H353 C351 0.930 . S
H354 C377 0.931 . S
H355 C343 0.929 . S
H356 C378 0.930 . S
H357 C349 0.931 . S
H358 C339 0.930 . S
H359 C368 0.929 . S
H360 C344 0.931 1_455 S
H361 C345 0.930 . S
H362 C400 0.930 . S
H363 C341 0.929 1_455 S
H364 C369 0.931 . S
H365 C370 0.930 . S
N366 Gd346 2.622 . S
N366 C367 1.369 . S
N366 C368 1.338 . S
C367 N366 1.369 . S
C367 C371 1.415 . S
C367 C374 1.422 . S
C368 H359 0.929 . S
C368 N366 1.338 . S
C368 C370 1.378 . S
C369 H364 0.931 . S
C369 C370 1.348 . S
C369 C371 1.413 . S
C370 H365 0.930 . S
C370 C368 1.378 . S
C370 C369 1.348 . S
C371 C367 1.415 . S
C371 C369 1.413 . S
C371 C401 1.437 . S
H372 C401 0.929 . S
N373 Gd346 2.570 . S
N373 C374 1.359 . S
N373 C377 1.343 . S
C374 C367 1.422 . S
C374 N373 1.359 . S
C374 C376 1.421 . S
C375 C376 1.422 . S
C375 C378 1.321 . S
C375 H402 0.931 . S
C376 C374 1.421 . S
C376 C375 1.422 . S
C376 C400 1.417 . S
C377 H354 0.931 . S
C377 N373 1.343 . S
C377 C378 1.390 . S
C378 H356 0.930 . S
C378 C375 1.321 . S
C378 C377 1.390 . S
O379 Gd347 2.386 . S
O379 C391 1.265 . S
O380 Gd346 2.353 . S
O380 C391 1.242 . S
O381 Gd346 2.468 . S
O381 C399 1.263 . S
O382 Gd346 2.427 . S
O382 C399 1.252 . S
O383 Gd347 2.307 . S
O383 C392 1.261 . S
O384 Gd346 2.388 . S
O384 C392 1.252 . S
O385 Gd346 2.386 . S
O385 C403 1.265 . S
O386 Gd347 2.353 . S
O386 C403 1.242 . S
O387 Gd347 2.468 . S
O387 C411 1.263 . S
O388 Gd347 2.427 . S
O388 C411 1.252 . S
O389 Gd346 2.307 . S
O389 C404 1.261 . S
O390 Gd347 2.388 . S
O390 C404 1.252 . S
C391 O379 1.265 . S
C391 O380 1.242 . S
C392 O383 1.261 . S
C392 O384 1.252 . S
C393 C396 1.394 . S
C393 C398 1.370 . S
C393 C399 1.500 . S
C394 C397 1.383 . S
C394 C398 1.395 . S
C395 C396 1.396 . S
C395 C397 1.365 . S
C395 H412 0.929 . S
C396 C393 1.394 . S
C396 C395 1.396 . S
C396 H413 0.930 . S
C397 C394 1.383 . S
C397 C395 1.365 . S
C397 H414 0.931 . S
C398 C393 1.370 . S
C398 C394 1.395 . S
C398 H415 0.930 . S
C399 Gd346 2.805 . S
C399 O381 1.263 . S
C399 O382 1.252 . S
C399 C393 1.500 . S
C400 H362 0.930 . S
C400 C376 1.417 . S
C400 C401 1.329 . S
C401 C371 1.437 . S
C401 H372 0.929 . S
C401 C400 1.329 . S
H402 C375 0.931 . S
C403 O385 1.265 . S
C403 O386 1.242 . S
C404 O389 1.261 . S
C404 O390 1.252 . S
C405 C408 1.394 . S
C405 C410 1.370 . S
C405 C411 1.500 . S
C406 C409 1.383 . S
C406 C410 1.395 . S
C407 C408 1.396 . S
C407 C409 1.365 . S
C407 H416 0.929 . S
C408 C405 1.394 . S
C408 C407 1.396 . S
C408 H417 0.930 . S
C409 C406 1.383 . S
C409 C407 1.365 . S
C409 H418 0.931 . S
C410 C405 1.370 . S
C410 C406 1.395 . S
C410 H419 0.930 . S
C411 Gd347 2.805 . S
C411 O387 1.263 . S
C411 O388 1.252 . S
C411 C405 1.500 . S
H412 C395 0.929 . S
H413 C396 0.930 . S
H414 C397 0.931 . S
H415 C398 0.930 . S
H416 C407 0.929 . S
H417 C408 0.930 . S
H418 C409 0.931 . S
H419 C410 0.930 . S
C420 C422 1.422 . S
C420 C424 1.415 . S
C420 N426 1.369 . S
C421 C422 1.421 . S
C421 C423 1.417 . S
C421 C433 1.422 . S
C422 C420 1.422 . S
C422 C421 1.421 . S
C422 N432 1.359 . S
C423 C421 1.417 . S
C423 C425 1.329 . S
C423 H442 0.930 . S
C424 C420 1.415 . S
C424 C425 1.437 . S
C424 C428 1.413 . S
C425 C423 1.329 . S
C425 C424 1.437 . S
C425 H447 0.929 . S
N426 C420 1.369 . S
N426 C427 1.338 . S
N426 Gd431 2.622 . S
C427 N426 1.338 . S
C427 C429 1.378 . S
C427 H439 0.929 . S
C428 C424 1.413 . S
C428 C429 1.348 . S
C428 H444 0.931 . S
C429 C427 1.378 . S
C429 C428 1.348 . S
C429 H445 0.930 . S
Gd430 N450 2.622 . S
Gd430 N457 2.570 . S
Gd430 O464 2.353 . S
Gd430 O465 2.468 . S
Gd430 O466 2.427 . S
Gd430 O468 2.388 . S
Gd430 O469 2.386 . S
Gd430 O473 2.307 . S
Gd430 C483 2.805 . S
Gd431 N426 2.622 . S
Gd431 N432 2.570 . S
Gd431 O463 2.386 . S
Gd431 O467 2.307 . S
Gd431 O470 2.353 . S
Gd431 O471 2.468 . S
Gd431 O472 2.427 . S
Gd431 O474 2.388 . S
Gd431 C495 2.805 . S
N432 C422 1.359 . S
N432 Gd431 2.570 . S
N432 C434 1.343 . S
C433 C421 1.422 . S
C433 C435 1.321 . S
C433 H441 0.931 . S
C434 N432 1.343 . S
C434 C435 1.390 . S
C434 H436 0.931 . S
C435 C433 1.321 . S
C435 C434 1.390 . S
C435 H437 0.930 . S
H436 C434 0.931 . S
H437 C435 0.930 . S
H438 C461 0.931 . S
H439 C427 0.929 . S
H440 C462 0.930 . S
H441 C433 0.931 . S
H442 C423 0.930 . S
H443 C452 0.929 . S
H444 C428 0.931 . S
H445 C429 0.930 . S
H446 C484 0.930 . S
H447 C425 0.929 . S
H448 C453 0.931 . S
H449 C454 0.930 . S
N450 Gd430 2.622 . S
N450 C451 1.369 . S
N450 C452 1.338 . S
C451 N450 1.369 . S
C451 C455 1.415 . S
C451 C458 1.422 . S
C452 H443 0.929 . S
C452 N450 1.338 . S
C452 C454 1.378 . S
C453 H448 0.931 . S
C453 C454 1.348 . S
C453 C455 1.413 . S
C454 H449 0.930 . S
C454 C452 1.378 . S
C454 C453 1.348 . S
C455 C451 1.415 . S
C455 C453 1.413 . S
C455 C485 1.437 . S
H456 C485 0.929 . S
N457 Gd430 2.570 . S
N457 C458 1.359 . S
N457 C461 1.343 . S
C458 C451 1.422 . S
C458 N457 1.359 . S
C458 C460 1.421 . S
C459 C460 1.422 . S
C459 C462 1.321 . S
C459 H486 0.931 . S
C460 C458 1.421 . S
C460 C459 1.422 . S
C460 C484 1.417 . S
C461 H438 0.931 . S
C461 N457 1.343 . S
C461 C462 1.390 . S
C462 H440 0.930 . S
C462 C459 1.321 . S
C462 C461 1.390 . S
O463 Gd431 2.386 . S
O463 C475 1.265 . S
O464 Gd430 2.353 . S
O464 C475 1.242 . S
O465 Gd430 2.468 . S
O465 C483 1.263 . S
O466 Gd430 2.427 . S
O466 C483 1.252 . S
O467 Gd431 2.307 . S
O467 C476 1.261 . S
O468 Gd430 2.388 . S
O468 C476 1.252 . S
O469 Gd430 2.386 . S
O469 C487 1.265 . S
O470 Gd431 2.353 . S
O470 C487 1.242 . S
O471 Gd431 2.468 . S
O471 C495 1.263 . S
O472 Gd431 2.427 . S
O472 C495 1.252 . S
O473 Gd430 2.307 . S
O473 C488 1.261 . S
O474 Gd431 2.388 . S
O474 C488 1.252 . S
C475 O463 1.265 . S
C475 O464 1.242 . S
C476 O467 1.261 . S
C476 O468 1.252 . S
C477 C480 1.394 . S
C477 C482 1.370 . S
C477 C483 1.500 . S
C478 C481 1.383 . S
C478 C482 1.395 . S
C479 C480 1.396 . S
C479 C481 1.365 . S
C479 H496 0.929 . S
C480 C477 1.394 . S
C480 C479 1.396 . S
C480 H497 0.930 . S
C481 C478 1.383 . S
C481 C479 1.365 . S
C481 H498 0.931 . S
C482 C477 1.370 . S
C482 C478 1.395 . S
C482 H499 0.930 . S
C483 Gd430 2.805 . S
C483 O465 1.263 . S
C483 O466 1.252 . S
C483 C477 1.500 . S
C484 H446 0.930 . S
C484 C460 1.417 . S
C484 C485 1.329 . S
C485 C455 1.437 . S
C485 H456 0.929 . S
C485 C484 1.329 . S
H486 C459 0.931 . S
C487 O469 1.265 . S
C487 O470 1.242 . S
C488 O473 1.261 . S
C488 O474 1.252 . S
C489 C492 1.394 . S
C489 C494 1.370 . S
C489 C495 1.500 . S
C490 C493 1.383 . S
C490 C494 1.395 . S
C491 C492 1.396 . S
C491 C493 1.365 . S
C491 H500 0.929 . S
C492 C489 1.394 . S
C492 C491 1.396 . S
C492 H501 0.930 . S
C493 C490 1.383 . S
C493 C491 1.365 . S
C493 H502 0.931 . S
C494 C489 1.370 . S
C494 C490 1.395 . S
C494 H503 0.930 . S
C495 Gd431 2.805 . S
C495 O471 1.263 . S
C495 O472 1.252 . S
C495 C489 1.500 . S
H496 C479 0.929 . S
H497 C480 0.930 . S
H498 C481 0.931 . S
H499 C482 0.930 . S
H500 C491 0.929 . S
H501 C492 0.930 . S
H502 C493 0.931 . S
H503 C494 0.930 . S
C504 C506 1.422 . S
C504 C508 1.415 . S
C504 N510 1.369 . S
C505 C506 1.421 . S
C505 C507 1.417 . S
C505 C517 1.422 . S
C506 C504 1.422 . S
C506 C505 1.421 . S
C506 N516 1.359 . S
C507 C505 1.417 . S
C507 C509 1.329 . S
C507 H526 0.930 . S
C508 C504 1.415 . S
C508 C509 1.437 . S
C508 C512 1.413 . S
C509 C507 1.329 . S
C509 C508 1.437 . S
C509 H531 0.929 . S
N510 C504 1.369 . S
N510 C511 1.338 1_556 S
N510 Gd515 2.622 . S
C511 N510 1.338 1_554 S
C511 C513 1.378 . S
C511 H523 0.929 . S
C512 C508 1.413 . S
C512 C513 1.348 1_556 S
C512 H528 0.931 . S
C513 C511 1.378 . S
C513 C512 1.348 1_554 S
C513 H529 0.930 . S
Gd514 N534 2.622 . S
Gd514 N541 2.570 . S
Gd514 O548 2.353 . S
Gd514 O549 2.468 . S
Gd514 O550 2.427 . S
Gd514 O552 2.388 . S
Gd514 O553 2.386 . S
Gd514 O557 2.307 . S
Gd514 C567 2.805 . S
Gd515 N510 2.622 . S
Gd515 N516 2.570 . S
Gd515 O547 2.386 . S
Gd515 O551 2.307 . S
Gd515 O554 2.353 . S
Gd515 O555 2.468 . S
Gd515 O556 2.427 . S
Gd515 O558 2.388 1_556 S
Gd515 C579 2.805 . S
N516 C506 1.359 . S
N516 Gd515 2.570 . S
N516 C518 1.343 . S
C517 C505 1.422 . S
C517 C519 1.321 . S
C517 H525 0.931 . S
C518 N516 1.343 . S
C518 C519 1.390 . S
C518 H520 0.931 . S
C519 C517 1.321 . S
C519 C518 1.390 . S
C519 H521 0.930 . S
H520 C518 0.931 . S
H521 C519 0.930 . S
H522 C545 0.931 . S
H523 C511 0.929 . S
H524 C546 0.930 . S
H525 C517 0.931 . S
H526 C507 0.930 . S
H527 C536 0.929 . S
H528 C512 0.931 . S
H529 C513 0.930 . S
H530 C568 0.930 . S
H531 C509 0.929 . S
H532 C537 0.931 1_455 S
H533 C538 0.930 . S
N534 Gd514 2.622 . S
N534 C535 1.369 . S
N534 C536 1.338 . S
C535 N534 1.369 . S
C535 C539 1.415 . S
C535 C542 1.422 . S
C536 H527 0.929 . S
C536 N534 1.338 . S
C536 C538 1.378 . S
C537 H532 0.931 1_655 S
C537 C538 1.348 . S
C537 C539 1.413 . S
C538 H533 0.930 . S
C538 C536 1.378 . S
C538 C537 1.348 . S
C539 C535 1.415 . S
C539 C537 1.413 . S
C539 C569 1.437 . S
H540 C569 0.929 1_455 S
N541 Gd514 2.570 . S
N541 C542 1.359 . S
N541 C545 1.343 1_556 S
C542 C535 1.422 . S
C542 N541 1.359 . S
C542 C544 1.421 1_556 S
C543 C544 1.422 . S
C543 C546 1.321 . S
C543 H570 0.931 . S
C544 C542 1.421 1_554 S
C544 C543 1.422 . S
C544 C568 1.417 . S
C545 H522 0.931 . S
C545 N541 1.343 1_554 S
C545 C546 1.390 . S
C546 H524 0.930 . S
C546 C543 1.321 . S
C546 C545 1.390 . S
O547 Gd515 2.386 . S
O547 C559 1.265 . S
O548 Gd514 2.353 . S
O548 C559 1.242 . S
O549 Gd514 2.468 . S
O549 C567 1.263 . S
O550 Gd514 2.427 . S
O550 C567 1.252 . S
O551 Gd515 2.307 . S
O551 C560 1.261 . S
O552 Gd514 2.388 . S
O552 C560 1.252 . S
O553 Gd514 2.386 . S
O553 C571 1.265 . S
O554 Gd515 2.353 . S
O554 C571 1.242 . S
O555 Gd515 2.468 . S
O555 C579 1.263 . S
O556 Gd515 2.427 . S
O556 C579 1.252 . S
O557 Gd514 2.307 . S
O557 C572 1.261 1_556 S
O558 Gd515 2.388 1_554 S
O558 C572 1.252 . S
C559 O547 1.265 . S
C559 O548 1.242 . S
C560 O551 1.261 . S
C560 O552 1.252 . S
C561 C564 1.394 . S
C561 C566 1.370 . S
C561 C567 1.500 . S
C562 C565 1.383 . S
C562 C566 1.395 . S
C563 C564 1.396 . S
C563 C565 1.365 . S
C563 H580 0.929 . S
C564 C561 1.394 . S
C564 C563 1.396 . S
C564 H581 0.930 . S
C565 C562 1.383 . S
C565 C563 1.365 . S
C565 H582 0.931 . S
C566 C561 1.370 . S
C566 C562 1.395 . S
C566 H583 0.930 . S
C567 Gd514 2.805 . S
C567 O549 1.263 . S
C567 O550 1.252 . S
C567 C561 1.500 . S
C568 H530 0.930 . S
C568 C544 1.417 . S
C568 C569 1.329 1_554 S
C569 C539 1.437 . S
C569 H540 0.929 1_655 S
C569 C568 1.329 1_556 S
H570 C543 0.931 . S
C571 O553 1.265 . S
C571 O554 1.242 . S
C572 O557 1.261 1_554 S
C572 O558 1.252 . S
C573 C576 1.394 1_556 S
C573 C578 1.370 . S
C573 C579 1.500 . S
C574 C577 1.384 1_556 S
C574 C578 1.395 . S
C575 C576 1.396 . S
C575 C577 1.365 . S
C575 H584 0.929 . S
C576 C573 1.394 1_554 S
C576 C575 1.396 . S
C576 H585 0.930 . S
C577 C574 1.384 1_554 S
C577 C575 1.365 . S
C577 H586 0.931 . S
C578 C573 1.370 . S
C578 C574 1.395 . S
C578 H587 0.930 . S
C579 Gd515 2.805 . S
C579 O555 1.263 . S
C579 O556 1.252 . S
C579 C573 1.500 . S
H580 C563 0.929 . S
H581 C564 0.930 . S
H582 C565 0.931 . S
H583 C566 0.930 . S
H584 C575 0.929 . S
H585 C576 0.930 . S
H586 C577 0.931 . S
H587 C578 0.930 . S
C588 C590 1.422 . S
C588 C592 1.415 . S
C588 N594 1.369 . S
C589 C590 1.421 . S
C589 C591 1.417 . S
C589 C601 1.422 . S
C590 C588 1.422 . S
C590 C589 1.421 . S
C590 N600 1.359 . S
C591 C589 1.417 . S
C591 C593 1.329 . S
C591 H610 0.930 . S
C592 C588 1.415 . S
C592 C593 1.437 . S
C592 C596 1.413 . S
C593 C591 1.329 . S
C593 C592 1.437 . S
C593 H615 0.929 . S
N594 C588 1.369 . S
N594 C595 1.338 1_556 S
N594 Gd599 2.622 . S
C595 N594 1.338 1_554 S
C595 C597 1.378 . S
C595 H607 0.929 . S
C596 C592 1.413 . S
C596 C597 1.348 1_556 S
C596 H612 0.931 . S
C597 C595 1.378 . S
C597 C596 1.348 1_554 S
C597 H613 0.930 . S
Gd598 N618 2.622 . S
Gd598 N625 2.570 . S
Gd598 O632 2.353 . S
Gd598 O633 2.468 . S
Gd598 O634 2.427 . S
Gd598 O636 2.388 . S
Gd598 O637 2.386 . S
Gd598 O641 2.307 . S
Gd598 C651 2.805 . S
Gd599 N594 2.622 . S
Gd599 N600 2.570 . S
Gd599 O631 2.386 . S
Gd599 O635 2.307 . S
Gd599 O638 2.353 . S
Gd599 O639 2.468 . S
Gd599 O640 2.427 . S
Gd599 O642 2.388 1_556 S
Gd599 C663 2.805 . S
N600 C590 1.359 . S
N600 Gd599 2.570 . S
N600 C602 1.343 . S
C601 C589 1.422 . S
C601 C603 1.321 . S
C601 H609 0.931 . S
C602 N600 1.343 . S
C602 C603 1.390 . S
C602 H604 0.931 . S
C603 C601 1.321 . S
C603 C602 1.390 . S
C603 H605 0.930 . S
H604 C602 0.931 . S
H605 C603 0.930 . S
H606 C629 0.931 . S
H607 C595 0.929 . S
H608 C630 0.930 . S
H609 C601 0.931 . S
H610 C591 0.930 . S
H611 C620 0.929 . S
H612 C596 0.931 . S
H613 C597 0.930 . S
H614 C652 0.930 . S
H615 C593 0.929 . S
H616 C621 0.931 . S
H617 C622 0.930 . S
N618 Gd598 2.622 . S
N618 C619 1.369 . S
N618 C620 1.338 . S
C619 N618 1.369 . S
C619 C623 1.415 . S
C619 C626 1.422 . S
C620 H611 0.929 . S
C620 N618 1.338 . S
C620 C622 1.378 . S
C621 H616 0.931 . S
C621 C622 1.348 . S
C621 C623 1.413 . S
C622 H617 0.930 . S
C622 C620 1.378 . S
C622 C621 1.348 . S
C623 C619 1.415 . S
C623 C621 1.413 . S
C623 C653 1.437 . S
H624 C653 0.929 . S
N625 Gd598 2.570 . S
N625 C626 1.359 . S
N625 C629 1.343 1_556 S
C626 C619 1.422 . S
C626 N625 1.359 . S
C626 C628 1.421 1_556 S
C627 C628 1.422 . S
C627 C630 1.321 . S
C627 H654 0.931 . S
C628 C626 1.421 1_554 S
C628 C627 1.422 . S
C628 C652 1.417 . S
C629 H606 0.931 . S
C629 N625 1.343 1_554 S
C629 C630 1.390 . S
C630 H608 0.930 . S
C630 C627 1.321 . S
C630 C629 1.390 . S
O631 Gd599 2.386 . S
O631 C643 1.265 . S
O632 Gd598 2.353 . S
O632 C643 1.242 . S
O633 Gd598 2.468 . S
O633 C651 1.263 . S
O634 Gd598 2.427 . S
O634 C651 1.252 . S
O635 Gd599 2.307 . S
O635 C644 1.261 . S
O636 Gd598 2.388 . S
O636 C644 1.252 . S
O637 Gd598 2.386 . S
O637 C655 1.265 . S
O638 Gd599 2.353 . S
O638 C655 1.242 . S
O639 Gd599 2.468 . S
O639 C663 1.263 . S
O640 Gd599 2.427 . S
O640 C663 1.252 . S
O641 Gd598 2.307 . S
O641 C656 1.261 1_556 S
O642 Gd599 2.388 1_554 S
O642 C656 1.252 . S
C643 O631 1.265 . S
C643 O632 1.242 . S
C644 O635 1.261 . S
C644 O636 1.252 . S
C645 C648 1.394 . S
C645 C650 1.370 . S
C645 C651 1.500 . S
C646 C649 1.383 . S
C646 C650 1.395 . S
C647 C648 1.396 . S
C647 C649 1.365 . S
C647 H664 0.929 . S
C648 C645 1.394 . S
C648 C647 1.396 . S
C648 H665 0.930 . S
C649 C646 1.383 . S
C649 C647 1.365 . S
C649 H666 0.931 . S
C650 C645 1.370 . S
C650 C646 1.395 . S
C650 H667 0.930 . S
C651 Gd598 2.805 . S
C651 O633 1.263 . S
C651 O634 1.252 . S
C651 C645 1.500 . S
C652 H614 0.930 . S
C652 C628 1.417 . S
C652 C653 1.329 1_554 S
C653 C623 1.437 . S
C653 H624 0.929 . S
C653 C652 1.329 1_556 S
H654 C627 0.931 . S
C655 O637 1.265 . S
C655 O638 1.242 . S
C656 O641 1.261 1_554 S
C656 O642 1.252 . S
C657 C660 1.394 1_556 S
C657 C662 1.370 . S
C657 C663 1.500 . S
C658 C661 1.384 1_556 S
C658 C662 1.395 . S
C659 C660 1.396 . S
C659 C661 1.365 . S
C659 H668 0.929 . S
C660 C657 1.394 1_554 S
C660 C659 1.396 . S
C660 H669 0.930 . S
C661 C658 1.384 1_554 S
C661 C659 1.365 . S
C661 H670 0.931 . S
C662 C657 1.370 . S
C662 C658 1.395 . S
C662 H671 0.930 . S
C663 Gd599 2.805 . S
C663 O639 1.263 . S
C663 O640 1.252 . S
C663 C657 1.500 . S
H664 C647 0.929 . S
H665 C648 0.930 . S
H666 C649 0.931 . S
H667 C650 0.930 . S
H668 C659 0.929 . S
H669 C660 0.930 . S
H670 C661 0.931 . S
H671 C662 0.930 . S
C672 C674 1.422 . S
C672 C676 1.415 . S
C672 N678 1.369 . S
C673 C674 1.421 . S
C673 C675 1.417 . S
C673 C685 1.422 . S
C674 C672 1.422 . S
C674 C673 1.421 . S
C674 N684 1.359 . S
C675 C673 1.417 . S
C675 C677 1.329 . S
C675 H694 0.930 . S
C676 C672 1.415 . S
C676 C677 1.437 . S
C676 C680 1.413 . S
C677 C675 1.329 . S
C677 C676 1.437 . S
C677 H699 0.929 . S
N678 C672 1.369 . S
N678 C679 1.338 1_556 S
N678 Gd683 2.622 . S
C679 N678 1.338 1_554 S
C679 C681 1.378 . S
C679 H691 0.929 . S
C680 C676 1.413 . S
C680 C681 1.348 1_556 S
C680 H696 0.931 . S
C681 C679 1.378 . S
C681 C680 1.348 1_554 S
C681 H697 0.930 . S
Gd682 N702 2.622 . S
Gd682 N709 2.570 . S
Gd682 O716 2.353 . S
Gd682 O717 2.468 . S
Gd682 O718 2.427 . S
Gd682 O720 2.388 . S
Gd682 O721 2.386 . S
Gd682 O725 2.307 . S
Gd682 C735 2.805 . S
Gd683 N678 2.622 . S
Gd683 N684 2.570 . S
Gd683 O715 2.386 . S
Gd683 O719 2.307 . S
Gd683 O722 2.353 . S
Gd683 O723 2.468 . S
Gd683 O724 2.427 . S
Gd683 O726 2.388 1_556 S
Gd683 C747 2.805 . S
N684 C674 1.359 . S
N684 Gd683 2.570 . S
N684 C686 1.343 . S
C685 C673 1.422 . S
C685 C687 1.321 . S
C685 H693 0.931 . S
C686 N684 1.343 . S
C686 C687 1.390 . S
C686 H688 0.931 . S
C687 C685 1.321 . S
C687 C686 1.390 . S
C687 H689 0.930 . S
H688 C686 0.931 . S
H689 C687 0.930 . S
H690 C713 0.931 . S
H691 C679 0.929 . S
H692 C714 0.930 . S
H693 C685 0.931 . S
H694 C675 0.930 . S
H695 C704 0.929 . S
H696 C680 0.931 . S
H697 C681 0.930 . S
H698 C736 0.930 . S
H699 C677 0.929 . S
H700 C705 0.931 1_565 S
H701 C706 0.930 . S
N702 Gd682 2.622 . S
N702 C703 1.369 . S
N702 C704 1.338 . S
C703 N702 1.369 . S
C703 C707 1.415 . S
C703 C710 1.422 . S
C704 H695 0.929 . S
C704 N702 1.338 . S
C704 C706 1.378 . S
C705 H700 0.931 1_545 S
C705 C706 1.348 . S
C705 C707 1.413 . S
C706 H701 0.930 . S
C706 C704 1.378 . S
C706 C705 1.348 . S
C707 C703 1.415 . S
C707 C705 1.413 . S
C707 C737 1.437 . S
H708 C737 0.929 1_565 S
N709 Gd682 2.570 . S
N709 C710 1.359 . S
N709 C713 1.343 1_556 S
C710 C703 1.422 . S
C710 N709 1.359 . S
C710 C712 1.421 1_556 S
C711 C712 1.422 . S
C711 C714 1.321 . S
C711 H738 0.931 . S
C712 C710 1.421 1_554 S
C712 C711 1.422 . S
C712 C736 1.417 . S
C713 H690 0.931 . S
C713 N709 1.343 1_554 S
C713 C714 1.390 . S
C714 H692 0.930 . S
C714 C711 1.321 . S
C714 C713 1.390 . S
O715 Gd683 2.386 . S
O715 C727 1.265 . S
O716 Gd682 2.353 . S
O716 C727 1.242 . S
O717 Gd682 2.468 . S
O717 C735 1.263 . S
O718 Gd682 2.427 . S
O718 C735 1.252 . S
O719 Gd683 2.307 . S
O719 C728 1.261 . S
O720 Gd682 2.388 . S
O720 C728 1.252 . S
O721 Gd682 2.386 . S
O721 C739 1.265 . S
O722 Gd683 2.353 . S
O722 C739 1.242 . S
O723 Gd683 2.468 . S
O723 C747 1.263 . S
O724 Gd683 2.427 . S
O724 C747 1.252 . S
O725 Gd682 2.307 . S
O725 C740 1.261 1_556 S
O726 Gd683 2.388 1_554 S
O726 C740 1.252 . S
C727 O715 1.265 . S
C727 O716 1.242 . S
C728 O719 1.261 . S
C728 O720 1.252 . S
C729 C732 1.394 . S
C729 C734 1.370 . S
C729 C735 1.500 . S
C730 C733 1.383 . S
C730 C734 1.395 . S
C731 C732 1.396 . S
C731 C733 1.365 . S
C731 H748 0.929 . S
C732 C729 1.394 . S
C732 C731 1.396 . S
C732 H749 0.930 . S
C733 C730 1.383 . S
C733 C731 1.365 . S
C733 H750 0.931 . S
C734 C729 1.370 . S
C734 C730 1.395 . S
C734 H751 0.930 . S
C735 Gd682 2.805 . S
C735 O717 1.263 . S
C735 O718 1.252 . S
C735 C729 1.500 . S
C736 H698 0.930 . S
C736 C712 1.417 . S
C736 C737 1.329 1_554 S
C737 C707 1.437 . S
C737 H708 0.929 1_545 S
C737 C736 1.329 1_556 S
H738 C711 0.931 . S
C739 O721 1.265 . S
C739 O722 1.242 . S
C740 O725 1.261 1_554 S
C740 O726 1.252 . S
C741 C744 1.394 1_556 S
C741 C746 1.370 . S
C741 C747 1.500 . S
C742 C745 1.384 1_556 S
C742 C746 1.395 . S
C743 C744 1.396 . S
C743 C745 1.365 . S
C743 H752 0.929 . S
C744 C741 1.394 1_554 S
C744 C743 1.396 . S
C744 H753 0.930 . S
C745 C742 1.384 1_554 S
C745 C743 1.365 . S
C745 H754 0.931 . S
C746 C741 1.370 . S
C746 C742 1.395 . S
C746 H755 0.930 . S
C747 Gd683 2.805 . S
C747 O723 1.263 . S
C747 O724 1.252 . S
C747 C741 1.500 . S
H748 C731 0.929 . S
H749 C732 0.930 . S
H750 C733 0.931 . S
H751 C734 0.930 . S
H752 C743 0.929 . S
H753 C744 0.930 . S
H754 C745 0.931 . S
H755 C746 0.930 . S
C756 C758 1.422 . S
C756 C760 1.415 . S
C756 N762 1.369 . S
C757 C758 1.421 . S
C757 C759 1.417 . S
C757 C769 1.422 . S
C758 C756 1.422 . S
C758 C757 1.421 . S
C758 N768 1.359 . S
C759 C757 1.417 . S
C759 C761 1.329 . S
C759 H778 0.930 . S
C760 C756 1.415 . S
C760 C761 1.437 . S
C760 C764 1.413 . S
C761 C759 1.329 . S
C761 C760 1.437 . S
C761 H783 0.929 . S
N762 C756 1.369 . S
N762 C763 1.338 . S
N762 Gd767 2.622 . S
C763 N762 1.338 . S
C763 C765 1.378 . S
C763 H775 0.929 . S
C764 C760 1.413 . S
C764 C765 1.348 . S
C764 H780 0.931 . S
C765 C763 1.378 . S
C765 C764 1.348 . S
C765 H781 0.930 . S
Gd766 N786 2.622 . S
Gd766 N793 2.570 . S
Gd766 O800 2.353 . S
Gd766 O801 2.468 . S
Gd766 O802 2.427 . S
Gd766 O804 2.388 . S
Gd766 O805 2.386 . S
Gd766 O809 2.307 . S
Gd766 C819 2.805 . S
Gd767 N762 2.622 . S
Gd767 N768 2.570 . S
Gd767 O799 2.386 . S
Gd767 O803 2.307 . S
Gd767 O806 2.353 . S
Gd767 O807 2.468 . S
Gd767 O808 2.427 . S
Gd767 O810 2.388 . S
Gd767 C831 2.805 . S
N768 C758 1.359 . S
N768 Gd767 2.570 . S
N768 C770 1.343 . S
C769 C757 1.422 . S
C769 C771 1.321 . S
C769 H777 0.931 . S
C770 N768 1.343 . S
C770 C771 1.390 . S
C770 H772 0.931 . S
C771 C769 1.321 . S
C771 C770 1.390 . S
C771 H773 0.930 . S
H772 C770 0.931 . S
H773 C771 0.930 . S
H774 C797 0.931 . S
H775 C763 0.929 . S
H776 C798 0.930 . S
H777 C769 0.931 . S
H778 C759 0.930 . S
H779 C788 0.929 . S
H780 C764 0.931 . S
H781 C765 0.930 . S
H782 C820 0.930 . S
H783 C761 0.929 . S
H784 C789 0.931 1_545 S
H785 C790 0.930 . S
N786 Gd766 2.622 . S
N786 C787 1.369 . S
N786 C788 1.338 . S
C787 N786 1.369 . S
C787 C791 1.415 . S
C787 C794 1.422 . S
C788 H779 0.929 . S
C788 N786 1.338 . S
C788 C790 1.378 . S
C789 H784 0.931 1_565 S
C789 C790 1.348 . S
C789 C791 1.413 . S
C790 H785 0.930 . S
C790 C788 1.378 . S
C790 C789 1.348 . S
C791 C787 1.415 . S
C791 C789 1.413 . S
C791 C821 1.437 . S
H792 C821 0.929 1_545 S
N793 Gd766 2.570 . S
N793 C794 1.359 . S
N793 C797 1.343 . S
C794 C787 1.422 . S
C794 N793 1.359 . S
C794 C796 1.421 . S
C795 C796 1.422 . S
C795 C798 1.321 . S
C795 H822 0.931 . S
C796 C794 1.421 . S
C796 C795 1.422 . S
C796 C820 1.417 . S
C797 H774 0.931 . S
C797 N793 1.343 . S
C797 C798 1.390 . S
C798 H776 0.930 . S
C798 C795 1.321 . S
C798 C797 1.390 . S
O799 Gd767 2.386 . S
O799 C811 1.265 . S
O800 Gd766 2.353 . S
O800 C811 1.242 . S
O801 Gd766 2.468 . S
O801 C819 1.263 . S
O802 Gd766 2.427 . S
O802 C819 1.252 . S
O803 Gd767 2.307 . S
O803 C812 1.261 . S
O804 Gd766 2.388 . S
O804 C812 1.252 . S
O805 Gd766 2.386 . S
O805 C823 1.265 . S
O806 Gd767 2.353 . S
O806 C823 1.242 . S
O807 Gd767 2.468 . S
O807 C831 1.263 . S
O808 Gd767 2.427 . S
O808 C831 1.252 . S
O809 Gd766 2.307 . S
O809 C824 1.261 . S
O810 Gd767 2.388 . S
O810 C824 1.252 . S
C811 O799 1.265 . S
C811 O800 1.242 . S
C812 O803 1.261 . S
C812 O804 1.252 . S
C813 C816 1.394 . S
C813 C818 1.370 . S
C813 C819 1.500 . S
C814 C817 1.383 . S
C814 C818 1.395 . S
C815 C816 1.396 . S
C815 C817 1.365 . S
C815 H832 0.929 . S
C816 C813 1.394 . S
C816 C815 1.396 . S
C816 H833 0.930 . S
C817 C814 1.383 . S
C817 C815 1.365 . S
C817 H834 0.931 . S
C818 C813 1.370 . S
C818 C814 1.395 . S
C818 H835 0.930 . S
C819 Gd766 2.805 . S
C819 O801 1.263 . S
C819 O802 1.252 . S
C819 C813 1.500 . S
C820 H782 0.930 . S
C820 C796 1.417 . S
C820 C821 1.329 . S
C821 C791 1.437 . S
C821 H792 0.929 1_565 S
C821 C820 1.329 . S
H822 C795 0.931 . S
C823 O805 1.265 . S
C823 O806 1.242 . S
C824 O809 1.261 . S
C824 O810 1.252 . S
C825 C828 1.394 . S
C825 C830 1.370 . S
C825 C831 1.500 . S
C826 C829 1.383 . S
C826 C830 1.395 . S
C827 C828 1.396 . S
C827 C829 1.365 . S
C827 H836 0.929 . S
C828 C825 1.394 . S
C828 C827 1.396 . S
C828 H837 0.930 . S
C829 C826 1.383 . S
C829 C827 1.365 . S
C829 H838 0.931 . S
C830 C825 1.370 . S
C830 C826 1.395 . S
C830 H839 0.930 . S
C831 Gd767 2.805 . S
C831 O807 1.263 . S
C831 O808 1.252 . S
C831 C825 1.500 . S
H832 C815 0.929 . S
H833 C816 0.930 . S
H834 C817 0.931 . S
H835 C818 0.930 . S
H836 C827 0.929 . S
H837 C828 0.930 . S
H838 C829 0.931 . S
H839 C830 0.930 . S
C840 C842 1.422 . S
C840 C844 1.415 . S
C840 N846 1.369 . S
C841 C842 1.421 . S
C841 C843 1.417 . S
C841 C853 1.422 . S
C842 C840 1.422 . S
C842 C841 1.421 . S
C842 N852 1.359 . S
C843 C841 1.417 . S
C843 C845 1.329 . S
C843 H862 0.930 . S
C844 C840 1.415 . S
C844 C845 1.437 . S
C844 C848 1.413 . S
C845 C843 1.329 . S
C845 C844 1.437 . S
C845 H867 0.929 . S
N846 C840 1.369 . S
N846 C847 1.338 . S
N846 Gd851 2.622 . S
C847 N846 1.338 . S
C847 C849 1.378 . S
C847 H859 0.929 . S
C848 C844 1.413 . S
C848 C849 1.348 . S
C848 H864 0.931 . S
C849 C847 1.378 . S
C849 C848 1.348 . S
C849 H865 0.930 . S
Gd850 N870 2.622 . S
Gd850 N877 2.570 . S
Gd850 O884 2.353 . S
Gd850 O885 2.468 . S
Gd850 O886 2.427 . S
Gd850 O888 2.388 . S
Gd850 O889 2.386 . S
Gd850 O893 2.307 . S
Gd850 C903 2.805 . S
Gd851 N846 2.622 . S
Gd851 N852 2.570 . S
Gd851 O883 2.386 . S
Gd851 O887 2.307 . S
Gd851 O890 2.353 . S
Gd851 O891 2.468 . S
Gd851 O892 2.427 . S
Gd851 O894 2.388 . S
Gd851 C915 2.805 . S
N852 C842 1.359 . S
N852 Gd851 2.570 . S
N852 C854 1.343 . S
C853 C841 1.422 . S
C853 C855 1.321 . S
C853 H861 0.931 . S
C854 N852 1.343 . S
C854 C855 1.390 . S
C854 H856 0.931 . S
C855 C853 1.321 . S
C855 C854 1.390 . S
C855 H857 0.930 . S
H856 C854 0.931 . S
H857 C855 0.930 . S
H858 C881 0.931 . S
H859 C847 0.929 . S
H860 C882 0.930 . S
H861 C853 0.931 . S
H862 C843 0.930 . S
H863 C872 0.929 . S
H864 C848 0.931 . S
H865 C849 0.930 . S
H866 C904 0.930 . S
H867 C845 0.929 . S
H868 C873 0.931 1_655 S
H869 C874 0.930 . S
N870 Gd850 2.622 . S
N870 C871 1.369 . S
N870 C872 1.338 . S
C871 N870 1.369 . S
C871 C875 1.415 . S
C871 C878 1.422 . S
C872 H863 0.929 . S
C872 N870 1.338 . S
C872 C874 1.378 . S
C873 H868 0.931 1_455 S
C873 C874 1.348 . S
C873 C875 1.413 . S
C874 H869 0.930 . S
C874 C872 1.378 . S
C874 C873 1.348 . S
C875 C871 1.415 . S
C875 C873 1.413 . S
C875 C905 1.437 . S
H876 C905 0.929 1_655 S
N877 Gd850 2.570 . S
N877 C878 1.359 . S
N877 C881 1.343 . S
C878 C871 1.422 . S
C878 N877 1.359 . S
C878 C880 1.421 . S
C879 C880 1.422 . S
C879 C882 1.321 . S
C879 H906 0.931 . S
C880 C878 1.421 . S
C880 C879 1.422 . S
C880 C904 1.417 . S
C881 H858 0.931 . S
C881 N877 1.343 . S
C881 C882 1.390 . S
C882 H860 0.930 . S
C882 C879 1.321 . S
C882 C881 1.390 . S
O883 Gd851 2.386 . S
O883 C895 1.265 . S
O884 Gd850 2.353 . S
O884 C895 1.242 . S
O885 Gd850 2.468 . S
O885 C903 1.263 . S
O886 Gd850 2.427 . S
O886 C903 1.252 . S
O887 Gd851 2.307 . S
O887 C896 1.261 . S
O888 Gd850 2.388 . S
O888 C896 1.252 . S
O889 Gd850 2.386 . S
O889 C907 1.265 . S
O890 Gd851 2.353 . S
O890 C907 1.242 . S
O891 Gd851 2.468 . S
O891 C915 1.263 . S
O892 Gd851 2.427 . S
O892 C915 1.252 . S
O893 Gd850 2.307 . S
O893 C908 1.261 . S
O894 Gd851 2.388 . S
O894 C908 1.252 . S
C895 O883 1.265 . S
C895 O884 1.242 . S
C896 O887 1.261 . S
C896 O888 1.252 . S
C897 C900 1.394 . S
C897 C902 1.370 . S
C897 C903 1.500 . S
C898 C901 1.383 . S
C898 C902 1.395 . S
C899 C900 1.396 . S
C899 C901 1.365 . S
C899 H916 0.929 . S
C900 C897 1.394 . S
C900 C899 1.396 . S
C900 H917 0.930 . S
C901 C898 1.383 . S
C901 C899 1.365 . S
C901 H918 0.931 . S
C902 C897 1.370 . S
C902 C898 1.395 . S
C902 H919 0.930 . S
C903 Gd850 2.805 . S
C903 O885 1.263 . S
C903 O886 1.252 . S
C903 C897 1.500 . S
C904 H866 0.930 . S
C904 C880 1.417 . S
C904 C905 1.329 . S
C905 C875 1.437 . S
C905 H876 0.929 1_455 S
C905 C904 1.329 . S
H906 C879 0.931 . S
C907 O889 1.265 . S
C907 O890 1.242 . S
C908 O893 1.261 . S
C908 O894 1.252 . S
C909 C912 1.394 . S
C909 C914 1.370 . S
C909 C915 1.500 . S
C910 C913 1.383 . S
C910 C914 1.395 . S
C911 C912 1.396 . S
C911 C913 1.365 . S
C911 H920 0.929 . S
C912 C909 1.394 . S
C912 C911 1.396 . S
C912 H921 0.930 . S
C913 C910 1.383 . S
C913 C911 1.365 . S
C913 H922 0.931 . S
C914 C909 1.370 . S
C914 C910 1.395 . S
C914 H923 0.930 . S
C915 Gd851 2.805 . S
C915 O891 1.263 . S
C915 O892 1.252 . S
C915 C909 1.500 . S
H916 C899 0.929 . S
H917 C900 0.930 . S
H918 C901 0.931 . S
H919 C902 0.930 . S
H920 C911 0.929 . S
H921 C912 0.930 . S
H922 C913 0.931 . S
H923 C914 0.930 . S
C924 C926 1.422 . S
C924 C928 1.415 . S
C924 N930 1.369 . S
C925 C926 1.421 . S
C925 C927 1.417 . S
C925 C937 1.422 . S
C926 C924 1.422 . S
C926 C925 1.421 . S
C926 N936 1.359 . S
C927 C925 1.417 . S
C927 C929 1.329 . S
C927 H946 0.930 . S
C928 C924 1.415 . S
C928 C929 1.437 . S
C928 C932 1.413 . S
C929 C927 1.329 . S
C929 C928 1.437 . S
C929 H951 0.929 . S
N930 C924 1.369 . S
N930 C931 1.338 . S
N930 Gd935 2.622 . S
C931 N930 1.338 . S
C931 C933 1.378 . S
C931 H943 0.929 . S
C932 C928 1.413 . S
C932 C933 1.348 . S
C932 H948 0.931 . S
C933 C931 1.378 . S
C933 C932 1.348 . S
C933 H949 0.930 . S
Gd934 N954 2.622 . S
Gd934 N961 2.570 . S
Gd934 O968 2.353 . S
Gd934 O969 2.468 . S
Gd934 O970 2.427 . S
Gd934 O972 2.388 . S
Gd934 O973 2.386 . S
Gd934 O977 2.307 . S
Gd934 C987 2.805 . S
Gd935 N930 2.622 . S
Gd935 N936 2.570 . S
Gd935 O967 2.386 . S
Gd935 O971 2.307 . S
Gd935 O974 2.353 . S
Gd935 O975 2.468 . S
Gd935 O976 2.427 . S
Gd935 O978 2.388 . S
Gd935 C999 2.805 . S
N936 C926 1.359 . S
N936 Gd935 2.570 . S
N936 C938 1.343 . S
C937 C925 1.422 . S
C937 C939 1.321 . S
C937 H945 0.931 . S
C938 N936 1.343 . S
C938 C939 1.390 . S
C938 H940 0.931 . S
C939 C937 1.321 . S
C939 C938 1.390 . S
C939 H941 0.930 . S
H940 C938 0.931 . S
H941 C939 0.930 . S
H942 C965 0.931 . S
H943 C931 0.929 . S
H944 C966 0.930 . S
H945 C937 0.931 . S
H946 C927 0.930 . S
H947 C956 0.929 . S
H948 C932 0.931 . S
H949 C933 0.930 . S
H950 C988 0.930 . S
H951 C929 0.929 . S
H952 C957 0.931 . S
H953 C958 0.930 . S
N954 Gd934 2.622 . S
N954 C955 1.369 . S
N954 C956 1.338 . S
C955 N954 1.369 . S
C955 C959 1.415 . S
C955 C962 1.422 . S
C956 H947 0.929 . S
C956 N954 1.338 . S
C956 C958 1.378 . S
C957 H952 0.931 . S
C957 C958 1.348 . S
C957 C959 1.413 . S
C958 H953 0.930 . S
C958 C956 1.378 . S
C958 C957 1.348 . S
C959 C955 1.415 . S
C959 C957 1.413 . S
C959 C989 1.437 . S
H960 C989 0.929 . S
N961 Gd934 2.570 . S
N961 C962 1.359 . S
N961 C965 1.343 . S
C962 C955 1.422 . S
C962 N961 1.359 . S
C962 C964 1.421 . S
C963 C964 1.422 . S
C963 C966 1.321 . S
C963 H990 0.931 . S
C964 C962 1.421 . S
C964 C963 1.422 . S
C964 C988 1.417 . S
C965 H942 0.931 . S
C965 N961 1.343 . S
C965 C966 1.390 . S
C966 H944 0.930 . S
C966 C963 1.321 . S
C966 C965 1.390 . S
O967 Gd935 2.386 . S
O967 C979 1.265 . S
O968 Gd934 2.353 . S
O968 C979 1.242 . S
O969 Gd934 2.468 . S
O969 C987 1.263 . S
O970 Gd934 2.427 . S
O970 C987 1.252 . S
O971 Gd935 2.307 . S
O971 C980 1.261 . S
O972 Gd934 2.388 . S
O972 C980 1.252 . S
O973 Gd934 2.386 . S
O973 C991 1.265 . S
O974 Gd935 2.353 . S
O974 C991 1.242 . S
O975 Gd935 2.468 . S
O975 C999 1.263 . S
O976 Gd935 2.427 . S
O976 C999 1.252 . S
O977 Gd934 2.307 . S
O977 C992 1.261 . S
O978 Gd935 2.388 . S
O978 C992 1.252 . S
C979 O967 1.265 . S
C979 O968 1.242 . S
C980 O971 1.261 . S
C980 O972 1.252 . S
C981 C984 1.394 . S
C981 C986 1.370 . S
C981 C987 1.500 . S
C982 C985 1.383 . S
C982 C986 1.395 . S
C983 C984 1.396 . S
C983 C985 1.365 . S
C983 H1000 0.929 . S
C984 C981 1.394 . S
C984 C983 1.396 . S
C984 H1001 0.930 . S
C985 C982 1.383 . S
C985 C983 1.365 . S
C985 H1002 0.931 . S
C986 C981 1.370 . S
C986 C982 1.395 . S
C986 H1003 0.930 . S
C987 Gd934 2.805 . S
C987 O969 1.263 . S
C987 O970 1.252 . S
C987 C981 1.500 . S
C988 H950 0.930 . S
C988 C964 1.417 . S
C988 C989 1.329 . S
C989 C959 1.437 . S
C989 H960 0.929 . S
C989 C988 1.329 . S
H990 C963 0.931 . S
C991 O973 1.265 . S
C991 O974 1.242 . S
C992 O977 1.261 . S
C992 O978 1.252 . S
C993 C996 1.394 . S
C993 C998 1.370 . S
C993 C999 1.500 . S
C994 C997 1.383 . S
C994 C998 1.395 . S
C995 C996 1.396 . S
C995 C997 1.365 . S
C995 H1004 0.929 . S
C996 C993 1.394 . S
C996 C995 1.396 . S
C996 H1005 0.930 . S
C997 C994 1.383 . S
C997 C995 1.365 . S
C997 H1006 0.931 . S
C998 C993 1.370 . S
C998 C994 1.395 . S
C998 H1007 0.930 . S
C999 Gd935 2.805 . S
C999 O975 1.263 . S
C999 O976 1.252 . S
C999 C993 1.500 . S
H1000 C983 0.929 . S
H1001 C984 0.930 . S
H1002 C985 0.931 . S
H1003 C986 0.930 . S
H1004 C995 0.929 . S
H1005 C996 0.930 . S
H1006 C997 0.931 . S
H1007 C998 0.930 . S
C1008 C1009 1.387 1_556 S
C1008 H1012 0.950 . S
C1008 C1017 1.390 . S
C1009 C1008 1.387 1_554 S
C1009 C1011 1.387 1_455 S
H1010 C1017 0.950 . S
C1011 C1009 1.387 1_655 S
C1011 C1013 1.390 . S
C1011 H1015 0.950 . S
H1012 C1008 0.950 . S
C1013 C1011 1.390 . S
C1013 C1014 1.387 1_554 S
C1013 H1016 0.950 . S
C1014 C1013 1.387 1_556 S
C1014 C1017 1.387 1_655 S
H1015 C1011 0.950 . S
H1016 C1013 0.950 . S
C1017 C1008 1.390 . S
C1017 H1010 0.950 . S
C1017 C1014 1.387 1_455 S
C1018 C1019 1.387 1_554 S
C1018 H1022 0.950 . S
C1018 C1027 1.390 . S
C1019 C1018 1.387 1_556 S
C1019 C1021 1.387 . S
H1020 C1027 0.950 . S
C1021 C1019 1.387 . S
C1021 C1023 1.390 . S
C1021 H1025 0.950 . S
H1022 C1018 0.950 . S
C1023 C1021 1.390 . S
C1023 C1024 1.387 1_556 S
C1023 H1026 0.950 . S
C1024 C1023 1.387 1_554 S
C1024 C1027 1.387 . S
H1025 C1021 0.950 . S
H1026 C1023 0.950 . S
C1027 C1018 1.390 . S
C1027 H1020 0.950 . S
C1027 C1024 1.387 . S
C1028 C1029 1.387 . S
C1028 H1032 0.950 . S
C1028 C1037 1.390 1_556 S
C1029 C1028 1.387 . S
C1029 C1031 1.387 1_545 S
H1030 C1037 0.950 . S
C1031 C1029 1.387 1_565 S
C1031 C1033 1.390 1_556 S
C1031 H1035 0.950 . S
H1032 C1028 0.950 . S
C1033 C1031 1.390 1_554 S
C1033 C1034 1.387 . S
C1033 H1036 0.950 . S
C1034 C1033 1.387 . S
C1034 C1037 1.387 1_565 S
H1035 C1031 0.950 . S
H1036 C1033 0.950 . S
C1037 C1028 1.390 1_554 S
C1037 H1030 0.950 . S
C1037 C1034 1.387 1_545 S
C1038 C1039 1.387 . S
C1038 H1042 0.950 . S
C1038 C1047 1.390 . S
C1039 C1038 1.387 . S
C1039 C1041 1.387 1_545 S
H1040 C1047 0.950 . S
C1041 C1039 1.387 1_565 S
C1041 C1043 1.390 . S
C1041 H1045 0.950 . S
H1042 C1038 0.950 . S
C1043 C1041 1.390 . S
C1043 C1044 1.387 . S
C1043 H1046 0.950 . S
C1044 C1043 1.387 . S
C1044 C1047 1.387 1_565 S
H1045 C1041 0.950 . S
H1046 C1043 0.950 . S
C1047 C1038 1.390 . S
C1047 H1040 0.950 . S
C1047 C1044 1.387 1_545 S
C1048 C1049 1.387 . S
C1048 H1052 0.950 . S
C1048 C1057 1.390 . S
C1049 C1048 1.387 . S
C1049 C1051 1.387 1_455 S
H1050 C1057 0.950 . S
C1051 C1049 1.387 1_655 S
C1051 C1053 1.390 . S
C1051 H1055 0.950 . S
H1052 C1048 0.950 . S
C1053 C1051 1.390 . S
C1053 C1054 1.387 . S
C1053 H1056 0.950 . S
C1054 C1053 1.387 . S
C1054 C1057 1.387 1_655 S
H1055 C1051 0.950 . S
H1056 C1053 0.950 . S
C1057 C1048 1.390 . S
C1057 H1050 0.950 . S
C1057 C1054 1.387 1_455 S
C1058 C1059 1.387 . S
C1058 H1062 0.950 . S
C1058 C1067 1.390 . S
C1059 C1058 1.387 . S
C1059 C1061 1.387 . S
H1060 C1067 0.950 . S
C1061 C1059 1.387 . S
C1061 C1063 1.390 . S
C1061 H1065 0.950 . S
H1062 C1058 0.950 . S
C1063 C1061 1.390 . S
C1063 C1064 1.387 . S
C1063 H1066 0.950 . S
C1064 C1063 1.387 . S
C1064 C1067 1.387 . S
H1065 C1061 0.950 . S
H1066 C1063 0.950 . S
C1067 C1058 1.390 . S
C1067 H1060 0.950 . S
C1067 C1064 1.387 . S
C1068 C1069 1.387 . S
C1068 H1072 0.950 . S
C1068 C1077 1.390 1_655 S
C1069 C1068 1.387 . S
C1069 C1071 1.387 . S
H1070 C1077 0.950 . S
C1071 C1069 1.387 . S
C1071 C1073 1.390 1_655 S
C1071 H1075 0.950 . S
H1072 C1068 0.950 . S
C1073 C1071 1.390 1_455 S
C1073 C1074 1.387 . S
C1073 H1076 0.950 . S
C1074 C1073 1.387 . S
C1074 C1077 1.387 . S
H1075 C1071 0.950 . S
H1076 C1073 0.950 . S
C1077 C1068 1.390 1_455 S
C1077 H1070 0.950 . S
C1077 C1074 1.387 . S
C1078 C1079 1.387 . S
C1078 H1082 0.950 . S
C1078 C1087 1.390 . S
C1079 C1078 1.387 . S
C1079 C1081 1.387 . S
H1080 C1087 0.950 . S
C1081 C1079 1.387 . S
C1081 C1083 1.390 . S
C1081 H1085 0.950 . S
H1082 C1078 0.950 . S
C1083 C1081 1.390 . S
C1083 C1084 1.387 . S
C1083 H1086 0.950 . S
C1084 C1083 1.387 . S
C1084 C1087 1.387 . S
H1085 C1081 0.950 . S
H1086 C1083 0.950 . S
C1087 C1078 1.390 . S
C1087 H1080 0.950 . S
C1087 C1084 1.387 . S
C1088 C1089 1.387 . S
C1088 H1092 0.950 . S
C1088 C1097 1.390 1_545 S
C1089 C1088 1.387 . S
C1089 C1091 1.387 . S
H1090 C1097 0.950 . S
C1091 C1089 1.387 . S
C1091 C1093 1.390 1_545 S
C1091 H1095 0.950 . S
H1092 C1088 0.950 . S
C1093 C1091 1.390 1_565 S
C1093 C1094 1.387 . S
C1093 H1096 0.950 . S
C1094 C1093 1.387 . S
C1094 C1097 1.387 . S
H1095 C1091 0.950 . S
H1096 C1093 0.950 . S
C1097 C1088 1.390 1_565 S
C1097 H1090 0.950 . S
C1097 C1094 1.387 . S
C1098 C1099 1.387 . S
C1098 H1102 0.950 . S
C1098 C1107 1.390 1_455 S
C1099 C1098 1.387 . S
C1099 C1101 1.387 . S
H1100 C1107 0.950 . S
C1101 C1099 1.387 . S
C1101 C1103 1.390 1_455 S
C1101 H1105 0.950 . S
H1102 C1098 0.950 . S
C1103 C1101 1.390 1_655 S
C1103 C1104 1.387 . S
C1103 H1106 0.950 . S
C1104 C1103 1.387 . S
C1104 C1107 1.387 . S
H1105 C1101 0.950 . S
H1106 C1103 0.950 . S
C1107 C1098 1.390 1_655 S
C1107 H1100 0.950 . S
C1107 C1104 1.387 . S
C1108 C1109 1.387 . S
C1108 H1112 0.950 . S
C1108 C1117 1.390 . S
C1109 C1108 1.387 . S
C1109 C1111 1.387 . S
H1110 C1117 0.950 . S
C1111 C1109 1.387 . S
C1111 C1113 1.390 . S
C1111 H1115 0.950 . S
H1112 C1108 0.950 . S
C1113 C1111 1.390 . S
C1113 C1114 1.387 . S
C1113 H1116 0.950 . S
C1114 C1113 1.387 . S
C1114 C1117 1.387 . S
H1115 C1111 0.950 . S
H1116 C1113 0.950 . S
C1117 C1108 1.390 . S
C1117 H1110 0.950 . S
C1117 C1114 1.387 . S
C1118 C1119 1.387 . S
C1118 H1122 0.950 . S
C1118 C1127 1.390 1_545 S
C1119 C1118 1.387 . S
C1119 C1121 1.387 . S
H1120 C1127 0.950 . S
C1121 C1119 1.387 . S
C1121 C1123 1.390 1_545 S
C1121 H1125 0.950 . S
H1122 C1118 0.950 . S
C1123 C1121 1.390 1_565 S
C1123 C1124 1.387 . S
C1123 H1126 0.950 . S
C1124 C1123 1.387 . S
C1124 C1127 1.387 . S
H1125 C1121 0.950 . S
H1126 C1123 0.950 . S
C1127 C1118 1.390 1_565 S
C1127 H1120 0.950 . S
C1127 C1124 1.387 . S
C1128 C1129 1.387 . S
C1128 H1132 0.950 . S
C1128 C1137 1.390 . S
C1129 C1128 1.387 . S
C1129 C1131 1.387 . S
H1130 C1137 0.950 . S
C1131 C1129 1.387 . S
C1131 C1133 1.390 . S
C1131 H1135 0.950 . S
H1132 C1128 0.950 . S
C1133 C1131 1.390 . S
C1133 C1134 1.387 . S
C1133 H1136 0.950 . S
C1134 C1133 1.387 . S
C1134 C1137 1.387 . S
H1135 C1131 0.950 . S
H1136 C1133 0.950 . S
C1137 C1128 1.390 . S
C1137 H1130 0.950 . S
C1137 C1134 1.387 . S
C1138 C1139 1.387 . S
C1138 H1142 0.950 . S
C1138 C1147 1.390 . S
C1139 C1138 1.387 . S
C1139 C1141 1.387 . S
H1140 C1147 0.950 . S
C1141 C1139 1.387 . S
C1141 C1143 1.390 . S
C1141 H1145 0.950 . S
H1142 C1138 0.950 . S
C1143 C1141 1.390 . S
C1143 C1144 1.387 . S
C1143 H1146 0.950 . S
C1144 C1143 1.387 . S
C1144 C1147 1.387 . S
H1145 C1141 0.950 . S
H1146 C1143 0.950 . S
C1147 C1138 1.390 . S
C1147 H1140 0.950 . S
C1147 C1144 1.387 . S
C1148 C1149 1.387 . S
C1148 H1152 0.950 . S
C1148 C1157 1.390 . S
C1149 C1148 1.387 . S
C1149 C1151 1.387 . S
H1150 C1157 0.950 . S
C1151 C1149 1.387 . S
C1151 C1153 1.390 . S
C1151 H1155 0.950 . S
H1152 C1148 0.950 . S
C1153 C1151 1.390 . S
C1153 C1154 1.387 . S
C1153 H1156 0.950 . S
C1154 C1153 1.387 . S
C1154 C1157 1.387 . S
H1155 C1151 0.950 . S
H1156 C1153 0.950 . S
C1157 C1148 1.390 . S
C1157 H1150 0.950 . S
C1157 C1154 1.387 . S
C1158 C1159 1.387 . S
C1158 H1162 0.950 . S
C1158 C1167 1.390 . S
C1159 C1158 1.387 . S
C1159 C1161 1.387 . S
H1160 C1167 0.950 . S
C1161 C1159 1.387 . S
C1161 C1163 1.390 . S
C1161 H1165 0.950 . S
H1162 C1158 0.950 . S
C1163 C1161 1.390 . S
C1163 C1164 1.387 . S
C1163 H1166 0.950 . S
C1164 C1163 1.387 . S
C1164 C1167 1.387 . S
H1165 C1161 0.950 . S
H1166 C1163 0.950 . S
C1167 C1158 1.390 . S
C1167 H1160 0.950 . S
C1167 C1164 1.387 . S
C1168 C1169 1.387 . S
C1168 H1172 0.950 . S
C1168 C1177 1.390 . S
C1169 C1168 1.387 . S
C1169 C1171 1.387 . S
H1170 C1177 0.950 . S
C1171 C1169 1.387 . S
C1171 C1173 1.390 . S
C1171 H1175 0.950 . S
H1172 C1168 0.950 . S
C1173 C1171 1.390 . S
C1173 C1174 1.387 . S
C1173 H1176 0.950 . S
C1174 C1173 1.387 . S
C1174 C1177 1.387 . S
H1175 C1171 0.950 . S
H1176 C1173 0.950 . S
C1177 C1168 1.390 . S
C1177 H1170 0.950 . S
C1177 C1174 1.387 . S
C1178 C1179 1.387 . S
C1178 H1182 0.950 . S
C1178 C1187 1.390 . S
C1179 C1178 1.387 . S
C1179 C1181 1.387 . S
H1180 C1187 0.950 . S
C1181 C1179 1.387 . S
C1181 C1183 1.390 . S
C1181 H1185 0.950 . S
H1182 C1178 0.950 . S
C1183 C1181 1.390 . S
C1183 C1184 1.387 . S
C1183 H1186 0.950 . S
C1184 C1183 1.387 . S
C1184 C1187 1.387 . S
H1185 C1181 0.950 . S
H1186 C1183 0.950 . S
C1187 C1178 1.390 . S
C1187 H1180 0.950 . S
C1187 C1184 1.387 . S
C1188 C1189 1.387 . S
C1188 H1192 0.950 . S
C1188 C1197 1.390 . S
C1189 C1188 1.387 . S
C1189 C1191 1.387 . S
H1190 C1197 0.950 . S
C1191 C1189 1.387 . S
C1191 C1193 1.390 . S
C1191 H1195 0.950 . S
H1192 C1188 0.950 . S
C1193 C1191 1.390 . S
C1193 C1194 1.387 . S
C1193 H1196 0.950 . S
C1194 C1193 1.387 . S
C1194 C1197 1.387 . S
H1195 C1191 0.950 . S
H1196 C1193 0.950 . S
C1197 C1188 1.390 . S
C1197 H1190 0.950 . S
C1197 C1194 1.387 . S
C1198 C1199 1.387 . S
C1198 H1202 0.950 . S
C1198 C1207 1.390 . S
C1199 C1198 1.387 . S
C1199 C1201 1.387 . S
H1200 C1207 0.950 . S
C1201 C1199 1.387 . S
C1201 C1203 1.390 . S
C1201 H1205 0.950 . S
H1202 C1198 0.950 . S
C1203 C1201 1.390 . S
C1203 C1204 1.387 . S
C1203 H1206 0.950 . S
C1204 C1203 1.387 . S
C1204 C1207 1.387 . S
H1205 C1201 0.950 . S
H1206 C1203 0.950 . S
C1207 C1198 1.390 . S
C1207 H1200 0.950 . S
C1207 C1204 1.387 . S
C1208 C1209 1.387 . S
C1208 H1212 0.950 . S
C1208 C1217 1.390 . S
C1209 C1208 1.387 . S
C1209 C1211 1.387 . S
H1210 C1217 0.950 . S
C1211 C1209 1.387 . S
C1211 C1213 1.390 . S
C1211 H1215 0.950 . S
H1212 C1208 0.950 . S
C1213 C1211 1.390 . S
C1213 C1214 1.387 . S
C1213 H1216 0.950 . S
C1214 C1213 1.387 . S
C1214 C1217 1.387 . S
H1215 C1211 0.950 . S
H1216 C1213 0.950 . S
C1217 C1208 1.390 . S
C1217 H1210 0.950 . S
C1217 C1214 1.387 . S
C1218 C1219 1.387 . S
C1218 H1222 0.950 . S
C1218 C1227 1.390 . S
C1219 C1218 1.387 . S
C1219 C1221 1.387 . S
H1220 C1227 0.950 . S
C1221 C1219 1.387 . S
C1221 C1223 1.390 . S
C1221 H1225 0.950 . S
H1222 C1218 0.950 . S
C1223 C1221 1.390 . S
C1223 C1224 1.387 . S
C1223 H1226 0.950 . S
C1224 C1223 1.387 . S
C1224 C1227 1.387 . S
H1225 C1221 0.950 . S
H1226 C1223 0.950 . S
C1227 C1218 1.390 . S
C1227 H1220 0.950 . S
C1227 C1224 1.387 . S
C1228 C1229 1.387 . S
C1228 H1232 0.950 . S
C1228 C1237 1.390 . S
C1229 C1228 1.387 . S
C1229 C1231 1.387 . S
H1230 C1237 0.950 . S
C1231 C1229 1.387 . S
C1231 C1233 1.390 . S
C1231 H1235 0.950 . S
H1232 C1228 0.950 . S
C1233 C1231 1.390 . S
C1233 C1234 1.387 . S
C1233 H1236 0.950 . S
C1234 C1233 1.387 . S
C1234 C1237 1.387 . S
H1235 C1231 0.950 . S
H1236 C1233 0.950 . S
C1237 C1228 1.390 . S
C1237 H1230 0.950 . S
C1237 C1234 1.387 . S
C1238 C1239 1.387 . S
C1238 H1242 0.950 . S
C1238 C1247 1.390 . S
C1239 C1238 1.387 . S
C1239 C1241 1.387 . S
H1240 C1247 0.950 . S
C1241 C1239 1.387 . S
C1241 C1243 1.390 . S
C1241 H1245 0.950 . S
H1242 C1238 0.950 . S
C1243 C1241 1.390 . S
C1243 C1244 1.387 . S
C1243 H1246 0.950 . S
C1244 C1243 1.387 . S
C1244 C1247 1.387 . S
H1245 C1241 0.950 . S
H1246 C1243 0.950 . S
C1247 C1238 1.390 . S
C1247 H1240 0.950 . S
C1247 C1244 1.387 . S
C1248 C1249 1.387 . S
C1248 H1252 0.950 . S
C1248 C1257 1.390 . S
C1249 C1248 1.387 . S
C1249 C1251 1.387 . S
H1250 C1257 0.950 . S
C1251 C1249 1.387 . S
C1251 C1253 1.390 . S
C1251 H1255 0.950 . S
H1252 C1248 0.950 . S
C1253 C1251 1.390 . S
C1253 C1254 1.387 . S
C1253 H1256 0.950 . S
C1254 C1253 1.387 . S
C1254 C1257 1.387 . S
H1255 C1251 0.950 . S
H1256 C1253 0.950 . S
C1257 C1248 1.390 . S
C1257 H1250 0.950 . S
C1257 C1254 1.387 . S
C1258 C1259 1.390 1_565 S
C1258 H1262 0.950 1_554 S
C1258 C1267 1.387 . S
C1259 C1258 1.390 1_545 S
C1259 C1261 1.387 . S
H1260 C1267 0.950 . S
C1261 C1259 1.387 . S
C1261 C1263 1.390 . S
C1261 H1265 0.950 . S
H1262 C1258 0.950 1_556 S
C1263 C1261 1.390 . S
C1263 C1264 1.387 1_545 S
C1263 H1266 0.950 . S
C1264 C1263 1.387 1_565 S
C1264 C1267 1.387 . S
H1265 C1261 0.950 . S
H1266 C1263 0.950 . S
C1267 C1258 1.387 . S
C1267 H1260 0.950 . S
C1267 C1264 1.387 . S
C1268 C1269 1.387 1_556 S
C1268 H1272 0.950 . S
C1268 C1277 1.390 1_656 S
C1269 C1268 1.387 1_554 S
C1269 C1271 1.387 . S
H1270 C1277 0.950 1_556 S
C1271 C1269 1.387 . S
C1271 C1273 1.390 . S
C1271 H1275 0.950 . S
H1272 C1268 0.950 . S
C1273 C1271 1.390 . S
C1273 C1274 1.387 1_655 S
C1273 H1276 0.949 . S
C1274 C1273 1.387 1_455 S
C1274 C1277 1.387 . S
H1275 C1271 0.950 . S
H1276 C1273 0.949 . S
C1277 C1268 1.390 1_454 S
C1277 H1270 0.950 1_554 S
C1277 C1274 1.387 . S
C1278 C1279 1.387 . S
C1278 H1282 0.950 . S
C1278 C1287 1.390 . S
C1279 C1278 1.387 . S
C1279 C1281 1.387 . S
H1280 C1287 0.950 . S
C1281 C1279 1.387 . S
C1281 C1283 1.390 . S
C1281 H1285 0.950 . S
H1282 C1278 0.950 . S
C1283 C1281 1.390 . S
C1283 C1284 1.387 . S
C1283 H1286 0.950 . S
C1284 C1283 1.387 . S
C1284 C1287 1.387 . S
H1285 C1281 0.950 . S
H1286 C1283 0.950 . S
C1287 C1278 1.390 . S
C1287 H1280 0.950 . S
C1287 C1284 1.387 . S
C1288 C1289 1.387 . S
C1288 H1292 0.950 . S
C1288 C1297 1.390 . S
C1289 C1288 1.387 . S
C1289 C1291 1.387 . S
H1290 C1297 0.950 . S
C1291 C1289 1.387 . S
C1291 C1293 1.390 1_565 S
C1291 H1295 0.952 . S
H1292 C1288 0.950 . S
C1293 C1291 1.390 1_545 S
C1293 C1294 1.387 . S
C1293 H1296 0.950 . S
C1294 C1293 1.387 . S
C1294 C1297 1.387 1_545 S
H1295 C1291 0.952 . S
H1296 C1293 0.950 . S
C1297 C1288 1.390 . S
C1297 H1290 0.950 . S
C1297 C1294 1.387 1_565 S
C1298 C1299 1.387 1_455 S
C1298 H1302 0.950 . S
C1298 C1307 1.390 . S
C1299 C1298 1.387 1_655 S
C1299 C1301 1.387 . S
H1300 C1307 0.950 . S
C1301 C1299 1.387 . S
C1301 C1303 1.390 1_655 S
C1301 H1305 0.950 . S
H1302 C1298 0.950 . S
C1303 C1301 1.390 1_455 S
C1303 C1304 1.387 . S
C1303 H1306 0.950 . S
C1304 C1303 1.387 . S
C1304 C1307 1.387 . S
H1305 C1301 0.950 . S
H1306 C1303 0.950 . S
C1307 C1298 1.390 . S
C1307 H1300 0.950 . S
C1307 C1304 1.387 . S
C1308 C1309 1.387 . S
C1308 H1312 0.950 1_556 S
C1308 C1317 1.390 . S
C1309 C1308 1.387 . S
C1309 C1311 1.387 . S
H1310 C1317 0.950 . S
C1311 C1309 1.387 . S
C1311 C1313 1.390 . S
C1311 H1315 0.950 . S
H1312 C1308 0.950 1_554 S
C1313 C1311 1.390 . S
C1313 C1314 1.387 . S
C1313 H1316 0.950 . S
C1314 C1313 1.387 . S
C1314 C1317 1.387 . S
H1315 C1311 0.950 . S
H1316 C1313 0.950 . S
C1317 C1308 1.390 . S
C1317 H1310 0.950 . S
C1317 C1314 1.387 . S
C1318 C1319 1.417 . S
C1318 H1322 0.958 . S
C1318 C1327 1.354 1_545 S
C1319 C1318 1.417 . S
C1319 C1321 1.387 . S
H1320 C1327 0.950 . S
C1321 C1319 1.387 . S
C1321 C1323 1.390 1_546 S
C1321 H1325 0.950 1_556 S
H1322 C1318 0.958 . S
C1323 C1321 1.390 1_564 S
C1323 C1324 1.387 1_554 S
C1323 H1326 0.950 . S
C1324 C1323 1.387 1_556 S
C1324 C1327 1.387 . S
H1325 C1321 0.950 1_554 S
H1326 C1323 0.950 . S
C1327 C1318 1.354 1_565 S
C1327 H1320 0.950 . S
C1327 C1324 1.387 . S
C1328 C1329 1.426 . S
C1328 H1332 0.906 1_455 S
C1328 C1337 1.375 1_455 S
C1329 C1328 1.426 . S
C1329 C1331 1.387 . S
H1330 C1337 0.950 . S
C1331 C1329 1.387 . S
C1331 C1333 1.390 . S
C1331 H1335 0.950 . S
H1332 C1328 0.906 1_655 S
C1333 C1331 1.390 . S
C1333 C1334 1.387 1_455 S
C1333 H1336 0.950 . S
C1334 C1333 1.387 1_655 S
C1334 C1337 1.387 . S
H1335 C1331 0.950 . S
H1336 C1333 0.950 . S
C1337 C1328 1.375 1_655 S
C1337 H1330 0.950 . S
C1337 C1334 1.387 . S
C1338 C1339 1.387 . S
C1338 H1342 0.950 . S
C1338 C1347 1.390 . S
C1339 C1338 1.387 . S
C1339 C1341 1.387 . S
H1340 C1347 0.950 . S
C1341 C1339 1.387 . S
C1341 C1343 1.390 . S
C1341 H1345 0.950 . S
H1342 C1338 0.950 . S
C1343 C1341 1.390 . S
C1343 C1344 1.387 . S
C1343 H1346 0.950 . S
C1344 C1343 1.387 . S
C1344 C1347 1.387 . S
H1345 C1341 0.950 . S
H1346 C1343 0.950 . S
C1347 C1338 1.390 . S
C1347 H1340 0.950 . S
C1347 C1344 1.387 . S
C1348 C1349 1.387 . S
C1348 H1352 0.950 . S
C1348 C1357 1.390 1_565 S
C1349 C1348 1.387 . S
C1349 C1351 1.387 1_565 S
H1350 C1357 0.950 . S
C1351 C1349 1.387 1_545 S
C1351 C1353 1.390 . S
C1351 H1355 0.950 . S
H1352 C1348 0.950 . S
C1353 C1351 1.390 . S
C1353 C1354 1.387 . S
C1353 H1356 0.950 . S
C1354 C1353 1.387 . S
C1354 C1357 1.387 . S
H1355 C1351 0.950 . S
H1356 C1353 0.950 . S
C1357 C1348 1.390 1_545 S
C1357 H1350 0.950 . S
C1357 C1354 1.387 . S
C1358 C1359 1.387 . S
C1358 H1362 0.950 . S
C1358 C1367 1.390 . S
C1359 C1358 1.387 . S
C1359 C1361 1.387 . S
H1360 C1367 0.950 . S
C1361 C1359 1.387 . S
C1361 C1363 1.390 1_655 S
C1361 H1365 0.950 . S
H1362 C1358 0.950 . S
C1363 C1361 1.390 1_455 S
C1363 C1364 1.387 . S
C1363 H1366 0.950 . S
C1364 C1363 1.387 . S
C1364 C1367 1.387 1_455 S
H1365 C1361 0.950 . S
H1366 C1363 0.950 . S
C1367 C1358 1.390 . S
C1367 H1360 0.950 . S
C1367 C1364 1.387 1_655 S
C1009 C58 1.532 . S
C1014 C574 1.532 . S
C1019 C658 1.536 . S
C1024 C142 1.536 . S
C1029 C742 1.532 . S
C1034 C226 1.532 . S
C1039 C310 1.535 . S
C1044 C826 1.535 . S
C1049 C910 1.535 . S
C1054 C394 1.535 . S
C1059 C994 1.531 . S
C1064 C478 1.531 . S
C1069 C404 1.976 . S
C1074 C68 1.974 . S
C1079 C152 1.974 . S
C1084 C488 1.976 . S
C1089 C320 1.976 . S
C1094 C236 1.976 . S
C1099 C896 1.974 . S
C1104 C560 1.976 . S
C1109 C980 1.975 . S
C1114 C644 1.976 . S
C1119 C728 1.974 . S
C1124 C812 1.974 . S
C1129 C979 1.616 . S
C1134 C56 1.624 . S
C1139 C140 1.627 . S
C1144 C811 1.618 . S
C1149 C224 1.627 . S
C1154 C895 1.617 . S
C1159 C308 1.624 . S
C1164 C643 1.615 . S
C1169 C392 1.625 . S
C1174 C727 1.617 . S
C1179 C559 1.617 . S
C1184 C476 1.625 . S
C1189 C572 1.624 . S
C1194 C487 1.616 . S
C1199 C319 1.618 . S
C1204 C656 1.626 . S
C1209 C740 1.627 . S
C1214 C403 1.617 . S
C1219 C151 1.616 . S
C1224 C824 1.626 . S
C1229 C908 1.625 . S
C1234 C235 1.618 . S
C1239 C67 1.618 . S
C1244 C992 1.627 . S
C1249 C70 1.882 . S
C1254 C655 1.799 1_554 S
C1259 C739 1.802 1_554 S
C1264 C154 1.883 . S
C1269 C571 1.801 1_554 S
C1274 C238 1.882 . S
C1279 C322 1.882 . S
C1284 C991 1.801 . S
C1289 C823 1.799 . S
C1294 C406 1.882 . S
C1299 C490 1.882 . S
C1304 C907 1.799 . S
C1309 C139 1.799 1_556 S
C1314 C562 1.882 . S
C1319 C646 1.882 . S
C1324 C223 1.801 1_556 S
C1329 C55 1.799 1_556 S
C1334 C730 1.882 . S
C1339 C814 1.882 . S
C1344 C475 1.801 . S
C1349 C898 1.882 . S
C1354 C307 1.799 . S
C1359 C391 1.801 . S
C1364 C982 1.883 . S
