# Generated by pormake.
# Topology oof, (8)-cn, num edge types: 1
# Building blocks:
#     Node 0, Type 0, BuildingBlock: AJUNOK_clean_sbu_0, # of connection points: 8
#     Node 1, Type 0, BuildingBlock: AJUNOK_clean_sbu_0, # of connection points: 8
#     Node 2, Type 0, BuildingBlock: AJUNOK_clean_sbu_0, # of connection points: 8
#     Node 3, Type 0, BuildingBlock: AJUNOK_clean_sbu_0, # of connection points: 8
#     Edge 4, Type (0, 0), BuildingBlock: MIFKUJ_clean_linker_0, # of connection points: 2
#     Edge 5, Type (0, 0), BuildingBlock: MIFKUJ_clean_linker_0, # of connection points: 2
#     Edge 6, Type (0, 0), BuildingBlock: MIFKUJ_clean_linker_0, # of connection points: 2
#     Edge 7, Type (0, 0), BuildingBlock: MIFKUJ_clean_linker_0, # of connection points: 2
#     Edge 8, Type (0, 0), BuildingBlock: MIFKUJ_clean_linker_0, # of connection points: 2
#     Edge 9, Type (0, 0), BuildingBlock: MIFKUJ_clean_linker_0, # of connection points: 2
#     Edge 10, Type (0, 0), BuildingBlock: MIFKUJ_clean_linker_0, # of connection points: 2
#     Edge 11, Type (0, 0), BuildingBlock: MIFKUJ_clean_linker_0, # of connection points: 2
#     Edge 12, Type (0, 0), BuildingBlock: MIFKUJ_clean_linker_0, # of connection points: 2
#     Edge 13, Type (0, 0), BuildingBlock: MIFKUJ_clean_linker_0, # of connection points: 2
#     Edge 14, Type (0, 0), BuildingBlock: MIFKUJ_clean_linker_0, # of connection points: 2
#     Edge 15, Type (0, 0), BuildingBlock: MIFKUJ_clean_linker_0, # of connection points: 2
#     Edge 16, Type (0, 0), BuildingBlock: MIFKUJ_clean_linker_0, # of connection points: 2
#     Edge 17, Type (0, 0), BuildingBlock: MIFKUJ_clean_linker_0, # of connection points: 2
#     Edge 18, Type (0, 0), BuildingBlock: MIFKUJ_clean_linker_0, # of connection points: 2
#     Edge 19, Type (0, 0), BuildingBlock: MIFKUJ_clean_linker_0, # of connection points: 2
# Relax obj value: 0.076
# Max RMSD: 0.168
# Mean RMSD: 0.167
data_MOF--net-oof--node1-AJUNOK_clean_sbu_0--edge1-MIFKUJ_clean_linker_0
_symmetry_space_group_name_H-M    P1
_symmetry_Int_Tables_number       1
_symmetry_cell_setting            triclinic
loop_
_symmetry_equiv_pos_as_xyz
'x, y, z'
_cell_length_a     17.62526
_cell_length_b     78.234296
_cell_length_c     25.711359
_cell_angle_alpha  103.11317
_cell_angle_beta   93.994007
_cell_angle_gamma 84.534695
loop_
_atom_site_label
_atom_site_type_symbol
_atom_site_fract_x
_atom_site_fract_y
_atom_site_fract_z
_atom_type_partial_charge
Cd0 Cd 0.87838 0.09776 0.2001 0.0
Cd1 Cd 0.91781 0.15265 0.31943 0.0
C2 C 0.94924 0.10736 0.10063 0.0
N3 N 0.89128 0.11336 0.134 0.0
C4 C 0.83478 0.13144 0.07579 0.0
C5 C 0.89145 0.1247 0.03896 0.0
C6 C 0.9505 0.11288 0.05274 0.0
C7 C 0.83514 0.12535 0.12284 0.0
H8 H -0.00831 0.09734 0.10935 0.0
H9 H 0.78828 0.12947 0.14874 0.0
C10 C 0.76741 0.13873 0.26172 0.0
C11 C 0.82697 0.15046 0.42182 0.0
C12 C 0.81532 0.14578 0.4698 0.0
C13 C 0.86033 0.13158 0.48421 0.0
C14 C 0.91271 0.12172 0.44791 0.0
C15 C 0.92238 0.12685 0.40032 0.0
N16 N 0.88099 0.14123 0.38896 0.0
H17 H 0.79598 0.16206 0.41221 0.0
H18 H 0.96558 0.11989 0.37368 0.0
C19 C 0.85385 0.18293 0.2606 0.0
N20 N 0.89579 0.16717 0.24868 0.0
C21 C 0.90889 0.17049 0.15945 0.0
C22 C 0.86747 0.18707 0.17132 0.0
C23 C 0.83897 0.1931 0.2225 0.0
C24 C 0.92262 0.1607 0.19906 0.0
H25 H 0.83191 0.18763 0.29999 0.0
H26 H 0.95517 0.14805 0.19031 0.0
C27 C 0.02571 0.11537 0.24452 0.0
C28 C 0.85019 0.06888 0.1147 0.0
N29 N 0.87202 0.08555 0.27504 0.0
C30 C 0.91809 0.0705 0.27338 0.0
C31 C 0.92057 0.06166 0.31484 0.0
C32 C 0.87601 0.06843 0.35915 0.0
C33 C 0.83036 0.08429 0.36082 0.0
C34 C 0.82878 0.09264 0.31778 0.0
C35 C 0.00295 0.17881 0.38629 0.0
O36 O 0.81873 0.12615 0.2498 0.0
O37 O 0.78371 0.15239 0.29647 0.0
O38 O 0.9694 0.12479 0.26661 0.0
O39 O 0.01366 0.10033 0.2159 0.0
O40 O 0.79758 0.08125 0.1269 0.0
O41 O 0.91012 0.06944 0.14507 0.0
O42 O 0.03562 0.16392 0.36475 0.0
O43 O 0.93167 0.18132 0.3768 0.0
H44 H 0.95331 0.06534 0.23969 0.0
H45 H 0.79321 0.10475 0.31857 0.0
H46 H 0.78868 0.14075 0.06736 0.0
H47 H -0.0055 0.10698 0.02532 0.0
H48 H 0.77506 0.1539 0.49683 0.0
H49 H 0.94797 0.11057 0.45714 0.0
H50 H 0.93189 0.16534 0.12048 0.0
H51 H 0.80529 0.2056 0.23307 0.0
H52 H 0.95757 0.04965 0.31242 0.0
H53 H 0.79531 0.08995 0.39443 0.0
Cd54 Cd 0.08008 0.85542 0.71599 0.0
Cd55 Cd 0.15748 0.90997 0.8213 0.0
C56 C 0.16069 0.85578 0.60852 0.0
N57 N 0.10727 0.86547 0.64107 0.0
C58 C 0.07673 0.8843 0.57984 0.0
C59 C 0.13065 0.87431 0.54491 0.0
C60 C 0.17371 0.86005 0.56025 0.0
C61 C 0.06584 0.8796 0.62802 0.0
H62 H 0.19151 0.84435 0.61924 0.0
H63 H 0.02299 0.88693 0.65437 0.0
C64 C 0.00461 0.89296 0.81023 0.0
C65 C 0.12422 0.91388 0.94398 0.0
C66 C 0.12395 0.91023 0.99461 0.0
C67 C 0.16921 0.89567 0.00624 0.0
C68 C 0.21435 0.88513 0.96619 0.0
C69 C 0.21242 0.88919 0.91577 0.0
N70 N 0.16775 0.90337 0.90579 0.0
H71 H 0.08908 0.92504 0.93485 0.0
H72 H 0.24579 0.88094 0.88445 0.0
C73 C 0.03076 0.93992 0.79448 0.0
N74 N 0.07627 0.92584 0.76953 0.0
C75 C 0.05355 0.93473 0.68633 0.0
C76 C 0.00786 0.94972 0.71124 0.0
C77 C -0.00511 0.95189 0.76582 0.0
C78 C 0.08737 0.92294 0.71637 0.0
H79 H 0.02499 0.94232 0.8372 0.0
H80 H 0.12633 0.91206 0.69804 0.0
C81 C 0.24283 0.86683 0.75427 0.0
C82 C 0.97046 0.83236 0.6625 0.0
N83 N 0.11776 0.83855 0.77925 0.0
C84 C 0.13396 0.82094 0.76125 0.0
C85 C 0.15266 0.8101 0.7973 0.0
C86 C 0.15467 0.8174 0.85258 0.0
C87 C 0.13962 0.83574 0.86997 0.0
C88 C 0.12127 0.84612 0.8324 0.0
C89 C 0.24025 0.9402 0.84053 0.0
O90 O 0.05083 0.88361 0.7777 0.0
O91 O 0.02454 0.90769 0.83679 0.0
O92 O 0.1959 0.88019 0.7684 0.0
O93 O 0.21754 0.85295 0.72525 0.0
O94 O 0.94982 0.84613 0.69709 0.0
O95 O 0.04066 0.82985 0.65249 0.0
O96 O 0.24375 0.92918 0.79582 0.0
O97 O 0.20998 0.93541 0.8777 0.0
H98 H 0.13185 0.81527 0.71879 0.0
H99 H 0.10848 0.86018 0.84567 0.0
H100 H 0.04261 0.89546 0.56968 0.0
H101 H 0.21481 0.8518 0.53418 0.0
H102 H 0.08906 0.91882 0.02451 0.0
H103 H 0.24951 0.87369 0.97343 0.0
H104 H 0.06669 0.93258 0.64472 0.0
H105 H 0.95912 0.96299 0.78666 0.0
H106 H 0.16551 0.79612 0.7819 0.0
H107 H 0.14005 0.84198 0.91213 0.0
Cd108 Cd 0.38181 0.60197 0.22338 0.0
Cd109 Cd 0.43406 0.66387 0.34938 0.0
C110 C 0.39508 0.61391 0.12067 0.0
N111 N 0.33387 0.61205 0.14748 0.0
C112 C 0.24916 0.62031 0.07866 0.0
C113 C 0.31197 0.62217 0.04971 0.0
C114 C 0.38563 0.61866 0.0716 0.0
C115 C 0.26148 0.61485 0.12725 0.0
H116 H 0.45199 0.61114 0.13695 0.0
H117 H 0.21349 0.61268 0.14809 0.0
C118 C 0.30249 0.64278 0.28495 0.0
C119 C 0.33 0.6592 0.44261 0.0
C120 C 0.31156 0.65458 0.48933 0.0
C121 C 0.36331 0.64346 0.5131 0.0
C122 C 0.43107 0.63656 0.48746 0.0
C123 C 0.44701 0.64145 0.4406 0.0
N124 N 0.39726 0.65282 0.41985 0.0
H125 H 0.29205 0.66843 0.42562 0.0
H126 H 0.50032 0.6367 0.42178 0.0
C127 C 0.35967 0.69863 0.31121 0.0
N128 N 0.38953 0.68196 0.29099 0.0
C129 C 0.36972 0.68632 0.20176 0.0
C130 C 0.33968 0.70372 0.22154 0.0
C131 C 0.33457 0.70981 0.27707 0.0
C132 C 0.39482 0.67564 0.23743 0.0
H133 H 0.3555 0.70329 0.35392 0.0
H134 H 0.41881 0.66231 0.22248 0.0
C135 C 0.53816 0.62608 0.26363 0.0
C136 C 0.46341 0.57193 0.16361 0.0
N137 N 0.33113 0.58803 0.28267 0.0
C138 C 0.29981 0.57249 0.26317 0.0
C139 C 0.29227 0.56107 0.29685 0.0
C140 C 0.31794 0.56563 0.35089 0.0
C141 C 0.34448 0.58239 0.37063 0.0
C142 C 0.35115 0.59339 0.33551 0.0
C143 C 0.52503 0.68967 0.4115 0.0
O144 O 0.35944 0.63146 0.28158 0.0
O145 O 0.30807 0.65809 0.31405 0.0
O146 O 0.49755 0.6383 0.29252 0.0
O147 O 0.5093 0.61207 0.2388 0.0
O148 O 0.39361 0.57588 0.15145 0.0
O149 O 0.49358 0.58151 0.20518 0.0
O150 O 0.55407 0.67739 0.37519 0.0
O151 O 0.4546 0.68956 0.41906 0.0
H152 H 0.28613 0.56838 0.22076 0.0
H153 H 0.37802 0.60559 0.34957 0.0
H154 H 0.19117 0.62294 0.06407 0.0
H155 H 0.43634 0.61907 0.05068 0.0
H156 H 0.25918 0.66036 0.50809 0.0
H157 H 0.47218 0.62782 0.50419 0.0
H158 H 0.37526 0.68115 0.15929 0.0
H159 H 0.31088 0.72304 0.29395 0.0
H160 H 0.27072 0.54836 0.28007 0.0
H161 H 0.36576 0.5864 0.41174 0.0
Cd162 Cd 0.58622 0.3405 0.6784 0.0
Cd163 Cd 0.6662 0.39501 0.7815 0.0
C164 C 0.63453 0.3327 0.55625 0.0
N165 N 0.59328 0.34488 0.59203 0.0
C166 C 0.5531 0.36111 0.52512 0.0
C167 C 0.59574 0.34879 0.48718 0.0
C168 C 0.63713 0.33448 0.50361 0.0
C169 C 0.55265 0.35888 0.57758 0.0
H170 H 0.6653 0.32153 0.56864 0.0
H171 H 0.51892 0.36815 0.60662 0.0
C172 C 0.50597 0.38337 0.74627 0.0
C173 C 0.58782 0.39125 0.88637 0.0
C174 C 0.57838 0.38644 0.93434 0.0
C175 C 0.6272 0.37291 0.94928 0.0
C176 C 0.68236 0.36393 0.91366 0.0
C177 C 0.68993 0.36922 0.86586 0.0
N178 N 0.64363 0.38285 0.85368 0.0
H179 H 0.55256 0.40222 0.8763 0.0
H180 H 0.73449 0.3629 0.83944 0.0
C181 C 0.60639 0.43134 0.74963 0.0
N182 N 0.61328 0.41383 0.72695 0.0
C183 C 0.55894 0.41929 0.64372 0.0
C184 C 0.55071 0.4375 0.6662 0.0
C185 C 0.57534 0.44343 0.71995 0.0
C186 C 0.59096 0.40764 0.67489 0.0
H187 H 0.62548 0.43591 0.79087 0.0
H188 H 0.59751 0.39365 0.65775 0.0
C189 C 0.74316 0.35657 0.68763 0.0
C190 C 0.47785 0.31522 0.64262 0.0
N191 N 0.63944 0.32679 0.74577 0.0
C192 C 0.69198 0.31295 0.73096 0.0
C193 C 0.71773 0.30232 0.76648 0.0
C194 C 0.6891 0.30594 0.81782 0.0
C195 C 0.63736 0.32082 0.83291 0.0
C196 C 0.61265 0.33106 0.79583 0.0
C197 C 0.76112 0.42067 0.84164 0.0
O198 O 0.55486 0.37035 0.73324 0.0
O199 O 0.52881 0.39768 0.77395 0.0
O200 O 0.6987 0.36689 0.71937 0.0
O201 O 0.72035 0.34187 0.66288 0.0
O202 O 0.4569 0.33158 0.65355 0.0
O203 O 0.54855 0.31081 0.64837 0.0
O204 O 0.77596 0.41353 0.79344 0.0
O205 O 0.70705 0.415 0.86107 0.0
H206 H 0.71156 0.30973 0.69068 0.0
H207 H 0.57006 0.34201 0.80627 0.0
H208 H 0.51918 0.37216 0.51422 0.0
H209 H 0.67164 0.32477 0.47621 0.0
H210 H 0.53445 0.39358 0.96017 0.0
H211 H 0.72148 0.35349 0.92372 0.0
H212 H 0.54022 0.41404 0.60266 0.0
H213 H 0.57189 0.45732 0.73883 0.0
H214 H 0.75837 0.29113 0.75344 0.0
H215 H 0.61355 0.32402 0.87199 0.0
H216 H 0.00612 0.12888 0.97665 0.0
H217 H -0.00501 0.13075 0.88295 0.0
H218 H 0.75014 0.13113 0.88386 0.0
H219 H 0.76103 0.12822 0.97643 0.0
H220 H 0.79708 0.1088 0.80003 0.0
H221 H 0.83948 0.16866 0.8766 0.0
H222 H 0.90245 0.19363 0.93346 0.0
H223 H 0.10915 0.17671 0.85079 0.0
H224 H 0.04748 0.15158 0.79341 0.0
H225 H 0.73583 0.13216 0.54353 0.0
H226 H 0.73627 0.13095 0.63801 0.0
H227 H 0.98196 0.12312 0.64363 0.0
H228 H 0.98211 0.12459 0.54982 0.0
H229 H 0.92753 0.15034 0.7241 0.0
H230 H 0.87951 0.08852 0.65263 0.0
H231 H 0.80948 0.06409 0.59878 0.0
H232 H 0.60205 0.08732 0.67255 0.0
H233 H 0.67102 0.11166 0.72775 0.0
C234 C 0.94985 0.12941 0.95703 0.0
C235 C 0.88457 0.12835 0.98433 0.0
C236 C 0.94347 0.13068 0.9035 0.0
C237 C 0.8716 0.13121 0.87628 0.0
C238 C 0.80621 0.13075 0.90392 0.0
C239 C 0.81256 0.12931 0.95724 0.0
C240 C 0.86504 0.13112 0.81822 0.0
C241 C 0.82464 0.11809 0.78364 0.0
C242 C 0.90157 0.14308 0.79649 0.0
C243 C 0.93904 0.15814 0.831 0.0
C244 C 0.89854 0.17018 0.87079 0.0
C245 C 0.93396 0.18438 0.90307 0.0
C246 C 0.00986 0.18671 0.89595 0.0
C247 C 0.05039 0.17487 0.85632 0.0
C248 C 0.01517 0.16068 0.82379 0.0
C249 C 0.78985 0.13 0.56479 0.0
C250 C 0.85891 0.12848 0.53911 0.0
C251 C 0.79001 0.1292 0.61866 0.0
C252 C 0.85919 0.12693 0.64782 0.0
C253 C 0.92795 0.12487 0.62186 0.0
C254 C 0.92784 0.12555 0.56804 0.0
C255 C 0.86059 0.12789 0.70619 0.0
C256 C 0.89986 0.14112 0.74075 0.0
C257 C 0.82184 0.11635 0.728 0.0
C258 C 0.78018 0.10198 0.69385 0.0
C259 C 0.81885 0.08848 0.65701 0.0
C260 C 0.77944 0.07463 0.62636 0.0
C261 C 0.70133 0.07426 0.63179 0.0
C262 C 0.66251 0.08765 0.66824 0.0
C263 C 0.70177 0.10141 0.69944 0.0
H264 H 0.67096 0.06354 0.60798 0.0
H265 H 0.03721 0.1977 0.92099 0.0
H266 H 0.01702 0.88191 0.47368 0.0
H267 H 0.02961 0.88505 0.38226 0.0
H268 H 0.27452 0.87735 0.40243 0.0
H269 H 0.26241 0.87445 0.49434 0.0
H270 H 0.22963 0.90364 0.34887 0.0
H271 H 0.17857 0.84445 0.33963 0.0
H272 H 0.10968 0.82062 0.35754 0.0
H273 H 0.9108 0.83755 0.27036 0.0
H274 H 0.97763 0.86194 0.25358 0.0
H275 H 0.2918 0.88704 0.06957 0.0
H276 H 0.29087 0.88245 0.1608 0.0
H277 H 0.0453 0.89089 0.15556 0.0
H278 H 0.04581 0.89532 0.06441 0.0
H279 H 0.09863 0.86285 0.20104 0.0
H280 H 0.14881 0.92353 0.21731 0.0
H281 H 0.21907 0.94739 0.20061 0.0
H282 H 0.4234 0.92649 0.27306 0.0
H283 H 0.35453 0.90234 0.2895 0.0
C284 C 0.07363 0.8812 0.45903 0.0
C285 C 0.13872 0.87787 0.49122 0.0
C286 C 0.08071 0.88284 0.4066 0.0
C287 C 0.15296 0.88119 0.38529 0.0
C288 C 0.21821 0.87858 0.41798 0.0
C289 C 0.21117 0.87683 0.47035 0.0
C290 C 0.16008 0.88167 0.32841 0.0
C291 C 0.20188 0.89457 0.3165 0.0
C292 C 0.12328 0.86991 0.28619 0.0
C293 C 0.0829 0.85518 0.2959 0.0
C294 C 0.11983 0.84325 0.32483 0.0
C295 C 0.08112 0.82964 0.33479 0.0
C296 C 0.00588 0.82757 0.31511 0.0
C297 C 0.96908 0.83918 0.28562 0.0
C298 C 0.00729 0.85294 0.27601 0.0
C299 C 0.23762 0.8877 0.08768 0.0
C300 C 0.16892 0.89168 0.06003 0.0
C301 C 0.23718 0.88518 0.13987 0.0
C302 C 0.16804 0.88652 0.16516 0.0
C303 C 0.09928 0.88986 0.13689 0.0
C304 C 0.09971 0.89251 0.08498 0.0
C305 C 0.16707 0.88501 0.22165 0.0
C306 C 0.12659 0.87187 0.23345 0.0
C307 C 0.20539 0.89648 0.26372 0.0
C308 C 0.24675 0.91102 0.25408 0.0
C309 C 0.20888 0.92394 0.22927 0.0
C310 C 0.24842 0.93753 0.21993 0.0
C311 C 0.32571 0.93842 0.23562 0.0
C312 C 0.36357 0.92576 0.26083 0.0
C313 C 0.3243 0.91212 0.2702 0.0
H314 H 0.35622 0.94896 0.22837 0.0
H315 H 0.97617 0.81695 0.32261 0.0
H316 H 0.40844 0.63981 1.00446 0.0
H317 H 0.40472 0.64335 0.91368 0.0
H318 H 0.18558 0.62169 0.88301 0.0
H319 H 0.19409 0.61567 0.97231 0.0
H320 H 0.26019 0.60893 0.80268 0.0
H321 H 0.22418 0.66921 0.90121 0.0
H322 H 0.25635 0.69497 0.97184 0.0
H323 H 0.4727 0.69451 0.90432 0.0
H324 H 0.44271 0.6686 0.83403 0.0
H325 H 0.23019 0.63581 0.54936 0.0
H326 H 0.20709 0.63299 0.64003 0.0
H327 H 0.44221 0.64161 0.68809 0.0
H328 H 0.46547 0.64458 0.59815 0.0
H329 H 0.34051 0.66262 0.75743 0.0
H330 H 0.38393 0.60141 0.66735 0.0
H331 H 0.35854 0.57486 0.59796 0.0
H332 H 0.1301 0.57754 0.64912 0.0
H333 H 0.15376 0.60428 0.71829 0.0
C334 C 0.35979 0.63542 0.97855 0.0
C335 C 0.30244 0.62701 0.99626 0.0
C336 C 0.35675 0.63796 0.92648 0.0
C337 C 0.29395 0.63324 0.89118 0.0
C338 C 0.23474 0.62555 0.90926 0.0
C339 C 0.23919 0.62233 0.96094 0.0
C340 C 0.29287 0.63532 0.8347 0.0
C341 C 0.27603 0.62087 0.79305 0.0
C342 C 0.31498 0.65075 0.8214 0.0
C343 C 0.33134 0.66684 0.86253 0.0
C344 C 0.27868 0.67457 0.9015 0.0
C345 C 0.29666 0.68918 0.94158 0.0
C346 C 0.36679 0.69626 0.94274 0.0
C347 C 0.41858 0.68895 0.90347 0.0
C348 C 0.40109 0.67432 0.8635 0.0
C349 C 0.27696 0.63702 0.57927 0.0
C350 C 0.34974 0.64035 0.56654 0.0
C351 C 0.26376 0.63533 0.63092 0.0
C352 C 0.32297 0.63708 0.67076 0.0
C353 C 0.39572 0.64023 0.65795 0.0
C354 C 0.40909 0.64175 0.60637 0.0
C355 C 0.30939 0.63619 0.72641 0.0
C356 C 0.32321 0.65088 0.76756 0.0
C357 C 0.28446 0.62106 0.7392 0.0
C358 C 0.27031 0.60498 0.69757 0.0
C359 C 0.32803 0.59645 0.66346 0.0
C360 C 0.31401 0.58133 0.62423 0.0
C361 C 0.24267 0.57454 0.61904 0.0
C362 C 0.18528 0.58283 0.65312 0.0
C363 C 0.19896 0.59796 0.69234 0.0
H364 H 0.23189 0.56283 0.58873 0.0
H365 H 0.38131 0.7074 0.97404 0.0
H366 H 0.60971 0.3968 0.04383 0.0
H367 H 0.6046 0.39121 0.13292 0.0
H368 H 0.63438 0.33527 0.06744 0.0
H369 H 0.63782 0.34078 0.97728 0.0
H370 H 0.52149 0.34451 0.14212 0.0
H371 H 0.78188 0.35586 0.13121 0.0
H372 H 0.88546 0.37248 0.11325 0.0
H373 H 0.80802 0.41705 0.23406 0.0
H374 H 0.70326 0.40078 0.25222 0.0
H375 H 0.59704 0.32271 0.3954 0.0
H376 H 0.60402 0.32574 0.30359 0.0
H377 H 0.60029 0.38216 0.35847 0.0
H378 H 0.59744 0.37918 0.45086 0.0
H379 H 0.70357 0.37118 0.28708 0.0
H380 H 0.44142 0.36101 0.29643 0.0
H381 H 0.33476 0.34527 0.31433 0.0
H382 H 0.41111 0.2996 0.19697 0.0
H383 H 0.51898 0.31498 0.17895 0.0
C384 C 0.61427 0.38327 0.04812 0.0
C385 C 0.62379 0.36922 1.00333 0.0
C386 C 0.61208 0.38011 0.09923 0.0
C387 C 0.61986 0.36284 0.10695 0.0
C388 C 0.62849 0.34872 0.06237 0.0
C389 C 0.63096 0.35188 0.01099 0.0
C390 C 0.61917 0.35972 0.1618 0.0
C391 C 0.56206 0.35007 0.17367 0.0
C392 C 0.67089 0.36738 0.20323 0.0
C393 C 0.73435 0.37714 0.19278 0.0
C394 C 0.78661 0.36925 0.1537 0.0
C395 C 0.84559 0.3786 0.14352 0.0
C396 C 0.85322 0.39583 0.17242 0.0
C397 C 0.80201 0.40371 0.21168 0.0
C398 C 0.74287 0.39442 0.22197 0.0
C399 C 0.59852 0.33578 0.38816 0.0
C400 C 0.5969 0.3507 0.43082 0.0
C401 C 0.60151 0.3375 0.33541 0.0
C402 C 0.60172 0.3542 0.32388 0.0
C403 C 0.59996 0.36913 0.36628 0.0
C404 C 0.59754 0.36741 0.41913 0.0
C405 C 0.60531 0.35609 0.26777 0.0
C406 C 0.6631 0.36552 0.2556 0.0
C407 C 0.55381 0.34833 0.2262 0.0
C408 C 0.48874 0.33909 0.23674 0.0
C409 C 0.43581 0.34756 0.27473 0.0
C410 C 0.37509 0.33871 0.28486 0.0
C411 C 0.36628 0.32143 0.2569 0.0
C412 C 0.41808 0.31298 0.21865 0.0
C413 C 0.47899 0.32176 0.20844 0.0
H414 H 0.31923 0.3146 0.26479 0.0
H415 H 0.8989 0.40305 0.16447 0.0
H416 H 0.69072 0.16649 0.23068 0.0
H417 H 0.55834 0.16842 0.19603 0.0
H418 H 0.5465 0.11328 0.192 0.0
H419 H 0.68039 0.11114 0.22471 0.0
H420 H 0.44295 0.12669 0.11521 0.0
H421 H 0.52164 0.14176 0.31241 0.0
H422 H 0.59765 0.15973 0.38539 0.0
H423 H 0.49881 0.2069 0.34007 0.0
H424 H 0.42267 0.18914 0.26664 0.0
H425 H 0.16044 0.09638 0.22351 0.0
H426 H 0.27847 0.10717 0.20515 0.0
H427 H 0.17613 0.1606 0.24347 0.0
H428 H 0.05745 0.14979 0.26292 0.0
H429 H 0.32066 0.15832 0.28237 0.0
H430 H 0.19672 0.14162 0.11541 0.0
H431 H 0.1202 0.12385 0.0429 0.0
H432 H 0.29941 0.08207 0.02297 0.0
H433 H 0.37637 0.09936 0.09636 0.0
C434 C 0.66021 0.15469 0.22104 0.0
C435 C 0.69373 0.13881 0.23211 0.0
C436 C 0.58526 0.15577 0.20056 0.0
C437 C 0.54265 0.1411 0.19269 0.0
C438 C 0.57881 0.12474 0.19798 0.0
C439 C 0.6546 0.12356 0.21734 0.0
C440 C 0.45899 0.14358 0.19302 0.0
C441 C 0.41545 0.13377 0.15118 0.0
C442 C 0.42323 0.15353 0.23916 0.0
C443 C 0.46679 0.16418 0.28425 0.0
C444 C 0.51616 0.15597 0.3182 0.0
C445 C 0.55932 0.1661 0.3595 0.0
C446 C 0.55314 0.18445 0.36731 0.0
C447 C 0.50371 0.19269 0.33387 0.0
C448 C 0.46048 0.18261 0.29247 0.0
C449 C 0.16342 0.11045 0.22883 0.0
C450 C 0.09996 0.12227 0.24429 0.0
C451 C 0.23042 0.11658 0.21769 0.0
C452 C 0.23467 0.1346 0.22099 0.0
C453 C 0.17312 0.14661 0.23975 0.0
C454 C 0.10588 0.14045 0.25137 0.0
C455 C 0.30501 0.14054 0.20579 0.0
C456 C 0.34631 0.15195 0.24499 0.0
C457 C 0.33784 0.13237 0.15659 0.0
C458 C 0.29248 0.12185 0.11164 0.0
C459 C 0.21974 0.1286 0.09586 0.0
C460 C 0.17615 0.11858 0.0546 0.0
C461 C 0.2048 0.1018 0.02841 0.0
C462 C 0.2772 0.09504 0.04337 0.0
C463 C 0.32094 0.10497 0.08479 0.0
H464 H 0.17096 0.09406 0.99647 0.0
H465 H 0.58652 0.19227 0.39933 0.0
H466 H 0.87666 0.9128 0.846 0.0
H467 H 0.75425 0.90243 0.85776 0.0
H468 H 0.84914 0.84854 0.81027 0.0
H469 H 0.9718 0.85901 0.79807 0.0
H470 H 0.72419 0.8536 0.75423 0.0
H471 H 0.79012 0.86479 0.93787 0.0
H472 H 0.84107 0.88063 0.0254 0.0
H473 H 0.66473 0.92253 0.02664 0.0
H474 H 0.6134 0.90712 0.93867 0.0
H475 H 0.33851 0.83783 0.75808 0.0
H476 H 0.47258 0.83681 0.78872 0.0
H477 H 0.45987 0.89363 0.82956 0.0
H478 H 0.32455 0.89476 0.80038 0.0
H479 H 0.55136 0.87894 0.90167 0.0
H480 H 0.51384 0.87 0.7061 0.0
H481 H 0.46748 0.854 0.61725 0.0
H482 H 0.59657 0.80674 0.64094 0.0
H483 H 0.64301 0.82243 0.73009 0.0
C484 C 0.87149 0.89876 0.83869 0.0
C485 C 0.93258 0.88664 0.81984 0.0
C486 C 0.80195 0.89283 0.84602 0.0
C487 C 0.79302 0.87471 0.83556 0.0
C488 C 0.85507 0.86258 0.8187 0.0
C489 C 0.92456 0.86854 0.81104 0.0
C490 C 0.71622 0.86874 0.83527 0.0
C491 C 0.687 0.85867 0.78714 0.0
C492 C 0.66787 0.87543 0.87815 0.0
C493 C 0.69794 0.88477 0.93145 0.0
C494 C 0.7624 0.87743 0.95661 0.0
C495 C 0.79136 0.88634 0.00636 0.0
C496 C 0.75617 0.90258 0.03156 0.0
C497 C 0.69187 0.90994 0.00709 0.0
C498 C 0.66272 0.9011 0.95731 0.0
C499 C 0.36417 0.85012 0.7739 0.0
C500 C 0.32203 0.86641 0.77572 0.0
C501 C 0.44049 0.84948 0.79167 0.0
C502 C 0.47606 0.86512 0.81046 0.0
C503 C 0.43311 0.88141 0.81503 0.0
C504 C 0.35629 0.88206 0.79792 0.0
C505 C 0.55943 0.86466 0.8199 0.0
C506 C 0.58953 0.87341 0.86968 0.0
C507 C 0.60899 0.85667 0.77867 0.0
C508 C 0.58098 0.84731 0.725 0.0
C509 C 0.53183 0.85616 0.69247 0.0
C510 C 0.50565 0.84715 0.64202 0.0
C511 C 0.52886 0.82934 0.62348 0.0
C512 C 0.57844 0.82052 0.65532 0.0
C513 C 0.60471 0.82946 0.70581 0.0
H514 H 0.50859 0.82239 0.58441 0.0
H515 H 0.7787 0.90946 0.07006 0.0
H516 H 0.64918 0.60094 0.22517 0.0
H517 H 0.7774 0.60539 0.20376 0.0
H518 H 0.72734 0.66172 0.25079 0.0
H519 H 0.59929 0.65735 0.2737 0.0
H520 H 0.84138 0.62204 0.13817 0.0
H521 H 0.88595 0.67844 0.32104 0.0
H522 H 0.83267 0.69138 0.40896 0.0
H523 H 0.76294 0.64099 0.41717 0.0
H524 H 0.81728 0.62768 0.32988 0.0
H525 H 0.22026 0.66256 0.22458 0.0
H526 H 0.08792 0.65902 0.19046 0.0
H527 H 0.09291 0.61099 0.24677 0.0
H528 H 0.22504 0.61441 0.28037 0.0
H529 H -0.00028 0.65032 0.29574 0.0
H530 H 0.05074 0.598 0.14865 0.0
H531 H 0.10959 0.58377 0.06364 0.0
H532 H -0.0048 0.6236 0.98898 0.0
H533 H 0.93633 0.63817 0.0739 0.0
C534 C 0.66565 0.61427 0.23103 0.0
C535 C 0.61554 0.62881 0.25237 0.0
C536 C 0.73825 0.61678 0.21802 0.0
C537 C 0.76134 0.63386 0.2259 0.0
C538 C 0.71025 0.64845 0.24492 0.0
C539 C 0.63787 0.64594 0.2587 0.0
C540 C 0.84184 0.6361 0.22089 0.0
C541 C 0.876 0.62838 0.17239 0.0
C542 C 0.88651 0.6444 0.26566 0.0
C543 C 0.85459 0.65215 0.31859 0.0
C544 C 0.85941 0.67012 0.34171 0.0
C545 C 0.82916 0.67751 0.39146 0.0
C546 C 0.79407 0.66703 0.4185 0.0
C547 C 0.7898 0.64911 0.39607 0.0
C548 C 0.82039 0.64163 0.34649 0.0
C549 C 0.19359 0.65093 0.22768 0.0
C550 C 0.23152 0.63869 0.2548 0.0
C551 C 0.11891 0.64883 0.2077 0.0
C552 C 0.08209 0.63461 0.21546 0.0
C553 C 0.12183 0.62175 0.23928 0.0
C554 C 0.19676 0.62373 0.25864 0.0
C555 C -0.00089 0.63584 0.21379 0.0
C556 C 0.96464 0.64439 0.26114 0.0
C557 C 0.95493 0.62803 0.16854 0.0
C558 C -0.01008 0.61926 0.11765 0.0
C559 C 0.03873 0.6038 0.11424 0.0
C560 C 0.07181 0.59564 0.06603 0.0
C561 C 0.0561 0.60277 0.02092 0.0
C562 C 0.00725 0.61808 0.02394 0.0
C563 C 0.97397 0.62629 0.07207 0.0
H564 H 0.08183 0.59644 0.98366 0.0
H565 H 0.77033 0.67281 0.45687 0.0
H566 H 0.86859 0.33509 0.65431 0.0
H567 H -0.0055 0.34398 0.64311 0.0
H568 H 0.90781 0.39863 0.68298 0.0
H569 H 0.78237 0.38978 0.69615 0.0
H570 H 0.06013 0.36125 0.58595 0.0
H571 H 0.03833 0.42218 0.76256 0.0
H572 H 0.97179 0.433 0.8467 0.0
H573 H 0.94304 0.37982 0.85503 0.0
H574 H 0.01012 0.3687 0.77145 0.0
H575 H 0.41685 0.41016 0.71742 0.0
H576 H 0.28328 0.40969 0.68374 0.0
H577 H 0.28681 0.35508 0.69137 0.0
H578 H 0.41877 0.35593 0.72858 0.0
H579 H 0.17283 0.39879 0.7496 0.0
H580 H 0.16727 0.33713 0.57305 0.0
H581 H 0.24807 0.32188 0.49936 0.0
H582 H 0.35016 0.36984 0.50313 0.0
H583 H 0.26781 0.38561 0.57528 0.0
C584 C 0.87653 0.34898 0.66038 0.0
C585 C 0.81706 0.36181 0.67751 0.0
C586 C 0.94803 0.35403 0.65346 0.0
C587 C 0.96048 0.37194 0.66294 0.0
C588 C 0.89952 0.38475 0.67648 0.0
C589 C 0.82838 0.37971 0.68442 0.0
C590 C 0.039 0.37706 0.66469 0.0
C591 C 0.08497 0.3695 0.62155 0.0
C592 C 0.07064 0.38803 0.71101 0.0
C593 C 0.02827 0.39465 0.76043 0.0
C594 C 0.01761 0.41282 0.78235 0.0
C595 C 0.98002 0.419 0.82998 0.0
C596 C 0.95342 0.40709 0.85621 0.0
C597 C 0.9637 0.38901 0.83466 0.0
C598 C 0.00136 0.38277 0.78713 0.0
C599 C 0.38898 0.39806 0.71154 0.0
C600 C 0.42763 0.38287 0.72422 0.0
C601 C 0.31348 0.39777 0.69181 0.0
C602 C 0.27667 0.38224 0.68394 0.0
C603 C 0.31565 0.367 0.69571 0.0
C604 C 0.39067 0.3674 0.71639 0.0
C605 C 0.19434 0.38252 0.67173 0.0
C606 C 0.14752 0.39108 0.71311 0.0
C607 C 0.16313 0.37186 0.62482 0.0
C608 C 0.21153 0.36257 0.58013 0.0
C609 C 0.20624 0.34452 0.55784 0.0
C610 C 0.25229 0.33577 0.5162 0.0
C611 C 0.30443 0.34486 0.49674 0.0
C612 C 0.30997 0.36279 0.51841 0.0
C613 C 0.26346 0.37165 0.55963 0.0
H614 H 0.34043 0.33803 0.4648 0.0
H615 H 0.925 0.41186 0.89331 0.0
H616 H 0.33749 0.31953 0.59376 0.0
H617 H 0.25174 0.29663 0.55458 0.0
H618 H 0.40815 0.25809 0.61128 0.0
H619 H 0.49587 0.28072 0.64701 0.0
H620 H 0.36559 0.24474 0.51657 0.0
H621 H 0.22806 0.27648 0.66971 0.0
H622 H 0.16647 0.30289 0.728 0.0
H623 H 0.01104 0.31101 0.59799 0.0
H624 H 0.07241 0.2848 0.53874 0.0
H625 H 0.12633 0.17535 0.45408 0.0
H626 H 0.19875 0.19895 0.50791 0.0
H627 H 0.05045 0.23738 0.44456 0.0
H628 H 0.97468 0.21392 0.39406 0.0
H629 H 0.0877 0.25066 0.54422 0.0
H630 H 0.23106 0.21883 0.39106 0.0
H631 H 0.28371 0.19038 0.33776 0.0
H632 H 0.42753 0.1818 0.47277 0.0
H633 H 0.37486 0.21006 0.52712 0.0
C634 C 0.35312 0.30616 0.59782 0.0
C635 C 0.42322 0.30183 0.62297 0.0
C636 C 0.30394 0.2931 0.57586 0.0
C637 C 0.32288 0.27561 0.5805 0.0
C638 C 0.39229 0.27144 0.6069 0.0
C639 C 0.44228 0.28438 0.62748 0.0
C640 C 0.27239 0.26146 0.55609 0.0
C641 C 0.30503 0.24601 0.52332 0.0
C642 C 0.19296 0.26314 0.56381 0.0
C643 C 0.15522 0.27875 0.59969 0.0
C644 C 0.181 0.28395 0.6535 0.0
C645 C 0.14613 0.29889 0.68671 0.0
C646 C 0.08503 0.30865 0.66669 0.0
C647 C 0.05847 0.30346 0.61345 0.0
C648 C 0.0932 0.28856 0.58005 0.0
C649 C 0.10911 0.18887 0.45212 0.0
C650 C 0.0458 0.19288 0.41963 0.0
C651 C 0.15047 0.20233 0.48269 0.0
C652 C 0.13138 0.21992 0.47912 0.0
C653 C 0.06654 0.22394 0.44784 0.0
C654 C 0.02362 0.21053 0.41877 0.0
C655 C 0.18118 0.23402 0.50528 0.0
C656 C 0.14837 0.24946 0.53787 0.0
C657 C 0.26057 0.23234 0.49769 0.0
C658 C 0.29844 0.21644 0.46327 0.0
C659 C 0.27427 0.21092 0.40923 0.0
C660 C 0.30373 0.19478 0.37898 0.0
C661 C 0.35801 0.18419 0.4022 0.0
C662 C 0.38485 0.18995 0.4551 0.0
C663 C 0.35536 0.20604 0.48561 0.0
H664 H 0.3794 0.17152 0.37922 0.0
H665 H 0.05814 0.32021 0.69248 0.0
H666 H 0.69595 0.27007 0.79124 0.0
H667 H 0.72915 0.24947 0.84939 0.0
H668 H 0.76018 0.29299 0.98391 0.0
H669 H 0.72765 0.31378 0.92554 0.0
H670 H 0.87812 0.26583 0.97707 0.0
H671 H 0.60396 0.27221 0.97292 0.0
H672 H 0.47456 0.2722 0.92979 0.0
H673 H 0.518 0.21773 0.85258 0.0
H674 H 0.64815 0.21748 0.89468 0.0
H675 H 0.87885 0.22246 0.18896 0.0
H676 H 0.85199 0.24153 0.12589 0.0
H677 H 0.80219 0.19655 1.00032 0.0
H678 H 0.82765 0.17731 0.06394 0.0
H679 H 0.69659 0.2235 0.99885 0.0
H680 H 0.96782 0.21637 0.00494 0.0
H681 H 0.09833 0.216 0.04599 0.0
H682 H 0.06295 0.27118 0.11725 0.0
H683 H 0.93178 0.27183 0.07705 0.0
C684 C 0.71049 0.27528 0.83311 0.0
C685 C 0.70956 0.29357 0.85374 0.0
C686 C 0.72884 0.26348 0.86637 0.0
C687 C 0.7467 0.26968 0.92102 0.0
C688 C 0.74649 0.28792 0.94181 0.0
C689 C 0.72748 0.29978 0.90855 0.0
C690 C 0.76571 0.25705 0.95622 0.0
C691 C 0.83812 0.25673 0.98249 0.0
C692 C 0.7144 0.24478 0.96173 0.0
C693 C 0.63608 0.24488 0.93652 0.0
C694 C 0.58616 0.26027 0.94638 0.0
C695 C 0.51263 0.2603 0.92219 0.0
C696 C 0.48815 0.24499 0.88835 0.0
C697 C 0.53709 0.22959 0.87874 0.0
C698 C 0.61072 0.22949 0.90279 0.0
C699 C 0.86203 0.21659 0.14795 0.0
C700 C 0.85505 0.19836 0.13156 0.0
C701 C 0.84743 0.22751 0.11175 0.0
C702 C 0.8261 0.22048 0.05811 0.0
C703 C 0.81921 0.20226 0.04141 0.0
C704 C 0.83416 0.19127 0.07771 0.0
C705 C 0.80893 0.23235 0.02028 0.0
C706 C 0.73685 0.23253 0.99339 0.0
C707 C 0.86077 0.24443 0.01394 0.0
C708 C 0.9397 0.24411 0.03823 0.0
C709 C 0.98765 0.2284 0.02961 0.0
C710 C 0.06181 0.22814 0.0527 0.0
C711 C 0.08888 0.24355 0.08431 0.0
C712 C 0.04189 0.25925 0.09278 0.0
C713 C 0.96765 0.25958 0.06978 0.0
H714 H 0.14632 0.24333 0.10217 0.0
H715 H 0.43119 0.24504 0.86966 0.0
H716 H 0.4793 0.71599 0.49513 0.0
H717 H 0.5503 0.74067 0.54271 0.0
H718 H 0.74199 0.72059 0.44468 0.0
H719 H 0.6713 0.69576 0.39697 0.0
H720 H 0.78632 0.73177 0.54954 0.0
H721 H 0.62121 0.75431 0.41827 0.0
H722 H 0.49774 0.76073 0.37235 0.0
H723 H 0.41428 0.79208 0.51992 0.0
H724 H 0.53673 0.78554 0.56687 0.0
H725 H -0.00325 0.80462 0.57904 0.0
H726 H 0.91431 0.78107 0.54185 0.0
H727 H 0.74206 0.80622 0.65166 0.0
H728 H 0.82398 0.8302 0.68871 0.0
H729 H 0.6815 0.79297 0.54949 0.0
H730 H 0.85072 0.77258 0.6792 0.0
H731 H 0.97496 0.76661 0.72471 0.0
H732 H 0.05072 0.73122 0.58104 0.0
H733 H 0.92738 0.73721 0.53434 0.0
C734 C 0.53675 0.71677 0.48386 0.0
C735 C 0.56984 0.70395 0.44227 0.0
C736 C 0.57707 0.73091 0.51098 0.0
C737 C 0.65095 0.73257 0.49673 0.0
C738 C 0.68495 0.71955 0.45621 0.0
C739 C 0.64462 0.70537 0.42906 0.0
C740 C 0.69244 0.74802 0.52348 0.0
C741 C 0.76381 0.74514 0.54909 0.0
C742 C 0.66172 0.76548 0.52433 0.0
C743 C 0.58795 0.76935 0.49616 0.0
C744 C 0.5763 0.76246 0.441 0.0
C745 C 0.50651 0.76612 0.41477 0.0
C746 C 0.44815 0.77678 0.44321 0.0
C747 C 0.45949 0.78381 0.49793 0.0
C748 C 0.52909 0.78014 0.52437 0.0
C749 C 0.94101 0.80527 0.59501 0.0
C750 C 0.91696 0.81919 0.637 0.0
C751 C 0.89412 0.79176 0.57384 0.0
C752 C 0.82264 0.79179 0.59462 0.0
C753 C 0.79704 0.806 0.63516 0.0
C754 C 0.8439 0.81964 0.65626 0.0
C755 C 0.77612 0.77667 0.57447 0.0
C756 C 0.70373 0.77961 0.55032 0.0
C757 C 0.80582 0.75925 0.57504 0.0
C758 C 0.87992 0.75546 0.60313 0.0
C759 C 0.89406 0.76362 0.65717 0.0
C760 C 0.96431 0.76023 0.68321 0.0
C761 C 0.02074 0.74857 0.65576 0.0
C762 C 0.00696 0.74026 0.60224 0.0
C763 C 0.93685 0.74364 0.57598 0.0
H764 H 0.0751 0.74596 0.67598 0.0
H765 H 0.39419 0.77961 0.42282 0.0
H766 H 0.36774 0.73819 0.23328 0.0
H767 H 0.32974 0.75755 0.17205 0.0
H768 H 0.2177 0.71553 0.06532 0.0
H769 H 0.25677 0.696 0.12616 0.0
H770 H 0.29596 0.73062 0.0106 0.0
H771 H 0.11674 0.75177 0.14421 0.0
H772 H 0.07228 0.76278 0.23549 0.0
H773 H 0.19794 0.80837 0.25427 0.0
H774 H 0.24407 0.79751 0.1633 0.0
H775 H 0.1059 0.78471 0.84604 0.0
H776 H 0.13412 0.76552 0.90884 0.0
H777 H 0.26653 0.80471 0.01096 0.0
H778 H 0.23958 0.82395 0.94782 0.0
H779 H 0.17229 0.79098 0.06778 0.0
H780 H 0.35239 0.76836 0.931 0.0
H781 H 0.39645 0.75585 0.84022 0.0
H782 H 0.26416 0.71158 0.82707 0.0
H783 H 0.21774 0.72406 0.91722 0.0
C784 C 0.33425 0.73313 0.19706 0.0
C785 C 0.31504 0.71557 0.18467 0.0
C786 C 0.31234 0.74424 0.1621 0.0
C787 C 0.26973 0.73813 0.11435 0.0
C788 C 0.25046 0.72058 0.10191 0.0
C789 C 0.27297 0.70941 0.13664 0.0
C790 C 0.2484 0.74978 0.07628 0.0
C791 C 0.26799 0.7437 0.02292 0.0
C792 C 0.2127 0.76701 0.09255 0.0
C793 C 0.18455 0.77372 0.14711 0.0
C794 C 0.13536 0.76408 0.16793 0.0
C795 C 0.10976 0.7703 0.21958 0.0
C796 C 0.13247 0.78623 0.25072 0.0
C797 C 0.18047 0.79602 0.23014 0.0
C798 C 0.20632 0.78985 0.17849 0.0
C799 C 0.14186 0.78921 0.88149 0.0
C800 C 0.171 0.80586 0.89154 0.0
C801 C 0.1577 0.77822 0.91748 0.0
C802 C 0.20318 0.78358 0.96432 0.0
C803 C 0.23132 0.80029 0.97504 0.0
C804 C 0.21563 0.8113 0.93897 0.0
C805 C 0.22097 0.77179 1.00222 0.0
C806 C 0.20043 0.77786 0.05549 0.0
C807 C 0.25513 0.75443 0.98572 0.0
C808 C 0.28089 0.74726 0.93068 0.0
C809 C 0.3318 0.75609 0.90846 0.0
C810 C 0.35731 0.74899 0.85713 0.0
C811 C 0.33289 0.73297 0.8278 0.0
C812 C 0.28275 0.72404 0.8497 0.0
C813 C 0.25674 0.73113 0.90087 0.0
H814 H 0.353 0.72745 0.78818 0.0
H815 H 0.1128 0.79094 0.29077 0.0
H816 H 0.84313 0.07828 0.01984 0.0
H817 H 0.90457 0.06086 0.93984 0.0
H818 H 0.93252 0.01572 0.01137 0.0
H819 H 0.8744 0.03331 0.09214 0.0
H820 H 0.06075 0.04691 0.95961 0.0
H821 H 0.92862 0.97894 0.90217 0.0
H822 H 0.80156 0.96752 0.88815 0.0
H823 H 0.70245 0.01684 0.85784 0.0
H824 H 0.82914 0.02848 0.87064 0.0
H825 H 0.27269 0.96567 0.92837 0.0
H826 H 0.20742 0.99512 0.94444 0.0
H827 H 0.13459 0.987 0.77766 0.0
H828 H 0.20088 0.9576 0.76122 0.0
H829 H 0.01778 0.9882 0.84534 0.0
H830 H 0.21099 0.02473 0.83106 0.0
H831 H 0.33948 0.03549 0.84459 0.0
H832 H 0.31657 0.04856 0.01452 0.0
H833 H 0.18811 0.03784 1.00211 0.0
C834 C 0.85855 0.06437 0.01716 0.0
C835 C 0.8531 0.057 0.06165 0.0
C836 C 0.89446 0.05452 0.97174 0.0
C837 C 0.92309 0.03703 0.96977 0.0
C838 C 0.91008 0.02914 0.0119 0.0
C839 C 0.87627 0.03912 0.05784 0.0
C840 C 0.97833 0.02794 0.92962 0.0
C841 C 0.05108 0.03423 0.93354 0.0
C842 C 0.96516 0.01156 0.89522 0.0
C843 C 0.88855 0.00465 0.88781 0.0
C844 C 0.87986 0.98735 0.8923 0.0
C845 C 0.80783 0.98083 0.88456 0.0
C846 C 0.74393 0.99146 0.87227 0.0
C847 C 0.75196 0.00864 0.86758 0.0
C848 C 0.82388 0.01522 0.87518 0.0
C849 C 0.24719 0.9706 0.89448 0.0
C850 C 0.24089 0.95925 0.84382 0.0
C851 C 0.20946 0.98745 0.90371 0.0
C852 C 0.1648 0.99311 0.86242 0.0
C853 C 0.16833 0.98283 0.81012 0.0
C854 C 0.20712 0.96606 0.80071 0.0
C855 C 0.10094 0.00679 0.87689 0.0
C856 C 0.02671 1.00124 0.86907 0.0
C857 C 0.11284 0.02379 0.90777 0.0
C858 C 0.18983 0.03045 0.91561 0.0
C859 C 0.23344 0.02985 0.87134 0.0
C860 C 0.30623 0.03598 0.87881 0.0
C861 C 0.33611 0.04274 0.93038 0.0
C862 C 0.29322 0.0434 0.97458 0.0
C863 C 0.22027 0.03736 0.96734 0.0
H864 H 0.39253 0.04746 0.93609 0.0
H865 H 0.68822 0.98638 0.86629 0.0
H866 H 0.86186 0.03347 0.34752 0.0
H867 H 0.8719 0.01646 0.4166 0.0
H868 H 0.90453 0.06378 0.53742 0.0
H869 H 0.89389 0.08096 0.46785 0.0
H870 H 0.00283 0.03745 0.55586 0.0
H871 H 0.73562 0.04425 0.5233 0.0
H872 H 0.61281 0.04424 0.47135 0.0
H873 H 0.65185 0.98855 0.40901 0.0
H874 H 0.77545 0.98826 0.46016 0.0
H875 H -0.00717 0.98565 0.74917 0.0
H876 H 0.95509 0.00834 0.6993 0.0
H877 H 0.92359 0.96831 0.55537 0.0
H878 H 0.95752 0.94544 0.60559 0.0
H879 H 0.8134 0.99489 0.561 0.0
H880 H 0.09092 0.99009 0.58643 0.0
H881 H 0.20882 0.99043 0.6442 0.0
H882 H 0.14382 0.04358 0.72532 0.0
H883 H 0.02503 0.04346 0.66837 0.0
C884 C 0.87053 0.04029 0.38887 0.0
C885 C 0.87684 0.05856 0.40228 0.0
C886 C 0.87575 0.03057 0.42844 0.0
C887 C 0.88723 0.03884 0.48255 0.0
C888 C 0.8941 0.05711 0.49616 0.0
C889 C 0.88788 0.06694 0.45643 0.0
C890 C 0.89425 0.02809 0.52397 0.0
C891 C 0.96062 0.0284 0.55767 0.0
C892 C 0.83949 0.01618 0.52642 0.0
C893 C 0.76511 0.01626 0.49547 0.0
C894 C 0.71828 0.03202 0.49833 0.0
C895 C 0.64846 0.03206 0.46902 0.0
C896 C 0.62457 0.01641 0.43684 0.0
C897 C 0.67043 1.00067 0.43397 0.0
C898 C 0.74034 1.00055 0.46319 0.0
C899 C 0.97638 0.98157 0.7072 0.0
C900 C 0.97902 0.96359 0.68153 0.0
C901 C 0.95557 0.99464 0.67852 0.0
C902 C 0.93792 0.99008 0.62328 0.0
C903 C 0.93751 0.97218 0.59789 0.0
C904 C 0.95775 0.95909 0.62663 0.0
C905 C 0.92299 1.00383 0.59127 0.0
C906 C 0.85504 1.0041 0.55951 0.0
C907 C 0.97587 0.01637 0.59102 0.0
C908 C 0.0489 0.01672 0.62345 0.0
C909 C 0.10178 1.00184 0.61662 0.0
C910 C 0.1687 1.00199 0.64925 0.0
C911 C 0.1837 0.017 0.6885 0.0
C912 C 0.13208 0.03195 0.69493 0.0
C913 C 0.06501 0.03186 0.66244 0.0
H914 H 0.23536 0.01707 0.71389 0.0
H915 H 0.57049 0.01647 0.41417 0.0
H916 H 0.601 0.55578 0.18872 0.0
H917 H 0.67809 0.53255 0.13031 0.0
H918 H 0.50837 0.53329 1.00117 0.0
H919 H 0.42966 0.55588 0.06016 0.0
H920 H 0.54767 0.50174 1.00236 0.0
H921 H 0.68823 0.55103 0.0081 0.0
H922 H 0.75618 0.57731 0.04895 0.0
H923 H 0.92278 0.54567 0.12371 0.0
H924 H 0.85512 0.51922 0.08404 0.0
H925 H 0.77011 0.44966 0.80247 0.0
H926 H 0.75189 0.47963 0.85678 0.0
H927 H 0.79289 0.45972 1.00016 0.0
H928 H 0.80744 0.4297 0.94614 0.0
H929 H 0.82618 0.50245 0.98483 0.0
H930 H 0.6395 0.45661 0.99696 0.0
H931 H 0.56905 0.4314 0.94909 0.0
H932 H 0.48936 0.45971 0.82825 0.0
H933 H 0.56079 0.48492 0.87503 0.0
C934 C 0.5801 0.55091 0.14791 0.0
C935 C 0.50908 0.55753 0.12907 0.0
C936 C 0.62463 0.53778 0.11435 0.0
C937 C 0.59985 0.53134 0.06093 0.0
C938 C 0.52888 0.53802 0.04216 0.0
C939 C 0.48375 0.55089 0.07596 0.0
C940 C 0.64547 0.51694 0.02543 0.0
C941 C 0.6083 0.50215 0.99829 0.0
C942 C 0.72489 0.51728 0.01968 0.0
C943 C 0.76614 0.53315 0.04343 0.0
C944 C 0.73903 0.54968 0.03358 0.0
C945 C 0.77754 0.56462 0.05649 0.0
C946 C 0.84366 0.56317 0.08901 0.0
C947 C 0.8715 0.54678 0.09856 0.0
C948 C 0.83311 0.5318 0.07583 0.0
C949 C 0.78012 0.45178 0.84544 0.0
C950 C 0.78976 0.43744 0.87031 0.0
C951 C 0.76946 0.46893 0.87644 0.0
C952 C 0.77059 0.47181 0.93238 0.0
C953 C 0.79239 0.45774 0.95704 0.0
C954 C 0.80089 0.44059 0.92616 0.0
C955 C 0.72785 0.48758 0.96317 0.0
C956 C 0.76542 0.5024 0.98912 0.0
C957 C 0.64838 0.48761 0.96716 0.0
C958 C 0.60572 0.47251 0.93913 0.0
C959 C 0.6073 0.45737 0.95999 0.0
C960 C 0.56731 0.44309 0.93304 0.0
C961 C 0.52489 0.44393 0.88555 0.0
C962 C 0.52234 0.45906 0.86497 0.0
C963 C 0.56275 0.47331 0.89156 0.0
H964 H 0.49393 0.43288 0.8647 0.0
H965 H 0.8734 0.57475 0.10669 0.0
H966 H 0.45657 0.46763 0.69839 0.0
H967 H 0.40974 0.48948 0.64694 0.0
H968 H 0.52122 0.45811 0.50873 0.0
H969 H 0.5714 0.43661 0.56066 0.0
H970 H 0.54774 0.49121 0.52059 0.0
H971 H 0.3238 0.46084 0.52101 0.0
H972 H 0.22368 0.44885 0.56131 0.0
H973 H 0.15064 0.50088 0.64739 0.0
H974 H 0.25111 0.51317 0.60818 0.0
H975 H 0.37072 0.53112 0.32047 0.0
H976 H 0.40023 0.50981 0.37648 0.0
H977 H 0.31967 0.54833 0.51347 0.0
H978 H 0.28885 0.56987 0.45731 0.0
H979 H 0.27503 0.513 0.50581 0.0
H980 H 0.49881 0.54315 0.50364 0.0
H981 H 0.59744 0.5549 0.46126 0.0
H982 H 0.66935 0.50262 0.3765 0.0
H983 H 0.57025 0.49057 0.41776 0.0
C984 C 0.47164 0.4654 0.65714 0.0
C985 C 0.51812 0.45032 0.63384 0.0
C986 C 0.44394 0.47783 0.62752 0.0
C987 C 0.46117 0.4754 0.57368 0.0
C988 C 0.50692 0.46029 0.55015 0.0
C989 C 0.535 0.4479 0.57982 0.0
C990 C 0.43391 0.48885 0.54233 0.0
C991 C 0.48793 0.49576 0.51686 0.0
C992 C 0.35611 0.49524 0.53857 0.0
C993 C 0.29552 0.4879 0.56209 0.0
C994 C 0.2868 0.46971 0.54887 0.0
C995 C 0.22991 0.46286 0.57146 0.0
C996 C 0.18097 0.47409 0.60701 0.0
C997 C 0.18868 0.4922 0.61992 0.0
C998 C 0.24555 0.49911 0.59749 0.0
C999 C 0.35737 0.535 0.36221 0.0
C1000 C 0.32706 0.55222 0.38429 0.0
C1001 C 0.37497 0.52282 0.39428 0.0
C1002 C 0.36267 0.52753 0.44918 0.0
C1003 C 0.32952 0.54445 0.47116 0.0
C1004 C 0.31236 0.55675 0.43908 0.0
C1005 C 0.38876 0.51503 0.48369 0.0
C1006 C 0.33473 0.5084 0.50978 0.0
C1007 C 0.46649 0.5088 0.48793 0.0
C1008 C 0.52662 0.51598 0.46341 0.0
C1009 C 0.53523 0.53417 0.47563 0.0
C1010 C 0.59129 0.54088 0.45187 0.0
C1011 C 0.63952 0.52952 0.41611 0.0
C1012 C 0.6319 0.5114 0.40416 0.0
C1013 C 0.57583 0.50463 0.42775 0.0
H1014 H 0.68289 0.53474 0.39775 0.0
H1015 H 0.13695 0.46876 0.62445 0.0
loop_
_geom_bond_atom_site_label_1
_geom_bond_atom_site_label_2
_geom_bond_distance
_geom_bond_site_symmetry_2
_ccdc_geom_bond_type
Cd0 N3 2.334 1_455 S
Cd0 N29 2.304 . S
Cd0 O36 2.268 1_455 S
Cd0 O39 2.273 . S
Cd0 O40 2.417 1_455 S
Cd0 O41 2.330 . S
Cd1 N16 2.304 1_655 S
Cd1 N20 2.334 . S
Cd1 O37 2.273 . S
Cd1 O38 2.268 1_655 S
Cd1 O42 2.417 1_655 S
Cd1 O43 2.330 . S
C2 N3 1.332 1_455 S
C2 C6 1.381 . S
C2 H8 0.931 . S
N3 Cd0 2.334 1_655 S
N3 C2 1.332 1_655 S
N3 C7 1.328 . S
C4 C5 1.396 . S
C4 C7 1.378 . S
C4 H46 0.931 . S
C5 C4 1.396 . S
C5 C6 1.382 1_655 S
C6 C2 1.381 . S
C6 C5 1.382 1_455 S
C6 H47 0.930 . S
C7 N3 1.328 . S
C7 C4 1.378 . S
C7 H9 0.930 . S
H8 C2 0.931 . S
H9 C7 0.930 . S
C10 O36 1.238 . S
C10 O37 1.253 . S
C11 C12 1.379 . S
C11 N16 1.337 1_655 S
C11 H17 0.929 . S
C12 C11 1.379 . S
C12 C13 1.380 1_655 S
C12 H48 0.929 . S
C13 C12 1.380 1_455 S
C13 C14 1.399 . S
C14 C13 1.399 . S
C14 C15 1.376 . S
C14 H49 0.931 . S
C15 C14 1.376 . S
C15 N16 1.338 . S
C15 H18 0.930 . S
N16 Cd1 2.304 1_455 S
N16 C11 1.337 1_455 S
N16 C15 1.338 . S
H17 C11 0.929 . S
H18 C15 0.930 . S
C19 N20 1.332 . S
C19 C23 1.381 . S
C19 H25 0.931 . S
N20 Cd1 2.334 . S
N20 C19 1.332 . S
N20 C24 1.328 1_655 S
C21 C22 1.396 1_455 S
C21 C24 1.378 . S
C21 H50 0.931 . S
C22 C21 1.396 1_655 S
C22 C23 1.382 . S
C23 C19 1.381 . S
C23 C22 1.382 . S
C23 H51 0.930 . S
C24 N20 1.328 1_455 S
C24 C21 1.378 . S
C24 H26 0.930 . S
H25 C19 0.931 . S
H26 C24 0.930 . S
C27 O38 1.238 . S
C27 O39 1.253 . S
C28 O40 1.239 . S
C28 O41 1.230 1_655 S
N29 Cd0 2.304 . S
N29 C30 1.337 . S
N29 C34 1.338 1_455 S
C30 N29 1.337 . S
C30 C31 1.379 . S
C30 H44 0.929 . S
C31 C30 1.379 . S
C31 C32 1.380 . S
C31 H52 0.929 . S
C32 C31 1.380 . S
C32 C33 1.399 1_455 S
C33 C32 1.399 1_655 S
C33 C34 1.376 . S
C33 H53 0.931 . S
C34 N29 1.338 1_655 S
C34 C33 1.376 . S
C34 H45 0.930 . S
C35 O42 1.239 . S
C35 O43 1.230 1_455 S
O36 Cd0 2.268 1_655 S
O36 C10 1.238 . S
O37 Cd1 2.273 . S
O37 C10 1.253 . S
O38 Cd1 2.268 1_455 S
O38 C27 1.238 . S
O39 Cd0 2.273 . S
O39 C27 1.253 . S
O40 Cd0 2.417 1_655 S
O40 C28 1.239 . S
O41 Cd0 2.330 . S
O41 C28 1.230 1_455 S
O42 Cd1 2.417 1_455 S
O42 C35 1.239 . S
O43 Cd1 2.330 . S
O43 C35 1.230 1_655 S
H44 C30 0.929 . S
H45 C34 0.930 . S
H46 C4 0.931 . S
H47 C6 0.930 . S
H48 C12 0.929 . S
H49 C14 0.931 . S
H50 C21 0.931 . S
H51 C23 0.930 . S
H52 C31 0.929 . S
H53 C33 0.931 . S
Cd54 N57 2.334 . S
Cd54 N83 2.304 . S
Cd54 O90 2.268 1_455 S
Cd54 O93 2.273 . S
Cd54 O94 2.417 1_455 S
Cd54 O95 2.330 . S
Cd55 N70 2.304 . S
Cd55 N74 2.334 . S
Cd55 O91 2.273 1_455 S
Cd55 O92 2.268 . S
Cd55 O96 2.417 . S
Cd55 O97 2.330 1_455 S
C56 N57 1.332 . S
C56 C60 1.381 . S
C56 H62 0.931 . S
N57 Cd54 2.334 . S
N57 C56 1.332 . S
N57 C61 1.328 1_455 S
C58 C59 1.396 1_655 S
C58 C61 1.378 . S
C58 H100 0.931 . S
C59 C58 1.396 1_455 S
C59 C60 1.382 . S
C60 C56 1.381 . S
C60 C59 1.382 . S
C60 H101 0.930 . S
C61 N57 1.328 1_655 S
C61 C58 1.378 . S
C61 H63 0.930 . S
H62 C56 0.931 . S
H63 C61 0.930 . S
C64 O90 1.238 . S
C64 O91 1.253 . S
C65 C66 1.379 . S
C65 N70 1.337 1_655 S
C65 H71 0.929 . S
C66 C65 1.379 . S
C66 C67 1.380 1_655 S
C66 H102 0.929 . S
C67 C66 1.380 1_455 S
C67 C68 1.399 . S
C68 C67 1.399 . S
C68 C69 1.376 . S
C68 H103 0.931 . S
C69 C68 1.376 . S
C69 N70 1.338 . S
C69 H72 0.930 . S
N70 Cd55 2.304 . S
N70 C65 1.337 1_455 S
N70 C69 1.338 . S
H71 C65 0.929 . S
H72 C69 0.930 . S
C73 N74 1.332 1_655 S
C73 C77 1.381 . S
C73 H79 0.931 . S
N74 Cd55 2.334 . S
N74 C73 1.332 1_455 S
N74 C78 1.328 . S
C75 C76 1.396 1_455 S
C75 C78 1.378 . S
C75 H104 0.931 . S
C76 C75 1.396 1_655 S
C76 C77 1.382 . S
C77 C73 1.381 . S
C77 C76 1.382 . S
C77 H105 0.930 . S
C78 N74 1.328 . S
C78 C75 1.378 . S
C78 H80 0.930 . S
H79 C73 0.931 . S
H80 C78 0.930 . S
C81 O92 1.238 . S
C81 O93 1.253 . S
C82 O94 1.239 . S
C82 O95 1.230 1_655 S
N83 Cd54 2.304 . S
N83 C84 1.337 . S
N83 C88 1.338 1_455 S
C84 N83 1.337 . S
C84 C85 1.379 . S
C84 H98 0.929 . S
C85 C84 1.379 . S
C85 C86 1.380 . S
C85 H106 0.929 . S
C86 C85 1.380 . S
C86 C87 1.399 1_455 S
C87 C86 1.399 1_655 S
C87 C88 1.376 . S
C87 H107 0.931 . S
C88 N83 1.338 1_655 S
C88 C87 1.376 . S
C88 H99 0.930 . S
C89 O96 1.239 . S
C89 O97 1.230 1_455 S
O90 Cd54 2.268 1_655 S
O90 C64 1.238 . S
O91 Cd55 2.273 1_655 S
O91 C64 1.253 . S
O92 Cd55 2.268 . S
O92 C81 1.238 . S
O93 Cd54 2.273 . S
O93 C81 1.253 . S
O94 Cd54 2.417 1_655 S
O94 C82 1.239 . S
O95 Cd54 2.330 . S
O95 C82 1.230 1_455 S
O96 Cd55 2.417 . S
O96 C89 1.239 . S
O97 Cd55 2.330 1_655 S
O97 C89 1.230 1_655 S
H98 C84 0.929 . S
H99 C88 0.930 . S
H100 C58 0.931 . S
H101 C60 0.930 . S
H102 C66 0.929 . S
H103 C68 0.931 . S
H104 C75 0.931 . S
H105 C77 0.930 . S
H106 C85 0.929 . S
H107 C87 0.931 . S
Cd108 N111 2.334 . S
Cd108 N137 2.304 . S
Cd108 O144 2.268 . S
Cd108 O147 2.273 . S
Cd108 O148 2.417 . S
Cd108 O149 2.330 . S
Cd109 N124 2.304 . S
Cd109 N128 2.334 . S
Cd109 O145 2.273 . S
Cd109 O146 2.268 . S
Cd109 O150 2.417 . S
Cd109 O151 2.330 . S
C110 N111 1.332 . S
C110 C114 1.381 . S
C110 H116 0.931 . S
N111 Cd108 2.334 . S
N111 C110 1.332 . S
N111 C115 1.328 . S
C112 C113 1.396 . S
C112 C115 1.378 . S
C112 H154 0.931 . S
C113 C112 1.396 . S
C113 C114 1.382 . S
C114 C110 1.381 . S
C114 C113 1.382 . S
C114 H155 0.930 . S
C115 N111 1.328 . S
C115 C112 1.378 . S
C115 H117 0.930 . S
H116 C110 0.931 . S
H117 C115 0.930 . S
C118 O144 1.238 . S
C118 O145 1.253 . S
C119 C120 1.379 . S
C119 N124 1.337 . S
C119 H125 0.929 . S
C120 C119 1.379 . S
C120 C121 1.380 . S
C120 H156 0.929 . S
C121 C120 1.380 . S
C121 C122 1.399 . S
C122 C121 1.399 . S
C122 C123 1.376 . S
C122 H157 0.931 . S
C123 C122 1.376 . S
C123 N124 1.338 . S
C123 H126 0.930 . S
N124 Cd109 2.304 . S
N124 C119 1.337 . S
N124 C123 1.338 . S
H125 C119 0.929 . S
H126 C123 0.930 . S
C127 N128 1.332 . S
C127 C131 1.381 . S
C127 H133 0.931 . S
N128 Cd109 2.334 . S
N128 C127 1.332 . S
N128 C132 1.328 . S
C129 C130 1.396 . S
C129 C132 1.378 . S
C129 H158 0.931 . S
C130 C129 1.396 . S
C130 C131 1.382 . S
C131 C127 1.381 . S
C131 C130 1.382 . S
C131 H159 0.930 . S
C132 N128 1.328 . S
C132 C129 1.378 . S
C132 H134 0.930 . S
H133 C127 0.931 . S
H134 C132 0.930 . S
C135 O146 1.238 . S
C135 O147 1.253 . S
C136 O148 1.239 . S
C136 O149 1.230 . S
N137 Cd108 2.304 . S
N137 C138 1.337 . S
N137 C142 1.338 . S
C138 N137 1.337 . S
C138 C139 1.379 . S
C138 H152 0.929 . S
C139 C138 1.379 . S
C139 C140 1.380 . S
C139 H160 0.929 . S
C140 C139 1.380 . S
C140 C141 1.399 . S
C141 C140 1.399 . S
C141 C142 1.376 . S
C141 H161 0.931 . S
C142 N137 1.338 . S
C142 C141 1.376 . S
C142 H153 0.930 . S
C143 O150 1.239 . S
C143 O151 1.230 . S
O144 Cd108 2.268 . S
O144 C118 1.238 . S
O145 Cd109 2.273 . S
O145 C118 1.253 . S
O146 Cd109 2.268 . S
O146 C135 1.238 . S
O147 Cd108 2.273 . S
O147 C135 1.253 . S
O148 Cd108 2.417 . S
O148 C136 1.239 . S
O149 Cd108 2.330 . S
O149 C136 1.230 . S
O150 Cd109 2.417 . S
O150 C143 1.239 . S
O151 Cd109 2.330 . S
O151 C143 1.230 . S
H152 C138 0.929 . S
H153 C142 0.930 . S
H154 C112 0.931 . S
H155 C114 0.930 . S
H156 C120 0.929 . S
H157 C122 0.931 . S
H158 C129 0.931 . S
H159 C131 0.930 . S
H160 C139 0.929 . S
H161 C141 0.931 . S
Cd162 N165 2.334 . S
Cd162 N191 2.304 . S
Cd162 O198 2.268 . S
Cd162 O201 2.273 . S
Cd162 O202 2.417 . S
Cd162 O203 2.330 . S
Cd163 N178 2.304 . S
Cd163 N182 2.334 . S
Cd163 O199 2.273 . S
Cd163 O200 2.268 . S
Cd163 O204 2.417 . S
Cd163 O205 2.330 . S
C164 N165 1.332 . S
C164 C168 1.381 . S
C164 H170 0.931 . S
N165 Cd162 2.334 . S
N165 C164 1.332 . S
N165 C169 1.328 . S
C166 C167 1.396 . S
C166 C169 1.378 . S
C166 H208 0.931 . S
C167 C166 1.396 . S
C167 C168 1.382 . S
C168 C164 1.381 . S
C168 C167 1.382 . S
C168 H209 0.930 . S
C169 N165 1.328 . S
C169 C166 1.378 . S
C169 H171 0.930 . S
H170 C164 0.931 . S
H171 C169 0.930 . S
C172 O198 1.238 . S
C172 O199 1.253 . S
C173 C174 1.379 . S
C173 N178 1.337 . S
C173 H179 0.929 . S
C174 C173 1.379 . S
C174 C175 1.380 . S
C174 H210 0.929 . S
C175 C174 1.380 . S
C175 C176 1.399 . S
C176 C175 1.399 . S
C176 C177 1.376 . S
C176 H211 0.931 . S
C177 C176 1.376 . S
C177 N178 1.338 . S
C177 H180 0.930 . S
N178 Cd163 2.304 . S
N178 C173 1.337 . S
N178 C177 1.338 . S
H179 C173 0.929 . S
H180 C177 0.930 . S
C181 N182 1.332 . S
C181 C185 1.381 . S
C181 H187 0.931 . S
N182 Cd163 2.334 . S
N182 C181 1.332 . S
N182 C186 1.328 . S
C183 C184 1.396 . S
C183 C186 1.378 . S
C183 H212 0.931 . S
C184 C183 1.396 . S
C184 C185 1.382 . S
C185 C181 1.381 . S
C185 C184 1.382 . S
C185 H213 0.930 . S
C186 N182 1.328 . S
C186 C183 1.378 . S
C186 H188 0.930 . S
H187 C181 0.931 . S
H188 C186 0.930 . S
C189 O200 1.238 . S
C189 O201 1.253 . S
C190 O202 1.239 . S
C190 O203 1.230 . S
N191 Cd162 2.304 . S
N191 C192 1.337 . S
N191 C196 1.338 . S
C192 N191 1.337 . S
C192 C193 1.379 . S
C192 H206 0.929 . S
C193 C192 1.379 . S
C193 C194 1.380 . S
C193 H214 0.929 . S
C194 C193 1.380 . S
C194 C195 1.399 . S
C195 C194 1.399 . S
C195 C196 1.376 . S
C195 H215 0.931 . S
C196 N191 1.338 . S
C196 C195 1.376 . S
C196 H207 0.930 . S
C197 O204 1.239 . S
C197 O205 1.230 . S
O198 Cd162 2.268 . S
O198 C172 1.238 . S
O199 Cd163 2.273 . S
O199 C172 1.253 . S
O200 Cd163 2.268 . S
O200 C189 1.238 . S
O201 Cd162 2.273 . S
O201 C189 1.253 . S
O202 Cd162 2.417 . S
O202 C190 1.239 . S
O203 Cd162 2.330 . S
O203 C190 1.230 . S
O204 Cd163 2.417 . S
O204 C197 1.239 . S
O205 Cd163 2.330 . S
O205 C197 1.230 . S
H206 C192 0.929 . S
H207 C196 0.930 . S
H208 C166 0.931 . S
H209 C168 0.930 . S
H210 C174 0.929 . S
H211 C176 0.931 . S
H212 C183 0.931 . S
H213 C185 0.930 . S
H214 C193 0.929 . S
H215 C195 0.931 . S
H216 C234 0.951 . S
H217 C236 0.951 . S
H218 C238 0.950 . S
H219 C239 0.950 . S
H220 C241 0.950 . S
H221 C244 0.950 1_655 S
H222 C245 0.950 . S
H223 C247 0.950 . S
H224 C248 0.950 . S
H225 C249 0.951 . S
H226 C251 0.951 . S
H227 C253 0.950 . S
H228 C254 0.950 . S
H229 C256 0.950 . S
H230 C259 0.950 1_455 S
H231 C260 0.950 . S
H232 C262 0.950 . S
H233 C263 0.950 . S
C234 H216 0.951 . S
C234 C235 1.366 1_455 S
C234 C236 1.388 . S
C235 C234 1.366 1_655 S
C235 C239 1.385 . S
C236 H217 0.951 . S
C236 C234 1.388 . S
C236 C237 1.366 1_455 S
C237 C236 1.366 1_655 S
C237 C238 1.414 . S
C237 C240 1.499 . S
C238 H218 0.950 . S
C238 C237 1.414 . S
C238 C239 1.374 . S
C239 H219 0.950 . S
C239 C235 1.385 . S
C239 C238 1.374 . S
C240 C237 1.499 . S
C240 C241 1.373 . S
C240 C242 1.389 1_655 S
C241 H220 0.950 . S
C241 C240 1.373 . S
C241 C257 1.377 . S
C242 C240 1.389 1_455 S
C242 C243 1.524 . S
C242 C256 1.377 . S
C243 C242 1.524 . S
C243 C244 1.397 . S
C243 C248 1.363 . S
C244 H221 0.950 1_455 S
C244 C243 1.397 . S
C244 C245 1.334 . S
C245 H222 0.950 . S
C245 C244 1.334 . S
C245 C246 1.287 . S
C246 C245 1.287 . S
C246 C247 1.524 . S
C246 H265 0.913 . S
C247 H223 0.950 . S
C247 C246 1.524 . S
C247 C248 1.415 . S
C248 H224 0.950 . S
C248 C243 1.363 . S
C248 C247 1.415 . S
C249 H225 0.951 . S
C249 C250 1.366 1_655 S
C249 C251 1.388 . S
C250 C249 1.366 1_455 S
C250 C254 1.385 . S
C251 H226 0.951 . S
C251 C249 1.388 . S
C251 C252 1.366 1_655 S
C252 C251 1.366 1_455 S
C252 C253 1.414 . S
C252 C255 1.499 . S
C253 H227 0.950 . S
C253 C252 1.414 . S
C253 C254 1.374 . S
C254 H228 0.950 . S
C254 C250 1.385 . S
C254 C253 1.374 . S
C255 C252 1.499 . S
C255 C256 1.373 . S
C255 C257 1.389 1_455 S
C256 H229 0.950 . S
C256 C242 1.377 . S
C256 C255 1.373 . S
C257 C241 1.377 . S
C257 C255 1.389 1_655 S
C257 C258 1.524 . S
C258 C257 1.524 . S
C258 C259 1.397 . S
C258 C263 1.363 . S
C259 H230 0.950 1_655 S
C259 C258 1.397 . S
C259 C260 1.334 . S
C260 H231 0.950 . S
C260 C259 1.334 . S
C260 C261 1.287 . S
C261 C260 1.287 . S
C261 C262 1.524 . S
C261 H264 0.999 . S
C262 H232 0.950 . S
C262 C261 1.524 . S
C262 C263 1.415 . S
C263 H233 0.950 . S
C263 C258 1.363 . S
C263 C262 1.415 . S
H264 C261 0.999 . S
H265 C246 0.913 . S
H266 C284 0.951 . S
H267 C286 0.951 . S
H268 C288 0.950 . S
H269 C289 0.950 . S
H270 C291 0.950 . S
H271 C294 0.950 . S
H272 C295 0.950 . S
H273 C297 0.950 . S
H274 C298 0.950 . S
H275 C299 0.951 . S
H276 C301 0.951 . S
H277 C303 0.950 . S
H278 C304 0.950 . S
H279 C306 0.950 . S
H280 C309 0.950 . S
H281 C310 0.950 . S
H282 C312 0.950 . S
H283 C313 0.950 . S
C284 H266 0.951 . S
C284 C285 1.366 1_655 S
C284 C286 1.388 . S
C285 C284 1.366 1_455 S
C285 C289 1.385 . S
C286 H267 0.951 . S
C286 C284 1.388 . S
C286 C287 1.366 1_655 S
C287 C286 1.366 1_455 S
C287 C288 1.414 . S
C287 C290 1.499 . S
C288 H268 0.950 . S
C288 C287 1.414 . S
C288 C289 1.374 . S
C289 H269 0.950 . S
C289 C285 1.385 . S
C289 C288 1.374 . S
C290 C287 1.499 . S
C290 C291 1.373 . S
C290 C292 1.389 . S
C291 H270 0.950 . S
C291 C290 1.373 . S
C291 C307 1.377 . S
C292 C290 1.389 . S
C292 C293 1.524 . S
C292 C306 1.377 . S
C293 C292 1.524 . S
C293 C294 1.397 . S
C293 C298 1.363 1_455 S
C294 H271 0.950 . S
C294 C293 1.397 . S
C294 C295 1.334 . S
C295 H272 0.950 . S
C295 C294 1.334 . S
C295 C296 1.287 . S
C296 C295 1.287 . S
C296 C297 1.524 1_455 S
C296 H315 0.913 . S
C297 H273 0.950 . S
C297 C296 1.524 1_655 S
C297 C298 1.415 . S
C298 H274 0.950 . S
C298 C293 1.363 1_655 S
C298 C297 1.415 . S
C299 H275 0.951 . S
C299 C300 1.366 . S
C299 C301 1.388 . S
C300 C299 1.366 . S
C300 C304 1.385 1_455 S
C301 H276 0.951 . S
C301 C299 1.388 . S
C301 C302 1.366 . S
C302 C301 1.366 . S
C302 C303 1.414 1_455 S
C302 C305 1.499 . S
C303 H277 0.950 . S
C303 C302 1.414 1_655 S
C303 C304 1.374 . S
C304 H278 0.950 . S
C304 C300 1.385 1_655 S
C304 C303 1.374 . S
C305 C302 1.499 . S
C305 C306 1.373 . S
C305 C307 1.389 . S
C306 H279 0.950 . S
C306 C292 1.377 . S
C306 C305 1.373 . S
C307 C291 1.377 . S
C307 C305 1.389 . S
C307 C308 1.524 . S
C308 C307 1.524 . S
C308 C309 1.397 1_455 S
C308 C313 1.363 . S
C309 H280 0.950 . S
C309 C308 1.397 1_655 S
C309 C310 1.334 . S
C310 H281 0.950 . S
C310 C309 1.334 . S
C310 C311 1.287 . S
C311 C310 1.287 . S
C311 C312 1.524 1_655 S
C311 H314 0.999 . S
C312 H282 0.950 . S
C312 C311 1.524 1_455 S
C312 C313 1.415 . S
C313 H283 0.950 . S
C313 C308 1.363 . S
C313 C312 1.415 . S
H314 C311 0.999 . S
H315 C296 0.913 . S
H316 C334 0.951 . S
H317 C336 0.951 . S
H318 C338 0.950 . S
H319 C339 0.950 . S
H320 C341 0.950 . S
H321 C344 0.950 . S
H322 C345 0.950 . S
H323 C347 0.950 . S
H324 C348 0.950 . S
H325 C349 0.951 . S
H326 C351 0.951 . S
H327 C353 0.950 . S
H328 C354 0.950 . S
H329 C356 0.950 . S
H330 C359 0.950 . S
H331 C360 0.950 . S
H332 C362 0.950 . S
H333 C363 0.950 . S
C334 H316 0.951 . S
C334 C335 1.366 . S
C334 C336 1.388 . S
C335 C334 1.366 . S
C335 C339 1.385 . S
C336 H317 0.951 . S
C336 C334 1.388 . S
C336 C337 1.366 . S
C337 C336 1.366 . S
C337 C338 1.414 . S
C337 C340 1.499 . S
C338 H318 0.950 . S
C338 C337 1.414 . S
C338 C339 1.374 . S
C339 H319 0.950 . S
C339 C335 1.385 . S
C339 C338 1.374 . S
C340 C337 1.499 . S
C340 C341 1.373 . S
C340 C342 1.389 . S
C341 H320 0.950 . S
C341 C340 1.373 . S
C341 C357 1.377 . S
C342 C340 1.389 . S
C342 C343 1.524 . S
C342 C356 1.377 . S
C343 C342 1.524 . S
C343 C344 1.397 . S
C343 C348 1.363 . S
C344 H321 0.950 . S
C344 C343 1.397 . S
C344 C345 1.334 . S
C345 H322 0.950 . S
C345 C344 1.334 . S
C345 C346 1.287 . S
C346 C345 1.287 . S
C346 C347 1.524 . S
C346 H365 0.913 . S
C347 H323 0.950 . S
C347 C346 1.524 . S
C347 C348 1.415 . S
C348 H324 0.950 . S
C348 C343 1.363 . S
C348 C347 1.415 . S
C349 H325 0.951 . S
C349 C350 1.366 . S
C349 C351 1.388 . S
C350 C349 1.366 . S
C350 C354 1.385 . S
C351 H326 0.951 . S
C351 C349 1.388 . S
C351 C352 1.366 . S
C352 C351 1.366 . S
C352 C353 1.414 . S
C352 C355 1.499 . S
C353 H327 0.950 . S
C353 C352 1.414 . S
C353 C354 1.374 . S
C354 H328 0.950 . S
C354 C350 1.385 . S
C354 C353 1.374 . S
C355 C352 1.499 . S
C355 C356 1.373 . S
C355 C357 1.389 . S
C356 H329 0.950 . S
C356 C342 1.377 . S
C356 C355 1.373 . S
C357 C341 1.377 . S
C357 C355 1.389 . S
C357 C358 1.524 . S
C358 C357 1.524 . S
C358 C359 1.397 . S
C358 C363 1.363 . S
C359 H330 0.950 . S
C359 C358 1.397 . S
C359 C360 1.334 . S
C360 H331 0.950 . S
C360 C359 1.334 . S
C360 C361 1.287 . S
C361 C360 1.287 . S
C361 C362 1.524 . S
C361 H364 0.999 . S
C362 H332 0.950 . S
C362 C361 1.524 . S
C362 C363 1.415 . S
C363 H333 0.950 . S
C363 C358 1.363 . S
C363 C362 1.415 . S
H364 C361 0.999 . S
H365 C346 0.913 . S
H366 C384 0.951 . S
H367 C386 0.951 . S
H368 C388 0.950 . S
H369 C389 0.950 . S
H370 C391 0.950 . S
H371 C394 0.950 . S
H372 C395 0.950 . S
H373 C397 0.950 . S
H374 C398 0.950 . S
H375 C399 0.951 . S
H376 C401 0.951 . S
H377 C403 0.950 . S
H378 C404 0.950 . S
H379 C406 0.950 . S
H380 C409 0.950 . S
H381 C410 0.950 . S
H382 C412 0.950 . S
H383 C413 0.950 . S
C384 H366 0.951 . S
C384 C385 1.366 . S
C384 C386 1.388 . S
C385 C384 1.366 . S
C385 C389 1.385 . S
C386 H367 0.951 . S
C386 C384 1.388 . S
C386 C387 1.366 . S
C387 C386 1.366 . S
C387 C388 1.414 . S
C387 C390 1.499 . S
C388 H368 0.950 . S
C388 C387 1.414 . S
C388 C389 1.374 . S
C389 H369 0.950 . S
C389 C385 1.385 . S
C389 C388 1.374 . S
C390 C387 1.499 . S
C390 C391 1.373 . S
C390 C392 1.389 . S
C391 H370 0.950 . S
C391 C390 1.373 . S
C391 C407 1.377 . S
C392 C390 1.389 . S
C392 C393 1.524 . S
C392 C406 1.377 . S
C393 C392 1.524 . S
C393 C394 1.397 . S
C393 C398 1.363 . S
C394 H371 0.950 . S
C394 C393 1.397 . S
C394 C395 1.334 . S
C395 H372 0.950 . S
C395 C394 1.334 . S
C395 C396 1.287 . S
C396 C395 1.287 . S
C396 C397 1.524 . S
C396 H415 0.913 . S
C397 H373 0.950 . S
C397 C396 1.524 . S
C397 C398 1.415 . S
C398 H374 0.950 . S
C398 C393 1.363 . S
C398 C397 1.415 . S
C399 H375 0.951 . S
C399 C400 1.366 . S
C399 C401 1.388 . S
C400 C399 1.366 . S
C400 C404 1.385 . S
C401 H376 0.951 . S
C401 C399 1.388 . S
C401 C402 1.366 . S
C402 C401 1.366 . S
C402 C403 1.414 . S
C402 C405 1.499 . S
C403 H377 0.950 . S
C403 C402 1.414 . S
C403 C404 1.374 . S
C404 H378 0.950 . S
C404 C400 1.385 . S
C404 C403 1.374 . S
C405 C402 1.499 . S
C405 C406 1.373 . S
C405 C407 1.389 . S
C406 H379 0.950 . S
C406 C392 1.377 . S
C406 C405 1.373 . S
C407 C391 1.377 . S
C407 C405 1.389 . S
C407 C408 1.524 . S
C408 C407 1.524 . S
C408 C409 1.397 . S
C408 C413 1.363 . S
C409 H380 0.950 . S
C409 C408 1.397 . S
C409 C410 1.334 . S
C410 H381 0.950 . S
C410 C409 1.334 . S
C410 C411 1.287 . S
C411 C410 1.287 . S
C411 C412 1.524 . S
C411 H414 0.999 . S
C412 H382 0.950 . S
C412 C411 1.524 . S
C412 C413 1.415 . S
C413 H383 0.950 . S
C413 C408 1.363 . S
C413 C412 1.415 . S
H414 C411 0.999 . S
H415 C396 0.913 . S
H416 C434 0.951 . S
H417 C436 0.951 . S
H418 C438 0.950 . S
H419 C439 0.950 . S
H420 C441 0.950 . S
H421 C444 0.950 . S
H422 C445 0.950 . S
H423 C447 0.950 . S
H424 C448 0.950 . S
H425 C449 0.951 . S
H426 C451 0.951 . S
H427 C453 0.950 . S
H428 C454 0.950 . S
H429 C456 0.950 . S
H430 C459 0.950 . S
H431 C460 0.950 . S
H432 C462 0.950 . S
H433 C463 0.950 . S
C434 H416 0.951 . S
C434 C435 1.366 . S
C434 C436 1.388 . S
C435 C434 1.366 . S
C435 C439 1.385 . S
C436 H417 0.951 . S
C436 C434 1.388 . S
C436 C437 1.366 . S
C437 C436 1.366 . S
C437 C438 1.414 . S
C437 C440 1.499 . S
C438 H418 0.950 . S
C438 C437 1.414 . S
C438 C439 1.374 . S
C439 H419 0.950 . S
C439 C435 1.385 . S
C439 C438 1.374 . S
C440 C437 1.499 . S
C440 C441 1.373 . S
C440 C442 1.389 . S
C441 H420 0.950 . S
C441 C440 1.373 . S
C441 C457 1.377 . S
C442 C440 1.389 . S
C442 C443 1.524 . S
C442 C456 1.377 . S
C443 C442 1.524 . S
C443 C444 1.397 . S
C443 C448 1.363 . S
C444 H421 0.950 . S
C444 C443 1.397 . S
C444 C445 1.334 . S
C445 H422 0.950 . S
C445 C444 1.334 . S
C445 C446 1.287 . S
C446 C445 1.287 . S
C446 C447 1.524 . S
C446 H465 0.913 . S
C447 H423 0.950 . S
C447 C446 1.524 . S
C447 C448 1.415 . S
C448 H424 0.950 . S
C448 C443 1.363 . S
C448 C447 1.415 . S
C449 H425 0.951 . S
C449 C450 1.366 . S
C449 C451 1.388 . S
C450 C449 1.366 . S
C450 C454 1.385 . S
C451 H426 0.951 . S
C451 C449 1.388 . S
C451 C452 1.366 . S
C452 C451 1.366 . S
C452 C453 1.414 . S
C452 C455 1.499 . S
C453 H427 0.950 . S
C453 C452 1.414 . S
C453 C454 1.374 . S
C454 H428 0.950 . S
C454 C450 1.385 . S
C454 C453 1.374 . S
C455 C452 1.499 . S
C455 C456 1.373 . S
C455 C457 1.389 . S
C456 H429 0.950 . S
C456 C442 1.377 . S
C456 C455 1.373 . S
C457 C441 1.377 . S
C457 C455 1.389 . S
C457 C458 1.524 . S
C458 C457 1.524 . S
C458 C459 1.397 . S
C458 C463 1.363 . S
C459 H430 0.950 . S
C459 C458 1.397 . S
C459 C460 1.334 . S
C460 H431 0.950 . S
C460 C459 1.334 . S
C460 C461 1.287 . S
C461 C460 1.287 . S
C461 C462 1.524 . S
C461 H464 0.999 . S
C462 H432 0.950 . S
C462 C461 1.524 . S
C462 C463 1.415 . S
C463 H433 0.950 . S
C463 C458 1.363 . S
C463 C462 1.415 . S
H464 C461 0.999 . S
H465 C446 0.913 . S
H466 C484 0.951 . S
H467 C486 0.951 . S
H468 C488 0.950 . S
H469 C489 0.950 . S
H470 C491 0.950 . S
H471 C494 0.950 . S
H472 C495 0.950 . S
H473 C497 0.950 . S
H474 C498 0.950 . S
H475 C499 0.951 . S
H476 C501 0.951 . S
H477 C503 0.950 . S
H478 C504 0.950 . S
H479 C506 0.950 . S
H480 C509 0.950 . S
H481 C510 0.950 . S
H482 C512 0.950 . S
H483 C513 0.950 . S
C484 H466 0.951 . S
C484 C485 1.366 . S
C484 C486 1.388 . S
C485 C484 1.366 . S
C485 C489 1.385 . S
C486 H467 0.951 . S
C486 C484 1.388 . S
C486 C487 1.366 . S
C487 C486 1.366 . S
C487 C488 1.414 . S
C487 C490 1.499 . S
C488 H468 0.950 . S
C488 C487 1.414 . S
C488 C489 1.374 . S
C489 H469 0.950 . S
C489 C485 1.385 . S
C489 C488 1.374 . S
C490 C487 1.499 . S
C490 C491 1.373 . S
C490 C492 1.389 . S
C491 H470 0.950 . S
C491 C490 1.373 . S
C491 C507 1.377 . S
C492 C490 1.389 . S
C492 C493 1.524 . S
C492 C506 1.377 . S
C493 C492 1.524 . S
C493 C494 1.397 . S
C493 C498 1.363 . S
C494 H471 0.950 . S
C494 C493 1.397 . S
C494 C495 1.334 . S
C495 H472 0.950 . S
C495 C494 1.334 . S
C495 C496 1.287 . S
C496 C495 1.287 . S
C496 C497 1.524 . S
C496 H515 0.913 . S
C497 H473 0.950 . S
C497 C496 1.524 . S
C497 C498 1.415 . S
C498 H474 0.950 . S
C498 C493 1.363 . S
C498 C497 1.415 . S
C499 H475 0.951 . S
C499 C500 1.366 . S
C499 C501 1.388 . S
C500 C499 1.366 . S
C500 C504 1.385 . S
C501 H476 0.951 . S
C501 C499 1.388 . S
C501 C502 1.366 . S
C502 C501 1.366 . S
C502 C503 1.414 . S
C502 C505 1.499 . S
C503 H477 0.950 . S
C503 C502 1.414 . S
C503 C504 1.374 . S
C504 H478 0.950 . S
C504 C500 1.385 . S
C504 C503 1.374 . S
C505 C502 1.499 . S
C505 C506 1.373 . S
C505 C507 1.389 . S
C506 H479 0.950 . S
C506 C492 1.377 . S
C506 C505 1.373 . S
C507 C491 1.377 . S
C507 C505 1.389 . S
C507 C508 1.524 . S
C508 C507 1.524 . S
C508 C509 1.397 . S
C508 C513 1.363 . S
C509 H480 0.950 . S
C509 C508 1.397 . S
C509 C510 1.334 . S
C510 H481 0.950 . S
C510 C509 1.334 . S
C510 C511 1.287 . S
C511 C510 1.287 . S
C511 C512 1.524 . S
C511 H514 0.999 . S
C512 H482 0.950 . S
C512 C511 1.524 . S
C512 C513 1.415 . S
C513 H483 0.950 . S
C513 C508 1.363 . S
C513 C512 1.415 . S
H514 C511 0.999 . S
H515 C496 0.913 . S
H516 C534 0.951 . S
H517 C536 0.951 . S
H518 C538 0.950 . S
H519 C539 0.950 . S
H520 C541 0.950 . S
H521 C544 0.950 . S
H522 C545 0.950 . S
H523 C547 0.950 . S
H524 C548 0.950 1_455 S
H525 C549 0.951 . S
H526 C551 0.951 . S
H527 C553 0.950 . S
H528 C554 0.950 . S
H529 C556 0.950 . S
H530 C559 0.950 . S
H531 C560 0.950 . S
H532 C562 0.950 . S
H533 C563 0.950 1_655 S
C534 H516 0.951 . S
C534 C535 1.366 . S
C534 C536 1.388 . S
C535 C534 1.366 . S
C535 C539 1.385 . S
C536 H517 0.951 . S
C536 C534 1.388 . S
C536 C537 1.366 . S
C537 C536 1.366 . S
C537 C538 1.414 . S
C537 C540 1.499 . S
C538 H518 0.950 . S
C538 C537 1.414 . S
C538 C539 1.374 . S
C539 H519 0.950 . S
C539 C535 1.385 . S
C539 C538 1.374 . S
C540 C537 1.499 . S
C540 C541 1.373 . S
C540 C542 1.389 . S
C541 H520 0.950 . S
C541 C540 1.373 . S
C541 C557 1.377 1_655 S
C542 C540 1.389 . S
C542 C543 1.524 . S
C542 C556 1.377 1_655 S
C543 C542 1.524 . S
C543 C544 1.397 . S
C543 C548 1.363 . S
C544 H521 0.950 . S
C544 C543 1.397 . S
C544 C545 1.334 . S
C545 H522 0.950 . S
C545 C544 1.334 . S
C545 C546 1.287 . S
C546 C545 1.287 . S
C546 C547 1.524 . S
C546 H565 0.913 . S
C547 H523 0.950 . S
C547 C546 1.524 . S
C547 C548 1.415 . S
C548 H524 0.950 1_655 S
C548 C543 1.363 . S
C548 C547 1.415 . S
C549 H525 0.951 . S
C549 C550 1.366 . S
C549 C551 1.388 . S
C550 C549 1.366 . S
C550 C554 1.385 . S
C551 H526 0.951 . S
C551 C549 1.388 . S
C551 C552 1.366 . S
C552 C551 1.366 . S
C552 C553 1.414 . S
C552 C555 1.499 . S
C553 H527 0.950 . S
C553 C552 1.414 . S
C553 C554 1.374 . S
C554 H528 0.950 . S
C554 C550 1.385 . S
C554 C553 1.374 . S
C555 C552 1.499 . S
C555 C556 1.373 . S
C555 C557 1.389 . S
C556 H529 0.950 . S
C556 C542 1.377 1_455 S
C556 C555 1.373 . S
C557 C541 1.377 1_455 S
C557 C555 1.389 . S
C557 C558 1.524 . S
C558 C557 1.524 . S
C558 C559 1.397 . S
C558 C563 1.363 . S
C559 H530 0.950 . S
C559 C558 1.397 . S
C559 C560 1.334 . S
C560 H531 0.950 . S
C560 C559 1.334 . S
C560 C561 1.287 . S
C561 C560 1.287 . S
C561 C562 1.524 . S
C561 H564 0.999 . S
C562 H532 0.950 . S
C562 C561 1.524 . S
C562 C563 1.415 . S
C563 H533 0.950 1_455 S
C563 C558 1.363 . S
C563 C562 1.415 . S
H564 C561 0.999 . S
H565 C546 0.913 . S
H566 C584 0.951 . S
H567 C586 0.951 . S
H568 C588 0.950 . S
H569 C589 0.950 . S
H570 C591 0.950 . S
H571 C594 0.950 . S
H572 C595 0.950 . S
H573 C597 0.950 . S
H574 C598 0.950 1_455 S
H575 C599 0.951 . S
H576 C601 0.951 . S
H577 C603 0.950 . S
H578 C604 0.950 . S
H579 C606 0.950 . S
H580 C609 0.950 . S
H581 C610 0.950 . S
H582 C612 0.950 . S
H583 C613 0.950 . S
C584 H566 0.951 . S
C584 C585 1.366 . S
C584 C586 1.388 . S
C585 C584 1.366 . S
C585 C589 1.385 . S
C586 H567 0.951 . S
C586 C584 1.388 . S
C586 C587 1.366 . S
C587 C586 1.366 . S
C587 C588 1.414 . S
C587 C590 1.499 . S
C588 H568 0.950 . S
C588 C587 1.414 . S
C588 C589 1.374 . S
C589 H569 0.950 . S
C589 C585 1.385 . S
C589 C588 1.374 . S
C590 C587 1.499 . S
C590 C591 1.373 . S
C590 C592 1.389 . S
C591 H570 0.950 . S
C591 C590 1.373 . S
C591 C607 1.377 1_655 S
C592 C590 1.389 . S
C592 C593 1.524 . S
C592 C606 1.377 1_655 S
C593 C592 1.524 . S
C593 C594 1.397 . S
C593 C598 1.363 . S
C594 H571 0.950 . S
C594 C593 1.397 . S
C594 C595 1.334 . S
C595 H572 0.950 . S
C595 C594 1.334 . S
C595 C596 1.287 . S
C596 C595 1.287 . S
C596 C597 1.524 . S
C596 H615 0.913 . S
C597 H573 0.950 . S
C597 C596 1.524 . S
C597 C598 1.415 . S
C598 H574 0.950 1_655 S
C598 C593 1.363 . S
C598 C597 1.415 . S
C599 H575 0.951 . S
C599 C600 1.366 . S
C599 C601 1.388 . S
C600 C599 1.366 . S
C600 C604 1.385 . S
C601 H576 0.951 . S
C601 C599 1.388 . S
C601 C602 1.366 . S
C602 C601 1.366 . S
C602 C603 1.414 . S
C602 C605 1.499 . S
C603 H577 0.950 . S
C603 C602 1.414 . S
C603 C604 1.374 . S
C604 H578 0.950 . S
C604 C600 1.385 . S
C604 C603 1.374 . S
C605 C602 1.499 . S
C605 C606 1.373 . S
C605 C607 1.389 . S
C606 H579 0.950 . S
C606 C592 1.377 1_455 S
C606 C605 1.373 . S
C607 C591 1.377 1_455 S
C607 C605 1.389 . S
C607 C608 1.524 . S
C608 C607 1.524 . S
C608 C609 1.397 . S
C608 C613 1.363 . S
C609 H580 0.950 . S
C609 C608 1.397 . S
C609 C610 1.334 . S
C610 H581 0.950 . S
C610 C609 1.334 . S
C610 C611 1.287 . S
C611 C610 1.287 . S
C611 C612 1.524 . S
C611 H614 0.999 . S
C612 H582 0.950 . S
C612 C611 1.524 . S
C612 C613 1.415 . S
C613 H583 0.950 . S
C613 C608 1.363 . S
C613 C612 1.415 . S
H614 C611 0.999 . S
H615 C596 0.913 . S
H616 C634 0.951 . S
H617 C636 0.951 . S
H618 C638 0.950 . S
H619 C639 0.950 . S
H620 C641 0.950 . S
H621 C644 0.950 . S
H622 C645 0.950 . S
H623 C647 0.950 . S
H624 C648 0.950 . S
H625 C649 0.951 . S
H626 C651 0.951 . S
H627 C653 0.950 . S
H628 C654 0.950 . S
H629 C656 0.950 . S
H630 C659 0.950 . S
H631 C660 0.950 . S
H632 C662 0.950 . S
H633 C663 0.950 . S
C634 H616 0.951 . S
C634 C635 1.366 . S
C634 C636 1.388 . S
C635 C634 1.366 . S
C635 C639 1.385 . S
C636 H617 0.951 . S
C636 C634 1.388 . S
C636 C637 1.366 . S
C637 C636 1.366 . S
C637 C638 1.414 . S
C637 C640 1.499 . S
C638 H618 0.950 . S
C638 C637 1.414 . S
C638 C639 1.374 . S
C639 H619 0.950 . S
C639 C635 1.385 . S
C639 C638 1.374 . S
C640 C637 1.499 . S
C640 C641 1.373 . S
C640 C642 1.389 . S
C641 H620 0.950 . S
C641 C640 1.373 . S
C641 C657 1.377 . S
C642 C640 1.389 . S
C642 C643 1.524 . S
C642 C656 1.377 . S
C643 C642 1.524 . S
C643 C644 1.397 . S
C643 C648 1.363 . S
C644 H621 0.950 . S
C644 C643 1.397 . S
C644 C645 1.334 . S
C645 H622 0.950 . S
C645 C644 1.334 . S
C645 C646 1.287 . S
C646 C645 1.287 . S
C646 C647 1.524 . S
C646 H665 0.913 . S
C647 H623 0.950 . S
C647 C646 1.524 . S
C647 C648 1.415 . S
C648 H624 0.950 . S
C648 C643 1.363 . S
C648 C647 1.415 . S
C649 H625 0.951 . S
C649 C650 1.366 . S
C649 C651 1.388 . S
C650 C649 1.366 . S
C650 C654 1.385 . S
C651 H626 0.951 . S
C651 C649 1.388 . S
C651 C652 1.366 . S
C652 C651 1.366 . S
C652 C653 1.414 . S
C652 C655 1.499 . S
C653 H627 0.950 . S
C653 C652 1.414 . S
C653 C654 1.374 . S
C654 H628 0.950 . S
C654 C650 1.385 . S
C654 C653 1.374 . S
C655 C652 1.499 . S
C655 C656 1.373 . S
C655 C657 1.389 . S
C656 H629 0.950 . S
C656 C642 1.377 . S
C656 C655 1.373 . S
C657 C641 1.377 . S
C657 C655 1.389 . S
C657 C658 1.524 . S
C658 C657 1.524 . S
C658 C659 1.397 . S
C658 C663 1.363 . S
C659 H630 0.950 . S
C659 C658 1.397 . S
C659 C660 1.334 . S
C660 H631 0.950 . S
C660 C659 1.334 . S
C660 C661 1.287 . S
C661 C660 1.287 . S
C661 C662 1.524 . S
C661 H664 0.999 . S
C662 H632 0.950 . S
C662 C661 1.524 . S
C662 C663 1.415 . S
C663 H633 0.950 . S
C663 C658 1.363 . S
C663 C662 1.415 . S
H664 C661 0.999 . S
H665 C646 0.913 . S
H666 C684 0.951 . S
H667 C686 0.951 . S
H668 C688 0.950 1_554 S
H669 C689 0.950 . S
H670 C691 0.950 . S
H671 C694 0.950 . S
H672 C695 0.950 . S
H673 C697 0.950 . S
H674 C698 0.950 . S
H675 C699 0.951 . S
H676 C701 0.951 . S
H677 C703 0.950 1_556 S
H678 C704 0.950 . S
H679 C706 0.950 . S
H680 C709 0.950 . S
H681 C710 0.950 . S
H682 C712 0.950 . S
H683 C713 0.950 . S
C684 H666 0.951 . S
C684 C685 1.366 . S
C684 C686 1.388 . S
C685 C684 1.366 . S
C685 C689 1.385 . S
C686 H667 0.951 . S
C686 C684 1.388 . S
C686 C687 1.366 . S
C687 C686 1.366 . S
C687 C688 1.414 . S
C687 C690 1.499 . S
C688 H668 0.950 1_556 S
C688 C687 1.414 . S
C688 C689 1.374 . S
C689 H669 0.950 . S
C689 C685 1.385 . S
C689 C688 1.374 . S
C690 C687 1.499 . S
C690 C691 1.373 1_556 S
C690 C692 1.389 . S
C691 H670 0.950 . S
C691 C690 1.373 1_554 S
C691 C707 1.377 . S
C692 C690 1.389 . S
C692 C693 1.524 . S
C692 C706 1.377 . S
C693 C692 1.524 . S
C693 C694 1.397 . S
C693 C698 1.363 . S
C694 H671 0.950 . S
C694 C693 1.397 . S
C694 C695 1.334 . S
C695 H672 0.950 . S
C695 C694 1.334 . S
C695 C696 1.287 . S
C696 C695 1.287 . S
C696 C697 1.524 . S
C696 H715 0.913 . S
C697 H673 0.950 . S
C697 C696 1.524 . S
C697 C698 1.415 . S
C698 H674 0.950 . S
C698 C693 1.363 . S
C698 C697 1.415 . S
C699 H675 0.951 . S
C699 C700 1.366 . S
C699 C701 1.388 . S
C700 C699 1.366 . S
C700 C704 1.385 . S
C701 H676 0.951 . S
C701 C699 1.388 . S
C701 C702 1.366 . S
C702 C701 1.366 . S
C702 C703 1.414 . S
C702 C705 1.499 . S
C703 H677 0.950 1_554 S
C703 C702 1.414 . S
C703 C704 1.374 . S
C704 H678 0.950 . S
C704 C700 1.385 . S
C704 C703 1.374 . S
C705 C702 1.499 . S
C705 C706 1.373 1_554 S
C705 C707 1.389 . S
C706 H679 0.950 . S
C706 C692 1.377 . S
C706 C705 1.373 1_556 S
C707 C691 1.377 . S
C707 C705 1.389 . S
C707 C708 1.524 . S
C708 C707 1.524 . S
C708 C709 1.397 . S
C708 C713 1.363 . S
C709 H680 0.950 . S
C709 C708 1.397 . S
C709 C710 1.334 . S
C710 H681 0.950 . S
C710 C709 1.334 . S
C710 C711 1.287 . S
C711 C710 1.287 . S
C711 C712 1.524 . S
C711 H714 0.999 . S
C712 H682 0.950 . S
C712 C711 1.524 . S
C712 C713 1.415 . S
C713 H683 0.950 . S
C713 C708 1.363 . S
C713 C712 1.415 . S
H714 C711 0.999 . S
H715 C696 0.913 . S
H716 C734 0.951 . S
H717 C736 0.951 . S
H718 C738 0.950 . S
H719 C739 0.950 . S
H720 C741 0.950 . S
H721 C744 0.950 . S
H722 C745 0.950 . S
H723 C747 0.950 . S
H724 C748 0.950 . S
H725 C749 0.951 1_455 S
H726 C751 0.951 . S
H727 C753 0.950 . S
H728 C754 0.950 . S
H729 C756 0.950 . S
H730 C759 0.950 . S
H731 C760 0.950 . S
H732 C762 0.950 . S
H733 C763 0.950 . S
C734 H716 0.951 . S
C734 C735 1.366 . S
C734 C736 1.388 . S
C735 C734 1.366 . S
C735 C739 1.385 . S
C736 H717 0.951 . S
C736 C734 1.388 . S
C736 C737 1.366 . S
C737 C736 1.366 . S
C737 C738 1.414 . S
C737 C740 1.499 . S
C738 H718 0.950 . S
C738 C737 1.414 . S
C738 C739 1.374 . S
C739 H719 0.950 . S
C739 C735 1.385 . S
C739 C738 1.374 . S
C740 C737 1.499 . S
C740 C741 1.373 . S
C740 C742 1.389 . S
C741 H720 0.950 . S
C741 C740 1.373 . S
C741 C757 1.377 . S
C742 C740 1.389 . S
C742 C743 1.524 . S
C742 C756 1.377 . S
C743 C742 1.524 . S
C743 C744 1.397 . S
C743 C748 1.363 . S
C744 H721 0.950 . S
C744 C743 1.397 . S
C744 C745 1.334 . S
C745 H722 0.950 . S
C745 C744 1.334 . S
C745 C746 1.287 . S
C746 C745 1.287 . S
C746 C747 1.524 . S
C746 H765 0.913 . S
C747 H723 0.950 . S
C747 C746 1.524 . S
C747 C748 1.415 . S
C748 H724 0.950 . S
C748 C743 1.363 . S
C748 C747 1.415 . S
C749 H725 0.951 1_655 S
C749 C750 1.366 . S
C749 C751 1.388 . S
C750 C749 1.366 . S
C750 C754 1.385 . S
C751 H726 0.951 . S
C751 C749 1.388 . S
C751 C752 1.366 . S
C752 C751 1.366 . S
C752 C753 1.414 . S
C752 C755 1.499 . S
C753 H727 0.950 . S
C753 C752 1.414 . S
C753 C754 1.374 . S
C754 H728 0.950 . S
C754 C750 1.385 . S
C754 C753 1.374 . S
C755 C752 1.499 . S
C755 C756 1.373 . S
C755 C757 1.389 . S
C756 H729 0.950 . S
C756 C742 1.377 . S
C756 C755 1.373 . S
C757 C741 1.377 . S
C757 C755 1.389 . S
C757 C758 1.524 . S
C758 C757 1.524 . S
C758 C759 1.397 . S
C758 C763 1.363 . S
C759 H730 0.950 . S
C759 C758 1.397 . S
C759 C760 1.334 . S
C760 H731 0.950 . S
C760 C759 1.334 . S
C760 C761 1.287 . S
C761 C760 1.287 . S
C761 C762 1.524 . S
C761 H764 0.999 . S
C762 H732 0.950 . S
C762 C761 1.524 . S
C762 C763 1.415 . S
C763 H733 0.950 . S
C763 C758 1.363 . S
C763 C762 1.415 . S
H764 C761 0.999 . S
H765 C746 0.913 . S
H766 C784 0.951 . S
H767 C786 0.951 . S
H768 C788 0.950 1_556 S
H769 C789 0.950 . S
H770 C791 0.950 . S
H771 C794 0.950 . S
H772 C795 0.950 . S
H773 C797 0.950 . S
H774 C798 0.950 . S
H775 C799 0.951 . S
H776 C801 0.951 . S
H777 C803 0.950 1_554 S
H778 C804 0.950 . S
H779 C806 0.950 . S
H780 C809 0.950 . S
H781 C810 0.950 . S
H782 C812 0.950 . S
H783 C813 0.950 . S
C784 H766 0.951 . S
C784 C785 1.366 . S
C784 C786 1.388 . S
C785 C784 1.366 . S
C785 C789 1.385 . S
C786 H767 0.951 . S
C786 C784 1.388 . S
C786 C787 1.366 . S
C787 C786 1.366 . S
C787 C788 1.414 . S
C787 C790 1.499 . S
C788 H768 0.950 1_554 S
C788 C787 1.414 . S
C788 C789 1.374 . S
C789 H769 0.950 . S
C789 C785 1.385 . S
C789 C788 1.374 . S
C790 C787 1.499 . S
C790 C791 1.373 1_554 S
C790 C792 1.389 . S
C791 H770 0.950 . S
C791 C790 1.373 1_556 S
C791 C807 1.377 . S
C792 C790 1.389 . S
C792 C793 1.524 . S
C792 C806 1.377 . S
C793 C792 1.524 . S
C793 C794 1.397 . S
C793 C798 1.363 . S
C794 H771 0.950 . S
C794 C793 1.397 . S
C794 C795 1.334 . S
C795 H772 0.950 . S
C795 C794 1.334 . S
C795 C796 1.287 . S
C796 C795 1.287 . S
C796 C797 1.524 . S
C796 H815 0.913 . S
C797 H773 0.950 . S
C797 C796 1.524 . S
C797 C798 1.415 . S
C798 H774 0.950 . S
C798 C793 1.363 . S
C798 C797 1.415 . S
C799 H775 0.951 . S
C799 C800 1.366 . S
C799 C801 1.388 . S
C800 C799 1.366 . S
C800 C804 1.385 . S
C801 H776 0.951 . S
C801 C799 1.388 . S
C801 C802 1.366 . S
C802 C801 1.366 . S
C802 C803 1.414 . S
C802 C805 1.499 . S
C803 H777 0.950 1_556 S
C803 C802 1.414 . S
C803 C804 1.374 . S
C804 H778 0.950 . S
C804 C800 1.385 . S
C804 C803 1.374 . S
C805 C802 1.499 . S
C805 C806 1.373 1_556 S
C805 C807 1.389 . S
C806 H779 0.950 . S
C806 C792 1.377 . S
C806 C805 1.373 1_554 S
C807 C791 1.377 . S
C807 C805 1.389 . S
C807 C808 1.524 . S
C808 C807 1.524 . S
C808 C809 1.397 . S
C808 C813 1.363 . S
C809 H780 0.950 . S
C809 C808 1.397 . S
C809 C810 1.334 . S
C810 H781 0.950 . S
C810 C809 1.334 . S
C810 C811 1.287 . S
C811 C810 1.287 . S
C811 C812 1.524 . S
C811 H814 0.999 . S
C812 H782 0.950 . S
C812 C811 1.524 . S
C812 C813 1.415 . S
C813 H783 0.950 . S
C813 C808 1.363 . S
C813 C812 1.415 . S
H814 C811 0.999 . S
H815 C796 0.913 . S
H816 C834 0.951 . S
H817 C836 0.951 . S
H818 C838 0.950 . S
H819 C839 0.950 . S
H820 C841 0.950 . S
H821 C844 0.950 . S
H822 C845 0.950 . S
H823 C847 0.959 . S
H824 C848 0.950 . S
H825 C849 0.951 . S
H826 C851 0.951 . S
H827 C853 0.950 . S
H828 C854 0.950 1_655 S
H829 C856 0.950 . S
H830 C859 0.950 . S
H831 C860 0.950 . S
H832 C862 0.943 1_554 S
H833 C863 0.950 . S
C834 H816 0.951 . S
C834 C835 1.366 . S
C834 C836 1.388 . S
C835 C834 1.366 . S
C835 C839 1.385 1_655 S
C836 H817 0.951 . S
C836 C834 1.388 . S
C836 C837 1.366 . S
C837 C836 1.366 . S
C837 C838 1.414 1_655 S
C837 C840 1.499 . S
C838 H818 0.950 . S
C838 C837 1.414 1_455 S
C838 C839 1.374 . S
C839 H819 0.950 . S
C839 C835 1.385 1_455 S
C839 C838 1.374 . S
C840 C837 1.499 . S
C840 C841 1.373 1_655 S
C840 C842 1.390 . S
C841 H820 0.950 . S
C841 C840 1.373 1_455 S
C841 C857 1.377 1_544 S
C842 C840 1.390 . S
C842 C843 1.524 . S
C842 C856 1.377 1_544 S
C843 C842 1.524 . S
C843 C844 1.397 . S
C843 C848 1.363 1_554 S
C844 H821 0.950 . S
C844 C843 1.397 . S
C844 C845 1.334 . S
C845 H822 0.950 . S
C845 C844 1.334 . S
C845 C846 1.287 . S
C846 C845 1.287 . S
C846 C847 1.509 1_554 S
C846 H865 0.913 . S
C847 H823 0.959 . S
C847 C846 1.509 1_556 S
C847 C848 1.419 . S
C848 H824 0.950 . S
C848 C843 1.363 1_556 S
C848 C847 1.419 . S
C849 H825 0.951 . S
C849 C850 1.366 . S
C849 C851 1.388 . S
C850 C849 1.366 . S
C850 C854 1.385 . S
C851 H826 0.951 . S
C851 C849 1.388 . S
C851 C852 1.366 . S
C852 C851 1.366 . S
C852 C853 1.414 1_455 S
C852 C855 1.499 . S
C853 H827 0.950 . S
C853 C852 1.414 1_655 S
C853 C854 1.374 1_655 S
C854 H828 0.950 1_455 S
C854 C850 1.385 . S
C854 C853 1.374 1_455 S
C855 C852 1.499 . S
C855 C856 1.373 1_455 S
C855 C857 1.389 . S
C856 H829 0.950 . S
C856 C842 1.377 1_566 S
C856 C855 1.373 1_655 S
C857 C841 1.377 1_566 S
C857 C855 1.389 . S
C857 C858 1.524 . S
C858 C857 1.524 . S
C858 C859 1.397 . S
C858 C863 1.363 1_556 S
C859 H830 0.950 . S
C859 C858 1.397 . S
C859 C860 1.334 . S
C860 H831 0.950 . S
C860 C859 1.334 . S
C860 C861 1.287 . S
C861 C860 1.287 . S
C861 C862 1.534 . S
C861 H864 0.999 . S
C862 H832 0.943 1_556 S
C862 C861 1.534 . S
C862 C863 1.412 1_556 S
C863 H833 0.950 . S
C863 C858 1.363 1_554 S
C863 C862 1.412 1_554 S
H864 C861 0.999 . S
H865 C846 0.913 . S
H866 C884 0.951 . S
H867 C886 0.951 . S
H868 C888 0.950 . S
H869 C889 0.950 . S
H870 C891 0.950 . S
H871 C894 0.950 . S
H872 C895 0.950 . S
H873 C897 0.950 . S
H874 C898 0.950 1_565 S
H875 C899 0.951 . S
H876 C901 0.951 . S
H877 C903 0.950 . S
H878 C904 0.950 . S
H879 C906 0.950 . S
H880 C909 0.950 . S
H881 C910 0.950 . S
H882 C912 0.950 . S
H883 C913 0.950 1_545 S
C884 H866 0.951 . S
C884 C885 1.366 1_655 S
C884 C886 1.388 . S
C885 C884 1.366 1_455 S
C885 C889 1.385 . S
C886 H867 0.951 . S
C886 C884 1.388 . S
C886 C887 1.366 1_655 S
C887 C886 1.366 1_455 S
C887 C888 1.414 . S
C887 C890 1.499 . S
C888 H868 0.950 . S
C888 C887 1.414 . S
C888 C889 1.374 . S
C889 H869 0.950 . S
C889 C885 1.385 . S
C889 C888 1.374 . S
C890 C887 1.499 . S
C890 C891 1.373 . S
C890 C892 1.389 1_455 S
C891 H870 0.950 . S
C891 C890 1.373 . S
C891 C907 1.377 1_545 S
C892 C890 1.389 1_655 S
C892 C893 1.524 . S
C892 C906 1.377 1_545 S
C893 C892 1.524 . S
C893 C894 1.397 . S
C893 C898 1.363 . S
C894 H871 0.950 . S
C894 C893 1.397 . S
C894 C895 1.334 . S
C895 H872 0.950 . S
C895 C894 1.334 . S
C895 C896 1.287 . S
C896 C895 1.287 . S
C896 C897 1.524 . S
C896 H915 0.913 . S
C897 H873 0.950 . S
C897 C896 1.524 . S
C897 C898 1.415 . S
C898 H874 0.950 1_545 S
C898 C893 1.363 . S
C898 C897 1.415 . S
C899 H875 0.951 . S
C899 C900 1.366 1_455 S
C899 C901 1.388 . S
C900 C899 1.366 1_655 S
C900 C904 1.385 . S
C901 H876 0.951 . S
C901 C899 1.388 . S
C901 C902 1.366 . S
C902 C901 1.366 . S
C902 C903 1.414 1_455 S
C902 C905 1.499 . S
C903 H877 0.950 . S
C903 C902 1.414 1_655 S
C903 C904 1.374 . S
C904 H878 0.950 . S
C904 C900 1.385 . S
C904 C903 1.374 . S
C905 C902 1.499 . S
C905 C906 1.373 1_455 S
C905 C907 1.389 . S
C906 H879 0.950 . S
C906 C892 1.377 1_565 S
C906 C905 1.373 1_655 S
C907 C891 1.377 1_565 S
C907 C905 1.389 . S
C907 C908 1.524 . S
C908 C907 1.524 . S
C908 C909 1.397 . S
C908 C913 1.363 . S
C909 H880 0.950 . S
C909 C908 1.397 . S
C909 C910 1.334 . S
C910 H881 0.950 . S
C910 C909 1.334 . S
C910 C911 1.287 . S
C911 C910 1.287 . S
C911 C912 1.524 . S
C911 H914 0.999 . S
C912 H882 0.950 . S
C912 C911 1.524 . S
C912 C913 1.415 . S
C913 H883 0.950 1_565 S
C913 C908 1.363 . S
C913 C912 1.415 . S
H914 C911 0.999 . S
H915 C896 0.913 . S
H916 C934 0.951 . S
H917 C936 0.951 . S
H918 C938 0.950 . S
H919 C939 0.950 . S
H920 C941 0.950 . S
H921 C944 0.950 . S
H922 C945 0.950 . S
H923 C947 0.950 . S
H924 C948 0.950 . S
H925 C949 0.951 . S
H926 C951 0.951 . S
H927 C953 0.950 . S
H928 C954 0.950 . S
H929 C956 0.950 . S
H930 C959 0.950 . S
H931 C960 0.950 . S
H932 C962 0.950 . S
H933 C963 0.950 . S
C934 H916 0.951 . S
C934 C935 1.366 . S
C934 C936 1.388 . S
C935 C934 1.366 . S
C935 C939 1.385 . S
C936 H917 0.951 . S
C936 C934 1.388 . S
C936 C937 1.366 . S
C937 C936 1.366 . S
C937 C938 1.414 . S
C937 C940 1.499 . S
C938 H918 0.950 . S
C938 C937 1.414 . S
C938 C939 1.374 . S
C939 H919 0.950 . S
C939 C935 1.385 . S
C939 C938 1.374 . S
C940 C937 1.499 . S
C940 C941 1.373 . S
C940 C942 1.389 . S
C941 H920 0.950 . S
C941 C940 1.373 . S
C941 C957 1.377 1_554 S
C942 C940 1.389 . S
C942 C943 1.524 . S
C942 C956 1.377 1_554 S
C943 C942 1.524 . S
C943 C944 1.397 1_554 S
C943 C948 1.363 . S
C944 H921 0.950 . S
C944 C943 1.397 1_556 S
C944 C945 1.334 . S
C945 H922 0.950 . S
C945 C944 1.334 . S
C945 C946 1.287 . S
C946 C945 1.287 . S
C946 C947 1.524 1_556 S
C946 H965 0.913 . S
C947 H923 0.950 . S
C947 C946 1.524 1_554 S
C947 C948 1.415 . S
C948 H924 0.950 . S
C948 C943 1.363 . S
C948 C947 1.415 . S
C949 H925 0.951 . S
C949 C950 1.366 . S
C949 C951 1.388 . S
C950 C949 1.366 . S
C950 C954 1.385 . S
C951 H926 0.951 . S
C951 C949 1.388 . S
C951 C952 1.366 . S
C952 C951 1.366 . S
C952 C953 1.414 . S
C952 C955 1.499 . S
C953 H927 0.950 . S
C953 C952 1.414 . S
C953 C954 1.374 . S
C954 H928 0.950 . S
C954 C950 1.385 . S
C954 C953 1.374 . S
C955 C952 1.499 . S
C955 C956 1.373 . S
C955 C957 1.389 . S
C956 H929 0.950 . S
C956 C942 1.377 1_556 S
C956 C955 1.373 . S
C957 C941 1.377 1_556 S
C957 C955 1.389 . S
C957 C958 1.524 . S
C958 C957 1.524 . S
C958 C959 1.397 1_556 S
C958 C963 1.363 . S
C959 H930 0.950 . S
C959 C958 1.397 1_554 S
C959 C960 1.334 . S
C960 H931 0.950 . S
C960 C959 1.334 . S
C960 C961 1.287 . S
C961 C960 1.287 . S
C961 C962 1.524 1_554 S
C961 H964 0.999 . S
C962 H932 0.950 . S
C962 C961 1.524 1_556 S
C962 C963 1.415 . S
C963 H933 0.950 . S
C963 C958 1.363 . S
C963 C962 1.415 . S
H964 C961 0.999 . S
H965 C946 0.913 . S
H966 C984 0.951 . S
H967 C986 0.951 . S
H968 C988 0.950 . S
H969 C989 0.950 . S
H970 C991 0.950 . S
H971 C994 0.950 . S
H972 C995 0.950 . S
H973 C997 0.950 . S
H974 C998 0.950 . S
H975 C999 0.951 . S
H976 C1001 0.951 . S
H977 C1003 0.950 . S
H978 C1004 0.950 . S
H979 C1006 0.950 . S
H980 C1009 0.950 . S
H981 C1010 0.950 . S
H982 C1012 0.950 . S
H983 C1013 0.950 . S
C984 H966 0.951 . S
C984 C985 1.366 . S
C984 C986 1.388 . S
C985 C984 1.366 . S
C985 C989 1.385 . S
C986 H967 0.951 . S
C986 C984 1.388 . S
C986 C987 1.366 . S
C987 C986 1.366 . S
C987 C988 1.414 . S
C987 C990 1.499 . S
C988 H968 0.950 . S
C988 C987 1.414 . S
C988 C989 1.374 . S
C989 H969 0.950 . S
C989 C985 1.385 . S
C989 C988 1.374 . S
C990 C987 1.499 . S
C990 C991 1.373 . S
C990 C992 1.389 . S
C991 H970 0.950 . S
C991 C990 1.373 . S
C991 C1007 1.377 . S
C992 C990 1.389 . S
C992 C993 1.524 . S
C992 C1006 1.377 . S
C993 C992 1.524 . S
C993 C994 1.397 . S
C993 C998 1.363 . S
C994 H971 0.950 . S
C994 C993 1.397 . S
C994 C995 1.334 . S
C995 H972 0.950 . S
C995 C994 1.334 . S
C995 C996 1.287 . S
C996 C995 1.287 . S
C996 C997 1.524 . S
C996 H1015 0.913 . S
C997 H973 0.950 . S
C997 C996 1.524 . S
C997 C998 1.415 . S
C998 H974 0.950 . S
C998 C993 1.363 . S
C998 C997 1.415 . S
C999 H975 0.951 . S
C999 C1000 1.366 . S
C999 C1001 1.388 . S
C1000 C999 1.366 . S
C1000 C1004 1.385 . S
C1001 H976 0.951 . S
C1001 C999 1.388 . S
C1001 C1002 1.366 . S
C1002 C1001 1.366 . S
C1002 C1003 1.414 . S
C1002 C1005 1.499 . S
C1003 H977 0.950 . S
C1003 C1002 1.414 . S
C1003 C1004 1.374 . S
C1004 H978 0.950 . S
C1004 C1000 1.385 . S
C1004 C1003 1.374 . S
C1005 C1002 1.499 . S
C1005 C1006 1.373 . S
C1005 C1007 1.389 . S
C1006 H979 0.950 . S
C1006 C992 1.377 . S
C1006 C1005 1.373 . S
C1007 C991 1.377 . S
C1007 C1005 1.389 . S
C1007 C1008 1.524 . S
C1008 C1007 1.524 . S
C1008 C1009 1.397 . S
C1008 C1013 1.363 . S
C1009 H980 0.950 . S
C1009 C1008 1.397 . S
C1009 C1010 1.334 . S
C1010 H981 0.950 . S
C1010 C1009 1.334 . S
C1010 C1011 1.287 . S
C1011 C1010 1.287 . S
C1011 C1012 1.524 . S
C1011 H1014 0.999 . S
C1012 H982 0.950 . S
C1012 C1011 1.524 . S
C1012 C1013 1.415 . S
C1013 H983 0.950 . S
C1013 C1008 1.363 . S
C1013 C1012 1.415 . S
H1014 C1011 0.999 . S
H1015 C996 0.913 . S
C235 C5 1.968 1_556 S
C250 C13 1.969 . S
C285 C59 1.969 . S
C300 C67 1.970 1_554 S
C335 C113 1.968 1_556 S
C350 C121 1.969 . S
C385 C175 1.970 1_554 S
C400 C167 1.969 . S
C435 C10 0.474 . S
C450 C27 0.474 . S
C485 C64 0.474 . S
C500 C81 0.474 . S
C535 C135 0.474 . S
C550 C118 0.474 . S
C585 C189 0.473 . S
C600 C172 0.473 . S
C635 C190 1.440 . S
C650 C35 1.440 . S
C685 C194 2.320 . S
C700 C22 2.315 . S
C735 C143 1.440 . S
C750 C82 1.440 . S
C785 C130 2.316 . S
C800 C86 2.320 . S
C835 C28 0.349 . S
C850 C89 0.349 . S
C885 C32 2.082 . S
C900 C76 2.084 . S
C935 C136 0.352 . S
C950 C197 0.352 . S
C985 C184 2.083 . S
C1000 C140 2.081 . S
