# Generated by pormake.
# Topology upb, (4)-cn, num edge types: 1
# Building blocks:
#     Node 0, Type 0, BuildingBlock: KUFVIS_clean_sbu_0, # of connection points: 4
#     Node 1, Type 0, BuildingBlock: KUFVIS_clean_sbu_0, # of connection points: 4
#     Node 2, Type 0, BuildingBlock: KUFVIS_clean_sbu_0, # of connection points: 4
#     Node 3, Type 0, BuildingBlock: KUFVIS_clean_sbu_0, # of connection points: 4
#     Node 4, Type 0, BuildingBlock: KUFVIS_clean_sbu_0, # of connection points: 4
#     Node 5, Type 0, BuildingBlock: KUFVIS_clean_sbu_0, # of connection points: 4
#     Node 6, Type 0, BuildingBlock: KUFVIS_clean_sbu_0, # of connection points: 4
#     Node 7, Type 0, BuildingBlock: KUFVIS_clean_sbu_0, # of connection points: 4
#     Node 8, Type 0, BuildingBlock: KUFVIS_clean_sbu_0, # of connection points: 4
#     Node 9, Type 0, BuildingBlock: KUFVIS_clean_sbu_0, # of connection points: 4
#     Node 10, Type 0, BuildingBlock: KUFVIS_clean_sbu_0, # of connection points: 4
#     Node 11, Type 0, BuildingBlock: KUFVIS_clean_sbu_0, # of connection points: 4
#     Node 12, Type 0, BuildingBlock: KUFVIS_clean_sbu_0, # of connection points: 4
#     Node 13, Type 0, BuildingBlock: KUFVIS_clean_sbu_0, # of connection points: 4
#     Node 14, Type 0, BuildingBlock: KUFVIS_clean_sbu_0, # of connection points: 4
#     Node 15, Type 0, BuildingBlock: KUFVIS_clean_sbu_0, # of connection points: 4
#     Edge 16, Type (0, 0), BuildingBlock: AJUNOK_clean_linker_0, # of connection points: 2
#     Edge 17, Type (0, 0), BuildingBlock: AJUNOK_clean_linker_0, # of connection points: 2
#     Edge 18, Type (0, 0), BuildingBlock: AJUNOK_clean_linker_0, # of connection points: 2
#     Edge 19, Type (0, 0), BuildingBlock: AJUNOK_clean_linker_0, # of connection points: 2
#     Edge 20, Type (0, 0), BuildingBlock: AJUNOK_clean_linker_0, # of connection points: 2
#     Edge 21, Type (0, 0), BuildingBlock: AJUNOK_clean_linker_0, # of connection points: 2
#     Edge 22, Type (0, 0), BuildingBlock: AJUNOK_clean_linker_0, # of connection points: 2
#     Edge 23, Type (0, 0), BuildingBlock: AJUNOK_clean_linker_0, # of connection points: 2
#     Edge 24, Type (0, 0), BuildingBlock: AJUNOK_clean_linker_0, # of connection points: 2
#     Edge 25, Type (0, 0), BuildingBlock: AJUNOK_clean_linker_0, # of connection points: 2
#     Edge 26, Type (0, 0), BuildingBlock: AJUNOK_clean_linker_0, # of connection points: 2
#     Edge 27, Type (0, 0), BuildingBlock: AJUNOK_clean_linker_0, # of connection points: 2
#     Edge 28, Type (0, 0), BuildingBlock: AJUNOK_clean_linker_0, # of connection points: 2
#     Edge 29, Type (0, 0), BuildingBlock: AJUNOK_clean_linker_0, # of connection points: 2
#     Edge 30, Type (0, 0), BuildingBlock: AJUNOK_clean_linker_0, # of connection points: 2
#     Edge 31, Type (0, 0), BuildingBlock: AJUNOK_clean_linker_0, # of connection points: 2
#     Edge 32, Type (0, 0), BuildingBlock: AJUNOK_clean_linker_0, # of connection points: 2
#     Edge 33, Type (0, 0), BuildingBlock: AJUNOK_clean_linker_0, # of connection points: 2
#     Edge 34, Type (0, 0), BuildingBlock: AJUNOK_clean_linker_0, # of connection points: 2
#     Edge 35, Type (0, 0), BuildingBlock: AJUNOK_clean_linker_0, # of connection points: 2
#     Edge 36, Type (0, 0), BuildingBlock: AJUNOK_clean_linker_0, # of connection points: 2
#     Edge 37, Type (0, 0), BuildingBlock: AJUNOK_clean_linker_0, # of connection points: 2
#     Edge 38, Type (0, 0), BuildingBlock: AJUNOK_clean_linker_0, # of connection points: 2
#     Edge 39, Type (0, 0), BuildingBlock: AJUNOK_clean_linker_0, # of connection points: 2
#     Edge 40, Type (0, 0), BuildingBlock: AJUNOK_clean_linker_0, # of connection points: 2
#     Edge 41, Type (0, 0), BuildingBlock: AJUNOK_clean_linker_0, # of connection points: 2
#     Edge 42, Type (0, 0), BuildingBlock: AJUNOK_clean_linker_0, # of connection points: 2
#     Edge 43, Type (0, 0), BuildingBlock: AJUNOK_clean_linker_0, # of connection points: 2
#     Edge 44, Type (0, 0), BuildingBlock: AJUNOK_clean_linker_0, # of connection points: 2
#     Edge 45, Type (0, 0), BuildingBlock: AJUNOK_clean_linker_0, # of connection points: 2
#     Edge 46, Type (0, 0), BuildingBlock: AJUNOK_clean_linker_0, # of connection points: 2
#     Edge 47, Type (0, 0), BuildingBlock: AJUNOK_clean_linker_0, # of connection points: 2
# Relax obj value: 0.211
# Max RMSD: 0.084
# Mean RMSD: 0.084
data_MOF--net-upb--node1-KUFVIS_clean_sbu_0--edge1-AJUNOK_clean_linker_0
_symmetry_space_group_name_H-M    P1
_symmetry_Int_Tables_number       1
_symmetry_cell_setting            triclinic
loop_
_symmetry_equiv_pos_as_xyz
'x, y, z'
_cell_length_a     33.190475
_cell_length_b     33.181159
_cell_length_c     24.076073
_cell_angle_alpha  89.908158
_cell_angle_beta   90.081196
_cell_angle_gamma 89.88467
loop_
_atom_site_label
_atom_site_type_symbol
_atom_site_fract_x
_atom_site_fract_y
_atom_site_fract_z
_atom_type_partial_charge
Mn0 Mn 0.02344 0.23079 0.29369 0.0
Mn1 Mn 0.09379 0.22134 0.39158 0.0
C2 C 0.01255 0.25944 0.38072 0.0
C3 C 0.96955 0.19626 0.25434 0.0
C4 C 0.10114 0.27586 0.29126 0.0
O5 O 0.0621 0.18789 0.2642 0.0
O6 O 0.09515 0.17258 0.34352 0.0
C7 C 0.05665 0.155 0.45531 0.0
N8 N 0.0744 0.19189 0.45406 0.0
C9 C 0.06523 0.20032 0.55237 0.0
C10 C 0.04926 0.16131 0.55539 0.0
C11 C 0.04333 0.13929 0.50635 0.0
C12 C 0.07702 0.21479 0.5003 0.0
H13 H 0.05231 0.13802 0.41749 0.0
C14 C 0.08558 0.16553 0.29281 0.0
O15 O 0.98758 0.22458 0.22633 0.0
O16 O 0.98221 0.18913 0.30398 0.0
N17 N 0.09498 0.26681 0.44053 0.0
C18 C 0.10393 0.30604 0.42908 0.0
C19 C 0.1051 0.33428 0.47238 0.0
C20 C 0.09729 0.32194 0.52706 0.0
C21 C 0.0882 0.28147 0.53786 0.0
C22 C 0.08771 0.25458 0.49308 0.0
H23 H 0.11023 0.3159 0.38736 0.0
O24 O 0.99003 0.27007 0.33912 0.0
O25 O 0.03944 0.23271 0.36882 0.0
O26 O 0.06455 0.27475 0.27422 0.0
O27 O 0.11526 0.2533 0.3298 0.0
C28 C 0.07851 0.26699 0.5911 0.0
C29 C 0.06699 0.2265 0.59818 0.0
H30 H 0.03952 0.14875 0.5946 0.0
H31 H 0.02892 0.11009 0.50799 0.0
H32 H 0.112 0.3655 0.46359 0.0
H33 H 0.09786 0.34388 0.56032 0.0
H34 H 0.07856 0.28701 0.62659 0.0
H35 H 0.05771 0.21641 0.63855 0.0
Mn36 Mn 0.77548 0.03486 0.29744 0.0
Mn37 Mn 0.78855 0.10613 0.39443 0.0
C38 C 0.74864 0.02632 0.38551 0.0
C39 C 0.80603 0.97697 0.26058 0.0
C40 C 0.72512 0.11193 0.3044 0.0
O41 O 0.81819 0.07103 0.26213 0.0
O42 O 0.82677 0.11457 0.33263 0.0
C43 C 0.86338 0.06547 0.42729 0.0
N44 N 0.82965 0.08616 0.44237 0.0
C45 C 0.83922 0.06869 0.5384 0.0
C46 C 0.87479 0.04827 0.52423 0.0
C47 C 0.88618 0.0455 0.46813 0.0
C48 C 0.81646 0.08589 0.49544 0.0
H49 H 0.87176 0.06295 0.38406 0.0
C50 C 0.8348 0.10177 0.28391 0.0
O51 O 0.77789 0.99556 0.23268 0.0
O52 O 0.81591 0.99211 0.3077 0.0
N53 N 0.75419 0.10345 0.45783 0.0
C54 C 0.71395 0.11112 0.46128 0.0
C55 C 0.69497 0.10986 0.51333 0.0
C56 C 0.71758 0.10088 0.56116 0.0
C57 C 0.759 0.09322 0.55649 0.0
C58 C 0.7765 0.0959 0.50374 0.0
H59 H 0.69649 0.11797 0.42457 0.0
O60 O 0.7361 0.00407 0.345 0.0
O61 O 0.77688 0.05152 0.37283 0.0
O62 O 0.73196 0.07795 0.28021 0.0
O63 O 0.74504 0.12526 0.34616 0.0
C64 C 0.78317 0.08104 0.60161 0.0
C65 C 0.82329 0.06862 0.59248 0.0
H66 H 0.89264 0.03317 0.55574 0.0
H67 H 0.91275 0.02856 0.45657 0.0
H68 H 0.66293 0.11551 0.51654 0.0
H69 H 0.70267 0.09908 0.60108 0.0
H70 H 0.77042 0.07884 0.64282 0.0
H71 H 0.84097 0.05695 0.62658 0.0
Mn72 Mn 0.95796 0.77374 0.29832 0.0
Mn73 Mn 0.88154 0.76704 0.3896 0.0
C74 C 0.96705 0.74114 0.38262 0.0
C75 C 0.0135 0.8108 0.26868 0.0
C76 C 0.88668 0.7183 0.28383 0.0
O77 O 0.91795 0.81618 0.27081 0.0
O78 O 0.87221 0.81504 0.34065 0.0
C79 C 0.90001 0.8393 0.45659 0.0
N80 N 0.893 0.799 0.45365 0.0
C81 C 0.90674 0.79074 0.55132 0.0
C82 C 0.91336 0.83217 0.55548 0.0
C83 C 0.91102 0.85632 0.5078 0.0
C84 C 0.89691 0.77515 0.49905 0.0
H85 H 0.89881 0.85788 0.41974 0.0
C86 C 0.88609 0.82925 0.29473 0.0
O87 O -0.00304 0.78431 0.23608 0.0
O88 O -0.00281 0.81636 0.31668 0.0
N89 N 0.88755 0.72168 0.43836 0.0
C90 C 0.88467 0.68171 0.42622 0.0
C91 C 0.88933 0.65304 0.46869 0.0
C92 C 0.89674 0.66574 0.52334 0.0
C93 C 0.89922 0.70704 0.53499 0.0
C94 C 0.89383 0.73423 0.49099 0.0
H95 H 0.87874 0.67174 0.38448 0.0
O96 O 0.99121 0.73382 0.34159 0.0
O97 O 0.93836 0.76642 0.37176 0.0
O98 O 0.92177 0.72889 0.26779 0.0
O99 O 0.86866 0.73239 0.32635 0.0
C100 C 0.90784 0.72223 0.58827 0.0
C101 C 0.91175 0.76408 0.59639 0.0
H102 H 0.92231 0.84542 0.59444 0.0
H103 H 0.91949 0.88766 0.51041 0.0
H104 H 0.8873 0.62123 0.4593 0.0
H105 H 0.90076 0.64355 0.55593 0.0
H106 H 0.91238 0.70195 0.62303 0.0
H107 H 0.91952 0.77538 0.63719 0.0
Mn108 Mn 0.21332 0.96828 0.27342 0.0
Mn109 Mn 0.23599 0.89301 0.36219 0.0
C110 C 0.25066 0.98101 0.35297 0.0
C111 C 0.16712 0.01895 0.25108 0.0
C112 C 0.27335 0.90285 0.24824 0.0
O113 O 0.17364 0.92396 0.25317 0.0
O114 O 0.18411 0.87986 0.32394 0.0
C115 C 0.17076 0.90083 0.4449 0.0
N116 N 0.21067 0.90083 0.43263 0.0
C117 C 0.22812 0.91415 0.52802 0.0
C118 C 0.18718 0.91377 0.54178 0.0
C119 C 0.15843 0.90744 0.50001 0.0
C120 C 0.23866 0.90736 0.4725 0.0
H121 H 0.14868 0.89735 0.41235 0.0
C122 C 0.16467 0.89228 0.28085 0.0
O123 O 0.19255 0.00597 0.21408 0.0
O124 O 0.16815 0.00196 0.29926 0.0
N125 N 0.28537 0.90374 0.40096 0.0
C126 C 0.32357 0.9051 0.38054 0.0
C127 C 0.35592 0.91312 0.41644 0.0
C128 C 0.34871 0.91935 0.47322 0.0
C129 C 0.30922 0.91728 0.49352 0.0
C130 C 0.27822 0.90901 0.45569 0.0
H131 H 0.32937 0.89989 0.33723 0.0
O132 O 0.25217 0.00589 0.31141 0.0
O133 O 0.2289 0.94939 0.34464 0.0
O134 O 0.2592 0.93742 0.23516 0.0
O135 O 0.26426 0.88348 0.29225 0.0
C136 C 0.29933 0.92383 0.54965 0.0
C137 C 0.2588 0.92232 0.56683 0.0
H138 H 0.17735 0.91966 0.58384 0.0
H139 H 0.12676 0.9096 0.50998 0.0
H140 H 0.38632 0.91446 0.4004 0.0
H141 H 0.37369 0.92578 0.50079 0.0
H142 H 0.3226 0.93058 0.57978 0.0
H143 H 0.25151 0.9282 0.60981 0.0
Mn144 Mn 0.04426 0.77609 0.68442 0.0
Mn145 Mn 0.1206 0.75991 0.59584 0.0
C146 C 0.03349 0.73957 0.6036 0.0
C147 C 0.99105 0.8187 0.70888 0.0
C148 C 0.11364 0.72061 0.7089 0.0
O149 O 0.08648 0.81802 0.70601 0.0
O150 O 0.12979 0.81294 0.63347 0.0
C151 C 0.10632 0.82365 0.51218 0.0
N152 N 0.11027 0.78398 0.52501 0.0
C153 C 0.09616 0.76471 0.43049 0.0
C154 C 0.09254 0.80541 0.41613 0.0
C155 C 0.09719 0.83491 0.45723 0.0
C156 C 0.1052 0.7552 0.48584 0.0
H157 H 0.1084 0.84616 0.54433 0.0
C158 C 0.11666 0.83046 0.67766 0.0
O159 O 0.00581 0.79323 0.7447 0.0
O160 O 0.0077 0.81974 0.66052 0.0
N161 N 0.11352 0.70948 0.55811 0.0
C162 C 0.11531 0.6714 0.57928 0.0
C163 C 0.1092 0.63825 0.54415 0.0
C164 C 0.10152 0.64451 0.48745 0.0
C165 C 0.10025 0.68389 0.4664 0.0
C166 C 0.10692 0.71576 0.50339 0.0
H167 H 0.12152 0.66623 0.62259 0.0
O168 O 0.00886 0.73588 0.64508 0.0
O169 O 0.06379 0.76301 0.61281 0.0
O170 O 0.0776 0.73102 0.72066 0.0
O171 O 0.13295 0.73281 0.66633 0.0
C172 C 0.09172 0.69278 0.41039 0.0
C173 C 0.08953 0.73318 0.39252 0.0
H174 H 0.08473 0.81434 0.37421 0.0
H175 H 0.09161 0.86611 0.44693 0.0
H176 H 0.11038 0.60796 0.56077 0.0
H177 H 0.09647 0.61888 0.46053 0.0
H178 H 0.08612 0.6688 0.38092 0.0
H179 H 0.08194 0.73966 0.34973 0.0
Mn180 Mn 0.22138 0.04474 0.66423 0.0
Mn181 Mn 0.21629 0.12379 0.57673 0.0
C182 C 0.24935 0.04066 0.57663 0.0
C183 C 0.19017 0.98566 0.69479 0.0
C184 C 0.27432 0.11921 0.67338 0.0
O185 O 0.17803 0.0804 0.69897 0.0
O186 O 0.17193 0.12829 0.63238 0.0
C187 C 0.14065 0.10113 0.5203 0.0
N188 N 0.18009 0.11191 0.51738 0.0
C189 C 0.18092 0.10233 0.41826 0.0
C190 C 0.14013 0.09203 0.42009 0.0
C191 C 0.12039 0.0901 0.47147 0.0
C192 C 0.20009 0.11168 0.4684 0.0
H193 H 0.12543 0.0992 0.55986 0.0
C194 C 0.16129 0.11179 0.67838 0.0
O195 O 0.21757 0.00302 0.72513 0.0
O196 O 0.18057 0.00298 0.64864 0.0
N197 N 0.25765 0.12248 0.52125 0.0
C198 C 0.29821 0.12706 0.52758 0.0
C199 C 0.32328 0.12615 0.48068 0.0
C200 C 0.30647 0.12036 0.42777 0.0
C201 C 0.26471 0.1156 0.42227 0.0
C202 C 0.24113 0.11751 0.47044 0.0
H203 H 0.31149 0.13113 0.56808 0.0
O204 O 0.2607 0.0158 0.61517 0.0
O205 O 0.22231 0.0667 0.59126 0.0
O206 O 0.26598 0.08346 0.68998 0.0
O207 O 0.25519 0.13719 0.63465 0.0
C208 C 0.24572 0.10784 0.37109 0.0
C209 C 0.20388 0.10101 0.36918 0.0
H210 H 0.12435 0.083 0.3829 0.0
H211 H 0.09013 0.07831 0.47342 0.0
H212 H 0.35552 0.12959 0.48536 0.0
H213 H 0.32596 0.11907 0.39176 0.0
H214 H 0.26315 0.10597 0.33317 0.0
H215 H 0.18985 0.09363 0.33002 0.0
Mn216 Mn 0.95197 0.217 0.69155 0.0
Mn217 Mn 0.87387 0.21428 0.60258 0.0
C218 C 0.9565 0.24929 0.60604 0.0
C219 C 0.00974 0.18252 0.72075 0.0
C220 C 0.87663 0.26748 0.70447 0.0
O221 O 0.91596 0.17299 0.7235 0.0
O222 O 0.87005 0.16782 0.65459 0.0
C223 C 0.90678 0.14433 0.54365 0.0
N224 N 0.88795 0.18073 0.54147 0.0
C225 C 0.89788 0.18519 0.44261 0.0
C226 C 0.91632 0.1472 0.44363 0.0
C227 C 0.92272 0.12784 0.49477 0.0
C228 C 0.88543 0.20172 0.49333 0.0
H229 H 0.91209 0.12955 0.58303 0.0
C230 C 0.88547 0.15636 0.70084 0.0
O231 O 0.99319 0.20949 0.75269 0.0
O232 O 0.99272 0.17594 0.67348 0.0
N233 N 0.87346 0.25736 0.54966 0.0
C234 C 0.86819 0.29756 0.55853 0.0
C235 C 0.86765 0.32409 0.51304 0.0
C236 C 0.87266 0.30904 0.45899 0.0
C237 C 0.8782 0.26757 0.45091 0.0
C238 C 0.87742 0.24242 0.49771 0.0
H239 H 0.86462 0.30934 0.60002 0.0
O240 O 0.98155 0.25825 0.64541 0.0
O241 O 0.93055 0.22164 0.6185 0.0
O242 O 0.91294 0.26038 0.71988 0.0
O243 O 0.85897 0.25027 0.66369 0.0
C244 C 0.88643 0.25051 0.3986 0.0
C245 C 0.89658 0.20936 0.39454 0.0
H246 H 0.92851 0.1341 0.40601 0.0
H247 H 0.94071 0.10068 0.49669 0.0
H248 H 0.86375 0.3561 0.51966 0.0
H249 H 0.87308 0.32971 0.42413 0.0
H250 H 0.88721 0.26919 0.36169 0.0
H251 H 0.90575 0.1972 0.35487 0.0
Mn252 Mn 0.77247 0.95393 0.69313 0.0
Mn253 Mn 0.77411 0.8825 0.59539 0.0
C254 C 0.74073 0.96533 0.60832 0.0
C255 C 0.8085 0.00795 0.72928 0.0
C256 C 0.72446 0.8781 0.7006 0.0
O257 O 0.81614 0.91452 0.71886 0.0
O258 O 0.82475 0.87916 0.63948 0.0
C259 C 0.83964 0.91532 0.52573 0.0
N260 N 0.80166 0.90036 0.53025 0.0
C261 C 0.78875 0.91256 0.43327 0.0
C262 C 0.82845 0.92602 0.42694 0.0
C263 C 0.85346 0.92887 0.47376 0.0
C264 C 0.77634 0.90021 0.48619 0.0
H265 H 0.85877 0.91778 0.56186 0.0
C266 C 0.83564 0.88968 0.68854 0.0
O267 O 0.78129 0.99005 0.75934 0.0
O268 O 0.8143 0.99451 0.67972 0.0
N269 N 0.7265 0.88385 0.55016 0.0
C270 C 0.68751 0.87674 0.56489 0.0
C271 C 0.65714 0.87812 0.5243 0.0
C272 C 0.6671 0.88675 0.46892 0.0
C273 C 0.70736 0.89394 0.45467 0.0
C274 C 0.73646 0.89166 0.4968 0.0
H275 H 0.67944 0.87003 0.60724 0.0
O276 O 0.73214 0.988 0.65052 0.0
O277 O 0.76694 0.93755 0.61846 0.0
O278 O 0.72847 0.91453 0.71691 0.0
O279 O 0.74387 0.86258 0.66003 0.0
C280 C 0.71956 0.90463 0.40067 0.0
C281 C 0.76018 0.91412 0.39016 0.0
H282 H 0.83932 0.93639 0.38702 0.0
H283 H 0.88329 0.94161 0.46974 0.0
H284 H 0.6261 0.8727 0.53571 0.0
H285 H 0.64352 0.88831 0.43784 0.0
H286 H 0.69773 0.90698 0.36733 0.0
H287 H 0.76878 0.92454 0.34945 0.0
Mn288 Mn 0.53348 0.71529 0.78926 0.0
Mn289 Mn 0.60462 0.71162 0.88818 0.0
C290 C 0.52239 0.7463 0.87426 0.0
C291 C 0.47911 0.67908 0.7535 0.0
C292 C 0.60897 0.76621 0.78763 0.0
O293 O 0.57231 0.67231 0.76108 0.0
O294 O 0.61267 0.66608 0.83607 0.0
C295 C 0.56759 0.64073 0.94 0.0
N296 N 0.58592 0.67711 0.94575 0.0
C297 C 0.56977 0.67955 0.04297 0.0
C298 C 0.5518 0.6415 0.03853 0.0
C299 C 0.54893 0.62303 0.98622 0.0
C300 C 0.58507 0.69716 -0.00544 0.0
H301 H 0.5654 0.62651 0.89974 0.0
C302 C 0.60112 0.65554 0.78748 0.0
O303 O 0.4964 0.7067 0.72335 0.0
O304 O 0.49308 0.67336 0.80275 0.0
N305 N 0.601 0.75378 0.942 0.0
C306 C 0.60746 0.79403 0.93535 0.0
C307 C 0.60541 0.81955 0.98173 0.0
C308 C 0.59678 0.80344 0.03437 0.0
C309 C 0.59023 0.76192 0.04014 0.0
C310 C 0.59347 0.73783 0.99263 0.0
H311 H 0.61406 0.80656 0.89497 0.0
O312 O 0.4998 0.7554 0.83214 0.0
O313 O 0.54974 0.7195 0.86433 0.0
O314 O 0.57393 0.75941 0.76695 0.0
O315 O 0.6236 0.74848 0.83038 0.0
C316 C 0.57904 0.7437 0.0907 0.0
C317 C 0.56857 0.70255 0.09194 0.0
H318 H 0.53786 0.62738 0.07425 0.0
H319 H 0.53282 0.59491 0.98168 0.0
H320 H 0.61023 0.85161 0.97687 0.0
H321 H 0.59453 0.82333 0.06988 0.0
H322 H 0.57647 0.76147 0.12823 0.0
H323 H 0.55762 0.68933 0.12997 0.0
Mn324 Mn 0.27363 0.53192 0.80714 0.0
Mn325 Mn 0.28959 0.60678 0.89819 0.0
C326 C 0.24679 0.5282 0.89596 0.0
C327 C 0.30106 0.47129 0.77397 0.0
C328 C 0.2263 0.61115 0.80785 0.0
O329 O 0.31828 0.56458 0.76964 0.0
O330 O 0.32876 0.61075 0.83642 0.0
C331 C 0.3625 0.56473 0.93529 0.0
N332 N 0.32948 0.58722 0.9483 0.0
C333 C 0.33726 0.57248 0.04547 0.0
C334 C 0.37174 0.5497 0.03329 0.0
C335 C 0.38374 0.54485 0.97775 0.0
C336 C 0.31574 0.58926 0.00105 0.0
H337 H 0.37131 0.56049 0.89249 0.0
C338 C 0.33662 0.59518 0.78918 0.0
O339 O 0.27387 0.4904 0.74502 0.0
O340 O 0.31195 0.48746 0.82007 0.0
N341 N 0.25464 0.60812 0.96114 0.0
C342 C 0.21472 0.61759 0.96334 0.0
C343 C 0.19527 0.61901 0.01506 0.0
C344 C 0.21705 0.61076 0.06385 0.0
C345 C 0.25812 0.60112 0.06047 0.0
C346 C 0.27618 0.6012 0.00792 0.0
H347 H 0.19786 0.62384 0.92592 0.0
O348 O 0.23307 0.50497 0.85721 0.0
O349 O 0.27595 0.55168 0.8811 0.0
O350 O 0.23187 0.57595 0.78664 0.0
O351 O 0.24709 0.62574 0.84795 0.0
C352 C 0.28137 0.58954 0.10682 0.0
C353 C 0.32089 0.57497 0.09916 0.0
H354 H 0.3884 0.53463 0.06603 0.0
H355 H 0.40957 0.52629 0.9678 0.0
H356 H 0.16348 0.62615 0.01727 0.0
H357 H 0.20174 0.61105 0.10355 0.0
H358 H 0.26834 0.58947 0.14803 0.0
H359 H 0.33773 0.56366 0.13419 0.0
Mn360 Mn 0.45671 0.27307 0.81176 0.0
Mn361 Mn 0.37909 0.25528 0.89784 0.0
C362 C 0.46732 0.2399 0.89521 0.0
C363 C 0.50789 0.31755 0.7868 0.0
C364 C 0.39256 0.21117 0.78936 0.0
O365 O 0.41288 0.3111 0.78427 0.0
O366 O 0.36652 0.30502 0.85283 0.0
C367 C 0.38674 0.32512 0.97359 0.0
N368 N 0.38505 0.28458 0.96581 0.0
C369 C 0.39755 0.27229 0.06315 0.0
C370 C 0.3991 0.31382 0.07216 0.0
C371 C 0.39463 0.34014 0.02705 0.0
C372 C 0.39062 0.25877 0.00886 0.0
H373 H 0.38427 0.3456 0.93881 0.0
C374 C 0.38021 0.3218 0.80828 0.0
O375 O 0.49563 0.29005 0.75225 0.0
O376 O 0.48991 0.31951 0.83422 0.0
N377 N 0.38897 0.20824 0.94237 0.0
C378 C 0.3923 0.16912 0.92591 0.0
C379 C 0.39962 0.13885 0.96543 0.0
C380 C 0.40375 0.14909 0.02165 0.0
C381 C 0.40054 0.18953 0.03769 0.0
C382 C 0.39252 0.21835 -0.00356 0.0
H383 H 0.38972 0.16106 0.8829 0.0
O384 O 0.49324 0.23628 0.85526 0.0
O385 O 0.43605 0.26162 0.88347 0.0
O386 O 0.42706 0.22543 0.77682 0.0
O387 O 0.37153 0.22265 0.83075 0.0
C388 C 0.40637 0.20247 0.09273 0.0
C389 C 0.40509 0.24385 0.10536 0.0
H390 H 0.40598 0.32582 0.11291 0.0
H391 H 0.40069 0.37162 0.03312 0.0
H392 H 0.4024 0.10776 0.95253 0.0
H393 H 0.41 0.12575 0.05198 0.0
H394 H 0.41293 0.18094 0.12539 0.0
H395 H 0.41104 0.25353 0.14743 0.0
Mn396 Mn 0.72208 0.45854 0.80894 0.0
Mn397 Mn 0.71879 0.3889 0.90921 0.0
C398 C 0.75189 0.47155 0.89452 0.0
C399 C 0.68648 0.51154 0.76921 0.0
C400 C 0.77006 0.38239 0.80554 0.0
O401 O 0.67911 0.41872 0.78315 0.0
O402 O 0.66913 0.38447 0.86328 0.0
C403 C 0.65167 0.42306 0.97475 0.0
N404 N 0.68979 0.40803 0.97239 0.0
C405 C 0.70053 0.42182 0.06938 0.0
C406 C 0.66067 0.4354 0.07355 0.0
C407 C 0.63668 0.43748 0.02562 0.0
C408 C 0.71416 0.4087 0.01744 0.0
H409 H 0.63328 0.42483 0.93776 0.0
C410 C 0.65926 0.39419 0.81346 0.0
O411 O 0.71434 0.49311 0.74089 0.0
O412 O 0.67993 0.49933 0.81926 0.0
N413 N 0.7654 0.39119 0.95619 0.0
C414 C 0.8047 0.38377 0.94331 0.0
C415 C 0.83415 0.38568 0.98511 0.0
C416 C 0.82296 0.39513 0.03977 0.0
C417 C 0.78239 0.40268 0.05208 0.0
C418 C 0.75427 0.3999 0.00881 0.0
H419 H 0.81365 0.37638 0.9015 0.0
O420 O 0.7614 0.49338 0.85178 0.0
O421 O 0.72617 0.44347 0.88427 0.0
O422 O 0.7664 0.4186 0.78795 0.0
O423 O 0.75039 0.36777 0.84653 0.0
C424 C 0.76895 0.41405 0.10524 0.0
C425 C 0.72808 0.42374 0.11372 0.0
H426 H 0.64886 0.44632 0.11265 0.0
H427 H 0.6067 0.45023 0.02794 0.0
H428 H 0.86543 0.37999 0.97519 0.0
H429 H 0.84583 0.39703 0.07178 0.0
H430 H 0.78999 0.41667 0.13946 0.0
H431 H 0.71847 0.43444 0.15387 0.0
Mn432 Mn 0.53621 0.27696 0.2034 0.0
Mn433 Mn 0.61332 0.27493 0.11294 0.0
C434 C 0.52885 0.24526 0.11849 0.0
C435 C 0.47965 0.31197 0.23394 0.0
C436 C 0.60974 0.22435 0.2174 0.0
O437 O 0.57438 0.32049 0.23217 0.0
O438 O 0.61946 0.32329 0.16165 0.0
C439 C 0.59229 0.34645 0.0452 0.0
N440 N 0.60083 0.30642 0.04859 0.0
C441 C 0.58915 0.29774 0.95052 0.0
C442 C 0.58086 0.33891 0.94591 0.0
C443 C 0.58146 0.36309 0.99358 0.0
C444 C 0.59879 0.28249 0.00316 0.0
H445 H 0.59227 0.3651 0.08196 0.0
C446 C 0.60488 0.33609 0.20787 0.0
O447 O 0.49689 0.28538 0.26591 0.0
O448 O 0.4956 0.31852 0.18593 0.0
N449 N 0.61005 0.22937 0.06426 0.0
C450 C 0.61452 0.18952 0.07663 0.0
C451 C 0.61181 0.16076 0.03409 0.0
C452 C 0.60467 0.17324 0.97921 0.0
C453 C 0.6004 0.2144 0.96738 0.0
C454 C 0.60382 0.24172 0.01145 0.0
H455 H 0.62014 0.17964 0.1186 0.0
O456 O 0.50462 0.23666 0.15899 0.0
O457 O 0.55639 0.27152 0.13001 0.0
O458 O 0.57375 0.2325 0.23245 0.0
O459 O 0.62771 0.24076 0.17642 0.0
C460 C 0.59189 0.22928 0.91382 0.0
C461 C 0.58614 0.27092 0.90544 0.0
H462 H 0.57207 0.35191 0.90655 0.0
H463 H 0.57189 0.39414 0.99059 0.0
H464 H 0.61512 0.12905 0.04362 0.0
H465 H 0.60219 0.15094 0.94657 0.0
H466 H 0.58886 0.20887 0.87899 0.0
H467 H 0.57852 0.2819 0.86439 0.0
Mn468 Mn 0.70728 0.54607 0.20064 0.0
Mn469 Mn 0.69981 0.61748 0.10223 0.0
C470 C 0.73632 0.53611 0.11433 0.0
C471 C 0.67527 0.48923 0.23774 0.0
C472 C 0.76166 0.62019 0.19438 0.0
O473 O 0.66452 0.58391 0.23288 0.0
O474 O 0.66011 0.62786 0.162 0.0
C475 C 0.62501 0.57886 0.06685 0.0
N476 N 0.65931 0.59877 0.05259 0.0
C477 C 0.65222 0.57899 0.95701 0.0
C478 C 0.61638 0.55899 0.97048 0.0
C479 C 0.6035 0.55773 0.02604 0.0
C480 C 0.674 0.59691 0.00028 0.0
H481 H 0.61548 0.57731 0.1097 0.0
C482 C 0.64953 0.61525 0.20999 0.0
O483 O 0.70307 0.50774 0.26611 0.0
O484 O 0.66607 0.50419 0.19006 0.0
N485 N 0.73568 0.61297 0.04055 0.0
C486 C 0.77619 0.61938 0.03887 0.0
C487 C 0.79652 0.61671 0.9879 0.0
C488 C 0.77499 0.60754 0.93928 0.0
C489 C 0.7333 0.60118 0.94207 0.0
C490 C 0.71443 0.60546 0.99374 0.0
H491 H 0.79288 0.62628 0.07618 0.0
O492 O 0.74694 0.5137 0.15584 0.0
O493 O 0.70839 0.56229 0.12485 0.0
O494 O 0.7519 0.58714 0.21897 0.0
O495 O 0.7431 0.63486 0.15216 0.0
C496 C 0.71015 0.58859 0.89626 0.0
C497 C 0.66963 0.57719 0.90384 0.0
H498 H 0.59943 0.54303 0.93897 0.0
H499 H 0.57673 0.54102 0.03719 0.0
H500 H 0.82875 0.62134 0.98617 0.0
H501 H 0.79093 0.60453 0.90026 0.0
H502 H 0.72396 0.58499 0.85592 0.0
H503 H 0.65286 0.56476 0.86942 0.0
Mn504 Mn 0.44954 0.72665 0.18735 0.0
Mn505 Mn 0.37974 0.70981 0.08888 0.0
C506 C 0.46093 0.74799 0.09708 0.0
C507 C 0.50462 0.69748 0.23315 0.0
C508 C 0.37454 0.77847 0.17116 0.0
O509 O 0.41142 0.68688 0.22474 0.0
O510 O 0.37104 0.67254 0.15236 0.0
C511 C 0.41972 0.63385 0.06019 0.0
N512 N 0.39956 0.66745 0.0432 0.0
C513 C 0.41759 0.65551 0.94793 0.0
C514 C 0.43805 0.62047 0.9643 0.0
C515 C 0.44029 0.61038 0.02092 0.0
C516 C 0.40033 0.67941 0.98949 0.0
H517 H 0.42184 0.62639 0.10378 0.0
C518 C 0.38262 0.66735 0.20253 0.0
O519 O 0.48572 0.72793 0.25523 0.0
O520 O 0.49149 0.68464 0.18608 0.0
N521 N 0.38341 0.74273 0.02384 0.0
C522 C 0.37652 0.78302 0.01825 0.0
C523 C 0.37843 0.80076 0.96534 0.0
C524 C 0.38729 0.77691 0.91877 0.0
C525 C 0.39426 0.73551 0.92556 0.0
C526 C 0.39098 0.71929 0.97912 0.0
H527 H 0.36975 0.80153 0.05389 0.0
O528 O 0.48285 0.76194 0.13716 0.0
O529 O 0.43457 0.72118 0.11139 0.0
O530 O 0.40819 0.77253 0.19645 0.0
O531 O 0.36018 0.75509 0.13378 0.0
C532 C 0.40627 0.7101 0.88175 0.0
C533 C 0.41819 0.67011 0.89305 0.0
H534 H 0.45364 0.60202 0.93405 0.0
H535 H 0.45738 0.58426 0.03415 0.0
H536 H 0.37335 0.8328 0.9605 0.0
H537 H 0.38955 0.79086 0.87819 0.0
H538 H 0.40876 0.72173 0.83986 0.0
H539 H 0.42994 0.65155 0.85995 0.0
Mn540 Mn 0.272 0.46262 0.20697 0.0
Mn541 Mn 0.26981 0.3887 0.11237 0.0
C542 C 0.24023 0.47297 0.12201 0.0
C543 C 0.30905 0.51765 0.23913 0.0
C544 C 0.22021 0.3888 0.21742 0.0
O545 O 0.31489 0.42242 0.23388 0.0
O546 O 0.31919 0.38197 0.1584 0.0
C547 C 0.3379 0.41719 0.04422 0.0
N548 N 0.29934 0.40374 0.04773 0.0
C549 C 0.28858 0.41493 0.95012 0.0
C550 C 0.32905 0.42628 0.94467 0.0
C551 C 0.35344 0.42867 0.99222 0.0
C552 C 0.27475 0.40404 0.00291 0.0
H553 H 0.35642 0.41951 0.08104 0.0
C554 C 0.33135 0.3938 0.20633 0.0
O555 O 0.28202 0.50095 0.27076 0.0
O556 O 0.31465 0.50194 0.19082 0.0
N557 N 0.22308 0.39216 0.06588 0.0
C558 C 0.18354 0.38773 0.07985 0.0
C559 C 0.15386 0.39001 0.03839 0.0
C560 C 0.16508 0.39682 0.983 0.0
C561 C 0.20591 0.40127 0.96964 0.0
C562 C 0.23425 0.39806 0.01259 0.0
H563 H 0.17457 0.38251 0.12226 0.0
O564 O 0.23232 0.49668 0.16334 0.0
O565 O 0.26571 0.44462 0.13304 0.0
O566 O 0.22676 0.42497 0.2335 0.0
O567 O 0.23771 0.37204 0.17631 0.0
C568 C 0.21945 0.41033 0.91576 0.0
C569 C 0.26067 0.41743 0.90626 0.0
H570 H 0.34108 0.43535 0.90476 0.0
H571 H 0.38414 0.43932 0.98884 0.0
H572 H 0.12239 0.38674 0.04916 0.0
H573 H 0.14206 0.39921 0.95122 0.0
H574 H 0.19826 0.4135 0.88177 0.0
H575 H 0.27022 0.42705 0.86576 0.0
C576 C 0.08386 0.0914 0.28262 0.0
C577 C 0.10115 0.12835 0.2677 0.0
C578 C 0.10356 0.05505 0.27084 0.0
C579 C 0.14101 0.05454 0.24347 0.0
H580 H 0.05653 0.09073 0.30718 0.0
H581 H 0.09097 0.02737 0.28723 0.0
S582 S 0.19631 0.1435 0.19058 0.0
N583 N 0.1556 0.1626 0.22007 0.0
N584 N 0.19259 0.09405 0.19715 0.0
C585 C 0.15663 0.09116 0.22369 0.0
C586 C 0.13673 0.12827 0.23632 0.0
C587 C 0.93768 0.13085 0.23525 0.0
C588 C 0.9347 0.17322 0.23438 0.0
C589 C 0.90363 0.10667 0.24419 0.0
C590 C 0.86581 0.12435 0.25335 0.0
H591 H 0.96708 0.11656 0.23513 0.0
H592 H 0.90773 0.07454 0.25011 0.0
S593 S 0.84117 0.23322 0.24715 0.0
N594 N 0.89027 0.23125 0.23612 0.0
N595 N 0.82629 0.18599 0.25408 0.0
C596 C 0.86181 0.16627 0.24671 0.0
C597 C 0.89633 0.19074 0.23667 0.0
C598 C 0.86748 0.93639 0.24793 0.0
C599 C 0.82514 0.9385 0.24477 0.0
C600 C 0.88735 0.89999 0.25971 0.0
C601 C 0.86542 0.86468 0.27038 0.0
H602 H 0.88515 0.9638 0.24629 0.0
H603 H 0.91976 0.90028 0.2652 0.0
S604 S 0.75478 0.85258 0.25796 0.0
N605 N 0.76256 0.90082 0.24456 0.0
N606 N 0.79967 0.83268 0.26982 0.0
C607 C 0.82343 0.86556 0.26265 0.0
C608 C 0.80335 0.90241 0.24867 0.0
C609 C 0.05344 0.87353 0.26314 0.0
C610 C 0.05149 0.83156 0.25596 0.0
C611 C 0.09058 0.89332 0.26726 0.0
C612 C 0.12691 0.87153 0.26647 0.0
H613 H 0.02602 0.89089 0.26842 0.0
H614 H 0.09078 0.92551 0.27483 0.0
S615 S 0.1382 0.76155 0.24558 0.0
N616 N 0.08899 0.76926 0.24406 0.0
N617 N 0.15896 0.80625 0.25512 0.0
C618 C 0.12549 0.82981 0.2572 0.0
C619 C 0.08766 0.80986 0.25097 0.0
C620 C 0.17764 0.87322 0.69527 0.0
C621 C 0.13544 0.86916 0.69388 0.0
C622 C 0.19576 0.9111 0.70315 0.0
C623 C 0.17221 0.94619 0.70775 0.0
H624 H 0.19673 0.84718 0.68835 0.0
H625 H 0.22827 0.91331 0.70122 0.0
S626 S 0.06083 0.95155 0.7107 0.0
N627 N 0.07082 0.90309 0.70277 0.0
N628 N 0.10495 0.97434 0.71396 0.0
C629 C 0.13017 0.94222 0.70918 0.0
C630 C 0.11174 0.90366 0.70306 0.0
C631 C 0.09006 0.10414 0.70797 0.0
C632 C 0.12493 0.12795 0.70565 0.0
C633 C 0.05251 0.12146 0.72014 0.0
C634 C 0.04881 0.16283 0.73201 0.0
H635 H 0.09121 0.07278 0.69552 0.0
H636 H 0.02575 0.10304 0.71576 0.0
S637 S 0.13219 0.23661 0.73921 0.0
N638 N 0.15428 0.19393 0.7211 0.0
N639 N 0.08391 0.22597 0.74724 0.0
C640 C 0.08413 0.18588 0.73588 0.0
C641 C 0.12218 0.1686 0.72141 0.0
C642 C 0.82678 0.11807 0.73751 0.0
C643 C 0.86834 0.11993 0.72644 0.0
C644 C 0.80782 0.08106 0.74817 0.0
C645 C 0.82971 0.04484 0.74596 0.0
H646 H 0.80842 0.145 0.7342 0.0
H647 H 0.77527 0.08042 0.7515 0.0
S648 S 0.93976 0.03419 0.72469 0.0
N649 N 0.93145 0.0832 0.7204 0.0
N650 N 0.89552 0.01342 0.73754 0.0
C651 C 0.87175 0.04677 0.73967 0.0
C652 C 0.89117 0.08447 0.73034 0.0
C653 C 0.88154 0.84115 0.73695 0.0
C654 C 0.87595 0.87698 0.70669 0.0
C655 C 0.92021 0.82423 0.74324 0.0
C656 C 0.95399 0.84238 0.71835 0.0
H657 H 0.8557 0.8249 0.75281 0.0
H658 H 0.92309 0.79512 0.7633 0.0
S659 S 0.95485 0.93832 0.63901 0.0
N660 N 0.90716 0.93183 0.65615 0.0
N661 N 0.97943 0.89972 0.66624 0.0
C662 C 0.94881 0.87969 0.69147 0.0
C663 C 0.90977 0.89704 0.68586 0.0
C664 C 0.60085 0.58346 0.76103 0.0
C665 C 0.62126 0.62039 0.76309 0.0
C666 C 0.62226 0.54729 0.75486 0.0
C667 C 0.66449 0.54719 0.74949 0.0
H668 H 0.56884 0.58219 0.7697 0.0
H669 H 0.60617 0.51911 0.75971 0.0
S670 S 0.73067 0.63669 0.74369 0.0
N671 N 0.68502 0.65535 0.75334 0.0
N672 N 0.72511 0.58729 0.73957 0.0
C673 C 0.68451 0.58421 0.74521 0.0
C674 C 0.66288 0.62095 0.75288 0.0
C675 C 0.40592 0.67538 0.73423 0.0
C676 C 0.4434 0.65576 0.73682 0.0
C677 C 0.37016 0.65432 0.74576 0.0
C678 C 0.37081 0.61292 0.75876 0.0
H679 H 0.4046 0.70787 0.73002 0.0
H680 H 0.34228 0.67119 0.74911 0.0
S681 S 0.46089 0.54721 0.76417 0.0
N682 N 0.47871 0.59219 0.74818 0.0
N683 N 0.41148 0.55255 0.76832 0.0
C684 C 0.40759 0.59229 0.75565 0.0
C685 C 0.44394 0.61377 0.74481 0.0
C686 C 0.29683 0.39649 0.77132 0.0
C687 C 0.31871 0.43178 0.75962 0.0
C688 C 0.31672 0.36033 0.78551 0.0
C689 C 0.35909 0.3579 0.7859 0.0
H690 H 0.26435 0.39789 0.77535 0.0
H691 H 0.29891 0.33464 0.79834 0.0
S692 S 0.42963 0.44009 0.74827 0.0
N693 N 0.38452 0.46086 0.7433 0.0
N694 N 0.42188 0.39268 0.76611 0.0
C695 C 0.38097 0.39183 0.76815 0.0
C696 C 0.36076 0.42876 0.75559 0.0
C697 C 0.61732 0.34234 0.76597 0.0
C698 C 0.62025 0.37966 0.79312 0.0
C699 C 0.57963 0.32401 0.75771 0.0
C700 C 0.54417 0.34221 0.77765 0.0
H701 H 0.64438 0.32616 0.75421 0.0
H702 H 0.57869 0.29389 0.74045 0.0
S703 S 0.53614 0.44212 0.84567 0.0
N704 N 0.58486 0.43609 0.83444 0.0
N705 N 0.5142 0.40137 0.82057 0.0
C706 C 0.54674 0.38092 0.80102 0.0
C707 C 0.58487 0.3997 0.80858 0.0
C708 C 0.61532 0.44575 0.24598 0.0
C709 C 0.65721 0.45017 0.25301 0.0
C710 C 0.59803 0.40786 0.23616 0.0
C711 C 0.62226 0.37332 0.23133 0.0
H712 H 0.59618 0.47221 0.24345 0.0
H713 H 0.56601 0.40616 0.22759 0.0
S714 S 0.73259 0.36774 0.25384 0.0
N715 N 0.72162 0.41598 0.26208 0.0
N716 N 0.68945 0.34497 0.24025 0.0
C717 C 0.66368 0.37678 0.24245 0.0
C718 C 0.68106 0.4152 0.25452 0.0
C719 C 0.5784 0.70088 0.2419 0.0
C720 C 0.54261 0.68029 0.25431 0.0
C721 C 0.61442 0.67968 0.23258 0.0
C722 C 0.61606 0.63735 0.23697 0.0
H723 H 0.57749 0.73278 0.23226 0.0
H724 H 0.64032 0.69621 0.21745 0.0
S725 S 0.53262 0.5707 0.28068 0.0
N726 N 0.5123 0.6162 0.27875 0.0
N727 N 0.58046 0.57656 0.26372 0.0
C728 C 0.58183 0.61715 0.25661 0.0
C729 C 0.54494 0.63864 0.26478 0.0
C730 C 0.32617 0.6289 0.24638 0.0
C731 C 0.36699 0.63143 0.23113 0.0
C732 C 0.30822 0.59136 0.25789 0.0
C733 C 0.33037 0.55538 0.25251 0.0
H734 H 0.3074 0.65564 0.24547 0.0
H735 H 0.27599 0.59022 0.26472 0.0
S736 S 0.43811 0.54659 0.21449 0.0
N737 N 0.4293 0.59552 0.21442 0.0
N738 N 0.39541 0.52517 0.23334 0.0
C739 C 0.37175 0.5581 0.24095 0.0
C740 C 0.3901 0.59614 0.23064 0.0
C741 C 0.3689 0.33125 0.23163 0.0
C742 C 0.36748 0.37362 0.2291 0.0
C743 C 0.40533 0.31085 0.24157 0.0
C744 C 0.44154 0.33221 0.24743 0.0
H745 H 0.34208 0.31376 0.22296 0.0
H746 H 0.40571 0.27825 0.23973 0.0
S747 S 0.45351 0.44289 0.24949 0.0
N748 N 0.40476 0.43603 0.23903 0.0
N749 N 0.47351 0.39748 0.25476 0.0
C750 C 0.44005 0.37439 0.24872 0.0
C751 C 0.40289 0.3952 0.24019 0.0
C752 C 0.17071 0.29527 0.26833 0.0
C753 C 0.12966 0.30578 0.26954 0.0
C754 C 0.2001 0.32365 0.25588 0.0
C755 C 0.18972 0.36376 0.24425 0.0
H756 H 0.18031 0.26466 0.27712 0.0
H757 H 0.23124 0.31384 0.25359 0.0
S758 S 0.08685 0.40716 0.24226 0.0
N759 N 0.08005 0.35933 0.25912 0.0
N760 N 0.13595 0.41301 0.23416 0.0
C761 C 0.14898 0.37509 0.24576 0.0
C762 C 0.11873 0.34593 0.25841 0.0
C763 C 0.6978 0.18082 0.29214 0.0
C764 C 0.69319 0.13905 0.28376 0.0
C765 C 0.66865 0.20813 0.27423 0.0
C766 C 0.6335 0.19476 0.24807 0.0
H767 H 0.7248 0.1928 0.31131 0.0
H768 H 0.67439 0.24012 0.27886 0.0
S769 S 0.60558 0.08907 0.21781 0.0
N770 N 0.64991 0.08563 0.24887 0.0
N771 N 0.59463 0.13765 0.21518 0.0
C772 C 0.62761 0.15326 0.24068 0.0
C773 C 0.65767 0.12519 0.2584 0.0
C774 C 0.79953 0.68451 0.2001 0.0
C775 C 0.79686 0.6433 0.2139 0.0
C776 C 0.83173 0.70795 0.21827 0.0
C777 C 0.86269 0.69099 0.25016 0.0
H778 H 0.77576 0.69935 0.17687 0.0
H779 H 0.83115 0.74011 0.2102 0.0
S780 S 0.87307 0.58417 0.29238 0.0
N781 N 0.83011 0.5859 0.25764 0.0
N782 N 0.89106 0.63056 0.29158 0.0
C783 C 0.86191 0.6496 0.26176 0.0
C784 C 0.82881 0.62558 0.24373 0.0
C785 C 0.28414 0.84692 0.1852 0.0
C786 C 0.30016 0.88117 0.21088 0.0
C787 C 0.30876 0.81433 0.17157 0.0
C788 C 0.35031 0.81468 0.18368 0.0
H789 H 0.25182 0.84378 0.18027 0.0
H790 H 0.29457 0.78781 0.15416 0.0
S791 S 0.40766 0.90093 0.24127 0.0
N792 N 0.36034 0.91649 0.24065 0.0
N793 N 0.40718 0.85479 0.21554 0.0
C794 C 0.36721 0.85026 0.20512 0.0
C795 C 0.34198 0.88374 0.21831 0.0
C796 C 0.20031 0.6799 0.78926 0.0
C797 C 0.19459 0.63793 0.7857 0.0
C798 C 0.17164 0.70681 0.76873 0.0
C799 C 0.13581 0.69287 0.74486 0.0
H800 H 0.22792 0.69222 0.80623 0.0
H801 H 0.17843 0.73876 0.769 0.0
S802 S 0.1042 0.5865 0.72972 0.0
N803 N 0.14906 0.5838 0.75943 0.0
N804 N 0.09458 0.63501 0.72124 0.0
C805 C 0.1285 0.65125 0.74341 0.0
C806 C 0.15814 0.62358 0.76358 0.0
C807 C 0.36288 0.14487 0.76661 0.0
C808 C 0.37196 0.18453 0.75063 0.0
C809 C 0.33189 0.12344 0.74057 0.0
C810 C 0.30878 0.14122 0.69806 0.0
H811 H 0.37853 0.13086 0.801 0.0
H812 H 0.32521 0.09332 0.75525 0.0
S813 S 0.32432 0.24382 0.63826 0.0
N814 N 0.35843 0.23989 0.68787 0.0
N815 N 0.30017 0.20041 0.63813 0.0
C816 C 0.3196 0.1803 0.67957 0.0
C817 C 0.3513 0.20172 0.706 0.0
C818 C 0.81271 0.28624 0.7487 0.0
C819 C 0.85227 0.2969 0.73454 0.0
C820 C 0.78625 0.31458 0.7707 0.0
C821 C 0.79817 0.35477 0.77825 0.0
H822 H 0.80204 0.25575 0.74221 0.0
H823 H 0.75604 0.30502 0.78147 0.0
S824 S 0.89861 0.39785 0.74753 0.0
N825 N 0.90249 0.34995 0.7295 0.0
N826 N 0.85215 0.40392 0.7708 0.0
C827 C 0.83765 0.36597 0.76427 0.0
C828 C 0.86496 0.33676 0.74258 0.0
C829 C 0.70476 0.8111 0.73479 0.0
C830 C 0.69463 0.85177 0.72672 0.0
C831 C 0.67602 0.78341 0.75228 0.0
C832 C 0.63595 0.79523 0.76139 0.0
H833 H 0.7352 0.80055 0.72724 0.0
H834 H 0.68527 0.75243 0.75912 0.0
S835 S 0.59382 0.89797 0.7454 0.0
N836 N 0.64183 0.9027 0.72844 0.0
N837 N 0.58728 0.84999 0.76164 0.0
C838 C 0.62514 0.83567 0.75319 0.0
C839 C 0.65471 0.8642 0.73598 0.0
C840 C 0.98623 0.22394 0.46099 0.0
C841 C -0.00358 0.26088 0.43719 0.0
C842 C 0.97418 0.22134 0.51589 0.0
C843 C 0.96829 0.25575 0.54806 0.0
H844 H 0.98857 0.19643 0.43714 0.0
H845 H 0.97026 0.19181 0.53378 0.0
S846 S 0.98868 0.36077 0.50443 0.0
N847 N -0.00025 0.33351 0.449 0.0
N848 N 0.97377 0.32871 0.55289 0.0
C849 C 0.97731 0.29351 0.52474 0.0
C850 C 0.9913 0.29612 0.46856 0.0
C851 C 0.77596 0.99086 0.52744 0.0
C852 C 0.739 0.98233 0.55242 0.0
C853 C 0.77798 0.00414 0.47302 0.0
C854 C 0.74316 0.01278 0.44279 0.0
H855 H 0.80388 0.98638 0.54993 0.0
H856 H 0.8073 0.0073 0.45418 0.0
S857 S 0.63821 -0.00268 0.48995 0.0
N858 N 0.66608 0.98338 0.54371 0.0
N859 N 0.66994 0.01154 0.44076 0.0
C860 C 0.70552 0.00525 0.46723 0.0
C861 C 0.70341 0.99013 0.52284 0.0
C862 C 0.00653 0.70198 0.5208 0.0
C863 C 0.01668 0.73826 0.54737 0.0
C864 C 0.99054 0.70238 0.46656 0.0
C865 C 0.98329 0.73913 0.43908 0.0
H866 H 0.01155 0.67343 0.54157 0.0
H867 H 0.98339 0.67413 0.44641 0.0
S868 S 0.00482 0.8418 0.49148 0.0
N869 N 0.01743 0.81142 0.54288 0.0
N870 N 0.98919 0.81203 0.44112 0.0
C871 C 0.99358 0.77525 0.46545 0.0
C872 C 0.00948 0.77487 0.5199 0.0
C873 C 0.28763 0.02377 0.48988 0.0
C874 C 0.25111 0.02728 0.51902 0.0
C875 C 0.28797 0.00956 0.43482 0.0
C876 C 0.25192 -0.00241 0.40912 0.0
H877 H 0.31574 0.03214 0.50956 0.0
H878 H 0.31633 0.00701 0.41292 0.0
S879 S 0.14929 -0.00057 0.46945 0.0
N880 N 0.17895 0.01569 0.51958 0.0
N881 N 0.17919 0.9912 0.4161 0.0
C882 C 0.21552 0.00136 0.43812 0.0
C883 C 0.21526 0.01528 0.49345 0.0
C884 C 0.49699 0.71458 0.95814 0.0
C885 C 0.50628 0.7503 0.93042 0.0
C886 C 0.48341 0.71492 0.01248 0.0
C887 C 0.47514 0.75096 0.03978 0.0
H888 H 0.50066 0.68586 0.93767 0.0
H889 H 0.47954 0.68649 0.03357 0.0
S890 S 0.49193 0.85366 0.98435 0.0
N891 N 0.50587 0.8235 0.93318 0.0
N892 N 0.47722 0.82413 0.03589 0.0
C893 C 0.48334 0.78746 0.01249 0.0
C894 C 0.49876 0.78713 0.95702 0.0
C895 C 0.27669 0.50707 0.98369 0.0
C896 C 0.24176 0.51658 0.9542 0.0
C897 C 0.27511 0.49507 0.03874 0.0
C898 C 0.2383 0.48877 0.06535 0.0
H899 H 0.30576 0.50838 0.96372 0.0
H900 H 0.30321 0.48984 0.06047 0.0
S901 S 0.13716 0.50746 0.00582 0.0
N902 N 0.16855 0.51892 0.95488 0.0
N903 N 0.16537 0.49338 0.05916 0.0
C904 C 0.20256 0.49774 0.03668 0.0
C905 C 0.2043 0.51148 0.98034 0.0
C906 C 0.50871 0.20526 0.03445 0.0
C907 C 0.51359 0.24238 0.06167 0.0
C908 C 0.49387 0.20395 0.97967 0.0
C909 C 0.48241 0.23964 0.95231 0.0
H910 H 0.51695 0.17744 0.05516 0.0
H911 H 0.49088 0.17516 0.95899 0.0
S912 S 0.48856 0.34377 0.007 0.0
N913 N 0.50435 0.31493 0.05847 0.0
N914 N 0.47824 0.31269 0.95558 0.0
C915 C 0.48722 0.27662 0.97951 0.0
C916 C 0.50202 0.2779 0.03454 0.0
C917 C 0.71381 0.49924 0.97163 0.0
C918 C 0.75162 0.48987 0.94961 0.0
C919 C 0.7099 0.5136 0.02531 0.0
C920 C 0.74364 0.52216 0.0577 0.0
H921 H 0.68671 0.49451 0.94743 0.0
H922 H 0.67995 0.5175 0.04196 0.0
S923 S 0.85008 0.50472 0.0186 0.0
N924 N 0.82412 0.49028 0.96341 0.0
N925 N 0.81668 0.52005 0.06497 0.0
C926 C 0.78208 0.5138 0.0362 0.0
C927 C 0.78613 0.4978 0.98136 0.0
loop_
_geom_bond_atom_site_label_1
_geom_bond_atom_site_label_2
_geom_bond_distance
_geom_bond_site_symmetry_2
_ccdc_geom_bond_type
Mn0 O5 2.095 . S
Mn0 O15 2.162 1_455 S
Mn0 O16 2.297 1_455 S
Mn0 O24 2.385 1_455 S
Mn0 O25 2.209 . S
Mn0 O26 2.094 . S
Mn1 O6 2.121 . S
Mn1 N8 2.257 . S
Mn1 N17 2.282 . S
Mn1 O25 2.215 . S
Mn1 O27 2.117 . S
C2 O24 1.234 1_455 S
C2 O25 1.283 . S
C3 O15 1.281 . S
C3 O16 1.236 . S
C4 O26 1.240 . S
C4 O27 1.264 . S
O5 Mn0 2.095 . S
O5 C14 1.250 . S
O6 Mn1 2.121 . S
O6 C14 1.258 . S
C7 N8 1.326 . S
C7 C11 1.460 . S
C7 H13 0.929 . S
N8 Mn1 2.257 . S
N8 C7 1.326 . S
N8 C12 1.362 . S
C9 C10 1.258 . S
C9 C12 1.431 . S
C9 C29 1.449 . S
C10 C9 1.258 . S
C10 C11 1.477 . S
C10 H30 0.931 . S
C11 C7 1.460 . S
C11 C10 1.477 . S
C11 H31 0.930 . S
C12 N8 1.362 . S
C12 C9 1.431 . S
C12 C22 1.476 . S
H13 C7 0.929 . S
C14 O5 1.250 . S
C14 O6 1.258 . S
O15 Mn0 2.162 1_655 S
O15 C3 1.281 . S
O16 Mn0 2.297 1_655 S
O16 C3 1.236 . S
N17 Mn1 2.282 . S
N17 C18 1.328 . S
N17 C22 1.318 . S
C18 N17 1.328 . S
C18 C19 1.457 . S
C18 H23 0.929 . S
C19 C18 1.457 . S
C19 C20 1.291 . S
C19 H32 0.931 . S
C20 C19 1.291 . S
C20 C21 1.373 . S
C20 H33 0.929 . S
C21 C20 1.373 . S
C21 C22 1.396 . S
C21 C28 1.403 . S
C22 C12 1.476 . S
C22 N17 1.318 . S
C22 C21 1.396 . S
H23 C18 0.929 . S
O24 Mn0 2.385 1_655 S
O24 C2 1.234 1_655 S
O25 Mn0 2.209 . S
O25 Mn1 2.215 . S
O25 C2 1.283 . S
O26 Mn0 2.094 . S
O26 C4 1.240 . S
O27 Mn1 2.117 . S
O27 C4 1.264 . S
C28 C21 1.403 . S
C28 C29 1.399 . S
C28 H34 0.929 . S
C29 C9 1.449 . S
C29 C28 1.399 . S
C29 H35 0.930 . S
H30 C10 0.931 . S
H31 C11 0.930 . S
H32 C19 0.931 . S
H33 C20 0.929 . S
H34 C28 0.929 . S
H35 C29 0.930 . S
Mn36 O41 2.095 . S
Mn36 O51 2.162 1_545 S
Mn36 O52 2.297 1_545 S
Mn36 O60 2.385 1_545 S
Mn36 O61 2.209 . S
Mn36 O62 2.094 . S
Mn37 O42 2.121 . S
Mn37 N44 2.257 . S
Mn37 N53 2.282 . S
Mn37 O61 2.215 . S
Mn37 O63 2.117 . S
C38 O60 1.234 1_545 S
C38 O61 1.283 . S
C39 O51 1.281 . S
C39 O52 1.236 . S
C40 O62 1.240 . S
C40 O63 1.264 . S
O41 Mn36 2.095 . S
O41 C50 1.250 . S
O42 Mn37 2.121 . S
O42 C50 1.258 . S
C43 N44 1.326 . S
C43 C47 1.460 . S
C43 H49 0.929 . S
N44 Mn37 2.257 . S
N44 C43 1.326 . S
N44 C48 1.362 . S
C45 C46 1.258 . S
C45 C48 1.431 . S
C45 C65 1.449 . S
C46 C45 1.258 . S
C46 C47 1.477 . S
C46 H66 0.931 . S
C47 C43 1.460 . S
C47 C46 1.477 . S
C47 H67 0.930 . S
C48 N44 1.362 . S
C48 C45 1.431 . S
C48 C58 1.476 . S
H49 C43 0.929 . S
C50 O41 1.250 . S
C50 O42 1.258 . S
O51 Mn36 2.162 1_565 S
O51 C39 1.281 . S
O52 Mn36 2.297 1_565 S
O52 C39 1.236 . S
N53 Mn37 2.282 . S
N53 C54 1.328 . S
N53 C58 1.318 . S
C54 N53 1.328 . S
C54 C55 1.457 . S
C54 H59 0.929 . S
C55 C54 1.457 . S
C55 C56 1.291 . S
C55 H68 0.931 . S
C56 C55 1.291 . S
C56 C57 1.373 . S
C56 H69 0.929 . S
C57 C56 1.373 . S
C57 C58 1.396 . S
C57 C64 1.403 . S
C58 C48 1.476 . S
C58 N53 1.318 . S
C58 C57 1.396 . S
H59 C54 0.929 . S
O60 Mn36 2.385 1_565 S
O60 C38 1.234 1_565 S
O61 Mn36 2.209 . S
O61 Mn37 2.215 . S
O61 C38 1.283 . S
O62 Mn36 2.094 . S
O62 C40 1.240 . S
O63 Mn37 2.117 . S
O63 C40 1.264 . S
C64 C57 1.403 . S
C64 C65 1.399 . S
C64 H70 0.929 . S
C65 C45 1.449 . S
C65 C64 1.399 . S
C65 H71 0.930 . S
H66 C46 0.931 . S
H67 C47 0.930 . S
H68 C55 0.931 . S
H69 C56 0.929 . S
H70 C64 0.929 . S
H71 C65 0.930 . S
Mn72 O77 2.095 . S
Mn72 O87 2.162 1_655 S
Mn72 O88 2.297 1_655 S
Mn72 O96 2.385 1_655 S
Mn72 O97 2.209 . S
Mn72 O98 2.094 . S
Mn73 O78 2.121 . S
Mn73 N80 2.257 . S
Mn73 N89 2.282 . S
Mn73 O97 2.215 . S
Mn73 O99 2.117 . S
C74 O96 1.234 1_655 S
C74 O97 1.283 . S
C75 O87 1.281 . S
C75 O88 1.236 . S
C76 O98 1.240 . S
C76 O99 1.264 . S
O77 Mn72 2.095 . S
O77 C86 1.250 . S
O78 Mn73 2.121 . S
O78 C86 1.258 . S
C79 N80 1.326 . S
C79 C83 1.460 . S
C79 H85 0.929 . S
N80 Mn73 2.257 . S
N80 C79 1.326 . S
N80 C84 1.362 . S
C81 C82 1.258 . S
C81 C84 1.431 . S
C81 C101 1.449 . S
C82 C81 1.258 . S
C82 C83 1.477 . S
C82 H102 0.931 . S
C83 C79 1.460 . S
C83 C82 1.477 . S
C83 H103 0.930 . S
C84 N80 1.362 . S
C84 C81 1.431 . S
C84 C94 1.476 . S
H85 C79 0.929 . S
C86 O77 1.250 . S
C86 O78 1.258 . S
O87 Mn72 2.162 1_455 S
O87 C75 1.281 . S
O88 Mn72 2.297 1_455 S
O88 C75 1.236 . S
N89 Mn73 2.282 . S
N89 C90 1.328 . S
N89 C94 1.318 . S
C90 N89 1.328 . S
C90 C91 1.457 . S
C90 H95 0.929 . S
C91 C90 1.457 . S
C91 C92 1.291 . S
C91 H104 0.931 . S
C92 C91 1.291 . S
C92 C93 1.373 . S
C92 H105 0.929 . S
C93 C92 1.373 . S
C93 C94 1.396 . S
C93 C100 1.403 . S
C94 C84 1.476 . S
C94 N89 1.318 . S
C94 C93 1.396 . S
H95 C90 0.929 . S
O96 Mn72 2.385 1_455 S
O96 C74 1.234 1_455 S
O97 Mn72 2.209 . S
O97 Mn73 2.215 . S
O97 C74 1.283 . S
O98 Mn72 2.094 . S
O98 C76 1.240 . S
O99 Mn73 2.117 . S
O99 C76 1.264 . S
C100 C93 1.403 . S
C100 C101 1.399 . S
C100 H106 0.929 . S
C101 C81 1.449 . S
C101 C100 1.399 . S
C101 H107 0.930 . S
H102 C82 0.931 . S
H103 C83 0.930 . S
H104 C91 0.931 . S
H105 C92 0.929 . S
H106 C100 0.929 . S
H107 C101 0.930 . S
Mn108 O113 2.095 . S
Mn108 O123 2.162 1_565 S
Mn108 O124 2.297 1_565 S
Mn108 O132 2.385 1_565 S
Mn108 O133 2.209 . S
Mn108 O134 2.094 . S
Mn109 O114 2.121 . S
Mn109 N116 2.257 . S
Mn109 N125 2.282 . S
Mn109 O133 2.215 . S
Mn109 O135 2.117 . S
C110 O132 1.234 1_565 S
C110 O133 1.283 . S
C111 O123 1.281 . S
C111 O124 1.236 . S
C112 O134 1.240 . S
C112 O135 1.264 . S
O113 Mn108 2.095 . S
O113 C122 1.250 . S
O114 Mn109 2.121 . S
O114 C122 1.258 . S
C115 N116 1.326 . S
C115 C119 1.460 . S
C115 H121 0.929 . S
N116 Mn109 2.257 . S
N116 C115 1.326 . S
N116 C120 1.362 . S
C117 C118 1.258 . S
C117 C120 1.431 . S
C117 C137 1.449 . S
C118 C117 1.258 . S
C118 C119 1.477 . S
C118 H138 0.931 . S
C119 C115 1.460 . S
C119 C118 1.477 . S
C119 H139 0.930 . S
C120 N116 1.362 . S
C120 C117 1.431 . S
C120 C130 1.476 . S
H121 C115 0.929 . S
C122 O113 1.250 . S
C122 O114 1.258 . S
O123 Mn108 2.162 1_545 S
O123 C111 1.281 . S
O124 Mn108 2.297 1_545 S
O124 C111 1.236 . S
N125 Mn109 2.282 . S
N125 C126 1.328 . S
N125 C130 1.318 . S
C126 N125 1.328 . S
C126 C127 1.457 . S
C126 H131 0.929 . S
C127 C126 1.457 . S
C127 C128 1.291 . S
C127 H140 0.931 . S
C128 C127 1.291 . S
C128 C129 1.373 . S
C128 H141 0.929 . S
C129 C128 1.373 . S
C129 C130 1.396 . S
C129 C136 1.403 . S
C130 C120 1.476 . S
C130 N125 1.318 . S
C130 C129 1.396 . S
H131 C126 0.929 . S
O132 Mn108 2.385 1_545 S
O132 C110 1.234 1_545 S
O133 Mn108 2.209 . S
O133 Mn109 2.215 . S
O133 C110 1.283 . S
O134 Mn108 2.094 . S
O134 C112 1.240 . S
O135 Mn109 2.117 . S
O135 C112 1.264 . S
C136 C129 1.403 . S
C136 C137 1.399 . S
C136 H142 0.929 . S
C137 C117 1.449 . S
C137 C136 1.399 . S
C137 H143 0.930 . S
H138 C118 0.931 . S
H139 C119 0.930 . S
H140 C127 0.931 . S
H141 C128 0.929 . S
H142 C136 0.929 . S
H143 C137 0.930 . S
Mn144 O149 2.095 . S
Mn144 O159 2.162 1_455 S
Mn144 O160 2.297 1_455 S
Mn144 O168 2.385 1_455 S
Mn144 O169 2.209 . S
Mn144 O170 2.094 . S
Mn145 O150 2.121 . S
Mn145 N152 2.257 . S
Mn145 N161 2.282 . S
Mn145 O169 2.215 . S
Mn145 O171 2.117 . S
C146 O168 1.234 1_455 S
C146 O169 1.283 . S
C147 O159 1.281 . S
C147 O160 1.236 . S
C148 O170 1.240 . S
C148 O171 1.264 . S
O149 Mn144 2.095 . S
O149 C158 1.250 . S
O150 Mn145 2.121 . S
O150 C158 1.258 . S
C151 N152 1.326 . S
C151 C155 1.460 . S
C151 H157 0.929 . S
N152 Mn145 2.257 . S
N152 C151 1.326 . S
N152 C156 1.362 . S
C153 C154 1.258 . S
C153 C156 1.431 . S
C153 C173 1.449 . S
C154 C153 1.258 . S
C154 C155 1.477 . S
C154 H174 0.931 . S
C155 C151 1.460 . S
C155 C154 1.477 . S
C155 H175 0.930 . S
C156 N152 1.362 . S
C156 C153 1.431 . S
C156 C166 1.476 . S
H157 C151 0.929 . S
C158 O149 1.250 . S
C158 O150 1.258 . S
O159 Mn144 2.162 1_655 S
O159 C147 1.281 . S
O160 Mn144 2.297 1_655 S
O160 C147 1.236 . S
N161 Mn145 2.282 . S
N161 C162 1.328 . S
N161 C166 1.318 . S
C162 N161 1.328 . S
C162 C163 1.457 . S
C162 H167 0.929 . S
C163 C162 1.457 . S
C163 C164 1.291 . S
C163 H176 0.931 . S
C164 C163 1.291 . S
C164 C165 1.373 . S
C164 H177 0.929 . S
C165 C164 1.373 . S
C165 C166 1.396 . S
C165 C172 1.403 . S
C166 C156 1.476 . S
C166 N161 1.318 . S
C166 C165 1.396 . S
H167 C162 0.929 . S
O168 Mn144 2.385 1_655 S
O168 C146 1.234 1_655 S
O169 Mn144 2.209 . S
O169 Mn145 2.215 . S
O169 C146 1.283 . S
O170 Mn144 2.094 . S
O170 C148 1.240 . S
O171 Mn145 2.117 . S
O171 C148 1.264 . S
C172 C165 1.403 . S
C172 C173 1.399 . S
C172 H178 0.929 . S
C173 C153 1.449 . S
C173 C172 1.399 . S
C173 H179 0.930 . S
H174 C154 0.931 . S
H175 C155 0.930 . S
H176 C163 0.931 . S
H177 C164 0.929 . S
H178 C172 0.929 . S
H179 C173 0.930 . S
Mn180 O185 2.095 . S
Mn180 O195 2.162 1_545 S
Mn180 O196 2.297 1_545 S
Mn180 O204 2.385 1_545 S
Mn180 O205 2.209 . S
Mn180 O206 2.094 . S
Mn181 O186 2.121 . S
Mn181 N188 2.257 . S
Mn181 N197 2.282 . S
Mn181 O205 2.215 . S
Mn181 O207 2.117 . S
C182 O204 1.234 1_545 S
C182 O205 1.283 . S
C183 O195 1.281 . S
C183 O196 1.236 . S
C184 O206 1.240 . S
C184 O207 1.264 . S
O185 Mn180 2.095 . S
O185 C194 1.250 . S
O186 Mn181 2.121 . S
O186 C194 1.258 . S
C187 N188 1.326 . S
C187 C191 1.460 . S
C187 H193 0.929 . S
N188 Mn181 2.257 . S
N188 C187 1.326 . S
N188 C192 1.362 . S
C189 C190 1.258 . S
C189 C192 1.431 . S
C189 C209 1.449 . S
C190 C189 1.258 . S
C190 C191 1.477 . S
C190 H210 0.931 . S
C191 C187 1.460 . S
C191 C190 1.477 . S
C191 H211 0.930 . S
C192 N188 1.362 . S
C192 C189 1.431 . S
C192 C202 1.476 . S
H193 C187 0.929 . S
C194 O185 1.250 . S
C194 O186 1.258 . S
O195 Mn180 2.162 1_565 S
O195 C183 1.281 . S
O196 Mn180 2.297 1_565 S
O196 C183 1.236 . S
N197 Mn181 2.282 . S
N197 C198 1.328 . S
N197 C202 1.318 . S
C198 N197 1.328 . S
C198 C199 1.457 . S
C198 H203 0.929 . S
C199 C198 1.457 . S
C199 C200 1.291 . S
C199 H212 0.931 . S
C200 C199 1.291 . S
C200 C201 1.373 . S
C200 H213 0.929 . S
C201 C200 1.373 . S
C201 C202 1.396 . S
C201 C208 1.403 . S
C202 C192 1.476 . S
C202 N197 1.318 . S
C202 C201 1.396 . S
H203 C198 0.929 . S
O204 Mn180 2.385 1_565 S
O204 C182 1.234 1_565 S
O205 Mn180 2.209 . S
O205 Mn181 2.215 . S
O205 C182 1.283 . S
O206 Mn180 2.094 . S
O206 C184 1.240 . S
O207 Mn181 2.117 . S
O207 C184 1.264 . S
C208 C201 1.403 . S
C208 C209 1.399 . S
C208 H214 0.929 . S
C209 C189 1.449 . S
C209 C208 1.399 . S
C209 H215 0.930 . S
H210 C190 0.931 . S
H211 C191 0.930 . S
H212 C199 0.931 . S
H213 C200 0.929 . S
H214 C208 0.929 . S
H215 C209 0.930 . S
Mn216 O221 2.095 . S
Mn216 O231 2.162 1_655 S
Mn216 O232 2.297 1_655 S
Mn216 O240 2.385 1_655 S
Mn216 O241 2.209 . S
Mn216 O242 2.094 . S
Mn217 O222 2.121 . S
Mn217 N224 2.257 . S
Mn217 N233 2.282 . S
Mn217 O241 2.215 . S
Mn217 O243 2.117 . S
C218 O240 1.234 1_655 S
C218 O241 1.283 . S
C219 O231 1.281 . S
C219 O232 1.236 . S
C220 O242 1.240 . S
C220 O243 1.264 . S
O221 Mn216 2.095 . S
O221 C230 1.250 . S
O222 Mn217 2.121 . S
O222 C230 1.258 . S
C223 N224 1.326 . S
C223 C227 1.460 . S
C223 H229 0.929 . S
N224 Mn217 2.257 . S
N224 C223 1.326 . S
N224 C228 1.362 . S
C225 C226 1.258 . S
C225 C228 1.431 . S
C225 C245 1.449 . S
C226 C225 1.258 . S
C226 C227 1.477 . S
C226 H246 0.931 . S
C227 C223 1.460 . S
C227 C226 1.477 . S
C227 H247 0.930 . S
C228 N224 1.362 . S
C228 C225 1.431 . S
C228 C238 1.476 . S
H229 C223 0.929 . S
C230 O221 1.250 . S
C230 O222 1.258 . S
O231 Mn216 2.162 1_455 S
O231 C219 1.281 . S
O232 Mn216 2.297 1_455 S
O232 C219 1.236 . S
N233 Mn217 2.282 . S
N233 C234 1.328 . S
N233 C238 1.318 . S
C234 N233 1.328 . S
C234 C235 1.457 . S
C234 H239 0.929 . S
C235 C234 1.457 . S
C235 C236 1.291 . S
C235 H248 0.931 . S
C236 C235 1.291 . S
C236 C237 1.373 . S
C236 H249 0.929 . S
C237 C236 1.373 . S
C237 C238 1.396 . S
C237 C244 1.403 . S
C238 C228 1.476 . S
C238 N233 1.318 . S
C238 C237 1.396 . S
H239 C234 0.929 . S
O240 Mn216 2.385 1_455 S
O240 C218 1.234 1_455 S
O241 Mn216 2.209 . S
O241 Mn217 2.215 . S
O241 C218 1.283 . S
O242 Mn216 2.094 . S
O242 C220 1.240 . S
O243 Mn217 2.117 . S
O243 C220 1.264 . S
C244 C237 1.403 . S
C244 C245 1.399 . S
C244 H250 0.929 . S
C245 C225 1.449 . S
C245 C244 1.399 . S
C245 H251 0.930 . S
H246 C226 0.931 . S
H247 C227 0.930 . S
H248 C235 0.931 . S
H249 C236 0.929 . S
H250 C244 0.929 . S
H251 C245 0.930 . S
Mn252 O257 2.095 . S
Mn252 O267 2.162 1_565 S
Mn252 O268 2.297 1_565 S
Mn252 O276 2.385 1_565 S
Mn252 O277 2.209 . S
Mn252 O278 2.094 . S
Mn253 O258 2.121 . S
Mn253 N260 2.257 . S
Mn253 N269 2.282 . S
Mn253 O277 2.215 . S
Mn253 O279 2.117 . S
C254 O276 1.234 1_565 S
C254 O277 1.283 . S
C255 O267 1.281 . S
C255 O268 1.236 . S
C256 O278 1.240 . S
C256 O279 1.264 . S
O257 Mn252 2.095 . S
O257 C266 1.250 . S
O258 Mn253 2.121 . S
O258 C266 1.258 . S
C259 N260 1.326 . S
C259 C263 1.460 . S
C259 H265 0.929 . S
N260 Mn253 2.257 . S
N260 C259 1.326 . S
N260 C264 1.362 . S
C261 C262 1.258 . S
C261 C264 1.431 . S
C261 C281 1.449 . S
C262 C261 1.258 . S
C262 C263 1.477 . S
C262 H282 0.931 . S
C263 C259 1.460 . S
C263 C262 1.477 . S
C263 H283 0.930 . S
C264 N260 1.362 . S
C264 C261 1.431 . S
C264 C274 1.476 . S
H265 C259 0.929 . S
C266 O257 1.250 . S
C266 O258 1.258 . S
O267 Mn252 2.162 1_545 S
O267 C255 1.281 . S
O268 Mn252 2.297 1_545 S
O268 C255 1.236 . S
N269 Mn253 2.282 . S
N269 C270 1.328 . S
N269 C274 1.318 . S
C270 N269 1.328 . S
C270 C271 1.457 . S
C270 H275 0.929 . S
C271 C270 1.457 . S
C271 C272 1.291 . S
C271 H284 0.931 . S
C272 C271 1.291 . S
C272 C273 1.373 . S
C272 H285 0.929 . S
C273 C272 1.373 . S
C273 C274 1.396 . S
C273 C280 1.403 . S
C274 C264 1.476 . S
C274 N269 1.318 . S
C274 C273 1.396 . S
H275 C270 0.929 . S
O276 Mn252 2.385 1_545 S
O276 C254 1.234 1_545 S
O277 Mn252 2.209 . S
O277 Mn253 2.215 . S
O277 C254 1.283 . S
O278 Mn252 2.094 . S
O278 C256 1.240 . S
O279 Mn253 2.117 . S
O279 C256 1.264 . S
C280 C273 1.403 . S
C280 C281 1.399 . S
C280 H286 0.929 . S
C281 C261 1.449 . S
C281 C280 1.399 . S
C281 H287 0.930 . S
H282 C262 0.931 . S
H283 C263 0.930 . S
H284 C271 0.931 . S
H285 C272 0.929 . S
H286 C280 0.929 . S
H287 C281 0.930 . S
Mn288 O293 2.095 . S
Mn288 O303 2.162 . S
Mn288 O304 2.297 . S
Mn288 O312 2.385 . S
Mn288 O313 2.209 . S
Mn288 O314 2.094 . S
Mn289 O294 2.121 . S
Mn289 N296 2.257 . S
Mn289 N305 2.282 . S
Mn289 O313 2.215 . S
Mn289 O315 2.117 . S
C290 O312 1.234 . S
C290 O313 1.283 . S
C291 O303 1.281 . S
C291 O304 1.236 . S
C292 O314 1.240 . S
C292 O315 1.264 . S
O293 Mn288 2.095 . S
O293 C302 1.250 . S
O294 Mn289 2.121 . S
O294 C302 1.258 . S
C295 N296 1.326 . S
C295 C299 1.460 . S
C295 H301 0.929 . S
N296 Mn289 2.257 . S
N296 C295 1.326 . S
N296 C300 1.362 . S
C297 C298 1.258 . S
C297 C300 1.431 1_554 S
C297 C317 1.449 . S
C298 C297 1.258 . S
C298 C299 1.477 1_554 S
C298 H318 0.931 . S
C299 C295 1.460 . S
C299 C298 1.477 1_556 S
C299 H319 0.929 1_556 S
C300 N296 1.362 . S
C300 C297 1.431 1_556 S
C300 C310 1.476 . S
H301 C295 0.929 . S
C302 O293 1.250 . S
C302 O294 1.258 . S
O303 Mn288 2.162 . S
O303 C291 1.281 . S
O304 Mn288 2.297 . S
O304 C291 1.236 . S
N305 Mn289 2.282 . S
N305 C306 1.328 . S
N305 C310 1.318 . S
C306 N305 1.328 . S
C306 C307 1.457 . S
C306 H311 0.929 . S
C307 C306 1.457 . S
C307 C308 1.291 1_556 S
C307 H320 0.931 . S
C308 C307 1.291 1_554 S
C308 C309 1.373 . S
C308 H321 0.929 . S
C309 C308 1.373 . S
C309 C310 1.396 1_554 S
C309 C316 1.403 . S
C310 C300 1.476 . S
C310 N305 1.318 . S
C310 C309 1.396 1_556 S
H311 C306 0.929 . S
O312 Mn288 2.385 . S
O312 C290 1.234 . S
O313 Mn288 2.209 . S
O313 Mn289 2.215 . S
O313 C290 1.283 . S
O314 Mn288 2.094 . S
O314 C292 1.240 . S
O315 Mn289 2.117 . S
O315 C292 1.264 . S
C316 C309 1.403 . S
C316 C317 1.399 . S
C316 H322 0.929 . S
C317 C297 1.449 . S
C317 C316 1.399 . S
C317 H323 0.930 . S
H318 C298 0.931 . S
H319 C299 0.929 1_554 S
H320 C307 0.931 . S
H321 C308 0.929 . S
H322 C316 0.929 . S
H323 C317 0.930 . S
Mn324 O329 2.095 . S
Mn324 O339 2.162 . S
Mn324 O340 2.297 . S
Mn324 O348 2.385 . S
Mn324 O349 2.209 . S
Mn324 O350 2.094 . S
Mn325 O330 2.121 . S
Mn325 N332 2.257 . S
Mn325 N341 2.282 . S
Mn325 O349 2.215 . S
Mn325 O351 2.117 . S
C326 O348 1.234 . S
C326 O349 1.283 . S
C327 O339 1.281 . S
C327 O340 1.236 . S
C328 O350 1.240 . S
C328 O351 1.264 . S
O329 Mn324 2.095 . S
O329 C338 1.250 . S
O330 Mn325 2.121 . S
O330 C338 1.258 . S
C331 N332 1.326 . S
C331 C335 1.460 . S
C331 H337 0.929 . S
N332 Mn325 2.257 . S
N332 C331 1.326 . S
N332 C336 1.362 . S
C333 C334 1.258 . S
C333 C336 1.431 1_554 S
C333 C353 1.449 . S
C334 C333 1.258 . S
C334 C335 1.477 1_554 S
C334 H354 0.931 . S
C335 C331 1.460 . S
C335 C334 1.477 1_556 S
C335 H355 0.929 1_556 S
C336 N332 1.362 . S
C336 C333 1.431 1_556 S
C336 C346 1.476 . S
H337 C331 0.929 . S
C338 O329 1.250 . S
C338 O330 1.258 . S
O339 Mn324 2.162 . S
O339 C327 1.281 . S
O340 Mn324 2.297 . S
O340 C327 1.236 . S
N341 Mn325 2.282 . S
N341 C342 1.328 . S
N341 C346 1.318 . S
C342 N341 1.328 . S
C342 C343 1.457 . S
C342 H347 0.929 . S
C343 C342 1.457 . S
C343 C344 1.291 1_556 S
C343 H356 0.931 . S
C344 C343 1.291 1_554 S
C344 C345 1.373 . S
C344 H357 0.929 . S
C345 C344 1.373 . S
C345 C346 1.396 1_554 S
C345 C352 1.403 . S
C346 C336 1.476 . S
C346 N341 1.318 . S
C346 C345 1.396 1_556 S
H347 C342 0.929 . S
O348 Mn324 2.385 . S
O348 C326 1.234 . S
O349 Mn324 2.209 . S
O349 Mn325 2.215 . S
O349 C326 1.283 . S
O350 Mn324 2.094 . S
O350 C328 1.240 . S
O351 Mn325 2.117 . S
O351 C328 1.264 . S
C352 C345 1.403 . S
C352 C353 1.399 . S
C352 H358 0.929 . S
C353 C333 1.449 . S
C353 C352 1.399 . S
C353 H359 0.930 . S
H354 C334 0.931 . S
H355 C335 0.929 1_554 S
H356 C343 0.931 . S
H357 C344 0.929 . S
H358 C352 0.929 . S
H359 C353 0.930 . S
Mn360 O365 2.095 . S
Mn360 O375 2.162 . S
Mn360 O376 2.297 . S
Mn360 O384 2.385 . S
Mn360 O385 2.209 . S
Mn360 O386 2.094 . S
Mn361 O366 2.121 . S
Mn361 N368 2.257 . S
Mn361 N377 2.282 . S
Mn361 O385 2.215 . S
Mn361 O387 2.117 . S
C362 O384 1.234 . S
C362 O385 1.283 . S
C363 O375 1.281 . S
C363 O376 1.236 . S
C364 O386 1.240 . S
C364 O387 1.264 . S
O365 Mn360 2.095 . S
O365 C374 1.250 . S
O366 Mn361 2.121 . S
O366 C374 1.258 . S
C367 N368 1.326 . S
C367 C371 1.460 . S
C367 H373 0.929 . S
N368 Mn361 2.257 . S
N368 C367 1.326 . S
N368 C372 1.362 . S
C369 C370 1.258 . S
C369 C372 1.431 1_554 S
C369 C389 1.449 . S
C370 C369 1.258 . S
C370 C371 1.477 1_554 S
C370 H390 0.931 . S
C371 C367 1.460 . S
C371 C370 1.477 1_556 S
C371 H391 0.929 1_556 S
C372 N368 1.362 . S
C372 C369 1.431 1_556 S
C372 C382 1.476 . S
H373 C367 0.929 . S
C374 O365 1.250 . S
C374 O366 1.258 . S
O375 Mn360 2.162 . S
O375 C363 1.281 . S
O376 Mn360 2.297 . S
O376 C363 1.236 . S
N377 Mn361 2.282 . S
N377 C378 1.328 . S
N377 C382 1.318 . S
C378 N377 1.328 . S
C378 C379 1.457 . S
C378 H383 0.929 . S
C379 C378 1.457 . S
C379 C380 1.291 1_556 S
C379 H392 0.931 . S
C380 C379 1.291 1_554 S
C380 C381 1.373 . S
C380 H393 0.929 . S
C381 C380 1.373 . S
C381 C382 1.396 1_554 S
C381 C388 1.403 . S
C382 C372 1.476 . S
C382 N377 1.318 . S
C382 C381 1.396 1_556 S
H383 C378 0.929 . S
O384 Mn360 2.385 . S
O384 C362 1.234 . S
O385 Mn360 2.209 . S
O385 Mn361 2.215 . S
O385 C362 1.283 . S
O386 Mn360 2.094 . S
O386 C364 1.240 . S
O387 Mn361 2.117 . S
O387 C364 1.264 . S
C388 C381 1.403 . S
C388 C389 1.399 . S
C388 H394 0.929 . S
C389 C369 1.449 . S
C389 C388 1.399 . S
C389 H395 0.930 . S
H390 C370 0.931 . S
H391 C371 0.929 1_554 S
H392 C379 0.931 . S
H393 C380 0.929 . S
H394 C388 0.929 . S
H395 C389 0.930 . S
Mn396 O401 2.095 . S
Mn396 O411 2.162 . S
Mn396 O412 2.297 . S
Mn396 O420 2.385 . S
Mn396 O421 2.209 . S
Mn396 O422 2.094 . S
Mn397 O402 2.121 . S
Mn397 N404 2.257 . S
Mn397 N413 2.282 . S
Mn397 O421 2.215 . S
Mn397 O423 2.117 . S
C398 O420 1.234 . S
C398 O421 1.283 . S
C399 O411 1.281 . S
C399 O412 1.236 . S
C400 O422 1.240 . S
C400 O423 1.264 . S
O401 Mn396 2.095 . S
O401 C410 1.250 . S
O402 Mn397 2.121 . S
O402 C410 1.258 . S
C403 N404 1.326 . S
C403 C407 1.460 . S
C403 H409 0.929 . S
N404 Mn397 2.257 . S
N404 C403 1.326 . S
N404 C408 1.362 . S
C405 C406 1.258 . S
C405 C408 1.431 1_554 S
C405 C425 1.449 . S
C406 C405 1.258 . S
C406 C407 1.477 1_554 S
C406 H426 0.931 . S
C407 C403 1.460 . S
C407 C406 1.477 1_556 S
C407 H427 0.929 1_556 S
C408 N404 1.362 . S
C408 C405 1.431 1_556 S
C408 C418 1.476 . S
H409 C403 0.929 . S
C410 O401 1.250 . S
C410 O402 1.258 . S
O411 Mn396 2.162 . S
O411 C399 1.281 . S
O412 Mn396 2.297 . S
O412 C399 1.236 . S
N413 Mn397 2.282 . S
N413 C414 1.328 . S
N413 C418 1.318 . S
C414 N413 1.328 . S
C414 C415 1.457 . S
C414 H419 0.929 . S
C415 C414 1.457 . S
C415 C416 1.291 1_556 S
C415 H428 0.931 . S
C416 C415 1.291 1_554 S
C416 C417 1.373 . S
C416 H429 0.929 . S
C417 C416 1.373 . S
C417 C418 1.396 1_554 S
C417 C424 1.403 . S
C418 C408 1.476 . S
C418 N413 1.318 . S
C418 C417 1.396 1_556 S
H419 C414 0.929 . S
O420 Mn396 2.385 . S
O420 C398 1.234 . S
O421 Mn396 2.209 . S
O421 Mn397 2.215 . S
O421 C398 1.283 . S
O422 Mn396 2.094 . S
O422 C400 1.240 . S
O423 Mn397 2.117 . S
O423 C400 1.264 . S
C424 C417 1.403 . S
C424 C425 1.399 . S
C424 H430 0.929 . S
C425 C405 1.449 . S
C425 C424 1.399 . S
C425 H431 0.930 . S
H426 C406 0.931 . S
H427 C407 0.929 1_554 S
H428 C415 0.931 . S
H429 C416 0.929 . S
H430 C424 0.929 . S
H431 C425 0.930 . S
Mn432 O437 2.095 . S
Mn432 O447 2.162 . S
Mn432 O448 2.297 . S
Mn432 O456 2.385 . S
Mn432 O457 2.209 . S
Mn432 O458 2.094 . S
Mn433 O438 2.121 . S
Mn433 N440 2.257 . S
Mn433 N449 2.282 . S
Mn433 O457 2.215 . S
Mn433 O459 2.117 . S
C434 O456 1.234 . S
C434 O457 1.283 . S
C435 O447 1.281 . S
C435 O448 1.236 . S
C436 O458 1.240 . S
C436 O459 1.264 . S
O437 Mn432 2.095 . S
O437 C446 1.250 . S
O438 Mn433 2.121 . S
O438 C446 1.258 . S
C439 N440 1.326 . S
C439 C443 1.460 . S
C439 H445 0.929 . S
N440 Mn433 2.257 . S
N440 C439 1.326 . S
N440 C444 1.362 . S
C441 C442 1.258 . S
C441 C444 1.431 1_556 S
C441 C461 1.449 . S
C442 C441 1.258 . S
C442 C443 1.477 1_556 S
C442 H462 0.931 . S
C443 C439 1.460 . S
C443 C442 1.477 1_554 S
C443 H463 0.929 1_554 S
C444 N440 1.362 . S
C444 C441 1.431 1_554 S
C444 C454 1.476 . S
H445 C439 0.929 . S
C446 O437 1.250 . S
C446 O438 1.258 . S
O447 Mn432 2.162 . S
O447 C435 1.281 . S
O448 Mn432 2.297 . S
O448 C435 1.236 . S
N449 Mn433 2.282 . S
N449 C450 1.328 . S
N449 C454 1.318 . S
C450 N449 1.328 . S
C450 C451 1.457 . S
C450 H455 0.929 . S
C451 C450 1.457 . S
C451 C452 1.291 1_554 S
C451 H464 0.931 . S
C452 C451 1.291 1_556 S
C452 C453 1.373 . S
C452 H465 0.929 . S
C453 C452 1.373 . S
C453 C454 1.396 1_556 S
C453 C460 1.403 . S
C454 C444 1.476 . S
C454 N449 1.318 . S
C454 C453 1.396 1_554 S
H455 C450 0.929 . S
O456 Mn432 2.385 . S
O456 C434 1.234 . S
O457 Mn432 2.209 . S
O457 Mn433 2.215 . S
O457 C434 1.283 . S
O458 Mn432 2.094 . S
O458 C436 1.240 . S
O459 Mn433 2.117 . S
O459 C436 1.264 . S
C460 C453 1.403 . S
C460 C461 1.399 . S
C460 H466 0.929 . S
C461 C441 1.449 . S
C461 C460 1.399 . S
C461 H467 0.930 . S
H462 C442 0.931 . S
H463 C443 0.929 1_556 S
H464 C451 0.931 . S
H465 C452 0.929 . S
H466 C460 0.929 . S
H467 C461 0.930 . S
Mn468 O473 2.095 . S
Mn468 O483 2.162 . S
Mn468 O484 2.297 . S
Mn468 O492 2.385 . S
Mn468 O493 2.209 . S
Mn468 O494 2.094 . S
Mn469 O474 2.121 . S
Mn469 N476 2.257 . S
Mn469 N485 2.282 . S
Mn469 O493 2.215 . S
Mn469 O495 2.117 . S
C470 O492 1.234 . S
C470 O493 1.283 . S
C471 O483 1.281 . S
C471 O484 1.236 . S
C472 O494 1.240 . S
C472 O495 1.264 . S
O473 Mn468 2.095 . S
O473 C482 1.250 . S
O474 Mn469 2.121 . S
O474 C482 1.258 . S
C475 N476 1.326 . S
C475 C479 1.460 . S
C475 H481 0.929 . S
N476 Mn469 2.257 . S
N476 C475 1.326 . S
N476 C480 1.362 . S
C477 C478 1.258 . S
C477 C480 1.431 1_556 S
C477 C497 1.449 . S
C478 C477 1.258 . S
C478 C479 1.477 1_556 S
C478 H498 0.931 . S
C479 C475 1.460 . S
C479 C478 1.477 1_554 S
C479 H499 0.929 1_554 S
C480 N476 1.362 . S
C480 C477 1.431 1_554 S
C480 C490 1.476 . S
H481 C475 0.929 . S
C482 O473 1.250 . S
C482 O474 1.258 . S
O483 Mn468 2.162 . S
O483 C471 1.281 . S
O484 Mn468 2.297 . S
O484 C471 1.236 . S
N485 Mn469 2.282 . S
N485 C486 1.328 . S
N485 C490 1.318 . S
C486 N485 1.328 . S
C486 C487 1.457 . S
C486 H491 0.929 . S
C487 C486 1.457 . S
C487 C488 1.291 1_554 S
C487 H500 0.931 . S
C488 C487 1.291 1_556 S
C488 C489 1.373 . S
C488 H501 0.929 . S
C489 C488 1.373 . S
C489 C490 1.396 1_556 S
C489 C496 1.403 . S
C490 C480 1.476 . S
C490 N485 1.318 . S
C490 C489 1.396 1_554 S
H491 C486 0.929 . S
O492 Mn468 2.385 . S
O492 C470 1.234 . S
O493 Mn468 2.209 . S
O493 Mn469 2.215 . S
O493 C470 1.283 . S
O494 Mn468 2.094 . S
O494 C472 1.240 . S
O495 Mn469 2.117 . S
O495 C472 1.264 . S
C496 C489 1.403 . S
C496 C497 1.399 . S
C496 H502 0.929 . S
C497 C477 1.449 . S
C497 C496 1.399 . S
C497 H503 0.930 . S
H498 C478 0.931 . S
H499 C479 0.929 1_556 S
H500 C487 0.931 . S
H501 C488 0.929 . S
H502 C496 0.929 . S
H503 C497 0.930 . S
Mn504 O509 2.095 . S
Mn504 O519 2.162 . S
Mn504 O520 2.297 . S
Mn504 O528 2.385 . S
Mn504 O529 2.209 . S
Mn504 O530 2.094 . S
Mn505 O510 2.121 . S
Mn505 N512 2.257 . S
Mn505 N521 2.282 . S
Mn505 O529 2.215 . S
Mn505 O531 2.117 . S
C506 O528 1.234 . S
C506 O529 1.283 . S
C507 O519 1.281 . S
C507 O520 1.236 . S
C508 O530 1.240 . S
C508 O531 1.264 . S
O509 Mn504 2.095 . S
O509 C518 1.250 . S
O510 Mn505 2.121 . S
O510 C518 1.258 . S
C511 N512 1.326 . S
C511 C515 1.460 . S
C511 H517 0.929 . S
N512 Mn505 2.257 . S
N512 C511 1.326 . S
N512 C516 1.362 . S
C513 C514 1.258 . S
C513 C516 1.431 1_556 S
C513 C533 1.449 . S
C514 C513 1.258 . S
C514 C515 1.477 1_556 S
C514 H534 0.931 . S
C515 C511 1.460 . S
C515 C514 1.477 1_554 S
C515 H535 0.929 1_554 S
C516 N512 1.362 . S
C516 C513 1.431 1_554 S
C516 C526 1.476 . S
H517 C511 0.929 . S
C518 O509 1.250 . S
C518 O510 1.258 . S
O519 Mn504 2.162 . S
O519 C507 1.281 . S
O520 Mn504 2.297 . S
O520 C507 1.236 . S
N521 Mn505 2.282 . S
N521 C522 1.328 . S
N521 C526 1.318 . S
C522 N521 1.328 . S
C522 C523 1.457 . S
C522 H527 0.929 . S
C523 C522 1.457 . S
C523 C524 1.291 1_554 S
C523 H536 0.931 . S
C524 C523 1.291 1_556 S
C524 C525 1.373 . S
C524 H537 0.929 . S
C525 C524 1.373 . S
C525 C526 1.396 1_556 S
C525 C532 1.403 . S
C526 C516 1.476 . S
C526 N521 1.318 . S
C526 C525 1.396 1_554 S
H527 C522 0.929 . S
O528 Mn504 2.385 . S
O528 C506 1.234 . S
O529 Mn504 2.209 . S
O529 Mn505 2.215 . S
O529 C506 1.283 . S
O530 Mn504 2.094 . S
O530 C508 1.240 . S
O531 Mn505 2.117 . S
O531 C508 1.264 . S
C532 C525 1.403 . S
C532 C533 1.399 . S
C532 H538 0.929 . S
C533 C513 1.449 . S
C533 C532 1.399 . S
C533 H539 0.930 . S
H534 C514 0.931 . S
H535 C515 0.929 1_556 S
H536 C523 0.931 . S
H537 C524 0.929 . S
H538 C532 0.929 . S
H539 C533 0.930 . S
Mn540 O545 2.095 . S
Mn540 O555 2.162 . S
Mn540 O556 2.297 . S
Mn540 O564 2.385 . S
Mn540 O565 2.209 . S
Mn540 O566 2.094 . S
Mn541 O546 2.121 . S
Mn541 N548 2.257 . S
Mn541 N557 2.282 . S
Mn541 O565 2.215 . S
Mn541 O567 2.117 . S
C542 O564 1.234 . S
C542 O565 1.283 . S
C543 O555 1.281 . S
C543 O556 1.236 . S
C544 O566 1.240 . S
C544 O567 1.264 . S
O545 Mn540 2.095 . S
O545 C554 1.250 . S
O546 Mn541 2.121 . S
O546 C554 1.258 . S
C547 N548 1.326 . S
C547 C551 1.460 . S
C547 H553 0.929 . S
N548 Mn541 2.257 . S
N548 C547 1.326 . S
N548 C552 1.362 . S
C549 C550 1.258 . S
C549 C552 1.431 1_556 S
C549 C569 1.449 . S
C550 C549 1.258 . S
C550 C551 1.477 1_556 S
C550 H570 0.931 . S
C551 C547 1.460 . S
C551 C550 1.477 1_554 S
C551 H571 0.929 1_554 S
C552 N548 1.362 . S
C552 C549 1.431 1_554 S
C552 C562 1.476 . S
H553 C547 0.929 . S
C554 O545 1.250 . S
C554 O546 1.258 . S
O555 Mn540 2.162 . S
O555 C543 1.281 . S
O556 Mn540 2.297 . S
O556 C543 1.236 . S
N557 Mn541 2.282 . S
N557 C558 1.328 . S
N557 C562 1.318 . S
C558 N557 1.328 . S
C558 C559 1.457 . S
C558 H563 0.929 . S
C559 C558 1.457 . S
C559 C560 1.291 1_554 S
C559 H572 0.931 . S
C560 C559 1.291 1_556 S
C560 C561 1.373 . S
C560 H573 0.929 . S
C561 C560 1.373 . S
C561 C562 1.396 1_556 S
C561 C568 1.403 . S
C562 C552 1.476 . S
C562 N557 1.318 . S
C562 C561 1.396 1_554 S
H563 C558 0.929 . S
O564 Mn540 2.385 . S
O564 C542 1.234 . S
O565 Mn540 2.209 . S
O565 Mn541 2.215 . S
O565 C542 1.283 . S
O566 Mn540 2.094 . S
O566 C544 1.240 . S
O567 Mn541 2.117 . S
O567 C544 1.264 . S
C568 C561 1.403 . S
C568 C569 1.399 . S
C568 H574 0.929 . S
C569 C549 1.449 . S
C569 C568 1.399 . S
C569 H575 0.930 . S
H570 C550 0.931 . S
H571 C551 0.929 1_556 S
H572 C559 0.931 . S
H573 C560 0.929 . S
H574 C568 0.929 . S
H575 C569 0.930 . S
C576 C577 1.369 . S
C576 C578 1.419 . S
C576 H580 0.930 . S
C577 C576 1.369 . S
C577 C586 1.429 . S
C578 C576 1.419 . S
C578 C579 1.363 . S
C578 H581 0.929 . S
C579 C578 1.363 . S
C579 C585 1.428 . S
H580 C576 0.930 . S
H581 C578 0.929 . S
S582 N583 1.613 . S
S582 N584 1.610 . S
N583 S582 1.613 . S
N583 C586 1.350 . S
N584 S582 1.610 . S
N584 C585 1.351 . S
C585 C579 1.428 . S
C585 N584 1.351 . S
C585 C586 1.434 . S
C586 C577 1.429 . S
C586 N583 1.350 . S
C586 C585 1.434 . S
C587 C588 1.369 . S
C587 C589 1.419 . S
C587 H591 0.930 . S
C588 C587 1.369 . S
C588 C597 1.429 . S
C589 C587 1.419 . S
C589 C590 1.363 . S
C589 H592 0.929 . S
C590 C589 1.363 . S
C590 C596 1.428 . S
H591 C587 0.930 . S
H592 C589 0.929 . S
S593 N594 1.613 . S
S593 N595 1.610 . S
N594 S593 1.613 . S
N594 C597 1.350 . S
N595 S593 1.610 . S
N595 C596 1.351 . S
C596 C590 1.428 . S
C596 N595 1.351 . S
C596 C597 1.434 . S
C597 C588 1.429 . S
C597 N594 1.350 . S
C597 C596 1.434 . S
C598 C599 1.369 . S
C598 C600 1.419 . S
C598 H602 0.930 . S
C599 C598 1.369 . S
C599 C608 1.429 . S
C600 C598 1.419 . S
C600 C601 1.363 . S
C600 H603 0.929 . S
C601 C600 1.363 . S
C601 C607 1.428 . S
H602 C598 0.930 . S
H603 C600 0.929 . S
S604 N605 1.613 . S
S604 N606 1.610 . S
N605 S604 1.613 . S
N605 C608 1.350 . S
N606 S604 1.610 . S
N606 C607 1.351 . S
C607 C601 1.428 . S
C607 N606 1.351 . S
C607 C608 1.434 . S
C608 C599 1.429 . S
C608 N605 1.350 . S
C608 C607 1.434 . S
C609 C610 1.369 . S
C609 C611 1.419 . S
C609 H613 0.930 . S
C610 C609 1.369 . S
C610 C619 1.429 . S
C611 C609 1.419 . S
C611 C612 1.363 . S
C611 H614 0.929 . S
C612 C611 1.363 . S
C612 C618 1.428 . S
H613 C609 0.930 . S
H614 C611 0.929 . S
S615 N616 1.613 . S
S615 N617 1.610 . S
N616 S615 1.613 . S
N616 C619 1.350 . S
N617 S615 1.610 . S
N617 C618 1.351 . S
C618 C612 1.428 . S
C618 N617 1.351 . S
C618 C619 1.434 . S
C619 C610 1.429 . S
C619 N616 1.350 . S
C619 C618 1.434 . S
C620 C621 1.369 . S
C620 C622 1.419 . S
C620 H624 0.930 . S
C621 C620 1.369 . S
C621 C630 1.429 . S
C622 C620 1.419 . S
C622 C623 1.363 . S
C622 H625 0.929 . S
C623 C622 1.363 . S
C623 C629 1.428 . S
H624 C620 0.930 . S
H625 C622 0.929 . S
S626 N627 1.613 . S
S626 N628 1.610 . S
N627 S626 1.613 . S
N627 C630 1.350 . S
N628 S626 1.610 . S
N628 C629 1.351 . S
C629 C623 1.428 . S
C629 N628 1.351 . S
C629 C630 1.434 . S
C630 C621 1.429 . S
C630 N627 1.350 . S
C630 C629 1.434 . S
C631 C632 1.369 . S
C631 C633 1.419 . S
C631 H635 0.930 . S
C632 C631 1.369 . S
C632 C641 1.429 . S
C633 C631 1.419 . S
C633 C634 1.363 . S
C633 H636 0.929 . S
C634 C633 1.363 . S
C634 C640 1.428 . S
H635 C631 0.930 . S
H636 C633 0.929 . S
S637 N638 1.613 . S
S637 N639 1.610 . S
N638 S637 1.613 . S
N638 C641 1.350 . S
N639 S637 1.610 . S
N639 C640 1.351 . S
C640 C634 1.428 . S
C640 N639 1.351 . S
C640 C641 1.434 . S
C641 C632 1.429 . S
C641 N638 1.350 . S
C641 C640 1.434 . S
C642 C643 1.369 . S
C642 C644 1.419 . S
C642 H646 0.930 . S
C643 C642 1.369 . S
C643 C652 1.429 . S
C644 C642 1.419 . S
C644 C645 1.363 . S
C644 H647 0.929 . S
C645 C644 1.363 . S
C645 C651 1.428 . S
H646 C642 0.930 . S
H647 C644 0.929 . S
S648 N649 1.613 . S
S648 N650 1.610 . S
N649 S648 1.613 . S
N649 C652 1.350 . S
N650 S648 1.610 . S
N650 C651 1.351 . S
C651 C645 1.428 . S
C651 N650 1.351 . S
C651 C652 1.434 . S
C652 C643 1.429 . S
C652 N649 1.350 . S
C652 C651 1.434 . S
C653 C654 1.369 . S
C653 C655 1.419 . S
C653 H657 0.930 . S
C654 C653 1.369 . S
C654 C663 1.429 . S
C655 C653 1.419 . S
C655 C656 1.363 . S
C655 H658 0.929 . S
C656 C655 1.363 . S
C656 C662 1.428 . S
H657 C653 0.930 . S
H658 C655 0.929 . S
S659 N660 1.613 . S
S659 N661 1.610 . S
N660 S659 1.613 . S
N660 C663 1.350 . S
N661 S659 1.610 . S
N661 C662 1.351 . S
C662 C656 1.428 . S
C662 N661 1.351 . S
C662 C663 1.434 . S
C663 C654 1.429 . S
C663 N660 1.350 . S
C663 C662 1.434 . S
C664 C665 1.369 . S
C664 C666 1.419 . S
C664 H668 0.930 . S
C665 C664 1.369 . S
C665 C674 1.429 . S
C666 C664 1.419 . S
C666 C667 1.363 . S
C666 H669 0.929 . S
C667 C666 1.363 . S
C667 C673 1.428 . S
H668 C664 0.930 . S
H669 C666 0.929 . S
S670 N671 1.613 . S
S670 N672 1.610 . S
N671 S670 1.613 . S
N671 C674 1.350 . S
N672 S670 1.610 . S
N672 C673 1.351 . S
C673 C667 1.428 . S
C673 N672 1.351 . S
C673 C674 1.434 . S
C674 C665 1.429 . S
C674 N671 1.350 . S
C674 C673 1.434 . S
C675 C676 1.369 . S
C675 C677 1.419 . S
C675 H679 0.930 . S
C676 C675 1.369 . S
C676 C685 1.429 . S
C677 C675 1.419 . S
C677 C678 1.363 . S
C677 H680 0.929 . S
C678 C677 1.363 . S
C678 C684 1.428 . S
H679 C675 0.930 . S
H680 C677 0.929 . S
S681 N682 1.613 . S
S681 N683 1.610 . S
N682 S681 1.613 . S
N682 C685 1.350 . S
N683 S681 1.610 . S
N683 C684 1.351 . S
C684 C678 1.428 . S
C684 N683 1.351 . S
C684 C685 1.434 . S
C685 C676 1.429 . S
C685 N682 1.350 . S
C685 C684 1.434 . S
C686 C687 1.369 . S
C686 C688 1.419 . S
C686 H690 0.930 . S
C687 C686 1.369 . S
C687 C696 1.429 . S
C688 C686 1.419 . S
C688 C689 1.363 . S
C688 H691 0.929 . S
C689 C688 1.363 . S
C689 C695 1.428 . S
H690 C686 0.930 . S
H691 C688 0.929 . S
S692 N693 1.613 . S
S692 N694 1.610 . S
N693 S692 1.613 . S
N693 C696 1.350 . S
N694 S692 1.610 . S
N694 C695 1.351 . S
C695 C689 1.428 . S
C695 N694 1.351 . S
C695 C696 1.434 . S
C696 C687 1.429 . S
C696 N693 1.350 . S
C696 C695 1.434 . S
C697 C698 1.369 . S
C697 C699 1.419 . S
C697 H701 0.930 . S
C698 C697 1.369 . S
C698 C707 1.429 . S
C699 C697 1.419 . S
C699 C700 1.363 . S
C699 H702 0.929 . S
C700 C699 1.363 . S
C700 C706 1.428 . S
H701 C697 0.930 . S
H702 C699 0.929 . S
S703 N704 1.613 . S
S703 N705 1.610 . S
N704 S703 1.613 . S
N704 C707 1.350 . S
N705 S703 1.610 . S
N705 C706 1.351 . S
C706 C700 1.428 . S
C706 N705 1.351 . S
C706 C707 1.434 . S
C707 C698 1.429 . S
C707 N704 1.350 . S
C707 C706 1.434 . S
C708 C709 1.369 . S
C708 C710 1.419 . S
C708 H712 0.930 . S
C709 C708 1.369 . S
C709 C718 1.429 . S
C710 C708 1.419 . S
C710 C711 1.363 . S
C710 H713 0.929 . S
C711 C710 1.363 . S
C711 C717 1.428 . S
H712 C708 0.930 . S
H713 C710 0.929 . S
S714 N715 1.613 . S
S714 N716 1.610 . S
N715 S714 1.613 . S
N715 C718 1.350 . S
N716 S714 1.610 . S
N716 C717 1.351 . S
C717 C711 1.428 . S
C717 N716 1.351 . S
C717 C718 1.434 . S
C718 C709 1.429 . S
C718 N715 1.350 . S
C718 C717 1.434 . S
C719 C720 1.369 . S
C719 C721 1.419 . S
C719 H723 0.930 . S
C720 C719 1.369 . S
C720 C729 1.429 . S
C721 C719 1.419 . S
C721 C722 1.363 . S
C721 H724 0.929 . S
C722 C721 1.363 . S
C722 C728 1.428 . S
H723 C719 0.930 . S
H724 C721 0.929 . S
S725 N726 1.613 . S
S725 N727 1.610 . S
N726 S725 1.613 . S
N726 C729 1.350 . S
N727 S725 1.610 . S
N727 C728 1.351 . S
C728 C722 1.428 . S
C728 N727 1.351 . S
C728 C729 1.434 . S
C729 C720 1.429 . S
C729 N726 1.350 . S
C729 C728 1.434 . S
C730 C731 1.369 . S
C730 C732 1.419 . S
C730 H734 0.930 . S
C731 C730 1.369 . S
C731 C740 1.429 . S
C732 C730 1.419 . S
C732 C733 1.363 . S
C732 H735 0.929 . S
C733 C732 1.363 . S
C733 C739 1.428 . S
H734 C730 0.930 . S
H735 C732 0.929 . S
S736 N737 1.613 . S
S736 N738 1.610 . S
N737 S736 1.613 . S
N737 C740 1.350 . S
N738 S736 1.610 . S
N738 C739 1.351 . S
C739 C733 1.428 . S
C739 N738 1.351 . S
C739 C740 1.434 . S
C740 C731 1.429 . S
C740 N737 1.350 . S
C740 C739 1.434 . S
C741 C742 1.369 . S
C741 C743 1.419 . S
C741 H745 0.930 . S
C742 C741 1.369 . S
C742 C751 1.429 . S
C743 C741 1.419 . S
C743 C744 1.363 . S
C743 H746 0.929 . S
C744 C743 1.363 . S
C744 C750 1.428 . S
H745 C741 0.930 . S
H746 C743 0.929 . S
S747 N748 1.613 . S
S747 N749 1.610 . S
N748 S747 1.613 . S
N748 C751 1.350 . S
N749 S747 1.610 . S
N749 C750 1.351 . S
C750 C744 1.428 . S
C750 N749 1.351 . S
C750 C751 1.434 . S
C751 C742 1.429 . S
C751 N748 1.350 . S
C751 C750 1.434 . S
C752 C753 1.369 . S
C752 C754 1.419 . S
C752 H756 0.930 . S
C753 C752 1.369 . S
C753 C762 1.429 . S
C754 C752 1.419 . S
C754 C755 1.363 . S
C754 H757 0.929 . S
C755 C754 1.363 . S
C755 C761 1.428 . S
H756 C752 0.930 . S
H757 C754 0.929 . S
S758 N759 1.613 . S
S758 N760 1.610 . S
N759 S758 1.613 . S
N759 C762 1.350 . S
N760 S758 1.610 . S
N760 C761 1.351 . S
C761 C755 1.428 . S
C761 N760 1.351 . S
C761 C762 1.434 . S
C762 C753 1.429 . S
C762 N759 1.350 . S
C762 C761 1.434 . S
C763 C764 1.369 . S
C763 C765 1.419 . S
C763 H767 0.930 . S
C764 C763 1.369 . S
C764 C773 1.429 . S
C765 C763 1.419 . S
C765 C766 1.363 . S
C765 H768 0.929 . S
C766 C765 1.363 . S
C766 C772 1.428 . S
H767 C763 0.930 . S
H768 C765 0.929 . S
S769 N770 1.613 . S
S769 N771 1.610 . S
N770 S769 1.613 . S
N770 C773 1.350 . S
N771 S769 1.610 . S
N771 C772 1.351 . S
C772 C766 1.428 . S
C772 N771 1.351 . S
C772 C773 1.434 . S
C773 C764 1.429 . S
C773 N770 1.350 . S
C773 C772 1.434 . S
C774 C775 1.369 . S
C774 C776 1.419 . S
C774 H778 0.930 . S
C775 C774 1.369 . S
C775 C784 1.429 . S
C776 C774 1.419 . S
C776 C777 1.363 . S
C776 H779 0.929 . S
C777 C776 1.363 . S
C777 C783 1.428 . S
H778 C774 0.930 . S
H779 C776 0.929 . S
S780 N781 1.613 . S
S780 N782 1.610 . S
N781 S780 1.613 . S
N781 C784 1.350 . S
N782 S780 1.610 . S
N782 C783 1.351 . S
C783 C777 1.428 . S
C783 N782 1.351 . S
C783 C784 1.434 . S
C784 C775 1.429 . S
C784 N781 1.350 . S
C784 C783 1.434 . S
C785 C786 1.369 . S
C785 C787 1.419 . S
C785 H789 0.930 . S
C786 C785 1.369 . S
C786 C795 1.429 . S
C787 C785 1.419 . S
C787 C788 1.363 . S
C787 H790 0.929 . S
C788 C787 1.363 . S
C788 C794 1.428 . S
H789 C785 0.930 . S
H790 C787 0.929 . S
S791 N792 1.613 . S
S791 N793 1.610 . S
N792 S791 1.613 . S
N792 C795 1.350 . S
N793 S791 1.610 . S
N793 C794 1.351 . S
C794 C788 1.428 . S
C794 N793 1.351 . S
C794 C795 1.434 . S
C795 C786 1.429 . S
C795 N792 1.350 . S
C795 C794 1.434 . S
C796 C797 1.369 . S
C796 C798 1.419 . S
C796 H800 0.930 . S
C797 C796 1.369 . S
C797 C806 1.429 . S
C798 C796 1.419 . S
C798 C799 1.363 . S
C798 H801 0.929 . S
C799 C798 1.363 . S
C799 C805 1.428 . S
H800 C796 0.930 . S
H801 C798 0.929 . S
S802 N803 1.613 . S
S802 N804 1.610 . S
N803 S802 1.613 . S
N803 C806 1.350 . S
N804 S802 1.610 . S
N804 C805 1.351 . S
C805 C799 1.428 . S
C805 N804 1.351 . S
C805 C806 1.434 . S
C806 C797 1.429 . S
C806 N803 1.350 . S
C806 C805 1.434 . S
C807 C808 1.369 . S
C807 C809 1.419 . S
C807 H811 0.930 . S
C808 C807 1.369 . S
C808 C817 1.429 . S
C809 C807 1.419 . S
C809 C810 1.363 . S
C809 H812 0.929 . S
C810 C809 1.363 . S
C810 C816 1.428 . S
H811 C807 0.930 . S
H812 C809 0.929 . S
S813 N814 1.613 . S
S813 N815 1.610 . S
N814 S813 1.613 . S
N814 C817 1.350 . S
N815 S813 1.610 . S
N815 C816 1.351 . S
C816 C810 1.428 . S
C816 N815 1.351 . S
C816 C817 1.434 . S
C817 C808 1.429 . S
C817 N814 1.350 . S
C817 C816 1.434 . S
C818 C819 1.369 . S
C818 C820 1.419 . S
C818 H822 0.930 . S
C819 C818 1.369 . S
C819 C828 1.429 . S
C820 C818 1.419 . S
C820 C821 1.363 . S
C820 H823 0.929 . S
C821 C820 1.363 . S
C821 C827 1.428 . S
H822 C818 0.930 . S
H823 C820 0.929 . S
S824 N825 1.613 . S
S824 N826 1.610 . S
N825 S824 1.613 . S
N825 C828 1.350 . S
N826 S824 1.610 . S
N826 C827 1.351 . S
C827 C821 1.428 . S
C827 N826 1.351 . S
C827 C828 1.434 . S
C828 C819 1.429 . S
C828 N825 1.350 . S
C828 C827 1.434 . S
C829 C830 1.369 . S
C829 C831 1.419 . S
C829 H833 0.930 . S
C830 C829 1.369 . S
C830 C839 1.429 . S
C831 C829 1.419 . S
C831 C832 1.363 . S
C831 H834 0.929 . S
C832 C831 1.363 . S
C832 C838 1.428 . S
H833 C829 0.930 . S
H834 C831 0.929 . S
S835 N836 1.613 . S
S835 N837 1.610 . S
N836 S835 1.613 . S
N836 C839 1.350 . S
N837 S835 1.610 . S
N837 C838 1.351 . S
C838 C832 1.428 . S
C838 N837 1.351 . S
C838 C839 1.434 . S
C839 C830 1.429 . S
C839 N836 1.350 . S
C839 C838 1.434 . S
C840 C841 1.369 . S
C840 C842 1.419 . S
C840 H844 0.930 . S
C841 C840 1.369 . S
C841 C850 1.429 1_455 S
C842 C840 1.419 . S
C842 C843 1.363 1_455 S
C842 H845 0.929 . S
C843 C842 1.363 1_655 S
C843 C849 1.428 . S
H844 C840 0.930 . S
H845 C842 0.929 . S
S846 N847 1.613 . S
S846 N848 1.610 . S
N847 S846 1.613 . S
N847 C850 1.350 . S
N848 S846 1.610 . S
N848 C849 1.351 . S
C849 C843 1.428 . S
C849 N848 1.351 . S
C849 C850 1.434 . S
C850 C841 1.429 1_655 S
C850 N847 1.350 . S
C850 C849 1.434 . S
C851 C852 1.369 . S
C851 C853 1.419 . S
C851 H855 0.930 . S
C852 C851 1.369 . S
C852 C861 1.429 1_565 S
C853 C851 1.419 . S
C853 C854 1.363 1_565 S
C853 H856 0.929 . S
C854 C853 1.363 1_545 S
C854 C860 1.428 . S
H855 C851 0.930 . S
H856 C853 0.929 . S
S857 N858 1.613 . S
S857 N859 1.610 . S
N858 S857 1.613 . S
N858 C861 1.350 . S
N859 S857 1.610 . S
N859 C860 1.351 . S
C860 C854 1.428 . S
C860 N859 1.351 . S
C860 C861 1.434 . S
C861 C852 1.429 1_545 S
C861 N858 1.350 . S
C861 C860 1.434 . S
C862 C863 1.369 1_655 S
C862 C864 1.419 . S
C862 H866 0.930 . S
C863 C862 1.369 1_455 S
C863 C872 1.429 . S
C864 C862 1.419 . S
C864 C865 1.363 . S
C864 H867 0.929 . S
C865 C864 1.363 . S
C865 C871 1.428 1_655 S
H866 C862 0.930 . S
H867 C864 0.929 . S
S868 N869 1.613 . S
S868 N870 1.610 . S
N869 S868 1.613 . S
N869 C872 1.350 . S
N870 S868 1.610 . S
N870 C871 1.351 . S
C871 C865 1.428 1_455 S
C871 N870 1.351 . S
C871 C872 1.434 . S
C872 C863 1.429 . S
C872 N869 1.350 . S
C872 C871 1.434 . S
C873 C874 1.369 . S
C873 C875 1.419 . S
C873 H877 0.930 . S
C874 C873 1.369 . S
C874 C883 1.429 1_545 S
C875 C873 1.419 . S
C875 C876 1.363 1_545 S
C875 H878 0.929 . S
C876 C875 1.363 1_565 S
C876 C882 1.428 . S
H877 C873 0.930 . S
H878 C875 0.929 . S
S879 N880 1.613 . S
S879 N881 1.610 . S
N880 S879 1.613 . S
N880 C883 1.350 . S
N881 S879 1.610 . S
N881 C882 1.351 . S
C882 C876 1.428 . S
C882 N881 1.351 . S
C882 C883 1.434 . S
C883 C874 1.429 1_565 S
C883 N880 1.350 . S
C883 C882 1.434 . S
C884 C885 1.369 . S
C884 C886 1.419 1_556 S
C884 H888 0.930 . S
C885 C884 1.369 . S
C885 C894 1.429 . S
C886 C884 1.419 1_554 S
C886 C887 1.363 . S
C886 H889 0.929 . S
C887 C886 1.363 . S
C887 C893 1.428 . S
H888 C884 0.930 . S
H889 C886 0.929 . S
S890 N891 1.613 . S
S890 N892 1.610 1_556 S
N891 S890 1.613 . S
N891 C894 1.350 . S
N892 S890 1.610 1_554 S
N892 C893 1.351 . S
C893 C887 1.428 . S
C893 N892 1.351 . S
C893 C894 1.434 1_554 S
C894 C885 1.429 . S
C894 N891 1.350 . S
C894 C893 1.434 1_556 S
C895 C896 1.369 . S
C895 C897 1.419 1_556 S
C895 H899 0.930 . S
C896 C895 1.369 . S
C896 C905 1.429 . S
C897 C895 1.419 1_554 S
C897 C898 1.363 . S
C897 H900 0.929 . S
C898 C897 1.363 . S
C898 C904 1.428 . S
H899 C895 0.930 . S
H900 C897 0.929 . S
S901 N902 1.613 1_554 S
S901 N903 1.610 . S
N902 S901 1.613 1_556 S
N902 C905 1.350 . S
N903 S901 1.610 . S
N903 C904 1.351 . S
C904 C898 1.428 . S
C904 N903 1.351 . S
C904 C905 1.434 1_554 S
C905 C896 1.429 . S
C905 N902 1.350 . S
C905 C904 1.434 1_556 S
C906 C907 1.369 . S
C906 C908 1.419 1_554 S
C906 H910 0.930 . S
C907 C906 1.369 . S
C907 C916 1.429 . S
C908 C906 1.419 1_556 S
C908 C909 1.363 . S
C908 H911 0.929 . S
C909 C908 1.363 . S
C909 C915 1.428 . S
H910 C906 0.930 . S
H911 C908 0.929 . S
S912 N913 1.613 1_556 S
S912 N914 1.610 . S
N913 S912 1.613 1_554 S
N913 C916 1.350 . S
N914 S912 1.610 . S
N914 C915 1.351 . S
C915 C909 1.428 . S
C915 N914 1.351 . S
C915 C916 1.434 1_556 S
C916 C907 1.429 . S
C916 N913 1.350 . S
C916 C915 1.434 1_554 S
C917 C918 1.369 . S
C917 C919 1.419 1_556 S
C917 H921 0.930 . S
C918 C917 1.369 . S
C918 C927 1.429 . S
C919 C917 1.419 1_554 S
C919 C920 1.363 . S
C919 H922 0.929 . S
C920 C919 1.363 . S
C920 C926 1.428 . S
H921 C917 0.930 . S
H922 C919 0.929 . S
S923 N924 1.613 1_554 S
S923 N925 1.610 . S
N924 S923 1.613 1_556 S
N924 C927 1.350 . S
N925 S923 1.610 . S
N925 C926 1.351 . S
C926 C920 1.428 . S
C926 N925 1.351 . S
C926 C927 1.434 1_554 S
C927 C918 1.429 . S
C927 N924 1.350 . S
C927 C926 1.434 1_556 S
C577 C14 1.463 . S
C579 C111 1.493 . S
C588 C3 1.493 . S
C590 C50 1.462 . S
C599 C39 1.490 . S
C601 C86 1.461 . S
C610 C75 1.487 . S
C612 C122 1.463 . S
C621 C158 1.466 . S
C623 C183 1.486 . S
C632 C194 1.468 . S
C634 C219 1.492 . S
C643 C230 1.461 . S
C645 C255 1.488 . S
C654 C266 1.466 . S
C656 C147 1.486 . S
C665 C302 1.462 . S
C667 C399 1.492 . S
C676 C291 1.488 . S
C678 C338 1.469 . S
C687 C327 1.491 . S
C689 C374 1.468 . S
C698 C410 1.465 . S
C700 C363 1.486 . S
C709 C471 1.487 . S
C711 C446 1.462 . S
C720 C507 1.492 . S
C722 C482 1.468 . S
C731 C518 1.469 . S
C733 C543 1.487 . S
C742 C554 1.470 . S
C744 C435 1.489 . S
C753 C4 1.311 . S
C755 C544 1.318 . S
C764 C40 1.320 . S
C766 C436 1.309 . S
C775 C472 1.320 . S
C777 C76 1.310 . S
C786 C112 1.319 . S
C788 C508 1.308 . S
C797 C328 1.318 . S
C799 C148 1.313 . S
C808 C364 1.315 . S
C810 C184 1.308 . S
C819 C220 1.320 . S
C821 C400 1.309 . S
C830 C256 1.317 . S
C832 C292 1.315 . S
C841 C2 1.610 . S
C843 C218 1.610 . S
C852 C254 1.610 . S
C854 C38 1.610 . S
C863 C146 1.609 . S
C865 C74 1.609 . S
C874 C182 1.609 . S
C876 C110 1.609 . S
C885 C290 1.610 . S
C887 C506 1.610 . S
C896 C326 1.610 . S
C898 C542 1.610 . S
C907 C434 1.609 . S
C909 C362 1.609 . S
C918 C398 1.609 . S
C920 C470 1.609 . S
