# Generated by pormake.
# Topology wge, (5)-cn, num edge types: 1
# Building blocks:
#     Node 0, Type 0, BuildingBlock: BEQFEK_clean_sbu_0, # of connection points: 5
#     Node 1, Type 0, BuildingBlock: BEQFEK_clean_sbu_0, # of connection points: 5
#     Node 2, Type 0, BuildingBlock: BEQFEK_clean_sbu_0, # of connection points: 5
#     Node 3, Type 0, BuildingBlock: BEQFEK_clean_sbu_0, # of connection points: 5
#     Node 4, Type 0, BuildingBlock: BEQFEK_clean_sbu_0, # of connection points: 5
#     Node 5, Type 0, BuildingBlock: BEQFEK_clean_sbu_0, # of connection points: 5
#     Node 6, Type 0, BuildingBlock: BEQFEK_clean_sbu_0, # of connection points: 5
#     Node 7, Type 0, BuildingBlock: BEQFEK_clean_sbu_0, # of connection points: 5
#     Node 8, Type 0, BuildingBlock: BEQFEK_clean_sbu_0, # of connection points: 5
#     Node 9, Type 0, BuildingBlock: BEQFEK_clean_sbu_0, # of connection points: 5
#     Node 10, Type 0, BuildingBlock: BEQFEK_clean_sbu_0, # of connection points: 5
#     Node 11, Type 0, BuildingBlock: BEQFEK_clean_sbu_0, # of connection points: 5
#     Node 12, Type 0, BuildingBlock: BEQFEK_clean_sbu_0, # of connection points: 5
#     Node 13, Type 0, BuildingBlock: BEQFEK_clean_sbu_0, # of connection points: 5
#     Node 14, Type 0, BuildingBlock: BEQFEK_clean_sbu_0, # of connection points: 5
#     Node 15, Type 0, BuildingBlock: BEQFEK_clean_sbu_0, # of connection points: 5
#     Node 16, Type 0, BuildingBlock: BEQFEK_clean_sbu_0, # of connection points: 5
#     Node 17, Type 0, BuildingBlock: BEQFEK_clean_sbu_0, # of connection points: 5
#     Node 18, Type 0, BuildingBlock: BEQFEK_clean_sbu_0, # of connection points: 5
#     Node 19, Type 0, BuildingBlock: BEQFEK_clean_sbu_0, # of connection points: 5
#     Node 20, Type 0, BuildingBlock: BEQFEK_clean_sbu_0, # of connection points: 5
#     Node 21, Type 0, BuildingBlock: BEQFEK_clean_sbu_0, # of connection points: 5
#     Node 22, Type 0, BuildingBlock: BEQFEK_clean_sbu_0, # of connection points: 5
#     Node 23, Type 0, BuildingBlock: BEQFEK_clean_sbu_0, # of connection points: 5
#     Node 24, Type 0, BuildingBlock: BEQFEK_clean_sbu_0, # of connection points: 5
#     Node 25, Type 0, BuildingBlock: BEQFEK_clean_sbu_0, # of connection points: 5
#     Node 26, Type 0, BuildingBlock: BEQFEK_clean_sbu_0, # of connection points: 5
#     Node 27, Type 0, BuildingBlock: BEQFEK_clean_sbu_0, # of connection points: 5
#     Node 28, Type 0, BuildingBlock: BEQFEK_clean_sbu_0, # of connection points: 5
#     Node 29, Type 0, BuildingBlock: BEQFEK_clean_sbu_0, # of connection points: 5
#     Node 30, Type 0, BuildingBlock: BEQFEK_clean_sbu_0, # of connection points: 5
#     Node 31, Type 0, BuildingBlock: BEQFEK_clean_sbu_0, # of connection points: 5
#     Edge 32, Type (0, 0), BuildingBlock: OJICUG_clean_linker_0, # of connection points: 2
#     Edge 33, Type (0, 0), BuildingBlock: OJICUG_clean_linker_0, # of connection points: 2
#     Edge 34, Type (0, 0), BuildingBlock: OJICUG_clean_linker_0, # of connection points: 2
#     Edge 35, Type (0, 0), BuildingBlock: OJICUG_clean_linker_0, # of connection points: 2
#     Edge 36, Type (0, 0), BuildingBlock: OJICUG_clean_linker_0, # of connection points: 2
#     Edge 37, Type (0, 0), BuildingBlock: OJICUG_clean_linker_0, # of connection points: 2
#     Edge 38, Type (0, 0), BuildingBlock: OJICUG_clean_linker_0, # of connection points: 2
#     Edge 39, Type (0, 0), BuildingBlock: OJICUG_clean_linker_0, # of connection points: 2
#     Edge 40, Type (0, 0), BuildingBlock: OJICUG_clean_linker_0, # of connection points: 2
#     Edge 41, Type (0, 0), BuildingBlock: OJICUG_clean_linker_0, # of connection points: 2
#     Edge 42, Type (0, 0), BuildingBlock: OJICUG_clean_linker_0, # of connection points: 2
#     Edge 43, Type (0, 0), BuildingBlock: OJICUG_clean_linker_0, # of connection points: 2
#     Edge 44, Type (0, 0), BuildingBlock: OJICUG_clean_linker_0, # of connection points: 2
#     Edge 45, Type (0, 0), BuildingBlock: OJICUG_clean_linker_0, # of connection points: 2
#     Edge 46, Type (0, 0), BuildingBlock: OJICUG_clean_linker_0, # of connection points: 2
#     Edge 47, Type (0, 0), BuildingBlock: OJICUG_clean_linker_0, # of connection points: 2
#     Edge 48, Type (0, 0), BuildingBlock: OJICUG_clean_linker_0, # of connection points: 2
#     Edge 49, Type (0, 0), BuildingBlock: OJICUG_clean_linker_0, # of connection points: 2
#     Edge 50, Type (0, 0), BuildingBlock: OJICUG_clean_linker_0, # of connection points: 2
#     Edge 51, Type (0, 0), BuildingBlock: OJICUG_clean_linker_0, # of connection points: 2
#     Edge 52, Type (0, 0), BuildingBlock: OJICUG_clean_linker_0, # of connection points: 2
#     Edge 53, Type (0, 0), BuildingBlock: OJICUG_clean_linker_0, # of connection points: 2
#     Edge 54, Type (0, 0), BuildingBlock: OJICUG_clean_linker_0, # of connection points: 2
#     Edge 55, Type (0, 0), BuildingBlock: OJICUG_clean_linker_0, # of connection points: 2
#     Edge 56, Type (0, 0), BuildingBlock: OJICUG_clean_linker_0, # of connection points: 2
#     Edge 57, Type (0, 0), BuildingBlock: OJICUG_clean_linker_0, # of connection points: 2
#     Edge 58, Type (0, 0), BuildingBlock: OJICUG_clean_linker_0, # of connection points: 2
#     Edge 59, Type (0, 0), BuildingBlock: OJICUG_clean_linker_0, # of connection points: 2
#     Edge 60, Type (0, 0), BuildingBlock: OJICUG_clean_linker_0, # of connection points: 2
#     Edge 61, Type (0, 0), BuildingBlock: OJICUG_clean_linker_0, # of connection points: 2
#     Edge 62, Type (0, 0), BuildingBlock: OJICUG_clean_linker_0, # of connection points: 2
#     Edge 63, Type (0, 0), BuildingBlock: OJICUG_clean_linker_0, # of connection points: 2
#     Edge 64, Type (0, 0), BuildingBlock: OJICUG_clean_linker_0, # of connection points: 2
#     Edge 65, Type (0, 0), BuildingBlock: OJICUG_clean_linker_0, # of connection points: 2
#     Edge 66, Type (0, 0), BuildingBlock: OJICUG_clean_linker_0, # of connection points: 2
#     Edge 67, Type (0, 0), BuildingBlock: OJICUG_clean_linker_0, # of connection points: 2
#     Edge 68, Type (0, 0), BuildingBlock: OJICUG_clean_linker_0, # of connection points: 2
#     Edge 69, Type (0, 0), BuildingBlock: OJICUG_clean_linker_0, # of connection points: 2
#     Edge 70, Type (0, 0), BuildingBlock: OJICUG_clean_linker_0, # of connection points: 2
#     Edge 71, Type (0, 0), BuildingBlock: OJICUG_clean_linker_0, # of connection points: 2
#     Edge 72, Type (0, 0), BuildingBlock: OJICUG_clean_linker_0, # of connection points: 2
#     Edge 73, Type (0, 0), BuildingBlock: OJICUG_clean_linker_0, # of connection points: 2
#     Edge 74, Type (0, 0), BuildingBlock: OJICUG_clean_linker_0, # of connection points: 2
#     Edge 75, Type (0, 0), BuildingBlock: OJICUG_clean_linker_0, # of connection points: 2
#     Edge 76, Type (0, 0), BuildingBlock: OJICUG_clean_linker_0, # of connection points: 2
#     Edge 77, Type (0, 0), BuildingBlock: OJICUG_clean_linker_0, # of connection points: 2
#     Edge 78, Type (0, 0), BuildingBlock: OJICUG_clean_linker_0, # of connection points: 2
#     Edge 79, Type (0, 0), BuildingBlock: OJICUG_clean_linker_0, # of connection points: 2
#     Edge 80, Type (0, 0), BuildingBlock: OJICUG_clean_linker_0, # of connection points: 2
#     Edge 81, Type (0, 0), BuildingBlock: OJICUG_clean_linker_0, # of connection points: 2
#     Edge 82, Type (0, 0), BuildingBlock: OJICUG_clean_linker_0, # of connection points: 2
#     Edge 83, Type (0, 0), BuildingBlock: OJICUG_clean_linker_0, # of connection points: 2
#     Edge 84, Type (0, 0), BuildingBlock: OJICUG_clean_linker_0, # of connection points: 2
#     Edge 85, Type (0, 0), BuildingBlock: OJICUG_clean_linker_0, # of connection points: 2
#     Edge 86, Type (0, 0), BuildingBlock: OJICUG_clean_linker_0, # of connection points: 2
#     Edge 87, Type (0, 0), BuildingBlock: OJICUG_clean_linker_0, # of connection points: 2
#     Edge 88, Type (0, 0), BuildingBlock: OJICUG_clean_linker_0, # of connection points: 2
#     Edge 89, Type (0, 0), BuildingBlock: OJICUG_clean_linker_0, # of connection points: 2
#     Edge 90, Type (0, 0), BuildingBlock: OJICUG_clean_linker_0, # of connection points: 2
#     Edge 91, Type (0, 0), BuildingBlock: OJICUG_clean_linker_0, # of connection points: 2
#     Edge 92, Type (0, 0), BuildingBlock: OJICUG_clean_linker_0, # of connection points: 2
#     Edge 93, Type (0, 0), BuildingBlock: OJICUG_clean_linker_0, # of connection points: 2
#     Edge 94, Type (0, 0), BuildingBlock: OJICUG_clean_linker_0, # of connection points: 2
#     Edge 95, Type (0, 0), BuildingBlock: OJICUG_clean_linker_0, # of connection points: 2
#     Edge 96, Type (0, 0), BuildingBlock: OJICUG_clean_linker_0, # of connection points: 2
#     Edge 97, Type (0, 0), BuildingBlock: OJICUG_clean_linker_0, # of connection points: 2
#     Edge 98, Type (0, 0), BuildingBlock: OJICUG_clean_linker_0, # of connection points: 2
#     Edge 99, Type (0, 0), BuildingBlock: OJICUG_clean_linker_0, # of connection points: 2
#     Edge 100, Type (0, 0), BuildingBlock: OJICUG_clean_linker_0, # of connection points: 2
#     Edge 101, Type (0, 0), BuildingBlock: OJICUG_clean_linker_0, # of connection points: 2
#     Edge 102, Type (0, 0), BuildingBlock: OJICUG_clean_linker_0, # of connection points: 2
#     Edge 103, Type (0, 0), BuildingBlock: OJICUG_clean_linker_0, # of connection points: 2
#     Edge 104, Type (0, 0), BuildingBlock: OJICUG_clean_linker_0, # of connection points: 2
#     Edge 105, Type (0, 0), BuildingBlock: OJICUG_clean_linker_0, # of connection points: 2
#     Edge 106, Type (0, 0), BuildingBlock: OJICUG_clean_linker_0, # of connection points: 2
#     Edge 107, Type (0, 0), BuildingBlock: OJICUG_clean_linker_0, # of connection points: 2
#     Edge 108, Type (0, 0), BuildingBlock: OJICUG_clean_linker_0, # of connection points: 2
#     Edge 109, Type (0, 0), BuildingBlock: OJICUG_clean_linker_0, # of connection points: 2
#     Edge 110, Type (0, 0), BuildingBlock: OJICUG_clean_linker_0, # of connection points: 2
#     Edge 111, Type (0, 0), BuildingBlock: OJICUG_clean_linker_0, # of connection points: 2
# Relax obj value: 0.400
# Max RMSD: 0.191
# Mean RMSD: 0.191
data_MOF--net-wge--node1-BEQFEK_clean_sbu_0--edge1-OJICUG_clean_linker_0
_symmetry_space_group_name_H-M    P1
_symmetry_Int_Tables_number       1
_symmetry_cell_setting            triclinic
loop_
_symmetry_equiv_pos_as_xyz
'x, y, z'
_cell_length_a     47.35453
_cell_length_b     47.524055
_cell_length_c     32.534063
_cell_angle_alpha  89.989869
_cell_angle_beta   89.991424
_cell_angle_gamma 89.998932
loop_
_atom_site_label
_atom_site_type_symbol
_atom_site_fract_x
_atom_site_fract_y
_atom_site_fract_z
_atom_type_partial_charge
Co0 Co 0.228 0.15071 1.00193 0.0
Co1 Co 0.27703 0.15087 0.06435 0.0
C2 C 0.25029 0.20477 0.03024 0.0
O3 O 0.23143 0.19161 0.01028 0.0
O4 O 0.26902 0.19141 0.05042 0.0
C5 C 0.18629 0.16145 0.9399 0.0
O6 O 0.19859 0.18607 0.93577 0.0
C7 C 0.28426 0.16562 0.14789 0.0
C8 C 0.31933 0.13925 0.17006 0.0
C9 C 0.29783 0.15698 0.1833 0.0
N10 N 0.29677 0.15347 0.11533 0.0
N11 N 0.31843 0.13844 0.12856 0.0
C12 C 0.25611 0.18013 0.14612 0.0
H13 H 0.24611 0.17799 0.11562 0.0
H14 H 0.24155 0.17131 0.16957 0.0
H15 H 0.25906 0.20281 0.15297 0.0
C16 C 0.19989 0.11715 0.06883 0.0
N17 N 0.22185 0.13138 0.05212 0.0
N18 N 0.24381 0.12919 0.07646 0.0
C19 C 0.23688 0.11244 0.10845 0.0
C20 C 0.20866 0.10498 0.10566 0.0
C21 C 0.1711 0.1157 0.05012 0.0
H22 H 0.16555 0.13632 0.03629 0.0
H23 H 0.15499 0.1097 0.0733 0.0
H24 H 0.17122 0.09975 0.02522 0.0
O25 O 0.26246 0.13554 0.97256 0.0
O26 O 0.29796 0.13318 0.01733 0.0
H27 H 0.25108 0.0793 0.14854 0.0
H28 H 0.25718 0.1143 0.16641 0.0
C29 C 0.25739 0.1008 0.13885 0.0
H30 H 0.27887 0.09993 0.12551 0.0
H31 H 0.33068 0.12542 0.10987 0.0
O32 O 0.19558 0.14403 0.96623 0.0
C33 C 0.28809 0.12928 0.98112 0.0
Co34 Co 0.13345 0.97677 0.252 0.0
Co35 Co 0.13302 0.02545 0.3147 0.0
C36 C 0.07914 0.99865 0.28051 0.0
O37 O 0.09241 0.97995 0.26043 0.0
O38 O 0.09246 0.01732 0.30076 0.0
C39 C 0.1226 0.93476 0.19053 0.0
O40 O 0.09761 0.94651 0.18697 0.0
C41 C 0.11796 0.03346 0.39795 0.0
C42 C 0.14444 0.06859 0.4195 0.0
C43 C 0.12652 0.04737 0.43308 0.0
N44 N 0.13034 0.04552 0.36523 0.0
N45 N 0.14543 0.06721 0.37804 0.0
C46 C 0.10333 1.00544 0.39666 0.0
H47 H 0.10579 0.99506 0.36649 0.0
H48 H 0.11185 0.99121 0.42071 0.0
H49 H 0.0805 1.00855 0.40287 0.0
C50 C 0.16707 0.9487 0.3189 0.0
N51 N 0.15285 0.97064 0.30225 0.0
N52 N 0.15477 0.99238 0.32695 0.0
C53 C 0.17132 0.9853 0.35915 0.0
C54 C 0.17896 0.95723 0.35605 0.0
C55 C 0.16865 0.92011 0.29991 0.0
H56 H 0.14797 0.91455 0.28607 0.0
H57 H 0.17475 0.90397 0.3229 0.0
H58 H 0.18462 0.92041 0.27495 0.0
O59 O 0.14833 1.01126 0.2226 0.0
O60 O 0.15067 0.04633 0.26786 0.0
H61 H 0.20387 0.99921 0.40063 0.0
H62 H 0.16842 1.00503 0.41738 0.0
C63 C 0.18243 1.00551 0.3903 0.0
H64 H 0.18346 0.02702 0.37738 0.0
H65 H 0.1586 0.07917 0.35916 0.0
O66 O 0.14027 0.94451 0.21622 0.0
C67 C 0.15448 0.03676 0.23151 0.0
Co68 Co 0.30675 0.88074 0.50221 0.0
Co69 Co 0.25777 0.88039 0.56477 0.0
C70 C 0.28435 0.82667 0.52999 0.0
O71 O 0.30324 0.83984 0.51006 0.0
O72 O 0.2657 0.83999 0.55037 0.0
C73 C 0.34871 0.87038 0.44024 0.0
O74 O 0.33678 0.84558 0.43615 0.0
C75 C 0.24963 0.86521 0.64797 0.0
C76 C 0.21452 0.89174 0.66961 0.0
C77 C 0.23573 0.87377 0.68314 0.0
N78 N 0.23759 0.87764 0.61529 0.0
N79 N 0.2159 0.89275 0.62815 0.0
C80 C 0.27771 0.85052 0.64665 0.0
H81 H 0.28798 0.85267 0.61633 0.0
H82 H 0.29212 0.8592 0.67039 0.0
H83 H 0.27456 0.82785 0.65335 0.0
C84 C 0.33513 0.91344 0.5697 0.0
N85 N 0.313 0.89965 0.55275 0.0
N86 N 0.29113 0.90171 0.57731 0.0
C87 C 0.29831 0.91797 0.60971 0.0
C88 C 0.32659 0.9252 0.60693 0.0
C89 C 0.3639 0.9148 0.55088 0.0
H90 H 0.36917 0.89431 0.53646 0.0
H91 H 0.38013 0.92029 0.57414 0.0
H92 H 0.36393 0.93108 0.52643 0.0
O93 O 0.27228 0.896 0.47299 0.0
O94 O 0.23699 0.89838 0.5181 0.0
H95 H 0.28446 0.95066 0.65081 0.0
H96 H 0.27829 0.91546 0.6678 0.0
C97 C 0.278 0.92932 0.64062 0.0
H98 H 0.25646 0.93046 0.62755 0.0
H99 H 0.20396 0.90597 0.60931 0.0
O100 O 0.33914 0.88769 0.46651 0.0
C101 C 0.24672 0.90229 0.48183 0.0
Co102 Co 0.40172 0.05357 0.75104 0.0
Co103 Co 0.40223 1.00608 0.81498 0.0
C104 C 0.45613 0.03278 0.78035 0.0
O105 O 0.44281 0.05124 0.75986 0.0
O106 O 0.44279 1.01422 0.80081 0.0
C107 C 0.40664 0.10737 0.7084 0.0
O108 O 0.42383 0.1164 0.73717 0.0
C109 C 0.41768 0.99918 0.89826 0.0
C110 C 0.39175 0.96392 0.92081 0.0
C111 C 0.40952 0.98545 0.93373 0.0
N112 N 0.40522 0.98673 0.86597 0.0
N113 N 0.39048 0.96496 0.87936 0.0
C114 C 0.43204 0.02733 0.89622 0.0
H115 H 0.42912 0.03747 0.86596 0.0
H116 H 0.42368 0.04164 0.92029 0.0
H117 H 0.45496 0.02446 0.90189 0.0
C118 C 0.36685 0.08258 0.81685 0.0
N119 N 0.38157 0.06071 0.80076 0.0
N120 N 0.38008 0.03927 0.82615 0.0
C121 C 0.36352 0.0465 0.85829 0.0
C122 C 0.35531 0.07434 0.85443 0.0
C123 C 0.36478 0.11096 0.79727 0.0
H124 H 0.35753 0.10867 0.76502 0.0
H125 H 0.38602 0.12076 0.79679 0.0
H126 H 0.35016 0.125 0.81423 0.0
O127 O 0.3875 0.01835 0.72332 0.0
O128 O 0.38471 0.98391 0.76932 0.0
H129 H 0.35228 1.0049 0.87827 0.0
H130 H 0.33172 0.03274 0.90111 0.0
C131 C 0.35312 0.02663 0.89043 0.0
H132 H 0.36745 0.02777 0.91711 0.0
H133 H 0.37738 0.95266 0.86086 0.0
O134 O 0.39543 0.08318 0.71076 0.0
C135 C 0.38125 0.993 0.73267 0.0
Co136 Co 0.2294 0.88071 0.01806 0.0
Co137 Co 0.27739 0.88059 0.95452 0.0
C138 C 0.25087 0.82667 0.98925 0.0
O139 O 0.23216 0.83983 0.00955 0.0
O140 O 0.26947 0.84006 0.96885 0.0
C141 C 0.17546 0.87589 0.06137 0.0
O142 O 0.16616 0.8584 0.03323 0.0
C143 C 0.28371 0.86543 0.87097 0.0
C144 C 0.31883 0.89143 0.84797 0.0
C145 C 0.29712 0.87377 0.83529 0.0
N146 N 0.29652 0.87769 0.90316 0.0
N147 N 0.3182 0.89248 0.88946 0.0
C148 C 0.2555 0.85109 0.87337 0.0
H149 H 0.24575 0.85346 0.90402 0.0
H150 H 0.24082 0.85985 0.85004 0.0
H151 H 0.25828 0.82836 0.86675 0.0
C152 C 0.20012 0.91466 0.95166 0.0
N153 N 0.22219 0.90046 0.96821 0.0
N154 N 0.24393 0.9024 0.94331 0.0
C155 C 0.23671 0.91886 0.91113 0.0
C156 C 0.20855 0.92639 0.91432 0.0
C157 C 0.17139 0.91608 0.97061 0.0
H158 H 0.17315 0.92392 1.00263 0.0
H159 H 0.1623 0.8946 0.97172 0.0
H160 H 0.15697 0.92987 0.95287 0.0
O161 O 0.26453 0.89538 0.04568 0.0
O162 O 0.29949 0.8983 1.00034 0.0
H163 H 0.25058 0.95149 0.86994 0.0
H164 H 0.25615 0.91629 0.8526 0.0
C165 C 0.25688 0.93004 0.87989 0.0
H166 H 0.27854 0.9309 0.89255 0.0
H167 H 0.33069 0.90549 0.90782 0.0
O168 O 0.19969 0.88706 0.0583 0.0
C169 C 0.29 0.90182 0.03681 0.0
Co170 Co 0.40184 0.97802 0.26806 0.0
Co171 Co 0.40228 0.02567 0.20425 0.0
C172 C 0.45615 0.99908 0.23914 0.0
O173 O 0.44287 0.98054 0.25954 0.0
O174 O 0.4428 0.01762 0.21864 0.0
C175 C 0.40679 0.9243 0.3111 0.0
O176 O 0.42446 0.91533 0.2829 0.0
C177 C 0.41781 0.03287 0.12102 0.0
C178 C 0.3917 0.06806 0.09868 0.0
C179 C 0.40956 0.04664 0.08563 0.0
N180 N 0.40528 0.04517 0.15338 0.0
N181 N 0.39044 0.0669 0.14012 0.0
C182 C 0.4323 1.00478 0.12289 0.0
H183 H 0.42957 0.99461 0.15317 0.0
H184 H 0.42389 0.99045 0.0989 0.0
H185 H 0.45519 1.00775 0.11699 0.0
C186 C 0.36784 0.94882 0.20162 0.0
N187 N 0.38205 0.97086 0.21809 0.0
N188 N 0.38041 0.99236 0.19284 0.0
C189 C 0.36419 0.985 0.16042 0.0
C190 C 0.35645 0.957 0.16392 0.0
C191 C 0.36622 0.92031 0.22089 0.0
H192 H 0.35836 0.92228 0.25288 0.0
H193 H 0.3877 0.9111 0.22208 0.0
H194 H 0.35229 0.90593 0.20331 0.0
O195 O 0.38746 1.01316 0.29576 0.0
O196 O 0.38458 0.04768 0.2499 0.0
H197 H 0.35258 0.02655 0.14061 0.0
H198 H 0.33223 0.99856 0.11776 0.0
C199 C 0.3536 1.00485 0.12839 0.0
H200 H 0.36789 1.00385 0.10165 0.0
H201 H 0.37726 0.07908 0.1587 0.0
O202 O 0.39539 0.94838 0.30825 0.0
C203 C 0.38113 0.03851 0.2865 0.0
Co204 Co 0.30711 0.1508 0.51712 0.0
Co205 Co 0.25795 0.15086 0.45483 0.0
C206 C 0.28453 0.20476 0.48915 0.0
O207 O 0.30347 0.19164 0.50905 0.0
O208 O 0.26584 0.19137 0.46893 0.0
C209 C 0.34887 0.16137 0.57919 0.0
O210 O 0.33661 0.18599 0.58345 0.0
C211 C 0.2504 0.16568 0.37132 0.0
C212 C 0.21544 0.13909 0.34936 0.0
C213 C 0.2368 0.15695 0.33599 0.0
N214 N 0.23805 0.15345 0.40395 0.0
N215 N 0.21646 0.13829 0.39085 0.0
C216 C 0.27847 0.18035 0.37294 0.0
H217 H 0.28851 0.17836 0.40344 0.0
H218 H 0.29305 0.17155 0.34952 0.0
H219 H 0.27539 0.203 0.36596 0.0
C220 C 0.33542 0.11806 0.44966 0.0
N221 N 0.31329 0.1318 0.46673 0.0
N222 N 0.29129 0.12947 0.44249 0.0
C223 C 0.29837 0.11305 0.41022 0.0
C224 C 0.32672 0.10604 0.4127 0.0
C225 C 0.3643 0.11698 0.46812 0.0
H226 H 0.36947 0.13752 0.48247 0.0
H227 H 0.38044 0.11162 0.44466 0.0
H228 H 0.36461 0.1007 0.49257 0.0
O229 O 0.27274 0.13547 0.54648 0.0
O230 O 0.23718 0.133 0.50183 0.0
H231 H 0.28443 0.07978 0.37021 0.0
H232 H 0.27799 0.1147 0.35232 0.0
C233 C 0.27792 0.10122 0.3799 0.0
H234 H 0.25647 0.10014 0.39329 0.0
H235 H 0.20435 0.12518 0.40961 0.0
O236 O 0.33956 0.14404 0.55274 0.0
C237 C 0.24713 0.12913 0.538 0.0
Co238 Co 0.13353 0.05389 0.7683 0.0
Co239 Co 0.13331 1.00619 0.70464 0.0
C240 C 0.07924 0.0329 0.73886 0.0
O241 O 0.0925 0.05143 0.75929 0.0
O242 O 0.09264 1.01429 0.71856 0.0
C243 C 0.12839 0.10774 0.81075 0.0
O244 O 0.11122 0.11671 0.78191 0.0
C245 C 0.11823 0.99989 0.62108 0.0
C246 C 0.14419 0.96478 0.59819 0.0
C247 C 0.12655 0.98646 0.58545 0.0
N248 N 0.13047 0.98712 0.65331 0.0
N249 N 0.14524 0.96545 0.63968 0.0
C250 C 0.10391 0.02805 0.62341 0.0
H251 H 0.1066 0.03792 0.65389 0.0
H252 H 0.11249 0.04254 0.59973 0.0
H253 H 0.08103 0.02528 0.6173 0.0
C254 C 0.16838 0.08283 0.70247 0.0
N255 N 0.15374 0.06097 0.7187 0.0
N256 N 0.15552 0.03938 0.69364 0.0
C257 C 0.17224 0.0465 0.66164 0.0
C258 C 0.1802 0.07442 0.66516 0.0
C259 C 0.17015 0.11136 0.72165 0.0
H260 H 0.17736 0.10934 0.75395 0.0
H261 H 0.14881 0.12095 0.72193 0.0
H262 H 0.18467 0.12542 0.70454 0.0
O263 O 0.14785 0.01878 0.79614 0.0
O264 O 0.15072 0.98404 0.75063 0.0
H265 H 0.18389 1.00481 0.64259 0.0
H266 H 0.20466 0.03258 0.61996 0.0
C267 C 0.18313 0.02645 0.6301 0.0
H268 H 0.16919 0.02737 0.60297 0.0
H269 H 0.15824 0.95297 0.6581 0.0
O270 O 0.13966 0.08357 0.80847 0.0
C271 C 0.15416 0.99338 0.78718 0.0
Co272 Co 0.80591 0.88161 0.01812 0.0
Co273 Co 0.75793 0.88144 0.95454 0.0
C274 C 0.78445 0.82759 0.98932 0.0
O275 O 0.80315 0.84077 0.0096 0.0
O276 O 0.76584 0.84095 0.96891 0.0
C277 C 0.8598 0.87645 0.06118 0.0
O278 O 0.86882 0.85887 0.03297 0.0
C279 C 0.75159 0.86611 0.87108 0.0
C280 C 0.71652 0.89211 0.84793 0.0
C281 C 0.73819 0.87437 0.83535 0.0
N282 N 0.73881 0.8785 0.9032 0.0
N283 N 0.71716 0.89329 0.88941 0.0
C284 C 0.77977 0.85171 0.87355 0.0
H285 H 0.78961 0.85432 0.90409 0.0
H286 H 0.79441 0.86021 0.84997 0.0
H287 H 0.77689 0.82892 0.86738 0.0
C288 C 0.83522 0.91547 0.95171 0.0
N289 N 0.81311 0.90133 0.96827 0.0
N290 N 0.7914 0.90324 0.94332 0.0
C291 C 0.79867 0.91962 0.91108 0.0
C292 C 0.82683 0.92713 0.9143 0.0
C293 C 0.86393 0.91686 0.97069 0.0
H294 H 0.86216 0.92471 1.00269 0.0
H295 H 0.87301 0.89538 0.97181 0.0
H296 H 0.87838 0.93063 0.95295 0.0
O297 O 0.77077 0.89623 0.04574 0.0
O298 O 0.73583 0.89913 1.00037 0.0
H299 H 0.78491 0.9521 0.86956 0.0
H300 H 0.7793 0.91683 0.85253 0.0
C301 C 0.77856 0.9307 0.87969 0.0
H302 H 0.75688 0.93165 0.8923 0.0
H303 H 0.7047 0.90638 0.9077 0.0
O304 O 0.83567 0.88786 0.05829 0.0
C305 C 0.7453 0.90264 0.03685 0.0
Co306 Co 0.9022 0.0542 0.76798 0.0
Co307 Co 0.90238 1.0064 0.7045 0.0
C308 C 0.95647 0.03309 0.73869 0.0
O309 O 0.94323 0.05168 0.75902 0.0
O310 O 0.94305 1.01446 0.71845 0.0
C311 C 0.90725 0.10807 0.81049 0.0
O312 O 0.92441 0.11715 0.78171 0.0
C313 C 0.91745 1.0 0.62098 0.0
C314 C 0.89148 0.96485 0.59821 0.0
C315 C 0.90911 0.98652 0.58539 0.0
N316 N 0.90521 0.98726 0.65325 0.0
N317 N 0.89044 0.96557 0.63969 0.0
C318 C 0.93175 0.02817 0.62322 0.0
H319 H 0.92915 0.03803 0.65373 0.0
H320 H 0.92306 0.04265 0.59962 0.0
H321 H 0.95461 0.02542 0.61693 0.0
C322 C 0.86732 0.08305 0.70213 0.0
N323 N 0.88199 0.06122 0.71838 0.0
N324 N 0.8802 0.03959 0.6934 0.0
C325 C 0.86344 0.04665 0.66143 0.0
C326 C 0.85546 0.07458 0.66488 0.0
C327 C 0.86553 0.1116 0.72125 0.0
H328 H 0.85826 0.10961 0.75353 0.0
H329 H 0.88687 0.12118 0.72159 0.0
H330 H 0.85105 0.12565 0.70407 0.0
O331 O 0.88783 0.01915 0.79588 0.0
O332 O 0.88491 0.98434 0.7505 0.0
H333 H 0.85177 1.00492 0.64258 0.0
H334 H 0.83097 0.03265 0.61989 0.0
C335 C 0.85251 0.02654 0.62999 0.0
H336 H 0.86642 0.02742 0.60282 0.0
H337 H 0.87746 0.95311 0.65815 0.0
O338 O 0.89604 0.08388 0.80812 0.0
C339 C 0.88149 0.99374 0.78701 0.0
Co340 Co 0.72827 0.1508 0.51715 0.0
Co341 Co 0.77736 0.15079 0.45471 0.0
C342 C 0.75091 0.20472 0.48918 0.0
O343 O 0.73197 0.19164 0.50914 0.0
O344 O 0.76954 0.19131 0.46887 0.0
C345 C 0.68652 0.16127 0.57935 0.0
O346 O 0.69874 0.18591 0.58369 0.0
C347 C 0.7849 0.1655 0.37114 0.0
C348 C 0.81984 0.13884 0.34927 0.0
C349 C 0.79849 0.15667 0.33583 0.0
N350 N 0.79725 0.15333 0.40381 0.0
N351 N 0.81884 0.13813 0.39076 0.0
C352 C 0.75683 0.18017 0.37272 0.0
H353 H 0.74687 0.17838 0.40331 0.0
H354 H 0.74219 0.17121 0.34951 0.0
H355 H 0.75988 0.20277 0.36539 0.0
C356 C 0.69981 0.11819 0.44969 0.0
N357 N 0.722 0.13185 0.46673 0.0
N358 N 0.74397 0.12946 0.44243 0.0
C359 C 0.73681 0.11308 0.41016 0.0
C360 C 0.70844 0.10616 0.4127 0.0
C361 C 0.67094 0.11718 0.46822 0.0
H362 H 0.67059 0.10088 0.49263 0.0
H363 H 0.66586 0.13773 0.48262 0.0
H364 H 0.65476 0.1119 0.44478 0.0
O365 O 0.76265 0.13542 0.54641 0.0
O366 O 0.79815 0.1329 0.50165 0.0
H367 H 0.77867 0.10012 0.39308 0.0
H368 H 0.75064 0.07974 0.37021 0.0
C369 C 0.75719 0.10119 0.37979 0.0
H370 H 0.75707 0.11462 0.35216 0.0
H371 H 0.83094 0.12506 0.40957 0.0
O372 O 0.69585 0.14401 0.55282 0.0
C373 C 0.78824 0.12905 0.53785 0.0
Co374 Co 0.63314 0.9783 0.26815 0.0
Co375 Co 0.63262 0.02596 0.20431 0.0
C376 C 0.5788 0.99924 0.23922 0.0
O377 O 0.59211 0.98074 0.25963 0.0
O378 O 0.59211 0.01781 0.21871 0.0
C379 C 0.62839 0.92455 0.3112 0.0
O380 O 0.61077 0.91551 0.28299 0.0
C381 C 0.6171 0.03294 0.12101 0.0
C382 C 0.64312 0.06815 0.09851 0.0
C383 C 0.62532 0.04667 0.08555 0.0
N384 N 0.62958 0.04536 0.15332 0.0
N385 N 0.64437 0.0671 0.13996 0.0
C386 C 0.60269 1.00482 0.12299 0.0
H387 H 0.60542 0.99473 0.15332 0.0
H388 H 0.61117 0.99046 0.09908 0.0
H389 H 0.5798 1.00771 0.11703 0.0
C390 C 0.66721 0.94918 0.2017 0.0
N391 N 0.65294 0.97119 0.21819 0.0
N392 N 0.65458 0.99271 0.19297 0.0
C393 C 0.67086 0.98541 0.16059 0.0
C394 C 0.67863 0.95743 0.16404 0.0
C395 C 0.66888 0.92066 0.22091 0.0
H396 H 0.6767 0.92261 0.25292 0.0
H397 H 0.64741 0.9114 0.22205 0.0
H398 H 0.68286 0.90633 0.20333 0.0
O399 O 0.64747 1.01348 0.29579 0.0
O400 O 0.65028 0.04802 0.24993 0.0
H401 H 0.68246 0.02701 0.14098 0.0
H402 H 0.70291 0.99908 0.11814 0.0
C403 C 0.68151 1.00533 0.12868 0.0
H404 H 0.66729 1.00435 0.10186 0.0
H405 H 0.6575 0.07935 0.15848 0.0
O406 O 0.63967 0.94868 0.30836 0.0
C407 C 0.65376 0.03884 0.28653 0.0
Co408 Co 0.80725 0.14984 1.00179 0.0
Co409 Co 0.75822 0.14988 0.06426 0.0
C410 C 0.78476 0.20381 0.03006 0.0
O411 O 0.80368 0.19069 0.01015 0.0
O412 O 0.76607 0.19041 0.05026 0.0
C413 C 0.84893 0.16095 0.9399 0.0
O414 O 0.83649 0.18551 0.93598 0.0
C415 C 0.75095 0.16473 0.14775 0.0
C416 C 0.71597 0.13829 0.17006 0.0
C417 C 0.73742 0.15612 0.1832 0.0
N418 N 0.73848 0.15248 0.11525 0.0
N419 N 0.71688 0.1374 0.12856 0.0
C420 C 0.77905 0.17934 0.14589 0.0
H421 H 0.78909 0.1771 0.11543 0.0
H422 H 0.79362 0.17069 0.16945 0.0
H423 H 0.776 0.20204 0.15251 0.0
C424 C 0.83546 0.11638 0.06867 0.0
N425 N 0.81345 0.13052 0.05196 0.0
N426 N 0.79151 0.1283 0.07634 0.0
C427 C 0.7985 0.11161 0.10836 0.0
C428 C 0.82674 0.10421 0.10553 0.0
C429 C 0.86425 0.115 0.04993 0.0
H430 H 0.86415 0.09908 0.02498 0.0
H431 H 0.86975 0.13564 0.03615 0.0
H432 H 0.88037 0.10899 0.07308 0.0
O433 O 0.77282 0.13463 0.97245 0.0
O434 O 0.73733 0.13217 0.01726 0.0
H435 H 0.75656 0.099 0.12554 0.0
H436 H 0.78442 0.07852 0.14865 0.0
C437 C 0.77804 0.09998 0.13885 0.0
H438 H 0.77822 0.11355 0.16634 0.0
H439 H 0.70467 0.1243 0.10993 0.0
O440 O 0.83971 0.14336 0.96605 0.0
C441 C 0.74721 0.12833 0.98103 0.0
Co442 Co 0.63334 0.05321 0.7509 0.0
Co443 Co 0.63271 1.00569 0.81487 0.0
C444 C 0.57888 0.03256 0.78024 0.0
O445 O 0.59225 0.05098 0.75973 0.0
O446 O 0.59217 1.01396 0.8007 0.0
C447 C 0.62861 0.10705 0.70832 0.0
O448 O 0.61147 0.11611 0.73713 0.0
C449 C 0.61725 0.99901 0.89821 0.0
C450 C 0.64306 0.9637 0.9209 0.0
C451 C 0.62537 0.98532 0.93374 0.0
N452 N 0.62966 0.98644 0.86596 0.0
N453 N 0.64433 0.96465 0.87944 0.0
C454 C 0.60299 0.0272 0.89608 0.0
H455 H 0.60592 0.03727 0.86578 0.0
H456 H 0.61141 0.04152 0.92008 0.0
H457 H 0.58005 0.02441 0.9018 0.0
C458 C 0.66829 0.08209 0.81671 0.0
N459 N 0.65349 0.06028 0.80061 0.0
N460 N 0.65496 0.03881 0.82595 0.0
C461 C 0.67158 0.04596 0.85804 0.0
C462 C 0.67985 0.07378 0.85423 0.0
C463 C 0.67043 0.11049 0.79719 0.0
H464 H 0.67764 0.10821 0.76492 0.0
H465 H 0.64922 0.12035 0.79679 0.0
H466 H 0.68511 0.12446 0.81415 0.0
O467 O 0.64751 0.01795 0.72323 0.0
O468 O 0.65019 0.98347 0.76921 0.0
H469 H 0.68279 1.0043 0.8778 0.0
H470 H 0.70345 0.03206 0.90064 0.0
C471 C 0.68201 0.026 0.89005 0.0
H472 H 0.66775 0.02713 0.91682 0.0
H473 H 0.65739 0.95227 0.86098 0.0
O474 O 0.63972 0.08281 0.71062 0.0
C475 C 0.65371 0.99258 0.73257 0.0
Co476 Co 0.7286 0.88059 0.50211 0.0
Co477 Co 0.7775 0.88013 0.56478 0.0
C478 C 0.75086 0.82646 0.52995 0.0
O479 O 0.73205 0.83969 0.50995 0.0
O480 O 0.76951 0.83973 0.55041 0.0
C481 C 0.68661 0.87039 0.44008 0.0
O482 O 0.69842 0.84554 0.43595 0.0
C483 C 0.78563 0.86505 0.64804 0.0
C484 C 0.8208 0.89158 0.66951 0.0
C485 C 0.79956 0.87368 0.68316 0.0
N486 N 0.79768 0.8774 0.61529 0.0
N487 N 0.81941 0.89251 0.62806 0.0
C488 C 0.75754 0.85041 0.64681 0.0
H489 H 0.7473 0.85244 0.61645 0.0
H490 H 0.74312 0.85922 0.67044 0.0
H491 H 0.76064 0.82776 0.65373 0.0
C492 C 0.70015 0.91323 0.56959 0.0
N493 N 0.72232 0.89946 0.55266 0.0
N494 N 0.74415 0.90149 0.57728 0.0
C495 C 0.73692 0.91772 0.60971 0.0
C496 C 0.70864 0.92495 0.60686 0.0
C497 C 0.67141 0.91458 0.55071 0.0
H498 H 0.67139 0.93089 0.5263 0.0
H499 H 0.66617 0.8941 0.53623 0.0
H500 H 0.65514 0.92003 0.57395 0.0
O501 O 0.76312 0.89581 0.47295 0.0
O502 O 0.79835 0.8981 0.51813 0.0
H503 H 0.75073 0.9504 0.65083 0.0
H504 H 0.75678 0.9152 0.6679 0.0
C505 C 0.75718 0.92904 0.6407 0.0
H506 H 0.77875 0.93014 0.62773 0.0
H507 H 0.83135 0.90566 0.60914 0.0
O508 O 0.69627 0.88764 0.46637 0.0
C509 C 0.78868 0.90205 0.48185 0.0
Co510 Co 0.90223 0.9764 0.25219 0.0
Co511 Co 0.90254 0.02516 0.31472 0.0
C512 C 0.9565 0.99844 0.28059 0.0
O513 O 0.94327 0.97967 0.26059 0.0
O514 O 0.94312 0.01711 0.30077 0.0
C515 C 0.91308 0.9345 0.1906 0.0
O516 O 0.93799 0.9464 0.18688 0.0
C517 C 0.9176 0.03337 0.39789 0.0
C518 C 0.89104 0.06848 0.41932 0.0
C519 C 0.90902 0.04733 0.43297 0.0
N520 N 0.90518 0.04533 0.36514 0.0
N521 N 0.89005 0.06701 0.37788 0.0
C522 C 0.93229 1.00537 0.3967 0.0
H523 H 0.92984 0.99493 0.36658 0.0
H524 H 0.9238 0.99117 0.42081 0.0
H525 H 0.95511 1.00853 0.40288 0.0
C526 C 0.8686 0.94837 0.31911 0.0
N527 N 0.88282 0.9703 0.30245 0.0
N528 N 0.88086 0.99206 0.32709 0.0
C529 C 0.86431 0.985 0.3593 0.0
C530 C 0.85668 0.95692 0.35624 0.0
C531 C 0.86702 0.91977 0.30015 0.0
H532 H 0.85107 0.92007 0.27517 0.0
H533 H 0.88771 0.9142 0.28634 0.0
H534 H 0.86089 0.90364 0.32315 0.0
O535 O 0.8873 1.01081 0.22268 0.0
O536 O 0.88485 0.04594 0.26785 0.0
H537 H 0.85213 0.02672 0.37746 0.0
H538 H 0.83176 0.99891 0.4008 0.0
C539 C 0.85318 1.00522 0.39043 0.0
H540 H 0.86722 1.00479 0.41748 0.0
H541 H 0.87685 0.07891 0.35896 0.0
O542 O 0.89546 0.9441 0.21647 0.0
C543 C 0.88108 0.03631 0.23152 0.0
Co544 Co 0.72773 0.65039 0.50189 0.0
Co545 Co 0.77688 0.65033 0.56415 0.0
C546 C 0.75047 0.70427 0.52976 0.0
O547 O 0.73147 0.69122 0.50993 0.0
O548 O 0.76913 0.69083 0.54996 0.0
C549 C 0.6861 0.66122 0.43983 0.0
O550 O 0.69853 0.68576 0.43568 0.0
C551 C 0.78446 0.66533 0.64754 0.0
C552 C 0.81936 0.63871 0.6697 0.0
C553 C 0.79805 0.65668 0.68293 0.0
N554 N 0.79677 0.65295 0.615 0.0
N555 N 0.81833 0.63777 0.62821 0.0
C556 C 0.75643 0.68008 0.64582 0.0
H557 H 0.74633 0.67792 0.61539 0.0
H558 H 0.74186 0.67147 0.66941 0.0
H559 H 0.7596 0.70275 0.65248 0.0
C560 C 0.69935 0.61766 0.56933 0.0
N561 N 0.72149 0.63138 0.55228 0.0
N562 N 0.74348 0.62903 0.57655 0.0
C563 C 0.73636 0.61263 0.60883 0.0
C564 C 0.70801 0.60564 0.60631 0.0
C565 C 0.67048 0.61659 0.55082 0.0
H566 H 0.67019 0.60033 0.52634 0.0
H567 H 0.66532 0.63714 0.53648 0.0
H568 H 0.65432 0.6112 0.57425 0.0
O569 O 0.76206 0.63495 0.47255 0.0
O570 O 0.79761 0.6324 0.5172 0.0
H571 H 0.75023 0.57946 0.64908 0.0
H572 H 0.75674 0.61443 0.66672 0.0
C573 C 0.75678 0.60086 0.63925 0.0
H574 H 0.77823 0.5997 0.62587 0.0
H575 H 0.83041 0.62458 0.60954 0.0
O576 O 0.69527 0.64379 0.46625 0.0
C577 C 0.78766 0.62855 0.48103 0.0
Co578 Co 0.63317 0.47744 0.75103 0.0
Co579 Co 0.6327 0.52502 0.81479 0.0
C580 C 0.57878 0.49825 0.78034 0.0
O581 O 0.59209 0.47976 0.7599 0.0
O582 O 0.59212 0.51684 0.80073 0.0
C583 C 0.62842 0.42361 0.70832 0.0
O584 O 0.61122 0.41445 0.73701 0.0
C585 C 0.61742 0.53217 0.89808 0.0
C586 C 0.6434 0.56751 0.92022 0.0
C587 C 0.62569 0.546 0.9334 0.0
N588 N 0.62979 0.54453 0.86564 0.0
N589 N 0.64455 0.56635 0.87877 0.0
C590 C 0.60308 0.504 0.89632 0.0
H591 H 0.60582 0.49383 0.86605 0.0
H592 H 0.61162 0.48973 0.92031 0.0
H593 H 0.58019 0.50685 0.9023 0.0
C594 C 0.66808 0.44853 0.81687 0.0
N595 N 0.65336 0.47038 0.80074 0.0
N596 N 0.65486 0.49185 0.82607 0.0
C597 C 0.67143 0.48465 0.85821 0.0
C598 C 0.67964 0.4568 0.85442 0.0
C599 C 0.67013 0.42013 0.79738 0.0
H600 H 0.67743 0.42237 0.76514 0.0
H601 H 0.64888 0.41036 0.79686 0.0
H602 H 0.68471 0.40608 0.81441 0.0
O603 O 0.64732 0.51263 0.72315 0.0
O604 O 0.65017 0.54712 0.76905 0.0
H605 H 0.68265 0.52627 0.8781 0.0
H606 H 0.70327 0.49847 0.9009 0.0
C607 C 0.68184 0.50456 0.89028 0.0
H608 H 0.66756 0.5034 0.91702 0.0
H609 H 0.6576 0.57859 0.8601 0.0
O610 O 0.63953 0.44784 0.71079 0.0
C611 C 0.65358 0.53799 0.73242 0.0
Co612 Co 0.80689 0.38009 1.00162 0.0
Co613 Co 0.75786 0.37992 0.06416 0.0
C614 C 0.78449 0.32606 0.02964 0.0
O615 O 0.80334 0.3392 0.0096 0.0
O616 O 0.76583 0.33943 0.04998 0.0
C617 C 0.84871 0.36987 0.93935 0.0
O618 O 0.83666 0.34516 0.93496 0.0
C619 C 0.75062 0.36516 0.1478 0.0
C620 C 0.71563 0.39166 0.16991 0.0
C621 C 0.7371 0.3739 0.1832 0.0
N622 N 0.73813 0.37729 0.1152 0.0
N623 N 0.71651 0.39239 0.12841 0.0
C624 C 0.77874 0.35059 0.14604 0.0
H625 H 0.78862 0.35245 0.11541 0.0
H626 H 0.79339 0.35959 0.1692 0.0
H627 H 0.77579 0.32797 0.15335 0.0
C628 C 0.83529 0.41279 0.06906 0.0
N629 N 0.81316 0.39904 0.05204 0.0
N630 N 0.79118 0.40137 0.07633 0.0
C631 C 0.79828 0.41782 0.10856 0.0
C632 C 0.82662 0.42482 0.10603 0.0
C633 C 0.86415 0.4139 0.05052 0.0
H634 H 0.86445 0.43023 0.02614 0.0
H635 H 0.8693 0.39339 0.03606 0.0
H636 H 0.88032 0.41921 0.07396 0.0
O637 O 0.77244 0.39546 0.97248 0.0
O638 O 0.73695 0.39781 0.01727 0.0
H639 H 0.75637 0.4307 0.12551 0.0
H640 H 0.78432 0.4512 0.14835 0.0
C641 C 0.77784 0.42971 0.13885 0.0
H642 H 0.77797 0.41633 0.16653 0.0
H643 H 0.7043 0.40543 0.10969 0.0
O644 O 0.83926 0.38705 0.9659 0.0
C645 C 0.74683 0.40177 0.98107 0.0
Co646 Co 0.90106 0.55316 0.25066 0.0
Co647 Co 0.90163 0.50559 0.31456 0.0
C648 C 0.95545 0.53247 0.28002 0.0
O649 O 0.9421 0.55092 0.25957 0.0
O650 O 0.94216 0.51384 0.30042 0.0
C651 C 0.90612 0.60697 0.20829 0.0
O652 O 0.92334 0.61581 0.23715 0.0
C653 C 0.91718 0.49878 0.39781 0.0
C654 C 0.89132 0.46352 0.42053 0.0
C655 C 0.90909 0.48507 0.43334 0.0
N656 N 0.90468 0.48628 0.36559 0.0
N657 N 0.88997 0.46452 0.37908 0.0
C658 C 0.93153 0.52693 0.39568 0.0
H659 H 0.92839 0.53713 0.3655 0.0
H660 H 0.92335 0.5412 0.41993 0.0
H661 H 0.95449 0.52404 0.40097 0.0
C662 C 0.86615 0.58202 0.31649 0.0
N663 N 0.88087 0.56019 0.30035 0.0
N664 N 0.8794 0.53871 0.32568 0.0
C665 C 0.86284 0.54589 0.35783 0.0
C666 C 0.85462 0.57372 0.35404 0.0
C667 C 0.86409 0.61044 0.29702 0.0
H668 H 0.88533 0.62023 0.2966 0.0
H669 H 0.84947 0.62445 0.31402 0.0
H670 H 0.85686 0.60821 0.26475 0.0
O671 O 0.88701 0.51791 0.22288 0.0
O672 O 0.88424 0.48341 0.26883 0.0
H673 H 0.83108 0.53207 0.40068 0.0
H674 H 0.86682 0.52706 0.41659 0.0
C675 C 0.85247 0.52596 0.38993 0.0
H676 H 0.8516 0.50426 0.3777 0.0
H677 H 0.87685 0.45219 0.36065 0.0
O678 O 0.89479 0.58282 0.21046 0.0
C679 C 0.88082 0.49253 0.23218 0.0
Co680 Co 0.72856 0.3809 0.5172 0.0
Co681 Co 0.77764 0.3808 0.45472 0.0
C682 C 0.75114 0.32693 0.48927 0.0
O683 O 0.73223 0.34005 0.5092 0.0
O684 O 0.7698 0.3403 0.46896 0.0
C685 C 0.68678 0.37017 0.57919 0.0
O686 O 0.69903 0.34553 0.5833 0.0
C687 C 0.78489 0.36583 0.3712 0.0
C688 C 0.81978 0.39236 0.34881 0.0
C689 C 0.79838 0.37447 0.33571 0.0
N690 N 0.79736 0.37813 0.40367 0.0
N691 N 0.81891 0.39326 0.39031 0.0
C692 C 0.75683 0.35115 0.3731 0.0
H693 H 0.74686 0.35326 0.40363 0.0
H694 H 0.7422 0.35985 0.34967 0.0
H695 H 0.75992 0.32848 0.36631 0.0
C696 C 0.70015 0.41357 0.44974 0.0
N697 N 0.72229 0.39985 0.46679 0.0
N698 N 0.74427 0.40218 0.44249 0.0
C699 C 0.73716 0.41859 0.41022 0.0
C700 C 0.70881 0.42558 0.41274 0.0
C701 C 0.67128 0.41466 0.46826 0.0
H702 H 0.66613 0.39413 0.48266 0.0
H703 H 0.65512 0.42001 0.44483 0.0
H704 H 0.67098 0.43095 0.49269 0.0
O705 O 0.76296 0.39632 0.54637 0.0
O706 O 0.79848 0.39873 0.50162 0.0
H707 H 0.75106 0.45186 0.37017 0.0
H708 H 0.75754 0.41694 0.35231 0.0
C709 C 0.75759 0.43043 0.37987 0.0
H710 H 0.77904 0.43153 0.39325 0.0
H711 H 0.83108 0.40641 0.4089 0.0
O712 O 0.69612 0.38759 0.55289 0.0
C713 C 0.78856 0.40266 0.53781 0.0
Co714 Co 0.90213 0.47823 0.76798 0.0
Co715 Co 0.90273 0.52575 0.70401 0.0
C716 C 0.95658 0.49889 0.73856 0.0
O717 O 0.94321 0.48048 0.7591 0.0
O718 O 0.9433 0.51749 0.71809 0.0
C719 C 0.90678 0.42437 0.81064 0.0
O720 O 0.92394 0.41525 0.78188 0.0
C721 C 0.918 0.5326 0.62061 0.0
C722 C 0.8921 0.56793 0.59824 0.0
C723 C 0.90975 0.54634 0.58519 0.0
N724 N 0.90567 0.5451 0.65299 0.0
N725 N 0.89096 0.56691 0.6397 0.0
C726 C 0.93227 0.5044 0.62255 0.0
H727 H 0.92953 0.49433 0.6529 0.0
H728 H 0.92369 0.49009 0.59867 0.0
H729 H 0.95516 0.50718 0.61652 0.0
C730 C 0.86722 0.44931 0.70215 0.0
N731 N 0.88196 0.47115 0.71826 0.0
N732 N 0.88049 0.49261 0.6929 0.0
C733 C 0.8639 0.48542 0.66079 0.0
C734 C 0.85567 0.45759 0.6646 0.0
C735 C 0.86512 0.42091 0.72167 0.0
H736 H 0.85789 0.42317 0.75393 0.0
H737 H 0.88635 0.41108 0.72209 0.0
H738 H 0.85048 0.4069 0.7047 0.0
O739 O 0.88799 0.51349 0.79571 0.0
O740 O 0.88526 0.54794 0.74971 0.0
H741 H 0.85268 0.52706 0.64094 0.0
H742 H 0.83198 0.49928 0.61823 0.0
C743 C 0.85344 0.50534 0.62875 0.0
H744 H 0.86766 0.50417 0.60195 0.0
H745 H 0.87795 0.57924 0.65829 0.0
O746 O 0.89572 0.44863 0.80827 0.0
C747 C 0.88178 0.53885 0.78636 0.0
Co748 Co 0.80748 0.65134 0.01671 0.0
Co749 Co 0.75837 0.6514 0.95442 0.0
C750 C 0.78484 0.70533 0.9889 0.0
O751 O 0.80378 0.69223 1.0088 0.0
O752 O 0.76619 0.69193 0.96861 0.0
C753 C 0.84921 0.66171 0.07893 0.0
O754 O 0.83701 0.68635 0.08333 0.0
C755 C 0.75073 0.66615 0.87091 0.0
C756 C 0.71573 0.63953 0.84912 0.0
C757 C 0.73708 0.65736 0.83564 0.0
N758 N 0.73842 0.65397 0.90361 0.0
N759 N 0.71679 0.6388 0.89062 0.0
C760 C 0.77881 0.6808 0.87242 0.0
H761 H 0.78878 0.67903 0.90299 0.0
H762 H 0.79342 0.6718 0.8492 0.0
H763 H 0.77577 0.7034 0.86504 0.0
C764 C 0.83588 0.61867 0.94922 0.0
N765 N 0.81374 0.63241 0.96625 0.0
N766 N 0.79176 0.63007 0.94197 0.0
C767 C 0.79888 0.61365 0.90971 0.0
C768 C 0.82723 0.60664 0.91224 0.0
C769 C 0.86474 0.61755 0.96777 0.0
H770 H 0.86989 0.63807 0.98219 0.0
H771 H 0.88091 0.61222 0.94434 0.0
H772 H 0.86501 0.60124 0.99217 0.0
O773 O 0.77314 0.63585 0.04602 0.0
O774 O 0.73762 0.63341 1.00134 0.0
H775 H 0.78496 0.58036 0.86974 0.0
H776 H 0.77859 0.61528 0.85175 0.0
C777 C 0.77846 0.60182 0.87936 0.0
H778 H 0.75698 0.60078 0.89268 0.0
H779 H 0.70471 0.62572 0.90945 0.0
O780 O 0.8399 0.6445 0.05233 0.0
C781 C 0.74755 0.62946 0.0375 0.0
Co782 Co 0.63418 0.55365 0.26771 0.0
Co783 Co 0.63372 0.50603 0.20401 0.0
C784 C 0.57983 0.53277 0.23848 0.0
O785 O 0.59313 0.5513 0.25884 0.0
O786 O 0.59316 0.51416 0.21813 0.0
C787 C 0.62895 0.60745 0.31008 0.0
O788 O 0.61167 0.61629 0.28128 0.0
C789 C 0.61818 0.49885 0.12087 0.0
C790 C 0.64419 0.4636 0.09845 0.0
C791 C 0.62632 0.48504 0.08547 0.0
N792 N 0.63075 0.48653 0.15318 0.0
N793 N 0.64553 0.46477 0.13989 0.0
C794 C 0.60374 0.52696 0.12278 0.0
H795 H 0.60683 0.53727 0.15288 0.0
H796 H 0.61187 0.54118 0.09844 0.0
H797 H 0.58079 0.52397 0.1175 0.0
C798 C 0.66904 0.58255 0.20184 0.0
N799 N 0.65435 0.56069 0.218 0.0
N800 N 0.65584 0.53922 0.19266 0.0
C801 C 0.67235 0.54644 0.16047 0.0
C802 C 0.68056 0.57429 0.16426 0.0
C803 C 0.67106 0.61096 0.22133 0.0
H804 H 0.64979 0.6207 0.22188 0.0
H805 H 0.6856 0.62503 0.20427 0.0
H806 H 0.67837 0.60873 0.25356 0.0
O807 O 0.64832 0.51851 0.29565 0.0
O808 O 0.6512 0.48398 0.2498 0.0
H809 H 0.70403 0.53271 0.11743 0.0
H810 H 0.66824 0.52765 0.10171 0.0
C811 C 0.68267 0.52656 0.12829 0.0
H812 H 0.6836 0.50485 0.14049 0.0
H813 H 0.65871 0.45256 0.15842 0.0
O814 O 0.64036 0.58335 0.30783 0.0
C815 C 0.65458 0.49313 0.28643 0.0
Co816 Co 0.30747 0.38087 0.51682 0.0
Co817 Co 0.25834 0.38092 0.45454 0.0
C818 C 0.28476 0.32696 0.48891 0.0
O819 O 0.30373 0.34004 0.50877 0.0
O820 O 0.2661 0.34038 0.46867 0.0
C821 C 0.34907 0.37014 0.57899 0.0
O822 O 0.33663 0.34561 0.58327 0.0
C823 C 0.25058 0.36612 0.3711 0.0
C824 C 0.21564 0.39282 0.34929 0.0
C825 C 0.23692 0.3749 0.33583 0.0
N826 N 0.23834 0.37839 0.40378 0.0
N827 N 0.21675 0.39361 0.39078 0.0
C828 C 0.27861 0.35137 0.37261 0.0
H829 H 0.2887 0.35332 0.40307 0.0
H830 H 0.29318 0.36016 0.34915 0.0
H831 H 0.27546 0.32874 0.3656 0.0
C832 C 0.33589 0.41354 0.44936 0.0
N833 N 0.31372 0.39987 0.46641 0.0
N834 N 0.29175 0.40221 0.4421 0.0
C835 C 0.29892 0.41857 0.40979 0.0
C836 C 0.32728 0.42553 0.41233 0.0
C837 C 0.36476 0.41457 0.46789 0.0
H838 H 0.36987 0.39401 0.48225 0.0
H839 H 0.38094 0.41991 0.44447 0.0
H840 H 0.36507 0.43084 0.49235 0.0
O841 O 0.27314 0.39626 0.54622 0.0
O842 O 0.23762 0.39881 0.50153 0.0
H843 H 0.2851 0.45176 0.36954 0.0
H844 H 0.27866 0.4168 0.3518 0.0
C845 C 0.27855 0.43035 0.37931 0.0
H846 H 0.25707 0.43148 0.39259 0.0
H847 H 0.20472 0.40675 0.4096 0.0
O848 O 0.33993 0.3875 0.55246 0.0
C849 C 0.24754 0.40264 0.53772 0.0
Co850 Co 0.40273 0.55345 0.26775 0.0
Co851 Co 0.40326 0.50582 0.20398 0.0
C852 C 0.45711 0.53257 0.23874 0.0
O853 O 0.4438 0.55106 0.25919 0.0
O854 O 0.4438 0.514 0.21827 0.0
C855 C 0.40726 0.6072 0.31102 0.0
O856 O 0.42484 0.61645 0.28289 0.0
C857 C 0.41865 0.4987 0.12066 0.0
C858 C 0.39262 0.46343 0.09844 0.0
C859 C 0.41036 0.48491 0.0853 0.0
N860 N 0.40625 0.48634 0.15308 0.0
N861 N 0.39145 0.46456 0.13989 0.0
C862 C 0.43303 0.52685 0.12247 0.0
H863 H 0.43041 0.53695 0.15281 0.0
H864 H 0.42442 0.54118 0.09861 0.0
H865 H 0.45589 0.52399 0.11629 0.0
C866 C 0.36856 0.58257 0.20135 0.0
N867 N 0.38288 0.56057 0.2178 0.0
N868 N 0.38127 0.53906 0.19258 0.0
C869 C 0.36496 0.54636 0.16022 0.0
C870 C 0.35713 0.57433 0.1637 0.0
C871 C 0.36685 0.61107 0.2206 0.0
H872 H 0.35899 0.60908 0.2526 0.0
H873 H 0.38831 0.62034 0.22179 0.0
H874 H 0.35288 0.6254 0.20301 0.0
O875 O 0.3884 0.51827 0.29547 0.0
O876 O 0.38559 0.48375 0.24963 0.0
H877 H 0.35343 0.50475 0.14057 0.0
H878 H 0.33291 0.53265 0.1178 0.0
C879 C 0.35433 0.52645 0.1283 0.0
H880 H 0.36853 0.52748 0.10146 0.0
H881 H 0.37837 0.45233 0.15853 0.0
O882 O 0.39613 0.58301 0.30801 0.0
C883 C 0.3821 0.49292 0.28622 0.0
Co884 Co 0.22961 0.65027 0.01809 0.0
Co885 Co 0.27755 0.6505 0.95442 0.0
C886 C 0.25098 0.70436 0.98922 0.0
O887 O 0.23233 0.69116 0.00958 0.0
O888 O 0.26958 0.69101 0.96875 0.0
C889 C 0.17563 0.65514 0.06112 0.0
O890 O 0.16649 0.6726 0.03282 0.0
C891 C 0.28375 0.6657 0.87083 0.0
C892 C 0.31888 0.63976 0.84773 0.0
C893 C 0.29713 0.65739 0.83511 0.0
N894 N 0.29661 0.65344 0.90299 0.0
N895 N 0.3183 0.63869 0.88923 0.0
C896 C 0.25552 0.68 0.87329 0.0
H897 H 0.24581 0.6776 0.90396 0.0
H898 H 0.24084 0.67125 0.84997 0.0
H899 H 0.25827 0.70275 0.86669 0.0
C900 C 0.20032 0.61634 0.95168 0.0
N901 N 0.22239 0.63055 0.96822 0.0
N902 N 0.24412 0.62864 0.94328 0.0
C903 C 0.23689 0.61221 0.91109 0.0
C904 C 0.20874 0.60466 0.9143 0.0
C905 C 0.1716 0.61488 0.97065 0.0
H906 H 0.17339 0.60716 1.00272 0.0
H907 H 0.16242 0.63632 0.97158 0.0
H908 H 0.15723 0.60098 0.95301 0.0
O909 O 0.26479 0.63564 0.04567 0.0
O910 O 0.29971 0.63282 1.00023 0.0
H911 H 0.27872 0.60022 0.89244 0.0
H912 H 0.25076 0.57961 0.86987 0.0
C913 C 0.25704 0.60106 0.87981 0.0
H914 H 0.25628 0.61482 0.85252 0.0
H915 H 0.33083 0.62569 0.90756 0.0
O916 O 0.19986 0.64393 0.0583 0.0
C917 C 0.29027 0.62925 0.03672 0.0
Co918 Co 0.13361 0.47743 0.76796 0.0
Co919 Co 0.13345 0.52522 0.70443 0.0
C920 C 0.07936 0.49853 0.73864 0.0
O921 O 0.09258 0.47993 0.75899 0.0
O922 O 0.09279 0.51715 0.71841 0.0
C923 C 0.12842 0.42354 0.81027 0.0
O924 O 0.11127 0.41461 0.78137 0.0
C925 C 0.11824 0.53154 0.62094 0.0
C926 C 0.1442 0.56664 0.59792 0.0
C927 C 0.1265 0.54497 0.58527 0.0
N928 N 0.13057 0.5443 0.65311 0.0
N929 N 0.14533 0.56596 0.63941 0.0
C930 C 0.1039 0.50341 0.62333 0.0
H931 H 0.10672 0.49348 0.65376 0.0
H932 H 0.11235 0.48893 0.59954 0.0
H933 H 0.08099 0.50622 0.61747 0.0
C934 C 0.16853 0.44858 0.70211 0.0
N935 N 0.15385 0.47041 0.71837 0.0
N936 N 0.15563 0.49204 0.69337 0.0
C937 C 0.17239 0.48499 0.66139 0.0
C938 C 0.18037 0.45706 0.66485 0.0
C939 C 0.17031 0.42004 0.72124 0.0
H940 H 0.1775 0.42203 0.75355 0.0
H941 H 0.14899 0.41042 0.72147 0.0
H942 H 0.18486 0.40601 0.70412 0.0
O943 O 0.14796 0.5125 0.79587 0.0
O944 O 0.15089 0.5473 0.75045 0.0
H945 H 0.18407 0.52671 0.64251 0.0
H946 H 0.20479 0.49897 0.61971 0.0
C947 C 0.18328 0.5051 0.62991 0.0
H948 H 0.16932 0.50426 0.60281 0.0
H949 H 0.15838 0.57843 0.65776 0.0
O950 O 0.13971 0.4477 0.80808 0.0
C951 C 0.1543 0.53791 0.78698 0.0
Co952 Co 0.30631 0.65038 0.50171 0.0
Co953 Co 0.25745 0.65079 0.56449 0.0
C954 C 0.2841 0.70448 0.52969 0.0
O955 O 0.3029 0.69129 0.50963 0.0
O956 O 0.26546 0.69118 0.55013 0.0
C957 C 0.34843 0.66075 0.43988 0.0
O958 O 0.33673 0.68567 0.43599 0.0
C959 C 0.24949 0.66595 0.64776 0.0
C960 C 0.2144 0.63944 0.66954 0.0
C961 C 0.23565 0.65739 0.68299 0.0
N962 N 0.23738 0.65354 0.61512 0.0
N963 N 0.2157 0.63844 0.62808 0.0
C964 C 0.27757 0.68063 0.64633 0.0
H965 H 0.28783 0.6784 0.61601 0.0
H966 H 0.29199 0.67202 0.67011 0.0
H967 H 0.27442 0.70332 0.65289 0.0
C968 C 0.33479 0.6177 0.56914 0.0
N969 N 0.31262 0.63146 0.55223 0.0
N970 N 0.29079 0.6294 0.57687 0.0
C971 C 0.29803 0.61318 0.60929 0.0
C972 C 0.32632 0.60597 0.60643 0.0
C973 C 0.36354 0.61639 0.55027 0.0
H974 H 0.36876 0.63689 0.5358 0.0
H975 H 0.37981 0.61094 0.5735 0.0
H976 H 0.36358 0.60011 0.52583 0.0
O977 O 0.27174 0.63521 0.47259 0.0
O978 O 0.23654 0.63287 0.51784 0.0
H979 H 0.28427 0.58051 0.6505 0.0
H980 H 0.27814 0.61571 0.66747 0.0
C981 C 0.27779 0.60185 0.64031 0.0
H982 H 0.25622 0.6007 0.62734 0.0
H983 H 0.20371 0.62525 0.60929 0.0
O984 O 0.33864 0.64339 0.46592 0.0
C985 C 0.24618 0.62897 0.48153 0.0
Co986 Co 0.13248 0.5548 0.25185 0.0
Co987 Co 0.1321 0.50609 0.31449 0.0
C988 C 0.07815 0.53288 0.2803 0.0
O989 O 0.09139 0.55159 0.2602 0.0
O990 O 0.09151 0.51423 0.30055 0.0
C991 C 0.12193 0.59661 0.18995 0.0
O992 O 0.09705 0.58471 0.18596 0.0
C993 C 0.11719 0.49805 0.3978 0.0
C994 C 0.1437 0.46288 0.41919 0.0
C995 C 0.12584 0.48412 0.43288 0.0
N996 N 0.12947 0.48599 0.36501 0.0
N997 N 0.14457 0.46428 0.37773 0.0
C998 C 0.1026 0.5261 0.39661 0.0
H999 H 0.10483 0.5364 0.36635 0.0
H1000 H 0.11136 0.54036 0.42044 0.0
H1001 H 0.07982 0.52305 0.40326 0.0
C1002 C 0.16613 0.58285 0.31877 0.0
N1003 N 0.15188 0.56093 0.30213 0.0
N1004 N 0.15384 0.53917 0.32677 0.0
C1005 C 0.17044 0.54621 0.35893 0.0
C1006 C 0.17808 0.57428 0.35588 0.0
C1007 C 0.16773 0.61145 0.29979 0.0
H1008 H 0.18374 0.61116 0.27489 0.0
H1009 H 0.14707 0.61702 0.28591 0.0
H1010 H 0.17381 0.62758 0.32282 0.0
O1011 O 0.14744 0.52033 0.22242 0.0
O1012 O 0.14981 0.48524 0.26766 0.0
H1013 H 0.18261 0.50445 0.37698 0.0
H1014 H 0.20313 0.53221 0.40012 0.0
C1015 C 0.18166 0.52595 0.38995 0.0
H1016 H 0.16775 0.52641 0.41714 0.0
H1017 H 0.15768 0.45232 0.35876 0.0
O1018 O 0.13939 0.58705 0.21608 0.0
C1019 C 0.15364 0.49484 0.23132 0.0
Co1020 Co 0.22767 0.38108 1.00186 0.0
Co1021 Co 0.2767 0.38105 0.06423 0.0
C1022 C 0.25011 0.32707 0.03024 0.0
O1023 O 0.2312 0.34019 0.01029 0.0
O1024 O 0.26881 0.34048 0.05038 0.0
C1025 C 0.18614 0.37011 0.93976 0.0
O1026 O 0.19867 0.34561 0.93564 0.0
C1027 C 0.28415 0.36631 0.14771 0.0
C1028 C 0.31919 0.39279 0.16972 0.0
C1029 C 0.29778 0.37498 0.18304 0.0
N1030 N 0.29655 0.37851 0.1151 0.0
N1031 N 0.31819 0.39361 0.12822 0.0
C1032 C 0.25604 0.35171 0.14605 0.0
H1033 H 0.24595 0.35388 0.11562 0.0
H1034 H 0.24152 0.36044 0.16961 0.0
H1035 H 0.25909 0.32903 0.1528 0.0
C1036 C 0.19947 0.41463 0.06871 0.0
N1037 N 0.22147 0.40045 0.05202 0.0
N1038 N 0.24341 0.40265 0.07641 0.0
C1039 C 0.23641 0.41936 0.10841 0.0
C1040 C 0.20818 0.42679 0.10557 0.0
C1041 C 0.1707 0.41603 0.04995 0.0
H1042 H 0.16518 0.3954 0.03617 0.0
H1043 H 0.15456 0.42205 0.07308 0.0
H1044 H 0.17082 0.43195 0.02499 0.0
O1045 O 0.26208 0.3963 0.9724 0.0
O1046 O 0.29756 0.39875 0.01718 0.0
H1047 H 0.25051 0.45241 0.14873 0.0
H1048 H 0.25664 0.41736 0.16642 0.0
C1049 C 0.25686 0.43094 0.13893 0.0
H1050 H 0.27836 0.43189 0.12566 0.0
H1051 H 0.33035 0.40668 0.10947 0.0
O1052 O 0.19522 0.3876 0.96614 0.0
C1053 C 0.28769 0.4026 0.98096 0.0
Co1054 Co 0.40159 0.47786 0.75083 0.0
Co1055 Co 0.40219 0.52542 0.81465 0.0
C1056 C 0.45603 0.49855 0.78014 0.0
O1057 O 0.44267 0.4801 0.75969 0.0
O1058 O 0.44274 0.51718 0.80052 0.0
C1059 C 0.40655 0.42403 0.70843 0.0
O1060 O 0.42373 0.41508 0.73728 0.0
C1061 C 0.41777 0.53232 0.89785 0.0
C1062 C 0.39191 0.5676 0.9205 0.0
C1063 C 0.4097 0.54607 0.93334 0.0
N1064 N 0.40524 0.54478 0.86561 0.0
N1065 N 0.39054 0.56655 0.87905 0.0
C1066 C 0.43212 0.50417 0.89578 0.0
H1067 H 0.42897 0.49394 0.86564 0.0
H1068 H 0.42397 0.48993 0.92008 0.0
H1069 H 0.45509 0.50708 0.90102 0.0
C1070 C 0.36661 0.44901 0.81665 0.0
N1071 N 0.3814 0.47082 0.80054 0.0
N1072 N 0.37997 0.49228 0.82589 0.0
C1073 C 0.36338 0.48512 0.85803 0.0
C1074 C 0.35507 0.45731 0.85421 0.0
C1075 C 0.36445 0.42062 0.79712 0.0
H1076 H 0.35723 0.42291 0.76487 0.0
H1077 H 0.38566 0.41076 0.79668 0.0
H1078 H 0.34978 0.40664 0.8141 0.0
O1079 O 0.38742 0.51307 0.72301 0.0
O1080 O 0.3847 0.54757 0.76892 0.0
H1081 H 0.35221 0.52675 0.87792 0.0
H1082 H 0.33168 0.49897 0.90096 0.0
C1083 C 0.35307 0.50505 0.89015 0.0
H1084 H 0.36746 0.50394 0.91677 0.0
H1085 H 0.37739 0.57885 0.8606 0.0
O1086 O 0.3953 0.44821 0.71065 0.0
C1087 C 0.38121 0.53844 0.73229 0.0
C1088 C 0.1807 0.08036 0.20908 0.0
C1089 C 0.16668 0.05524 0.19885 0.0
H1090 H 0.20476 0.11568 0.18755 0.0
C1091 C 0.16503 0.04757 0.157 0.0
H1092 H 0.18244 0.08699 0.24083 0.0
C1093 C 0.17754 0.06428 0.12636 0.0
C1094 C 0.19232 0.08882 0.13692 0.0
H1095 H 0.15427 0.02845 0.14788 0.0
H1096 H 0.1765 0.05751 0.09461 0.0
C1097 C 0.19353 0.0968 0.17854 0.0
C1098 C 0.2197 0.92613 0.37678 0.0
C1099 C 0.19502 0.94077 0.38728 0.0
H1100 H 0.25553 0.90277 0.39832 0.0
C1101 C 0.18676 0.94164 0.42883 0.0
H1102 H 0.22669 0.92534 0.3451 0.0
C1103 C 0.20309 0.92863 0.45935 0.0
C1104 C 0.22836 0.91473 0.44918 0.0
H1105 H 0.16774 0.95274 0.4378 0.0
H1106 H 0.19625 0.9301 0.49105 0.0
C1107 C 0.2363 0.91341 0.4074 0.0
C1108 C 0.34184 0.9331 0.6799 0.0
C1109 C 0.34313 0.94108 0.63826 0.0
H1110 H 0.35298 0.94287 0.74223 0.0
C1111 C 0.35827 0.96538 0.62768 0.0
H1112 H 0.33037 0.91437 0.68893 0.0
C1113 C 0.37098 0.98193 0.65827 0.0
C1114 C 0.36916 0.97436 0.70015 0.0
H1115 H 0.35941 0.97214 0.59592 0.0
H1116 H 0.38195 1.00092 0.64909 0.0
C1117 C 0.35484 0.94941 0.71045 0.0
C1118 C 0.34862 0.09144 0.92678 0.0
C1119 C 0.33932 0.09092 0.88568 0.0
H1120 H 0.34011 0.104 0.98891 0.0
C1121 C 0.31361 0.10398 0.87593 0.0
H1122 H 0.36833 0.08141 0.93522 0.0
C1123 C 0.29724 0.11671 0.90678 0.0
C1124 C 0.30627 0.11687 0.94814 0.0
H1125 H 0.3057 0.1035 0.8447 0.0
H1126 H 0.27727 0.12614 0.89821 0.0
C1127 C 0.33242 0.10438 0.95756 0.0
C1128 C 0.19231 0.9332 0.84153 0.0
C1129 C 0.19198 0.94211 0.88281 0.0
H1130 H 0.18052 0.942 0.77912 0.0
C1131 C 0.17812 0.9673 0.89262 0.0
H1132 H 0.20296 0.91387 0.83307 0.0
C1133 C 0.16547 0.98359 0.86166 0.0
C1134 C 0.16622 0.975 0.82012 0.0
H1135 H 0.17793 0.97492 0.92399 0.0
H1136 H 0.15545 1.0032 0.8703 0.0
C1137 C 0.17944 0.94931 0.81061 0.0
C1138 C 0.29933 0.91377 0.11119 0.0
C1139 C 0.30824 0.91413 0.06976 0.0
H1140 H 0.30761 0.92672 0.17339 0.0
C1141 C 0.3341 0.92719 0.06036 0.0
H1142 H 0.27958 0.90388 0.11974 0.0
C1143 C 0.35008 0.94026 0.09129 0.0
C1144 C 0.34084 0.94031 0.13243 0.0
H1145 H 0.34166 0.92798 0.02897 0.0
H1146 H 0.36957 0.95075 0.08291 0.0
C1147 C 0.31547 0.92662 0.14212 0.0
C1148 C 0.34158 0.09815 0.33959 0.0
C1149 C 0.34318 0.09024 0.38123 0.0
H1150 H 0.35243 0.08839 0.27715 0.0
C1151 C 0.35855 0.06605 0.39169 0.0
H1152 H 0.32993 0.1168 0.33066 0.0
C1153 C 0.37118 0.04955 0.36098 0.0
C1154 C 0.36907 0.05707 0.31911 0.0
H1155 H 0.35992 0.05935 0.42345 0.0
H1156 H 0.38234 0.03065 0.37006 0.0
C1157 C 0.35452 0.08191 0.30893 0.0
C1158 C 0.22169 0.10424 0.64343 0.0
C1159 C 0.1961 0.09092 0.63376 0.0
H1160 H 0.25788 0.12656 0.62095 0.0
C1161 C 0.18687 0.09109 0.59263 0.0
H1162 H 0.22954 0.10403 0.67469 0.0
C1163 C 0.203 0.10398 0.56172 0.0
C1164 C 0.22903 0.11672 0.57106 0.0
H1165 H 0.16725 0.08085 0.58426 0.0
H1166 H 0.19536 0.10334 0.53036 0.0
C1167 C 0.238 0.1169 0.61245 0.0
C1168 C 0.87007 0.98414 0.8615 0.0
C1169 C 0.86937 0.97545 0.82001 0.0
H1170 H 0.8575 0.97563 0.92384 0.0
C1171 C 0.85613 0.94976 0.81057 0.0
H1172 H 0.88011 1.00375 0.87007 0.0
C1173 C 0.84319 0.93373 0.84154 0.0
C1174 C 0.84346 0.94275 0.88277 0.0
H1175 H 0.85508 0.94237 0.77912 0.0
H1176 H 0.83252 0.9144 0.83314 0.0
C1177 C 0.85735 0.96794 0.89249 0.0
C1178 C 0.83242 0.10394 0.56145 0.0
C1179 C 0.8064 0.11668 0.57087 0.0
H1180 H 0.86824 0.08089 0.5839 0.0
C1181 C 0.7975 0.11691 0.6123 0.0
H1182 H 0.84001 0.10327 0.53006 0.0
C1183 C 0.81389 0.10431 0.64324 0.0
C1184 C 0.83947 0.09101 0.6335 0.0
H1185 H 0.77763 0.12656 0.62085 0.0
H1186 H 0.8061 0.10414 0.67454 0.0
C1187 C 0.84863 0.09112 0.59233 0.0
C1188 C 0.69348 0.09837 0.3396 0.0
C1189 C 0.69189 0.09044 0.38124 0.0
H1190 H 0.68255 0.08868 0.27717 0.0
C1191 C 0.67647 0.06629 0.3917 0.0
H1192 H 0.70518 0.11699 0.33067 0.0
C1193 C 0.66376 0.04985 0.361 0.0
C1194 C 0.66586 0.05738 0.31913 0.0
H1195 H 0.67511 0.05957 0.42346 0.0
H1196 H 0.65256 0.03097 0.37008 0.0
C1197 C 0.68046 0.08218 0.30895 0.0
C1198 C 0.70112 0.92784 0.06044 0.0
C1199 C 0.72701 0.91485 0.06982 0.0
H1200 H 0.66557 0.95126 0.08303 0.0
C1201 C 0.73589 0.91443 0.11125 0.0
H1202 H 0.69357 0.92866 0.02903 0.0
C1203 C 0.71969 0.92718 0.14222 0.0
C1204 C 0.69429 0.94081 0.13254 0.0
H1205 H 0.75567 0.90458 0.11979 0.0
H1206 H 0.72753 0.92725 0.17349 0.0
C1207 C 0.68507 0.9408 0.09139 0.0
C1208 C 0.85795 0.06362 0.12632 0.0
C1209 C 0.84313 0.08815 0.13681 0.0
H1210 H 0.88127 0.02786 0.14793 0.0
C1211 C 0.84194 0.09621 0.1784 0.0
H1212 H 0.85897 0.0568 0.09459 0.0
C1213 C 0.8548 0.07984 0.20898 0.0
C1214 C 0.86886 0.05472 0.19881 0.0
H1215 H 0.83068 0.11509 0.18737 0.0
H1216 H 0.85308 0.08652 0.24071 0.0
C1217 C 0.8705 0.04698 0.15699 0.0
C1218 C 0.68659 0.09073 0.92661 0.0
C1219 C 0.69587 0.09027 0.88551 0.0
H1220 H 0.69513 0.10316 0.98878 0.0
C1221 C 0.72162 0.10327 0.87577 0.0
H1222 H 0.66684 0.08075 0.93503 0.0
C1223 C 0.73803 0.11589 0.90666 0.0
C1224 C 0.72901 0.11599 0.94803 0.0
H1225 H 0.72952 0.10283 0.84454 0.0
H1226 H 0.75802 0.12529 0.89811 0.0
C1227 C 0.70282 0.10357 0.95743 0.0
C1228 C 0.68018 0.94902 0.71036 0.0
C1229 C 0.66584 0.97396 0.70006 0.0
H1230 H 0.70475 0.91404 0.68885 0.0
C1231 C 0.66408 0.98156 0.65819 0.0
H1232 H 0.68201 0.94247 0.74213 0.0
C1233 C 0.67687 0.96506 0.6276 0.0
C1234 C 0.69203 0.94077 0.63819 0.0
H1235 H 0.6531 1.00054 0.64901 0.0
H1236 H 0.67577 0.97185 0.59586 0.0
C1237 C 0.69327 0.93277 0.67982 0.0
C1238 C 0.79923 0.91316 0.40745 0.0
C1239 C 0.8071 0.91447 0.44926 0.0
H1240 H 0.80894 0.92506 0.34517 0.0
C1241 C 0.83236 0.92837 0.45949 0.0
H1242 H 0.78 0.90252 0.39832 0.0
C1243 C 0.84874 0.94137 0.42901 0.0
C1244 C 0.84056 0.94049 0.38744 0.0
H1245 H 0.83915 0.92984 0.49121 0.0
H1246 H 0.86775 0.95246 0.43803 0.0
C1247 C 0.81588 0.92585 0.37688 0.0
C1248 C 0.66352 0.54911 0.65794 0.0
C1249 C 0.6656 0.55661 0.69982 0.0
H1250 H 0.67483 0.55894 0.59549 0.0
C1251 C 0.68012 0.58145 0.71003 0.0
H1252 H 0.65239 0.5302 0.64884 0.0
C1253 C 0.69308 0.59772 0.6794 0.0
C1254 C 0.69151 0.58982 0.63775 0.0
H1255 H 0.6822 0.58792 0.74181 0.0
H1256 H 0.70472 0.61636 0.68836 0.0
C1257 C 0.67617 0.56564 0.62725 0.0
C1258 C 0.72132 0.42716 0.87592 0.0
C1259 C 0.69564 0.44025 0.88569 0.0
H1260 H 0.75763 0.40493 0.89817 0.0
C1261 C 0.68637 0.43977 0.9268 0.0
H1262 H 0.72921 0.4276 0.84467 0.0
C1263 C 0.70255 0.4268 0.95758 0.0
C1264 C 0.72867 0.41426 0.94813 0.0
H1265 H 0.66667 0.44982 0.93527 0.0
H1266 H 0.69487 0.42719 0.98894 0.0
C1267 C 0.73769 0.4144 0.90676 0.0
C1268 C 0.87102 0.48138 0.15769 0.0
C1269 C 0.86889 0.47388 0.19957 0.0
H1270 H 0.8598 0.47153 0.09523 0.0
C1271 C 0.85439 0.44902 0.20977 0.0
H1272 H 0.88214 0.50029 0.1486 0.0
C1273 C 0.8415 0.43274 0.17912 0.0
C1274 C 0.8431 0.44064 0.13747 0.0
H1275 H 0.85229 0.44255 0.24155 0.0
H1276 H 0.82986 0.41408 0.18806 0.0
C1277 C 0.85843 0.46483 0.12699 0.0
C1278 C 0.79665 0.61602 0.40666 0.0
C1279 C 0.80574 0.61611 0.44799 0.0
H1280 H 0.80502 0.6029 0.34452 0.0
C1281 C 0.83191 0.60362 0.4573 0.0
H1282 H 0.77667 0.62548 0.39818 0.0
C1283 C 0.84805 0.59071 0.42643 0.0
C1284 C 0.83869 0.59026 0.38537 0.0
H1285 H 0.83965 0.6032 0.48862 0.0
H1286 H 0.86778 0.58068 0.43478 0.0
C1287 C 0.81297 0.60333 0.37573 0.0
C1288 C 0.68103 0.44967 0.30894 0.0
C1289 C 0.66654 0.47453 0.31908 0.0
H1290 H 0.70557 0.41475 0.33074 0.0
C1291 C 0.6644 0.48207 0.36094 0.0
H1292 H 0.68314 0.44317 0.27718 0.0
C1293 C 0.67699 0.46556 0.39169 0.0
C1294 C 0.69233 0.44135 0.38126 0.0
H1295 H 0.65328 0.501 0.36998 0.0
H1296 H 0.67562 0.47229 0.42343 0.0
C1297 C 0.69393 0.43341 0.33964 0.0
C1298 C 0.84901 0.44057 0.59221 0.0
C1299 C 0.8397 0.44105 0.6333 0.0
H1300 H 0.84055 0.42804 0.53005 0.0
C1301 C 0.81399 0.42798 0.64302 0.0
H1302 H 0.86873 0.45061 0.5838 0.0
C1303 C 0.79764 0.41526 0.61214 0.0
C1304 C 0.8067 0.41513 0.57078 0.0
H1305 H 0.80606 0.42842 0.67425 0.0
H1306 H 0.77768 0.4058 0.62069 0.0
C1307 C 0.83284 0.42764 0.56139 0.0
C1308 C 0.87178 0.55007 0.86079 0.0
C1309 C 0.86972 0.55751 0.81889 0.0
H1310 H 0.86044 0.55996 0.9232 0.0
C1311 C 0.85516 0.58231 0.80858 0.0
H1312 H 0.88294 0.53119 0.86997 0.0
C1313 C 0.84217 0.59861 0.83916 0.0
C1314 C 0.84373 0.59078 0.88084 0.0
H1315 H 0.8531 0.58874 0.77678 0.0
H1316 H 0.83051 0.61723 0.83013 0.0
C1317 C 0.8591 0.56662 0.89142 0.0
C1318 C 0.72219 0.60398 0.14269 0.0
C1319 C 0.69651 0.59087 0.13297 0.0
H1320 H 0.75846 0.62625 0.12037 0.0
C1321 C 0.68719 0.59137 0.09188 0.0
H1322 H 0.73012 0.60352 0.17391 0.0
C1323 C 0.70333 0.60437 0.06108 0.0
C1324 C 0.72946 0.61692 0.07047 0.0
H1325 H 0.66749 0.58131 0.08346 0.0
H1326 H 0.69562 0.60399 0.02975 0.0
C1327 C 0.73852 0.61676 0.11183 0.0
C1328 C 0.35535 0.44957 0.30861 0.0
C1329 C 0.36995 0.47437 0.31881 0.0
H1330 H 0.33061 0.41475 0.33028 0.0
C1331 C 0.37199 0.4819 0.36068 0.0
H1332 H 0.35331 0.44308 0.27683 0.0
C1333 C 0.35924 0.46544 0.39137 0.0
C1334 C 0.34383 0.44129 0.38088 0.0
H1335 H 0.38318 0.50077 0.36979 0.0
H1336 H 0.36057 0.47216 0.42312 0.0
C1337 C 0.34229 0.43337 0.33924 0.0
C1338 C 0.35055 0.591 0.09106 0.0
C1339 C 0.3414 0.59095 0.13224 0.0
H1340 H 0.34198 0.60322 0.02875 0.0
C1341 C 0.31599 0.60456 0.142 0.0
H1342 H 0.37006 0.58056 0.08262 0.0
C1343 C 0.29975 0.61734 0.1111 0.0
C1344 C 0.30858 0.61699 0.06964 0.0
H1345 H 0.30819 0.60446 0.1733 0.0
H1346 H 0.27999 0.62718 0.11971 0.0
C1347 C 0.33447 0.604 0.06017 0.0
C1348 C 0.17832 0.56377 0.89248 0.0
C1349 C 0.19216 0.58899 0.88276 0.0
H1350 H 0.15565 0.52791 0.87006 0.0
C1351 C 0.19245 0.598 0.84152 0.0
H1352 H 0.17816 0.55609 0.92383 0.0
C1353 C 0.17957 0.58194 0.81054 0.0
C1354 C 0.16637 0.55622 0.81998 0.0
H1355 H 0.20308 0.61736 0.83311 0.0
H1356 H 0.18062 0.58933 0.77908 0.0
C1357 C 0.16566 0.54754 0.86148 0.0
C1358 C 0.22195 0.42736 0.64315 0.0
C1359 C 0.19635 0.44064 0.63345 0.0
H1360 H 0.25822 0.40514 0.6207 0.0
C1361 C 0.18717 0.44052 0.5923 0.0
H1362 H 0.22976 0.42753 0.67444 0.0
C1363 C 0.20336 0.42771 0.5614 0.0
C1364 C 0.22941 0.415 0.57077 0.0
H1365 H 0.16754 0.45073 0.58391 0.0
H1366 H 0.19576 0.42838 0.53002 0.0
C1367 C 0.23833 0.41478 0.61218 0.0
C1368 C 0.37088 0.5494 0.65788 0.0
C1369 C 0.3691 0.55704 0.69973 0.0
H1370 H 0.35921 0.55907 0.59552 0.0
C1371 C 0.35476 0.58199 0.70997 0.0
H1372 H 0.38186 0.53042 0.64874 0.0
C1373 C 0.34169 0.59823 0.67939 0.0
C1374 C 0.34294 0.59018 0.63778 0.0
H1375 H 0.35293 0.58857 0.74173 0.0
H1376 H 0.33021 0.61696 0.68838 0.0
C1377 C 0.35811 0.56589 0.62725 0.0
C1378 C 0.20247 0.60271 0.45916 0.0
C1379 C 0.22773 0.6166 0.44892 0.0
H1380 H 0.16706 0.57866 0.4377 0.0
C1381 C 0.23558 0.61797 0.4071 0.0
H1382 H 0.1957 0.60119 0.49089 0.0
C1383 C 0.2189 0.60533 0.37652 0.0
C1384 C 0.19422 0.59069 0.38709 0.0
H1385 H 0.2548 0.62862 0.39796 0.0
H1386 H 0.22581 0.60617 0.3448 0.0
C1387 C 0.18606 0.58976 0.42867 0.0
C1388 C 0.16435 0.4841 0.15683 0.0
C1389 C 0.16594 0.47641 0.19868 0.0
H1390 H 0.17595 0.47422 0.09447 0.0
C1391 C 0.18001 0.45131 0.20894 0.0
H1392 H 0.15357 0.5032 0.14768 0.0
C1393 C 0.19294 0.43492 0.17843 0.0
C1394 C 0.19178 0.44292 0.13681 0.0
H1395 H 0.18171 0.44466 0.24069 0.0
H1396 H 0.20419 0.41606 0.18747 0.0
C1397 C 0.17696 0.46743 0.12622 0.0
C1398 C 0.33207 0.4274 0.95738 0.0
C1399 C 0.30589 0.41499 0.94797 0.0
H1400 H 0.36805 0.45025 0.93502 0.0
C1401 C 0.29686 0.41514 0.9066 0.0
H1402 H 0.33976 0.42777 0.98872 0.0
C1403 C 0.31328 0.42781 0.87573 0.0
C1404 C 0.33903 0.4408 0.88548 0.0
H1405 H 0.27687 0.40576 0.89804 0.0
H1406 H 0.30538 0.42829 0.8445 0.0
C1407 C 0.34831 0.44028 0.92658 0.0
C1408 C 0.25838 0.13174 0.27673 0.0
C1409 C 0.25001 0.1572 0.29489 0.0
H1410 H 0.28246 0.11179 0.22927 0.0
C1411 C 0.25886 0.18269 0.27728 0.0
H1412 H 0.25207 0.11178 0.28994 0.0
C1413 C 0.27566 0.18269 0.24192 0.0
C1414 C 0.28454 0.1572 0.22434 0.0
H1415 H 0.25299 0.20257 0.29114 0.0
H1416 H 0.28154 0.20257 0.22805 0.0
C1417 C 0.27614 0.13174 0.24247 0.0
C1418 C 0.15184 0.02608 0.49236 0.0
C1419 C 0.12627 0.03447 0.4743 0.0
H1420 H 0.17186 1.00199 0.5397 0.0
C1421 C 0.10069 0.02572 0.49197 0.0
H1422 H 0.17186 0.03229 0.47905 0.0
C1423 C 0.10069 1.00891 0.52724 0.0
C1424 C 0.12628 0.99994 0.54463 0.0
H1425 H 0.08073 0.03161 0.47813 0.0
H1426 H 0.08075 1.00305 0.54114 0.0
C1427 C 0.15184 1.00834 0.52656 0.0
C1428 C 0.25717 0.89897 0.7424 0.0
C1429 C 0.24873 0.87351 0.72434 0.0
H1430 H 0.28149 0.91892 0.78956 0.0
C1431 C 0.25754 0.84801 0.74196 0.0
H1432 H 0.25089 0.91893 0.72915 0.0
C1433 C 0.27447 0.848 0.77716 0.0
C1434 C 0.28352 0.8735 0.79452 0.0
H1435 H 0.2516 0.82813 0.72814 0.0
H1436 H 0.28037 0.82813 0.79103 0.0
C1437 C 0.27506 0.89897 0.77647 0.0
C1438 C 0.43542 1.00761 0.99206 0.0
C1439 C 0.40982 0.99871 0.97465 0.0
H1440 H 0.45539 0.03042 0.04104 0.0
C1441 C 0.38427 1.0072 0.99262 0.0
H1442 H 0.45536 1.00168 0.9782 0.0
C1443 C 0.38428 0.02505 0.02665 0.0
C1444 C 0.40985 0.03346 0.04465 0.0
H1445 H 0.36424 1.00091 0.97942 0.0
H1446 H 0.36427 0.03137 0.03987 0.0
C1447 C 0.43544 0.02454 0.02719 0.0
C1448 C 0.77762 0.84817 0.74213 0.0
C1449 C 0.78655 0.87358 0.72436 0.0
H1450 H 0.7547 0.82853 0.79133 0.0
C1451 C 0.77826 0.89913 0.74231 0.0
H1452 H 0.78346 0.82823 0.72841 0.0
C1453 C 0.76037 0.8993 0.7764 0.0
C1454 C 0.75178 0.87392 0.79457 0.0
H1455 H 0.78463 0.91902 0.72895 0.0
H1456 H 0.75405 0.91932 0.78939 0.0
C1457 C 0.7607 0.84834 0.77735 0.0
C1458 C 0.88375 0.02605 0.49231 0.0
C1459 C 0.90929 0.03449 0.47423 0.0
H1460 H 0.86377 1.00194 0.53966 0.0
C1461 C 0.9349 0.02579 0.49188 0.0
H1462 H 0.86371 0.03222 0.479 0.0
C1463 C 0.93492 1.00898 0.52715 0.0
C1464 C 0.90935 0.99997 0.54455 0.0
H1465 H 0.95484 0.03171 0.47802 0.0
H1466 H 0.95488 1.00316 0.54104 0.0
C1467 C 0.88378 1.00832 0.5265 0.0
C1468 C 0.77627 0.1822 0.27704 0.0
C1469 C 0.78524 0.15678 0.29475 0.0
H1470 H 0.7535 0.20188 0.22774 0.0
C1471 C 0.77699 0.13125 0.2767 0.0
H1472 H 0.78207 0.20213 0.2908 0.0
C1473 C 0.75923 0.1311 0.24244 0.0
C1474 C 0.75071 0.15649 0.22423 0.0
H1475 H 0.78339 0.11134 0.28999 0.0
H1476 H 0.75301 0.11109 0.22933 0.0
C1477 C 0.75947 0.18206 0.24169 0.0
C1478 C 0.65062 1.00712 0.99259 0.0
C1479 C 0.62507 0.99863 0.97463 0.0
H1480 H 0.67062 0.03133 0.03978 0.0
C1481 C 0.59946 1.00755 0.99204 0.0
H1482 H 0.67064 1.0008 0.97941 0.0
C1483 C 0.59945 0.02448 0.02717 0.0
C1484 C 0.62504 0.03342 0.0446 0.0
H1485 H 0.57953 1.00162 0.97819 0.0
H1486 H 0.5795 0.03038 0.04102 0.0
C1487 C 0.6506 0.02499 0.0266 0.0
C1488 C 0.7763 0.63172 0.74227 0.0
C1489 C 0.78483 0.65709 0.72401 0.0
H1490 H 0.7521 0.612 0.78981 0.0
C1491 C 0.7761 0.68267 0.74146 0.0
H1492 H 0.7825 0.6117 0.72918 0.0
C1493 C 0.75929 0.68285 0.77681 0.0
C1494 C 0.7503 0.65744 0.79454 0.0
H1495 H 0.78208 0.70249 0.72748 0.0
H1496 H 0.75351 0.70279 0.79056 0.0
C1497 C 0.75852 0.6319 0.77651 0.0
C1498 C 0.6002 0.50694 0.02715 0.0
C1499 C 0.62588 0.49817 0.04447 0.0
H1500 H 0.58004 0.52964 0.97822 0.0
C1501 C 0.65136 0.50674 0.02636 0.0
H1502 H 0.58032 0.50096 0.04113 0.0
C1503 C 0.6512 0.52454 0.99226 0.0
C1504 C 0.62555 0.53285 0.9744 0.0
H1505 H 0.67144 0.50055 0.03949 0.0
H1506 H 0.67116 0.53092 0.97892 0.0
C1507 C 0.60004 0.52384 0.99198 0.0
C1508 C 0.77627 0.34852 0.27724 0.0
C1509 C 0.78504 0.37408 0.29469 0.0
H1510 H 0.75363 0.32844 0.22815 0.0
C1511 C 0.77653 0.39947 0.27645 0.0
H1512 H 0.78224 0.32869 0.29118 0.0
C1513 C 0.75872 0.39932 0.24225 0.0
C1514 C 0.75044 0.37379 0.22422 0.0
H1515 H 0.78278 0.41948 0.28952 0.0
H1516 H 0.75229 0.41923 0.229 0.0
C1517 C 0.75944 0.34837 0.24191 0.0
C1518 C 0.93538 0.52405 0.52669 0.0
C1519 C 0.90987 0.53308 0.54426 0.0
H1520 H 0.9551 0.50113 0.47758 0.0
C1521 C 0.88423 0.52475 0.52641 0.0
H1522 H 0.95539 0.52987 0.54043 0.0
C1523 C 0.88406 0.50691 0.49236 0.0
C1524 C 0.90954 0.49833 0.47426 0.0
H1525 H 0.86427 0.53116 0.53971 0.0
H1526 H 0.86398 0.50069 0.47927 0.0
C1527 C 0.93522 0.50713 0.49155 0.0
C1528 C 0.27572 0.34922 0.24171 0.0
C1529 C 0.28455 0.37473 0.22412 0.0
H1530 H 0.25309 0.32931 0.29094 0.0
C1531 C 0.27614 0.40018 0.24225 0.0
H1532 H 0.28162 0.32935 0.22783 0.0
C1533 C 0.25841 0.40015 0.27654 0.0
C1534 C 0.25008 0.37468 0.2947 0.0
H1535 H 0.28241 0.42014 0.22903 0.0
H1536 H 0.2521 0.4201 0.28978 0.0
C1537 C 0.25894 0.3492 0.27708 0.0
C1538 C 0.43583 0.52407 0.99159 0.0
C1539 C 0.41015 0.53285 0.97429 0.0
H1540 H 0.45601 0.50136 0.0405 0.0
C1541 C 0.38468 0.52424 0.99238 0.0
H1542 H 0.45571 0.53007 0.97762 0.0
C1543 C 0.38485 0.5064 0.02643 0.0
C1544 C 0.4105 0.49811 0.04432 0.0
H1545 H 0.36459 0.53044 0.97927 0.0
H1546 H 0.36489 0.49998 0.03973 0.0
C1547 C 0.43601 0.50715 0.02674 0.0
C1548 C 0.2575 0.68316 0.74177 0.0
C1549 C 0.24871 0.65765 0.72416 0.0
H1550 H 0.28032 0.70304 0.79086 0.0
C1551 C 0.25716 0.63219 0.74222 0.0
H1552 H 0.25155 0.70303 0.72795 0.0
C1553 C 0.27506 0.6322 0.7763 0.0
C1554 C 0.2835 0.65767 0.79435 0.0
H1555 H 0.2509 0.61224 0.72898 0.0
H1556 H 0.2815 0.61225 0.78939 0.0
C1557 C 0.27443 0.68316 0.77699 0.0
C1558 C 0.15139 0.50527 0.49206 0.0
C1559 C 0.12575 0.49702 0.47411 0.0
H1560 H 0.17164 0.52926 0.5393 0.0
C1561 C 0.10025 0.50587 0.49191 0.0
H1562 H 0.17136 0.49897 0.47865 0.0
C1563 C 0.10041 0.52267 0.52718 0.0
C1564 C 0.12608 0.53152 0.54444 0.0
H1565 H 0.08024 0.50007 0.47818 0.0
H1566 H 0.08053 0.5286 0.54119 0.0
C1567 C 0.15156 0.523 0.52626 0.0
C1568 C 0.1614 0.1657 0.87217 0.0
C1569 C 0.16522 0.1517 0.90988 0.0
H1570 H 0.14591 0.16248 0.81024 0.0
C1571 C 0.15163 0.12584 0.91655 0.0
H1572 H 0.17149 0.18576 0.86635 0.0
C1573 C 0.13732 0.11268 0.88468 0.0
C1574 C 0.13594 0.12533 0.84586 0.0
H1575 H 0.1537 0.11479 0.94554 0.0
H1576 H 0.12889 0.09174 0.88962 0.0
C1577 C 0.1467 0.15253 0.84018 0.0
C1578 C 0.15848 0.90044 0.16697 0.0
C1579 C 0.1323 0.9136 0.16068 0.0
H1580 H 0.19255 0.87772 0.13973 0.0
C1581 C 0.1178 0.90917 0.12348 0.0
H1582 H 0.16992 0.90298 0.19557 0.0
C1583 C 0.13074 0.89423 0.09154 0.0
C1584 C 0.1582 0.88383 0.09674 0.0
H1585 H 0.09748 0.91893 0.11798 0.0
H1586 H 0.12036 0.89292 0.06192 0.0
C1587 C 0.1714 0.88586 0.13514 0.0
C1588 C 0.38877 0.87946 0.34087 0.0
C1589 C 0.39901 0.90687 0.34631 0.0
H1590 H 0.3644 0.84595 0.36715 0.0
C1591 C 0.39706 0.91977 0.3849 0.0
H1592 H 0.39003 0.86931 0.3111 0.0
C1593 C 0.38275 0.90656 0.41675 0.0
C1594 C 0.36972 0.8804 0.41027 0.0
H1595 H 0.40509 0.94088 0.38967 0.0
H1596 H 0.38027 0.91776 0.44553 0.0
C1597 C 0.37406 0.86623 0.37282 0.0
C1598 C 0.38847 0.15221 0.67889 0.0
C1599 C 0.39902 0.12493 0.67326 0.0
H1600 H 0.36391 0.18561 0.65269 0.0
C1601 C 0.39747 0.11224 0.63449 0.0
H1602 H 0.38941 0.1622 0.70879 0.0
C1603 C 0.38324 0.12548 0.60261 0.0
C1604 C 0.36987 0.15146 0.60923 0.0
H1605 H 0.40575 0.09124 0.62959 0.0
H1606 H 0.38105 0.11441 0.57366 0.0
C1607 C 0.37383 0.16546 0.64689 0.0
C1608 C 0.86416 0.88586 0.13505 0.0
C1609 C 0.8772 0.88409 0.0965 0.0
H1610 H 0.86586 0.90257 0.1957 0.0
C1611 C 0.90464 0.89452 0.09121 0.0
H1612 H 0.84302 0.87768 0.13969 0.0
C1613 C 0.9177 0.90926 0.12325 0.0
C1614 C 0.90333 0.91345 0.16063 0.0
H1615 H 0.9149 0.89342 0.06148 0.0
H1616 H 0.93799 0.91908 0.11769 0.0
C1617 C 0.8772 0.90021 0.16697 0.0
C1618 C 0.8738 0.16561 0.87221 0.0
C1619 C 0.87011 0.15148 0.90985 0.0
H1620 H 0.8893 0.16267 0.81025 0.0
C1621 C 0.88396 0.12575 0.91641 0.0
H1622 H 0.8635 0.18558 0.86649 0.0
C1623 C 0.89841 0.11281 0.88447 0.0
C1624 C 0.89965 0.12555 0.8457 0.0
H1625 H 0.88199 0.11462 0.94534 0.0
H1626 H 0.90703 0.09194 0.8893 0.0
C1627 C 0.88862 0.15265 0.84015 0.0
C1628 C 0.66149 0.16524 0.64704 0.0
C1629 C 0.66553 0.15128 0.60935 0.0
H1630 H 0.64583 0.16189 0.70888 0.0
C1631 C 0.65222 0.12528 0.60265 0.0
H1632 H 0.67137 0.1854 0.65289 0.0
C1633 C 0.63796 0.11199 0.63446 0.0
C1634 C 0.63633 0.12464 0.67326 0.0
H1635 H 0.65446 0.11425 0.57368 0.0
H1636 H 0.62972 0.09098 0.62948 0.0
C1637 C 0.64683 0.15193 0.67896 0.0
C1638 C 0.64639 0.87966 0.34087 0.0
C1639 C 0.63628 0.90712 0.34636 0.0
H1640 H 0.67067 0.84604 0.36704 0.0
C1641 C 0.6384 0.92002 0.38493 0.0
H1642 H 0.645 0.8695 0.31113 0.0
C1643 C 0.65273 0.90675 0.4167 0.0
C1644 C 0.66562 0.88053 0.41017 0.0
H1645 H 0.63046 0.94116 0.38974 0.0
H1646 H 0.65533 0.91795 0.44546 0.0
C1647 C 0.66113 0.86638 0.37275 0.0
C1648 C 0.63745 0.61241 0.38411 0.0
C1649 C 0.63628 0.62506 0.34527 0.0
H1650 H 0.65349 0.61455 0.44515 0.0
C1651 C 0.64702 0.65227 0.33971 0.0
H1652 H 0.62903 0.59146 0.38894 0.0
C1653 C 0.66151 0.66547 0.37187 0.0
C1654 C 0.66515 0.65147 0.40962 0.0
H1655 H 0.64637 0.66221 0.30976 0.0
H1656 H 0.67161 0.68554 0.36615 0.0
C1657 C 0.65156 0.6256 0.41615 0.0
C1658 C 0.66167 0.36581 0.64676 0.0
C1659 C 0.66567 0.37993 0.60918 0.0
H1660 H 0.64592 0.36885 0.70858 0.0
C1661 C 0.65218 0.40584 0.60259 0.0
H1662 H 0.67169 0.3457 0.65252 0.0
C1663 C 0.63777 0.41893 0.63444 0.0
C1664 C 0.63618 0.40614 0.67316 0.0
H1665 H 0.65439 0.41698 0.5737 0.0
H1666 H 0.6294 0.43989 0.62958 0.0
C1667 C 0.64687 0.37891 0.67873 0.0
C1668 C 0.87394 0.36606 0.87179 0.0
C1669 C 0.86969 0.38002 0.90942 0.0
H1670 H 0.88983 0.36943 0.81007 0.0
C1671 C 0.88278 0.40612 0.91616 0.0
H1672 H 0.86424 0.34582 0.86591 0.0
C1673 C 0.89707 0.41948 0.88442 0.0
C1674 C 0.89895 0.40679 0.84567 0.0
H1675 H 0.88037 0.41717 0.94508 0.0
H1676 H 0.90516 0.44054 0.88943 0.0
C1677 C 0.88864 0.37943 0.83995 0.0
C1678 C 0.88837 0.65201 0.17888 0.0
C1679 C 0.89871 0.62466 0.1732 0.0
H1680 H 0.86419 0.68568 0.15266 0.0
C1681 C 0.89723 0.61208 0.13434 0.0
H1682 H 0.88928 0.66192 0.20884 0.0
C1683 C 0.88324 0.62553 0.10241 0.0
C1684 C 0.87005 0.65159 0.10906 0.0
H1685 H 0.90536 0.59103 0.12939 0.0
H1686 H 0.88108 0.61455 0.07339 0.0
C1687 C 0.87397 0.66547 0.14684 0.0
C1688 C 0.37377 0.36599 0.64688 0.0
C1689 C 0.37005 0.37996 0.60912 0.0
H1690 H 0.38908 0.36928 0.70891 0.0
C1691 C 0.3836 0.40584 0.6025 0.0
H1692 H 0.36371 0.34591 0.65267 0.0
C1693 C 0.39778 0.41905 0.63446 0.0
C1694 C 0.39907 0.40643 0.67331 0.0
H1695 H 0.3816 0.41686 0.57349 0.0
H1696 H 0.40618 0.44 0.62955 0.0
C1697 C 0.38834 0.37922 0.67895 0.0
C1698 C 0.3824 0.6245 0.41644 0.0
C1699 C 0.36952 0.65074 0.41004 0.0
H1700 H 0.40485 0.59025 0.3894 0.0
C1701 C 0.37417 0.66507 0.37278 0.0
H1702 H 0.3797 0.61318 0.44509 0.0
C1703 C 0.38906 0.65195 0.34092 0.0
C1704 C 0.39919 0.62447 0.34626 0.0
H1705 H 0.36463 0.68542 0.36717 0.0
H1706 H 0.39058 0.66224 0.31129 0.0
C1707 C 0.39691 0.6114 0.3847 0.0
C1708 C 0.17113 0.64531 0.13488 0.0
C1709 C 0.15817 0.64726 0.0963 0.0
H1710 H 0.16925 0.62838 0.1954 0.0
C1711 C 0.13074 0.63686 0.0908 0.0
H1712 H 0.19225 0.65345 0.13969 0.0
C1713 C 0.11758 0.62201 0.12266 0.0
C1714 C 0.13184 0.61768 0.16009 0.0
H1715 H 0.12055 0.6381 0.06104 0.0
H1716 H 0.0973 0.61225 0.11694 0.0
C1717 C 0.15799 0.63085 0.16663 0.0
C1718 C 0.13696 0.41853 0.88428 0.0
C1719 C 0.13586 0.40593 0.84541 0.0
H1720 H 0.1531 0.41647 0.94527 0.0
C1721 C 0.14685 0.37883 0.83976 0.0
H1722 H 0.12835 0.4394 0.88918 0.0
C1723 C 0.16151 0.36573 0.87185 0.0
C1724 C 0.16506 0.37971 0.90962 0.0
H1725 H 0.14628 0.36893 0.80978 0.0
H1726 H 0.1718 0.34576 0.86606 0.0
C1727 C 0.15123 0.40544 0.91625 0.0
C1728 C 0.27017 0.25121 0.05368 0.0
C1729 C 0.25034 0.23607 0.03026 0.0
H1730 H 0.28567 0.29163 0.07214 0.0
C1731 C 0.23043 0.25117 1.00694 0.0
H1732 H 0.28575 0.24031 0.07214 0.0
C1733 C 0.23038 0.28062 1.00694 0.0
C1734 C 0.25024 0.29577 0.03027 0.0
H1735 H 0.21483 0.24027 0.98854 0.0
H1736 H 0.21474 0.29148 0.98855 0.0
C1737 C 0.27012 0.28069 0.05368 0.0
C1738 C 1.00301 0.01825 0.30414 0.0
C1739 C 0.98788 0.9985 0.28063 0.0
H1740 H 0.04349 0.03379 0.32264 0.0
C1741 C 1.00307 0.97875 0.25721 0.0
H1742 H 0.99203 0.0337 0.32268 0.0
C1743 C 0.03262 0.9788 0.25718 0.0
C1744 C 0.04775 0.99861 0.28059 0.0
H1745 H 0.99216 0.96321 0.23875 0.0
H1746 H 0.04358 0.9633 0.23871 0.0
C1747 C 0.03257 0.0183 0.30412 0.0
C1748 C 0.30386 0.75084 0.50616 0.0
C1749 C 0.28404 0.73575 0.52965 0.0
H1750 H 0.31951 0.79117 0.48775 0.0
C1751 C 0.2643 0.75086 0.55326 0.0
H1752 H 0.31939 0.73994 0.48762 0.0
C1753 C 0.26437 0.78031 0.55334 0.0
C1754 C 0.28418 0.7954 0.52981 0.0
H1755 H 0.2488 0.73996 0.57185 0.0
H1756 H 0.24891 0.79124 0.57198 0.0
C1757 C 0.30393 0.78028 0.50624 0.0
C1758 C 0.50275 0.05256 0.75702 0.0
C1759 C 0.48754 0.03287 0.78056 0.0
H1760 H 0.54328 0.06793 0.73839 0.0
C1761 C 0.50269 1.01323 0.80425 0.0
H1762 H 0.49183 0.06803 0.73844 0.0
C1763 C 0.53226 1.01317 0.80422 0.0
C1764 C 0.54747 0.03275 0.78049 0.0
H1765 H 0.49173 0.99782 0.8229 0.0
H1766 H 0.54318 0.99773 0.82285 0.0
C1767 C 0.53232 0.0525 0.75699 0.0
C1768 C 0.23109 0.78022 0.01252 0.0
C1769 C 0.25092 0.79537 0.98913 0.0
H1770 H 0.21554 0.73986 0.03097 0.0
C1771 C 0.27072 0.78028 0.96559 0.0
H1772 H 0.21549 0.79109 0.03099 0.0
C1773 C 0.27075 0.7508 0.96558 0.0
C1774 C 0.25097 0.73566 0.98911 0.0
H1775 H 0.28624 0.79121 0.94706 0.0
H1776 H 0.28629 0.7399 0.94704 0.0
C1777 C 0.23112 0.75077 0.01251 0.0
C1778 C 0.53224 0.01876 0.21538 0.0
C1779 C 0.54741 0.99914 0.23907 0.0
H1780 H 0.49171 0.03413 0.19672 0.0
C1781 C 0.53227 0.9794 0.26257 0.0
H1782 H 0.54317 0.0342 0.19676 0.0
C1783 C 0.50272 0.97936 0.26255 0.0
C1784 C 0.48753 0.99906 0.23902 0.0
H1785 H 0.54322 0.96395 0.28114 0.0
H1786 H 0.49179 0.96387 0.2811 0.0
C1787 C 0.50268 0.01872 0.21536 0.0
C1788 C 0.26459 0.25114 0.46571 0.0
C1789 C 0.28442 0.23603 0.48917 0.0
H1790 H 0.24913 0.29155 0.44713 0.0
C1791 C 0.3043 0.25113 0.51252 0.0
H1792 H 0.24903 0.24023 0.44724 0.0
C1793 C 0.30436 0.28056 0.51245 0.0
C1794 C 0.28453 0.29569 0.48903 0.0
H1795 H 0.3199 0.24023 0.53095 0.0
H1796 H 0.32 0.29143 0.53083 0.0
C1797 C 0.26464 0.28061 0.46565 0.0
C1798 C 0.03264 1.01332 0.71503 0.0
C1799 C 0.04782 0.03303 0.73855 0.0
H1800 H 0.99209 0.99787 0.69651 0.0
C1801 C 0.03265 0.05287 0.76184 0.0
H1802 H 0.04358 0.99779 0.69658 0.0
C1803 C 1.00309 0.05292 0.76179 0.0
C1804 C 0.98789 0.03312 0.73846 0.0
H1805 H 0.04359 0.0684 0.78028 0.0
H1806 H 0.99216 0.06848 0.7802 0.0
C1807 C 1.00305 1.01336 0.71499 0.0
C1808 C 0.80434 0.7812 0.01255 0.0
C1809 C 0.78445 0.79631 0.9892 0.0
H1810 H 0.82006 0.74089 0.03086 0.0
C1811 C 0.76467 0.78118 0.96568 0.0
H1812 H 0.81991 0.79211 0.03101 0.0
C1813 C 0.76475 0.75171 0.96559 0.0
C1814 C 0.78462 0.73662 0.98902 0.0
H1815 H 0.74911 0.79208 0.9472 0.0
H1816 H 0.74926 0.74077 0.94704 0.0
C1817 C 0.80443 0.75176 0.01246 0.0
C1818 C 0.77099 0.25107 0.46581 0.0
C1819 C 0.75113 0.236 0.48928 0.0
H1820 H 0.78659 0.29144 0.4473 0.0
C1821 C 0.73134 0.25114 0.51275 0.0
H1822 H 0.78648 0.24012 0.44725 0.0
C1823 C 0.73141 0.28057 0.51278 0.0
C1824 C 0.75126 0.29566 0.48934 0.0
H1825 H 0.71573 0.24027 0.53119 0.0
H1826 H 0.71583 0.29147 0.53125 0.0
C1827 C 0.77105 0.28053 0.46584 0.0
C1828 C 0.76471 0.25019 0.05336 0.0
C1829 C 0.78458 0.23509 0.02996 0.0
H1830 H 0.74908 0.29057 0.07172 0.0
C1831 C 0.80438 0.25022 1.00647 0.0
H1832 H 0.74921 0.23926 0.07194 0.0
C1833 C 0.8043 0.27966 1.00634 0.0
C1834 C 0.78442 0.29477 0.02969 0.0
H1835 H 0.82 0.23934 0.98807 0.0
H1836 H 0.81987 0.29055 0.98785 0.0
C1837 C 0.76463 0.27966 0.05323 0.0
C1838 C 0.73104 0.78017 0.50631 0.0
C1839 C 0.7509 0.79519 0.52979 0.0
H1840 H 0.71533 0.73991 0.4878 0.0
C1841 C 0.77067 0.78001 0.55326 0.0
H1842 H 0.71549 0.79112 0.48787 0.0
C1843 C 0.77059 0.75055 0.55321 0.0
C1844 C 0.75072 0.73554 0.52971 0.0
H1845 H 0.78622 0.79087 0.57183 0.0
H1846 H 0.78606 0.73957 0.57176 0.0
C1847 C 0.73095 0.75073 0.50627 0.0
C1848 C 0.53222 0.51786 0.80416 0.0
C1849 C 0.54737 0.49817 0.78055 0.0
H1850 H 0.49172 0.53342 0.82266 0.0
C1851 C 0.53216 0.47847 0.75706 0.0
H1852 H 0.54318 0.53328 0.82276 0.0
C1853 C 0.50259 0.47855 0.757 0.0
C1854 C 0.48744 0.49834 0.78042 0.0
H1855 H 0.54308 0.46296 0.73855 0.0
H1856 H 0.49163 0.4631 0.73844 0.0
C1857 C 0.50265 0.51794 0.8041 0.0
C1858 C 0.03162 0.51312 0.30396 0.0
C1859 C 0.04675 0.53284 0.28037 0.0
H1860 H 0.99114 0.49755 0.32247 0.0
C1861 C 0.03154 0.55254 0.25688 0.0
H1862 H 0.04259 0.49771 0.32256 0.0
C1863 C 1.00198 0.55245 0.25682 0.0
C1864 C 0.98685 0.53266 0.28026 0.0
H1865 H 0.04245 0.56806 0.23836 0.0
H1866 H 0.99101 0.56791 0.23827 0.0
C1867 C 1.00205 0.51303 0.30391 0.0
C1868 C 0.03269 0.47877 0.76175 0.0
C1869 C 0.04794 0.49851 0.73836 0.0
H1870 H 0.99213 0.46339 0.78024 0.0
C1871 C 0.03283 0.51823 0.71475 0.0
H1872 H 0.04357 0.46324 0.78026 0.0
C1873 C 1.00325 0.51831 0.71473 0.0
C1874 C 0.988 0.49868 0.73833 0.0
H1875 H 0.04383 0.53367 0.69621 0.0
H1876 H 0.99235 0.53382 0.69618 0.0
C1877 C 1.00312 0.47886 0.76174 0.0
C1878 C 0.50368 0.55249 0.26191 0.0
C1879 C 0.48852 0.53271 0.2385 0.0
H1880 H 0.54417 0.56806 0.28032 0.0
C1881 C 0.5037 0.51309 0.21482 0.0
H1882 H 0.49273 0.56796 0.28046 0.0
C1883 C 0.53326 0.51315 0.21474 0.0
C1884 C 0.54842 0.53284 0.23833 0.0
H1885 H 0.49276 0.49762 0.19627 0.0
H1886 H 0.54422 0.49772 0.19613 0.0
C1887 C 0.53324 0.55256 0.26182 0.0
loop_
_geom_bond_atom_site_label_1
_geom_bond_atom_site_label_2
_geom_bond_distance
_geom_bond_site_symmetry_2
_ccdc_geom_bond_type
Co0 O3 1.970 1_556 S
Co0 N17 1.989 1_556 S
Co0 O25 1.967 . S
Co0 O32 1.920 . S
Co1 O4 1.966 . S
Co1 N10 2.022 . S
Co1 N18 1.993 . S
Co1 O26 1.941 . S
C2 O3 1.258 . S
C2 O4 1.263 . S
O3 Co0 1.970 1_554 S
O3 C2 1.258 . S
O4 Co1 1.966 . S
O4 C2 1.263 . S
C5 O6 1.235 . S
C5 O32 1.289 . S
O6 C5 1.235 . S
C7 C9 1.400 . S
C7 N10 1.351 . S
C7 C12 1.501 . S
C8 C9 1.387 . S
C8 N11 1.341 . S
C9 C7 1.400 . S
C9 C8 1.387 . S
N10 Co1 2.022 . S
N10 C7 1.351 . S
N10 N11 1.365 . S
N11 C8 1.341 . S
N11 N10 1.365 . S
N11 H31 0.862 . S
C12 C7 1.501 . S
C12 H13 0.961 . S
C12 H14 0.961 . S
C12 H15 0.960 . S
H13 C12 0.961 . S
H14 C12 0.961 . S
H15 C12 0.960 . S
C16 N17 1.342 . S
C16 C20 1.401 . S
C16 C21 1.499 . S
N17 Co0 1.989 1_554 S
N17 C16 1.342 . S
N17 N18 1.388 . S
N18 Co1 1.993 . S
N18 N17 1.388 . S
N18 C19 1.346 . S
C19 N18 1.346 . S
C19 C20 1.396 . S
C19 C29 1.510 . S
C20 C16 1.401 . S
C20 C19 1.396 . S
C21 C16 1.499 . S
C21 H22 0.959 1_554 S
C21 H23 0.960 . S
C21 H24 0.961 . S
H22 C21 0.959 1_556 S
H23 C21 0.960 . S
H24 C21 0.961 . S
O25 Co0 1.967 . S
O25 C33 1.258 . S
O26 Co1 1.941 . S
O26 C33 1.266 1_554 S
H27 C29 0.959 . S
H28 C29 0.961 . S
C29 C19 1.510 . S
C29 H27 0.959 . S
C29 H28 0.961 . S
C29 H30 0.960 . S
H30 C29 0.960 . S
H31 N11 0.862 . S
O32 Co0 1.920 . S
O32 C5 1.289 . S
C33 O25 1.258 . S
C33 O26 1.266 1_556 S
Co34 O37 1.970 . S
Co34 N51 1.989 . S
Co34 O59 1.967 . S
Co34 O66 1.920 . S
Co35 O38 1.966 . S
Co35 N44 2.022 . S
Co35 N52 1.993 . S
Co35 O60 1.941 . S
C36 O37 1.258 . S
C36 O38 1.263 . S
O37 Co34 1.970 . S
O37 C36 1.258 . S
O38 Co35 1.966 . S
O38 C36 1.263 . S
C39 O40 1.235 . S
C39 O66 1.289 . S
O40 C39 1.235 . S
C41 C43 1.400 . S
C41 N44 1.351 . S
C41 C46 1.501 . S
C42 C43 1.402 . S
C42 N45 1.345 . S
C43 C41 1.400 . S
C43 C42 1.402 . S
N44 Co35 2.022 . S
N44 C41 1.351 . S
N44 N45 1.365 . S
N45 C42 1.345 . S
N45 N44 1.365 . S
N45 H65 0.862 1_565 S
C46 C41 1.501 . S
C46 H47 0.961 . S
C46 H48 0.961 . S
C46 H49 0.960 . S
H47 C46 0.961 . S
H48 C46 0.961 . S
H49 C46 0.960 . S
C50 N51 1.342 . S
C50 C54 1.401 . S
C50 C55 1.499 . S
N51 Co34 1.989 . S
N51 C50 1.342 . S
N51 N52 1.388 . S
N52 Co35 1.993 . S
N52 N51 1.388 . S
N52 C53 1.346 . S
C53 N52 1.346 . S
C53 C54 1.396 . S
C53 C63 1.510 . S
C54 C50 1.401 . S
C54 C53 1.396 . S
C55 C50 1.499 . S
C55 H56 0.959 . S
C55 H57 0.960 . S
C55 H58 0.961 . S
H56 C55 0.959 . S
H57 C55 0.960 . S
H58 C55 0.961 . S
O59 Co34 1.967 . S
O59 C67 1.258 . S
O60 Co35 1.941 . S
O60 C67 1.266 . S
H61 C63 0.959 . S
H62 C63 0.961 . S
C63 C53 1.510 . S
C63 H61 0.959 . S
C63 H62 0.961 . S
C63 H64 0.960 . S
H64 C63 0.960 . S
H65 N45 0.862 1_545 S
O66 Co34 1.920 . S
O66 C39 1.289 . S
C67 O59 1.258 . S
C67 O60 1.266 . S
Co68 O71 1.970 . S
Co68 N85 1.989 . S
Co68 O93 1.967 . S
Co68 O100 1.920 . S
Co69 O72 1.966 . S
Co69 N78 2.022 . S
Co69 N86 1.993 . S
Co69 O94 1.941 . S
C70 O71 1.258 . S
C70 O72 1.263 . S
O71 Co68 1.970 . S
O71 C70 1.258 . S
O72 Co69 1.966 . S
O72 C70 1.263 . S
C73 O74 1.235 . S
C73 O100 1.289 . S
O74 C73 1.235 . S
C75 C77 1.400 . S
C75 N78 1.351 . S
C75 C80 1.501 . S
C76 C77 1.387 . S
C76 N79 1.341 . S
C77 C75 1.400 . S
C77 C76 1.387 . S
N78 Co69 2.022 . S
N78 C75 1.351 . S
N78 N79 1.365 . S
N79 C76 1.341 . S
N79 N78 1.365 . S
N79 H99 0.862 . S
C80 C75 1.501 . S
C80 H81 0.961 . S
C80 H82 0.961 . S
C80 H83 0.960 . S
H81 C80 0.961 . S
H82 C80 0.961 . S
H83 C80 0.960 . S
C84 N85 1.342 . S
C84 C88 1.401 . S
C84 C89 1.499 . S
N85 Co68 1.989 . S
N85 C84 1.342 . S
N85 N86 1.388 . S
N86 Co69 1.993 . S
N86 N85 1.388 . S
N86 C87 1.346 . S
C87 N86 1.346 . S
C87 C88 1.396 . S
C87 C97 1.510 . S
C88 C84 1.401 . S
C88 C87 1.396 . S
C89 C84 1.499 . S
C89 H90 0.959 . S
C89 H91 0.960 . S
C89 H92 0.961 . S
H90 C89 0.959 . S
H91 C89 0.960 . S
H92 C89 0.961 . S
O93 Co68 1.967 . S
O93 C101 1.258 . S
O94 Co69 1.941 . S
O94 C101 1.266 . S
H95 C97 0.959 . S
H96 C97 0.961 . S
C97 C87 1.510 . S
C97 H95 0.959 . S
C97 H96 0.961 . S
C97 H98 0.960 . S
H98 C97 0.960 . S
H99 N79 0.862 . S
O100 Co68 1.920 . S
O100 C73 1.289 . S
C101 O93 1.258 . S
C101 O94 1.266 . S
Co102 O105 1.970 . S
Co102 N119 1.989 . S
Co102 O127 1.967 . S
Co102 O134 1.920 . S
Co103 O106 1.966 . S
Co103 N112 2.022 . S
Co103 N120 1.993 . S
Co103 O128 1.941 . S
C104 O105 1.258 . S
C104 O106 1.263 . S
O105 Co102 1.970 . S
O105 C104 1.258 . S
O106 Co103 1.966 . S
O106 C104 1.263 . S
C107 O108 1.235 . S
C107 O134 1.289 . S
O108 C107 1.235 . S
C109 C111 1.400 . S
C109 N112 1.351 . S
C109 C114 1.501 . S
C110 C111 1.402 . S
C110 N113 1.345 . S
C111 C109 1.400 . S
C111 C110 1.402 . S
N112 Co103 2.022 . S
N112 C109 1.351 . S
N112 N113 1.365 . S
N113 C110 1.345 . S
N113 N112 1.365 . S
N113 H133 0.862 1_545 S
C114 C109 1.501 . S
C114 H115 0.961 . S
C114 H116 0.961 . S
C114 H117 0.960 . S
H115 C114 0.961 . S
H116 C114 0.961 . S
H117 C114 0.960 . S
C118 N119 1.342 . S
C118 C122 1.401 . S
C118 C123 1.499 . S
N119 Co102 1.989 . S
N119 C118 1.342 . S
N119 N120 1.388 . S
N120 Co103 1.993 . S
N120 N119 1.388 . S
N120 C121 1.346 . S
C121 N120 1.346 . S
C121 C122 1.396 . S
C121 C131 1.510 . S
C122 C118 1.401 . S
C122 C121 1.396 . S
C123 C118 1.499 . S
C123 H124 0.959 . S
C123 H125 0.960 . S
C123 H126 0.961 . S
H124 C123 0.959 . S
H125 C123 0.960 . S
H126 C123 0.961 . S
O127 Co102 1.967 . S
O127 C135 1.258 . S
O128 Co103 1.941 . S
O128 C135 1.266 . S
H129 C131 0.959 . S
H130 C131 0.961 . S
C131 C121 1.510 . S
C131 H129 0.959 . S
C131 H130 0.961 . S
C131 H132 0.960 . S
H132 C131 0.960 . S
H133 N113 0.862 1_565 S
O134 Co102 1.920 . S
O134 C107 1.289 . S
C135 O127 1.258 . S
C135 O128 1.266 . S
Co136 O139 1.970 1_554 S
Co136 N153 1.989 1_554 S
Co136 O161 1.967 . S
Co136 O168 1.920 . S
Co137 O140 1.966 . S
Co137 N146 2.022 . S
Co137 N154 1.993 . S
Co137 O162 1.941 . S
C138 O139 1.258 . S
C138 O140 1.263 . S
O139 Co136 1.970 1_556 S
O139 C138 1.258 . S
O140 Co137 1.966 . S
O140 C138 1.263 . S
C141 O142 1.235 . S
C141 O168 1.289 . S
O142 C141 1.235 . S
C143 C145 1.400 . S
C143 N146 1.351 . S
C143 C148 1.501 . S
C144 C145 1.387 . S
C144 N147 1.341 . S
C145 C143 1.400 . S
C145 C144 1.387 . S
N146 Co137 2.022 . S
N146 C143 1.351 . S
N146 N147 1.365 . S
N147 C144 1.341 . S
N147 N146 1.365 . S
N147 H167 0.862 . S
C148 C143 1.501 . S
C148 H149 0.961 . S
C148 H150 0.961 . S
C148 H151 0.960 . S
H149 C148 0.961 . S
H150 C148 0.961 . S
H151 C148 0.960 . S
C152 N153 1.342 . S
C152 C156 1.401 . S
C152 C157 1.499 . S
N153 Co136 1.989 1_556 S
N153 C152 1.342 . S
N153 N154 1.388 . S
N154 Co137 1.993 . S
N154 N153 1.388 . S
N154 C155 1.346 . S
C155 N154 1.346 . S
C155 C156 1.396 . S
C155 C165 1.510 . S
C156 C152 1.401 . S
C156 C155 1.396 . S
C157 C152 1.499 . S
C157 H158 0.959 1_556 S
C157 H159 0.960 . S
C157 H160 0.961 . S
H158 C157 0.959 1_554 S
H159 C157 0.960 . S
H160 C157 0.961 . S
O161 Co136 1.967 . S
O161 C169 1.258 . S
O162 Co137 1.941 . S
O162 C169 1.266 1_556 S
H163 C165 0.959 . S
H164 C165 0.961 . S
C165 C155 1.510 . S
C165 H163 0.959 . S
C165 H164 0.961 . S
C165 H166 0.960 . S
H166 C165 0.960 . S
H167 N147 0.862 . S
O168 Co136 1.920 . S
O168 C141 1.289 . S
C169 O161 1.258 . S
C169 O162 1.266 1_554 S
Co170 O173 1.970 . S
Co170 N187 1.989 . S
Co170 O195 1.967 . S
Co170 O202 1.920 . S
Co171 O174 1.966 . S
Co171 N180 2.022 . S
Co171 N188 1.993 . S
Co171 O196 1.941 . S
C172 O173 1.258 . S
C172 O174 1.263 . S
O173 Co170 1.970 . S
O173 C172 1.258 . S
O174 Co171 1.966 . S
O174 C172 1.263 . S
C175 O176 1.235 . S
C175 O202 1.289 . S
O176 C175 1.235 . S
C177 C179 1.400 . S
C177 N180 1.351 . S
C177 C182 1.501 . S
C178 C179 1.402 . S
C178 N181 1.345 . S
C179 C177 1.400 . S
C179 C178 1.402 . S
N180 Co171 2.022 . S
N180 C177 1.351 . S
N180 N181 1.365 . S
N181 C178 1.345 . S
N181 N180 1.365 . S
N181 H201 0.862 1_565 S
C182 C177 1.501 . S
C182 H183 0.961 . S
C182 H184 0.961 . S
C182 H185 0.960 . S
H183 C182 0.961 . S
H184 C182 0.961 . S
H185 C182 0.960 . S
C186 N187 1.342 . S
C186 C190 1.401 . S
C186 C191 1.499 . S
N187 Co170 1.989 . S
N187 C186 1.342 . S
N187 N188 1.388 . S
N188 Co171 1.993 . S
N188 N187 1.388 . S
N188 C189 1.346 . S
C189 N188 1.346 . S
C189 C190 1.396 . S
C189 C199 1.510 . S
C190 C186 1.401 . S
C190 C189 1.396 . S
C191 C186 1.499 . S
C191 H192 0.959 . S
C191 H193 0.960 . S
C191 H194 0.961 . S
H192 C191 0.959 . S
H193 C191 0.960 . S
H194 C191 0.961 . S
O195 Co170 1.967 . S
O195 C203 1.258 . S
O196 Co171 1.941 . S
O196 C203 1.266 . S
H197 C199 0.959 . S
H198 C199 0.961 . S
C199 C189 1.510 . S
C199 H197 0.959 . S
C199 H198 0.961 . S
C199 H200 0.960 . S
H200 C199 0.960 . S
H201 N181 0.862 1_545 S
O202 Co170 1.920 . S
O202 C175 1.289 . S
C203 O195 1.258 . S
C203 O196 1.266 . S
Co204 O207 1.970 . S
Co204 N221 1.989 . S
Co204 O229 1.967 . S
Co204 O236 1.920 . S
Co205 O208 1.966 . S
Co205 N214 2.022 . S
Co205 N222 1.993 . S
Co205 O230 1.941 . S
C206 O207 1.258 . S
C206 O208 1.263 . S
O207 Co204 1.970 . S
O207 C206 1.258 . S
O208 Co205 1.966 . S
O208 C206 1.263 . S
C209 O210 1.235 . S
C209 O236 1.289 . S
O210 C209 1.235 . S
C211 C213 1.400 . S
C211 N214 1.351 . S
C211 C216 1.501 . S
C212 C213 1.387 . S
C212 N215 1.341 . S
C213 C211 1.400 . S
C213 C212 1.387 . S
N214 Co205 2.022 . S
N214 C211 1.351 . S
N214 N215 1.365 . S
N215 C212 1.341 . S
N215 N214 1.365 . S
N215 H235 0.862 . S
C216 C211 1.501 . S
C216 H217 0.961 . S
C216 H218 0.961 . S
C216 H219 0.960 . S
H217 C216 0.961 . S
H218 C216 0.961 . S
H219 C216 0.960 . S
C220 N221 1.342 . S
C220 C224 1.401 . S
C220 C225 1.499 . S
N221 Co204 1.989 . S
N221 C220 1.342 . S
N221 N222 1.388 . S
N222 Co205 1.993 . S
N222 N221 1.388 . S
N222 C223 1.346 . S
C223 N222 1.346 . S
C223 C224 1.396 . S
C223 C233 1.510 . S
C224 C220 1.401 . S
C224 C223 1.396 . S
C225 C220 1.499 . S
C225 H226 0.959 . S
C225 H227 0.960 . S
C225 H228 0.961 . S
H226 C225 0.959 . S
H227 C225 0.960 . S
H228 C225 0.961 . S
O229 Co204 1.967 . S
O229 C237 1.258 . S
O230 Co205 1.941 . S
O230 C237 1.266 . S
H231 C233 0.959 . S
H232 C233 0.961 . S
C233 C223 1.510 . S
C233 H231 0.959 . S
C233 H232 0.961 . S
C233 H234 0.960 . S
H234 C233 0.960 . S
H235 N215 0.862 . S
O236 Co204 1.920 . S
O236 C209 1.289 . S
C237 O229 1.258 . S
C237 O230 1.266 . S
Co238 O241 1.970 . S
Co238 N255 1.989 . S
Co238 O263 1.967 . S
Co238 O270 1.920 . S
Co239 O242 1.966 . S
Co239 N248 2.022 . S
Co239 N256 1.993 . S
Co239 O264 1.941 . S
C240 O241 1.258 . S
C240 O242 1.263 . S
O241 Co238 1.970 . S
O241 C240 1.258 . S
O242 Co239 1.966 . S
O242 C240 1.263 . S
C243 O244 1.235 . S
C243 O270 1.289 . S
O244 C243 1.235 . S
C245 C247 1.400 . S
C245 N248 1.351 . S
C245 C250 1.501 . S
C246 C247 1.402 . S
C246 N249 1.345 . S
C247 C245 1.400 . S
C247 C246 1.402 . S
N248 Co239 2.022 . S
N248 C245 1.351 . S
N248 N249 1.365 . S
N249 C246 1.345 . S
N249 N248 1.365 . S
N249 H269 0.862 1_545 S
C250 C245 1.501 . S
C250 H251 0.961 . S
C250 H252 0.961 . S
C250 H253 0.960 . S
H251 C250 0.961 . S
H252 C250 0.961 . S
H253 C250 0.960 . S
C254 N255 1.342 . S
C254 C258 1.401 . S
C254 C259 1.499 . S
N255 Co238 1.989 . S
N255 C254 1.342 . S
N255 N256 1.388 . S
N256 Co239 1.993 . S
N256 N255 1.388 . S
N256 C257 1.346 . S
C257 N256 1.346 . S
C257 C258 1.396 . S
C257 C267 1.510 . S
C258 C254 1.401 . S
C258 C257 1.396 . S
C259 C254 1.499 . S
C259 H260 0.959 . S
C259 H261 0.960 . S
C259 H262 0.961 . S
H260 C259 0.959 . S
H261 C259 0.960 . S
H262 C259 0.961 . S
O263 Co238 1.967 . S
O263 C271 1.258 . S
O264 Co239 1.941 . S
O264 C271 1.266 . S
H265 C267 0.959 . S
H266 C267 0.961 . S
C267 C257 1.510 . S
C267 H265 0.959 . S
C267 H266 0.961 . S
C267 H268 0.960 . S
H268 C267 0.960 . S
H269 N249 0.862 1_565 S
O270 Co238 1.920 . S
O270 C243 1.289 . S
C271 O263 1.258 . S
C271 O264 1.266 . S
Co272 O275 1.970 1_554 S
Co272 N289 1.989 1_554 S
Co272 O297 1.967 . S
Co272 O304 1.920 . S
Co273 O276 1.966 . S
Co273 N282 2.022 . S
Co273 N290 1.993 . S
Co273 O298 1.941 . S
C274 O275 1.258 . S
C274 O276 1.263 . S
O275 Co272 1.970 1_556 S
O275 C274 1.258 . S
O276 Co273 1.966 . S
O276 C274 1.263 . S
C277 O278 1.235 . S
C277 O304 1.289 . S
O278 C277 1.235 . S
C279 C281 1.400 . S
C279 N282 1.351 . S
C279 C284 1.501 . S
C280 C281 1.387 . S
C280 N283 1.341 . S
C281 C279 1.400 . S
C281 C280 1.387 . S
N282 Co273 2.022 . S
N282 C279 1.351 . S
N282 N283 1.365 . S
N283 C280 1.341 . S
N283 N282 1.365 . S
N283 H303 0.862 . S
C284 C279 1.501 . S
C284 H285 0.961 . S
C284 H286 0.961 . S
C284 H287 0.960 . S
H285 C284 0.961 . S
H286 C284 0.961 . S
H287 C284 0.960 . S
C288 N289 1.342 . S
C288 C292 1.401 . S
C288 C293 1.499 . S
N289 Co272 1.989 1_556 S
N289 C288 1.342 . S
N289 N290 1.388 . S
N290 Co273 1.993 . S
N290 N289 1.388 . S
N290 C291 1.346 . S
C291 N290 1.346 . S
C291 C292 1.396 . S
C291 C301 1.510 . S
C292 C288 1.401 . S
C292 C291 1.396 . S
C293 C288 1.499 . S
C293 H294 0.959 1_556 S
C293 H295 0.960 . S
C293 H296 0.961 . S
H294 C293 0.959 1_554 S
H295 C293 0.960 . S
H296 C293 0.961 . S
O297 Co272 1.967 . S
O297 C305 1.258 . S
O298 Co273 1.941 . S
O298 C305 1.266 1_556 S
H299 C301 0.959 . S
H300 C301 0.961 . S
C301 C291 1.510 . S
C301 H299 0.959 . S
C301 H300 0.961 . S
C301 H302 0.960 . S
H302 C301 0.960 . S
H303 N283 0.862 . S
O304 Co272 1.920 . S
O304 C277 1.289 . S
C305 O297 1.258 . S
C305 O298 1.266 1_554 S
Co306 O309 1.970 . S
Co306 N323 1.989 . S
Co306 O331 1.967 . S
Co306 O338 1.920 . S
Co307 O310 1.966 . S
Co307 N316 2.022 . S
Co307 N324 1.993 . S
Co307 O332 1.941 . S
C308 O309 1.258 . S
C308 O310 1.263 . S
O309 Co306 1.970 . S
O309 C308 1.258 . S
O310 Co307 1.966 . S
O310 C308 1.263 . S
C311 O312 1.235 . S
C311 O338 1.289 . S
O312 C311 1.235 . S
C313 C315 1.400 . S
C313 N316 1.351 . S
C313 C318 1.501 . S
C314 C315 1.402 . S
C314 N317 1.345 . S
C315 C313 1.400 . S
C315 C314 1.402 . S
N316 Co307 2.022 . S
N316 C313 1.351 . S
N316 N317 1.365 . S
N317 C314 1.345 . S
N317 N316 1.365 . S
N317 H337 0.862 1_545 S
C318 C313 1.501 . S
C318 H319 0.961 . S
C318 H320 0.961 . S
C318 H321 0.960 . S
H319 C318 0.961 . S
H320 C318 0.961 . S
H321 C318 0.960 . S
C322 N323 1.342 . S
C322 C326 1.401 . S
C322 C327 1.499 . S
N323 Co306 1.989 . S
N323 C322 1.342 . S
N323 N324 1.388 . S
N324 Co307 1.993 . S
N324 N323 1.388 . S
N324 C325 1.346 . S
C325 N324 1.346 . S
C325 C326 1.396 . S
C325 C335 1.510 . S
C326 C322 1.401 . S
C326 C325 1.396 . S
C327 C322 1.499 . S
C327 H328 0.959 . S
C327 H329 0.960 . S
C327 H330 0.961 . S
H328 C327 0.959 . S
H329 C327 0.960 . S
H330 C327 0.961 . S
O331 Co306 1.967 . S
O331 C339 1.258 . S
O332 Co307 1.941 . S
O332 C339 1.266 . S
H333 C335 0.959 . S
H334 C335 0.961 . S
C335 C325 1.510 . S
C335 H333 0.959 . S
C335 H334 0.961 . S
C335 H336 0.960 . S
H336 C335 0.960 . S
H337 N317 0.862 1_565 S
O338 Co306 1.920 . S
O338 C311 1.289 . S
C339 O331 1.258 . S
C339 O332 1.266 . S
Co340 O343 1.970 . S
Co340 N357 1.989 . S
Co340 O365 1.967 . S
Co340 O372 1.920 . S
Co341 O344 1.966 . S
Co341 N350 2.022 . S
Co341 N358 1.993 . S
Co341 O366 1.941 . S
C342 O343 1.258 . S
C342 O344 1.263 . S
O343 Co340 1.970 . S
O343 C342 1.258 . S
O344 Co341 1.966 . S
O344 C342 1.263 . S
C345 O346 1.235 . S
C345 O372 1.289 . S
O346 C345 1.235 . S
C347 C349 1.400 . S
C347 N350 1.351 . S
C347 C352 1.501 . S
C348 C349 1.387 . S
C348 N351 1.341 . S
C349 C347 1.400 . S
C349 C348 1.387 . S
N350 Co341 2.022 . S
N350 C347 1.351 . S
N350 N351 1.365 . S
N351 C348 1.341 . S
N351 N350 1.365 . S
N351 H371 0.862 . S
C352 C347 1.501 . S
C352 H353 0.961 . S
C352 H354 0.961 . S
C352 H355 0.960 . S
H353 C352 0.961 . S
H354 C352 0.961 . S
H355 C352 0.960 . S
C356 N357 1.342 . S
C356 C360 1.401 . S
C356 C361 1.499 . S
N357 Co340 1.989 . S
N357 C356 1.342 . S
N357 N358 1.388 . S
N358 Co341 1.993 . S
N358 N357 1.388 . S
N358 C359 1.346 . S
C359 N358 1.346 . S
C359 C360 1.396 . S
C359 C369 1.510 . S
C360 C356 1.401 . S
C360 C359 1.396 . S
C361 C356 1.499 . S
C361 H362 0.959 . S
C361 H363 0.960 . S
C361 H364 0.961 . S
H362 C361 0.959 . S
H363 C361 0.960 . S
H364 C361 0.961 . S
O365 Co340 1.967 . S
O365 C373 1.258 . S
O366 Co341 1.941 . S
O366 C373 1.266 . S
H367 C369 0.959 . S
H368 C369 0.961 . S
C369 C359 1.510 . S
C369 H367 0.959 . S
C369 H368 0.961 . S
C369 H370 0.960 . S
H370 C369 0.960 . S
H371 N351 0.862 . S
O372 Co340 1.920 . S
O372 C345 1.289 . S
C373 O365 1.258 . S
C373 O366 1.266 . S
Co374 O377 1.970 . S
Co374 N391 1.989 . S
Co374 O399 1.967 . S
Co374 O406 1.920 . S
Co375 O378 1.966 . S
Co375 N384 2.022 . S
Co375 N392 1.993 . S
Co375 O400 1.941 . S
C376 O377 1.258 . S
C376 O378 1.263 . S
O377 Co374 1.970 . S
O377 C376 1.258 . S
O378 Co375 1.966 . S
O378 C376 1.263 . S
C379 O380 1.235 . S
C379 O406 1.289 . S
O380 C379 1.235 . S
C381 C383 1.400 . S
C381 N384 1.351 . S
C381 C386 1.501 . S
C382 C383 1.402 . S
C382 N385 1.345 . S
C383 C381 1.400 . S
C383 C382 1.402 . S
N384 Co375 2.022 . S
N384 C381 1.351 . S
N384 N385 1.365 . S
N385 C382 1.345 . S
N385 N384 1.365 . S
N385 H405 0.862 1_565 S
C386 C381 1.501 . S
C386 H387 0.961 . S
C386 H388 0.961 . S
C386 H389 0.960 . S
H387 C386 0.961 . S
H388 C386 0.961 . S
H389 C386 0.960 . S
C390 N391 1.342 . S
C390 C394 1.401 . S
C390 C395 1.499 . S
N391 Co374 1.989 . S
N391 C390 1.342 . S
N391 N392 1.388 . S
N392 Co375 1.993 . S
N392 N391 1.388 . S
N392 C393 1.346 . S
C393 N392 1.346 . S
C393 C394 1.396 . S
C393 C403 1.510 . S
C394 C390 1.401 . S
C394 C393 1.396 . S
C395 C390 1.499 . S
C395 H396 0.959 . S
C395 H397 0.960 . S
C395 H398 0.961 . S
H396 C395 0.959 . S
H397 C395 0.960 . S
H398 C395 0.961 . S
O399 Co374 1.967 . S
O399 C407 1.258 . S
O400 Co375 1.941 . S
O400 C407 1.266 . S
H401 C403 0.959 . S
H402 C403 0.961 . S
C403 C393 1.510 . S
C403 H401 0.959 . S
C403 H402 0.961 . S
C403 H404 0.960 . S
H404 C403 0.960 . S
H405 N385 0.862 1_545 S
O406 Co374 1.920 . S
O406 C379 1.289 . S
C407 O399 1.258 . S
C407 O400 1.266 . S
Co408 O411 1.970 1_556 S
Co408 N425 1.989 1_556 S
Co408 O433 1.967 . S
Co408 O440 1.920 . S
Co409 O412 1.966 . S
Co409 N418 2.022 . S
Co409 N426 1.993 . S
Co409 O434 1.941 . S
C410 O411 1.258 . S
C410 O412 1.263 . S
O411 Co408 1.970 1_554 S
O411 C410 1.258 . S
O412 Co409 1.966 . S
O412 C410 1.263 . S
C413 O414 1.235 . S
C413 O440 1.289 . S
O414 C413 1.235 . S
C415 C417 1.400 . S
C415 N418 1.351 . S
C415 C420 1.501 . S
C416 C417 1.387 . S
C416 N419 1.341 . S
C417 C415 1.400 . S
C417 C416 1.387 . S
N418 Co409 2.022 . S
N418 C415 1.351 . S
N418 N419 1.365 . S
N419 C416 1.341 . S
N419 N418 1.365 . S
N419 H439 0.862 . S
C420 C415 1.501 . S
C420 H421 0.961 . S
C420 H422 0.961 . S
C420 H423 0.960 . S
H421 C420 0.961 . S
H422 C420 0.961 . S
H423 C420 0.960 . S
C424 N425 1.342 . S
C424 C428 1.401 . S
C424 C429 1.499 . S
N425 Co408 1.989 1_554 S
N425 C424 1.342 . S
N425 N426 1.388 . S
N426 Co409 1.993 . S
N426 N425 1.388 . S
N426 C427 1.346 . S
C427 N426 1.346 . S
C427 C428 1.396 . S
C427 C437 1.510 . S
C428 C424 1.401 . S
C428 C427 1.396 . S
C429 C424 1.499 . S
C429 H430 0.959 1_554 S
C429 H431 0.960 . S
C429 H432 0.961 . S
H430 C429 0.959 1_556 S
H431 C429 0.960 . S
H432 C429 0.961 . S
O433 Co408 1.967 . S
O433 C441 1.258 . S
O434 Co409 1.941 . S
O434 C441 1.266 1_554 S
H435 C437 0.959 . S
H436 C437 0.961 . S
C437 C427 1.510 . S
C437 H435 0.959 . S
C437 H436 0.961 . S
C437 H438 0.960 . S
H438 C437 0.960 . S
H439 N419 0.862 . S
O440 Co408 1.920 . S
O440 C413 1.289 . S
C441 O433 1.258 . S
C441 O434 1.266 1_556 S
Co442 O445 1.970 . S
Co442 N459 1.989 . S
Co442 O467 1.967 . S
Co442 O474 1.920 . S
Co443 O446 1.966 . S
Co443 N452 2.022 . S
Co443 N460 1.993 . S
Co443 O468 1.941 . S
C444 O445 1.258 . S
C444 O446 1.263 . S
O445 Co442 1.970 . S
O445 C444 1.258 . S
O446 Co443 1.966 . S
O446 C444 1.263 . S
C447 O448 1.235 . S
C447 O474 1.289 . S
O448 C447 1.235 . S
C449 C451 1.400 . S
C449 N452 1.351 . S
C449 C454 1.501 . S
C450 C451 1.402 . S
C450 N453 1.345 . S
C451 C449 1.400 . S
C451 C450 1.402 . S
N452 Co443 2.022 . S
N452 C449 1.351 . S
N452 N453 1.365 . S
N453 C450 1.345 . S
N453 N452 1.365 . S
N453 H473 0.862 1_545 S
C454 C449 1.501 . S
C454 H455 0.961 . S
C454 H456 0.961 . S
C454 H457 0.960 . S
H455 C454 0.961 . S
H456 C454 0.961 . S
H457 C454 0.960 . S
C458 N459 1.342 . S
C458 C462 1.401 . S
C458 C463 1.499 . S
N459 Co442 1.989 . S
N459 C458 1.342 . S
N459 N460 1.388 . S
N460 Co443 1.993 . S
N460 N459 1.388 . S
N460 C461 1.346 . S
C461 N460 1.346 . S
C461 C462 1.396 . S
C461 C471 1.510 . S
C462 C458 1.401 . S
C462 C461 1.396 . S
C463 C458 1.499 . S
C463 H464 0.959 . S
C463 H465 0.960 . S
C463 H466 0.961 . S
H464 C463 0.959 . S
H465 C463 0.960 . S
H466 C463 0.961 . S
O467 Co442 1.967 . S
O467 C475 1.258 . S
O468 Co443 1.941 . S
O468 C475 1.266 . S
H469 C471 0.959 . S
H470 C471 0.961 . S
C471 C461 1.510 . S
C471 H469 0.959 . S
C471 H470 0.961 . S
C471 H472 0.960 . S
H472 C471 0.960 . S
H473 N453 0.862 1_565 S
O474 Co442 1.920 . S
O474 C447 1.289 . S
C475 O467 1.258 . S
C475 O468 1.266 . S
Co476 O479 1.970 . S
Co476 N493 1.989 . S
Co476 O501 1.967 . S
Co476 O508 1.920 . S
Co477 O480 1.966 . S
Co477 N486 2.022 . S
Co477 N494 1.993 . S
Co477 O502 1.941 . S
C478 O479 1.258 . S
C478 O480 1.263 . S
O479 Co476 1.970 . S
O479 C478 1.258 . S
O480 Co477 1.966 . S
O480 C478 1.263 . S
C481 O482 1.235 . S
C481 O508 1.289 . S
O482 C481 1.235 . S
C483 C485 1.400 . S
C483 N486 1.351 . S
C483 C488 1.501 . S
C484 C485 1.387 . S
C484 N487 1.341 . S
C485 C483 1.400 . S
C485 C484 1.387 . S
N486 Co477 2.022 . S
N486 C483 1.351 . S
N486 N487 1.365 . S
N487 C484 1.341 . S
N487 N486 1.365 . S
N487 H507 0.862 . S
C488 C483 1.501 . S
C488 H489 0.961 . S
C488 H490 0.961 . S
C488 H491 0.960 . S
H489 C488 0.961 . S
H490 C488 0.961 . S
H491 C488 0.960 . S
C492 N493 1.342 . S
C492 C496 1.401 . S
C492 C497 1.499 . S
N493 Co476 1.989 . S
N493 C492 1.342 . S
N493 N494 1.388 . S
N494 Co477 1.993 . S
N494 N493 1.388 . S
N494 C495 1.346 . S
C495 N494 1.346 . S
C495 C496 1.396 . S
C495 C505 1.510 . S
C496 C492 1.401 . S
C496 C495 1.396 . S
C497 C492 1.499 . S
C497 H498 0.959 . S
C497 H499 0.960 . S
C497 H500 0.961 . S
H498 C497 0.959 . S
H499 C497 0.960 . S
H500 C497 0.961 . S
O501 Co476 1.967 . S
O501 C509 1.258 . S
O502 Co477 1.941 . S
O502 C509 1.266 . S
H503 C505 0.959 . S
H504 C505 0.961 . S
C505 C495 1.510 . S
C505 H503 0.959 . S
C505 H504 0.961 . S
C505 H506 0.960 . S
H506 C505 0.960 . S
H507 N487 0.862 . S
O508 Co476 1.920 . S
O508 C481 1.289 . S
C509 O501 1.258 . S
C509 O502 1.266 . S
Co510 O513 1.970 . S
Co510 N527 1.989 . S
Co510 O535 1.967 . S
Co510 O542 1.920 . S
Co511 O514 1.966 . S
Co511 N520 2.022 . S
Co511 N528 1.993 . S
Co511 O536 1.941 . S
C512 O513 1.258 . S
C512 O514 1.263 . S
O513 Co510 1.970 . S
O513 C512 1.258 . S
O514 Co511 1.966 . S
O514 C512 1.263 . S
C515 O516 1.235 . S
C515 O542 1.289 . S
O516 C515 1.235 . S
C517 C519 1.400 . S
C517 N520 1.351 . S
C517 C522 1.501 . S
C518 C519 1.402 . S
C518 N521 1.345 . S
C519 C517 1.400 . S
C519 C518 1.402 . S
N520 Co511 2.022 . S
N520 C517 1.351 . S
N520 N521 1.365 . S
N521 C518 1.345 . S
N521 N520 1.365 . S
N521 H541 0.862 1_565 S
C522 C517 1.501 . S
C522 H523 0.961 . S
C522 H524 0.961 . S
C522 H525 0.960 . S
H523 C522 0.961 . S
H524 C522 0.961 . S
H525 C522 0.960 . S
C526 N527 1.342 . S
C526 C530 1.401 . S
C526 C531 1.499 . S
N527 Co510 1.989 . S
N527 C526 1.342 . S
N527 N528 1.388 . S
N528 Co511 1.993 . S
N528 N527 1.388 . S
N528 C529 1.346 . S
C529 N528 1.346 . S
C529 C530 1.396 . S
C529 C539 1.510 . S
C530 C526 1.401 . S
C530 C529 1.396 . S
C531 C526 1.499 . S
C531 H532 0.959 . S
C531 H533 0.960 . S
C531 H534 0.961 . S
H532 C531 0.959 . S
H533 C531 0.960 . S
H534 C531 0.961 . S
O535 Co510 1.967 . S
O535 C543 1.258 . S
O536 Co511 1.941 . S
O536 C543 1.266 . S
H537 C539 0.959 . S
H538 C539 0.961 . S
C539 C529 1.510 . S
C539 H537 0.959 . S
C539 H538 0.961 . S
C539 H540 0.960 . S
H540 C539 0.960 . S
H541 N521 0.862 1_545 S
O542 Co510 1.920 . S
O542 C515 1.289 . S
C543 O535 1.258 . S
C543 O536 1.266 . S
Co544 O547 1.970 . S
Co544 N561 1.989 . S
Co544 O569 1.967 . S
Co544 O576 1.920 . S
Co545 O548 1.966 . S
Co545 N554 2.022 . S
Co545 N562 1.993 . S
Co545 O570 1.941 . S
C546 O547 1.258 . S
C546 O548 1.263 . S
O547 Co544 1.970 . S
O547 C546 1.258 . S
O548 Co545 1.966 . S
O548 C546 1.263 . S
C549 O550 1.235 . S
C549 O576 1.289 . S
O550 C549 1.235 . S
C551 C553 1.400 . S
C551 N554 1.351 . S
C551 C556 1.501 . S
C552 C553 1.387 . S
C552 N555 1.341 . S
C553 C551 1.400 . S
C553 C552 1.387 . S
N554 Co545 2.022 . S
N554 C551 1.351 . S
N554 N555 1.365 . S
N555 C552 1.341 . S
N555 N554 1.365 . S
N555 H575 0.862 . S
C556 C551 1.501 . S
C556 H557 0.961 . S
C556 H558 0.961 . S
C556 H559 0.960 . S
H557 C556 0.961 . S
H558 C556 0.961 . S
H559 C556 0.960 . S
C560 N561 1.342 . S
C560 C564 1.401 . S
C560 C565 1.499 . S
N561 Co544 1.989 . S
N561 C560 1.342 . S
N561 N562 1.388 . S
N562 Co545 1.993 . S
N562 N561 1.388 . S
N562 C563 1.346 . S
C563 N562 1.346 . S
C563 C564 1.396 . S
C563 C573 1.510 . S
C564 C560 1.401 . S
C564 C563 1.396 . S
C565 C560 1.499 . S
C565 H566 0.959 . S
C565 H567 0.960 . S
C565 H568 0.961 . S
H566 C565 0.959 . S
H567 C565 0.960 . S
H568 C565 0.961 . S
O569 Co544 1.967 . S
O569 C577 1.258 . S
O570 Co545 1.941 . S
O570 C577 1.266 . S
H571 C573 0.959 . S
H572 C573 0.961 . S
C573 C563 1.510 . S
C573 H571 0.959 . S
C573 H572 0.961 . S
C573 H574 0.960 . S
H574 C573 0.960 . S
H575 N555 0.862 . S
O576 Co544 1.920 . S
O576 C549 1.289 . S
C577 O569 1.258 . S
C577 O570 1.266 . S
Co578 O581 1.970 . S
Co578 N595 1.989 . S
Co578 O603 1.967 . S
Co578 O610 1.920 . S
Co579 O582 1.966 . S
Co579 N588 2.022 . S
Co579 N596 1.993 . S
Co579 O604 1.941 . S
C580 O581 1.258 . S
C580 O582 1.263 . S
O581 Co578 1.970 . S
O581 C580 1.258 . S
O582 Co579 1.966 . S
O582 C580 1.263 . S
C583 O584 1.235 . S
C583 O610 1.289 . S
O584 C583 1.235 . S
C585 C587 1.400 . S
C585 N588 1.351 . S
C585 C590 1.501 . S
C586 C587 1.387 . S
C586 N589 1.341 . S
C587 C585 1.400 . S
C587 C586 1.387 . S
N588 Co579 2.022 . S
N588 C585 1.351 . S
N588 N589 1.365 . S
N589 C586 1.341 . S
N589 N588 1.365 . S
N589 H609 0.862 . S
C590 C585 1.501 . S
C590 H591 0.961 . S
C590 H592 0.961 . S
C590 H593 0.960 . S
H591 C590 0.961 . S
H592 C590 0.961 . S
H593 C590 0.960 . S
C594 N595 1.342 . S
C594 C598 1.401 . S
C594 C599 1.499 . S
N595 Co578 1.989 . S
N595 C594 1.342 . S
N595 N596 1.388 . S
N596 Co579 1.993 . S
N596 N595 1.388 . S
N596 C597 1.346 . S
C597 N596 1.346 . S
C597 C598 1.396 . S
C597 C607 1.510 . S
C598 C594 1.401 . S
C598 C597 1.396 . S
C599 C594 1.499 . S
C599 H600 0.959 . S
C599 H601 0.960 . S
C599 H602 0.961 . S
H600 C599 0.959 . S
H601 C599 0.960 . S
H602 C599 0.961 . S
O603 Co578 1.967 . S
O603 C611 1.258 . S
O604 Co579 1.941 . S
O604 C611 1.266 . S
H605 C607 0.959 . S
H606 C607 0.961 . S
C607 C597 1.510 . S
C607 H605 0.959 . S
C607 H606 0.961 . S
C607 H608 0.960 . S
H608 C607 0.960 . S
H609 N589 0.862 . S
O610 Co578 1.920 . S
O610 C583 1.289 . S
C611 O603 1.258 . S
C611 O604 1.266 . S
Co612 O615 1.970 1_556 S
Co612 N629 1.989 1_556 S
Co612 O637 1.967 . S
Co612 O644 1.920 . S
Co613 O616 1.966 . S
Co613 N622 2.022 . S
Co613 N630 1.993 . S
Co613 O638 1.941 . S
C614 O615 1.258 . S
C614 O616 1.263 . S
O615 Co612 1.970 1_554 S
O615 C614 1.258 . S
O616 Co613 1.966 . S
O616 C614 1.263 . S
C617 O618 1.235 . S
C617 O644 1.289 . S
O618 C617 1.235 . S
C619 C621 1.400 . S
C619 N622 1.351 . S
C619 C624 1.501 . S
C620 C621 1.387 . S
C620 N623 1.341 . S
C621 C619 1.400 . S
C621 C620 1.387 . S
N622 Co613 2.022 . S
N622 C619 1.351 . S
N622 N623 1.365 . S
N623 C620 1.341 . S
N623 N622 1.365 . S
N623 H643 0.862 . S
C624 C619 1.501 . S
C624 H625 0.961 . S
C624 H626 0.961 . S
C624 H627 0.960 . S
H625 C624 0.961 . S
H626 C624 0.961 . S
H627 C624 0.960 . S
C628 N629 1.342 . S
C628 C632 1.401 . S
C628 C633 1.499 . S
N629 Co612 1.989 1_554 S
N629 C628 1.342 . S
N629 N630 1.388 . S
N630 Co613 1.993 . S
N630 N629 1.388 . S
N630 C631 1.346 . S
C631 N630 1.346 . S
C631 C632 1.396 . S
C631 C641 1.510 . S
C632 C628 1.401 . S
C632 C631 1.396 . S
C633 C628 1.499 . S
C633 H634 0.959 1_554 S
C633 H635 0.960 . S
C633 H636 0.961 . S
H634 C633 0.959 1_556 S
H635 C633 0.960 . S
H636 C633 0.961 . S
O637 Co612 1.967 . S
O637 C645 1.258 . S
O638 Co613 1.941 . S
O638 C645 1.266 1_554 S
H639 C641 0.959 . S
H640 C641 0.961 . S
C641 C631 1.510 . S
C641 H639 0.959 . S
C641 H640 0.961 . S
C641 H642 0.960 . S
H642 C641 0.960 . S
H643 N623 0.862 . S
O644 Co612 1.920 . S
O644 C617 1.289 . S
C645 O637 1.258 . S
C645 O638 1.266 1_556 S
Co646 O649 1.970 . S
Co646 N663 1.989 . S
Co646 O671 1.967 . S
Co646 O678 1.920 . S
Co647 O650 1.966 . S
Co647 N656 2.022 . S
Co647 N664 1.993 . S
Co647 O672 1.941 . S
C648 O649 1.258 . S
C648 O650 1.263 . S
O649 Co646 1.970 . S
O649 C648 1.258 . S
O650 Co647 1.966 . S
O650 C648 1.263 . S
C651 O652 1.235 . S
C651 O678 1.289 . S
O652 C651 1.235 . S
C653 C655 1.400 . S
C653 N656 1.351 . S
C653 C658 1.501 . S
C654 C655 1.387 . S
C654 N657 1.341 . S
C655 C653 1.400 . S
C655 C654 1.387 . S
N656 Co647 2.022 . S
N656 C653 1.351 . S
N656 N657 1.365 . S
N657 C654 1.341 . S
N657 N656 1.365 . S
N657 H677 0.862 . S
C658 C653 1.501 . S
C658 H659 0.961 . S
C658 H660 0.961 . S
C658 H661 0.960 . S
H659 C658 0.961 . S
H660 C658 0.961 . S
H661 C658 0.960 . S
C662 N663 1.342 . S
C662 C666 1.401 . S
C662 C667 1.499 . S
N663 Co646 1.989 . S
N663 C662 1.342 . S
N663 N664 1.388 . S
N664 Co647 1.993 . S
N664 N663 1.388 . S
N664 C665 1.346 . S
C665 N664 1.346 . S
C665 C666 1.396 . S
C665 C675 1.510 . S
C666 C662 1.401 . S
C666 C665 1.396 . S
C667 C662 1.499 . S
C667 H668 0.959 . S
C667 H669 0.960 . S
C667 H670 0.961 . S
H668 C667 0.959 . S
H669 C667 0.960 . S
H670 C667 0.961 . S
O671 Co646 1.967 . S
O671 C679 1.258 . S
O672 Co647 1.941 . S
O672 C679 1.266 . S
H673 C675 0.959 . S
H674 C675 0.961 . S
C675 C665 1.510 . S
C675 H673 0.959 . S
C675 H674 0.961 . S
C675 H676 0.960 . S
H676 C675 0.960 . S
H677 N657 0.862 . S
O678 Co646 1.920 . S
O678 C651 1.289 . S
C679 O671 1.258 . S
C679 O672 1.266 . S
Co680 O683 1.970 . S
Co680 N697 1.989 . S
Co680 O705 1.967 . S
Co680 O712 1.920 . S
Co681 O684 1.966 . S
Co681 N690 2.022 . S
Co681 N698 1.993 . S
Co681 O706 1.941 . S
C682 O683 1.258 . S
C682 O684 1.263 . S
O683 Co680 1.970 . S
O683 C682 1.258 . S
O684 Co681 1.966 . S
O684 C682 1.263 . S
C685 O686 1.235 . S
C685 O712 1.289 . S
O686 C685 1.235 . S
C687 C689 1.400 . S
C687 N690 1.351 . S
C687 C692 1.501 . S
C688 C689 1.387 . S
C688 N691 1.341 . S
C689 C687 1.400 . S
C689 C688 1.387 . S
N690 Co681 2.022 . S
N690 C687 1.351 . S
N690 N691 1.365 . S
N691 C688 1.341 . S
N691 N690 1.365 . S
N691 H711 0.862 . S
C692 C687 1.501 . S
C692 H693 0.961 . S
C692 H694 0.961 . S
C692 H695 0.960 . S
H693 C692 0.961 . S
H694 C692 0.961 . S
H695 C692 0.960 . S
C696 N697 1.342 . S
C696 C700 1.401 . S
C696 C701 1.499 . S
N697 Co680 1.989 . S
N697 C696 1.342 . S
N697 N698 1.388 . S
N698 Co681 1.993 . S
N698 N697 1.388 . S
N698 C699 1.346 . S
C699 N698 1.346 . S
C699 C700 1.396 . S
C699 C709 1.510 . S
C700 C696 1.401 . S
C700 C699 1.396 . S
C701 C696 1.499 . S
C701 H702 0.959 . S
C701 H703 0.960 . S
C701 H704 0.961 . S
H702 C701 0.959 . S
H703 C701 0.960 . S
H704 C701 0.961 . S
O705 Co680 1.967 . S
O705 C713 1.258 . S
O706 Co681 1.941 . S
O706 C713 1.266 . S
H707 C709 0.959 . S
H708 C709 0.961 . S
C709 C699 1.510 . S
C709 H707 0.959 . S
C709 H708 0.961 . S
C709 H710 0.960 . S
H710 C709 0.960 . S
H711 N691 0.862 . S
O712 Co680 1.920 . S
O712 C685 1.289 . S
C713 O705 1.258 . S
C713 O706 1.266 . S
Co714 O717 1.970 . S
Co714 N731 1.989 . S
Co714 O739 1.967 . S
Co714 O746 1.920 . S
Co715 O718 1.966 . S
Co715 N724 2.022 . S
Co715 N732 1.993 . S
Co715 O740 1.941 . S
C716 O717 1.258 . S
C716 O718 1.263 . S
O717 Co714 1.970 . S
O717 C716 1.258 . S
O718 Co715 1.966 . S
O718 C716 1.263 . S
C719 O720 1.235 . S
C719 O746 1.289 . S
O720 C719 1.235 . S
C721 C723 1.400 . S
C721 N724 1.351 . S
C721 C726 1.501 . S
C722 C723 1.387 . S
C722 N725 1.341 . S
C723 C721 1.400 . S
C723 C722 1.387 . S
N724 Co715 2.022 . S
N724 C721 1.351 . S
N724 N725 1.365 . S
N725 C722 1.341 . S
N725 N724 1.365 . S
N725 H745 0.862 . S
C726 C721 1.501 . S
C726 H727 0.961 . S
C726 H728 0.961 . S
C726 H729 0.960 . S
H727 C726 0.961 . S
H728 C726 0.961 . S
H729 C726 0.960 . S
C730 N731 1.342 . S
C730 C734 1.401 . S
C730 C735 1.499 . S
N731 Co714 1.989 . S
N731 C730 1.342 . S
N731 N732 1.388 . S
N732 Co715 1.993 . S
N732 N731 1.388 . S
N732 C733 1.346 . S
C733 N732 1.346 . S
C733 C734 1.396 . S
C733 C743 1.510 . S
C734 C730 1.401 . S
C734 C733 1.396 . S
C735 C730 1.499 . S
C735 H736 0.959 . S
C735 H737 0.960 . S
C735 H738 0.961 . S
H736 C735 0.959 . S
H737 C735 0.960 . S
H738 C735 0.961 . S
O739 Co714 1.967 . S
O739 C747 1.258 . S
O740 Co715 1.941 . S
O740 C747 1.266 . S
H741 C743 0.959 . S
H742 C743 0.961 . S
C743 C733 1.510 . S
C743 H741 0.959 . S
C743 H742 0.961 . S
C743 H744 0.960 . S
H744 C743 0.960 . S
H745 N725 0.862 . S
O746 Co714 1.920 . S
O746 C719 1.289 . S
C747 O739 1.258 . S
C747 O740 1.266 . S
Co748 O751 1.970 1_554 S
Co748 N765 1.989 1_554 S
Co748 O773 1.967 . S
Co748 O780 1.920 . S
Co749 O752 1.966 . S
Co749 N758 2.022 . S
Co749 N766 1.993 . S
Co749 O774 1.941 . S
C750 O751 1.258 . S
C750 O752 1.263 . S
O751 Co748 1.970 1_556 S
O751 C750 1.258 . S
O752 Co749 1.966 . S
O752 C750 1.263 . S
C753 O754 1.235 . S
C753 O780 1.289 . S
O754 C753 1.235 . S
C755 C757 1.400 . S
C755 N758 1.351 . S
C755 C760 1.501 . S
C756 C757 1.387 . S
C756 N759 1.341 . S
C757 C755 1.400 . S
C757 C756 1.387 . S
N758 Co749 2.022 . S
N758 C755 1.351 . S
N758 N759 1.365 . S
N759 C756 1.341 . S
N759 N758 1.365 . S
N759 H779 0.862 . S
C760 C755 1.501 . S
C760 H761 0.961 . S
C760 H762 0.961 . S
C760 H763 0.960 . S
H761 C760 0.961 . S
H762 C760 0.961 . S
H763 C760 0.960 . S
C764 N765 1.342 . S
C764 C768 1.401 . S
C764 C769 1.499 . S
N765 Co748 1.989 1_556 S
N765 C764 1.342 . S
N765 N766 1.388 . S
N766 Co749 1.993 . S
N766 N765 1.388 . S
N766 C767 1.346 . S
C767 N766 1.346 . S
C767 C768 1.396 . S
C767 C777 1.510 . S
C768 C764 1.401 . S
C768 C767 1.396 . S
C769 C764 1.499 . S
C769 H770 0.959 1_556 S
C769 H771 0.960 . S
C769 H772 0.961 . S
H770 C769 0.959 1_554 S
H771 C769 0.960 . S
H772 C769 0.961 . S
O773 Co748 1.967 . S
O773 C781 1.258 . S
O774 Co749 1.941 . S
O774 C781 1.266 1_556 S
H775 C777 0.959 . S
H776 C777 0.961 . S
C777 C767 1.510 . S
C777 H775 0.959 . S
C777 H776 0.961 . S
C777 H778 0.960 . S
H778 C777 0.960 . S
H779 N759 0.862 . S
O780 Co748 1.920 . S
O780 C753 1.289 . S
C781 O773 1.258 . S
C781 O774 1.266 1_554 S
Co782 O785 1.970 . S
Co782 N799 1.989 . S
Co782 O807 1.967 . S
Co782 O814 1.920 . S
Co783 O786 1.966 . S
Co783 N792 2.022 . S
Co783 N800 1.993 . S
Co783 O808 1.941 . S
C784 O785 1.258 . S
C784 O786 1.263 . S
O785 Co782 1.970 . S
O785 C784 1.258 . S
O786 Co783 1.966 . S
O786 C784 1.263 . S
C787 O788 1.235 . S
C787 O814 1.289 . S
O788 C787 1.235 . S
C789 C791 1.400 . S
C789 N792 1.351 . S
C789 C794 1.501 . S
C790 C791 1.387 . S
C790 N793 1.341 . S
C791 C789 1.400 . S
C791 C790 1.387 . S
N792 Co783 2.022 . S
N792 C789 1.351 . S
N792 N793 1.365 . S
N793 C790 1.341 . S
N793 N792 1.365 . S
N793 H813 0.862 . S
C794 C789 1.501 . S
C794 H795 0.961 . S
C794 H796 0.961 . S
C794 H797 0.960 . S
H795 C794 0.961 . S
H796 C794 0.961 . S
H797 C794 0.960 . S
C798 N799 1.342 . S
C798 C802 1.401 . S
C798 C803 1.499 . S
N799 Co782 1.989 . S
N799 C798 1.342 . S
N799 N800 1.388 . S
N800 Co783 1.993 . S
N800 N799 1.388 . S
N800 C801 1.346 . S
C801 N800 1.346 . S
C801 C802 1.396 . S
C801 C811 1.510 . S
C802 C798 1.401 . S
C802 C801 1.396 . S
C803 C798 1.499 . S
C803 H804 0.959 . S
C803 H805 0.960 . S
C803 H806 0.961 . S
H804 C803 0.959 . S
H805 C803 0.960 . S
H806 C803 0.961 . S
O807 Co782 1.967 . S
O807 C815 1.258 . S
O808 Co783 1.941 . S
O808 C815 1.266 . S
H809 C811 0.959 . S
H810 C811 0.961 . S
C811 C801 1.510 . S
C811 H809 0.959 . S
C811 H810 0.961 . S
C811 H812 0.960 . S
H812 C811 0.960 . S
H813 N793 0.862 . S
O814 Co782 1.920 . S
O814 C787 1.289 . S
C815 O807 1.258 . S
C815 O808 1.266 . S
Co816 O819 1.970 . S
Co816 N833 1.989 . S
Co816 O841 1.967 . S
Co816 O848 1.920 . S
Co817 O820 1.966 . S
Co817 N826 2.022 . S
Co817 N834 1.993 . S
Co817 O842 1.941 . S
C818 O819 1.258 . S
C818 O820 1.263 . S
O819 Co816 1.970 . S
O819 C818 1.258 . S
O820 Co817 1.966 . S
O820 C818 1.263 . S
C821 O822 1.235 . S
C821 O848 1.289 . S
O822 C821 1.235 . S
C823 C825 1.400 . S
C823 N826 1.351 . S
C823 C828 1.501 . S
C824 C825 1.387 . S
C824 N827 1.341 . S
C825 C823 1.400 . S
C825 C824 1.387 . S
N826 Co817 2.022 . S
N826 C823 1.351 . S
N826 N827 1.365 . S
N827 C824 1.341 . S
N827 N826 1.365 . S
N827 H847 0.862 . S
C828 C823 1.501 . S
C828 H829 0.961 . S
C828 H830 0.961 . S
C828 H831 0.960 . S
H829 C828 0.961 . S
H830 C828 0.961 . S
H831 C828 0.960 . S
C832 N833 1.342 . S
C832 C836 1.401 . S
C832 C837 1.499 . S
N833 Co816 1.989 . S
N833 C832 1.342 . S
N833 N834 1.388 . S
N834 Co817 1.993 . S
N834 N833 1.388 . S
N834 C835 1.346 . S
C835 N834 1.346 . S
C835 C836 1.396 . S
C835 C845 1.510 . S
C836 C832 1.401 . S
C836 C835 1.396 . S
C837 C832 1.499 . S
C837 H838 0.959 . S
C837 H839 0.960 . S
C837 H840 0.961 . S
H838 C837 0.959 . S
H839 C837 0.960 . S
H840 C837 0.961 . S
O841 Co816 1.967 . S
O841 C849 1.258 . S
O842 Co817 1.941 . S
O842 C849 1.266 . S
H843 C845 0.959 . S
H844 C845 0.961 . S
C845 C835 1.510 . S
C845 H843 0.959 . S
C845 H844 0.961 . S
C845 H846 0.960 . S
H846 C845 0.960 . S
H847 N827 0.862 . S
O848 Co816 1.920 . S
O848 C821 1.289 . S
C849 O841 1.258 . S
C849 O842 1.266 . S
Co850 O853 1.970 . S
Co850 N867 1.989 . S
Co850 O875 1.967 . S
Co850 O882 1.920 . S
Co851 O854 1.966 . S
Co851 N860 2.022 . S
Co851 N868 1.993 . S
Co851 O876 1.941 . S
C852 O853 1.258 . S
C852 O854 1.263 . S
O853 Co850 1.970 . S
O853 C852 1.258 . S
O854 Co851 1.966 . S
O854 C852 1.263 . S
C855 O856 1.235 . S
C855 O882 1.289 . S
O856 C855 1.235 . S
C857 C859 1.400 . S
C857 N860 1.351 . S
C857 C862 1.501 . S
C858 C859 1.387 . S
C858 N861 1.341 . S
C859 C857 1.400 . S
C859 C858 1.387 . S
N860 Co851 2.022 . S
N860 C857 1.351 . S
N860 N861 1.365 . S
N861 C858 1.341 . S
N861 N860 1.365 . S
N861 H881 0.862 . S
C862 C857 1.501 . S
C862 H863 0.961 . S
C862 H864 0.961 . S
C862 H865 0.960 . S
H863 C862 0.961 . S
H864 C862 0.961 . S
H865 C862 0.960 . S
C866 N867 1.342 . S
C866 C870 1.401 . S
C866 C871 1.499 . S
N867 Co850 1.989 . S
N867 C866 1.342 . S
N867 N868 1.388 . S
N868 Co851 1.993 . S
N868 N867 1.388 . S
N868 C869 1.346 . S
C869 N868 1.346 . S
C869 C870 1.396 . S
C869 C879 1.510 . S
C870 C866 1.401 . S
C870 C869 1.396 . S
C871 C866 1.499 . S
C871 H872 0.959 . S
C871 H873 0.960 . S
C871 H874 0.961 . S
H872 C871 0.959 . S
H873 C871 0.960 . S
H874 C871 0.961 . S
O875 Co850 1.967 . S
O875 C883 1.258 . S
O876 Co851 1.941 . S
O876 C883 1.266 . S
H877 C879 0.959 . S
H878 C879 0.961 . S
C879 C869 1.510 . S
C879 H877 0.959 . S
C879 H878 0.961 . S
C879 H880 0.960 . S
H880 C879 0.960 . S
H881 N861 0.862 . S
O882 Co850 1.920 . S
O882 C855 1.289 . S
C883 O875 1.258 . S
C883 O876 1.266 . S
Co884 O887 1.970 1_554 S
Co884 N901 1.989 1_554 S
Co884 O909 1.967 . S
Co884 O916 1.920 . S
Co885 O888 1.966 . S
Co885 N894 2.022 . S
Co885 N902 1.993 . S
Co885 O910 1.941 . S
C886 O887 1.258 . S
C886 O888 1.263 . S
O887 Co884 1.970 1_556 S
O887 C886 1.258 . S
O888 Co885 1.966 . S
O888 C886 1.263 . S
C889 O890 1.235 . S
C889 O916 1.289 . S
O890 C889 1.235 . S
C891 C893 1.400 . S
C891 N894 1.351 . S
C891 C896 1.501 . S
C892 C893 1.387 . S
C892 N895 1.341 . S
C893 C891 1.400 . S
C893 C892 1.387 . S
N894 Co885 2.022 . S
N894 C891 1.351 . S
N894 N895 1.365 . S
N895 C892 1.341 . S
N895 N894 1.365 . S
N895 H915 0.862 . S
C896 C891 1.501 . S
C896 H897 0.961 . S
C896 H898 0.961 . S
C896 H899 0.960 . S
H897 C896 0.961 . S
H898 C896 0.961 . S
H899 C896 0.960 . S
C900 N901 1.342 . S
C900 C904 1.401 . S
C900 C905 1.499 . S
N901 Co884 1.989 1_556 S
N901 C900 1.342 . S
N901 N902 1.388 . S
N902 Co885 1.993 . S
N902 N901 1.388 . S
N902 C903 1.346 . S
C903 N902 1.346 . S
C903 C904 1.396 . S
C903 C913 1.510 . S
C904 C900 1.401 . S
C904 C903 1.396 . S
C905 C900 1.499 . S
C905 H906 0.959 1_556 S
C905 H907 0.960 . S
C905 H908 0.961 . S
H906 C905 0.959 1_554 S
H907 C905 0.960 . S
H908 C905 0.961 . S
O909 Co884 1.967 . S
O909 C917 1.258 . S
O910 Co885 1.941 . S
O910 C917 1.266 1_556 S
H911 C913 0.959 . S
H912 C913 0.961 . S
C913 C903 1.510 . S
C913 H911 0.959 . S
C913 H912 0.961 . S
C913 H914 0.960 . S
H914 C913 0.960 . S
H915 N895 0.862 . S
O916 Co884 1.920 . S
O916 C889 1.289 . S
C917 O909 1.258 . S
C917 O910 1.266 1_554 S
Co918 O921 1.970 . S
Co918 N935 1.989 . S
Co918 O943 1.967 . S
Co918 O950 1.920 . S
Co919 O922 1.966 . S
Co919 N928 2.022 . S
Co919 N936 1.993 . S
Co919 O944 1.941 . S
C920 O921 1.258 . S
C920 O922 1.263 . S
O921 Co918 1.970 . S
O921 C920 1.258 . S
O922 Co919 1.966 . S
O922 C920 1.263 . S
C923 O924 1.235 . S
C923 O950 1.289 . S
O924 C923 1.235 . S
C925 C927 1.400 . S
C925 N928 1.351 . S
C925 C930 1.501 . S
C926 C927 1.387 . S
C926 N929 1.341 . S
C927 C925 1.400 . S
C927 C926 1.387 . S
N928 Co919 2.022 . S
N928 C925 1.351 . S
N928 N929 1.365 . S
N929 C926 1.341 . S
N929 N928 1.365 . S
N929 H949 0.862 . S
C930 C925 1.501 . S
C930 H931 0.961 . S
C930 H932 0.961 . S
C930 H933 0.960 . S
H931 C930 0.961 . S
H932 C930 0.961 . S
H933 C930 0.960 . S
C934 N935 1.342 . S
C934 C938 1.401 . S
C934 C939 1.499 . S
N935 Co918 1.989 . S
N935 C934 1.342 . S
N935 N936 1.388 . S
N936 Co919 1.993 . S
N936 N935 1.388 . S
N936 C937 1.346 . S
C937 N936 1.346 . S
C937 C938 1.396 . S
C937 C947 1.510 . S
C938 C934 1.401 . S
C938 C937 1.396 . S
C939 C934 1.499 . S
C939 H940 0.959 . S
C939 H941 0.960 . S
C939 H942 0.961 . S
H940 C939 0.959 . S
H941 C939 0.960 . S
H942 C939 0.961 . S
O943 Co918 1.967 . S
O943 C951 1.258 . S
O944 Co919 1.941 . S
O944 C951 1.266 . S
H945 C947 0.959 . S
H946 C947 0.961 . S
C947 C937 1.510 . S
C947 H945 0.959 . S
C947 H946 0.961 . S
C947 H948 0.960 . S
H948 C947 0.960 . S
H949 N929 0.862 . S
O950 Co918 1.920 . S
O950 C923 1.289 . S
C951 O943 1.258 . S
C951 O944 1.266 . S
Co952 O955 1.970 . S
Co952 N969 1.989 . S
Co952 O977 1.967 . S
Co952 O984 1.920 . S
Co953 O956 1.966 . S
Co953 N962 2.022 . S
Co953 N970 1.993 . S
Co953 O978 1.941 . S
C954 O955 1.258 . S
C954 O956 1.263 . S
O955 Co952 1.970 . S
O955 C954 1.258 . S
O956 Co953 1.966 . S
O956 C954 1.263 . S
C957 O958 1.235 . S
C957 O984 1.289 . S
O958 C957 1.235 . S
C959 C961 1.400 . S
C959 N962 1.351 . S
C959 C964 1.501 . S
C960 C961 1.387 . S
C960 N963 1.341 . S
C961 C959 1.400 . S
C961 C960 1.387 . S
N962 Co953 2.022 . S
N962 C959 1.351 . S
N962 N963 1.365 . S
N963 C960 1.341 . S
N963 N962 1.365 . S
N963 H983 0.862 . S
C964 C959 1.501 . S
C964 H965 0.961 . S
C964 H966 0.961 . S
C964 H967 0.960 . S
H965 C964 0.961 . S
H966 C964 0.961 . S
H967 C964 0.960 . S
C968 N969 1.342 . S
C968 C972 1.401 . S
C968 C973 1.499 . S
N969 Co952 1.989 . S
N969 C968 1.342 . S
N969 N970 1.388 . S
N970 Co953 1.993 . S
N970 N969 1.388 . S
N970 C971 1.346 . S
C971 N970 1.346 . S
C971 C972 1.396 . S
C971 C981 1.510 . S
C972 C968 1.401 . S
C972 C971 1.396 . S
C973 C968 1.499 . S
C973 H974 0.959 . S
C973 H975 0.960 . S
C973 H976 0.961 . S
H974 C973 0.959 . S
H975 C973 0.960 . S
H976 C973 0.961 . S
O977 Co952 1.967 . S
O977 C985 1.258 . S
O978 Co953 1.941 . S
O978 C985 1.266 . S
H979 C981 0.959 . S
H980 C981 0.961 . S
C981 C971 1.510 . S
C981 H979 0.959 . S
C981 H980 0.961 . S
C981 H982 0.960 . S
H982 C981 0.960 . S
H983 N963 0.862 . S
O984 Co952 1.920 . S
O984 C957 1.289 . S
C985 O977 1.258 . S
C985 O978 1.266 . S
Co986 O989 1.970 . S
Co986 N1003 1.989 . S
Co986 O1011 1.967 . S
Co986 O1018 1.920 . S
Co987 O990 1.966 . S
Co987 N996 2.022 . S
Co987 N1004 1.993 . S
Co987 O1012 1.941 . S
C988 O989 1.258 . S
C988 O990 1.263 . S
O989 Co986 1.970 . S
O989 C988 1.258 . S
O990 Co987 1.966 . S
O990 C988 1.263 . S
C991 O992 1.235 . S
C991 O1018 1.289 . S
O992 C991 1.235 . S
C993 C995 1.400 . S
C993 N996 1.351 . S
C993 C998 1.501 . S
C994 C995 1.387 . S
C994 N997 1.341 . S
C995 C993 1.400 . S
C995 C994 1.387 . S
N996 Co987 2.022 . S
N996 C993 1.351 . S
N996 N997 1.365 . S
N997 C994 1.341 . S
N997 N996 1.365 . S
N997 H1017 0.862 . S
C998 C993 1.501 . S
C998 H999 0.961 . S
C998 H1000 0.961 . S
C998 H1001 0.960 . S
H999 C998 0.961 . S
H1000 C998 0.961 . S
H1001 C998 0.960 . S
C1002 N1003 1.342 . S
C1002 C1006 1.401 . S
C1002 C1007 1.499 . S
N1003 Co986 1.989 . S
N1003 C1002 1.342 . S
N1003 N1004 1.388 . S
N1004 Co987 1.993 . S
N1004 N1003 1.388 . S
N1004 C1005 1.346 . S
C1005 N1004 1.346 . S
C1005 C1006 1.396 . S
C1005 C1015 1.510 . S
C1006 C1002 1.401 . S
C1006 C1005 1.396 . S
C1007 C1002 1.499 . S
C1007 H1008 0.959 . S
C1007 H1009 0.960 . S
C1007 H1010 0.961 . S
H1008 C1007 0.959 . S
H1009 C1007 0.960 . S
H1010 C1007 0.961 . S
O1011 Co986 1.967 . S
O1011 C1019 1.258 . S
O1012 Co987 1.941 . S
O1012 C1019 1.266 . S
H1013 C1015 0.959 . S
H1014 C1015 0.961 . S
C1015 C1005 1.510 . S
C1015 H1013 0.959 . S
C1015 H1014 0.961 . S
C1015 H1016 0.960 . S
H1016 C1015 0.960 . S
H1017 N997 0.862 . S
O1018 Co986 1.920 . S
O1018 C991 1.289 . S
C1019 O1011 1.258 . S
C1019 O1012 1.266 . S
Co1020 O1023 1.970 1_556 S
Co1020 N1037 1.989 1_556 S
Co1020 O1045 1.967 . S
Co1020 O1052 1.920 . S
Co1021 O1024 1.966 . S
Co1021 N1030 2.022 . S
Co1021 N1038 1.993 . S
Co1021 O1046 1.941 . S
C1022 O1023 1.258 . S
C1022 O1024 1.263 . S
O1023 Co1020 1.970 1_554 S
O1023 C1022 1.258 . S
O1024 Co1021 1.966 . S
O1024 C1022 1.263 . S
C1025 O1026 1.235 . S
C1025 O1052 1.289 . S
O1026 C1025 1.235 . S
C1027 C1029 1.400 . S
C1027 N1030 1.351 . S
C1027 C1032 1.501 . S
C1028 C1029 1.387 . S
C1028 N1031 1.341 . S
C1029 C1027 1.400 . S
C1029 C1028 1.387 . S
N1030 Co1021 2.022 . S
N1030 C1027 1.351 . S
N1030 N1031 1.365 . S
N1031 C1028 1.341 . S
N1031 N1030 1.365 . S
N1031 H1051 0.862 . S
C1032 C1027 1.501 . S
C1032 H1033 0.961 . S
C1032 H1034 0.961 . S
C1032 H1035 0.960 . S
H1033 C1032 0.961 . S
H1034 C1032 0.961 . S
H1035 C1032 0.960 . S
C1036 N1037 1.342 . S
C1036 C1040 1.401 . S
C1036 C1041 1.499 . S
N1037 Co1020 1.989 1_554 S
N1037 C1036 1.342 . S
N1037 N1038 1.388 . S
N1038 Co1021 1.993 . S
N1038 N1037 1.388 . S
N1038 C1039 1.346 . S
C1039 N1038 1.346 . S
C1039 C1040 1.396 . S
C1039 C1049 1.510 . S
C1040 C1036 1.401 . S
C1040 C1039 1.396 . S
C1041 C1036 1.499 . S
C1041 H1042 0.959 1_554 S
C1041 H1043 0.960 . S
C1041 H1044 0.961 . S
H1042 C1041 0.959 1_556 S
H1043 C1041 0.960 . S
H1044 C1041 0.961 . S
O1045 Co1020 1.967 . S
O1045 C1053 1.258 . S
O1046 Co1021 1.941 . S
O1046 C1053 1.266 1_554 S
H1047 C1049 0.959 . S
H1048 C1049 0.961 . S
C1049 C1039 1.510 . S
C1049 H1047 0.959 . S
C1049 H1048 0.961 . S
C1049 H1050 0.960 . S
H1050 C1049 0.960 . S
H1051 N1031 0.862 . S
O1052 Co1020 1.920 . S
O1052 C1025 1.289 . S
C1053 O1045 1.258 . S
C1053 O1046 1.266 1_556 S
Co1054 O1057 1.970 . S
Co1054 N1071 1.989 . S
Co1054 O1079 1.967 . S
Co1054 O1086 1.920 . S
Co1055 O1058 1.966 . S
Co1055 N1064 2.022 . S
Co1055 N1072 1.993 . S
Co1055 O1080 1.941 . S
C1056 O1057 1.258 . S
C1056 O1058 1.263 . S
O1057 Co1054 1.970 . S
O1057 C1056 1.258 . S
O1058 Co1055 1.966 . S
O1058 C1056 1.263 . S
C1059 O1060 1.235 . S
C1059 O1086 1.289 . S
O1060 C1059 1.235 . S
C1061 C1063 1.400 . S
C1061 N1064 1.351 . S
C1061 C1066 1.501 . S
C1062 C1063 1.387 . S
C1062 N1065 1.341 . S
C1063 C1061 1.400 . S
C1063 C1062 1.387 . S
N1064 Co1055 2.022 . S
N1064 C1061 1.351 . S
N1064 N1065 1.365 . S
N1065 C1062 1.341 . S
N1065 N1064 1.365 . S
N1065 H1085 0.862 . S
C1066 C1061 1.501 . S
C1066 H1067 0.961 . S
C1066 H1068 0.961 . S
C1066 H1069 0.960 . S
H1067 C1066 0.961 . S
H1068 C1066 0.961 . S
H1069 C1066 0.960 . S
C1070 N1071 1.342 . S
C1070 C1074 1.401 . S
C1070 C1075 1.499 . S
N1071 Co1054 1.989 . S
N1071 C1070 1.342 . S
N1071 N1072 1.388 . S
N1072 Co1055 1.993 . S
N1072 N1071 1.388 . S
N1072 C1073 1.346 . S
C1073 N1072 1.346 . S
C1073 C1074 1.396 . S
C1073 C1083 1.510 . S
C1074 C1070 1.401 . S
C1074 C1073 1.396 . S
C1075 C1070 1.499 . S
C1075 H1076 0.959 . S
C1075 H1077 0.960 . S
C1075 H1078 0.961 . S
H1076 C1075 0.959 . S
H1077 C1075 0.960 . S
H1078 C1075 0.961 . S
O1079 Co1054 1.967 . S
O1079 C1087 1.258 . S
O1080 Co1055 1.941 . S
O1080 C1087 1.266 . S
H1081 C1083 0.959 . S
H1082 C1083 0.961 . S
C1083 C1073 1.510 . S
C1083 H1081 0.959 . S
C1083 H1082 0.961 . S
C1083 H1084 0.960 . S
H1084 C1083 0.960 . S
H1085 N1065 0.862 . S
O1086 Co1054 1.920 . S
O1086 C1059 1.289 . S
C1087 O1079 1.258 . S
C1087 O1080 1.266 . S
C1088 C1089 1.387 . S
C1088 H1092 0.950 . S
C1088 C1097 1.390 . S
C1089 C1088 1.387 . S
C1089 C1091 1.387 . S
H1090 C1097 0.950 . S
C1091 C1089 1.387 . S
C1091 C1093 1.390 . S
C1091 H1095 0.950 . S
H1092 C1088 0.950 . S
C1093 C1091 1.390 . S
C1093 C1094 1.387 . S
C1093 H1096 0.950 . S
C1094 C1093 1.387 . S
C1094 C1097 1.387 . S
H1095 C1091 0.950 . S
H1096 C1093 0.950 . S
C1097 C1088 1.390 . S
C1097 H1090 0.950 . S
C1097 C1094 1.387 . S
C1098 C1099 1.387 . S
C1098 H1102 0.950 . S
C1098 C1107 1.390 . S
C1099 C1098 1.387 . S
C1099 C1101 1.387 . S
H1100 C1107 0.950 . S
C1101 C1099 1.387 . S
C1101 C1103 1.390 . S
C1101 H1105 0.950 . S
H1102 C1098 0.950 . S
C1103 C1101 1.390 . S
C1103 C1104 1.387 . S
C1103 H1106 0.950 . S
C1104 C1103 1.387 . S
C1104 C1107 1.387 . S
H1105 C1101 0.950 . S
H1106 C1103 0.950 . S
C1107 C1098 1.390 . S
C1107 H1100 0.950 . S
C1107 C1104 1.387 . S
C1108 C1109 1.387 . S
C1108 H1112 0.950 . S
C1108 C1117 1.390 . S
C1109 C1108 1.387 . S
C1109 C1111 1.387 . S
H1110 C1117 0.950 . S
C1111 C1109 1.387 . S
C1111 C1113 1.390 . S
C1111 H1115 0.950 . S
H1112 C1108 0.950 . S
C1113 C1111 1.390 . S
C1113 C1114 1.387 . S
C1113 H1116 0.950 1_565 S
C1114 C1113 1.387 . S
C1114 C1117 1.387 . S
H1115 C1111 0.950 . S
H1116 C1113 0.950 1_545 S
C1117 C1108 1.390 . S
C1117 H1110 0.950 . S
C1117 C1114 1.387 . S
C1118 C1119 1.387 . S
C1118 H1122 0.950 . S
C1118 C1127 1.390 . S
C1119 C1118 1.387 . S
C1119 C1121 1.387 . S
H1120 C1127 0.950 . S
C1121 C1119 1.387 . S
C1121 C1123 1.390 . S
C1121 H1125 0.950 . S
H1122 C1118 0.950 . S
C1123 C1121 1.390 . S
C1123 C1124 1.387 . S
C1123 H1126 0.950 . S
C1124 C1123 1.387 . S
C1124 C1127 1.387 . S
H1125 C1121 0.950 . S
H1126 C1123 0.950 . S
C1127 C1118 1.390 . S
C1127 H1120 0.950 . S
C1127 C1124 1.387 . S
C1128 C1129 1.387 . S
C1128 H1132 0.950 . S
C1128 C1137 1.390 . S
C1129 C1128 1.387 . S
C1129 C1131 1.387 . S
H1130 C1137 0.950 . S
C1131 C1129 1.387 . S
C1131 C1133 1.390 . S
C1131 H1135 0.950 . S
H1132 C1128 0.950 . S
C1133 C1131 1.390 . S
C1133 C1134 1.387 . S
C1133 H1136 0.950 1_565 S
C1134 C1133 1.387 . S
C1134 C1137 1.387 . S
H1135 C1131 0.950 . S
H1136 C1133 0.950 1_545 S
C1137 C1128 1.390 . S
C1137 H1130 0.950 . S
C1137 C1134 1.387 . S
C1138 C1139 1.387 . S
C1138 H1142 0.950 . S
C1138 C1147 1.390 . S
C1139 C1138 1.387 . S
C1139 C1141 1.387 . S
H1140 C1147 0.950 . S
C1141 C1139 1.387 . S
C1141 C1143 1.390 . S
C1141 H1145 0.950 . S
H1142 C1138 0.950 . S
C1143 C1141 1.390 . S
C1143 C1144 1.387 . S
C1143 H1146 0.950 . S
C1144 C1143 1.387 . S
C1144 C1147 1.387 . S
H1145 C1141 0.950 . S
H1146 C1143 0.950 . S
C1147 C1138 1.390 . S
C1147 H1140 0.950 . S
C1147 C1144 1.387 . S
C1148 C1149 1.387 . S
C1148 H1152 0.950 . S
C1148 C1157 1.390 . S
C1149 C1148 1.387 . S
C1149 C1151 1.387 . S
H1150 C1157 0.950 . S
C1151 C1149 1.387 . S
C1151 C1153 1.390 . S
C1151 H1155 0.950 . S
H1152 C1148 0.950 . S
C1153 C1151 1.390 . S
C1153 C1154 1.387 . S
C1153 H1156 0.950 1_545 S
C1154 C1153 1.387 . S
C1154 C1157 1.387 . S
H1155 C1151 0.950 . S
H1156 C1153 0.950 1_565 S
C1157 C1148 1.390 . S
C1157 H1150 0.950 . S
C1157 C1154 1.387 . S
C1158 C1159 1.387 . S
C1158 H1162 0.950 . S
C1158 C1167 1.390 . S
C1159 C1158 1.387 . S
C1159 C1161 1.387 . S
H1160 C1167 0.950 . S
C1161 C1159 1.387 . S
C1161 C1163 1.390 . S
C1161 H1165 0.950 . S
H1162 C1158 0.950 . S
C1163 C1161 1.390 . S
C1163 C1164 1.387 . S
C1163 H1166 0.950 . S
C1164 C1163 1.387 . S
C1164 C1167 1.387 . S
H1165 C1161 0.950 . S
H1166 C1163 0.950 . S
C1167 C1158 1.390 . S
C1167 H1160 0.950 . S
C1167 C1164 1.387 . S
C1168 C1169 1.387 . S
C1168 H1172 0.950 1_565 S
C1168 C1177 1.390 . S
C1169 C1168 1.387 . S
C1169 C1171 1.387 . S
H1170 C1177 0.950 . S
C1171 C1169 1.387 . S
C1171 C1173 1.390 . S
C1171 H1175 0.950 . S
H1172 C1168 0.950 1_545 S
C1173 C1171 1.390 . S
C1173 C1174 1.387 . S
C1173 H1176 0.950 . S
C1174 C1173 1.387 . S
C1174 C1177 1.387 . S
H1175 C1171 0.950 . S
H1176 C1173 0.950 . S
C1177 C1168 1.390 . S
C1177 H1170 0.950 . S
C1177 C1174 1.387 . S
C1178 C1179 1.387 . S
C1178 H1182 0.950 . S
C1178 C1187 1.390 . S
C1179 C1178 1.387 . S
C1179 C1181 1.387 . S
H1180 C1187 0.950 . S
C1181 C1179 1.387 . S
C1181 C1183 1.390 . S
C1181 H1185 0.950 . S
H1182 C1178 0.950 . S
C1183 C1181 1.390 . S
C1183 C1184 1.387 . S
C1183 H1186 0.950 . S
C1184 C1183 1.387 . S
C1184 C1187 1.387 . S
H1185 C1181 0.950 . S
H1186 C1183 0.950 . S
C1187 C1178 1.390 . S
C1187 H1180 0.950 . S
C1187 C1184 1.387 . S
C1188 C1189 1.387 . S
C1188 H1192 0.950 . S
C1188 C1197 1.390 . S
C1189 C1188 1.387 . S
C1189 C1191 1.387 . S
H1190 C1197 0.950 . S
C1191 C1189 1.387 . S
C1191 C1193 1.390 . S
C1191 H1195 0.950 . S
H1192 C1188 0.950 . S
C1193 C1191 1.390 . S
C1193 C1194 1.387 . S
C1193 H1196 0.950 . S
C1194 C1193 1.387 . S
C1194 C1197 1.387 . S
H1195 C1191 0.950 . S
H1196 C1193 0.950 . S
C1197 C1188 1.390 . S
C1197 H1190 0.950 . S
C1197 C1194 1.387 . S
C1198 C1199 1.387 . S
C1198 H1202 0.950 . S
C1198 C1207 1.390 . S
C1199 C1198 1.387 . S
C1199 C1201 1.387 . S
H1200 C1207 0.950 . S
C1201 C1199 1.387 . S
C1201 C1203 1.390 . S
C1201 H1205 0.950 . S
H1202 C1198 0.950 . S
C1203 C1201 1.390 . S
C1203 C1204 1.387 . S
C1203 H1206 0.950 . S
C1204 C1203 1.387 . S
C1204 C1207 1.387 . S
H1205 C1201 0.950 . S
H1206 C1203 0.950 . S
C1207 C1198 1.390 . S
C1207 H1200 0.950 . S
C1207 C1204 1.387 . S
C1208 C1209 1.387 . S
C1208 H1212 0.950 . S
C1208 C1217 1.390 . S
C1209 C1208 1.387 . S
C1209 C1211 1.387 . S
H1210 C1217 0.950 . S
C1211 C1209 1.387 . S
C1211 C1213 1.390 . S
C1211 H1215 0.950 . S
H1212 C1208 0.950 . S
C1213 C1211 1.390 . S
C1213 C1214 1.387 . S
C1213 H1216 0.950 . S
C1214 C1213 1.387 . S
C1214 C1217 1.387 . S
H1215 C1211 0.950 . S
H1216 C1213 0.950 . S
C1217 C1208 1.390 . S
C1217 H1210 0.950 . S
C1217 C1214 1.387 . S
C1218 C1219 1.387 . S
C1218 H1222 0.950 . S
C1218 C1227 1.390 . S
C1219 C1218 1.387 . S
C1219 C1221 1.387 . S
H1220 C1227 0.950 . S
C1221 C1219 1.387 . S
C1221 C1223 1.390 . S
C1221 H1225 0.950 . S
H1222 C1218 0.950 . S
C1223 C1221 1.390 . S
C1223 C1224 1.387 . S
C1223 H1226 0.950 . S
C1224 C1223 1.387 . S
C1224 C1227 1.387 . S
H1225 C1221 0.950 . S
H1226 C1223 0.950 . S
C1227 C1218 1.390 . S
C1227 H1220 0.950 . S
C1227 C1224 1.387 . S
C1228 C1229 1.387 . S
C1228 H1232 0.950 . S
C1228 C1237 1.390 . S
C1229 C1228 1.387 . S
C1229 C1231 1.387 . S
H1230 C1237 0.950 . S
C1231 C1229 1.387 . S
C1231 C1233 1.390 . S
C1231 H1235 0.950 1_565 S
H1232 C1228 0.950 . S
C1233 C1231 1.390 . S
C1233 C1234 1.387 . S
C1233 H1236 0.950 . S
C1234 C1233 1.387 . S
C1234 C1237 1.387 . S
H1235 C1231 0.950 1_545 S
H1236 C1233 0.950 . S
C1237 C1228 1.390 . S
C1237 H1230 0.950 . S
C1237 C1234 1.387 . S
C1238 C1239 1.387 . S
C1238 H1242 0.950 . S
C1238 C1247 1.390 . S
C1239 C1238 1.387 . S
C1239 C1241 1.387 . S
H1240 C1247 0.950 . S
C1241 C1239 1.387 . S
C1241 C1243 1.390 . S
C1241 H1245 0.950 . S
H1242 C1238 0.950 . S
C1243 C1241 1.390 . S
C1243 C1244 1.387 . S
C1243 H1246 0.950 . S
C1244 C1243 1.387 . S
C1244 C1247 1.387 . S
H1245 C1241 0.950 . S
H1246 C1243 0.950 . S
C1247 C1238 1.390 . S
C1247 H1240 0.950 . S
C1247 C1244 1.387 . S
C1248 C1249 1.387 . S
C1248 H1252 0.950 . S
C1248 C1257 1.390 . S
C1249 C1248 1.387 . S
C1249 C1251 1.387 . S
H1250 C1257 0.950 . S
C1251 C1249 1.387 . S
C1251 C1253 1.390 . S
C1251 H1255 0.950 . S
H1252 C1248 0.950 . S
C1253 C1251 1.390 . S
C1253 C1254 1.387 . S
C1253 H1256 0.950 . S
C1254 C1253 1.387 . S
C1254 C1257 1.387 . S
H1255 C1251 0.950 . S
H1256 C1253 0.950 . S
C1257 C1248 1.390 . S
C1257 H1250 0.950 . S
C1257 C1254 1.387 . S
C1258 C1259 1.387 . S
C1258 H1262 0.950 . S
C1258 C1267 1.390 . S
C1259 C1258 1.387 . S
C1259 C1261 1.387 . S
H1260 C1267 0.950 . S
C1261 C1259 1.387 . S
C1261 C1263 1.390 . S
C1261 H1265 0.950 . S
H1262 C1258 0.950 . S
C1263 C1261 1.390 . S
C1263 C1264 1.387 . S
C1263 H1266 0.950 . S
C1264 C1263 1.387 . S
C1264 C1267 1.387 . S
H1265 C1261 0.950 . S
H1266 C1263 0.950 . S
C1267 C1258 1.390 . S
C1267 H1260 0.950 . S
C1267 C1264 1.387 . S
C1268 C1269 1.387 . S
C1268 H1272 0.950 . S
C1268 C1277 1.390 . S
C1269 C1268 1.387 . S
C1269 C1271 1.387 . S
H1270 C1277 0.950 . S
C1271 C1269 1.387 . S
C1271 C1273 1.390 . S
C1271 H1275 0.950 . S
H1272 C1268 0.950 . S
C1273 C1271 1.390 . S
C1273 C1274 1.387 . S
C1273 H1276 0.950 . S
C1274 C1273 1.387 . S
C1274 C1277 1.387 . S
H1275 C1271 0.950 . S
H1276 C1273 0.950 . S
C1277 C1268 1.390 . S
C1277 H1270 0.950 . S
C1277 C1274 1.387 . S
C1278 C1279 1.387 . S
C1278 H1282 0.950 . S
C1278 C1287 1.390 . S
C1279 C1278 1.387 . S
C1279 C1281 1.387 . S
H1280 C1287 0.950 . S
C1281 C1279 1.387 . S
C1281 C1283 1.390 . S
C1281 H1285 0.950 . S
H1282 C1278 0.950 . S
C1283 C1281 1.390 . S
C1283 C1284 1.387 . S
C1283 H1286 0.950 . S
C1284 C1283 1.387 . S
C1284 C1287 1.387 . S
H1285 C1281 0.950 . S
H1286 C1283 0.950 . S
C1287 C1278 1.390 . S
C1287 H1280 0.950 . S
C1287 C1284 1.387 . S
C1288 C1289 1.387 . S
C1288 H1292 0.950 . S
C1288 C1297 1.390 . S
C1289 C1288 1.387 . S
C1289 C1291 1.387 . S
H1290 C1297 0.950 . S
C1291 C1289 1.387 . S
C1291 C1293 1.390 . S
C1291 H1295 0.950 . S
H1292 C1288 0.950 . S
C1293 C1291 1.390 . S
C1293 C1294 1.387 . S
C1293 H1296 0.950 . S
C1294 C1293 1.387 . S
C1294 C1297 1.387 . S
H1295 C1291 0.950 . S
H1296 C1293 0.950 . S
C1297 C1288 1.390 . S
C1297 H1290 0.950 . S
C1297 C1294 1.387 . S
C1298 C1299 1.387 . S
C1298 H1302 0.950 . S
C1298 C1307 1.390 . S
C1299 C1298 1.387 . S
C1299 C1301 1.387 . S
H1300 C1307 0.950 . S
C1301 C1299 1.387 . S
C1301 C1303 1.390 . S
C1301 H1305 0.950 . S
H1302 C1298 0.950 . S
C1303 C1301 1.390 . S
C1303 C1304 1.387 . S
C1303 H1306 0.950 . S
C1304 C1303 1.387 . S
C1304 C1307 1.387 . S
H1305 C1301 0.950 . S
H1306 C1303 0.950 . S
C1307 C1298 1.390 . S
C1307 H1300 0.950 . S
C1307 C1304 1.387 . S
C1308 C1309 1.387 . S
C1308 H1312 0.950 . S
C1308 C1317 1.390 . S
C1309 C1308 1.387 . S
C1309 C1311 1.387 . S
H1310 C1317 0.950 . S
C1311 C1309 1.387 . S
C1311 C1313 1.390 . S
C1311 H1315 0.950 . S
H1312 C1308 0.950 . S
C1313 C1311 1.390 . S
C1313 C1314 1.387 . S
C1313 H1316 0.950 . S
C1314 C1313 1.387 . S
C1314 C1317 1.387 . S
H1315 C1311 0.950 . S
H1316 C1313 0.950 . S
C1317 C1308 1.390 . S
C1317 H1310 0.950 . S
C1317 C1314 1.387 . S
C1318 C1319 1.387 . S
C1318 H1322 0.950 . S
C1318 C1327 1.390 . S
C1319 C1318 1.387 . S
C1319 C1321 1.387 . S
H1320 C1327 0.950 . S
C1321 C1319 1.387 . S
C1321 C1323 1.390 . S
C1321 H1325 0.950 . S
H1322 C1318 0.950 . S
C1323 C1321 1.390 . S
C1323 C1324 1.387 . S
C1323 H1326 0.950 . S
C1324 C1323 1.387 . S
C1324 C1327 1.387 . S
H1325 C1321 0.950 . S
H1326 C1323 0.950 . S
C1327 C1318 1.390 . S
C1327 H1320 0.950 . S
C1327 C1324 1.387 . S
C1328 C1329 1.387 . S
C1328 H1332 0.950 . S
C1328 C1337 1.390 . S
C1329 C1328 1.387 . S
C1329 C1331 1.387 . S
H1330 C1337 0.950 . S
C1331 C1329 1.387 . S
C1331 C1333 1.390 . S
C1331 H1335 0.950 . S
H1332 C1328 0.950 . S
C1333 C1331 1.390 . S
C1333 C1334 1.387 . S
C1333 H1336 0.950 . S
C1334 C1333 1.387 . S
C1334 C1337 1.387 . S
H1335 C1331 0.950 . S
H1336 C1333 0.950 . S
C1337 C1328 1.390 . S
C1337 H1330 0.950 . S
C1337 C1334 1.387 . S
C1338 C1339 1.387 . S
C1338 H1342 0.950 . S
C1338 C1347 1.390 . S
C1339 C1338 1.387 . S
C1339 C1341 1.387 . S
H1340 C1347 0.950 . S
C1341 C1339 1.387 . S
C1341 C1343 1.390 . S
C1341 H1345 0.950 . S
H1342 C1338 0.950 . S
C1343 C1341 1.390 . S
C1343 C1344 1.387 . S
C1343 H1346 0.950 . S
C1344 C1343 1.387 . S
C1344 C1347 1.387 . S
H1345 C1341 0.950 . S
H1346 C1343 0.950 . S
C1347 C1338 1.390 . S
C1347 H1340 0.950 . S
C1347 C1344 1.387 . S
C1348 C1349 1.387 . S
C1348 H1352 0.950 . S
C1348 C1357 1.390 . S
C1349 C1348 1.387 . S
C1349 C1351 1.387 . S
H1350 C1357 0.950 . S
C1351 C1349 1.387 . S
C1351 C1353 1.390 . S
C1351 H1355 0.950 . S
H1352 C1348 0.950 . S
C1353 C1351 1.390 . S
C1353 C1354 1.387 . S
C1353 H1356 0.950 . S
C1354 C1353 1.387 . S
C1354 C1357 1.387 . S
H1355 C1351 0.950 . S
H1356 C1353 0.950 . S
C1357 C1348 1.390 . S
C1357 H1350 0.950 . S
C1357 C1354 1.387 . S
C1358 C1359 1.387 . S
C1358 H1362 0.950 . S
C1358 C1367 1.390 . S
C1359 C1358 1.387 . S
C1359 C1361 1.387 . S
H1360 C1367 0.950 . S
C1361 C1359 1.387 . S
C1361 C1363 1.390 . S
C1361 H1365 0.950 . S
H1362 C1358 0.950 . S
C1363 C1361 1.390 . S
C1363 C1364 1.387 . S
C1363 H1366 0.950 . S
C1364 C1363 1.387 . S
C1364 C1367 1.387 . S
H1365 C1361 0.950 . S
H1366 C1363 0.950 . S
C1367 C1358 1.390 . S
C1367 H1360 0.950 . S
C1367 C1364 1.387 . S
C1368 C1369 1.387 . S
C1368 H1372 0.950 . S
C1368 C1377 1.390 . S
C1369 C1368 1.387 . S
C1369 C1371 1.387 . S
H1370 C1377 0.950 . S
C1371 C1369 1.387 . S
C1371 C1373 1.390 . S
C1371 H1375 0.950 . S
H1372 C1368 0.950 . S
C1373 C1371 1.390 . S
C1373 C1374 1.387 . S
C1373 H1376 0.950 . S
C1374 C1373 1.387 . S
C1374 C1377 1.387 . S
H1375 C1371 0.950 . S
H1376 C1373 0.950 . S
C1377 C1368 1.390 . S
C1377 H1370 0.950 . S
C1377 C1374 1.387 . S
C1378 C1379 1.387 . S
C1378 H1382 0.950 . S
C1378 C1387 1.390 . S
C1379 C1378 1.387 . S
C1379 C1381 1.387 . S
H1380 C1387 0.950 . S
C1381 C1379 1.387 . S
C1381 C1383 1.390 . S
C1381 H1385 0.950 . S
H1382 C1378 0.950 . S
C1383 C1381 1.390 . S
C1383 C1384 1.387 . S
C1383 H1386 0.950 . S
C1384 C1383 1.387 . S
C1384 C1387 1.387 . S
H1385 C1381 0.950 . S
H1386 C1383 0.950 . S
C1387 C1378 1.390 . S
C1387 H1380 0.950 . S
C1387 C1384 1.387 . S
C1388 C1389 1.387 . S
C1388 H1392 0.950 . S
C1388 C1397 1.390 . S
C1389 C1388 1.387 . S
C1389 C1391 1.387 . S
H1390 C1397 0.950 . S
C1391 C1389 1.387 . S
C1391 C1393 1.390 . S
C1391 H1395 0.950 . S
H1392 C1388 0.950 . S
C1393 C1391 1.390 . S
C1393 C1394 1.387 . S
C1393 H1396 0.950 . S
C1394 C1393 1.387 . S
C1394 C1397 1.387 . S
H1395 C1391 0.950 . S
H1396 C1393 0.950 . S
C1397 C1388 1.390 . S
C1397 H1390 0.950 . S
C1397 C1394 1.387 . S
C1398 C1399 1.387 . S
C1398 H1402 0.950 . S
C1398 C1407 1.390 . S
C1399 C1398 1.387 . S
C1399 C1401 1.387 . S
H1400 C1407 0.950 . S
C1401 C1399 1.387 . S
C1401 C1403 1.390 . S
C1401 H1405 0.950 . S
H1402 C1398 0.950 . S
C1403 C1401 1.390 . S
C1403 C1404 1.387 . S
C1403 H1406 0.950 . S
C1404 C1403 1.387 . S
C1404 C1407 1.387 . S
H1405 C1401 0.950 . S
H1406 C1403 0.950 . S
C1407 C1398 1.390 . S
C1407 H1400 0.950 . S
C1407 C1404 1.387 . S
C1408 C1409 1.387 . S
C1408 H1412 0.950 . S
C1408 C1417 1.390 . S
C1409 C1408 1.387 . S
C1409 C1411 1.387 . S
H1410 C1417 0.950 . S
C1411 C1409 1.387 . S
C1411 C1413 1.390 . S
C1411 H1415 0.950 . S
H1412 C1408 0.950 . S
C1413 C1411 1.390 . S
C1413 C1414 1.387 . S
C1413 H1416 0.950 . S
C1414 C1413 1.387 . S
C1414 C1417 1.387 . S
H1415 C1411 0.950 . S
H1416 C1413 0.950 . S
C1417 C1408 1.390 . S
C1417 H1410 0.950 . S
C1417 C1414 1.387 . S
C1418 C1419 1.387 . S
C1418 H1422 0.950 . S
C1418 C1427 1.390 1_565 S
C1419 C1418 1.387 . S
C1419 C1421 1.387 . S
H1420 C1427 0.950 . S
C1421 C1419 1.387 . S
C1421 C1423 1.390 1_565 S
C1421 H1425 0.950 . S
H1422 C1418 0.950 . S
C1423 C1421 1.390 1_545 S
C1423 C1424 1.387 . S
C1423 H1426 0.950 . S
C1424 C1423 1.387 . S
C1424 C1427 1.387 . S
H1425 C1421 0.950 . S
H1426 C1423 0.950 . S
C1427 C1418 1.390 1_545 S
C1427 H1420 0.950 . S
C1427 C1424 1.387 . S
C1428 C1429 1.387 . S
C1428 H1432 0.950 . S
C1428 C1437 1.390 . S
C1429 C1428 1.387 . S
C1429 C1431 1.387 . S
H1430 C1437 0.950 . S
C1431 C1429 1.387 . S
C1431 C1433 1.390 . S
C1431 H1435 0.950 . S
H1432 C1428 0.950 . S
C1433 C1431 1.390 . S
C1433 C1434 1.387 . S
C1433 H1436 0.950 . S
C1434 C1433 1.387 . S
C1434 C1437 1.387 . S
H1435 C1431 0.950 . S
H1436 C1433 0.950 . S
C1437 C1428 1.390 . S
C1437 H1430 0.950 . S
C1437 C1434 1.387 . S
C1438 C1439 1.387 . S
C1438 H1442 0.950 . S
C1438 C1447 1.390 1_546 S
C1439 C1438 1.387 . S
C1439 C1441 1.387 . S
H1440 C1447 0.950 . S
C1441 C1439 1.387 . S
C1441 C1443 1.390 1_546 S
C1441 H1445 0.950 . S
H1442 C1438 0.950 . S
C1443 C1441 1.390 1_564 S
C1443 C1444 1.387 . S
C1443 H1446 0.950 . S
C1444 C1443 1.387 . S
C1444 C1447 1.387 . S
H1445 C1441 0.950 . S
H1446 C1443 0.950 . S
C1447 C1438 1.390 1_564 S
C1447 H1440 0.950 . S
C1447 C1444 1.387 . S
C1448 C1449 1.387 . S
C1448 H1452 0.950 . S
C1448 C1457 1.390 . S
C1449 C1448 1.387 . S
C1449 C1451 1.387 . S
H1450 C1457 0.950 . S
C1451 C1449 1.387 . S
C1451 C1453 1.390 . S
C1451 H1455 0.950 . S
H1452 C1448 0.950 . S
C1453 C1451 1.390 . S
C1453 C1454 1.387 . S
C1453 H1456 0.950 . S
C1454 C1453 1.387 . S
C1454 C1457 1.387 . S
H1455 C1451 0.950 . S
H1456 C1453 0.950 . S
C1457 C1448 1.390 . S
C1457 H1450 0.950 . S
C1457 C1454 1.387 . S
C1458 C1459 1.387 . S
C1458 H1462 0.950 . S
C1458 C1467 1.390 1_565 S
C1459 C1458 1.387 . S
C1459 C1461 1.387 . S
H1460 C1467 0.950 . S
C1461 C1459 1.387 . S
C1461 C1463 1.390 1_565 S
C1461 H1465 0.950 . S
H1462 C1458 0.950 . S
C1463 C1461 1.390 1_545 S
C1463 C1464 1.387 . S
C1463 H1466 0.950 . S
C1464 C1463 1.387 . S
C1464 C1467 1.387 . S
H1465 C1461 0.950 . S
H1466 C1463 0.950 . S
C1467 C1458 1.390 1_545 S
C1467 H1460 0.950 . S
C1467 C1464 1.387 . S
C1468 C1469 1.387 . S
C1468 H1472 0.950 . S
C1468 C1477 1.390 . S
C1469 C1468 1.387 . S
C1469 C1471 1.387 . S
H1470 C1477 0.950 . S
C1471 C1469 1.387 . S
C1471 C1473 1.390 . S
C1471 H1475 0.950 . S
H1472 C1468 0.950 . S
C1473 C1471 1.390 . S
C1473 C1474 1.387 . S
C1473 H1476 0.950 . S
C1474 C1473 1.387 . S
C1474 C1477 1.387 . S
H1475 C1471 0.950 . S
H1476 C1473 0.950 . S
C1477 C1468 1.390 . S
C1477 H1470 0.950 . S
C1477 C1474 1.387 . S
C1478 C1479 1.387 . S
C1478 H1482 0.950 . S
C1478 C1487 1.390 1_546 S
C1479 C1478 1.387 . S
C1479 C1481 1.387 . S
H1480 C1487 0.950 . S
C1481 C1479 1.387 . S
C1481 C1483 1.390 1_546 S
C1481 H1485 0.950 . S
H1482 C1478 0.950 . S
C1483 C1481 1.390 1_564 S
C1483 C1484 1.387 . S
C1483 H1486 0.950 . S
C1484 C1483 1.387 . S
C1484 C1487 1.387 . S
H1485 C1481 0.950 . S
H1486 C1483 0.950 . S
C1487 C1478 1.390 1_564 S
C1487 H1480 0.950 . S
C1487 C1484 1.387 . S
C1488 C1489 1.387 . S
C1488 H1492 0.950 . S
C1488 C1497 1.390 . S
C1489 C1488 1.387 . S
C1489 C1491 1.387 . S
H1490 C1497 0.950 . S
C1491 C1489 1.387 . S
C1491 C1493 1.390 . S
C1491 H1495 0.950 . S
H1492 C1488 0.950 . S
C1493 C1491 1.390 . S
C1493 C1494 1.387 . S
C1493 H1496 0.950 . S
C1494 C1493 1.387 . S
C1494 C1497 1.387 . S
H1495 C1491 0.950 . S
H1496 C1493 0.950 . S
C1497 C1488 1.390 . S
C1497 H1490 0.950 . S
C1497 C1494 1.387 . S
C1498 C1499 1.387 . S
C1498 H1502 0.950 . S
C1498 C1507 1.390 1_554 S
C1499 C1498 1.387 . S
C1499 C1501 1.387 . S
H1500 C1507 0.950 . S
C1501 C1499 1.387 . S
C1501 C1503 1.390 1_554 S
C1501 H1505 0.950 . S
H1502 C1498 0.950 . S
C1503 C1501 1.390 1_556 S
C1503 C1504 1.387 . S
C1503 H1506 0.950 . S
C1504 C1503 1.387 . S
C1504 C1507 1.387 . S
H1505 C1501 0.950 . S
H1506 C1503 0.950 . S
C1507 C1498 1.390 1_556 S
C1507 H1500 0.950 . S
C1507 C1504 1.387 . S
C1508 C1509 1.387 . S
C1508 H1512 0.950 . S
C1508 C1517 1.390 . S
C1509 C1508 1.387 . S
C1509 C1511 1.387 . S
H1510 C1517 0.950 . S
C1511 C1509 1.387 . S
C1511 C1513 1.390 . S
C1511 H1515 0.950 . S
H1512 C1508 0.950 . S
C1513 C1511 1.390 . S
C1513 C1514 1.387 . S
C1513 H1516 0.950 . S
C1514 C1513 1.387 . S
C1514 C1517 1.387 . S
H1515 C1511 0.950 . S
H1516 C1513 0.950 . S
C1517 C1508 1.390 . S
C1517 H1510 0.950 . S
C1517 C1514 1.387 . S
C1518 C1519 1.387 . S
C1518 H1522 0.950 . S
C1518 C1527 1.390 . S
C1519 C1518 1.387 . S
C1519 C1521 1.387 . S
H1520 C1527 0.950 . S
C1521 C1519 1.387 . S
C1521 C1523 1.390 . S
C1521 H1525 0.950 . S
H1522 C1518 0.950 . S
C1523 C1521 1.390 . S
C1523 C1524 1.387 . S
C1523 H1526 0.950 . S
C1524 C1523 1.387 . S
C1524 C1527 1.387 . S
H1525 C1521 0.950 . S
H1526 C1523 0.950 . S
C1527 C1518 1.390 . S
C1527 H1520 0.950 . S
C1527 C1524 1.387 . S
C1528 C1529 1.387 . S
C1528 H1532 0.950 . S
C1528 C1537 1.390 . S
C1529 C1528 1.387 . S
C1529 C1531 1.387 . S
H1530 C1537 0.950 . S
C1531 C1529 1.387 . S
C1531 C1533 1.390 . S
C1531 H1535 0.950 . S
H1532 C1528 0.950 . S
C1533 C1531 1.390 . S
C1533 C1534 1.387 . S
C1533 H1536 0.950 . S
C1534 C1533 1.387 . S
C1534 C1537 1.387 . S
H1535 C1531 0.950 . S
H1536 C1533 0.950 . S
C1537 C1528 1.390 . S
C1537 H1530 0.950 . S
C1537 C1534 1.387 . S
C1538 C1539 1.387 . S
C1538 H1542 0.950 . S
C1538 C1547 1.390 1_556 S
C1539 C1538 1.387 . S
C1539 C1541 1.387 . S
H1540 C1547 0.950 . S
C1541 C1539 1.387 . S
C1541 C1543 1.390 1_556 S
C1541 H1545 0.950 . S
H1542 C1538 0.950 . S
C1543 C1541 1.390 1_554 S
C1543 C1544 1.387 . S
C1543 H1546 0.950 . S
C1544 C1543 1.387 . S
C1544 C1547 1.387 . S
H1545 C1541 0.950 . S
H1546 C1543 0.950 . S
C1547 C1538 1.390 1_554 S
C1547 H1540 0.950 . S
C1547 C1544 1.387 . S
C1548 C1549 1.387 . S
C1548 H1552 0.950 . S
C1548 C1557 1.390 . S
C1549 C1548 1.387 . S
C1549 C1551 1.387 . S
H1550 C1557 0.950 . S
C1551 C1549 1.387 . S
C1551 C1553 1.390 . S
C1551 H1555 0.950 . S
H1552 C1548 0.950 . S
C1553 C1551 1.390 . S
C1553 C1554 1.387 . S
C1553 H1556 0.950 . S
C1554 C1553 1.387 . S
C1554 C1557 1.387 . S
H1555 C1551 0.950 . S
H1556 C1553 0.950 . S
C1557 C1548 1.390 . S
C1557 H1550 0.950 . S
C1557 C1554 1.387 . S
C1558 C1559 1.387 . S
C1558 H1562 0.950 . S
C1558 C1567 1.390 . S
C1559 C1558 1.387 . S
C1559 C1561 1.387 . S
H1560 C1567 0.950 . S
C1561 C1559 1.387 . S
C1561 C1563 1.390 . S
C1561 H1565 0.950 . S
H1562 C1558 0.950 . S
C1563 C1561 1.390 . S
C1563 C1564 1.387 . S
C1563 H1566 0.950 . S
C1564 C1563 1.387 . S
C1564 C1567 1.387 . S
H1565 C1561 0.950 . S
H1566 C1563 0.950 . S
C1567 C1558 1.390 . S
C1567 H1560 0.950 . S
C1567 C1564 1.387 . S
C1568 C1569 1.387 . S
C1568 H1572 0.950 . S
C1568 C1577 1.390 . S
C1569 C1568 1.387 . S
C1569 C1571 1.387 . S
H1570 C1577 0.950 . S
C1571 C1569 1.387 . S
C1571 C1573 1.390 . S
C1571 H1575 0.950 . S
H1572 C1568 0.950 . S
C1573 C1571 1.390 . S
C1573 C1574 1.387 . S
C1573 H1576 0.950 . S
C1574 C1573 1.387 . S
C1574 C1577 1.387 . S
H1575 C1571 0.950 . S
H1576 C1573 0.950 . S
C1577 C1568 1.390 . S
C1577 H1570 0.950 . S
C1577 C1574 1.387 . S
C1578 C1579 1.387 . S
C1578 H1582 0.950 . S
C1578 C1587 1.390 . S
C1579 C1578 1.387 . S
C1579 C1581 1.387 . S
H1580 C1587 0.950 . S
C1581 C1579 1.387 . S
C1581 C1583 1.390 . S
C1581 H1585 0.950 . S
H1582 C1578 0.950 . S
C1583 C1581 1.390 . S
C1583 C1584 1.387 . S
C1583 H1586 0.950 . S
C1584 C1583 1.387 . S
C1584 C1587 1.387 . S
H1585 C1581 0.950 . S
H1586 C1583 0.950 . S
C1587 C1578 1.390 . S
C1587 H1580 0.950 . S
C1587 C1584 1.387 . S
C1588 C1589 1.387 . S
C1588 H1592 0.950 . S
C1588 C1597 1.390 . S
C1589 C1588 1.387 . S
C1589 C1591 1.387 . S
H1590 C1597 0.950 . S
C1591 C1589 1.387 . S
C1591 C1593 1.390 . S
C1591 H1595 0.950 . S
H1592 C1588 0.950 . S
C1593 C1591 1.390 . S
C1593 C1594 1.387 . S
C1593 H1596 0.950 . S
C1594 C1593 1.387 . S
C1594 C1597 1.387 . S
H1595 C1591 0.950 . S
H1596 C1593 0.950 . S
C1597 C1588 1.390 . S
C1597 H1590 0.950 . S
C1597 C1594 1.387 . S
C1598 C1599 1.387 . S
C1598 H1602 0.950 . S
C1598 C1607 1.390 . S
C1599 C1598 1.387 . S
C1599 C1601 1.387 . S
H1600 C1607 0.950 . S
C1601 C1599 1.387 . S
C1601 C1603 1.390 . S
C1601 H1605 0.950 . S
H1602 C1598 0.950 . S
C1603 C1601 1.390 . S
C1603 C1604 1.387 . S
C1603 H1606 0.950 . S
C1604 C1603 1.387 . S
C1604 C1607 1.387 . S
H1605 C1601 0.950 . S
H1606 C1603 0.950 . S
C1607 C1598 1.390 . S
C1607 H1600 0.950 . S
C1607 C1604 1.387 . S
C1608 C1609 1.387 . S
C1608 H1612 0.950 . S
C1608 C1617 1.390 . S
C1609 C1608 1.387 . S
C1609 C1611 1.387 . S
H1610 C1617 0.950 . S
C1611 C1609 1.387 . S
C1611 C1613 1.390 . S
C1611 H1615 0.950 . S
H1612 C1608 0.950 . S
C1613 C1611 1.390 . S
C1613 C1614 1.387 . S
C1613 H1616 0.950 . S
C1614 C1613 1.387 . S
C1614 C1617 1.387 . S
H1615 C1611 0.950 . S
H1616 C1613 0.950 . S
C1617 C1608 1.390 . S
C1617 H1610 0.950 . S
C1617 C1614 1.387 . S
C1618 C1619 1.387 . S
C1618 H1622 0.950 . S
C1618 C1627 1.390 . S
C1619 C1618 1.387 . S
C1619 C1621 1.387 . S
H1620 C1627 0.950 . S
C1621 C1619 1.387 . S
C1621 C1623 1.390 . S
C1621 H1625 0.950 . S
H1622 C1618 0.950 . S
C1623 C1621 1.390 . S
C1623 C1624 1.387 . S
C1623 H1626 0.950 . S
C1624 C1623 1.387 . S
C1624 C1627 1.387 . S
H1625 C1621 0.950 . S
H1626 C1623 0.950 . S
C1627 C1618 1.390 . S
C1627 H1620 0.950 . S
C1627 C1624 1.387 . S
C1628 C1629 1.387 . S
C1628 H1632 0.950 . S
C1628 C1637 1.390 . S
C1629 C1628 1.387 . S
C1629 C1631 1.387 . S
H1630 C1637 0.950 . S
C1631 C1629 1.387 . S
C1631 C1633 1.390 . S
C1631 H1635 0.950 . S
H1632 C1628 0.950 . S
C1633 C1631 1.390 . S
C1633 C1634 1.387 . S
C1633 H1636 0.950 . S
C1634 C1633 1.387 . S
C1634 C1637 1.387 . S
H1635 C1631 0.950 . S
H1636 C1633 0.950 . S
C1637 C1628 1.390 . S
C1637 H1630 0.950 . S
C1637 C1634 1.387 . S
C1638 C1639 1.387 . S
C1638 H1642 0.950 . S
C1638 C1647 1.390 . S
C1639 C1638 1.387 . S
C1639 C1641 1.387 . S
H1640 C1647 0.950 . S
C1641 C1639 1.387 . S
C1641 C1643 1.390 . S
C1641 H1645 0.950 . S
H1642 C1638 0.950 . S
C1643 C1641 1.390 . S
C1643 C1644 1.387 . S
C1643 H1646 0.950 . S
C1644 C1643 1.387 . S
C1644 C1647 1.387 . S
H1645 C1641 0.950 . S
H1646 C1643 0.950 . S
C1647 C1638 1.390 . S
C1647 H1640 0.950 . S
C1647 C1644 1.387 . S
C1648 C1649 1.387 . S
C1648 H1652 0.950 . S
C1648 C1657 1.390 . S
C1649 C1648 1.387 . S
C1649 C1651 1.387 . S
H1650 C1657 0.950 . S
C1651 C1649 1.387 . S
C1651 C1653 1.390 . S
C1651 H1655 0.950 . S
H1652 C1648 0.950 . S
C1653 C1651 1.390 . S
C1653 C1654 1.387 . S
C1653 H1656 0.950 . S
C1654 C1653 1.387 . S
C1654 C1657 1.387 . S
H1655 C1651 0.950 . S
H1656 C1653 0.950 . S
C1657 C1648 1.390 . S
C1657 H1650 0.950 . S
C1657 C1654 1.387 . S
C1658 C1659 1.387 . S
C1658 H1662 0.950 . S
C1658 C1667 1.390 . S
C1659 C1658 1.387 . S
C1659 C1661 1.387 . S
H1660 C1667 0.950 . S
C1661 C1659 1.387 . S
C1661 C1663 1.390 . S
C1661 H1665 0.950 . S
H1662 C1658 0.950 . S
C1663 C1661 1.390 . S
C1663 C1664 1.387 . S
C1663 H1666 0.950 . S
C1664 C1663 1.387 . S
C1664 C1667 1.387 . S
H1665 C1661 0.950 . S
H1666 C1663 0.950 . S
C1667 C1658 1.390 . S
C1667 H1660 0.950 . S
C1667 C1664 1.387 . S
C1668 C1669 1.387 . S
C1668 H1672 0.950 . S
C1668 C1677 1.390 . S
C1669 C1668 1.387 . S
C1669 C1671 1.387 . S
H1670 C1677 0.950 . S
C1671 C1669 1.387 . S
C1671 C1673 1.390 . S
C1671 H1675 0.950 . S
H1672 C1668 0.950 . S
C1673 C1671 1.390 . S
C1673 C1674 1.387 . S
C1673 H1676 0.950 . S
C1674 C1673 1.387 . S
C1674 C1677 1.387 . S
H1675 C1671 0.950 . S
H1676 C1673 0.950 . S
C1677 C1668 1.390 . S
C1677 H1670 0.950 . S
C1677 C1674 1.387 . S
C1678 C1679 1.387 . S
C1678 H1682 0.950 . S
C1678 C1687 1.390 . S
C1679 C1678 1.387 . S
C1679 C1681 1.387 . S
H1680 C1687 0.950 . S
C1681 C1679 1.387 . S
C1681 C1683 1.390 . S
C1681 H1685 0.950 . S
H1682 C1678 0.950 . S
C1683 C1681 1.390 . S
C1683 C1684 1.387 . S
C1683 H1686 0.950 . S
C1684 C1683 1.387 . S
C1684 C1687 1.387 . S
H1685 C1681 0.950 . S
H1686 C1683 0.950 . S
C1687 C1678 1.390 . S
C1687 H1680 0.950 . S
C1687 C1684 1.387 . S
C1688 C1689 1.387 . S
C1688 H1692 0.950 . S
C1688 C1697 1.390 . S
C1689 C1688 1.387 . S
C1689 C1691 1.387 . S
H1690 C1697 0.950 . S
C1691 C1689 1.387 . S
C1691 C1693 1.390 . S
C1691 H1695 0.950 . S
H1692 C1688 0.950 . S
C1693 C1691 1.390 . S
C1693 C1694 1.387 . S
C1693 H1696 0.950 . S
C1694 C1693 1.387 . S
C1694 C1697 1.387 . S
H1695 C1691 0.950 . S
H1696 C1693 0.950 . S
C1697 C1688 1.390 . S
C1697 H1690 0.950 . S
C1697 C1694 1.387 . S
C1698 C1699 1.387 . S
C1698 H1702 0.950 . S
C1698 C1707 1.390 . S
C1699 C1698 1.387 . S
C1699 C1701 1.387 . S
H1700 C1707 0.950 . S
C1701 C1699 1.387 . S
C1701 C1703 1.390 . S
C1701 H1705 0.950 . S
H1702 C1698 0.950 . S
C1703 C1701 1.390 . S
C1703 C1704 1.387 . S
C1703 H1706 0.950 . S
C1704 C1703 1.387 . S
C1704 C1707 1.387 . S
H1705 C1701 0.950 . S
H1706 C1703 0.950 . S
C1707 C1698 1.390 . S
C1707 H1700 0.950 . S
C1707 C1704 1.387 . S
C1708 C1709 1.387 . S
C1708 H1712 0.950 . S
C1708 C1717 1.390 . S
C1709 C1708 1.387 . S
C1709 C1711 1.387 . S
H1710 C1717 0.950 . S
C1711 C1709 1.387 . S
C1711 C1713 1.390 . S
C1711 H1715 0.950 . S
H1712 C1708 0.950 . S
C1713 C1711 1.390 . S
C1713 C1714 1.387 . S
C1713 H1716 0.950 . S
C1714 C1713 1.387 . S
C1714 C1717 1.387 . S
H1715 C1711 0.950 . S
H1716 C1713 0.950 . S
C1717 C1708 1.390 . S
C1717 H1710 0.950 . S
C1717 C1714 1.387 . S
C1718 C1719 1.387 . S
C1718 H1722 0.950 . S
C1718 C1727 1.390 . S
C1719 C1718 1.387 . S
C1719 C1721 1.387 . S
H1720 C1727 0.950 . S
C1721 C1719 1.387 . S
C1721 C1723 1.390 . S
C1721 H1725 0.950 . S
H1722 C1718 0.950 . S
C1723 C1721 1.390 . S
C1723 C1724 1.387 . S
C1723 H1726 0.950 . S
C1724 C1723 1.387 . S
C1724 C1727 1.387 . S
H1725 C1721 0.950 . S
H1726 C1723 0.950 . S
C1727 C1718 1.390 . S
C1727 H1720 0.950 . S
C1727 C1724 1.387 . S
C1728 C1729 1.387 . S
C1728 H1732 0.950 . S
C1728 C1737 1.390 . S
C1729 C1728 1.387 . S
C1729 C1731 1.387 1_554 S
H1730 C1737 0.950 . S
C1731 C1729 1.387 1_556 S
C1731 C1733 1.390 . S
C1731 H1735 0.950 . S
H1732 C1728 0.950 . S
C1733 C1731 1.390 . S
C1733 C1734 1.387 1_556 S
C1733 H1736 0.950 . S
C1734 C1733 1.387 1_554 S
C1734 C1737 1.387 . S
H1735 C1731 0.950 . S
H1736 C1733 0.950 . S
C1737 C1728 1.390 . S
C1737 H1730 0.950 . S
C1737 C1734 1.387 . S
C1738 C1739 1.387 . S
C1738 H1742 0.950 . S
C1738 C1747 1.390 1_655 S
C1739 C1738 1.387 . S
C1739 C1741 1.387 . S
H1740 C1747 0.950 . S
C1741 C1739 1.387 . S
C1741 C1743 1.390 1_655 S
C1741 H1745 0.950 . S
H1742 C1738 0.950 . S
C1743 C1741 1.390 1_455 S
C1743 C1744 1.387 . S
C1743 H1746 0.950 . S
C1744 C1743 1.387 . S
C1744 C1747 1.387 . S
H1745 C1741 0.950 . S
H1746 C1743 0.950 . S
C1747 C1738 1.390 1_455 S
C1747 H1740 0.950 . S
C1747 C1744 1.387 . S
C1748 C1749 1.387 . S
C1748 H1752 0.950 . S
C1748 C1757 1.390 . S
C1749 C1748 1.387 . S
C1749 C1751 1.387 . S
H1750 C1757 0.950 . S
C1751 C1749 1.387 . S
C1751 C1753 1.390 . S
C1751 H1755 0.950 . S
H1752 C1748 0.950 . S
C1753 C1751 1.390 . S
C1753 C1754 1.387 . S
C1753 H1756 0.950 . S
C1754 C1753 1.387 . S
C1754 C1757 1.387 . S
H1755 C1751 0.950 . S
H1756 C1753 0.950 . S
C1757 C1748 1.390 . S
C1757 H1750 0.950 . S
C1757 C1754 1.387 . S
C1758 C1759 1.387 . S
C1758 H1762 0.950 . S
C1758 C1767 1.390 . S
C1759 C1758 1.387 . S
C1759 C1761 1.387 . S
H1760 C1767 0.950 . S
C1761 C1759 1.387 . S
C1761 C1763 1.390 . S
C1761 H1765 0.950 . S
H1762 C1758 0.950 . S
C1763 C1761 1.390 . S
C1763 C1764 1.387 . S
C1763 H1766 0.950 . S
C1764 C1763 1.387 . S
C1764 C1767 1.387 . S
H1765 C1761 0.950 . S
H1766 C1763 0.950 . S
C1767 C1758 1.390 . S
C1767 H1760 0.950 . S
C1767 C1764 1.387 . S
C1768 C1769 1.387 1_554 S
C1768 H1772 0.950 . S
C1768 C1777 1.390 . S
C1769 C1768 1.387 1_556 S
C1769 C1771 1.387 . S
H1770 C1777 0.950 . S
C1771 C1769 1.387 . S
C1771 C1773 1.390 . S
C1771 H1775 0.950 . S
H1772 C1768 0.950 . S
C1773 C1771 1.390 . S
C1773 C1774 1.387 . S
C1773 H1776 0.950 . S
C1774 C1773 1.387 . S
C1774 C1777 1.387 1_556 S
H1775 C1771 0.950 . S
H1776 C1773 0.950 . S
C1777 C1768 1.390 . S
C1777 H1770 0.950 . S
C1777 C1774 1.387 1_554 S
C1778 C1779 1.387 . S
C1778 H1782 0.950 . S
C1778 C1787 1.390 . S
C1779 C1778 1.387 . S
C1779 C1781 1.387 . S
H1780 C1787 0.950 . S
C1781 C1779 1.387 . S
C1781 C1783 1.390 . S
C1781 H1785 0.950 . S
H1782 C1778 0.950 . S
C1783 C1781 1.390 . S
C1783 C1784 1.387 . S
C1783 H1786 0.950 . S
C1784 C1783 1.387 . S
C1784 C1787 1.387 . S
H1785 C1781 0.950 . S
H1786 C1783 0.950 . S
C1787 C1778 1.390 . S
C1787 H1780 0.950 . S
C1787 C1784 1.387 . S
C1788 C1789 1.387 . S
C1788 H1792 0.950 . S
C1788 C1797 1.390 . S
C1789 C1788 1.387 . S
C1789 C1791 1.387 . S
H1790 C1797 0.950 . S
C1791 C1789 1.387 . S
C1791 C1793 1.390 . S
C1791 H1795 0.950 . S
H1792 C1788 0.950 . S
C1793 C1791 1.390 . S
C1793 C1794 1.387 . S
C1793 H1796 0.950 . S
C1794 C1793 1.387 . S
C1794 C1797 1.387 . S
H1795 C1791 0.950 . S
H1796 C1793 0.950 . S
C1797 C1788 1.390 . S
C1797 H1790 0.950 . S
C1797 C1794 1.387 . S
C1798 C1799 1.387 . S
C1798 H1802 0.950 . S
C1798 C1807 1.390 1_455 S
C1799 C1798 1.387 . S
C1799 C1801 1.387 . S
H1800 C1807 0.950 . S
C1801 C1799 1.387 . S
C1801 C1803 1.390 1_455 S
C1801 H1805 0.950 . S
H1802 C1798 0.950 . S
C1803 C1801 1.390 1_655 S
C1803 C1804 1.387 . S
C1803 H1806 0.950 . S
C1804 C1803 1.387 . S
C1804 C1807 1.387 . S
H1805 C1801 0.950 . S
H1806 C1803 0.950 . S
C1807 C1798 1.390 1_655 S
C1807 H1800 0.950 . S
C1807 C1804 1.387 . S
C1808 C1809 1.387 1_554 S
C1808 H1812 0.950 . S
C1808 C1817 1.390 . S
C1809 C1808 1.387 1_556 S
C1809 C1811 1.387 . S
H1810 C1817 0.950 . S
C1811 C1809 1.387 . S
C1811 C1813 1.390 . S
C1811 H1815 0.950 . S
H1812 C1808 0.950 . S
C1813 C1811 1.390 . S
C1813 C1814 1.387 . S
C1813 H1816 0.950 . S
C1814 C1813 1.387 . S
C1814 C1817 1.387 1_556 S
H1815 C1811 0.950 . S
H1816 C1813 0.950 . S
C1817 C1808 1.390 . S
C1817 H1810 0.950 . S
C1817 C1814 1.387 1_554 S
C1818 C1819 1.387 . S
C1818 H1822 0.950 . S
C1818 C1827 1.390 . S
C1819 C1818 1.387 . S
C1819 C1821 1.387 . S
H1820 C1827 0.950 . S
C1821 C1819 1.387 . S
C1821 C1823 1.390 . S
C1821 H1825 0.950 . S
H1822 C1818 0.950 . S
C1823 C1821 1.390 . S
C1823 C1824 1.387 . S
C1823 H1826 0.950 . S
C1824 C1823 1.387 . S
C1824 C1827 1.387 . S
H1825 C1821 0.950 . S
H1826 C1823 0.950 . S
C1827 C1818 1.390 . S
C1827 H1820 0.950 . S
C1827 C1824 1.387 . S
C1828 C1829 1.387 . S
C1828 H1832 0.950 . S
C1828 C1837 1.390 . S
C1829 C1828 1.387 . S
C1829 C1831 1.387 1_554 S
H1830 C1837 0.950 . S
C1831 C1829 1.387 1_556 S
C1831 C1833 1.390 . S
C1831 H1835 0.950 . S
H1832 C1828 0.950 . S
C1833 C1831 1.390 . S
C1833 C1834 1.387 1_556 S
C1833 H1836 0.950 . S
C1834 C1833 1.387 1_554 S
C1834 C1837 1.387 . S
H1835 C1831 0.950 . S
H1836 C1833 0.950 . S
C1837 C1828 1.390 . S
C1837 H1830 0.950 . S
C1837 C1834 1.387 . S
C1838 C1839 1.387 . S
C1838 H1842 0.950 . S
C1838 C1847 1.390 . S
C1839 C1838 1.387 . S
C1839 C1841 1.387 . S
H1840 C1847 0.950 . S
C1841 C1839 1.387 . S
C1841 C1843 1.390 . S
C1841 H1845 0.950 . S
H1842 C1838 0.950 . S
C1843 C1841 1.390 . S
C1843 C1844 1.387 . S
C1843 H1846 0.950 . S
C1844 C1843 1.387 . S
C1844 C1847 1.387 . S
H1845 C1841 0.950 . S
H1846 C1843 0.950 . S
C1847 C1838 1.390 . S
C1847 H1840 0.950 . S
C1847 C1844 1.387 . S
C1848 C1849 1.387 . S
C1848 H1852 0.950 . S
C1848 C1857 1.390 . S
C1849 C1848 1.387 . S
C1849 C1851 1.387 . S
H1850 C1857 0.950 . S
C1851 C1849 1.387 . S
C1851 C1853 1.390 . S
C1851 H1855 0.950 . S
H1852 C1848 0.950 . S
C1853 C1851 1.390 . S
C1853 C1854 1.387 . S
C1853 H1856 0.950 . S
C1854 C1853 1.387 . S
C1854 C1857 1.387 . S
H1855 C1851 0.950 . S
H1856 C1853 0.950 . S
C1857 C1848 1.390 . S
C1857 H1850 0.950 . S
C1857 C1854 1.387 . S
C1858 C1859 1.387 . S
C1858 H1862 0.950 . S
C1858 C1867 1.390 1_455 S
C1859 C1858 1.387 . S
C1859 C1861 1.387 . S
H1860 C1867 0.950 . S
C1861 C1859 1.387 . S
C1861 C1863 1.390 1_455 S
C1861 H1865 0.950 . S
H1862 C1858 0.950 . S
C1863 C1861 1.390 1_655 S
C1863 C1864 1.387 . S
C1863 H1866 0.950 . S
C1864 C1863 1.387 . S
C1864 C1867 1.387 . S
H1865 C1861 0.950 . S
H1866 C1863 0.950 . S
C1867 C1858 1.390 1_655 S
C1867 H1860 0.950 . S
C1867 C1864 1.387 . S
C1868 C1869 1.387 . S
C1868 H1872 0.950 . S
C1868 C1877 1.390 1_455 S
C1869 C1868 1.387 . S
C1869 C1871 1.387 . S
H1870 C1877 0.950 . S
C1871 C1869 1.387 . S
C1871 C1873 1.390 1_455 S
C1871 H1875 0.950 . S
H1872 C1868 0.950 . S
C1873 C1871 1.390 1_655 S
C1873 C1874 1.387 . S
C1873 H1876 0.950 . S
C1874 C1873 1.387 . S
C1874 C1877 1.387 . S
H1875 C1871 0.950 . S
H1876 C1873 0.950 . S
C1877 C1868 1.390 1_655 S
C1877 H1870 0.950 . S
C1877 C1874 1.387 . S
C1878 C1879 1.387 . S
C1878 H1882 0.950 . S
C1878 C1887 1.390 . S
C1879 C1878 1.387 . S
C1879 C1881 1.387 . S
H1880 C1887 0.950 . S
C1881 C1879 1.387 . S
C1881 C1883 1.390 . S
C1881 H1885 0.950 . S
H1882 C1878 0.950 . S
C1883 C1881 1.390 . S
C1883 C1884 1.387 . S
C1883 H1886 0.950 . S
C1884 C1883 1.387 . S
C1884 C1887 1.387 . S
H1885 C1881 0.950 . S
H1886 C1883 0.950 . S
C1887 C1878 1.390 . S
C1887 H1880 0.950 . S
C1887 C1884 1.387 . S
C1089 C67 2.388 1_545 S
C1094 C20 2.368 . S
C1099 C54 2.367 . S
C1104 C101 2.387 . S
C1109 C88 2.367 . S
C1114 C135 2.387 1_565 S
C1119 C122 2.367 . S
C1124 C33 2.387 . S
C1129 C156 2.367 . S
C1134 C271 2.387 1_565 S
C1139 C169 2.388 . S
C1144 C190 2.368 . S
C1149 C224 2.367 . S
C1154 C203 2.388 1_545 S
C1159 C258 2.368 . S
C1164 C237 2.388 . S
C1169 C339 2.387 1_565 S
C1174 C292 2.367 . S
C1179 C373 2.388 . S
C1184 C326 2.368 . S
C1189 C360 2.368 . S
C1194 C407 2.388 1_545 S
C1199 C305 2.388 . S
C1204 C394 2.368 . S
C1209 C428 2.367 . S
C1214 C543 2.387 1_545 S
C1219 C462 2.368 . S
C1224 C441 2.388 . S
C1229 C475 2.388 1_565 S
C1234 C496 2.368 . S
C1239 C509 2.387 . S
C1244 C530 2.367 . S
C1249 C611 2.388 . S
C1254 C564 2.368 . S
C1259 C598 2.368 . S
C1264 C645 2.388 . S
C1269 C679 2.388 . S
C1274 C632 2.368 . S
C1279 C577 2.388 . S
C1284 C666 2.368 . S
C1289 C815 2.387 . S
C1294 C700 2.367 . S
C1299 C734 2.367 . S
C1304 C713 2.387 . S
C1309 C747 2.387 . S
C1314 C768 2.367 . S
C1319 C802 2.367 . S
C1324 C781 2.387 . S
C1329 C883 2.387 . S
C1334 C836 2.367 . S
C1339 C870 2.368 . S
C1344 C917 2.388 . S
C1349 C904 2.367 . S
C1354 C951 2.387 . S
C1359 C938 2.367 . S
C1364 C849 2.387 . S
C1369 C1087 2.388 . S
C1374 C972 2.367 . S
C1379 C985 2.388 . S
C1384 C1006 2.368 . S
C1389 C1019 2.387 . S
C1394 C1040 2.367 . S
C1399 C1053 2.388 . S
C1404 C1074 2.368 . S
C1409 C213 0.879 . S
C1414 C9 0.879 . S
C1419 C43 0.879 . S
C1424 C247 0.879 . S
C1429 C77 0.879 . S
C1434 C145 0.879 . S
C1439 C111 0.874 . S
C1444 C179 0.874 . S
C1449 C485 0.879 . S
C1454 C281 0.879 . S
C1459 C519 0.874 . S
C1464 C315 0.874 . S
C1469 C349 0.879 . S
C1474 C417 0.879 . S
C1479 C451 0.874 . S
C1484 C383 0.874 . S
C1489 C553 0.879 . S
C1494 C757 0.879 . S
C1499 C791 0.874 . S
C1504 C587 0.874 . S
C1509 C689 0.874 . S
C1514 C621 0.874 . S
C1519 C723 0.874 . S
C1524 C655 0.874 . S
C1529 C1029 0.879 . S
C1534 C825 0.879 . S
C1539 C1063 0.879 . S
C1544 C859 0.879 . S
C1549 C961 0.879 . S
C1554 C893 0.879 . S
C1559 C995 0.874 . S
C1564 C927 0.874 . S
C1569 C5 0.840 . S
C1574 C243 0.839 . S
C1579 C39 0.836 . S
C1584 C141 0.837 . S
C1589 C175 0.838 . S
C1594 C73 0.839 . S
C1599 C107 0.839 . S
C1604 C209 0.840 . S
C1609 C277 0.840 . S
C1614 C515 0.840 . S
C1619 C413 0.837 . S
C1624 C311 0.838 . S
C1629 C345 0.836 . S
C1634 C447 0.837 . S
C1639 C379 0.837 . S
C1644 C481 0.836 . S
C1649 C787 0.838 . S
C1654 C549 0.837 . S
C1659 C685 0.839 . S
C1664 C583 0.838 . S
C1669 C617 0.840 . S
C1674 C719 0.839 . S
C1679 C651 0.839 . S
C1684 C753 0.840 . S
C1689 C821 0.836 . S
C1694 C1059 0.837 . S
C1699 C957 0.840 . S
C1704 C855 0.840 . S
C1709 C889 0.838 . S
C1714 C991 0.839 . S
C1719 C923 0.838 . S
C1724 C1025 0.839 . S
C1729 C2 1.246 . S
C1734 C1022 1.246 . S
C1739 C512 1.247 . S
C1744 C36 1.246 . S
C1749 C954 1.246 . S
C1754 C70 1.246 . S
C1759 C104 1.246 . S
C1764 C444 1.246 . S
C1769 C138 1.246 . S
C1774 C886 1.246 . S
C1779 C376 1.246 . S
C1784 C172 1.246 . S
C1789 C206 1.246 . S
C1794 C818 1.246 . S
C1799 C240 1.246 . S
C1804 C308 1.247 . S
C1809 C274 1.246 . S
C1814 C750 1.246 . S
C1819 C342 1.246 . S
C1824 C682 1.246 . S
C1829 C410 1.246 . S
C1834 C614 1.246 . S
C1839 C478 1.246 . S
C1844 C546 1.246 . S
C1849 C580 1.246 . S
C1854 C1056 1.247 . S
C1859 C988 1.246 . S
C1864 C648 1.246 . S
C1869 C920 1.246 . S
C1874 C716 1.246 . S
C1879 C852 1.246 . S
C1884 C784 1.247 . S
