# Generated by pormake.
# Topology lta, (4)-cn, num edge types: 1
# Building blocks:
#     Node 0, Type 0, BuildingBlock: QUQFOY_clean_sbu_3, # of connection points: 4
#     Node 1, Type 0, BuildingBlock: QUQFOY_clean_sbu_3, # of connection points: 4
#     Node 2, Type 0, BuildingBlock: QUQFOY_clean_sbu_3, # of connection points: 4
#     Node 3, Type 0, BuildingBlock: QUQFOY_clean_sbu_3, # of connection points: 4
#     Node 4, Type 0, BuildingBlock: QUQFOY_clean_sbu_3, # of connection points: 4
#     Node 5, Type 0, BuildingBlock: QUQFOY_clean_sbu_3, # of connection points: 4
#     Node 6, Type 0, BuildingBlock: QUQFOY_clean_sbu_3, # of connection points: 4
#     Node 7, Type 0, BuildingBlock: QUQFOY_clean_sbu_3, # of connection points: 4
#     Node 8, Type 0, BuildingBlock: QUQFOY_clean_sbu_3, # of connection points: 4
#     Node 9, Type 0, BuildingBlock: QUQFOY_clean_sbu_3, # of connection points: 4
#     Node 10, Type 0, BuildingBlock: QUQFOY_clean_sbu_3, # of connection points: 4
#     Node 11, Type 0, BuildingBlock: QUQFOY_clean_sbu_3, # of connection points: 4
#     Node 12, Type 0, BuildingBlock: QUQFOY_clean_sbu_3, # of connection points: 4
#     Node 13, Type 0, BuildingBlock: QUQFOY_clean_sbu_3, # of connection points: 4
#     Node 14, Type 0, BuildingBlock: QUQFOY_clean_sbu_3, # of connection points: 4
#     Node 15, Type 0, BuildingBlock: QUQFOY_clean_sbu_3, # of connection points: 4
#     Node 16, Type 0, BuildingBlock: QUQFOY_clean_sbu_3, # of connection points: 4
#     Node 17, Type 0, BuildingBlock: QUQFOY_clean_sbu_3, # of connection points: 4
#     Node 18, Type 0, BuildingBlock: QUQFOY_clean_sbu_3, # of connection points: 4
#     Node 19, Type 0, BuildingBlock: QUQFOY_clean_sbu_3, # of connection points: 4
#     Node 20, Type 0, BuildingBlock: QUQFOY_clean_sbu_3, # of connection points: 4
#     Node 21, Type 0, BuildingBlock: QUQFOY_clean_sbu_3, # of connection points: 4
#     Node 22, Type 0, BuildingBlock: QUQFOY_clean_sbu_3, # of connection points: 4
#     Node 23, Type 0, BuildingBlock: QUQFOY_clean_sbu_3, # of connection points: 4
#     Edge 24, Type (0, 0), BuildingBlock: XUDNAN_clean_linker_2, # of connection points: 2
#     Edge 25, Type (0, 0), BuildingBlock: XUDNAN_clean_linker_2, # of connection points: 2
#     Edge 26, Type (0, 0), BuildingBlock: XUDNAN_clean_linker_2, # of connection points: 2
#     Edge 27, Type (0, 0), BuildingBlock: XUDNAN_clean_linker_2, # of connection points: 2
#     Edge 28, Type (0, 0), BuildingBlock: XUDNAN_clean_linker_2, # of connection points: 2
#     Edge 29, Type (0, 0), BuildingBlock: XUDNAN_clean_linker_2, # of connection points: 2
#     Edge 30, Type (0, 0), BuildingBlock: XUDNAN_clean_linker_2, # of connection points: 2
#     Edge 31, Type (0, 0), BuildingBlock: XUDNAN_clean_linker_2, # of connection points: 2
#     Edge 32, Type (0, 0), BuildingBlock: XUDNAN_clean_linker_2, # of connection points: 2
#     Edge 33, Type (0, 0), BuildingBlock: XUDNAN_clean_linker_2, # of connection points: 2
#     Edge 34, Type (0, 0), BuildingBlock: XUDNAN_clean_linker_2, # of connection points: 2
#     Edge 35, Type (0, 0), BuildingBlock: XUDNAN_clean_linker_2, # of connection points: 2
#     Edge 36, Type (0, 0), BuildingBlock: XUDNAN_clean_linker_2, # of connection points: 2
#     Edge 37, Type (0, 0), BuildingBlock: XUDNAN_clean_linker_2, # of connection points: 2
#     Edge 38, Type (0, 0), BuildingBlock: XUDNAN_clean_linker_2, # of connection points: 2
#     Edge 39, Type (0, 0), BuildingBlock: XUDNAN_clean_linker_2, # of connection points: 2
#     Edge 40, Type (0, 0), BuildingBlock: XUDNAN_clean_linker_2, # of connection points: 2
#     Edge 41, Type (0, 0), BuildingBlock: XUDNAN_clean_linker_2, # of connection points: 2
#     Edge 42, Type (0, 0), BuildingBlock: XUDNAN_clean_linker_2, # of connection points: 2
#     Edge 43, Type (0, 0), BuildingBlock: XUDNAN_clean_linker_2, # of connection points: 2
#     Edge 44, Type (0, 0), BuildingBlock: XUDNAN_clean_linker_2, # of connection points: 2
#     Edge 45, Type (0, 0), BuildingBlock: XUDNAN_clean_linker_2, # of connection points: 2
#     Edge 46, Type (0, 0), BuildingBlock: XUDNAN_clean_linker_2, # of connection points: 2
#     Edge 47, Type (0, 0), BuildingBlock: XUDNAN_clean_linker_2, # of connection points: 2
#     Edge 48, Type (0, 0), BuildingBlock: XUDNAN_clean_linker_2, # of connection points: 2
#     Edge 49, Type (0, 0), BuildingBlock: XUDNAN_clean_linker_2, # of connection points: 2
#     Edge 50, Type (0, 0), BuildingBlock: XUDNAN_clean_linker_2, # of connection points: 2
#     Edge 51, Type (0, 0), BuildingBlock: XUDNAN_clean_linker_2, # of connection points: 2
#     Edge 52, Type (0, 0), BuildingBlock: XUDNAN_clean_linker_2, # of connection points: 2
#     Edge 53, Type (0, 0), BuildingBlock: XUDNAN_clean_linker_2, # of connection points: 2
#     Edge 54, Type (0, 0), BuildingBlock: XUDNAN_clean_linker_2, # of connection points: 2
#     Edge 55, Type (0, 0), BuildingBlock: XUDNAN_clean_linker_2, # of connection points: 2
#     Edge 56, Type (0, 0), BuildingBlock: XUDNAN_clean_linker_2, # of connection points: 2
#     Edge 57, Type (0, 0), BuildingBlock: XUDNAN_clean_linker_2, # of connection points: 2
#     Edge 58, Type (0, 0), BuildingBlock: XUDNAN_clean_linker_2, # of connection points: 2
#     Edge 59, Type (0, 0), BuildingBlock: XUDNAN_clean_linker_2, # of connection points: 2
#     Edge 60, Type (0, 0), BuildingBlock: XUDNAN_clean_linker_2, # of connection points: 2
#     Edge 61, Type (0, 0), BuildingBlock: XUDNAN_clean_linker_2, # of connection points: 2
#     Edge 62, Type (0, 0), BuildingBlock: XUDNAN_clean_linker_2, # of connection points: 2
#     Edge 63, Type (0, 0), BuildingBlock: XUDNAN_clean_linker_2, # of connection points: 2
#     Edge 64, Type (0, 0), BuildingBlock: XUDNAN_clean_linker_2, # of connection points: 2
#     Edge 65, Type (0, 0), BuildingBlock: XUDNAN_clean_linker_2, # of connection points: 2
#     Edge 66, Type (0, 0), BuildingBlock: XUDNAN_clean_linker_2, # of connection points: 2
#     Edge 67, Type (0, 0), BuildingBlock: XUDNAN_clean_linker_2, # of connection points: 2
#     Edge 68, Type (0, 0), BuildingBlock: XUDNAN_clean_linker_2, # of connection points: 2
#     Edge 69, Type (0, 0), BuildingBlock: XUDNAN_clean_linker_2, # of connection points: 2
#     Edge 70, Type (0, 0), BuildingBlock: XUDNAN_clean_linker_2, # of connection points: 2
#     Edge 71, Type (0, 0), BuildingBlock: XUDNAN_clean_linker_2, # of connection points: 2
# Relax obj value: 0.276
# Max RMSD: 0.159
# Mean RMSD: 0.159
data_MOF--net-lta--node1-QUQFOY_clean_sbu_3--edge1-XUDNAN_clean_linker_2
_symmetry_space_group_name_H-M    P1
_symmetry_Int_Tables_number       1
_symmetry_cell_setting            triclinic
loop_
_symmetry_equiv_pos_as_xyz
'x, y, z'
_cell_length_a     58.249399
_cell_length_b     57.926967
_cell_length_c     57.895917
_cell_angle_alpha  90.046685
_cell_angle_beta   90.029475
_cell_angle_gamma 89.926612
loop_
_atom_site_label
_atom_site_type_symbol
_atom_site_fract_x
_atom_site_fract_y
_atom_site_fract_z
_atom_type_partial_charge
C0 C 0.11522 0.34675 0.45183 0.0
O1 O 0.10793 0.36452 0.46243 0.0
Cd2 Cd 0.10217 0.36908 0.50291 0.0
O3 O 0.1199 0.32807 0.4625 0.0
Cd4 Cd 0.11712 0.31319 0.50279 0.0
C5 C 0.0604 0.32745 0.50613 0.0
O6 O 0.13271 0.34722 0.51859 0.0
O7 O 0.12244 0.32285 0.54448 0.0
O8 O 0.15061 0.29038 0.49535 0.0
C9 C 0.1309 0.34246 0.53978 0.0
O10 O 0.06625 0.34857 0.50777 0.0
C11 C 0.14156 0.2711 0.50034 0.0
O12 O 0.07533 0.31161 0.50328 0.0
O13 O 0.12068 0.27125 0.50669 0.0
C14 C 0.63635 0.13448 0.49332 0.0
O15 O 0.62083 0.13468 0.50871 0.0
Cd16 Cd 0.62602 0.11404 0.54381 0.0
O17 O 0.65619 0.12626 0.49768 0.0
Cd18 Cd 0.68105 0.11107 0.52911 0.0
C19 C 0.64931 0.064 0.51875 0.0
O20 O 0.66062 0.12887 0.55948 0.0
O21 O 0.68291 0.10176 0.57105 0.0
O22 O 0.70299 0.14287 0.51673 0.0
C23 C 0.66831 0.11721 0.57621 0.0
O24 O 0.63277 0.07514 0.52801 0.0
C25 C 0.7221 0.13255 0.5149 0.0
O26 O 0.6692 0.07293 0.51673 0.0
O27 O 0.72283 0.11137 0.5208 0.0
C28 C 0.84117 0.65093 0.47626 0.0
O29 O 0.84134 0.63354 0.48959 0.0
Cd30 Cd 0.86285 0.63244 0.52436 0.0
O31 O 0.84954 0.67021 0.48283 0.0
Cd32 Cd 0.86508 0.68857 0.51886 0.0
C33 C 0.91263 0.65975 0.50395 0.0
O34 O 0.84878 0.66317 0.54688 0.0
O35 O 0.87763 0.68251 0.55952 0.0
O36 O 0.83349 0.7149 0.5203 0.0
C37 C 0.86195 0.66784 0.5636 0.0
O38 O 0.90136 0.64194 0.51019 0.0
C39 C 0.84496 0.73333 0.5179 0.0
O40 O 0.90377 0.67987 0.50508 0.0
O41 O 0.86663 0.73129 0.51585 0.0
C42 C 0.35795 0.85222 0.47823 0.0
O43 O 0.37305 0.86123 0.49123 0.0
Cd44 Cd 0.36781 0.87228 0.53061 0.0
O45 O 0.33764 0.84851 0.48553 0.0
Cd46 Cd 0.31583 0.85655 0.5218 0.0
C47 C 0.32841 0.91393 0.51919 0.0
O48 O 0.34481 0.84279 0.54836 0.0
O49 O 0.31637 0.86023 0.56441 0.0
O50 O 0.29133 0.82314 0.51575 0.0
C51 C 0.33497 0.84909 0.56681 0.0
O52 O 0.34865 0.90941 0.52615 0.0
C53 C 0.27274 0.83459 0.51451 0.0
O54 O 0.314 0.89787 0.51554 0.0
O55 O 0.27416 0.8563 0.51707 0.0
C56 C 0.13451 0.6489 0.51112 0.0
O57 O 0.1366 0.63063 0.49914 0.0
Cd58 Cd 0.12731 0.62778 0.45922 0.0
O59 O 0.12977 0.66823 0.50176 0.0
Cd60 Cd 0.12643 0.68594 0.46268 0.0
C61 C 0.07533 0.65877 0.46117 0.0
O62 O 0.14893 0.65788 0.44359 0.0
O63 O 0.13131 0.68025 0.42 0.0
O64 O 0.15766 0.70731 0.47757 0.0
C65 C 0.14437 0.66291 0.42288 0.0
O66 O 0.08725 0.64044 0.4587 0.0
C67 C 0.15002 0.72734 0.47328 0.0
O68 O 0.0849 0.67842 0.46391 0.0
O69 O 0.13043 0.72866 0.4635 0.0
C70 C 0.34409 0.14127 0.49966 0.0
O71 O 0.35951 0.13639 0.48494 0.0
Cd72 Cd 0.3521 0.1189 0.44863 0.0
O73 O 0.32287 0.139 0.49471 0.0
Cd74 Cd 0.29846 0.12903 0.46063 0.0
C75 C 0.31697 0.07461 0.46798 0.0
O76 O 0.32363 0.14297 0.4316 0.0
O77 O 0.29758 0.12047 0.41847 0.0
O78 O 0.27658 0.16311 0.46839 0.0
C79 C 0.3146 0.13341 0.41423 0.0
O80 O 0.33626 0.08117 0.45989 0.0
C81 C 0.25723 0.15313 0.46963 0.0
O82 O 0.30046 0.08876 0.47058 0.0
O83 O 0.25684 0.13146 0.46621 0.0
C84 C 0.83018 0.34132 0.52099 0.0
O85 O 0.83626 0.35894 0.50951 0.0
Cd86 Cd 0.84969 0.36046 0.47094 0.0
O87 O 0.83029 0.32109 0.51219 0.0
Cd88 Cd 0.84001 0.30369 0.47354 0.0
C89 C 0.89487 0.32288 0.47893 0.0
O90 O 0.82399 0.3347 0.45266 0.0
O91 O 0.84189 0.31104 0.43069 0.0
O92 O 0.80952 0.27559 0.47556 0.0
C93 C 0.83028 0.3295 0.43249 0.0
O94 O 0.88793 0.34338 0.47494 0.0
C95 C 0.82262 0.25805 0.47471 0.0
O96 O 0.88086 0.3061 0.47987 0.0
O97 O 0.84403 0.26171 0.4731 0.0
C98 C 0.63418 0.84846 0.51843 0.0
O99 O 0.61881 0.84343 0.50372 0.0
Cd100 Cd 0.62424 0.84873 0.46348 0.0
O101 O 0.65449 0.85354 0.51193 0.0
Cd102 Cd 0.6774 0.85437 0.47513 0.0
C103 C 0.64834 0.9035 0.46705 0.0
O104 O 0.65658 0.82563 0.45375 0.0
O105 O 0.67574 0.84895 0.43244 0.0
O106 O 0.70444 0.82993 0.49481 0.0
C107 C 0.66329 0.83104 0.43373 0.0
O108 O 0.63139 0.89051 0.46203 0.0
C109 C 0.7224 0.84078 0.48888 0.0
O110 O 0.6676 0.89489 0.47293 0.0
O111 O 0.71961 0.85862 0.47639 0.0
C112 C 0.46461 0.11581 0.357 0.0
O113 O 0.4748 0.10999 0.37551 0.0
Cd114 Cd 0.51565 0.10601 0.37925 0.0
O115 O 0.4758 0.1198 0.33856 0.0
Cd116 Cd 0.51566 0.119 0.32416 0.0
C117 C 0.52117 0.06241 0.33969 0.0
O118 O 0.53146 0.13727 0.35744 0.0
O119 O 0.55668 0.1263 0.33252 0.0
O120 O 0.50559 0.15204 0.30126 0.0
C121 C 0.55238 0.13613 0.35165 0.0
O122 O 0.522 0.06886 0.3607 0.0
C123 C 0.50925 0.14256 0.28185 0.0
O124 O 0.5183 0.07697 0.32346 0.0
O125 O 0.5167 0.12192 0.28198 0.0
C126 C 0.85061 0.47678 0.35652 0.0
O127 O 0.85539 0.48991 0.37343 0.0
Cd128 Cd 0.86672 0.52912 0.36923 0.0
O129 O 0.84992 0.48454 0.33594 0.0
Cd130 Cd 0.85293 0.52245 0.31564 0.0
C131 C 0.90955 0.52257 0.32855 0.0
O132 O 0.83608 0.54414 0.34626 0.0
O133 O 0.84996 0.56545 0.31935 0.0
O134 O 0.81949 0.50984 0.29483 0.0
C135 C 0.83906 0.5642 0.33828 0.0
O136 O 0.90401 0.52646 0.34948 0.0
C137 C 0.82787 0.51263 0.2748 0.0
O138 O 0.89427 0.52019 0.31305 0.0
O139 O 0.8481 0.52072 0.27359 0.0
C140 C 0.52956 0.82509 0.34793 0.0
O141 O 0.5183 0.8303 0.36595 0.0
Cd142 Cd 0.48171 0.84867 0.36636 0.0
O143 O 0.5213 0.8284 0.32782 0.0
Cd144 Cd 0.48391 0.84259 0.31187 0.0
C145 C 0.49484 0.89576 0.33293 0.0
O146 O 0.45873 0.82616 0.34054 0.0
O147 O 0.44347 0.85303 0.32005 0.0
O148 O 0.48051 0.81344 0.2821 0.0
C149 C 0.44087 0.83725 0.33499 0.0
O150 O 0.48943 0.88828 0.35289 0.0
C151 C 0.48227 0.82736 0.26526 0.0
O152 O 0.49504 0.88232 0.31559 0.0
O153 O 0.48466 0.84859 0.27005 0.0
C154 C 0.13804 0.51771 0.34177 0.0
O155 O 0.13461 0.50355 0.35814 0.0
Cd156 Cd 0.11822 0.46626 0.3517 0.0
O157 O 0.13534 0.51153 0.32083 0.0
Cd158 Cd 0.127 0.47598 0.2983 0.0
C159 C 0.07279 0.48263 0.31658 0.0
O160 O 0.14236 0.44738 0.32414 0.0
O161 O 0.11887 0.43433 0.29852 0.0
O162 O 0.1614 0.48308 0.27694 0.0
C163 C 0.13296 0.4301 0.31468 0.0
O164 O 0.07991 0.4754 0.33612 0.0
C165 C 0.15204 0.48346 0.25715 0.0
O166 O 0.08657 0.48511 0.29972 0.0
O167 O 0.13048 0.48016 0.25628 0.0
C168 C 0.45776 0.85165 0.67818 0.0
O169 O 0.47264 0.8361 0.67528 0.0
Cd170 Cd 0.5036 0.86205 0.68784 0.0
O171 O 0.46462 0.87023 0.6873 0.0
Cd172 Cd 0.50893 0.86635 0.69612 0.0
C173 C 0.49828 0.91539 0.69672 0.0
O174 O 0.5284 0.85321 0.65901 0.0
O175 O 0.54688 0.87887 0.67815 0.0
O176 O 0.51209 0.82747 0.71312 0.0
C177 C 0.54616 0.86549 0.66075 0.0
O178 O 0.49288 0.90347 0.6792 0.0
C179 C 0.51696 0.83476 0.73319 0.0
O180 O 0.50843 0.90499 0.71293 0.0
O181 O 0.51816 0.8564 0.73608 0.0
C182 C 0.11687 0.48852 0.62153 0.0
O183 O 0.11119 0.50352 0.60659 0.0
Cd184 Cd 0.10051 0.54119 0.61902 0.0
O185 O 0.11928 0.49403 0.64268 0.0
Cd186 Cd 0.1197 0.52708 0.66965 0.0
C187 C 0.06277 0.5243 0.66228 0.0
O188 O 0.13345 0.55213 0.64112 0.0
O189 O 0.1224 0.5704 0.67157 0.0
O190 O 0.15439 0.50747 0.6784 0.0
C191 C 0.13183 0.57107 0.6518 0.0
O192 O 0.06617 0.53203 0.64196 0.0
C193 C 0.15214 0.50768 0.70015 0.0
O194 O 0.07943 0.52105 0.67609 0.0
O195 O 0.13472 0.51814 0.70838 0.0
C196 C 0.5184 0.11809 0.63821 0.0
O197 O 0.50675 0.10964 0.6217 0.0
Cd198 Cd 0.46568 0.10831 0.62141 0.0
O199 O 0.50851 0.12715 0.65562 0.0
Cd200 Cd 0.46943 0.13486 0.67065 0.0
C201 C 0.46147 0.07704 0.67176 0.0
O202 O 0.45308 0.14526 0.63431 0.0
O203 O 0.42817 0.14076 0.66141 0.0
O204 O 0.48424 0.17208 0.68052 0.0
C205 C 0.43233 0.14642 0.64065 0.0
O206 O 0.45899 0.07837 0.64994 0.0
C207 C 0.47903 0.17144 0.70177 0.0
O208 O 0.46627 0.09488 0.68371 0.0
O209 O 0.46906 0.15332 0.70905 0.0
C210 C 0.85451 0.52858 0.65634 0.0
O211 O 0.835 0.51916 0.65565 0.0
Cd212 Cd 0.85061 0.48226 0.66976 0.0
O213 O 0.87076 0.51653 0.66434 0.0
Cd214 Cd 0.85453 0.47693 0.67905 0.0
C215 C 0.90372 0.47275 0.67484 0.0
O216 O 0.82905 0.4558 0.65007 0.0
O217 O 0.85696 0.43602 0.66404 0.0
O218 O 0.82194 0.49318 0.70039 0.0
C219 C 0.83917 0.43657 0.65136 0.0
O220 O 0.89214 0.47821 0.65711 0.0
C221 C 0.82827 0.48521 0.71979 0.0
O222 O 0.89266 0.46878 0.69315 0.0
O223 O 0.84614 0.47266 0.72005 0.0
C224 C 0.35033 0.46626 0.11403 0.0
O225 O 0.36604 0.47817 0.10464 0.0
Cd226 Cd 0.36454 0.51902 0.09891 0.0
O227 O 0.3315 0.47554 0.12037 0.0
Cd228 Cd 0.31372 0.51462 0.11744 0.0
C229 C 0.3217 0.51856 0.05945 0.0
O230 O 0.34644 0.53422 0.13295 0.0
O231 O 0.32003 0.55692 0.12032 0.0
O232 O 0.29157 0.50599 0.15164 0.0
C233 C 0.33901 0.55461 0.13084 0.0
O234 O 0.34272 0.52316 0.06327 0.0
C235 C 0.27219 0.51021 0.14251 0.0
O236 O 0.30826 0.51359 0.07599 0.0
O237 O 0.27213 0.51666 0.12157 0.0
C238 C 0.31929 0.5379 0.83394 0.0
O239 O 0.32662 0.52409 0.81875 0.0
Cd240 Cd 0.31258 0.49066 0.84049 0.0
O241 O 0.30806 0.5292 0.85046 0.0
Cd242 Cd 0.30312 0.48467 0.84516 0.0
C243 C 0.3008 0.49332 0.89392 0.0
O244 O 0.33807 0.46229 0.83091 0.0
O245 O 0.32452 0.45158 0.86373 0.0
O246 O 0.28855 0.48177 0.80571 0.0
C247 C 0.33879 0.44822 0.84752 0.0
O248 O 0.31887 0.49851 0.88289 0.0
C249 C 0.26914 0.47383 0.81155 0.0
O250 O 0.28441 0.48465 0.88251 0.0
O251 O 0.26533 0.47098 0.83293 0.0
C252 C 0.47868 0.35922 0.86718 0.0
O253 O 0.49204 0.37278 0.87792 0.0
Cd254 Cd 0.53098 0.36311 0.88591 0.0
O255 O 0.48569 0.3396 0.86007 0.0
Cd256 Cd 0.52113 0.31556 0.86033 0.0
C257 C 0.51964 0.31486 0.91847 0.0
O258 O 0.54548 0.3469 0.85083 0.0
O259 O 0.5641 0.31668 0.86187 0.0
O260 O 0.51138 0.30726 0.82108 0.0
C261 C 0.56456 0.33674 0.85308 0.0
O262 O 0.52671 0.3356 0.91717 0.0
C263 C 0.51237 0.28548 0.82257 0.0
O264 O 0.51526 0.30331 0.90027 0.0
O265 O 0.51718 0.27701 0.84226 0.0
C266 C 0.64357 0.47528 0.85555 0.0
O267 O 0.62451 0.48541 0.85896 0.0
Cd268 Cd 0.61956 0.52406 0.87164 0.0
O269 O 0.66259 0.48604 0.85699 0.0
Cd270 Cd 0.67564 0.52673 0.86238 0.0
C271 C 0.65762 0.52293 0.91778 0.0
O272 O 0.64316 0.5431 0.84464 0.0
O273 O 0.66476 0.56854 0.86058 0.0
O274 O 0.69869 0.52254 0.82866 0.0
C275 C 0.64682 0.56412 0.84893 0.0
O276 O 0.63707 0.52359 0.9102 0.0
C277 C 0.71784 0.52589 0.83852 0.0
O278 O 0.67465 0.52356 0.90402 0.0
O279 O 0.7176 0.53005 0.86009 0.0
C280 C 0.49691 0.6357 0.85092 0.0
O281 O 0.48236 0.61954 0.84864 0.0
Cd282 Cd 0.44402 0.62615 0.8618 0.0
O283 O 0.49054 0.6558 0.85707 0.0
Cd284 Cd 0.45862 0.68233 0.86562 0.0
C285 C 0.45992 0.6516 0.91477 0.0
O286 O 0.43332 0.66064 0.8425 0.0
O287 O 0.41601 0.68658 0.86257 0.0
O288 O 0.48167 0.69943 0.83697 0.0
C289 C 0.41458 0.67001 0.84824 0.0
O290 O 0.45282 0.63477 0.90245 0.0
C291 C 0.48142 0.71984 0.84479 0.0
O292 O 0.46341 0.67145 0.90593 0.0
O293 O 0.46913 0.72379 0.8626 0.0
C294 C 0.63462 0.51529 0.14652 0.0
O295 O 0.61632 0.50404 0.14266 0.0
Cd296 Cd 0.61684 0.46676 0.12487 0.0
O297 O 0.65421 0.50584 0.14401 0.0
Cd298 Cd 0.67058 0.46705 0.13582 0.0
C299 C 0.65535 0.47839 0.081 0.0
O300 O 0.63963 0.44273 0.14923 0.0
O301 O 0.66481 0.4258 0.12774 0.0
O302 O 0.69309 0.47028 0.17052 0.0
C303 C 0.6468 0.42423 0.13997 0.0
O304 O 0.63471 0.47444 0.08713 0.0
C305 C 0.71247 0.46901 0.16057 0.0
O306 O 0.67169 0.47729 0.09552 0.0
O307 O 0.71244 0.46605 0.13881 0.0
C308 C 0.47908 0.6383 0.13743 0.0
O309 O 0.49287 0.6214 0.13937 0.0
Cd310 Cd 0.5314 0.62293 0.12686 0.0
O311 O 0.48613 0.65813 0.13096 0.0
Cd312 Cd 0.52233 0.67986 0.12246 0.0
C313 C 0.51974 0.64903 0.07333 0.0
O314 O 0.54348 0.65593 0.14714 0.0
O315 O 0.5655 0.67737 0.12689 0.0
O316 O 0.50368 0.70413 0.14949 0.0
C317 C 0.5637 0.66179 0.14219 0.0
O318 O 0.52491 0.63166 0.08585 0.0
C319 C 0.50865 0.72329 0.14021 0.0
O320 O 0.51775 0.66913 0.08208 0.0
O321 O 0.52068 0.72267 0.12186 0.0
C322 C 0.51823 0.31693 0.13859 0.0
O323 O 0.5039 0.32073 0.1545 0.0
Cd324 Cd 0.47357 0.29991 0.13382 0.0
O325 O 0.51155 0.3044 0.122 0.0
Cd326 Cd 0.46949 0.29012 0.12878 0.0
C327 C 0.47627 0.28965 0.07975 0.0
O328 O 0.44153 0.31915 0.1465 0.0
O329 O 0.43391 0.30877 0.11181 0.0
O330 O 0.47612 0.27187 0.16646 0.0
C331 C 0.42813 0.3204 0.12945 0.0
O332 O 0.47869 0.30825 0.09108 0.0
C333 C 0.46928 0.25205 0.16012 0.0
O334 O 0.47078 0.27182 0.09102 0.0
O335 O 0.46165 0.25017 0.13965 0.0
H336 H 0.09629 0.41301 0.33672 0.0
H337 H 0.16819 0.40043 0.32321 0.0
H338 H 0.16832 0.36911 0.35232 0.0
H339 H 0.10201 0.41306 0.39327 0.0
H340 H 0.07484 0.40016 0.40065 0.0
H341 H 0.07791 0.41525 0.37382 0.0
H342 H 0.06464 0.37892 0.35136 0.0
H343 H 0.06129 0.36366 0.37828 0.0
H344 H 0.07917 0.35179 0.3558 0.0
H345 H 0.16262 0.34486 0.38745 0.0
H346 H 0.15313 0.33344 0.42756 0.0
H347 H 0.0862 0.36523 0.42052 0.0
C348 C 0.11163 0.40267 0.33906 0.0
C349 C 0.132 0.40829 0.32734 0.0
C350 C 0.15229 0.39568 0.33166 0.0
C351 C 0.15246 0.37789 0.34809 0.0
C352 C 0.13226 0.3733 0.36021 0.0
C353 C 0.11219 0.38544 0.3559 0.0
C354 C 0.09437 0.38106 0.37437 0.0
C355 C 0.08688 0.40372 0.38622 0.0
C356 C 0.07364 0.36808 0.36435 0.0
C357 C 0.108 0.36581 0.39052 0.0
C358 C 0.12943 0.36064 0.38161 0.0
C359 C 0.14573 0.34839 0.39439 0.0
C360 C 0.14023 0.34196 0.4171 0.0
C361 C 0.11896 0.34849 0.42684 0.0
C362 C 0.10248 0.3599 0.4132 0.0
H363 H 0.59617 0.1535 0.47816 0.0
H364 H 0.66314 0.13065 0.45451 0.0
H365 H 0.6506 0.13553 0.41412 0.0
H366 H 0.5651 0.12321 0.44053 0.0
H367 H 0.54291 0.14436 0.43558 0.0
H368 H 0.55863 0.1446 0.46223 0.0
H369 H 0.57042 0.18716 0.45526 0.0
H370 H 0.55447 0.18716 0.42856 0.0
H371 H 0.5844 0.19503 0.42864 0.0
H372 H 0.62848 0.13515 0.37699 0.0
H373 H 0.59898 0.13064 0.34659 0.0
H374 H 0.54681 0.15414 0.39463 0.0
C375 C 0.60848 0.15028 0.46453 0.0
C376 C 0.6306 0.14166 0.46951 0.0
C377 C 0.64611 0.13737 0.45114 0.0
C378 C 0.63916 0.14016 0.42811 0.0
C379 C 0.61682 0.14763 0.42378 0.0
C380 C 0.60184 0.15301 0.44152 0.0
C381 C 0.57796 0.15792 0.43252 0.0
C382 C 0.56013 0.14153 0.44335 0.0
C383 C 0.57144 0.18333 0.43648 0.0
C384 C 0.58146 0.15293 0.40714 0.0
C385 C 0.60407 0.14754 0.40229 0.0
C386 C 0.61084 0.13992 0.38046 0.0
C387 C 0.59397 0.13732 0.36332 0.0
C388 C 0.57065 0.14209 0.36827 0.0
C389 C 0.56455 0.15062 0.39026 0.0
H390 H 0.81426 0.61662 0.45931 0.0
H391 H 0.85362 0.67647 0.43836 0.0
H392 H 0.85035 0.66427 0.39759 0.0
H393 H 0.8408 0.57873 0.42665 0.0
H394 H 0.81644 0.56112 0.41906 0.0
H395 H 0.81594 0.57772 0.44519 0.0
H396 H 0.77841 0.59798 0.43219 0.0
H397 H 0.77858 0.58113 0.40598 0.0
H398 H 0.77728 0.61218 0.40452 0.0
H399 H 0.85092 0.64069 0.36099 0.0
H400 H 0.85384 0.60901 0.33239 0.0
H401 H 0.81381 0.565 0.37751 0.0
C402 C 0.82136 0.62768 0.44605 0.0
C403 C 0.83416 0.64746 0.45196 0.0
C404 C 0.84349 0.66137 0.43419 0.0
C405 C 0.84173 0.65454 0.41096 0.0
C406 C 0.83017 0.63408 0.40583 0.0
C407 C 0.81969 0.62113 0.42291 0.0
C408 C 0.81114 0.59829 0.41365 0.0
C409 C 0.82173 0.57779 0.42691 0.0
C410 C 0.78478 0.59735 0.41411 0.0
C411 C 0.82001 0.59958 0.38917 0.0
C412 C 0.83042 0.62054 0.38469 0.0
C413 C 0.84223 0.62449 0.36407 0.0
C414 C 0.84387 0.60639 0.34794 0.0
C415 C 0.83403 0.58459 0.35276 0.0
C416 C 0.82133 0.58155 0.37326 0.0
H417 H 0.38298 0.87923 0.44968 0.0
H418 H 0.34658 0.81412 0.45257 0.0
H419 H 0.36012 0.80476 0.41298 0.0
H420 H 0.37157 0.89019 0.38724 0.0
H421 H 0.39928 0.90342 0.38326 0.0
H422 H 0.38489 0.90561 0.41074 0.0
H423 H 0.42053 0.88807 0.4311 0.0
H424 H 0.43498 0.8859 0.40377 0.0
H425 H 0.43152 0.86058 0.4215 0.0
H426 H 0.38327 0.80013 0.37617 0.0
H427 H 0.41124 0.80208 0.34391 0.0
H428 H 0.42876 0.87196 0.3635 0.0
C429 C 0.3776 0.86315 0.44179 0.0
C430 C 0.36396 0.84725 0.45405 0.0
C431 C 0.35703 0.82648 0.44329 0.0
C432 C 0.36461 0.82108 0.42088 0.0
C433 C 0.37844 0.83702 0.40934 0.0
C434 C 0.38444 0.85785 0.41931 0.0
C435 C 0.40007 0.87171 0.40377 0.0
C436 C 0.38824 0.89406 0.39578 0.0
C437 C 0.42313 0.87684 0.41575 0.0
C438 C 0.40296 0.85496 0.38397 0.0
C439 C 0.39031 0.83503 0.38741 0.0
C440 C 0.39259 0.81594 0.37286 0.0
C441 C 0.40843 0.81717 0.35462 0.0
C442 C 0.42133 0.83746 0.35092 0.0
C443 C 0.41823 0.85668 0.36546 0.0
H444 H 0.16409 0.57664 0.6195 0.0
H445 H 0.10925 0.6128 0.65466 0.0
H446 H 0.11044 0.64344 0.62483 0.0
H447 H 0.19363 0.6299 0.59245 0.0
H448 H 0.1992 0.61342 0.56662 0.0
H449 H 0.19954 0.59941 0.59443 0.0
H450 H 0.16958 0.56993 0.57953 0.0
H451 H 0.16871 0.58397 0.55201 0.0
H452 H 0.14258 0.58027 0.56827 0.0
H453 H 0.11107 0.66422 0.58656 0.0
H454 H 0.1109 0.67257 0.54457 0.0
H455 H 0.16379 0.62103 0.53415 0.0
C456 C 0.15314 0.59164 0.62149 0.0
C457 C 0.1367 0.59257 0.63927 0.0
C458 C 0.12225 0.61207 0.6413 0.0
C459 C 0.12281 0.62949 0.62439 0.0
C460 C 0.13816 0.62718 0.60597 0.0
C461 C 0.15339 0.60884 0.60473 0.0
C462 C 0.16518 0.60762 0.58152 0.0
C463 C 0.19091 0.61291 0.58391 0.0
C464 C 0.16124 0.58407 0.56966 0.0
C465 C 0.15283 0.62685 0.56912 0.0
C466 C 0.13797 0.63859 0.58364 0.0
C467 C 0.12308 0.65554 0.57523 0.0
C468 C 0.12303 0.66013 0.55139 0.0
C469 C 0.1373 0.64732 0.53632 0.0
C470 C 0.15279 0.63106 0.54543 0.0
H471 H 0.38639 0.15572 0.51333 0.0
H472 H 0.31817 0.14085 0.53936 0.0
H473 H 0.33234 0.14577 0.57937 0.0
H474 H 0.4159 0.12415 0.55262 0.0
H475 H 0.43987 0.14359 0.55549 0.0
H476 H 0.42351 0.14317 0.52921 0.0
H477 H 0.41553 0.18704 0.53313 0.0
H478 H 0.43211 0.18767 0.55942 0.0
H479 H 0.40294 0.1981 0.55935 0.0
H480 H 0.35563 0.14624 0.61647 0.0
H481 H 0.38552 0.14338 0.64682 0.0
H482 H 0.43783 0.15832 0.59568 0.0
C483 C 0.37425 0.15409 0.52739 0.0
C484 C 0.3512 0.14789 0.52326 0.0
C485 C 0.33589 0.14577 0.54214 0.0
C486 C 0.34378 0.14853 0.56492 0.0
C487 C 0.36689 0.15379 0.5684 0.0
C488 C 0.38179 0.15689 0.55008 0.0
C489 C 0.40618 0.16038 0.55819 0.0
C490 C 0.42229 0.1417 0.5483 0.0
C491 C 0.41468 0.18475 0.55217 0.0
C492 C 0.40295 0.15761 0.5839 0.0
C493 C 0.38017 0.15419 0.58961 0.0
C494 C 0.37345 0.14937 0.61224 0.0
C495 C 0.39052 0.14772 0.62934 0.0
C496 C 0.41396 0.15066 0.62358 0.0
C497 C 0.42005 0.15615 0.60067 0.0
H498 H 0.86541 0.40128 0.63457 0.0
H499 H 0.79587 0.42783 0.6361 0.0
H500 H 0.78383 0.39768 0.60854 0.0
H501 H 0.86789 0.39499 0.57714 0.0
H502 H 0.88506 0.36908 0.57651 0.0
H503 H 0.88674 0.38813 0.60088 0.0
H504 H 0.87632 0.35422 0.62812 0.0
H505 H 0.87444 0.33505 0.60363 0.0
H506 H 0.85044 0.33794 0.62307 0.0
H507 H 0.7809 0.37064 0.57574 0.0
H508 H 0.7882 0.35137 0.53833 0.0
H509 H 0.8596 0.34264 0.55677 0.0
C510 C 0.84748 0.40008 0.62978 0.0
C511 C 0.83148 0.4166 0.63761 0.0
C512 C 0.80833 0.41517 0.63036 0.0
C513 C 0.80131 0.39798 0.61488 0.0
C514 C 0.81765 0.38236 0.60676 0.0
C515 C 0.8403 0.38325 0.61396 0.0
C516 C 0.85526 0.3673 0.59967 0.0
C517 C 0.87486 0.38068 0.58785 0.0
C518 C 0.86467 0.34745 0.61452 0.0
C519 C 0.83781 0.35854 0.58234 0.0
C520 C 0.81603 0.36676 0.58726 0.0
C521 C 0.79767 0.36346 0.5721 0.0
C522 C 0.80189 0.35242 0.55096 0.0
C523 C 0.82424 0.34495 0.54526 0.0
C524 C 0.84219 0.34734 0.56139 0.0
H525 H 0.54523 0.84061 0.62105 0.0
H526 H 0.58807 0.88778 0.66015 0.0
H527 H 0.61765 0.88571 0.62934 0.0
H528 H 0.59105 0.80488 0.59745 0.0
H529 H 0.57668 0.80157 0.57007 0.0
H530 H 0.56013 0.80541 0.59607 0.0
H531 H 0.53952 0.84068 0.57782 0.0
H532 H 0.55588 0.83687 0.55178 0.0
H533 H 0.5564 0.86422 0.56664 0.0
H534 H 0.64167 0.87948 0.59271 0.0
H535 H 0.6563 0.87203 0.55321 0.0
H536 H 0.59659 0.82963 0.539 0.0
C537 C 0.56093 0.85034 0.62335 0.0
C538 C 0.56442 0.86429 0.64304 0.0
C539 C 0.58509 0.87694 0.6452 0.0
C540 C 0.60199 0.87578 0.62785 0.0
C541 C 0.59789 0.86187 0.60857 0.0
C542 C 0.57777 0.84946 0.60629 0.0
C543 C 0.5766 0.83694 0.58342 0.0
C544 C 0.57609 0.81064 0.58698 0.0
C545 C 0.55588 0.84518 0.56908 0.0
C546 C 0.59901 0.84458 0.57284 0.0
C547 C 0.6113 0.85866 0.58764 0.0
C548 C 0.63223 0.86834 0.58109 0.0
C549 C 0.64045 0.86394 0.55866 0.0
C550 C 0.62758 0.85026 0.54304 0.0
C551 C 0.60686 0.84014 0.55053 0.0
H552 H 0.34203 0.09687 0.40981 0.0
H553 H 0.32269 0.161 0.37703 0.0
H554 H 0.35712 0.15872 0.35203 0.0
H555 H 0.39528 0.11261 0.41846 0.0
H556 H 0.40912 0.08501 0.4147 0.0
H557 H 0.37962 0.08625 0.42346 0.0
H558 H 0.36745 0.06109 0.38863 0.0
H559 H 0.39711 0.05904 0.37996 0.0
H560 H 0.37583 0.06937 0.35984 0.0
H561 H 0.39688 0.15347 0.33645 0.0
H562 H 0.43883 0.14728 0.33333 0.0
H563 H 0.43398 0.08959 0.38067 0.0
C564 C 0.34442 0.10959 0.39631 0.0
C565 C 0.32949 0.12861 0.39451 0.0
C566 C 0.33362 0.14588 0.37787 0.0
C567 C 0.35316 0.14472 0.36373 0.0
C568 C 0.36847 0.1264 0.3669 0.0
C569 C 0.36425 0.10908 0.38283 0.0
C570 C 0.38529 0.09426 0.38679 0.0
C571 C 0.39276 0.09459 0.41235 0.0
C572 C 0.38117 0.06947 0.37828 0.0
C573 C 0.40236 0.10663 0.3716 0.0
C574 C 0.39218 0.12456 0.35958 0.0
C575 C 0.40493 0.13926 0.34549 0.0
C576 C 0.42871 0.13569 0.34389 0.0
C577 C 0.43946 0.11808 0.35691 0.0
C578 C 0.42607 0.10321 0.37062 0.0
H579 H 0.8149 0.37337 0.43685 0.0
H580 H 0.84626 0.3265 0.38759 0.0
H581 H 0.85074 0.35896 0.36 0.0
H582 H 0.78612 0.4125 0.39542 0.0
H583 H 0.7928 0.43738 0.41288 0.0
H584 H 0.78814 0.40975 0.42637 0.0
H585 H 0.82793 0.41274 0.44628 0.0
H586 H 0.83282 0.44018 0.43273 0.0
H587 H 0.85319 0.41705 0.42883 0.0
H588 H 0.85494 0.39795 0.33948 0.0
H589 H 0.86057 0.43921 0.32935 0.0
H590 H 0.82927 0.4594 0.39419 0.0
C591 C 0.82215 0.36966 0.42002 0.0
C592 C 0.83009 0.34737 0.41428 0.0
C593 C 0.83988 0.34344 0.39225 0.0
C594 C 0.84245 0.36176 0.37649 0.0
C595 C 0.83517 0.38377 0.38314 0.0
C596 C 0.8252 0.38767 0.40445 0.0
C597 C 0.82133 0.41306 0.40892 0.0
C598 C 0.79557 0.41848 0.41101 0.0
C599 C 0.83461 0.42122 0.43045 0.0
C600 C 0.83127 0.42305 0.38709 0.0
C601 C 0.83867 0.40599 0.37209 0.0
C602 C 0.84904 0.41139 0.35105 0.0
C603 C 0.85217 0.4348 0.34543 0.0
C604 C 0.84547 0.45233 0.3611 0.0
C605 C 0.83466 0.44629 0.38198 0.0
H606 H 0.56756 0.85113 0.34368 0.0
H607 H 0.54396 0.78278 0.36172 0.0
H608 H 0.58231 0.77339 0.3774 0.0
H609 H 0.63193 0.83556 0.33402 0.0
H610 H 0.6404 0.86231 0.34744 0.0
H611 H 0.61434 0.86096 0.33066 0.0
H612 H 0.59144 0.87677 0.36561 0.0
H613 H 0.61721 0.87799 0.38245 0.0
H614 H 0.59294 0.86177 0.39286 0.0
H615 H 0.61789 0.77499 0.39991 0.0
H616 H 0.64747 0.78746 0.42771 0.0
H617 H 0.64909 0.85499 0.39579 0.0
C618 C 0.57108 0.83377 0.34968 0.0
C619 C 0.55332 0.81734 0.35088 0.0
C620 C 0.55773 0.79524 0.36008 0.0
C621 C 0.57945 0.78981 0.36898 0.0
C622 C 0.59646 0.80676 0.36863 0.0
C623 C 0.59261 0.82829 0.35896 0.0
C624 C 0.61192 0.84486 0.36474 0.0
C625 C 0.62545 0.85129 0.34291 0.0
C626 C 0.60282 0.86659 0.37716 0.0
C627 C 0.62623 0.82993 0.3807 0.0
C628 C 0.61741 0.80779 0.38211 0.0
C629 C 0.62546 0.79197 0.39837 0.0
C630 C 0.64222 0.79919 0.41413 0.0
C631 C 0.65078 0.822 0.41354 0.0
C632 C 0.64341 0.83721 0.39601 0.0
H633 H 0.16204 0.61989 0.42815 0.0
H634 H 0.13447 0.66645 0.37643 0.0
H635 H 0.13561 0.6348 0.34762 0.0
H636 H 0.198 0.58324 0.38932 0.0
H637 H 0.19047 0.55755 0.40514 0.0
H638 H 0.1922 0.58493 0.41986 0.0
H639 H 0.15054 0.57962 0.43468 0.0
H640 H 0.1486 0.55241 0.41993 0.0
H641 H 0.12777 0.57471 0.41416 0.0
H642 H 0.13528 0.5967 0.32608 0.0
H643 H 0.13125 0.55579 0.31454 0.0
H644 H 0.15654 0.53445 0.3817 0.0
C645 C 0.15688 0.62372 0.41059 0.0
C646 C 0.14831 0.64568 0.40446 0.0
C647 C 0.14127 0.64978 0.38142 0.0
C648 C 0.14193 0.63192 0.36496 0.0
C649 C 0.14965 0.61017 0.37189 0.0
C650 C 0.15703 0.60608 0.39421 0.0
C651 C 0.16152 0.58072 0.3984 0.0
C652 C 0.18707 0.57636 0.40347 0.0
C653 C 0.14619 0.57133 0.41793 0.0
C654 C 0.15472 0.57095 0.37522 0.0
C655 C 0.1485 0.58819 0.35992 0.0
C656 C 0.14041 0.58311 0.33782 0.0
C657 C 0.13819 0.55983 0.33142 0.0
C658 C 0.14356 0.54198 0.34727 0.0
C659 C 0.15235 0.54772 0.36922 0.0
H660 H 0.37213 0.82248 0.57739 0.0
H661 H 0.32557 0.87324 0.60645 0.0
H662 H 0.34953 0.87523 0.64165 0.0
H663 H 0.38709 0.79349 0.63366 0.0
H664 H 0.41638 0.78911 0.62459 0.0
H665 H 0.39355 0.78895 0.60354 0.0
H666 H 0.4144 0.82098 0.58042 0.0
H667 H 0.43716 0.82131 0.60136 0.0
H668 H 0.42192 0.84758 0.59471 0.0
H669 H 0.38216 0.87696 0.67001 0.0
H670 H 0.41958 0.87649 0.69023 0.0
H671 H 0.44364 0.82295 0.64378 0.0
C672 C 0.36663 0.83354 0.59143 0.0
C673 C 0.34703 0.84772 0.58923 0.0
C674 C 0.34046 0.86212 0.60786 0.0
C675 C 0.35396 0.86335 0.62792 0.0
C676 C 0.37365 0.84968 0.62923 0.0
C677 C 0.37973 0.83473 0.61163 0.0
C678 C 0.40263 0.82331 0.61638 0.0
C679 C 0.39973 0.79716 0.61975 0.0
C680 C 0.42004 0.82863 0.59708 0.0
C681 C 0.40908 0.83506 0.6388 0.0
C682 C 0.39206 0.85006 0.64609 0.0
C683 C 0.39532 0.8648 0.66487 0.0
C684 C 0.41663 0.86447 0.6762 0.0
C685 C 0.43431 0.84941 0.66879 0.0
C686 C 0.43019 0.83415 0.65024 0.0
H687 H 0.12684 0.47299 0.57822 0.0
H688 H 0.11652 0.44989 0.64874 0.0
H689 H 0.12238 0.40945 0.63629 0.0
H690 H 0.09771 0.42798 0.55071 0.0
H691 H 0.11734 0.426 0.52673 0.0
H692 H 0.11375 0.45299 0.54167 0.0
H693 H 0.15759 0.45462 0.54944 0.0
H694 H 0.1613 0.42753 0.53457 0.0
H695 H 0.17147 0.43078 0.5638 0.0
H696 H 0.12565 0.37125 0.6151 0.0
H697 H 0.1272 0.33888 0.58707 0.0
H698 H 0.13769 0.38798 0.53149 0.0
C699 C 0.12594 0.45945 0.59108 0.0
C700 C 0.12112 0.46449 0.61438 0.0
C701 C 0.12025 0.44634 0.63075 0.0
C702 C 0.12358 0.42335 0.62387 0.0
C703 C 0.12817 0.41895 0.60067 0.0
C704 C 0.12959 0.43655 0.5846 0.0
C705 C 0.13409 0.42734 0.56065 0.0
C706 C 0.11456 0.43396 0.54397 0.0
C707 C 0.15751 0.43555 0.55159 0.0
C708 C 0.13427 0.40176 0.56559 0.0
C709 C 0.13091 0.39716 0.58875 0.0
C710 C 0.1287 0.37463 0.59697 0.0
C711 C 0.12957 0.35639 0.58099 0.0
C712 C 0.13271 0.36093 0.55718 0.0
C713 C 0.13559 0.38389 0.54961 0.0
H714 H 0.5451 0.08842 0.61336 0.0
H715 H 0.54869 0.14662 0.66038 0.0
H716 H 0.59086 0.14767 0.65569 0.0
H717 H 0.60107 0.06127 0.63138 0.0
H718 H 0.60718 0.05238 0.60218 0.0
H719 H 0.57788 0.05397 0.6121 0.0
H720 H 0.56774 0.0815 0.5782 0.0
H721 H 0.5968 0.07961 0.56813 0.0
H722 H 0.58434 0.10745 0.57422 0.0
H723 H 0.63064 0.14758 0.63939 0.0
H724 H 0.66458 0.14534 0.61372 0.0
H725 H 0.63625 0.08473 0.58082 0.0
C726 C 0.55483 0.10109 0.62303 0.0
C727 C 0.5437 0.11751 0.63713 0.0
C728 C 0.55694 0.13383 0.64953 0.0
C729 C 0.58089 0.13448 0.64706 0.0
C730 C 0.59134 0.11829 0.63264 0.0
C731 C 0.57872 0.10166 0.62111 0.0
C732 C 0.59367 0.08752 0.60511 0.0
C733 C 0.59503 0.06229 0.61319 0.0
C734 C 0.58513 0.08915 0.57995 0.0
C735 C 0.61641 0.09966 0.60836 0.0
C736 C 0.61483 0.11724 0.6245 0.0
C737 C 0.63246 0.13329 0.62747 0.0
C738 C 0.65172 0.13187 0.61297 0.0
C739 C 0.65325 0.11428 0.59616 0.0
C740 C 0.63587 0.09752 0.59449 0.0
H741 H 0.82533 0.55492 0.63035 0.0
H742 H 0.89264 0.55546 0.66247 0.0
H743 H 0.89987 0.59426 0.64632 0.0
H744 H 0.84273 0.57922 0.5784 0.0
H745 H 0.81691 0.59579 0.57385 0.0
H746 H 0.81589 0.56969 0.59059 0.0
H747 H 0.79818 0.59237 0.62488 0.0
H748 H 0.79927 0.61863 0.60822 0.0
H749 H 0.81291 0.61732 0.63615 0.0
H750 H 0.90095 0.63163 0.62402 0.0
H751 H 0.89699 0.66273 0.59502 0.0
H752 H 0.8294 0.637 0.57695 0.0
C753 C 0.8414 0.5634 0.63438 0.0
C754 C 0.85834 0.5523 0.64781 0.0
C755 C 0.87937 0.56373 0.65229 0.0
C756 C 0.88358 0.58581 0.64331 0.0
C757 C 0.86659 0.5962 0.6299 0.0
C758 C 0.84595 0.58531 0.62539 0.0
C759 C 0.83146 0.5991 0.60865 0.0
C760 C 0.82648 0.58512 0.58657 0.0
C761 C 0.80913 0.60734 0.62017 0.0
C762 C 0.84744 0.6191 0.60391 0.0
C763 C 0.86743 0.61741 0.61665 0.0
C764 C 0.88526 0.63327 0.61414 0.0
C765 C 0.88284 0.65092 0.59768 0.0
C766 C 0.86288 0.65227 0.58377 0.0
C767 C 0.84479 0.63649 0.58745 0.0
H768 H 0.3736 0.4365 0.08627 0.0
H769 H 0.33701 0.44064 0.1513 0.0
H770 H 0.34884 0.40057 0.16047 0.0
H771 H 0.36044 0.37386 0.07523 0.0
H772 H 0.3882 0.36919 0.06227 0.0
H773 H 0.37435 0.39693 0.05976 0.0
H774 H 0.41024 0.41662 0.07742 0.0
H775 H 0.42413 0.38904 0.08004 0.0
H776 H 0.42072 0.40714 0.10515 0.0
H777 H 0.37104 0.36358 0.16555 0.0
H778 H 0.39848 0.33089 0.16435 0.0
H779 H 0.41698 0.34905 0.09426 0.0
C780 C 0.36765 0.42873 0.10219 0.0
C781 C 0.35449 0.44152 0.11815 0.0
C782 C 0.34698 0.43095 0.13882 0.0
C783 C 0.35362 0.40826 0.14414 0.0
C784 C 0.36714 0.39625 0.12826 0.0
C785 C 0.37359 0.40595 0.10744 0.0
C786 C 0.38907 0.38995 0.09385 0.0
C787 C 0.37731 0.38201 0.07145 0.0
C788 C 0.41241 0.40137 0.08884 0.0
C789 C 0.3914 0.37024 0.11081 0.0
C790 C 0.37858 0.37414 0.13055 0.0
C791 C 0.38049 0.35991 0.14988 0.0
C792 C 0.39611 0.34145 0.14909 0.0
C793 C 0.40923 0.33723 0.12899 0.0
C794 C 0.40642 0.35145 0.10947 0.0
H795 H 0.40715 0.63793 0.81508 0.0
H796 H 0.3734 0.67425 0.87108 0.0
H797 H 0.3405 0.64746 0.8682 0.0
H798 H 0.35272 0.62009 0.78274 0.0
H799 H 0.36553 0.59271 0.77539 0.0
H800 H 0.38322 0.61811 0.77786 0.0
H801 H 0.40895 0.59691 0.80759 0.0
H802 H 0.39129 0.57166 0.80551 0.0
H803 H 0.39609 0.58496 0.83325 0.0
H804 H 0.31623 0.61196 0.86531 0.0
H805 H 0.30178 0.5721 0.86142 0.0
H806 H 0.35113 0.55923 0.80684 0.0
C807 C 0.39241 0.64081 0.82612 0.0
C808 C 0.39274 0.65812 0.84326 0.0
C809 C 0.37336 0.66121 0.85766 0.0
C810 C 0.35461 0.64607 0.85613 0.0
C811 C 0.3554 0.6283 0.83983 0.0
C812 C 0.37365 0.62592 0.82475 0.0
C813 C 0.37198 0.60379 0.81094 0.0
C814 C 0.36813 0.60899 0.7852 0.0
C815 C 0.39333 0.58844 0.81456 0.0
C816 C 0.35082 0.59327 0.8217 0.0
C817 C 0.34119 0.60785 0.83799 0.0
C818 C 0.3232 0.60069 0.85214 0.0
C819 C 0.31518 0.57798 0.84989 0.0
C820 C 0.32524 0.56266 0.8337 0.0
C821 C 0.3428 0.5707 0.81901 0.0
H822 H 0.45167 0.38758 0.89322 0.0
H823 H 0.45277 0.34811 0.82953 0.0
H824 H 0.41478 0.3641 0.81901 0.0
H825 H 0.38885 0.38115 0.90352 0.0
H826 H 0.38649 0.40981 0.91542 0.0
H827 H 0.41279 0.39372 0.91874 0.0
H828 H 0.43543 0.42731 0.89999 0.0
H829 H 0.40926 0.44344 0.89652 0.0
H830 H 0.42711 0.43754 0.87179 0.0
H831 H 0.38019 0.38905 0.81278 0.0
H832 H 0.34888 0.41801 0.81326 0.0
H833 H 0.36807 0.43813 0.8827 0.0
C834 C 0.4437 0.38204 0.87724 0.0
C835 C 0.45507 0.36674 0.86209 0.0
C836 C 0.4442 0.35975 0.84139 0.0
C837 C 0.42268 0.36874 0.83528 0.0
C838 C 0.4121 0.38418 0.8504 0.0
C839 C 0.422 0.39038 0.87119 0.0
C840 C 0.40734 0.40774 0.88405 0.0
C841 C 0.39833 0.39748 0.90678 0.0
C842 C 0.42058 0.43034 0.88832 0.0
C843 C 0.38813 0.41111 0.86679 0.0
C844 C 0.39123 0.39739 0.84746 0.0
C845 C 0.37717 0.39936 0.82808 0.0
C846 C 0.35954 0.41584 0.82845 0.0
C847 C 0.35595 0.42973 0.8482 0.0
C848 C 0.37014 0.4271 0.86772 0.0
H849 H 0.61674 0.45439 0.82424 0.0
H850 H 0.66821 0.44087 0.87634 0.0
H851 H 0.65936 0.39906 0.87435 0.0
H852 H 0.57651 0.42209 0.84474 0.0
H853 H 0.56486 0.4112 0.81802 0.0
H854 H 0.58003 0.43802 0.81822 0.0
H855 H 0.6081 0.42261 0.78708 0.0
H856 H 0.59278 0.39557 0.7866 0.0
H857 H 0.62328 0.3959 0.79188 0.0
H858 H 0.6376 0.36154 0.8743 0.0
H859 H 0.60619 0.33271 0.87537 0.0
H860 H 0.57007 0.37073 0.82225 0.0
C861 C 0.62685 0.44239 0.83437 0.0
C862 C 0.64315 0.45052 0.8503 0.0
C863 C 0.65589 0.43471 0.86375 0.0
C864 C 0.65096 0.41098 0.86269 0.0
C865 C 0.63375 0.40351 0.84762 0.0
C866 C 0.62232 0.4188 0.83323 0.0
C867 C 0.6023 0.40745 0.82118 0.0
C868 C 0.57962 0.42045 0.82586 0.0
C869 C 0.6069 0.40525 0.79514 0.0
C870 C 0.60276 0.38411 0.83274 0.0
C871 C 0.6214 0.38174 0.84738 0.0
C872 C 0.62339 0.36287 0.86232 0.0
C873 C 0.60551 0.34658 0.86286 0.0
C874 C 0.58587 0.34965 0.84885 0.0
C875 C 0.58509 0.36798 0.83295 0.0
H876 H 0.60476 0.55581 0.8308 0.0
H877 H 0.64678 0.61048 0.85974 0.0
H878 H 0.61333 0.63692 0.85831 0.0
H879 H 0.5671 0.59244 0.79382 0.0
H880 H 0.5424 0.5749 0.80032 0.0
H881 H 0.57058 0.56203 0.79943 0.0
H882 H 0.56476 0.54644 0.84098 0.0
H883 H 0.53675 0.55938 0.84211 0.0
H884 H 0.55775 0.56632 0.8639 0.0
H885 H 0.5742 0.65553 0.85817 0.0
H886 H 0.53289 0.66453 0.86059 0.0
H887 H 0.51676 0.59658 0.83336 0.0
C888 C 0.60719 0.57353 0.83626 0.0
C889 C 0.62837 0.58118 0.84529 0.0
C890 C 0.6307 0.60436 0.85263 0.0
C891 C 0.61183 0.61947 0.8518 0.0
C892 C 0.59093 0.61106 0.84353 0.0
C893 C 0.58859 0.58862 0.83579 0.0
C894 C 0.56389 0.58281 0.83032 0.0
C895 C 0.56082 0.57776 0.80443 0.0
C896 C 0.5553 0.56256 0.84522 0.0
C897 C 0.55246 0.60521 0.83703 0.0
C898 C 0.56835 0.62148 0.84411 0.0
C899 C 0.56166 0.64304 0.85236 0.0
C900 C 0.53813 0.64794 0.85372 0.0
C901 C 0.52159 0.6312 0.84721 0.0
C902 C 0.52896 0.60975 0.83839 0.0
H903 H 0.60139 0.53713 0.17112 0.0
H904 H 0.66358 0.54935 0.13207 0.0
H905 H 0.65612 0.59139 0.13328 0.0
H906 H 0.56767 0.5744 0.14399 0.0
H907 H 0.55174 0.5845 0.1687 0.0
H908 H 0.5647 0.55642 0.16923 0.0
H909 H 0.58689 0.5672 0.20656 0.0
H910 H 0.57384 0.59544 0.20619 0.0
H911 H 0.60466 0.59265 0.20702 0.0
H912 H 0.63667 0.63029 0.13045 0.0
H913 H 0.60857 0.6622 0.12648 0.0
H914 H 0.56127 0.625 0.17065 0.0
C915 C 0.61385 0.54877 0.16361 0.0
C916 C 0.63301 0.54016 0.15155 0.0
C917 C 0.64891 0.55573 0.14165 0.0
C918 C 0.64481 0.57962 0.14225 0.0
C919 C 0.62514 0.58758 0.15347 0.0
C920 C 0.61026 0.57259 0.16453 0.0
C921 C 0.58919 0.585 0.17332 0.0
C922 C 0.56705 0.57446 0.16318 0.0
C923 C 0.58863 0.58508 0.19985 0.0
C924 C 0.59364 0.60891 0.16394 0.0
C925 C 0.61457 0.61029 0.1528 0.0
C926 C 0.62061 0.62969 0.13981 0.0
C927 C 0.60455 0.64774 0.13761 0.0
C928 C 0.58279 0.64611 0.14832 0.0
C929 C 0.57789 0.62692 0.16248 0.0
H930 H 0.37721 0.55363 0.15731 0.0
H931 H 0.33505 0.59968 0.11626 0.0
H932 H 0.36451 0.63021 0.12015 0.0
H933 H 0.4046 0.59951 0.19531 0.0
H934 H 0.43152 0.58413 0.19489 0.0
H935 H 0.40483 0.56843 0.19373 0.0
H936 H 0.41832 0.5482 0.15613 0.0
H937 H 0.44482 0.56387 0.15706 0.0
H938 H 0.42684 0.56556 0.13176 0.0
H939 H 0.40169 0.65251 0.12215 0.0
H940 H 0.44259 0.66397 0.12163 0.0
H941 H 0.45995 0.60277 0.16106 0.0
C942 C 0.37381 0.57041 0.14978 0.0
C943 C 0.35393 0.57435 0.13649 0.0
C944 C 0.35013 0.5964 0.12667 0.0
C945 C 0.36676 0.61383 0.12886 0.0
C946 C 0.38677 0.60898 0.14123 0.0
C947 C 0.39015 0.58784 0.1518 0.0
C948 C 0.41416 0.58556 0.16139 0.0
C949 C 0.41374 0.58435 0.18791 0.0
C950 C 0.42676 0.56458 0.15095 0.0
C951 C 0.42434 0.60805 0.15321 0.0
C952 C 0.4082 0.62169 0.14219 0.0
C953 C 0.41433 0.64222 0.13122 0.0
C954 C 0.43759 0.64859 0.13098 0.0
C955 C 0.45439 0.63419 0.14127 0.0
C956 C 0.44746 0.61415 0.15314 0.0
H957 H 0.60802 0.41622 0.16523 0.0
H958 H 0.65286 0.38499 0.1141 0.0
H959 H 0.62624 0.35192 0.11086 0.0
H960 H 0.58948 0.3615 0.19289 0.0
H961 H 0.56071 0.3721 0.19735 0.0
H962 H 0.58457 0.39189 0.19754 0.0
H963 H 0.56485 0.41615 0.16557 0.0
H964 H 0.54104 0.39642 0.16518 0.0
H965 H 0.55654 0.40238 0.13891 0.0
H966 H 0.59251 0.32498 0.10955 0.0
H967 H 0.55506 0.30511 0.11181 0.0
H968 H 0.53299 0.3533 0.16477 0.0
C969 C 0.61249 0.40223 0.15371 0.0
C970 C 0.63249 0.40317 0.13995 0.0
C971 C 0.63764 0.38457 0.12492 0.0
C972 C 0.62266 0.36572 0.12295 0.0
C973 C 0.60279 0.36561 0.13636 0.0
C974 C 0.59784 0.38324 0.15167 0.0
C975 C 0.57476 0.37967 0.16312 0.0
C976 C 0.57756 0.37607 0.18928 0.0
C977 C 0.55834 0.39985 0.15787 0.0
C978 C 0.56713 0.35769 0.15128 0.0
C979 C 0.58359 0.34977 0.136 0.0
C980 C 0.57969 0.33075 0.12179 0.0
C981 C 0.55835 0.31963 0.12313 0.0
C982 C 0.54125 0.32754 0.13863 0.0
C983 C 0.5459 0.34661 0.15308 0.0
H984 H 0.02434 0.35749 0.50398 0.0
H985 H 0.04078 0.28434 0.50582 0.0
H986 H -0.00027 0.27509 0.50034 0.0
H987 H 0.96878 0.35385 0.53324 0.0
H988 H 0.95624 0.37583 0.51517 0.0
H989 H 0.98652 0.37644 0.52147 0.0
H990 H -0.00462 0.37684 0.47759 0.0
H991 H 0.96517 0.37592 0.47113 0.0
H992 H 0.9841 0.35422 0.45945 0.0
H993 H 0.9573 0.274 0.49228 0.0
H994 H 0.9165 0.28106 0.48315 0.0
H995 H 0.92865 0.355 0.48562 0.0
C996 C 0.01934 0.33949 0.50369 0.0
C997 C 0.03576 0.32163 0.50542 0.0
C998 C 0.02847 0.29832 0.5046 0.0
C999 C 0.00522 0.29289 0.50149 0.0
C1000 C 0.98959 0.31098 0.49924 0.0
C1001 C -0.00367 0.3338 0.50044 0.0
C1002 C 0.97643 0.35005 0.49633 0.0
C1003 C 0.97171 0.36491 0.51784 0.0
C1004 C 0.98052 0.36513 0.47485 0.0
C1005 C 0.95744 0.3328 0.49228 0.0
C1006 C 0.9653 0.31036 0.4942 0.0
C1007 C 0.95091 0.29149 0.49087 0.0
C1008 C 0.92779 0.29569 0.48562 0.0
C1009 C 0.9194 0.31859 0.48362 0.0
C1010 C 0.93453 0.33731 0.48693 0.0
H1011 H 0.68073 0.03016 0.50861 0.0
H1012 H 0.60781 0.04569 0.50675 0.0
H1013 H 0.60028 0.00762 0.48922 0.0
H1014 H 0.68346 -0.00275 0.45492 0.0
H1015 H 0.70352 0.97646 0.46634 0.0
H1016 H 0.70353 0.00566 0.47709 0.0
H1017 H 0.69801 0.9906 0.51888 0.0
H1018 H 0.69824 0.96139 0.50828 0.0
H1019 H 0.67431 0.97162 0.52517 0.0
H1020 H 0.60049 0.96776 0.47279 0.0
H1021 H 0.60776 0.92704 0.46287 0.0
H1022 H 0.68042 0.93685 0.47668 0.0
C1023 C 0.66321 0.02561 0.50434 0.0
C1024 C 0.64487 0.04091 0.50893 0.0
C1025 C 0.62213 0.03421 0.50344 0.0
C1026 C 0.61769 0.01271 0.4933 0.0
C1027 C 0.63616 -0.00192 0.48889 0.0
C1028 C 0.65843 0.0041 0.49448 0.0
C1029 C 0.67496 0.98452 0.48955 0.0
C1030 C 0.69239 0.99139 0.47086 0.0
C1031 C 0.68708 0.97656 0.51179 0.0
C1032 C 0.65842 0.96641 0.48069 0.0
C1033 C 0.6362 0.97475 0.48003 0.0
C1034 C 0.61783 0.96103 0.47314 0.0
C1035 C 0.62217 0.93792 0.46746 0.0
C1036 C 0.64467 0.92869 0.46903 0.0
C1037 C 0.66305 0.94337 0.4752 0.0
H1038 H 0.94791 0.69142 0.50133 0.0
H1039 H 0.92985 0.62058 0.48478 0.0
H1040 H 0.96848 0.61422 0.46884 0.0
H1041 H 0.98522 0.7017 0.45117 0.0
H1042 H 0.00579 0.71825 0.4675 0.0
H1043 H 0.976 0.71818 0.47592 0.0
H1044 H 0.98738 0.70458 0.51699 0.0
H1045 H 0.01717 0.70471 0.50873 0.0
H1046 H 0.00447 0.67882 0.5203 0.0
H1047 H 0.00883 0.61462 0.45626 0.0
H1048 H 0.05006 0.62082 0.4501 0.0
H1049 H 0.04339 0.6911 0.47561 0.0
C1050 C 0.95205 0.67468 0.49409 0.0
C1051 C 0.93586 0.65651 0.49423 0.0
C1052 C 0.942 0.63473 0.48495 0.0
C1053 C 0.96385 0.63097 0.4757 0.0
C1054 C 0.97944 0.64913 0.47593 0.0
C1055 C 0.97399 0.67051 0.485 0.0
C1056 C -0.00537 0.68647 0.48453 0.0
C1057 C 0.99014 0.70739 0.46884 0.0
C1058 C 0.0013 0.69408 0.5091 0.0
C1059 C 0.01257 0.67053 0.47416 0.0
C1060 C 0.00324 0.64921 0.46905 0.0
C1061 C 0.01636 0.63126 0.46008 0.0
C1062 C 0.03982 0.63498 0.45668 0.0
C1063 C 0.05004 0.65645 0.4624 0.0
C1064 C 0.03608 0.67458 0.47086 0.0
H1065 H 0.35051 0.04269 0.47704 0.0
H1066 H 0.27654 0.05212 0.47607 0.0
H1067 H 0.27142 0.01223 0.49008 0.0
H1068 H 0.3511 0.98341 0.45843 0.0
H1069 H 0.37456 0.97548 0.47715 0.0
H1070 H 0.37227 0.0046 0.46655 0.0
H1071 H 0.37315 0.01993 0.50863 0.0
H1072 H 0.37523 0.99083 0.51936 0.0
H1073 H 0.3524 0.00944 0.52918 0.0
H1074 H 0.27432 0.97123 0.50345 0.0
H1075 H 0.28512 0.93183 0.51563 0.0
H1076 H 0.35718 0.94991 0.50956 0.0
C1077 C 0.33323 0.03632 0.47959 0.0
C1078 C 0.31392 0.05045 0.47538 0.0
C1079 C 0.29159 0.04157 0.47921 0.0
C1080 C 0.28849 0.01896 0.48716 0.0
C1081 C 0.30791 0.00558 0.49139 0.0
C1082 C 0.32984 0.01391 0.48779 0.0
C1083 C 0.34781 -0.00391 0.494 0.0
C1084 C 0.36228 0.98951 0.47277 0.0
C1085 C 0.36304 0.00459 0.51398 0.0
C1086 C 0.33255 0.97639 0.50153 0.0
C1087 C 0.30959 0.98218 0.49981 0.0
C1088 C 0.29223 0.96652 0.50502 0.0
C1089 C 0.29853 0.94422 0.51191 0.0
C1090 C 0.32197 0.93792 0.51372 0.0
C1091 C 0.33913 0.95435 0.5087 0.0
H1092 H 0.49896 0.92963 0.36601 0.0
H1093 H 0.50496 0.91734 0.29221 0.0
H1094 H 0.51513 0.95814 0.28628 0.0
H1095 H 0.47318 0.98485 0.36189 0.0
H1096 H 0.48818 -0.00327 0.3864 0.0
H1097 H 0.48255 0.96623 0.385 0.0
H1098 H 0.526 0.95783 0.39005 0.0
H1099 H 0.53177 0.98836 0.39134 0.0
H1100 H 0.54629 0.9706 0.37035 0.0
H1101 H 0.52246 0.00058 0.28793 0.0
H1102 H 0.52602 0.04204 0.29722 0.0
H1103 H 0.51615 0.02648 0.36991 0.0
C1104 C 0.50254 0.93546 0.34862 0.0
C1105 C 0.50115 0.92025 0.3296 0.0
C1106 C 0.50592 0.92863 0.30709 0.0
C1107 C 0.51179 0.95178 0.30352 0.0
C1108 C 0.51297 0.9663 0.32262 0.0
C1109 C 0.50852 0.95851 0.34473 0.0
C1110 C 0.51023 0.9779 0.36217 0.0
C1111 C 0.48716 0.98164 0.37458 0.0
C1112 C 0.52974 0.9734 0.3795 0.0
C1113 C 0.51589 -0.00214 0.34633 0.0
C1114 C 0.51752 0.99079 0.3236 0.0
C1115 C 0.52147 0.00633 0.30569 0.0
C1116 C 0.52345 0.02983 0.31113 0.0
C1117 C 0.52151 0.03749 0.33429 0.0
C1118 C 0.51806 0.02116 0.35208 0.0
H1119 H 0.9456 0.51324 0.35757 0.0
H1120 H 0.9284 0.52374 0.28534 0.0
H1121 H 0.96849 0.51519 0.2745 0.0
H1122 H 0.00327 0.53746 0.3554 0.0
H1123 H 0.01486 0.51629 0.37502 0.0
H1124 H 0.98516 0.52472 0.37716 0.0
H1125 H 0.97299 0.48187 0.3732 0.0
H1126 H 0.00263 0.47334 0.37081 0.0
H1127 H 0.9825 0.46543 0.34853 0.0
H1128 H 0.01001 0.50447 0.27138 0.0
H1129 H 0.05036 0.49243 0.2762 0.0
H1130 H 0.04013 0.48771 0.35037 0.0
C1131 C 0.95034 0.51411 0.3395 0.0
C1132 C 0.93392 0.51929 0.3223 0.0
C1133 C 0.94071 0.51984 0.29881 0.0
C1134 C 0.96343 0.51502 0.29248 0.0
C1135 C 0.97908 0.50958 0.30983 0.0
C1136 C 0.97287 0.50911 0.33285 0.0
C1137 C -0.0072 0.50184 0.348 0.0
C1138 C -0.00059 0.52124 0.36489 0.0
C1139 C 0.9874 0.47928 0.36089 0.0
C1140 C 0.01115 0.49821 0.32986 0.0
C1141 C 0.00292 0.50288 0.30798 0.0
C1142 C 0.01669 0.5008 0.28843 0.0
C1143 C 0.03957 0.49392 0.29136 0.0
C1144 C 0.0484 0.48907 0.31365 0.0
C1145 C 0.03388 0.49115 0.33309 0.0
H1146 H 0.4769 0.94198 0.66421 0.0
H1147 H 0.5055 0.94435 0.73342 0.0
H1148 H 0.49442 0.98543 0.7366 0.0
H1149 H 0.49632 -0.00348 0.64683 0.0
H1150 H 0.4712 0.00314 0.62987 0.0
H1151 H 0.47963 0.97359 0.63413 0.0
H1152 H 0.43924 0.96451 0.65061 0.0
H1153 H 0.43079 -0.00581 0.64665 0.0
H1154 H 0.42848 0.98098 0.67473 0.0
H1155 H 0.48248 0.02688 0.73113 0.0
H1156 H 0.47352 0.06584 0.71631 0.0
H1157 H 0.45239 0.03574 0.65095 0.0
C1158 C 0.48069 0.95107 0.68012 0.0
C1159 C 0.49203 0.94 0.69857 0.0
C1160 C 0.49682 0.95253 0.71904 0.0
C1161 C 0.49045 0.9758 0.72108 0.0
C1162 C 0.47921 0.98619 0.70255 0.0
C1163 C 0.47446 0.97423 0.68243 0.0
C1164 C 0.46366 0.9897 0.66445 0.0
C1165 C 0.4786 0.99081 0.64254 0.0
C1166 C 0.43908 0.98187 0.65879 0.0
C1167 C 0.46367 0.01241 0.67733 0.0
C1168 C 0.47236 0.01001 0.69941 0.0
C1169 C 0.4754 0.02894 0.71397 0.0
C1170 C 0.47019 0.051 0.70542 0.0
C1171 C 0.46224 0.05388 0.68247 0.0
C1172 C 0.45825 0.03418 0.66863 0.0
H1173 H 0.93161 0.49127 0.64168 0.0
H1174 H 0.93251 0.45946 0.70956 0.0
H1175 H 0.97347 0.46933 0.71368 0.0
H1176 H -0.00937 0.47445 0.62488 0.0
H1177 H -0.00453 0.50139 0.61012 0.0
H1178 H 0.96694 0.48952 0.61164 0.0
H1179 H 0.95245 0.52783 0.62967 0.0
H1180 H 0.98101 0.53962 0.62874 0.0
H1181 H 0.96566 0.53848 0.65574 0.0
H1182 H 0.01292 0.48589 0.7121 0.0
H1183 H 0.05002 0.50412 0.70304 0.0
H1184 H 0.02337 0.52536 0.6362 0.0
C1185 C 0.94059 0.48579 0.65712 0.0
C1186 C 0.92894 0.47453 0.67527 0.0
C1187 C 0.94115 0.46802 0.6954 0.0
C1188 C 0.96438 0.47363 0.69795 0.0
C1189 C 0.9751 0.48565 0.68017 0.0
C1190 C 0.96375 0.49132 0.65998 0.0
C1191 C 0.97901 0.50506 0.64393 0.0
C1192 C 0.98327 0.49181 0.6213 0.0
C1193 C 0.96892 0.52917 0.63926 0.0
C1194 C 0.00058 0.5065 0.65842 0.0
C1195 C -0.00207 0.49523 0.67926 0.0
C1196 C 0.01532 0.49458 0.69574 0.0
C1197 C 0.03628 0.50513 0.69047 0.0
C1198 C 0.03966 0.51615 0.66888 0.0
C1199 C 0.02137 0.51712 0.65286 0.0
H1200 H 0.33445 0.50829 0.92321 0.0
H1201 H 0.26276 0.4879 0.92104 0.0
H1202 H 0.25956 0.49512 0.96296 0.0
H1203 H 0.34745 0.48164 0.97656 0.0
H1204 H 0.36672 0.50404 0.98606 0.0
H1205 H 0.36287 0.4987 0.95568 0.0
H1206 H 0.35154 0.54157 0.94959 0.0
H1207 H 0.35524 0.54702 0.98001 0.0
H1208 H 0.32832 0.55376 0.9662 0.0
H1209 H 0.26456 0.50306 0.00513 0.0
H1210 H 0.27786 0.5093 0.04508 0.0
H1211 H 0.34638 0.52427 0.01955 0.0
C1212 C 0.31802 0.5055 0.93151 0.0
C1213 C 0.29883 0.49759 0.91892 0.0
C1214 C 0.27769 0.49395 0.93041 0.0
C1215 C 0.27567 0.49811 0.95416 0.0
C1216 C 0.29494 0.5059 0.96607 0.0
C1217 C 0.31573 0.50948 0.95517 0.0
C1218 C 0.3341 0.5168 0.97212 0.0
C1219 C 0.35395 0.49924 0.97263 0.0
C1220 C 0.3428 0.54124 0.96665 0.0
C1221 C 0.32047 0.5164 -0.00567 0.0
C1222 C 0.29787 0.51031 0.99044 0.0
C1223 C 0.28218 0.50799 0.00841 0.0
C1224 C 0.28992 0.51157 0.03103 0.0
C1225 C 0.31317 0.51728 0.03546 0.0
C1226 C 0.32847 0.52009 0.01676 0.0
H1227 H 0.52184 0.33725 0.95987 0.0
H1228 H 0.50457 0.27108 0.92913 0.0
H1229 H 0.49186 0.25697 0.96738 0.0
H1230 H 0.54223 0.31549 0.01503 0.0
H1231 H 0.53007 0.33937 0.03083 0.0
H1232 H 0.5393 0.34331 0.00141 0.0
H1233 H 0.49875 0.35843 0.99069 0.0
H1234 H 0.4893 0.35425 0.01998 0.0
H1235 H 0.47401 0.34071 -0.00346 0.0
H1236 H 0.47951 0.25092 0.00897 0.0
H1237 H 0.46957 0.25305 0.05046 0.0
H1238 H 0.49407 0.32376 0.05272 0.0
C1239 C 0.51575 0.31964 0.96113 0.0
C1240 C 0.5143 0.30523 0.94149 0.0
C1241 C 0.50594 0.2824 0.94396 0.0
C1242 C 0.49864 0.27426 0.96559 0.0
C1243 C 0.49981 0.28919 0.98447 0.0
C1244 C 0.50827 0.31136 0.98241 0.0
C1245 C 0.50696 0.32436 0.00501 0.0
C1246 C 0.53107 0.33101 0.01357 0.0
C1247 C 0.49132 0.34569 0.00292 0.0
C1248 C 0.49629 0.30611 0.02016 0.0
C1249 C 0.49235 0.2859 0.00809 0.0
C1250 C 0.48257 0.26664 0.01859 0.0
C1251 C 0.47693 0.26804 0.04211 0.0
C1252 C 0.48099 0.2886 0.05475 0.0
C1253 C 0.49064 0.30786 0.0435 0.0
H1254 H 0.62577 0.51376 0.95137 0.0
H1255 H 0.69889 0.52369 0.9405 0.0
H1256 H 0.70612 0.51409 0.98136 0.0
H1257 H 0.62371 0.53684 0.01021 0.0
H1258 H 0.60286 0.51585 0.0195 0.0
H1259 H 0.60336 0.5252 0.98983 0.0
H1260 H 0.60729 0.48263 0.97656 0.0
H1261 H 0.60708 0.47316 0.00617 0.0
H1262 H 0.63061 0.46531 0.98752 0.0
H1263 H 0.70566 0.50126 0.0226 0.0
H1264 H 0.6974 0.48762 0.06204 0.0
H1265 H 0.62459 0.48569 0.04577 0.0
C1266 C 0.64328 0.51431 0.95763 0.0
C1267 C 0.66176 0.51953 0.94273 0.0
C1268 C 0.68444 0.51977 0.95159 0.0
C1269 C 0.68874 0.51434 0.97477 0.0
C1270 C 0.67018 0.50874 0.98882 0.0
C1271 C 0.64789 0.50885 0.98066 0.0
C1272 C 0.6311 0.50137 -0.00087 0.0
C1273 C 0.61426 0.52099 0.00502 0.0
C1274 C 0.61827 0.47931 0.99191 0.0
C1275 C 0.64748 0.49676 0.01887 0.0
C1276 C 0.66992 0.50119 0.01259 0.0
C1277 C 0.68814 0.49786 0.02779 0.0
C1278 C 0.68326 0.49003 0.05013 0.0
C1279 C 0.66034 0.48556 0.05703 0.0
C1280 C 0.64229 0.4889 0.04106 0.0
H1281 H 0.47264 0.68312 0.94813 0.0
H1282 H 0.46349 0.60965 0.93596 0.0
H1283 H 0.47939 0.6013 0.97441 0.0
H1284 H 0.52558 0.67927 0.97862 0.0
H1285 H 0.51877 0.70161 -0.00079 0.0
H1286 H 0.50618 0.70225 0.97079 0.0
H1287 H 0.46541 0.70338 0.98867 0.0
H1288 H 0.47789 0.70312 0.01714 0.0
H1289 H 0.45714 0.68148 0.00914 0.0
H1290 H 0.49824 0.60052 0.01288 0.0
H1291 H 0.5141 0.60753 0.05163 0.0
H1292 H 0.50984 0.68153 0.03998 0.0
C1293 C 0.47375 0.66529 0.95365 0.0
C1294 C 0.46685 0.64706 0.93894 0.0
C1295 C 0.46856 0.62396 0.94687 0.0
C1296 C 0.47772 0.61899 0.96865 0.0
C1297 C 0.48489 0.6373 0.98243 0.0
C1298 C 0.48264 0.66 0.97549 0.0
C1299 C 0.49128 0.6764 -0.00604 0.0
C1300 C 0.51166 0.69072 0.98511 0.0
C1301 C 0.47176 0.69201 0.00275 0.0
C1302 C 0.49882 0.65931 0.01228 0.0
C1303 C 0.49521 0.63686 0.0051 0.0
C1304 C 0.50101 0.61802 0.0188 0.0
C1305 C 0.51015 0.62222 0.04076 0.0
C1306 C 0.51317 0.6451 0.04894 0.0
C1307 C 0.50774 0.66385 0.03427 0.0
H1308 H 0.18767 0.26742 0.49559 0.0
H1309 H 0.12554 0.22644 0.50027 0.0
H1310 H 0.14845 0.19088 0.49397 0.0
H1311 H 0.21384 0.23652 0.4509 0.0
H1312 H 0.24249 0.23923 0.46237 0.0
H1313 H 0.2213 0.26095 0.46869 0.0
H1314 H 0.22783 0.255 0.51262 0.0
H1315 H 0.2492 0.23337 0.50644 0.0
H1316 H 0.22516 0.22649 0.52477 0.0
H1317 H 0.17853 0.16012 0.48462 0.0
H1318 H 0.21307 0.13701 0.47487 0.0
H1319 H 0.25442 0.19927 0.47703 0.0
C1320 C 0.17884 0.25097 0.49548 0.0
C1321 C 0.15488 0.2496 0.49831 0.0
C1322 C 0.14396 0.22777 0.49817 0.0
C1323 C 0.15681 0.20754 0.49458 0.0
C1324 C 0.18046 0.20958 0.49144 0.0
C1325 C 0.19133 0.23077 0.49212 0.0
C1326 C 0.21677 0.22863 0.48786 0.0
C1327 C 0.22401 0.24212 0.46616 0.0
C1328 C 0.23054 0.23632 0.50919 0.0
C1329 C 0.21855 0.20294 0.48414 0.0
C1330 C 0.19753 0.19213 0.48634 0.0
C1331 C 0.1951 0.1684 0.48304 0.0
C1332 C 0.21474 0.15546 0.47744 0.0
C1333 C 0.23637 0.16638 0.47521 0.0
C1334 C 0.23815 0.19039 0.47865 0.0
H1335 H 0.72065 0.17145 0.48966 0.0
H1336 H 0.76829 0.12244 0.51986 0.0
H1337 H 0.80086 0.1473 0.50764 0.0
H1338 H 0.75749 0.18969 0.44047 0.0
H1339 H 0.74729 0.219 0.44267 0.0
H1340 H 0.72866 0.19538 0.45028 0.0
H1341 H 0.72218 0.21365 0.49068 0.0
H1342 H 0.7408 0.23717 0.48329 0.0
H1343 H 0.74664 0.2201 0.50865 0.0
H1344 H 0.82746 0.18053 0.49632 0.0
H1345 H 0.8451 0.21856 0.48807 0.0
H1346 H 0.77884 0.24488 0.46632 0.0
C1347 C 0.73795 0.16566 0.49338 0.0
C1348 C 0.74205 0.14516 0.50579 0.0
C1349 C 0.76488 0.13812 0.51026 0.0
C1350 C 0.78341 0.15208 0.50334 0.0
C1351 C 0.77863 0.17266 0.49168 0.0
C1352 C 0.75638 0.17921 0.48658 0.0
C1353 C 0.75526 0.20294 0.47593 0.0
C1354 C 0.74667 0.20167 0.45085 0.0
C1355 C 0.74036 0.21942 0.49052 0.0
C1356 C 0.78027 0.20941 0.47692 0.0
C1357 C 0.79367 0.19162 0.4855 0.0
C1358 C 0.81716 0.19439 0.48926 0.0
C1359 C 0.82702 0.21602 0.48454 0.0
C1360 C 0.81323 0.23456 0.47664 0.0
C1361 C 0.78975 0.23096 0.47233 0.0
H1362 H 0.8034 0.74336 0.53588 0.0
H1363 H 0.85899 0.77323 0.49624 0.0
H1364 H 0.83503 0.80789 0.48871 0.0
H1365 H 0.76029 0.75815 0.50007 0.0
H1366 H 0.7393 0.76432 0.5221 0.0
H1367 H 0.76223 0.74444 0.52795 0.0
H1368 H 0.77451 0.7687 0.56353 0.0
H1369 H 0.75139 0.78864 0.55791 0.0
H1370 H 0.78046 0.79904 0.56011 0.0
H1371 H 0.80221 0.83603 0.48031 0.0
H1372 H 0.76471 0.85495 0.47293 0.0
H1373 H 0.73172 0.80605 0.51881 0.0
C1374 C 0.81079 0.75748 0.52615 0.0
C1375 C 0.83297 0.75572 0.51662 0.0
C1376 C 0.84206 0.77442 0.50387 0.0
C1377 C 0.82856 0.79412 0.49952 0.0
C1378 C 0.8063 0.79491 0.50847 0.0
C1379 C 0.7977 0.77716 0.52188 0.0
C1380 C 0.77272 0.78085 0.52777 0.0
C1381 C 0.75778 0.76076 0.51893 0.0
C1382 C 0.7696 0.78453 0.55388 0.0
C1383 C 0.76813 0.8028 0.51455 0.0
C1384 C 0.78769 0.81099 0.50382 0.0
C1385 C 0.78692 0.83002 0.48905 0.0
C1386 C 0.76556 0.84064 0.48492 0.0
C1387 C 0.74534 0.83197 0.49533 0.0
C1388 C 0.74689 0.81319 0.51071 0.0
H1389 H 0.19248 0.72694 0.49224 0.0
H1390 H 0.13932 0.77364 0.4681 0.0
H1391 H 0.16419 0.80698 0.47818 0.0
H1392 H 0.2123 0.76155 0.54021 0.0
H1393 H 0.24185 0.75339 0.53585 0.0
H1394 H 0.21919 0.73376 0.52799 0.0
H1395 H 0.23531 0.73138 0.4863 0.0
H1396 H 0.258 0.75096 0.494 0.0
H1397 H 0.23938 0.75758 0.47002 0.0
H1398 H 0.19611 0.83502 0.49024 0.0
H1399 H 0.23217 0.85482 0.50125 0.0
H1400 H 0.26362 0.78856 0.51619 0.0
C1401 C 0.18586 0.74415 0.48918 0.0
C1402 C 0.16393 0.74773 0.47944 0.0
C1403 C 0.15608 0.77054 0.4756 0.0
C1404 C 0.17005 0.78953 0.48133 0.0
C1405 C 0.1917 0.78526 0.49084 0.0
C1406 C 0.19948 0.76306 0.49466 0.0
C1407 C 0.22364 0.76272 0.50408 0.0
C1408 C 0.22427 0.75224 0.52848 0.0
C1409 C 0.24004 0.74991 0.48761 0.0
C1410 C 0.22857 0.78825 0.50465 0.0
C1411 C 0.20992 0.80108 0.49726 0.0
C1412 C 0.21076 0.8251 0.49611 0.0
C1413 C 0.23127 0.83619 0.50243 0.0
C1414 C 0.25067 0.82318 0.5095 0.0
C1415 C 0.2491 0.79896 0.5108 0.0
H1416 H 0.5033 0.18876 0.27651 0.0
H1417 H 0.50276 0.12403 0.23873 0.0
H1418 H 0.4904 0.14482 0.20346 0.0
H1419 H 0.45416 0.21406 0.25016 0.0
H1420 H 0.4661 0.24275 0.24949 0.0
H1421 H 0.47488 0.22276 0.27161 0.0
H1422 H 0.5175 0.22798 0.25977 0.0
H1423 H 0.50888 0.24823 0.23785 0.0
H1424 H 0.5258 0.22332 0.23013 0.0
H1425 H 0.47671 0.17287 0.17281 0.0
H1426 H 0.46724 0.20636 0.14806 0.0
H1427 H 0.47812 0.2523 0.20629 0.0
C1428 C 0.50067 0.17894 0.2608 0.0
C1429 C 0.50387 0.15483 0.26028 0.0
C1430 C 0.50046 0.14258 0.23939 0.0
C1431 C 0.49331 0.1542 0.21937 0.0
C1432 C 0.48989 0.17799 0.22061 0.0
C1433 C 0.49381 0.19024 0.24072 0.0
C1434 C 0.48961 0.21576 0.23747 0.0
C1435 C 0.47002 0.22432 0.25311 0.0
C1436 C 0.51177 0.22963 0.24154 0.0
C1437 C 0.48264 0.21602 0.21237 0.0
C1438 C 0.48264 0.19408 0.20296 0.0
C1439 C 0.47673 0.19013 0.17997 0.0
C1440 C 0.47125 0.20922 0.1661 0.0
C1441 C 0.472 0.23187 0.1753 0.0
C1442 C 0.47743 0.23518 0.19879 0.0
H1443 H 0.78355 0.49807 0.27328 0.0
H1444 H 0.84245 0.51214 0.22963 0.0
H1445 H 0.8201 0.4998 0.19536 0.0
H1446 H 0.76354 0.44756 0.24299 0.0
H1447 H 0.73369 0.45475 0.24703 0.0
H1448 H 0.75468 0.46386 0.26799 0.0
H1449 H 0.74159 0.5064 0.26306 0.0
H1450 H 0.72046 0.4974 0.24226 0.0
H1451 H 0.74129 0.51906 0.23462 0.0
H1452 H 0.79061 0.48641 0.16585 0.0
H1453 H 0.75594 0.47574 0.1435 0.0
H1454 H 0.71708 0.47103 0.20726 0.0
C1455 C 0.79184 0.49852 0.25654 0.0
C1456 C 0.81472 0.50601 0.25407 0.0
C1457 C 0.82488 0.50647 0.23186 0.0
C1458 C 0.81238 0.49939 0.21235 0.0
C1459 C 0.78983 0.49194 0.21546 0.0
C1460 C 0.77967 0.49161 0.23702 0.0
C1461 C 0.755 0.48376 0.23582 0.0
C1462 C 0.75154 0.46114 0.24925 0.0
C1463 C 0.73863 0.50279 0.24444 0.0
C1464 C 0.75269 0.47999 0.21013 0.0
C1465 C 0.77298 0.48453 0.19864 0.0
C1466 C 0.77467 0.48272 0.17469 0.0
C1467 C 0.75494 0.47659 0.16216 0.0
C1468 C 0.73387 0.47258 0.17368 0.0
C1469 C 0.73295 0.47394 0.19797 0.0
H1470 H 0.47792 0.72748 0.17479 0.0
H1471 H 0.52401 0.7676 0.13192 0.0
H1472 H 0.51637 0.80201 0.15628 0.0
H1473 H 0.43712 0.77554 0.19071 0.0
H1474 H 0.43425 0.76413 0.21952 0.0
H1475 H 0.43893 0.74485 0.19552 0.0
H1476 H 0.47446 0.72775 0.21643 0.0
H1477 H 0.47009 0.74703 0.24028 0.0
H1478 H 0.49727 0.74678 0.22541 0.0
H1479 H 0.50857 0.82982 0.18925 0.0
H1480 H 0.50271 0.84754 0.22776 0.0
H1481 H 0.46351 0.78775 0.24916 0.0
C1482 C 0.48591 0.74367 0.17004 0.0
C1483 C 0.50154 0.74495 0.15152 0.0
C1484 C 0.51181 0.76636 0.14598 0.0
C1485 C 0.50752 0.78596 0.15968 0.0
C1486 C 0.49274 0.78378 0.17856 0.0
C1487 C 0.48195 0.76313 0.18354 0.0
C1488 C 0.46947 0.764 0.20637 0.0
C1489 C 0.4434 0.76202 0.20281 0.0
C1490 C 0.47838 0.7453 0.22309 0.0
C1491 C 0.47605 0.78789 0.21427 0.0
C1492 C 0.48885 0.7994 0.19776 0.0
C1493 C 0.49821 0.82113 0.20208 0.0
C1494 C 0.49484 0.83104 0.22397 0.0
C1495 C 0.48272 0.81889 0.24131 0.0
C1496 C 0.47278 0.79738 0.23614 0.0
H1497 H 0.19843 0.48716 0.25496 0.0
H1498 H 0.13704 0.48948 0.21247 0.0
H1499 H 0.16107 0.4974 0.17805 0.0
H1500 H 0.22878 0.53265 0.22658 0.0
H1501 H 0.2563 0.5187 0.22948 0.0
H1502 H 0.23414 0.51348 0.2505 0.0
H1503 H 0.23732 0.46942 0.24307 0.0
H1504 H 0.25954 0.47449 0.22209 0.0
H1505 H 0.23422 0.45852 0.21406 0.0
H1506 H 0.19231 0.50548 0.14848 0.0
H1507 H 0.22802 0.51137 0.12607 0.0
H1508 H 0.2681 0.50285 0.18871 0.0
C1509 C 0.18996 0.48935 0.23844 0.0
C1510 C 0.1659 0.48777 0.23633 0.0
C1511 C 0.1555 0.49062 0.21441 0.0
C1512 C 0.16898 0.49517 0.19482 0.0
C1513 C 0.19272 0.49671 0.19759 0.0
C1514 C 0.20306 0.49377 0.21887 0.0
C1515 C 0.22884 0.49588 0.21738 0.0
C1516 C 0.23752 0.5164 0.23184 0.0
C1517 C 0.24067 0.47323 0.22457 0.0
C1518 C 0.23149 0.50038 0.19188 0.0
C1519 C 0.21052 0.50096 0.18071 0.0
C1520 C 0.20882 0.50501 0.15704 0.0
C1521 C 0.22916 0.50837 0.14449 0.0
C1522 C 0.25077 0.50746 0.15568 0.0
C1523 C 0.25183 0.50352 0.17966 0.0
H1524 H 0.4725 0.76642 0.84118 0.0
H1525 H 0.52054 0.7128 0.82105 0.0
H1526 H 0.53985 0.73981 0.79485 0.0
H1527 H 0.4632 0.78742 0.78824 0.0
H1528 H 0.46165 0.81769 0.79534 0.0
H1529 H 0.45499 0.79645 0.81689 0.0
H1530 H 0.48574 0.81376 0.84418 0.0
H1531 H 0.49237 0.83531 0.82274 0.0
H1532 H 0.51482 0.81712 0.83409 0.0
H1533 H 0.54747 0.76793 0.76464 0.0
H1534 H 0.54532 0.79778 0.73425 0.0
H1535 H 0.49456 0.83506 0.77425 0.0
C1536 C 0.48769 0.76079 0.83197 0.0
C1537 C 0.49508 0.73763 0.83305 0.0
C1538 C 0.51459 0.73052 0.82033 0.0
C1539 C 0.52579 0.74577 0.80553 0.0
C1540 C 0.51743 0.76818 0.80381 0.0
C1541 C 0.4991 0.77592 0.81695 0.0
C1542 C 0.49181 0.79993 0.80953 0.0
C1543 C 0.46642 0.80037 0.80205 0.0
C1544 C 0.49647 0.81758 0.82878 0.0
C1545 C 0.50777 0.80363 0.78919 0.0
C1546 C 0.52264 0.78521 0.78646 0.0
C1547 C 0.5366 0.78291 0.76703 0.0
C1548 C 0.53518 0.79977 0.74981 0.0
C1549 C 0.52019 0.81873 0.75239 0.0
C1550 C 0.50672 0.82101 0.77247 0.0
H1551 H 0.22403 0.4854 0.81409 0.0
H1552 H 0.27531 0.45465 0.76942 0.0
H1553 H 0.24745 0.45406 0.73731 0.0
H1554 H 0.1712 0.45807 0.78619 0.0
H1555 H 0.15509 0.48446 0.78943 0.0
H1556 H 0.17663 0.4768 0.81046 0.0
H1557 H 0.19656 0.51619 0.80387 0.0
H1558 H 0.17539 0.52385 0.78263 0.0
H1559 H 0.20542 0.52412 0.77511 0.0
H1560 H 0.21763 0.46281 0.70906 0.0
H1561 H 0.18745 0.48078 0.68555 0.0
H1562 H 0.15545 0.50811 0.74759 0.0
C1563 C 0.22892 0.47761 0.7978 0.0
C1564 C 0.25148 0.46965 0.79411 0.0
C1565 C 0.2579 0.46053 0.77244 0.0
C1566 C 0.24219 0.46003 0.75421 0.0
C1567 C 0.22028 0.46892 0.758 0.0
C1568 C 0.21354 0.4775 0.77925 0.0
C1569 C 0.19043 0.48946 0.77768 0.0
C1570 C 0.17226 0.47641 0.79177 0.0
C1571 C 0.19207 0.5149 0.78526 0.0
C1572 C 0.1859 0.48735 0.75203 0.0
C1573 C 0.20307 0.4749 0.74119 0.0
C1574 C 0.20383 0.4722 0.71736 0.0
C1575 C 0.18669 0.48266 0.70415 0.0
C1576 C 0.16915 0.49588 0.71479 0.0
C1577 C 0.16855 0.49792 0.73906 0.0
H1578 H 0.47963 0.17274 0.74941 0.0
H1579 H 0.49082 0.21461 0.68823 0.0
H1580 H 0.50063 0.24784 0.71274 0.0
H1581 H 0.45469 0.21771 0.78478 0.0
H1582 H 0.46865 0.20841 0.81097 0.0
H1583 H 0.46199 0.18772 0.78872 0.0
H1584 H 0.50469 0.17519 0.78735 0.0
H1585 H 0.51149 0.1959 0.80955 0.0
H1586 H 0.52657 0.1966 0.78238 0.0
H1587 H 0.50842 0.27649 0.74298 0.0
H1588 H 0.51521 0.29942 0.77807 0.0
H1589 H 0.50085 0.2393 0.82044 0.0
C1590 C 0.48404 0.18895 0.74124 0.0
C1591 C 0.4844 0.19115 0.71693 0.0
C1592 C 0.49047 0.21254 0.70681 0.0
C1593 C 0.49604 0.23153 0.72057 0.0
C1594 C 0.49566 0.22881 0.74442 0.0
C1595 C 0.48994 0.20812 0.75477 0.0
C1596 C 0.49135 0.20997 0.78087 0.0
C1597 C 0.46776 0.20571 0.79198 0.0
C1598 C 0.50962 0.19343 0.7906 0.0
C1599 C 0.49866 0.23496 0.78346 0.0
C1600 C 0.50088 0.24543 0.76214 0.0
C1601 C 0.50686 0.26853 0.75981 0.0
C1602 C 0.51062 0.2814 0.77985 0.0
C1603 C 0.5086 0.2711 0.80193 0.0
C1604 C 0.50269 0.24752 0.80375 0.0
H1605 H 0.72292 0.53132 0.79247 0.0
H1606 H 0.76049 0.51413 0.85482 0.0
H1607 H 0.79437 0.50356 0.83113 0.0
H1608 H 0.7416 0.48614 0.75925 0.0
H1609 H 0.74374 0.50205 0.7326 0.0
H1610 H 0.72377 0.51115 0.75445 0.0
H1611 H 0.74214 0.55189 0.75528 0.0
H1612 H 0.76195 0.54308 0.73305 0.0
H1613 H 0.77262 0.55471 0.75986 0.0
H1614 H 0.82183 0.48988 0.80007 0.0
H1615 H 0.84233 0.47829 0.76445 0.0
H1616 H 0.7864 0.50568 0.72314 0.0
C1617 C 0.73846 0.52584 0.80118 0.0
C1618 C 0.73923 0.52345 0.82537 0.0
C1619 C 0.75975 0.51621 0.83625 0.0
C1620 C 0.77898 0.5101 0.82295 0.0
C1621 C 0.77733 0.51181 0.79897 0.0
C1622 C 0.75773 0.51997 0.78825 0.0
C1623 C 0.75975 0.51921 0.76228 0.0
C1624 C 0.74111 0.50371 0.75153 0.0
C1625 C 0.75909 0.54368 0.75202 0.0
C1626 C 0.78326 0.50855 0.75996 0.0
C1627 C 0.79321 0.50443 0.78125 0.0
C1628 C 0.81438 0.49339 0.78331 0.0
C1629 C 0.82578 0.48672 0.76303 0.0
C1630 C 0.81593 0.49119 0.74111 0.0
C1631 C 0.79443 0.50223 0.73966 0.0
loop_
_geom_bond_atom_site_label_1
_geom_bond_atom_site_label_2
_geom_bond_distance
_geom_bond_site_symmetry_2
_ccdc_geom_bond_type
C0 O1 1.306 . S
C0 O3 1.160 . S
O1 C0 1.306 . S
O1 Cd2 2.228 . S
Cd2 O1 2.228 . S
Cd2 O6 2.273 . S
Cd2 O10 2.277 . S
O3 C0 1.160 . S
O3 Cd4 2.203 . S
Cd4 O3 2.203 . S
Cd4 O6 2.411 . S
Cd4 O7 2.333 . S
Cd4 O8 2.352 . S
Cd4 O12 2.277 . S
Cd4 O13 2.356 . S
C5 O10 1.209 . S
C5 O12 1.226 . S
O6 Cd2 2.273 . S
O6 Cd4 2.411 . S
O6 C9 1.320 . S
O7 Cd4 2.333 . S
O7 C9 1.214 . S
O8 Cd4 2.352 . S
O8 C11 1.258 . S
C9 O6 1.320 . S
C9 O7 1.214 . S
O10 Cd2 2.277 . S
O10 C5 1.209 . S
C11 O8 1.258 . S
C11 O13 1.282 . S
O12 Cd4 2.277 . S
O12 C5 1.226 . S
O13 Cd4 2.356 . S
O13 C11 1.282 . S
C14 O15 1.306 . S
C14 O17 1.160 . S
O15 C14 1.306 . S
O15 Cd16 2.228 . S
Cd16 O15 2.228 . S
Cd16 O20 2.273 . S
Cd16 O24 2.277 . S
O17 C14 1.160 . S
O17 Cd18 2.203 . S
Cd18 O17 2.203 . S
Cd18 O20 2.411 . S
Cd18 O21 2.333 . S
Cd18 O22 2.352 . S
Cd18 O26 2.277 . S
Cd18 O27 2.356 . S
C19 O24 1.209 . S
C19 O26 1.226 . S
O20 Cd16 2.273 . S
O20 Cd18 2.411 . S
O20 C23 1.320 . S
O21 Cd18 2.333 . S
O21 C23 1.214 . S
O22 Cd18 2.352 . S
O22 C25 1.258 . S
C23 O20 1.320 . S
C23 O21 1.214 . S
O24 Cd16 2.277 . S
O24 C19 1.209 . S
C25 O22 1.258 . S
C25 O27 1.282 . S
O26 Cd18 2.277 . S
O26 C19 1.226 . S
O27 Cd18 2.356 . S
O27 C25 1.282 . S
C28 O29 1.306 . S
C28 O31 1.160 . S
O29 C28 1.306 . S
O29 Cd30 2.228 . S
Cd30 O29 2.228 . S
Cd30 O34 2.273 . S
Cd30 O38 2.277 . S
O31 C28 1.160 . S
O31 Cd32 2.203 . S
Cd32 O31 2.203 . S
Cd32 O34 2.411 . S
Cd32 O35 2.333 . S
Cd32 O36 2.352 . S
Cd32 O40 2.277 . S
Cd32 O41 2.356 . S
C33 O38 1.209 . S
C33 O40 1.226 . S
O34 Cd30 2.273 . S
O34 Cd32 2.411 . S
O34 C37 1.320 . S
O35 Cd32 2.333 . S
O35 C37 1.214 . S
O36 Cd32 2.352 . S
O36 C39 1.258 . S
C37 O34 1.320 . S
C37 O35 1.214 . S
O38 Cd30 2.277 . S
O38 C33 1.209 . S
C39 O36 1.258 . S
C39 O41 1.282 . S
O40 Cd32 2.277 . S
O40 C33 1.226 . S
O41 Cd32 2.356 . S
O41 C39 1.282 . S
C42 O43 1.306 . S
C42 O45 1.160 . S
O43 C42 1.306 . S
O43 Cd44 2.228 . S
Cd44 O43 2.228 . S
Cd44 O48 2.273 . S
Cd44 O52 2.277 . S
O45 C42 1.160 . S
O45 Cd46 2.203 . S
Cd46 O45 2.203 . S
Cd46 O48 2.411 . S
Cd46 O49 2.333 . S
Cd46 O50 2.352 . S
Cd46 O54 2.277 . S
Cd46 O55 2.356 . S
C47 O52 1.209 . S
C47 O54 1.226 . S
O48 Cd44 2.273 . S
O48 Cd46 2.411 . S
O48 C51 1.320 . S
O49 Cd46 2.333 . S
O49 C51 1.214 . S
O50 Cd46 2.352 . S
O50 C53 1.258 . S
C51 O48 1.320 . S
C51 O49 1.214 . S
O52 Cd44 2.277 . S
O52 C47 1.209 . S
C53 O50 1.258 . S
C53 O55 1.282 . S
O54 Cd46 2.277 . S
O54 C47 1.226 . S
O55 Cd46 2.356 . S
O55 C53 1.282 . S
C56 O57 1.306 . S
C56 O59 1.160 . S
O57 C56 1.306 . S
O57 Cd58 2.228 . S
Cd58 O57 2.228 . S
Cd58 O62 2.273 . S
Cd58 O66 2.277 . S
O59 C56 1.160 . S
O59 Cd60 2.203 . S
Cd60 O59 2.203 . S
Cd60 O62 2.411 . S
Cd60 O63 2.333 . S
Cd60 O64 2.352 . S
Cd60 O68 2.277 . S
Cd60 O69 2.356 . S
C61 O66 1.209 . S
C61 O68 1.226 . S
O62 Cd58 2.273 . S
O62 Cd60 2.411 . S
O62 C65 1.320 . S
O63 Cd60 2.333 . S
O63 C65 1.214 . S
O64 Cd60 2.352 . S
O64 C67 1.258 . S
C65 O62 1.320 . S
C65 O63 1.214 . S
O66 Cd58 2.277 . S
O66 C61 1.209 . S
C67 O64 1.258 . S
C67 O69 1.282 . S
O68 Cd60 2.277 . S
O68 C61 1.226 . S
O69 Cd60 2.356 . S
O69 C67 1.282 . S
C70 O71 1.306 . S
C70 O73 1.160 . S
O71 C70 1.306 . S
O71 Cd72 2.228 . S
Cd72 O71 2.228 . S
Cd72 O76 2.273 . S
Cd72 O80 2.277 . S
O73 C70 1.160 . S
O73 Cd74 2.203 . S
Cd74 O73 2.203 . S
Cd74 O76 2.411 . S
Cd74 O77 2.333 . S
Cd74 O78 2.352 . S
Cd74 O82 2.277 . S
Cd74 O83 2.356 . S
C75 O80 1.209 . S
C75 O82 1.226 . S
O76 Cd72 2.273 . S
O76 Cd74 2.411 . S
O76 C79 1.320 . S
O77 Cd74 2.333 . S
O77 C79 1.214 . S
O78 Cd74 2.352 . S
O78 C81 1.258 . S
C79 O76 1.320 . S
C79 O77 1.214 . S
O80 Cd72 2.277 . S
O80 C75 1.209 . S
C81 O78 1.258 . S
C81 O83 1.282 . S
O82 Cd74 2.277 . S
O82 C75 1.226 . S
O83 Cd74 2.356 . S
O83 C81 1.282 . S
C84 O85 1.306 . S
C84 O87 1.160 . S
O85 C84 1.306 . S
O85 Cd86 2.228 . S
Cd86 O85 2.228 . S
Cd86 O90 2.273 . S
Cd86 O94 2.277 . S
O87 C84 1.160 . S
O87 Cd88 2.203 . S
Cd88 O87 2.203 . S
Cd88 O90 2.411 . S
Cd88 O91 2.333 . S
Cd88 O92 2.352 . S
Cd88 O96 2.277 . S
Cd88 O97 2.356 . S
C89 O94 1.209 . S
C89 O96 1.226 . S
O90 Cd86 2.273 . S
O90 Cd88 2.411 . S
O90 C93 1.320 . S
O91 Cd88 2.333 . S
O91 C93 1.214 . S
O92 Cd88 2.352 . S
O92 C95 1.258 . S
C93 O90 1.320 . S
C93 O91 1.214 . S
O94 Cd86 2.277 . S
O94 C89 1.209 . S
C95 O92 1.258 . S
C95 O97 1.282 . S
O96 Cd88 2.277 . S
O96 C89 1.226 . S
O97 Cd88 2.356 . S
O97 C95 1.282 . S
C98 O99 1.306 . S
C98 O101 1.160 . S
O99 C98 1.306 . S
O99 Cd100 2.228 . S
Cd100 O99 2.228 . S
Cd100 O104 2.273 . S
Cd100 O108 2.277 . S
O101 C98 1.160 . S
O101 Cd102 2.203 . S
Cd102 O101 2.203 . S
Cd102 O104 2.411 . S
Cd102 O105 2.333 . S
Cd102 O106 2.352 . S
Cd102 O110 2.277 . S
Cd102 O111 2.356 . S
C103 O108 1.209 . S
C103 O110 1.226 . S
O104 Cd100 2.273 . S
O104 Cd102 2.411 . S
O104 C107 1.320 . S
O105 Cd102 2.333 . S
O105 C107 1.214 . S
O106 Cd102 2.352 . S
O106 C109 1.258 . S
C107 O104 1.320 . S
C107 O105 1.214 . S
O108 Cd100 2.277 . S
O108 C103 1.209 . S
C109 O106 1.258 . S
C109 O111 1.282 . S
O110 Cd102 2.277 . S
O110 C103 1.226 . S
O111 Cd102 2.356 . S
O111 C109 1.282 . S
C112 O113 1.306 . S
C112 O115 1.160 . S
O113 C112 1.306 . S
O113 Cd114 2.228 . S
Cd114 O113 2.228 . S
Cd114 O118 2.273 . S
Cd114 O122 2.277 . S
O115 C112 1.160 . S
O115 Cd116 2.203 . S
Cd116 O115 2.203 . S
Cd116 O118 2.411 . S
Cd116 O119 2.333 . S
Cd116 O120 2.352 . S
Cd116 O124 2.277 . S
Cd116 O125 2.356 . S
C117 O122 1.209 . S
C117 O124 1.226 . S
O118 Cd114 2.273 . S
O118 Cd116 2.411 . S
O118 C121 1.320 . S
O119 Cd116 2.333 . S
O119 C121 1.214 . S
O120 Cd116 2.352 . S
O120 C123 1.258 . S
C121 O118 1.320 . S
C121 O119 1.214 . S
O122 Cd114 2.277 . S
O122 C117 1.209 . S
C123 O120 1.258 . S
C123 O125 1.282 . S
O124 Cd116 2.277 . S
O124 C117 1.226 . S
O125 Cd116 2.356 . S
O125 C123 1.282 . S
C126 O127 1.306 . S
C126 O129 1.160 . S
O127 C126 1.306 . S
O127 Cd128 2.228 . S
Cd128 O127 2.228 . S
Cd128 O132 2.273 . S
Cd128 O136 2.277 . S
O129 C126 1.160 . S
O129 Cd130 2.203 . S
Cd130 O129 2.203 . S
Cd130 O132 2.411 . S
Cd130 O133 2.333 . S
Cd130 O134 2.352 . S
Cd130 O138 2.277 . S
Cd130 O139 2.356 . S
C131 O136 1.209 . S
C131 O138 1.226 . S
O132 Cd128 2.273 . S
O132 Cd130 2.411 . S
O132 C135 1.320 . S
O133 Cd130 2.333 . S
O133 C135 1.214 . S
O134 Cd130 2.352 . S
O134 C137 1.258 . S
C135 O132 1.320 . S
C135 O133 1.214 . S
O136 Cd128 2.277 . S
O136 C131 1.209 . S
C137 O134 1.258 . S
C137 O139 1.282 . S
O138 Cd130 2.277 . S
O138 C131 1.226 . S
O139 Cd130 2.356 . S
O139 C137 1.282 . S
C140 O141 1.306 . S
C140 O143 1.160 . S
O141 C140 1.306 . S
O141 Cd142 2.228 . S
Cd142 O141 2.228 . S
Cd142 O146 2.273 . S
Cd142 O150 2.277 . S
O143 C140 1.160 . S
O143 Cd144 2.203 . S
Cd144 O143 2.203 . S
Cd144 O146 2.411 . S
Cd144 O147 2.333 . S
Cd144 O148 2.352 . S
Cd144 O152 2.277 . S
Cd144 O153 2.356 . S
C145 O150 1.209 . S
C145 O152 1.226 . S
O146 Cd142 2.273 . S
O146 Cd144 2.411 . S
O146 C149 1.320 . S
O147 Cd144 2.333 . S
O147 C149 1.214 . S
O148 Cd144 2.352 . S
O148 C151 1.258 . S
C149 O146 1.320 . S
C149 O147 1.214 . S
O150 Cd142 2.277 . S
O150 C145 1.209 . S
C151 O148 1.258 . S
C151 O153 1.282 . S
O152 Cd144 2.277 . S
O152 C145 1.226 . S
O153 Cd144 2.356 . S
O153 C151 1.282 . S
C154 O155 1.306 . S
C154 O157 1.160 . S
O155 C154 1.306 . S
O155 Cd156 2.228 . S
Cd156 O155 2.228 . S
Cd156 O160 2.273 . S
Cd156 O164 2.277 . S
O157 C154 1.160 . S
O157 Cd158 2.203 . S
Cd158 O157 2.203 . S
Cd158 O160 2.411 . S
Cd158 O161 2.333 . S
Cd158 O162 2.352 . S
Cd158 O166 2.277 . S
Cd158 O167 2.356 . S
C159 O164 1.209 . S
C159 O166 1.226 . S
O160 Cd156 2.273 . S
O160 Cd158 2.411 . S
O160 C163 1.320 . S
O161 Cd158 2.333 . S
O161 C163 1.214 . S
O162 Cd158 2.352 . S
O162 C165 1.258 . S
C163 O160 1.320 . S
C163 O161 1.214 . S
O164 Cd156 2.277 . S
O164 C159 1.209 . S
C165 O162 1.258 . S
C165 O167 1.282 . S
O166 Cd158 2.277 . S
O166 C159 1.226 . S
O167 Cd158 2.356 . S
O167 C165 1.282 . S
C168 O169 1.306 . S
C168 O171 1.160 . S
O169 C168 1.306 . S
O169 Cd170 2.228 . S
Cd170 O169 2.228 . S
Cd170 O174 2.273 . S
Cd170 O178 2.277 . S
O171 C168 1.160 . S
O171 Cd172 2.203 . S
Cd172 O171 2.203 . S
Cd172 O174 2.411 . S
Cd172 O175 2.333 . S
Cd172 O176 2.352 . S
Cd172 O180 2.277 . S
Cd172 O181 2.356 . S
C173 O178 1.209 . S
C173 O180 1.226 . S
O174 Cd170 2.273 . S
O174 Cd172 2.411 . S
O174 C177 1.320 . S
O175 Cd172 2.333 . S
O175 C177 1.214 . S
O176 Cd172 2.352 . S
O176 C179 1.258 . S
C177 O174 1.320 . S
C177 O175 1.214 . S
O178 Cd170 2.277 . S
O178 C173 1.209 . S
C179 O176 1.258 . S
C179 O181 1.282 . S
O180 Cd172 2.277 . S
O180 C173 1.226 . S
O181 Cd172 2.356 . S
O181 C179 1.282 . S
C182 O183 1.306 . S
C182 O185 1.160 . S
O183 C182 1.306 . S
O183 Cd184 2.228 . S
Cd184 O183 2.228 . S
Cd184 O188 2.273 . S
Cd184 O192 2.277 . S
O185 C182 1.160 . S
O185 Cd186 2.203 . S
Cd186 O185 2.203 . S
Cd186 O188 2.411 . S
Cd186 O189 2.333 . S
Cd186 O190 2.352 . S
Cd186 O194 2.277 . S
Cd186 O195 2.356 . S
C187 O192 1.209 . S
C187 O194 1.226 . S
O188 Cd184 2.273 . S
O188 Cd186 2.411 . S
O188 C191 1.320 . S
O189 Cd186 2.333 . S
O189 C191 1.214 . S
O190 Cd186 2.352 . S
O190 C193 1.258 . S
C191 O188 1.320 . S
C191 O189 1.214 . S
O192 Cd184 2.277 . S
O192 C187 1.209 . S
C193 O190 1.258 . S
C193 O195 1.282 . S
O194 Cd186 2.277 . S
O194 C187 1.226 . S
O195 Cd186 2.356 . S
O195 C193 1.282 . S
C196 O197 1.306 . S
C196 O199 1.160 . S
O197 C196 1.306 . S
O197 Cd198 2.228 . S
Cd198 O197 2.228 . S
Cd198 O202 2.273 . S
Cd198 O206 2.277 . S
O199 C196 1.160 . S
O199 Cd200 2.203 . S
Cd200 O199 2.203 . S
Cd200 O202 2.411 . S
Cd200 O203 2.333 . S
Cd200 O204 2.352 . S
Cd200 O208 2.277 . S
Cd200 O209 2.356 . S
C201 O206 1.209 . S
C201 O208 1.226 . S
O202 Cd198 2.273 . S
O202 Cd200 2.411 . S
O202 C205 1.320 . S
O203 Cd200 2.333 . S
O203 C205 1.214 . S
O204 Cd200 2.352 . S
O204 C207 1.258 . S
C205 O202 1.320 . S
C205 O203 1.214 . S
O206 Cd198 2.277 . S
O206 C201 1.209 . S
C207 O204 1.258 . S
C207 O209 1.282 . S
O208 Cd200 2.277 . S
O208 C201 1.226 . S
O209 Cd200 2.356 . S
O209 C207 1.282 . S
C210 O211 1.306 . S
C210 O213 1.160 . S
O211 C210 1.306 . S
O211 Cd212 2.228 . S
Cd212 O211 2.228 . S
Cd212 O216 2.273 . S
Cd212 O220 2.277 . S
O213 C210 1.160 . S
O213 Cd214 2.203 . S
Cd214 O213 2.203 . S
Cd214 O216 2.411 . S
Cd214 O217 2.333 . S
Cd214 O218 2.352 . S
Cd214 O222 2.277 . S
Cd214 O223 2.356 . S
C215 O220 1.209 . S
C215 O222 1.226 . S
O216 Cd212 2.273 . S
O216 Cd214 2.411 . S
O216 C219 1.320 . S
O217 Cd214 2.333 . S
O217 C219 1.214 . S
O218 Cd214 2.352 . S
O218 C221 1.258 . S
C219 O216 1.320 . S
C219 O217 1.214 . S
O220 Cd212 2.277 . S
O220 C215 1.209 . S
C221 O218 1.258 . S
C221 O223 1.282 . S
O222 Cd214 2.277 . S
O222 C215 1.226 . S
O223 Cd214 2.356 . S
O223 C221 1.282 . S
C224 O225 1.306 . S
C224 O227 1.160 . S
O225 C224 1.306 . S
O225 Cd226 2.228 . S
Cd226 O225 2.228 . S
Cd226 O230 2.273 . S
Cd226 O234 2.277 . S
O227 C224 1.160 . S
O227 Cd228 2.203 . S
Cd228 O227 2.203 . S
Cd228 O230 2.411 . S
Cd228 O231 2.333 . S
Cd228 O232 2.352 . S
Cd228 O236 2.277 . S
Cd228 O237 2.356 . S
C229 O234 1.209 . S
C229 O236 1.226 . S
O230 Cd226 2.273 . S
O230 Cd228 2.411 . S
O230 C233 1.320 . S
O231 Cd228 2.333 . S
O231 C233 1.214 . S
O232 Cd228 2.352 . S
O232 C235 1.258 . S
C233 O230 1.320 . S
C233 O231 1.214 . S
O234 Cd226 2.277 . S
O234 C229 1.209 . S
C235 O232 1.258 . S
C235 O237 1.282 . S
O236 Cd228 2.277 . S
O236 C229 1.226 . S
O237 Cd228 2.356 . S
O237 C235 1.282 . S
C238 O239 1.306 . S
C238 O241 1.160 . S
O239 C238 1.306 . S
O239 Cd240 2.228 . S
Cd240 O239 2.228 . S
Cd240 O244 2.273 . S
Cd240 O248 2.277 . S
O241 C238 1.160 . S
O241 Cd242 2.203 . S
Cd242 O241 2.203 . S
Cd242 O244 2.411 . S
Cd242 O245 2.333 . S
Cd242 O246 2.352 . S
Cd242 O250 2.277 . S
Cd242 O251 2.356 . S
C243 O248 1.209 . S
C243 O250 1.226 . S
O244 Cd240 2.273 . S
O244 Cd242 2.411 . S
O244 C247 1.320 . S
O245 Cd242 2.333 . S
O245 C247 1.214 . S
O246 Cd242 2.352 . S
O246 C249 1.258 . S
C247 O244 1.320 . S
C247 O245 1.214 . S
O248 Cd240 2.277 . S
O248 C243 1.209 . S
C249 O246 1.258 . S
C249 O251 1.282 . S
O250 Cd242 2.277 . S
O250 C243 1.226 . S
O251 Cd242 2.356 . S
O251 C249 1.282 . S
C252 O253 1.306 . S
C252 O255 1.160 . S
O253 C252 1.306 . S
O253 Cd254 2.228 . S
Cd254 O253 2.228 . S
Cd254 O258 2.273 . S
Cd254 O262 2.277 . S
O255 C252 1.160 . S
O255 Cd256 2.203 . S
Cd256 O255 2.203 . S
Cd256 O258 2.411 . S
Cd256 O259 2.333 . S
Cd256 O260 2.352 . S
Cd256 O264 2.277 . S
Cd256 O265 2.356 . S
C257 O262 1.209 . S
C257 O264 1.226 . S
O258 Cd254 2.273 . S
O258 Cd256 2.411 . S
O258 C261 1.320 . S
O259 Cd256 2.333 . S
O259 C261 1.214 . S
O260 Cd256 2.352 . S
O260 C263 1.258 . S
C261 O258 1.320 . S
C261 O259 1.214 . S
O262 Cd254 2.277 . S
O262 C257 1.209 . S
C263 O260 1.258 . S
C263 O265 1.282 . S
O264 Cd256 2.277 . S
O264 C257 1.226 . S
O265 Cd256 2.356 . S
O265 C263 1.282 . S
C266 O267 1.306 . S
C266 O269 1.160 . S
O267 C266 1.306 . S
O267 Cd268 2.228 . S
Cd268 O267 2.228 . S
Cd268 O272 2.273 . S
Cd268 O276 2.277 . S
O269 C266 1.160 . S
O269 Cd270 2.203 . S
Cd270 O269 2.203 . S
Cd270 O272 2.411 . S
Cd270 O273 2.333 . S
Cd270 O274 2.352 . S
Cd270 O278 2.277 . S
Cd270 O279 2.356 . S
C271 O276 1.209 . S
C271 O278 1.226 . S
O272 Cd268 2.273 . S
O272 Cd270 2.411 . S
O272 C275 1.320 . S
O273 Cd270 2.333 . S
O273 C275 1.214 . S
O274 Cd270 2.352 . S
O274 C277 1.258 . S
C275 O272 1.320 . S
C275 O273 1.214 . S
O276 Cd268 2.277 . S
O276 C271 1.209 . S
C277 O274 1.258 . S
C277 O279 1.282 . S
O278 Cd270 2.277 . S
O278 C271 1.226 . S
O279 Cd270 2.356 . S
O279 C277 1.282 . S
C280 O281 1.306 . S
C280 O283 1.160 . S
O281 C280 1.306 . S
O281 Cd282 2.228 . S
Cd282 O281 2.228 . S
Cd282 O286 2.273 . S
Cd282 O290 2.277 . S
O283 C280 1.160 . S
O283 Cd284 2.203 . S
Cd284 O283 2.203 . S
Cd284 O286 2.411 . S
Cd284 O287 2.333 . S
Cd284 O288 2.352 . S
Cd284 O292 2.277 . S
Cd284 O293 2.356 . S
C285 O290 1.209 . S
C285 O292 1.226 . S
O286 Cd282 2.273 . S
O286 Cd284 2.411 . S
O286 C289 1.320 . S
O287 Cd284 2.333 . S
O287 C289 1.214 . S
O288 Cd284 2.352 . S
O288 C291 1.258 . S
C289 O286 1.320 . S
C289 O287 1.214 . S
O290 Cd282 2.277 . S
O290 C285 1.209 . S
C291 O288 1.258 . S
C291 O293 1.282 . S
O292 Cd284 2.277 . S
O292 C285 1.226 . S
O293 Cd284 2.356 . S
O293 C291 1.282 . S
C294 O295 1.306 . S
C294 O297 1.160 . S
O295 C294 1.306 . S
O295 Cd296 2.228 . S
Cd296 O295 2.228 . S
Cd296 O300 2.273 . S
Cd296 O304 2.277 . S
O297 C294 1.160 . S
O297 Cd298 2.203 . S
Cd298 O297 2.203 . S
Cd298 O300 2.411 . S
Cd298 O301 2.333 . S
Cd298 O302 2.352 . S
Cd298 O306 2.277 . S
Cd298 O307 2.356 . S
C299 O304 1.209 . S
C299 O306 1.226 . S
O300 Cd296 2.273 . S
O300 Cd298 2.411 . S
O300 C303 1.320 . S
O301 Cd298 2.333 . S
O301 C303 1.214 . S
O302 Cd298 2.352 . S
O302 C305 1.258 . S
C303 O300 1.320 . S
C303 O301 1.214 . S
O304 Cd296 2.277 . S
O304 C299 1.209 . S
C305 O302 1.258 . S
C305 O307 1.282 . S
O306 Cd298 2.277 . S
O306 C299 1.226 . S
O307 Cd298 2.356 . S
O307 C305 1.282 . S
C308 O309 1.306 . S
C308 O311 1.160 . S
O309 C308 1.306 . S
O309 Cd310 2.228 . S
Cd310 O309 2.228 . S
Cd310 O314 2.273 . S
Cd310 O318 2.277 . S
O311 C308 1.160 . S
O311 Cd312 2.203 . S
Cd312 O311 2.203 . S
Cd312 O314 2.411 . S
Cd312 O315 2.333 . S
Cd312 O316 2.352 . S
Cd312 O320 2.277 . S
Cd312 O321 2.356 . S
C313 O318 1.209 . S
C313 O320 1.226 . S
O314 Cd310 2.273 . S
O314 Cd312 2.411 . S
O314 C317 1.320 . S
O315 Cd312 2.333 . S
O315 C317 1.214 . S
O316 Cd312 2.352 . S
O316 C319 1.258 . S
C317 O314 1.320 . S
C317 O315 1.214 . S
O318 Cd310 2.277 . S
O318 C313 1.209 . S
C319 O316 1.258 . S
C319 O321 1.282 . S
O320 Cd312 2.277 . S
O320 C313 1.226 . S
O321 Cd312 2.356 . S
O321 C319 1.282 . S
C322 O323 1.306 . S
C322 O325 1.160 . S
O323 C322 1.306 . S
O323 Cd324 2.228 . S
Cd324 O323 2.228 . S
Cd324 O328 2.273 . S
Cd324 O332 2.277 . S
O325 C322 1.160 . S
O325 Cd326 2.203 . S
Cd326 O325 2.203 . S
Cd326 O328 2.411 . S
Cd326 O329 2.333 . S
Cd326 O330 2.352 . S
Cd326 O334 2.277 . S
Cd326 O335 2.356 . S
C327 O332 1.209 . S
C327 O334 1.226 . S
O328 Cd324 2.273 . S
O328 Cd326 2.411 . S
O328 C331 1.320 . S
O329 Cd326 2.333 . S
O329 C331 1.214 . S
O330 Cd326 2.352 . S
O330 C333 1.258 . S
C331 O328 1.320 . S
C331 O329 1.214 . S
O332 Cd324 2.277 . S
O332 C327 1.209 . S
C333 O330 1.258 . S
C333 O335 1.282 . S
O334 Cd326 2.277 . S
O334 C327 1.226 . S
O335 Cd326 2.356 . S
O335 C333 1.282 . S
H336 C348 0.930 . S
H337 C350 0.930 . S
H338 C351 0.930 . S
H339 C355 0.959 . S
H340 C355 0.959 . S
H341 C355 0.961 . S
H342 C356 0.960 . S
H343 C356 0.961 . S
H344 C356 0.959 . S
H345 C359 0.929 . S
H346 C360 0.931 . S
H347 C362 0.930 . S
C348 H336 0.930 . S
C348 C349 1.399 . S
C348 C353 1.399 . S
C349 C348 1.399 . S
C349 C350 1.376 . S
C350 H337 0.930 . S
C350 C349 1.376 . S
C350 C351 1.388 . S
C351 H338 0.930 . S
C351 C350 1.388 . S
C351 C352 1.390 . S
C352 C351 1.390 . S
C352 C353 1.394 . S
C352 C358 1.465 . S
C353 C348 1.399 . S
C353 C352 1.394 . S
C353 C354 1.516 . S
C354 C353 1.516 . S
C354 C355 1.502 . S
C354 C356 1.561 . S
C354 C357 1.526 . S
C355 H339 0.959 . S
C355 H340 0.959 . S
C355 H341 0.961 . S
C355 C354 1.502 . S
C356 H342 0.960 . S
C356 H343 0.961 . S
C356 H344 0.959 . S
C356 C354 1.561 . S
C357 C354 1.526 . S
C357 C358 1.396 . S
C357 C362 1.390 . S
C358 C352 1.465 . S
C358 C357 1.396 . S
C358 C359 1.399 . S
C359 H345 0.929 . S
C359 C358 1.399 . S
C359 C360 1.385 . S
C360 H346 0.931 . S
C360 C359 1.385 . S
C360 C361 1.389 . S
C361 C360 1.389 . S
C361 C362 1.387 . S
C362 H347 0.930 . S
C362 C357 1.390 . S
C362 C361 1.387 . S
H363 C375 0.930 . S
H364 C377 0.930 . S
H365 C378 0.930 . S
H366 C382 0.959 . S
H367 C382 0.959 . S
H368 C382 0.961 . S
H369 C383 0.960 . S
H370 C383 0.961 . S
H371 C383 0.959 . S
H372 C386 0.929 . S
H373 C387 0.931 . S
H374 C389 0.930 . S
C375 H363 0.930 . S
C375 C376 1.399 . S
C375 C380 1.399 . S
C376 C375 1.399 . S
C376 C377 1.376 . S
C377 H364 0.930 . S
C377 C376 1.376 . S
C377 C378 1.388 . S
C378 H365 0.930 . S
C378 C377 1.388 . S
C378 C379 1.390 . S
C379 C378 1.390 . S
C379 C380 1.394 . S
C379 C385 1.465 . S
C380 C375 1.399 . S
C380 C379 1.394 . S
C380 C381 1.516 . S
C381 C380 1.516 . S
C381 C382 1.502 . S
C381 C383 1.561 . S
C381 C384 1.526 . S
C382 H366 0.959 . S
C382 H367 0.959 . S
C382 H368 0.961 . S
C382 C381 1.502 . S
C383 H369 0.960 . S
C383 H370 0.961 . S
C383 H371 0.959 . S
C383 C381 1.561 . S
C384 C381 1.526 . S
C384 C385 1.396 . S
C384 C389 1.390 . S
C385 C379 1.465 . S
C385 C384 1.396 . S
C385 C386 1.399 . S
C386 H372 0.929 . S
C386 C385 1.399 . S
C386 C387 1.385 . S
C387 H373 0.931 . S
C387 C386 1.385 . S
C387 C388 1.389 . S
C388 C387 1.389 . S
C388 C389 1.387 . S
C389 H374 0.930 . S
C389 C384 1.390 . S
C389 C388 1.387 . S
H390 C402 0.930 . S
H391 C404 0.930 . S
H392 C405 0.930 . S
H393 C409 0.959 . S
H394 C409 0.959 . S
H395 C409 0.961 . S
H396 C410 0.960 . S
H397 C410 0.961 . S
H398 C410 0.959 . S
H399 C413 0.929 . S
H400 C414 0.931 . S
H401 C416 0.930 . S
C402 H390 0.930 . S
C402 C403 1.399 . S
C402 C407 1.399 . S
C403 C402 1.399 . S
C403 C404 1.376 . S
C404 H391 0.930 . S
C404 C403 1.376 . S
C404 C405 1.388 . S
C405 H392 0.930 . S
C405 C404 1.388 . S
C405 C406 1.390 . S
C406 C405 1.390 . S
C406 C407 1.394 . S
C406 C412 1.465 . S
C407 C402 1.399 . S
C407 C406 1.394 . S
C407 C408 1.516 . S
C408 C407 1.516 . S
C408 C409 1.502 . S
C408 C410 1.561 . S
C408 C411 1.526 . S
C409 H393 0.959 . S
C409 H394 0.959 . S
C409 H395 0.961 . S
C409 C408 1.502 . S
C410 H396 0.960 . S
C410 H397 0.961 . S
C410 H398 0.959 . S
C410 C408 1.561 . S
C411 C408 1.526 . S
C411 C412 1.396 . S
C411 C416 1.390 . S
C412 C406 1.465 . S
C412 C411 1.396 . S
C412 C413 1.399 . S
C413 H399 0.929 . S
C413 C412 1.399 . S
C413 C414 1.385 . S
C414 H400 0.931 . S
C414 C413 1.385 . S
C414 C415 1.389 . S
C415 C414 1.389 . S
C415 C416 1.387 . S
C416 H401 0.930 . S
C416 C411 1.390 . S
C416 C415 1.387 . S
H417 C429 0.930 . S
H418 C431 0.930 . S
H419 C432 0.930 . S
H420 C436 0.959 . S
H421 C436 0.959 . S
H422 C436 0.961 . S
H423 C437 0.960 . S
H424 C437 0.961 . S
H425 C437 0.959 . S
H426 C440 0.929 . S
H427 C441 0.931 . S
H428 C443 0.930 . S
C429 H417 0.930 . S
C429 C430 1.399 . S
C429 C434 1.399 . S
C430 C429 1.399 . S
C430 C431 1.376 . S
C431 H418 0.930 . S
C431 C430 1.376 . S
C431 C432 1.388 . S
C432 H419 0.930 . S
C432 C431 1.388 . S
C432 C433 1.390 . S
C433 C432 1.390 . S
C433 C434 1.394 . S
C433 C439 1.465 . S
C434 C429 1.399 . S
C434 C433 1.394 . S
C434 C435 1.516 . S
C435 C434 1.516 . S
C435 C436 1.502 . S
C435 C437 1.561 . S
C435 C438 1.526 . S
C436 H420 0.959 . S
C436 H421 0.959 . S
C436 H422 0.961 . S
C436 C435 1.502 . S
C437 H423 0.960 . S
C437 H424 0.961 . S
C437 H425 0.959 . S
C437 C435 1.561 . S
C438 C435 1.526 . S
C438 C439 1.396 . S
C438 C443 1.390 . S
C439 C433 1.465 . S
C439 C438 1.396 . S
C439 C440 1.399 . S
C440 H426 0.929 . S
C440 C439 1.399 . S
C440 C441 1.385 . S
C441 H427 0.931 . S
C441 C440 1.385 . S
C441 C442 1.389 . S
C442 C441 1.389 . S
C442 C443 1.387 . S
C443 H428 0.930 . S
C443 C438 1.390 . S
C443 C442 1.387 . S
H444 C456 0.930 . S
H445 C458 0.930 . S
H446 C459 0.930 . S
H447 C463 0.959 . S
H448 C463 0.959 . S
H449 C463 0.961 . S
H450 C464 0.960 . S
H451 C464 0.961 . S
H452 C464 0.959 . S
H453 C467 0.929 . S
H454 C468 0.931 . S
H455 C470 0.930 . S
C456 H444 0.930 . S
C456 C457 1.399 . S
C456 C461 1.399 . S
C457 C456 1.399 . S
C457 C458 1.376 . S
C458 H445 0.930 . S
C458 C457 1.376 . S
C458 C459 1.388 . S
C459 H446 0.930 . S
C459 C458 1.388 . S
C459 C460 1.390 . S
C460 C459 1.390 . S
C460 C461 1.394 . S
C460 C466 1.465 . S
C461 C456 1.399 . S
C461 C460 1.394 . S
C461 C462 1.516 . S
C462 C461 1.516 . S
C462 C463 1.502 . S
C462 C464 1.561 . S
C462 C465 1.526 . S
C463 H447 0.959 . S
C463 H448 0.959 . S
C463 H449 0.961 . S
C463 C462 1.502 . S
C464 H450 0.960 . S
C464 H451 0.961 . S
C464 H452 0.959 . S
C464 C462 1.561 . S
C465 C462 1.526 . S
C465 C466 1.396 . S
C465 C470 1.390 . S
C466 C460 1.465 . S
C466 C465 1.396 . S
C466 C467 1.399 . S
C467 H453 0.929 . S
C467 C466 1.399 . S
C467 C468 1.385 . S
C468 H454 0.931 . S
C468 C467 1.385 . S
C468 C469 1.389 . S
C469 C468 1.389 . S
C469 C470 1.387 . S
C470 H455 0.930 . S
C470 C465 1.390 . S
C470 C469 1.387 . S
H471 C483 0.930 . S
H472 C485 0.930 . S
H473 C486 0.930 . S
H474 C490 0.959 . S
H475 C490 0.959 . S
H476 C490 0.961 . S
H477 C491 0.960 . S
H478 C491 0.961 . S
H479 C491 0.959 . S
H480 C494 0.929 . S
H481 C495 0.931 . S
H482 C497 0.930 . S
C483 H471 0.930 . S
C483 C484 1.399 . S
C483 C488 1.399 . S
C484 C483 1.399 . S
C484 C485 1.376 . S
C485 H472 0.930 . S
C485 C484 1.376 . S
C485 C486 1.388 . S
C486 H473 0.930 . S
C486 C485 1.388 . S
C486 C487 1.390 . S
C487 C486 1.390 . S
C487 C488 1.394 . S
C487 C493 1.465 . S
C488 C483 1.399 . S
C488 C487 1.394 . S
C488 C489 1.516 . S
C489 C488 1.516 . S
C489 C490 1.502 . S
C489 C491 1.561 . S
C489 C492 1.526 . S
C490 H474 0.959 . S
C490 H475 0.959 . S
C490 H476 0.961 . S
C490 C489 1.502 . S
C491 H477 0.960 . S
C491 H478 0.961 . S
C491 H479 0.959 . S
C491 C489 1.561 . S
C492 C489 1.526 . S
C492 C493 1.396 . S
C492 C497 1.390 . S
C493 C487 1.465 . S
C493 C492 1.396 . S
C493 C494 1.399 . S
C494 H480 0.929 . S
C494 C493 1.399 . S
C494 C495 1.385 . S
C495 H481 0.931 . S
C495 C494 1.385 . S
C495 C496 1.389 . S
C496 C495 1.389 . S
C496 C497 1.387 . S
C497 H482 0.930 . S
C497 C492 1.390 . S
C497 C496 1.387 . S
H498 C510 0.930 . S
H499 C512 0.930 . S
H500 C513 0.930 . S
H501 C517 0.959 . S
H502 C517 0.959 . S
H503 C517 0.961 . S
H504 C518 0.960 . S
H505 C518 0.961 . S
H506 C518 0.959 . S
H507 C521 0.929 . S
H508 C522 0.931 . S
H509 C524 0.930 . S
C510 H498 0.930 . S
C510 C511 1.399 . S
C510 C515 1.399 . S
C511 C510 1.399 . S
C511 C512 1.376 . S
C512 H499 0.930 . S
C512 C511 1.376 . S
C512 C513 1.388 . S
C513 H500 0.930 . S
C513 C512 1.388 . S
C513 C514 1.390 . S
C514 C513 1.390 . S
C514 C515 1.394 . S
C514 C520 1.465 . S
C515 C510 1.399 . S
C515 C514 1.394 . S
C515 C516 1.516 . S
C516 C515 1.516 . S
C516 C517 1.502 . S
C516 C518 1.561 . S
C516 C519 1.526 . S
C517 H501 0.959 . S
C517 H502 0.959 . S
C517 H503 0.961 . S
C517 C516 1.502 . S
C518 H504 0.960 . S
C518 H505 0.961 . S
C518 H506 0.959 . S
C518 C516 1.561 . S
C519 C516 1.526 . S
C519 C520 1.396 . S
C519 C524 1.390 . S
C520 C514 1.465 . S
C520 C519 1.396 . S
C520 C521 1.399 . S
C521 H507 0.929 . S
C521 C520 1.399 . S
C521 C522 1.385 . S
C522 H508 0.931 . S
C522 C521 1.385 . S
C522 C523 1.389 . S
C523 C522 1.389 . S
C523 C524 1.387 . S
C524 H509 0.930 . S
C524 C519 1.390 . S
C524 C523 1.387 . S
H525 C537 0.930 . S
H526 C539 0.930 . S
H527 C540 0.930 . S
H528 C544 0.959 . S
H529 C544 0.959 . S
H530 C544 0.961 . S
H531 C545 0.960 . S
H532 C545 0.961 . S
H533 C545 0.959 . S
H534 C548 0.929 . S
H535 C549 0.931 . S
H536 C551 0.930 . S
C537 H525 0.930 . S
C537 C538 1.399 . S
C537 C542 1.399 . S
C538 C537 1.399 . S
C538 C539 1.376 . S
C539 H526 0.930 . S
C539 C538 1.376 . S
C539 C540 1.388 . S
C540 H527 0.930 . S
C540 C539 1.388 . S
C540 C541 1.390 . S
C541 C540 1.390 . S
C541 C542 1.394 . S
C541 C547 1.465 . S
C542 C537 1.399 . S
C542 C541 1.394 . S
C542 C543 1.516 . S
C543 C542 1.516 . S
C543 C544 1.502 . S
C543 C545 1.561 . S
C543 C546 1.526 . S
C544 H528 0.959 . S
C544 H529 0.959 . S
C544 H530 0.961 . S
C544 C543 1.502 . S
C545 H531 0.960 . S
C545 H532 0.961 . S
C545 H533 0.959 . S
C545 C543 1.561 . S
C546 C543 1.526 . S
C546 C547 1.396 . S
C546 C551 1.390 . S
C547 C541 1.465 . S
C547 C546 1.396 . S
C547 C548 1.399 . S
C548 H534 0.929 . S
C548 C547 1.399 . S
C548 C549 1.385 . S
C549 H535 0.931 . S
C549 C548 1.385 . S
C549 C550 1.389 . S
C550 C549 1.389 . S
C550 C551 1.387 . S
C551 H536 0.930 . S
C551 C546 1.390 . S
C551 C550 1.387 . S
H552 C564 0.930 . S
H553 C566 0.930 . S
H554 C567 0.930 . S
H555 C571 0.959 . S
H556 C571 0.959 . S
H557 C571 0.961 . S
H558 C572 0.960 . S
H559 C572 0.961 . S
H560 C572 0.959 . S
H561 C575 0.929 . S
H562 C576 0.931 . S
H563 C578 0.930 . S
C564 H552 0.930 . S
C564 C565 1.399 . S
C564 C569 1.399 . S
C565 C564 1.399 . S
C565 C566 1.376 . S
C566 H553 0.930 . S
C566 C565 1.376 . S
C566 C567 1.388 . S
C567 H554 0.930 . S
C567 C566 1.388 . S
C567 C568 1.390 . S
C568 C567 1.390 . S
C568 C569 1.394 . S
C568 C574 1.465 . S
C569 C564 1.399 . S
C569 C568 1.394 . S
C569 C570 1.516 . S
C570 C569 1.516 . S
C570 C571 1.502 . S
C570 C572 1.561 . S
C570 C573 1.526 . S
C571 H555 0.959 . S
C571 H556 0.959 . S
C571 H557 0.961 . S
C571 C570 1.502 . S
C572 H558 0.960 . S
C572 H559 0.961 . S
C572 H560 0.959 . S
C572 C570 1.561 . S
C573 C570 1.526 . S
C573 C574 1.396 . S
C573 C578 1.390 . S
C574 C568 1.465 . S
C574 C573 1.396 . S
C574 C575 1.399 . S
C575 H561 0.929 . S
C575 C574 1.399 . S
C575 C576 1.385 . S
C576 H562 0.931 . S
C576 C575 1.385 . S
C576 C577 1.389 . S
C577 C576 1.389 . S
C577 C578 1.387 . S
C578 H563 0.930 . S
C578 C573 1.390 . S
C578 C577 1.387 . S
H579 C591 0.930 . S
H580 C593 0.930 . S
H581 C594 0.930 . S
H582 C598 0.959 . S
H583 C598 0.959 . S
H584 C598 0.961 . S
H585 C599 0.960 . S
H586 C599 0.961 . S
H587 C599 0.959 . S
H588 C602 0.929 . S
H589 C603 0.931 . S
H590 C605 0.930 . S
C591 H579 0.930 . S
C591 C592 1.399 . S
C591 C596 1.399 . S
C592 C591 1.399 . S
C592 C593 1.376 . S
C593 H580 0.930 . S
C593 C592 1.376 . S
C593 C594 1.388 . S
C594 H581 0.930 . S
C594 C593 1.388 . S
C594 C595 1.390 . S
C595 C594 1.390 . S
C595 C596 1.394 . S
C595 C601 1.465 . S
C596 C591 1.399 . S
C596 C595 1.394 . S
C596 C597 1.516 . S
C597 C596 1.516 . S
C597 C598 1.502 . S
C597 C599 1.561 . S
C597 C600 1.526 . S
C598 H582 0.959 . S
C598 H583 0.959 . S
C598 H584 0.961 . S
C598 C597 1.502 . S
C599 H585 0.960 . S
C599 H586 0.961 . S
C599 H587 0.959 . S
C599 C597 1.561 . S
C600 C597 1.526 . S
C600 C601 1.396 . S
C600 C605 1.390 . S
C601 C595 1.465 . S
C601 C600 1.396 . S
C601 C602 1.399 . S
C602 H588 0.929 . S
C602 C601 1.399 . S
C602 C603 1.385 . S
C603 H589 0.931 . S
C603 C602 1.385 . S
C603 C604 1.389 . S
C604 C603 1.389 . S
C604 C605 1.387 . S
C605 H590 0.930 . S
C605 C600 1.390 . S
C605 C604 1.387 . S
H606 C618 0.930 . S
H607 C620 0.930 . S
H608 C621 0.930 . S
H609 C625 0.959 . S
H610 C625 0.959 . S
H611 C625 0.961 . S
H612 C626 0.960 . S
H613 C626 0.961 . S
H614 C626 0.959 . S
H615 C629 0.929 . S
H616 C630 0.931 . S
H617 C632 0.930 . S
C618 H606 0.930 . S
C618 C619 1.399 . S
C618 C623 1.399 . S
C619 C618 1.399 . S
C619 C620 1.376 . S
C620 H607 0.930 . S
C620 C619 1.376 . S
C620 C621 1.388 . S
C621 H608 0.930 . S
C621 C620 1.388 . S
C621 C622 1.390 . S
C622 C621 1.390 . S
C622 C623 1.394 . S
C622 C628 1.465 . S
C623 C618 1.399 . S
C623 C622 1.394 . S
C623 C624 1.516 . S
C624 C623 1.516 . S
C624 C625 1.502 . S
C624 C626 1.561 . S
C624 C627 1.526 . S
C625 H609 0.959 . S
C625 H610 0.959 . S
C625 H611 0.961 . S
C625 C624 1.502 . S
C626 H612 0.960 . S
C626 H613 0.961 . S
C626 H614 0.959 . S
C626 C624 1.561 . S
C627 C624 1.526 . S
C627 C628 1.396 . S
C627 C632 1.390 . S
C628 C622 1.465 . S
C628 C627 1.396 . S
C628 C629 1.399 . S
C629 H615 0.929 . S
C629 C628 1.399 . S
C629 C630 1.385 . S
C630 H616 0.931 . S
C630 C629 1.385 . S
C630 C631 1.389 . S
C631 C630 1.389 . S
C631 C632 1.387 . S
C632 H617 0.930 . S
C632 C627 1.390 . S
C632 C631 1.387 . S
H633 C645 0.930 . S
H634 C647 0.930 . S
H635 C648 0.930 . S
H636 C652 0.959 . S
H637 C652 0.959 . S
H638 C652 0.961 . S
H639 C653 0.960 . S
H640 C653 0.961 . S
H641 C653 0.959 . S
H642 C656 0.929 . S
H643 C657 0.931 . S
H644 C659 0.930 . S
C645 H633 0.930 . S
C645 C646 1.399 . S
C645 C650 1.399 . S
C646 C645 1.399 . S
C646 C647 1.376 . S
C647 H634 0.930 . S
C647 C646 1.376 . S
C647 C648 1.388 . S
C648 H635 0.930 . S
C648 C647 1.388 . S
C648 C649 1.390 . S
C649 C648 1.390 . S
C649 C650 1.394 . S
C649 C655 1.465 . S
C650 C645 1.399 . S
C650 C649 1.394 . S
C650 C651 1.516 . S
C651 C650 1.516 . S
C651 C652 1.502 . S
C651 C653 1.561 . S
C651 C654 1.526 . S
C652 H636 0.959 . S
C652 H637 0.959 . S
C652 H638 0.961 . S
C652 C651 1.502 . S
C653 H639 0.960 . S
C653 H640 0.961 . S
C653 H641 0.959 . S
C653 C651 1.561 . S
C654 C651 1.526 . S
C654 C655 1.396 . S
C654 C659 1.390 . S
C655 C649 1.465 . S
C655 C654 1.396 . S
C655 C656 1.399 . S
C656 H642 0.929 . S
C656 C655 1.399 . S
C656 C657 1.385 . S
C657 H643 0.931 . S
C657 C656 1.385 . S
C657 C658 1.389 . S
C658 C657 1.389 . S
C658 C659 1.387 . S
C659 H644 0.930 . S
C659 C654 1.390 . S
C659 C658 1.387 . S
H660 C672 0.930 . S
H661 C674 0.930 . S
H662 C675 0.930 . S
H663 C679 0.959 . S
H664 C679 0.959 . S
H665 C679 0.961 . S
H666 C680 0.960 . S
H667 C680 0.961 . S
H668 C680 0.959 . S
H669 C683 0.929 . S
H670 C684 0.931 . S
H671 C686 0.930 . S
C672 H660 0.930 . S
C672 C673 1.399 . S
C672 C677 1.399 . S
C673 C672 1.399 . S
C673 C674 1.376 . S
C674 H661 0.930 . S
C674 C673 1.376 . S
C674 C675 1.388 . S
C675 H662 0.930 . S
C675 C674 1.388 . S
C675 C676 1.390 . S
C676 C675 1.390 . S
C676 C677 1.394 . S
C676 C682 1.465 . S
C677 C672 1.399 . S
C677 C676 1.394 . S
C677 C678 1.516 . S
C678 C677 1.516 . S
C678 C679 1.502 . S
C678 C680 1.561 . S
C678 C681 1.526 . S
C679 H663 0.959 . S
C679 H664 0.959 . S
C679 H665 0.961 . S
C679 C678 1.502 . S
C680 H666 0.960 . S
C680 H667 0.961 . S
C680 H668 0.959 . S
C680 C678 1.561 . S
C681 C678 1.526 . S
C681 C682 1.396 . S
C681 C686 1.390 . S
C682 C676 1.465 . S
C682 C681 1.396 . S
C682 C683 1.399 . S
C683 H669 0.929 . S
C683 C682 1.399 . S
C683 C684 1.385 . S
C684 H670 0.931 . S
C684 C683 1.385 . S
C684 C685 1.389 . S
C685 C684 1.389 . S
C685 C686 1.387 . S
C686 H671 0.930 . S
C686 C681 1.390 . S
C686 C685 1.387 . S
H687 C699 0.930 . S
H688 C701 0.930 . S
H689 C702 0.930 . S
H690 C706 0.959 . S
H691 C706 0.959 . S
H692 C706 0.961 . S
H693 C707 0.960 . S
H694 C707 0.961 . S
H695 C707 0.959 . S
H696 C710 0.929 . S
H697 C711 0.931 . S
H698 C713 0.930 . S
C699 H687 0.930 . S
C699 C700 1.399 . S
C699 C704 1.399 . S
C700 C699 1.399 . S
C700 C701 1.376 . S
C701 H688 0.930 . S
C701 C700 1.376 . S
C701 C702 1.388 . S
C702 H689 0.930 . S
C702 C701 1.388 . S
C702 C703 1.390 . S
C703 C702 1.390 . S
C703 C704 1.394 . S
C703 C709 1.465 . S
C704 C699 1.399 . S
C704 C703 1.394 . S
C704 C705 1.516 . S
C705 C704 1.516 . S
C705 C706 1.502 . S
C705 C707 1.561 . S
C705 C708 1.526 . S
C706 H690 0.959 . S
C706 H691 0.959 . S
C706 H692 0.961 . S
C706 C705 1.502 . S
C707 H693 0.960 . S
C707 H694 0.961 . S
C707 H695 0.959 . S
C707 C705 1.561 . S
C708 C705 1.526 . S
C708 C709 1.396 . S
C708 C713 1.390 . S
C709 C703 1.465 . S
C709 C708 1.396 . S
C709 C710 1.399 . S
C710 H696 0.929 . S
C710 C709 1.399 . S
C710 C711 1.385 . S
C711 H697 0.931 . S
C711 C710 1.385 . S
C711 C712 1.389 . S
C712 C711 1.389 . S
C712 C713 1.387 . S
C713 H698 0.930 . S
C713 C708 1.390 . S
C713 C712 1.387 . S
H714 C726 0.930 . S
H715 C728 0.930 . S
H716 C729 0.930 . S
H717 C733 0.959 . S
H718 C733 0.959 . S
H719 C733 0.961 . S
H720 C734 0.960 . S
H721 C734 0.961 . S
H722 C734 0.959 . S
H723 C737 0.929 . S
H724 C738 0.931 . S
H725 C740 0.930 . S
C726 H714 0.930 . S
C726 C727 1.399 . S
C726 C731 1.399 . S
C727 C726 1.399 . S
C727 C728 1.376 . S
C728 H715 0.930 . S
C728 C727 1.376 . S
C728 C729 1.388 . S
C729 H716 0.930 . S
C729 C728 1.388 . S
C729 C730 1.390 . S
C730 C729 1.390 . S
C730 C731 1.394 . S
C730 C736 1.465 . S
C731 C726 1.399 . S
C731 C730 1.394 . S
C731 C732 1.516 . S
C732 C731 1.516 . S
C732 C733 1.502 . S
C732 C734 1.561 . S
C732 C735 1.526 . S
C733 H717 0.959 . S
C733 H718 0.959 . S
C733 H719 0.961 . S
C733 C732 1.502 . S
C734 H720 0.960 . S
C734 H721 0.961 . S
C734 H722 0.959 . S
C734 C732 1.561 . S
C735 C732 1.526 . S
C735 C736 1.396 . S
C735 C740 1.390 . S
C736 C730 1.465 . S
C736 C735 1.396 . S
C736 C737 1.399 . S
C737 H723 0.929 . S
C737 C736 1.399 . S
C737 C738 1.385 . S
C738 H724 0.931 . S
C738 C737 1.385 . S
C738 C739 1.389 . S
C739 C738 1.389 . S
C739 C740 1.387 . S
C740 H725 0.930 . S
C740 C735 1.390 . S
C740 C739 1.387 . S
H741 C753 0.930 . S
H742 C755 0.930 . S
H743 C756 0.930 . S
H744 C760 0.959 . S
H745 C760 0.959 . S
H746 C760 0.961 . S
H747 C761 0.960 . S
H748 C761 0.961 . S
H749 C761 0.959 . S
H750 C764 0.929 . S
H751 C765 0.931 . S
H752 C767 0.930 . S
C753 H741 0.930 . S
C753 C754 1.399 . S
C753 C758 1.399 . S
C754 C753 1.399 . S
C754 C755 1.376 . S
C755 H742 0.930 . S
C755 C754 1.376 . S
C755 C756 1.388 . S
C756 H743 0.930 . S
C756 C755 1.388 . S
C756 C757 1.390 . S
C757 C756 1.390 . S
C757 C758 1.394 . S
C757 C763 1.465 . S
C758 C753 1.399 . S
C758 C757 1.394 . S
C758 C759 1.516 . S
C759 C758 1.516 . S
C759 C760 1.502 . S
C759 C761 1.561 . S
C759 C762 1.526 . S
C760 H744 0.959 . S
C760 H745 0.959 . S
C760 H746 0.961 . S
C760 C759 1.502 . S
C761 H747 0.960 . S
C761 H748 0.961 . S
C761 H749 0.959 . S
C761 C759 1.561 . S
C762 C759 1.526 . S
C762 C763 1.396 . S
C762 C767 1.390 . S
C763 C757 1.465 . S
C763 C762 1.396 . S
C763 C764 1.399 . S
C764 H750 0.929 . S
C764 C763 1.399 . S
C764 C765 1.385 . S
C765 H751 0.931 . S
C765 C764 1.385 . S
C765 C766 1.389 . S
C766 C765 1.389 . S
C766 C767 1.387 . S
C767 H752 0.930 . S
C767 C762 1.390 . S
C767 C766 1.387 . S
H768 C780 0.930 . S
H769 C782 0.930 . S
H770 C783 0.930 . S
H771 C787 0.959 . S
H772 C787 0.959 . S
H773 C787 0.961 . S
H774 C788 0.960 . S
H775 C788 0.961 . S
H776 C788 0.959 . S
H777 C791 0.929 . S
H778 C792 0.931 . S
H779 C794 0.930 . S
C780 H768 0.930 . S
C780 C781 1.399 . S
C780 C785 1.399 . S
C781 C780 1.399 . S
C781 C782 1.376 . S
C782 H769 0.930 . S
C782 C781 1.376 . S
C782 C783 1.388 . S
C783 H770 0.930 . S
C783 C782 1.388 . S
C783 C784 1.390 . S
C784 C783 1.390 . S
C784 C785 1.394 . S
C784 C790 1.465 . S
C785 C780 1.399 . S
C785 C784 1.394 . S
C785 C786 1.516 . S
C786 C785 1.516 . S
C786 C787 1.502 . S
C786 C788 1.561 . S
C786 C789 1.526 . S
C787 H771 0.959 . S
C787 H772 0.959 . S
C787 H773 0.961 . S
C787 C786 1.502 . S
C788 H774 0.960 . S
C788 H775 0.961 . S
C788 H776 0.959 . S
C788 C786 1.561 . S
C789 C786 1.526 . S
C789 C790 1.396 . S
C789 C794 1.390 . S
C790 C784 1.465 . S
C790 C789 1.396 . S
C790 C791 1.399 . S
C791 H777 0.929 . S
C791 C790 1.399 . S
C791 C792 1.385 . S
C792 H778 0.931 . S
C792 C791 1.385 . S
C792 C793 1.389 . S
C793 C792 1.389 . S
C793 C794 1.387 . S
C794 H779 0.930 . S
C794 C789 1.390 . S
C794 C793 1.387 . S
H795 C807 0.930 . S
H796 C809 0.930 . S
H797 C810 0.930 . S
H798 C814 0.959 . S
H799 C814 0.959 . S
H800 C814 0.961 . S
H801 C815 0.960 . S
H802 C815 0.961 . S
H803 C815 0.959 . S
H804 C818 0.929 . S
H805 C819 0.931 . S
H806 C821 0.930 . S
C807 H795 0.930 . S
C807 C808 1.399 . S
C807 C812 1.399 . S
C808 C807 1.399 . S
C808 C809 1.376 . S
C809 H796 0.930 . S
C809 C808 1.376 . S
C809 C810 1.388 . S
C810 H797 0.930 . S
C810 C809 1.388 . S
C810 C811 1.390 . S
C811 C810 1.390 . S
C811 C812 1.394 . S
C811 C817 1.465 . S
C812 C807 1.399 . S
C812 C811 1.394 . S
C812 C813 1.516 . S
C813 C812 1.516 . S
C813 C814 1.502 . S
C813 C815 1.561 . S
C813 C816 1.526 . S
C814 H798 0.959 . S
C814 H799 0.959 . S
C814 H800 0.961 . S
C814 C813 1.502 . S
C815 H801 0.960 . S
C815 H802 0.961 . S
C815 H803 0.959 . S
C815 C813 1.561 . S
C816 C813 1.526 . S
C816 C817 1.396 . S
C816 C821 1.390 . S
C817 C811 1.465 . S
C817 C816 1.396 . S
C817 C818 1.399 . S
C818 H804 0.929 . S
C818 C817 1.399 . S
C818 C819 1.385 . S
C819 H805 0.931 . S
C819 C818 1.385 . S
C819 C820 1.389 . S
C820 C819 1.389 . S
C820 C821 1.387 . S
C821 H806 0.930 . S
C821 C816 1.390 . S
C821 C820 1.387 . S
H822 C834 0.930 . S
H823 C836 0.930 . S
H824 C837 0.930 . S
H825 C841 0.959 . S
H826 C841 0.959 . S
H827 C841 0.961 . S
H828 C842 0.960 . S
H829 C842 0.961 . S
H830 C842 0.959 . S
H831 C845 0.929 . S
H832 C846 0.931 . S
H833 C848 0.930 . S
C834 H822 0.930 . S
C834 C835 1.399 . S
C834 C839 1.399 . S
C835 C834 1.399 . S
C835 C836 1.376 . S
C836 H823 0.930 . S
C836 C835 1.376 . S
C836 C837 1.388 . S
C837 H824 0.930 . S
C837 C836 1.388 . S
C837 C838 1.390 . S
C838 C837 1.390 . S
C838 C839 1.394 . S
C838 C844 1.465 . S
C839 C834 1.399 . S
C839 C838 1.394 . S
C839 C840 1.516 . S
C840 C839 1.516 . S
C840 C841 1.502 . S
C840 C842 1.561 . S
C840 C843 1.526 . S
C841 H825 0.959 . S
C841 H826 0.959 . S
C841 H827 0.961 . S
C841 C840 1.502 . S
C842 H828 0.960 . S
C842 H829 0.961 . S
C842 H830 0.959 . S
C842 C840 1.561 . S
C843 C840 1.526 . S
C843 C844 1.396 . S
C843 C848 1.390 . S
C844 C838 1.465 . S
C844 C843 1.396 . S
C844 C845 1.399 . S
C845 H831 0.929 . S
C845 C844 1.399 . S
C845 C846 1.385 . S
C846 H832 0.931 . S
C846 C845 1.385 . S
C846 C847 1.389 . S
C847 C846 1.389 . S
C847 C848 1.387 . S
C848 H833 0.930 . S
C848 C843 1.390 . S
C848 C847 1.387 . S
H849 C861 0.930 . S
H850 C863 0.930 . S
H851 C864 0.930 . S
H852 C868 0.959 . S
H853 C868 0.959 . S
H854 C868 0.961 . S
H855 C869 0.960 . S
H856 C869 0.961 . S
H857 C869 0.959 . S
H858 C872 0.929 . S
H859 C873 0.931 . S
H860 C875 0.930 . S
C861 H849 0.930 . S
C861 C862 1.399 . S
C861 C866 1.399 . S
C862 C861 1.399 . S
C862 C863 1.376 . S
C863 H850 0.930 . S
C863 C862 1.376 . S
C863 C864 1.388 . S
C864 H851 0.930 . S
C864 C863 1.388 . S
C864 C865 1.390 . S
C865 C864 1.390 . S
C865 C866 1.394 . S
C865 C871 1.465 . S
C866 C861 1.399 . S
C866 C865 1.394 . S
C866 C867 1.516 . S
C867 C866 1.516 . S
C867 C868 1.502 . S
C867 C869 1.561 . S
C867 C870 1.526 . S
C868 H852 0.959 . S
C868 H853 0.959 . S
C868 H854 0.961 . S
C868 C867 1.502 . S
C869 H855 0.960 . S
C869 H856 0.961 . S
C869 H857 0.959 . S
C869 C867 1.561 . S
C870 C867 1.526 . S
C870 C871 1.396 . S
C870 C875 1.390 . S
C871 C865 1.465 . S
C871 C870 1.396 . S
C871 C872 1.399 . S
C872 H858 0.929 . S
C872 C871 1.399 . S
C872 C873 1.385 . S
C873 H859 0.931 . S
C873 C872 1.385 . S
C873 C874 1.389 . S
C874 C873 1.389 . S
C874 C875 1.387 . S
C875 H860 0.930 . S
C875 C870 1.390 . S
C875 C874 1.387 . S
H876 C888 0.930 . S
H877 C890 0.930 . S
H878 C891 0.930 . S
H879 C895 0.959 . S
H880 C895 0.959 . S
H881 C895 0.961 . S
H882 C896 0.960 . S
H883 C896 0.961 . S
H884 C896 0.959 . S
H885 C899 0.929 . S
H886 C900 0.931 . S
H887 C902 0.930 . S
C888 H876 0.930 . S
C888 C889 1.399 . S
C888 C893 1.399 . S
C889 C888 1.399 . S
C889 C890 1.376 . S
C890 H877 0.930 . S
C890 C889 1.376 . S
C890 C891 1.388 . S
C891 H878 0.930 . S
C891 C890 1.388 . S
C891 C892 1.390 . S
C892 C891 1.390 . S
C892 C893 1.394 . S
C892 C898 1.465 . S
C893 C888 1.399 . S
C893 C892 1.394 . S
C893 C894 1.516 . S
C894 C893 1.516 . S
C894 C895 1.502 . S
C894 C896 1.561 . S
C894 C897 1.526 . S
C895 H879 0.959 . S
C895 H880 0.959 . S
C895 H881 0.961 . S
C895 C894 1.502 . S
C896 H882 0.960 . S
C896 H883 0.961 . S
C896 H884 0.959 . S
C896 C894 1.561 . S
C897 C894 1.526 . S
C897 C898 1.396 . S
C897 C902 1.390 . S
C898 C892 1.465 . S
C898 C897 1.396 . S
C898 C899 1.399 . S
C899 H885 0.929 . S
C899 C898 1.399 . S
C899 C900 1.385 . S
C900 H886 0.931 . S
C900 C899 1.385 . S
C900 C901 1.389 . S
C901 C900 1.389 . S
C901 C902 1.387 . S
C902 H887 0.930 . S
C902 C897 1.390 . S
C902 C901 1.387 . S
H903 C915 0.930 . S
H904 C917 0.930 . S
H905 C918 0.930 . S
H906 C922 0.959 . S
H907 C922 0.959 . S
H908 C922 0.961 . S
H909 C923 0.960 . S
H910 C923 0.961 . S
H911 C923 0.959 . S
H912 C926 0.929 . S
H913 C927 0.931 . S
H914 C929 0.930 . S
C915 H903 0.930 . S
C915 C916 1.399 . S
C915 C920 1.399 . S
C916 C915 1.399 . S
C916 C917 1.376 . S
C917 H904 0.930 . S
C917 C916 1.376 . S
C917 C918 1.388 . S
C918 H905 0.930 . S
C918 C917 1.388 . S
C918 C919 1.390 . S
C919 C918 1.390 . S
C919 C920 1.394 . S
C919 C925 1.465 . S
C920 C915 1.399 . S
C920 C919 1.394 . S
C920 C921 1.516 . S
C921 C920 1.516 . S
C921 C922 1.502 . S
C921 C923 1.561 . S
C921 C924 1.526 . S
C922 H906 0.959 . S
C922 H907 0.959 . S
C922 H908 0.961 . S
C922 C921 1.502 . S
C923 H909 0.960 . S
C923 H910 0.961 . S
C923 H911 0.959 . S
C923 C921 1.561 . S
C924 C921 1.526 . S
C924 C925 1.396 . S
C924 C929 1.390 . S
C925 C919 1.465 . S
C925 C924 1.396 . S
C925 C926 1.399 . S
C926 H912 0.929 . S
C926 C925 1.399 . S
C926 C927 1.385 . S
C927 H913 0.931 . S
C927 C926 1.385 . S
C927 C928 1.389 . S
C928 C927 1.389 . S
C928 C929 1.387 . S
C929 H914 0.930 . S
C929 C924 1.390 . S
C929 C928 1.387 . S
H930 C942 0.930 . S
H931 C944 0.930 . S
H932 C945 0.930 . S
H933 C949 0.959 . S
H934 C949 0.959 . S
H935 C949 0.961 . S
H936 C950 0.960 . S
H937 C950 0.961 . S
H938 C950 0.959 . S
H939 C953 0.929 . S
H940 C954 0.931 . S
H941 C956 0.930 . S
C942 H930 0.930 . S
C942 C943 1.399 . S
C942 C947 1.399 . S
C943 C942 1.399 . S
C943 C944 1.376 . S
C944 H931 0.930 . S
C944 C943 1.376 . S
C944 C945 1.388 . S
C945 H932 0.930 . S
C945 C944 1.388 . S
C945 C946 1.390 . S
C946 C945 1.390 . S
C946 C947 1.394 . S
C946 C952 1.465 . S
C947 C942 1.399 . S
C947 C946 1.394 . S
C947 C948 1.516 . S
C948 C947 1.516 . S
C948 C949 1.502 . S
C948 C950 1.561 . S
C948 C951 1.526 . S
C949 H933 0.959 . S
C949 H934 0.959 . S
C949 H935 0.961 . S
C949 C948 1.502 . S
C950 H936 0.960 . S
C950 H937 0.961 . S
C950 H938 0.959 . S
C950 C948 1.561 . S
C951 C948 1.526 . S
C951 C952 1.396 . S
C951 C956 1.390 . S
C952 C946 1.465 . S
C952 C951 1.396 . S
C952 C953 1.399 . S
C953 H939 0.929 . S
C953 C952 1.399 . S
C953 C954 1.385 . S
C954 H940 0.931 . S
C954 C953 1.385 . S
C954 C955 1.389 . S
C955 C954 1.389 . S
C955 C956 1.387 . S
C956 H941 0.930 . S
C956 C951 1.390 . S
C956 C955 1.387 . S
H957 C969 0.930 . S
H958 C971 0.930 . S
H959 C972 0.930 . S
H960 C976 0.959 . S
H961 C976 0.959 . S
H962 C976 0.961 . S
H963 C977 0.960 . S
H964 C977 0.961 . S
H965 C977 0.959 . S
H966 C980 0.929 . S
H967 C981 0.931 . S
H968 C983 0.930 . S
C969 H957 0.930 . S
C969 C970 1.399 . S
C969 C974 1.399 . S
C970 C969 1.399 . S
C970 C971 1.376 . S
C971 H958 0.930 . S
C971 C970 1.376 . S
C971 C972 1.388 . S
C972 H959 0.930 . S
C972 C971 1.388 . S
C972 C973 1.390 . S
C973 C972 1.390 . S
C973 C974 1.394 . S
C973 C979 1.465 . S
C974 C969 1.399 . S
C974 C973 1.394 . S
C974 C975 1.516 . S
C975 C974 1.516 . S
C975 C976 1.502 . S
C975 C977 1.561 . S
C975 C978 1.526 . S
C976 H960 0.959 . S
C976 H961 0.959 . S
C976 H962 0.961 . S
C976 C975 1.502 . S
C977 H963 0.960 . S
C977 H964 0.961 . S
C977 H965 0.959 . S
C977 C975 1.561 . S
C978 C975 1.526 . S
C978 C979 1.396 . S
C978 C983 1.390 . S
C979 C973 1.465 . S
C979 C978 1.396 . S
C979 C980 1.399 . S
C980 H966 0.929 . S
C980 C979 1.399 . S
C980 C981 1.385 . S
C981 H967 0.931 . S
C981 C980 1.385 . S
C981 C982 1.389 . S
C982 C981 1.389 . S
C982 C983 1.387 . S
C983 H968 0.930 . S
C983 C978 1.390 . S
C983 C982 1.387 . S
H984 C996 0.930 . S
H985 C998 0.930 . S
H986 C999 0.930 . S
H987 C1003 0.957 1_655 S
H988 C1003 0.932 1_655 S
H989 C1003 0.991 . S
H990 C1004 0.959 1_455 S
H991 C1004 0.962 . S
H992 C1004 0.959 . S
H993 C1007 0.929 . S
H994 C1008 0.931 . S
H995 C1010 0.930 . S
C996 H984 0.930 . S
C996 C997 1.399 . S
C996 C1001 1.399 . S
C997 C996 1.399 . S
C997 C998 1.376 . S
C998 H985 0.930 . S
C998 C997 1.376 . S
C998 C999 1.388 . S
C999 H986 0.930 . S
C999 C998 1.388 . S
C999 C1000 1.390 . S
C1000 C999 1.390 . S
C1000 C1001 1.394 . S
C1000 C1006 1.465 1_455 S
C1001 C996 1.399 . S
C1001 C1000 1.394 . S
C1001 C1002 1.527 . S
C1002 C1001 1.527 . S
C1002 C1003 1.502 . S
C1002 C1004 1.561 1_455 S
C1002 C1005 1.515 1_455 S
C1003 H987 0.957 1_455 S
C1003 H988 0.932 1_455 S
C1003 H989 0.991 . S
C1003 C1002 1.502 . S
C1004 H990 0.959 1_655 S
C1004 H991 0.962 . S
C1004 H992 0.959 . S
C1004 C1002 1.561 1_655 S
C1005 C1002 1.515 1_655 S
C1005 C1006 1.396 . S
C1005 C1010 1.390 . S
C1006 C1000 1.465 1_655 S
C1006 C1005 1.396 . S
C1006 C1007 1.399 . S
C1007 H993 0.929 . S
C1007 C1006 1.399 . S
C1007 C1008 1.385 . S
C1008 H994 0.931 . S
C1008 C1007 1.385 . S
C1008 C1009 1.389 . S
C1009 C1008 1.389 . S
C1009 C1010 1.387 . S
C1010 H995 0.930 . S
C1010 C1005 1.390 . S
C1010 C1009 1.387 . S
H1011 C1023 0.930 . S
H1012 C1025 0.930 . S
H1013 C1026 0.930 . S
H1014 C1030 0.957 1_565 S
H1015 C1030 0.942 1_565 S
H1016 C1030 0.980 . S
H1017 C1031 0.960 . S
H1018 C1031 0.961 1_565 S
H1019 C1031 0.959 1_565 S
H1020 C1034 0.929 . S
H1021 C1035 0.931 . S
H1022 C1037 0.930 . S
C1023 H1011 0.930 . S
C1023 C1024 1.399 . S
C1023 C1028 1.399 . S
C1024 C1023 1.399 . S
C1024 C1025 1.376 . S
C1025 H1012 0.930 . S
C1025 C1024 1.376 . S
C1025 C1026 1.388 . S
C1026 H1013 0.930 . S
C1026 C1025 1.388 . S
C1026 C1027 1.390 . S
C1027 C1026 1.390 . S
C1027 C1028 1.394 . S
C1027 C1033 1.465 1_545 S
C1028 C1023 1.399 . S
C1028 C1027 1.394 . S
C1028 C1029 1.544 . S
C1029 C1028 1.544 . S
C1029 C1030 1.502 . S
C1029 C1031 1.563 . S
C1029 C1032 1.497 1_545 S
C1030 H1014 0.957 1_545 S
C1030 H1015 0.942 1_545 S
C1030 H1016 0.980 . S
C1030 C1029 1.502 . S
C1031 H1017 0.960 . S
C1031 H1018 0.961 1_545 S
C1031 H1019 0.959 1_545 S
C1031 C1029 1.563 . S
C1032 C1029 1.497 1_565 S
C1032 C1033 1.396 . S
C1032 C1037 1.390 . S
C1033 C1027 1.465 1_565 S
C1033 C1032 1.396 . S
C1033 C1034 1.399 . S
C1034 H1020 0.929 . S
C1034 C1033 1.399 . S
C1034 C1035 1.385 . S
C1035 H1021 0.931 . S
C1035 C1034 1.385 . S
C1035 C1036 1.389 . S
C1036 C1035 1.389 . S
C1036 C1037 1.387 . S
C1037 H1022 0.930 . S
C1037 C1032 1.390 . S
C1037 C1036 1.387 . S
H1038 C1050 0.930 . S
H1039 C1052 0.930 . S
H1040 C1053 0.930 . S
H1041 C1057 0.959 . S
H1042 C1057 0.959 . S
H1043 C1057 0.961 1_655 S
H1044 C1058 0.978 . S
H1045 C1058 0.945 1_455 S
H1046 C1058 0.957 1_455 S
H1047 C1061 0.929 . S
H1048 C1062 0.931 . S
H1049 C1064 0.930 . S
C1050 H1038 0.930 . S
C1050 C1051 1.399 . S
C1050 C1055 1.399 . S
C1051 C1050 1.399 . S
C1051 C1052 1.376 . S
C1052 H1039 0.930 . S
C1052 C1051 1.376 . S
C1052 C1053 1.388 . S
C1053 H1040 0.930 . S
C1053 C1052 1.388 . S
C1053 C1054 1.390 . S
C1054 C1053 1.390 . S
C1054 C1055 1.394 . S
C1054 C1060 1.465 1_655 S
C1055 C1050 1.399 . S
C1055 C1054 1.394 . S
C1055 C1056 1.514 1_655 S
C1056 C1055 1.514 1_455 S
C1056 C1057 1.502 . S
C1056 C1058 1.561 1_455 S
C1056 C1059 1.528 . S
C1057 H1041 0.959 . S
C1057 H1042 0.959 . S
C1057 H1043 0.961 1_455 S
C1057 C1056 1.502 . S
C1058 H1044 0.978 . S
C1058 H1045 0.945 1_655 S
C1058 H1046 0.957 1_655 S
C1058 C1056 1.561 1_655 S
C1059 C1056 1.528 . S
C1059 C1060 1.396 . S
C1059 C1064 1.390 . S
C1060 C1054 1.465 1_455 S
C1060 C1059 1.396 . S
C1060 C1061 1.399 . S
C1061 H1047 0.929 . S
C1061 C1060 1.399 . S
C1061 C1062 1.385 . S
C1062 H1048 0.931 . S
C1062 C1061 1.385 . S
C1062 C1063 1.389 . S
C1063 C1062 1.389 . S
C1063 C1064 1.387 . S
C1064 H1049 0.930 . S
C1064 C1059 1.390 . S
C1064 C1063 1.387 . S
H1065 C1077 0.930 . S
H1066 C1079 0.930 . S
H1067 C1080 0.930 . S
H1068 C1084 0.959 . S
H1069 C1084 0.959 . S
H1070 C1084 0.961 1_545 S
H1071 C1085 0.960 1_545 S
H1072 C1085 0.961 . S
H1073 C1085 0.959 . S
H1074 C1088 0.929 . S
H1075 C1089 0.931 . S
H1076 C1091 0.930 . S
C1077 H1065 0.930 . S
C1077 C1078 1.399 . S
C1077 C1082 1.399 . S
C1078 C1077 1.399 . S
C1078 C1079 1.376 . S
C1079 H1066 0.930 . S
C1079 C1078 1.376 . S
C1079 C1080 1.388 . S
C1080 H1067 0.930 . S
C1080 C1079 1.388 . S
C1080 C1081 1.390 . S
C1081 C1080 1.390 . S
C1081 C1082 1.394 . S
C1081 C1087 1.465 1_545 S
C1082 C1077 1.399 . S
C1082 C1081 1.394 . S
C1082 C1083 1.479 1_545 S
C1083 C1082 1.479 1_565 S
C1083 C1084 1.504 . S
C1083 C1085 1.563 . S
C1083 C1086 1.561 . S
C1084 H1068 0.959 . S
C1084 H1069 0.959 . S
C1084 H1070 0.961 1_565 S
C1084 C1083 1.504 . S
C1085 H1071 0.960 1_565 S
C1085 H1072 0.961 . S
C1085 H1073 0.959 . S
C1085 C1083 1.563 . S
C1086 C1083 1.561 . S
C1086 C1087 1.396 . S
C1086 C1091 1.390 . S
C1087 C1081 1.465 1_565 S
C1087 C1086 1.396 . S
C1087 C1088 1.399 . S
C1088 H1074 0.929 . S
C1088 C1087 1.399 . S
C1088 C1089 1.385 . S
C1089 H1075 0.931 . S
C1089 C1088 1.385 . S
C1089 C1090 1.389 . S
C1090 C1089 1.389 . S
C1090 C1091 1.387 . S
C1091 H1076 0.930 . S
C1091 C1086 1.390 . S
C1091 C1090 1.387 . S
H1092 C1104 0.930 . S
H1093 C1106 0.930 . S
H1094 C1107 0.930 . S
H1095 C1111 0.958 1_545 S
H1096 C1111 0.937 1_545 S
H1097 C1111 0.986 . S
H1098 C1112 0.950 1_565 S
H1099 C1112 0.970 . S
H1100 C1112 0.960 . S
H1101 C1115 0.929 . S
H1102 C1116 0.931 . S
H1103 C1118 0.930 . S
C1104 H1092 0.930 . S
C1104 C1105 1.399 . S
C1104 C1109 1.399 . S
C1105 C1104 1.399 . S
C1105 C1106 1.376 . S
C1106 H1093 0.930 . S
C1106 C1105 1.376 . S
C1106 C1107 1.388 . S
C1107 H1094 0.930 . S
C1107 C1106 1.388 . S
C1107 C1108 1.390 . S
C1108 C1107 1.390 . S
C1108 C1109 1.394 . S
C1108 C1114 1.465 1_565 S
C1109 C1104 1.399 . S
C1109 C1108 1.394 . S
C1109 C1110 1.523 . S
C1110 C1109 1.523 . S
C1110 C1111 1.502 . S
C1110 C1112 1.561 1_565 S
C1110 C1113 1.519 1_565 S
C1111 H1095 0.958 1_565 S
C1111 H1096 0.937 1_565 S
C1111 H1097 0.986 . S
C1111 C1110 1.502 . S
C1112 H1098 0.950 1_545 S
C1112 H1099 0.970 . S
C1112 H1100 0.960 . S
C1112 C1110 1.561 1_545 S
C1113 C1110 1.519 1_545 S
C1113 C1114 1.396 . S
C1113 C1118 1.390 . S
C1114 C1108 1.465 1_545 S
C1114 C1113 1.396 . S
C1114 C1115 1.399 . S
C1115 H1101 0.929 . S
C1115 C1114 1.399 . S
C1115 C1116 1.385 . S
C1116 H1102 0.931 . S
C1116 C1115 1.385 . S
C1116 C1117 1.389 . S
C1117 C1116 1.389 . S
C1117 C1118 1.387 . S
C1118 H1103 0.930 . S
C1118 C1113 1.390 . S
C1118 C1117 1.387 . S
H1119 C1131 0.930 . S
H1120 C1133 0.930 . S
H1121 C1134 0.930 . S
H1122 C1138 0.958 1_455 S
H1123 C1138 0.943 1_455 S
H1124 C1138 0.978 . S
H1125 C1139 0.940 1_655 S
H1126 C1139 0.979 . S
H1127 C1139 0.962 . S
H1128 C1142 0.929 . S
H1129 C1143 0.931 . S
H1130 C1145 0.930 . S
C1131 H1119 0.930 . S
C1131 C1132 1.399 . S
C1131 C1136 1.399 . S
C1132 C1131 1.399 . S
C1132 C1133 1.376 . S
C1133 H1120 0.930 . S
C1133 C1132 1.376 . S
C1133 C1134 1.388 . S
C1134 H1121 0.930 . S
C1134 C1133 1.388 . S
C1134 C1135 1.390 . S
C1135 C1134 1.390 . S
C1135 C1136 1.394 . S
C1135 C1141 1.465 1_655 S
C1136 C1131 1.399 . S
C1136 C1135 1.394 . S
C1136 C1137 1.518 . S
C1137 C1136 1.518 . S
C1137 C1138 1.502 . S
C1137 C1139 1.561 1_655 S
C1137 C1140 1.524 1_655 S
C1138 H1122 0.958 1_655 S
C1138 H1123 0.943 1_655 S
C1138 H1124 0.978 . S
C1138 C1137 1.502 . S
C1139 H1125 0.940 1_455 S
C1139 H1126 0.979 . S
C1139 H1127 0.962 . S
C1139 C1137 1.561 1_455 S
C1140 C1137 1.524 1_455 S
C1140 C1141 1.396 . S
C1140 C1145 1.390 . S
C1141 C1135 1.465 1_455 S
C1141 C1140 1.396 . S
C1141 C1142 1.399 . S
C1142 H1128 0.929 . S
C1142 C1141 1.399 . S
C1142 C1143 1.385 . S
C1143 H1129 0.931 . S
C1143 C1142 1.385 . S
C1143 C1144 1.389 . S
C1144 C1143 1.389 . S
C1144 C1145 1.387 . S
C1145 H1130 0.930 . S
C1145 C1140 1.390 . S
C1145 C1144 1.387 . S
H1146 C1158 0.930 . S
H1147 C1160 0.930 . S
H1148 C1161 0.930 . S
H1149 C1165 0.958 1_545 S
H1150 C1165 0.946 1_545 S
H1151 C1165 0.976 . S
H1152 C1166 0.937 1_565 S
H1153 C1166 0.982 . S
H1154 C1166 0.962 . S
H1155 C1169 0.929 . S
H1156 C1170 0.931 . S
H1157 C1172 0.930 . S
C1158 H1146 0.930 . S
C1158 C1159 1.399 . S
C1158 C1163 1.399 . S
C1159 C1158 1.399 . S
C1159 C1160 1.376 . S
C1160 H1147 0.930 . S
C1160 C1159 1.376 . S
C1160 C1161 1.388 . S
C1161 H1148 0.930 . S
C1161 C1160 1.388 . S
C1161 C1162 1.390 . S
C1162 C1161 1.390 . S
C1162 C1163 1.394 . S
C1162 C1168 1.465 1_565 S
C1163 C1158 1.399 . S
C1163 C1162 1.394 . S
C1163 C1164 1.517 . S
C1164 C1163 1.517 . S
C1164 C1165 1.502 . S
C1164 C1166 1.561 1_565 S
C1164 C1167 1.525 1_565 S
C1165 H1149 0.958 1_565 S
C1165 H1150 0.946 1_565 S
C1165 H1151 0.976 . S
C1165 C1164 1.502 . S
C1166 H1152 0.937 1_545 S
C1166 H1153 0.982 . S
C1166 H1154 0.962 . S
C1166 C1164 1.561 1_545 S
C1167 C1164 1.525 1_545 S
C1167 C1168 1.396 . S
C1167 C1172 1.390 . S
C1168 C1162 1.465 1_545 S
C1168 C1167 1.396 . S
C1168 C1169 1.399 . S
C1169 H1155 0.929 . S
C1169 C1168 1.399 . S
C1169 C1170 1.385 . S
C1170 H1156 0.931 . S
C1170 C1169 1.385 . S
C1170 C1171 1.389 . S
C1171 C1170 1.389 . S
C1171 C1172 1.387 . S
C1172 H1157 0.930 . S
C1172 C1167 1.390 . S
C1172 C1171 1.387 . S
H1173 C1185 0.930 . S
H1174 C1187 0.930 . S
H1175 C1188 0.930 . S
H1176 C1192 0.958 1_455 S
H1177 C1192 0.948 1_455 S
H1178 C1192 0.973 . S
H1179 C1193 0.934 1_655 S
H1180 C1193 0.984 . S
H1181 C1193 0.963 . S
H1182 C1196 0.929 . S
H1183 C1197 0.931 . S
H1184 C1199 0.930 . S
C1185 H1173 0.930 . S
C1185 C1186 1.399 . S
C1185 C1190 1.399 . S
C1186 C1185 1.399 . S
C1186 C1187 1.376 . S
C1187 H1174 0.930 . S
C1187 C1186 1.376 . S
C1187 C1188 1.388 . S
C1188 H1175 0.930 . S
C1188 C1187 1.388 . S
C1188 C1189 1.390 . S
C1189 C1188 1.390 . S
C1189 C1190 1.394 . S
C1189 C1195 1.465 1_655 S
C1190 C1185 1.399 . S
C1190 C1189 1.394 . S
C1190 C1191 1.515 . S
C1191 C1190 1.515 . S
C1191 C1192 1.502 . S
C1191 C1193 1.561 1_655 S
C1191 C1194 1.527 1_655 S
C1192 H1176 0.958 1_655 S
C1192 H1177 0.948 1_655 S
C1192 H1178 0.973 . S
C1192 C1191 1.502 . S
C1193 H1179 0.934 1_455 S
C1193 H1180 0.984 . S
C1193 H1181 0.963 . S
C1193 C1191 1.561 1_455 S
C1194 C1191 1.527 1_455 S
C1194 C1195 1.396 . S
C1194 C1199 1.390 . S
C1195 C1189 1.465 1_455 S
C1195 C1194 1.396 . S
C1195 C1196 1.399 . S
C1196 H1182 0.929 . S
C1196 C1195 1.399 . S
C1196 C1197 1.385 . S
C1197 H1183 0.931 . S
C1197 C1196 1.385 . S
C1197 C1198 1.389 . S
C1198 C1197 1.389 . S
C1198 C1199 1.387 . S
C1199 H1184 0.930 . S
C1199 C1194 1.390 . S
C1199 C1198 1.387 . S
H1200 C1212 0.930 . S
H1201 C1214 0.930 . S
H1202 C1215 0.930 . S
H1203 C1219 0.959 . S
H1204 C1219 0.959 . S
H1205 C1219 0.961 1_556 S
H1206 C1220 0.960 1_556 S
H1207 C1220 0.961 . S
H1208 C1220 0.959 . S
H1209 C1223 0.929 . S
H1210 C1224 0.931 . S
H1211 C1226 0.930 . S
C1212 H1200 0.930 . S
C1212 C1213 1.399 . S
C1212 C1217 1.399 . S
C1213 C1212 1.399 . S
C1213 C1214 1.376 . S
C1214 H1201 0.930 . S
C1214 C1213 1.376 . S
C1214 C1215 1.388 . S
C1215 H1202 0.930 . S
C1215 C1214 1.388 . S
C1215 C1216 1.390 . S
C1216 C1215 1.390 . S
C1216 C1217 1.394 . S
C1216 C1222 1.465 1_556 S
C1217 C1212 1.399 . S
C1217 C1216 1.394 . S
C1217 C1218 1.479 1_556 S
C1218 C1217 1.479 1_554 S
C1218 C1219 1.504 . S
C1218 C1220 1.563 . S
C1218 C1221 1.562 . S
C1219 H1203 0.959 . S
C1219 H1204 0.959 . S
C1219 H1205 0.961 1_554 S
C1219 C1218 1.504 . S
C1220 H1206 0.960 1_554 S
C1220 H1207 0.961 . S
C1220 H1208 0.959 . S
C1220 C1218 1.563 . S
C1221 C1218 1.562 . S
C1221 C1222 1.396 . S
C1221 C1226 1.390 . S
C1222 C1216 1.465 1_554 S
C1222 C1221 1.396 . S
C1222 C1223 1.399 . S
C1223 H1209 0.929 . S
C1223 C1222 1.399 . S
C1223 C1224 1.385 . S
C1224 H1210 0.931 . S
C1224 C1223 1.385 . S
C1224 C1225 1.389 . S
C1225 C1224 1.389 . S
C1225 C1226 1.387 . S
C1226 H1211 0.930 . S
C1226 C1221 1.390 . S
C1226 C1225 1.387 . S
H1227 C1239 0.930 . S
H1228 C1241 0.930 . S
H1229 C1242 0.930 . S
H1230 C1246 0.958 1_554 S
H1231 C1246 0.951 1_554 S
H1232 C1246 0.970 . S
H1233 C1247 0.930 1_556 S
H1234 C1247 0.988 . S
H1235 C1247 0.963 . S
H1236 C1250 0.929 . S
H1237 C1251 0.931 . S
H1238 C1253 0.930 . S
C1239 H1227 0.930 . S
C1239 C1240 1.399 . S
C1239 C1244 1.399 . S
C1240 C1239 1.399 . S
C1240 C1241 1.376 . S
C1241 H1228 0.930 . S
C1241 C1240 1.376 . S
C1241 C1242 1.388 . S
C1242 H1229 0.930 . S
C1242 C1241 1.388 . S
C1242 C1243 1.390 . S
C1243 C1242 1.390 . S
C1243 C1244 1.394 . S
C1243 C1249 1.465 1_556 S
C1244 C1239 1.399 . S
C1244 C1243 1.394 . S
C1244 C1245 1.513 . S
C1245 C1244 1.513 . S
C1245 C1246 1.502 . S
C1245 C1247 1.561 1_556 S
C1245 C1248 1.529 1_556 S
C1246 H1230 0.958 1_556 S
C1246 H1231 0.951 1_556 S
C1246 H1232 0.970 . S
C1246 C1245 1.502 . S
C1247 H1233 0.930 1_554 S
C1247 H1234 0.988 . S
C1247 H1235 0.963 . S
C1247 C1245 1.561 1_554 S
C1248 C1245 1.529 1_554 S
C1248 C1249 1.396 . S
C1248 C1253 1.390 . S
C1249 C1243 1.465 1_554 S
C1249 C1248 1.396 . S
C1249 C1250 1.399 . S
C1250 H1236 0.929 . S
C1250 C1249 1.399 . S
C1250 C1251 1.385 . S
C1251 H1237 0.931 . S
C1251 C1250 1.385 . S
C1251 C1252 1.389 . S
C1252 C1251 1.389 . S
C1252 C1253 1.387 . S
C1253 H1238 0.930 . S
C1253 C1248 1.390 . S
C1253 C1252 1.387 . S
H1254 C1266 0.930 . S
H1255 C1268 0.930 . S
H1256 C1269 0.930 . S
H1257 C1273 0.959 . S
H1258 C1273 0.959 . S
H1259 C1273 0.961 1_556 S
H1260 C1274 0.960 1_556 S
H1261 C1274 0.961 . S
H1262 C1274 0.959 . S
H1263 C1277 0.929 . S
H1264 C1278 0.931 . S
H1265 C1280 0.930 . S
C1266 H1254 0.930 . S
C1266 C1267 1.399 . S
C1266 C1271 1.399 . S
C1267 C1266 1.399 . S
C1267 C1268 1.376 . S
C1268 H1255 0.930 . S
C1268 C1267 1.376 . S
C1268 C1269 1.388 . S
C1269 H1256 0.930 . S
C1269 C1268 1.388 . S
C1269 C1270 1.390 . S
C1270 C1269 1.390 . S
C1270 C1271 1.394 . S
C1270 C1276 1.465 1_556 S
C1271 C1266 1.399 . S
C1271 C1270 1.394 . S
C1271 C1272 1.478 1_556 S
C1272 C1271 1.478 1_554 S
C1272 C1273 1.504 . S
C1272 C1274 1.563 . S
C1272 C1275 1.563 . S
C1273 H1257 0.959 . S
C1273 H1258 0.959 . S
C1273 H1259 0.961 1_554 S
C1273 C1272 1.504 . S
C1274 H1260 0.960 1_554 S
C1274 H1261 0.961 . S
C1274 H1262 0.959 . S
C1274 C1272 1.563 . S
C1275 C1272 1.563 . S
C1275 C1276 1.396 . S
C1275 C1280 1.390 . S
C1276 C1270 1.465 1_554 S
C1276 C1275 1.396 . S
C1276 C1277 1.399 . S
C1277 H1263 0.929 . S
C1277 C1276 1.399 . S
C1277 C1278 1.385 . S
C1278 H1264 0.931 . S
C1278 C1277 1.385 . S
C1278 C1279 1.389 . S
C1279 C1278 1.389 . S
C1279 C1280 1.387 . S
C1280 H1265 0.930 . S
C1280 C1275 1.390 . S
C1280 C1279 1.387 . S
H1281 C1293 0.930 . S
H1282 C1295 0.930 . S
H1283 C1296 0.930 . S
H1284 C1300 0.959 . S
H1285 C1300 0.959 . S
H1286 C1300 0.961 1_556 S
H1287 C1301 0.972 . S
H1288 C1301 0.950 1_554 S
H1289 C1301 0.957 1_554 S
H1290 C1304 0.929 . S
H1291 C1305 0.931 . S
H1292 C1307 0.930 . S
C1293 H1281 0.930 . S
C1293 C1294 1.399 . S
C1293 C1298 1.399 . S
C1294 C1293 1.399 . S
C1294 C1295 1.376 . S
C1295 H1282 0.930 . S
C1295 C1294 1.376 . S
C1295 C1296 1.388 . S
C1296 H1283 0.930 . S
C1296 C1295 1.388 . S
C1296 C1297 1.390 . S
C1297 C1296 1.390 . S
C1297 C1298 1.394 . S
C1297 C1303 1.465 1_556 S
C1298 C1293 1.399 . S
C1298 C1297 1.394 . S
C1298 C1299 1.511 1_556 S
C1299 C1298 1.511 1_554 S
C1299 C1300 1.502 . S
C1299 C1301 1.561 1_554 S
C1299 C1302 1.531 . S
C1300 H1284 0.959 . S
C1300 H1285 0.959 . S
C1300 H1286 0.961 1_554 S
C1300 C1299 1.502 . S
C1301 H1287 0.972 . S
C1301 H1288 0.950 1_556 S
C1301 H1289 0.957 1_556 S
C1301 C1299 1.561 1_556 S
C1302 C1299 1.531 . S
C1302 C1303 1.396 . S
C1302 C1307 1.390 . S
C1303 C1297 1.465 1_554 S
C1303 C1302 1.396 . S
C1303 C1304 1.399 . S
C1304 H1290 0.929 . S
C1304 C1303 1.399 . S
C1304 C1305 1.385 . S
C1305 H1291 0.931 . S
C1305 C1304 1.385 . S
C1305 C1306 1.389 . S
C1306 C1305 1.389 . S
C1306 C1307 1.387 . S
C1307 H1292 0.930 . S
C1307 C1302 1.390 . S
C1307 C1306 1.387 . S
H1308 C1320 0.930 . S
H1309 C1322 0.930 . S
H1310 C1323 0.930 . S
H1311 C1327 0.959 . S
H1312 C1327 0.959 . S
H1313 C1327 0.961 . S
H1314 C1328 0.960 . S
H1315 C1328 0.961 . S
H1316 C1328 0.959 . S
H1317 C1331 0.929 . S
H1318 C1332 0.931 . S
H1319 C1334 0.930 . S
C1320 H1308 0.930 . S
C1320 C1321 1.399 . S
C1320 C1325 1.399 . S
C1321 C1320 1.399 . S
C1321 C1322 1.376 . S
C1322 H1309 0.930 . S
C1322 C1321 1.376 . S
C1322 C1323 1.388 . S
C1323 H1310 0.930 . S
C1323 C1322 1.388 . S
C1323 C1324 1.390 . S
C1324 C1323 1.390 . S
C1324 C1325 1.394 . S
C1324 C1330 1.465 . S
C1325 C1320 1.399 . S
C1325 C1324 1.394 . S
C1325 C1326 1.516 . S
C1326 C1325 1.516 . S
C1326 C1327 1.502 . S
C1326 C1328 1.561 . S
C1326 C1329 1.526 . S
C1327 H1311 0.959 . S
C1327 H1312 0.959 . S
C1327 H1313 0.961 . S
C1327 C1326 1.502 . S
C1328 H1314 0.960 . S
C1328 H1315 0.961 . S
C1328 H1316 0.959 . S
C1328 C1326 1.561 . S
C1329 C1326 1.526 . S
C1329 C1330 1.396 . S
C1329 C1334 1.390 . S
C1330 C1324 1.465 . S
C1330 C1329 1.396 . S
C1330 C1331 1.399 . S
C1331 H1317 0.929 . S
C1331 C1330 1.399 . S
C1331 C1332 1.385 . S
C1332 H1318 0.931 . S
C1332 C1331 1.385 . S
C1332 C1333 1.389 . S
C1333 C1332 1.389 . S
C1333 C1334 1.387 . S
C1334 H1319 0.930 . S
C1334 C1329 1.390 . S
C1334 C1333 1.387 . S
H1335 C1347 0.930 . S
H1336 C1349 0.930 . S
H1337 C1350 0.930 . S
H1338 C1354 0.959 . S
H1339 C1354 0.959 . S
H1340 C1354 0.961 . S
H1341 C1355 0.960 . S
H1342 C1355 0.961 . S
H1343 C1355 0.959 . S
H1344 C1358 0.929 . S
H1345 C1359 0.931 . S
H1346 C1361 0.930 . S
C1347 H1335 0.930 . S
C1347 C1348 1.399 . S
C1347 C1352 1.399 . S
C1348 C1347 1.399 . S
C1348 C1349 1.376 . S
C1349 H1336 0.930 . S
C1349 C1348 1.376 . S
C1349 C1350 1.388 . S
C1350 H1337 0.930 . S
C1350 C1349 1.388 . S
C1350 C1351 1.390 . S
C1351 C1350 1.390 . S
C1351 C1352 1.394 . S
C1351 C1357 1.465 . S
C1352 C1347 1.399 . S
C1352 C1351 1.394 . S
C1352 C1353 1.516 . S
C1353 C1352 1.516 . S
C1353 C1354 1.502 . S
C1353 C1355 1.561 . S
C1353 C1356 1.526 . S
C1354 H1338 0.959 . S
C1354 H1339 0.959 . S
C1354 H1340 0.961 . S
C1354 C1353 1.502 . S
C1355 H1341 0.960 . S
C1355 H1342 0.961 . S
C1355 H1343 0.959 . S
C1355 C1353 1.561 . S
C1356 C1353 1.526 . S
C1356 C1357 1.396 . S
C1356 C1361 1.390 . S
C1357 C1351 1.465 . S
C1357 C1356 1.396 . S
C1357 C1358 1.399 . S
C1358 H1344 0.929 . S
C1358 C1357 1.399 . S
C1358 C1359 1.385 . S
C1359 H1345 0.931 . S
C1359 C1358 1.385 . S
C1359 C1360 1.389 . S
C1360 C1359 1.389 . S
C1360 C1361 1.387 . S
C1361 H1346 0.930 . S
C1361 C1356 1.390 . S
C1361 C1360 1.387 . S
H1362 C1374 0.930 . S
H1363 C1376 0.930 . S
H1364 C1377 0.930 . S
H1365 C1381 0.959 . S
H1366 C1381 0.959 . S
H1367 C1381 0.961 . S
H1368 C1382 0.960 . S
H1369 C1382 0.961 . S
H1370 C1382 0.959 . S
H1371 C1385 0.929 . S
H1372 C1386 0.931 . S
H1373 C1388 0.930 . S
C1374 H1362 0.930 . S
C1374 C1375 1.399 . S
C1374 C1379 1.399 . S
C1375 C1374 1.399 . S
C1375 C1376 1.376 . S
C1376 H1363 0.930 . S
C1376 C1375 1.376 . S
C1376 C1377 1.388 . S
C1377 H1364 0.930 . S
C1377 C1376 1.388 . S
C1377 C1378 1.390 . S
C1378 C1377 1.390 . S
C1378 C1379 1.394 . S
C1378 C1384 1.465 . S
C1379 C1374 1.399 . S
C1379 C1378 1.394 . S
C1379 C1380 1.516 . S
C1380 C1379 1.516 . S
C1380 C1381 1.502 . S
C1380 C1382 1.561 . S
C1380 C1383 1.526 . S
C1381 H1365 0.959 . S
C1381 H1366 0.959 . S
C1381 H1367 0.961 . S
C1381 C1380 1.502 . S
C1382 H1368 0.960 . S
C1382 H1369 0.961 . S
C1382 H1370 0.959 . S
C1382 C1380 1.561 . S
C1383 C1380 1.526 . S
C1383 C1384 1.396 . S
C1383 C1388 1.390 . S
C1384 C1378 1.465 . S
C1384 C1383 1.396 . S
C1384 C1385 1.399 . S
C1385 H1371 0.929 . S
C1385 C1384 1.399 . S
C1385 C1386 1.385 . S
C1386 H1372 0.931 . S
C1386 C1385 1.385 . S
C1386 C1387 1.389 . S
C1387 C1386 1.389 . S
C1387 C1388 1.387 . S
C1388 H1373 0.930 . S
C1388 C1383 1.390 . S
C1388 C1387 1.387 . S
H1389 C1401 0.930 . S
H1390 C1403 0.930 . S
H1391 C1404 0.930 . S
H1392 C1408 0.959 . S
H1393 C1408 0.959 . S
H1394 C1408 0.961 . S
H1395 C1409 0.960 . S
H1396 C1409 0.961 . S
H1397 C1409 0.959 . S
H1398 C1412 0.929 . S
H1399 C1413 0.931 . S
H1400 C1415 0.930 . S
C1401 H1389 0.930 . S
C1401 C1402 1.399 . S
C1401 C1406 1.399 . S
C1402 C1401 1.399 . S
C1402 C1403 1.376 . S
C1403 H1390 0.930 . S
C1403 C1402 1.376 . S
C1403 C1404 1.388 . S
C1404 H1391 0.930 . S
C1404 C1403 1.388 . S
C1404 C1405 1.390 . S
C1405 C1404 1.390 . S
C1405 C1406 1.394 . S
C1405 C1411 1.465 . S
C1406 C1401 1.399 . S
C1406 C1405 1.394 . S
C1406 C1407 1.516 . S
C1407 C1406 1.516 . S
C1407 C1408 1.502 . S
C1407 C1409 1.561 . S
C1407 C1410 1.526 . S
C1408 H1392 0.959 . S
C1408 H1393 0.959 . S
C1408 H1394 0.961 . S
C1408 C1407 1.502 . S
C1409 H1395 0.960 . S
C1409 H1396 0.961 . S
C1409 H1397 0.959 . S
C1409 C1407 1.561 . S
C1410 C1407 1.526 . S
C1410 C1411 1.396 . S
C1410 C1415 1.390 . S
C1411 C1405 1.465 . S
C1411 C1410 1.396 . S
C1411 C1412 1.399 . S
C1412 H1398 0.929 . S
C1412 C1411 1.399 . S
C1412 C1413 1.385 . S
C1413 H1399 0.931 . S
C1413 C1412 1.385 . S
C1413 C1414 1.389 . S
C1414 C1413 1.389 . S
C1414 C1415 1.387 . S
C1415 H1400 0.930 . S
C1415 C1410 1.390 . S
C1415 C1414 1.387 . S
H1416 C1428 0.930 . S
H1417 C1430 0.930 . S
H1418 C1431 0.930 . S
H1419 C1435 0.959 . S
H1420 C1435 0.959 . S
H1421 C1435 0.961 . S
H1422 C1436 0.960 . S
H1423 C1436 0.961 . S
H1424 C1436 0.959 . S
H1425 C1439 0.929 . S
H1426 C1440 0.931 . S
H1427 C1442 0.930 . S
C1428 H1416 0.930 . S
C1428 C1429 1.399 . S
C1428 C1433 1.399 . S
C1429 C1428 1.399 . S
C1429 C1430 1.376 . S
C1430 H1417 0.930 . S
C1430 C1429 1.376 . S
C1430 C1431 1.388 . S
C1431 H1418 0.930 . S
C1431 C1430 1.388 . S
C1431 C1432 1.390 . S
C1432 C1431 1.390 . S
C1432 C1433 1.394 . S
C1432 C1438 1.465 . S
C1433 C1428 1.399 . S
C1433 C1432 1.394 . S
C1433 C1434 1.516 . S
C1434 C1433 1.516 . S
C1434 C1435 1.502 . S
C1434 C1436 1.561 . S
C1434 C1437 1.526 . S
C1435 H1419 0.959 . S
C1435 H1420 0.959 . S
C1435 H1421 0.961 . S
C1435 C1434 1.502 . S
C1436 H1422 0.960 . S
C1436 H1423 0.961 . S
C1436 H1424 0.959 . S
C1436 C1434 1.561 . S
C1437 C1434 1.526 . S
C1437 C1438 1.396 . S
C1437 C1442 1.390 . S
C1438 C1432 1.465 . S
C1438 C1437 1.396 . S
C1438 C1439 1.399 . S
C1439 H1425 0.929 . S
C1439 C1438 1.399 . S
C1439 C1440 1.385 . S
C1440 H1426 0.931 . S
C1440 C1439 1.385 . S
C1440 C1441 1.389 . S
C1441 C1440 1.389 . S
C1441 C1442 1.387 . S
C1442 H1427 0.930 . S
C1442 C1437 1.390 . S
C1442 C1441 1.387 . S
H1443 C1455 0.930 . S
H1444 C1457 0.930 . S
H1445 C1458 0.930 . S
H1446 C1462 0.959 . S
H1447 C1462 0.959 . S
H1448 C1462 0.961 . S
H1449 C1463 0.960 . S
H1450 C1463 0.961 . S
H1451 C1463 0.959 . S
H1452 C1466 0.929 . S
H1453 C1467 0.931 . S
H1454 C1469 0.930 . S
C1455 H1443 0.930 . S
C1455 C1456 1.399 . S
C1455 C1460 1.399 . S
C1456 C1455 1.399 . S
C1456 C1457 1.376 . S
C1457 H1444 0.930 . S
C1457 C1456 1.376 . S
C1457 C1458 1.388 . S
C1458 H1445 0.930 . S
C1458 C1457 1.388 . S
C1458 C1459 1.390 . S
C1459 C1458 1.390 . S
C1459 C1460 1.394 . S
C1459 C1465 1.465 . S
C1460 C1455 1.399 . S
C1460 C1459 1.394 . S
C1460 C1461 1.516 . S
C1461 C1460 1.516 . S
C1461 C1462 1.502 . S
C1461 C1463 1.561 . S
C1461 C1464 1.526 . S
C1462 H1446 0.959 . S
C1462 H1447 0.959 . S
C1462 H1448 0.961 . S
C1462 C1461 1.502 . S
C1463 H1449 0.960 . S
C1463 H1450 0.961 . S
C1463 H1451 0.959 . S
C1463 C1461 1.561 . S
C1464 C1461 1.526 . S
C1464 C1465 1.396 . S
C1464 C1469 1.390 . S
C1465 C1459 1.465 . S
C1465 C1464 1.396 . S
C1465 C1466 1.399 . S
C1466 H1452 0.929 . S
C1466 C1465 1.399 . S
C1466 C1467 1.385 . S
C1467 H1453 0.931 . S
C1467 C1466 1.385 . S
C1467 C1468 1.389 . S
C1468 C1467 1.389 . S
C1468 C1469 1.387 . S
C1469 H1454 0.930 . S
C1469 C1464 1.390 . S
C1469 C1468 1.387 . S
H1470 C1482 0.930 . S
H1471 C1484 0.930 . S
H1472 C1485 0.930 . S
H1473 C1489 0.959 . S
H1474 C1489 0.959 . S
H1475 C1489 0.961 . S
H1476 C1490 0.960 . S
H1477 C1490 0.961 . S
H1478 C1490 0.959 . S
H1479 C1493 0.929 . S
H1480 C1494 0.931 . S
H1481 C1496 0.930 . S
C1482 H1470 0.930 . S
C1482 C1483 1.399 . S
C1482 C1487 1.399 . S
C1483 C1482 1.399 . S
C1483 C1484 1.376 . S
C1484 H1471 0.930 . S
C1484 C1483 1.376 . S
C1484 C1485 1.388 . S
C1485 H1472 0.930 . S
C1485 C1484 1.388 . S
C1485 C1486 1.390 . S
C1486 C1485 1.390 . S
C1486 C1487 1.394 . S
C1486 C1492 1.465 . S
C1487 C1482 1.399 . S
C1487 C1486 1.394 . S
C1487 C1488 1.516 . S
C1488 C1487 1.516 . S
C1488 C1489 1.502 . S
C1488 C1490 1.561 . S
C1488 C1491 1.526 . S
C1489 H1473 0.959 . S
C1489 H1474 0.959 . S
C1489 H1475 0.961 . S
C1489 C1488 1.502 . S
C1490 H1476 0.960 . S
C1490 H1477 0.961 . S
C1490 H1478 0.959 . S
C1490 C1488 1.561 . S
C1491 C1488 1.526 . S
C1491 C1492 1.396 . S
C1491 C1496 1.390 . S
C1492 C1486 1.465 . S
C1492 C1491 1.396 . S
C1492 C1493 1.399 . S
C1493 H1479 0.929 . S
C1493 C1492 1.399 . S
C1493 C1494 1.385 . S
C1494 H1480 0.931 . S
C1494 C1493 1.385 . S
C1494 C1495 1.389 . S
C1495 C1494 1.389 . S
C1495 C1496 1.387 . S
C1496 H1481 0.930 . S
C1496 C1491 1.390 . S
C1496 C1495 1.387 . S
H1497 C1509 0.930 . S
H1498 C1511 0.930 . S
H1499 C1512 0.930 . S
H1500 C1516 0.959 . S
H1501 C1516 0.959 . S
H1502 C1516 0.961 . S
H1503 C1517 0.960 . S
H1504 C1517 0.961 . S
H1505 C1517 0.959 . S
H1506 C1520 0.929 . S
H1507 C1521 0.931 . S
H1508 C1523 0.930 . S
C1509 H1497 0.930 . S
C1509 C1510 1.399 . S
C1509 C1514 1.399 . S
C1510 C1509 1.399 . S
C1510 C1511 1.376 . S
C1511 H1498 0.930 . S
C1511 C1510 1.376 . S
C1511 C1512 1.388 . S
C1512 H1499 0.930 . S
C1512 C1511 1.388 . S
C1512 C1513 1.390 . S
C1513 C1512 1.390 . S
C1513 C1514 1.394 . S
C1513 C1519 1.465 . S
C1514 C1509 1.399 . S
C1514 C1513 1.394 . S
C1514 C1515 1.516 . S
C1515 C1514 1.516 . S
C1515 C1516 1.502 . S
C1515 C1517 1.561 . S
C1515 C1518 1.526 . S
C1516 H1500 0.959 . S
C1516 H1501 0.959 . S
C1516 H1502 0.961 . S
C1516 C1515 1.502 . S
C1517 H1503 0.960 . S
C1517 H1504 0.961 . S
C1517 H1505 0.959 . S
C1517 C1515 1.561 . S
C1518 C1515 1.526 . S
C1518 C1519 1.396 . S
C1518 C1523 1.390 . S
C1519 C1513 1.465 . S
C1519 C1518 1.396 . S
C1519 C1520 1.399 . S
C1520 H1506 0.929 . S
C1520 C1519 1.399 . S
C1520 C1521 1.385 . S
C1521 H1507 0.931 . S
C1521 C1520 1.385 . S
C1521 C1522 1.389 . S
C1522 C1521 1.389 . S
C1522 C1523 1.387 . S
C1523 H1508 0.930 . S
C1523 C1518 1.390 . S
C1523 C1522 1.387 . S
H1524 C1536 0.930 . S
H1525 C1538 0.930 . S
H1526 C1539 0.930 . S
H1527 C1543 0.959 . S
H1528 C1543 0.959 . S
H1529 C1543 0.961 . S
H1530 C1544 0.960 . S
H1531 C1544 0.961 . S
H1532 C1544 0.959 . S
H1533 C1547 0.929 . S
H1534 C1548 0.931 . S
H1535 C1550 0.930 . S
C1536 H1524 0.930 . S
C1536 C1537 1.399 . S
C1536 C1541 1.399 . S
C1537 C1536 1.399 . S
C1537 C1538 1.376 . S
C1538 H1525 0.930 . S
C1538 C1537 1.376 . S
C1538 C1539 1.388 . S
C1539 H1526 0.930 . S
C1539 C1538 1.388 . S
C1539 C1540 1.390 . S
C1540 C1539 1.390 . S
C1540 C1541 1.394 . S
C1540 C1546 1.465 . S
C1541 C1536 1.399 . S
C1541 C1540 1.394 . S
C1541 C1542 1.516 . S
C1542 C1541 1.516 . S
C1542 C1543 1.502 . S
C1542 C1544 1.561 . S
C1542 C1545 1.526 . S
C1543 H1527 0.959 . S
C1543 H1528 0.959 . S
C1543 H1529 0.961 . S
C1543 C1542 1.502 . S
C1544 H1530 0.960 . S
C1544 H1531 0.961 . S
C1544 H1532 0.959 . S
C1544 C1542 1.561 . S
C1545 C1542 1.526 . S
C1545 C1546 1.396 . S
C1545 C1550 1.390 . S
C1546 C1540 1.465 . S
C1546 C1545 1.396 . S
C1546 C1547 1.399 . S
C1547 H1533 0.929 . S
C1547 C1546 1.399 . S
C1547 C1548 1.385 . S
C1548 H1534 0.931 . S
C1548 C1547 1.385 . S
C1548 C1549 1.389 . S
C1549 C1548 1.389 . S
C1549 C1550 1.387 . S
C1550 H1535 0.930 . S
C1550 C1545 1.390 . S
C1550 C1549 1.387 . S
H1551 C1563 0.930 . S
H1552 C1565 0.930 . S
H1553 C1566 0.930 . S
H1554 C1570 0.959 . S
H1555 C1570 0.959 . S
H1556 C1570 0.961 . S
H1557 C1571 0.960 . S
H1558 C1571 0.961 . S
H1559 C1571 0.959 . S
H1560 C1574 0.929 . S
H1561 C1575 0.931 . S
H1562 C1577 0.930 . S
C1563 H1551 0.930 . S
C1563 C1564 1.399 . S
C1563 C1568 1.399 . S
C1564 C1563 1.399 . S
C1564 C1565 1.376 . S
C1565 H1552 0.930 . S
C1565 C1564 1.376 . S
C1565 C1566 1.388 . S
C1566 H1553 0.930 . S
C1566 C1565 1.388 . S
C1566 C1567 1.390 . S
C1567 C1566 1.390 . S
C1567 C1568 1.394 . S
C1567 C1573 1.465 . S
C1568 C1563 1.399 . S
C1568 C1567 1.394 . S
C1568 C1569 1.516 . S
C1569 C1568 1.516 . S
C1569 C1570 1.502 . S
C1569 C1571 1.561 . S
C1569 C1572 1.526 . S
C1570 H1554 0.959 . S
C1570 H1555 0.959 . S
C1570 H1556 0.961 . S
C1570 C1569 1.502 . S
C1571 H1557 0.960 . S
C1571 H1558 0.961 . S
C1571 H1559 0.959 . S
C1571 C1569 1.561 . S
C1572 C1569 1.526 . S
C1572 C1573 1.396 . S
C1572 C1577 1.390 . S
C1573 C1567 1.465 . S
C1573 C1572 1.396 . S
C1573 C1574 1.399 . S
C1574 H1560 0.929 . S
C1574 C1573 1.399 . S
C1574 C1575 1.385 . S
C1575 H1561 0.931 . S
C1575 C1574 1.385 . S
C1575 C1576 1.389 . S
C1576 C1575 1.389 . S
C1576 C1577 1.387 . S
C1577 H1562 0.930 . S
C1577 C1572 1.390 . S
C1577 C1576 1.387 . S
H1578 C1590 0.930 . S
H1579 C1592 0.930 . S
H1580 C1593 0.930 . S
H1581 C1597 0.959 . S
H1582 C1597 0.959 . S
H1583 C1597 0.961 . S
H1584 C1598 0.960 . S
H1585 C1598 0.961 . S
H1586 C1598 0.959 . S
H1587 C1601 0.929 . S
H1588 C1602 0.931 . S
H1589 C1604 0.930 . S
C1590 H1578 0.930 . S
C1590 C1591 1.399 . S
C1590 C1595 1.399 . S
C1591 C1590 1.399 . S
C1591 C1592 1.376 . S
C1592 H1579 0.930 . S
C1592 C1591 1.376 . S
C1592 C1593 1.388 . S
C1593 H1580 0.930 . S
C1593 C1592 1.388 . S
C1593 C1594 1.390 . S
C1594 C1593 1.390 . S
C1594 C1595 1.394 . S
C1594 C1600 1.465 . S
C1595 C1590 1.399 . S
C1595 C1594 1.394 . S
C1595 C1596 1.516 . S
C1596 C1595 1.516 . S
C1596 C1597 1.502 . S
C1596 C1598 1.561 . S
C1596 C1599 1.526 . S
C1597 H1581 0.959 . S
C1597 H1582 0.959 . S
C1597 H1583 0.961 . S
C1597 C1596 1.502 . S
C1598 H1584 0.960 . S
C1598 H1585 0.961 . S
C1598 H1586 0.959 . S
C1598 C1596 1.561 . S
C1599 C1596 1.526 . S
C1599 C1600 1.396 . S
C1599 C1604 1.390 . S
C1600 C1594 1.465 . S
C1600 C1599 1.396 . S
C1600 C1601 1.399 . S
C1601 H1587 0.929 . S
C1601 C1600 1.399 . S
C1601 C1602 1.385 . S
C1602 H1588 0.931 . S
C1602 C1601 1.385 . S
C1602 C1603 1.389 . S
C1603 C1602 1.389 . S
C1603 C1604 1.387 . S
C1604 H1589 0.930 . S
C1604 C1599 1.390 . S
C1604 C1603 1.387 . S
H1605 C1617 0.930 . S
H1606 C1619 0.930 . S
H1607 C1620 0.930 . S
H1608 C1624 0.959 . S
H1609 C1624 0.959 . S
H1610 C1624 0.961 . S
H1611 C1625 0.960 . S
H1612 C1625 0.961 . S
H1613 C1625 0.959 . S
H1614 C1628 0.929 . S
H1615 C1629 0.931 . S
H1616 C1631 0.930 . S
C1617 H1605 0.930 . S
C1617 C1618 1.399 . S
C1617 C1622 1.399 . S
C1618 C1617 1.399 . S
C1618 C1619 1.376 . S
C1619 H1606 0.930 . S
C1619 C1618 1.376 . S
C1619 C1620 1.388 . S
C1620 H1607 0.930 . S
C1620 C1619 1.388 . S
C1620 C1621 1.390 . S
C1621 C1620 1.390 . S
C1621 C1622 1.394 . S
C1621 C1627 1.465 . S
C1622 C1617 1.399 . S
C1622 C1621 1.394 . S
C1622 C1623 1.516 . S
C1623 C1622 1.516 . S
C1623 C1624 1.502 . S
C1623 C1625 1.561 . S
C1623 C1626 1.526 . S
C1624 H1608 0.959 . S
C1624 H1609 0.959 . S
C1624 H1610 0.961 . S
C1624 C1623 1.502 . S
C1625 H1611 0.960 . S
C1625 H1612 0.961 . S
C1625 H1613 0.959 . S
C1625 C1623 1.561 . S
C1626 C1623 1.526 . S
C1626 C1627 1.396 . S
C1626 C1631 1.390 . S
C1627 C1621 1.465 . S
C1627 C1626 1.396 . S
C1627 C1628 1.399 . S
C1628 H1614 0.929 . S
C1628 C1627 1.399 . S
C1628 C1629 1.385 . S
C1629 H1615 0.931 . S
C1629 C1628 1.385 . S
C1629 C1630 1.389 . S
C1630 C1629 1.389 . S
C1630 C1631 1.387 . S
C1631 H1616 0.930 . S
C1631 C1626 1.390 . S
C1631 C1630 1.387 . S
C349 C163 1.462 . S
C361 C0 1.441 . S
C376 C14 1.425 . S
C388 C121 1.452 . S
C403 C28 1.375 . S
C415 C135 1.435 . S
C430 C42 1.408 . S
C442 C149 1.452 . S
C457 C191 1.450 . S
C469 C56 1.420 . S
C484 C70 1.414 . S
C496 C205 1.448 . S
C511 C219 1.443 . S
C523 C84 1.387 . S
C538 C177 1.434 . S
C550 C98 1.377 . S
C565 C79 1.462 . S
C577 C112 1.440 . S
C592 C93 1.450 . S
C604 C126 1.419 . S
C619 C140 1.396 . S
C631 C107 1.447 . S
C646 C65 1.446 . S
C658 C154 1.409 . S
C673 C51 1.432 . S
C685 C168 1.367 . S
C700 C182 1.442 . S
C712 C9 1.462 . S
C727 C196 1.396 . S
C739 C23 1.447 . S
C754 C210 1.367 . S
C766 C37 1.433 . S
C781 C224 1.391 . S
C793 C331 1.445 . S
C808 C289 1.433 . S
C820 C238 1.371 . S
C835 C252 1.401 . S
C847 C247 1.449 . S
C862 C266 1.400 . S
C874 C261 1.443 . S
C889 C275 1.432 . S
C901 C280 1.367 . S
C916 C294 1.403 . S
C928 C317 1.444 . S
C943 C233 1.433 . S
C955 C308 1.372 . S
C970 C303 1.432 . S
C982 C322 1.367 . S
C997 C5 1.523 . S
C1009 C89 1.522 . S
C1024 C19 1.507 . S
C1036 C103 1.506 . S
C1051 C33 1.504 . S
C1063 C61 1.506 . S
C1078 C75 1.522 . S
C1090 C47 1.524 . S
C1105 C145 1.524 . S
C1117 C117 1.522 . S
C1132 C131 1.525 . S
C1144 C159 1.524 . S
C1159 C173 1.525 . S
C1171 C201 1.524 . S
C1186 C215 1.525 . S
C1198 C187 1.524 . S
C1213 C243 1.522 . S
C1225 C229 1.524 . S
C1240 C257 1.525 . S
C1252 C327 1.525 . S
C1267 C271 1.521 . S
C1279 C299 1.523 . S
C1294 C285 1.505 . S
C1306 C313 1.506 . S
C1321 C11 1.030 . S
C1333 C81 1.022 . S
C1348 C25 1.037 . S
C1360 C95 1.045 . S
C1375 C39 1.034 . S
C1387 C109 1.025 . S
C1402 C67 1.020 . S
C1414 C53 1.028 . S
C1429 C123 1.021 . S
C1441 C333 1.029 . S
C1456 C137 1.022 . S
C1468 C305 1.018 . S
C1483 C319 1.028 . S
C1495 C151 1.037 . S
C1510 C165 1.022 . S
C1522 C235 1.018 . S
C1537 C291 1.033 . S
C1549 C179 1.024 . S
C1564 C249 1.041 . S
C1576 C193 1.048 . S
C1591 C207 1.044 . S
C1603 C263 1.036 . S
C1618 C277 1.018 . S
C1630 C221 1.017 . S
