# Generated by pormake.
# Topology sml, (6)-cn, num edge types: 1
# Building blocks:
#     Node 0, Type 0, BuildingBlock: BETDAH_clean_sbu_0, # of connection points: 6
#     Node 1, Type 0, BuildingBlock: BETDAH_clean_sbu_0, # of connection points: 6
#     Node 2, Type 0, BuildingBlock: BETDAH_clean_sbu_0, # of connection points: 6
#     Node 3, Type 0, BuildingBlock: BETDAH_clean_sbu_0, # of connection points: 6
#     Node 4, Type 0, BuildingBlock: BETDAH_clean_sbu_0, # of connection points: 6
#     Node 5, Type 0, BuildingBlock: BETDAH_clean_sbu_0, # of connection points: 6
#     Edge 6, Type (0, 0), BuildingBlock: TEMPAE_clean_linker_10, # of connection points: 2
#     Edge 7, Type (0, 0), BuildingBlock: TEMPAE_clean_linker_10, # of connection points: 2
#     Edge 8, Type (0, 0), BuildingBlock: TEMPAE_clean_linker_10, # of connection points: 2
#     Edge 9, Type (0, 0), BuildingBlock: TEMPAE_clean_linker_10, # of connection points: 2
#     Edge 10, Type (0, 0), BuildingBlock: TEMPAE_clean_linker_10, # of connection points: 2
#     Edge 11, Type (0, 0), BuildingBlock: TEMPAE_clean_linker_10, # of connection points: 2
#     Edge 12, Type (0, 0), BuildingBlock: TEMPAE_clean_linker_10, # of connection points: 2
#     Edge 13, Type (0, 0), BuildingBlock: TEMPAE_clean_linker_10, # of connection points: 2
#     Edge 14, Type (0, 0), BuildingBlock: TEMPAE_clean_linker_10, # of connection points: 2
#     Edge 15, Type (0, 0), BuildingBlock: TEMPAE_clean_linker_10, # of connection points: 2
#     Edge 16, Type (0, 0), BuildingBlock: TEMPAE_clean_linker_10, # of connection points: 2
#     Edge 17, Type (0, 0), BuildingBlock: TEMPAE_clean_linker_10, # of connection points: 2
#     Edge 18, Type (0, 0), BuildingBlock: TEMPAE_clean_linker_10, # of connection points: 2
#     Edge 19, Type (0, 0), BuildingBlock: TEMPAE_clean_linker_10, # of connection points: 2
#     Edge 20, Type (0, 0), BuildingBlock: TEMPAE_clean_linker_10, # of connection points: 2
#     Edge 21, Type (0, 0), BuildingBlock: TEMPAE_clean_linker_10, # of connection points: 2
#     Edge 22, Type (0, 0), BuildingBlock: TEMPAE_clean_linker_10, # of connection points: 2
#     Edge 23, Type (0, 0), BuildingBlock: TEMPAE_clean_linker_10, # of connection points: 2
# Relax obj value: 0.177
# Max RMSD: 0.217
# Mean RMSD: 0.217
data_MOF--net-sml--node1-BETDAH_clean_sbu_0--edge1-TEMPAE_clean_linker_10
_symmetry_space_group_name_H-M    P1
_symmetry_Int_Tables_number       1
_symmetry_cell_setting            triclinic
loop_
_symmetry_equiv_pos_as_xyz
'x, y, z'
_cell_length_a     32.297187
_cell_length_b     32.314224
_cell_length_c     25.236889
_cell_angle_alpha  90.02747
_cell_angle_beta   89.686394
_cell_angle_gamma 120.08322
loop_
_atom_site_label
_atom_site_type_symbol
_atom_site_fract_x
_atom_site_fract_y
_atom_site_fract_z
_atom_type_partial_charge
Ho0 Ho 0.17662 0.43367 0.09882 0.0
Ho1 Ho 0.20883 0.39882 0.20002 0.0
C2 C 0.20176 0.34988 0.08897 0.0
C3 C 0.17248 0.47566 0.01353 0.0
C4 C 0.17095 0.46541 0.95615 0.0
C5 C 0.20217 0.45166 0.93359 0.0
C6 C 0.20202 0.44416 0.87902 0.0
C7 C 0.17044 0.44983 0.84568 0.0
C8 C 0.13863 0.46275 0.86844 0.0
C9 C 0.13905 0.47063 0.92312 0.0
C10 C 0.10846 0.35483 0.1497 0.0
C11 C 0.18305 0.48409 0.21052 0.0
C12 C 0.21914 0.37144 0.29276 0.0
C13 C 0.20728 0.376 0.34809 0.0
C14 C 0.17492 0.39159 0.3607 0.0
C15 C 0.16627 0.39799 0.41376 0.0
C16 C 0.18992 0.38898 0.45507 0.0
C17 C 0.22211 0.37314 0.44189 0.0
C18 C 0.23062 0.36671 0.389 0.0
C19 C 0.27829 0.45815 0.13267 0.0
O20 O 0.20423 0.38785 0.06597 0.0
O21 O 0.19367 0.34115 0.14049 0.0
O22 O 0.1345 0.44734 0.04183 0.0
O23 O 0.21238 0.4862 0.03749 0.0
O24 O 0.10684 0.36259 0.09949 0.0
O25 O 0.14245 0.39125 0.17008 0.0
O26 O 0.19223 0.4531 0.23442 0.0
O27 O 0.17738 0.48523 0.15873 0.0
O28 O 0.25145 0.41118 0.27013 0.0
O29 O 0.18326 0.34468 0.2614 0.0
O30 O 0.27992 0.42424 0.15837 0.0
O31 O 0.24162 0.45971 0.146 0.0
H32 H 0.22702 0.44698 0.95803 0.0
H33 H 0.22648 0.43356 0.86295 0.0
H34 H 0.11409 0.46771 0.84382 0.0
H35 H 0.11474 0.48129 0.93956 0.0
H36 H 0.15667 0.39915 0.32958 0.0
H37 H 0.14098 0.40984 0.42241 0.0
H38 H 0.24167 0.36672 0.47242 0.0
H39 H 0.25609 0.35513 0.38 0.0
Ho40 Ho 0.82347 0.24434 0.51658 0.0
Ho41 Ho 0.77094 0.17778 0.41848 0.0
C42 C 0.79328 0.13399 0.5194 0.0
C43 C 0.84147 0.29316 0.60331 0.0
C44 C 0.83578 0.28152 0.66043 0.0
C45 C 0.79766 0.23809 0.67941 0.0
C46 C 0.79197 0.2282 0.73382 0.0
C47 C 0.82439 0.26143 0.77041 0.0
C48 C 0.86274 0.30466 0.75105 0.0
C49 C 0.86831 0.31456 0.69664 0.0
C50 C 0.87961 0.23033 0.44711 0.0
C51 C 0.80937 0.29274 0.41206 0.0
C52 C 0.74395 0.13929 0.32614 0.0
C53 C 0.75458 0.15495 0.27044 0.0
C54 C 0.79665 0.19706 0.25587 0.0
C55 C 0.80578 0.2111 0.20253 0.0
C56 C 0.77289 0.18336 0.16294 0.0
C57 C 0.7309 0.14123 0.17803 0.0
C58 C 0.72189 0.12724 0.2312 0.0
C59 C 0.71572 0.1697 0.50281 0.0
O60 O 0.79772 0.17055 0.54751 0.0
O61 O 0.79099 0.13249 0.46698 0.0
O62 O 0.87375 0.28777 0.57767 0.0
O63 O 0.80186 0.27737 0.57656 0.0
O64 O 0.89012 0.24077 0.49675 0.0
O65 O 0.84359 0.23382 0.43658 0.0
O66 O 0.78896 0.25048 0.38833 0.0
O67 O 0.82566 0.29967 0.46123 0.0
O68 O 0.72089 0.15598 0.35352 0.0
O69 O 0.77856 0.13916 0.3529 0.0
O70 O 0.7068 0.1342 0.47186 0.0
O71 O 0.7507 0.20729 0.48495 0.0
H72 H 0.772 0.21195 0.65223 0.0
H73 H 0.76171 0.19484 0.74728 0.0
H74 H 0.88874 0.33075 0.77795 0.0
H75 H 0.89801 0.34819 0.68282 0.0
H76 H 0.82233 0.21906 0.28569 0.0
H77 H 0.83823 0.24395 0.19238 0.0
H78 H 0.70518 0.11863 0.1486 0.0
H79 H 0.68932 0.09459 0.24168 0.0
Ho80 Ho 0.57039 0.74263 0.76929 0.0
Ho81 Ho 0.59049 0.81113 0.86544 0.0
C82 C 0.6525 0.85548 0.76222 0.0
C83 C 0.54759 0.7021 0.67735 0.0
C84 C 0.55128 0.71672 0.62159 0.0
C85 C 0.56293 0.76337 0.60743 0.0
C86 C 0.56695 0.77646 0.5539 0.0
C87 C 0.55948 0.74311 0.51377 0.0
C88 C 0.54715 0.69629 0.52851 0.0
C89 C 0.5432 0.68332 0.58186 0.0
C90 C 0.62574 0.73668 0.84451 0.0
C91 C 0.51451 0.69727 0.87605 0.0
C92 C 0.60219 0.85412 0.95545 0.0
C93 C 0.59963 0.84284 0.01226 0.0
C94 C 0.5797 0.7955 0.03003 0.0
C95 C 0.57571 0.78532 0.08434 0.0
C96 C 0.59146 0.82238 0.12192 0.0
C97 C 0.61157 0.86982 0.10364 0.0
C98 C 0.61565 0.87988 0.04935 0.0
C99 C 0.53626 0.81484 0.78685 0.0
O100 O 0.6219 0.81592 0.73705 0.0
O101 O 0.65177 0.86053 0.81413 0.0
O102 O 0.58793 0.71373 0.70101 0.0
O103 O 0.51831 0.70895 0.70718 0.0
O104 O 0.59834 0.70167 0.81333 0.0
O105 O 0.62613 0.77453 0.83077 0.0
O106 O 0.54651 0.7371 0.89972 0.0
O107 O 0.51177 0.69282 0.82391 0.0
O108 O 0.56155 0.83267 0.93004 0.0
O109 O 0.63747 0.85536 0.92833 0.0
O110 O 0.56597 0.85175 0.81398 0.0
O111 O 0.53462 0.77791 0.80506 0.0
H112 H 0.56919 0.78965 0.6377 0.0
H113 H 0.57679 0.81288 0.54399 0.0
H114 H 0.54023 0.66945 0.49875 0.0
H115 H 0.53388 0.64709 0.59213 0.0
H116 H 0.56741 0.76651 1.00192 0.0
H117 H 0.56079 0.74847 0.09682 0.0
H118 H 0.62335 0.8992 0.13127 0.0
H119 H 0.63076 0.91663 0.03633 0.0
Ho120 Ho 0.71896 0.55993 0.22927 0.0
Ho121 Ho 0.78671 0.60671 0.13161 0.0
C122 C 0.82706 0.65101 0.24312 0.0
C123 C 0.68044 0.52166 0.31979 0.0
C124 C 0.69349 0.52898 0.37621 0.0
C125 C 0.74126 0.5571 0.39219 0.0
C126 C 0.75261 0.56442 0.44614 0.0
C127 C 0.71635 0.54361 0.48501 0.0
C128 C 0.66861 0.51515 0.46859 0.0
C129 C 0.65734 0.50799 0.41472 0.0
C130 C 0.70532 0.62303 0.17339 0.0
C131 C 0.68035 0.51416 0.1172 0.0
C132 C 0.82599 0.64097 0.04005 0.0
C133 C 0.81296 0.62974 0.98392 0.0
C134 C 0.76529 0.59971 0.96856 0.0
C135 C 0.75387 0.58898 0.91497 0.0
C136 C 0.79003 0.6078 0.87593 0.0
C137 C 0.83774 0.63768 0.89167 0.0
C138 C 0.84903 0.64858 0.94515 0.0
C139 C 0.79909 0.54316 0.18807 0.0
O140 O 0.79098 0.6116 0.26376 0.0
O141 O 0.82962 0.66174 0.19218 0.0
O142 O 0.67526 0.55507 0.29697 0.0
O143 O 0.70341 0.50668 0.28984 0.0
O144 O 0.67099 0.58512 0.19592 0.0
O145 O 0.74512 0.62662 0.18388 0.0
O146 O 0.71511 0.55434 0.09649 0.0
O147 O 0.67759 0.50436 0.1684 0.0
O148 O 0.83195 0.6096 0.06641 0.0
O149 O 0.80228 0.65677 0.06727 0.0
O150 O 0.83413 0.5811 0.16661 0.0
O151 O 0.75985 0.54 0.17645 0.0
H152 H 0.76971 0.57345 0.36304 0.0
H153 H 0.78978 0.58609 0.45744 0.0
H154 H 0.63978 0.49912 0.4974 0.0
H155 H 0.62025 0.48629 0.40309 0.0
H156 H 0.73689 0.58465 0.99786 0.0
H157 H 0.71685 0.5655 0.90416 0.0
H158 H 0.86631 0.65309 0.86251 0.0
H159 H 0.88605 0.67171 0.95628 0.0
Ho160 Ho 0.24614 0.82811 0.43625 0.0
Ho161 Ho 0.18649 0.78325 0.53903 0.0
C162 C 0.13571 0.79748 0.43511 0.0
C163 C 0.293 0.84262 0.3483 0.0
C164 C 0.28059 0.83318 0.2918 0.0
C165 C 0.2345 0.7983 0.27581 0.0
C166 C 0.22303 0.79101 0.22187 0.0
C167 C 0.2574 0.81855 0.18299 0.0
C168 C 0.30356 0.85321 0.19944 0.0
C169 C 0.31498 0.86042 0.25329 0.0
C170 C 0.24115 0.88995 0.50412 0.0
C171 C 0.29715 0.81636 0.54151 0.0
C172 C 0.13853 0.76167 0.62707 0.0
C173 C 0.15117 0.76997 0.68359 0.0
C174 C 0.19615 0.80698 0.69986 0.0
C175 C 0.2082 0.81311 0.75367 0.0
C176 C 0.17557 0.78216 0.7921 0.0
C177 C 0.13044 0.74545 0.77542 0.0
C178 C 0.11842 0.73945 0.72171 0.0
C179 C 0.19203 0.72273 0.46975 0.0
O180 O 0.17282 0.80418 0.40612 0.0
O181 O 0.13489 0.79334 0.48749 0.0
O182 O 0.28498 0.87459 0.37041 0.0
O183 O 0.28012 0.80513 0.37856 0.0
O184 O 0.24821 0.89786 0.45359 0.0
O185 O 0.24413 0.85388 0.51604 0.0
O186 O 0.26033 0.81138 0.5698 0.0
O187 O 0.2976 0.81851 0.48897 0.0
O188 O 0.14966 0.73283 0.60271 0.0
O189 O 0.14841 0.79937 0.59867 0.0
O190 O 0.19131 0.71723 0.52062 0.0
O191 O 0.18713 0.75777 0.4588 0.0
H192 H 0.20736 0.77692 0.30499 0.0
H193 H 0.18732 0.76366 0.21063 0.0
H194 H 0.33068 0.87552 0.17071 0.0
H195 H 0.35062 0.8877 0.26491 0.0
H196 H 0.2221 0.83078 0.67094 0.0
H197 H 0.2434 0.84142 0.76508 0.0
H198 H 0.10424 0.72143 0.80397 0.0
H199 H 0.08357 0.71069 0.70988 0.0
Ho200 Ho 0.43055 0.16095 0.88004 0.0
Ho201 Ho 0.41435 0.20665 0.77856 0.0
C202 C 0.35205 0.19391 0.88554 0.0
C203 C 0.46305 0.14693 0.96753 0.0
C204 C 0.45865 0.15532 0.0243 0.0
C205 C 0.45084 0.19236 0.04109 0.0
C206 C 0.44525 0.19863 0.09513 0.0
C207 C 0.44699 0.16776 0.13335 0.0
C208 C 0.45514 0.13098 0.11616 0.0
C209 C 0.46091 0.12488 0.06225 0.0
C210 C 0.36084 0.10029 0.81481 0.0
C211 C 0.48973 0.17027 0.7716 0.0
C212 C 0.38708 0.22764 0.69123 0.0
C213 C 0.39031 0.21839 0.63453 0.0
C214 C 0.40224 0.18408 0.61826 0.0
C215 C 0.40726 0.17724 0.56425 0.0
C216 C 0.40035 0.20454 0.52547 0.0
C217 C 0.38797 0.23855 0.54219 0.0
C218 C 0.38307 0.2454 0.59614 0.0
C219 C 0.48165 0.26678 0.84728 0.0
O220 O 0.38204 0.1854 0.91253 0.0
O221 O 0.35453 0.19875 0.8331 0.0
O222 O 0.42394 0.11409 0.94483 0.0
O223 O 0.48726 0.18494 0.93768 0.0
O224 O 0.3612 0.09216 0.86512 0.0
O225 O 0.40011 0.13567 0.80137 0.0
O226 O 0.45838 0.17725 0.74546 0.0
O227 O 0.48944 0.16793 0.82419 0.0
O228 O 0.42769 0.25633 0.71436 0.0
O229 O 0.35922 0.19047 0.72056 0.0
O230 O 0.48535 0.27322 0.79641 0.0
O231 O 0.44194 0.23123 0.85819 0.0
H232 H 0.44859 0.21612 0.01245 0.0
H233 H 0.43858 0.22702 0.10686 0.0
H234 H 0.45736 0.10699 0.14446 0.0
H235 H 0.46688 0.0961 0.05013 0.0
H236 H 0.40796 0.1628 0.64731 0.0
H237 H 0.41631 0.1504 0.55288 0.0
H238 H 0.38305 0.26068 0.51361 0.0
H239 H 0.37416 0.27226 0.60793 0.0
C240 C 0.33445 0.22447 0.96784 0.0
C241 C 0.3212 0.20695 0.91612 0.0
C242 C 0.30985 0.24289 0.99589 0.0
C243 C 0.27012 0.24262 0.97224 0.0
C244 C 0.25478 0.22247 0.92124 0.0
C245 C 0.28103 0.20547 0.89333 0.0
C246 C 0.32837 0.26537 0.04945 0.0
C247 C 0.21183 0.22057 0.89543 0.0
C248 C 0.19688 0.27186 0.06741 0.0
C249 C 0.21547 0.32056 0.05685 0.0
C250 C 0.21233 0.24508 0.038 0.0
C251 C 0.24831 0.26818 0.99872 0.0
C252 C 0.26676 0.31731 0.98776 0.0
C253 C 0.24955 0.34266 0.01639 0.0
C254 C 0.1911 0.19249 0.04979 0.0
C255 C 0.30634 0.34379 0.94755 0.0
H256 H 0.36573 0.22613 0.98563 0.0
H257 H 0.27054 0.19166 0.85352 0.0
H258 H 0.34181 0.30438 0.04708 0.0
H259 H 0.29916 0.25023 0.07936 0.0
H260 H 0.35791 0.26004 0.06356 0.0
H261 H 0.20073 0.19808 0.8592 0.0
H262 H 0.18121 0.20623 0.9236 0.0
H263 H 0.22036 0.25722 0.88428 0.0
H264 H 0.17033 0.25479 0.09854 0.0
H265 H 0.26442 0.38053 1.00859 0.0
H266 H 0.2185 0.18613 0.06828 0.0
H267 H 0.17979 0.17156 0.0125 0.0
H268 H 0.1598 0.17883 0.07702 0.0
H269 H 0.33876 0.34273 0.95976 0.0
H270 H 0.31601 0.38182 0.94313 0.0
H271 H 0.29547 0.32622 0.90832 0.0
C272 C 0.07329 0.29014 0.21627 0.0
C273 C 0.06767 0.32087 0.18193 0.0
C274 C 0.04107 0.26749 0.25827 0.0
C275 C 0.00301 0.27669 0.26627 0.0
C276 C -0.00459 0.30521 0.22928 0.0
C277 C 0.02794 0.32693 0.18727 0.0
C278 C 0.0498 0.23651 0.29606 0.0
C279 C 0.95543 0.31615 0.23656 0.0
C280 C 0.90037 0.20656 0.36216 0.0
C281 C 0.91474 0.23713 0.4059 0.0
C282 C 0.9297 0.2177 0.31712 0.0
C283 C 0.9742 0.26083 0.31589 0.0
C284 C 0.98991 0.29071 0.36123 0.0
C285 C 0.96 0.27823 0.40599 0.0
C286 C 0.91209 0.18447 0.27009 0.0
C287 C 0.03701 0.33724 0.36133 0.0
H288 H 0.10416 0.2856 0.21171 0.0
H289 H 0.02435 0.35153 0.16108 0.0
H290 H 0.06492 0.2563 0.33348 0.0
H291 H 0.01575 0.20351 0.30605 0.0
H292 H 0.07534 0.22631 0.27939 0.0
H293 H 0.95106 0.33415 0.20129 0.0
H294 H 0.92101 0.28296 0.24456 0.0
H295 H 0.96321 0.33992 0.27135 0.0
H296 H 0.86572 0.17443 0.36279 0.0
H297 H 0.97075 0.30213 0.43974 0.0
H298 H 0.94031 0.17709 0.25583 0.0
H299 H 0.90376 0.20171 0.23705 0.0
H300 H 0.87933 0.14998 0.27961 0.0
H301 H 0.06662 0.3308 0.35053 0.0
H302 H 0.04494 0.35525 0.4005 0.0
H303 H 0.03633 0.36186 0.33115 0.0
C304 C 0.81214 0.09066 0.58739 0.0
C305 C 0.78141 0.09027 0.54837 0.0
C306 C 0.79737 0.05141 0.6215 0.0
C307 C 0.75008 0.01231 0.6178 0.0
C308 C 0.71932 0.01157 0.57753 0.0
C309 C 0.73579 0.05036 0.54258 0.0
C310 C 0.83157 0.05268 0.66285 0.0
C311 C 0.66802 0.97143 0.57357 0.0
C312 C 0.70557 0.89212 0.68396 0.0
C313 C 0.6841 0.89738 0.72983 0.0
C314 C 0.73007 0.93041 0.64861 0.0
C315 C 0.73114 0.97405 0.65852 0.0
C316 C 0.7104 0.97978 0.70556 0.0
C317 C 0.68781 0.94148 0.74121 0.0
C318 C 0.75303 0.92356 0.59968 0.0
C319 C 0.70928 0.02518 0.71659 0.0
H320 H 0.84727 0.12204 0.59187 0.0
H321 H 0.71187 0.05093 0.51296 0.0
H322 H 0.82002 0.05772 0.70263 0.0
H323 H 0.8314 0.01824 0.66355 0.0
H324 H 0.86876 0.08218 0.65563 0.0
H325 H 0.64948 0.97547 0.5387 0.0
H326 H 0.66646 0.93643 0.57082 0.0
H327 H 0.64807 0.97059 0.6099 0.0
H328 H 0.70244 0.85778 0.67532 0.0
H329 H 0.67034 0.94506 0.7763 0.0
H330 H 0.78976 0.95437 0.59421 0.0
H331 H 0.73209 0.92179 0.56421 0.0
H332 H 0.75489 0.89018 0.60165 0.0
H333 H 0.74594 0.05662 0.7149 0.0
H334 H 0.69338 0.02449 0.75596 0.0
H335 H 0.68793 0.03035 0.6857 0.0
C336 C 0.65775 0.7599 0.9363 0.0
C337 C 0.6475 0.72995 0.89244 0.0
C338 C 0.67137 0.74905 0.98469 0.0
C339 C 0.67585 0.7078 0.98852 0.0
C340 C 0.66872 0.67925 0.94318 0.0
C341 C 0.65394 0.6903 0.89584 0.0
C342 C 0.67826 0.78005 0.03236 0.0
C343 C 0.67504 0.63605 0.94516 0.0
C344 C 0.73672 0.68841 0.10619 0.0
C345 C 0.69767 0.65024 0.13163 0.0
C346 C 0.73044 0.7083 0.05966 0.0
C347 C 0.68358 0.69173 0.04067 0.0
C348 C 0.64368 0.65672 0.06969 0.0
C349 C 0.65125 0.6357 0.11435 0.0
C350 C 0.77403 0.74414 0.02893 0.0
C351 C 0.59304 0.63984 0.05218 0.0
H352 H 0.65274 0.7903 0.93359 0.0
H353 H 0.64651 0.66729 0.86168 0.0
H354 H 0.64935 0.75946 0.06165 0.0
H355 H 0.71263 0.79027 0.05213 0.0
H356 H 0.67783 0.81318 0.02173 0.0
H357 H 0.67474 0.62171 0.90506 0.0
H358 H 0.70927 0.64543 0.96473 0.0
H359 H 0.64579 0.60736 0.969 0.0
H360 H 0.77244 0.70118 0.12126 0.0
H361 H 0.62082 0.60687 0.13475 0.0
H362 H 0.76961 0.7739 0.01388 0.0
H363 H 0.77896 0.72608 0.99404 0.0
H364 H 0.80702 0.75921 0.05321 0.0
H365 H 0.58867 0.67083 0.04195 0.0
H366 H 0.56641 0.61823 0.08326 0.0
H367 H 0.58506 0.61753 0.0161 0.0
C368 C 0.08334 0.76641 0.35645 0.0
C369 C 0.09132 0.78627 0.40734 0.0
C370 C 0.03933 0.74976 0.33139 0.0
C371 C 0.00283 0.7543 0.35727 0.0
C372 C 0.0116 0.77689 0.40734 0.0
C373 C 0.05566 0.79198 0.43228 0.0
C374 C 0.03105 0.72477 0.27858 0.0
C375 C 0.97389 0.78349 0.43531 0.0
C376 C 0.90028 0.72845 0.26553 0.0
C377 C 0.86861 0.68018 0.27703 0.0
C378 C 0.94283 0.75441 0.29424 0.0
C379 C 0.95431 0.73091 0.33393 0.0
C380 C 0.92146 0.68267 0.34696 0.0
C381 C 0.87874 0.65808 0.31873 0.0
C382 C 0.97645 0.80622 0.28041 0.0
C383 C 0.93284 0.65586 0.38804 0.0
H384 H 0.11069 0.76155 0.33716 0.0
H385 H 0.06198 0.80769 0.47147 0.0
H386 H 0.00249 0.68679 0.2828 0.0
H387 H 0.01874 0.74148 0.24893 0.0
H388 H 0.0638 0.72579 0.26299 0.0
H389 H 0.98853 0.80753 0.47011 0.0
H390 H 0.95811 0.79845 0.40766 0.0
H391 H 0.94449 0.74831 0.44915 0.0
H392 H 0.89225 0.74562 0.23351 0.0
H393 H 0.85462 0.62056 0.32729 0.0
H394 H 0.008 0.8096 0.25879 0.0
H395 H 0.98972 0.82808 0.31692 0.0
H396 H 0.95904 0.82114 0.25505 0.0
H397 H 0.96344 0.6521 0.37407 0.0
H398 H 0.902 0.61957 0.39603 0.0
H399 H 0.9436 0.67599 0.42581 0.0
C400 C 0.30399 0.07668 0.74086 0.0
C401 C 0.32952 0.06482 0.77624 0.0
C402 C 0.2837 0.04938 0.69525 0.0
C403 C 0.28859 0.00889 0.68581 0.0
C404 C 0.31124 0.9947 0.72383 0.0
C405 C 0.3318 0.02319 0.76871 0.0
C406 C 0.25984 0.06564 0.65573 0.0
C407 C 0.31652 0.95127 0.71546 0.0
C408 C 0.21527 0.91529 0.58369 0.0
C409 C 0.24917 0.92634 0.54354 0.0
C410 C 0.22682 0.94304 0.62967 0.0
C411 C 0.27321 0.98323 0.63468 0.0
C412 C 0.30635 -0.00324 0.5921 0.0
C413 C 0.29392 0.96781 0.54687 0.0
C414 C 0.19054 0.9275 0.67413 0.0
C415 C 0.35599 0.03984 0.59578 0.0
H416 H 0.30122 0.10819 0.74808 0.0
H417 H 0.35199 0.01447 0.79624 0.0
H418 H 0.28279 0.07983 0.61985 0.0
H419 H 0.225 0.03515 0.64311 0.0
H420 H 0.25384 0.09417 0.67201 0.0
H421 H 0.32975 0.94191 0.75147 0.0
H422 H 0.2818 0.91997 0.70403 0.0
H423 H 0.34217 0.95832 0.68254 0.0
H424 H 0.18025 0.88399 0.57983 0.0
H425 H 0.32016 0.97593 0.51569 0.0
H426 H 0.18736 0.9582 0.68866 0.0
H427 H 0.20262 0.91426 0.70788 0.0
H428 H 0.15464 0.89849 0.66177 0.0
H429 H 0.35428 0.07141 0.61007 0.0
H430 H 0.37512 0.04884 0.55706 0.0
H431 H 0.37724 0.0326 0.62489 0.0
C432 C 0.21475 0.46093 0.76001 0.0
C433 C 0.17108 0.44252 0.78741 0.0
C434 C 0.21616 0.45313 0.70542 0.0
C435 C 0.17285 0.42607 0.67736 0.0
C436 C 0.12861 0.40801 0.70459 0.0
C437 C 0.12825 0.41654 0.75922 0.0
C438 C 0.2641 0.4733 0.67793 0.0
C439 C 0.08165 0.37884 0.67621 0.0
C440 C 0.17909 0.43718 0.52671 0.0
C441 C 0.18224 0.39698 0.5117 0.0
C442 C 0.17495 0.44659 0.58034 0.0
C443 C 0.17408 0.41516 0.62004 0.0
C444 C 0.17615 0.374 0.60508 0.0
C445 C 0.18002 0.36535 0.55123 0.0
C446 C 0.17272 0.49081 0.59459 0.0
C447 C 0.17527 0.33951 0.64607 0.0
H448 H 0.24798 0.48168 0.78132 0.0
H449 H 0.09438 0.40185 0.78018 0.0
H450 H 0.26838 0.44372 0.66174 0.0
H451 H 0.26612 0.49609 0.64402 0.0
H452 H 0.29442 0.49494 0.70498 0.0
H453 H 0.05036 0.36912 0.70248 0.0
H454 H 0.07976 0.39904 0.64167 0.0
H455 H 0.07908 0.34548 0.66078 0.0
H456 H 0.18127 0.46214 0.49663 0.0
H457 H 0.18154 0.33374 0.54008 0.0
H458 H 0.20464 0.51537 0.61811 0.0
H459 H 0.14078 0.48107 0.61964 0.0
H460 H 0.17129 0.51029 0.55901 0.0
H461 H 0.20679 0.35821 0.67234 0.0
H462 H 0.17566 0.30839 0.62788 0.0
H463 H 0.14286 0.32616 0.6714 0.0
C464 C 0.74473 0.19312 0.07364 0.0
C465 C 0.78207 0.19782 0.10602 0.0
C466 C 0.75209 0.20447 0.01941 0.0
C467 C 0.79796 0.22102 0.99673 0.0
C468 C 0.83605 0.22666 0.02931 0.0
C469 C 0.82767 0.21506 0.08353 0.0
C470 C 0.71058 0.1983 0.98625 0.0
C471 C 0.88548 0.2442 1.00671 0.0
C472 C 0.80443 0.20533 0.84782 0.0
C473 C 0.81813 0.2512 0.8285 0.0
C474 C 0.79817 0.19517 0.9024 0.0
C475 C 0.80576 0.2317 0.93876 0.0
C476 C 0.81976 0.27811 0.91959 0.0
C477 C 0.82574 0.28727 0.8648 0.0
C478 C 0.78328 0.14522 0.92116 0.0
C479 C 0.82795 0.31799 0.95695 0.0
H480 H 0.70958 0.18062 0.09081 0.0
H481 H 0.85663 0.21839 0.10807 0.0
H482 H 0.71964 0.23266 0.96686 0.0
H483 H 0.70333 0.17195 0.95431 0.0
H484 H 0.67738 0.1859 1.01006 0.0
H485 H 0.91157 0.24799 0.03756 0.0
H486 H 0.8841 0.21886 0.97613 0.0
H487 H 0.89872 0.27933 0.98699 0.0
H488 H 0.79909 0.17738 0.82023 0.0
H489 H 0.83565 0.32263 0.8503 0.0
H490 H 0.74865 0.12985 0.94274 0.0
H491 H 0.81009 0.14634 0.94929 0.0
H492 H 0.77939 0.12099 0.88792 0.0
H493 H 0.79446 0.30824 0.97902 0.0
H494 H 0.83979 0.35235 0.93589 0.0
H495 H 0.85542 0.32338 0.98663 0.0
C496 C 0.58728 0.74033 0.4215 0.0
C497 C 0.56495 0.75683 0.4567 0.0
C498 C 0.59155 0.75151 0.3673 0.0
C499 C 0.57338 0.78025 0.34763 0.0
C500 C 0.55137 0.79762 0.38297 0.0
C501 C 0.54736 0.78565 0.43707 0.0
C502 C 0.6153 0.7323 0.33101 0.0
C503 C 0.53172 0.82852 0.36356 0.0
C504 C 0.62282 0.84195 0.21505 0.0
C505 C 0.58664 0.81173 0.17988 0.0
C506 C 0.61857 0.83264 0.26977 0.0
C507 C 0.57735 0.79184 0.28997 0.0
C508 C 0.54068 0.76118 0.25481 0.0
C509 C 0.54568 0.77157 0.20031 0.0
C510 C 0.65846 0.86623 0.30593 0.0
C511 C 0.49626 0.71719 0.27475 0.0
H512 H 0.60177 0.71878 0.43642 0.0
H513 H 0.52963 0.79816 0.46383 0.0
H514 H 0.59003 0.71 0.29959 0.0
H515 H 0.64667 0.7623 0.31103 0.0
H516 H 0.62746 0.71035 0.35254 0.0
H517 H 0.51633 0.83976 0.39622 0.0
H518 H 0.56047 0.86098 0.34376 0.0
H519 H 0.50347 0.80876 0.33371 0.0
H520 H 0.65492 0.87267 0.19972 0.0
H521 H 0.51716 0.7484 0.17371 0.0
H522 H 0.67434 0.84684 0.32572 0.0
H523 H 0.64412 0.87957 0.33751 0.0
H524 H 0.68727 0.8974 0.28429 0.0
H525 H 0.50627 0.69283 0.29454 0.0
H526 H 0.47078 0.69732 0.24237 0.0
H527 H 0.47775 0.72741 0.3047 0.0
C528 C 0.80586 0.58404 0.78678 0.0
C529 C 0.77826 0.59655 0.81892 0.0
C530 C 0.79597 0.57442 0.73259 0.0
C531 C 0.75778 0.57776 0.70979 0.0
C532 C 0.7296 0.59011 0.74211 0.0
C533 C 0.74003 0.59913 0.79632 0.0
C534 C 0.82651 0.56083 0.69969 0.0
C535 C 0.6888 0.59442 0.71929 0.0
C536 C 0.76066 0.59805 0.56088 0.0
C537 C 0.72795 0.5521 0.54246 0.0
C538 C 0.77071 0.60688 0.61517 0.0
C539 C 0.74765 0.56882 0.65202 0.0
C540 C 0.71498 0.52226 0.63364 0.0
C541 C 0.70548 0.51449 0.57916 0.0
C542 C 0.80563 0.65707 0.63316 0.0
C543 C 0.69002 0.48064 0.67155 0.0
H544 H 0.83506 0.5814 0.80418 0.0
H545 H 0.7189 0.60925 0.82086 0.0
H546 H 0.80371 0.5256 0.68069 0.0
H547 H 0.84453 0.58737 0.66746 0.0
H548 H 0.85425 0.55887 0.72362 0.0
H549 H 0.67016 0.60406 0.74978 0.0
H550 H 0.70244 0.6221 0.68771 0.0
H551 H 0.66239 0.56012 0.70076 0.0
H552 H 0.77773 0.6274 0.53289 0.0
H553 H 0.68063 0.47877 0.56518 0.0
H554 H 0.83555 0.65745 0.65497 0.0
H555 H 0.7876 0.66973 0.6609 0.0
H556 H 0.82071 0.68266 0.59951 0.0
H557 H 0.71686 0.4761 0.69415 0.0
H558 H 0.66593 0.44658 0.65088 0.0
H559 H 0.66858 0.48783 0.70073 0.0
C560 C 0.21255 0.83299 0.87283 0.0
C561 C 0.18853 0.78759 0.84931 0.0
C562 C 0.22411 0.83834 0.92699 0.0
C563 C 0.21154 0.79734 0.95844 0.0
C564 C 0.18773 0.75148 0.93481 0.0
C565 C 0.1765 0.74717 0.88065 0.0
C566 C 0.24943 0.88787 0.95067 0.0
C567 C 0.17404 0.70689 0.96677 0.0
C568 C 0.27784 0.81299 0.0879 0.0
C569 C 0.24514 0.81196 0.12553 0.0
C570 C 0.26739 0.80827 0.0335 0.0
C571 C 0.22312 0.80233 0.01611 0.0
C572 C 0.1898 0.8009 0.05386 0.0
C573 C 0.20118 0.8057 0.10804 0.0
C574 C 0.30378 0.80967 0.9946 0.0
C575 C 0.14222 0.79465 0.03697 0.0
H576 H 0.22157 0.86436 0.84905 0.0
H577 H 0.15865 0.71202 0.86264 0.0
H578 H 0.2271 0.89036 0.98269 0.0
H579 H 0.28361 0.89506 0.96881 0.0
H580 H 0.25722 0.91612 0.92077 0.0
H581 H 0.15593 0.67391 0.94241 0.0
H582 H 0.2064 0.70918 0.98472 0.0
H583 H 0.14977 0.70375 0.99975 0.0
H584 H 0.31161 0.81714 0.10105 0.0
H585 H 0.17595 0.80548 0.13668 0.0
H586 H 0.31423 0.83937 0.96595 0.0
H587 H 0.28788 0.77598 0.97151 0.0
H588 H 0.33653 0.81455 0.0145 0.0
H589 H 0.14804 0.82426 1.01006 0.0
H590 H 0.12014 0.79399 0.07122 0.0
H591 H 0.1218 0.76081 0.01457 0.0
C592 C 0.3753 0.19914 0.4302 0.0
C593 C 0.4067 0.19824 0.46787 0.0
C594 C 0.38147 0.19442 0.37575 0.0
C595 C 0.42001 0.18862 0.35825 0.0
C596 C 0.4517 0.18743 0.39602 0.0
C597 C 0.44467 0.19221 0.45026 0.0
C598 C 0.34667 0.19558 0.33691 0.0
C599 C 0.49329 0.18142 0.37911 0.0
C600 C 0.4116 0.13302 0.22262 0.0
C601 C 0.43982 0.17335 0.19088 0.0
C602 C 0.40486 0.13749 0.27697 0.0
C603 C 0.4269 0.18342 0.30046 0.0
C604 C 0.45533 0.22431 0.26867 0.0
C605 C 0.46136 0.21881 0.21433 0.0
C606 C 0.374 0.09297 0.30924 0.0
C607 C 0.47963 0.27392 0.29214 0.0
H608 H 0.34546 0.20308 0.44335 0.0
H609 H 0.46952 0.1921 0.47887 0.0
H610 H 0.36611 0.22514 0.30807 0.0
H611 H 0.32892 0.16177 0.31403 0.0
H612 H 0.31868 0.20051 0.35682 0.0
H613 H 0.51459 0.18104 0.41333 0.0
H614 H 0.48007 0.14751 0.35686 0.0
H615 H 0.51721 0.21097 0.35203 0.0
H616 H 0.39421 0.09781 0.20477 0.0
H617 H 0.48363 0.25013 0.19032 0.0
H618 H 0.34365 0.09502 0.3272 0.0
H619 H 0.3951 0.09026 0.34222 0.0
H620 H 0.35945 0.05988 0.28509 0.0
H621 H 0.45255 0.28126 0.31013 0.0
H622 H 0.5005 0.30204 0.26215 0.0
H623 H 0.50413 0.27645 0.32424 0.0
C624 C 0.14758 0.50493 0.2857 0.0
C625 C 0.18046 0.51971 0.24382 0.0
C626 C 0.14743 0.53841 0.32086 0.0
C627 C 0.1825 0.58734 0.31511 0.0
C628 C 0.21578 0.60231 0.27259 0.0
C629 C 0.21373 0.56821 0.23671 0.0
C630 C 0.11024 0.52135 0.36448 0.0
C631 C 0.25484 0.65387 0.26645 0.0
C632 C 0.16603 0.68286 0.38262 0.0
C633 C 0.19021 0.68857 0.43035 0.0
C634 C 0.16253 0.64941 0.345 0.0
C635 C 0.18544 0.6226 0.35468 0.0
C636 C 0.21101 0.62926 0.40237 0.0
C637 C 0.21226 0.66162 0.44025 0.0
C638 C 0.13359 0.64217 0.2955 0.0
C639 C 0.23739 0.60258 0.41315 0.0
H640 H 0.12207 0.46714 0.29091 0.0
H641 H 0.23957 0.5791 0.20456 0.0
H642 H 0.12767 0.52617 0.40351 0.0
H643 H 0.0922 0.5429 0.36473 0.0
H644 H 0.08271 0.483 0.36008 0.0
H645 H 0.27766 0.65957 0.231 0.0
H646 H 0.23918 0.67744 0.26324 0.0
H647 H 0.27787 0.66524 0.30213 0.0
H648 H 0.14875 0.70368 0.37532 0.0
H649 H 0.23127 0.66659 0.47712 0.0
H650 H 0.10541 0.60401 0.29206 0.0
H651 H 0.15685 0.65125 0.25991 0.0
H652 H 0.11628 0.66446 0.29526 0.0
H653 H 0.21163 0.56368 0.4162 0.0
H654 H 0.25833 0.61444 0.45039 0.0
H655 H 0.26214 0.60788 0.37981 0.0
C656 C 0.65948 0.12314 0.57625 0.0
C657 C 0.68813 0.16696 0.55059 0.0
C658 C 0.63042 0.11981 0.61956 0.0
C659 C 0.62958 0.16116 0.63664 0.0
C660 C 0.66038 0.20588 0.61234 0.0
C661 C 0.68929 0.20818 0.56958 0.0
C662 C 0.59887 0.07165 0.64506 0.0
C663 C 0.66048 0.25082 0.62906 0.0
C664 C 0.5145 0.15164 0.68568 0.0
C665 C 0.52383 0.1625 0.73969 0.0
C666 C 0.54777 0.14885 0.65247 0.0
C667 C 0.59168 0.15696 0.67365 0.0
C668 C 0.60047 0.16543 0.72868 0.0
C669 C 0.56629 0.1681 0.76123 0.0
C670 C 0.53673 0.13955 0.59407 0.0
C671 C 0.64673 0.1737 0.75263 0.0
H672 H 0.65914 0.09133 0.56191 0.0
H673 H 0.71114 0.24198 0.54937 0.0
H674 H 0.59923 0.0749 0.68885 0.0
H675 H 0.56142 0.05733 0.63189 0.0
H676 H 0.6102 0.04543 0.63425 0.0
H677 H 0.69006 0.28336 0.61016 0.0
H678 H 0.62602 0.24811 0.61785 0.0
H679 H 0.66387 0.25513 0.67269 0.0
H680 H 0.48139 0.14631 0.66877 0.0
H681 H 0.57358 0.17626 0.80297 0.0
H682 H 0.54109 0.10922 0.58083 0.0
H683 H 0.56227 0.17149 0.57082 0.0
H684 H 0.4998 0.13128 0.58457 0.0
H685 H 0.65498 0.14593 0.73908 0.0
H686 H 0.64551 0.1735 0.79664 0.0
H687 H 0.67659 0.20879 0.73923 0.0
C688 C 0.31421 0.53169 0.07784 0.0
C689 C 0.31272 0.48915 0.09214 0.0
C690 C 0.3464 0.56198 0.03928 0.0
C691 C 0.37826 0.54958 0.0149 0.0
C692 C 0.3766 0.50631 0.02884 0.0
C693 C 0.3438 0.47654 0.06761 0.0
C694 C 0.34715 0.60788 0.02568 0.0
C695 C 0.40992 0.49191 1.0035 0.0
C696 C 0.43847 0.61927 0.88959 0.0
C697 C 0.48137 0.65656 0.90987 0.0
C698 C 0.40519 0.58278 0.92296 0.0
C699 C 0.41528 0.58384 0.97765 0.0
C700 C 0.45934 0.62036 0.99781 0.0
C701 C 0.49198 0.656 0.96358 0.0
C702 C 0.35841 0.54435 0.90022 0.0
C703 C 0.47136 0.62276 0.05593 0.0
H704 H 0.2905 0.54165 0.0974 0.0
H705 H 0.34236 0.44341 0.07861 0.0
H706 H 0.38211 0.63896 0.03702 0.0
H707 H 0.34314 0.61018 0.98233 0.0
H708 H 0.31826 0.61089 0.04622 0.0
H709 H 0.40132 0.45533 0.01541 0.0
H710 H 0.40813 0.49328 0.95969 0.0
H711 H 0.44733 0.51753 0.01506 0.0
H712 H 0.43017 0.61939 0.84805 0.0
H713 H 0.52564 0.6839 0.97924 0.0
H714 H 0.32852 0.54828 0.9163 0.0
H715 H 0.35162 0.50841 0.9121 0.0
H716 H 0.35784 0.54607 0.85628 0.0
H717 H 0.44305 0.62333 0.08048 0.0
H718 H 0.50607 0.65495 0.06569 0.0
H719 H 0.47294 0.59044 0.06735 0.0
C720 C 0.81884 0.33364 0.32579 0.0
C721 C 0.81503 0.33389 0.38111 0.0
C722 C 0.82074 0.3706 0.29506 0.0
C723 C 0.81777 0.40815 0.32029 0.0
C724 C 0.81532 0.40934 0.37628 0.0
C725 C 0.81449 0.3723 0.40616 0.0
C726 C 0.82429 0.36856 0.2355 0.0
C727 C 0.81136 0.4485 0.40441 0.0
C728 C 0.84946 0.51949 0.23984 0.0
C729 C 0.80424 0.50928 0.22234 0.0
C730 C 0.85454 0.48711 0.27234 0.0
C731 C 0.81333 0.4439 0.28777 0.0
C732 C 0.76755 0.43381 0.27056 0.0
C733 C 0.76365 0.46646 0.23756 0.0
C734 C 0.90393 0.49875 0.28953 0.0
C735 C 0.7227 0.38831 0.28658 0.0
H736 H 0.81996 0.30425 0.30639 0.0
H737 H 0.8114 0.37239 0.44896 0.0
H738 H 0.79062 0.36274 0.21723 0.0
H739 H 0.85374 0.40302 0.22007 0.0
H740 H 0.83067 0.33934 0.22253 0.0
H741 H 0.813 0.446 0.44817 0.0
H742 H 0.84045 0.48413 0.39131 0.0
H743 H 0.77696 0.44628 0.39403 0.0
H744 H 0.88086 0.55271 0.228 0.0
H745 H 0.72874 0.45828 0.22335 0.0
H746 H 0.91181 0.47119 0.27432 0.0
H747 H 0.90564 0.49814 0.33339 0.0
H748 H 0.93218 0.53437 0.27507 0.0
H749 H 0.72388 0.35692 0.27063 0.0
H750 H 0.68973 0.3871 0.27196 0.0
H751 H 0.72042 0.3848 0.33038 0.0
C752 C 0.37495 0.81636 0.54456 0.0
C753 C 0.33917 0.82147 0.57036 0.0
C754 C 0.41271 0.81755 0.57337 0.0
C755 C 0.41441 0.824 0.62899 0.0
C756 C 0.37941 0.83104 0.65474 0.0
C757 C 0.34232 0.8297 0.62515 0.0
C758 C 0.44981 0.81043 0.54466 0.0
C759 C 0.3801 0.83842 0.71397 0.0
C760 C 0.46864 0.77432 0.7239 0.0
C761 C 0.50879 0.81623 0.74136 0.0
C762 C 0.43929 0.77591 0.68422 0.0
C763 C 0.45064 0.82052 0.66159 0.0
C764 C 0.49309 0.8625 0.67659 0.0
C765 C 0.52155 0.85989 0.71673 0.0
C766 C 0.39434 0.73033 0.66931 0.0
C767 C 0.50693 0.9106 0.65272 0.0
H768 H 0.37276 0.81013 0.5022 0.0
H769 H 0.31526 0.8344 0.64536 0.0
H770 H 0.48638 0.83866 0.55594 0.0
H771 H 0.44604 0.7756 0.55635 0.0
H772 H 0.44634 0.81089 0.50092 0.0
H773 H 0.35126 0.84528 0.72744 0.0
H774 H 0.37567 0.80624 0.7349 0.0
H775 H 0.41504 0.86908 0.72602 0.0
H776 H 0.45885 0.74057 0.74302 0.0
H777 H 0.55317 0.89223 0.72975 0.0
H778 H 0.39087 0.72681 0.62562 0.0
H779 H 0.36266 0.73141 0.68476 0.0
H780 H 0.39371 0.6981 0.68569 0.0
H781 H 0.50193 0.90779 0.60915 0.0
H782 H 0.54471 0.93775 0.66136 0.0
H783 H 0.48349 0.92346 0.66924 0.0
C784 C 0.63335 0.42967 0.08799 0.0
C785 C 0.64664 0.47768 0.08058 0.0
C786 C 0.60631 0.3953 0.04971 0.0
C787 C 0.59096 0.40925 1.00408 0.0
C788 C 0.60267 0.45747 0.99763 0.0
C789 C 0.63126 0.49137 0.03557 0.0
C790 C 0.59571 0.34449 0.05715 0.0
C791 C 0.58541 0.47335 0.95055 0.0
C792 C 0.55943 0.33308 0.87996 0.0
C793 C 0.51004 0.30369 0.8864 0.0
C794 C 0.58647 0.3674 0.91842 0.0
C795 C 0.56298 0.37337 0.96293 0.0
C796 C 0.51279 0.34446 0.96863 0.0
C797 C 0.48707 0.30929 0.93077 0.0
C798 C 0.64017 0.39652 0.91204 0.0
C799 C 0.48616 0.35076 0.01447 0.0
H800 H 0.64603 0.41942 0.1225 0.0
H801 H 0.64166 0.52864 0.03008 0.0
H802 H 0.55653 0.31952 0.05794 0.0
H803 H 0.61049 0.33404 0.02321 0.0
H804 H 0.61116 0.33981 0.09435 0.0
H805 H 0.59402 0.51112 0.95404 0.0
H806 H 0.60225 0.46978 0.91374 0.0
H807 H 0.54611 0.45017 0.94628 0.0
H808 H 0.57696 0.32833 0.84564 0.0
H809 H 0.44865 0.28674 0.93536 0.0
H810 H 0.65769 0.39157 0.94726 0.0
H811 H 0.65188 0.43511 0.90949 0.0
H812 H 0.65298 0.38637 0.87606 0.0
H813 H 0.49689 0.3413 0.05218 0.0
H814 H 0.44671 0.32809 1.01048 0.0
H815 H 0.49545 0.38873 0.01738 0.0
loop_
_geom_bond_atom_site_label_1
_geom_bond_atom_site_label_2
_geom_bond_distance
_geom_bond_site_symmetry_2
_ccdc_geom_bond_type
Ho0 C3 2.811 . S
Ho0 O20 2.322 . S
Ho0 O22 2.378 . S
Ho0 O23 2.524 . S
Ho0 O24 2.381 . S
Ho0 O25 2.669 . S
Ho0 O27 2.346 . S
Ho0 O31 2.305 . S
Ho1 C12 2.811 . S
Ho1 O21 2.346 . S
Ho1 O25 2.305 . S
Ho1 O26 2.322 . S
Ho1 O28 2.378 . S
Ho1 O29 2.524 . S
Ho1 O30 2.381 . S
Ho1 O31 2.669 . S
C2 O20 1.259 . S
C2 O21 1.268 . S
C3 Ho0 2.811 . S
C3 C4 1.488 . S
C3 O22 1.215 . S
C3 O23 1.289 . S
C4 C3 1.488 . S
C4 C5 1.348 1_554 S
C4 C9 1.413 1_554 S
C5 C4 1.348 1_556 S
C5 C6 1.442 . S
C5 H32 0.930 . S
C6 C5 1.442 . S
C6 C7 1.381 . S
C6 H33 0.931 . S
C7 C6 1.381 . S
C7 C8 1.321 . S
C8 C7 1.321 . S
C8 C9 1.403 . S
C8 H34 0.934 . S
C9 C4 1.413 1_556 S
C9 C8 1.403 . S
C9 H35 0.920 1_556 S
C10 O24 1.275 . S
C10 O25 1.256 . S
C11 O26 1.259 . S
C11 O27 1.268 . S
C12 Ho1 2.811 . S
C12 C13 1.488 . S
C12 O28 1.215 . S
C12 O29 1.289 . S
C13 C12 1.488 . S
C13 C14 1.348 . S
C13 C18 1.413 . S
C14 C13 1.348 . S
C14 C15 1.442 . S
C14 H36 0.930 . S
C15 C14 1.442 . S
C15 C16 1.381 . S
C15 H37 0.931 . S
C16 C15 1.381 . S
C16 C17 1.321 . S
C17 C16 1.321 . S
C17 C18 1.403 . S
C17 H38 0.934 . S
C18 C13 1.413 . S
C18 C17 1.403 . S
C18 H39 0.930 . S
C19 O30 1.275 . S
C19 O31 1.256 . S
O20 Ho0 2.322 . S
O20 C2 1.259 . S
O21 Ho1 2.346 . S
O21 C2 1.268 . S
O22 Ho0 2.378 . S
O22 C3 1.215 . S
O23 Ho0 2.524 . S
O23 C3 1.289 . S
O24 Ho0 2.381 . S
O24 C10 1.275 . S
O25 Ho0 2.669 . S
O25 Ho1 2.305 . S
O25 C10 1.256 . S
O26 Ho1 2.322 . S
O26 C11 1.259 . S
O27 Ho0 2.346 . S
O27 C11 1.268 . S
O28 Ho1 2.378 . S
O28 C12 1.215 . S
O29 Ho1 2.524 . S
O29 C12 1.289 . S
O30 Ho1 2.381 . S
O30 C19 1.275 . S
O31 Ho0 2.305 . S
O31 Ho1 2.669 . S
O31 C19 1.256 . S
H32 C5 0.930 . S
H33 C6 0.931 . S
H34 C8 0.934 . S
H35 C9 0.920 1_554 S
H36 C14 0.930 . S
H37 C15 0.931 . S
H38 C17 0.934 . S
H39 C18 0.930 . S
Ho40 C43 2.811 . S
Ho40 O60 2.322 . S
Ho40 O62 2.378 . S
Ho40 O63 2.524 . S
Ho40 O64 2.381 . S
Ho40 O65 2.669 . S
Ho40 O67 2.346 . S
Ho40 O71 2.305 . S
Ho41 C52 2.811 . S
Ho41 O61 2.346 . S
Ho41 O65 2.305 . S
Ho41 O66 2.322 . S
Ho41 O68 2.378 . S
Ho41 O69 2.524 . S
Ho41 O70 2.381 . S
Ho41 O71 2.669 . S
C42 O60 1.259 . S
C42 O61 1.268 . S
C43 Ho40 2.811 . S
C43 C44 1.488 . S
C43 O62 1.215 . S
C43 O63 1.289 . S
C44 C43 1.488 . S
C44 C45 1.348 . S
C44 C49 1.413 . S
C45 C44 1.348 . S
C45 C46 1.442 . S
C45 H72 0.930 . S
C46 C45 1.442 . S
C46 C47 1.381 . S
C46 H73 0.931 . S
C47 C46 1.381 . S
C47 C48 1.321 . S
C48 C47 1.321 . S
C48 C49 1.403 . S
C48 H74 0.934 . S
C49 C44 1.413 . S
C49 C48 1.403 . S
C49 H75 0.930 . S
C50 O64 1.275 . S
C50 O65 1.256 . S
C51 O66 1.259 . S
C51 O67 1.268 . S
C52 Ho41 2.811 . S
C52 C53 1.488 . S
C52 O68 1.215 . S
C52 O69 1.289 . S
C53 C52 1.488 . S
C53 C54 1.348 . S
C53 C58 1.413 . S
C54 C53 1.348 . S
C54 C55 1.442 . S
C54 H76 0.930 . S
C55 C54 1.442 . S
C55 C56 1.381 . S
C55 H77 0.931 . S
C56 C55 1.381 . S
C56 C57 1.321 . S
C57 C56 1.321 . S
C57 C58 1.403 . S
C57 H78 0.934 . S
C58 C53 1.413 . S
C58 C57 1.403 . S
C58 H79 0.930 . S
C59 O70 1.275 . S
C59 O71 1.256 . S
O60 Ho40 2.322 . S
O60 C42 1.259 . S
O61 Ho41 2.346 . S
O61 C42 1.268 . S
O62 Ho40 2.378 . S
O62 C43 1.215 . S
O63 Ho40 2.524 . S
O63 C43 1.289 . S
O64 Ho40 2.381 . S
O64 C50 1.275 . S
O65 Ho40 2.669 . S
O65 Ho41 2.305 . S
O65 C50 1.256 . S
O66 Ho41 2.322 . S
O66 C51 1.259 . S
O67 Ho40 2.346 . S
O67 C51 1.268 . S
O68 Ho41 2.378 . S
O68 C52 1.215 . S
O69 Ho41 2.524 . S
O69 C52 1.289 . S
O70 Ho41 2.381 . S
O70 C59 1.275 . S
O71 Ho40 2.305 . S
O71 Ho41 2.669 . S
O71 C59 1.256 . S
H72 C45 0.930 . S
H73 C46 0.931 . S
H74 C48 0.934 . S
H75 C49 0.930 . S
H76 C54 0.930 . S
H77 C55 0.931 . S
H78 C57 0.934 . S
H79 C58 0.930 . S
Ho80 C83 2.811 . S
Ho80 O100 2.322 . S
Ho80 O102 2.378 . S
Ho80 O103 2.524 . S
Ho80 O104 2.381 . S
Ho80 O105 2.669 . S
Ho80 O107 2.346 . S
Ho80 O111 2.305 . S
Ho81 C92 2.811 1_556 S
Ho81 O101 2.346 . S
Ho81 O105 2.305 . S
Ho81 O106 2.322 . S
Ho81 O108 2.378 1_556 S
Ho81 O109 2.524 1_556 S
Ho81 O110 2.381 . S
Ho81 O111 2.669 . S
C82 O100 1.259 . S
C82 O101 1.268 . S
C83 Ho80 2.811 . S
C83 C84 1.488 . S
C83 O102 1.215 . S
C83 O103 1.289 . S
C84 C83 1.488 . S
C84 C85 1.348 . S
C84 C89 1.413 . S
C85 C84 1.348 . S
C85 C86 1.442 . S
C85 H112 0.930 . S
C86 C85 1.442 . S
C86 C87 1.381 . S
C86 H113 0.931 . S
C87 C86 1.381 . S
C87 C88 1.321 . S
C88 C87 1.321 . S
C88 C89 1.403 . S
C88 H114 0.934 . S
C89 C84 1.413 . S
C89 C88 1.403 . S
C89 H115 0.930 . S
C90 O104 1.275 . S
C90 O105 1.256 . S
C91 O106 1.259 . S
C91 O107 1.268 . S
C92 Ho81 2.811 1_554 S
C92 C93 1.488 . S
C92 O108 1.215 . S
C92 O109 1.289 . S
C93 C92 1.488 . S
C93 C94 1.348 . S
C93 C98 1.413 . S
C94 C93 1.348 . S
C94 C95 1.442 . S
C94 H116 0.930 . S
C95 C94 1.442 . S
C95 C96 1.381 . S
C95 H117 0.931 . S
C96 C95 1.381 . S
C96 C97 1.321 . S
C97 C96 1.321 . S
C97 C98 1.403 . S
C97 H118 0.934 . S
C98 C93 1.413 . S
C98 C97 1.403 . S
C98 H119 0.930 . S
C99 O110 1.275 . S
C99 O111 1.256 . S
O100 Ho80 2.322 . S
O100 C82 1.259 . S
O101 Ho81 2.346 . S
O101 C82 1.268 . S
O102 Ho80 2.378 . S
O102 C83 1.215 . S
O103 Ho80 2.524 . S
O103 C83 1.289 . S
O104 Ho80 2.381 . S
O104 C90 1.275 . S
O105 Ho80 2.669 . S
O105 Ho81 2.305 . S
O105 C90 1.256 . S
O106 Ho81 2.322 . S
O106 C91 1.259 . S
O107 Ho80 2.346 . S
O107 C91 1.268 . S
O108 Ho81 2.378 1_554 S
O108 C92 1.215 . S
O109 Ho81 2.524 1_554 S
O109 C92 1.289 . S
O110 Ho81 2.381 . S
O110 C99 1.275 . S
O111 Ho80 2.305 . S
O111 Ho81 2.669 . S
O111 C99 1.256 . S
H112 C85 0.930 . S
H113 C86 0.931 . S
H114 C88 0.934 . S
H115 C89 0.930 . S
H116 C94 0.930 . S
H117 C95 0.931 . S
H118 C97 0.934 . S
H119 C98 0.930 . S
Ho120 C123 2.811 . S
Ho120 O140 2.322 . S
Ho120 O142 2.378 . S
Ho120 O143 2.524 . S
Ho120 O144 2.381 . S
Ho120 O145 2.669 . S
Ho120 O147 2.346 . S
Ho120 O151 2.305 . S
Ho121 C132 2.811 1_554 S
Ho121 O141 2.346 . S
Ho121 O145 2.305 . S
Ho121 O146 2.322 1_554 S
Ho121 O148 2.378 1_554 S
Ho121 O149 2.524 1_554 S
Ho121 O150 2.381 . S
Ho121 O151 2.669 . S
C122 O140 1.259 . S
C122 O141 1.268 . S
C123 Ho120 2.811 . S
C123 C124 1.488 . S
C123 O142 1.215 . S
C123 O143 1.289 . S
C124 C123 1.488 . S
C124 C125 1.348 . S
C124 C129 1.413 . S
C125 C124 1.348 . S
C125 C126 1.442 . S
C125 H152 0.930 . S
C126 C125 1.442 . S
C126 C127 1.381 . S
C126 H153 0.931 . S
C127 C126 1.381 . S
C127 C128 1.321 . S
C128 C127 1.321 . S
C128 C129 1.403 . S
C128 H154 0.934 . S
C129 C124 1.413 . S
C129 C128 1.403 . S
C129 H155 0.930 . S
C130 O144 1.275 . S
C130 O145 1.256 . S
C131 O146 1.259 1_554 S
C131 O147 1.266 . S
C132 Ho121 2.811 1_556 S
C132 C133 1.488 . S
C132 O148 1.215 . S
C132 O149 1.289 . S
C133 C132 1.488 . S
C133 C134 1.348 . S
C133 C138 1.413 . S
C134 C133 1.348 . S
C134 C135 1.442 . S
C134 H156 0.930 . S
C135 C134 1.442 . S
C135 C136 1.381 . S
C135 H157 0.931 . S
C136 C135 1.381 . S
C136 C137 1.321 . S
C137 C136 1.321 . S
C137 C138 1.403 . S
C137 H158 0.934 . S
C138 C133 1.413 . S
C138 C137 1.403 . S
C138 H159 0.930 . S
C139 O150 1.275 . S
C139 O151 1.256 . S
O140 Ho120 2.322 . S
O140 C122 1.259 . S
O141 Ho121 2.346 . S
O141 C122 1.268 . S
O142 Ho120 2.378 . S
O142 C123 1.215 . S
O143 Ho120 2.524 . S
O143 C123 1.289 . S
O144 Ho120 2.381 . S
O144 C130 1.275 . S
O145 Ho120 2.669 . S
O145 Ho121 2.305 . S
O145 C130 1.256 . S
O146 Ho121 2.322 1_556 S
O146 C131 1.259 1_556 S
O147 Ho120 2.346 . S
O147 C131 1.266 . S
O148 Ho121 2.378 1_556 S
O148 C132 1.215 . S
O149 Ho121 2.524 1_556 S
O149 C132 1.289 . S
O150 Ho121 2.381 . S
O150 C139 1.275 . S
O151 Ho120 2.305 . S
O151 Ho121 2.669 . S
O151 C139 1.256 . S
H152 C125 0.930 . S
H153 C126 0.931 . S
H154 C128 0.934 . S
H155 C129 0.930 . S
H156 C134 0.930 . S
H157 C135 0.931 . S
H158 C137 0.934 . S
H159 C138 0.930 . S
Ho160 C163 2.811 . S
Ho160 O180 2.322 . S
Ho160 O182 2.378 . S
Ho160 O183 2.524 . S
Ho160 O184 2.381 . S
Ho160 O185 2.669 . S
Ho160 O187 2.346 . S
Ho160 O191 2.305 . S
Ho161 C172 2.811 . S
Ho161 O181 2.346 . S
Ho161 O185 2.305 . S
Ho161 O186 2.322 . S
Ho161 O188 2.378 . S
Ho161 O189 2.524 . S
Ho161 O190 2.381 . S
Ho161 O191 2.669 . S
C162 O180 1.259 . S
C162 O181 1.268 . S
C163 Ho160 2.811 . S
C163 C164 1.488 . S
C163 O182 1.215 . S
C163 O183 1.289 . S
C164 C163 1.488 . S
C164 C165 1.348 . S
C164 C169 1.413 . S
C165 C164 1.348 . S
C165 C166 1.442 . S
C165 H192 0.930 . S
C166 C165 1.442 . S
C166 C167 1.381 . S
C166 H193 0.931 . S
C167 C166 1.381 . S
C167 C168 1.321 . S
C168 C167 1.321 . S
C168 C169 1.403 . S
C168 H194 0.934 . S
C169 C164 1.413 . S
C169 C168 1.403 . S
C169 H195 0.930 . S
C170 O184 1.275 . S
C170 O185 1.256 . S
C171 O186 1.259 . S
C171 O187 1.268 . S
C172 Ho161 2.811 . S
C172 C173 1.488 . S
C172 O188 1.215 . S
C172 O189 1.289 . S
C173 C172 1.488 . S
C173 C174 1.348 . S
C173 C178 1.413 . S
C174 C173 1.348 . S
C174 C175 1.442 . S
C174 H196 0.930 . S
C175 C174 1.442 . S
C175 C176 1.381 . S
C175 H197 0.931 . S
C176 C175 1.381 . S
C176 C177 1.321 . S
C177 C176 1.321 . S
C177 C178 1.403 . S
C177 H198 0.934 . S
C178 C173 1.413 . S
C178 C177 1.403 . S
C178 H199 0.930 . S
C179 O190 1.275 . S
C179 O191 1.256 . S
O180 Ho160 2.322 . S
O180 C162 1.259 . S
O181 Ho161 2.346 . S
O181 C162 1.268 . S
O182 Ho160 2.378 . S
O182 C163 1.215 . S
O183 Ho160 2.524 . S
O183 C163 1.289 . S
O184 Ho160 2.381 . S
O184 C170 1.275 . S
O185 Ho160 2.669 . S
O185 Ho161 2.305 . S
O185 C170 1.256 . S
O186 Ho161 2.322 . S
O186 C171 1.259 . S
O187 Ho160 2.346 . S
O187 C171 1.268 . S
O188 Ho161 2.378 . S
O188 C172 1.215 . S
O189 Ho161 2.524 . S
O189 C172 1.289 . S
O190 Ho161 2.381 . S
O190 C179 1.275 . S
O191 Ho160 2.305 . S
O191 Ho161 2.669 . S
O191 C179 1.256 . S
H192 C165 0.930 . S
H193 C166 0.931 . S
H194 C168 0.934 . S
H195 C169 0.930 . S
H196 C174 0.930 . S
H197 C175 0.931 . S
H198 C177 0.934 . S
H199 C178 0.930 . S
Ho200 C203 2.811 . S
Ho200 O220 2.322 . S
Ho200 O222 2.378 . S
Ho200 O223 2.524 . S
Ho200 O224 2.381 . S
Ho200 O225 2.669 . S
Ho200 O227 2.346 . S
Ho200 O231 2.305 . S
Ho201 C212 2.811 . S
Ho201 O221 2.346 . S
Ho201 O225 2.305 . S
Ho201 O226 2.322 . S
Ho201 O228 2.378 . S
Ho201 O229 2.524 . S
Ho201 O230 2.381 . S
Ho201 O231 2.669 . S
C202 O220 1.259 . S
C202 O221 1.268 . S
C203 Ho200 2.811 . S
C203 C204 1.488 . S
C203 O222 1.215 . S
C203 O223 1.289 . S
C204 C203 1.488 . S
C204 C205 1.348 . S
C204 C209 1.413 . S
C205 C204 1.348 . S
C205 C206 1.442 1_556 S
C205 H232 0.930 . S
C206 C205 1.442 1_554 S
C206 C207 1.381 . S
C206 H233 0.931 . S
C207 C206 1.381 . S
C207 C208 1.321 . S
C208 C207 1.321 . S
C208 C209 1.403 1_554 S
C208 H234 0.934 . S
C209 C204 1.413 . S
C209 C208 1.403 1_556 S
C209 H235 0.930 . S
C210 O224 1.275 . S
C210 O225 1.256 . S
C211 O226 1.259 . S
C211 O227 1.268 . S
C212 Ho201 2.811 . S
C212 C213 1.488 . S
C212 O228 1.215 . S
C212 O229 1.289 . S
C213 C212 1.488 . S
C213 C214 1.348 . S
C213 C218 1.413 . S
C214 C213 1.348 . S
C214 C215 1.442 . S
C214 H236 0.930 . S
C215 C214 1.442 . S
C215 C216 1.381 . S
C215 H237 0.931 . S
C216 C215 1.381 . S
C216 C217 1.321 . S
C217 C216 1.321 . S
C217 C218 1.403 . S
C217 H238 0.934 . S
C218 C213 1.413 . S
C218 C217 1.403 . S
C218 H239 0.930 . S
C219 O230 1.275 . S
C219 O231 1.256 . S
O220 Ho200 2.322 . S
O220 C202 1.259 . S
O221 Ho201 2.346 . S
O221 C202 1.268 . S
O222 Ho200 2.378 . S
O222 C203 1.215 . S
O223 Ho200 2.524 . S
O223 C203 1.289 . S
O224 Ho200 2.381 . S
O224 C210 1.275 . S
O225 Ho200 2.669 . S
O225 Ho201 2.305 . S
O225 C210 1.256 . S
O226 Ho201 2.322 . S
O226 C211 1.259 . S
O227 Ho200 2.346 . S
O227 C211 1.268 . S
O228 Ho201 2.378 . S
O228 C212 1.215 . S
O229 Ho201 2.524 . S
O229 C212 1.289 . S
O230 Ho201 2.381 . S
O230 C219 1.275 . S
O231 Ho200 2.305 . S
O231 Ho201 2.669 . S
O231 C219 1.256 . S
H232 C205 0.930 . S
H233 C206 0.931 . S
H234 C208 0.934 . S
H235 C209 0.930 . S
H236 C214 0.930 . S
H237 C215 0.931 . S
H238 C217 0.934 . S
H239 C218 0.930 . S
C240 C241 1.391 . S
C240 C242 1.394 . S
C240 H256 0.931 . S
C241 C240 1.391 . S
C241 C245 1.376 . S
C242 C240 1.394 . S
C242 C243 1.369 . S
C242 C246 1.531 . S
C243 C242 1.369 . S
C243 C244 1.410 . S
C243 C251 1.493 1_556 S
C244 C243 1.410 . S
C244 C245 1.392 . S
C244 C247 1.511 . S
C245 C241 1.376 . S
C245 C244 1.392 . S
C245 H257 0.929 . S
C246 C242 1.531 . S
C246 H258 0.960 . S
C246 H259 0.962 . S
C246 H260 0.960 . S
C247 C244 1.511 . S
C247 H261 0.961 . S
C247 H262 0.961 . S
C247 H263 0.961 . S
C248 C249 1.370 . S
C248 C250 1.363 . S
C248 H264 0.931 . S
C249 C248 1.370 . S
C249 C253 1.408 . S
C250 C248 1.363 . S
C250 C251 1.378 . S
C250 C254 1.524 . S
C251 C243 1.493 1_554 S
C251 C250 1.378 . S
C251 C252 1.406 . S
C252 C251 1.406 . S
C252 C253 1.404 . S
C252 C255 1.539 1_554 S
C253 C249 1.408 . S
C253 C252 1.404 . S
C253 H265 0.930 . S
C254 C250 1.524 . S
C254 H266 0.956 . S
C254 H267 0.961 1_554 S
C254 H268 0.961 . S
C255 C252 1.539 1_556 S
C255 H269 0.958 . S
C255 H270 0.961 . S
C255 H271 0.960 . S
H256 C240 0.931 . S
H257 C245 0.929 . S
H258 C246 0.960 . S
H259 C246 0.962 . S
H260 C246 0.960 . S
H261 C247 0.961 . S
H262 C247 0.961 . S
H263 C247 0.961 . S
H264 C248 0.931 . S
H265 C253 0.930 . S
H266 C254 0.956 . S
H267 C254 0.961 1_556 S
H268 C254 0.961 . S
H269 C255 0.958 . S
H270 C255 0.961 . S
H271 C255 0.960 . S
C272 C273 1.391 . S
C272 C274 1.394 . S
C272 H288 0.931 . S
C273 C272 1.391 . S
C273 C277 1.376 . S
C274 C272 1.394 . S
C274 C275 1.369 . S
C274 C278 1.531 . S
C275 C274 1.369 . S
C275 C276 1.410 . S
C275 C283 1.503 1_455 S
C276 C275 1.410 . S
C276 C277 1.392 . S
C276 C279 1.511 . S
C277 C273 1.376 . S
C277 C276 1.392 . S
C277 H289 0.929 . S
C278 C274 1.531 . S
C278 H290 0.960 . S
C278 H291 0.962 . S
C278 H292 0.960 . S
C279 C276 1.511 . S
C279 H293 0.961 . S
C279 H294 0.961 1_455 S
C279 H295 0.961 . S
C280 C281 1.370 . S
C280 C282 1.363 . S
C280 H296 0.931 . S
C281 C280 1.370 . S
C281 C285 1.408 . S
C282 C280 1.363 . S
C282 C283 1.370 . S
C282 C286 1.524 . S
C283 C275 1.503 1_655 S
C283 C282 1.370 . S
C283 C284 1.403 . S
C284 C283 1.403 . S
C284 C285 1.404 . S
C284 C287 1.539 . S
C285 C281 1.408 . S
C285 C284 1.404 . S
C285 H297 0.930 . S
C286 C282 1.524 . S
C286 H298 0.956 . S
C286 H299 0.961 . S
C286 H300 0.961 . S
C287 C284 1.539 . S
C287 H301 0.958 1_655 S
C287 H302 0.961 . S
C287 H303 0.960 1_655 S
H288 C272 0.931 . S
H289 C277 0.929 . S
H290 C278 0.960 . S
H291 C278 0.962 . S
H292 C278 0.960 . S
H293 C279 0.961 . S
H294 C279 0.961 1_655 S
H295 C279 0.961 . S
H296 C280 0.931 . S
H297 C285 0.930 . S
H298 C286 0.956 . S
H299 C286 0.961 . S
H300 C286 0.961 . S
H301 C287 0.958 1_455 S
H302 C287 0.961 . S
H303 C287 0.960 1_455 S
C304 C305 1.391 . S
C304 C306 1.394 . S
C304 H320 0.931 . S
C305 C304 1.391 . S
C305 C309 1.376 . S
C306 C304 1.394 . S
C306 C307 1.369 . S
C306 C310 1.531 . S
C307 C306 1.369 . S
C307 C308 1.410 . S
C307 C315 1.503 1_545 S
C308 C307 1.410 . S
C308 C309 1.392 . S
C308 C311 1.511 1_545 S
C309 C305 1.376 . S
C309 C308 1.392 . S
C309 H321 0.929 . S
C310 C306 1.531 . S
C310 H322 0.960 . S
C310 H323 0.962 . S
C310 H324 0.960 . S
C311 C308 1.511 1_565 S
C311 H325 0.961 . S
C311 H326 0.961 . S
C311 H327 0.961 1_565 S
C312 C313 1.370 . S
C312 C314 1.363 . S
C312 H328 0.931 . S
C313 C312 1.370 . S
C313 C317 1.408 . S
C314 C312 1.363 . S
C314 C315 1.370 . S
C314 C318 1.524 . S
C315 C307 1.503 1_565 S
C315 C314 1.370 . S
C315 C316 1.403 1_565 S
C316 C315 1.403 1_545 S
C316 C317 1.404 1_545 S
C316 C319 1.539 . S
C317 C313 1.408 . S
C317 C316 1.404 1_565 S
C317 H329 0.930 1_565 S
C318 C314 1.524 . S
C318 H330 0.956 . S
C318 H331 0.961 . S
C318 H332 0.961 . S
C319 C316 1.539 . S
C319 H333 0.958 . S
C319 H334 0.961 . S
C319 H335 0.960 . S
H320 C304 0.931 . S
H321 C309 0.929 . S
H322 C310 0.960 . S
H323 C310 0.962 . S
H324 C310 0.960 . S
H325 C311 0.961 . S
H326 C311 0.961 . S
H327 C311 0.961 1_545 S
H328 C312 0.931 . S
H329 C317 0.930 1_545 S
H330 C318 0.956 . S
H331 C318 0.961 . S
H332 C318 0.961 . S
H333 C319 0.958 . S
H334 C319 0.961 . S
H335 C319 0.960 . S
C336 C337 1.391 . S
C336 C338 1.394 . S
C336 H352 0.931 1_556 S
C337 C336 1.391 . S
C337 C341 1.376 . S
C338 C336 1.394 . S
C338 C339 1.369 . S
C338 C342 1.531 1_556 S
C339 C338 1.369 . S
C339 C340 1.410 . S
C339 C347 1.503 . S
C340 C339 1.410 . S
C340 C341 1.392 . S
C340 C343 1.511 . S
C341 C337 1.376 . S
C341 C340 1.392 . S
C341 H353 0.929 . S
C342 C338 1.531 1_554 S
C342 H354 0.960 . S
C342 H355 0.962 . S
C342 H356 0.960 . S
C343 C340 1.511 . S
C343 H357 0.961 . S
C343 H358 0.961 . S
C343 H359 0.961 . S
C344 C345 1.370 . S
C344 C346 1.363 . S
C344 H360 0.931 . S
C345 C344 1.370 . S
C345 C349 1.405 1_554 S
C346 C344 1.363 . S
C346 C347 1.370 1_554 S
C346 C350 1.524 . S
C347 C339 1.503 . S
C347 C346 1.370 1_556 S
C347 C348 1.403 . S
C348 C347 1.403 . S
C348 C349 1.406 . S
C348 C351 1.539 . S
C349 C345 1.405 1_556 S
C349 C348 1.406 . S
C349 H361 0.930 . S
C350 C346 1.524 . S
C350 H362 0.956 . S
C350 H363 0.961 1_554 S
C350 H364 0.961 . S
C351 C348 1.539 . S
C351 H365 0.958 . S
C351 H366 0.961 . S
C351 H367 0.960 . S
H352 C336 0.931 1_554 S
H353 C341 0.929 . S
H354 C342 0.960 . S
H355 C342 0.962 . S
H356 C342 0.960 . S
H357 C343 0.961 . S
H358 C343 0.961 . S
H359 C343 0.961 . S
H360 C344 0.931 . S
H361 C349 0.930 . S
H362 C350 0.956 . S
H363 C350 0.961 1_556 S
H364 C350 0.961 . S
H365 C351 0.958 . S
H366 C351 0.961 . S
H367 C351 0.960 . S
C368 C369 1.391 . S
C368 C370 1.394 . S
C368 H384 0.931 . S
C369 C368 1.391 . S
C369 C373 1.376 . S
C370 C368 1.394 . S
C370 C371 1.369 . S
C370 C374 1.531 . S
C371 C370 1.369 . S
C371 C372 1.410 1_455 S
C371 C379 1.503 1_455 S
C372 C371 1.410 1_655 S
C372 C373 1.392 1_655 S
C372 C375 1.511 . S
C373 C369 1.376 . S
C373 C372 1.392 1_455 S
C373 H385 0.929 1_455 S
C374 C370 1.531 . S
C374 H386 0.960 . S
C374 H387 0.962 . S
C374 H388 0.960 . S
C375 C372 1.511 . S
C375 H389 0.961 . S
C375 H390 0.961 . S
C375 H391 0.961 . S
C376 C377 1.370 . S
C376 C378 1.363 1_655 S
C376 H392 0.930 1_655 S
C377 C376 1.370 . S
C377 C381 1.408 . S
C378 C376 1.363 1_455 S
C378 C379 1.370 1_455 S
C378 C382 1.524 . S
C379 C371 1.503 1_655 S
C379 C378 1.370 1_655 S
C379 C380 1.403 . S
C380 C379 1.403 . S
C380 C381 1.404 . S
C380 C383 1.539 . S
C381 C377 1.408 . S
C381 C380 1.404 . S
C381 H393 0.930 . S
C382 C378 1.524 . S
C382 H394 0.956 . S
C382 H395 0.961 . S
C382 H396 0.961 . S
C383 C380 1.539 . S
C383 H397 0.958 . S
C383 H398 0.961 . S
C383 H399 0.960 . S
H384 C368 0.931 . S
H385 C373 0.929 1_655 S
H386 C374 0.960 . S
H387 C374 0.962 . S
H388 C374 0.960 . S
H389 C375 0.961 . S
H390 C375 0.961 . S
H391 C375 0.961 . S
H392 C376 0.930 1_455 S
H393 C381 0.930 . S
H394 C382 0.956 . S
H395 C382 0.961 . S
H396 C382 0.961 . S
H397 C383 0.958 . S
H398 C383 0.961 . S
H399 C383 0.960 . S
C400 C401 1.391 . S
C400 C402 1.394 . S
C400 H416 0.931 . S
C401 C400 1.391 . S
C401 C405 1.376 . S
C402 C400 1.394 . S
C402 C403 1.369 . S
C402 C406 1.531 . S
C403 C402 1.369 . S
C403 C404 1.410 . S
C403 C411 1.503 1_545 S
C404 C403 1.410 . S
C404 C405 1.392 . S
C404 C407 1.511 . S
C405 C401 1.376 . S
C405 C404 1.392 . S
C405 H417 0.929 . S
C406 C402 1.531 . S
C406 H418 0.960 . S
C406 H419 0.962 . S
C406 H420 0.960 . S
C407 C404 1.511 . S
C407 H421 0.961 . S
C407 H422 0.961 1_545 S
C407 H423 0.961 . S
C408 C409 1.370 . S
C408 C410 1.363 . S
C408 H424 0.931 . S
C409 C408 1.370 . S
C409 C413 1.408 . S
C410 C408 1.363 . S
C410 C411 1.370 . S
C410 C414 1.524 . S
C411 C403 1.503 1_565 S
C411 C410 1.370 . S
C411 C412 1.403 . S
C412 C411 1.403 . S
C412 C413 1.404 . S
C412 C415 1.539 . S
C413 C409 1.408 . S
C413 C412 1.404 . S
C413 H425 0.930 . S
C414 C410 1.524 . S
C414 H426 0.956 . S
C414 H427 0.961 . S
C414 H428 0.961 . S
C415 C412 1.539 . S
C415 H429 0.958 1_565 S
C415 H430 0.961 . S
C415 H431 0.960 1_565 S
H416 C400 0.931 . S
H417 C405 0.929 . S
H418 C406 0.960 . S
H419 C406 0.962 . S
H420 C406 0.960 . S
H421 C407 0.961 . S
H422 C407 0.961 1_565 S
H423 C407 0.961 . S
H424 C408 0.931 . S
H425 C413 0.930 . S
H426 C414 0.956 . S
H427 C414 0.961 . S
H428 C414 0.961 . S
H429 C415 0.958 1_545 S
H430 C415 0.961 . S
H431 C415 0.960 1_545 S
C432 C433 1.391 . S
C432 C434 1.394 . S
C432 H448 0.931 . S
C433 C432 1.391 . S
C433 C437 1.376 . S
C434 C432 1.394 . S
C434 C435 1.369 . S
C434 C438 1.531 . S
C435 C434 1.369 . S
C435 C436 1.410 . S
C435 C443 1.503 . S
C436 C435 1.410 . S
C436 C437 1.392 . S
C436 C439 1.511 . S
C437 C433 1.376 . S
C437 C436 1.392 . S
C437 H449 0.929 . S
C438 C434 1.531 . S
C438 H450 0.960 . S
C438 H451 0.962 . S
C438 H452 0.960 . S
C439 C436 1.511 . S
C439 H453 0.961 . S
C439 H454 0.961 . S
C439 H455 0.961 . S
C440 C441 1.370 . S
C440 C442 1.363 . S
C440 H456 0.931 . S
C441 C440 1.370 . S
C441 C445 1.408 . S
C442 C440 1.363 . S
C442 C443 1.370 . S
C442 C446 1.524 . S
C443 C435 1.503 . S
C443 C442 1.370 . S
C443 C444 1.403 . S
C444 C443 1.403 . S
C444 C445 1.404 . S
C444 C447 1.539 . S
C445 C441 1.408 . S
C445 C444 1.404 . S
C445 H457 0.930 . S
C446 C442 1.524 . S
C446 H458 0.956 . S
C446 H459 0.961 . S
C446 H460 0.961 . S
C447 C444 1.539 . S
C447 H461 0.958 . S
C447 H462 0.961 . S
C447 H463 0.960 . S
H448 C432 0.931 . S
H449 C437 0.929 . S
H450 C438 0.960 . S
H451 C438 0.962 . S
H452 C438 0.960 . S
H453 C439 0.961 . S
H454 C439 0.961 . S
H455 C439 0.961 . S
H456 C440 0.931 . S
H457 C445 0.930 . S
H458 C446 0.956 . S
H459 C446 0.961 . S
H460 C446 0.961 . S
H461 C447 0.958 . S
H462 C447 0.961 . S
H463 C447 0.960 . S
C464 C465 1.391 1_556 S
C464 C466 1.394 . S
C464 H480 0.931 . S
C465 C464 1.391 1_554 S
C465 C469 1.376 . S
C466 C464 1.394 . S
C466 C467 1.369 . S
C466 C470 1.531 . S
C467 C466 1.369 . S
C467 C468 1.410 . S
C467 C475 1.503 . S
C468 C467 1.410 . S
C468 C469 1.392 1_556 S
C468 C471 1.511 . S
C469 C465 1.376 . S
C469 C468 1.392 1_554 S
C469 H481 0.929 . S
C470 C466 1.531 . S
C470 H482 0.960 . S
C470 H483 0.962 . S
C470 H484 0.960 . S
C471 C468 1.511 . S
C471 H485 0.961 . S
C471 H486 0.961 . S
C471 H487 0.961 . S
C472 C473 1.370 . S
C472 C474 1.363 . S
C472 H488 0.931 . S
C473 C472 1.370 . S
C473 C477 1.408 . S
C474 C472 1.363 . S
C474 C475 1.370 . S
C474 C478 1.524 . S
C475 C467 1.503 . S
C475 C474 1.370 . S
C475 C476 1.403 . S
C476 C475 1.403 . S
C476 C477 1.404 . S
C476 C479 1.539 . S
C477 C473 1.408 . S
C477 C476 1.404 . S
C477 H489 0.930 . S
C478 C474 1.524 . S
C478 H490 0.956 . S
C478 H491 0.961 . S
C478 H492 0.961 . S
C479 C476 1.539 . S
C479 H493 0.958 . S
C479 H494 0.961 . S
C479 H495 0.960 . S
H480 C464 0.931 . S
H481 C469 0.929 . S
H482 C470 0.960 . S
H483 C470 0.962 . S
H484 C470 0.960 . S
H485 C471 0.961 . S
H486 C471 0.961 . S
H487 C471 0.961 . S
H488 C472 0.931 . S
H489 C477 0.930 . S
H490 C478 0.956 . S
H491 C478 0.961 . S
H492 C478 0.961 . S
H493 C479 0.958 . S
H494 C479 0.961 . S
H495 C479 0.960 . S
C496 C497 1.391 . S
C496 C498 1.394 . S
C496 H512 0.931 . S
C497 C496 1.391 . S
C497 C501 1.376 . S
C498 C496 1.394 . S
C498 C499 1.369 . S
C498 C502 1.531 . S
C499 C498 1.369 . S
C499 C500 1.410 . S
C499 C507 1.503 . S
C500 C499 1.410 . S
C500 C501 1.392 . S
C500 C503 1.511 . S
C501 C497 1.376 . S
C501 C500 1.392 . S
C501 H513 0.929 . S
C502 C498 1.531 . S
C502 H514 0.960 . S
C502 H515 0.962 . S
C502 H516 0.960 . S
C503 C500 1.511 . S
C503 H517 0.961 . S
C503 H518 0.961 . S
C503 H519 0.961 . S
C504 C505 1.370 . S
C504 C506 1.363 . S
C504 H520 0.931 . S
C505 C504 1.370 . S
C505 C509 1.408 . S
C506 C504 1.363 . S
C506 C507 1.370 . S
C506 C510 1.524 . S
C507 C499 1.503 . S
C507 C506 1.370 . S
C507 C508 1.403 . S
C508 C507 1.403 . S
C508 C509 1.404 . S
C508 C511 1.539 . S
C509 C505 1.408 . S
C509 C508 1.404 . S
C509 H521 0.930 . S
C510 C506 1.524 . S
C510 H522 0.956 . S
C510 H523 0.961 . S
C510 H524 0.961 . S
C511 C508 1.539 . S
C511 H525 0.958 . S
C511 H526 0.961 . S
C511 H527 0.960 . S
H512 C496 0.931 . S
H513 C501 0.929 . S
H514 C502 0.960 . S
H515 C502 0.962 . S
H516 C502 0.960 . S
H517 C503 0.961 . S
H518 C503 0.961 . S
H519 C503 0.961 . S
H520 C504 0.931 . S
H521 C509 0.930 . S
H522 C510 0.956 . S
H523 C510 0.961 . S
H524 C510 0.961 . S
H525 C511 0.958 . S
H526 C511 0.961 . S
H527 C511 0.960 . S
C528 C529 1.391 . S
C528 C530 1.394 . S
C528 H544 0.931 . S
C529 C528 1.391 . S
C529 C533 1.376 . S
C530 C528 1.394 . S
C530 C531 1.369 . S
C530 C534 1.531 . S
C531 C530 1.369 . S
C531 C532 1.410 . S
C531 C539 1.503 . S
C532 C531 1.410 . S
C532 C533 1.392 . S
C532 C535 1.511 . S
C533 C529 1.376 . S
C533 C532 1.392 . S
C533 H545 0.929 . S
C534 C530 1.531 . S
C534 H546 0.960 . S
C534 H547 0.962 . S
C534 H548 0.960 . S
C535 C532 1.511 . S
C535 H549 0.961 . S
C535 H550 0.961 . S
C535 H551 0.961 . S
C536 C537 1.370 . S
C536 C538 1.363 . S
C536 H552 0.931 . S
C537 C536 1.370 . S
C537 C541 1.408 . S
C538 C536 1.363 . S
C538 C539 1.370 . S
C538 C542 1.524 . S
C539 C531 1.503 . S
C539 C538 1.370 . S
C539 C540 1.403 . S
C540 C539 1.403 . S
C540 C541 1.404 . S
C540 C543 1.539 . S
C541 C537 1.408 . S
C541 C540 1.404 . S
C541 H553 0.930 . S
C542 C538 1.524 . S
C542 H554 0.956 . S
C542 H555 0.961 . S
C542 H556 0.961 . S
C543 C540 1.539 . S
C543 H557 0.958 . S
C543 H558 0.961 . S
C543 H559 0.960 . S
H544 C528 0.931 . S
H545 C533 0.929 . S
H546 C534 0.960 . S
H547 C534 0.962 . S
H548 C534 0.960 . S
H549 C535 0.961 . S
H550 C535 0.961 . S
H551 C535 0.961 . S
H552 C536 0.931 . S
H553 C541 0.930 . S
H554 C542 0.956 . S
H555 C542 0.961 . S
H556 C542 0.961 . S
H557 C543 0.958 . S
H558 C543 0.961 . S
H559 C543 0.960 . S
C560 C561 1.391 . S
C560 C562 1.394 . S
C560 H576 0.931 . S
C561 C560 1.391 . S
C561 C565 1.376 . S
C562 C560 1.394 . S
C562 C563 1.369 1_556 S
C562 C566 1.531 1_556 S
C563 C562 1.369 1_554 S
C563 C564 1.410 . S
C563 C571 1.503 . S
C564 C563 1.410 . S
C564 C565 1.392 1_554 S
C564 C567 1.511 . S
C565 C561 1.376 . S
C565 C564 1.392 1_556 S
C565 H577 0.929 . S
C566 C562 1.531 1_554 S
C566 H578 0.960 . S
C566 H579 0.962 . S
C566 H580 0.960 1_554 S
C567 C564 1.511 . S
C567 H581 0.961 . S
C567 H582 0.961 . S
C567 H583 0.961 . S
C568 C569 1.370 . S
C568 C570 1.363 . S
C568 H584 0.931 . S
C569 C568 1.370 . S
C569 C573 1.408 . S
C570 C568 1.363 . S
C570 C571 1.370 . S
C570 C574 1.524 . S
C571 C563 1.503 . S
C571 C570 1.370 . S
C571 C572 1.403 . S
C572 C571 1.403 . S
C572 C573 1.404 . S
C572 C575 1.539 . S
C573 C569 1.408 . S
C573 C572 1.404 . S
C573 H585 0.930 . S
C574 C570 1.524 . S
C574 H586 0.956 . S
C574 H587 0.961 . S
C574 H588 0.961 . S
C575 C572 1.539 . S
C575 H589 0.958 . S
C575 H590 0.961 . S
C575 H591 0.960 . S
H576 C560 0.931 . S
H577 C565 0.929 . S
H578 C566 0.960 . S
H579 C566 0.962 . S
H580 C566 0.960 1_556 S
H581 C567 0.961 . S
H582 C567 0.961 . S
H583 C567 0.961 . S
H584 C568 0.931 . S
H585 C573 0.930 . S
H586 C574 0.956 . S
H587 C574 0.961 . S
H588 C574 0.961 . S
H589 C575 0.958 . S
H590 C575 0.961 . S
H591 C575 0.960 . S
C592 C593 1.391 . S
C592 C594 1.394 . S
C592 H608 0.931 . S
C593 C592 1.391 . S
C593 C597 1.376 . S
C594 C592 1.394 . S
C594 C595 1.369 . S
C594 C598 1.531 . S
C595 C594 1.369 . S
C595 C596 1.410 . S
C595 C603 1.503 . S
C596 C595 1.410 . S
C596 C597 1.392 . S
C596 C599 1.511 . S
C597 C593 1.376 . S
C597 C596 1.392 . S
C597 H609 0.929 . S
C598 C594 1.531 . S
C598 H610 0.960 . S
C598 H611 0.962 . S
C598 H612 0.960 . S
C599 C596 1.511 . S
C599 H613 0.961 . S
C599 H614 0.961 . S
C599 H615 0.961 . S
C600 C601 1.370 . S
C600 C602 1.363 . S
C600 H616 0.931 . S
C601 C600 1.370 . S
C601 C605 1.408 . S
C602 C600 1.363 . S
C602 C603 1.370 . S
C602 C606 1.524 . S
C603 C595 1.503 . S
C603 C602 1.370 . S
C603 C604 1.403 . S
C604 C603 1.403 . S
C604 C605 1.404 . S
C604 C607 1.539 . S
C605 C601 1.408 . S
C605 C604 1.404 . S
C605 H617 0.930 . S
C606 C602 1.524 . S
C606 H618 0.956 . S
C606 H619 0.961 . S
C606 H620 0.961 . S
C607 C604 1.539 . S
C607 H621 0.958 . S
C607 H622 0.961 . S
C607 H623 0.960 . S
H608 C592 0.931 . S
H609 C597 0.929 . S
H610 C598 0.960 . S
H611 C598 0.962 . S
H612 C598 0.960 . S
H613 C599 0.961 . S
H614 C599 0.961 . S
H615 C599 0.961 . S
H616 C600 0.931 . S
H617 C605 0.930 . S
H618 C606 0.956 . S
H619 C606 0.961 . S
H620 C606 0.961 . S
H621 C607 0.958 . S
H622 C607 0.961 . S
H623 C607 0.960 . S
C624 C625 1.391 . S
C624 C626 1.394 . S
C624 H640 0.931 . S
C625 C624 1.391 . S
C625 C629 1.376 . S
C626 C624 1.394 . S
C626 C627 1.369 . S
C626 C630 1.531 . S
C627 C626 1.369 . S
C627 C628 1.410 . S
C627 C635 1.503 . S
C628 C627 1.410 . S
C628 C629 1.392 . S
C628 C631 1.511 . S
C629 C625 1.376 . S
C629 C628 1.392 . S
C629 H641 0.929 . S
C630 C626 1.531 . S
C630 H642 0.960 . S
C630 H643 0.962 . S
C630 H644 0.960 . S
C631 C628 1.511 . S
C631 H645 0.961 . S
C631 H646 0.961 . S
C631 H647 0.961 . S
C632 C633 1.370 . S
C632 C634 1.363 . S
C632 H648 0.931 . S
C633 C632 1.370 . S
C633 C637 1.408 . S
C634 C632 1.363 . S
C634 C635 1.370 . S
C634 C638 1.524 . S
C635 C627 1.503 . S
C635 C634 1.370 . S
C635 C636 1.403 . S
C636 C635 1.403 . S
C636 C637 1.404 . S
C636 C639 1.539 . S
C637 C633 1.408 . S
C637 C636 1.404 . S
C637 H649 0.930 . S
C638 C634 1.524 . S
C638 H650 0.956 . S
C638 H651 0.961 . S
C638 H652 0.961 . S
C639 C636 1.539 . S
C639 H653 0.958 . S
C639 H654 0.961 . S
C639 H655 0.960 . S
H640 C624 0.931 . S
H641 C629 0.929 . S
H642 C630 0.960 . S
H643 C630 0.962 . S
H644 C630 0.960 . S
H645 C631 0.961 . S
H646 C631 0.961 . S
H647 C631 0.961 . S
H648 C632 0.931 . S
H649 C637 0.930 . S
H650 C638 0.956 . S
H651 C638 0.961 . S
H652 C638 0.961 . S
H653 C639 0.958 . S
H654 C639 0.961 . S
H655 C639 0.960 . S
C656 C657 1.391 . S
C656 C658 1.394 . S
C656 H672 0.931 . S
C657 C656 1.391 . S
C657 C661 1.376 . S
C658 C656 1.394 . S
C658 C659 1.369 . S
C658 C662 1.531 . S
C659 C658 1.369 . S
C659 C660 1.410 . S
C659 C667 1.503 . S
C660 C659 1.410 . S
C660 C661 1.392 . S
C660 C663 1.511 . S
C661 C657 1.376 . S
C661 C660 1.392 . S
C661 H673 0.929 . S
C662 C658 1.531 . S
C662 H674 0.960 . S
C662 H675 0.962 . S
C662 H676 0.960 . S
C663 C660 1.511 . S
C663 H677 0.961 . S
C663 H678 0.961 . S
C663 H679 0.961 . S
C664 C665 1.370 . S
C664 C666 1.363 . S
C664 H680 0.931 . S
C665 C664 1.370 . S
C665 C669 1.408 . S
C666 C664 1.363 . S
C666 C667 1.370 . S
C666 C670 1.524 . S
C667 C659 1.503 . S
C667 C666 1.370 . S
C667 C668 1.403 . S
C668 C667 1.403 . S
C668 C669 1.404 . S
C668 C671 1.539 . S
C669 C665 1.408 . S
C669 C668 1.404 . S
C669 H681 0.930 . S
C670 C666 1.524 . S
C670 H682 0.956 . S
C670 H683 0.961 . S
C670 H684 0.961 . S
C671 C668 1.539 . S
C671 H685 0.958 . S
C671 H686 0.961 . S
C671 H687 0.960 . S
H672 C656 0.931 . S
H673 C661 0.929 . S
H674 C662 0.960 . S
H675 C662 0.962 . S
H676 C662 0.960 . S
H677 C663 0.961 . S
H678 C663 0.961 . S
H679 C663 0.961 . S
H680 C664 0.931 . S
H681 C669 0.930 . S
H682 C670 0.956 . S
H683 C670 0.961 . S
H684 C670 0.961 . S
H685 C671 0.958 . S
H686 C671 0.961 . S
H687 C671 0.960 . S
C688 C689 1.391 . S
C688 C690 1.394 . S
C688 H704 0.931 . S
C689 C688 1.391 . S
C689 C693 1.376 . S
C690 C688 1.394 . S
C690 C691 1.369 . S
C690 C694 1.531 . S
C691 C690 1.369 . S
C691 C692 1.410 . S
C691 C699 1.503 . S
C692 C691 1.410 . S
C692 C693 1.392 . S
C692 C695 1.511 . S
C693 C689 1.376 . S
C693 C692 1.392 . S
C693 H705 0.929 . S
C694 C690 1.531 . S
C694 H706 0.960 . S
C694 H707 0.962 . S
C694 H708 0.960 . S
C695 C692 1.511 . S
C695 H709 0.961 . S
C695 H710 0.961 . S
C695 H711 0.961 . S
C696 C697 1.365 1_556 S
C696 C698 1.363 1_556 S
C696 H712 0.931 . S
C697 C696 1.365 1_554 S
C697 C701 1.426 . S
C698 C696 1.363 1_554 S
C698 C699 1.370 . S
C698 C702 1.524 1_554 S
C699 C691 1.503 . S
C699 C698 1.370 . S
C699 C700 1.403 . S
C700 C699 1.403 . S
C700 C701 1.404 . S
C700 C703 1.539 . S
C701 C697 1.426 . S
C701 C700 1.404 . S
C701 H713 0.930 . S
C702 C698 1.524 1_556 S
C702 H714 0.956 1_556 S
C702 H715 0.961 1_556 S
C702 H716 0.961 . S
C703 C700 1.539 . S
C703 H717 0.958 . S
C703 H718 0.961 . S
C703 H719 0.960 . S
H704 C688 0.931 . S
H705 C693 0.929 . S
H706 C694 0.960 . S
H707 C694 0.962 . S
H708 C694 0.960 . S
H709 C695 0.961 . S
H710 C695 0.961 . S
H711 C695 0.961 . S
H712 C696 0.931 . S
H713 C701 0.930 . S
H714 C702 0.956 1_554 S
H715 C702 0.961 1_554 S
H716 C702 0.961 . S
H717 C703 0.958 . S
H718 C703 0.961 . S
H719 C703 0.960 . S
C720 C721 1.391 . S
C720 C722 1.394 . S
C720 H736 0.931 . S
C721 C720 1.391 . S
C721 C725 1.376 . S
C722 C720 1.394 . S
C722 C723 1.369 . S
C722 C726 1.531 . S
C723 C722 1.369 . S
C723 C724 1.410 . S
C723 C731 1.503 . S
C724 C723 1.410 . S
C724 C725 1.392 . S
C724 C727 1.511 . S
C725 C721 1.376 . S
C725 C724 1.392 . S
C725 H737 0.929 . S
C726 C722 1.531 . S
C726 H738 0.960 . S
C726 H739 0.962 . S
C726 H740 0.960 . S
C727 C724 1.511 . S
C727 H741 0.961 . S
C727 H742 0.961 . S
C727 H743 0.961 . S
C728 C729 1.370 . S
C728 C730 1.363 . S
C728 H744 0.931 . S
C729 C728 1.370 . S
C729 C733 1.408 . S
C730 C728 1.363 . S
C730 C731 1.370 . S
C730 C734 1.524 . S
C731 C723 1.503 . S
C731 C730 1.370 . S
C731 C732 1.403 . S
C732 C731 1.403 . S
C732 C733 1.404 . S
C732 C735 1.539 . S
C733 C729 1.408 . S
C733 C732 1.404 . S
C733 H745 0.930 . S
C734 C730 1.524 . S
C734 H746 0.956 . S
C734 H747 0.961 . S
C734 H748 0.961 . S
C735 C732 1.539 . S
C735 H749 0.958 . S
C735 H750 0.961 . S
C735 H751 0.960 . S
H736 C720 0.931 . S
H737 C725 0.929 . S
H738 C726 0.960 . S
H739 C726 0.962 . S
H740 C726 0.960 . S
H741 C727 0.961 . S
H742 C727 0.961 . S
H743 C727 0.961 . S
H744 C728 0.931 . S
H745 C733 0.930 . S
H746 C734 0.956 . S
H747 C734 0.961 . S
H748 C734 0.961 . S
H749 C735 0.958 . S
H750 C735 0.961 . S
H751 C735 0.960 . S
C752 C753 1.391 . S
C752 C754 1.394 . S
C752 H768 0.931 . S
C753 C752 1.391 . S
C753 C757 1.376 . S
C754 C752 1.394 . S
C754 C755 1.369 . S
C754 C758 1.531 . S
C755 C754 1.369 . S
C755 C756 1.410 . S
C755 C763 1.503 . S
C756 C755 1.410 . S
C756 C757 1.392 . S
C756 C759 1.511 . S
C757 C753 1.376 . S
C757 C756 1.392 . S
C757 H769 0.929 . S
C758 C754 1.531 . S
C758 H770 0.960 . S
C758 H771 0.962 . S
C758 H772 0.960 . S
C759 C756 1.511 . S
C759 H773 0.961 . S
C759 H774 0.961 . S
C759 H775 0.961 . S
C760 C761 1.370 . S
C760 C762 1.363 . S
C760 H776 0.931 . S
C761 C760 1.370 . S
C761 C765 1.408 . S
C762 C760 1.363 . S
C762 C763 1.370 . S
C762 C766 1.524 . S
C763 C755 1.503 . S
C763 C762 1.370 . S
C763 C764 1.403 . S
C764 C763 1.403 . S
C764 C765 1.404 . S
C764 C767 1.539 . S
C765 C761 1.408 . S
C765 C764 1.404 . S
C765 H777 0.930 . S
C766 C762 1.524 . S
C766 H778 0.956 . S
C766 H779 0.961 . S
C766 H780 0.961 . S
C767 C764 1.539 . S
C767 H781 0.958 . S
C767 H782 0.961 . S
C767 H783 0.960 . S
H768 C752 0.931 . S
H769 C757 0.929 . S
H770 C758 0.960 . S
H771 C758 0.962 . S
H772 C758 0.960 . S
H773 C759 0.961 . S
H774 C759 0.961 . S
H775 C759 0.961 . S
H776 C760 0.931 . S
H777 C765 0.930 . S
H778 C766 0.956 . S
H779 C766 0.961 . S
H780 C766 0.961 . S
H781 C767 0.958 . S
H782 C767 0.961 . S
H783 C767 0.960 . S
C784 C785 1.391 . S
C784 C786 1.394 . S
C784 H800 0.931 . S
C785 C784 1.391 . S
C785 C789 1.376 . S
C786 C784 1.394 . S
C786 C787 1.369 . S
C786 C790 1.531 . S
C787 C786 1.369 . S
C787 C788 1.410 . S
C787 C795 1.503 . S
C788 C787 1.410 . S
C788 C789 1.392 . S
C788 C791 1.511 . S
C789 C785 1.376 . S
C789 C788 1.392 . S
C789 H801 0.929 . S
C790 C786 1.531 . S
C790 H802 0.960 . S
C790 H803 0.962 . S
C790 H804 0.960 . S
C791 C788 1.511 . S
C791 H805 0.961 . S
C791 H806 0.961 . S
C791 H807 0.961 . S
C792 C793 1.370 . S
C792 C794 1.363 . S
C792 H808 0.931 . S
C793 C792 1.370 . S
C793 C797 1.408 . S
C794 C792 1.363 . S
C794 C795 1.370 . S
C794 C798 1.524 . S
C795 C787 1.503 . S
C795 C794 1.370 . S
C795 C796 1.403 . S
C796 C795 1.403 . S
C796 C797 1.404 . S
C796 C799 1.539 . S
C797 C793 1.408 . S
C797 C796 1.404 . S
C797 H809 0.930 . S
C798 C794 1.524 . S
C798 H810 0.956 . S
C798 H811 0.961 . S
C798 H812 0.961 . S
C799 C796 1.539 . S
C799 H813 0.958 . S
C799 H814 0.961 . S
C799 H815 0.960 . S
H800 C784 0.931 . S
H801 C789 0.929 . S
H802 C790 0.960 . S
H803 C790 0.962 . S
H804 C790 0.960 . S
H805 C791 0.961 . S
H806 C791 0.961 . S
H807 C791 0.961 . S
H808 C792 0.931 . S
H809 C797 0.930 . S
H810 C798 0.956 . S
H811 C798 0.961 . S
H812 C798 0.961 . S
H813 C799 0.958 . S
H814 C799 0.961 . S
H815 C799 0.960 . S
C241 C202 1.757 . S
C249 C2 1.744 . S
C273 C10 1.399 . S
C281 C50 1.395 . S
C305 C42 1.730 . S
C313 C82 1.755 . S
C337 C90 1.369 . S
C345 C130 1.404 . S
C369 C162 1.757 . S
C377 C122 1.744 . S
C401 C210 1.394 . S
C409 C170 1.395 . S
C433 C7 1.246 . S
C441 C16 1.291 . S
C465 C56 1.250 . S
C473 C47 1.293 . S
C497 C87 1.296 . S
C505 C96 1.274 . S
C529 C136 1.258 . S
C537 C127 1.290 . S
C561 C176 1.308 . S
C569 C167 1.266 . S
C593 C216 1.303 . S
C601 C207 1.271 . S
C625 C11 1.824 . S
C633 C179 1.833 . S
C657 C59 1.830 . S
C665 C211 1.821 . S
C689 C19 1.829 . S
C697 C91 1.816 1_554 S
C721 C51 1.820 . S
C729 C139 1.832 . S
C753 C171 1.819 . S
C761 C99 1.835 . S
C785 C131 1.814 1_556 S
C793 C219 1.834 . S
