# Generated by pormake.
# Topology ung, (4)-cn, num edge types: 1
# Building blocks:
#     Node 0, Type 0, BuildingBlock: KUFVIS_clean_sbu_0, # of connection points: 4
#     Node 1, Type 0, BuildingBlock: KUFVIS_clean_sbu_0, # of connection points: 4
#     Node 2, Type 0, BuildingBlock: KUFVIS_clean_sbu_0, # of connection points: 4
#     Node 3, Type 0, BuildingBlock: KUFVIS_clean_sbu_0, # of connection points: 4
#     Node 4, Type 0, BuildingBlock: KUFVIS_clean_sbu_0, # of connection points: 4
#     Node 5, Type 0, BuildingBlock: KUFVIS_clean_sbu_0, # of connection points: 4
#     Node 6, Type 0, BuildingBlock: KUFVIS_clean_sbu_0, # of connection points: 4
#     Node 7, Type 0, BuildingBlock: KUFVIS_clean_sbu_0, # of connection points: 4
#     Node 8, Type 0, BuildingBlock: KUFVIS_clean_sbu_0, # of connection points: 4
#     Node 9, Type 0, BuildingBlock: KUFVIS_clean_sbu_0, # of connection points: 4
#     Node 10, Type 0, BuildingBlock: KUFVIS_clean_sbu_0, # of connection points: 4
#     Node 11, Type 0, BuildingBlock: KUFVIS_clean_sbu_0, # of connection points: 4
#     Node 12, Type 0, BuildingBlock: KUFVIS_clean_sbu_0, # of connection points: 4
#     Node 13, Type 0, BuildingBlock: KUFVIS_clean_sbu_0, # of connection points: 4
#     Node 14, Type 0, BuildingBlock: KUFVIS_clean_sbu_0, # of connection points: 4
#     Node 15, Type 0, BuildingBlock: KUFVIS_clean_sbu_0, # of connection points: 4
#     Node 16, Type 0, BuildingBlock: KUFVIS_clean_sbu_0, # of connection points: 4
#     Node 17, Type 0, BuildingBlock: KUFVIS_clean_sbu_0, # of connection points: 4
#     Edge 18, Type (0, 0), BuildingBlock: OJICUG_clean_linker_0, # of connection points: 2
#     Edge 19, Type (0, 0), BuildingBlock: OJICUG_clean_linker_0, # of connection points: 2
#     Edge 20, Type (0, 0), BuildingBlock: OJICUG_clean_linker_0, # of connection points: 2
#     Edge 21, Type (0, 0), BuildingBlock: OJICUG_clean_linker_0, # of connection points: 2
#     Edge 22, Type (0, 0), BuildingBlock: OJICUG_clean_linker_0, # of connection points: 2
#     Edge 23, Type (0, 0), BuildingBlock: OJICUG_clean_linker_0, # of connection points: 2
#     Edge 24, Type (0, 0), BuildingBlock: OJICUG_clean_linker_0, # of connection points: 2
#     Edge 25, Type (0, 0), BuildingBlock: OJICUG_clean_linker_0, # of connection points: 2
#     Edge 26, Type (0, 0), BuildingBlock: OJICUG_clean_linker_0, # of connection points: 2
#     Edge 27, Type (0, 0), BuildingBlock: OJICUG_clean_linker_0, # of connection points: 2
#     Edge 28, Type (0, 0), BuildingBlock: OJICUG_clean_linker_0, # of connection points: 2
#     Edge 29, Type (0, 0), BuildingBlock: OJICUG_clean_linker_0, # of connection points: 2
#     Edge 30, Type (0, 0), BuildingBlock: OJICUG_clean_linker_0, # of connection points: 2
#     Edge 31, Type (0, 0), BuildingBlock: OJICUG_clean_linker_0, # of connection points: 2
#     Edge 32, Type (0, 0), BuildingBlock: OJICUG_clean_linker_0, # of connection points: 2
#     Edge 33, Type (0, 0), BuildingBlock: OJICUG_clean_linker_0, # of connection points: 2
#     Edge 34, Type (0, 0), BuildingBlock: OJICUG_clean_linker_0, # of connection points: 2
#     Edge 35, Type (0, 0), BuildingBlock: OJICUG_clean_linker_0, # of connection points: 2
#     Edge 36, Type (0, 0), BuildingBlock: OJICUG_clean_linker_0, # of connection points: 2
#     Edge 37, Type (0, 0), BuildingBlock: OJICUG_clean_linker_0, # of connection points: 2
#     Edge 38, Type (0, 0), BuildingBlock: OJICUG_clean_linker_0, # of connection points: 2
#     Edge 39, Type (0, 0), BuildingBlock: OJICUG_clean_linker_0, # of connection points: 2
#     Edge 40, Type (0, 0), BuildingBlock: OJICUG_clean_linker_0, # of connection points: 2
#     Edge 41, Type (0, 0), BuildingBlock: OJICUG_clean_linker_0, # of connection points: 2
#     Edge 42, Type (0, 0), BuildingBlock: OJICUG_clean_linker_0, # of connection points: 2
#     Edge 43, Type (0, 0), BuildingBlock: OJICUG_clean_linker_0, # of connection points: 2
#     Edge 44, Type (0, 0), BuildingBlock: OJICUG_clean_linker_0, # of connection points: 2
#     Edge 45, Type (0, 0), BuildingBlock: OJICUG_clean_linker_0, # of connection points: 2
#     Edge 46, Type (0, 0), BuildingBlock: OJICUG_clean_linker_0, # of connection points: 2
#     Edge 47, Type (0, 0), BuildingBlock: OJICUG_clean_linker_0, # of connection points: 2
#     Edge 48, Type (0, 0), BuildingBlock: OJICUG_clean_linker_0, # of connection points: 2
#     Edge 49, Type (0, 0), BuildingBlock: OJICUG_clean_linker_0, # of connection points: 2
#     Edge 50, Type (0, 0), BuildingBlock: OJICUG_clean_linker_0, # of connection points: 2
#     Edge 51, Type (0, 0), BuildingBlock: OJICUG_clean_linker_0, # of connection points: 2
#     Edge 52, Type (0, 0), BuildingBlock: OJICUG_clean_linker_0, # of connection points: 2
#     Edge 53, Type (0, 0), BuildingBlock: OJICUG_clean_linker_0, # of connection points: 2
# Relax obj value: 0.111
# Max RMSD: 0.237
# Mean RMSD: 0.223
data_MOF--net-ung--node1-KUFVIS_clean_sbu_0--edge1-OJICUG_clean_linker_0
_symmetry_space_group_name_H-M    P1
_symmetry_Int_Tables_number       1
_symmetry_cell_setting            triclinic
loop_
_symmetry_equiv_pos_as_xyz
'x, y, z'
_cell_length_a     52.351348
_cell_length_b     53.298666
_cell_length_c     16.160773
_cell_angle_alpha  89.961642
_cell_angle_beta   89.05373
_cell_angle_gamma 120.58886
loop_
_atom_site_label
_atom_site_type_symbol
_atom_site_fract_x
_atom_site_fract_y
_atom_site_fract_z
_atom_type_partial_charge
Mn0 Mn 0.09321 0.63814 0.27578 0.0
Mn1 Mn 0.02105 0.58765 0.25858 0.0
C2 C 0.06477 0.64569 0.18243 0.0
C3 C 0.12642 0.67929 0.35063 0.0
C4 C 0.07096 0.58208 0.17755 0.0
O5 O 0.0852 0.61156 0.37494 0.0
O6 O 0.03589 0.58172 0.36582 0.0
C7 C 0.99792 0.60844 0.39386 0.0
N8 N 0.99823 0.60188 0.31255 0.0
C9 C 0.96333 0.61698 0.27984 0.0
C10 C 0.96245 0.62367 0.36337 0.0
C11 C 0.97984 0.61939 0.42059 0.0
C12 C 0.98164 0.60597 0.25694 0.0
H13 H 0.0115 0.60548 0.43785 0.0
C14 C 0.06058 0.59061 0.40233 0.0
O15 O 0.13589 0.66427 0.31065 0.0
O16 O 0.09843 0.66997 0.34826 0.0
N17 N 0.00355 0.59055 0.15865 0.0
C18 C 0.0071 0.58321 0.08031 0.0
C19 C 0.99132 0.5863 0.01553 0.0
C20 C 0.97195 0.59674 0.03201 0.0
C21 C 0.96822 0.60359 0.11339 0.0
C22 C 0.98422 0.59968 0.17559 0.0
H23 H 0.02202 0.57526 0.06723 0.0
O24 O 0.09346 0.66094 0.17736 0.0
O25 O 0.05376 0.62745 0.24449 0.0
O26 O 0.09298 0.60688 0.19869 0.0
O27 O 0.04395 0.57292 0.19961 0.0
C28 C 0.94949 0.61445 0.13509 0.0
C29 C 0.9471 0.62121 0.21823 0.0
H30 H 0.94867 0.63228 0.38415 0.0
H31 H 0.97941 0.62466 0.48506 0.0
H32 H 0.99423 0.58084 0.95295 0.0
H33 H 0.96009 0.59942 0.98173 0.0
H34 H 0.93699 0.61789 0.08825 0.0
H35 H 0.93283 0.62978 0.23403 0.0
Mn36 Mn 0.51329 0.49348 0.22435 0.0
Mn37 Mn 0.48956 0.54125 0.23801 0.0
C38 C 0.47639 0.48516 0.31935 0.0
C39 C 0.50639 0.45225 0.15288 0.0
C40 C 0.54598 0.55097 0.31894 0.0
O41 O 0.53161 0.51879 0.12234 0.0
O42 O 0.51196 0.54763 0.131 0.0
C43 C 0.44633 0.51752 0.10271 0.0
N44 N 0.45234 0.52476 0.18377 0.0
C45 C 0.40086 0.5072 0.21576 0.0
C46 C 0.39416 0.49978 0.13247 0.0
C47 C 0.417 0.50495 0.07574 0.0
C48 C 0.43053 0.51985 0.2389 0.0
H49 H 0.46377 0.52118 0.05909 0.0
C50 C 0.52801 0.53903 0.09414 0.0
O51 O 0.53116 0.4688 0.19086 0.0
O52 O 0.48679 0.45999 0.1558 0.0
N53 N 0.46751 0.53771 0.33738 0.0
C54 C 0.47762 0.54563 0.41574 0.0
C55 C 0.4575 0.54156 0.48018 0.0
C56 C 0.42726 0.52957 0.46333 0.0
C57 C 0.41747 0.52207 0.38195 0.0
C58 C 0.43861 0.52695 0.32011 0.0
H59 H 0.50081 0.55473 0.42914 0.0
O60 O 0.49077 0.47141 0.3255 0.0
O61 O 0.48324 0.50236 0.25524 0.0
O62 O 0.5443 0.5269 0.29754 0.0
O63 O 0.52723 0.55833 0.29726 0.0
C64 C 0.38752 0.5096 0.35996 0.0
C65 C 0.37921 0.50212 0.27695 0.0
H66 H 0.37154 0.4899 0.11152 0.0
H67 H 0.41198 0.49912 0.01146 0.0
H68 H 0.46525 0.54748 0.54278 0.0
H69 H 0.41176 0.52616 0.51335 0.0
H70 H 0.37065 0.50543 0.40651 0.0
H71 H 0.35607 0.4923 0.26093 0.0
Mn72 Mn 0.67975 0.06426 0.24314 0.0
Mn73 Mn 0.68019 0.12758 0.24659 0.0
C74 C 0.72086 0.10638 0.19007 0.0
C75 C 0.68704 0.03072 0.31634 0.0
C76 C 0.64834 0.08167 0.11602 0.0
O77 O 0.64489 0.05487 0.32021 0.0
O78 O 0.64887 0.09873 0.32332 0.0
C79 C 0.70031 0.14318 0.41879 0.0
N80 N 0.70394 0.15001 0.33656 0.0
C81 C 0.74419 0.1984 0.36247 0.0
C82 C 0.74092 0.19198 0.44751 0.0
C83 C 0.71907 0.16413 0.47571 0.0
C84 C 0.72561 0.17629 0.30851 0.0
H85 H 0.68312 0.12199 0.44078 0.0
C86 C 0.63652 0.07205 0.34651 0.0
O87 O 0.67015 0.02274 0.25209 0.0
O88 O 0.7001 0.05794 0.3363 0.0
N89 N 0.70898 0.15819 0.17688 0.0
C90 C 0.70848 0.16113 0.09326 0.0
C91 C 0.7284 0.18792 0.05514 0.0
C92 C 0.74783 0.21165 0.10369 0.0
C93 C 0.7478 0.20819 0.18974 0.0
C94 C 0.72797 0.18079 0.22402 0.0
H95 H 0.69272 0.1433 0.05601 0.0
O96 O 0.71647 0.08077 0.17245 0.0
O97 O 0.7019 0.10671 0.24271 0.0
O98 O 0.65554 0.06343 0.14241 0.0
O99 O 0.65598 0.10586 0.15147 0.0
C100 C 0.76566 0.23115 0.24329 0.0
C101 C 0.76444 0.22612 0.32931 0.0
H102 H 0.75489 0.20833 0.4917 0.0
H103 H 0.71636 0.15899 0.54122 0.0
H104 H 0.72816 0.19051 0.98879 0.0
H105 H 0.76212 0.23256 0.07426 0.0
H106 H 0.78008 0.25292 0.21934 0.0
H107 H 0.77861 0.24392 0.36954 0.0
Mn108 Mn 0.08367 0.48663 0.76499 0.0
Mn109 Mn 0.01341 0.4712 0.79474 0.0
C110 C 0.04469 0.44632 0.69929 0.0
C111 C 0.12308 0.4822 0.81385 0.0
C112 C 0.05737 0.51899 0.67734 0.0
O113 O 0.08708 0.51199 0.86407 0.0
O114 O 0.03864 0.49578 0.886 0.0
C115 C 0.9989 0.43462 0.94584 0.0
N116 N 0.99242 0.43844 0.86727 0.0
C117 C 0.94446 0.39495 0.87664 0.0
C118 C 0.95037 0.39061 0.95809 0.0
C119 C 0.97793 0.4103 0.99238 0.0
C120 C 0.96673 0.41882 0.8322 0.0
H121 H 0.0198 0.4501 0.97273 0.0
C122 C 0.06585 0.51107 0.9063 0.0
O123 O 0.12796 0.50348 0.76439 0.0
O124 O 0.09574 0.46372 0.83402 0.0
N125 N 0.98579 0.44741 0.713 0.0
C126 C 0.98421 0.45407 0.63255 0.0
C127 C 0.95838 0.43618 0.58825 0.0
C128 C 0.93412 0.41232 0.62806 0.0
C129 C 0.93634 0.40591 0.7109 0.0
C130 C 0.96305 0.42378 0.75073 0.0
H131 H 0.00231 0.47311 0.60282 0.0
O132 O 0.072 0.45737 0.67383 0.0
O133 O 0.04114 0.45834 0.76502 0.0
O134 O 0.07904 0.51463 0.68678 0.0
O135 O 0.03277 0.50478 0.7175 0.0
C136 C 0.9128 0.38319 0.75659 0.0
C137 C 0.91705 0.37717 0.83862 0.0
H138 H 0.93391 0.37232 0.99487 0.0
H139 H 0.98275 0.40708 0.05506 0.0
H140 H 0.95684 0.44129 0.52437 0.0
H141 H 0.91384 0.39927 0.59458 0.0
H142 H 0.89123 0.37028 0.72946 0.0
H143 H 0.89895 0.35912 0.87227 0.0
Mn144 Mn 0.66075 0.63824 0.72374 0.0
Mn145 Mn 0.61307 0.66308 0.71714 0.0
C146 C 0.66848 0.67674 0.80697 0.0
C147 C 0.70248 0.64033 0.66179 0.0
C148 C 0.6008 0.60959 0.81724 0.0
O149 O 0.63633 0.61809 0.62277 0.0
O150 O 0.60817 0.63871 0.61807 0.0
C151 C 0.64068 0.70216 0.57178 0.0
N152 N 0.63149 0.69823 0.65255 0.0
C153 C 0.64905 0.74938 0.6676 0.0
C154 C 0.65845 0.75392 0.58436 0.0
C155 C 0.65428 0.73021 0.53631 0.0
C156 C 0.63556 0.72092 0.69947 0.0
H157 H 0.63778 0.68406 0.53482 0.0
C158 C 0.61683 0.62188 0.58862 0.0
O159 O 0.68414 0.61794 0.70715 0.0
O160 O 0.69659 0.66092 0.65294 0.0
N161 N 0.61501 0.68713 0.80761 0.0
C162 C 0.60455 0.67905 0.88676 0.0
C163 C 0.60706 0.70023 0.943 0.0
C164 C 0.62 0.72943 0.91709 0.0
C165 C 0.62988 0.7371 0.83477 0.0
C166 C 0.62649 0.71498 0.78128 0.0
H167 H 0.59467 0.65667 0.90715 0.0
O168 O 0.68201 0.66253 0.82104 0.0
O169 O 0.6522 0.66912 0.74125 0.0
O170 O 0.62528 0.61044 0.7999 0.0
O171 O 0.59386 0.62756 0.78718 0.0
C172 C 0.64321 0.76587 0.80389 0.0
C173 C 0.65287 0.77202 0.72042 0.0
H174 H 0.66906 0.77554 0.55686 0.0
H175 H 0.66164 0.73357 0.47217 0.0
H176 H 0.59922 0.6941 0.0063 0.0
H177 H 0.62219 0.74576 0.96087 0.0
H178 H 0.64631 0.78346 0.84392 0.0
H179 H 0.66329 0.79425 0.69756 0.0
Mn180 Mn 0.52742 0.06521 0.73963 0.0
Mn181 Mn 0.51738 0.99801 0.76249 0.0
C182 C 0.49362 0.03421 0.83649 0.0
C183 C 0.51437 0.09415 0.66321 0.0
C184 C 0.5676 0.05122 0.84319 0.0
O185 O 0.54829 0.0612 0.63993 0.0
O186 O 0.54069 0.01614 0.65715 0.0
C187 C 0.47708 0.9718 0.62141 0.0
N188 N 0.48223 0.97225 0.70389 0.0
C189 C 0.4323 0.93304 0.73097 0.0
C190 C 0.42654 0.932 0.64622 0.0
C191 C 0.44904 0.95148 0.59124 0.0
C192 C 0.4607 0.95369 0.75737 0.0
H193 H 0.49419 0.98693 0.57903 0.0
C194 C 0.5515 0.04023 0.6166 0.0
O195 O 0.53941 0.10607 0.70212 0.0
O196 O 0.49772 0.06619 0.66891 0.0
N197 N 0.49535 0.97753 0.86002 0.0
C198 C 0.50472 0.98096 0.93959 0.0
C199 C 0.48491 0.96303 0.00235 0.0
C200 C 0.4558 0.94163 0.98256 0.0
C201 C 0.44692 0.93799 0.89991 0.0
C202 C 0.46775 0.95628 0.83991 0.0
H203 H 0.52704 0.99745 0.95519 0.0
O204 O 0.50334 0.06193 0.83918 0.0
O205 O 0.50296 0.0253 0.77399 0.0
O206 O 0.56142 0.06998 0.81425 0.0
O207 O 0.55289 0.02399 0.82639 0.0
C208 C 0.41821 0.91702 0.87475 0.0
C209 C 0.41088 0.91459 0.79036 0.0
H210 H 0.4049 0.91645 0.62274 0.0
H211 H 0.44472 0.95092 0.5258 0.0
H212 H 0.49199 0.96585 0.0659 0.0
H213 H 0.44049 0.92805 0.03124 0.0
H214 H 0.40157 0.9027 0.91981 0.0
H215 H 0.3887 0.89846 0.7718 0.0
Mn216 Mn 0.76785 0.97515 0.60008 0.0
Mn217 Mn 0.69859 0.9175 0.58993 0.0
C218 C 0.73466 0.97785 0.51489 0.0
C219 C 0.79888 0.01682 0.67665 0.0
C220 C 0.74999 0.92178 0.48916 0.0
O221 O 0.76601 0.94977 0.69468 0.0
O222 O 0.71953 0.91211 0.68568 0.0
C223 C 0.67643 0.93023 0.7446 0.0
N224 N 0.67459 0.92609 0.66126 0.0
C225 C 0.63471 0.93604 0.65353 0.0
C226 C 0.63603 0.9402 0.73937 0.0
C227 C 0.657 0.93729 0.78507 0.0
C228 C 0.65459 0.92895 0.61666 0.0
H229 H 0.6927 0.9283 0.77986 0.0
C230 C 0.74507 0.92515 0.71948 0.0
O231 O 0.8102 0.00476 0.63034 0.0
O232 O 0.77042 0.00476 0.67776 0.0
N233 N 0.67538 0.91907 0.50203 0.0
C234 C 0.67637 0.91342 0.42018 0.0
C235 C 0.6567 0.91523 0.36582 0.0
C236 C 0.63601 0.92247 0.39632 0.0
C237 C 0.63481 0.92731 0.48121 0.0
C238 C 0.65481 0.92496 0.53248 0.0
H239 H 0.69229 0.90793 0.39641 0.0
O240 O 0.76282 0.9964 0.5071 0.0
O241 O 0.72662 0.95926 0.5764 0.0
O242 O 0.77031 0.94663 0.51664 0.0
O243 O 0.72277 0.90898 0.51353 0.0
C244 C 0.61459 0.93442 0.51695 0.0
C245 C 0.61458 0.93884 0.60303 0.0
H246 H 0.62115 0.94574 0.77078 0.0
H247 H 0.65825 0.9406 0.85129 0.0
H248 H 0.6576 0.91123 0.3005 0.0
H249 H 0.62104 0.92409 0.3541 0.0
H250 H 0.59898 0.93657 0.4788 0.0
H251 H 0.59898 0.94436 0.62977 0.0
Mn252 Mn 0.19624 0.82033 0.64491 0.0
Mn253 Mn 0.20593 0.88713 0.67625 0.0
C254 C 0.16024 0.82528 0.71855 0.0
C255 C 0.18084 0.78063 0.55619 0.0
C256 C 0.23538 0.86199 0.77902 0.0
O257 O 0.23003 0.84562 0.56401 0.0
O258 O 0.23362 0.88862 0.58945 0.0
C259 C 0.18483 0.89341 0.51328 0.0
N260 N 0.18325 0.89373 0.59744 0.0
C261 C 0.15097 0.91335 0.59381 0.0
C262 C 0.15211 0.91321 0.50704 0.0
C263 C 0.16883 0.90283 0.46658 0.0
C264 C 0.16614 0.9023 0.63693 0.0
H265 H 0.19848 0.88636 0.48213 0.0
C266 C 0.24193 0.87292 0.55168 0.0
O267 O 0.19975 0.78562 0.61411 0.0
O268 O 0.17075 0.79829 0.55142 0.0
N269 N 0.18137 0.89064 0.75833 0.0
C270 C 0.18377 0.89054 0.84213 0.0
C271 C 0.16936 0.90128 0.892 0.0
C272 C 0.15368 0.91311 0.85505 0.0
C273 C 0.15159 0.91308 0.76862 0.0
C274 C 0.1656 0.90121 0.72225 0.0
H275 H 0.19723 0.88303 0.87055 0.0
O276 O 0.16139 0.80158 0.72328 0.0
O277 O 0.17928 0.84502 0.6671 0.0
O278 O 0.2247 0.83739 0.74306 0.0
O279 O 0.22952 0.8817 0.75949 0.0
C280 C 0.13762 0.92585 0.72633 0.0
C281 C 0.13653 0.92521 0.63921 0.0
H282 H 0.14056 0.92136 0.47092 0.0
H283 H 0.16997 0.90279 0.39966 0.0
H284 H 0.1713 0.9015 0.9586 0.0
H285 H 0.14411 0.92287 0.89369 0.0
H286 H 0.12801 0.93666 0.75982 0.0
H287 H 0.12533 0.93474 0.60772 0.0
Mn288 Mn 0.32811 0.38386 0.5765 0.0
Mn289 Mn 0.26919 0.31708 0.55464 0.0
C290 C 0.32801 0.34437 0.64105 0.0
C291 C 0.37163 0.42034 0.51431 0.0
C292 C 0.27035 0.36229 0.67234 0.0
O293 O 0.30479 0.38932 0.48502 0.0
O294 O 0.27192 0.34239 0.46027 0.0
C295 C 0.28789 0.29882 0.40362 0.0
N296 N 0.27793 0.29378 0.48368 0.0
C297 C 0.26655 0.24415 0.47799 0.0
C298 C 0.2766 0.24865 0.39529 0.0
C299 C 0.28779 0.27627 0.35835 0.0
C300 C 0.26876 0.26788 0.52115 0.0
H301 H 0.29548 0.31975 0.37449 0.0
C302 C 0.28443 0.36951 0.44195 0.0
O303 O 0.35794 0.42668 0.57093 0.0
O304 O 0.36069 0.39316 0.49631 0.0
N305 N 0.26298 0.2895 0.63942 0.0
C306 C 0.25501 0.28916 0.72026 0.0
C307 C 0.24326 0.2632 0.76651 0.0
C308 C 0.23888 0.23769 0.72832 0.0
C309 C 0.24767 0.23869 0.6453 0.0
C310 C 0.26034 0.26545 0.6034 0.0
H311 H 0.25689 0.30833 0.74865 0.0
O312 O 0.34663 0.37103 0.66155 0.0
O313 O 0.3112 0.34171 0.57915 0.0
O314 O 0.29782 0.38153 0.66307 0.0
O315 O 0.25761 0.33881 0.63056 0.0
C316 C 0.24319 0.21401 0.60128 0.0
C317 C 0.25334 0.21686 0.5184 0.0
H318 H 0.2756 0.23102 0.35943 0.0
H319 H 0.29554 0.27994 0.29455 0.0
H320 H 0.23657 0.2626 0.83054 0.0
H321 H 0.22836 0.21742 0.76313 0.0
H322 H 0.23214 0.19269 0.63054 0.0
H323 H 0.25043 0.19782 0.48598 0.0
Mn324 Mn 0.75366 0.81617 0.09016 0.0
Mn325 Mn 0.82314 0.87399 0.09357 0.0
C326 C 0.7894 0.81201 0.15916 0.0
C327 C 0.71996 0.77662 0.01173 0.0
C328 C 0.77414 0.86733 0.21091 0.0
O329 O 0.75259 0.84358 0.00623 0.0
O330 O 0.79997 0.88006 0.00581 0.0
C331 C 0.8422 0.86368 0.92997 0.0
N332 N 0.84586 0.86683 0.01331 0.0
C333 C 0.88647 0.85783 0.00652 0.0
C334 C 0.88328 0.85472 0.92052 0.0
C335 C 0.86103 0.85763 0.88212 0.0
C336 C 0.86708 0.86389 0.05094 0.0
H337 H 0.82495 0.86563 0.90028 0.0
C338 C 0.77337 0.86793 0.97896 0.0
O339 O 0.71054 0.7871 0.06958 0.0
O340 O 0.74829 0.78868 0.00096 0.0
N341 N 0.84841 0.87171 0.17367 0.0
C342 C 0.84926 0.87645 0.25671 0.0
C343 C 0.87041 0.87454 0.30436 0.0
C344 C 0.89073 0.86821 0.266 0.0
C345 C 0.89008 0.86441 0.18006 0.0
C346 C 0.86864 0.86679 0.13572 0.0
H347 H 0.83367 0.88129 0.28653 0.0
O348 O 0.76154 0.79294 0.17058 0.0
O349 O 0.79562 0.83201 0.10281 0.0
O350 O 0.75357 0.8424 0.18492 0.0
O351 O 0.80045 0.88122 0.17931 0.0
C352 C 0.90984 0.85833 0.13664 0.0
C353 C 0.90799 0.85497 0.04995 0.0
H354 H 0.89772 0.84998 0.88342 0.0
H355 H 0.85834 0.85512 0.81584 0.0
H356 H 0.87095 0.87779 0.37054 0.0
H357 H 0.90685 0.86652 0.30304 0.0
H358 H 0.92654 0.85618 0.16931 0.0
H359 H 0.92326 0.85023 0.01728 0.0
Mn360 Mn 0.35152 0.97312 0.13472 0.0
Mn361 Mn 0.28349 0.96507 0.15073 0.0
C362 C 0.34607 0.01056 0.19063 0.0
C363 C 0.39309 0.98475 0.05278 0.0
C364 C 0.30615 0.93804 0.27164 0.0
O365 O 0.32691 0.93802 0.06208 0.0
O366 O 0.28302 0.93568 0.07497 0.0
C367 C 0.28037 0.98202 0.9786 0.0
N368 N 0.27904 0.98588 0.06154 0.0
C369 C 0.26297 0.02023 0.03958 0.0
C370 C 0.26418 0.01671 0.95387 0.0
C371 C 0.27321 0.99772 0.92323 0.0
C372 C 0.2715 0.00488 0.09157 0.0
H373 H 0.28656 0.96686 0.95497 0.0
C374 C 0.29951 0.92637 0.04626 0.0
O375 O 0.38662 0.96819 0.11795 0.0
O376 O 0.37598 0.99504 0.03647 0.0
N377 N 0.2794 0.99146 0.22159 0.0
C378 C 0.27799 0.99119 0.30587 0.0
C379 C 0.26852 0.00835 0.34663 0.0
C380 C 0.25951 0.02468 0.30031 0.0
C381 C 0.2608 0.02435 0.21358 0.0
C382 C 0.27124 0.00751 0.17643 0.0
H383 H 0.28359 0.9776 0.34165 0.0
O384 O 0.36981 0.00926 0.2025 0.0
O385 O 0.32664 0.99064 0.14226 0.0
O386 O 0.33195 0.94793 0.23907 0.0
O387 O 0.28664 0.94338 0.24442 0.0
C388 C 0.25078 0.03888 0.16245 0.0
C389 C 0.25255 0.03745 0.07561 0.0
H390 H 0.25791 0.02823 0.91111 0.0
H391 H 0.27408 0.99477 0.8572 0.0
H392 H 0.26729 0.00828 0.41355 0.0
H393 H 0.25093 0.03676 0.33215 0.0
H394 H 0.24111 0.05079 0.18897 0.0
H395 H 0.24504 0.04901 0.03719 0.0
Mn396 Mn 0.19059 0.40558 0.07019 0.0
Mn397 Mn 0.16538 0.33418 0.09706 0.0
C398 C 0.15302 0.37971 0.16597 0.0
C399 C 0.18485 0.43774 0.98353 0.0
C400 C 0.22266 0.38224 0.17202 0.0
O401 O 0.21007 0.39592 0.97601 0.0
O402 O 0.18562 0.34707 0.98643 0.0
C403 C 0.11938 0.31215 0.96895 0.0
N404 N 0.12702 0.31261 0.04931 0.0
C405 C 0.07616 0.27977 0.09051 0.0
C406 C 0.06777 0.27875 0.00805 0.0
C407 C 0.08947 0.29505 0.94706 0.0
C408 C 0.10629 0.29719 0.10858 0.0
H409 H 0.13597 0.32487 0.92205 0.0
C410 C 0.20391 0.37105 0.9494 0.0
O411 O 0.20868 0.44724 0.02727 0.0
O412 O 0.16522 0.41053 0.99113 0.0
N413 N 0.14529 0.31824 0.20074 0.0
C414 C 0.15716 0.32111 0.27703 0.0
C415 C 0.13845 0.30596 0.3449 0.0
C416 C 0.10781 0.28776 0.33351 0.0
C417 C 0.09623 0.28449 0.25403 0.0
C418 C 0.11603 0.29984 0.18857 0.0
H419 H 0.18069 0.33497 0.28618 0.0
O420 O 0.16699 0.4079 0.16502 0.0
O421 O 0.16031 0.36767 0.10745 0.0
O422 O 0.22044 0.40443 0.15147 0.0
O423 O 0.20433 0.35602 0.14995 0.0
C424 C 0.06582 0.2667 0.23723 0.0
C425 C 0.05577 0.26444 0.15558 0.0
H426 H 0.04472 0.26566 0.99095 0.0
H427 H 0.08315 0.29451 0.88337 0.0
H428 H 0.1476 0.30841 0.40592 0.0
H429 H 0.09341 0.27637 0.38616 0.0
H430 H 0.04994 0.25479 0.28671 0.0
H431 H 0.03232 0.25084 0.1435 0.0
Mn432 Mn 0.43565 0.3105 0.86149 0.0
Mn433 Mn 0.37812 0.24205 0.84091 0.0
C434 C 0.3936 0.30273 0.79046 0.0
C435 C 0.46013 0.35101 0.94794 0.0
C436 C 0.43372 0.26767 0.73319 0.0
O437 O 0.44542 0.2871 0.94185 0.0
O438 O 0.40427 0.2433 0.92963 0.0
C439 C 0.34866 0.23793 0.00215 0.0
N440 N 0.34751 0.23581 0.91819 0.0
C441 C 0.29461 0.21462 0.92096 0.0
C442 C 0.29511 0.21665 0.00754 0.0
C443 C 0.32233 0.2287 0.04825 0.0
C444 C 0.32173 0.22561 0.87819 0.0
H445 H 0.36947 0.24629 0.03355 0.0
C446 C 0.42951 0.26023 0.96103 0.0
O447 O 0.47435 0.3466 0.8884 0.0
O448 O 0.43194 0.33244 0.95521 0.0
N449 N 0.35028 0.23574 0.75731 0.0
C450 C 0.35364 0.23384 0.67418 0.0
C451 C 0.32848 0.22018 0.62473 0.0
C452 C 0.30015 0.20786 0.66163 0.0
C453 C 0.29717 0.21062 0.74702 0.0
C454 C 0.32308 0.22485 0.793 0.0
H455 H 0.37527 0.24164 0.64623 0.0
O456 O 0.41854 0.32724 0.78409 0.0
O457 O 0.39337 0.28403 0.84297 0.0
O458 O 0.44708 0.29348 0.76246 0.0
O459 O 0.40849 0.24713 0.75912 0.0
C460 C 0.26954 0.19818 0.78915 0.0
C461 C 0.26825 0.20096 0.87569 0.0
H462 H 0.27472 0.20866 0.0434 0.0
H463 H 0.32291 0.2302 0.11505 0.0
H464 H 0.33087 0.21795 0.55892 0.0
H465 H 0.28093 0.19537 0.62407 0.0
H466 H 0.24909 0.186 0.75597 0.0
H467 H 0.24685 0.19156 0.90708 0.0
Mn468 Mn 0.86895 0.1525 0.9944 0.0
Mn469 Mn 0.88309 0.221 0.02374 0.0
C470 C 0.83468 0.15997 0.06798 0.0
C471 C 0.85136 0.11309 0.90327 0.0
C472 C 0.9106 0.1935 0.12516 0.0
O473 O 0.90328 0.17619 0.91464 0.0
O474 O 0.90908 0.22041 0.93481 0.0
C475 C 0.86252 0.22988 0.86317 0.0
N476 N 0.86115 0.22959 0.94743 0.0
C477 C 0.83302 0.25378 0.94789 0.0
C478 C 0.83388 0.25419 0.86105 0.0
C479 C 0.84841 0.24187 0.8185 0.0
C480 C 0.84621 0.24024 0.98893 0.0
H481 H 0.87475 0.22153 0.83047 0.0
C482 C 0.91627 0.20337 0.89988 0.0
O483 O 0.86976 0.11642 0.96123 0.0
O484 O 0.84287 0.13203 0.90044 0.0
N485 N 0.86049 0.2264 0.10819 0.0
C486 C 0.86339 0.22585 0.19169 0.0
C487 C 0.85129 0.23843 0.24349 0.0
C488 C 0.83736 0.25242 0.20874 0.0
C489 C 0.83464 0.25276 0.12255 0.0
C490 C 0.84627 0.239 0.07422 0.0
H491 H 0.87562 0.21664 0.21838 0.0
O492 O 0.83419 0.13542 0.07241 0.0
O493 O 0.85435 0.17916 0.01638 0.0
O494 O 0.89762 0.16817 0.09268 0.0
O495 O 0.90635 0.21412 0.10411 0.0
C496 C 0.82238 0.2676 0.08238 0.0
C497 C 0.82092 0.26751 0.99529 0.0
H498 H 0.82392 0.26435 0.82647 0.0
H499 H 0.84949 0.24241 0.75153 0.0
H500 H 0.85374 0.23837 0.30985 0.0
H501 H 0.82951 0.26344 0.24887 0.0
H502 H 0.81424 0.27944 0.11758 0.0
H503 H 0.8112 0.27879 0.96537 0.0
Mn504 Mn 0.00806 0.73341 0.91468 0.0
Mn505 Mn 0.00705 0.79591 0.91528 0.0
C506 C 0.04714 0.77495 0.85154 0.0
C507 C 0.01873 0.70197 0.98604 0.0
C508 C 0.97196 0.74714 0.79452 0.0
O509 O 0.9754 0.72478 0.99975 0.0
O510 O 0.97847 0.7682 0.9991 0.0
C511 C 0.03164 0.8152 0.08201 0.0
N512 N 0.03264 0.82054 0.99924 0.0
C513 C 0.06935 0.87097 0.0164 0.0
C514 C 0.06885 0.86613 0.10189 0.0
C515 C 0.05019 0.838 0.1347 0.0
C516 C 0.05154 0.84709 0.96657 0.0
H517 H 0.01656 0.79382 0.10763 0.0
C518 C 0.96732 0.74214 0.02656 0.0
O519 O 0.99971 0.69245 0.92661 0.0
O520 O 0.03178 0.72948 0.00251 0.0
N521 N 0.03313 0.82572 0.83906 0.0
C522 C 0.03031 0.82678 0.75568 0.0
C523 C 0.0467 0.85349 0.71331 0.0
C524 C 0.06486 0.87898 0.75756 0.0
C525 C 0.06749 0.87737 0.84339 0.0
C526 C 0.05139 0.84999 0.88181 0.0
H527 H 0.01508 0.80752 0.7221 0.0
O528 O 0.04241 0.74914 0.83534 0.0
O529 O 0.02969 0.77596 0.90832 0.0
O530 O 0.98037 0.7298 0.82022 0.0
O531 O 0.9805 0.77205 0.8264 0.0
C532 C 0.08416 0.902 0.89307 0.0
C533 C 0.0858 0.89872 0.97908 0.0
H534 H 0.08243 0.88389 0.14297 0.0
H535 H 0.04956 0.83408 0.20062 0.0
H536 H 0.04447 0.85461 0.64716 0.0
H537 H 0.0761 0.8997 0.72511 0.0
H538 H 0.09565 0.92367 0.86626 0.0
H539 H 0.09912 0.91781 0.01619 0.0
Mn540 Mn 0.43903 0.15968 0.36477 0.0
Mn541 Mn 0.37925 0.16678 0.34426 0.0
C542 C 0.39757 0.12357 0.29695 0.0
C543 C 0.46443 0.14448 0.4504 0.0
C544 C 0.43342 0.19767 0.23232 0.0
O545 O 0.44736 0.19195 0.44546 0.0
O546 O 0.40677 0.19502 0.42591 0.0
C547 C 0.35393 0.14626 0.51245 0.0
N548 N 0.35092 0.14408 0.42879 0.0
C549 C 0.29847 0.11064 0.44252 0.0
C550 C 0.30093 0.11239 0.5289 0.0
C551 C 0.32887 0.13004 0.56402 0.0
C552 C 0.32444 0.12626 0.3944 0.0
H553 H 0.37522 0.16055 0.53953 0.0
C554 C 0.43169 0.20347 0.45979 0.0
O555 O 0.4785 0.16371 0.39188 0.0
O556 O 0.43618 0.1342 0.45727 0.0
N557 N 0.34997 0.14159 0.26801 0.0
C558 C 0.35135 0.14323 0.1838 0.0
C559 C 0.32521 0.12757 0.13883 0.0
C560 C 0.29784 0.11132 0.181 0.0
C561 C 0.29694 0.11 0.26779 0.0
C562 C 0.32383 0.12529 0.30915 0.0
H563 H 0.37214 0.15694 0.15132 0.0
O564 O 0.42349 0.12626 0.28745 0.0
O565 O 0.39632 0.14155 0.3494 0.0
O566 O 0.44901 0.18829 0.26607 0.0
O567 O 0.40712 0.19039 0.25551 0.0
C568 C 0.27037 0.09532 0.31509 0.0
C569 C 0.27117 0.09502 0.40225 0.0
H570 H 0.28149 0.10057 0.56878 0.0
H571 H 0.33096 0.13166 0.63059 0.0
H572 H 0.32602 0.12884 0.07192 0.0
H573 H 0.27764 0.10051 0.14598 0.0
H574 H 0.24908 0.08438 0.28543 0.0
H575 H 0.25059 0.08332 0.43771 0.0
Mn576 Mn 0.01524 0.30859 0.48859 0.0
Mn577 Mn 0.94309 0.28694 0.51415 0.0
C578 C 0.00249 0.33911 0.55779 0.0
C579 C 0.05617 0.32843 0.3998 0.0
C580 C 0.97519 0.26483 0.61861 0.0
O581 O 0.99461 0.2734 0.41335 0.0
O582 O 0.94802 0.26472 0.42379 0.0
C583 C 0.93389 0.3083 0.35512 0.0
N584 N 0.9325 0.30765 0.43936 0.0
C585 C 0.90462 0.33209 0.44155 0.0
C586 C 0.90591 0.33329 0.35474 0.0
C587 C 0.92088 0.32158 0.31135 0.0
C588 C 0.91927 0.31988 0.48178 0.0
H589 H 0.94448 0.29836 0.32175 0.0
C590 C 0.9674 0.25925 0.39426 0.0
O591 O 0.05408 0.31184 0.4616 0.0
O592 O 0.03498 0.334 0.39082 0.0
N593 N 0.9333 0.30527 0.60009 0.0
C594 C 0.93192 0.29995 0.68302 0.0
C595 C 0.91524 0.30751 0.73496 0.0
C596 C 0.89951 0.31972 0.70084 0.0
C597 C 0.90179 0.32571 0.61561 0.0
C598 C 0.919 0.31794 0.56697 0.0
H599 H 0.94242 0.28886 0.70896 0.0
O600 O 0.02895 0.34293 0.56169 0.0
O601 O 0.9846 0.31863 0.50782 0.0
O602 O 0.00144 0.2815 0.5901 0.0
O603 O 0.95224 0.26484 0.5933 0.0
C604 C 0.88614 0.33729 0.57624 0.0
C605 C 0.8882 0.34122 0.48955 0.0
H606 H 0.89504 0.34266 0.32077 0.0
H607 H 0.92171 0.32213 0.24437 0.0
H608 H 0.91342 0.30273 0.80063 0.0
H609 H 0.88497 0.32346 0.74051 0.0
H610 H 0.87205 0.34287 0.61166 0.0
H611 H 0.87614 0.35025 0.46021 0.0
Mn612 Mn 0.85117 0.72899 0.41621 0.0
Mn613 Mn 0.84238 0.66185 0.42831 0.0
C614 C 0.81226 0.69346 0.49412 0.0
C615 C 0.84375 0.76205 0.34109 0.0
C616 C 0.88723 0.71284 0.52958 0.0
O617 O 0.87825 0.72935 0.3257 0.0
O618 O 0.86914 0.68337 0.33106 0.0
C619 C 0.80849 0.63829 0.27482 0.0
N620 N 0.81041 0.63674 0.35841 0.0
C621 C 0.76118 0.59478 0.36841 0.0
C622 C 0.75876 0.59579 0.28234 0.0
C623 C 0.78251 0.61767 0.23538 0.0
C624 C 0.78766 0.61583 0.40421 0.0
H625 H 0.82659 0.65522 0.23855 0.0
C626 C 0.88203 0.70904 0.29873 0.0
O627 O 0.86506 0.7711 0.39384 0.0
O628 O 0.82681 0.73417 0.33276 0.0
N629 N 0.81711 0.63842 0.51799 0.0
C630 C 0.8229 0.64063 0.60043 0.0
C631 C 0.80125 0.62054 0.65614 0.0
C632 C 0.77401 0.59826 0.6265 0.0
C633 C 0.7688 0.59607 0.54125 0.0
C634 C 0.79131 0.61656 0.48862 0.0
H635 H 0.84376 0.65777 0.62362 0.0
O636 O 0.82088 0.72078 0.50395 0.0
O637 O 0.82585 0.68762 0.43544 0.0
O638 O 0.88041 0.73136 0.50361 0.0
O639 O 0.87494 0.68656 0.50394 0.0
C640 C 0.74204 0.57455 0.50652 0.0
C641 C 0.73821 0.57393 0.42018 0.0
H642 H 0.7387 0.58001 0.25173 0.0
H643 H 0.78076 0.61869 0.16897 0.0
H644 H 0.80549 0.62231 0.72181 0.0
H645 H 0.75726 0.58296 0.66974 0.0
H646 H 0.72418 0.55848 0.5457 0.0
H647 H 0.71746 0.5574 0.39426 0.0
C648 C 0.09562 0.55721 0.9879 0.0
C649 C 0.07206 0.52818 0.98312 0.0
H650 H 0.11403 0.59757 0.05448 0.0
C651 C 0.05181 0.51624 0.04983 0.0
H652 H 0.11154 0.56693 0.93714 0.0
C653 C 0.05354 0.53336 0.11684 0.0
C654 C 0.07524 0.56314 0.11853 0.0
H655 H 0.03366 0.49388 0.0486 0.0
H656 H 0.03658 0.52361 0.16513 0.0
C657 C 0.09712 0.57468 0.05516 0.0
C658 C 0.55493 0.58969 0.90738 0.0
C659 C 0.58017 0.5886 0.88113 0.0
H660 H 0.51885 0.57513 0.99467 0.0
C661 C 0.58654 0.5691 0.9215 0.0
H662 H 0.54907 0.60425 0.8777 0.0
C663 C 0.56887 0.55211 0.98857 0.0
C664 C 0.54461 0.55445 0.01738 0.0
H665 H 0.60568 0.56757 0.90303 0.0
H666 H 0.57495 0.53798 0.01979 0.0
C667 C 0.53753 0.57301 0.97485 0.0
C668 C 0.62319 0.09519 0.00829 0.0
C669 C 0.62982 0.07468 0.04121 0.0
H670 H 0.59881 0.10418 0.91974 0.0
C671 C 0.61789 0.04741 0.00319 0.0
H672 H 0.63219 0.11659 0.03524 0.0
C673 C 0.59881 0.04038 0.93644 0.0
C674 C 0.59117 0.06044 0.9058 0.0
H675 H 0.62264 0.03115 0.02624 0.0
H676 H 0.58939 0.0188 0.91044 0.0
C677 C 0.60414 0.08818 0.94145 0.0
C678 C 0.59863 0.07782 0.42623 0.0
C679 C 0.61216 0.06137 0.40948 0.0
H680 H 0.5686 0.08369 0.50258 0.0
C681 C 0.60328 0.03586 0.45653 0.0
H682 H 0.60453 0.09732 0.3906 0.0
C683 C 0.58246 0.02795 0.52186 0.0
C684 C 0.57014 0.04539 0.54102 0.0
H685 H 0.61324 0.02264 0.44504 0.0
H686 H 0.57696 0.00892 0.55924 0.0
C687 C 0.5779 0.06991 0.49073 0.0
C688 C 0.08672 0.57535 0.5023 0.0
C689 C 0.06068 0.57468 0.47773 0.0
H690 H 0.10623 0.55825 0.58402 0.0
C691 C 0.03428 0.55721 0.52306 0.0
H692 H 0.10745 0.58854 0.46855 0.0
C693 C 0.03368 0.5402 0.58972 0.0
C694 C 0.05937 0.53977 0.61225 0.0
H695 H 0.01389 0.55632 0.50631 0.0
H696 H 0.01269 0.52665 0.6219 0.0
C697 C 0.08603 0.55792 0.56841 0.0
C698 C 0.6011 0.57876 0.49467 0.0
C699 C 0.60255 0.60534 0.51262 0.0
H700 H 0.58208 0.54047 0.41899 0.0
C701 C 0.58852 0.61525 0.4597 0.0
H702 H 0.6118 0.57057 0.5342 0.0
C703 C 0.57206 0.59838 0.39341 0.0
C704 C 0.56868 0.57079 0.37856 0.0
H705 H 0.5896 0.63582 0.4707 0.0
H706 H 0.56087 0.60656 0.35583 0.0
C707 C 0.58418 0.56155 0.42843 0.0
C708 C 0.74045 0.86679 0.32475 0.0
C709 C 0.76804 0.88097 0.28311 0.0
H710 H 0.71333 0.86814 0.4225 0.0
C711 C 0.79029 0.9083 0.31243 0.0
H712 H 0.72288 0.84569 0.30467 0.0
C713 C 0.7849 0.92128 0.38061 0.0
C714 C 0.75713 0.90729 0.42136 0.0
H715 H 0.81197 0.91991 0.28242 0.0
H716 H 0.80235 0.94249 0.40032 0.0
C717 C 0.73508 0.87973 0.39287 0.0
C718 C 0.2857 0.91738 0.49263 0.0
C719 C 0.2647 0.8875 0.4858 0.0
H720 H 0.31629 0.95695 0.42847 0.0
C721 C 0.2625 0.87346 0.41054 0.0
H722 H 0.2879 0.92869 0.55016 0.0
C723 C 0.27875 0.88976 0.34093 0.0
C724 C 0.29777 0.92002 0.34661 0.0
H725 H 0.24632 0.85053 0.40353 0.0
H726 H 0.27469 0.87916 0.28143 0.0
C727 C 0.30214 0.93353 0.42346 0.0
C728 C 0.26942 0.40104 0.3643 0.0
C729 C 0.27458 0.37755 0.3662 0.0
H730 H 0.24873 0.42131 0.29999 0.0
C731 C 0.26748 0.35961 0.29684 0.0
H732 H 0.2748 0.41526 0.41709 0.0
C733 C 0.25349 0.36351 0.22972 0.0
C734 C 0.24549 0.38504 0.2307 0.0
H735 H 0.27164 0.34168 0.29581 0.0
H736 H 0.24708 0.34825 0.17914 0.0
C737 C 0.25474 0.40466 0.29707 0.0
C738 C 0.24713 0.39405 0.84887 0.0
C739 C 0.21973 0.36984 0.87399 0.0
H740 H 0.28481 0.41073 0.76597 0.0
C741 C 0.2084 0.34395 0.82896 0.0
H742 H 0.25653 0.41433 0.88246 0.0
C743 C 0.22439 0.34203 0.76173 0.0
C744 C 0.2524 0.3658 0.73853 0.0
H745 H 0.18729 0.32498 0.84626 0.0
H746 H 0.21505 0.32148 0.72958 0.0
C747 C 0.26341 0.39198 0.78224 0.0
C748 C 0.78708 0.91084 0.88511 0.0
C749 C 0.766 0.88274 0.91332 0.0
H750 H 0.79698 0.94627 0.80342 0.0
C751 C 0.73749 0.8689 0.87866 0.0
H752 H 0.80916 0.92225 0.91037 0.0
C753 C 0.73039 0.88271 0.81695 0.0
C754 C 0.75158 0.91074 0.78833 0.0
H755 H 0.72059 0.84721 0.89872 0.0
H756 H 0.70839 0.87125 0.79116 0.0
C757 C 0.77996 0.92466 0.8237 0.0
C758 C 0.30073 0.90481 0.91038 0.0
C759 C 0.28602 0.90265 0.98583 0.0
H760 H 0.29544 0.89242 0.78269 0.0
C761 C 0.25608 0.88084 0.99629 0.0
H762 H 0.32375 0.92163 0.90076 0.0
C763 C 0.2402 0.86369 0.92963 0.0
C764 C 0.25397 0.8684 0.85152 0.0
H765 H 0.24433 0.87875 0.05409 0.0
H766 H 0.21644 0.84917 0.93686 0.0
C767 C 0.28463 0.88798 0.84309 0.0
C768 C 0.4366 0.26571 0.58206 0.0
C769 C 0.44527 0.26078 0.65907 0.0
H770 H 0.4251 0.25081 0.45774 0.0
C771 C 0.45481 0.24057 0.66556 0.0
H772 H 0.42841 0.28066 0.57641 0.0
C773 C 0.45322 0.22365 0.5975 0.0
C774 C 0.44118 0.22622 0.52315 0.0
H775 H 0.46079 0.23592 0.72512 0.0
H776 H 0.45861 0.2067 0.60556 0.0
C777 C 0.43425 0.24831 0.51472 0.0
C778 C 0.93392 0.2013 0.75806 0.0
C779 C 0.9388 0.21595 0.83337 0.0
H780 H 0.94282 0.20615 0.62743 0.0
C781 C 0.96219 0.24494 0.8392 0.0
H782 H 0.91594 0.17896 0.75226 0.0
C783 C 0.97812 0.26017 0.76838 0.0
C784 C 0.97031 0.24663 0.69127 0.0
H785 H 0.96642 0.25653 0.8971 0.0
H786 H 0.9938 0.28336 0.77252 0.0
C787 C 0.9494 0.21674 0.68691 0.0
C788 C 0.93794 0.71022 0.69128 0.0
C789 C 0.95112 0.73836 0.72452 0.0
H790 H 0.90755 0.68005 0.604 0.0
C791 C 0.94378 0.75826 0.69105 0.0
H792 H 0.94306 0.69433 0.71534 0.0
C793 C 0.92349 0.75014 0.62717 0.0
C794 C 0.90989 0.72186 0.59484 0.0
H795 H 0.95356 0.78022 0.71451 0.0
H796 H 0.91827 0.76603 0.60384 0.0
C797 C 0.91755 0.70205 0.6273 0.0
C798 C 0.91215 0.69705 0.19937 0.0
C799 C 0.90272 0.71617 0.22667 0.0
H800 H 0.94004 0.69014 0.11483 0.0
C801 C 0.91395 0.74314 0.18555 0.0
H802 H 0.90395 0.6761 0.22955 0.0
C803 C 0.93444 0.75111 0.12039 0.0
C804 C 0.94444 0.73241 0.09388 0.0
H805 H 0.90712 0.75842 0.204 0.0
H806 H 0.94263 0.77223 0.0913 0.0
C807 C 0.93284 0.70511 0.13363 0.0
C808 C 0.43566 0.20324 0.0813 0.0
C809 C 0.44438 0.21651 0.15859 0.0
H810 H 0.4241 0.20701 0.95744 0.0
C811 C 0.45344 0.24616 0.16619 0.0
H812 H 0.42779 0.1802 0.07471 0.0
C813 C 0.45145 0.26165 0.09889 0.0
C814 C 0.43961 0.24734 0.02414 0.0
H815 H 0.45937 0.25653 0.22607 0.0
H816 H 0.45642 0.28383 0.10776 0.0
C817 C 0.43313 0.21847 0.01472 0.0
C818 C 0.97313 0.24039 0.25804 0.0
C819 C 0.95719 0.23598 0.33248 0.0
H820 H 0.97023 0.22859 0.13032 0.0
C821 C 0.92881 0.21112 0.34209 0.0
H822 H 0.99506 0.25939 0.24936 0.0
C823 C 0.91508 0.19296 0.27507 0.0
C824 C 0.92933 0.19986 0.19732 0.0
H825 H 0.91625 0.20715 0.39948 0.0
H826 H 0.89194 0.17603 0.28138 0.0
C827 C 0.95909 0.22253 0.19036 0.0
C828 C 0.16599 0.70999 0.4533 0.0
C829 C 0.14556 0.707 0.3932 0.0
H830 H 0.19326 0.73583 0.55371 0.0
C831 C 0.13919 0.72937 0.3829 0.0
H832 H 0.17091 0.69279 0.46311 0.0
C833 C 0.1516 0.75355 0.43406 0.0
C834 C 0.17064 0.75601 0.49772 0.0
H835 H 0.12349 0.72759 0.33698 0.0
H836 H 0.14538 0.76988 0.42524 0.0
C837 C 0.17846 0.73442 0.50552 0.0
C838 C 0.45096 0.47468 0.45719 0.0
C839 C 0.44943 0.47509 0.37052 0.0
H840 H 0.42677 0.45777 0.5721 0.0
C841 C 0.4217 0.46008 0.33297 0.0
H842 H 0.47228 0.48552 0.48701 0.0
C843 C 0.39596 0.44386 0.38116 0.0
C844 C 0.39758 0.44264 0.46753 0.0
H845 H 0.42014 0.45933 0.26614 0.0
H846 H 0.37493 0.43105 0.35068 0.0
C847 C 0.42507 0.45894 0.50566 0.0
C848 C 0.69904 0.99513 0.50095 0.0
C849 C 0.71443 0.9827 0.46441 0.0
H850 H 0.67815 0.02034 0.48141 0.0
C851 C 0.71706 0.98277 0.37769 0.0
H852 H 0.69758 0.99614 0.56771 0.0
C853 C 0.70531 0.99591 0.32827 0.0
C854 C 0.69202 0.01033 0.36525 0.0
H855 H 0.72963 0.97405 0.34846 0.0
H856 H 0.70889 0.99698 0.26183 0.0
C857 C 0.68816 0.00911 0.45171 0.0
C858 C 0.75537 0.13783 0.07776 0.0
C859 C 0.74929 0.13216 0.16295 0.0
H860 H 0.78849 0.15388 0.98066 0.0
C861 C 0.77319 0.14385 0.21743 0.0
H862 H 0.73741 0.12833 0.03419 0.0
C863 C 0.8025 0.1574 0.18645 0.0
C864 C 0.80842 0.16051 0.10068 0.0
H865 H 0.76916 0.13912 0.28315 0.0
H866 H 0.82022 0.16251 0.22909 0.0
C867 C 0.78471 0.15252 0.04706 0.0
C868 C 0.03783 0.66774 0.99672 0.0
C869 C 0.02537 0.68277 0.0348 0.0
H870 H 0.06073 0.6443 0.01495 0.0
C871 C 0.02304 0.68265 0.12147 0.0
H872 H 0.04027 0.66804 0.92997 0.0
C873 C 0.03384 0.66842 0.16967 0.0
C874 C 0.04754 0.65451 0.13185 0.0
H875 H 0.01374 0.6944 0.15193 0.0
H876 H 0.03294 0.66961 0.23651 0.0
C877 C 0.04949 0.65426 0.0451 0.0
C878 C 0.50421 0.39879 0.99437 0.0
C879 C 0.47471 0.37576 0.00615 0.0
H880 H 0.53814 0.44153 0.03352 0.0
C881 C 0.45816 0.3768 0.07393 0.0
H882 H 0.51759 0.39851 0.94295 0.0
C883 C 0.4699 0.40094 0.12532 0.0
C884 C 0.49861 0.42472 0.11105 0.0
H885 H 0.43557 0.35934 0.08591 0.0
H886 H 0.45588 0.40161 0.17435 0.0
C887 C 0.51612 0.42321 0.04663 0.0
C888 C 0.99841 0.36516 0.68 0.0
C889 C 0.99786 0.36212 0.59343 0.0
H890 H 0.01252 0.39471 0.78234 0.0
C891 C 0.0059 0.38683 0.54396 0.0
H892 H 0.99333 0.34675 0.71971 0.0
C893 C 0.01822 0.41452 0.57966 0.0
C894 C 0.02167 0.41789 0.66574 0.0
H895 H 0.00653 0.38536 0.47715 0.0
H896 H 0.02755 0.43355 0.53945 0.0
C897 C 0.00972 0.39275 0.71593 0.0
C898 C 0.75643 0.65976 0.66796 0.0
C899 C 0.73003 0.64411 0.62426 0.0
H900 H 0.80372 0.68765 0.65982 0.0
C901 C 0.73154 0.64053 0.53855 0.0
H902 H 0.75574 0.66358 0.73359 0.0
C903 C 0.75903 0.65415 0.49631 0.0
C904 C 0.78529 0.67164 0.53933 0.0
H905 H 0.71139 0.62933 0.50327 0.0
H906 H 0.75952 0.65307 0.42941 0.0
C907 C 0.78382 0.67367 0.62571 0.0
C908 C 0.46084 0.11126 0.56339 0.0
C909 C 0.47891 0.134 0.50785 0.0
H910 H 0.45815 0.08152 0.65606 0.0
C911 C 0.50987 0.14572 0.50883 0.0
H912 H 0.43697 0.10176 0.5652 0.0
C913 C 0.52222 0.13413 0.56294 0.0
C914 C 0.50365 0.11053 0.61562 0.0
H915 H 0.52437 0.1634 0.46714 0.0
H916 H 0.54594 0.14268 0.56098 0.0
C917 C 0.473 0.09965 0.61598 0.0
C918 C 0.44749 0.00632 0.03138 0.0
C919 C 0.41888 0.99203 0.999 0.0
H920 H 0.49421 0.0314 0.00348 0.0
C921 C 0.4153 0.98788 0.91325 0.0
H922 H 0.45066 0.00998 0.0973 0.0
C923 C 0.44011 0.99905 0.86008 0.0
C924 C 0.46875 0.01503 0.892 0.0
H925 H 0.39332 0.97698 0.88723 0.0
H926 H 0.43691 0.99701 0.79381 0.0
C927 C 0.47229 0.01839 0.97797 0.0
C928 C 0.16314 0.49175 0.91382 0.0
C929 C 0.1468 0.47745 0.8433 0.0
H930 H 0.18928 0.49069 0.014 0.0
C931 C 0.14847 0.45388 0.81167 0.0
H932 H 0.16163 0.50966 0.94011 0.0
C933 C 0.16422 0.44325 0.85323 0.0
C934 C 0.17847 0.45579 0.92776 0.0
H935 H 0.13573 0.4423 0.75814 0.0
H936 H 0.1632 0.42361 0.83066 0.0
C937 C 0.17904 0.48102 0.95582 0.0
C938 C 0.69165 0.73032 0.82256 0.0
C939 C 0.67558 0.70232 0.85775 0.0
H940 H 0.71785 0.7762 0.84508 0.0
C941 C 0.67124 0.69926 0.94408 0.0
H942 H 0.69606 0.73314 0.75644 0.0
C943 C 0.68303 0.72388 0.99465 0.0
C944 C 0.70029 0.75179 0.95961 0.0
H945 H 0.65956 0.67777 0.97251 0.0
H946 H 0.68062 0.72099 0.06124 0.0
C947 C 0.70403 0.75486 0.87316 0.0
C948 C 0.83948 0.04733 0.77725 0.0
C949 C 0.81631 0.0434 0.72598 0.0
H950 H 0.86866 0.07237 0.87564 0.0
C951 C 0.80616 0.06317 0.73102 0.0
H952 H 0.84735 0.03207 0.77539 0.0
C953 C 0.81807 0.08584 0.78749 0.0
C954 C 0.84032 0.0893 0.84167 0.0
H955 H 0.78824 0.06059 0.69247 0.0
H956 H 0.80915 0.10025 0.78994 0.0
C957 C 0.85133 0.0701 0.83519 0.0
C958 C 0.11021 0.81924 0.7046 0.0
C959 C 0.13411 0.82523 0.75548 0.0
H960 H 0.06283 0.79816 0.69611 0.0
C961 C 0.12907 0.82153 0.8415 0.0
H962 H 0.11332 0.82116 0.63795 0.0
C963 C 0.10029 0.80972 0.87528 0.0
C964 C 0.07585 0.80013 0.82331 0.0
H965 H 0.14695 0.82525 0.88194 0.0
H966 H 0.09678 0.80453 0.94084 0.0
C967 C 0.08125 0.80622 0.73802 0.0
C968 C 0.33051 0.31561 0.75922 0.0
C969 C 0.33289 0.32106 0.67337 0.0
H970 H 0.34692 0.30353 0.86393 0.0
C971 C 0.34996 0.31281 0.62527 0.0
H972 H 0.31817 0.32245 0.79818 0.0
C973 C 0.36733 0.30303 0.66331 0.0
C974 C 0.36711 0.30021 0.74995 0.0
H975 H 0.35288 0.31745 0.55938 0.0
H976 H 0.38303 0.30028 0.6256 0.0
C977 C 0.34708 0.30482 0.797 0.0
C978 C 0.07557 0.33845 0.25502 0.0
C979 C 0.08104 0.33986 0.34013 0.0
H980 H 0.09461 0.34922 0.13227 0.0
C981 C 0.11032 0.35318 0.36743 0.0
H982 H 0.05306 0.32826 0.23292 0.0
C983 C 0.13394 0.36576 0.31016 0.0
C984 C 0.12844 0.36375 0.22506 0.0
H985 H 0.11492 0.3547 0.43293 0.0
H986 H 0.1565 0.377 0.33214 0.0
C987 C 0.09916 0.35014 0.19771 0.0
C988 C 0.83958 0.78335 0.20837 0.0
C989 C 0.83739 0.78202 0.29519 0.0
H990 H 0.82696 0.79552 0.09614 0.0
C991 C 0.82356 0.79519 0.3364 0.0
H992 H 0.84972 0.77281 0.1755 0.0
C993 C 0.81 0.80746 0.29119 0.0
C994 C 0.81111 0.80781 0.20426 0.0
H995 H 0.82109 0.79383 0.40322 0.0
H996 H 0.79724 0.8153 0.32401 0.0
C997 C 0.82672 0.7964 0.16312 0.0
C998 C 0.34768 0.04352 0.30226 0.0
C999 C 0.34595 0.03712 0.21746 0.0
H1000 H 0.36341 0.07678 0.39452 0.0
C1001 C 0.3542 0.0599 0.16003 0.0
H1002 H 0.34232 0.02656 0.34788 0.0
C1003 C 0.36751 0.08891 0.18675 0.0
C1004 C 0.37169 0.09554 0.27148 0.0
H1005 H 0.35389 0.05574 0.09433 0.0
H1006 H 0.37738 0.10628 0.14088 0.0
C1007 C 0.35972 0.07237 0.329 0.0
loop_
_geom_bond_atom_site_label_1
_geom_bond_atom_site_label_2
_geom_bond_distance
_geom_bond_site_symmetry_2
_ccdc_geom_bond_type
Mn0 O5 2.095 . S
Mn0 O15 2.162 . S
Mn0 O16 2.297 . S
Mn0 O24 2.385 . S
Mn0 O25 2.209 . S
Mn0 O26 2.094 . S
Mn1 O6 2.121 . S
Mn1 N8 2.257 1_455 S
Mn1 N17 2.282 . S
Mn1 O25 2.215 . S
Mn1 O27 2.117 . S
C2 O24 1.234 . S
C2 O25 1.283 . S
C3 O15 1.281 . S
C3 O16 1.236 . S
C4 O26 1.240 . S
C4 O27 1.264 . S
O5 Mn0 2.095 . S
O5 C14 1.250 . S
O6 Mn1 2.121 . S
O6 C14 1.258 . S
C7 N8 1.326 . S
C7 C11 1.460 . S
C7 H13 0.929 . S
N8 Mn1 2.257 1_655 S
N8 C7 1.326 . S
N8 C12 1.362 . S
C9 C10 1.258 . S
C9 C12 1.431 . S
C9 C29 1.449 . S
C10 C9 1.258 . S
C10 C11 1.477 . S
C10 H30 0.931 . S
C11 C7 1.460 . S
C11 C10 1.477 . S
C11 H31 0.930 . S
C12 N8 1.362 . S
C12 C9 1.431 . S
C12 C22 1.476 . S
H13 C7 0.929 . S
C14 O5 1.250 . S
C14 O6 1.258 . S
O15 Mn0 2.162 . S
O15 C3 1.281 . S
O16 Mn0 2.297 . S
O16 C3 1.236 . S
N17 Mn1 2.282 . S
N17 C18 1.328 . S
N17 C22 1.318 1_455 S
C18 N17 1.328 . S
C18 C19 1.457 1_554 S
C18 H23 0.929 . S
C19 C18 1.457 1_556 S
C19 C20 1.291 1_455 S
C19 H32 0.931 . S
C20 C19 1.291 1_655 S
C20 C21 1.373 1_556 S
C20 H33 0.929 . S
C21 C20 1.373 1_554 S
C21 C22 1.396 . S
C21 C28 1.403 . S
C22 C12 1.476 . S
C22 N17 1.318 1_655 S
C22 C21 1.396 . S
H23 C18 0.929 . S
O24 Mn0 2.385 . S
O24 C2 1.234 . S
O25 Mn0 2.209 . S
O25 Mn1 2.215 . S
O25 C2 1.283 . S
O26 Mn0 2.094 . S
O26 C4 1.240 . S
O27 Mn1 2.117 . S
O27 C4 1.264 . S
C28 C21 1.403 . S
C28 C29 1.399 . S
C28 H34 0.929 1_554 S
C29 C9 1.449 . S
C29 C28 1.399 . S
C29 H35 0.930 . S
H30 C10 0.931 . S
H31 C11 0.930 . S
H32 C19 0.931 . S
H33 C20 0.929 . S
H34 C28 0.929 1_556 S
H35 C29 0.930 . S
Mn36 O41 2.095 . S
Mn36 O51 2.162 . S
Mn36 O52 2.297 . S
Mn36 O60 2.385 . S
Mn36 O61 2.209 . S
Mn36 O62 2.094 . S
Mn37 O42 2.121 . S
Mn37 N44 2.257 . S
Mn37 N53 2.282 . S
Mn37 O61 2.215 . S
Mn37 O63 2.117 . S
C38 O60 1.234 . S
C38 O61 1.283 . S
C39 O51 1.281 . S
C39 O52 1.236 . S
C40 O62 1.240 . S
C40 O63 1.264 . S
O41 Mn36 2.095 . S
O41 C50 1.250 . S
O42 Mn37 2.121 . S
O42 C50 1.258 . S
C43 N44 1.326 . S
C43 C47 1.460 . S
C43 H49 0.929 . S
N44 Mn37 2.257 . S
N44 C43 1.326 . S
N44 C48 1.362 . S
C45 C46 1.258 . S
C45 C48 1.431 . S
C45 C65 1.449 . S
C46 C45 1.258 . S
C46 C47 1.477 . S
C46 H66 0.931 . S
C47 C43 1.460 . S
C47 C46 1.477 . S
C47 H67 0.930 . S
C48 N44 1.362 . S
C48 C45 1.431 . S
C48 C58 1.476 . S
H49 C43 0.929 . S
C50 O41 1.250 . S
C50 O42 1.258 . S
O51 Mn36 2.162 . S
O51 C39 1.281 . S
O52 Mn36 2.297 . S
O52 C39 1.236 . S
N53 Mn37 2.282 . S
N53 C54 1.328 . S
N53 C58 1.318 . S
C54 N53 1.328 . S
C54 C55 1.457 . S
C54 H59 0.929 . S
C55 C54 1.457 . S
C55 C56 1.291 . S
C55 H68 0.931 . S
C56 C55 1.291 . S
C56 C57 1.373 . S
C56 H69 0.929 . S
C57 C56 1.373 . S
C57 C58 1.396 . S
C57 C64 1.403 . S
C58 C48 1.476 . S
C58 N53 1.318 . S
C58 C57 1.396 . S
H59 C54 0.929 . S
O60 Mn36 2.385 . S
O60 C38 1.234 . S
O61 Mn36 2.209 . S
O61 Mn37 2.215 . S
O61 C38 1.283 . S
O62 Mn36 2.094 . S
O62 C40 1.240 . S
O63 Mn37 2.117 . S
O63 C40 1.264 . S
C64 C57 1.403 . S
C64 C65 1.399 . S
C64 H70 0.929 . S
C65 C45 1.449 . S
C65 C64 1.399 . S
C65 H71 0.930 . S
H66 C46 0.931 . S
H67 C47 0.930 . S
H68 C55 0.931 . S
H69 C56 0.929 . S
H70 C64 0.929 . S
H71 C65 0.930 . S
Mn72 O77 2.095 . S
Mn72 O87 2.162 . S
Mn72 O88 2.297 . S
Mn72 O96 2.385 . S
Mn72 O97 2.209 . S
Mn72 O98 2.094 . S
Mn73 O78 2.121 . S
Mn73 N80 2.257 . S
Mn73 N89 2.282 . S
Mn73 O97 2.215 . S
Mn73 O99 2.117 . S
C74 O96 1.234 . S
C74 O97 1.283 . S
C75 O87 1.281 . S
C75 O88 1.236 . S
C76 O98 1.240 . S
C76 O99 1.264 . S
O77 Mn72 2.095 . S
O77 C86 1.250 . S
O78 Mn73 2.121 . S
O78 C86 1.258 . S
C79 N80 1.326 . S
C79 C83 1.460 . S
C79 H85 0.929 . S
N80 Mn73 2.257 . S
N80 C79 1.326 . S
N80 C84 1.362 . S
C81 C82 1.258 . S
C81 C84 1.431 . S
C81 C101 1.449 . S
C82 C81 1.258 . S
C82 C83 1.477 . S
C82 H102 0.931 . S
C83 C79 1.460 . S
C83 C82 1.477 . S
C83 H103 0.930 . S
C84 N80 1.362 . S
C84 C81 1.431 . S
C84 C94 1.476 . S
H85 C79 0.929 . S
C86 O77 1.250 . S
C86 O78 1.258 . S
O87 Mn72 2.162 . S
O87 C75 1.281 . S
O88 Mn72 2.297 . S
O88 C75 1.236 . S
N89 Mn73 2.282 . S
N89 C90 1.328 . S
N89 C94 1.318 . S
C90 N89 1.328 . S
C90 C91 1.457 1_554 S
C90 H95 0.929 . S
C91 C90 1.457 1_556 S
C91 C92 1.291 . S
C91 H104 0.931 . S
C92 C91 1.291 . S
C92 C93 1.373 1_556 S
C92 H105 0.929 . S
C93 C92 1.373 1_554 S
C93 C94 1.396 . S
C93 C100 1.403 . S
C94 C84 1.476 . S
C94 N89 1.318 . S
C94 C93 1.396 . S
H95 C90 0.929 . S
O96 Mn72 2.385 . S
O96 C74 1.234 . S
O97 Mn72 2.209 . S
O97 Mn73 2.215 . S
O97 C74 1.283 . S
O98 Mn72 2.094 . S
O98 C76 1.240 . S
O99 Mn73 2.117 . S
O99 C76 1.264 . S
C100 C93 1.403 . S
C100 C101 1.399 . S
C100 H106 0.929 . S
C101 C81 1.449 . S
C101 C100 1.399 . S
C101 H107 0.930 . S
H102 C82 0.931 . S
H103 C83 0.930 . S
H104 C91 0.931 . S
H105 C92 0.929 . S
H106 C100 0.929 . S
H107 C101 0.930 . S
Mn108 O113 2.095 . S
Mn108 O123 2.162 . S
Mn108 O124 2.297 . S
Mn108 O132 2.385 . S
Mn108 O133 2.209 . S
Mn108 O134 2.094 . S
Mn109 O114 2.121 . S
Mn109 N116 2.257 1_455 S
Mn109 N125 2.282 . S
Mn109 O133 2.215 . S
Mn109 O135 2.117 . S
C110 O132 1.234 . S
C110 O133 1.283 . S
C111 O123 1.281 . S
C111 O124 1.236 . S
C112 O134 1.240 . S
C112 O135 1.264 . S
O113 Mn108 2.095 . S
O113 C122 1.250 . S
O114 Mn109 2.121 . S
O114 C122 1.258 . S
C115 N116 1.326 . S
C115 C119 1.460 . S
C115 H121 0.929 . S
N116 Mn109 2.257 1_655 S
N116 C115 1.326 . S
N116 C120 1.362 . S
C117 C118 1.258 . S
C117 C120 1.431 . S
C117 C137 1.449 . S
C118 C117 1.258 . S
C118 C119 1.477 . S
C118 H138 0.931 . S
C119 C115 1.460 . S
C119 C118 1.477 . S
C119 H139 0.930 . S
C120 N116 1.362 . S
C120 C117 1.431 . S
C120 C130 1.476 . S
H121 C115 0.929 . S
C122 O113 1.250 . S
C122 O114 1.258 . S
O123 Mn108 2.162 . S
O123 C111 1.281 . S
O124 Mn108 2.297 . S
O124 C111 1.236 . S
N125 Mn109 2.282 . S
N125 C126 1.328 . S
N125 C130 1.318 1_455 S
C126 N125 1.328 . S
C126 C127 1.457 . S
C126 H131 0.929 . S
C127 C126 1.457 . S
C127 C128 1.291 1_455 S
C127 H140 0.931 . S
C128 C127 1.291 1_655 S
C128 C129 1.373 . S
C128 H141 0.929 . S
C129 C128 1.373 . S
C129 C130 1.396 . S
C129 C136 1.403 . S
C130 C120 1.476 . S
C130 N125 1.318 1_655 S
C130 C129 1.396 . S
H131 C126 0.929 . S
O132 Mn108 2.385 . S
O132 C110 1.234 . S
O133 Mn108 2.209 . S
O133 Mn109 2.215 . S
O133 C110 1.283 . S
O134 Mn108 2.094 . S
O134 C112 1.240 . S
O135 Mn109 2.117 . S
O135 C112 1.264 . S
C136 C129 1.403 . S
C136 C137 1.399 . S
C136 H142 0.929 . S
C137 C117 1.449 . S
C137 C136 1.399 . S
C137 H143 0.930 . S
H138 C118 0.931 . S
H139 C119 0.930 . S
H140 C127 0.931 . S
H141 C128 0.929 . S
H142 C136 0.929 . S
H143 C137 0.930 . S
Mn144 O149 2.095 . S
Mn144 O159 2.162 . S
Mn144 O160 2.297 . S
Mn144 O168 2.385 . S
Mn144 O169 2.209 . S
Mn144 O170 2.094 . S
Mn145 O150 2.121 . S
Mn145 N152 2.257 . S
Mn145 N161 2.282 . S
Mn145 O169 2.215 . S
Mn145 O171 2.117 . S
C146 O168 1.234 . S
C146 O169 1.283 . S
C147 O159 1.281 . S
C147 O160 1.236 . S
C148 O170 1.240 . S
C148 O171 1.264 . S
O149 Mn144 2.095 . S
O149 C158 1.250 . S
O150 Mn145 2.121 . S
O150 C158 1.258 . S
C151 N152 1.326 . S
C151 C155 1.460 . S
C151 H157 0.929 . S
N152 Mn145 2.257 . S
N152 C151 1.326 . S
N152 C156 1.362 . S
C153 C154 1.258 . S
C153 C156 1.431 . S
C153 C173 1.449 . S
C154 C153 1.258 . S
C154 C155 1.477 . S
C154 H174 0.931 . S
C155 C151 1.460 . S
C155 C154 1.477 . S
C155 H175 0.930 . S
C156 N152 1.362 . S
C156 C153 1.431 . S
C156 C166 1.476 . S
H157 C151 0.929 . S
C158 O149 1.250 . S
C158 O150 1.258 . S
O159 Mn144 2.162 . S
O159 C147 1.281 . S
O160 Mn144 2.297 . S
O160 C147 1.236 . S
N161 Mn145 2.282 . S
N161 C162 1.328 . S
N161 C166 1.318 . S
C162 N161 1.328 . S
C162 C163 1.457 1_556 S
C162 H167 0.929 . S
C163 C162 1.457 1_554 S
C163 C164 1.291 . S
C163 H176 0.931 . S
C164 C163 1.291 . S
C164 C165 1.373 1_554 S
C164 H177 0.929 . S
C165 C164 1.373 1_556 S
C165 C166 1.396 . S
C165 C172 1.403 . S
C166 C156 1.476 . S
C166 N161 1.318 . S
C166 C165 1.396 . S
H167 C162 0.929 . S
O168 Mn144 2.385 . S
O168 C146 1.234 . S
O169 Mn144 2.209 . S
O169 Mn145 2.215 . S
O169 C146 1.283 . S
O170 Mn144 2.094 . S
O170 C148 1.240 . S
O171 Mn145 2.117 . S
O171 C148 1.264 . S
C172 C165 1.403 . S
C172 C173 1.399 . S
C172 H178 0.929 . S
C173 C153 1.449 . S
C173 C172 1.399 . S
C173 H179 0.930 . S
H174 C154 0.931 . S
H175 C155 0.930 . S
H176 C163 0.931 . S
H177 C164 0.929 . S
H178 C172 0.929 . S
H179 C173 0.930 . S
Mn180 O185 2.095 . S
Mn180 O195 2.162 . S
Mn180 O196 2.297 . S
Mn180 O204 2.385 . S
Mn180 O205 2.209 . S
Mn180 O206 2.094 . S
Mn181 O186 2.121 . S
Mn181 N188 2.257 1_545 S
Mn181 N197 2.282 1_545 S
Mn181 O205 2.215 . S
Mn181 O207 2.117 . S
C182 O204 1.234 . S
C182 O205 1.283 . S
C183 O195 1.281 . S
C183 O196 1.236 . S
C184 O206 1.240 . S
C184 O207 1.264 . S
O185 Mn180 2.095 . S
O185 C194 1.250 . S
O186 Mn181 2.121 . S
O186 C194 1.258 . S
C187 N188 1.326 . S
C187 C191 1.460 . S
C187 H193 0.929 . S
N188 Mn181 2.257 1_565 S
N188 C187 1.326 . S
N188 C192 1.362 . S
C189 C190 1.258 . S
C189 C192 1.431 . S
C189 C209 1.449 . S
C190 C189 1.258 . S
C190 C191 1.477 . S
C190 H210 0.931 . S
C191 C187 1.460 . S
C191 C190 1.477 . S
C191 H211 0.930 . S
C192 N188 1.362 . S
C192 C189 1.431 . S
C192 C202 1.476 . S
H193 C187 0.929 . S
C194 O185 1.250 . S
C194 O186 1.258 . S
O195 Mn180 2.162 . S
O195 C183 1.281 . S
O196 Mn180 2.297 . S
O196 C183 1.236 . S
N197 Mn181 2.282 1_565 S
N197 C198 1.328 1_565 S
N197 C202 1.318 . S
C198 N197 1.328 1_545 S
C198 C199 1.457 1_546 S
C198 H203 0.929 . S
C199 C198 1.457 1_564 S
C199 C200 1.291 . S
C199 H212 0.931 . S
C200 C199 1.291 . S
C200 C201 1.373 1_554 S
C200 H213 0.929 . S
C201 C200 1.373 1_556 S
C201 C202 1.396 . S
C201 C208 1.403 . S
C202 C192 1.476 . S
C202 N197 1.318 . S
C202 C201 1.396 . S
H203 C198 0.929 . S
O204 Mn180 2.385 . S
O204 C182 1.234 . S
O205 Mn180 2.209 . S
O205 Mn181 2.215 . S
O205 C182 1.283 . S
O206 Mn180 2.094 . S
O206 C184 1.240 . S
O207 Mn181 2.117 . S
O207 C184 1.264 . S
C208 C201 1.403 . S
C208 C209 1.399 . S
C208 H214 0.929 1_556 S
C209 C189 1.449 . S
C209 C208 1.399 . S
C209 H215 0.930 . S
H210 C190 0.931 . S
H211 C191 0.930 . S
H212 C199 0.931 . S
H213 C200 0.929 . S
H214 C208 0.929 1_554 S
H215 C209 0.930 . S
Mn216 O221 2.095 . S
Mn216 O231 2.162 1_565 S
Mn216 O232 2.324 . S
Mn216 O240 2.385 . S
Mn216 O241 2.209 . S
Mn216 O242 2.094 . S
Mn217 O222 2.121 . S
Mn217 N224 2.257 . S
Mn217 N233 2.282 . S
Mn217 O241 2.215 . S
Mn217 O243 2.117 . S
C218 O240 1.234 . S
C218 O241 1.283 . S
C219 O231 1.281 . S
C219 O232 1.233 1_545 S
C220 O242 1.240 . S
C220 O243 1.264 . S
O221 Mn216 2.095 . S
O221 C230 1.250 . S
O222 Mn217 2.121 . S
O222 C230 1.258 . S
C223 N224 1.326 . S
C223 C227 1.460 . S
C223 H229 0.929 . S
N224 Mn217 2.257 . S
N224 C223 1.326 . S
N224 C228 1.362 . S
C225 C226 1.258 . S
C225 C228 1.431 . S
C225 C245 1.449 . S
C226 C225 1.258 . S
C226 C227 1.477 . S
C226 H246 0.931 . S
C227 C223 1.460 . S
C227 C226 1.477 . S
C227 H247 0.930 . S
C228 N224 1.362 . S
C228 C225 1.431 . S
C228 C238 1.476 . S
H229 C223 0.929 . S
C230 O221 1.250 . S
C230 O222 1.258 . S
O231 Mn216 2.162 1_545 S
O231 C219 1.281 . S
O232 Mn216 2.324 . S
O232 C219 1.233 1_565 S
N233 Mn217 2.282 . S
N233 C234 1.328 . S
N233 C238 1.318 . S
C234 N233 1.328 . S
C234 C235 1.457 . S
C234 H239 0.929 . S
C235 C234 1.457 . S
C235 C236 1.291 . S
C235 H248 0.931 . S
C236 C235 1.291 . S
C236 C237 1.373 . S
C236 H249 0.929 . S
C237 C236 1.373 . S
C237 C238 1.396 . S
C237 C244 1.403 . S
C238 C228 1.476 . S
C238 N233 1.318 . S
C238 C237 1.396 . S
H239 C234 0.929 . S
O240 Mn216 2.385 . S
O240 C218 1.234 . S
O241 Mn216 2.209 . S
O241 Mn217 2.215 . S
O241 C218 1.283 . S
O242 Mn216 2.094 . S
O242 C220 1.240 . S
O243 Mn217 2.117 . S
O243 C220 1.264 . S
C244 C237 1.403 . S
C244 C245 1.399 . S
C244 H250 0.929 . S
C245 C225 1.449 . S
C245 C244 1.399 . S
C245 H251 0.930 . S
H246 C226 0.931 . S
H247 C227 0.930 . S
H248 C235 0.931 . S
H249 C236 0.929 . S
H250 C244 0.929 . S
H251 C245 0.930 . S
Mn252 O257 2.095 . S
Mn252 O267 2.162 . S
Mn252 O268 2.297 . S
Mn252 O276 2.385 . S
Mn252 O277 2.209 . S
Mn252 O278 2.094 . S
Mn253 O258 2.121 . S
Mn253 N260 2.257 . S
Mn253 N269 2.282 . S
Mn253 O277 2.215 . S
Mn253 O279 2.117 . S
C254 O276 1.234 . S
C254 O277 1.283 . S
C255 O267 1.281 . S
C255 O268 1.236 . S
C256 O278 1.240 . S
C256 O279 1.264 . S
O257 Mn252 2.095 . S
O257 C266 1.250 . S
O258 Mn253 2.121 . S
O258 C266 1.258 . S
C259 N260 1.326 . S
C259 C263 1.460 . S
C259 H265 0.929 . S
N260 Mn253 2.257 . S
N260 C259 1.326 . S
N260 C264 1.362 . S
C261 C262 1.258 . S
C261 C264 1.431 . S
C261 C281 1.449 . S
C262 C261 1.258 . S
C262 C263 1.477 . S
C262 H282 0.931 . S
C263 C259 1.460 . S
C263 C262 1.477 . S
C263 H283 0.930 . S
C264 N260 1.362 . S
C264 C261 1.431 . S
C264 C274 1.476 . S
H265 C259 0.929 . S
C266 O257 1.250 . S
C266 O258 1.258 . S
O267 Mn252 2.162 . S
O267 C255 1.281 . S
O268 Mn252 2.297 . S
O268 C255 1.236 . S
N269 Mn253 2.282 . S
N269 C270 1.328 . S
N269 C274 1.318 . S
C270 N269 1.328 . S
C270 C271 1.457 . S
C270 H275 0.929 . S
C271 C270 1.457 . S
C271 C272 1.291 . S
C271 H284 0.931 . S
C272 C271 1.291 . S
C272 C273 1.373 . S
C272 H285 0.929 . S
C273 C272 1.373 . S
C273 C274 1.396 . S
C273 C280 1.403 . S
C274 C264 1.476 . S
C274 N269 1.318 . S
C274 C273 1.396 . S
H275 C270 0.929 . S
O276 Mn252 2.385 . S
O276 C254 1.234 . S
O277 Mn252 2.209 . S
O277 Mn253 2.215 . S
O277 C254 1.283 . S
O278 Mn252 2.094 . S
O278 C256 1.240 . S
O279 Mn253 2.117 . S
O279 C256 1.264 . S
C280 C273 1.403 . S
C280 C281 1.399 . S
C280 H286 0.929 . S
C281 C261 1.449 . S
C281 C280 1.399 . S
C281 H287 0.930 . S
H282 C262 0.931 . S
H283 C263 0.930 . S
H284 C271 0.931 . S
H285 C272 0.929 . S
H286 C280 0.929 . S
H287 C281 0.930 . S
Mn288 O293 2.095 . S
Mn288 O303 2.162 . S
Mn288 O304 2.297 . S
Mn288 O312 2.385 . S
Mn288 O313 2.209 . S
Mn288 O314 2.094 . S
Mn289 O294 2.121 . S
Mn289 N296 2.257 . S
Mn289 N305 2.282 . S
Mn289 O313 2.215 . S
Mn289 O315 2.117 . S
C290 O312 1.234 . S
C290 O313 1.283 . S
C291 O303 1.281 . S
C291 O304 1.236 . S
C292 O314 1.240 . S
C292 O315 1.264 . S
O293 Mn288 2.095 . S
O293 C302 1.250 . S
O294 Mn289 2.121 . S
O294 C302 1.258 . S
C295 N296 1.326 . S
C295 C299 1.460 . S
C295 H301 0.929 . S
N296 Mn289 2.257 . S
N296 C295 1.326 . S
N296 C300 1.362 . S
C297 C298 1.258 . S
C297 C300 1.431 . S
C297 C317 1.449 . S
C298 C297 1.258 . S
C298 C299 1.477 . S
C298 H318 0.931 . S
C299 C295 1.460 . S
C299 C298 1.477 . S
C299 H319 0.930 . S
C300 N296 1.362 . S
C300 C297 1.431 . S
C300 C310 1.476 . S
H301 C295 0.929 . S
C302 O293 1.250 . S
C302 O294 1.258 . S
O303 Mn288 2.162 . S
O303 C291 1.281 . S
O304 Mn288 2.297 . S
O304 C291 1.236 . S
N305 Mn289 2.282 . S
N305 C306 1.328 . S
N305 C310 1.318 . S
C306 N305 1.328 . S
C306 C307 1.457 . S
C306 H311 0.929 . S
C307 C306 1.457 . S
C307 C308 1.291 . S
C307 H320 0.931 . S
C308 C307 1.291 . S
C308 C309 1.373 . S
C308 H321 0.929 . S
C309 C308 1.373 . S
C309 C310 1.396 . S
C309 C316 1.403 . S
C310 C300 1.476 . S
C310 N305 1.318 . S
C310 C309 1.396 . S
H311 C306 0.929 . S
O312 Mn288 2.385 . S
O312 C290 1.234 . S
O313 Mn288 2.209 . S
O313 Mn289 2.215 . S
O313 C290 1.283 . S
O314 Mn288 2.094 . S
O314 C292 1.240 . S
O315 Mn289 2.117 . S
O315 C292 1.264 . S
C316 C309 1.403 . S
C316 C317 1.399 . S
C316 H322 0.929 . S
C317 C297 1.449 . S
C317 C316 1.399 . S
C317 H323 0.930 . S
H318 C298 0.931 . S
H319 C299 0.930 . S
H320 C307 0.931 . S
H321 C308 0.929 . S
H322 C316 0.929 . S
H323 C317 0.930 . S
Mn324 O329 2.095 1_554 S
Mn324 O339 2.162 . S
Mn324 O340 2.297 1_554 S
Mn324 O348 2.385 . S
Mn324 O349 2.209 . S
Mn324 O350 2.094 . S
Mn325 O330 2.121 1_554 S
Mn325 N332 2.257 . S
Mn325 N341 2.282 . S
Mn325 O349 2.215 . S
Mn325 O351 2.117 . S
C326 O348 1.234 . S
C326 O349 1.283 . S
C327 O339 1.281 1_556 S
C327 O340 1.236 . S
C328 O350 1.240 . S
C328 O351 1.264 . S
O329 Mn324 2.095 1_556 S
O329 C338 1.250 . S
O330 Mn325 2.121 1_556 S
O330 C338 1.258 . S
C331 N332 1.326 1_556 S
C331 C335 1.460 . S
C331 H337 0.929 . S
N332 Mn325 2.257 . S
N332 C331 1.326 1_554 S
N332 C336 1.362 . S
C333 C334 1.258 . S
C333 C336 1.431 . S
C333 C353 1.449 . S
C334 C333 1.258 . S
C334 C335 1.477 1_554 S
C334 H354 0.931 . S
C335 C331 1.460 . S
C335 C334 1.477 1_556 S
C335 H355 0.930 . S
C336 N332 1.362 . S
C336 C333 1.431 . S
C336 C346 1.476 . S
H337 C331 0.929 . S
C338 O329 1.250 . S
C338 O330 1.258 . S
O339 Mn324 2.162 . S
O339 C327 1.281 1_554 S
O340 Mn324 2.297 1_556 S
O340 C327 1.236 . S
N341 Mn325 2.282 . S
N341 C342 1.328 . S
N341 C346 1.318 . S
C342 N341 1.328 . S
C342 C343 1.457 . S
C342 H347 0.929 . S
C343 C342 1.457 . S
C343 C344 1.291 . S
C343 H356 0.931 . S
C344 C343 1.291 . S
C344 C345 1.373 . S
C344 H357 0.929 . S
C345 C344 1.373 . S
C345 C346 1.396 . S
C345 C352 1.403 . S
C346 C336 1.476 . S
C346 N341 1.318 . S
C346 C345 1.396 . S
H347 C342 0.929 . S
O348 Mn324 2.385 . S
O348 C326 1.234 . S
O349 Mn324 2.209 . S
O349 Mn325 2.215 . S
O349 C326 1.283 . S
O350 Mn324 2.094 . S
O350 C328 1.240 . S
O351 Mn325 2.117 . S
O351 C328 1.264 . S
C352 C345 1.403 . S
C352 C353 1.399 . S
C352 H358 0.929 . S
C353 C333 1.449 . S
C353 C352 1.399 . S
C353 H359 0.930 . S
H354 C334 0.931 . S
H355 C335 0.930 . S
H356 C343 0.931 . S
H357 C344 0.929 . S
H358 C352 0.929 . S
H359 C353 0.930 . S
Mn360 O365 2.095 . S
Mn360 O375 2.162 . S
Mn360 O376 2.297 1_554 S
Mn360 O384 2.385 1_565 S
Mn360 O385 2.209 . S
Mn360 O386 2.094 . S
Mn361 O366 2.121 . S
Mn361 N368 2.257 . S
Mn361 N377 2.282 . S
Mn361 O385 2.215 . S
Mn361 O387 2.117 . S
C362 O384 1.234 . S
C362 O385 1.283 1_545 S
C363 O375 1.281 . S
C363 O376 1.236 1_554 S
C364 O386 1.240 . S
C364 O387 1.264 . S
O365 Mn360 2.095 . S
O365 C374 1.250 1_554 S
O366 Mn361 2.121 . S
O366 C374 1.258 1_554 S
C367 N368 1.327 1_545 S
C367 C371 1.458 . S
C367 H373 0.931 1_544 S
N368 Mn361 2.257 . S
N368 C367 1.327 1_565 S
N368 C372 1.362 1_565 S
C369 C370 1.258 . S
C369 C372 1.431 . S
C369 C389 1.449 . S
C370 C369 1.258 . S
C370 C371 1.477 . S
C370 H390 0.931 . S
C371 C367 1.458 . S
C371 C370 1.477 . S
C371 H391 0.930 1_554 S
C372 N368 1.362 1_545 S
C372 C369 1.431 . S
C372 C382 1.476 . S
H373 C367 0.931 1_566 S
C374 O365 1.250 1_556 S
C374 O366 1.258 1_556 S
O375 Mn360 2.162 . S
O375 C363 1.281 . S
O376 Mn360 2.297 1_556 S
O376 C363 1.236 1_556 S
N377 Mn361 2.282 . S
N377 C378 1.328 . S
N377 C382 1.318 1_565 S
C378 N377 1.328 . S
C378 C379 1.457 1_565 S
C378 H383 0.929 . S
C379 C378 1.457 1_545 S
C379 C380 1.291 . S
C379 H392 0.931 . S
C380 C379 1.291 . S
C380 C381 1.373 . S
C380 H393 0.929 . S
C381 C380 1.373 . S
C381 C382 1.396 . S
C381 C388 1.403 . S
C382 C372 1.476 . S
C382 N377 1.318 1_545 S
C382 C381 1.396 . S
H383 C378 0.929 . S
O384 Mn360 2.385 1_545 S
O384 C362 1.234 . S
O385 Mn360 2.209 . S
O385 Mn361 2.215 . S
O385 C362 1.283 1_565 S
O386 Mn360 2.094 . S
O386 C364 1.240 . S
O387 Mn361 2.117 . S
O387 C364 1.264 . S
C388 C381 1.403 . S
C388 C389 1.399 . S
C388 H394 0.929 . S
C389 C369 1.449 . S
C389 C388 1.399 . S
C389 H395 0.930 . S
H390 C370 0.931 . S
H391 C371 0.930 1_556 S
H392 C379 0.931 . S
H393 C380 0.929 . S
H394 C388 0.929 . S
H395 C389 0.930 . S
Mn396 O401 2.095 . S
Mn396 O411 2.162 . S
Mn396 O412 2.297 . S
Mn396 O420 2.385 . S
Mn396 O421 2.209 . S
Mn396 O422 2.094 . S
Mn397 O402 2.121 . S
Mn397 N404 2.257 . S
Mn397 N413 2.282 . S
Mn397 O421 2.215 . S
Mn397 O423 2.117 . S
C398 O420 1.234 . S
C398 O421 1.283 . S
C399 O411 1.281 . S
C399 O412 1.236 . S
C400 O422 1.240 . S
C400 O423 1.264 . S
O401 Mn396 2.095 . S
O401 C410 1.250 1_554 S
O402 Mn397 2.121 . S
O402 C410 1.258 1_554 S
C403 N404 1.326 . S
C403 C407 1.460 . S
C403 H409 0.929 1_554 S
N404 Mn397 2.257 . S
N404 C403 1.326 . S
N404 C408 1.362 . S
C405 C406 1.258 . S
C405 C408 1.431 . S
C405 C425 1.449 . S
C406 C405 1.258 . S
C406 C407 1.477 . S
C406 H426 0.931 . S
C407 C403 1.460 . S
C407 C406 1.477 . S
C407 H427 0.930 1_554 S
C408 N404 1.362 . S
C408 C405 1.431 . S
C408 C418 1.476 . S
H409 C403 0.929 1_556 S
C410 O401 1.250 1_556 S
C410 O402 1.258 1_556 S
O411 Mn396 2.162 . S
O411 C399 1.281 . S
O412 Mn396 2.297 . S
O412 C399 1.236 . S
N413 Mn397 2.282 . S
N413 C414 1.328 . S
N413 C418 1.318 . S
C414 N413 1.328 . S
C414 C415 1.457 . S
C414 H419 0.929 . S
C415 C414 1.457 . S
C415 C416 1.291 . S
C415 H428 0.931 . S
C416 C415 1.291 . S
C416 C417 1.373 . S
C416 H429 0.929 . S
C417 C416 1.373 . S
C417 C418 1.396 . S
C417 C424 1.403 . S
C418 C408 1.476 . S
C418 N413 1.318 . S
C418 C417 1.396 . S
H419 C414 0.929 . S
O420 Mn396 2.385 . S
O420 C398 1.234 . S
O421 Mn396 2.209 . S
O421 Mn397 2.215 . S
O421 C398 1.283 . S
O422 Mn396 2.094 . S
O422 C400 1.240 . S
O423 Mn397 2.117 . S
O423 C400 1.264 . S
C424 C417 1.403 . S
C424 C425 1.399 . S
C424 H430 0.929 . S
C425 C405 1.449 . S
C425 C424 1.399 . S
C425 H431 0.930 . S
H426 C406 0.931 . S
H427 C407 0.930 1_556 S
H428 C415 0.931 . S
H429 C416 0.929 . S
H430 C424 0.929 . S
H431 C425 0.930 . S
Mn432 O437 2.095 . S
Mn432 O447 2.162 . S
Mn432 O448 2.297 . S
Mn432 O456 2.385 . S
Mn432 O457 2.209 . S
Mn432 O458 2.094 . S
Mn433 O438 2.121 . S
Mn433 N440 2.257 . S
Mn433 N449 2.282 . S
Mn433 O457 2.215 . S
Mn433 O459 2.117 . S
C434 O456 1.234 . S
C434 O457 1.283 . S
C435 O447 1.281 . S
C435 O448 1.236 . S
C436 O458 1.240 . S
C436 O459 1.264 . S
O437 Mn432 2.095 . S
O437 C446 1.250 . S
O438 Mn433 2.121 . S
O438 C446 1.258 . S
C439 N440 1.326 . S
C439 C443 1.460 . S
C439 H445 0.929 1_556 S
N440 Mn433 2.257 . S
N440 C439 1.326 . S
N440 C444 1.362 . S
C441 C442 1.258 . S
C441 C444 1.431 . S
C441 C461 1.449 . S
C442 C441 1.258 . S
C442 C443 1.477 . S
C442 H462 0.931 . S
C443 C439 1.460 . S
C443 C442 1.477 . S
C443 H463 0.930 1_556 S
C444 N440 1.362 . S
C444 C441 1.431 . S
C444 C454 1.476 . S
H445 C439 0.929 1_554 S
C446 O437 1.250 . S
C446 O438 1.258 . S
O447 Mn432 2.162 . S
O447 C435 1.281 . S
O448 Mn432 2.297 . S
O448 C435 1.236 . S
N449 Mn433 2.282 . S
N449 C450 1.328 . S
N449 C454 1.318 . S
C450 N449 1.328 . S
C450 C451 1.457 . S
C450 H455 0.929 . S
C451 C450 1.457 . S
C451 C452 1.291 . S
C451 H464 0.931 . S
C452 C451 1.291 . S
C452 C453 1.373 . S
C452 H465 0.929 . S
C453 C452 1.373 . S
C453 C454 1.396 . S
C453 C460 1.403 . S
C454 C444 1.476 . S
C454 N449 1.318 . S
C454 C453 1.396 . S
H455 C450 0.929 . S
O456 Mn432 2.385 . S
O456 C434 1.234 . S
O457 Mn432 2.209 . S
O457 Mn433 2.215 . S
O457 C434 1.283 . S
O458 Mn432 2.094 . S
O458 C436 1.240 . S
O459 Mn433 2.117 . S
O459 C436 1.264 . S
C460 C453 1.403 . S
C460 C461 1.399 . S
C460 H466 0.929 . S
C461 C441 1.449 . S
C461 C460 1.399 . S
C461 H467 0.930 . S
H462 C442 0.931 . S
H463 C443 0.930 1_554 S
H464 C451 0.931 . S
H465 C452 0.929 . S
H466 C460 0.929 . S
H467 C461 0.930 . S
Mn468 O473 2.095 . S
Mn468 O483 2.162 . S
Mn468 O484 2.297 . S
Mn468 O492 2.385 1_556 S
Mn468 O493 2.209 . S
Mn468 O494 2.094 1_556 S
Mn469 O474 2.121 1_554 S
Mn469 N476 2.257 1_554 S
Mn469 N485 2.282 . S
Mn469 O493 2.215 1_554 S
Mn469 O495 2.117 . S
C470 O492 1.234 . S
C470 O493 1.283 1_554 S
C471 O483 1.281 . S
C471 O484 1.236 . S
C472 O494 1.240 . S
C472 O495 1.264 . S
O473 Mn468 2.095 . S
O473 C482 1.250 . S
O474 Mn469 2.121 1_556 S
O474 C482 1.258 . S
C475 N476 1.326 . S
C475 C479 1.460 . S
C475 H481 0.929 . S
N476 Mn469 2.257 1_556 S
N476 C475 1.326 . S
N476 C480 1.362 1_556 S
C477 C478 1.258 1_554 S
C477 C480 1.431 . S
C477 C497 1.449 . S
C478 C477 1.258 1_556 S
C478 C479 1.477 . S
C478 H498 0.931 . S
C479 C475 1.460 . S
C479 C478 1.477 . S
C479 H499 0.930 . S
C480 N476 1.362 1_554 S
C480 C477 1.431 . S
C480 C490 1.476 . S
H481 C475 0.929 . S
C482 O473 1.250 . S
C482 O474 1.258 . S
O483 Mn468 2.162 . S
O483 C471 1.281 . S
O484 Mn468 2.297 . S
O484 C471 1.236 . S
N485 Mn469 2.282 . S
N485 C486 1.328 . S
N485 C490 1.318 . S
C486 N485 1.328 . S
C486 C487 1.457 . S
C486 H491 0.929 . S
C487 C486 1.457 . S
C487 C488 1.291 . S
C487 H500 0.931 . S
C488 C487 1.291 . S
C488 C489 1.373 . S
C488 H501 0.929 . S
C489 C488 1.373 . S
C489 C490 1.396 . S
C489 C496 1.403 . S
C490 C480 1.476 . S
C490 N485 1.318 . S
C490 C489 1.396 . S
H491 C486 0.929 . S
O492 Mn468 2.385 1_554 S
O492 C470 1.234 . S
O493 Mn468 2.209 . S
O493 Mn469 2.215 1_556 S
O493 C470 1.283 1_556 S
O494 Mn468 2.094 1_554 S
O494 C472 1.240 . S
O495 Mn469 2.117 . S
O495 C472 1.264 . S
C496 C489 1.403 . S
C496 C497 1.399 . S
C496 H502 0.929 . S
C497 C477 1.449 . S
C497 C496 1.399 . S
C497 H503 0.930 . S
H498 C478 0.931 . S
H499 C479 0.930 . S
H500 C487 0.931 . S
H501 C488 0.929 . S
H502 C496 0.929 . S
H503 C497 0.930 . S
Mn504 O509 2.095 . S
Mn504 O519 2.162 . S
Mn504 O520 2.297 1_656 S
Mn504 O528 2.385 1_655 S
Mn504 O529 2.209 1_655 S
Mn504 O530 2.094 . S
Mn505 O510 2.121 1_455 S
Mn505 N512 2.257 . S
Mn505 N521 2.282 . S
Mn505 O529 2.215 . S
Mn505 O531 2.117 1_455 S
C506 O528 1.234 . S
C506 O529 1.283 . S
C507 O519 1.281 1_455 S
C507 O520 1.236 1_556 S
C508 O530 1.240 . S
C508 O531 1.264 . S
O509 Mn504 2.095 . S
O509 C518 1.250 1_556 S
O510 Mn505 2.121 1_655 S
O510 C518 1.258 1_556 S
C511 N512 1.326 . S
C511 C515 1.460 . S
C511 H517 0.929 1_556 S
N512 Mn505 2.257 . S
N512 C511 1.326 . S
N512 C516 1.362 . S
C513 C514 1.258 . S
C513 C516 1.431 . S
C513 C533 1.449 . S
C514 C513 1.258 . S
C514 C515 1.477 . S
C514 H534 0.931 . S
C515 C511 1.460 . S
C515 C514 1.477 . S
C515 H535 0.930 1_556 S
C516 N512 1.362 . S
C516 C513 1.431 . S
C516 C526 1.476 . S
H517 C511 0.929 1_554 S
C518 O509 1.250 1_554 S
C518 O510 1.258 1_554 S
O519 Mn504 2.162 . S
O519 C507 1.281 1_655 S
O520 Mn504 2.297 1_454 S
O520 C507 1.236 1_554 S
N521 Mn505 2.282 . S
N521 C522 1.328 . S
N521 C526 1.318 . S
C522 N521 1.328 . S
C522 C523 1.457 . S
C522 H527 0.929 . S
C523 C522 1.457 . S
C523 C524 1.291 . S
C523 H536 0.931 . S
C524 C523 1.291 . S
C524 C525 1.373 . S
C524 H537 0.929 . S
C525 C524 1.373 . S
C525 C526 1.396 . S
C525 C532 1.403 . S
C526 C516 1.476 . S
C526 N521 1.318 . S
C526 C525 1.396 . S
H527 C522 0.929 . S
O528 Mn504 2.385 1_455 S
O528 C506 1.234 . S
O529 Mn504 2.209 1_455 S
O529 Mn505 2.215 . S
O529 C506 1.283 . S
O530 Mn504 2.094 . S
O530 C508 1.240 . S
O531 Mn505 2.117 1_655 S
O531 C508 1.264 . S
C532 C525 1.403 . S
C532 C533 1.399 . S
C532 H538 0.929 . S
C533 C513 1.449 . S
C533 C532 1.399 . S
C533 H539 0.930 . S
H534 C514 0.931 . S
H535 C515 0.930 1_554 S
H536 C523 0.931 . S
H537 C524 0.929 . S
H538 C532 0.929 . S
H539 C533 0.930 . S
Mn540 O545 2.095 . S
Mn540 O555 2.162 . S
Mn540 O556 2.297 . S
Mn540 O564 2.385 . S
Mn540 O565 2.209 . S
Mn540 O566 2.094 . S
Mn541 O546 2.121 . S
Mn541 N548 2.257 . S
Mn541 N557 2.282 . S
Mn541 O565 2.215 . S
Mn541 O567 2.117 . S
C542 O564 1.234 . S
C542 O565 1.283 . S
C543 O555 1.281 . S
C543 O556 1.236 . S
C544 O566 1.240 . S
C544 O567 1.264 . S
O545 Mn540 2.095 . S
O545 C554 1.250 . S
O546 Mn541 2.121 . S
O546 C554 1.258 . S
C547 N548 1.326 . S
C547 C551 1.460 . S
C547 H553 0.929 . S
N548 Mn541 2.257 . S
N548 C547 1.326 . S
N548 C552 1.362 . S
C549 C550 1.258 . S
C549 C552 1.431 . S
C549 C569 1.449 . S
C550 C549 1.258 . S
C550 C551 1.477 . S
C550 H570 0.931 . S
C551 C547 1.460 . S
C551 C550 1.477 . S
C551 H571 0.930 . S
C552 N548 1.362 . S
C552 C549 1.431 . S
C552 C562 1.476 . S
H553 C547 0.929 . S
C554 O545 1.250 . S
C554 O546 1.258 . S
O555 Mn540 2.162 . S
O555 C543 1.281 . S
O556 Mn540 2.297 . S
O556 C543 1.236 . S
N557 Mn541 2.282 . S
N557 C558 1.328 . S
N557 C562 1.318 . S
C558 N557 1.328 . S
C558 C559 1.457 . S
C558 H563 0.929 . S
C559 C558 1.457 . S
C559 C560 1.291 . S
C559 H572 0.931 . S
C560 C559 1.291 . S
C560 C561 1.373 . S
C560 H573 0.929 . S
C561 C560 1.373 . S
C561 C562 1.396 . S
C561 C568 1.403 . S
C562 C552 1.476 . S
C562 N557 1.318 . S
C562 C561 1.396 . S
H563 C558 0.929 . S
O564 Mn540 2.385 . S
O564 C542 1.234 . S
O565 Mn540 2.209 . S
O565 Mn541 2.215 . S
O565 C542 1.283 . S
O566 Mn540 2.094 . S
O566 C544 1.240 . S
O567 Mn541 2.117 . S
O567 C544 1.264 . S
C568 C561 1.403 . S
C568 C569 1.399 . S
C568 H574 0.929 . S
C569 C549 1.449 . S
C569 C568 1.399 . S
C569 H575 0.930 . S
H570 C550 0.931 . S
H571 C551 0.930 . S
H572 C559 0.931 . S
H573 C560 0.929 . S
H574 C568 0.929 . S
H575 C569 0.930 . S
Mn576 O581 2.095 1_455 S
Mn576 O591 2.162 . S
Mn576 O592 2.297 . S
Mn576 O600 2.385 . S
Mn576 O601 2.209 1_455 S
Mn576 O602 2.094 1_455 S
Mn577 O582 2.121 . S
Mn577 N584 2.257 . S
Mn577 N593 2.282 . S
Mn577 O601 2.215 . S
Mn577 O603 2.117 . S
C578 O600 1.234 . S
C578 O601 1.283 1_455 S
C579 O591 1.281 . S
C579 O592 1.236 . S
C580 O602 1.240 . S
C580 O603 1.264 . S
O581 Mn576 2.095 1_655 S
O581 C590 1.250 . S
O582 Mn577 2.121 . S
O582 C590 1.258 . S
C583 N584 1.326 . S
C583 C587 1.460 . S
C583 H589 0.929 . S
N584 Mn577 2.257 . S
N584 C583 1.326 . S
N584 C588 1.362 . S
C585 C586 1.258 . S
C585 C588 1.431 . S
C585 C605 1.449 . S
C586 C585 1.258 . S
C586 C587 1.477 . S
C586 H606 0.931 . S
C587 C583 1.460 . S
C587 C586 1.477 . S
C587 H607 0.930 . S
C588 N584 1.362 . S
C588 C585 1.431 . S
C588 C598 1.476 . S
H589 C583 0.929 . S
C590 O581 1.250 . S
C590 O582 1.258 . S
O591 Mn576 2.162 . S
O591 C579 1.281 . S
O592 Mn576 2.297 . S
O592 C579 1.236 . S
N593 Mn577 2.282 . S
N593 C594 1.328 . S
N593 C598 1.318 . S
C594 N593 1.328 . S
C594 C595 1.457 . S
C594 H599 0.929 . S
C595 C594 1.457 . S
C595 C596 1.291 . S
C595 H608 0.931 . S
C596 C595 1.291 . S
C596 C597 1.373 . S
C596 H609 0.929 . S
C597 C596 1.373 . S
C597 C598 1.396 . S
C597 C604 1.403 . S
C598 C588 1.476 . S
C598 N593 1.318 . S
C598 C597 1.396 . S
H599 C594 0.929 . S
O600 Mn576 2.385 . S
O600 C578 1.234 . S
O601 Mn576 2.209 1_655 S
O601 Mn577 2.215 . S
O601 C578 1.283 1_655 S
O602 Mn576 2.094 1_655 S
O602 C580 1.240 . S
O603 Mn577 2.117 . S
O603 C580 1.264 . S
C604 C597 1.403 . S
C604 C605 1.399 . S
C604 H610 0.929 . S
C605 C585 1.449 . S
C605 C604 1.399 . S
C605 H611 0.930 . S
H606 C586 0.931 . S
H607 C587 0.930 . S
H608 C595 0.931 . S
H609 C596 0.929 . S
H610 C604 0.929 . S
H611 C605 0.930 . S
Mn612 O617 2.095 . S
Mn612 O627 2.162 . S
Mn612 O628 2.297 . S
Mn612 O636 2.385 . S
Mn612 O637 2.209 . S
Mn612 O638 2.094 . S
Mn613 O618 2.121 . S
Mn613 N620 2.257 . S
Mn613 N629 2.282 . S
Mn613 O637 2.215 . S
Mn613 O639 2.117 . S
C614 O636 1.234 . S
C614 O637 1.283 . S
C615 O627 1.281 . S
C615 O628 1.236 . S
C616 O638 1.240 . S
C616 O639 1.264 . S
O617 Mn612 2.095 . S
O617 C626 1.250 . S
O618 Mn613 2.121 . S
O618 C626 1.258 . S
C619 N620 1.326 . S
C619 C623 1.460 . S
C619 H625 0.929 . S
N620 Mn613 2.257 . S
N620 C619 1.326 . S
N620 C624 1.362 . S
C621 C622 1.258 . S
C621 C624 1.431 . S
C621 C641 1.449 . S
C622 C621 1.258 . S
C622 C623 1.477 . S
C622 H642 0.931 . S
C623 C619 1.460 . S
C623 C622 1.477 . S
C623 H643 0.930 . S
C624 N620 1.362 . S
C624 C621 1.431 . S
C624 C634 1.476 . S
H625 C619 0.929 . S
C626 O617 1.250 . S
C626 O618 1.258 . S
O627 Mn612 2.162 . S
O627 C615 1.281 . S
O628 Mn612 2.297 . S
O628 C615 1.236 . S
N629 Mn613 2.282 . S
N629 C630 1.328 . S
N629 C634 1.318 . S
C630 N629 1.328 . S
C630 C631 1.457 . S
C630 H635 0.929 . S
C631 C630 1.457 . S
C631 C632 1.291 . S
C631 H644 0.931 . S
C632 C631 1.291 . S
C632 C633 1.373 . S
C632 H645 0.929 . S
C633 C632 1.373 . S
C633 C634 1.396 . S
C633 C640 1.403 . S
C634 C624 1.476 . S
C634 N629 1.318 . S
C634 C633 1.396 . S
H635 C630 0.929 . S
O636 Mn612 2.385 . S
O636 C614 1.234 . S
O637 Mn612 2.209 . S
O637 Mn613 2.215 . S
O637 C614 1.283 . S
O638 Mn612 2.094 . S
O638 C616 1.240 . S
O639 Mn613 2.117 . S
O639 C616 1.264 . S
C640 C633 1.403 . S
C640 C641 1.399 . S
C640 H646 0.929 . S
C641 C621 1.449 . S
C641 C640 1.399 . S
C641 H647 0.930 . S
H642 C622 0.931 . S
H643 C623 0.930 . S
H644 C631 0.931 . S
H645 C632 0.929 . S
H646 C640 0.929 . S
H647 C641 0.930 . S
C648 C649 1.387 . S
C648 H652 0.950 . S
C648 C657 1.390 1_556 S
C649 C648 1.387 . S
C649 C651 1.387 . S
H650 C657 0.950 . S
C651 C649 1.387 . S
C651 C653 1.390 1_556 S
C651 H655 0.950 . S
H652 C648 0.950 . S
C653 C651 1.390 1_554 S
C653 C654 1.387 . S
C653 H656 0.950 . S
C654 C653 1.387 . S
C654 C657 1.387 . S
H655 C651 0.950 . S
H656 C653 0.950 . S
C657 C648 1.390 1_554 S
C657 H650 0.950 . S
C657 C654 1.387 . S
C658 C659 1.387 . S
C658 H662 0.950 . S
C658 C667 1.390 . S
C659 C658 1.387 . S
C659 C661 1.387 . S
H660 C667 0.950 . S
C661 C659 1.387 . S
C661 C663 1.390 1_556 S
C661 H665 0.950 . S
H662 C658 0.950 . S
C663 C661 1.390 1_554 S
C663 C664 1.387 . S
C663 H666 0.950 . S
C664 C663 1.387 . S
C664 C667 1.387 1_554 S
H665 C661 0.950 . S
H666 C663 0.950 . S
C667 C658 1.390 . S
C667 H660 0.950 . S
C667 C664 1.387 1_556 S
C668 C669 1.387 . S
C668 H672 0.950 . S
C668 C677 1.390 . S
C669 C668 1.387 . S
C669 C671 1.387 1_554 S
H670 C677 0.950 . S
C671 C669 1.387 1_556 S
C671 C673 1.390 . S
C671 H675 0.950 . S
H672 C668 0.950 . S
C673 C671 1.390 . S
C673 C674 1.387 . S
C673 H676 0.950 . S
C674 C673 1.387 . S
C674 C677 1.387 1_556 S
H675 C671 0.950 . S
H676 C673 0.950 . S
C677 C668 1.390 . S
C677 H670 0.950 . S
C677 C674 1.387 1_554 S
C678 C679 1.387 . S
C678 H682 0.950 . S
C678 C687 1.390 . S
C679 C678 1.387 . S
C679 C681 1.387 . S
H680 C687 0.950 . S
C681 C679 1.387 . S
C681 C683 1.390 . S
C681 H685 0.950 . S
H682 C678 0.950 . S
C683 C681 1.390 . S
C683 C684 1.387 . S
C683 H686 0.950 . S
C684 C683 1.387 . S
C684 C687 1.387 . S
H685 C681 0.950 . S
H686 C683 0.950 . S
C687 C678 1.390 . S
C687 H680 0.950 . S
C687 C684 1.387 . S
C688 C689 1.387 . S
C688 H692 0.950 . S
C688 C697 1.390 . S
C689 C688 1.387 . S
C689 C691 1.387 . S
H690 C697 0.950 . S
C691 C689 1.387 . S
C691 C693 1.390 . S
C691 H695 0.950 . S
H692 C688 0.950 . S
C693 C691 1.390 . S
C693 C694 1.387 . S
C693 H696 0.950 . S
C694 C693 1.387 . S
C694 C697 1.387 . S
H695 C691 0.950 . S
H696 C693 0.950 . S
C697 C688 1.390 . S
C697 H690 0.950 . S
C697 C694 1.387 . S
C698 C699 1.387 . S
C698 H702 0.950 . S
C698 C707 1.390 . S
C699 C698 1.387 . S
C699 C701 1.387 . S
H700 C707 0.950 . S
C701 C699 1.387 . S
C701 C703 1.390 . S
C701 H705 0.950 . S
H702 C698 0.950 . S
C703 C701 1.390 . S
C703 C704 1.387 . S
C703 H706 0.950 . S
C704 C703 1.387 . S
C704 C707 1.387 . S
H705 C701 0.950 . S
H706 C703 0.950 . S
C707 C698 1.390 . S
C707 H700 0.950 . S
C707 C704 1.387 . S
C708 C709 1.387 . S
C708 H712 0.950 . S
C708 C717 1.390 . S
C709 C708 1.387 . S
C709 C711 1.387 . S
H710 C717 0.950 . S
C711 C709 1.387 . S
C711 C713 1.390 . S
C711 H715 0.950 . S
H712 C708 0.950 . S
C713 C711 1.390 . S
C713 C714 1.387 . S
C713 H716 0.950 . S
C714 C713 1.387 . S
C714 C717 1.387 . S
H715 C711 0.950 . S
H716 C713 0.950 . S
C717 C708 1.390 . S
C717 H710 0.950 . S
C717 C714 1.387 . S
C718 C719 1.387 . S
C718 H722 0.950 . S
C718 C727 1.390 . S
C719 C718 1.387 . S
C719 C721 1.387 . S
H720 C727 0.950 . S
C721 C719 1.387 . S
C721 C723 1.390 . S
C721 H725 0.950 . S
H722 C718 0.950 . S
C723 C721 1.390 . S
C723 C724 1.387 . S
C723 H726 0.950 . S
C724 C723 1.387 . S
C724 C727 1.387 . S
H725 C721 0.950 . S
H726 C723 0.950 . S
C727 C718 1.390 . S
C727 H720 0.950 . S
C727 C724 1.387 . S
C728 C729 1.387 . S
C728 H732 0.950 . S
C728 C737 1.390 . S
C729 C728 1.387 . S
C729 C731 1.387 . S
H730 C737 0.950 . S
C731 C729 1.387 . S
C731 C733 1.390 . S
C731 H735 0.950 . S
H732 C728 0.950 . S
C733 C731 1.390 . S
C733 C734 1.387 . S
C733 H736 0.950 . S
C734 C733 1.387 . S
C734 C737 1.387 . S
H735 C731 0.950 . S
H736 C733 0.950 . S
C737 C728 1.390 . S
C737 H730 0.950 . S
C737 C734 1.387 . S
C738 C739 1.387 . S
C738 H742 0.950 . S
C738 C747 1.390 . S
C739 C738 1.387 . S
C739 C741 1.387 . S
H740 C747 0.950 . S
C741 C739 1.387 . S
C741 C743 1.390 . S
C741 H745 0.950 . S
H742 C738 0.950 . S
C743 C741 1.390 . S
C743 C744 1.387 . S
C743 H746 0.950 . S
C744 C743 1.387 . S
C744 C747 1.387 . S
H745 C741 0.950 . S
H746 C743 0.950 . S
C747 C738 1.390 . S
C747 H740 0.950 . S
C747 C744 1.387 . S
C748 C749 1.387 . S
C748 H752 0.950 . S
C748 C757 1.390 . S
C749 C748 1.387 . S
C749 C751 1.387 . S
H750 C757 0.950 . S
C751 C749 1.387 . S
C751 C753 1.390 . S
C751 H755 0.950 . S
H752 C748 0.950 . S
C753 C751 1.390 . S
C753 C754 1.387 . S
C753 H756 0.950 . S
C754 C753 1.387 . S
C754 C757 1.387 . S
H755 C751 0.950 . S
H756 C753 0.950 . S
C757 C748 1.390 . S
C757 H750 0.950 . S
C757 C754 1.387 . S
C758 C759 1.387 . S
C758 H762 0.950 . S
C758 C767 1.390 . S
C759 C758 1.387 . S
C759 C761 1.387 . S
H760 C767 0.950 . S
C761 C759 1.387 . S
C761 C763 1.390 . S
C761 H765 0.950 . S
H762 C758 0.950 . S
C763 C761 1.390 . S
C763 C764 1.387 . S
C763 H766 0.950 . S
C764 C763 1.387 . S
C764 C767 1.387 . S
H765 C761 0.950 . S
H766 C763 0.950 . S
C767 C758 1.390 . S
C767 H760 0.950 . S
C767 C764 1.387 . S
C768 C769 1.387 . S
C768 H772 0.950 . S
C768 C777 1.390 . S
C769 C768 1.387 . S
C769 C771 1.387 . S
H770 C777 0.950 . S
C771 C769 1.387 . S
C771 C773 1.390 . S
C771 H775 0.950 . S
H772 C768 0.950 . S
C773 C771 1.390 . S
C773 C774 1.387 . S
C773 H776 0.950 . S
C774 C773 1.387 . S
C774 C777 1.387 . S
H775 C771 0.950 . S
H776 C773 0.950 . S
C777 C768 1.390 . S
C777 H770 0.950 . S
C777 C774 1.387 . S
C778 C779 1.387 . S
C778 H782 0.950 . S
C778 C787 1.390 . S
C779 C778 1.387 . S
C779 C781 1.387 . S
H780 C787 0.950 . S
C781 C779 1.387 . S
C781 C783 1.390 . S
C781 H785 0.950 . S
H782 C778 0.950 . S
C783 C781 1.390 . S
C783 C784 1.387 . S
C783 H786 0.950 . S
C784 C783 1.387 . S
C784 C787 1.387 . S
H785 C781 0.950 . S
H786 C783 0.950 . S
C787 C778 1.390 . S
C787 H780 0.950 . S
C787 C784 1.387 . S
C788 C789 1.387 . S
C788 H792 0.950 . S
C788 C797 1.390 . S
C789 C788 1.387 . S
C789 C791 1.387 . S
H790 C797 0.950 . S
C791 C789 1.387 . S
C791 C793 1.390 . S
C791 H795 0.950 . S
H792 C788 0.950 . S
C793 C791 1.390 . S
C793 C794 1.387 . S
C793 H796 0.950 . S
C794 C793 1.387 . S
C794 C797 1.387 . S
H795 C791 0.950 . S
H796 C793 0.950 . S
C797 C788 1.390 . S
C797 H790 0.950 . S
C797 C794 1.387 . S
C798 C799 1.387 . S
C798 H802 0.950 . S
C798 C807 1.390 . S
C799 C798 1.387 . S
C799 C801 1.387 . S
H800 C807 0.950 . S
C801 C799 1.387 . S
C801 C803 1.390 . S
C801 H805 0.950 . S
H802 C798 0.950 . S
C803 C801 1.390 . S
C803 C804 1.387 . S
C803 H806 0.950 . S
C804 C803 1.387 . S
C804 C807 1.387 . S
H805 C801 0.950 . S
H806 C803 0.950 . S
C807 C798 1.390 . S
C807 H800 0.950 . S
C807 C804 1.387 . S
C808 C809 1.387 . S
C808 H812 0.950 . S
C808 C817 1.390 . S
C809 C808 1.387 . S
C809 C811 1.387 . S
H810 C817 0.950 . S
C811 C809 1.387 . S
C811 C813 1.390 . S
C811 H815 0.950 . S
H812 C808 0.950 . S
C813 C811 1.390 . S
C813 C814 1.387 . S
C813 H816 0.950 . S
C814 C813 1.387 . S
C814 C817 1.387 . S
H815 C811 0.950 . S
H816 C813 0.950 . S
C817 C808 1.390 . S
C817 H810 0.950 . S
C817 C814 1.387 . S
C818 C819 1.387 . S
C818 H822 0.950 . S
C818 C827 1.390 . S
C819 C818 1.387 . S
C819 C821 1.387 . S
H820 C827 0.950 . S
C821 C819 1.387 . S
C821 C823 1.390 . S
C821 H825 0.950 . S
H822 C818 0.950 . S
C823 C821 1.390 . S
C823 C824 1.387 . S
C823 H826 0.950 . S
C824 C823 1.387 . S
C824 C827 1.387 . S
H825 C821 0.950 . S
H826 C823 0.950 . S
C827 C818 1.390 . S
C827 H820 0.950 . S
C827 C824 1.387 . S
C828 C829 1.387 . S
C828 H832 0.950 . S
C828 C837 1.390 . S
C829 C828 1.387 . S
C829 C831 1.387 . S
H830 C837 0.950 . S
C831 C829 1.387 . S
C831 C833 1.390 . S
C831 H835 0.950 . S
H832 C828 0.950 . S
C833 C831 1.390 . S
C833 C834 1.387 . S
C833 H836 0.950 . S
C834 C833 1.387 . S
C834 C837 1.387 . S
H835 C831 0.950 . S
H836 C833 0.950 . S
C837 C828 1.390 . S
C837 H830 0.950 . S
C837 C834 1.387 . S
C838 C839 1.387 . S
C838 H842 0.950 . S
C838 C847 1.390 . S
C839 C838 1.387 . S
C839 C841 1.387 . S
H840 C847 0.950 . S
C841 C839 1.387 . S
C841 C843 1.390 . S
C841 H845 0.950 . S
H842 C838 0.950 . S
C843 C841 1.390 . S
C843 C844 1.387 . S
C843 H846 0.950 . S
C844 C843 1.387 . S
C844 C847 1.387 . S
H845 C841 0.950 . S
H846 C843 0.950 . S
C847 C838 1.390 . S
C847 H840 0.950 . S
C847 C844 1.387 . S
C848 C849 1.387 1_545 S
C848 H852 0.950 . S
C848 C857 1.390 . S
C849 C848 1.387 1_565 S
C849 C851 1.387 . S
H850 C857 0.950 . S
C851 C849 1.387 . S
C851 C853 1.390 . S
C851 H855 0.950 . S
H852 C848 0.950 . S
C853 C851 1.390 . S
C853 C854 1.387 1_565 S
C853 H856 0.950 . S
C854 C853 1.387 1_545 S
C854 C857 1.387 . S
H855 C851 0.950 . S
H856 C853 0.950 . S
C857 C848 1.390 . S
C857 H850 0.950 . S
C857 C854 1.387 . S
C858 C859 1.387 . S
C858 H862 0.950 . S
C858 C867 1.390 . S
C859 C858 1.387 . S
C859 C861 1.387 . S
H860 C867 0.950 1_556 S
C861 C859 1.387 . S
C861 C863 1.390 . S
C861 H865 0.950 . S
H862 C858 0.950 . S
C863 C861 1.390 . S
C863 C864 1.387 . S
C863 H866 0.950 . S
C864 C863 1.387 . S
C864 C867 1.387 . S
H865 C861 0.950 . S
H866 C863 0.950 . S
C867 C858 1.390 . S
C867 H860 0.950 1_554 S
C867 C864 1.387 . S
C868 C869 1.387 . S
C868 H872 0.950 1_554 S
C868 C877 1.390 . S
C869 C868 1.387 . S
C869 C871 1.387 . S
H870 C877 0.950 . S
C871 C869 1.387 . S
C871 C873 1.390 . S
C871 H875 0.950 . S
H872 C868 0.950 1_556 S
C873 C871 1.390 . S
C873 C874 1.387 . S
C873 H876 0.950 . S
C874 C873 1.387 . S
C874 C877 1.387 . S
H875 C871 0.950 . S
H876 C873 0.950 . S
C877 C868 1.390 . S
C877 H870 0.950 . S
C877 C874 1.387 . S
C878 C879 1.387 1_556 S
C878 H882 0.950 . S
C878 C887 1.390 1_556 S
C879 C878 1.387 1_554 S
C879 C881 1.387 . S
H880 C887 0.950 . S
C881 C879 1.387 . S
C881 C883 1.390 . S
C881 H885 0.950 . S
H882 C878 0.950 . S
C883 C881 1.390 . S
C883 C884 1.387 . S
C883 H886 0.950 . S
C884 C883 1.387 . S
C884 C887 1.387 . S
H885 C881 0.950 . S
H886 C883 0.950 . S
C887 C878 1.390 1_554 S
C887 H880 0.950 . S
C887 C884 1.387 . S
C888 C889 1.387 . S
C888 H892 0.950 . S
C888 C897 1.390 . S
C889 C888 1.387 . S
C889 C891 1.387 1_455 S
H890 C897 0.950 . S
C891 C889 1.387 1_655 S
C891 C893 1.390 1_655 S
C891 H895 0.950 . S
H892 C888 0.950 . S
C893 C891 1.390 1_455 S
C893 C894 1.387 . S
C893 H896 0.950 1_455 S
C894 C893 1.387 . S
C894 C897 1.387 . S
H895 C891 0.950 . S
H896 C893 0.950 1_655 S
C897 C888 1.390 . S
C897 H890 0.950 . S
C897 C894 1.387 . S
C898 C899 1.387 . S
C898 H902 0.950 . S
C898 C907 1.390 . S
C899 C898 1.387 . S
C899 C901 1.387 . S
H900 C907 0.950 . S
C901 C899 1.387 . S
C901 C903 1.390 . S
C901 H905 0.950 . S
H902 C898 0.950 . S
C903 C901 1.390 . S
C903 C904 1.387 . S
C903 H906 0.950 . S
C904 C903 1.387 . S
C904 C907 1.387 . S
H905 C901 0.950 . S
H906 C903 0.950 . S
C907 C898 1.390 . S
C907 H900 0.950 . S
C907 C904 1.387 . S
C908 C909 1.387 . S
C908 H912 0.950 . S
C908 C917 1.390 . S
C909 C908 1.387 . S
C909 C911 1.387 . S
H910 C917 0.950 . S
C911 C909 1.387 . S
C911 C913 1.390 . S
C911 H915 0.950 . S
H912 C908 0.950 . S
C913 C911 1.390 . S
C913 C914 1.387 . S
C913 H916 0.950 . S
C914 C913 1.387 . S
C914 C917 1.387 . S
H915 C911 0.950 . S
H916 C913 0.950 . S
C917 C908 1.390 . S
C917 H910 0.950 . S
C917 C914 1.387 . S
C918 C919 1.387 1_545 S
C918 H922 0.950 . S
C918 C927 1.390 . S
C919 C918 1.387 1_565 S
C919 C921 1.387 . S
H920 C927 0.950 . S
C921 C919 1.387 . S
C921 C923 1.390 . S
C921 H925 0.950 . S
H922 C918 0.950 . S
C923 C921 1.390 . S
C923 C924 1.387 1_565 S
C923 H926 0.950 . S
C924 C923 1.387 1_545 S
C924 C927 1.387 . S
H925 C921 0.950 . S
H926 C923 0.950 . S
C927 C918 1.390 . S
C927 H920 0.950 . S
C927 C924 1.387 . S
C928 C929 1.387 . S
C928 H932 0.950 . S
C928 C937 1.390 . S
C929 C928 1.387 . S
C929 C931 1.387 . S
H930 C937 0.950 1_554 S
C931 C929 1.387 . S
C931 C933 1.390 . S
C931 H935 0.950 . S
H932 C928 0.950 . S
C933 C931 1.390 . S
C933 C934 1.387 . S
C933 H936 0.950 . S
C934 C933 1.387 . S
C934 C937 1.387 . S
H935 C931 0.950 . S
H936 C933 0.950 . S
C937 C928 1.390 . S
C937 H930 0.950 1_556 S
C937 C934 1.387 . S
C938 C939 1.387 . S
C938 H942 0.950 . S
C938 C947 1.390 . S
C939 C938 1.387 . S
C939 C941 1.387 . S
H940 C947 0.950 . S
C941 C939 1.387 . S
C941 C943 1.390 . S
C941 H945 0.950 . S
H942 C938 0.950 . S
C943 C941 1.390 . S
C943 C944 1.387 . S
C943 H946 0.950 . S
C944 C943 1.387 . S
C944 C947 1.387 . S
H945 C941 0.950 . S
H946 C943 0.950 . S
C947 C938 1.390 . S
C947 H940 0.950 . S
C947 C944 1.387 . S
C948 C949 1.387 . S
C948 H952 0.950 . S
C948 C957 1.390 . S
C949 C948 1.387 . S
C949 C951 1.387 . S
H950 C957 0.950 . S
C951 C949 1.387 . S
C951 C953 1.390 . S
C951 H955 0.950 . S
H952 C948 0.950 . S
C953 C951 1.390 . S
C953 C954 1.387 . S
C953 H956 0.950 . S
C954 C953 1.387 . S
C954 C957 1.387 . S
H955 C951 0.950 . S
H956 C953 0.950 . S
C957 C948 1.390 . S
C957 H950 0.950 . S
C957 C954 1.387 . S
C958 C959 1.387 . S
C958 H962 0.950 . S
C958 C967 1.390 . S
C959 C958 1.387 . S
C959 C961 1.387 . S
H960 C967 0.950 . S
C961 C959 1.387 . S
C961 C963 1.390 . S
C961 H965 0.950 . S
H962 C958 0.950 . S
C963 C961 1.390 . S
C963 C964 1.387 . S
C963 H966 0.950 . S
C964 C963 1.387 . S
C964 C967 1.387 . S
H965 C961 0.950 . S
H966 C963 0.950 . S
C967 C958 1.390 . S
C967 H960 0.950 . S
C967 C964 1.387 . S
C968 C969 1.387 . S
C968 H972 0.950 . S
C968 C977 1.390 . S
C969 C968 1.387 . S
C969 C971 1.387 . S
H970 C977 0.950 . S
C971 C969 1.387 . S
C971 C973 1.390 . S
C971 H975 0.950 . S
H972 C968 0.950 . S
C973 C971 1.390 . S
C973 C974 1.387 . S
C973 H976 0.950 . S
C974 C973 1.387 . S
C974 C977 1.387 . S
H975 C971 0.950 . S
H976 C973 0.950 . S
C977 C968 1.390 . S
C977 H970 0.950 . S
C977 C974 1.387 . S
C978 C979 1.387 . S
C978 H982 0.950 . S
C978 C987 1.390 . S
C979 C978 1.387 . S
C979 C981 1.387 . S
H980 C987 0.950 . S
C981 C979 1.387 . S
C981 C983 1.390 . S
C981 H985 0.950 . S
H982 C978 0.950 . S
C983 C981 1.390 . S
C983 C984 1.387 . S
C983 H986 0.950 . S
C984 C983 1.387 . S
C984 C987 1.387 . S
H985 C981 0.950 . S
H986 C983 0.950 . S
C987 C978 1.390 . S
C987 H980 0.950 . S
C987 C984 1.387 . S
C988 C989 1.387 . S
C988 H992 0.950 . S
C988 C997 1.390 . S
C989 C988 1.387 . S
C989 C991 1.387 . S
H990 C997 0.950 . S
C991 C989 1.387 . S
C991 C993 1.390 . S
C991 H995 0.950 . S
H992 C988 0.950 . S
C993 C991 1.390 . S
C993 C994 1.387 . S
C993 H996 0.950 . S
C994 C993 1.387 . S
C994 C997 1.387 . S
H995 C991 0.950 . S
H996 C993 0.950 . S
C997 C988 1.390 . S
C997 H990 0.950 . S
C997 C994 1.387 . S
C998 C999 1.387 . S
C998 H1002 0.950 . S
C998 C1007 1.390 . S
C999 C998 1.387 . S
C999 C1001 1.387 . S
H1000 C1007 0.950 . S
C1001 C999 1.387 . S
C1001 C1003 1.390 . S
C1001 H1005 0.950 . S
H1002 C998 0.950 . S
C1003 C1001 1.390 . S
C1003 C1004 1.387 . S
C1003 H1006 0.950 . S
C1004 C1003 1.387 . S
C1004 C1007 1.387 . S
H1005 C1001 0.950 . S
H1006 C1003 0.950 . S
C1007 C998 1.390 . S
C1007 H1000 0.950 . S
C1007 C1004 1.387 . S
C649 C122 1.442 . S
C654 C4 1.382 . S
C659 C148 1.357 . S
C664 C50 1.413 . S
C669 C76 1.389 . S
C674 C184 1.376 . S
C679 C86 1.396 . S
C684 C194 1.394 . S
C689 C14 1.426 . S
C694 C112 1.386 . S
C699 C158 1.435 . S
C704 C40 1.368 . S
C709 C328 1.384 . S
C714 C220 1.389 . S
C719 C266 1.408 . S
C724 C364 1.363 . S
C729 C302 1.430 . S
C734 C400 1.366 . S
C739 C410 1.412 . S
C744 C292 1.366 . S
C749 C338 1.405 . S
C754 C230 1.404 . S
C759 C374 1.419 . S
C764 C256 1.368 . S
C769 C436 1.380 . S
C774 C554 1.420 . S
C779 C482 1.411 . S
C784 C580 1.366 . S
C789 C508 1.389 . S
C794 C616 1.374 . S
C799 C626 1.381 . S
C804 C518 1.384 . S
C809 C544 1.386 . S
C814 C446 1.433 1_554 S
C819 C590 1.422 . S
C824 C472 1.372 . S
C829 C3 1.356 . S
C834 C255 1.354 . S
C839 C38 1.295 . S
C844 C291 1.341 . S
C849 C218 1.308 . S
C854 C75 1.352 . S
C859 C74 1.312 . S
C864 C470 1.307 . S
C869 C507 1.355 1_554 S
C874 C2 1.304 . S
C879 C435 1.356 1_554 S
C884 C39 1.346 . S
C889 C578 1.319 . S
C894 C110 1.306 . S
C899 C147 1.337 . S
C904 C614 1.309 . S
C909 C543 1.363 . S
C914 C183 1.354 . S
C919 C363 1.351 1_556 S
C924 C182 1.308 . S
C929 C111 1.357 . S
C934 C399 1.349 1_556 S
C939 C146 1.311 . S
C944 C327 1.347 . S
C949 C219 1.350 . S
C954 C471 1.351 . S
C959 C254 1.297 . S
C964 C506 1.308 . S
C969 C290 1.317 . S
C974 C434 1.301 . S
C979 C579 1.347 . S
C984 C398 1.298 . S
C989 C615 1.359 . S
C994 C326 1.338 . S
C999 C362 1.309 . S
C1004 C542 1.299 . S
