# Generated by pormake.
# Topology umn, (4)-cn, num edge types: 1
# Building blocks:
#     Node 0, Type 0, BuildingBlock: CEKHIL_clean_sbu_0, # of connection points: 4
#     Node 1, Type 0, BuildingBlock: CEKHIL_clean_sbu_0, # of connection points: 4
#     Node 2, Type 0, BuildingBlock: CEKHIL_clean_sbu_0, # of connection points: 4
#     Node 3, Type 0, BuildingBlock: CEKHIL_clean_sbu_0, # of connection points: 4
#     Node 4, Type 0, BuildingBlock: CEKHIL_clean_sbu_0, # of connection points: 4
#     Node 5, Type 0, BuildingBlock: CEKHIL_clean_sbu_0, # of connection points: 4
#     Node 6, Type 0, BuildingBlock: CEKHIL_clean_sbu_0, # of connection points: 4
#     Node 7, Type 0, BuildingBlock: CEKHIL_clean_sbu_0, # of connection points: 4
#     Node 8, Type 0, BuildingBlock: CEKHIL_clean_sbu_0, # of connection points: 4
#     Node 9, Type 0, BuildingBlock: CEKHIL_clean_sbu_0, # of connection points: 4
#     Node 10, Type 0, BuildingBlock: CEKHIL_clean_sbu_0, # of connection points: 4
#     Node 11, Type 0, BuildingBlock: CEKHIL_clean_sbu_0, # of connection points: 4
#     Node 12, Type 0, BuildingBlock: CEKHIL_clean_sbu_0, # of connection points: 4
#     Node 13, Type 0, BuildingBlock: CEKHIL_clean_sbu_0, # of connection points: 4
#     Node 14, Type 0, BuildingBlock: CEKHIL_clean_sbu_0, # of connection points: 4
#     Node 15, Type 0, BuildingBlock: CEKHIL_clean_sbu_0, # of connection points: 4
#     Node 16, Type 0, BuildingBlock: CEKHIL_clean_sbu_0, # of connection points: 4
#     Node 17, Type 0, BuildingBlock: CEKHIL_clean_sbu_0, # of connection points: 4
#     Node 18, Type 0, BuildingBlock: CEKHIL_clean_sbu_0, # of connection points: 4
#     Node 19, Type 0, BuildingBlock: CEKHIL_clean_sbu_0, # of connection points: 4
#     Node 20, Type 0, BuildingBlock: CEKHIL_clean_sbu_0, # of connection points: 4
#     Node 21, Type 0, BuildingBlock: CEKHIL_clean_sbu_0, # of connection points: 4
#     Node 22, Type 0, BuildingBlock: CEKHIL_clean_sbu_0, # of connection points: 4
#     Node 23, Type 0, BuildingBlock: CEKHIL_clean_sbu_0, # of connection points: 4
#     Node 24, Type 0, BuildingBlock: CEKHIL_clean_sbu_0, # of connection points: 4
#     Node 25, Type 0, BuildingBlock: CEKHIL_clean_sbu_0, # of connection points: 4
#     Node 26, Type 0, BuildingBlock: CEKHIL_clean_sbu_0, # of connection points: 4
#     Node 27, Type 0, BuildingBlock: CEKHIL_clean_sbu_0, # of connection points: 4
#     Node 28, Type 0, BuildingBlock: CEKHIL_clean_sbu_0, # of connection points: 4
#     Node 29, Type 0, BuildingBlock: CEKHIL_clean_sbu_0, # of connection points: 4
#     Node 30, Type 0, BuildingBlock: CEKHIL_clean_sbu_0, # of connection points: 4
#     Node 31, Type 0, BuildingBlock: CEKHIL_clean_sbu_0, # of connection points: 4
#     Node 32, Type 0, BuildingBlock: CEKHIL_clean_sbu_0, # of connection points: 4
#     Node 33, Type 0, BuildingBlock: CEKHIL_clean_sbu_0, # of connection points: 4
#     Node 34, Type 0, BuildingBlock: CEKHIL_clean_sbu_0, # of connection points: 4
#     Node 35, Type 0, BuildingBlock: CEKHIL_clean_sbu_0, # of connection points: 4
#     Edge 36, Type (0, 0), BuildingBlock: EZIPEK_clean_linker_0, # of connection points: 2
#     Edge 37, Type (0, 0), BuildingBlock: EZIPEK_clean_linker_0, # of connection points: 2
#     Edge 38, Type (0, 0), BuildingBlock: EZIPEK_clean_linker_0, # of connection points: 2
#     Edge 39, Type (0, 0), BuildingBlock: EZIPEK_clean_linker_0, # of connection points: 2
#     Edge 40, Type (0, 0), BuildingBlock: EZIPEK_clean_linker_0, # of connection points: 2
#     Edge 41, Type (0, 0), BuildingBlock: EZIPEK_clean_linker_0, # of connection points: 2
#     Edge 42, Type (0, 0), BuildingBlock: EZIPEK_clean_linker_0, # of connection points: 2
#     Edge 43, Type (0, 0), BuildingBlock: EZIPEK_clean_linker_0, # of connection points: 2
#     Edge 44, Type (0, 0), BuildingBlock: EZIPEK_clean_linker_0, # of connection points: 2
#     Edge 45, Type (0, 0), BuildingBlock: EZIPEK_clean_linker_0, # of connection points: 2
#     Edge 46, Type (0, 0), BuildingBlock: EZIPEK_clean_linker_0, # of connection points: 2
#     Edge 47, Type (0, 0), BuildingBlock: EZIPEK_clean_linker_0, # of connection points: 2
#     Edge 48, Type (0, 0), BuildingBlock: EZIPEK_clean_linker_0, # of connection points: 2
#     Edge 49, Type (0, 0), BuildingBlock: EZIPEK_clean_linker_0, # of connection points: 2
#     Edge 50, Type (0, 0), BuildingBlock: EZIPEK_clean_linker_0, # of connection points: 2
#     Edge 51, Type (0, 0), BuildingBlock: EZIPEK_clean_linker_0, # of connection points: 2
#     Edge 52, Type (0, 0), BuildingBlock: EZIPEK_clean_linker_0, # of connection points: 2
#     Edge 53, Type (0, 0), BuildingBlock: EZIPEK_clean_linker_0, # of connection points: 2
#     Edge 54, Type (0, 0), BuildingBlock: EZIPEK_clean_linker_0, # of connection points: 2
#     Edge 55, Type (0, 0), BuildingBlock: EZIPEK_clean_linker_0, # of connection points: 2
#     Edge 56, Type (0, 0), BuildingBlock: EZIPEK_clean_linker_0, # of connection points: 2
#     Edge 57, Type (0, 0), BuildingBlock: EZIPEK_clean_linker_0, # of connection points: 2
#     Edge 58, Type (0, 0), BuildingBlock: EZIPEK_clean_linker_0, # of connection points: 2
#     Edge 59, Type (0, 0), BuildingBlock: EZIPEK_clean_linker_0, # of connection points: 2
#     Edge 60, Type (0, 0), BuildingBlock: EZIPEK_clean_linker_0, # of connection points: 2
#     Edge 61, Type (0, 0), BuildingBlock: EZIPEK_clean_linker_0, # of connection points: 2
#     Edge 62, Type (0, 0), BuildingBlock: EZIPEK_clean_linker_0, # of connection points: 2
#     Edge 63, Type (0, 0), BuildingBlock: EZIPEK_clean_linker_0, # of connection points: 2
#     Edge 64, Type (0, 0), BuildingBlock: EZIPEK_clean_linker_0, # of connection points: 2
#     Edge 65, Type (0, 0), BuildingBlock: EZIPEK_clean_linker_0, # of connection points: 2
#     Edge 66, Type (0, 0), BuildingBlock: EZIPEK_clean_linker_0, # of connection points: 2
#     Edge 67, Type (0, 0), BuildingBlock: EZIPEK_clean_linker_0, # of connection points: 2
#     Edge 68, Type (0, 0), BuildingBlock: EZIPEK_clean_linker_0, # of connection points: 2
#     Edge 69, Type (0, 0), BuildingBlock: EZIPEK_clean_linker_0, # of connection points: 2
#     Edge 70, Type (0, 0), BuildingBlock: EZIPEK_clean_linker_0, # of connection points: 2
#     Edge 71, Type (0, 0), BuildingBlock: EZIPEK_clean_linker_0, # of connection points: 2
#     Edge 72, Type (0, 0), BuildingBlock: EZIPEK_clean_linker_0, # of connection points: 2
#     Edge 73, Type (0, 0), BuildingBlock: EZIPEK_clean_linker_0, # of connection points: 2
#     Edge 74, Type (0, 0), BuildingBlock: EZIPEK_clean_linker_0, # of connection points: 2
#     Edge 75, Type (0, 0), BuildingBlock: EZIPEK_clean_linker_0, # of connection points: 2
#     Edge 76, Type (0, 0), BuildingBlock: EZIPEK_clean_linker_0, # of connection points: 2
#     Edge 77, Type (0, 0), BuildingBlock: EZIPEK_clean_linker_0, # of connection points: 2
#     Edge 78, Type (0, 0), BuildingBlock: EZIPEK_clean_linker_0, # of connection points: 2
#     Edge 79, Type (0, 0), BuildingBlock: EZIPEK_clean_linker_0, # of connection points: 2
#     Edge 80, Type (0, 0), BuildingBlock: EZIPEK_clean_linker_0, # of connection points: 2
#     Edge 81, Type (0, 0), BuildingBlock: EZIPEK_clean_linker_0, # of connection points: 2
#     Edge 82, Type (0, 0), BuildingBlock: EZIPEK_clean_linker_0, # of connection points: 2
#     Edge 83, Type (0, 0), BuildingBlock: EZIPEK_clean_linker_0, # of connection points: 2
#     Edge 84, Type (0, 0), BuildingBlock: EZIPEK_clean_linker_0, # of connection points: 2
#     Edge 85, Type (0, 0), BuildingBlock: EZIPEK_clean_linker_0, # of connection points: 2
#     Edge 86, Type (0, 0), BuildingBlock: EZIPEK_clean_linker_0, # of connection points: 2
#     Edge 87, Type (0, 0), BuildingBlock: EZIPEK_clean_linker_0, # of connection points: 2
#     Edge 88, Type (0, 0), BuildingBlock: EZIPEK_clean_linker_0, # of connection points: 2
#     Edge 89, Type (0, 0), BuildingBlock: EZIPEK_clean_linker_0, # of connection points: 2
#     Edge 90, Type (0, 0), BuildingBlock: EZIPEK_clean_linker_0, # of connection points: 2
#     Edge 91, Type (0, 0), BuildingBlock: EZIPEK_clean_linker_0, # of connection points: 2
#     Edge 92, Type (0, 0), BuildingBlock: EZIPEK_clean_linker_0, # of connection points: 2
#     Edge 93, Type (0, 0), BuildingBlock: EZIPEK_clean_linker_0, # of connection points: 2
#     Edge 94, Type (0, 0), BuildingBlock: EZIPEK_clean_linker_0, # of connection points: 2
#     Edge 95, Type (0, 0), BuildingBlock: EZIPEK_clean_linker_0, # of connection points: 2
#     Edge 96, Type (0, 0), BuildingBlock: EZIPEK_clean_linker_0, # of connection points: 2
#     Edge 97, Type (0, 0), BuildingBlock: EZIPEK_clean_linker_0, # of connection points: 2
#     Edge 98, Type (0, 0), BuildingBlock: EZIPEK_clean_linker_0, # of connection points: 2
#     Edge 99, Type (0, 0), BuildingBlock: EZIPEK_clean_linker_0, # of connection points: 2
#     Edge 100, Type (0, 0), BuildingBlock: EZIPEK_clean_linker_0, # of connection points: 2
#     Edge 101, Type (0, 0), BuildingBlock: EZIPEK_clean_linker_0, # of connection points: 2
#     Edge 102, Type (0, 0), BuildingBlock: EZIPEK_clean_linker_0, # of connection points: 2
#     Edge 103, Type (0, 0), BuildingBlock: EZIPEK_clean_linker_0, # of connection points: 2
#     Edge 104, Type (0, 0), BuildingBlock: EZIPEK_clean_linker_0, # of connection points: 2
#     Edge 105, Type (0, 0), BuildingBlock: EZIPEK_clean_linker_0, # of connection points: 2
#     Edge 106, Type (0, 0), BuildingBlock: EZIPEK_clean_linker_0, # of connection points: 2
#     Edge 107, Type (0, 0), BuildingBlock: EZIPEK_clean_linker_0, # of connection points: 2
# Relax obj value: 0.182
# Max RMSD: 0.213
# Mean RMSD: 0.213
data_MOF--net-umn--node1-CEKHIL_clean_sbu_0--edge1-EZIPEK_clean_linker_0
_symmetry_space_group_name_H-M    P1
_symmetry_Int_Tables_number       1
_symmetry_cell_setting            triclinic
loop_
_symmetry_equiv_pos_as_xyz
'x, y, z'
_cell_length_a     60.04901
_cell_length_b     60.012011
_cell_length_c     26.340568
_cell_angle_alpha  90.005007
_cell_angle_beta   89.847954
_cell_angle_gamma 119.86656
loop_
_atom_site_label
_atom_site_type_symbol
_atom_site_fract_x
_atom_site_fract_y
_atom_site_fract_z
_atom_type_partial_charge
Co0 Co 0.36555 0.10497 0.23165 0.0
O1 O 0.38442 0.1416 0.21968 0.0
O2 O 0.34189 0.11711 0.22162 0.0
C3 C 0.38829 0.09429 0.17508 0.0
O4 O 0.33852 0.06786 0.24098 0.0
Co5 Co 0.39032 0.07664 0.27937 0.0
O6 O 0.35565 0.04614 0.27734 0.0
C7 C 0.36664 0.09864 0.34747 0.0
C8 C 0.36194 0.1396 0.21529 0.0
C9 C 0.33651 0.04745 0.26045 0.0
O10 O 0.36359 0.10962 0.30815 0.0
O11 O 0.37717 0.08468 0.34332 0.0
O12 O 0.37007 0.09839 0.16052 0.0
O13 O 0.39431 0.0992 0.22283 0.0
Co14 Co 0.88306 0.26231 0.22061 0.0
O15 O 0.84705 0.23747 0.2144 0.0
O16 O 0.87901 0.22905 0.20758 0.0
C17 C 0.88378 0.2933 0.16705 0.0
O18 O 0.92152 0.28194 0.22153 0.0
Co19 Co 0.90046 0.31324 0.2724 0.0
O20 O 0.93517 0.32194 0.25012 0.0
C21 C 0.89094 0.26916 0.33755 0.0
C22 C 0.85453 0.22087 0.20602 0.0
C23 C 0.9393 0.30463 0.23252 0.0
O24 O 0.88309 0.25524 0.29707 0.0
O25 O 0.89861 0.2932 0.33522 0.0
O26 O 0.88431 0.27327 0.15045 0.0
O27 O 0.8795 0.2925 0.2158 0.0
Co28 Co 0.73797 0.63712 0.20597 0.0
O29 O 0.76379 0.62994 0.18078 0.0
O30 O 0.76942 0.66896 0.19427 0.0
C31 C 0.70501 0.61029 0.15262 0.0
O32 O 0.71623 0.65194 0.2314 0.0
Co33 Co 0.69297 0.5968 0.26398 0.0
O34 O 0.67877 0.61994 0.25967 0.0
C35 C 0.73836 0.63395 0.32131 0.0
C36 C 0.77904 0.65465 0.1808 0.0
C37 C 0.69372 0.64357 0.25007 0.0
O38 O 0.75028 0.63882 0.27861 0.0
O39 O 0.71467 0.61668 0.32491 0.0
O40 O 0.72311 0.63277 0.13874 0.0
O41 O 0.70903 0.60263 0.19654 0.0
Co42 Co 0.09572 0.35219 0.29514 0.0
O43 O 0.128 0.3576 0.32053 0.0
O44 O 0.0938 0.31952 0.30605 0.0
C45 C 0.09122 0.37933 0.35196 0.0
O46 O 0.05961 0.33861 0.2699 0.0
Co47 Co 0.09225 0.39493 0.24333 0.0
O48 O 0.0549 0.37157 0.24446 0.0
C49 C 0.10357 0.36105 0.17942 0.0
C50 C 0.11739 0.33274 0.32154 0.0
C51 C 0.04587 0.34775 0.25292 0.0
O52 O 0.10624 0.35146 0.2213 0.0
O53 O 0.09777 0.3789 0.18027 0.0
O54 O 0.08523 0.35607 0.36335 0.0
O55 O 0.10272 0.38711 0.30799 0.0
Co56 Co 0.62863 0.73957 0.29451 0.0
O57 O 0.62149 0.76744 0.29729 0.0
O58 O 0.65991 0.77099 0.30731 0.0
C59 C 0.59637 0.71109 0.34813 0.0
O60 O 0.64336 0.71629 0.29638 0.0
Co61 Co 0.59022 0.68972 0.24231 0.0
O62 O 0.61493 0.67843 0.26167 0.0
C63 C 0.62822 0.73105 0.1777 0.0
C64 C 0.64584 0.78182 0.30666 0.0
C65 C 0.63658 0.69354 0.2817 0.0
O66 O 0.63695 0.74484 0.21819 0.0
O67 O 0.60756 0.70916 0.17818 0.0
O68 O 0.61758 0.73017 0.36475 0.0
O69 O 0.59365 0.71201 0.29918 0.0
Co70 Co 0.25537 0.88982 0.29568 0.0
O71 O 0.23825 0.85301 0.30581 0.0
O72 O 0.21934 0.87676 0.30658 0.0
C73 C 0.28922 0.90116 0.35137 0.0
O74 O 0.2652 0.92713 0.28878 0.0
Co75 Co 0.30718 0.91772 0.24433 0.0
O76 O 0.30176 0.94754 0.24395 0.0
C77 C 0.26145 0.89789 0.17968 0.0
C78 C 0.2174 0.85434 0.31078 0.0
C79 C 0.28259 0.947 0.26577 0.0
O80 O 0.2482 0.8855 0.21902 0.0
O81 O 0.28593 0.91158 0.1813 0.0
O82 O 0.26669 0.8961 0.36668 0.0
O83 O 0.29025 0.89612 0.30349 0.0
Co84 Co 0.63763 0.89392 0.80305 0.0
O85 O 0.63452 0.86149 0.82153 0.0
O86 O 0.67122 0.89857 0.81704 0.0
C87 C 0.60587 0.89222 0.85524 0.0
O88 O 0.64853 0.93078 0.78714 0.0
Co89 Co 0.59584 0.89471 0.74327 0.0
O90 O 0.61655 0.9324 0.74649 0.0
C91 C 0.63657 0.89318 0.68579 0.0
C92 C 0.65935 0.87399 0.82572 0.0
C93 C 0.63887 0.94314 0.76562 0.0
O94 O 0.6437 0.88864 0.7287 0.0
O95 O 0.6167 0.89568 0.68228 0.0
O96 O 0.62877 0.89915 0.87123 0.0
O97 O 0.60123 0.88274 0.8092 0.0
Co98 Co 0.10212 0.73542 0.79881 0.0
O99 O 0.13646 0.76256 0.81128 0.0
O100 O 0.10188 0.76709 0.80722 0.0
C101 C 0.10016 0.70577 0.85673 0.0
O102 O 0.06388 0.71156 0.78841 0.0
Co103 Co 0.0949 0.68755 0.74686 0.0
O104 O 0.05875 0.67309 0.76557 0.0
C105 C 0.0989 0.72937 0.68252 0.0
C106 C 0.12647 0.77736 0.81399 0.0
C107 C 0.04983 0.68754 0.77802 0.0
O108 O 0.10658 0.74309 0.72291 0.0
O109 O 0.09317 0.70577 0.68312 0.0
O110 O 0.09831 0.72555 0.86938 0.0
O111 O 0.10837 0.70719 0.80996 0.0
Co112 Co 0.25754 0.37433 0.80356 0.0
O113 O 0.23275 0.3857 0.80221 0.0
O114 O 0.224 0.34568 0.81742 0.0
C115 C 0.28805 0.40605 0.85519 0.0
O116 O 0.2778 0.3562 0.80892 0.0
Co117 Co 0.30829 0.40862 0.74849 0.0
O118 O 0.31685 0.38301 0.77573 0.0
C119 C 0.26529 0.37151 0.687 0.0
C120 C 0.21592 0.36205 0.81291 0.0
C121 C 0.30071 0.36199 0.79696 0.0
O122 O 0.2519 0.36427 0.72827 0.0
O123 O 0.28768 0.39147 0.68554 0.0
O124 O 0.26746 0.38656 0.87316 0.0
O125 O 0.28744 0.40782 0.80593 0.0
Co126 Co 0.89018 0.62195 0.72748 0.0
O127 O 0.8565 0.61599 0.71206 0.0
O128 O 0.89174 0.65437 0.71463 0.0
C129 C 0.88982 0.59152 0.67251 0.0
O130 O 0.92766 0.63536 0.74059 0.0
Co131 Co 0.89565 0.58066 0.78121 0.0
O132 O 0.93277 0.60288 0.76878 0.0
C133 C 0.88882 0.61727 0.8448 0.0
C134 C 0.86715 0.64071 0.70695 0.0
C135 C 0.94173 0.62611 0.75511 0.0
O136 O 0.88588 0.6269 0.80328 0.0
O137 O 0.8917 0.59758 0.84377 0.0
O138 O 0.89503 0.61416 0.65771 0.0
O139 O 0.88157 0.58641 0.71929 0.0
Co140 Co 0.35951 0.26378 0.72731 0.0
O141 O 0.36478 0.23647 0.70355 0.0
O142 O 0.32672 0.23344 0.71497 0.0
C143 C 0.38844 0.29519 0.67279 0.0
O144 O 0.34629 0.28722 0.74996 0.0
Co145 Co 0.4006 0.30788 0.78354 0.0
O146 O 0.37855 0.32345 0.78212 0.0
C147 C 0.36263 0.26409 0.84317 0.0
C148 C 0.33997 0.22265 0.70162 0.0
C149 C 0.35522 0.30964 0.76938 0.0
O150 O 0.35656 0.25172 0.8009 0.0
O151 O 0.38085 0.28741 0.84528 0.0
O152 O 0.36525 0.2786 0.65973 0.0
O153 O 0.39514 0.29085 0.71737 0.0
Co154 Co 0.73543 0.10358 0.70927 0.0
O155 O 0.76275 0.13748 0.69259 0.0
O156 O 0.7659 0.10208 0.69296 0.0
C157 C 0.70368 0.1031 0.65971 0.0
O158 O 0.7119 0.06583 0.7227 0.0
Co159 Co 0.69076 0.09827 0.77214 0.0
O160 O 0.67869 0.06116 0.77042 0.0
C161 C 0.7352 0.1031 0.82706 0.0
C162 C 0.77672 0.12673 0.68601 0.0
C163 C 0.69097 0.05207 0.74728 0.0
O164 O 0.74672 0.10823 0.78372 0.0
O165 O 0.71229 0.0991 0.83145 0.0
O166 O 0.72122 0.09893 0.64103 0.0
O167 O 0.70789 0.11137 0.70658 0.0
Co168 Co 0.03607 0.43901 0.56389 0.0
O169 O 0.0482 0.47356 0.54047 0.0
O170 O 0.00738 0.44441 0.55518 0.0
C171 C 0.05853 0.4283 0.50693 0.0
O172 O 0.01624 0.40205 0.58796 0.0
Co173 Co 0.0722 0.42561 0.61601 0.0
O174 O 0.04393 0.38991 0.61437 0.0
C175 C 0.03925 0.4387 0.67788 0.0
C176 C 0.02425 0.46758 0.54158 0.0
C177 C 0.02114 0.38512 0.60593 0.0
O178 O 0.03735 0.44977 0.63768 0.0
O179 O 0.05365 0.42859 0.67825 0.0
O180 O 0.03731 0.42764 0.4953 0.0
O181 O 0.06794 0.43888 0.55101 0.0
Co182 Co 0.55849 0.5946 0.53851 0.0
O183 O 0.52354 0.56906 0.52498 0.0
O184 O 0.55718 0.56316 0.51827 0.0
C185 C 0.55988 0.62793 0.49272 0.0
O186 O 0.59672 0.61599 0.54839 0.0
Co187 Co 0.56861 0.63862 0.6058 0.0
O188 O 0.60534 0.65103 0.59388 0.0
C189 C 0.56141 0.59218 0.65553 0.0
C190 C 0.53247 0.55371 0.51582 0.0
C191 C 0.61235 0.63714 0.5702 0.0
O192 O 0.55499 0.58181 0.61143 0.0
O193 O 0.5669 0.61539 0.66316 0.0
O194 O 0.56266 0.60994 0.47193 0.0
O195 O 0.55241 0.62353 0.54026 0.0
Co196 Co 0.39969 0.96911 0.56961 0.0
O197 O 0.42521 0.96161 0.54404 0.0
O198 O 0.432 0.00059 0.56332 0.0
C199 C 0.36847 0.94504 0.51033 0.0
O200 O 0.37872 0.98446 0.59655 0.0
Co201 Co 0.34981 0.92781 0.61535 0.0
O202 O 0.33811 0.9531 0.60607 0.0
C203 C 0.39485 0.95769 0.68319 0.0
C204 C 0.44088 0.98618 0.54651 0.0
C205 C 0.35511 0.97677 0.60665 0.0
O206 O 0.40887 0.96679 0.64312 0.0
O207 O 0.3709 0.94115 0.67979 0.0
O208 O 0.38711 0.96797 0.50087 0.0
O209 O 0.37044 0.93585 0.55393 0.0
Co210 Co 0.77196 0.69171 0.62318 0.0
O211 O 0.80687 0.70127 0.63922 0.0
O212 O 0.77411 0.66143 0.63732 0.0
C213 C 0.76708 0.71945 0.677 0.0
O214 O 0.73409 0.67437 0.60852 0.0
Co215 Co 0.76196 0.73034 0.56704 0.0
O216 O 0.72568 0.7038 0.57486 0.0
C217 C 0.77374 0.69614 0.50553 0.0
C218 C 0.79841 0.67683 0.64514 0.0
C219 C 0.71863 0.68112 0.59007 0.0
O220 O 0.77763 0.68785 0.54784 0.0
O221 O 0.7676 0.71376 0.50496 0.0
O222 O 0.76588 0.69847 0.69267 0.0
O223 O 0.77563 0.72545 0.63046 0.0
Co224 Co 0.29391 0.07635 0.63968 0.0
O225 O 0.2808 0.09986 0.6351 0.0
O226 O 0.32104 0.11058 0.65328 0.0
C227 C 0.26328 0.04515 0.69145 0.0
O228 O 0.31391 0.05787 0.64975 0.0
Co229 Co 0.26304 0.02355 0.58744 0.0
O230 O 0.28819 0.01719 0.62348 0.0
C231 C 0.29928 0.06736 0.52493 0.0
C232 C 0.30388 0.11749 0.64754 0.0
C233 C 0.30888 0.03464 0.64346 0.0
O234 O 0.30461 0.08149 0.56492 0.0
O235 O 0.2819 0.04359 0.52466 0.0
O236 O 0.28046 0.06724 0.70854 0.0
O237 O 0.26193 0.04487 0.64196 0.0
Co238 Co 0.92425 0.22369 0.62576 0.0
O239 O 0.90011 0.18729 0.62564 0.0
O240 O 0.89079 0.21808 0.64244 0.0
C241 C 0.95611 0.22357 0.67521 0.0
O242 O 0.94287 0.26193 0.63222 0.0
Co243 Co 0.97428 0.24378 0.56881 0.0
O244 O 0.98234 0.27701 0.59949 0.0
C245 C 0.92999 0.23578 0.50941 0.0
C246 C 0.88316 0.19379 0.63814 0.0
C247 C 0.96533 0.28023 0.62172 0.0
O248 O 0.91685 0.22727 0.55083 0.0
O249 O 0.95372 0.24219 0.50706 0.0
O250 O 0.93552 0.22203 0.69431 0.0
O251 O 0.95519 0.22121 0.62576 0.0
Co252 Co 0.30529 0.22961 0.14778 0.0
O253 O 0.30163 0.19666 0.16288 0.0
O254 O 0.33876 0.23336 0.1568 0.0
C255 C 0.27577 0.22933 0.20505 0.0
O256 O 0.31629 0.26669 0.13364 0.0
Co257 Co 0.26148 0.23222 0.09598 0.0
O258 O 0.2806 0.26854 0.11653 0.0
C259 C 0.30089 0.23049 0.03147 0.0
C260 C 0.32654 0.20878 0.16517 0.0
C261 C 0.30458 0.27926 0.12499 0.0
O262 O 0.30891 0.2249 0.07212 0.0
O263 O 0.28119 0.23348 0.03204 0.0
O264 O 0.29826 0.23365 0.21817 0.0
O265 O 0.27002 0.22055 0.15859 0.0
Co266 Co 0.76768 0.07332 0.1287 0.0
O267 O 0.80123 0.10095 0.14615 0.0
O268 O 0.76569 0.10373 0.14287 0.0
C269 C 0.76695 0.04227 0.18149 0.0
O270 O 0.73015 0.04963 0.11458 0.0
Co271 Co 0.76256 0.02854 0.06999 0.0
O272 O 0.72525 0.01419 0.07562 0.0
C273 C 0.7672 0.07191 0.0116 0.0
C274 C 0.79021 0.11473 0.15123 0.0
C275 C 0.71625 0.02748 0.09466 0.0
O276 O 0.7734 0.08421 0.05397 0.0
O277 O 0.76237 0.04867 1.00892 0.0
O278 O 0.76183 0.05966 0.19713 0.0
O279 O 0.77615 0.04602 0.13517 0.0
Co280 Co 0.92616 0.69728 0.12914 0.0
O281 O 0.90299 0.71071 0.12995 0.0
O282 O 0.8922 0.6702 0.14625 0.0
C283 C 0.95903 0.72862 0.17757 0.0
O284 O 0.94439 0.67696 0.13349 0.0
Co285 Co 0.97525 0.72707 0.06866 0.0
O286 O 0.98314 0.70131 0.09728 0.0
C287 C 0.92989 0.69147 0.01193 0.0
C288 C 0.88537 0.68753 0.14189 0.0
C289 C 0.96667 0.68116 0.12048 0.0
O290 O 0.91782 0.68631 0.05467 0.0
O291 O 0.95329 0.70933 1.00767 0.0
O292 O 0.93835 0.71005 0.19747 0.0
O293 O 0.95746 0.73013 0.12833 0.0
Co294 Co 0.55342 0.9543 0.05513 0.0
O295 O 0.51785 0.94247 0.04137 0.0
O296 O 0.54917 0.98319 0.03812 0.0
C297 C 0.55807 0.92524 1.00521 0.0
O298 O 0.59178 0.97335 0.06563 0.0
Co299 Co 0.56622 0.92052 0.11747 0.0
O300 O 0.60223 0.94664 0.10509 0.0
C301 C 0.55712 0.95756 0.17203 0.0
C302 C 0.52489 0.96644 0.03372 0.0
C303 C 0.60823 0.96804 0.08454 0.0
O304 O 0.54885 0.96108 0.12948 0.0
O305 O 0.56437 0.94093 0.17664 0.0
O306 O 0.55906 0.94574 0.98705 0.0
O307 O 0.55027 0.92044 0.05248 0.0
Co308 Co 0.03911 0.59304 0.06672 0.0
O309 O 0.05043 0.56935 0.04774 0.0
O310 O 0.0097 0.55998 0.05309 0.0
C311 C 0.06641 0.62609 0.01373 0.0
O312 O 0.02003 0.612 0.08472 0.0
Co313 Co 0.07474 0.64059 0.12456 0.0
O314 O 0.04736 0.6494 0.1213 0.0
C315 C 0.03807 0.59465 0.18179 0.0
C316 C 0.02623 0.55247 0.04412 0.0
C317 C 0.02507 0.63333 0.1056 0.0
O318 O 0.03574 0.58204 0.14084 0.0
O319 O 0.05385 0.61881 0.18431 0.0
O320 O 0.04504 0.60698 0.99802 0.0
O321 O 0.07269 0.62355 0.06 0.0
Co322 Co 0.40158 0.43463 0.04833 0.0
O323 O 0.4302 0.46616 0.0258 0.0
O324 O 0.42949 0.42889 0.03031 0.0
C325 C 0.37036 0.43596 0.99973 0.0
O326 O 0.37592 0.39859 0.06811 0.0
Co327 Co 0.36184 0.43687 0.11313 0.0
O328 O 0.34576 0.39923 0.11785 0.0
C329 C 0.40711 0.44232 0.16569 0.0
C330 C 0.44215 0.4533 0.01996 0.0
C331 C 0.35573 0.38755 0.09567 0.0
O332 O 0.4153 0.44127 0.12107 0.0
O333 O 0.38546 0.44128 0.17127 0.0
O334 O 0.38543 0.42821 0.982 0.0
O335 O 0.3768 0.44649 0.04476 0.0
Co336 Co 0.7014 0.77096 0.88003 0.0
O337 O 0.71882 0.80812 0.88265 0.0
O338 O 0.67745 0.78236 0.86588 0.0
C339 C 0.73007 0.76578 0.82868 0.0
O340 O 0.67679 0.73345 0.87181 0.0
Co341 Co 0.72625 0.74414 0.9344 0.0
O342 O 0.69238 0.71328 0.91934 0.0
C343 C 0.69629 0.75917 0.99716 0.0
C344 C 0.6966 0.80551 0.87097 0.0
C345 C 0.67499 0.71331 0.89193 0.0
O346 O 0.69064 0.76702 0.95588 0.0
O347 O 0.71401 0.75326 0.99793 0.0
O348 O 0.71379 0.77177 0.8102 0.0
O349 O 0.7315 0.76726 0.87805 0.0
Co350 Co 0.22309 0.92472 0.87483 0.0
O351 O 0.18729 0.89949 0.87223 0.0
O352 O 0.21958 0.89243 0.85477 0.0
C353 C 0.22128 0.9567 0.82946 0.0
O354 O 0.26164 0.9457 0.87112 0.0
Co355 Co 0.23841 0.9724 0.93817 0.0
O356 O 0.27297 0.98264 0.91165 0.0
C357 C 0.23076 0.92684 0.99257 0.0
C358 C 0.19502 0.88368 0.85844 0.0
C359 C 0.27858 0.96798 0.88638 0.0
O360 O 0.2253 0.91538 0.94911 0.0
O361 O 0.23515 0.94986 0.99763 0.0
O362 O 0.22173 0.93763 0.80746 0.0
O363 O 0.21834 0.954 0.87862 0.0
Co364 Co 0.06735 0.29982 0.87686 0.0
O365 O 0.09628 0.29675 0.85585 0.0
O366 O 0.09587 0.33349 0.8617 0.0
C367 C 0.03686 0.26843 0.82541 0.0
O368 O 0.04113 0.31004 0.89524 0.0
Co369 Co 0.02715 0.25801 0.93918 0.0
O370 O 0.00841 0.27702 0.93592 0.0
C371 C 0.06982 0.29869 0.99463 0.0
C372 C 0.1085 0.32158 0.85185 0.0
C373 C 0.01916 0.29947 0.91722 0.0
O374 O 0.08004 0.30627 0.95045 0.0
O375 O 0.04793 0.27844 0.99996 0.0
O376 O 0.05255 0.29143 0.80963 0.0
O377 O 0.04234 0.26325 0.87058 0.0
Co378 Co 0.43107 0.02075 0.9707 0.0
O379 O 0.46368 0.02579 0.99198 0.0
O380 O 0.42898 0.98774 0.97872 0.0
C381 C 0.42707 0.04776 0.02771 0.0
O382 O 0.39492 0.00931 0.94881 0.0
Co383 Co 0.43408 0.06751 0.91855 0.0
O384 O 0.39786 0.04249 0.90392 0.0
C385 C 0.43664 0.02888 0.85437 0.0
C386 C 0.45313 0.00099 0.99105 0.0
C387 C 0.3851 0.01956 0.92048 0.0
O388 O 0.43925 0.01901 0.89579 0.0
O389 O 0.43609 0.04992 0.85451 0.0
O390 O 0.42204 0.02489 0.04023 0.0
O391 O 0.43893 0.05548 0.98412 0.0
Co392 Co 0.96602 0.40472 0.97169 0.0
O393 O 0.9619 0.43366 0.98695 0.0
O394 O -0.00116 0.43356 0.99038 0.0
C395 C 0.93249 0.37442 0.01957 0.0
O396 O 0.97687 0.37831 0.95941 0.0
Co397 Co 0.92597 0.36398 0.90577 0.0
O398 O 0.94522 0.34578 0.91567 0.0
C399 C 0.96948 0.4063 0.85425 0.0
C400 C 0.98641 0.44607 0.99514 0.0
C401 C 0.9668 0.35625 0.93786 0.0
O402 O 0.97555 0.41681 0.8983 0.0
O403 O 0.94905 0.3847 0.84756 0.0
O404 O 0.95458 0.39029 0.03887 0.0
O405 O 0.92953 0.37984 0.97275 0.0
Co406 Co 0.58667 0.55677 0.95006 0.0
O407 O 0.56486 0.52081 0.9655 0.0
O408 O 0.55245 0.54988 0.96302 0.0
C409 C 0.62017 0.56517 1.00488 0.0
O410 O 0.60159 0.59438 0.93513 0.0
Co411 Co 0.63742 0.57493 0.89607 0.0
O412 O 0.63775 0.60787 0.89006 0.0
C413 C 0.59104 0.55628 0.83265 0.0
C414 C 0.54635 0.52609 0.96924 0.0
C415 C 0.62026 0.61143 0.90898 0.0
O416 O 0.57801 0.55018 0.87441 0.0
O417 O 0.61548 0.56619 0.83313 0.0
O418 O 0.59938 0.56459 0.02 0.0
O419 O 0.61923 0.5576 0.9581 0.0
Co420 Co 0.96384 0.55547 0.47221 0.0
O421 O 0.95909 0.52222 0.4882 0.0
O422 O -0.00348 0.55872 0.48926 0.0
C423 C 0.93139 0.55385 0.52125 0.0
O424 O 0.97572 0.5928 0.45907 0.0
Co425 Co 0.92398 0.55779 0.4081 0.0
O426 O 0.94464 0.59522 0.41626 0.0
C427 C 0.9665 0.55741 0.35514 0.0
C428 C 0.98374 0.5339 0.49496 0.0
C429 C 0.96644 0.60554 0.43756 0.0
O430 O 0.97213 0.55186 0.39857 0.0
O431 O 0.94672 0.55991 0.34934 0.0
O432 O 0.95349 0.55941 0.53973 0.0
O433 O 0.92761 0.54512 0.47463 0.0
Co434 Co 0.43486 0.40515 0.46151 0.0
O435 O 0.46934 0.43029 0.47975 0.0
O436 O 0.43652 0.43751 0.47426 0.0
C437 C 0.43021 0.37252 0.51464 0.0
O438 O 0.39713 0.38473 0.44526 0.0
Co439 Co 0.42559 0.35922 0.40257 0.0
O440 O 0.3889 0.34845 0.40549 0.0
C441 C 0.43483 0.40438 0.34469 0.0
C442 C 0.46083 0.44636 0.48233 0.0
C443 C 0.38171 0.3634 0.42382 0.0
O444 O 0.44216 0.41626 0.38728 0.0
O445 O 0.42765 0.38051 0.34117 0.0
O446 O 0.42716 0.39133 0.52988 0.0
O447 O 0.43969 0.37546 0.46865 0.0
Co448 Co 0.58434 0.02827 0.46536 0.0
O449 O 0.56161 0.0418 0.4754 0.0
O450 O 0.55045 0.0005 0.48006 0.0
C451 C 0.61742 0.05617 0.51777 0.0
O452 O 0.60242 0.00752 0.45845 0.0
Co453 Co 0.63458 0.06159 0.40816 0.0
O454 O 0.64188 0.0342 0.42704 0.0
C455 C 0.58878 0.02542 0.34947 0.0
C456 C 0.54402 0.01814 0.48367 0.0
C457 C 0.62486 0.01245 0.44404 0.0
O458 O 0.57549 0.02218 0.39002 0.0
O459 O 0.613 0.04126 0.34793 0.0
O460 O 0.59638 0.03709 0.53486 0.0
O461 O 0.61594 0.06054 0.46964 0.0
Co462 Co 0.21958 0.29173 0.39858 0.0
O463 O 0.1829 0.27715 0.40099 0.0
O464 O 0.21114 0.31763 0.38091 0.0
C465 C 0.2215 0.26021 0.35075 0.0
O466 O 0.25763 0.31303 0.39114 0.0
Co467 Co 0.24086 0.26279 0.45835 0.0
O468 O 0.27394 0.29196 0.43413 0.0
C469 C 0.23042 0.29795 0.51554 0.0
C470 C 0.18737 0.2997 0.38643 0.0
C471 C 0.27639 0.31092 0.40802 0.0
O472 O 0.22402 0.30396 0.47301 0.0
O473 O 0.23382 0.2786 0.51927 0.0
O474 O 0.21777 0.27767 0.33019 0.0
O475 O 0.2198 0.25993 0.40011 0.0
Co476 Co 0.7006 0.92832 0.38559 0.0
O477 O 0.71133 0.90423 0.36579 0.0
O478 O 0.67088 0.89589 0.3704 0.0
C479 C 0.7284 0.96192 0.33407 0.0
O480 O 0.68167 0.94719 0.40176 0.0
Co481 Co 0.73503 0.97497 0.44553 0.0
O482 O 0.70686 0.98283 0.4463 0.0
C483 C 0.70036 0.92854 0.50224 0.0
C484 C 0.68698 0.88796 0.36071 0.0
C485 C 0.68565 0.9674 0.42555 0.0
O486 O 0.69656 0.91657 0.45975 0.0
O487 O 0.71601 0.95266 0.5055 0.0
O488 O 0.70704 0.94294 0.31785 0.0
O489 O 0.73452 0.95888 0.38022 0.0
Co490 Co 0.0713 0.76247 0.37854 0.0
O491 O 0.10071 0.79464 0.35955 0.0
O492 O 0.10028 0.75752 0.36539 0.0
C493 C 0.04137 0.76383 0.32542 0.0
O494 O 0.04485 0.72591 0.3953 0.0
Co495 Co 0.02936 0.76371 0.43766 0.0
O496 O 0.01213 0.72601 0.43687 0.0
C497 C 0.07048 0.76357 0.49582 0.0
C498 C 0.11303 0.78206 0.35617 0.0
C499 C 0.02302 0.71447 0.41785 0.0
O500 O 0.0824 0.76801 0.45308 0.0
O501 O 0.04842 0.7618 0.49897 0.0
O502 O 0.05742 0.75678 0.31015 0.0
O503 O 0.04631 0.77396 0.37095 0.0
C504 C 0.28507 0.98414 0.22054 0.0
C505 C 0.28223 0.97126 0.26722 0.0
C506 C 0.30368 0.01187 0.31229 0.0
C507 C 0.3111 0.02429 0.26455 0.0
N508 N 0.29901 0.02474 0.17761 0.0
N509 N 0.27895 0.97175 0.35837 0.0
C510 C 0.29817 0.01129 0.22002 0.0
C511 C 0.28779 0.9848 0.31367 0.0
N512 N 0.27708 0.97032 0.17665 0.0
N513 N 0.31307 0.02606 0.35553 0.0
H514 H 0.2668 0.95193 0.35978 0.0
H515 H 0.28179 0.98055 0.39364 0.0
H516 H 0.32339 0.04609 0.35444 0.0
H517 H 0.31086 0.01833 0.39177 0.0
H518 H 0.28126 0.97846 0.14051 0.0
H519 H 0.26693 0.95032 0.17698 0.0
H520 H 0.2887 0.01617 0.14473 0.0
H521 H 0.30789 0.04472 0.17722 0.0
C522 C 0.00889 0.33529 0.19614 0.0
C523 C 0.01858 0.33031 0.24119 0.0
C524 C 0.97483 0.30025 0.26895 0.0
C525 C 0.96579 0.31015 0.23028 0.0
N526 N 0.97334 0.3367 0.15646 0.0
N527 N 0.01063 0.30649 0.32029 0.0
C528 C 0.98253 0.32737 0.19327 0.0
C529 C 0.00161 0.31182 0.27699 0.0
N530 N 0.02498 0.34727 0.15604 0.0
N531 N 0.95787 0.28018 0.29864 0.0
H532 H 0.02981 0.31258 0.32729 0.0
H533 H -0.00101 0.29679 0.35124 0.0
H534 H 0.93802 0.2719 0.29586 0.0
H535 H 0.96333 0.2702 0.32327 0.0
H536 H 0.01876 0.3502 0.12111 0.0
H537 H 0.04419 0.35187 0.15614 0.0
H538 H 0.9852 0.35196 0.13272 0.0
H539 H 0.95378 0.33008 0.15152 0.0
C540 C 0.66999 0.65618 0.30981 0.0
C541 C 0.685 0.66175 0.26481 0.0
C542 C 0.67599 0.69623 0.2457 0.0
C543 C 0.6559 0.68561 0.28213 0.0
N544 N 0.63369 0.65593 0.35033 0.0
N545 N 0.70304 0.68854 0.18951 0.0
C546 C 0.65293 0.66578 0.31492 0.0
C547 C 0.68878 0.68257 0.23312 0.0
N548 N 0.67275 0.64245 0.3482 0.0
N549 N 0.68279 0.7192 0.22274 0.0
H550 H 0.71461 0.68097 0.1792 0.0
H551 H 0.70238 0.70044 0.16145 0.0
H552 H 0.67347 0.72962 0.22928 0.0
H553 H 0.69918 0.72908 0.2003 0.0
H554 H 0.66332 0.63909 0.38299 0.0
H555 H 0.68682 0.63713 0.34742 0.0
H556 H 0.62878 0.63929 0.37099 0.0
H557 H 0.62176 0.66367 0.35706 0.0
C558 C 0.66081 0.98215 0.71164 0.0
C559 C 0.65474 0.971 0.76077 0.0
C560 C 0.67875 0.01331 0.79936 0.0
C561 C 0.68088 0.02441 0.75081 0.0
N562 N 0.67208 0.01986 0.66083 0.0
N563 N 0.65587 0.97548 0.85195 0.0
C564 C 0.67165 0.00902 0.70676 0.0
C565 C 0.66337 0.9864 0.80492 0.0
N566 N 0.65698 0.96718 0.66985 0.0
N567 N 0.69173 0.02848 0.8398 0.0
H568 H 0.64396 0.95581 0.85776 0.0
H569 H 0.6598 0.98612 0.88516 0.0
H570 H 0.70327 0.04835 0.83686 0.0
H571 H 0.69312 0.02125 0.87485 0.0
H572 H 0.66382 0.97475 0.6339 0.0
H573 H 0.64944 0.94736 0.67201 0.0
H574 H 0.6629 0.00912 0.6287 0.0
H575 H 0.67987 0.03958 0.65555 0.0
C576 C 0.007 0.65975 0.8161 0.0
C577 C 0.02198 0.67596 0.77599 0.0
C578 C 0.98435 0.65924 0.72115 0.0
C579 C 0.96918 0.64395 0.76222 0.0
N580 N 0.96466 0.63519 0.85246 0.0
N581 N 0.02507 0.69487 0.69362 0.0
C582 C 0.98006 0.64588 0.81092 0.0
C583 C 0.0106 0.67712 0.72971 0.0
N584 N 0.01853 0.65681 0.85824 0.0
N585 N 0.97411 0.65557 0.67349 0.0
H586 H 0.04464 0.7075 0.69805 0.0
H587 H 0.01742 0.69848 0.66131 0.0
H588 H 0.95516 0.64187 0.66525 0.0
H589 H 0.98489 0.66453 0.6412 0.0
H590 H 0.00867 0.64294 0.88602 0.0
H591 H 0.03835 0.66687 0.86342 0.0
H592 H 0.97167 0.63796 0.8894 0.0
H593 H 0.9447 0.62575 0.85067 0.0
C594 C 0.33851 0.32995 0.8299 0.0
C595 C 0.33734 0.31892 0.7814 0.0
C596 C 0.30175 0.32536 0.75864 0.0
C597 C 0.3079 0.34219 0.8003 0.0
N598 N 0.33143 0.36052 0.87724 0.0
N599 N 0.31926 0.3088 0.69665 0.0
C600 C 0.32595 0.34435 0.83683 0.0
C601 C 0.31899 0.31683 0.74511 0.0
N602 N 0.3507 0.32592 0.86954 0.0
N603 N 0.27992 0.31815 0.73136 0.0
H604 H 0.33293 0.30435 0.68331 0.0
H605 H 0.30756 0.30926 0.66803 0.0
H606 H 0.26693 0.32429 0.74051 0.0
H607 H 0.27359 0.3042 0.70303 0.0
H608 H 0.35025 0.33191 0.90647 0.0
H609 H 0.35864 0.31399 0.86681 0.0
H610 H 0.34659 0.36504 0.90206 0.0
H611 H 0.3214 0.37027 0.88434 0.0
C612 C 0.97762 0.34507 0.59133 0.0
C613 C 3e-05 0.35954 0.62131 0.0
C614 C 0.99232 0.32097 0.66665 0.0
C615 C 0.97178 0.3065 0.63349 0.0
N616 N 0.93763 0.30486 0.58292 0.0
N617 N 0.0196 0.36273 0.70311 0.0
C618 C 0.9618 0.31862 0.60244 0.0
C619 C 0.00431 0.34794 0.66444 0.0
N620 N 0.97218 0.35554 0.55044 0.0
N621 N 0.00089 0.30898 0.69865 0.0
H622 H 0.02687 0.38251 0.70418 0.0
H623 H 0.02247 0.35512 0.73638 0.0
H624 H 0.99128 0.28903 0.7031 0.0
H625 H 0.01799 0.31876 0.71891 0.0
H626 H 0.95795 0.34455 0.52421 0.0
H627 H 0.98231 0.37482 0.54048 0.0
H628 H 0.92857 0.31336 0.56386 0.0
H629 H 0.92569 0.28535 0.59026 0.0
C630 C 0.64955 0.64178 0.6197 0.0
C631 C 0.63936 0.64419 0.57267 0.0
C632 C 0.68133 0.66143 0.53262 0.0
C633 C 0.6917 0.66176 0.58101 0.0
N634 N 0.68482 0.64121 0.66252 0.0
N635 N 0.64455 0.65558 0.48389 0.0
C636 C 0.67557 0.64837 0.62215 0.0
C637 C 0.65483 0.6532 0.52847 0.0
N638 N 0.6348 0.6345 0.66265 0.0
N639 N 0.69706 0.66857 0.491 0.0
H640 H 0.62512 0.64967 0.47967 0.0
H641 H 0.65535 0.66471 0.45175 0.0
H642 H 0.7163 0.67344 0.49372 0.0
H643 H 0.6909 0.66762 0.45381 0.0
H644 H 0.64222 0.63527 0.69865 0.0
H645 H 0.61549 0.62926 0.66305 0.0
H646 H 0.67326 0.62933 0.69168 0.0
H647 H 0.70343 0.6442 0.66363 0.0
C648 C 0.3504 0.03749 0.62383 0.0
C649 C 0.32832 0.02732 0.6549 0.0
C650 C 0.33128 0.98884 0.66926 0.0
C651 C 0.34798 0.99556 0.62629 0.0
N652 N 0.37425 0.0275 0.56295 0.0
N653 N 0.30011 0.99584 0.7148 0.0
C654 C 0.35835 0.02052 0.60433 0.0
C655 C 0.31994 0.00398 0.68095 0.0
N656 N 0.36306 0.06301 0.61183 0.0
N657 N 0.32667 0.96845 0.6994 0.0
H658 H 0.29271 0.00762 0.72562 0.0
H659 H 0.29052 0.97746 0.73046 0.0
H660 H 0.33519 0.95726 0.69345 0.0
H661 H 0.31651 0.9642 0.73347 0.0
H662 H 0.38043 0.07203 0.59215 0.0
H663 H 0.35776 0.07574 0.62694 0.0
H664 H 0.38117 0.04497 0.54419 0.0
H665 H 0.37906 0.01527 0.54405 0.0
C666 C 0.35085 0.35022 0.1447 0.0
C667 C 0.34384 0.36 0.10245 0.0
C668 C 0.31645 0.31705 0.07005 0.0
C669 C 0.31982 0.30701 0.11642 0.0
N670 N 0.34029 0.31337 0.1981 0.0
N671 N 0.31907 0.35368 0.02644 0.0
C672 C 0.3373 0.32338 0.15372 0.0
C673 C 0.32639 0.34371 0.0655 0.0
N674 N 0.3705 0.36661 0.17565 0.0
N675 N 0.30515 0.30127 0.02936 0.0
H676 H 0.32663 0.37337 0.02088 0.0
H677 H 0.30413 0.34239 1.00172 0.0
H678 H 0.29908 0.28173 0.03005 0.0
H679 H 0.30456 0.30799 0.9932 0.0
H680 H 0.37844 0.36062 0.2039 0.0
H681 H 0.38033 0.38648 0.17071 0.0
H682 H 0.35192 0.3243 0.22783 0.0
H683 H 0.33012 0.29388 0.20666 0.0
C684 C 0.64966 -0.00186 0.04179 0.0
C685 C 0.63522 0.9881 0.08693 0.0
C686 C 0.67407 0.00737 0.13823 0.0
C687 C 0.68855 0.01692 0.09311 0.0
N688 N 0.69094 0.02797 1.00451 0.0
N689 N 0.63243 0.98991 0.17812 0.0
C690 C 0.67655 0.01454 0.04561 0.0
C691 C 0.64706 0.99497 0.13526 0.0
N692 N 0.63798 0.99086 0.9955 0.0
N693 N 0.68599 0.00883 0.1833 0.0
H694 H 0.61249 0.98121 0.17697 0.0
H695 H 0.64011 0.99667 0.21397 0.0
H696 H 0.7059 0.01808 0.18724 0.0
H697 H 0.67611 -0.00073 0.21606 0.0
H698 H 0.64795 0.99582 0.96129 0.0
H699 H 0.61832 0.97855 0.99104 0.0
H700 H 0.68309 0.02903 0.97002 0.0
H701 H 0.71077 0.04006 1.00642 0.0
C702 C 0.99368 0.66724 0.16534 0.0
C703 C 0.97383 0.66166 0.13066 0.0
C704 C 0.98338 0.63258 0.0838 0.0
C705 C 0.00421 0.63891 0.11743 0.0
N706 N 0.01977 0.65175 0.20341 0.0
N707 N 0.94241 0.63073 0.07387 0.0
C708 C 0.00632 0.65283 0.16272 0.0
C709 C 0.96599 0.64124 0.09598 0.0
N710 N 0.00092 0.68673 0.19955 0.0
N711 N 0.98122 0.62058 0.03851 0.0
H712 H 0.92954 0.63717 0.08194 0.0
H713 H 0.93486 0.61402 0.05218 0.0
H714 H 0.99452 0.61572 0.02499 0.0
H715 H 0.9673 0.61768 0.01172 0.0
H716 H 0.01756 0.69371 0.22127 0.0
H717 H 0.99083 0.6966 0.2042 0.0
H718 H 0.02096 0.66089 0.23775 0.0
H719 H 0.0269 0.6391 0.20481 0.0
C720 C 0.62325 0.65255 0.94042 0.0
C721 C 0.62227 0.63654 0.89983 0.0
C722 C 0.64629 0.67342 0.84466 0.0
C723 C 0.65089 0.68916 0.88743 0.0
N724 N 0.63443 0.69582 0.96543 0.0
N725 N 0.62047 0.63084 0.80935 0.0
C726 C 0.63595 0.67935 0.9318 0.0
C727 C 0.62944 0.64678 0.85027 0.0
N728 N 0.61391 0.64273 0.98744 0.0
N729 N 0.65932 0.68358 0.80041 0.0
H730 H 0.60786 0.61115 0.8135 0.0
H731 H 0.62303 0.6376 0.77223 0.0
H732 H 0.67145 0.70331 0.7955 0.0
H733 H 0.65872 0.67236 0.76968 0.0
H734 H 0.61768 0.65416 0.01959 0.0
H735 H 0.60284 0.62317 0.99485 0.0
H736 H 0.62232 0.68977 0.99698 0.0
H737 H 0.64366 0.71558 0.9585 0.0
C738 C 0.34567 0.97756 0.89619 0.0
C739 C 0.35785 0.00454 0.9054 0.0
C740 C 0.32085 0.00459 0.86952 0.0
C741 C 0.30613 0.9779 0.87598 0.0
N742 N 0.30532 0.93764 0.8911 0.0
N743 N 0.35249 0.04208 0.9122 0.0
C744 C 0.3187 0.96378 0.88762 0.0
C745 C 0.34436 0.0178 0.89468 0.0
N746 N 0.35968 0.96535 0.89265 0.0
N747 N 0.31156 0.01733 0.84199 0.0
H748 H 0.36737 0.05127 0.93828 0.0
H749 H 0.34192 0.05139 0.90659 0.0
H750 H 0.29406 0.00737 0.82296 0.0
H751 H 0.32272 0.03689 0.83382 0.0
H752 H 0.35167 0.94612 0.88227 0.0
H753 H 0.37967 0.97498 0.89288 0.0
H754 H 0.31312 0.92707 0.90668 0.0
H755 H 0.28639 0.92648 0.87938 0.0
C756 C 0.0013 0.32039 0.97238 0.0
C757 C 0.0063 0.31446 0.92297 0.0
C758 C 0.9895 0.33988 0.88486 0.0
C759 C 0.98177 0.3433 0.93378 0.0
N760 N 0.9764 0.33366 0.02337 0.0
N761 N 0.00083 0.31412 0.83217 0.0
C762 C 0.98665 0.33278 0.97751 0.0
C763 C -0.0007 0.32303 0.87909 0.0
N764 N 0.01122 0.31494 0.01415 0.0
N765 N 0.98804 0.35321 0.84414 0.0
H766 H 0.00759 0.30133 0.82628 0.0
H767 H 0.99295 0.31739 0.7998 0.0
H768 H 0.98118 0.36604 0.84693 0.0
H769 H 0.99587 0.35342 0.80872 0.0
H770 H 0.01023 0.32111 0.05058 0.0
H771 H 0.02242 0.30616 0.01204 0.0
H772 H 0.97662 0.32335 0.05496 0.0
H773 H 0.96573 0.34288 0.02873 0.0
C774 C 0.00053 0.67127 0.379 0.0
C775 C 0.01005 0.68665 0.4229 0.0
C776 C 0.99042 0.64872 0.47732 0.0
C777 C 0.98257 0.63332 0.43314 0.0
N778 N 0.98536 0.62938 0.3423 0.0
N779 N 0.01882 0.69058 0.51295 0.0
C780 C 0.98918 0.64441 0.384 0.0
C781 C 0.00646 0.67556 0.47192 0.0
N782 N 0.00126 0.68215 0.33296 0.0
N783 N 0.98163 0.63788 0.52403 0.0
H784 H 0.03078 0.7104 0.51035 0.0
H785 H 0.01904 0.68317 0.54859 0.0
H786 H 0.96954 0.6182 0.52948 0.0
H787 H 0.98455 0.64861 0.55688 0.0
H788 H 0.99152 0.67136 0.30124 0.0
H789 H 0.0095 0.70192 0.32752 0.0
H790 H 0.99205 0.63678 0.3062 0.0
H791 H 0.97779 0.60959 0.34454 0.0
C792 C 0.31328 0.34802 0.44583 0.0
C793 C 0.30223 0.33264 0.40262 0.0
C794 C 0.34443 0.3488 0.36607 0.0
C795 C 0.35503 0.35688 0.41532 0.0
N796 N 0.34889 0.36408 0.50374 0.0
N797 N 0.30647 0.31987 0.3184 0.0
C798 C 0.33949 0.35721 0.45563 0.0
C799 C 0.31753 0.33383 0.36116 0.0
N800 N 0.29854 0.35333 0.47748 0.0
N801 N 0.35996 0.35598 0.32432 0.0
H802 H 0.28658 0.30941 0.3136 0.0
H803 H 0.31705 0.3179 0.28911 0.0
H804 H 0.37979 0.36784 0.32668 0.0
H805 H 0.35276 0.35299 0.28752 0.0
H806 H 0.30615 0.3662 0.50765 0.0
H807 H 0.27916 0.34669 0.46998 0.0
H808 H 0.33721 0.36203 0.53478 0.0
H809 H 0.36771 0.36965 0.5137 0.0
C810 C 0.65643 0.98009 0.38513 0.0
C811 C 0.66457 0.97282 0.42928 0.0
C812 C 0.63669 0.98188 0.48264 0.0
C813 C 0.63083 0.99165 0.43917 0.0
N814 N 0.62602 0.99074 0.34863 0.0
N815 N 0.65746 0.9594 0.517 0.0
C816 C 0.63756 0.98737 0.39013 0.0
C817 C 0.65298 0.97123 0.47722 0.0
N818 N 0.66794 0.9818 0.33927 0.0
N819 N 0.62755 0.98384 0.52889 0.0
H820 H 0.66977 0.95194 0.51416 0.0
H821 H 0.64754 0.95515 0.5513 0.0
H822 H 0.61379 0.98948 0.53242 0.0
H823 H 0.63338 0.97988 0.56323 0.0
H824 H 0.66476 0.98989 0.30712 0.0
H825 H 0.68212 0.97681 0.33393 0.0
H826 H 0.62833 0.98588 0.31181 0.0
H827 H 0.61191 0.99586 0.35235 0.0
C828 C 0.33683 0.07117 0.47496 0.0
C829 C 0.3174 0.07789 0.48036 0.0
C830 C 0.33482 0.10564 0.40411 0.0
C831 C 0.35382 0.09797 0.39832 0.0
N832 N 0.38003 0.08549 0.44616 0.0
N833 N 0.30094 0.10553 0.45617 0.0
C834 C 0.35697 0.08438 0.43922 0.0
C835 C 0.31736 0.09643 0.44675 0.0
N836 N 0.33617 0.05188 0.50354 0.0
N837 N 0.33372 0.12213 0.36992 0.0
H838 H 0.28754 0.09851 0.48569 0.0
H839 H 0.30141 0.12087 0.43684 0.0
H840 H 0.34914 0.13403 0.34664 0.0
H841 H 0.31802 0.12491 0.36622 0.0
H842 H 0.3479 0.04409 0.49549 0.0
H843 H 0.32253 0.0421 0.53172 0.0
H844 H 0.38392 0.07744 0.4776 0.0
H845 H 0.39622 0.09765 0.42466 0.0
C846 C 0.89852 0.22398 0.43485 0.0
C847 C 0.91844 0.24288 0.46559 0.0
C848 C 0.91096 0.27564 0.42574 0.0
C849 C 0.89537 0.25829 0.38714 0.0
N850 N 0.8701 0.21375 0.36215 0.0
N851 N 0.94668 0.28808 0.48226 0.0
C852 C 0.88794 0.23174 0.39374 0.0
C853 C 0.92571 0.26907 0.45817 0.0
N854 N 0.88948 0.19861 0.44542 0.0
N855 N 0.90998 0.2975 0.43525 0.0
H856 H 0.95779 0.28462 0.50787 0.0
H857 H 0.95416 0.30745 0.47325 0.0
H858 H 0.89587 0.30072 0.41975 0.0
H859 H 0.91995 0.30992 0.46502 0.0
H860 H 0.8733 0.1836 0.42859 0.0
H861 H 0.89758 0.19255 0.47339 0.0
H862 H 0.86681 0.19506 0.35888 0.0
H863 H 0.85786 0.21739 0.34029 0.0
C864 C 0.76835 0.65685 0.45452 0.0
C865 C 0.77247 0.68238 0.45564 0.0
C866 C 0.76061 0.67788 0.36492 0.0
C867 C 0.75199 0.65093 0.36662 0.0
N868 N 0.74746 0.61475 0.41468 0.0
N869 N 0.78514 0.71986 0.40443 0.0
C870 C 0.75581 0.64045 0.41197 0.0
C871 C 0.77217 0.69368 0.40856 0.0
N872 N 0.77929 0.64929 0.4909 0.0
N873 N 0.75656 0.68841 0.32248 0.0
H874 H 0.79618 0.73174 0.43407 0.0
H875 H 0.78804 0.72968 0.37028 0.0
H876 H 0.75004 0.67859 0.28853 0.0
H877 H 0.75833 0.70657 0.32168 0.0
H878 H 0.77859 0.6316 0.49053 0.0
H879 H 0.793 0.66244 0.51573 0.0
H880 H 0.74668 0.60541 0.44854 0.0
H881 H 0.73987 0.6025 0.38358 0.0
C882 C 0.09866 0.35821 0.08249 0.0
C883 C 0.10279 0.34829 0.12831 0.0
C884 C 0.09084 0.30761 0.08268 0.0
C885 C 0.08257 0.31608 0.03994 0.0
N886 N 0.07671 0.34953 1.00194 0.0
N887 N 0.11668 0.31952 0.15926 0.0
C888 C 0.08632 0.34153 0.04037 0.0
C889 C 0.1027 0.32453 0.1251 0.0
N890 N 0.10866 0.38411 0.07747 0.0
N891 N 0.08712 0.28323 0.08317 0.0
H892 H 0.1289 0.33324 0.18527 0.0
H893 H 0.11947 0.30378 0.15664 0.0
H894 H 0.08012 0.271 0.05193 0.0
H895 H 0.08954 0.27467 0.11548 0.0
H896 H 0.10839 0.39291 0.04355 0.0
H897 H 0.12074 0.39708 0.10473 0.0
H898 H 0.0758 0.3664 1.0036 0.0
H899 H 0.06739 0.33829 0.97048 0.0
C900 C 0.65406 0.76252 0.10608 0.0
C901 C 0.64528 0.73847 0.13084 0.0
C902 C 0.66895 0.72763 0.06712 0.0
C903 C 0.67883 0.75235 0.04364 0.0
N904 N 0.68468 0.79498 0.04814 0.0
N905 N 0.64415 0.69766 0.13429 0.0
C906 C 0.67227 0.77016 0.06501 0.0
C907 C 0.65289 0.72105 0.11128 0.0
N908 N 0.644 0.77759 0.12021 0.0
N909 N 0.67521 0.71032 0.04761 0.0
H910 H 0.6357 0.69319 0.17006 0.0
H911 H 0.64488 0.68218 0.11852 0.0
H912 H 0.68221 0.71147 0.01111 0.0
H913 H 0.67343 0.69441 0.0669 0.0
H914 H 0.64737 0.79406 0.10065 0.0
H915 H 0.63019 0.77223 0.14876 0.0
H916 H 0.6829 0.80968 0.06512 0.0
H917 H 0.69889 0.80146 0.02028 0.0
C918 C 0.22871 0.9055 0.13071 0.0
C919 C 0.24834 0.89856 0.13098 0.0
C920 C 0.25417 0.90712 0.03874 0.0
C921 C 0.23454 0.91388 0.03836 0.0
N922 N 0.19843 0.91231 0.08117 0.0
N923 N 0.27319 0.88489 0.08189 0.0
C924 C 0.22028 0.91066 0.0835 0.0
C925 C 0.25887 0.8968 0.08378 0.0
N926 N 0.21934 0.9092 0.17534 0.0
N927 N 0.26958 0.91204 0.99719 0.0
H928 H 0.27628 0.8765 0.11384 0.0
H929 H 0.27946 0.88082 0.04806 0.0
H930 H 0.26724 0.91991 0.96381 0.0
H931 H 0.28607 0.91042 0.99735 0.0
H932 H 0.20766 0.91745 0.17727 0.0
H933 H 0.22486 0.90634 0.21098 0.0
H934 H 0.18559 0.90749 0.11136 0.0
H935 H 0.19179 0.91593 0.04732 0.0
C936 C 0.68052 0.91578 0.64172 0.0
C937 C 0.65347 0.89845 0.6394 0.0
C938 C 0.65697 0.89914 0.54593 0.0
C939 C 0.68432 0.9148 0.54859 0.0
N940 N 0.7219 0.93082 0.60123 0.0
N941 N 0.61784 0.86813 0.58886 0.0
C942 C 0.69596 0.92066 0.59725 0.0
C943 C 0.64236 0.88832 0.59135 0.0
N944 N 0.69152 0.92935 0.685 0.0
N945 N 0.6444 0.89606 0.50105 0.0
H946 H 0.6069 0.85931 0.62122 0.0
H947 H 0.60957 0.85842 0.55519 0.0
H948 H 0.65353 0.90463 0.46713 0.0
H949 H 0.62447 0.88724 0.49866 0.0
H950 H 0.71061 0.94404 0.68653 0.0
H951 H 0.68121 0.9283 0.71756 0.0
H952 H 0.73115 0.93337 0.63597 0.0
H953 H 0.73363 0.93382 0.56969 0.0
C954 C 0.09041 0.73974 0.54104 0.0
C955 C 0.08147 0.7578 0.5426 0.0
C956 C 0.08352 0.75714 0.63615 0.0
C957 C 0.09478 0.74095 0.63442 0.0
N958 N 0.11593 0.72397 0.58225 0.0
N959 N 0.07698 0.78899 0.59232 0.0
C960 C 0.10041 0.73451 0.58593 0.0
C961 C 0.08048 0.76819 0.59038 0.0
N962 N 0.08789 0.72608 0.49785 0.0
N963 N 0.07391 0.76074 0.68055 0.0
H964 H 0.07547 0.79803 0.55973 0.0
H965 H 0.07858 0.79894 0.6258 0.0
H966 H 0.07361 0.75191 0.71468 0.0
H967 H 0.06327 0.77012 0.6822 0.0
H968 H 0.09163 0.71089 0.49675 0.0
H969 H 0.07939 0.72774 0.4648 0.0
H970 H 0.12249 0.72105 0.54758 0.0
H971 H 0.12474 0.72112 0.61371 0.0
C972 C 0.22256 0.32553 0.58005 0.0
C973 C 0.2389 0.31683 0.55959 0.0
C974 C 0.27247 0.34431 0.6219 0.0
C975 C 0.25629 0.35337 0.64184 0.0
N976 N 0.21764 0.35578 0.63429 0.0
N977 N 0.27927 0.31697 0.56389 0.0
C978 C 0.23172 0.34468 0.61951 0.0
C979 C 0.26381 0.32609 0.58124 0.0
N980 N 0.19771 0.31436 0.56374 0.0
N981 N 0.29672 0.35364 0.64089 0.0
H982 H 0.27669 0.30761 0.52939 0.0
H983 H 0.29492 0.31845 0.58367 0.0
H984 H 0.30284 0.36321 0.67536 0.0
H985 H 0.31134 0.35239 0.6222 0.0
H986 H 0.18379 0.31755 0.5803 0.0
H987 H 0.19027 0.30008 0.53602 0.0
H988 H 0.20087 0.35259 0.61645 0.0
H989 H 0.22388 0.37001 0.66208 0.0
C990 C 0.9272 0.65513 0.95915 0.0
C991 C 0.91793 0.67234 0.96917 0.0
C992 C 0.88463 0.64976 0.90326 0.0
C993 C 0.89399 0.63237 0.89439 0.0
N994 N 0.91445 0.61153 0.93708 0.0
N995 N 0.88488 0.68329 0.95664 0.0
C996 C 0.91239 0.63291 0.92906 0.0
C997 C 0.8956 0.66871 0.94312 0.0
N998 N 0.95002 0.65945 0.97888 0.0
N999 N 0.8647 0.64756 0.87475 0.0
H1000 H 0.89312 0.69785 0.98372 0.0
H1001 H 0.8673 0.68024 0.94321 0.0
H1002 H 0.85415 0.63195 0.85079 0.0
H1003 H 0.85854 0.66098 0.87485 0.0
H1004 H 0.95874 0.64896 0.96758 0.0
H1005 H 0.96121 0.67441 1.00358 0.0
H1006 H 0.92713 0.61093 0.96319 0.0
H1007 H 0.90061 0.5933 0.92509 0.0
C1008 C 0.34411 0.2518 0.98415 0.0
C1009 C 0.31673 0.23623 0.98307 0.0
C1010 C 0.31914 0.23878 0.88937 0.0
C1011 C 0.34662 0.25189 0.89058 0.0
N1012 N 0.38429 0.26381 0.9411 0.0
N1013 N 0.27942 0.20934 0.93253 0.0
C1014 C 0.35874 0.25605 0.93861 0.0
C1015 C 0.30467 0.22794 0.935 0.0
N1016 N 0.35637 0.26437 0.02752 0.0
N1017 N 0.30655 0.23812 0.8458 0.0
H1018 H 0.26851 0.20029 0.96476 0.0
H1019 H 0.27031 0.20093 0.89847 0.0
H1020 H 0.31582 0.24712 0.81225 0.0
H1021 H 0.28681 0.23112 0.84466 0.0
H1022 H 0.37594 0.27774 0.02854 0.0
H1023 H 0.34683 0.26414 0.06068 0.0
H1024 H 0.39357 0.26492 0.97518 0.0
H1025 H 0.39537 0.26617 0.90883 0.0
C1026 C 0.74484 0.10799 0.92162 0.0
C1027 C 0.74782 0.09918 0.87339 0.0
C1028 C 0.77086 0.07992 0.91628 0.0
C1029 C 0.76313 0.08411 0.96472 0.0
N1030 N 0.73729 0.0982 0.011 0.0
N1031 N 0.75977 0.07151 0.82762 0.0
C1032 C 0.74887 0.09734 0.9669 0.0
C1033 C 0.76004 0.08395 0.87127 0.0
N1034 N 0.73836 0.12677 0.92447 0.0
N1035 N 0.78879 0.07232 0.91296 0.0
H1036 H 0.7506 0.07191 0.7945 0.0
H1037 H 0.7661 0.0582 0.82615 0.0
H1038 H 0.79782 0.07016 0.94484 0.0
H1039 H 0.79677 0.07117 0.87854 0.0
H1040 H 0.73814 0.13548 0.95857 0.0
H1041 H 0.73623 0.13567 0.89229 0.0
H1042 H 0.72467 0.10537 0.01273 0.0
H1043 H 0.73761 0.08913 0.0444 0.0
C1044 C 0.03192 0.43706 0.77354 0.0
C1045 C 0.02207 0.43472 0.72363 0.0
C1046 C 0.97928 0.4207 0.76207 0.0
C1047 C 0.98821 0.41847 0.81049 0.0
N1048 N 0.02338 0.42056 0.85938 0.0
N1049 N 0.98373 0.41869 0.67158 0.0
C1050 C 0.0147 0.42582 0.81563 0.0
C1051 C 0.99508 0.42531 0.71816 0.0
N1052 N 0.05784 0.45044 0.78114 0.0
N1053 N 0.95569 0.41871 0.75778 0.0
H1054 H 0.99357 0.41997 0.6384 0.0
H1055 H 0.96389 0.40912 0.66662 0.0
H1056 H 0.9439 0.41593 0.78909 0.0
H1057 H 0.94921 0.42271 0.72419 0.0
H1058 H 0.06607 0.45484 0.81715 0.0
H1059 H 0.07091 0.45965 0.75167 0.0
H1060 H 0.04173 0.42295 0.86278 0.0
H1061 H 0.01166 0.41122 0.89042 0.0
C1062 C 0.55485 0.5567 0.78149 0.0
C1063 C 0.57831 0.55636 0.78254 0.0
C1064 C 0.58578 0.57141 0.69349 0.0
C1065 C 0.56562 0.57753 0.6975 0.0
N1066 N 0.53054 0.57532 0.74615 0.0
N1067 N 0.60818 0.5509 0.73103 0.0
C1068 C 0.55003 0.56993 0.74176 0.0
C1069 C 0.59156 0.56011 0.73581 0.0
N1070 N 0.53581 0.54167 0.81463 0.0
N1071 N 0.60022 0.57747 0.65016 0.0
H1072 H 0.61038 0.54015 0.75969 0.0
H1073 H 0.61735 0.55099 0.69741 0.0
H1074 H 0.59633 0.58485 0.61782 0.0
H1075 H 0.61712 0.57678 0.64682 0.0
H1076 H 0.51742 0.53929 0.81288 0.0
H1077 H 0.53717 0.52824 0.83757 0.0
H1078 H 0.52049 0.57284 0.77997 0.0
H1079 H 0.52546 0.58363 0.71691 0.0
C1080 C 0.44266 0.00106 0.78718 0.0
C1081 C 0.42822 0.01209 0.80725 0.0
C1082 C 0.3905 0.97861 0.76302 0.0
C1083 C 0.40557 0.97126 0.73368 0.0
N1084 N 0.44668 0.97418 0.72211 0.0
N1085 N 0.38947 0.01503 0.79716 0.0
C1086 C 0.43202 0.98227 0.74689 0.0
C1087 C 0.40261 0.00219 0.78961 0.0
N1088 N 0.46648 0.0086 0.8063 0.0
N1089 N 0.36475 0.96259 0.76864 0.0
H1090 H 0.39794 0.03367 0.81096 0.0
H1091 H 0.37115 0.00851 0.78231 0.0
H1092 H 0.35569 0.94331 0.75826 0.0
H1093 H 0.35333 0.96734 0.79087 0.0
H1094 H 0.47702 -0.00037 0.79751 0.0
H1095 H 0.47522 0.02332 0.83297 0.0
H1096 H 0.46652 0.98288 0.72601 0.0
H1097 H 0.43875 0.95881 0.69671 0.0
C1098 C 0.55176 0.96484 0.2652 0.0
C1099 C 0.56105 0.97525 0.21629 0.0
C1100 C 0.58148 0.01878 0.25431 0.0
C1101 C 0.57625 0.00815 0.30397 0.0
N1102 N 0.55875 0.96952 0.35578 0.0
N1103 N 0.58822 0.01307 0.16584 0.0
C1104 C 0.56167 0.98076 0.30926 0.0
C1105 C 0.57658 0.00251 0.21111 0.0
N1106 N 0.53311 0.93966 0.26965 0.0
N1107 N 0.59074 0.04452 0.24819 0.0
H1108 H 0.58596 0.00237 0.13328 0.0
H1109 H 0.60215 0.03235 0.16179 0.0
H1110 H 0.59386 0.0568 0.27875 0.0
H1111 H 0.59256 0.05309 0.21286 0.0
H1112 H 0.52356 0.93154 0.30363 0.0
H1113 H 0.52524 0.92766 0.23824 0.0
H1114 H 0.55106 0.9498 0.36061 0.0
H1115 H 0.56628 0.97969 0.38919 0.0
C1116 C 0.01206 0.58161 0.31813 0.0
C1117 C 0.98526 0.56399 0.31147 0.0
C1118 C 0.99288 0.56585 0.21909 0.0
C1119 C 0.02004 0.58151 0.22621 0.0
N1120 N 0.05519 0.59778 0.28531 0.0
N1121 N 0.95204 0.53427 0.25566 0.0
C1122 C 0.02949 0.58724 0.27665 0.0
C1123 C 0.97632 0.55448 0.26197 0.0
N1124 N 0.02095 0.59463 0.36278 0.0
N1125 N 0.98232 0.56316 0.17206 0.0
H1126 H 0.93967 0.52508 0.28613 0.0
H1127 H 0.94534 0.52491 0.22102 0.0
H1128 H 0.9929 0.57199 0.13962 0.0
H1129 H 0.96257 0.55437 0.16618 0.0
H1130 H 0.03977 0.60956 0.36736 0.0
H1131 H 0.00914 0.59282 0.39329 0.0
H1132 H 0.0629 0.60018 0.32165 0.0
H1133 H 0.06837 0.60131 0.2562 0.0
C1134 C 0.43988 0.43268 0.21004 0.0
C1135 C 0.42087 0.4403 0.21284 0.0
C1136 C 0.41553 0.4295 0.30402 0.0
C1137 C 0.43166 0.41833 0.29975 0.0
N1138 N 0.45928 0.40936 0.24767 0.0
N1139 N 0.40301 0.45895 0.26881 0.0
C1140 C 0.4439 0.42002 0.25242 0.0
C1141 C 0.41236 0.44257 0.26181 0.0
N1142 N 0.45616 0.4402 0.16939 0.0
N1143 N 0.40157 0.42617 0.34724 0.0
H1144 H 0.40322 0.47093 0.23989 0.0
H1145 H 0.39874 0.46345 0.30441 0.0
H1146 H 0.4026 0.41656 0.37911 0.0
H1147 H 0.38705 0.43082 0.34976 0.0
H1148 H 0.47166 0.43705 0.16653 0.0
H1149 H 0.45688 0.45335 0.1427 0.0
H1150 H 0.46588 0.40667 0.21288 0.0
H1151 H 0.46436 0.4019 0.27843 0.0
C1152 C 0.34184 0.17923 0.13685 0.0
C1153 C 0.34035 0.1948 0.17554 0.0
C1154 C 0.36107 0.17976 0.23562 0.0
C1155 C 0.35869 0.16129 0.19934 0.0
N1156 N 0.34756 0.14314 0.11532 0.0
N1157 N 0.34818 0.21054 0.26155 0.0
C1158 C 0.34955 0.16113 0.14967 0.0
C1159 C 0.35027 0.19561 0.22474 0.0
N1160 N 0.33633 0.18216 0.08779 0.0
N1161 N 0.37343 0.1819 0.28039 0.0
H1162 H 0.34092 0.22282 0.25447 0.0
H1163 H 0.35232 0.20986 0.29966 0.0
H1164 H 0.38126 0.1703 0.28935 0.0
H1165 H 0.37779 0.19637 0.30684 0.0
H1166 H 0.33933 0.17316 0.05689 0.0
H1167 H 0.3308 0.19545 0.07725 0.0
H1168 H 0.33796 0.13971 0.08086 0.0
H1169 H 0.3547 0.13074 0.12222 0.0
C1170 C 0.80324 0.15043 0.2137 0.0
C1171 C 0.80526 0.14217 0.16435 0.0
C1172 C 0.83861 0.18576 0.14164 0.0
C1173 C 0.83629 0.19419 0.19078 0.0
N1174 N 0.81339 0.18611 0.27023 0.0
N1175 N 0.82082 0.15202 0.07825 0.0
C1176 C 0.81755 0.17702 0.22572 0.0
C1177 C 0.82184 0.15985 0.12742 0.0
N1178 N 0.78853 0.13268 0.2497 0.0
N1179 N 0.85687 0.20257 0.10855 0.0
H1180 H 0.8088 0.13315 0.06648 0.0
H1181 H 0.83026 0.16445 0.04816 0.0
H1182 H 0.86781 0.22226 0.11526 0.0
H1183 H 0.862 0.19695 0.07518 0.0
H1184 H 0.78857 0.13701 0.28797 0.0
H1185 H 0.77756 0.11306 0.24207 0.0
H1186 H 0.79821 0.17509 0.29479 0.0
H1187 H 0.82391 0.20532 0.28103 0.0
C1188 C 0.81379 0.65992 0.12132 0.0
C1189 C 0.80659 0.66569 0.16871 0.0
C1190 C 0.85176 0.68952 0.19462 0.0
C1191 C 0.85849 0.68104 0.14994 0.0
N1192 N 0.8463 0.65701 0.07166 0.0
N1193 N 0.81808 0.68316 0.25349 0.0
C1194 C 0.8396 0.66589 0.11349 0.0
C1195 C 0.82541 0.68003 0.20602 0.0
N1196 N 0.79609 0.6496 0.08319 0.0
N1197 N 0.87054 0.70649 0.22643 0.0
H1198 H 0.79904 0.67643 0.26395 0.0
H1199 H 0.83064 0.69063 0.28404 0.0
H1200 H 0.89 0.71281 0.22101 0.0
H1201 H 0.86706 0.71577 0.25621 0.0
H1202 H 0.80063 0.64727 0.04613 0.0
H1203 H 0.77714 0.64553 0.08735 0.0
H1204 H 0.83303 0.64341 0.04685 0.0
H1205 H 0.86522 0.66212 0.06315 0.0
C1206 C 0.14406 0.3289 0.38958 0.0
C1207 C 0.13153 0.32038 0.34209 0.0
C1208 C 0.15072 0.2929 0.33119 0.0
C1209 C 0.16633 0.30474 0.37431 0.0
N1210 N 0.1786 0.3342 0.4447 0.0
N1211 N 0.12289 0.2944 0.26669 0.0
C1212 C 0.16315 0.32275 0.40367 0.0
C1213 C 0.13441 0.302 0.31306 0.0
N1214 N 0.13686 0.34197 0.42211 0.0
N1215 N 0.15177 0.27326 0.30702 0.0
H1216 H 0.11 0.29963 0.25258 0.0
H1217 H 0.12714 0.28403 0.24058 0.0
H1218 H 0.16472 0.26718 0.31651 0.0
H1219 H 0.1386 0.26169 0.27963 0.0
H1220 H 0.14352 0.34666 0.4592 0.0
H1221 H 0.12208 0.34576 0.41394 0.0
H1222 H 0.1795 0.34984 0.46371 0.0
H1223 H 0.19162 0.32893 0.45831 0.0
C1224 C 0.66695 0.85271 0.29683 0.0
C1225 C 0.67773 0.86117 0.34573 0.0
C1226 C 0.66626 0.81736 0.36962 0.0
C1227 C 0.6569 0.80914 0.31974 0.0
N1228 N 0.65163 0.81896 0.23345 0.0
N1229 N 0.6911 0.85291 0.42655 0.0
C1230 C 0.65806 0.82679 0.28264 0.0
C1231 C 0.67857 0.84392 0.38139 0.0
N1232 N 0.66509 0.86942 0.26417 0.0
N1233 N 0.66215 0.79961 0.40646 0.0
H1234 H 0.69925 0.87204 0.43782 0.0
H1235 H 0.69504 0.84185 0.45142 0.0
H1236 H 0.65294 0.7799 0.39961 0.0
H1237 H 0.66584 0.80409 0.4448 0.0
H1238 H 0.65471 0.86379 0.23048 0.0
H1239 H 0.67282 0.88894 0.272 0.0
H1240 H 0.65463 0.8314 0.20336 0.0
H1241 H 0.64507 0.80009 0.2219 0.0
C1242 C 0.14925 0.79929 0.29385 0.0
C1243 C 0.14085 0.7958 0.34502 0.0
C1244 C 0.18483 0.82509 0.37346 0.0
C1245 C 0.19232 0.83152 0.32211 0.0
N1246 N 0.18283 0.82493 0.23283 0.0
N1247 N 0.14993 0.80428 0.4342 0.0
C1248 C 0.17494 0.81839 0.28203 0.0
C1249 C 0.15853 0.80812 0.38513 0.0
N1250 N 0.13259 0.78429 0.25685 0.0
N1251 N 0.20295 0.83525 0.41087 0.0
H1252 H 0.1312 0.7907 0.44425 0.0
H1253 H 0.16092 0.81507 0.46482 0.0
H1254 H 0.22233 0.84788 0.40332 0.0
H1255 H 0.19934 0.82975 0.44881 0.0
H1256 H 0.13788 0.78418 0.21925 0.0
H1257 H 0.11364 0.7703 0.26469 0.0
H1258 H 0.17057 0.81832 0.20175 0.0
H1259 H 0.20183 0.83797 0.22306 0.0
C1260 C 0.67498 0.84459 0.79675 0.0
C1261 C 0.67349 0.86018 0.8356 0.0
C1262 C 0.6928 0.84387 0.89646 0.0
C1263 C 0.69325 0.82758 0.85798 0.0
N1264 N 0.69228 0.81768 0.76927 0.0
N1265 N 0.68529 0.8789 0.91901 0.0
C1266 C 0.6867 0.82964 0.80734 0.0
C1267 C 0.684 0.86133 0.88436 0.0
N1268 N 0.66456 0.84352 0.7501 0.0
N1269 N 0.69968 0.84174 0.94482 0.0
H1270 H 0.67826 0.89135 0.91173 0.0
H1271 H 0.69474 0.88239 0.95364 0.0
H1272 H 0.70758 0.83023 0.95379 0.0
H1273 H 0.69691 0.85062 0.97621 0.0
H1274 H 0.66197 0.83005 0.72243 0.0
H1275 H 0.65718 0.85529 0.73974 0.0
H1276 H 0.6903 0.82031 0.73084 0.0
H1277 H 0.70141 0.80703 0.77596 0.0
C1278 C 0.14228 0.8144 0.87346 0.0
C1279 C 0.14266 0.8049 0.82437 0.0
C1280 C 0.17499 0.84786 0.79617 0.0
C1281 C 0.17653 0.85677 0.84658 0.0
N1282 N 0.1643 0.84854 0.93487 0.0
N1283 N 0.16019 0.81138 0.73963 0.0
C1284 C 0.16074 0.84012 0.88569 0.0
C1285 C 0.15928 0.82129 0.78586 0.0
N1286 N 0.12432 0.79881 0.90833 0.0
N1287 N 0.18773 0.865 0.75787 0.0
H1288 H 0.14789 0.79228 0.72957 0.0
H1289 H 0.17409 0.82164 0.71218 0.0
H1290 H 0.19925 0.88471 0.76395 0.0
H1291 H 0.18523 0.86015 0.71956 0.0
H1292 H 0.12117 0.80538 0.94267 0.0
H1293 H 0.1112 0.77949 0.90156 0.0
H1294 H 0.15545 0.83656 0.96587 0.0
H1295 H 0.17773 0.86725 0.9454 0.0
C1296 C 0.14391 0.32965 0.79206 0.0
C1297 C 0.13605 0.33539 0.83869 0.0
C1298 C 0.18098 0.36248 0.86392 0.0
C1299 C 0.1886 0.35405 0.82027 0.0
N1300 N 0.17789 0.32891 0.74347 0.0
N1301 N 0.14649 0.35518 0.92158 0.0
C1302 C 0.17022 0.33746 0.78442 0.0
C1303 C 0.1544 0.35159 0.87506 0.0
N1304 N 0.12621 0.31736 0.7546 0.0
N1305 N 0.19912 0.38063 0.89513 0.0
H1306 H 0.12726 0.34781 0.93136 0.0
H1307 H 0.15883 0.36396 0.952 0.0
H1308 H 0.21878 0.38787 0.89038 0.0
H1309 H 0.19484 0.38983 0.92387 0.0
H1310 H 0.13092 0.31467 0.71793 0.0
H1311 H 0.10685 0.31186 0.75879 0.0
H1312 H 0.16523 0.31445 0.71925 0.0
H1313 H 0.19711 0.33528 0.73509 0.0
C1314 C 0.84838 0.66945 0.72145 0.0
C1315 C 0.85172 0.65222 0.68986 0.0
C1316 C 0.81783 0.64836 0.63323 0.0
C1317 C 0.8157 0.66724 0.66215 0.0
N1318 N 0.82918 0.69628 0.73381 0.0
N1319 N 0.84491 0.63085 0.60935 0.0
C1320 C 0.83127 0.67815 0.70602 0.0
C1321 C 0.83796 0.6433 0.64393 0.0
N1322 N 0.86054 0.67644 0.76735 0.0
N1323 N 0.8004 0.63465 0.5963 0.0
H1324 H 0.86031 0.6277 0.6151 0.0
H1325 H 0.83743 0.62631 0.57275 0.0
H1326 H 0.78501 0.63711 0.58686 0.0
H1327 H 0.79961 0.61879 0.5784 0.0
H1328 H 0.85667 0.68641 0.79505 0.0
H1329 H 0.87366 0.67099 0.77928 0.0
H1330 H 0.84238 0.70766 0.76132 0.0
H1331 H 0.81448 0.70052 0.72873 0.0
C1332 C 0.31862 0.18689 0.63862 0.0
C1333 C 0.32755 0.19514 0.68872 0.0
C1334 C 0.31558 0.15126 0.71311 0.0
C1335 C 0.30983 0.14367 0.66164 0.0
N1336 N 0.3068 0.1538 0.57437 0.0
N1337 N 0.33632 0.18608 0.77326 0.0
C1338 C 0.31127 0.16127 0.62408 0.0
C1339 C 0.32642 0.17755 0.72593 0.0
N1340 N 0.31727 0.20358 0.60515 0.0
N1341 N 0.30987 0.13316 0.75003 0.0
H1342 H 0.34315 0.20491 0.78521 0.0
H1343 H 0.33924 0.17492 0.79977 0.0
H1344 H 0.30167 0.11362 0.74223 0.0
H1345 H 0.31095 0.13706 0.78874 0.0
H1346 H 0.30868 0.19819 0.56961 0.0
H1347 H 0.32314 0.22262 0.6144 0.0
H1348 H 0.31021 0.16635 0.54429 0.0
H1349 H 0.30107 0.1351 0.5627 0.0
C1350 C 0.84807 0.17259 0.70158 0.0
C1351 C 0.8565 0.17446 0.65068 0.0
C1352 C 0.81326 0.14183 0.6245 0.0
C1353 C 0.8043 0.14229 0.67418 0.0
N1354 N 0.81229 0.15905 0.75963 0.0
N1355 N 0.84758 0.16281 0.56248 0.0
C1356 C 0.82146 0.15792 0.71267 0.0
C1357 C 0.8393 0.1594 0.61179 0.0
N1358 N 0.86566 0.18414 0.73955 0.0
N1359 N 0.79686 0.12469 0.58957 0.0
H1360 H 0.8666 0.17527 0.552 0.0
H1361 H 0.83542 0.15465 0.53157 0.0
H1362 H 0.77741 0.11233 0.59691 0.0
H1363 H 0.80278 0.12145 0.55452 0.0
H1364 H 0.86107 0.18128 0.77801 0.0
H1365 H 0.88539 0.19481 0.73284 0.0
H1366 H 0.8233 0.17246 0.78717 0.0
H1367 H 0.79314 0.14758 0.77029 0.0
C1368 C 0.0206 0.5063 0.56201 0.0
C1369 C 0.01629 0.48631 0.5277 0.0
C1370 C 0.9952 0.50106 0.46828 0.0
C1371 C -0.0033 0.51901 0.50512 0.0
N1372 N 0.0086 0.5376 0.58868 0.0
N1373 N -0.00168 0.46317 0.44985 0.0
C1374 C 0.00909 0.5216 0.55226 0.0
C1375 C 0.00327 0.48327 0.48125 0.0
N1376 N 0.03554 0.51051 0.60399 0.0
N1377 N 0.98695 0.5017 0.42022 0.0
H1378 H 0.00532 0.45063 0.45642 0.0
H1379 H 0.98605 0.45796 0.41878 0.0
H1380 H 0.98122 0.51472 0.40902 0.0
H1381 H 0.988 0.49102 0.39011 0.0
H1382 H 0.04173 0.52646 0.62745 0.0
H1383 H 0.04335 0.49898 0.61359 0.0
H1384 H 0.01464 0.53817 0.62589 0.0
H1385 H 0.0004 0.54916 0.58284 0.0
C1386 C 0.5125 0.50769 0.54272 0.0
C1387 C 0.51482 0.52617 0.5062 0.0
C1388 C 0.48217 0.49214 0.4531 0.0
C1389 C 0.47857 0.47392 0.49131 0.0
N1390 N 0.48676 0.46443 0.5758 0.0
N1391 N 0.50045 0.5369 0.42931 0.0
C1392 C 0.49287 0.48169 0.53695 0.0
C1393 C 0.49912 0.51866 0.4623 0.0
N1394 N 0.52895 0.51493 0.58307 0.0
N1395 N 0.47043 0.484 0.40698 0.0
H1396 H 0.51411 0.55635 0.43223 0.0
H1397 H 0.48718 0.53303 0.4005 0.0
H1398 H 0.45779 0.46481 0.39849 0.0
H1399 H 0.47466 0.49598 0.37555 0.0
H1400 H 0.53029 0.50195 0.60728 0.0
H1401 H 0.54259 0.53393 0.59082 0.0
H1402 H 0.49445 0.46944 0.61212 0.0
H1403 H 0.47215 0.44531 0.57327 0.0
C1404 C 0.51144 0.00724 0.55196 0.0
C1405 C 0.51804 0.01169 0.49976 0.0
C1406 C 0.47419 0.00093 0.47826 0.0
C1407 C 0.46783 -0.00286 0.53063 0.0
N1408 N 0.48101 0.00191 0.61805 0.0
N1409 N 0.5077 0.01712 0.41395 0.0
C1410 C 0.48668 0.00193 0.56776 0.0
C1411 C 0.50002 0.00995 0.46307 0.0
N1412 N 0.52867 0.00757 0.58627 0.0
N1413 N 0.45539 0.99534 0.44314 0.0
H1414 H 0.5263 0.023 0.40125 0.0
H1415 H 0.49629 0.01893 0.38647 0.0
H1416 H 0.43653 0.98989 0.45313 0.0
H1417 H 0.45804 0.99484 0.40419 0.0
H1418 H 0.52397 0.00142 0.62371 0.0
H1419 H 0.5474 0.01243 0.57657 0.0
H1420 H 0.49461 0.00779 0.64685 0.0
H1421 H 0.46303 -0.00179 0.63073 0.0
C1422 C 0.47479 0.97625 0.96505 0.0
C1423 C 0.46865 0.98892 1.00342 0.0
C1424 C 0.50016 0.98783 0.06062 0.0
C1425 C 0.50566 0.97428 0.02304 0.0
N1426 N 0.49606 0.95226 0.94249 0.0
N1427 N 0.47105 0.00204 0.09053 0.0
C1428 C 0.49215 0.96729 0.97629 0.0
C1429 C 0.48009 0.99335 0.05205 0.0
N1430 N 0.46523 0.97411 0.9171 0.0
N1431 N 0.51425 0.99561 0.10434 0.0
H1432 H 0.45598 0.00579 0.08568 0.0
H1433 H 0.47669 0.00326 0.12823 0.0
H1434 H 0.52819 0.9908 0.11357 0.0
H1435 H 0.51334 0.00826 0.1302 0.0
H1436 H 0.47146 0.96803 0.88588 0.0
H1437 H 0.45216 0.98004 0.90749 0.0
H1438 H 0.48461 0.94391 0.91072 0.0
H1439 H 0.5099 0.94681 0.94764 0.0
C1440 C 0.00696 0.51639 0.98215 0.0
C1441 C 0.01783 0.52564 0.03059 0.0
C1442 C 0.00969 0.48283 0.05522 0.0
C1443 C -0.00049 0.47379 1.00623 0.0
N1444 N 0.99332 0.48252 0.91963 0.0
N1445 N 0.03333 0.51939 0.11081 0.0
C1446 C -0.00047 0.49074 0.96867 0.0
C1447 C 0.02054 0.50941 0.06628 0.0
N1448 N 0.00351 0.53204 0.94923 0.0
N1449 N 0.00772 0.46579 0.09188 0.0
H1450 H 0.04029 0.53843 0.12163 0.0
H1451 H 0.03852 0.5093 0.13571 0.0
H1452 H 0.00019 0.44623 0.08494 0.0
H1453 H 0.01194 0.47059 0.12999 0.0
H1454 H 0.99276 0.52553 0.91608 0.0
H1455 H 0.01015 0.55144 0.95638 0.0
H1456 H 0.9955 0.49459 0.88933 0.0
H1457 H 0.98819 0.46397 0.9082 0.0
C1458 C 0.48915 0.46715 0.02778 0.0
C1459 C 0.46872 0.46659 1.00007 0.0
C1460 C 0.49879 0.50381 0.95007 0.0
C1461 C 0.51949 0.50576 0.97998 0.0
N1462 N 0.53356 0.49221 0.05383 0.0
N1463 N 0.45457 0.47728 0.92365 0.0
C1464 C 0.51455 0.4879 0.02002 0.0
C1465 C 0.47376 0.48283 0.95782 0.0
N1466 N 0.48448 0.44765 0.06054 0.0
N1467 N 0.50244 0.52254 0.9161 0.0
H1468 H 0.43627 0.46125 0.92756 0.0
H1469 H 0.45746 0.48651 0.88877 0.0
H1470 H 0.52009 0.53833 0.90749 0.0
H1471 H 0.48741 0.52371 0.89912 0.0
H1472 H 0.4989 0.44551 0.07769 0.0
H1473 H 0.46629 0.43195 0.06657 0.0
H1474 H 0.53049 0.48162 0.08699 0.0
H1475 H 0.55195 0.50818 0.05218 0.0
C1476 C 0.4348 0.08561 0.08513 0.0
C1477 C 0.41756 0.06185 0.06128 0.0
C1478 C 0.38273 0.05835 0.11714 0.0
C1479 C 0.39937 0.08274 0.13883 0.0
N1480 N 0.44057 0.12142 0.13826 0.0
N1481 N 0.37366 0.02795 0.04976 0.0
C1482 C 0.42527 0.09687 0.1214 0.0
C1483 C 0.39118 0.04899 0.07605 0.0
N1484 N 0.46046 0.09689 0.07489 0.0
N1485 N 0.35882 0.04332 0.13735 0.0
H1486 H 0.3787 0.01932 0.02158 0.0
H1487 H 0.35387 0.02024 0.05296 0.0
H1488 H 0.35157 0.04958 0.16625 0.0
H1489 H 0.34707 0.02394 0.12878 0.0
H1490 H 0.47446 0.1125 0.09502 0.0
H1491 H 0.46796 0.08954 0.04821 0.0
H1492 H 0.45862 0.13391 0.12314 0.0
H1493 H 0.43443 0.12993 0.16525 0.0
C1494 C 0.88347 0.30879 0.07768 0.0
C1495 C 0.88855 0.31491 0.13023 0.0
C1496 C 0.91116 0.36078 0.10555 0.0
C1497 C 0.91216 0.35413 0.05396 0.0
N1498 N 0.89649 0.32093 0.9903 0.0
N1499 N 0.9032 0.34811 0.19405 0.0
C1500 C 0.89719 0.32791 0.03971 0.0
C1501 C 0.90097 0.34133 0.14419 0.0
N1502 N 0.86436 0.28487 0.06407 0.0
N1503 N 0.91892 0.3858 0.1171 0.0
H1504 H 0.89156 0.33553 0.22209 0.0
H1505 H 0.91604 0.36649 0.2072 0.0
H1506 H 0.92484 0.40003 0.08924 0.0
H1507 H 0.9168 0.39196 0.15281 0.0
H1508 H 0.85815 0.27971 0.02681 0.0
H1509 H 0.85247 0.27128 0.09084 0.0
H1510 H 0.88935 0.30197 0.97878 0.0
H1511 H 0.90353 0.33423 0.96098 0.0
C1512 C 0.65426 0.6019 0.05571 0.0
C1513 C 0.64344 0.57605 0.03946 0.0
C1514 C 0.67242 0.57101 0.09997 0.0
C1515 C 0.68139 0.59633 0.11906 0.0
N1516 N 0.67505 0.63298 0.12184 0.0
N1517 N 0.63987 0.53466 0.05157 0.0
C1518 C 0.67057 0.6108 0.09874 0.0
C1519 C 0.6519 0.5602 0.06315 0.0
N1520 N 0.64968 0.61857 0.02877 0.0
N1521 N 0.68411 0.55763 0.11529 0.0
H1522 H 0.62551 0.52648 0.02412 0.0
H1523 H 0.64295 0.5214 0.07129 0.0
H1524 H 0.69874 0.56472 0.1422 0.0
H1525 H 0.6805 0.54035 0.09895 0.0
H1526 H 0.65947 0.63838 0.03454 0.0
H1527 H 0.63817 0.61286 0.99691 0.0
H1528 H 0.66531 0.64278 0.1129 0.0
H1529 H 0.68636 0.63996 0.15384 0.0
C1530 C 0.10229 0.41788 0.41129 0.0
C1531 C 0.08383 0.39433 0.38827 0.0
C1532 C 0.0518 0.39134 0.45107 0.0
C1533 C 0.06917 0.41603 0.47101 0.0
N1534 N 0.11046 0.4545 0.46444 0.0
N1535 N 0.0392 0.36225 0.38036 0.0
C1536 C 0.09437 0.42976 0.44967 0.0
C1537 C 0.05815 0.3822 0.40669 0.0
N1538 N 0.12753 0.42847 0.39799 0.0
N1539 N 0.02913 0.37589 0.47548 0.0
H1540 H 0.04292 0.3554 0.3473 0.0
H1541 H 0.01969 0.35457 0.38789 0.0
H1542 H 0.0235 0.38156 0.5079 0.0
H1543 H 0.0172 0.35655 0.46674 0.0
H1544 H 0.14233 0.44392 0.41709 0.0
H1545 H 0.13382 0.42062 0.36991 0.0
H1546 H 0.12789 0.46656 0.44655 0.0
H1547 H 0.10551 0.46355 0.49244 0.0
C1548 C 0.57575 0.67585 0.47438 0.0
C1549 C 0.56203 0.64962 0.45946 0.0
C1550 C 0.56288 0.66367 0.37035 0.0
C1551 C 0.5789 0.68977 0.38486 0.0
N1552 N 0.58802 0.7198 0.45313 0.0
N1553 N 0.53379 0.61964 0.39701 0.0
C1554 C 0.5814 0.69554 0.43773 0.0
C1555 C 0.55299 0.64389 0.40842 0.0
N1556 N 0.58438 0.68232 0.52288 0.0
N1557 N 0.55678 0.65755 0.3206 0.0
H1558 H 0.52488 0.6054 0.42468 0.0
H1559 H 0.52468 0.61441 0.36194 0.0
H1560 H 0.55829 0.67097 0.29392 0.0
H1561 H 0.54942 0.639 0.30638 0.0
H1562 H 0.59759 0.70104 0.53379 0.0
H1563 H 0.57918 0.66889 0.55171 0.0
H1564 H 0.58811 0.72477 0.49105 0.0
H1565 H 0.58998 0.73397 0.42758 0.0
C1566 C 0.33685 0.90596 0.45612 0.0
C1567 C 0.34658 0.93184 0.47266 0.0
C1568 C 0.32359 0.93818 0.40165 0.0
C1569 C 0.31155 0.91184 0.38826 0.0
N1570 N 0.30409 0.86955 0.40841 0.0
N1571 N 0.34221 0.96969 0.46821 0.0
C1572 C 0.3174 0.89538 0.4173 0.0
C1573 C 0.33786 0.94703 0.4474 0.0
N1574 N 0.34687 0.89175 0.47553 0.0
N1575 N 0.32217 0.95519 0.3696 0.0
H1576 H 0.35106 0.97618 0.5032 0.0
H1577 H 0.33419 0.98033 0.45397 0.0
H1578 H 0.31336 0.94941 0.33464 0.0
H1579 H 0.33251 0.97505 0.37467 0.0
H1580 H 0.34254 0.87386 0.46125 0.0
H1581 H 0.36109 0.89868 0.50322 0.0
H1582 H 0.3052 0.85617 0.43185 0.0
H1583 H 0.29066 0.86145 0.37925 0.0
C1584 C 0.5699 0.90233 0.87878 0.0
C1585 C 0.58657 0.89279 0.8921 0.0
C1586 C 0.57858 0.89727 0.98307 0.0
C1587 C 0.56324 0.90831 0.9696 0.0
N1588 N 0.53566 0.91014 0.90559 0.0
N1589 N 0.59733 0.87137 0.95671 0.0
C1590 C 0.55618 0.90723 0.91766 0.0
C1591 C 0.58791 0.88721 0.94428 0.0
N1592 N 0.56782 0.90789 0.8295 0.0
N1593 N 0.58508 0.89699 0.03245 0.0
H1594 H 0.60273 0.86242 0.92923 0.0
H1595 H 0.59684 0.86467 0.99341 0.0
H1596 H 0.57666 0.90145 0.0622 0.0
H1597 H 0.59932 0.89293 0.04359 0.0
H1598 H 0.55896 0.9183 0.81863 0.0
H1599 H 0.57591 0.90312 0.79968 0.0
H1600 H 0.52807 0.90739 0.86911 0.0
H1601 H 0.52432 0.91212 0.93332 0.0
C1602 C 0.0813 0.67121 0.9854 0.0
C1603 C 0.08192 0.64836 0.97815 0.0
C1604 C 0.09912 0.66417 0.8915 0.0
C1605 C 0.09299 0.68432 0.89595 0.0
N1606 N 0.0671 0.69767 0.94569 0.0
N1607 N 0.08982 0.62182 0.9208 0.0
C1608 C 0.08098 0.68531 0.94253 0.0
C1609 C 0.09029 0.64443 0.92997 0.0
N1610 N 0.08064 0.67947 0.03313 0.0
N1611 N 0.11382 0.66387 0.85222 0.0
H1612 H 0.08525 0.60796 0.94899 0.0
H1613 H 0.09271 0.61645 0.88483 0.0
H1614 H 0.12143 0.67785 0.82413 0.0
H1615 H 0.12061 0.65094 0.85035 0.0
H1616 H 0.08108 0.6968 0.04019 0.0
H1617 H 0.08387 0.67095 0.06453 0.0
H1618 H 0.05735 0.69744 0.97872 0.0
H1619 H 0.0614 0.70399 0.91411 0.0
C1620 C 0.33665 0.43503 0.87563 0.0
C1621 C 0.3104 0.42225 0.8909 0.0
C1622 C 0.32408 0.42537 0.9805 0.0
C1623 C 0.35008 0.43579 0.96514 0.0
N1624 N 0.38164 0.45913 0.90054 0.0
N1625 N 0.28181 0.4183 0.95904 0.0
C1626 C 0.35648 0.44314 0.91328 0.0
C1627 C 0.30499 0.4215 0.94378 0.0
N1628 N 0.34285 0.43981 0.82553 0.0
N1629 N 0.31713 0.418 0.02959 0.0
H1630 H 0.26838 0.41776 0.93323 0.0
H1631 H 0.27741 0.41968 0.99677 0.0
H1632 H 0.33041 0.42154 0.05797 0.0
H1633 H 0.29806 0.40708 0.04135 0.0
H1634 H 0.36078 0.44449 0.8108 0.0
H1635 H 0.33021 0.44004 0.79901 0.0
H1636 H 0.38782 0.46703 0.8646 0.0
H1637 H 0.39622 0.46676 0.92764 0.0
C1638 C 0.88677 0.57537 0.58263 0.0
C1639 C 0.89194 0.5734 0.63474 0.0
C1640 C 0.91083 0.54693 0.60759 0.0
C1641 C 0.9119 0.55497 0.55636 0.0
N1642 N 0.89775 0.57459 0.49423 0.0
N1643 N 0.90559 0.5531 0.69672 0.0
C1644 C 0.89858 0.56817 0.54348 0.0
C1645 C 0.90263 0.55759 0.64724 0.0
N1646 N 0.86953 0.5831 0.57072 0.0
N1647 N 0.91691 0.52828 0.61791 0.0
H1648 H 0.89613 0.55649 0.72599 0.0
H1649 H 0.91721 0.54576 0.70852 0.0
H1650 H 0.92171 0.51934 0.58932 0.0
H1651 H 0.9145 0.51971 0.6534 0.0
H1652 H 0.8632 0.58308 0.53395 0.0
H1653 H 0.8592 0.5865 0.59857 0.0
H1654 H 0.89195 0.58759 0.48322 0.0
H1655 H 0.90325 0.56706 0.46444 0.0
C1656 C 0.40388 0.30663 0.58184 0.0
C1657 C 0.40619 0.31459 0.63352 0.0
C1658 C 0.43414 0.35919 0.60387 0.0
C1659 C 0.42636 0.35178 0.55263 0.0
N1660 N 0.4038 0.31721 0.49307 0.0
N1661 N 0.42492 0.34958 0.69338 0.0
C1662 C 0.41158 0.32511 0.54156 0.0
C1663 C 0.42209 0.34116 0.64451 0.0
N1664 N 0.39502 0.2813 0.57127 0.0
N1665 N 0.45374 0.38347 0.61356 0.0
H1666 H 0.41797 0.33715 0.72416 0.0
H1667 H 0.43317 0.36891 0.70311 0.0
H1668 H 0.4638 0.39656 0.58457 0.0
H1669 H 0.46195 0.38953 0.64929 0.0
H1670 H 0.39494 0.27447 0.53487 0.0
H1671 H 0.39066 0.26762 0.59974 0.0
H1672 H 0.39004 0.29844 0.48378 0.0
H1673 H 0.41028 0.3297 0.46235 0.0
C1674 C 0.63981 0.05989 0.60237 0.0
C1675 C 0.6404 0.07065 0.55335 0.0
C1676 C 0.68326 0.10667 0.57742 0.0
C1677 C 0.68037 0.09689 0.62781 0.0
N1678 N 0.64972 0.07024 0.69076 0.0
N1679 N 0.66191 0.10923 0.50139 0.0
C1680 C 0.65656 0.07566 0.64115 0.0
C1681 C 0.6619 0.09554 0.54275 0.0
N1682 N 0.62493 0.03421 0.61178 0.0
N1683 N 0.70638 0.12672 0.56259 0.0
H1684 H 0.64657 0.10301 0.47654 0.0
H1685 H 0.67614 0.12821 0.49495 0.0
H1686 H 0.72155 0.13653 0.5879 0.0
H1687 H 0.71071 0.1327 0.52492 0.0
H1688 H 0.62533 0.02601 0.64646 0.0
H1689 H 0.61581 0.02068 0.58339 0.0
H1690 H 0.63183 0.05523 0.7021 0.0
H1691 H 0.66025 0.08329 0.71909 0.0
C1692 C 0.7685 0.76049 0.71462 0.0
C1693 C 0.75746 0.73323 0.71179 0.0
C1694 C 0.7364 0.72991 0.794 0.0
C1695 C 0.74378 0.75623 0.79372 0.0
N1696 N 0.76524 0.79657 0.74872 0.0
N1697 N 0.72233 0.69266 0.74137 0.0
C1698 C 0.75921 0.77149 0.75217 0.0
C1699 C 0.73877 0.71819 0.74919 0.0
N1700 N 0.78842 0.77603 0.68343 0.0
N1701 N 0.72808 0.71603 0.83755 0.0
H1702 H 0.72142 0.68389 0.70677 0.0
H1703 H 0.70739 0.68141 0.76638 0.0
H1704 H 0.73077 0.72522 0.87214 0.0
H1705 H 0.72333 0.69681 0.83997 0.0
H1706 H 0.79886 0.79593 0.68744 0.0
H1707 H 0.79588 0.769 0.65613 0.0
H1708 H 0.77385 0.80788 0.71674 0.0
H1709 H 0.76042 0.80561 0.77704 0.0
C1710 C 0.2582 0.02433 0.77921 0.0
C1711 C 0.24965 0.02219 0.72755 0.0
C1712 C 0.21743 0.97692 0.74674 0.0
C1713 C 0.22585 0.97993 0.79825 0.0
N1714 N 0.24451 0.01075 0.86574 0.0
N1715 N 0.21429 -0.00234 0.6701 0.0
C1716 C 0.24286 0.00506 0.81536 0.0
C1717 C 0.22726 -0.0012 0.71342 0.0
N1718 N 0.28185 0.0435 0.79387 0.0
N1719 N 0.19934 0.95323 0.72984 0.0
H1720 H 0.21909 0.01352 0.64716 0.0
H1721 H 0.19675 0.9818 0.66031 0.0
H1722 H 0.18888 0.93779 0.75435 0.0
H1723 H 0.19515 0.94892 0.69152 0.0
H1724 H 0.2881 0.04615 0.83138 0.0
H1725 H 0.29695 0.05338 0.76847 0.0
H1726 H 0.2557 0.02936 0.87968 0.0
H1727 H 0.23143 -0.00207 0.89196 0.0
C1728 C 0.97212 0.22039 0.7626 0.0
C1729 C 0.97814 0.22805 0.71071 0.0
C1730 C 0.02392 0.25142 0.73595 0.0
C1731 C 0.017 0.24959 0.78828 0.0
N1732 N 0.98343 0.23045 0.85121 0.0
N1733 N 0.01163 0.24838 0.64759 0.0
C1734 C 0.99083 0.23323 0.8016 0.0
C1735 C 0.00461 0.24261 0.69716 0.0
N1736 N 0.94871 0.19982 0.77442 0.0
N1737 N 0.0491 0.26056 0.72344 0.0
H1738 H -0.00067 0.23866 0.61784 0.0
H1739 H 0.02986 0.26261 0.6362 0.0
H1740 H 0.0633 0.26545 0.75089 0.0
H1741 H 0.05545 0.26043 0.68667 0.0
H1742 H 0.94382 0.1919 0.8107 0.0
H1743 H 0.93552 0.18862 0.74659 0.0
H1744 H 0.96427 0.22186 0.86258 0.0
H1745 H -0.00352 0.23757 0.88086 0.0
C1746 C 0.26977 0.24602 0.29131 0.0
C1747 C 0.25941 0.23496 0.24246 0.0
C1748 C 0.2205 0.23689 0.26826 0.0
C1749 C 0.23054 0.24529 0.31805 0.0
N1750 N 0.25879 0.24331 0.37996 0.0
N1751 N 0.21999 0.21326 0.19314 0.0
C1752 C 0.2531 0.24496 0.33069 0.0
C1753 C 0.23328 0.2284 0.23328 0.0
N1754 N 0.29555 0.25948 0.30041 0.0
N1755 N 0.19835 0.23637 0.25453 0.0
H1756 H 0.22726 0.20497 0.16845 0.0
H1757 H 0.20043 0.20628 0.18786 0.0
H1758 H 0.18695 0.23936 0.28049 0.0
H1759 H 0.19189 0.23382 0.21714 0.0
H1760 H 0.30298 0.26821 0.33535 0.0
H1761 H 0.30941 0.2662 0.27204 0.0
H1762 H 0.27495 0.24217 0.39039 0.0
H1763 H 0.24513 0.23849 0.40843 0.0
C1764 C 0.75326 0.99531 0.20616 0.0
C1765 C 0.76447 0.02179 0.21886 0.0
C1766 C 0.75724 0.00968 0.30987 0.0
C1767 C 0.74537 0.98318 0.2972 0.0
N1768 N 0.74186 0.95239 0.23443 0.0
N1769 N 0.78668 0.05353 0.28373 0.0
C1770 C 0.7465 0.97656 0.24563 0.0
C1771 C 0.76952 0.0287 0.27109 0.0
N1772 N 0.74798 0.98762 0.15688 0.0
N1773 N 0.75574 0.017 0.35814 0.0
H1774 H 0.79714 0.06751 0.2564 0.0
H1775 H 0.79281 0.05937 0.32083 0.0
H1776 H 0.74741 0.00401 0.3877 0.0
H1777 H 0.76119 0.03587 0.36787 0.0
H1778 H 0.73648 0.96848 0.14623 0.0
H1779 H 0.7542 0.00043 0.12676 0.0
H1780 H 0.74455 0.94696 0.19837 0.0
H1781 H 0.7384 0.93875 0.2625 0.0
C1782 C 0.02763 0.76686 0.2358 0.0
C1783 C 0.02114 0.76233 0.28842 0.0
C1784 C 0.9763 0.74805 0.26399 0.0
C1785 C 0.98167 0.74576 0.21207 0.0
N1786 N 0.01444 0.75697 0.14804 0.0
N1787 N 0.98781 0.7487 0.35202 0.0
C1788 C 0.00794 0.75655 0.19772 0.0
C1789 C 0.99512 0.7533 0.3024 0.0
N1790 N 0.05276 0.78231 0.22221 0.0
N1791 N 0.95342 0.74639 0.27645 0.0
H1792 H 0.00083 0.75392 0.38149 0.0
H1793 H 0.96866 0.73864 0.36354 0.0
H1794 H 0.94021 0.7448 0.24898 0.0
H1795 H 0.94914 0.75004 0.3128 0.0
H1796 H 0.05875 0.78835 0.1851 0.0
H1797 H 0.0673 0.79168 0.24894 0.0
H1798 H 0.03236 0.76015 0.13625 0.0
H1799 H 0.00197 0.75444 0.11864 0.0
loop_
_geom_bond_atom_site_label_1
_geom_bond_atom_site_label_2
_geom_bond_distance
_geom_bond_site_symmetry_2
_ccdc_geom_bond_type
Co0 O1 2.216 . S
Co0 O2 2.091 . S
Co0 O4 2.004 . S
Co0 O10 2.021 . S
Co0 O12 2.137 . S
Co0 O13 2.244 . S
O1 Co0 2.216 . S
O1 C8 1.247 . S
O2 Co0 2.091 . S
O2 C8 1.261 . S
C3 O12 1.247 . S
C3 O13 1.272 . S
O4 Co0 2.004 . S
O4 C9 1.259 . S
Co5 O6 2.061 . S
Co5 O11 2.052 . S
Co5 O13 2.135 . S
O6 Co5 2.061 . S
O6 C9 1.235 . S
C7 O10 1.238 . S
C7 O11 1.241 . S
C8 O1 1.247 . S
C8 O2 1.261 . S
C9 O4 1.259 . S
C9 O6 1.235 . S
O10 Co0 2.021 . S
O10 C7 1.238 . S
O11 Co5 2.052 . S
O11 C7 1.241 . S
O12 Co0 2.137 . S
O12 C3 1.247 . S
O13 Co0 2.244 . S
O13 C3 1.272 . S
O13 Co5 2.135 . S
Co14 O15 2.216 . S
Co14 O16 2.091 . S
Co14 O18 2.004 . S
Co14 O24 2.021 . S
Co14 O26 2.137 . S
Co14 O27 2.244 . S
O15 Co14 2.216 . S
O15 C22 1.247 . S
O16 Co14 2.091 . S
O16 C22 1.261 . S
C17 O26 1.247 . S
C17 O27 1.272 . S
O18 Co14 2.004 . S
O18 C23 1.259 . S
Co19 O20 2.061 . S
Co19 O25 2.052 . S
Co19 O27 2.135 . S
O20 Co19 2.061 . S
O20 C23 1.235 . S
C21 O24 1.238 . S
C21 O25 1.241 . S
C22 O15 1.247 . S
C22 O16 1.261 . S
C23 O18 1.259 . S
C23 O20 1.235 . S
O24 Co14 2.021 . S
O24 C21 1.238 . S
O25 Co19 2.052 . S
O25 C21 1.241 . S
O26 Co14 2.137 . S
O26 C17 1.247 . S
O27 Co14 2.244 . S
O27 C17 1.272 . S
O27 Co19 2.135 . S
Co28 O29 2.216 . S
Co28 O30 2.091 . S
Co28 O32 2.004 . S
Co28 O38 2.021 . S
Co28 O40 2.137 . S
Co28 O41 2.244 . S
O29 Co28 2.216 . S
O29 C36 1.247 . S
O30 Co28 2.091 . S
O30 C36 1.261 . S
C31 O40 1.247 . S
C31 O41 1.272 . S
O32 Co28 2.004 . S
O32 C37 1.259 . S
Co33 O34 2.061 . S
Co33 O39 2.052 . S
Co33 O41 2.135 . S
O34 Co33 2.061 . S
O34 C37 1.235 . S
C35 O38 1.238 . S
C35 O39 1.241 . S
C36 O29 1.247 . S
C36 O30 1.261 . S
C37 O32 1.259 . S
C37 O34 1.235 . S
O38 Co28 2.021 . S
O38 C35 1.238 . S
O39 Co33 2.052 . S
O39 C35 1.241 . S
O40 Co28 2.137 . S
O40 C31 1.247 . S
O41 Co28 2.244 . S
O41 C31 1.272 . S
O41 Co33 2.135 . S
Co42 O43 2.216 . S
Co42 O44 2.091 . S
Co42 O46 2.004 . S
Co42 O52 2.021 . S
Co42 O54 2.137 . S
Co42 O55 2.244 . S
O43 Co42 2.216 . S
O43 C50 1.247 . S
O44 Co42 2.091 . S
O44 C50 1.261 . S
C45 O54 1.247 . S
C45 O55 1.272 . S
O46 Co42 2.004 . S
O46 C51 1.259 . S
Co47 O48 2.061 . S
Co47 O53 2.052 . S
Co47 O55 2.135 . S
O48 Co47 2.061 . S
O48 C51 1.235 . S
C49 O52 1.238 . S
C49 O53 1.241 . S
C50 O43 1.247 . S
C50 O44 1.261 . S
C51 O46 1.259 . S
C51 O48 1.235 . S
O52 Co42 2.021 . S
O52 C49 1.238 . S
O53 Co47 2.052 . S
O53 C49 1.241 . S
O54 Co42 2.137 . S
O54 C45 1.247 . S
O55 Co42 2.244 . S
O55 C45 1.272 . S
O55 Co47 2.135 . S
Co56 O57 2.216 . S
Co56 O58 2.091 . S
Co56 O60 2.004 . S
Co56 O66 2.021 . S
Co56 O68 2.137 . S
Co56 O69 2.244 . S
O57 Co56 2.216 . S
O57 C64 1.247 . S
O58 Co56 2.091 . S
O58 C64 1.261 . S
C59 O68 1.247 . S
C59 O69 1.272 . S
O60 Co56 2.004 . S
O60 C65 1.259 . S
Co61 O62 2.061 . S
Co61 O67 2.052 . S
Co61 O69 2.135 . S
O62 Co61 2.061 . S
O62 C65 1.235 . S
C63 O66 1.238 . S
C63 O67 1.241 . S
C64 O57 1.247 . S
C64 O58 1.261 . S
C65 O60 1.259 . S
C65 O62 1.235 . S
O66 Co56 2.021 . S
O66 C63 1.238 . S
O67 Co61 2.052 . S
O67 C63 1.241 . S
O68 Co56 2.137 . S
O68 C59 1.247 . S
O69 Co56 2.244 . S
O69 C59 1.272 . S
O69 Co61 2.135 . S
Co70 O71 2.216 . S
Co70 O72 2.091 . S
Co70 O74 2.004 . S
Co70 O80 2.021 . S
Co70 O82 2.137 . S
Co70 O83 2.244 . S
O71 Co70 2.216 . S
O71 C78 1.247 . S
O72 Co70 2.091 . S
O72 C78 1.261 . S
C73 O82 1.247 . S
C73 O83 1.272 . S
O74 Co70 2.004 . S
O74 C79 1.259 . S
Co75 O76 2.061 . S
Co75 O81 2.052 . S
Co75 O83 2.135 . S
O76 Co75 2.061 . S
O76 C79 1.235 . S
C77 O80 1.238 . S
C77 O81 1.241 . S
C78 O71 1.247 . S
C78 O72 1.261 . S
C79 O74 1.259 . S
C79 O76 1.235 . S
O80 Co70 2.021 . S
O80 C77 1.238 . S
O81 Co75 2.052 . S
O81 C77 1.241 . S
O82 Co70 2.137 . S
O82 C73 1.247 . S
O83 Co70 2.244 . S
O83 C73 1.272 . S
O83 Co75 2.135 . S
Co84 O85 2.216 . S
Co84 O86 2.091 . S
Co84 O88 2.004 . S
Co84 O94 2.021 . S
Co84 O96 2.137 . S
Co84 O97 2.244 . S
O85 Co84 2.216 . S
O85 C92 1.247 . S
O86 Co84 2.091 . S
O86 C92 1.261 . S
C87 O96 1.247 . S
C87 O97 1.272 . S
O88 Co84 2.004 . S
O88 C93 1.259 . S
Co89 O90 2.061 . S
Co89 O95 2.052 . S
Co89 O97 2.135 . S
O90 Co89 2.061 . S
O90 C93 1.235 . S
C91 O94 1.238 . S
C91 O95 1.241 . S
C92 O85 1.247 . S
C92 O86 1.261 . S
C93 O88 1.259 . S
C93 O90 1.235 . S
O94 Co84 2.021 . S
O94 C91 1.238 . S
O95 Co89 2.052 . S
O95 C91 1.241 . S
O96 Co84 2.137 . S
O96 C87 1.247 . S
O97 Co84 2.244 . S
O97 C87 1.272 . S
O97 Co89 2.135 . S
Co98 O99 2.216 . S
Co98 O100 2.091 . S
Co98 O102 2.004 . S
Co98 O108 2.021 . S
Co98 O110 2.137 . S
Co98 O111 2.244 . S
O99 Co98 2.216 . S
O99 C106 1.247 . S
O100 Co98 2.091 . S
O100 C106 1.261 . S
C101 O110 1.247 . S
C101 O111 1.272 . S
O102 Co98 2.004 . S
O102 C107 1.259 . S
Co103 O104 2.061 . S
Co103 O109 2.052 . S
Co103 O111 2.135 . S
O104 Co103 2.061 . S
O104 C107 1.235 . S
C105 O108 1.238 . S
C105 O109 1.241 . S
C106 O99 1.247 . S
C106 O100 1.261 . S
C107 O102 1.259 . S
C107 O104 1.235 . S
O108 Co98 2.021 . S
O108 C105 1.238 . S
O109 Co103 2.052 . S
O109 C105 1.241 . S
O110 Co98 2.137 . S
O110 C101 1.247 . S
O111 Co98 2.244 . S
O111 C101 1.272 . S
O111 Co103 2.135 . S
Co112 O113 2.216 . S
Co112 O114 2.091 . S
Co112 O116 2.004 . S
Co112 O122 2.021 . S
Co112 O124 2.137 . S
Co112 O125 2.244 . S
O113 Co112 2.216 . S
O113 C120 1.247 . S
O114 Co112 2.091 . S
O114 C120 1.261 . S
C115 O124 1.247 . S
C115 O125 1.272 . S
O116 Co112 2.004 . S
O116 C121 1.259 . S
Co117 O118 2.061 . S
Co117 O123 2.052 . S
Co117 O125 2.135 . S
O118 Co117 2.061 . S
O118 C121 1.235 . S
C119 O122 1.238 . S
C119 O123 1.241 . S
C120 O113 1.247 . S
C120 O114 1.261 . S
C121 O116 1.259 . S
C121 O118 1.235 . S
O122 Co112 2.021 . S
O122 C119 1.238 . S
O123 Co117 2.052 . S
O123 C119 1.241 . S
O124 Co112 2.137 . S
O124 C115 1.247 . S
O125 Co112 2.244 . S
O125 C115 1.272 . S
O125 Co117 2.135 . S
Co126 O127 2.216 . S
Co126 O128 2.091 . S
Co126 O130 2.004 . S
Co126 O136 2.021 . S
Co126 O138 2.137 . S
Co126 O139 2.244 . S
O127 Co126 2.216 . S
O127 C134 1.247 . S
O128 Co126 2.091 . S
O128 C134 1.261 . S
C129 O138 1.247 . S
C129 O139 1.272 . S
O130 Co126 2.004 . S
O130 C135 1.259 . S
Co131 O132 2.061 . S
Co131 O137 2.052 . S
Co131 O139 2.135 . S
O132 Co131 2.061 . S
O132 C135 1.235 . S
C133 O136 1.238 . S
C133 O137 1.241 . S
C134 O127 1.247 . S
C134 O128 1.261 . S
C135 O130 1.259 . S
C135 O132 1.235 . S
O136 Co126 2.021 . S
O136 C133 1.238 . S
O137 Co131 2.052 . S
O137 C133 1.241 . S
O138 Co126 2.137 . S
O138 C129 1.247 . S
O139 Co126 2.244 . S
O139 C129 1.272 . S
O139 Co131 2.135 . S
Co140 O141 2.216 . S
Co140 O142 2.091 . S
Co140 O144 2.004 . S
Co140 O150 2.021 . S
Co140 O152 2.137 . S
Co140 O153 2.244 . S
O141 Co140 2.216 . S
O141 C148 1.247 . S
O142 Co140 2.091 . S
O142 C148 1.261 . S
C143 O152 1.247 . S
C143 O153 1.272 . S
O144 Co140 2.004 . S
O144 C149 1.259 . S
Co145 O146 2.061 . S
Co145 O151 2.052 . S
Co145 O153 2.135 . S
O146 Co145 2.061 . S
O146 C149 1.235 . S
C147 O150 1.238 . S
C147 O151 1.241 . S
C148 O141 1.247 . S
C148 O142 1.261 . S
C149 O144 1.259 . S
C149 O146 1.235 . S
O150 Co140 2.021 . S
O150 C147 1.238 . S
O151 Co145 2.052 . S
O151 C147 1.241 . S
O152 Co140 2.137 . S
O152 C143 1.247 . S
O153 Co140 2.244 . S
O153 C143 1.272 . S
O153 Co145 2.135 . S
Co154 O155 2.216 . S
Co154 O156 2.091 . S
Co154 O158 2.004 . S
Co154 O164 2.021 . S
Co154 O166 2.137 . S
Co154 O167 2.244 . S
O155 Co154 2.216 . S
O155 C162 1.247 . S
O156 Co154 2.091 . S
O156 C162 1.261 . S
C157 O166 1.247 . S
C157 O167 1.272 . S
O158 Co154 2.004 . S
O158 C163 1.259 . S
Co159 O160 2.061 . S
Co159 O165 2.052 . S
Co159 O167 2.135 . S
O160 Co159 2.061 . S
O160 C163 1.235 . S
C161 O164 1.238 . S
C161 O165 1.241 . S
C162 O155 1.247 . S
C162 O156 1.261 . S
C163 O158 1.259 . S
C163 O160 1.235 . S
O164 Co154 2.021 . S
O164 C161 1.238 . S
O165 Co159 2.052 . S
O165 C161 1.241 . S
O166 Co154 2.137 . S
O166 C157 1.247 . S
O167 Co154 2.244 . S
O167 C157 1.272 . S
O167 Co159 2.135 . S
Co168 O169 2.216 . S
Co168 O170 2.091 . S
Co168 O172 2.004 . S
Co168 O178 2.021 . S
Co168 O180 2.137 . S
Co168 O181 2.244 . S
O169 Co168 2.216 . S
O169 C176 1.247 . S
O170 Co168 2.091 . S
O170 C176 1.261 . S
C171 O180 1.247 . S
C171 O181 1.272 . S
O172 Co168 2.004 . S
O172 C177 1.259 . S
Co173 O174 2.061 . S
Co173 O179 2.052 . S
Co173 O181 2.135 . S
O174 Co173 2.061 . S
O174 C177 1.235 . S
C175 O178 1.238 . S
C175 O179 1.241 . S
C176 O169 1.247 . S
C176 O170 1.261 . S
C177 O172 1.259 . S
C177 O174 1.235 . S
O178 Co168 2.021 . S
O178 C175 1.238 . S
O179 Co173 2.052 . S
O179 C175 1.241 . S
O180 Co168 2.137 . S
O180 C171 1.247 . S
O181 Co168 2.244 . S
O181 C171 1.272 . S
O181 Co173 2.135 . S
Co182 O183 2.216 . S
Co182 O184 2.091 . S
Co182 O186 2.004 . S
Co182 O192 2.021 . S
Co182 O194 2.137 . S
Co182 O195 2.244 . S
O183 Co182 2.216 . S
O183 C190 1.247 . S
O184 Co182 2.091 . S
O184 C190 1.261 . S
C185 O194 1.247 . S
C185 O195 1.272 . S
O186 Co182 2.004 . S
O186 C191 1.259 . S
Co187 O188 2.061 . S
Co187 O193 2.052 . S
Co187 O195 2.135 . S
O188 Co187 2.061 . S
O188 C191 1.235 . S
C189 O192 1.238 . S
C189 O193 1.241 . S
C190 O183 1.247 . S
C190 O184 1.261 . S
C191 O186 1.259 . S
C191 O188 1.235 . S
O192 Co182 2.021 . S
O192 C189 1.238 . S
O193 Co187 2.052 . S
O193 C189 1.241 . S
O194 Co182 2.137 . S
O194 C185 1.247 . S
O195 Co182 2.244 . S
O195 C185 1.272 . S
O195 Co187 2.135 . S
Co196 O197 2.216 . S
Co196 O198 2.091 . S
Co196 O200 2.004 . S
Co196 O206 2.021 . S
Co196 O208 2.137 . S
Co196 O209 2.244 . S
O197 Co196 2.216 . S
O197 C204 1.247 . S
O198 Co196 2.091 . S
O198 C204 1.261 . S
C199 O208 1.247 . S
C199 O209 1.272 . S
O200 Co196 2.004 . S
O200 C205 1.259 . S
Co201 O202 2.061 . S
Co201 O207 2.052 . S
Co201 O209 2.135 . S
O202 Co201 2.061 . S
O202 C205 1.235 . S
C203 O206 1.238 . S
C203 O207 1.241 . S
C204 O197 1.247 . S
C204 O198 1.261 . S
C205 O200 1.259 . S
C205 O202 1.235 . S
O206 Co196 2.021 . S
O206 C203 1.238 . S
O207 Co201 2.052 . S
O207 C203 1.241 . S
O208 Co196 2.137 . S
O208 C199 1.247 . S
O209 Co196 2.244 . S
O209 C199 1.272 . S
O209 Co201 2.135 . S
Co210 O211 2.216 . S
Co210 O212 2.091 . S
Co210 O214 2.004 . S
Co210 O220 2.021 . S
Co210 O222 2.137 . S
Co210 O223 2.244 . S
O211 Co210 2.216 . S
O211 C218 1.247 . S
O212 Co210 2.091 . S
O212 C218 1.261 . S
C213 O222 1.247 . S
C213 O223 1.272 . S
O214 Co210 2.004 . S
O214 C219 1.259 . S
Co215 O216 2.061 . S
Co215 O221 2.052 . S
Co215 O223 2.135 . S
O216 Co215 2.061 . S
O216 C219 1.235 . S
C217 O220 1.238 . S
C217 O221 1.241 . S
C218 O211 1.247 . S
C218 O212 1.261 . S
C219 O214 1.259 . S
C219 O216 1.235 . S
O220 Co210 2.021 . S
O220 C217 1.238 . S
O221 Co215 2.052 . S
O221 C217 1.241 . S
O222 Co210 2.137 . S
O222 C213 1.247 . S
O223 Co210 2.244 . S
O223 C213 1.272 . S
O223 Co215 2.135 . S
Co224 O225 2.216 . S
Co224 O226 2.091 . S
Co224 O228 2.004 . S
Co224 O234 2.021 . S
Co224 O236 2.137 . S
Co224 O237 2.244 . S
O225 Co224 2.216 . S
O225 C232 1.247 . S
O226 Co224 2.091 . S
O226 C232 1.261 . S
C227 O236 1.247 . S
C227 O237 1.272 . S
O228 Co224 2.004 . S
O228 C233 1.259 . S
Co229 O230 2.061 . S
Co229 O235 2.052 . S
Co229 O237 2.135 . S
O230 Co229 2.061 . S
O230 C233 1.235 . S
C231 O234 1.238 . S
C231 O235 1.241 . S
C232 O225 1.247 . S
C232 O226 1.261 . S
C233 O228 1.259 . S
C233 O230 1.235 . S
O234 Co224 2.021 . S
O234 C231 1.238 . S
O235 Co229 2.052 . S
O235 C231 1.241 . S
O236 Co224 2.137 . S
O236 C227 1.247 . S
O237 Co224 2.244 . S
O237 C227 1.272 . S
O237 Co229 2.135 . S
Co238 O239 2.216 . S
Co238 O240 2.091 . S
Co238 O242 2.004 . S
Co238 O248 2.021 . S
Co238 O250 2.137 . S
Co238 O251 2.244 . S
O239 Co238 2.216 . S
O239 C246 1.247 . S
O240 Co238 2.091 . S
O240 C246 1.261 . S
C241 O250 1.247 . S
C241 O251 1.272 . S
O242 Co238 2.004 . S
O242 C247 1.259 . S
Co243 O244 2.061 . S
Co243 O249 2.052 . S
Co243 O251 2.135 . S
O244 Co243 2.061 . S
O244 C247 1.235 . S
C245 O248 1.238 . S
C245 O249 1.241 . S
C246 O239 1.247 . S
C246 O240 1.261 . S
C247 O242 1.259 . S
C247 O244 1.235 . S
O248 Co238 2.021 . S
O248 C245 1.238 . S
O249 Co243 2.052 . S
O249 C245 1.241 . S
O250 Co238 2.137 . S
O250 C241 1.247 . S
O251 Co238 2.244 . S
O251 C241 1.272 . S
O251 Co243 2.135 . S
Co252 O253 2.216 . S
Co252 O254 2.091 . S
Co252 O256 2.004 . S
Co252 O262 2.021 . S
Co252 O264 2.137 . S
Co252 O265 2.244 . S
O253 Co252 2.216 . S
O253 C260 1.247 . S
O254 Co252 2.091 . S
O254 C260 1.261 . S
C255 O264 1.247 . S
C255 O265 1.272 . S
O256 Co252 2.004 . S
O256 C261 1.259 . S
Co257 O258 2.061 . S
Co257 O263 2.052 . S
Co257 O265 2.135 . S
O258 Co257 2.061 . S
O258 C261 1.235 . S
C259 O262 1.238 . S
C259 O263 1.241 . S
C260 O253 1.247 . S
C260 O254 1.261 . S
C261 O256 1.259 . S
C261 O258 1.235 . S
O262 Co252 2.021 . S
O262 C259 1.238 . S
O263 Co257 2.052 . S
O263 C259 1.241 . S
O264 Co252 2.137 . S
O264 C255 1.247 . S
O265 Co252 2.244 . S
O265 C255 1.272 . S
O265 Co257 2.135 . S
Co266 O267 2.216 . S
Co266 O268 2.091 . S
Co266 O270 2.004 . S
Co266 O276 2.021 . S
Co266 O278 2.137 . S
Co266 O279 2.244 . S
O267 Co266 2.216 . S
O267 C274 1.247 . S
O268 Co266 2.091 . S
O268 C274 1.261 . S
C269 O278 1.247 . S
C269 O279 1.272 . S
O270 Co266 2.004 . S
O270 C275 1.259 . S
Co271 O272 2.061 . S
Co271 O277 2.052 . S
Co271 O279 2.135 . S
O272 Co271 2.061 . S
O272 C275 1.235 . S
C273 O276 1.238 . S
C273 O277 1.241 . S
C274 O267 1.247 . S
C274 O268 1.261 . S
C275 O270 1.259 . S
C275 O272 1.235 . S
O276 Co266 2.021 . S
O276 C273 1.238 . S
O277 Co271 2.052 . S
O277 C273 1.241 . S
O278 Co266 2.137 . S
O278 C269 1.247 . S
O279 Co266 2.244 . S
O279 C269 1.272 . S
O279 Co271 2.135 . S
Co280 O281 2.216 . S
Co280 O282 2.091 . S
Co280 O284 2.004 . S
Co280 O290 2.021 . S
Co280 O292 2.137 . S
Co280 O293 2.244 . S
O281 Co280 2.216 . S
O281 C288 1.247 . S
O282 Co280 2.091 . S
O282 C288 1.261 . S
C283 O292 1.247 . S
C283 O293 1.272 . S
O284 Co280 2.004 . S
O284 C289 1.259 . S
Co285 O286 2.061 . S
Co285 O291 2.052 . S
Co285 O293 2.135 . S
O286 Co285 2.061 . S
O286 C289 1.235 . S
C287 O290 1.238 . S
C287 O291 1.241 . S
C288 O281 1.247 . S
C288 O282 1.261 . S
C289 O284 1.259 . S
C289 O286 1.235 . S
O290 Co280 2.021 . S
O290 C287 1.238 . S
O291 Co285 2.052 . S
O291 C287 1.241 . S
O292 Co280 2.137 . S
O292 C283 1.247 . S
O293 Co280 2.244 . S
O293 C283 1.272 . S
O293 Co285 2.135 . S
Co294 O295 2.216 . S
Co294 O296 2.091 . S
Co294 O298 2.004 . S
Co294 O304 2.021 . S
Co294 O306 2.137 1_554 S
Co294 O307 2.244 . S
O295 Co294 2.216 . S
O295 C302 1.247 . S
O296 Co294 2.091 . S
O296 C302 1.261 . S
C297 O306 1.247 1_554 S
C297 O307 1.272 . S
O298 Co294 2.004 . S
O298 C303 1.259 . S
Co299 O300 2.061 . S
Co299 O305 2.052 . S
Co299 O307 2.135 . S
O300 Co299 2.061 . S
O300 C303 1.235 . S
C301 O304 1.238 . S
C301 O305 1.241 . S
C302 O295 1.247 . S
C302 O296 1.261 . S
C303 O298 1.259 . S
C303 O300 1.235 . S
O304 Co294 2.021 . S
O304 C301 1.238 . S
O305 Co299 2.052 . S
O305 C301 1.241 . S
O306 Co294 2.137 1_556 S
O306 C297 1.247 1_556 S
O307 Co294 2.244 . S
O307 C297 1.272 . S
O307 Co299 2.135 . S
Co308 O309 2.216 . S
Co308 O310 2.091 . S
Co308 O312 2.004 . S
Co308 O318 2.021 . S
Co308 O320 2.137 1_554 S
Co308 O321 2.244 . S
O309 Co308 2.216 . S
O309 C316 1.247 . S
O310 Co308 2.091 . S
O310 C316 1.261 . S
C311 O320 1.247 1_554 S
C311 O321 1.272 . S
O312 Co308 2.004 . S
O312 C317 1.259 . S
Co313 O314 2.061 . S
Co313 O319 2.052 . S
Co313 O321 2.135 . S
O314 Co313 2.061 . S
O314 C317 1.235 . S
C315 O318 1.238 . S
C315 O319 1.241 . S
C316 O309 1.247 . S
C316 O310 1.261 . S
C317 O312 1.259 . S
C317 O314 1.235 . S
O318 Co308 2.021 . S
O318 C315 1.238 . S
O319 Co313 2.052 . S
O319 C315 1.241 . S
O320 Co308 2.137 1_556 S
O320 C311 1.247 1_556 S
O321 Co308 2.244 . S
O321 C311 1.272 . S
O321 Co313 2.135 . S
Co322 O323 2.216 . S
Co322 O324 2.091 . S
Co322 O326 2.004 . S
Co322 O332 2.021 . S
Co322 O334 2.137 1_554 S
Co322 O335 2.244 . S
O323 Co322 2.216 . S
O323 C330 1.247 . S
O324 Co322 2.091 . S
O324 C330 1.261 . S
C325 O334 1.247 1_554 S
C325 O335 1.272 . S
O326 Co322 2.004 . S
O326 C331 1.259 . S
Co327 O328 2.061 . S
Co327 O333 2.052 . S
Co327 O335 2.135 . S
O328 Co327 2.061 . S
O328 C331 1.235 . S
C329 O332 1.238 . S
C329 O333 1.241 . S
C330 O323 1.247 . S
C330 O324 1.261 . S
C331 O326 1.259 . S
C331 O328 1.235 . S
O332 Co322 2.021 . S
O332 C329 1.238 . S
O333 Co327 2.052 . S
O333 C329 1.241 . S
O334 Co322 2.137 1_556 S
O334 C325 1.247 1_556 S
O335 Co322 2.244 . S
O335 C325 1.272 . S
O335 Co327 2.135 . S
Co336 O337 2.216 . S
Co336 O338 2.091 . S
Co336 O340 2.004 . S
Co336 O346 2.021 . S
Co336 O348 2.137 . S
Co336 O349 2.244 . S
O337 Co336 2.216 . S
O337 C344 1.247 . S
O338 Co336 2.091 . S
O338 C344 1.261 . S
C339 O348 1.247 . S
C339 O349 1.272 . S
O340 Co336 2.004 . S
O340 C345 1.259 . S
Co341 O342 2.061 . S
Co341 O347 2.052 . S
Co341 O349 2.135 . S
O342 Co341 2.061 . S
O342 C345 1.235 . S
C343 O346 1.238 . S
C343 O347 1.241 . S
C344 O337 1.247 . S
C344 O338 1.261 . S
C345 O340 1.259 . S
C345 O342 1.235 . S
O346 Co336 2.021 . S
O346 C343 1.238 . S
O347 Co341 2.052 . S
O347 C343 1.241 . S
O348 Co336 2.137 . S
O348 C339 1.247 . S
O349 Co336 2.244 . S
O349 C339 1.272 . S
O349 Co341 2.135 . S
Co350 O351 2.216 . S
Co350 O352 2.091 . S
Co350 O354 2.004 . S
Co350 O360 2.021 . S
Co350 O362 2.137 . S
Co350 O363 2.244 . S
O351 Co350 2.216 . S
O351 C358 1.247 . S
O352 Co350 2.091 . S
O352 C358 1.261 . S
C353 O362 1.247 . S
C353 O363 1.272 . S
O354 Co350 2.004 . S
O354 C359 1.259 . S
Co355 O356 2.061 . S
Co355 O361 2.052 . S
Co355 O363 2.135 . S
O356 Co355 2.061 . S
O356 C359 1.235 . S
C357 O360 1.238 . S
C357 O361 1.241 . S
C358 O351 1.247 . S
C358 O352 1.261 . S
C359 O354 1.259 . S
C359 O356 1.235 . S
O360 Co350 2.021 . S
O360 C357 1.238 . S
O361 Co355 2.052 . S
O361 C357 1.241 . S
O362 Co350 2.137 . S
O362 C353 1.247 . S
O363 Co350 2.244 . S
O363 C353 1.272 . S
O363 Co355 2.135 . S
Co364 O365 2.216 . S
Co364 O366 2.091 . S
Co364 O368 2.004 . S
Co364 O374 2.021 . S
Co364 O376 2.137 . S
Co364 O377 2.244 . S
O365 Co364 2.216 . S
O365 C372 1.247 . S
O366 Co364 2.091 . S
O366 C372 1.261 . S
C367 O376 1.247 . S
C367 O377 1.272 . S
O368 Co364 2.004 . S
O368 C373 1.259 . S
Co369 O370 2.061 . S
Co369 O375 2.052 . S
Co369 O377 2.135 . S
O370 Co369 2.061 . S
O370 C373 1.235 . S
C371 O374 1.238 . S
C371 O375 1.241 . S
C372 O365 1.247 . S
C372 O366 1.261 . S
C373 O368 1.259 . S
C373 O370 1.235 . S
O374 Co364 2.021 . S
O374 C371 1.238 . S
O375 Co369 2.052 . S
O375 C371 1.241 . S
O376 Co364 2.137 . S
O376 C367 1.247 . S
O377 Co364 2.244 . S
O377 C367 1.272 . S
O377 Co369 2.135 . S
Co378 O379 2.216 . S
Co378 O380 2.091 . S
Co378 O382 2.004 . S
Co378 O388 2.021 . S
Co378 O390 2.137 1_556 S
Co378 O391 2.244 . S
O379 Co378 2.216 . S
O379 C386 1.247 . S
O380 Co378 2.091 . S
O380 C386 1.261 . S
C381 O390 1.247 1_556 S
C381 O391 1.272 . S
O382 Co378 2.004 . S
O382 C387 1.259 . S
Co383 O384 2.061 . S
Co383 O389 2.052 . S
Co383 O391 2.135 . S
O384 Co383 2.061 . S
O384 C387 1.235 . S
C385 O388 1.238 . S
C385 O389 1.241 . S
C386 O379 1.247 . S
C386 O380 1.261 . S
C387 O382 1.259 . S
C387 O384 1.235 . S
O388 Co378 2.021 . S
O388 C385 1.238 . S
O389 Co383 2.052 . S
O389 C385 1.241 . S
O390 Co378 2.137 1_554 S
O390 C381 1.247 1_554 S
O391 Co378 2.244 . S
O391 C381 1.272 . S
O391 Co383 2.135 . S
Co392 O393 2.216 . S
Co392 O394 2.091 . S
Co392 O396 2.004 . S
Co392 O402 2.021 . S
Co392 O404 2.137 1_556 S
Co392 O405 2.244 . S
O393 Co392 2.216 . S
O393 C400 1.247 . S
O394 Co392 2.091 . S
O394 C400 1.261 . S
C395 O404 1.247 1_556 S
C395 O405 1.272 . S
O396 Co392 2.004 . S
O396 C401 1.259 . S
Co397 O398 2.061 . S
Co397 O403 2.052 . S
Co397 O405 2.135 . S
O398 Co397 2.061 . S
O398 C401 1.235 . S
C399 O402 1.238 . S
C399 O403 1.241 . S
C400 O393 1.247 . S
C400 O394 1.261 . S
C401 O396 1.259 . S
C401 O398 1.235 . S
O402 Co392 2.021 . S
O402 C399 1.238 . S
O403 Co397 2.052 . S
O403 C399 1.241 . S
O404 Co392 2.137 1_554 S
O404 C395 1.247 1_554 S
O405 Co392 2.244 . S
O405 C395 1.272 . S
O405 Co397 2.135 . S
Co406 O407 2.216 . S
Co406 O408 2.091 . S
Co406 O410 2.004 . S
Co406 O416 2.021 . S
Co406 O418 2.137 1_556 S
Co406 O419 2.244 . S
O407 Co406 2.216 . S
O407 C414 1.247 . S
O408 Co406 2.091 . S
O408 C414 1.261 . S
C409 O418 1.247 1_556 S
C409 O419 1.272 . S
O410 Co406 2.004 . S
O410 C415 1.259 . S
Co411 O412 2.061 . S
Co411 O417 2.052 . S
Co411 O419 2.135 . S
O412 Co411 2.061 . S
O412 C415 1.235 . S
C413 O416 1.238 . S
C413 O417 1.241 . S
C414 O407 1.247 . S
C414 O408 1.261 . S
C415 O410 1.259 . S
C415 O412 1.235 . S
O416 Co406 2.021 . S
O416 C413 1.238 . S
O417 Co411 2.052 . S
O417 C413 1.241 . S
O418 Co406 2.137 1_554 S
O418 C409 1.247 1_554 S
O419 Co406 2.244 . S
O419 C409 1.272 . S
O419 Co411 2.135 . S
Co420 O421 2.216 . S
Co420 O422 2.091 . S
Co420 O424 2.004 . S
Co420 O430 2.021 . S
Co420 O432 2.137 . S
Co420 O433 2.244 . S
O421 Co420 2.216 . S
O421 C428 1.247 . S
O422 Co420 2.091 . S
O422 C428 1.261 . S
C423 O432 1.247 . S
C423 O433 1.272 . S
O424 Co420 2.004 . S
O424 C429 1.259 . S
Co425 O426 2.061 . S
Co425 O431 2.052 . S
Co425 O433 2.135 . S
O426 Co425 2.061 . S
O426 C429 1.235 . S
C427 O430 1.238 . S
C427 O431 1.241 . S
C428 O421 1.247 . S
C428 O422 1.261 . S
C429 O424 1.259 . S
C429 O426 1.235 . S
O430 Co420 2.021 . S
O430 C427 1.238 . S
O431 Co425 2.052 . S
O431 C427 1.241 . S
O432 Co420 2.137 . S
O432 C423 1.247 . S
O433 Co420 2.244 . S
O433 C423 1.272 . S
O433 Co425 2.135 . S
Co434 O435 2.216 . S
Co434 O436 2.091 . S
Co434 O438 2.004 . S
Co434 O444 2.021 . S
Co434 O446 2.137 . S
Co434 O447 2.244 . S
O435 Co434 2.216 . S
O435 C442 1.247 . S
O436 Co434 2.091 . S
O436 C442 1.261 . S
C437 O446 1.247 . S
C437 O447 1.272 . S
O438 Co434 2.004 . S
O438 C443 1.259 . S
Co439 O440 2.061 . S
Co439 O445 2.052 . S
Co439 O447 2.135 . S
O440 Co439 2.061 . S
O440 C443 1.235 . S
C441 O444 1.238 . S
C441 O445 1.241 . S
C442 O435 1.247 . S
C442 O436 1.261 . S
C443 O438 1.259 . S
C443 O440 1.235 . S
O444 Co434 2.021 . S
O444 C441 1.238 . S
O445 Co439 2.052 . S
O445 C441 1.241 . S
O446 Co434 2.137 . S
O446 C437 1.247 . S
O447 Co434 2.244 . S
O447 C437 1.272 . S
O447 Co439 2.135 . S
Co448 O449 2.216 . S
Co448 O450 2.091 . S
Co448 O452 2.004 . S
Co448 O458 2.021 . S
Co448 O460 2.137 . S
Co448 O461 2.244 . S
O449 Co448 2.216 . S
O449 C456 1.247 . S
O450 Co448 2.091 . S
O450 C456 1.261 . S
C451 O460 1.247 . S
C451 O461 1.272 . S
O452 Co448 2.004 . S
O452 C457 1.259 . S
Co453 O454 2.061 . S
Co453 O459 2.052 . S
Co453 O461 2.135 . S
O454 Co453 2.061 . S
O454 C457 1.235 . S
C455 O458 1.238 . S
C455 O459 1.241 . S
C456 O449 1.247 . S
C456 O450 1.261 . S
C457 O452 1.259 . S
C457 O454 1.235 . S
O458 Co448 2.021 . S
O458 C455 1.238 . S
O459 Co453 2.052 . S
O459 C455 1.241 . S
O460 Co448 2.137 . S
O460 C451 1.247 . S
O461 Co448 2.244 . S
O461 C451 1.272 . S
O461 Co453 2.135 . S
Co462 O463 2.216 . S
Co462 O464 2.091 . S
Co462 O466 2.004 . S
Co462 O472 2.021 . S
Co462 O474 2.137 . S
Co462 O475 2.244 . S
O463 Co462 2.216 . S
O463 C470 1.247 . S
O464 Co462 2.091 . S
O464 C470 1.261 . S
C465 O474 1.247 . S
C465 O475 1.272 . S
O466 Co462 2.004 . S
O466 C471 1.259 . S
Co467 O468 2.061 . S
Co467 O473 2.052 . S
Co467 O475 2.135 . S
O468 Co467 2.061 . S
O468 C471 1.235 . S
C469 O472 1.238 . S
C469 O473 1.241 . S
C470 O463 1.247 . S
C470 O464 1.261 . S
C471 O466 1.259 . S
C471 O468 1.235 . S
O472 Co462 2.021 . S
O472 C469 1.238 . S
O473 Co467 2.052 . S
O473 C469 1.241 . S
O474 Co462 2.137 . S
O474 C465 1.247 . S
O475 Co462 2.244 . S
O475 C465 1.272 . S
O475 Co467 2.135 . S
Co476 O477 2.216 . S
Co476 O478 2.091 . S
Co476 O480 2.004 . S
Co476 O486 2.021 . S
Co476 O488 2.137 . S
Co476 O489 2.244 . S
O477 Co476 2.216 . S
O477 C484 1.247 . S
O478 Co476 2.091 . S
O478 C484 1.261 . S
C479 O488 1.247 . S
C479 O489 1.272 . S
O480 Co476 2.004 . S
O480 C485 1.259 . S
Co481 O482 2.061 . S
Co481 O487 2.052 . S
Co481 O489 2.135 . S
O482 Co481 2.061 . S
O482 C485 1.235 . S
C483 O486 1.238 . S
C483 O487 1.241 . S
C484 O477 1.247 . S
C484 O478 1.261 . S
C485 O480 1.259 . S
C485 O482 1.235 . S
O486 Co476 2.021 . S
O486 C483 1.238 . S
O487 Co481 2.052 . S
O487 C483 1.241 . S
O488 Co476 2.137 . S
O488 C479 1.247 . S
O489 Co476 2.244 . S
O489 C479 1.272 . S
O489 Co481 2.135 . S
Co490 O491 2.216 . S
Co490 O492 2.091 . S
Co490 O494 2.004 . S
Co490 O500 2.021 . S
Co490 O502 2.137 . S
Co490 O503 2.244 . S
O491 Co490 2.216 . S
O491 C498 1.247 . S
O492 Co490 2.091 . S
O492 C498 1.261 . S
C493 O502 1.247 . S
C493 O503 1.272 . S
O494 Co490 2.004 . S
O494 C499 1.259 . S
Co495 O496 2.061 . S
Co495 O501 2.052 . S
Co495 O503 2.135 . S
O496 Co495 2.061 . S
O496 C499 1.235 . S
C497 O500 1.238 . S
C497 O501 1.241 . S
C498 O491 1.247 . S
C498 O492 1.261 . S
C499 O494 1.259 . S
C499 O496 1.235 . S
O500 Co490 2.021 . S
O500 C497 1.238 . S
O501 Co495 2.052 . S
O501 C497 1.241 . S
O502 Co490 2.137 . S
O502 C493 1.247 . S
O503 Co490 2.244 . S
O503 C493 1.272 . S
O503 Co495 2.135 . S
C504 C505 1.363 . S
C504 C510 1.379 1_565 S
C504 N512 1.356 . S
C505 C504 1.363 . S
C505 C511 1.363 . S
C506 C507 1.363 . S
C506 C511 1.379 1_545 S
C506 N513 1.356 . S
C507 C506 1.363 . S
C507 C510 1.363 . S
N508 C510 1.356 . S
N508 H520 0.984 . S
N508 H521 0.985 . S
N509 C511 1.356 . S
N509 H514 0.984 . S
N509 H515 0.985 . S
C510 C504 1.379 1_545 S
C510 C507 1.363 . S
C510 N508 1.356 . S
C511 C505 1.363 . S
C511 C506 1.379 1_565 S
C511 N509 1.356 . S
N512 C504 1.356 . S
N512 H518 0.984 . S
N512 H519 0.984 . S
N513 C506 1.356 . S
N513 H516 0.984 . S
N513 H517 0.985 . S
H514 N509 0.984 . S
H515 N509 0.985 . S
H516 N513 0.984 . S
H517 N513 0.985 . S
H518 N512 0.984 . S
H519 N512 0.984 . S
H520 N508 0.984 . S
H521 N508 0.985 . S
C522 C523 1.363 . S
C522 C528 1.379 1_455 S
C522 N530 1.356 . S
C523 C522 1.363 . S
C523 C529 1.363 . S
C524 C525 1.363 . S
C524 C529 1.379 1_655 S
C524 N531 1.356 . S
C525 C524 1.363 . S
C525 C528 1.363 . S
N526 C528 1.356 . S
N526 H538 0.984 . S
N526 H539 0.985 . S
N527 C529 1.356 . S
N527 H532 0.984 . S
N527 H533 0.985 . S
C528 C522 1.379 1_655 S
C528 C525 1.363 . S
C528 N526 1.356 . S
C529 C523 1.363 . S
C529 C524 1.379 1_455 S
C529 N527 1.356 . S
N530 C522 1.356 . S
N530 H536 0.984 . S
N530 H537 0.984 . S
N531 C524 1.356 . S
N531 H534 0.984 . S
N531 H535 0.985 . S
H532 N527 0.984 . S
H533 N527 0.985 . S
H534 N531 0.984 . S
H535 N531 0.985 . S
H536 N530 0.984 . S
H537 N530 0.984 . S
H538 N526 0.984 . S
H539 N526 0.985 . S
C540 C541 1.363 . S
C540 C546 1.379 . S
C540 N548 1.356 . S
C541 C540 1.363 . S
C541 C547 1.363 . S
C542 C543 1.363 . S
C542 C547 1.379 . S
C542 N549 1.356 . S
C543 C542 1.363 . S
C543 C546 1.363 . S
N544 C546 1.356 . S
N544 H556 0.984 . S
N544 H557 0.985 . S
N545 C547 1.356 . S
N545 H550 0.984 . S
N545 H551 0.985 . S
C546 C540 1.379 . S
C546 C543 1.363 . S
C546 N544 1.356 . S
C547 C541 1.363 . S
C547 C542 1.379 . S
C547 N545 1.356 . S
N548 C540 1.356 . S
N548 H554 0.984 . S
N548 H555 0.984 . S
N549 C542 1.356 . S
N549 H552 0.984 . S
N549 H553 0.985 . S
H550 N545 0.984 . S
H551 N545 0.985 . S
H552 N549 0.984 . S
H553 N549 0.985 . S
H554 N548 0.984 . S
H555 N548 0.984 . S
H556 N544 0.984 . S
H557 N544 0.985 . S
C558 C559 1.363 . S
C558 C564 1.379 1_565 S
C558 N566 1.356 . S
C559 C558 1.363 . S
C559 C565 1.363 . S
C560 C561 1.363 . S
C560 C565 1.379 1_545 S
C560 N567 1.356 . S
C561 C560 1.363 . S
C561 C564 1.363 . S
N562 C564 1.356 . S
N562 H574 0.984 . S
N562 H575 0.985 . S
N563 C565 1.356 . S
N563 H568 0.984 . S
N563 H569 0.985 . S
C564 C558 1.379 1_545 S
C564 C561 1.363 . S
C564 N562 1.356 . S
C565 C559 1.363 . S
C565 C560 1.379 1_565 S
C565 N563 1.356 . S
N566 C558 1.356 . S
N566 H572 0.984 . S
N566 H573 0.984 . S
N567 C560 1.356 . S
N567 H570 0.984 . S
N567 H571 0.985 . S
H568 N563 0.984 . S
H569 N563 0.985 . S
H570 N567 0.984 . S
H571 N567 0.985 . S
H572 N566 0.984 . S
H573 N566 0.984 . S
H574 N562 0.984 . S
H575 N562 0.985 . S
C576 C577 1.363 . S
C576 C582 1.379 1_455 S
C576 N584 1.356 . S
C577 C576 1.363 . S
C577 C583 1.363 . S
C578 C579 1.363 . S
C578 C583 1.379 1_655 S
C578 N585 1.356 . S
C579 C578 1.363 . S
C579 C582 1.363 . S
N580 C582 1.356 . S
N580 H592 0.984 . S
N580 H593 0.985 . S
N581 C583 1.356 . S
N581 H586 0.984 . S
N581 H587 0.985 . S
C582 C576 1.379 1_655 S
C582 C579 1.363 . S
C582 N580 1.356 . S
C583 C577 1.363 . S
C583 C578 1.379 1_455 S
C583 N581 1.356 . S
N584 C576 1.356 . S
N584 H590 0.984 . S
N584 H591 0.984 . S
N585 C578 1.356 . S
N585 H588 0.984 . S
N585 H589 0.985 . S
H586 N581 0.984 . S
H587 N581 0.985 . S
H588 N585 0.984 . S
H589 N585 0.985 . S
H590 N584 0.984 . S
H591 N584 0.984 . S
H592 N580 0.984 . S
H593 N580 0.985 . S
C594 C595 1.363 . S
C594 C600 1.379 . S
C594 N602 1.356 . S
C595 C594 1.363 . S
C595 C601 1.363 . S
C596 C597 1.363 . S
C596 C601 1.379 . S
C596 N603 1.356 . S
C597 C596 1.363 . S
C597 C600 1.363 . S
N598 C600 1.356 . S
N598 H610 0.984 . S
N598 H611 0.985 . S
N599 C601 1.356 . S
N599 H604 0.984 . S
N599 H605 0.985 . S
C600 C594 1.379 . S
C600 C597 1.363 . S
C600 N598 1.356 . S
C601 C595 1.363 . S
C601 C596 1.379 . S
C601 N599 1.356 . S
N602 C594 1.356 . S
N602 H608 0.984 . S
N602 H609 0.984 . S
N603 C596 1.356 . S
N603 H606 0.984 . S
N603 H607 0.985 . S
H604 N599 0.984 . S
H605 N599 0.985 . S
H606 N603 0.984 . S
H607 N603 0.985 . S
H608 N602 0.984 . S
H609 N602 0.984 . S
H610 N598 0.984 . S
H611 N598 0.985 . S
C612 C613 1.363 . S
C612 C618 1.379 . S
C612 N620 1.356 . S
C613 C612 1.363 . S
C613 C619 1.365 1_655 S
C614 C615 1.363 . S
C614 C619 1.379 1_655 S
C614 N621 1.356 . S
C615 C614 1.363 . S
C615 C618 1.363 . S
N616 C618 1.356 . S
N616 H628 0.984 . S
N616 H629 0.985 . S
N617 C619 1.355 . S
N617 H622 0.984 . S
N617 H623 0.985 . S
C618 C612 1.379 . S
C618 C615 1.363 . S
C618 N616 1.356 . S
C619 C613 1.365 1_455 S
C619 C614 1.379 1_455 S
C619 N617 1.355 . S
N620 C612 1.356 . S
N620 H626 0.984 . S
N620 H627 0.984 . S
N621 C614 1.356 . S
N621 H624 0.984 . S
N621 H625 0.985 . S
H622 N617 0.984 . S
H623 N617 0.985 . S
H624 N621 0.984 . S
H625 N621 0.985 . S
H626 N620 0.984 . S
H627 N620 0.984 . S
H628 N616 0.984 . S
H629 N616 0.985 . S
C630 C631 1.363 . S
C630 C636 1.379 . S
C630 N638 1.356 . S
C631 C630 1.363 . S
C631 C637 1.363 . S
C632 C633 1.363 . S
C632 C637 1.379 . S
C632 N639 1.356 . S
C633 C632 1.363 . S
C633 C636 1.363 . S
N634 C636 1.356 . S
N634 H646 0.984 . S
N634 H647 0.985 . S
N635 C637 1.356 . S
N635 H640 0.984 . S
N635 H641 0.985 . S
C636 C630 1.379 . S
C636 C633 1.363 . S
C636 N634 1.356 . S
C637 C631 1.363 . S
C637 C632 1.379 . S
C637 N635 1.356 . S
N638 C630 1.356 . S
N638 H644 0.984 . S
N638 H645 0.984 . S
N639 C632 1.356 . S
N639 H642 0.984 . S
N639 H643 0.985 . S
H640 N635 0.984 . S
H641 N635 0.985 . S
H642 N639 0.984 . S
H643 N639 0.985 . S
H644 N638 0.984 . S
H645 N638 0.984 . S
H646 N634 0.984 . S
H647 N634 0.985 . S
C648 C649 1.363 . S
C648 C654 1.379 . S
C648 N656 1.356 . S
C649 C648 1.363 . S
C649 C655 1.363 . S
C650 C651 1.363 1_565 S
C650 C655 1.379 1_565 S
C650 N657 1.356 . S
C651 C650 1.363 1_545 S
C651 C654 1.363 . S
N652 C654 1.356 . S
N652 H664 0.984 . S
N652 H665 0.985 . S
N653 C655 1.356 . S
N653 H658 0.984 . S
N653 H659 0.985 1_545 S
C654 C648 1.379 . S
C654 C651 1.363 . S
C654 N652 1.356 . S
C655 C649 1.363 . S
C655 C650 1.379 1_545 S
C655 N653 1.356 . S
N656 C648 1.356 . S
N656 H662 0.984 . S
N656 H663 0.984 . S
N657 C650 1.356 . S
N657 H660 0.984 . S
N657 H661 0.985 . S
H658 N653 0.984 . S
H659 N653 0.985 1_565 S
H660 N657 0.984 . S
H661 N657 0.985 . S
H662 N656 0.984 . S
H663 N656 0.984 . S
H664 N652 0.984 . S
H665 N652 0.985 . S
C666 C667 1.363 . S
C666 C672 1.379 . S
C666 N674 1.356 . S
C667 C666 1.363 . S
C667 C673 1.363 . S
C668 C669 1.363 . S
C668 C673 1.379 . S
C668 N675 1.356 . S
C669 C668 1.363 . S
C669 C672 1.363 . S
N670 C672 1.356 . S
N670 H682 0.984 . S
N670 H683 0.985 . S
N671 C673 1.356 . S
N671 H676 0.984 . S
N671 H677 0.985 1_554 S
C672 C666 1.379 . S
C672 C669 1.363 . S
C672 N670 1.356 . S
C673 C667 1.363 . S
C673 C668 1.379 . S
C673 N671 1.356 . S
N674 C666 1.356 . S
N674 H680 0.984 . S
N674 H681 0.984 . S
N675 C668 1.356 . S
N675 H678 0.984 . S
N675 H679 0.985 1_554 S
H676 N671 0.984 . S
H677 N671 0.985 1_556 S
H678 N675 0.984 . S
H679 N675 0.985 1_556 S
H680 N674 0.984 . S
H681 N674 0.984 . S
H682 N670 0.984 . S
H683 N670 0.985 . S
C684 C685 1.363 . S
C684 C690 1.379 . S
C684 N692 1.353 1_554 S
C685 C684 1.363 . S
C685 C691 1.363 . S
C686 C687 1.363 . S
C686 C691 1.379 . S
C686 N693 1.356 . S
C687 C686 1.363 . S
C687 C690 1.363 . S
N688 C690 1.356 . S
N688 H700 0.984 1_554 S
N688 H701 0.985 . S
N689 C691 1.356 1_565 S
N689 H694 0.984 . S
N689 H695 0.985 . S
C690 C684 1.379 . S
C690 C687 1.363 . S
C690 N688 1.356 . S
C691 C685 1.363 . S
C691 C686 1.379 . S
C691 N689 1.356 1_545 S
N692 C684 1.353 1_556 S
N692 H698 0.988 . S
N692 H699 0.984 1_546 S
N693 C686 1.356 . S
N693 H696 0.984 . S
N693 H697 0.985 . S
H694 N689 0.984 . S
H695 N689 0.985 . S
H696 N693 0.984 . S
H697 N693 0.985 . S
H698 N692 0.988 . S
H699 N692 0.984 1_564 S
H700 N688 0.984 1_556 S
H701 N688 0.985 . S
C702 C703 1.363 . S
C702 C708 1.398 . S
C702 N710 1.356 . S
C703 C702 1.363 . S
C703 C709 1.363 . S
C704 C705 1.363 . S
C704 C709 1.379 . S
C704 N711 1.356 . S
C705 C704 1.363 . S
C705 C708 1.358 . S
N706 C708 1.338 1_455 S
N706 H718 0.984 . S
N706 H719 0.985 . S
N707 C709 1.356 . S
N707 H712 0.984 . S
N707 H713 0.985 1_554 S
C708 C702 1.398 . S
C708 C705 1.358 . S
C708 N706 1.338 1_655 S
C709 C703 1.363 . S
C709 C704 1.379 . S
C709 N707 1.356 . S
N710 C702 1.356 . S
N710 H716 0.984 . S
N710 H717 0.984 . S
N711 C704 1.356 . S
N711 H714 0.984 . S
N711 H715 0.985 1_554 S
H712 N707 0.984 . S
H713 N707 0.985 1_556 S
H714 N711 0.984 . S
H715 N711 0.985 1_556 S
H716 N710 0.984 . S
H717 N710 0.984 . S
H718 N706 0.984 . S
H719 N706 0.985 . S
C720 C721 1.363 . S
C720 C726 1.379 . S
C720 N728 1.356 . S
C721 C720 1.363 . S
C721 C727 1.363 . S
C722 C723 1.363 . S
C722 C727 1.379 . S
C722 N729 1.356 . S
C723 C722 1.363 . S
C723 C726 1.363 . S
N724 C726 1.356 . S
N724 H736 0.984 1_556 S
N724 H737 0.985 . S
N725 C727 1.356 . S
N725 H730 0.984 . S
N725 H731 0.985 . S
C726 C720 1.379 . S
C726 C723 1.363 . S
C726 N724 1.356 . S
C727 C721 1.363 . S
C727 C722 1.379 . S
C727 N725 1.356 . S
N728 C720 1.356 . S
N728 H734 0.984 1_556 S
N728 H735 0.984 . S
N729 C722 1.356 . S
N729 H732 0.984 . S
N729 H733 0.985 . S
H730 N725 0.984 . S
H731 N725 0.985 . S
H732 N729 0.984 . S
H733 N729 0.985 . S
H734 N728 0.984 1_554 S
H735 N728 0.984 . S
H736 N724 0.984 1_554 S
H737 N724 0.985 . S
C738 C739 1.363 . S
C738 C744 1.379 . S
C738 N746 1.356 . S
C739 C738 1.363 . S
C739 C745 1.363 1_565 S
C740 C741 1.363 . S
C740 C745 1.379 1_565 S
C740 N747 1.365 . S
C741 C740 1.363 . S
C741 C744 1.363 . S
N742 C744 1.356 . S
N742 H754 0.984 . S
N742 H755 0.985 . S
N743 C745 1.356 . S
N743 H748 0.984 . S
N743 H749 0.985 . S
C744 C738 1.379 . S
C744 C741 1.363 . S
C744 N742 1.356 . S
C745 C739 1.363 1_545 S
C745 C740 1.379 1_545 S
C745 N743 1.356 . S
N746 C738 1.356 . S
N746 H752 0.984 . S
N746 H753 0.984 . S
N747 C740 1.365 . S
N747 H750 0.988 . S
N747 H751 0.973 1_565 S
H748 N743 0.984 . S
H749 N743 0.985 . S
H750 N747 0.988 . S
H751 N747 0.973 1_545 S
H752 N746 0.984 . S
H753 N746 0.984 . S
H754 N742 0.984 . S
H755 N742 0.985 . S
C756 C757 1.363 . S
C756 C762 1.379 1_455 S
C756 N764 1.356 . S
C757 C756 1.363 . S
C757 C763 1.363 . S
C758 C759 1.363 . S
C758 C763 1.379 . S
C758 N765 1.356 . S
C759 C758 1.363 . S
C759 C762 1.363 1_455 S
N760 C762 1.356 . S
N760 H772 0.984 1_556 S
N760 H773 0.985 . S
N761 C763 1.356 . S
N761 H766 0.984 . S
N761 H767 0.985 . S
C762 C756 1.379 1_655 S
C762 C759 1.363 1_655 S
C762 N760 1.356 . S
C763 C757 1.363 . S
C763 C758 1.379 . S
C763 N761 1.356 . S
N764 C756 1.356 . S
N764 H770 0.984 1_455 S
N764 H771 0.984 . S
N765 C758 1.356 . S
N765 H768 0.984 . S
N765 H769 0.985 . S
H766 N761 0.984 . S
H767 N761 0.985 . S
H768 N765 0.984 . S
H769 N765 0.985 . S
H770 N764 0.984 1_655 S
H771 N764 0.984 . S
H772 N760 0.984 1_554 S
H773 N760 0.985 . S
C774 C775 1.363 . S
C774 C780 1.379 1_455 S
C774 N782 1.356 . S
C775 C774 1.363 . S
C775 C781 1.363 . S
C776 C777 1.363 . S
C776 C781 1.379 . S
C776 N783 1.356 . S
C777 C776 1.363 . S
C777 C780 1.359 1_455 S
N778 C780 1.359 . S
N778 H790 0.984 . S
N778 H791 0.985 . S
N779 C781 1.356 . S
N779 H784 0.984 . S
N779 H785 0.985 . S
C780 C774 1.379 1_655 S
C780 C777 1.359 1_655 S
C780 N778 1.359 . S
C781 C775 1.363 . S
C781 C776 1.379 . S
C781 N779 1.356 . S
N782 C774 1.356 . S
N782 H788 0.984 . S
N782 H789 0.984 . S
N783 C776 1.356 . S
N783 H786 0.984 . S
N783 H787 0.985 . S
H784 N779 0.984 . S
H785 N779 0.985 . S
H786 N783 0.984 . S
H787 N783 0.985 . S
H788 N782 0.984 . S
H789 N782 0.984 . S
H790 N778 0.984 . S
H791 N778 0.985 . S
C792 C793 1.363 . S
C792 C798 1.379 . S
C792 N800 1.356 . S
C793 C792 1.363 . S
C793 C799 1.363 . S
C794 C795 1.363 . S
C794 C799 1.379 . S
C794 N801 1.356 . S
C795 C794 1.363 . S
C795 C798 1.363 . S
N796 C798 1.356 . S
N796 H808 0.984 . S
N796 H809 0.985 . S
N797 C799 1.356 . S
N797 H802 0.984 . S
N797 H803 0.985 . S
C798 C792 1.379 . S
C798 C795 1.363 . S
C798 N796 1.356 . S
C799 C793 1.363 . S
C799 C794 1.379 . S
C799 N797 1.356 . S
N800 C792 1.356 . S
N800 H806 0.984 . S
N800 H807 0.984 . S
N801 C794 1.356 . S
N801 H804 0.984 . S
N801 H805 0.985 . S
H802 N797 0.984 . S
H803 N797 0.985 . S
H804 N801 0.984 . S
H805 N801 0.985 . S
H806 N800 0.984 . S
H807 N800 0.984 . S
H808 N796 0.984 . S
H809 N796 0.985 . S
C810 C811 1.363 . S
C810 C816 1.379 1_565 S
C810 N818 1.356 . S
C811 C810 1.363 . S
C811 C817 1.363 . S
C812 C813 1.363 . S
C812 C817 1.379 . S
C812 N819 1.356 . S
C813 C812 1.363 . S
C813 C816 1.363 1_565 S
N814 C816 1.356 . S
N814 H826 0.984 . S
N814 H827 0.985 . S
N815 C817 1.356 . S
N815 H820 0.984 . S
N815 H821 0.985 . S
C816 C810 1.379 1_545 S
C816 C813 1.363 1_545 S
C816 N814 1.356 . S
C817 C811 1.363 . S
C817 C812 1.379 . S
C817 N815 1.356 . S
N818 C810 1.356 . S
N818 H824 0.984 1_565 S
N818 H825 0.984 . S
N819 C812 1.356 . S
N819 H822 0.984 . S
N819 H823 0.985 . S
H820 N815 0.984 . S
H821 N815 0.985 . S
H822 N819 0.984 . S
H823 N819 0.985 . S
H824 N818 0.984 1_545 S
H825 N818 0.984 . S
H826 N814 0.984 . S
H827 N814 0.985 . S
C828 C829 1.363 . S
C828 C834 1.379 . S
C828 N836 1.356 . S
C829 C828 1.363 . S
C829 C835 1.363 . S
C830 C831 1.363 . S
C830 C835 1.379 . S
C830 N837 1.356 . S
C831 C830 1.363 . S
C831 C834 1.363 . S
N832 C834 1.356 . S
N832 H844 0.984 . S
N832 H845 0.985 . S
N833 C835 1.356 . S
N833 H838 0.984 . S
N833 H839 0.985 . S
C834 C828 1.379 . S
C834 C831 1.363 . S
C834 N832 1.356 . S
C835 C829 1.363 . S
C835 C830 1.379 . S
C835 N833 1.356 . S
N836 C828 1.356 . S
N836 H842 0.984 . S
N836 H843 0.984 . S
N837 C830 1.356 . S
N837 H840 0.984 . S
N837 H841 0.985 . S
H838 N833 0.984 . S
H839 N833 0.985 . S
H840 N837 0.984 . S
H841 N837 0.985 . S
H842 N836 0.984 . S
H843 N836 0.984 . S
H844 N832 0.984 . S
H845 N832 0.985 . S
C846 C847 1.363 . S
C846 C852 1.379 . S
C846 N854 1.356 . S
C847 C846 1.363 . S
C847 C853 1.363 . S
C848 C849 1.363 . S
C848 C853 1.379 . S
C848 N855 1.356 . S
C849 C848 1.363 . S
C849 C852 1.363 . S
N850 C852 1.356 . S
N850 H862 0.984 . S
N850 H863 0.985 . S
N851 C853 1.356 . S
N851 H856 0.984 . S
N851 H857 0.985 . S
C852 C846 1.379 . S
C852 C849 1.363 . S
C852 N850 1.356 . S
C853 C847 1.363 . S
C853 C848 1.379 . S
C853 N851 1.356 . S
N854 C846 1.356 . S
N854 H860 0.984 . S
N854 H861 0.984 . S
N855 C848 1.356 . S
N855 H858 0.984 . S
N855 H859 0.985 . S
H856 N851 0.984 . S
H857 N851 0.985 . S
H858 N855 0.984 . S
H859 N855 0.985 . S
H860 N854 0.984 . S
H861 N854 0.984 . S
H862 N850 0.984 . S
H863 N850 0.985 . S
C864 C865 1.363 . S
C864 C870 1.379 . S
C864 N872 1.356 . S
C865 C864 1.363 . S
C865 C871 1.363 . S
C866 C867 1.363 . S
C866 C871 1.379 . S
C866 N873 1.356 . S
C867 C866 1.363 . S
C867 C870 1.363 . S
N868 C870 1.356 . S
N868 H880 0.984 . S
N868 H881 0.985 . S
N869 C871 1.356 . S
N869 H874 0.984 . S
N869 H875 0.985 . S
C870 C864 1.379 . S
C870 C867 1.363 . S
C870 N868 1.356 . S
C871 C865 1.363 . S
C871 C866 1.379 . S
C871 N869 1.356 . S
N872 C864 1.356 . S
N872 H878 0.984 . S
N872 H879 0.984 . S
N873 C866 1.356 . S
N873 H876 0.984 . S
N873 H877 0.985 . S
H874 N869 0.984 . S
H875 N869 0.985 . S
H876 N873 0.984 . S
H877 N873 0.985 . S
H878 N872 0.984 . S
H879 N872 0.984 . S
H880 N868 0.984 . S
H881 N868 0.985 . S
C882 C883 1.363 . S
C882 C888 1.379 . S
C882 N890 1.356 . S
C883 C882 1.363 . S
C883 C889 1.363 . S
C884 C885 1.363 . S
C884 C889 1.379 . S
C884 N891 1.356 . S
C885 C884 1.363 . S
C885 C888 1.363 . S
N886 C888 1.356 . S
N886 H898 0.984 . S
N886 H899 0.985 . S
N887 C889 1.356 . S
N887 H892 0.984 . S
N887 H893 0.985 . S
C888 C882 1.379 . S
C888 C885 1.363 . S
C888 N886 1.356 . S
C889 C883 1.363 . S
C889 C884 1.379 . S
C889 N887 1.356 . S
N890 C882 1.356 . S
N890 H896 0.984 . S
N890 H897 0.984 . S
N891 C884 1.356 . S
N891 H894 0.984 . S
N891 H895 0.985 . S
H892 N887 0.984 . S
H893 N887 0.985 . S
H894 N891 0.984 . S
H895 N891 0.985 . S
H896 N890 0.984 . S
H897 N890 0.984 . S
H898 N886 0.984 . S
H899 N886 0.985 . S
C900 C901 1.363 . S
C900 C906 1.379 . S
C900 N908 1.356 . S
C901 C900 1.363 . S
C901 C907 1.363 . S
C902 C903 1.363 . S
C902 C907 1.379 . S
C902 N909 1.356 . S
C903 C902 1.363 . S
C903 C906 1.363 . S
N904 C906 1.356 . S
N904 H916 0.984 . S
N904 H917 0.985 . S
N905 C907 1.356 . S
N905 H910 0.984 . S
N905 H911 0.985 . S
C906 C900 1.379 . S
C906 C903 1.363 . S
C906 N904 1.356 . S
C907 C901 1.363 . S
C907 C902 1.379 . S
C907 N905 1.356 . S
N908 C900 1.356 . S
N908 H914 0.984 . S
N908 H915 0.984 . S
N909 C902 1.356 . S
N909 H912 0.984 . S
N909 H913 0.985 . S
H910 N905 0.984 . S
H911 N905 0.985 . S
H912 N909 0.984 . S
H913 N909 0.985 . S
H914 N908 0.984 . S
H915 N908 0.984 . S
H916 N904 0.984 . S
H917 N904 0.985 . S
C918 C919 1.363 . S
C918 C924 1.379 . S
C918 N926 1.356 . S
C919 C918 1.363 . S
C919 C925 1.363 . S
C920 C921 1.363 . S
C920 C925 1.379 . S
C920 N927 1.356 1_554 S
C921 C920 1.363 . S
C921 C924 1.363 . S
N922 C924 1.356 . S
N922 H934 0.984 . S
N922 H935 0.985 . S
N923 C925 1.356 . S
N923 H928 0.984 . S
N923 H929 0.985 . S
C924 C918 1.379 . S
C924 C921 1.363 . S
C924 N922 1.356 . S
C925 C919 1.363 . S
C925 C920 1.379 . S
C925 N923 1.356 . S
N926 C918 1.356 . S
N926 H932 0.984 . S
N926 H933 0.984 . S
N927 C920 1.356 1_556 S
N927 H930 0.984 . S
N927 H931 0.985 . S
H928 N923 0.984 . S
H929 N923 0.985 . S
H930 N927 0.984 . S
H931 N927 0.985 . S
H932 N926 0.984 . S
H933 N926 0.984 . S
H934 N922 0.984 . S
H935 N922 0.985 . S
C936 C937 1.363 . S
C936 C942 1.379 . S
C936 N944 1.356 . S
C937 C936 1.363 . S
C937 C943 1.363 . S
C938 C939 1.363 . S
C938 C943 1.379 . S
C938 N945 1.356 . S
C939 C938 1.363 . S
C939 C942 1.363 . S
N940 C942 1.356 . S
N940 H952 0.984 . S
N940 H953 0.985 . S
N941 C943 1.356 . S
N941 H946 0.984 . S
N941 H947 0.985 . S
C942 C936 1.379 . S
C942 C939 1.363 . S
C942 N940 1.356 . S
C943 C937 1.363 . S
C943 C938 1.379 . S
C943 N941 1.356 . S
N944 C936 1.356 . S
N944 H950 0.984 . S
N944 H951 0.984 . S
N945 C938 1.356 . S
N945 H948 0.984 . S
N945 H949 0.985 . S
H946 N941 0.984 . S
H947 N941 0.985 . S
H948 N945 0.984 . S
H949 N945 0.985 . S
H950 N944 0.984 . S
H951 N944 0.984 . S
H952 N940 0.984 . S
H953 N940 0.985 . S
C954 C955 1.363 . S
C954 C960 1.379 . S
C954 N962 1.356 . S
C955 C954 1.363 . S
C955 C961 1.363 . S
C956 C957 1.363 . S
C956 C961 1.379 . S
C956 N963 1.356 . S
C957 C956 1.363 . S
C957 C960 1.363 . S
N958 C960 1.356 . S
N958 H970 0.984 . S
N958 H971 0.985 . S
N959 C961 1.356 . S
N959 H964 0.984 . S
N959 H965 0.985 . S
C960 C954 1.379 . S
C960 C957 1.363 . S
C960 N958 1.356 . S
C961 C955 1.363 . S
C961 C956 1.379 . S
C961 N959 1.356 . S
N962 C954 1.356 . S
N962 H968 0.984 . S
N962 H969 0.984 . S
N963 C956 1.356 . S
N963 H966 0.984 . S
N963 H967 0.985 . S
H964 N959 0.984 . S
H965 N959 0.985 . S
H966 N963 0.984 . S
H967 N963 0.985 . S
H968 N962 0.984 . S
H969 N962 0.984 . S
H970 N958 0.984 . S
H971 N958 0.985 . S
C972 C973 1.363 . S
C972 C978 1.379 . S
C972 N980 1.356 . S
C973 C972 1.363 . S
C973 C979 1.363 . S
C974 C975 1.363 . S
C974 C979 1.379 . S
C974 N981 1.356 . S
C975 C974 1.363 . S
C975 C978 1.363 . S
N976 C978 1.356 . S
N976 H988 0.984 . S
N976 H989 0.985 . S
N977 C979 1.356 . S
N977 H982 0.984 . S
N977 H983 0.985 . S
C978 C972 1.379 . S
C978 C975 1.363 . S
C978 N976 1.356 . S
C979 C973 1.363 . S
C979 C974 1.379 . S
C979 N977 1.356 . S
N980 C972 1.356 . S
N980 H986 0.984 . S
N980 H987 0.984 . S
N981 C974 1.356 . S
N981 H984 0.984 . S
N981 H985 0.985 . S
H982 N977 0.984 . S
H983 N977 0.985 . S
H984 N981 0.984 . S
H985 N981 0.985 . S
H986 N980 0.984 . S
H987 N980 0.984 . S
H988 N976 0.984 . S
H989 N976 0.985 . S
C990 C991 1.363 . S
C990 C996 1.379 . S
C990 N998 1.356 . S
C991 C990 1.363 . S
C991 C997 1.363 . S
C992 C993 1.363 . S
C992 C997 1.379 . S
C992 N999 1.356 . S
C993 C992 1.363 . S
C993 C996 1.363 . S
N994 C996 1.356 . S
N994 H1006 0.984 . S
N994 H1007 0.985 . S
N995 C997 1.356 . S
N995 H1000 0.984 . S
N995 H1001 0.985 . S
C996 C990 1.379 . S
C996 C993 1.363 . S
C996 N994 1.356 . S
C997 C991 1.363 . S
C997 C992 1.379 . S
C997 N995 1.356 . S
N998 C990 1.356 . S
N998 H1004 0.984 1_556 S
N998 H1005 0.984 1_556 S
N999 C992 1.356 . S
N999 H1002 0.984 . S
N999 H1003 0.985 . S
H1000 N995 0.984 . S
H1001 N995 0.985 . S
H1002 N999 0.984 . S
H1003 N999 0.985 . S
H1004 N998 0.984 1_554 S
H1005 N998 0.984 1_554 S
H1006 N994 0.984 . S
H1007 N994 0.985 . S
C1008 C1009 1.363 . S
C1008 C1014 1.379 . S
C1008 N1016 1.356 . S
C1009 C1008 1.363 . S
C1009 C1015 1.363 . S
C1010 C1011 1.363 . S
C1010 C1015 1.379 . S
C1010 N1017 1.356 . S
C1011 C1010 1.363 . S
C1011 C1014 1.363 . S
N1012 C1014 1.356 . S
N1012 H1024 0.984 . S
N1012 H1025 0.985 . S
N1013 C1015 1.356 . S
N1013 H1018 0.984 . S
N1013 H1019 0.985 . S
C1014 C1008 1.379 . S
C1014 C1011 1.363 . S
C1014 N1012 1.356 . S
C1015 C1009 1.363 . S
C1015 C1010 1.379 . S
C1015 N1013 1.356 . S
N1016 C1008 1.356 . S
N1016 H1022 0.984 . S
N1016 H1023 0.984 . S
N1017 C1010 1.356 . S
N1017 H1020 0.984 . S
N1017 H1021 0.985 . S
H1018 N1013 0.984 . S
H1019 N1013 0.985 . S
H1020 N1017 0.984 . S
H1021 N1017 0.985 . S
H1022 N1016 0.984 . S
H1023 N1016 0.984 . S
H1024 N1012 0.984 . S
H1025 N1012 0.985 . S
C1026 C1027 1.363 . S
C1026 C1032 1.379 . S
C1026 N1034 1.356 . S
C1027 C1026 1.363 . S
C1027 C1033 1.363 . S
C1028 C1029 1.363 . S
C1028 C1033 1.379 . S
C1028 N1035 1.356 . S
C1029 C1028 1.363 . S
C1029 C1032 1.363 . S
N1030 C1032 1.356 1_554 S
N1030 H1042 0.984 . S
N1030 H1043 0.985 . S
N1031 C1033 1.356 . S
N1031 H1036 0.984 . S
N1031 H1037 0.985 . S
C1032 C1026 1.379 . S
C1032 C1029 1.363 . S
C1032 N1030 1.356 1_556 S
C1033 C1027 1.363 . S
C1033 C1028 1.379 . S
C1033 N1031 1.356 . S
N1034 C1026 1.356 . S
N1034 H1040 0.984 . S
N1034 H1041 0.984 . S
N1035 C1028 1.356 . S
N1035 H1038 0.984 . S
N1035 H1039 0.985 . S
H1036 N1031 0.984 . S
H1037 N1031 0.985 . S
H1038 N1035 0.984 . S
H1039 N1035 0.985 . S
H1040 N1034 0.984 . S
H1041 N1034 0.984 . S
H1042 N1030 0.984 . S
H1043 N1030 0.985 . S
C1044 C1045 1.363 . S
C1044 C1050 1.379 . S
C1044 N1052 1.356 . S
C1045 C1044 1.363 . S
C1045 C1051 1.363 1_455 S
C1046 C1047 1.363 . S
C1046 C1051 1.379 . S
C1046 N1053 1.356 . S
C1047 C1046 1.363 . S
C1047 C1050 1.363 1_655 S
N1048 C1050 1.356 1_655 S
N1048 H1060 0.984 1_655 S
N1048 H1061 0.985 . S
N1049 C1051 1.356 1_455 S
N1049 H1054 0.984 . S
N1049 H1055 0.985 1_455 S
C1050 C1044 1.379 . S
C1050 C1047 1.363 1_455 S
C1050 N1048 1.356 1_455 S
C1051 C1045 1.363 1_655 S
C1051 C1046 1.379 . S
C1051 N1049 1.356 1_655 S
N1052 C1044 1.356 . S
N1052 H1058 0.984 . S
N1052 H1059 0.984 . S
N1053 C1046 1.356 . S
N1053 H1056 0.984 . S
N1053 H1057 0.985 . S
H1054 N1049 0.984 . S
H1055 N1049 0.985 1_655 S
H1056 N1053 0.984 . S
H1057 N1053 0.985 . S
H1058 N1052 0.984 . S
H1059 N1052 0.984 . S
H1060 N1048 0.984 1_455 S
H1061 N1048 0.985 . S
C1062 C1063 1.363 . S
C1062 C1068 1.379 . S
C1062 N1070 1.356 . S
C1063 C1062 1.363 . S
C1063 C1069 1.363 . S
C1064 C1065 1.363 . S
C1064 C1069 1.379 . S
C1064 N1071 1.356 . S
C1065 C1064 1.363 . S
C1065 C1068 1.363 . S
N1066 C1068 1.356 . S
N1066 H1078 0.984 . S
N1066 H1079 0.985 . S
N1067 C1069 1.356 . S
N1067 H1072 0.984 . S
N1067 H1073 0.985 . S
C1068 C1062 1.379 . S
C1068 C1065 1.363 . S
C1068 N1066 1.356 . S
C1069 C1063 1.363 . S
C1069 C1064 1.379 . S
C1069 N1067 1.356 . S
N1070 C1062 1.356 . S
N1070 H1076 0.984 . S
N1070 H1077 0.984 . S
N1071 C1064 1.356 . S
N1071 H1074 0.984 . S
N1071 H1075 0.985 . S
H1072 N1067 0.984 . S
H1073 N1067 0.985 . S
H1074 N1071 0.984 . S
H1075 N1071 0.985 . S
H1076 N1070 0.984 . S
H1077 N1070 0.984 . S
H1078 N1066 0.984 . S
H1079 N1066 0.985 . S
C1080 C1081 1.363 . S
C1080 C1086 1.379 1_545 S
C1080 N1088 1.356 . S
C1081 C1080 1.363 . S
C1081 C1087 1.363 . S
C1082 C1083 1.363 . S
C1082 C1087 1.379 1_565 S
C1082 N1089 1.356 . S
C1083 C1082 1.363 . S
C1083 C1086 1.363 . S
N1084 C1086 1.356 . S
N1084 H1096 0.984 . S
N1084 H1097 0.985 . S
N1085 C1087 1.356 . S
N1085 H1090 0.984 . S
N1085 H1091 0.985 . S
C1086 C1080 1.379 1_565 S
C1086 C1083 1.363 . S
C1086 N1084 1.356 . S
C1087 C1081 1.363 . S
C1087 C1082 1.379 1_545 S
C1087 N1085 1.356 . S
N1088 C1080 1.356 . S
N1088 H1094 0.984 . S
N1088 H1095 0.984 . S
N1089 C1082 1.356 . S
N1089 H1092 0.984 . S
N1089 H1093 0.985 . S
H1090 N1085 0.984 . S
H1091 N1085 0.985 . S
H1092 N1089 0.984 . S
H1093 N1089 0.985 . S
H1094 N1088 0.984 . S
H1095 N1088 0.984 . S
H1096 N1084 0.984 . S
H1097 N1084 0.985 . S
C1098 C1099 1.363 . S
C1098 C1104 1.379 1_565 S
C1098 N1106 1.356 . S
C1099 C1098 1.363 . S
C1099 C1105 1.363 . S
C1100 C1101 1.363 . S
C1100 C1105 1.379 1_545 S
C1100 N1107 1.356 . S
C1101 C1100 1.363 . S
C1101 C1104 1.363 . S
N1102 C1104 1.356 . S
N1102 H1114 0.984 1_545 S
N1102 H1115 0.985 . S
N1103 C1105 1.356 . S
N1103 H1108 0.984 . S
N1103 H1109 0.985 1_565 S
C1104 C1098 1.379 1_545 S
C1104 C1101 1.363 . S
C1104 N1102 1.356 . S
C1105 C1099 1.363 . S
C1105 C1100 1.379 1_565 S
C1105 N1103 1.356 . S
N1106 C1098 1.356 . S
N1106 H1112 0.984 . S
N1106 H1113 0.984 . S
N1107 C1100 1.356 . S
N1107 H1110 0.984 . S
N1107 H1111 0.985 . S
H1108 N1103 0.984 . S
H1109 N1103 0.985 1_545 S
H1110 N1107 0.984 . S
H1111 N1107 0.985 . S
H1112 N1106 0.984 . S
H1113 N1106 0.984 . S
H1114 N1102 0.984 1_565 S
H1115 N1102 0.985 . S
C1116 C1117 1.363 . S
C1116 C1122 1.379 1_655 S
C1116 N1124 1.356 . S
C1117 C1116 1.363 . S
C1117 C1123 1.363 . S
C1118 C1119 1.363 . S
C1118 C1123 1.379 1_455 S
C1118 N1125 1.356 . S
C1119 C1118 1.363 . S
C1119 C1122 1.363 . S
N1120 C1122 1.356 . S
N1120 H1132 0.984 . S
N1120 H1133 0.985 . S
N1121 C1123 1.356 . S
N1121 H1126 0.984 . S
N1121 H1127 0.985 . S
C1122 C1116 1.379 1_455 S
C1122 C1119 1.363 . S
C1122 N1120 1.356 . S
C1123 C1117 1.363 . S
C1123 C1118 1.379 1_655 S
C1123 N1121 1.356 . S
N1124 C1116 1.356 . S
N1124 H1130 0.984 . S
N1124 H1131 0.984 . S
N1125 C1118 1.356 . S
N1125 H1128 0.984 . S
N1125 H1129 0.985 . S
H1126 N1121 0.984 . S
H1127 N1121 0.985 . S
H1128 N1125 0.984 . S
H1129 N1125 0.985 . S
H1130 N1124 0.984 . S
H1131 N1124 0.984 . S
H1132 N1120 0.984 . S
H1133 N1120 0.985 . S
C1134 C1135 1.363 . S
C1134 C1140 1.379 . S
C1134 N1142 1.356 . S
C1135 C1134 1.363 . S
C1135 C1141 1.363 . S
C1136 C1137 1.363 . S
C1136 C1141 1.379 . S
C1136 N1143 1.356 . S
C1137 C1136 1.363 . S
C1137 C1140 1.363 . S
N1138 C1140 1.356 . S
N1138 H1150 0.984 . S
N1138 H1151 0.985 . S
N1139 C1141 1.356 . S
N1139 H1144 0.984 . S
N1139 H1145 0.985 . S
C1140 C1134 1.379 . S
C1140 C1137 1.363 . S
C1140 N1138 1.356 . S
C1141 C1135 1.363 . S
C1141 C1136 1.379 . S
C1141 N1139 1.356 . S
N1142 C1134 1.356 . S
N1142 H1148 0.984 . S
N1142 H1149 0.984 . S
N1143 C1136 1.356 . S
N1143 H1146 0.984 . S
N1143 H1147 0.985 . S
H1144 N1139 0.984 . S
H1145 N1139 0.985 . S
H1146 N1143 0.984 . S
H1147 N1143 0.985 . S
H1148 N1142 0.984 . S
H1149 N1142 0.984 . S
H1150 N1138 0.984 . S
H1151 N1138 0.985 . S
C1152 C1153 1.363 . S
C1152 C1158 1.379 . S
C1152 N1160 1.356 . S
C1153 C1152 1.363 . S
C1153 C1159 1.363 . S
C1154 C1155 1.363 . S
C1154 C1159 1.379 . S
C1154 N1161 1.356 . S
C1155 C1154 1.363 . S
C1155 C1158 1.363 . S
N1156 C1158 1.356 . S
N1156 H1168 0.984 . S
N1156 H1169 0.985 . S
N1157 C1159 1.356 . S
N1157 H1162 0.984 . S
N1157 H1163 0.985 . S
C1158 C1152 1.379 . S
C1158 C1155 1.363 . S
C1158 N1156 1.356 . S
C1159 C1153 1.363 . S
C1159 C1154 1.379 . S
C1159 N1157 1.356 . S
N1160 C1152 1.356 . S
N1160 H1166 0.984 . S
N1160 H1167 0.984 . S
N1161 C1154 1.356 . S
N1161 H1164 0.984 . S
N1161 H1165 0.985 . S
H1162 N1157 0.984 . S
H1163 N1157 0.985 . S
H1164 N1161 0.984 . S
H1165 N1161 0.985 . S
H1166 N1160 0.984 . S
H1167 N1160 0.984 . S
H1168 N1156 0.984 . S
H1169 N1156 0.985 . S
C1170 C1171 1.363 . S
C1170 C1176 1.379 . S
C1170 N1178 1.356 . S
C1171 C1170 1.363 . S
C1171 C1177 1.363 . S
C1172 C1173 1.363 . S
C1172 C1177 1.379 . S
C1172 N1179 1.356 . S
C1173 C1172 1.363 . S
C1173 C1176 1.363 . S
N1174 C1176 1.356 . S
N1174 H1186 0.984 . S
N1174 H1187 0.985 . S
N1175 C1177 1.356 . S
N1175 H1180 0.984 . S
N1175 H1181 0.985 . S
C1176 C1170 1.379 . S
C1176 C1173 1.363 . S
C1176 N1174 1.356 . S
C1177 C1171 1.363 . S
C1177 C1172 1.379 . S
C1177 N1175 1.356 . S
N1178 C1170 1.356 . S
N1178 H1184 0.984 . S
N1178 H1185 0.984 . S
N1179 C1172 1.356 . S
N1179 H1182 0.984 . S
N1179 H1183 0.985 . S
H1180 N1175 0.984 . S
H1181 N1175 0.985 . S
H1182 N1179 0.984 . S
H1183 N1179 0.985 . S
H1184 N1178 0.984 . S
H1185 N1178 0.984 . S
H1186 N1174 0.984 . S
H1187 N1174 0.985 . S
C1188 C1189 1.363 . S
C1188 C1194 1.379 . S
C1188 N1196 1.356 . S
C1189 C1188 1.363 . S
C1189 C1195 1.363 . S
C1190 C1191 1.363 . S
C1190 C1195 1.379 . S
C1190 N1197 1.356 . S
C1191 C1190 1.363 . S
C1191 C1194 1.363 . S
N1192 C1194 1.356 . S
N1192 H1204 0.984 . S
N1192 H1205 0.985 . S
N1193 C1195 1.356 . S
N1193 H1198 0.984 . S
N1193 H1199 0.985 . S
C1194 C1188 1.379 . S
C1194 C1191 1.363 . S
C1194 N1192 1.356 . S
C1195 C1189 1.363 . S
C1195 C1190 1.379 . S
C1195 N1193 1.356 . S
N1196 C1188 1.356 . S
N1196 H1202 0.984 . S
N1196 H1203 0.984 . S
N1197 C1190 1.356 . S
N1197 H1200 0.984 . S
N1197 H1201 0.985 . S
H1198 N1193 0.984 . S
H1199 N1193 0.985 . S
H1200 N1197 0.984 . S
H1201 N1197 0.985 . S
H1202 N1196 0.984 . S
H1203 N1196 0.984 . S
H1204 N1192 0.984 . S
H1205 N1192 0.985 . S
C1206 C1207 1.363 . S
C1206 C1212 1.379 . S
C1206 N1214 1.356 . S
C1207 C1206 1.363 . S
C1207 C1213 1.363 . S
C1208 C1209 1.363 . S
C1208 C1213 1.379 . S
C1208 N1215 1.356 . S
C1209 C1208 1.363 . S
C1209 C1212 1.363 . S
N1210 C1212 1.356 . S
N1210 H1222 0.984 . S
N1210 H1223 0.985 . S
N1211 C1213 1.356 . S
N1211 H1216 0.984 . S
N1211 H1217 0.985 . S
C1212 C1206 1.379 . S
C1212 C1209 1.363 . S
C1212 N1210 1.356 . S
C1213 C1207 1.363 . S
C1213 C1208 1.379 . S
C1213 N1211 1.356 . S
N1214 C1206 1.356 . S
N1214 H1220 0.984 . S
N1214 H1221 0.984 . S
N1215 C1208 1.356 . S
N1215 H1218 0.984 . S
N1215 H1219 0.985 . S
H1216 N1211 0.984 . S
H1217 N1211 0.985 . S
H1218 N1215 0.984 . S
H1219 N1215 0.985 . S
H1220 N1214 0.984 . S
H1221 N1214 0.984 . S
H1222 N1210 0.984 . S
H1223 N1210 0.985 . S
C1224 C1225 1.363 . S
C1224 C1230 1.379 . S
C1224 N1232 1.356 . S
C1225 C1224 1.363 . S
C1225 C1231 1.363 . S
C1226 C1227 1.363 . S
C1226 C1231 1.379 . S
C1226 N1233 1.356 . S
C1227 C1226 1.363 . S
C1227 C1230 1.363 . S
N1228 C1230 1.356 . S
N1228 H1240 0.984 . S
N1228 H1241 0.985 . S
N1229 C1231 1.356 . S
N1229 H1234 0.984 . S
N1229 H1235 0.985 . S
C1230 C1224 1.379 . S
C1230 C1227 1.363 . S
C1230 N1228 1.356 . S
C1231 C1225 1.363 . S
C1231 C1226 1.379 . S
C1231 N1229 1.356 . S
N1232 C1224 1.356 . S
N1232 H1238 0.984 . S
N1232 H1239 0.984 . S
N1233 C1226 1.356 . S
N1233 H1236 0.984 . S
N1233 H1237 0.985 . S
H1234 N1229 0.984 . S
H1235 N1229 0.985 . S
H1236 N1233 0.984 . S
H1237 N1233 0.985 . S
H1238 N1232 0.984 . S
H1239 N1232 0.984 . S
H1240 N1228 0.984 . S
H1241 N1228 0.985 . S
C1242 C1243 1.363 . S
C1242 C1248 1.379 . S
C1242 N1250 1.356 . S
C1243 C1242 1.363 . S
C1243 C1249 1.363 . S
C1244 C1245 1.363 . S
C1244 C1249 1.379 . S
C1244 N1251 1.356 . S
C1245 C1244 1.363 . S
C1245 C1248 1.363 . S
N1246 C1248 1.356 . S
N1246 H1258 0.984 . S
N1246 H1259 0.985 . S
N1247 C1249 1.356 . S
N1247 H1252 0.984 . S
N1247 H1253 0.985 . S
C1248 C1242 1.379 . S
C1248 C1245 1.363 . S
C1248 N1246 1.356 . S
C1249 C1243 1.363 . S
C1249 C1244 1.379 . S
C1249 N1247 1.356 . S
N1250 C1242 1.356 . S
N1250 H1256 0.984 . S
N1250 H1257 0.984 . S
N1251 C1244 1.356 . S
N1251 H1254 0.984 . S
N1251 H1255 0.985 . S
H1252 N1247 0.984 . S
H1253 N1247 0.985 . S
H1254 N1251 0.984 . S
H1255 N1251 0.985 . S
H1256 N1250 0.984 . S
H1257 N1250 0.984 . S
H1258 N1246 0.984 . S
H1259 N1246 0.985 . S
C1260 C1261 1.363 . S
C1260 C1266 1.379 . S
C1260 N1268 1.356 . S
C1261 C1260 1.363 . S
C1261 C1267 1.363 . S
C1262 C1263 1.363 . S
C1262 C1267 1.379 . S
C1262 N1269 1.356 . S
C1263 C1262 1.363 . S
C1263 C1266 1.363 . S
N1264 C1266 1.356 . S
N1264 H1276 0.984 . S
N1264 H1277 0.985 . S
N1265 C1267 1.356 . S
N1265 H1270 0.984 . S
N1265 H1271 0.985 . S
C1266 C1260 1.379 . S
C1266 C1263 1.363 . S
C1266 N1264 1.356 . S
C1267 C1261 1.363 . S
C1267 C1262 1.379 . S
C1267 N1265 1.356 . S
N1268 C1260 1.356 . S
N1268 H1274 0.984 . S
N1268 H1275 0.984 . S
N1269 C1262 1.356 . S
N1269 H1272 0.984 . S
N1269 H1273 0.985 . S
H1270 N1265 0.984 . S
H1271 N1265 0.985 . S
H1272 N1269 0.984 . S
H1273 N1269 0.985 . S
H1274 N1268 0.984 . S
H1275 N1268 0.984 . S
H1276 N1264 0.984 . S
H1277 N1264 0.985 . S
C1278 C1279 1.363 . S
C1278 C1284 1.379 . S
C1278 N1286 1.356 . S
C1279 C1278 1.363 . S
C1279 C1285 1.363 . S
C1280 C1281 1.363 . S
C1280 C1285 1.379 . S
C1280 N1287 1.356 . S
C1281 C1280 1.363 . S
C1281 C1284 1.363 . S
N1282 C1284 1.356 . S
N1282 H1294 0.984 . S
N1282 H1295 0.985 . S
N1283 C1285 1.356 . S
N1283 H1288 0.984 . S
N1283 H1289 0.985 . S
C1284 C1278 1.379 . S
C1284 C1281 1.363 . S
C1284 N1282 1.356 . S
C1285 C1279 1.363 . S
C1285 C1280 1.379 . S
C1285 N1283 1.356 . S
N1286 C1278 1.356 . S
N1286 H1292 0.984 . S
N1286 H1293 0.984 . S
N1287 C1280 1.356 . S
N1287 H1290 0.984 . S
N1287 H1291 0.985 . S
H1288 N1283 0.984 . S
H1289 N1283 0.985 . S
H1290 N1287 0.984 . S
H1291 N1287 0.985 . S
H1292 N1286 0.984 . S
H1293 N1286 0.984 . S
H1294 N1282 0.984 . S
H1295 N1282 0.985 . S
C1296 C1297 1.363 . S
C1296 C1302 1.379 . S
C1296 N1304 1.356 . S
C1297 C1296 1.363 . S
C1297 C1303 1.363 . S
C1298 C1299 1.363 . S
C1298 C1303 1.379 . S
C1298 N1305 1.356 . S
C1299 C1298 1.363 . S
C1299 C1302 1.363 . S
N1300 C1302 1.356 . S
N1300 H1312 0.984 . S
N1300 H1313 0.985 . S
N1301 C1303 1.356 . S
N1301 H1306 0.984 . S
N1301 H1307 0.985 . S
C1302 C1296 1.379 . S
C1302 C1299 1.363 . S
C1302 N1300 1.356 . S
C1303 C1297 1.363 . S
C1303 C1298 1.379 . S
C1303 N1301 1.356 . S
N1304 C1296 1.356 . S
N1304 H1310 0.984 . S
N1304 H1311 0.984 . S
N1305 C1298 1.356 . S
N1305 H1308 0.984 . S
N1305 H1309 0.985 . S
H1306 N1301 0.984 . S
H1307 N1301 0.985 . S
H1308 N1305 0.984 . S
H1309 N1305 0.985 . S
H1310 N1304 0.984 . S
H1311 N1304 0.984 . S
H1312 N1300 0.984 . S
H1313 N1300 0.985 . S
C1314 C1315 1.363 . S
C1314 C1320 1.379 . S
C1314 N1322 1.356 . S
C1315 C1314 1.363 . S
C1315 C1321 1.363 . S
C1316 C1317 1.363 . S
C1316 C1321 1.379 . S
C1316 N1323 1.356 . S
C1317 C1316 1.363 . S
C1317 C1320 1.363 . S
N1318 C1320 1.356 . S
N1318 H1330 0.984 . S
N1318 H1331 0.985 . S
N1319 C1321 1.356 . S
N1319 H1324 0.984 . S
N1319 H1325 0.985 . S
C1320 C1314 1.379 . S
C1320 C1317 1.363 . S
C1320 N1318 1.356 . S
C1321 C1315 1.363 . S
C1321 C1316 1.379 . S
C1321 N1319 1.356 . S
N1322 C1314 1.356 . S
N1322 H1328 0.984 . S
N1322 H1329 0.984 . S
N1323 C1316 1.356 . S
N1323 H1326 0.984 . S
N1323 H1327 0.985 . S
H1324 N1319 0.984 . S
H1325 N1319 0.985 . S
H1326 N1323 0.984 . S
H1327 N1323 0.985 . S
H1328 N1322 0.984 . S
H1329 N1322 0.984 . S
H1330 N1318 0.984 . S
H1331 N1318 0.985 . S
C1332 C1333 1.363 . S
C1332 C1338 1.379 . S
C1332 N1340 1.356 . S
C1333 C1332 1.363 . S
C1333 C1339 1.363 . S
C1334 C1335 1.363 . S
C1334 C1339 1.379 . S
C1334 N1341 1.356 . S
C1335 C1334 1.363 . S
C1335 C1338 1.363 . S
N1336 C1338 1.356 . S
N1336 H1348 0.984 . S
N1336 H1349 0.985 . S
N1337 C1339 1.356 . S
N1337 H1342 0.984 . S
N1337 H1343 0.985 . S
C1338 C1332 1.379 . S
C1338 C1335 1.363 . S
C1338 N1336 1.356 . S
C1339 C1333 1.363 . S
C1339 C1334 1.379 . S
C1339 N1337 1.356 . S
N1340 C1332 1.356 . S
N1340 H1346 0.984 . S
N1340 H1347 0.984 . S
N1341 C1334 1.356 . S
N1341 H1344 0.984 . S
N1341 H1345 0.985 . S
H1342 N1337 0.984 . S
H1343 N1337 0.985 . S
H1344 N1341 0.984 . S
H1345 N1341 0.985 . S
H1346 N1340 0.984 . S
H1347 N1340 0.984 . S
H1348 N1336 0.984 . S
H1349 N1336 0.985 . S
C1350 C1351 1.363 . S
C1350 C1356 1.379 . S
C1350 N1358 1.356 . S
C1351 C1350 1.363 . S
C1351 C1357 1.363 . S
C1352 C1353 1.363 . S
C1352 C1357 1.379 . S
C1352 N1359 1.356 . S
C1353 C1352 1.363 . S
C1353 C1356 1.363 . S
N1354 C1356 1.356 . S
N1354 H1366 0.984 . S
N1354 H1367 0.985 . S
N1355 C1357 1.356 . S
N1355 H1360 0.984 . S
N1355 H1361 0.985 . S
C1356 C1350 1.379 . S
C1356 C1353 1.363 . S
C1356 N1354 1.356 . S
C1357 C1351 1.363 . S
C1357 C1352 1.379 . S
C1357 N1355 1.356 . S
N1358 C1350 1.356 . S
N1358 H1364 0.984 . S
N1358 H1365 0.984 . S
N1359 C1352 1.356 . S
N1359 H1362 0.984 . S
N1359 H1363 0.985 . S
H1360 N1355 0.984 . S
H1361 N1355 0.985 . S
H1362 N1359 0.984 . S
H1363 N1359 0.985 . S
H1364 N1358 0.984 . S
H1365 N1358 0.984 . S
H1366 N1354 0.984 . S
H1367 N1354 0.985 . S
C1368 C1369 1.363 . S
C1368 C1374 1.379 . S
C1368 N1376 1.356 . S
C1369 C1368 1.363 . S
C1369 C1375 1.363 1_455 S
C1370 C1371 1.363 . S
C1370 C1375 1.379 . S
C1370 N1377 1.356 . S
C1371 C1370 1.363 . S
C1371 C1374 1.363 1_655 S
N1372 C1374 1.356 . S
N1372 H1384 0.984 . S
N1372 H1385 0.985 1_455 S
N1373 C1375 1.356 . S
N1373 H1378 0.984 1_655 S
N1373 H1379 0.985 . S
C1374 C1368 1.379 . S
C1374 C1371 1.363 1_455 S
C1374 N1372 1.356 . S
C1375 C1369 1.363 1_655 S
C1375 C1370 1.379 . S
C1375 N1373 1.356 . S
N1376 C1368 1.356 . S
N1376 H1382 0.984 . S
N1376 H1383 0.984 . S
N1377 C1370 1.356 . S
N1377 H1380 0.984 . S
N1377 H1381 0.985 . S
H1378 N1373 0.984 1_455 S
H1379 N1373 0.985 . S
H1380 N1377 0.984 . S
H1381 N1377 0.985 . S
H1382 N1376 0.984 . S
H1383 N1376 0.984 . S
H1384 N1372 0.984 . S
H1385 N1372 0.985 1_655 S
C1386 C1387 1.363 . S
C1386 C1392 1.379 . S
C1386 N1394 1.356 . S
C1387 C1386 1.363 . S
C1387 C1393 1.363 . S
C1388 C1389 1.363 . S
C1388 C1393 1.379 . S
C1388 N1395 1.356 . S
C1389 C1388 1.363 . S
C1389 C1392 1.363 . S
N1390 C1392 1.356 . S
N1390 H1402 0.984 . S
N1390 H1403 0.985 . S
N1391 C1393 1.356 . S
N1391 H1396 0.984 . S
N1391 H1397 0.985 . S
C1392 C1386 1.379 . S
C1392 C1389 1.363 . S
C1392 N1390 1.356 . S
C1393 C1387 1.363 . S
C1393 C1388 1.379 . S
C1393 N1391 1.356 . S
N1394 C1386 1.356 . S
N1394 H1400 0.984 . S
N1394 H1401 0.984 . S
N1395 C1388 1.356 . S
N1395 H1398 0.984 . S
N1395 H1399 0.985 . S
H1396 N1391 0.984 . S
H1397 N1391 0.985 . S
H1398 N1395 0.984 . S
H1399 N1395 0.985 . S
H1400 N1394 0.984 . S
H1401 N1394 0.984 . S
H1402 N1390 0.984 . S
H1403 N1390 0.985 . S
C1404 C1405 1.363 . S
C1404 C1410 1.379 1_545 S
C1404 N1412 1.356 . S
C1405 C1404 1.363 . S
C1405 C1411 1.363 . S
C1406 C1407 1.363 . S
C1406 C1411 1.379 1_565 S
C1406 N1413 1.356 . S
C1407 C1406 1.363 . S
C1407 C1410 1.363 . S
N1408 C1410 1.356 . S
N1408 H1420 0.984 . S
N1408 H1421 0.985 . S
N1409 C1411 1.356 . S
N1409 H1414 0.984 . S
N1409 H1415 0.985 . S
C1410 C1404 1.379 1_565 S
C1410 C1407 1.363 . S
C1410 N1408 1.356 . S
C1411 C1405 1.363 . S
C1411 C1406 1.379 1_545 S
C1411 N1409 1.356 . S
N1412 C1404 1.356 . S
N1412 H1418 0.984 . S
N1412 H1419 0.984 . S
N1413 C1406 1.356 . S
N1413 H1416 0.984 . S
N1413 H1417 0.985 . S
H1414 N1409 0.984 . S
H1415 N1409 0.985 . S
H1416 N1413 0.984 . S
H1417 N1413 0.985 . S
H1418 N1412 0.984 . S
H1419 N1412 0.984 . S
H1420 N1408 0.984 . S
H1421 N1408 0.985 . S
C1422 C1423 1.363 1_565 S
C1422 C1428 1.379 . S
C1422 N1430 1.356 . S
C1423 C1422 1.363 1_545 S
C1423 C1429 1.363 1_556 S
C1424 C1425 1.363 1_545 S
C1424 C1429 1.379 . S
C1424 N1431 1.356 . S
C1425 C1424 1.363 1_565 S
C1425 C1428 1.363 1_554 S
N1426 C1428 1.356 . S
N1426 H1438 0.984 . S
N1426 H1439 0.985 . S
N1427 C1429 1.356 . S
N1427 H1432 0.984 . S
N1427 H1433 0.985 . S
C1428 C1422 1.379 . S
C1428 C1425 1.363 1_556 S
C1428 N1426 1.356 . S
C1429 C1423 1.363 1_554 S
C1429 C1424 1.379 . S
C1429 N1427 1.356 . S
N1430 C1422 1.356 . S
N1430 H1436 0.984 . S
N1430 H1437 0.984 1_565 S
N1431 C1424 1.356 . S
N1431 H1434 0.984 1_545 S
N1431 H1435 0.985 . S
H1432 N1427 0.984 . S
H1433 N1427 0.985 . S
H1434 N1431 0.984 1_565 S
H1435 N1431 0.985 . S
H1436 N1430 0.984 . S
H1437 N1430 0.984 1_545 S
H1438 N1426 0.984 . S
H1439 N1426 0.985 . S
C1440 C1441 1.363 1_656 S
C1440 C1446 1.379 . S
C1440 N1448 1.375 1_655 S
C1441 C1440 1.363 1_454 S
C1441 C1447 1.363 . S
C1442 C1443 1.363 1_454 S
C1442 C1447 1.379 . S
C1442 N1449 1.375 1_455 S
C1443 C1442 1.363 1_656 S
C1443 C1446 1.363 . S
N1444 C1446 1.356 . S
N1444 H1456 0.984 . S
N1444 H1457 0.985 . S
N1445 C1447 1.356 . S
N1445 H1450 0.984 . S
N1445 H1451 0.985 . S
C1446 C1440 1.379 . S
C1446 C1443 1.363 . S
C1446 N1444 1.356 . S
C1447 C1441 1.363 . S
C1447 C1442 1.379 . S
C1447 N1445 1.356 . S
N1448 C1440 1.375 1_455 S
N1448 H1454 0.958 1_455 S
N1448 H1455 0.995 . S
N1449 C1442 1.375 1_655 S
N1449 H1452 0.995 . S
N1449 H1453 0.958 1_655 S
H1450 N1445 0.984 . S
H1451 N1445 0.985 . S
H1452 N1449 0.995 . S
H1453 N1449 0.958 1_455 S
H1454 N1448 0.958 1_655 S
H1455 N1448 0.995 . S
H1456 N1444 0.984 . S
H1457 N1444 0.985 . S
C1458 C1459 1.363 . S
C1458 C1464 1.379 . S
C1458 N1466 1.356 . S
C1459 C1458 1.363 . S
C1459 C1465 1.363 1_554 S
C1460 C1461 1.363 . S
C1460 C1465 1.379 . S
C1460 N1467 1.356 . S
C1461 C1460 1.363 . S
C1461 C1464 1.363 1_556 S
N1462 C1464 1.356 . S
N1462 H1474 0.984 . S
N1462 H1475 0.985 1_554 S
N1463 C1465 1.356 . S
N1463 H1468 0.984 1_556 S
N1463 H1469 0.985 . S
C1464 C1458 1.379 . S
C1464 C1461 1.363 1_554 S
C1464 N1462 1.356 . S
C1465 C1459 1.363 1_556 S
C1465 C1460 1.379 . S
C1465 N1463 1.356 . S
N1466 C1458 1.356 . S
N1466 H1472 0.984 . S
N1466 H1473 0.984 . S
N1467 C1460 1.356 . S
N1467 H1470 0.984 . S
N1467 H1471 0.985 . S
H1468 N1463 0.984 1_554 S
H1469 N1463 0.985 . S
H1470 N1467 0.984 . S
H1471 N1467 0.985 . S
H1472 N1466 0.984 . S
H1473 N1466 0.984 . S
H1474 N1462 0.984 . S
H1475 N1462 0.985 1_556 S
C1476 C1477 1.363 . S
C1476 C1482 1.379 . S
C1476 N1484 1.356 . S
C1477 C1476 1.363 . S
C1477 C1483 1.363 . S
C1478 C1479 1.363 . S
C1478 C1483 1.379 . S
C1478 N1485 1.356 . S
C1479 C1478 1.363 . S
C1479 C1482 1.363 . S
N1480 C1482 1.356 . S
N1480 H1492 0.984 . S
N1480 H1493 0.985 . S
N1481 C1483 1.356 . S
N1481 H1486 0.993 . S
N1481 H1487 0.985 . S
C1482 C1476 1.379 . S
C1482 C1479 1.363 . S
C1482 N1480 1.356 . S
C1483 C1477 1.363 . S
C1483 C1478 1.379 . S
C1483 N1481 1.356 . S
N1484 C1476 1.356 . S
N1484 H1490 0.984 . S
N1484 H1491 0.968 1_554 S
N1485 C1478 1.356 . S
N1485 H1488 0.984 . S
N1485 H1489 0.985 . S
H1486 N1481 0.993 . S
H1487 N1481 0.985 . S
H1488 N1485 0.984 . S
H1489 N1485 0.985 . S
H1490 N1484 0.984 . S
H1491 N1484 0.968 1_556 S
H1492 N1480 0.984 . S
H1493 N1480 0.985 . S
C1494 C1495 1.363 . S
C1494 C1500 1.379 . S
C1494 N1502 1.356 . S
C1495 C1494 1.363 . S
C1495 C1501 1.363 . S
C1496 C1497 1.363 . S
C1496 C1501 1.379 . S
C1496 N1503 1.356 . S
C1497 C1496 1.363 . S
C1497 C1500 1.363 . S
N1498 C1500 1.356 1_556 S
N1498 H1510 0.984 . S
N1498 H1511 0.985 . S
N1499 C1501 1.356 . S
N1499 H1504 0.984 . S
N1499 H1505 0.985 . S
C1500 C1494 1.379 . S
C1500 C1497 1.363 . S
C1500 N1498 1.356 1_554 S
C1501 C1495 1.363 . S
C1501 C1496 1.379 . S
C1501 N1499 1.356 . S
N1502 C1494 1.356 . S
N1502 H1508 0.984 . S
N1502 H1509 0.984 . S
N1503 C1496 1.356 . S
N1503 H1506 0.984 . S
N1503 H1507 0.985 . S
H1504 N1499 0.984 . S
H1505 N1499 0.985 . S
H1506 N1503 0.984 . S
H1507 N1503 0.985 . S
H1508 N1502 0.984 . S
H1509 N1502 0.984 . S
H1510 N1498 0.984 . S
H1511 N1498 0.985 . S
C1512 C1513 1.363 . S
C1512 C1518 1.379 . S
C1512 N1520 1.356 . S
C1513 C1512 1.363 . S
C1513 C1519 1.363 . S
C1514 C1515 1.363 . S
C1514 C1519 1.379 . S
C1514 N1521 1.356 . S
C1515 C1514 1.363 . S
C1515 C1518 1.363 . S
N1516 C1518 1.356 . S
N1516 H1528 0.984 . S
N1516 H1529 0.985 . S
N1517 C1519 1.356 . S
N1517 H1522 0.984 . S
N1517 H1523 0.985 . S
C1518 C1512 1.379 . S
C1518 C1515 1.363 . S
C1518 N1516 1.356 . S
C1519 C1513 1.363 . S
C1519 C1514 1.379 . S
C1519 N1517 1.356 . S
N1520 C1512 1.356 . S
N1520 H1526 0.984 . S
N1520 H1527 0.984 1_554 S
N1521 C1514 1.356 . S
N1521 H1524 0.984 . S
N1521 H1525 0.985 . S
H1522 N1517 0.984 . S
H1523 N1517 0.985 . S
H1524 N1521 0.984 . S
H1525 N1521 0.985 . S
H1526 N1520 0.984 . S
H1527 N1520 0.984 1_556 S
H1528 N1516 0.984 . S
H1529 N1516 0.985 . S
C1530 C1531 1.363 . S
C1530 C1536 1.379 . S
C1530 N1538 1.356 . S
C1531 C1530 1.363 . S
C1531 C1537 1.363 . S
C1532 C1533 1.363 . S
C1532 C1537 1.379 . S
C1532 N1539 1.356 . S
C1533 C1532 1.363 . S
C1533 C1536 1.363 . S
N1534 C1536 1.356 . S
N1534 H1546 0.984 . S
N1534 H1547 0.985 . S
N1535 C1537 1.356 . S
N1535 H1540 0.984 . S
N1535 H1541 0.985 . S
C1536 C1530 1.379 . S
C1536 C1533 1.363 . S
C1536 N1534 1.356 . S
C1537 C1531 1.363 . S
C1537 C1532 1.379 . S
C1537 N1535 1.356 . S
N1538 C1530 1.356 . S
N1538 H1544 0.984 . S
N1538 H1545 0.984 . S
N1539 C1532 1.356 . S
N1539 H1542 0.984 . S
N1539 H1543 0.985 . S
H1540 N1535 0.984 . S
H1541 N1535 0.985 . S
H1542 N1539 0.984 . S
H1543 N1539 0.985 . S
H1544 N1538 0.984 . S
H1545 N1538 0.984 . S
H1546 N1534 0.984 . S
H1547 N1534 0.985 . S
C1548 C1549 1.363 . S
C1548 C1554 1.379 . S
C1548 N1556 1.356 . S
C1549 C1548 1.363 . S
C1549 C1555 1.363 . S
C1550 C1551 1.363 . S
C1550 C1555 1.379 . S
C1550 N1557 1.356 . S
C1551 C1550 1.363 . S
C1551 C1554 1.363 . S
N1552 C1554 1.356 . S
N1552 H1564 0.984 . S
N1552 H1565 0.985 . S
N1553 C1555 1.356 . S
N1553 H1558 0.984 . S
N1553 H1559 0.985 . S
C1554 C1548 1.379 . S
C1554 C1551 1.363 . S
C1554 N1552 1.356 . S
C1555 C1549 1.363 . S
C1555 C1550 1.379 . S
C1555 N1553 1.356 . S
N1556 C1548 1.356 . S
N1556 H1562 0.984 . S
N1556 H1563 0.984 . S
N1557 C1550 1.356 . S
N1557 H1560 0.984 . S
N1557 H1561 0.985 . S
H1558 N1553 0.984 . S
H1559 N1553 0.985 . S
H1560 N1557 0.984 . S
H1561 N1557 0.985 . S
H1562 N1556 0.984 . S
H1563 N1556 0.984 . S
H1564 N1552 0.984 . S
H1565 N1552 0.985 . S
C1566 C1567 1.363 . S
C1566 C1572 1.379 . S
C1566 N1574 1.356 . S
C1567 C1566 1.363 . S
C1567 C1573 1.363 . S
C1568 C1569 1.363 . S
C1568 C1573 1.379 . S
C1568 N1575 1.356 . S
C1569 C1568 1.363 . S
C1569 C1572 1.363 . S
N1570 C1572 1.356 . S
N1570 H1582 0.984 . S
N1570 H1583 0.985 . S
N1571 C1573 1.356 . S
N1571 H1576 0.984 . S
N1571 H1577 0.985 . S
C1572 C1566 1.379 . S
C1572 C1569 1.363 . S
C1572 N1570 1.356 . S
C1573 C1567 1.363 . S
C1573 C1568 1.379 . S
C1573 N1571 1.356 . S
N1574 C1566 1.356 . S
N1574 H1580 0.984 . S
N1574 H1581 0.984 . S
N1575 C1568 1.356 . S
N1575 H1578 0.984 . S
N1575 H1579 0.985 . S
H1576 N1571 0.984 . S
H1577 N1571 0.985 . S
H1578 N1575 0.984 . S
H1579 N1575 0.985 . S
H1580 N1574 0.984 . S
H1581 N1574 0.984 . S
H1582 N1570 0.984 . S
H1583 N1570 0.985 . S
C1584 C1585 1.363 . S
C1584 C1590 1.379 . S
C1584 N1592 1.356 . S
C1585 C1584 1.363 . S
C1585 C1591 1.363 . S
C1586 C1587 1.363 . S
C1586 C1591 1.379 . S
C1586 N1593 1.356 1_556 S
C1587 C1586 1.363 . S
C1587 C1590 1.363 . S
N1588 C1590 1.356 . S
N1588 H1600 0.984 . S
N1588 H1601 0.985 . S
N1589 C1591 1.356 . S
N1589 H1594 0.984 . S
N1589 H1595 0.985 . S
C1590 C1584 1.379 . S
C1590 C1587 1.363 . S
C1590 N1588 1.356 . S
C1591 C1585 1.363 . S
C1591 C1586 1.379 . S
C1591 N1589 1.356 . S
N1592 C1584 1.356 . S
N1592 H1598 0.984 . S
N1592 H1599 0.984 . S
N1593 C1586 1.356 1_554 S
N1593 H1596 0.984 . S
N1593 H1597 0.985 . S
H1594 N1589 0.984 . S
H1595 N1589 0.985 . S
H1596 N1593 0.984 . S
H1597 N1593 0.985 . S
H1598 N1592 0.984 . S
H1599 N1592 0.984 . S
H1600 N1588 0.984 . S
H1601 N1588 0.985 . S
C1602 C1603 1.363 . S
C1602 C1608 1.379 . S
C1602 N1610 1.356 1_556 S
C1603 C1602 1.363 . S
C1603 C1609 1.363 . S
C1604 C1605 1.363 . S
C1604 C1609 1.379 . S
C1604 N1611 1.356 . S
C1605 C1604 1.363 . S
C1605 C1608 1.363 . S
N1606 C1608 1.356 . S
N1606 H1618 0.984 . S
N1606 H1619 0.985 . S
N1607 C1609 1.356 . S
N1607 H1612 0.984 . S
N1607 H1613 0.985 . S
C1608 C1602 1.379 . S
C1608 C1605 1.363 . S
C1608 N1606 1.356 . S
C1609 C1603 1.363 . S
C1609 C1604 1.379 . S
C1609 N1607 1.356 . S
N1610 C1602 1.356 1_554 S
N1610 H1616 0.984 . S
N1610 H1617 0.984 . S
N1611 C1604 1.356 . S
N1611 H1614 0.984 . S
N1611 H1615 0.985 . S
H1612 N1607 0.984 . S
H1613 N1607 0.985 . S
H1614 N1611 0.984 . S
H1615 N1611 0.985 . S
H1616 N1610 0.984 . S
H1617 N1610 0.984 . S
H1618 N1606 0.984 . S
H1619 N1606 0.985 . S
C1620 C1621 1.363 . S
C1620 C1626 1.379 . S
C1620 N1628 1.356 . S
C1621 C1620 1.363 . S
C1621 C1627 1.363 . S
C1622 C1623 1.363 . S
C1622 C1627 1.379 . S
C1622 N1629 1.356 1_556 S
C1623 C1622 1.363 . S
C1623 C1626 1.363 . S
N1624 C1626 1.356 . S
N1624 H1636 0.984 . S
N1624 H1637 0.985 . S
N1625 C1627 1.356 . S
N1625 H1630 0.984 . S
N1625 H1631 0.985 . S
C1626 C1620 1.379 . S
C1626 C1623 1.363 . S
C1626 N1624 1.356 . S
C1627 C1621 1.363 . S
C1627 C1622 1.379 . S
C1627 N1625 1.356 . S
N1628 C1620 1.356 . S
N1628 H1634 0.984 . S
N1628 H1635 0.984 . S
N1629 C1622 1.356 1_554 S
N1629 H1632 0.984 . S
N1629 H1633 0.985 . S
H1630 N1625 0.984 . S
H1631 N1625 0.985 . S
H1632 N1629 0.984 . S
H1633 N1629 0.985 . S
H1634 N1628 0.984 . S
H1635 N1628 0.984 . S
H1636 N1624 0.984 . S
H1637 N1624 0.985 . S
C1638 C1639 1.363 . S
C1638 C1644 1.379 . S
C1638 N1646 1.356 . S
C1639 C1638 1.363 . S
C1639 C1645 1.363 . S
C1640 C1641 1.363 . S
C1640 C1645 1.379 . S
C1640 N1647 1.356 . S
C1641 C1640 1.363 . S
C1641 C1644 1.363 . S
N1642 C1644 1.356 . S
N1642 H1654 0.984 . S
N1642 H1655 0.985 . S
N1643 C1645 1.356 . S
N1643 H1648 0.984 . S
N1643 H1649 0.985 . S
C1644 C1638 1.379 . S
C1644 C1641 1.363 . S
C1644 N1642 1.356 . S
C1645 C1639 1.363 . S
C1645 C1640 1.379 . S
C1645 N1643 1.356 . S
N1646 C1638 1.356 . S
N1646 H1652 0.984 . S
N1646 H1653 0.984 . S
N1647 C1640 1.356 . S
N1647 H1650 0.984 . S
N1647 H1651 0.985 . S
H1648 N1643 0.984 . S
H1649 N1643 0.985 . S
H1650 N1647 0.984 . S
H1651 N1647 0.985 . S
H1652 N1646 0.984 . S
H1653 N1646 0.984 . S
H1654 N1642 0.984 . S
H1655 N1642 0.985 . S
C1656 C1657 1.363 . S
C1656 C1662 1.379 . S
C1656 N1664 1.356 . S
C1657 C1656 1.363 . S
C1657 C1663 1.363 . S
C1658 C1659 1.363 . S
C1658 C1663 1.379 . S
C1658 N1665 1.356 . S
C1659 C1658 1.363 . S
C1659 C1662 1.363 . S
N1660 C1662 1.356 . S
N1660 H1672 0.984 . S
N1660 H1673 0.985 . S
N1661 C1663 1.356 . S
N1661 H1666 0.984 . S
N1661 H1667 0.985 . S
C1662 C1656 1.379 . S
C1662 C1659 1.363 . S
C1662 N1660 1.356 . S
C1663 C1657 1.363 . S
C1663 C1658 1.379 . S
C1663 N1661 1.356 . S
N1664 C1656 1.356 . S
N1664 H1670 0.984 . S
N1664 H1671 0.984 . S
N1665 C1658 1.356 . S
N1665 H1668 0.984 . S
N1665 H1669 0.985 . S
H1666 N1661 0.984 . S
H1667 N1661 0.985 . S
H1668 N1665 0.984 . S
H1669 N1665 0.985 . S
H1670 N1664 0.984 . S
H1671 N1664 0.984 . S
H1672 N1660 0.984 . S
H1673 N1660 0.985 . S
C1674 C1675 1.363 . S
C1674 C1680 1.379 . S
C1674 N1682 1.356 . S
C1675 C1674 1.363 . S
C1675 C1681 1.363 . S
C1676 C1677 1.363 . S
C1676 C1681 1.379 . S
C1676 N1683 1.356 . S
C1677 C1676 1.363 . S
C1677 C1680 1.363 . S
N1678 C1680 1.356 . S
N1678 H1690 0.984 . S
N1678 H1691 0.985 . S
N1679 C1681 1.356 . S
N1679 H1684 0.984 . S
N1679 H1685 0.985 . S
C1680 C1674 1.379 . S
C1680 C1677 1.363 . S
C1680 N1678 1.356 . S
C1681 C1675 1.363 . S
C1681 C1676 1.379 . S
C1681 N1679 1.356 . S
N1682 C1674 1.356 . S
N1682 H1688 0.984 . S
N1682 H1689 0.984 . S
N1683 C1676 1.356 . S
N1683 H1686 0.984 . S
N1683 H1687 0.985 . S
H1684 N1679 0.984 . S
H1685 N1679 0.985 . S
H1686 N1683 0.984 . S
H1687 N1683 0.985 . S
H1688 N1682 0.984 . S
H1689 N1682 0.984 . S
H1690 N1678 0.984 . S
H1691 N1678 0.985 . S
C1692 C1693 1.363 . S
C1692 C1698 1.379 . S
C1692 N1700 1.356 . S
C1693 C1692 1.363 . S
C1693 C1699 1.363 . S
C1694 C1695 1.363 . S
C1694 C1699 1.379 . S
C1694 N1701 1.356 . S
C1695 C1694 1.363 . S
C1695 C1698 1.363 . S
N1696 C1698 1.356 . S
N1696 H1708 0.984 . S
N1696 H1709 0.985 . S
N1697 C1699 1.356 . S
N1697 H1702 0.984 . S
N1697 H1703 0.985 . S
C1698 C1692 1.379 . S
C1698 C1695 1.363 . S
C1698 N1696 1.356 . S
C1699 C1693 1.363 . S
C1699 C1694 1.379 . S
C1699 N1697 1.356 . S
N1700 C1692 1.356 . S
N1700 H1706 0.984 . S
N1700 H1707 0.984 . S
N1701 C1694 1.356 . S
N1701 H1704 0.984 . S
N1701 H1705 0.985 . S
H1702 N1697 0.984 . S
H1703 N1697 0.985 . S
H1704 N1701 0.984 . S
H1705 N1701 0.985 . S
H1706 N1700 0.984 . S
H1707 N1700 0.984 . S
H1708 N1696 0.984 . S
H1709 N1696 0.985 . S
C1710 C1711 1.363 . S
C1710 C1716 1.379 . S
C1710 N1718 1.356 . S
C1711 C1710 1.363 . S
C1711 C1717 1.363 1_545 S
C1712 C1713 1.363 . S
C1712 C1717 1.379 . S
C1712 N1719 1.356 . S
C1713 C1712 1.363 . S
C1713 C1716 1.363 1_565 S
N1714 C1716 1.356 . S
N1714 H1726 0.984 . S
N1714 H1727 0.985 1_545 S
N1715 C1717 1.356 . S
N1715 H1720 0.984 1_565 S
N1715 H1721 0.985 . S
C1716 C1710 1.379 . S
C1716 C1713 1.363 1_545 S
C1716 N1714 1.356 . S
C1717 C1711 1.363 1_565 S
C1717 C1712 1.379 . S
C1717 N1715 1.356 . S
N1718 C1710 1.356 . S
N1718 H1724 0.984 . S
N1718 H1725 0.984 . S
N1719 C1712 1.356 . S
N1719 H1722 0.984 . S
N1719 H1723 0.985 . S
H1720 N1715 0.984 1_545 S
H1721 N1715 0.985 . S
H1722 N1719 0.984 . S
H1723 N1719 0.985 . S
H1724 N1718 0.984 . S
H1725 N1718 0.984 . S
H1726 N1714 0.984 . S
H1727 N1714 0.985 1_565 S
C1728 C1729 1.363 . S
C1728 C1734 1.379 . S
C1728 N1736 1.356 . S
C1729 C1728 1.363 . S
C1729 C1735 1.363 1_655 S
C1730 C1731 1.363 . S
C1730 C1735 1.379 . S
C1730 N1737 1.356 . S
C1731 C1730 1.363 . S
C1731 C1734 1.363 1_455 S
N1732 C1734 1.356 . S
N1732 H1744 0.984 . S
N1732 H1745 0.999 . S
N1733 C1735 1.356 . S
N1733 H1738 0.998 . S
N1733 H1739 0.985 . S
C1734 C1728 1.379 . S
C1734 C1731 1.363 1_655 S
C1734 N1732 1.356 . S
C1735 C1729 1.363 1_455 S
C1735 C1730 1.379 . S
C1735 N1733 1.356 . S
N1736 C1728 1.356 . S
N1736 H1742 0.984 . S
N1736 H1743 0.984 . S
N1737 C1730 1.356 . S
N1737 H1740 0.984 . S
N1737 H1741 0.985 . S
H1738 N1733 0.998 . S
H1739 N1733 0.985 . S
H1740 N1737 0.984 . S
H1741 N1737 0.985 . S
H1742 N1736 0.984 . S
H1743 N1736 0.984 . S
H1744 N1732 0.984 . S
H1745 N1732 0.999 . S
C1746 C1747 1.363 . S
C1746 C1752 1.379 . S
C1746 N1754 1.356 . S
C1747 C1746 1.363 . S
C1747 C1753 1.363 . S
C1748 C1749 1.363 . S
C1748 C1753 1.379 . S
C1748 N1755 1.356 . S
C1749 C1748 1.363 . S
C1749 C1752 1.363 . S
N1750 C1752 1.356 . S
N1750 H1762 0.984 . S
N1750 H1763 0.985 . S
N1751 C1753 1.356 . S
N1751 H1756 0.984 . S
N1751 H1757 0.985 . S
C1752 C1746 1.379 . S
C1752 C1749 1.363 . S
C1752 N1750 1.356 . S
C1753 C1747 1.363 . S
C1753 C1748 1.379 . S
C1753 N1751 1.356 . S
N1754 C1746 1.356 . S
N1754 H1760 0.984 . S
N1754 H1761 0.984 . S
N1755 C1748 1.356 . S
N1755 H1758 0.984 . S
N1755 H1759 0.985 . S
H1756 N1751 0.984 . S
H1757 N1751 0.985 . S
H1758 N1755 0.984 . S
H1759 N1755 0.985 . S
H1760 N1754 0.984 . S
H1761 N1754 0.984 . S
H1762 N1750 0.984 . S
H1763 N1750 0.985 . S
C1764 C1765 1.363 1_565 S
C1764 C1770 1.379 . S
C1764 N1772 1.356 . S
C1765 C1764 1.363 1_545 S
C1765 C1771 1.363 . S
C1766 C1767 1.363 1_545 S
C1766 C1771 1.379 . S
C1766 N1773 1.356 . S
C1767 C1766 1.363 1_565 S
C1767 C1770 1.363 . S
N1768 C1770 1.356 . S
N1768 H1780 0.984 . S
N1768 H1781 0.985 . S
N1769 C1771 1.356 . S
N1769 H1774 0.984 . S
N1769 H1775 0.985 . S
C1770 C1764 1.379 . S
C1770 C1767 1.363 . S
C1770 N1768 1.356 . S
C1771 C1765 1.363 . S
C1771 C1766 1.379 . S
C1771 N1769 1.356 . S
N1772 C1764 1.356 . S
N1772 H1778 0.984 . S
N1772 H1779 0.984 1_565 S
N1773 C1766 1.356 . S
N1773 H1776 0.984 1_545 S
N1773 H1777 0.985 . S
H1774 N1769 0.984 . S
H1775 N1769 0.985 . S
H1776 N1773 0.984 1_565 S
H1777 N1773 0.985 . S
H1778 N1772 0.984 . S
H1779 N1772 0.984 1_545 S
H1780 N1768 0.984 . S
H1781 N1768 0.985 . S
C1782 C1783 1.363 . S
C1782 C1788 1.379 . S
C1782 N1790 1.356 . S
C1783 C1782 1.363 . S
C1783 C1789 1.363 1_455 S
C1784 C1785 1.363 . S
C1784 C1789 1.379 . S
C1784 N1791 1.356 . S
C1785 C1784 1.363 . S
C1785 C1788 1.363 1_655 S
N1786 C1788 1.356 . S
N1786 H1798 0.984 . S
N1786 H1799 0.985 . S
N1787 C1789 1.356 . S
N1787 H1792 0.984 . S
N1787 H1793 0.985 . S
C1788 C1782 1.379 . S
C1788 C1785 1.363 1_455 S
C1788 N1786 1.356 . S
C1789 C1783 1.363 1_655 S
C1789 C1784 1.379 . S
C1789 N1787 1.356 . S
N1790 C1782 1.356 . S
N1790 H1796 0.984 . S
N1790 H1797 0.984 . S
N1791 C1784 1.356 . S
N1791 H1794 0.984 . S
N1791 H1795 0.985 . S
H1792 N1787 0.984 . S
H1793 N1787 0.985 . S
H1794 N1791 0.984 . S
H1795 N1791 0.985 . S
H1796 N1790 0.984 . S
H1797 N1790 0.984 . S
H1798 N1786 0.984 . S
H1799 N1786 0.985 . S
C505 C79 0.978 . S
C507 C9 0.978 . S
C523 C51 0.978 . S
C525 C23 0.978 . S
C541 C37 0.978 . S
C543 C65 0.978 . S
C559 C93 0.978 . S
C561 C163 0.978 . S
C577 C107 0.978 . S
C579 C135 0.978 . S
C595 C149 0.978 . S
C597 C121 0.978 . S
C613 C177 0.978 1_655 S
C615 C247 0.978 . S
C631 C191 0.978 . S
C633 C219 0.978 . S
C649 C233 0.978 . S
C651 C205 0.978 1_545 S
C667 C331 0.978 . S
C669 C261 0.978 . S
C685 C303 0.978 1_545 S
C687 C275 0.978 . S
C703 C289 0.978 . S
C705 C317 0.978 1_655 S
C721 C415 0.978 . S
C723 C345 0.978 . S
C739 C387 0.978 1_565 S
C741 C359 0.978 . S
C757 C373 0.978 . S
C759 C401 0.978 1_455 S
C775 C499 0.978 . S
C777 C429 0.978 1_455 S
C793 C471 0.978 . S
C795 C443 0.978 . S
C811 C485 0.978 . S
C813 C457 0.978 1_565 S
C829 C231 1.822 . S
C831 C7 1.822 . S
C847 C245 1.822 . S
C849 C21 1.822 . S
C865 C217 1.822 . S
C867 C35 1.822 . S
C883 C49 1.822 . S
C885 C371 1.822 1_554 S
C901 C63 1.822 . S
C903 C343 1.822 1_554 S
C919 C77 1.822 . S
C921 C357 1.822 1_554 S
C937 C91 1.822 . S
C939 C483 1.822 . S
C955 C497 1.822 . S
C957 C105 1.822 . S
C973 C469 1.822 . S
C975 C119 1.822 . S
C991 C287 1.822 1_556 S
C993 C133 1.822 . S
C1009 C259 1.822 1_556 S
C1011 C147 1.822 . S
C1027 C161 1.822 . S
C1029 C273 1.822 1_556 S
C1045 C175 1.822 . S
C1047 C399 1.822 . S
C1063 C413 1.822 . S
C1065 C189 1.822 . S
C1081 C385 1.822 . S
C1083 C203 1.822 . S
C1099 C301 1.822 . S
C1101 C455 1.822 . S
C1117 C427 1.822 . S
C1119 C315 1.822 . S
C1135 C329 1.822 . S
C1137 C441 1.822 . S
C1153 C260 1.601 . S
C1155 C8 1.601 . S
C1171 C274 1.601 . S
C1173 C22 1.601 . S
C1189 C36 1.601 . S
C1191 C288 1.601 . S
C1207 C50 1.601 . S
C1209 C470 1.601 . S
C1225 C484 1.601 . S
C1227 C64 1.601 . S
C1243 C498 1.601 . S
C1245 C78 1.601 . S
C1261 C92 1.601 . S
C1263 C344 1.601 . S
C1279 C106 1.601 . S
C1281 C358 1.601 . S
C1297 C372 1.601 . S
C1299 C120 1.601 . S
C1315 C134 1.601 . S
C1317 C218 1.601 . S
C1333 C148 1.601 . S
C1335 C232 1.601 . S
C1351 C246 1.601 . S
C1353 C162 1.601 . S
C1369 C176 1.601 . S
C1371 C428 1.601 . S
C1387 C190 1.601 . S
C1389 C442 1.601 . S
C1405 C456 1.601 . S
C1407 C204 1.601 . S
C1423 C386 1.601 . S
C1425 C302 1.601 . S
C1441 C316 1.601 . S
C1443 C400 1.601 . S
C1459 C330 1.601 . S
C1461 C414 1.601 . S
C1477 C381 1.699 1_554 S
C1479 C3 1.699 . S
C1495 C17 1.699 . S
C1497 C395 1.699 1_554 S
C1513 C409 1.699 1_554 S
C1515 C31 1.699 . S
C1531 C45 1.699 . S
C1533 C171 1.699 . S
C1549 C185 1.699 . S
C1551 C59 1.699 . S
C1567 C199 1.699 . S
C1569 C73 1.699 . S
C1585 C87 1.699 . S
C1587 C297 1.699 1_556 S
C1603 C311 1.699 1_556 S
C1605 C101 1.699 . S
C1621 C115 1.699 . S
C1623 C325 1.699 1_556 S
C1639 C129 1.699 . S
C1641 C423 1.699 . S
C1657 C143 1.699 . S
C1659 C437 1.699 . S
C1675 C451 1.699 . S
C1677 C157 1.699 . S
C1693 C213 1.699 . S
C1695 C339 1.699 . S
C1711 C227 1.699 . S
C1713 C353 1.699 . S
C1729 C241 1.699 . S
C1731 C367 1.699 . S
C1747 C255 1.699 . S
C1749 C465 1.699 . S
C1765 C269 1.699 . S
C1767 C479 1.699 . S
C1783 C493 1.699 . S
C1785 C283 1.699 . S
