# Generated by pormake.
# Topology rob, (6)-cn, num edge types: 1
# Building blocks:
#     Node 0, Type 0, BuildingBlock: BETDEL_clean_sbu_0, # of connection points: 6
#     Node 1, Type 0, BuildingBlock: BETDEL_clean_sbu_0, # of connection points: 6
#     Node 2, Type 0, BuildingBlock: BETDEL_clean_sbu_0, # of connection points: 6
#     Node 3, Type 0, BuildingBlock: BETDEL_clean_sbu_0, # of connection points: 6
#     Edge 4, Type (0, 0), BuildingBlock: UVAHIK_clean_linker_0, # of connection points: 2
#     Edge 5, Type (0, 0), BuildingBlock: UVAHIK_clean_linker_0, # of connection points: 2
#     Edge 6, Type (0, 0), BuildingBlock: UVAHIK_clean_linker_0, # of connection points: 2
#     Edge 7, Type (0, 0), BuildingBlock: UVAHIK_clean_linker_0, # of connection points: 2
#     Edge 8, Type (0, 0), BuildingBlock: UVAHIK_clean_linker_0, # of connection points: 2
#     Edge 9, Type (0, 0), BuildingBlock: UVAHIK_clean_linker_0, # of connection points: 2
#     Edge 10, Type (0, 0), BuildingBlock: UVAHIK_clean_linker_0, # of connection points: 2
#     Edge 11, Type (0, 0), BuildingBlock: UVAHIK_clean_linker_0, # of connection points: 2
#     Edge 12, Type (0, 0), BuildingBlock: UVAHIK_clean_linker_0, # of connection points: 2
#     Edge 13, Type (0, 0), BuildingBlock: UVAHIK_clean_linker_0, # of connection points: 2
#     Edge 14, Type (0, 0), BuildingBlock: UVAHIK_clean_linker_0, # of connection points: 2
#     Edge 15, Type (0, 0), BuildingBlock: UVAHIK_clean_linker_0, # of connection points: 2
# Relax obj value: 0.070
# Max RMSD: 0.159
# Mean RMSD: 0.159
data_MOF--net-rob--node1-BETDEL_clean_sbu_0--edge1-UVAHIK_clean_linker_0
_symmetry_space_group_name_H-M    P1
_symmetry_Int_Tables_number       1
_symmetry_cell_setting            triclinic
loop_
_symmetry_equiv_pos_as_xyz
'x, y, z'
_cell_length_a     16.443632
_cell_length_b     33.738412
_cell_length_c     37.781445
_cell_angle_alpha  89.952347
_cell_angle_beta   102.22931
_cell_angle_gamma 90.193516
loop_
_atom_site_label
_atom_site_type_symbol
_atom_site_fract_x
_atom_site_fract_y
_atom_site_fract_z
_atom_type_partial_charge
Dy0 Dy 0.18045 0.27379 0.01924 0.0
C1 C 0.42071 0.27679 0.92529 0.0
C2 C 0.09566 0.27389 0.07393 0.0
Dy3 Dy 0.32221 0.25982 0.97285 0.0
O4 O 0.14667 0.30128 0.06798 0.0
O5 O 0.08849 0.24658 0.04909 0.0
O6 O 0.17911 0.33779 0.00262 0.0
O7 O 0.28967 0.30506 0.00863 0.0
C8 C 0.25615 0.33801 -0.0009 0.0
C9 C 0.23606 0.19301 0.98002 0.0
O10 O 0.40008 0.25696 0.02883 0.0
O11 O 0.28816 0.24527 0.05698 0.0
O12 O 0.42742 0.24521 0.94558 0.0
O13 O 0.36252 0.29965 0.93223 0.0
O14 O 0.29886 0.19344 0.96403 0.0
O15 O 0.22674 0.22764 0.99028 0.0
O16 O 0.09842 0.26881 0.96447 0.0
O17 O 0.20614 0.27716 0.9329 0.0
C18 C 0.36895 0.24612 0.05705 0.0
C19 C 0.12621 0.27472 0.93437 0.0
Dy20 Dy 0.67479 0.77397 0.01852 0.0
C21 C 0.90065 0.7709 0.92205 0.0
C22 C 0.58034 0.76452 0.06952 0.0
Dy23 Dy 0.80636 0.76348 0.97334 0.0
O24 O 0.59339 0.79787 0.05448 0.0
O25 O 0.61625 0.73604 0.05559 0.0
O26 O 0.6798 0.83997 0.01146 0.0
O27 O 0.78779 0.8063 0.01372 0.0
C28 C 0.7568 0.84041 0.00819 0.0
C29 C 0.72378 0.69716 0.9839 0.0
O30 O 0.89096 0.76134 0.02795 0.0
O31 O 0.78313 0.7461 0.05663 0.0
O32 O 0.88787 0.73817 0.93811 0.0
O33 O 0.86455 0.79995 0.93511 0.0
O34 O 0.80112 0.69757 0.98122 0.0
O35 O 0.69314 0.73128 0.97796 0.0
O36 O 0.59065 0.77644 0.9638 0.0
O37 O 0.69867 0.79197 0.93537 0.0
C38 C 0.8634 0.74813 0.05628 0.0
C39 C 0.61831 0.78981 0.93553 0.0
Dy40 Dy 0.30772 0.76615 0.47513 0.0
C41 C 0.06922 0.75751 0.56552 0.0
C42 C 0.407 0.76194 0.42555 0.0
Dy43 Dy 0.16898 0.75146 0.51629 0.0
O44 O 0.3836 0.79436 0.43886 0.0
O45 O 0.37899 0.73163 0.44057 0.0
O46 O 0.30305 0.83114 0.48714 0.0
O47 O 0.19348 0.79717 0.4794 0.0
C48 C 0.22452 0.83092 0.48799 0.0
C49 C 0.25176 0.68664 0.50326 0.0
O50 O 0.0899 0.75062 0.46052 0.0
O51 O 0.20297 0.73964 0.43388 0.0
O52 O 0.09225 0.72457 0.55293 0.0
O53 O 0.09788 0.78724 0.54997 0.0
O54 O 0.17331 0.68638 0.50439 0.0
O55 O 0.28282 0.72037 0.51191 0.0
O56 O 0.38741 0.76659 0.53075 0.0
O57 O 0.27479 0.77663 0.55794 0.0
C58 C 0.12184 0.74023 0.43253 0.0
C59 C 0.35583 0.77621 0.55903 0.0
Dy60 Dy 0.80619 0.2647 0.47469 0.0
C61 C 0.57318 0.257 0.56763 0.0
C62 C 0.90643 0.25483 0.42618 0.0
Dy63 Dy 0.66872 0.25236 0.51666 0.0
O64 O 0.89735 0.28777 0.44267 0.0
O65 O 0.86314 0.22703 0.43728 0.0
O66 O 0.80204 0.33051 0.48312 0.0
O67 O 0.69289 0.29673 0.47836 0.0
C68 C 0.72424 0.33071 0.48522 0.0
C69 C 0.75084 0.18681 0.50473 0.0
O70 O 0.58705 0.24969 0.46157 0.0
O71 O 0.69866 0.23986 0.4336 0.0
O72 O 0.60545 0.22489 0.55782 0.0
O73 O 0.58994 0.28657 0.54827 0.0
O74 O 0.67206 0.18713 0.50514 0.0
O75 O 0.78236 0.22053 0.51294 0.0
O76 O 0.88461 0.26544 0.53064 0.0
O77 O 0.77256 0.28229 0.55574 0.0
C78 C 0.61779 0.2398 0.43313 0.0
C79 C 0.85362 0.27929 0.55777 0.0
C80 C 0.71492 0.62371 0.99004 0.0
C81 C 0.67522 0.66071 0.98621 0.0
C82 C 0.66905 0.58889 0.99083 0.0
C83 C 0.45614 0.54808 0.96391 0.0
H84 H 0.54452 0.46363 0.03054 0.0
C85 C 0.2617 0.41077 0.98729 0.0
C86 C 0.30246 0.37409 0.99301 0.0
C87 C 0.30667 0.44554 0.98472 0.0
C88 C 0.5194 0.48667 0.01139 0.0
H89 H 0.55672 0.6905 0.98081 0.0
H90 H 0.47636 0.62962 0.98248 0.0
H91 H 0.62337 0.52491 0.03079 0.0
H92 H 0.42165 0.34471 -0.00067 0.0
H93 H 0.50011 0.40528 -0.00576 0.0
H94 H 0.3521 0.50979 0.94453 0.0
C95 C 0.54284 0.62745 0.98438 0.0
C96 C 0.56458 0.52188 0.0116 0.0
C97 C 0.58885 0.66233 0.98366 0.0
C98 C 0.38864 0.37262 -0.00498 0.0
C99 C 0.43364 0.40737 0.99241 0.0
C100 C 0.41095 0.51282 0.96367 0.0
C101 C 0.58237 0.59028 0.98779 0.0
C102 C 0.53356 0.55303 0.98786 0.0
C103 C 0.39342 0.44436 0.98779 0.0
C104 C 0.44204 0.48165 0.9874 0.0
H105 H 0.78146 0.6216 0.99203 0.0
H106 H 0.70138 0.56079 0.99308 0.0
H107 H 0.43102 0.57123 0.94488 0.0
H108 H 0.19529 0.41276 0.98569 0.0
H109 H 0.27375 0.47349 0.9815 0.0
C110 C 0.26057 0.61382 0.49296 0.0
C111 C 0.30041 0.65078 0.4994 0.0
C112 C 0.30665 0.57947 0.49087 0.0
C113 C 0.51949 0.53899 0.5184 0.0
H114 H 0.43428 0.45693 0.44841 0.0
C115 C 0.71634 0.40386 0.49402 0.0
C116 C 0.6761 0.36693 0.48842 0.0
C117 C 0.67073 0.43845 0.49578 0.0
C118 C 0.45852 0.47935 0.46841 0.0
H119 H 0.4194 0.68103 0.50799 0.0
H120 H 0.50002 0.6211 0.50389 0.0
H121 H 0.35492 0.51767 0.44947 0.0
H122 H 0.55689 0.33699 0.48086 0.0
H123 H 0.47708 0.39736 0.48422 0.0
H124 H 0.62315 0.50066 0.53728 0.0
C125 C 0.43328 0.6185 0.50102 0.0
C126 C 0.41304 0.51422 0.469 0.0
C127 C 0.38711 0.65288 0.50312 0.0
C128 C 0.58949 0.36511 0.48509 0.0
C129 C 0.54377 0.39972 0.48677 0.0
C130 C 0.56501 0.50414 0.51778 0.0
C131 C 0.39368 0.5813 0.49513 0.0
C132 C 0.44287 0.54447 0.49403 0.0
C133 C 0.58379 0.43686 0.49193 0.0
C134 C 0.53505 0.47385 0.4928 0.0
H135 H 0.19377 0.61134 0.49001 0.0
H136 H 0.27416 0.55133 0.48672 0.0
H137 H 0.54369 0.56135 0.53845 0.0
H138 H 0.7831 0.40611 0.49668 0.0
H139 H 0.70345 0.46656 0.4994 0.0
C140 C 0.21702 0.11979 0.97976 0.0
C141 C 0.18734 0.15765 0.98562 0.0
C142 C 0.17037 0.08601 0.98371 0.0
C143 C 0.957 0.05211 0.97984 0.0
H144 H 0.06324 0.96004 0.03102 0.0
C145 C 0.76849 0.91419 0.00618 0.0
C146 C 0.80498 0.87679 0.00506 0.0
C147 C 0.81462 0.94876 0.00437 0.0
C148 C 0.03268 0.98523 0.01616 0.0
H149 H 0.08541 0.19012 -0.00036 0.0
H150 H 0.00315 0.13092 0.00648 0.0
H151 H 0.14464 0.01987 0.02751 0.0
H152 H 0.91771 0.84604 0.00052 0.0
H153 H -0.00235 0.90623 -0.00387 0.0
H154 H 0.84554 0.01737 0.96764 0.0
C155 C 0.06279 0.1274 -0.00098 0.0
C156 C 0.07937 0.0196 0.01434 0.0
C157 C 0.11006 0.16122 -0.00454 0.0
C158 C 0.88812 0.87453 0.00158 0.0
C159 C 0.93408 0.90909 -0.00062 0.0
C160 C 0.91042 0.0176 0.98134 0.0
C161 C 0.0925 0.08942 0.99315 0.0
C162 C 0.0421 0.05339 -0.0039 0.0
C163 C 0.89815 0.94672 0.00101 0.0
C164 C 0.94765 0.98362 -0.00054 0.0
H165 H 0.27631 0.11625 0.97197 0.0
H166 H 0.19448 0.05721 0.9786 0.0
H167 H 0.92682 0.07752 0.96518 0.0
H168 H 0.70453 0.9168 0.009 0.0
H169 H 0.78506 0.97707 0.00627 0.0
C170 C 0.88577 0.15236 0.50535 0.0
C171 C 0.79892 0.15067 0.50116 0.0
C172 C 0.93143 0.11777 0.50349 0.0
C173 C 0.91879 1.00876 0.5129 0.0
H174 H 0.10549 1.00875 0.46515 0.0
C175 C 0.08881 0.86491 0.48694 0.0
C176 C 0.17573 0.86686 0.49147 0.0
C177 C 0.04258 0.89937 0.48859 0.0
C178 C 0.05413 1.00834 0.47897 0.0
H179 H 0.69141 0.11178 0.4909 0.0
H180 H 0.77078 0.05145 0.48726 0.0
H181 H 0.0253 0.06922 0.46616 0.0
H182 H 0.28272 0.90608 0.5021 0.0
H183 H 0.20235 0.96615 0.50534 0.0
H184 H 0.94763 0.94787 0.52569 0.0
C185 C 0.80397 0.07932 0.49261 0.0
C186 C 0.0081 0.04304 0.47952 0.0
C187 C 0.7584 0.1139 0.49446 0.0
C188 C 0.2157 0.90374 0.4983 0.0
C189 C 0.16957 0.93818 0.49991 0.0
C190 C 0.96481 0.97405 0.51232 0.0
C191 C 0.89115 0.08075 0.4974 0.0
C192 C 0.93986 0.04372 0.49652 0.0
C193 C 0.08235 0.93651 0.49477 0.0
C194 C 0.03316 0.97341 0.4954 0.0
H195 H 0.91862 0.18034 0.51056 0.0
H196 H -0.0015 0.11994 0.50765 0.0
H197 H 0.86747 1.00837 0.52674 0.0
H198 H 0.05637 0.83684 0.48157 0.0
H199 H 0.97549 0.89702 0.48418 0.0
C200 C 0.56396 0.19702 0.38052 0.0
C201 C 0.56299 0.23364 0.39781 0.0
C202 C 0.53633 0.19408 0.34305 0.0
C203 C 0.44021 0.25197 0.26009 0.0
H204 H 0.58323 0.18541 0.21583 0.0
C205 C 0.46519 0.26969 0.11214 0.0
C206 C 0.42405 0.23797 0.09194 0.0
C207 C 0.49121 0.26624 0.14968 0.0
C208 C 0.54327 0.20412 0.22801 0.0
H209 H 0.53016 0.29551 0.39065 0.0
H210 H 0.48436 0.29109 0.32519 0.0
H211 H 0.59675 0.18415 0.28141 0.0
H212 H 0.38288 0.17717 0.09386 0.0
H213 H 0.43257 0.17044 0.15947 0.0
H214 H 0.38979 0.27307 0.20645 0.0
C215 C 0.50334 0.26413 0.34017 0.0
C216 C 0.54982 0.20307 0.26547 0.0
C217 C 0.52921 0.26677 0.37775 0.0
C218 C 0.4162 0.20164 0.10902 0.0
C219 C 0.44394 0.1979 0.1464 0.0
C220 C 0.43507 0.25362 0.2228 0.0
C221 C 0.51002 0.22808 0.32218 0.0
C222 C 0.49842 0.22705 0.28204 0.0
C223 C 0.47773 0.23079 0.16708 0.0
C224 C 0.4868 0.22986 0.20661 0.0
H225 H 0.5911 0.17128 0.39567 0.0
H226 H 0.54002 0.1656 0.33031 0.0
H227 H 0.39854 0.27029 0.27165 0.0
H228 H 0.46984 0.29821 0.09948 0.0
H229 H 0.51704 0.29193 0.16536 0.0
C230 C 0.52493 0.79527 0.11954 0.0
C231 C 0.54743 0.76107 0.10285 0.0
C232 C 0.5068 0.7932 0.154 0.0
C233 C 0.54802 0.73071 0.23643 0.0
H234 H 0.38544 0.79968 0.26527 0.0
C235 C 0.45147 0.72369 0.37618 0.0
C236 C 0.44036 0.76025 0.39225 0.0
C237 C 0.46847 0.72233 0.3414 0.0
C238 C 0.43164 0.7805 0.25769 0.0
H239 H 0.56494 0.69758 0.10824 0.0
H240 H 0.53107 0.69367 0.1681 0.0
H241 H 0.39891 0.79876 0.20231 0.0
H242 H 0.4424 0.82402 0.38548 0.0
H243 H 0.47218 0.82165 0.32493 0.0
H244 H 0.57978 0.71222 0.292 0.0
C245 C 0.52923 0.72229 0.15497 0.0
C246 C 0.43937 0.77994 0.22158 0.0
C247 C 0.5477 0.72442 0.12051 0.0
C248 C 0.45063 0.7954 0.37375 0.0
C249 C 0.4669 0.79405 0.33896 0.0
C250 C 0.53974 0.73104 0.27256 0.0
C251 C 0.51037 0.75681 0.17251 0.0
C252 C 0.49829 0.75538 0.21051 0.0
C253 C 0.47385 0.75751 0.32203 0.0
C254 C 0.48215 0.75631 0.28364 0.0
H255 H 0.5248 0.82397 0.10665 0.0
H256 H 0.4935 0.82048 0.16672 0.0
H257 H 0.59498 0.71187 0.22907 0.0
H258 H 0.44349 0.69613 0.38981 0.0
H259 H 0.47343 0.69374 0.32902 0.0
C260 C 0.51378 0.76458 0.88355 0.0
C261 C 0.56137 0.79639 0.90071 0.0
C262 C 0.48396 0.76526 0.84606 0.0
C263 C 0.43646 0.8227 0.76364 0.0
H264 H 0.5602 0.74374 0.72233 0.0
C265 C 0.41712 0.81911 0.61069 0.0
C266 C 0.40956 0.78149 0.59472 0.0
C267 C 0.44351 0.82298 0.64817 0.0
C268 C 0.52416 0.7656 0.73324 0.0
H269 H 0.60941 0.85497 0.89354 0.0
H270 H 0.55331 0.85702 0.82815 0.0
H271 H 0.57151 0.74612 0.78765 0.0
H272 H 0.42502 0.71856 0.6043 0.0
H273 H 0.46889 0.72479 0.66968 0.0
H274 H 0.38637 0.84146 0.70948 0.0
C275 C 0.54003 0.83152 0.84347 0.0
C276 C 0.53068 0.76688 0.77063 0.0
C277 C 0.57162 0.83044 0.88075 0.0
C278 C 0.43291 0.74793 0.61619 0.0
C279 C 0.45769 0.75163 0.65371 0.0
C280 C 0.42838 0.82091 0.72611 0.0
C281 C 0.49984 0.79814 0.8257 0.0
C282 C 0.4869 0.7954 0.78604 0.0
C283 C 0.46017 0.78912 0.67032 0.0
C284 C 0.47235 0.79238 0.71039 0.0
H285 H 0.50684 0.73774 0.89843 0.0
H286 H 0.45313 0.73921 0.83267 0.0
H287 H 0.40273 0.8451 0.77516 0.0
H288 H 0.39766 0.84525 0.59446 0.0
H289 H 0.44685 0.85238 0.65986 0.0
C290 C 0.54793 0.22784 0.62482 0.0
C291 C 0.54359 0.26073 0.60171 0.0
C292 C 0.53591 0.23236 0.66007 0.0
C293 C 0.44792 0.29587 0.72081 0.0
H294 H 0.6191 0.2493 0.79577 0.0
C295 C 0.44051 0.31529 0.87136 0.0
C296 C 0.45659 0.28109 0.89286 0.0
C297 C 0.45926 0.3164 0.83697 0.0
C298 C 0.57033 0.26219 0.77523 0.0
H299 H 0.51879 0.32373 0.59651 0.0
H300 H 0.49558 0.3315 0.65816 0.0
H301 H 0.62767 0.24283 0.7324 0.0
H302 H 0.50879 0.22202 0.89621 0.0
H303 H 0.5403 0.22352 0.8361 0.0
H304 H 0.38893 0.31416 0.76334 0.0
C305 C 0.50908 0.30231 0.649 0.0
C306 C 0.57532 0.2585 0.73892 0.0
C307 C 0.52209 0.29785 0.61375 0.0
C308 C 0.49622 0.24888 0.88029 0.0
C309 C 0.51434 0.24982 0.84577 0.0
C310 C 0.44237 0.29921 0.75713 0.0
C311 C 0.51841 0.2698 0.67282 0.0
C312 C 0.51376 0.27495 0.71133 0.0
C313 C 0.49384 0.28317 0.82322 0.0
C314 C 0.50317 0.28211 0.78482 0.0
H315 H 0.56447 0.19886 0.61628 0.0
H316 H 0.54208 0.20668 0.67767 0.0
H317 H 0.39942 0.30866 0.70007 0.0
H318 H 0.41018 0.34062 0.88049 0.0
H319 H 0.44446 0.34293 0.82076 0.0
C320 C 0.91987 0.70356 0.10714 0.0
C321 C 0.92054 0.74079 0.09082 0.0
C322 C 0.9498 0.69927 0.14434 0.0
C323 C 0.05108 0.75419 0.22847 0.0
H324 H 0.90848 0.68605 0.27201 0.0
C325 C 0.02877 0.76627 0.37764 0.0
C326 C 0.06851 0.73373 0.39688 0.0
C327 C 0.00359 0.7644 0.33996 0.0
C328 C 0.9484 0.70517 0.26004 0.0
H329 H 0.95574 0.80235 0.09942 0.0
H330 H 0.00553 0.79556 0.16452 0.0
H331 H 0.89231 0.68716 0.20633 0.0
H332 H 0.10863 0.67316 0.39305 0.0
H333 H 0.06017 0.66914 0.32715 0.0
H334 H 0.10405 0.77336 0.28255 0.0
C335 C 0.98485 0.76916 0.1489 0.0
C336 C 0.94031 0.70547 0.2225 0.0
C337 C 0.9567 0.77316 0.11151 0.0
C338 C 0.07633 0.69824 0.37861 0.0
C339 C 0.04934 0.69605 0.34108 0.0
C340 C 0.0578 0.75447 0.26592 0.0
C341 C 0.97815 0.73251 0.16601 0.0
C342 C 0.99149 0.73005 0.20617 0.0
C343 C 0.01644 0.72969 0.32145 0.0
C344 C 0.00627 0.73011 0.28185 0.0
H345 H 0.8911 0.67836 0.09151 0.0
H346 H 0.94613 0.67034 0.15634 0.0
H347 H 0.09254 0.77295 0.21708 0.0
H348 H 0.02427 0.79419 0.39126 0.0
H349 H 0.97843 0.79065 0.3251 0.0
C350 C 0.93225 0.21707 0.37289 0.0
C351 C 0.943 0.25179 0.39386 0.0
C352 C 0.95349 0.21638 0.33896 0.0
C353 C 0.07155 0.26985 0.28035 0.0
H354 H 0.90427 0.22641 0.20171 0.0
C355 C 0.07911 0.30282 0.13241 0.0
C356 C 0.06497 0.27113 0.10781 0.0
C357 C 0.06279 0.29875 0.16698 0.0
C358 C 0.95204 0.23822 0.2234 0.0
H359 H 0.98804 0.31235 0.39678 0.0
H360 H 0.02574 0.31116 0.33769 0.0
H361 H 0.8856 0.22089 0.26395 0.0
H362 H 0.01962 0.2108 0.09941 0.0
H363 H 0.99087 0.20353 0.16015 0.0
H364 H 0.13774 0.28745 0.2399 0.0
C365 C 0.0011 0.2844 0.34738 0.0
C366 C 0.94149 0.23499 0.25908 0.0
C367 C 0.97947 0.28514 0.38122 0.0
C368 C 0.03057 0.23578 0.11783 0.0
C369 C 0.01428 0.23164 0.15259 0.0
C370 C 0.08215 0.27303 0.24474 0.0
C371 C 0.98635 0.25034 0.32546 0.0
C372 C 0.00069 0.25117 0.28792 0.0
C373 C 0.03222 0.2628 0.17785 0.0
C374 C 0.02198 0.25775 0.21578 0.0
H375 H 0.90413 0.19093 0.38199 0.0
H376 H 0.94258 0.18951 0.32296 0.0
H377 H 0.11888 0.28208 0.30199 0.0
H378 H 0.10532 0.33049 0.12535 0.0
H379 H 0.07542 0.32364 0.18544 0.0
C380 C 0.95711 0.25604 0.6111 0.0
C381 C 0.90694 0.28661 0.59336 0.0
C382 C 0.98489 0.25724 0.6487 0.0
C383 C 0.01643 0.31811 0.73028 0.0
H384 H 0.92516 0.2284 0.77336 0.0
C385 C 0.04138 0.31204 0.88348 0.0
C386 C 0.06808 0.27559 0.89943 0.0
C387 C 0.01082 0.31446 0.8461 0.0
C388 C 0.95183 0.25345 0.76188 0.0
H389 H 0.85216 0.34372 0.59967 0.0
H390 H 0.90403 0.3467 0.66523 0.0
H391 H 0.91216 0.23113 0.70792 0.0
H392 H 0.0816 0.21302 0.89013 0.0
H393 H 0.02946 0.21692 0.82504 0.0
H394 H 0.05858 0.34001 0.78407 0.0
C395 C 0.92098 0.3217 0.65034 0.0
C396 C 0.94463 0.25489 0.72445 0.0
C397 C 0.8917 0.32009 0.61295 0.0
C398 C 0.0591 0.24123 0.87825 0.0
C399 C 0.02948 0.24361 0.84092 0.0
C400 C 0.02498 0.31638 0.76782 0.0
C401 C 0.96414 0.28941 0.66865 0.0
C402 C 0.97716 0.28713 0.70841 0.0
C403 C 0.00834 0.28053 0.82419 0.0
C404 C -0.00708 0.28395 0.78411 0.0
H405 H 0.96817 0.22966 0.59648 0.0
H406 H 0.01848 0.23211 0.66241 0.0
H407 H 0.04145 0.34336 0.71835 0.0
H408 H 0.04968 0.33897 0.89947 0.0
H409 H -0.00661 0.34322 0.83418 0.0
C410 C 0.02641 0.72612 0.61848 0.0
C411 C 0.03579 0.76047 0.59873 0.0
C412 C 0.01037 0.72893 0.65326 0.0
C413 C 0.93714 0.79481 0.71756 0.0
H414 H 0.08069 0.73061 0.79004 0.0
C415 C 0.9319 0.80869 0.86948 0.0
C416 C 0.93325 0.7729 0.88857 0.0
C417 C 0.94981 0.80922 0.83486 0.0
C418 C 0.03948 0.74846 0.77015 0.0
H419 H 0.03117 0.82465 0.59887 0.0
H420 H 0.00163 0.82959 0.65958 0.0
H421 H 0.09279 0.72664 0.727 0.0
H422 H 0.95735 0.7099 0.88719 0.0
H423 H 0.98763 0.7106 0.82689 0.0
H424 H 0.88253 0.81605 0.76054 0.0
C425 C 0.00712 0.80049 0.64822 0.0
C426 C 0.04641 0.74615 0.73399 0.0
C427 C 0.02391 0.79767 0.61349 0.0
C428 C 0.95635 0.73797 0.87317 0.0
C429 C 0.97391 0.73844 0.83857 0.0
C430 C 0.92965 0.79688 0.75374 0.0
C431 C 0.00273 0.76617 0.66888 0.0
C432 C -0.00506 0.76906 0.70725 0.0
C433 C 0.96916 0.77392 0.81862 0.0
C434 C 0.9804 0.77353 0.78049 0.0
H435 H 0.0353 0.69704 0.60778 0.0
H436 H 0.00588 0.70195 0.6683 0.0
H437 H 0.89639 0.81268 0.69751 0.0
H438 H 0.91417 0.83606 0.88073 0.0
H439 H 0.94707 0.83719 0.82059 0.0
loop_
_geom_bond_atom_site_label_1
_geom_bond_atom_site_label_2
_geom_bond_distance
_geom_bond_site_symmetry_2
_ccdc_geom_bond_type
Dy0 O4 2.398 . S
Dy0 O5 2.491 . S
Dy0 O6 2.403 . S
Dy0 O7 2.664 1_554 S
Dy0 O11 2.326 . S
Dy0 O15 2.310 . S
Dy0 O16 2.351 1_554 S
C1 O12 1.185 . S
C1 O13 1.355 . S
C2 O4 1.185 . S
C2 O5 1.355 . S
Dy3 O7 2.310 . S
Dy3 O10 2.351 1_556 S
Dy3 O12 2.398 . S
Dy3 O13 2.491 . S
Dy3 O14 2.403 . S
Dy3 O15 2.664 1_556 S
Dy3 O17 2.326 . S
O4 Dy0 2.398 . S
O4 C2 1.185 . S
O5 Dy0 2.491 . S
O5 C2 1.355 . S
O6 Dy0 2.403 . S
O6 C8 1.254 . S
O7 Dy0 2.664 1_556 S
O7 Dy3 2.310 . S
O7 C8 1.268 1_556 S
C8 O6 1.254 . S
C8 O7 1.268 1_554 S
C9 O14 1.255 1_554 S
C9 O15 1.267 . S
O10 Dy3 2.351 1_554 S
O10 C18 1.249 . S
O11 Dy0 2.326 . S
O11 C18 1.267 . S
O12 C1 1.185 . S
O12 Dy3 2.398 . S
O13 C1 1.355 . S
O13 Dy3 2.491 . S
O14 Dy3 2.403 . S
O14 C9 1.255 1_556 S
O15 Dy0 2.310 . S
O15 Dy3 2.664 1_554 S
O15 C9 1.267 . S
O16 Dy0 2.351 1_556 S
O16 C19 1.249 . S
O17 Dy3 2.326 . S
O17 C19 1.267 . S
C18 O10 1.249 . S
C18 O11 1.267 . S
C19 O16 1.249 . S
C19 O17 1.267 . S
Dy20 O24 2.398 . S
Dy20 O25 2.491 . S
Dy20 O26 2.403 . S
Dy20 O27 2.664 1_554 S
Dy20 O31 2.326 . S
Dy20 O35 2.310 . S
Dy20 O36 2.351 1_554 S
C21 O32 1.185 . S
C21 O33 1.355 . S
C22 O24 1.185 . S
C22 O25 1.355 . S
Dy23 O27 2.310 . S
Dy23 O30 2.351 1_556 S
Dy23 O32 2.398 . S
Dy23 O33 2.491 . S
Dy23 O34 2.403 . S
Dy23 O35 2.664 1_556 S
Dy23 O37 2.326 . S
O24 Dy20 2.398 . S
O24 C22 1.185 . S
O25 Dy20 2.491 . S
O25 C22 1.355 . S
O26 Dy20 2.403 . S
O26 C28 1.254 . S
O27 Dy20 2.664 1_556 S
O27 Dy23 2.310 . S
O27 C28 1.268 1_556 S
C28 O26 1.254 . S
C28 O27 1.268 1_554 S
C29 O34 1.255 1_554 S
C29 O35 1.267 . S
O30 Dy23 2.351 1_554 S
O30 C38 1.249 . S
O31 Dy20 2.326 . S
O31 C38 1.267 . S
O32 C21 1.185 . S
O32 Dy23 2.398 . S
O33 C21 1.355 . S
O33 Dy23 2.491 . S
O34 Dy23 2.403 . S
O34 C29 1.255 1_556 S
O35 Dy20 2.310 . S
O35 Dy23 2.664 1_554 S
O35 C29 1.267 . S
O36 Dy20 2.351 1_556 S
O36 C39 1.249 . S
O37 Dy23 2.326 . S
O37 C39 1.267 . S
C38 O30 1.249 . S
C38 O31 1.267 . S
C39 O36 1.249 . S
C39 O37 1.267 . S
Dy40 O44 2.398 . S
Dy40 O45 2.491 . S
Dy40 O46 2.403 . S
Dy40 O47 2.664 . S
Dy40 O51 2.326 . S
Dy40 O55 2.310 . S
Dy40 O56 2.351 . S
C41 O52 1.185 . S
C41 O53 1.355 . S
C42 O44 1.185 . S
C42 O45 1.355 . S
Dy43 O47 2.310 . S
Dy43 O50 2.351 . S
Dy43 O52 2.398 . S
Dy43 O53 2.491 . S
Dy43 O54 2.403 . S
Dy43 O55 2.664 . S
Dy43 O57 2.326 . S
O44 Dy40 2.398 . S
O44 C42 1.185 . S
O45 Dy40 2.491 . S
O45 C42 1.355 . S
O46 Dy40 2.403 . S
O46 C48 1.254 . S
O47 Dy40 2.664 . S
O47 Dy43 2.310 . S
O47 C48 1.268 . S
C48 O46 1.254 . S
C48 O47 1.268 . S
C49 O54 1.254 . S
C49 O55 1.268 . S
O50 Dy43 2.351 . S
O50 C58 1.249 . S
O51 Dy40 2.326 . S
O51 C58 1.267 . S
O52 C41 1.185 . S
O52 Dy43 2.398 . S
O53 C41 1.355 . S
O53 Dy43 2.491 . S
O54 Dy43 2.403 . S
O54 C49 1.254 . S
O55 Dy40 2.310 . S
O55 Dy43 2.664 . S
O55 C49 1.268 . S
O56 Dy40 2.351 . S
O56 C59 1.249 . S
O57 Dy43 2.326 . S
O57 C59 1.267 . S
C58 O50 1.249 . S
C58 O51 1.267 . S
C59 O56 1.249 . S
C59 O57 1.267 . S
Dy60 O64 2.398 . S
Dy60 O65 2.491 . S
Dy60 O66 2.403 . S
Dy60 O67 2.664 . S
Dy60 O71 2.326 . S
Dy60 O75 2.310 . S
Dy60 O76 2.351 . S
C61 O72 1.185 . S
C61 O73 1.355 . S
C62 O64 1.185 . S
C62 O65 1.355 . S
Dy63 O67 2.310 . S
Dy63 O70 2.351 . S
Dy63 O72 2.398 . S
Dy63 O73 2.491 . S
Dy63 O74 2.403 . S
Dy63 O75 2.664 . S
Dy63 O77 2.326 . S
O64 Dy60 2.398 . S
O64 C62 1.185 . S
O65 Dy60 2.491 . S
O65 C62 1.355 . S
O66 Dy60 2.403 . S
O66 C68 1.254 . S
O67 Dy60 2.664 . S
O67 Dy63 2.310 . S
O67 C68 1.268 . S
C68 O66 1.254 . S
C68 O67 1.268 . S
C69 O74 1.254 . S
C69 O75 1.268 . S
O70 Dy63 2.351 . S
O70 C78 1.249 . S
O71 Dy60 2.326 . S
O71 C78 1.267 . S
O72 C61 1.185 . S
O72 Dy63 2.398 . S
O73 C61 1.355 . S
O73 Dy63 2.491 . S
O74 Dy63 2.403 . S
O74 C69 1.254 . S
O75 Dy60 2.310 . S
O75 Dy63 2.664 . S
O75 C69 1.268 . S
O76 Dy60 2.351 . S
O76 C79 1.249 . S
O77 Dy63 2.326 . S
O77 C79 1.267 . S
C78 O70 1.249 . S
C78 O71 1.267 . S
C79 O76 1.249 . S
C79 O77 1.267 . S
C80 C81 1.349 1_556 S
C80 C82 1.327 . S
C80 H105 0.950 . S
C81 C80 1.349 1_554 S
C81 C97 1.349 . S
C82 C80 1.327 . S
C82 C101 1.429 1_556 S
C82 H106 0.950 . S
C83 C100 1.574 . S
C83 C102 1.368 . S
C83 H107 0.949 . S
H84 C88 0.949 . S
C85 C86 1.354 . S
C85 C87 1.327 . S
C85 H108 0.950 . S
C86 C85 1.354 . S
C86 C98 1.343 1_554 S
C87 C85 1.327 . S
C87 C103 1.453 . S
C87 H109 0.950 . S
C88 H84 0.949 . S
C88 C96 1.574 . S
C88 C104 1.368 1_556 S
H89 C97 0.950 . S
H90 C95 0.950 . S
H91 C96 0.949 . S
H92 C98 0.950 . S
H93 C99 0.950 . S
H94 C100 0.949 . S
C95 H90 0.950 . S
C95 C97 1.327 . S
C95 C101 1.429 . S
C96 C88 1.574 . S
C96 H91 0.949 . S
C96 C102 1.368 1_556 S
C97 C81 1.349 . S
C97 H89 0.950 . S
C97 C95 1.327 . S
C98 C86 1.343 1_556 S
C98 H92 0.950 . S
C98 C99 1.327 . S
C99 H93 0.950 . S
C99 C98 1.327 . S
C99 C103 1.408 1_556 S
C100 C83 1.574 . S
C100 H94 0.949 . S
C100 C104 1.368 . S
C101 C82 1.429 1_554 S
C101 C95 1.429 . S
C101 C102 1.523 . S
C102 C83 1.368 . S
C102 C96 1.368 1_554 S
C102 C101 1.523 . S
C103 C87 1.453 . S
C103 C99 1.408 1_554 S
C103 C104 1.520 . S
C104 C88 1.368 1_554 S
C104 C100 1.368 . S
C104 C103 1.520 . S
H105 C80 0.950 . S
H106 C82 0.950 . S
H107 C83 0.949 . S
H108 C85 0.950 . S
H109 C87 0.950 . S
C110 C111 1.349 . S
C110 C112 1.327 . S
C110 H135 0.950 . S
C111 C110 1.349 . S
C111 C127 1.349 . S
C112 C110 1.327 . S
C112 C131 1.429 . S
C112 H136 0.950 . S
C113 C130 1.574 . S
C113 C132 1.368 . S
C113 H137 0.949 . S
H114 C118 0.949 . S
C115 C116 1.349 . S
C115 C117 1.327 . S
C115 H138 0.950 . S
C116 C115 1.349 . S
C116 C128 1.349 . S
C117 C115 1.327 . S
C117 C133 1.429 . S
C117 H139 0.950 . S
C118 H114 0.949 . S
C118 C126 1.574 . S
C118 C134 1.368 . S
H119 C127 0.950 . S
H120 C125 0.950 . S
H121 C126 0.949 . S
H122 C128 0.950 . S
H123 C129 0.950 . S
H124 C130 0.949 . S
C125 H120 0.950 . S
C125 C127 1.327 . S
C125 C131 1.429 . S
C126 C118 1.574 . S
C126 H121 0.949 . S
C126 C132 1.368 . S
C127 C111 1.349 . S
C127 H119 0.950 . S
C127 C125 1.327 . S
C128 C116 1.349 . S
C128 H122 0.950 . S
C128 C129 1.327 . S
C129 H123 0.950 . S
C129 C128 1.327 . S
C129 C133 1.429 . S
C130 C113 1.574 . S
C130 H124 0.949 . S
C130 C134 1.368 . S
C131 C112 1.429 . S
C131 C125 1.429 . S
C131 C132 1.523 . S
C132 C113 1.368 . S
C132 C126 1.368 . S
C132 C131 1.523 . S
C133 C117 1.429 . S
C133 C129 1.429 . S
C133 C134 1.523 . S
C134 C118 1.368 . S
C134 C130 1.368 . S
C134 C133 1.523 . S
H135 C110 0.950 . S
H136 C112 0.950 . S
H137 C113 0.949 . S
H138 C115 0.950 . S
H139 C117 0.950 . S
C140 C141 1.349 1_556 S
C140 C142 1.327 . S
C140 H165 0.950 . S
C141 C140 1.349 1_554 S
C141 C157 1.349 . S
C142 C140 1.327 . S
C142 C161 1.429 1_556 S
C142 H166 0.950 . S
C143 C160 1.574 1_545 S
C143 C162 1.368 1_655 S
C143 H167 0.949 . S
H144 C148 0.949 . S
C145 C146 1.353 . S
C145 C147 1.327 . S
C145 H168 0.950 . S
C146 C145 1.353 . S
C146 C158 1.344 1_554 S
C147 C145 1.327 . S
C147 C163 1.449 . S
C147 H169 0.950 . S
C148 H144 0.949 . S
C148 C156 1.574 1_565 S
C148 C164 1.368 1_456 S
H149 C157 0.950 . S
H150 C155 0.950 . S
H151 C156 0.949 . S
H152 C158 0.950 . S
H153 C159 0.950 . S
H154 C160 0.949 . S
C155 H150 0.950 . S
C155 C157 1.327 . S
C155 C161 1.429 . S
C156 C148 1.574 1_545 S
C156 H151 0.949 . S
C156 C162 1.368 1_556 S
C157 C141 1.349 . S
C157 H149 0.950 . S
C157 C155 1.327 . S
C158 C146 1.344 1_556 S
C158 H152 0.950 . S
C158 C159 1.327 . S
C159 H153 0.950 . S
C159 C158 1.327 . S
C159 C163 1.411 1_556 S
C160 C143 1.574 1_565 S
C160 H154 0.949 . S
C160 C164 1.368 . S
C161 C142 1.429 1_554 S
C161 C155 1.429 . S
C161 C162 1.523 . S
C162 C143 1.368 1_455 S
C162 C156 1.368 1_554 S
C162 C161 1.523 . S
C163 C147 1.449 . S
C163 C159 1.411 1_554 S
C163 C164 1.520 . S
C164 C148 1.368 1_654 S
C164 C160 1.368 . S
C164 C163 1.520 . S
H165 C140 0.950 . S
H166 C142 0.950 . S
H167 C143 0.949 . S
H168 C145 0.950 . S
H169 C147 0.950 . S
C170 C171 1.349 . S
C170 C172 1.327 . S
C170 H195 0.950 . S
C171 C170 1.349 . S
C171 C187 1.349 . S
C172 C170 1.327 . S
C172 C191 1.429 . S
C172 H196 0.950 1_655 S
C173 C190 1.574 1_545 S
C173 C192 1.368 . S
C173 H197 0.949 . S
H174 C178 0.949 . S
C175 C176 1.349 . S
C175 C177 1.327 . S
C175 H198 0.950 . S
C176 C175 1.349 . S
C176 C188 1.349 . S
C177 C175 1.327 . S
C177 C193 1.429 . S
C177 H199 0.950 1_455 S
C178 H174 0.949 . S
C178 C186 1.574 1_565 S
C178 C194 1.368 . S
H179 C187 0.950 . S
H180 C185 0.950 . S
H181 C186 0.949 . S
H182 C188 0.950 . S
H183 C189 0.950 . S
H184 C190 0.949 . S
C185 H180 0.950 . S
C185 C187 1.327 . S
C185 C191 1.429 . S
C186 C178 1.574 1_545 S
C186 H181 0.949 . S
C186 C192 1.368 1_455 S
C187 C171 1.349 . S
C187 H179 0.950 . S
C187 C185 1.327 . S
C188 C176 1.349 . S
C188 H182 0.950 . S
C188 C189 1.327 . S
C189 H183 0.950 . S
C189 C188 1.327 . S
C189 C193 1.429 . S
C190 C173 1.574 1_565 S
C190 H184 0.949 . S
C190 C194 1.368 1_655 S
C191 C172 1.429 . S
C191 C185 1.429 . S
C191 C192 1.523 . S
C192 C173 1.368 . S
C192 C186 1.368 1_655 S
C192 C191 1.523 . S
C193 C177 1.429 . S
C193 C189 1.429 . S
C193 C194 1.523 . S
C194 C178 1.368 . S
C194 C190 1.368 1_455 S
C194 C193 1.523 . S
H195 C170 0.950 . S
H196 C172 0.950 1_455 S
H197 C173 0.949 . S
H198 C175 0.950 . S
H199 C177 0.950 1_655 S
C200 C201 1.349 . S
C200 C202 1.327 . S
C200 H225 0.950 . S
C201 C200 1.349 . S
C201 C217 1.349 . S
C202 C200 1.327 . S
C202 C221 1.429 . S
C202 H226 0.950 . S
C203 C220 1.574 . S
C203 C222 1.368 . S
C203 H227 0.949 . S
H204 C208 0.949 . S
C205 C206 1.349 . S
C205 C207 1.327 . S
C205 H228 0.950 . S
C206 C205 1.349 . S
C206 C218 1.349 . S
C207 C205 1.327 . S
C207 C223 1.429 . S
C207 H229 0.950 . S
C208 H204 0.949 . S
C208 C216 1.574 . S
C208 C224 1.368 . S
H209 C217 0.950 . S
H210 C215 0.950 . S
H211 C216 0.949 . S
H212 C218 0.950 . S
H213 C219 0.950 . S
H214 C220 0.949 . S
C215 H210 0.950 . S
C215 C217 1.327 . S
C215 C221 1.429 . S
C216 C208 1.574 . S
C216 H211 0.949 . S
C216 C222 1.368 . S
C217 C201 1.349 . S
C217 H209 0.950 . S
C217 C215 1.327 . S
C218 C206 1.349 . S
C218 H212 0.950 . S
C218 C219 1.327 . S
C219 H213 0.950 . S
C219 C218 1.327 . S
C219 C223 1.429 . S
C220 C203 1.574 . S
C220 H214 0.949 . S
C220 C224 1.368 . S
C221 C202 1.429 . S
C221 C215 1.429 . S
C221 C222 1.523 . S
C222 C203 1.368 . S
C222 C216 1.368 . S
C222 C221 1.523 . S
C223 C207 1.429 . S
C223 C219 1.429 . S
C223 C224 1.523 . S
C224 C208 1.368 . S
C224 C220 1.368 . S
C224 C223 1.523 . S
H225 C200 0.950 . S
H226 C202 0.950 . S
H227 C203 0.949 . S
H228 C205 0.950 . S
H229 C207 0.950 . S
C230 C231 1.349 . S
C230 C232 1.327 . S
C230 H255 0.950 . S
C231 C230 1.349 . S
C231 C247 1.349 . S
C232 C230 1.327 . S
C232 C251 1.429 . S
C232 H256 0.950 . S
C233 C250 1.574 . S
C233 C252 1.368 . S
C233 H257 0.949 . S
H234 C238 0.949 . S
C235 C236 1.349 . S
C235 C237 1.327 . S
C235 H258 0.950 . S
C236 C235 1.349 . S
C236 C248 1.349 . S
C237 C235 1.327 . S
C237 C253 1.429 . S
C237 H259 0.950 . S
C238 H234 0.949 . S
C238 C246 1.574 . S
C238 C254 1.368 . S
H239 C247 0.950 . S
H240 C245 0.950 . S
H241 C246 0.949 . S
H242 C248 0.950 . S
H243 C249 0.950 . S
H244 C250 0.949 . S
C245 H240 0.950 . S
C245 C247 1.327 . S
C245 C251 1.429 . S
C246 C238 1.574 . S
C246 H241 0.949 . S
C246 C252 1.368 . S
C247 C231 1.349 . S
C247 H239 0.950 . S
C247 C245 1.327 . S
C248 C236 1.349 . S
C248 H242 0.950 . S
C248 C249 1.327 . S
C249 H243 0.950 . S
C249 C248 1.327 . S
C249 C253 1.429 . S
C250 C233 1.574 . S
C250 H244 0.949 . S
C250 C254 1.368 . S
C251 C232 1.429 . S
C251 C245 1.429 . S
C251 C252 1.523 . S
C252 C233 1.368 . S
C252 C246 1.368 . S
C252 C251 1.523 . S
C253 C237 1.429 . S
C253 C249 1.429 . S
C253 C254 1.523 . S
C254 C238 1.368 . S
C254 C250 1.368 . S
C254 C253 1.523 . S
H255 C230 0.950 . S
H256 C232 0.950 . S
H257 C233 0.949 . S
H258 C235 0.950 . S
H259 C237 0.950 . S
C260 C261 1.349 . S
C260 C262 1.327 . S
C260 H285 0.950 . S
C261 C260 1.349 . S
C261 C277 1.349 . S
C262 C260 1.327 . S
C262 C281 1.429 . S
C262 H286 0.950 . S
C263 C280 1.574 . S
C263 C282 1.368 . S
C263 H287 0.949 . S
H264 C268 0.949 . S
C265 C266 1.349 . S
C265 C267 1.327 . S
C265 H288 0.950 . S
C266 C265 1.349 . S
C266 C278 1.349 . S
C267 C265 1.327 . S
C267 C283 1.429 . S
C267 H289 0.950 . S
C268 H264 0.949 . S
C268 C276 1.574 . S
C268 C284 1.368 . S
H269 C277 0.950 . S
H270 C275 0.950 . S
H271 C276 0.949 . S
H272 C278 0.950 . S
H273 C279 0.950 . S
H274 C280 0.949 . S
C275 H270 0.950 . S
C275 C277 1.327 . S
C275 C281 1.429 . S
C276 C268 1.574 . S
C276 H271 0.949 . S
C276 C282 1.368 . S
C277 C261 1.349 . S
C277 H269 0.950 . S
C277 C275 1.327 . S
C278 C266 1.349 . S
C278 H272 0.950 . S
C278 C279 1.327 . S
C279 H273 0.950 . S
C279 C278 1.327 . S
C279 C283 1.429 . S
C280 C263 1.574 . S
C280 H274 0.949 . S
C280 C284 1.368 . S
C281 C262 1.429 . S
C281 C275 1.429 . S
C281 C282 1.523 . S
C282 C263 1.368 . S
C282 C276 1.368 . S
C282 C281 1.523 . S
C283 C267 1.429 . S
C283 C279 1.429 . S
C283 C284 1.523 . S
C284 C268 1.368 . S
C284 C280 1.368 . S
C284 C283 1.523 . S
H285 C260 0.950 . S
H286 C262 0.950 . S
H287 C263 0.949 . S
H288 C265 0.950 . S
H289 C267 0.950 . S
C290 C291 1.349 . S
C290 C292 1.327 . S
C290 H315 0.950 . S
C291 C290 1.349 . S
C291 C307 1.349 . S
C292 C290 1.327 . S
C292 C311 1.429 . S
C292 H316 0.950 . S
C293 C310 1.574 . S
C293 C312 1.368 . S
C293 H317 0.949 . S
H294 C298 0.949 . S
C295 C296 1.349 . S
C295 C297 1.327 . S
C295 H318 0.950 . S
C296 C295 1.349 . S
C296 C308 1.349 . S
C297 C295 1.327 . S
C297 C313 1.429 . S
C297 H319 0.950 . S
C298 H294 0.949 . S
C298 C306 1.574 . S
C298 C314 1.368 . S
H299 C307 0.950 . S
H300 C305 0.950 . S
H301 C306 0.949 . S
H302 C308 0.950 . S
H303 C309 0.950 . S
H304 C310 0.949 . S
C305 H300 0.950 . S
C305 C307 1.327 . S
C305 C311 1.429 . S
C306 C298 1.574 . S
C306 H301 0.949 . S
C306 C312 1.368 . S
C307 C291 1.349 . S
C307 H299 0.950 . S
C307 C305 1.327 . S
C308 C296 1.349 . S
C308 H302 0.950 . S
C308 C309 1.327 . S
C309 H303 0.950 . S
C309 C308 1.327 . S
C309 C313 1.429 . S
C310 C293 1.574 . S
C310 H304 0.949 . S
C310 C314 1.368 . S
C311 C292 1.429 . S
C311 C305 1.429 . S
C311 C312 1.523 . S
C312 C293 1.368 . S
C312 C306 1.368 . S
C312 C311 1.523 . S
C313 C297 1.429 . S
C313 C309 1.429 . S
C313 C314 1.523 . S
C314 C298 1.368 . S
C314 C310 1.368 . S
C314 C313 1.523 . S
H315 C290 0.950 . S
H316 C292 0.950 . S
H317 C293 0.949 . S
H318 C295 0.950 . S
H319 C297 0.950 . S
C320 C321 1.349 . S
C320 C322 1.327 . S
C320 H345 0.950 . S
C321 C320 1.349 . S
C321 C337 1.349 . S
C322 C320 1.327 . S
C322 C341 1.429 . S
C322 H346 0.950 . S
C323 C340 1.574 . S
C323 C342 1.368 . S
C323 H347 0.949 . S
H324 C328 0.949 . S
C325 C326 1.349 . S
C325 C327 1.327 . S
C325 H348 0.950 . S
C326 C325 1.349 . S
C326 C338 1.349 . S
C327 C325 1.327 . S
C327 C343 1.429 . S
C327 H349 0.950 . S
C328 H324 0.949 . S
C328 C336 1.574 . S
C328 C344 1.368 . S
H329 C337 0.950 . S
H330 C335 0.950 . S
H331 C336 0.949 . S
H332 C338 0.950 . S
H333 C339 0.950 . S
H334 C340 0.949 . S
C335 H330 0.950 . S
C335 C337 1.327 . S
C335 C341 1.429 . S
C336 C328 1.574 . S
C336 H331 0.949 . S
C336 C342 1.368 1_455 S
C337 C321 1.349 . S
C337 H329 0.950 . S
C337 C335 1.327 . S
C338 C326 1.349 . S
C338 H332 0.950 . S
C338 C339 1.327 . S
C339 H333 0.950 . S
C339 C338 1.327 . S
C339 C343 1.429 . S
C340 C323 1.574 . S
C340 H334 0.949 . S
C340 C344 1.368 1_655 S
C341 C322 1.429 . S
C341 C335 1.429 . S
C341 C342 1.523 . S
C342 C323 1.368 . S
C342 C336 1.368 1_655 S
C342 C341 1.523 . S
C343 C327 1.429 . S
C343 C339 1.429 . S
C343 C344 1.523 . S
C344 C328 1.368 . S
C344 C340 1.368 1_455 S
C344 C343 1.523 . S
H345 C320 0.950 . S
H346 C322 0.950 . S
H347 C323 0.949 . S
H348 C325 0.950 . S
H349 C327 0.950 . S
C350 C351 1.349 . S
C350 C352 1.327 . S
C350 H375 0.950 . S
C351 C350 1.349 . S
C351 C367 1.349 . S
C352 C350 1.327 . S
C352 C371 1.429 . S
C352 H376 0.950 . S
C353 C370 1.574 . S
C353 C372 1.368 1_455 S
C353 H377 0.949 . S
H354 C358 0.949 . S
C355 C356 1.349 . S
C355 C357 1.327 . S
C355 H378 0.950 . S
C356 C355 1.349 . S
C356 C368 1.349 . S
C357 C355 1.327 . S
C357 C373 1.429 . S
C357 H379 0.950 . S
C358 H354 0.949 . S
C358 C366 1.574 . S
C358 C374 1.368 1_655 S
H359 C367 0.950 . S
H360 C365 0.950 1_455 S
H361 C366 0.949 . S
H362 C368 0.950 . S
H363 C369 0.950 1_655 S
H364 C370 0.949 . S
C365 H360 0.950 1_655 S
C365 C367 1.327 . S
C365 C371 1.429 . S
C366 C358 1.574 . S
C366 H361 0.949 . S
C366 C372 1.368 . S
C367 C351 1.349 . S
C367 H359 0.950 . S
C367 C365 1.327 . S
C368 C356 1.349 . S
C368 H362 0.950 . S
C368 C369 1.327 . S
C369 H363 0.950 1_455 S
C369 C368 1.327 . S
C369 C373 1.429 . S
C370 C353 1.574 . S
C370 H364 0.949 . S
C370 C374 1.368 . S
C371 C352 1.429 . S
C371 C365 1.429 . S
C371 C372 1.523 . S
C372 C353 1.368 1_655 S
C372 C366 1.368 . S
C372 C371 1.523 . S
C373 C357 1.429 . S
C373 C369 1.429 . S
C373 C374 1.523 . S
C374 C358 1.368 1_455 S
C374 C370 1.368 . S
C374 C373 1.523 . S
H375 C350 0.950 . S
H376 C352 0.950 . S
H377 C353 0.949 . S
H378 C355 0.950 . S
H379 C357 0.950 . S
C380 C381 1.349 . S
C380 C382 1.327 . S
C380 H405 0.950 . S
C381 C380 1.349 . S
C381 C397 1.349 . S
C382 C380 1.327 . S
C382 C401 1.429 . S
C382 H406 0.950 . S
C383 C400 1.574 . S
C383 C402 1.368 . S
C383 H407 0.949 . S
H384 C388 0.949 . S
C385 C386 1.349 . S
C385 C387 1.327 . S
C385 H408 0.950 . S
C386 C385 1.349 . S
C386 C398 1.349 . S
C387 C385 1.327 . S
C387 C403 1.429 . S
C387 H409 0.950 . S
C388 H384 0.949 . S
C388 C396 1.574 . S
C388 C404 1.368 . S
H389 C397 0.950 . S
H390 C395 0.950 . S
H391 C396 0.949 . S
H392 C398 0.950 . S
H393 C399 0.950 . S
H394 C400 0.949 . S
C395 H390 0.950 . S
C395 C397 1.327 . S
C395 C401 1.429 . S
C396 C388 1.574 . S
C396 H391 0.949 . S
C396 C402 1.368 1_455 S
C397 C381 1.349 . S
C397 H389 0.950 . S
C397 C395 1.327 . S
C398 C386 1.349 . S
C398 H392 0.950 . S
C398 C399 1.327 . S
C399 H393 0.950 . S
C399 C398 1.327 . S
C399 C403 1.429 . S
C400 C383 1.574 . S
C400 H394 0.949 . S
C400 C404 1.368 1_655 S
C401 C382 1.429 . S
C401 C395 1.429 . S
C401 C402 1.523 . S
C402 C383 1.368 . S
C402 C396 1.368 1_655 S
C402 C401 1.523 . S
C403 C387 1.429 . S
C403 C399 1.429 . S
C403 C404 1.523 . S
C404 C388 1.368 . S
C404 C400 1.368 1_455 S
C404 C403 1.523 . S
H405 C380 0.950 . S
H406 C382 0.950 . S
H407 C383 0.949 . S
H408 C385 0.950 . S
H409 C387 0.950 . S
C410 C411 1.349 . S
C410 C412 1.327 . S
C410 H435 0.950 . S
C411 C410 1.349 . S
C411 C427 1.349 . S
C412 C410 1.327 . S
C412 C431 1.429 . S
C412 H436 0.950 . S
C413 C430 1.574 . S
C413 C432 1.368 1_655 S
C413 H437 0.949 . S
H414 C418 0.949 . S
C415 C416 1.349 . S
C415 C417 1.327 . S
C415 H438 0.950 . S
C416 C415 1.349 . S
C416 C428 1.349 . S
C417 C415 1.327 . S
C417 C433 1.429 . S
C417 H439 0.950 . S
C418 H414 0.949 . S
C418 C426 1.574 . S
C418 C434 1.368 1_455 S
H419 C427 0.950 . S
H420 C425 0.950 1_655 S
H421 C426 0.949 . S
H422 C428 0.950 . S
H423 C429 0.950 1_455 S
H424 C430 0.949 . S
C425 H420 0.950 1_455 S
C425 C427 1.327 . S
C425 C431 1.429 . S
C426 C418 1.574 . S
C426 H421 0.949 . S
C426 C432 1.368 . S
C427 C411 1.349 . S
C427 H419 0.950 . S
C427 C425 1.327 . S
C428 C416 1.349 . S
C428 H422 0.950 . S
C428 C429 1.327 . S
C429 H423 0.950 1_655 S
C429 C428 1.327 . S
C429 C433 1.429 . S
C430 C413 1.574 . S
C430 H424 0.949 . S
C430 C434 1.368 . S
C431 C412 1.429 . S
C431 C425 1.429 . S
C431 C432 1.523 . S
C432 C413 1.368 1_455 S
C432 C426 1.368 . S
C432 C431 1.523 . S
C433 C417 1.429 . S
C433 C429 1.429 . S
C433 C434 1.523 . S
C434 C418 1.368 1_655 S
C434 C430 1.368 . S
C434 C433 1.523 . S
H435 C410 0.950 . S
H436 C412 0.950 . S
H437 C413 0.949 . S
H438 C415 0.950 . S
H439 C417 0.950 . S
C81 C29 1.511 . S
C86 C8 1.512 . S
C111 C49 1.511 . S
C116 C68 1.511 . S
C141 C9 1.511 . S
C146 C28 1.512 . S
C171 C69 1.511 . S
C176 C48 1.511 . S
C201 C78 1.104 . S
C206 C18 1.104 . S
C231 C22 1.107 . S
C236 C42 1.107 . S
C261 C39 1.104 . S
C266 C59 1.104 . S
C291 C61 1.107 . S
C296 C1 1.107 . S
C321 C38 1.104 . S
C326 C58 1.104 . S
C351 C62 1.107 . S
C356 C2 1.107 . S
C381 C79 1.104 . S
C386 C19 1.104 . S
C411 C41 1.107 . S
C416 C21 1.107 . S
