# Generated by pormake.
# Topology unl, (4)-cn, num edge types: 1
# Building blocks:
#     Node 0, Type 0, BuildingBlock: UXUYUI_clean_sbu_0, # of connection points: 4
#     Node 1, Type 0, BuildingBlock: UXUYUI_clean_sbu_0, # of connection points: 4
#     Node 2, Type 0, BuildingBlock: UXUYUI_clean_sbu_0, # of connection points: 4
#     Node 3, Type 0, BuildingBlock: UXUYUI_clean_sbu_0, # of connection points: 4
#     Node 4, Type 0, BuildingBlock: UXUYUI_clean_sbu_0, # of connection points: 4
#     Node 5, Type 0, BuildingBlock: UXUYUI_clean_sbu_0, # of connection points: 4
#     Node 6, Type 0, BuildingBlock: UXUYUI_clean_sbu_0, # of connection points: 4
#     Node 7, Type 0, BuildingBlock: UXUYUI_clean_sbu_0, # of connection points: 4
#     Node 8, Type 0, BuildingBlock: UXUYUI_clean_sbu_0, # of connection points: 4
#     Node 9, Type 0, BuildingBlock: UXUYUI_clean_sbu_0, # of connection points: 4
#     Node 10, Type 0, BuildingBlock: UXUYUI_clean_sbu_0, # of connection points: 4
#     Node 11, Type 0, BuildingBlock: UXUYUI_clean_sbu_0, # of connection points: 4
#     Node 12, Type 0, BuildingBlock: UXUYUI_clean_sbu_0, # of connection points: 4
#     Node 13, Type 0, BuildingBlock: UXUYUI_clean_sbu_0, # of connection points: 4
#     Node 14, Type 0, BuildingBlock: UXUYUI_clean_sbu_0, # of connection points: 4
#     Node 15, Type 0, BuildingBlock: UXUYUI_clean_sbu_0, # of connection points: 4
#     Node 16, Type 0, BuildingBlock: UXUYUI_clean_sbu_0, # of connection points: 4
#     Node 17, Type 0, BuildingBlock: UXUYUI_clean_sbu_0, # of connection points: 4
#     Node 18, Type 0, BuildingBlock: UXUYUI_clean_sbu_0, # of connection points: 4
#     Node 19, Type 0, BuildingBlock: UXUYUI_clean_sbu_0, # of connection points: 4
#     Node 20, Type 0, BuildingBlock: UXUYUI_clean_sbu_0, # of connection points: 4
#     Node 21, Type 0, BuildingBlock: UXUYUI_clean_sbu_0, # of connection points: 4
#     Node 22, Type 0, BuildingBlock: UXUYUI_clean_sbu_0, # of connection points: 4
#     Node 23, Type 0, BuildingBlock: UXUYUI_clean_sbu_0, # of connection points: 4
#     Node 24, Type 0, BuildingBlock: UXUYUI_clean_sbu_0, # of connection points: 4
#     Node 25, Type 0, BuildingBlock: UXUYUI_clean_sbu_0, # of connection points: 4
#     Node 26, Type 0, BuildingBlock: UXUYUI_clean_sbu_0, # of connection points: 4
#     Node 27, Type 0, BuildingBlock: UXUYUI_clean_sbu_0, # of connection points: 4
#     Node 28, Type 0, BuildingBlock: UXUYUI_clean_sbu_0, # of connection points: 4
#     Node 29, Type 0, BuildingBlock: UXUYUI_clean_sbu_0, # of connection points: 4
#     Node 30, Type 0, BuildingBlock: UXUYUI_clean_sbu_0, # of connection points: 4
#     Node 31, Type 0, BuildingBlock: UXUYUI_clean_sbu_0, # of connection points: 4
#     Node 32, Type 0, BuildingBlock: UXUYUI_clean_sbu_0, # of connection points: 4
#     Node 33, Type 0, BuildingBlock: UXUYUI_clean_sbu_0, # of connection points: 4
#     Node 34, Type 0, BuildingBlock: UXUYUI_clean_sbu_0, # of connection points: 4
#     Node 35, Type 0, BuildingBlock: UXUYUI_clean_sbu_0, # of connection points: 4
#     Edge 36, Type (0, 0), BuildingBlock: OJICUG_clean_linker_0, # of connection points: 2
#     Edge 37, Type (0, 0), BuildingBlock: OJICUG_clean_linker_0, # of connection points: 2
#     Edge 38, Type (0, 0), BuildingBlock: OJICUG_clean_linker_0, # of connection points: 2
#     Edge 39, Type (0, 0), BuildingBlock: OJICUG_clean_linker_0, # of connection points: 2
#     Edge 40, Type (0, 0), BuildingBlock: OJICUG_clean_linker_0, # of connection points: 2
#     Edge 41, Type (0, 0), BuildingBlock: OJICUG_clean_linker_0, # of connection points: 2
#     Edge 42, Type (0, 0), BuildingBlock: OJICUG_clean_linker_0, # of connection points: 2
#     Edge 43, Type (0, 0), BuildingBlock: OJICUG_clean_linker_0, # of connection points: 2
#     Edge 44, Type (0, 0), BuildingBlock: OJICUG_clean_linker_0, # of connection points: 2
#     Edge 45, Type (0, 0), BuildingBlock: OJICUG_clean_linker_0, # of connection points: 2
#     Edge 46, Type (0, 0), BuildingBlock: OJICUG_clean_linker_0, # of connection points: 2
#     Edge 47, Type (0, 0), BuildingBlock: OJICUG_clean_linker_0, # of connection points: 2
#     Edge 48, Type (0, 0), BuildingBlock: OJICUG_clean_linker_0, # of connection points: 2
#     Edge 49, Type (0, 0), BuildingBlock: OJICUG_clean_linker_0, # of connection points: 2
#     Edge 50, Type (0, 0), BuildingBlock: OJICUG_clean_linker_0, # of connection points: 2
#     Edge 51, Type (0, 0), BuildingBlock: OJICUG_clean_linker_0, # of connection points: 2
#     Edge 52, Type (0, 0), BuildingBlock: OJICUG_clean_linker_0, # of connection points: 2
#     Edge 53, Type (0, 0), BuildingBlock: OJICUG_clean_linker_0, # of connection points: 2
#     Edge 54, Type (0, 0), BuildingBlock: OJICUG_clean_linker_0, # of connection points: 2
#     Edge 55, Type (0, 0), BuildingBlock: OJICUG_clean_linker_0, # of connection points: 2
#     Edge 56, Type (0, 0), BuildingBlock: OJICUG_clean_linker_0, # of connection points: 2
#     Edge 57, Type (0, 0), BuildingBlock: OJICUG_clean_linker_0, # of connection points: 2
#     Edge 58, Type (0, 0), BuildingBlock: OJICUG_clean_linker_0, # of connection points: 2
#     Edge 59, Type (0, 0), BuildingBlock: OJICUG_clean_linker_0, # of connection points: 2
#     Edge 60, Type (0, 0), BuildingBlock: OJICUG_clean_linker_0, # of connection points: 2
#     Edge 61, Type (0, 0), BuildingBlock: OJICUG_clean_linker_0, # of connection points: 2
#     Edge 62, Type (0, 0), BuildingBlock: OJICUG_clean_linker_0, # of connection points: 2
#     Edge 63, Type (0, 0), BuildingBlock: OJICUG_clean_linker_0, # of connection points: 2
#     Edge 64, Type (0, 0), BuildingBlock: OJICUG_clean_linker_0, # of connection points: 2
#     Edge 65, Type (0, 0), BuildingBlock: OJICUG_clean_linker_0, # of connection points: 2
#     Edge 66, Type (0, 0), BuildingBlock: OJICUG_clean_linker_0, # of connection points: 2
#     Edge 67, Type (0, 0), BuildingBlock: OJICUG_clean_linker_0, # of connection points: 2
#     Edge 68, Type (0, 0), BuildingBlock: OJICUG_clean_linker_0, # of connection points: 2
#     Edge 69, Type (0, 0), BuildingBlock: OJICUG_clean_linker_0, # of connection points: 2
#     Edge 70, Type (0, 0), BuildingBlock: OJICUG_clean_linker_0, # of connection points: 2
#     Edge 71, Type (0, 0), BuildingBlock: OJICUG_clean_linker_0, # of connection points: 2
#     Edge 72, Type (0, 0), BuildingBlock: OJICUG_clean_linker_0, # of connection points: 2
#     Edge 73, Type (0, 0), BuildingBlock: OJICUG_clean_linker_0, # of connection points: 2
#     Edge 74, Type (0, 0), BuildingBlock: OJICUG_clean_linker_0, # of connection points: 2
#     Edge 75, Type (0, 0), BuildingBlock: OJICUG_clean_linker_0, # of connection points: 2
#     Edge 76, Type (0, 0), BuildingBlock: OJICUG_clean_linker_0, # of connection points: 2
#     Edge 77, Type (0, 0), BuildingBlock: OJICUG_clean_linker_0, # of connection points: 2
#     Edge 78, Type (0, 0), BuildingBlock: OJICUG_clean_linker_0, # of connection points: 2
#     Edge 79, Type (0, 0), BuildingBlock: OJICUG_clean_linker_0, # of connection points: 2
#     Edge 80, Type (0, 0), BuildingBlock: OJICUG_clean_linker_0, # of connection points: 2
#     Edge 81, Type (0, 0), BuildingBlock: OJICUG_clean_linker_0, # of connection points: 2
#     Edge 82, Type (0, 0), BuildingBlock: OJICUG_clean_linker_0, # of connection points: 2
#     Edge 83, Type (0, 0), BuildingBlock: OJICUG_clean_linker_0, # of connection points: 2
#     Edge 84, Type (0, 0), BuildingBlock: OJICUG_clean_linker_0, # of connection points: 2
#     Edge 85, Type (0, 0), BuildingBlock: OJICUG_clean_linker_0, # of connection points: 2
#     Edge 86, Type (0, 0), BuildingBlock: OJICUG_clean_linker_0, # of connection points: 2
#     Edge 87, Type (0, 0), BuildingBlock: OJICUG_clean_linker_0, # of connection points: 2
#     Edge 88, Type (0, 0), BuildingBlock: OJICUG_clean_linker_0, # of connection points: 2
#     Edge 89, Type (0, 0), BuildingBlock: OJICUG_clean_linker_0, # of connection points: 2
#     Edge 90, Type (0, 0), BuildingBlock: OJICUG_clean_linker_0, # of connection points: 2
#     Edge 91, Type (0, 0), BuildingBlock: OJICUG_clean_linker_0, # of connection points: 2
#     Edge 92, Type (0, 0), BuildingBlock: OJICUG_clean_linker_0, # of connection points: 2
#     Edge 93, Type (0, 0), BuildingBlock: OJICUG_clean_linker_0, # of connection points: 2
#     Edge 94, Type (0, 0), BuildingBlock: OJICUG_clean_linker_0, # of connection points: 2
#     Edge 95, Type (0, 0), BuildingBlock: OJICUG_clean_linker_0, # of connection points: 2
#     Edge 96, Type (0, 0), BuildingBlock: OJICUG_clean_linker_0, # of connection points: 2
#     Edge 97, Type (0, 0), BuildingBlock: OJICUG_clean_linker_0, # of connection points: 2
#     Edge 98, Type (0, 0), BuildingBlock: OJICUG_clean_linker_0, # of connection points: 2
#     Edge 99, Type (0, 0), BuildingBlock: OJICUG_clean_linker_0, # of connection points: 2
#     Edge 100, Type (0, 0), BuildingBlock: OJICUG_clean_linker_0, # of connection points: 2
#     Edge 101, Type (0, 0), BuildingBlock: OJICUG_clean_linker_0, # of connection points: 2
#     Edge 102, Type (0, 0), BuildingBlock: OJICUG_clean_linker_0, # of connection points: 2
#     Edge 103, Type (0, 0), BuildingBlock: OJICUG_clean_linker_0, # of connection points: 2
#     Edge 104, Type (0, 0), BuildingBlock: OJICUG_clean_linker_0, # of connection points: 2
#     Edge 105, Type (0, 0), BuildingBlock: OJICUG_clean_linker_0, # of connection points: 2
#     Edge 106, Type (0, 0), BuildingBlock: OJICUG_clean_linker_0, # of connection points: 2
#     Edge 107, Type (0, 0), BuildingBlock: OJICUG_clean_linker_0, # of connection points: 2
# Relax obj value: 0.279
# Max RMSD: 0.258
# Mean RMSD: 0.258
data_MOF--net-unl--node1-UXUYUI_clean_sbu_0--edge1-OJICUG_clean_linker_0
_symmetry_space_group_name_H-M    P1
_symmetry_Int_Tables_number       1
_symmetry_cell_setting            triclinic
loop_
_symmetry_equiv_pos_as_xyz
'x, y, z'
_cell_length_a     77.541082
_cell_length_b     77.538851
_cell_length_c     46.554562
_cell_angle_alpha  90.008299
_cell_angle_beta   89.995507
_cell_angle_gamma 120.00207
loop_
_atom_site_label
_atom_site_type_symbol
_atom_site_fract_x
_atom_site_fract_y
_atom_site_fract_z
_atom_type_partial_charge
Li0 Li 0.19439 0.08984 0.10435 0.0
Li1 Li 0.22503 0.12085 0.11883 0.0
Li2 Li 0.19055 0.11419 0.13181 0.0
Li3 Li 0.20264 0.12223 0.08227 0.0
C4 C 0.20321 0.08367 0.15833 0.0
N5 N 0.20087 0.05117 0.18638 0.0
C6 C 0.22021 0.08194 0.16148 0.0
C7 C 0.18509 0.06903 0.1698 0.0
C8 C 0.2187 0.06536 0.17565 0.0
C9 C 0.18419 0.05266 0.18379 0.0
C10 C 0.22548 0.10735 0.05457 0.0
C11 C 0.2505 0.12274 0.01766 0.0
N12 N 0.24033 0.10624 0.00103 0.0
C13 C 0.21532 0.09051 0.03712 0.0
C14 C 0.24327 0.12356 0.04481 0.0
C15 C 0.22306 0.09025 0.01013 0.0
C16 C 0.16636 0.05366 0.08037 0.0
N17 N 0.18378 0.06249 0.09516 0.0
C18 C 0.18752 0.03396 0.08837 0.0
C19 C 0.19437 0.05306 0.09945 0.0
C20 C 0.16987 0.02471 0.07209 0.0
C21 C 0.15913 0.03477 0.06859 0.0
H22 H 0.1586 0.06172 0.07628 0.0
H23 H 0.20855 0.06067 0.11034 0.0
C24 C 0.2586 0.14485 0.15319 0.0
N25 N 0.25182 0.13209 0.13057 0.0
C26 C 0.27839 0.15321 0.16205 0.0
C27 C 0.28379 0.1352 0.12399 0.0
C28 C 0.26387 0.12705 0.11609 0.0
C29 C 0.29133 0.14847 0.14732 0.0
H30 H 0.24857 0.14845 0.16439 0.0
H31 H 0.25798 0.11666 0.0984 0.0
C32 C 0.15713 0.09496 0.09977 0.0
N33 N 0.11768 0.08388 0.10843 0.0
C34 C 0.14853 0.10414 0.08418 0.0
C35 C 0.14562 0.07999 0.1195 0.0
C36 C 0.12857 0.09837 0.08894 0.0
C37 C 0.12572 0.07465 0.12366 0.0
C38 C 0.22473 0.15895 0.11344 0.0
C39 C 0.21846 0.17134 0.12573 0.0
C40 C 0.24236 0.16728 0.09757 0.0
C41 C 0.22989 0.19191 0.12166 0.0
C42 C 0.2534 0.18792 0.09403 0.0
N43 N 0.24698 0.19971 0.10603 0.0
C44 C 0.17552 0.11466 0.18759 0.0
C45 C 0.16636 0.12924 0.15022 0.0
C46 C 0.16594 0.12028 0.20788 0.0
N47 N 0.17568 0.11938 0.15945 0.0
C48 C 0.15636 0.13484 0.16961 0.0
C49 C 0.15637 0.13077 0.19904 0.0
H50 H 0.18332 0.10706 0.19437 0.0
H51 H 0.1671 0.13319 0.1278 0.0
C52 C 0.20143 0.12949 0.02177 0.0
N53 N 0.20038 0.13533 0.04896 0.0
C54 C 0.19699 0.13779 0.99827 0.0
C55 C 0.19058 0.15805 0.03111 0.0
C56 C 0.19523 0.14944 0.05391 0.0
C57 C 0.1911 0.15201 0.00281 0.0
H58 H 0.20488 0.11783 0.01818 0.0
H59 H 0.19369 0.15326 0.07571 0.0
O60 O 0.20439 0.0998 0.14456 0.0
O61 O 0.2182 0.10782 0.08117 0.0
O62 O 0.17669 0.1005 0.09555 0.0
O63 O 0.21367 0.13879 0.1172 0.0
H64 H 0.23437 0.09319 0.15289 0.0
H65 H 0.17188 0.07032 0.16799 0.0
H66 H 0.23171 0.06376 0.17809 0.0
H67 H 0.17025 0.04117 0.19265 0.0
H68 H 0.26422 0.1352 0.00985 0.0
H69 H 0.20154 0.07783 0.04418 0.0
H70 H 0.25147 0.13664 0.05804 0.0
H71 H 0.21531 0.07734 0.99639 0.0
H72 H 0.19628 0.02681 0.09182 0.0
H73 H 0.1458 0.02866 0.05555 0.0
H74 H 0.28339 0.16307 0.18045 0.0
H75 H 0.29319 0.13129 0.11171 0.0
H76 H 0.15718 0.11563 0.06864 0.0
H77 H 0.15201 0.0726 0.13147 0.0
H78 H 0.12174 0.10541 0.07713 0.0
H79 H 0.11666 0.06314 0.13896 0.0
H80 H 0.20488 0.16514 0.1382 0.0
H81 H 0.24749 0.15791 0.08819 0.0
H82 H 0.22518 0.20168 0.13096 0.0
H83 H 0.26708 0.19457 0.08177 0.0
H84 H 0.16667 0.11706 0.23033 0.0
H85 H 0.14895 0.14257 0.1616 0.0
H86 H 0.19763 0.13271 0.97684 0.0
H87 H 0.18561 0.16855 0.0358 0.0
Li88 Li 0.87786 0.1047 0.11646 0.0
Li89 Li 0.90794 0.10373 0.10221 0.0
Li90 Li 0.87526 0.07914 0.08243 0.0
Li91 Li 0.88372 0.07674 0.1332 0.0
C92 C 0.88427 0.11681 0.05656 0.0
N93 N 0.87273 0.13333 0.01341 0.0
C94 C 0.89861 0.1323 0.0398 0.0
C95 C 0.86407 0.10967 0.05135 0.0
C96 C 0.89247 0.14047 0.01808 0.0
C97 C 0.85853 0.11824 0.02945 0.0
C98 C 0.91303 0.12006 0.15909 0.0
C99 C 0.93793 0.13037 0.19622 0.0
N100 N 0.94095 0.1492 0.19456 0.0
C101 C 0.91623 0.13946 0.15791 0.0
C102 C 0.92379 0.1154 0.17856 0.0
C103 C 0.93046 0.154 0.17598 0.0
C104 C 0.8555 0.11506 0.15192 0.0
N105 N 0.86711 0.12079 0.12801 0.0
C106 C 0.8626 0.14886 0.12191 0.0
C107 C 0.87099 0.13745 0.11317 0.0
C108 C 0.85047 0.14324 0.14644 0.0
C109 C 0.84705 0.1262 0.16169 0.0
H110 H 0.8528 0.10178 0.16334 0.0
H111 H 0.88067 0.14199 0.09467 0.0
C112 C 0.93909 0.11212 0.06639 0.0
N113 N 0.935 0.1191 0.09067 0.0
C114 C 0.95786 0.12244 0.05382 0.0
C115 C 0.96799 0.14723 0.09128 0.0
C116 C 0.94898 0.13628 0.10333 0.0
C117 C 0.97255 0.14033 0.06612 0.0
H118 H 0.92755 0.0987 0.05638 0.0
H119 H 0.94538 0.14177 0.12232 0.0
C120 C 0.8394 0.06247 0.1172 0.0
N121 N 0.79894 0.03579 0.11729 0.0
C122 C 0.83219 0.04278 0.12591 0.0
C123 C 0.82602 0.06869 0.10908 0.0
C124 C 0.81169 0.02949 0.12564 0.0
C125 C 0.80562 0.05494 0.10912 0.0
C126 C 0.90961 0.0678 0.10008 0.0
C127 C 0.90836 0.05296 0.08172 0.0
C128 C 0.92454 0.07591 0.12095 0.0
C129 C 0.92205 0.04636 0.08469 0.0
C130 C 0.93797 0.06893 0.12321 0.0
N131 N 0.93645 0.05442 0.1052 0.0
C132 C 0.86658 0.0705 0.02268 0.0
C133 C 0.85009 0.04332 0.05477 0.0
C134 C 0.85833 0.05783 0.99908 0.0
N135 N 0.86226 0.06307 0.04986 0.0
C136 C 0.84151 0.03015 0.03189 0.0
C137 C 0.84574 0.03732 0.00356 0.0
H138 H 0.87694 0.08612 0.0192 0.0
H139 H 0.84773 0.03765 0.07642 0.0
C140 C 0.86969 0.0609 0.18749 0.0
N141 N 0.87847 0.05856 0.1637 0.0
C142 C 0.86333 0.04689 0.20962 0.0
C143 C 0.87576 0.02869 0.18276 0.0
C144 C 0.88159 0.04286 0.16094 0.0
C145 C 0.86624 0.03047 0.20725 0.0
H146 H 0.86714 0.07338 0.18885 0.0
H147 H 0.888 0.04093 0.1415 0.0
O148 O 0.8901 0.10862 0.07774 0.0
O149 O 0.89895 0.10555 0.14194 0.0
O150 O 0.85941 0.07577 0.11775 0.0
O151 O 0.89632 0.07441 0.09739 0.0
H152 H 0.91432 0.13791 0.04354 0.0
H153 H 0.85284 0.09754 0.0639 0.0
H154 H 0.90341 0.15246 0.00493 0.0
H155 H 0.84295 0.11286 0.02515 0.0
H156 H 0.94644 0.127 0.21132 0.0
H157 H 0.90794 0.14329 0.14305 0.0
H158 H 0.92119 0.10035 0.18014 0.0
H159 H 0.93319 0.16911 0.1752 0.0
H160 H 0.86577 0.16208 0.10986 0.0
H161 H 0.83771 0.12139 0.18065 0.0
H162 H 0.96061 0.11681 0.03408 0.0
H163 H 0.97893 0.16099 0.10137 0.0
H164 H 0.84233 0.03777 0.13258 0.0
H165 H 0.83127 0.084 0.10309 0.0
H166 H 0.80591 0.01417 0.13211 0.0
H167 H 0.79509 0.05953 0.10279 0.0
H168 H 0.89688 0.04659 0.06541 0.0
H169 H 0.92576 0.0875 0.13515 0.0
H170 H 0.92124 0.03485 0.07069 0.0
H171 H 0.94961 0.07507 0.13927 0.0
H172 H 0.86207 0.06395 0.97759 0.0
H173 H 0.83241 0.01439 0.03637 0.0
H174 H 0.85606 0.04876 0.22826 0.0
H175 H 0.87798 0.01605 0.18003 0.0
Li176 Li 0.91814 0.79436 0.08514 0.0
Li177 Li 0.91911 0.80564 0.13562 0.0
Li178 Li 0.89258 0.77111 0.11881 0.0
Li179 Li 0.89238 0.80173 0.1025 0.0
C180 C 0.93301 0.77391 0.12212 0.0
N181 N 0.95567 0.75553 0.12447 0.0
C182 C 0.95197 0.78373 0.1345 0.0
C183 C 0.92547 0.75467 0.11126 0.0
C184 C 0.96323 0.77421 0.13538 0.0
C185 C 0.93718 0.74565 0.11257 0.0
C186 C 0.93157 0.83994 0.09709 0.0
C187 C 0.93453 0.87188 0.10667 0.0
N188 N 0.95226 0.88095 0.09253 0.0
C189 C 0.94977 0.84956 0.08257 0.0
C190 C 0.92383 0.85115 0.10918 0.0
C191 C 0.96002 0.87032 0.08055 0.0
C192 C 0.92992 0.79987 0.0263 0.0
N193 N 0.93533 0.79827 0.05355 0.0
C194 C 0.9686 0.80916 0.03823 0.0
C195 C 0.95419 0.80254 0.05973 0.0
C196 C 0.96357 0.81148 0.01013 0.0
C197 C 0.94383 0.80621 0.00402 0.0
H198 H 0.91515 0.79735 0.02205 0.0
H199 H 0.95839 0.80202 0.08164 0.0
C200 C 0.9365 0.8075 0.18845 0.0
N201 N 0.9365 0.81926 0.16682 0.0
C202 C 0.95031 0.81565 0.21076 0.0
C203 C 0.96343 0.84803 0.1887 0.0
C204 C 0.94943 0.83922 0.16672 0.0
C205 C 0.96424 0.83616 0.21088 0.0
H206 H 0.92619 0.79163 0.18777 0.0
H207 H 0.94931 0.84832 0.14934 0.0
C208 C 0.88338 0.76948 0.0535 0.0
N209 N 0.87325 0.75165 5e-05 0.0
C210 C 0.87308 0.77471 0.03394 0.0
C211 C 0.88844 0.75513 0.04593 0.0
C212 C 0.86811 0.76553 0.00701 0.0
C213 C 0.88321 0.74631 0.01879 0.0
C214 C 0.87888 0.79596 0.16028 0.0
C215 C 0.85955 0.78144 0.16792 0.0
C216 C 0.88693 0.8153 0.17098 0.0
C217 C 0.84842 0.78665 0.18585 0.0
C218 C 0.87533 0.81992 0.18884 0.0
N219 N 0.85647 0.80563 0.19582 0.0
C220 C 0.88039 0.73911 0.15661 0.0
C221 C 0.86219 0.73106 0.11297 0.0
C222 C 0.86893 0.71952 0.16621 0.0
N223 N 0.87681 0.74442 0.13044 0.0
C224 C 0.85048 0.71128 0.12159 0.0
C225 C 0.85378 0.70533 0.14855 0.0
H226 H 0.89215 0.75015 0.16998 0.0
H227 H 0.85953 0.73579 0.09242 0.0
C228 C 0.88431 0.82488 0.06666 0.0
N229 N 0.87661 0.81259 0.08967 0.0
C230 C 0.87393 0.83323 0.05403 0.0
C231 C 0.84754 0.81586 0.08867 0.0
C232 C 0.85854 0.80787 0.10077 0.0
C233 C 0.85527 0.82874 0.06497 0.0
H234 H 0.89841 0.82786 0.05772 0.0
H235 H 0.85247 0.79765 0.11858 0.0
O236 O 0.92173 0.78295 0.12138 0.0
O237 O 0.92129 0.81962 0.09907 0.0
O238 O 0.88847 0.77844 0.07986 0.0
O239 O 0.88994 0.79109 0.14279 0.0
H240 H 0.958 0.79862 0.1431 0.0
H241 H 0.91069 0.74669 0.10216 0.0
H242 H 0.97797 0.78168 0.14474 0.0
H243 H 0.93154 0.73076 0.10421 0.0
H244 H 0.92873 0.88075 0.11592 0.0
H245 H 0.95593 0.84109 0.073 0.0
H246 H 0.90969 0.84394 0.1203 0.0
H247 H 0.97415 0.87797 0.06941 0.0
H248 H 0.98376 0.81326 0.04375 0.0
H249 H 0.93955 0.80824 0.98269 0.0
H250 H 0.95053 0.80584 0.22713 0.0
H251 H 0.97366 0.86393 0.18812 0.0
H252 H 0.86898 0.78572 0.0395 0.0
H253 H 0.89643 0.75096 0.06076 0.0
H254 H 0.86018 0.76945 0.99164 0.0
H255 H 0.8871 0.73523 0.01261 0.0
H256 H 0.85319 0.76636 0.15993 0.0
H257 H 0.902 0.82658 0.16566 0.0
H258 H 0.8334 0.77562 0.19182 0.0
H259 H 0.88133 0.83485 0.19722 0.0
H260 H 0.87203 0.71546 0.18704 0.0
H261 H 0.83878 0.70082 0.10753 0.0
H262 H 0.88021 0.84263 0.03532 0.0
H263 H 0.83315 0.81196 0.09764 0.0
Li264 Li 0.08925 0.19595 0.39523 0.0
Li265 Li 0.12042 0.22655 0.38037 0.0
Li266 Li 0.1124 0.19325 0.36217 0.0
Li267 Li 0.12255 0.20239 0.41229 0.0
C268 C 0.08186 0.19811 0.33684 0.0
N269 N 0.05028 0.17886 0.29929 0.0
C270 C 0.07776 0.20905 0.31691 0.0
C271 C 0.06989 0.1774 0.33776 0.0
C272 C 0.06172 0.19904 0.2981 0.0
C273 C 0.05401 0.16793 0.31855 0.0
C274 C 0.11455 0.23081 0.44202 0.0
C275 C 0.13998 0.25566 0.47246 0.0
N276 N 0.12564 0.25626 0.48854 0.0
C277 C 0.10005 0.2316 0.45887 0.0
C278 C 0.13467 0.24287 0.44887 0.0
C279 C 0.10596 0.24459 0.4823 0.0
C280 C 0.05813 0.17288 0.43086 0.0
N281 N 0.06282 0.18532 0.40803 0.0
C282 C 0.03058 0.18222 0.40883 0.0
C283 C 0.0496 0.19015 0.39682 0.0
C284 C 0.02531 0.16926 0.43247 0.0
C285 C 0.03937 0.1646 0.4434 0.0
H286 H 0.06914 0.16967 0.43958 0.0
H287 H 0.05389 0.20033 0.37886 0.0
C288 C 0.14232 0.25933 0.34512 0.0
N289 N 0.13182 0.25366 0.37005 0.0
C290 C 0.15096 0.27901 0.33573 0.0
C291 C 0.13788 0.28666 0.37796 0.0
C292 C 0.12934 0.26678 0.38639 0.0
C293 C 0.14884 0.29303 0.35225 0.0
H294 H 0.14386 0.24847 0.33246 0.0
H295 H 0.12067 0.26184 0.4059 0.0
C296 C 0.09711 0.15875 0.39649 0.0
N297 N 0.09163 0.12075 0.39402 0.0
C298 C 0.11355 0.15597 0.39508 0.0
C299 C 0.07788 0.14223 0.39661 0.0
C300 C 0.11047 0.13662 0.39386 0.0
C301 C 0.07542 0.12313 0.39535 0.0
C302 C 0.15804 0.22258 0.37775 0.0
C303 C 0.16617 0.21102 0.36839 0.0
C304 C 0.17067 0.24209 0.38705 0.0
C305 C 0.18679 0.21904 0.36906 0.0
C306 C 0.19123 0.24958 0.38736 0.0
N307 N 0.19879 0.238 0.37847 0.0
C308 C 0.13181 0.19198 0.31301 0.0
C309 C 0.10415 0.16041 0.32408 0.0
C310 C 0.13733 0.18382 0.29061 0.0
N311 N 0.1158 0.1802 0.32968 0.0
C312 C 0.10905 0.15161 0.30168 0.0
C313 C 0.12607 0.1633 0.28487 0.0
H314 H 0.14071 0.2077 0.31776 0.0
H315 H 0.09125 0.15135 0.33722 0.0
C316 C 0.1271 0.19774 0.47133 0.0
N317 N 0.13515 0.19862 0.44503 0.0
C318 C 0.13469 0.19339 0.49575 0.0
C319 C 0.15858 0.19072 0.46557 0.0
C320 C 0.15068 0.19534 0.44184 0.0
C321 C 0.15046 0.18947 0.49301 0.0
H322 H 0.11442 0.1999 0.4733 0.0
H323 H 0.15648 0.19548 0.4208 0.0
O324 O 0.09721 0.20779 0.35583 0.0
O325 O 0.10894 0.218 0.41924 0.0
O326 O 0.09973 0.17754 0.39745 0.0
O327 O 0.13789 0.21507 0.37679 0.0
H328 H 0.08683 0.22512 0.31612 0.0
H329 H 0.0727 0.16875 0.35331 0.0
H330 H 0.05833 0.20732 0.2826 0.0
H331 H 0.0446 0.15191 0.31902 0.0
H332 H 0.1555 0.26507 0.47805 0.0
H333 H 0.08439 0.22225 0.4539 0.0
H334 H 0.14602 0.24218 0.43633 0.0
H335 H 0.09491 0.24537 0.49554 0.0
H336 H 0.02016 0.18619 0.39981 0.0
H337 H 0.03613 0.15508 0.46201 0.0
H338 H 0.15893 0.28309 0.31552 0.0
H339 H 0.13603 0.29693 0.3916 0.0
H340 H 0.12849 0.1686 0.39451 0.0
H341 H 0.06499 0.14414 0.39748 0.0
H342 H 0.12305 0.13423 0.39268 0.0
H343 H 0.06063 0.11021 0.39537 0.0
H344 H 0.15663 0.19589 0.36108 0.0
H345 H 0.16472 0.25144 0.39371 0.0
H346 H 0.19326 0.2102 0.36211 0.0
H347 H 0.20117 0.26464 0.39457 0.0
H348 H 0.1507 0.19345 0.27857 0.0
H349 H 0.09968 0.13581 0.29771 0.0
H350 H 0.12799 0.19272 0.51643 0.0
H351 H 0.17034 0.18729 0.46213 0.0
Li352 Li 0.80683 0.92283 0.36817 0.0
Li353 Li 0.79619 0.91911 0.41708 0.0
Li354 Li 0.80423 0.89562 0.39872 0.0
Li355 Li 0.77284 0.89493 0.38405 0.0
C356 C 0.84134 0.9295 0.39456 0.0
N357 N 0.87929 0.93895 0.37791 0.0
C358 C 0.85791 0.94389 0.40961 0.0
C359 C 0.84408 0.91989 0.37105 0.0
C360 C 0.87697 0.94847 0.40085 0.0
C361 C 0.86337 0.92488 0.36298 0.0
C362 C 0.77948 0.93866 0.38812 0.0
C363 C 0.75584 0.94974 0.39604 0.0
N364 N 0.77111 0.96886 0.3976 0.0
C365 C 0.79495 0.95841 0.38961 0.0
C366 C 0.75976 0.93424 0.39119 0.0
C367 C 0.79041 0.97348 0.3945 0.0
C368 C 0.80964 0.9374 0.31245 0.0
N369 N 0.81968 0.94104 0.33769 0.0
C370 C 0.84586 0.97208 0.31995 0.0
C371 C 0.83745 0.95797 0.34184 0.0
C372 C 0.8356 0.96892 0.29391 0.0
C373 C 0.81733 0.95128 0.29016 0.0
H374 H 0.79539 0.92393 0.30998 0.0
H375 H 0.84483 0.96086 0.36239 0.0
C376 C 0.81588 0.93899 0.46637 0.0
N377 N 0.79921 0.93434 0.45101 0.0
C378 C 0.82078 0.95113 0.49056 0.0
C379 C 0.79081 0.95288 0.48354 0.0
C380 C 0.78643 0.94058 0.45949 0.0
C381 C 0.80838 0.95858 0.49912 0.0
H382 H 0.82558 0.93352 0.4595 0.0
H383 H 0.77294 0.9362 0.44755 0.0
C384 C 0.78935 0.87811 0.34196 0.0
N385 N 0.7806 0.84604 0.30687 0.0
C386 C 0.77366 0.85918 0.34891 0.0
C387 C 0.80049 0.88078 0.31707 0.0
C388 C 0.76949 0.84314 0.3309 0.0
C389 C 0.79587 0.86435 0.29965 0.0
C390 C 0.7741 0.88922 0.44944 0.0
C391 C 0.7843 0.88704 0.47262 0.0
C392 C 0.75771 0.89172 0.45449 0.0
C393 C 0.77799 0.88752 0.50057 0.0
C394 C 0.75184 0.89207 0.48276 0.0
N395 N 0.76203 0.89001 0.50501 0.0
C396 C 0.82827 0.88752 0.43234 0.0
C397 C 0.8126 0.86297 0.3962 0.0
C398 C 0.83711 0.87728 0.44396 0.0
N399 N 0.81617 0.88021 0.40906 0.0
C400 C 0.82107 0.85212 0.40728 0.0
C401 C 0.83338 0.85922 0.43163 0.0
H402 H 0.83066 0.90113 0.44234 0.0
H403 H 0.80297 0.8574 0.37774 0.0
C404 C 0.74095 0.88263 0.34581 0.0
N405 N 0.74619 0.87902 0.37201 0.0
C406 C 0.72139 0.87116 0.33608 0.0
C407 C 0.71307 0.85259 0.38058 0.0
C408 C 0.73283 0.86426 0.38929 0.0
C409 C 0.70716 0.85602 0.35368 0.0
H410 H 0.75201 0.89445 0.33253 0.0
H411 H 0.73754 0.86148 0.40978 0.0
O412 O 0.8226 0.92485 0.40313 0.0
O413 O 0.78353 0.9237 0.3832 0.0
O414 O 0.79348 0.89412 0.35892 0.0
O415 O 0.78035 0.88929 0.42194 0.0
H416 H 0.85607 0.95149 0.42783 0.0
H417 H 0.8315 0.90868 0.35919 0.0
H418 H 0.88993 0.9596 0.41229 0.0
H419 H 0.8657 0.91755 0.34485 0.0
H420 H 0.74065 0.94655 0.39857 0.0
H421 H 0.81028 0.96202 0.38719 0.0
H422 H 0.74764 0.919 0.38997 0.0
H423 H 0.80221 0.98884 0.39584 0.0
H424 H 0.85983 0.98567 0.32373 0.0
H425 H 0.80903 0.94837 0.27032 0.0
H426 H 0.83457 0.95528 0.5017 0.0
H427 H 0.7807 0.95806 0.48967 0.0
H428 H 0.76498 0.85685 0.3682 0.0
H429 H 0.81255 0.89539 0.31127 0.0
H430 H 0.75746 0.82838 0.33607 0.0
H431 H 0.80441 0.86618 0.28037 0.0
H432 H 0.79702 0.88512 0.4691 0.0
H433 H 0.74985 0.89376 0.4368 0.0
H434 H 0.78579 0.88594 0.51873 0.0
H435 H 0.73927 0.89414 0.487 0.0
H436 H 0.84618 0.88312 0.46307 0.0
H437 H 0.8179 0.83828 0.39709 0.0
H438 H 0.71735 0.87431 0.31526 0.0
H439 H 0.70257 0.84085 0.39456 0.0
Li440 Li 0.10405 0.87719 0.38121 0.0
Li441 Li 0.10307 0.90734 0.39654 0.0
Li442 Li 0.07945 0.87473 0.41665 0.0
Li443 Li 0.07558 0.88273 0.36678 0.0
C444 C 0.11725 0.88614 0.44306 0.0
N445 N 0.13376 0.87911 0.49106 0.0
C446 C 0.13007 0.90194 0.46079 0.0
C447 C 0.11281 0.86678 0.44971 0.0
C448 C 0.13827 0.89808 0.48498 0.0
C449 C 0.12131 0.86353 0.47408 0.0
C450 C 0.11968 0.91194 0.33992 0.0
C451 C 0.13218 0.93558 0.30096 0.0
N452 N 0.15082 0.93874 0.30598 0.0
C453 C 0.13893 0.91534 0.34464 0.0
C454 C 0.11622 0.92204 0.31783 0.0
C455 C 0.15449 0.92898 0.32725 0.0
C456 C 0.1148 0.85522 0.34506 0.0
N457 N 0.12024 0.86671 0.36906 0.0
C458 C 0.14868 0.86283 0.3753 0.0
C459 C 0.13687 0.87075 0.38408 0.0
C460 C 0.14346 0.85082 0.35059 0.0
C461 C 0.12627 0.84712 0.33533 0.0
H462 H 0.10155 0.8524 0.33347 0.0
H463 H 0.14103 0.88018 0.40285 0.0
C464 C 0.11179 0.93796 0.4333 0.0
N465 N 0.11824 0.93443 0.40804 0.0
C466 C 0.12191 0.95669 0.44602 0.0
C467 C 0.14531 0.96799 0.40656 0.0
C468 C 0.13456 0.94899 0.39439 0.0
C469 C 0.13901 0.97194 0.43278 0.0
H470 H 0.09896 0.926 0.44389 0.0
H471 H 0.13949 0.94593 0.3744 0.0
C472 C 0.06309 0.83836 0.38303 0.0
N473 N 0.03892 0.79747 0.38529 0.0
C474 C 0.04324 0.82946 0.37411 0.0
C475 C 0.07075 0.82644 0.39254 0.0
C476 C 0.03123 0.80877 0.3756 0.0
C477 C 0.05826 0.8058 0.39367 0.0
C478 C 0.0678 0.90906 0.39745 0.0
C479 C 0.0537 0.90982 0.41528 0.0
C480 C 0.0757 0.92217 0.37426 0.0
C481 C 0.04768 0.92371 0.40954 0.0
C482 C 0.06932 0.93586 0.36925 0.0
N483 N 0.05555 0.93633 0.38684 0.0
C484 C 0.0718 0.86744 0.47697 0.0
C485 C 0.04465 0.84843 0.44579 0.0
C486 C 0.05948 0.85947 0.50098 0.0
N487 N 0.06423 0.86177 0.45003 0.0
C488 C 0.03182 0.84012 0.46909 0.0
C489 C 0.03912 0.84581 0.49717 0.0
H490 H 0.08717 0.87874 0.47994 0.0
H491 H 0.03875 0.84498 0.42425 0.0
C492 C 0.06046 0.87553 0.31027 0.0
N493 N 0.05643 0.87775 0.33797 0.0
C494 C 0.04583 0.8701 0.28917 0.0
C495 C 0.02339 0.8698 0.32548 0.0
C496 C 0.03839 0.8751 0.34588 0.0
C497 C 0.02689 0.86694 0.29672 0.0
H498 H 0.07488 0.87747 0.30475 0.0
H499 H 0.03549 0.87664 0.36817 0.0
O500 O 0.10901 0.8897 0.41945 0.0
O501 O 0.10416 0.89843 0.35632 0.0
O502 O 0.07512 0.85858 0.38133 0.0
O503 O 0.07382 0.89554 0.40287 0.0
H504 H 0.13364 0.91702 0.45593 0.0
H505 H 0.10282 0.85441 0.43634 0.0
H506 H 0.14821 0.91015 0.49892 0.0
H507 H 0.11798 0.84861 0.47952 0.0
H508 H 0.12974 0.94355 0.28384 0.0
H509 H 0.14189 0.90777 0.36176 0.0
H510 H 0.10135 0.9194 0.31371 0.0
H511 H 0.16949 0.93184 0.33073 0.0
H512 H 0.16162 0.86591 0.38797 0.0
H513 H 0.12183 0.83825 0.31591 0.0
H514 H 0.11676 0.95901 0.4665 0.0
H515 H 0.15842 0.97941 0.39569 0.0
H516 H 0.03714 0.83845 0.36634 0.0
H517 H 0.0862 0.833 0.39868 0.0
H518 H 0.0158 0.8017 0.36899 0.0
H519 H 0.06397 0.79639 0.40107 0.0
H520 H 0.04747 0.89975 0.43334 0.0
H521 H 0.08667 0.92181 0.36035 0.0
H522 H 0.03676 0.92446 0.42314 0.0
H523 H 0.07532 0.94611 0.35139 0.0
H524 H 0.06572 0.86436 0.52222 0.0
H525 H 0.01613 0.83015 0.46503 0.0
H526 H 0.04913 0.86776 0.2674 0.0
H527 H 0.00913 0.86778 0.33226 0.0
Li528 Li 0.80262 0.91102 0.8885 0.0
Li529 Li 0.79735 0.88063 0.91221 0.0
Li530 Li 0.80727 0.8873 0.86165 0.0
Li531 Li 0.77374 0.87883 0.87712 0.0
C532 C 0.84097 0.90604 0.89098 0.0
N533 N 0.87847 0.91191 0.87931 0.0
C534 C 0.84796 0.89498 0.90556 0.0
C535 C 0.85311 0.92019 0.87064 0.0
C536 C 0.86696 0.89815 0.89933 0.0
C537 C 0.872 0.92289 0.86498 0.0
C538 C 0.77581 0.89165 0.94235 0.0
C539 C 0.75762 0.87219 0.98354 0.0
N540 N 0.76749 0.88861 0.00044 0.0
C541 C 0.78573 0.90835 0.9601 0.0
C542 C 0.76158 0.87344 0.95411 0.0
C543 C 0.78133 0.9065 0.98942 0.0
C544 C 0.79702 0.94358 0.89881 0.0
N545 N 0.81105 0.93806 0.89614 0.0
C546 C 0.83604 0.96914 0.91531 0.0
C547 C 0.83035 0.95054 0.90341 0.0
C548 C 0.82166 0.97484 0.91992 0.0
C549 C 0.80206 0.96208 0.91051 0.0
H550 H 0.78167 0.93312 0.89352 0.0
H551 H 0.84106 0.94555 0.90174 0.0
C552 C 0.79627 0.85077 0.94809 0.0
N553 N 0.80165 0.87032 0.94661 0.0
C554 C 0.80227 0.84369 0.97137 0.0
C555 C 0.81839 0.87682 0.99173 0.0
C556 C 0.81224 0.88329 0.96794 0.0
C557 C 0.81397 0.85691 0.99322 0.0
H558 H 0.78823 0.84091 0.9305 0.0
H559 H 0.81671 0.89885 0.96583 0.0
C560 C 0.79187 0.91583 0.83745 0.0
N561 N 0.79244 0.9489 0.81428 0.0
C562 C 0.77431 0.91667 0.83576 0.0
C563 C 0.80968 0.93171 0.82717 0.0
C564 C 0.77492 0.93354 0.824 0.0
C565 C 0.80967 0.94833 0.8156 0.0
C566 C 0.77237 0.84409 0.86985 0.0
C567 C 0.77352 0.83801 0.842 0.0
C568 C 0.75626 0.83165 0.8874 0.0
C569 C 0.75838 0.81961 0.83205 0.0
C570 C 0.7414 0.81339 0.87664 0.0
N571 N 0.74276 0.8078 0.84942 0.0
C572 C 0.83043 0.87189 0.83941 0.0
C573 C 0.82258 0.88976 0.8055 0.0
C574 C 0.84027 0.86722 0.81841 0.0
N575 N 0.82191 0.88301 0.83264 0.0
C576 C 0.83196 0.88512 0.78368 0.0
C577 C 0.84085 0.87363 0.79006 0.0
H578 H 0.82915 0.86624 0.861 0.0
H579 H 0.81539 0.8983 0.80067 0.0
C580 C 0.73347 0.8674 0.88486 0.0
N581 N 0.7465 0.86611 0.86669 0.0
C582 C 0.71344 0.8589 0.8774 0.0
C583 C 0.72058 0.8478 0.83272 0.0
C584 C 0.74055 0.85681 0.84084 0.0
C585 C 0.70681 0.8489 0.85109 0.0
H586 H 0.7387 0.87528 0.90498 0.0
H587 H 0.75136 0.85659 0.82642 0.0
O588 O 0.82233 0.903 0.89652 0.0
O589 O 0.78005 0.89309 0.91364 0.0
O590 O 0.79166 0.89959 0.84929 0.0
O591 O 0.78694 0.86211 0.87991 0.0
H592 H 0.83877 0.88393 0.9213 0.0
H593 H 0.84792 0.92885 0.85915 0.0
H594 H 0.87252 0.88964 0.91034 0.0
H595 H 0.8815 0.9337 0.84916 0.0
H596 H 0.74671 0.85817 0.99295 0.0
H597 H 0.79687 0.92254 0.95142 0.0
H598 H 0.75377 0.86039 0.94067 0.0
H599 H 0.78895 0.91927 0.00343 0.0
H600 H 0.85122 0.97828 0.92269 0.0
H601 H 0.79054 0.96593 0.91346 0.0
H602 H 0.79881 0.82832 0.97129 0.0
H603 H 0.8272 0.88749 0.00819 0.0
H604 H 0.7604 0.90451 0.84365 0.0
H605 H 0.82339 0.93126 0.8283 0.0
H606 H 0.76147 0.93445 0.82267 0.0
H607 H 0.82337 0.96078 0.8077 0.0
H608 H 0.78586 0.84744 0.8281 0.0
H609 H 0.75517 0.83612 0.90903 0.0
H610 H 0.75902 0.81475 0.8105 0.0
H611 H 0.72879 0.80367 0.88992 0.0
H612 H 0.84665 0.85803 0.824 0.0
H613 H 0.83208 0.89026 0.762 0.0
H614 H 0.70321 0.86005 0.89208 0.0
H615 H 0.71603 0.84047 0.81205 0.0
Li616 Li 0.08926 0.89356 0.89081 0.0
Li617 Li 0.12047 0.91754 0.91445 0.0
Li618 Li 0.11379 0.92166 0.86402 0.0
Li619 Li 0.12063 0.89538 0.8783 0.0
C620 C 0.09627 0.93753 0.89462 0.0
N621 N 0.09129 0.96989 0.8845 0.0
C622 C 0.10723 0.95509 0.91034 0.0
C623 C 0.08265 0.93636 0.87396 0.0
C624 C 0.10452 0.9713 0.90486 0.0
C625 C 0.0804 0.9529 0.86908 0.0
C626 C 0.10814 0.88388 0.94355 0.0
C627 C 0.12782 0.88498 0.98438 0.0
N628 N 0.11114 0.87667 0.00095 0.0
C629 C 0.09118 0.87532 0.96099 0.0
C630 C 0.1266 0.88871 0.95531 0.0
C631 C 0.09301 0.8718 0.98995 0.0
C632 C 0.05435 0.85645 0.90123 0.0
N633 N 0.06193 0.87646 0.89923 0.0
C634 C 0.03343 0.87398 0.92262 0.0
C635 C 0.0516 0.88524 0.90871 0.0
C636 C 0.02591 0.85353 0.92685 0.0
C637 C 0.03608 0.84455 0.91488 0.0
H638 H 0.0632 0.84997 0.89437 0.0
H639 H 0.05814 0.9012 0.90744 0.0
C640 C 0.15018 0.94798 0.94822 0.0
N641 N 0.13145 0.93205 0.94884 0.0
C642 C 0.15743 0.96103 0.97152 0.0
C643 C 0.1264 0.9403 0.99634 0.0
C644 C 0.11958 0.92796 0.97228 0.0
C645 C 0.14532 0.95755 0.99587 0.0
H646 H 0.15909 0.95116 0.92898 0.0
H647 H 0.1045 0.91558 0.97185 0.0
C648 C 0.08328 0.87829 0.83935 0.0
N649 N 0.04928 0.8469 0.8161 0.0
C650 C 0.08116 0.85932 0.83812 0.0
C651 C 0.06819 0.88135 0.82861 0.0
C652 C 0.06384 0.84363 0.8263 0.0
C653 C 0.05109 0.86527 0.817 0.0
C654 C 0.15587 0.92712 0.8708 0.0
C655 C 0.16062 0.93186 0.84184 0.0
C656 C 0.16874 0.92422 0.88851 0.0
C657 C 0.17814 0.93343 0.83099 0.0
C658 C 0.18611 0.92588 0.87682 0.0
N659 N 0.1904 0.9304 0.84854 0.0
C660 C 0.13063 0.9607 0.84395 0.0
C661 C 0.11259 0.93636 0.80841 0.0
C662 C 0.13598 0.97597 0.82406 0.0
N663 N 0.11906 0.94139 0.83588 0.0
C664 C 0.11795 0.95118 0.78759 0.0
C665 C 0.12995 0.97136 0.79525 0.0
H666 H 0.1359 0.96421 0.86584 0.0
H667 H 0.10371 0.92084 0.8025 0.0
C668 C 0.13558 0.86899 0.88548 0.0
N669 N 0.13261 0.88043 0.86626 0.0
C670 C 0.14415 0.85776 0.87668 0.0
C671 C 0.14625 0.87015 0.82839 0.0
C672 C 0.13761 0.88112 0.83814 0.0
C673 C 0.14961 0.85825 0.84778 0.0
H674 H 0.13109 0.86838 0.90756 0.0
H675 H 0.13484 0.89019 0.82328 0.0
O676 O 0.09888 0.92158 0.8994 0.0
O677 O 0.10667 0.88754 0.91516 0.0
O678 O 0.1 0.89379 0.85114 0.0
O679 O 0.13858 0.9251 0.88169 0.0
H680 H 0.11781 0.95627 0.92645 0.0
H681 H 0.07404 0.92287 0.86164 0.0
H682 H 0.11296 0.98501 0.91676 0.0
H683 H 0.07 0.95225 0.85302 0.0
H684 H 0.14204 0.88874 0.99377 0.0
H685 H 0.07678 0.87159 0.95239 0.0
H686 H 0.13989 0.89547 0.94219 0.0
H687 H 0.08003 0.86524 0.0037 0.0
H688 H 0.02593 0.88137 0.93158 0.0
H689 H 0.03083 0.82886 0.91812 0.0
H690 H 0.17192 0.97428 0.96966 0.0
H691 H 0.11659 0.93669 0.01466 0.0
H692 H 0.09267 0.85669 0.84643 0.0
H693 H 0.06964 0.89596 0.82935 0.0
H694 H 0.06195 0.82885 0.82531 0.0
H695 H 0.03925 0.86739 0.80871 0.0
H696 H 0.15078 0.9341 0.82782 0.0
H697 H 0.1653 0.92061 0.91099 0.0
H698 H 0.18196 0.93698 0.80858 0.0
H699 H 0.19616 0.92356 0.89023 0.0
H700 H 0.14492 0.99123 0.83125 0.0
H701 H 0.11323 0.94679 0.76562 0.0
H702 H 0.14612 0.84851 0.89223 0.0
H703 H 0.15037 0.8711 0.80598 0.0
Li704 Li 0.08238 0.20156 0.91361 0.0
Li705 Li 0.10741 0.19622 0.88981 0.0
Li706 Li 0.10422 0.22521 0.87886 0.0
Li707 Li 0.07901 0.19193 0.86289 0.0
C708 C 0.11464 0.2222 0.94426 0.0
N709 N 0.11912 0.22883 0.00281 0.0
C710 C 0.12212 0.21252 0.96117 0.0
C711 C 0.10952 0.23531 0.95713 0.0
C712 C 0.12427 0.21607 0.99073 0.0
C713 C 0.11185 0.23843 0.98677 0.0
C714 C 0.064 0.15802 0.89179 0.0
C715 C 0.04996 0.12698 0.86584 0.0
N716 N 0.03239 0.12055 0.87986 0.0
C717 C 0.04584 0.15108 0.90604 0.0
C718 C 0.06613 0.14585 0.87164 0.0
C719 C 0.03003 0.1321 0.89968 0.0
C720 C 0.05357 0.2021 0.95039 0.0
N721 N 0.06768 0.19668 0.94806 0.0
C722 C 0.0573 0.17874 0.99224 0.0
C723 C 0.06998 0.18551 0.96854 0.0
C724 C 0.04187 0.18318 0.99455 0.0
C725 C 0.04045 0.19552 0.97365 0.0
H726 H 0.05184 0.21064 0.93344 0.0
H727 H 0.08106 0.18108 0.96575 0.0
C728 C 0.14549 0.20089 0.89884 0.0
N729 N 0.12573 0.18733 0.89727 0.0
C730 C 0.15874 0.19549 0.91039 0.0
C731 C 0.13111 0.16215 0.91752 0.0
C732 C 0.11844 0.16815 0.90568 0.0
C733 C 0.15148 0.17606 0.92086 0.0
H734 H 0.15078 0.21619 0.89279 0.0
H735 H 0.1026 0.15784 0.90496 0.0
C736 C 0.07195 0.22741 0.871 0.0
N737 N 0.06802 0.25843 0.84934 0.0
C738 C 0.06668 0.22727 0.84226 0.0
C739 C 0.07509 0.24324 0.88879 0.0
C740 C 0.06478 0.2431 0.83171 0.0
C741 C 0.07309 0.25882 0.87741 0.0
C742 C 0.12271 0.20686 0.83842 0.0
C743 C 0.14127 0.22422 0.8366 0.0
C744 C 0.12033 0.18896 0.82772 0.0
C745 C 0.15724 0.22333 0.82428 0.0
C746 C 0.13666 0.18868 0.81561 0.0
N747 N 0.15463 0.20572 0.81416 0.0
C748 C 0.13 0.26643 0.88809 0.0
C749 C 0.11791 0.2575 0.84049 0.0
C750 C 0.14116 0.28645 0.88031 0.0
N751 N 0.11865 0.25248 0.86824 0.0
C752 C 0.12878 0.27735 0.83178 0.0
C753 C 0.14068 0.29213 0.8518 0.0
H754 H 0.13055 0.26199 0.9099 0.0
H755 H 0.10902 0.24601 0.82507 0.0
C756 C 0.04033 0.16922 0.84088 0.0
N757 N 0.0599 0.17744 0.83389 0.0
C758 C 0.02564 0.15943 0.82008 0.0
C759 C 0.05155 0.16722 0.78503 0.0
C760 C 0.06575 0.17656 0.80667 0.0
C761 C 0.03122 0.15861 0.79168 0.0
H762 H 0.03615 0.17066 0.86252 0.0
H763 H 0.08143 0.18352 0.80162 0.0
O764 O 0.11222 0.21877 0.91531 0.0
O765 O 0.07959 0.17666 0.89744 0.0
O766 O 0.07429 0.21226 0.88159 0.0
O767 O 0.10697 0.20737 0.85072 0.0
H768 H 0.12607 0.20224 0.95168 0.0
H769 H 0.10356 0.2428 0.94442 0.0
H770 H 0.12998 0.20864 0.00409 0.0
H771 H 0.10783 0.24845 0.99702 0.0
H772 H 0.05136 0.11745 0.85018 0.0
H773 H 0.04386 0.1603 0.92161 0.0
H774 H 0.08008 0.151 0.86043 0.0
H775 H 0.01587 0.12657 0.91044 0.0
H776 H 0.05907 0.16944 0.00797 0.0
H777 H 0.02859 0.19904 0.97427 0.0
H778 H 0.17433 0.20666 0.91231 0.0
H779 H 0.12473 0.14713 0.92576 0.0
H780 H 0.06427 0.21517 0.82816 0.0
H781 H 0.07922 0.24359 0.91106 0.0
H782 H 0.0608 0.24325 0.80948 0.0
H783 H 0.0756 0.27124 0.89087 0.0
H784 H 0.14339 0.23819 0.84486 0.0
H785 H 0.10604 0.17541 0.82893 0.0
H786 H 0.17172 0.23662 0.82285 0.0
H787 H 0.13507 0.1749 0.80738 0.0
H788 H 0.15002 0.29737 0.89647 0.0
H789 H 0.12822 0.28103 0.80949 0.0
H790 H 0.01013 0.15327 0.82589 0.0
H791 H 0.05638 0.16691 0.7633 0.0
Li792 Li 0.88013 0.7758 0.61993 0.0
Li793 Li 0.8881 0.80929 0.63465 0.0
Li794 Li 0.8826 0.7992 0.58409 0.0
Li795 Li 0.91252 0.80461 0.60953 0.0
C796 C 0.84537 0.77406 0.62539 0.0
N797 N 0.80927 0.74392 0.64551 0.0
C798 C 0.83905 0.77504 0.65315 0.0
C799 C 0.83327 0.75785 0.60777 0.0
C800 C 0.82075 0.75964 0.66294 0.0
C801 C 0.8151 0.74273 0.61838 0.0
C802 C 0.91612 0.79415 0.66163 0.0
C803 C 0.94781 0.81206 0.68573 0.0
N804 N 0.94848 0.7949 0.6877 0.0
C805 C 0.91705 0.77667 0.66402 0.0
C806 C 0.93154 0.81198 0.6727 0.0
C807 C 0.93357 0.77737 0.67724 0.0
C808 C 0.86747 0.73518 0.61241 0.0
N809 N 0.86717 0.74863 0.63079 0.0
C810 C 0.84942 0.72328 0.66574 0.0
C811 C 0.85859 0.74317 0.65716 0.0
C812 C 0.84953 0.70905 0.6472 0.0
C813 C 0.85872 0.71518 0.62025 0.0
H814 H 0.87474 0.74001 0.59181 0.0
H815 H 0.85907 0.7543 0.67163 0.0
C816 C 0.87213 0.83248 0.65389 0.0
N817 N 0.88294 0.82402 0.66248 0.0
C818 C 0.86663 0.84239 0.6736 0.0
C819 C 0.88306 0.83425 0.71091 0.0
C820 C 0.88859 0.82481 0.69029 0.0
C821 C 0.87174 0.84307 0.70273 0.0
H822 H 0.86745 0.8312 0.63175 0.0
H823 H 0.89685 0.81759 0.69659 0.0
C824 C 0.89451 0.77809 0.55526 0.0
N825 N 0.89306 0.7706 0.49703 0.0
C826 C 0.91174 0.78808 0.53855 0.0
C827 C 0.87658 0.76422 0.54239 0.0
C828 C 0.91069 0.78408 0.50914 0.0
C829 C 0.87614 0.76067 0.5129 0.0
C830 C 0.90791 0.84302 0.60526 0.0
C831 C 0.89749 0.8503 0.58964 0.0
C832 C 0.92171 0.85504 0.62604 0.0
C833 C 0.90096 0.86947 0.5953 0.0
C834 C 0.92472 0.87411 0.63109 0.0
N835 N 0.91437 0.88087 0.61575 0.0
C836 C 0.85352 0.79812 0.5466 0.0
C837 C 0.88649 0.81457 0.52837 0.0
C838 C 0.84693 0.80443 0.52311 0.0
N839 N 0.87306 0.80362 0.54903 0.0
C840 C 0.88053 0.82108 0.50442 0.0
C841 C 0.86063 0.81658 0.50204 0.0
H842 H 0.84327 0.78978 0.56368 0.0
H843 H 0.90202 0.81911 0.53123 0.0
C844 C 0.94549 0.79919 0.6021 0.0
N845 N 0.93974 0.81311 0.60326 0.0
C846 C 0.96412 0.80413 0.591 0.0
C847 C 0.9708 0.83779 0.58363 0.0
C848 C 0.9521 0.83223 0.59502 0.0
C849 C 0.97675 0.82347 0.58054 0.0
H850 H 0.93511 0.78396 0.60803 0.0
H851 H 0.94693 0.84283 0.59541 0.0
O852 O 0.86336 0.78884 0.61555 0.0
O853 O 0.90022 0.79384 0.64843 0.0
O854 O 0.89515 0.78193 0.58404 0.0
O855 O 0.90457 0.82421 0.60028 0.0
H856 H 0.84823 0.78745 0.66711 0.0
H857 H 0.83795 0.75688 0.58623 0.0
H858 H 0.81571 0.76015 0.68442 0.0
H859 H 0.80564 0.73003 0.60505 0.0
H860 H 0.9599 0.82577 0.69427 0.0
H861 H 0.90525 0.76275 0.65553 0.0
H862 H 0.93098 0.82561 0.6711 0.0
H863 H 0.93455 0.76398 0.67912 0.0
H864 H 0.84273 0.71914 0.68687 0.0
H865 H 0.85906 0.70462 0.60537 0.0
H866 H 0.85824 0.84922 0.66605 0.0
H867 H 0.88705 0.834 0.73312 0.0
H868 H 0.92572 0.79893 0.54808 0.0
H869 H 0.86311 0.7564 0.55499 0.0
H870 H 0.92388 0.79175 0.49593 0.0
H871 H 0.86235 0.75005 0.50263 0.0
H872 H 0.8867 0.8412 0.57355 0.0
H873 H 0.9299 0.84964 0.63829 0.0
H874 H 0.89293 0.87526 0.58348 0.0
H875 H 0.93528 0.88354 0.64723 0.0
H876 H 0.83154 0.80088 0.52248 0.0
H877 H 0.89155 0.83026 0.48858 0.0
H878 H 0.96815 0.79266 0.58927 0.0
H879 H 0.97981 0.85276 0.57539 0.0
Li880 Li 0.22444 0.10437 0.61872 0.0
Li881 Li 0.19133 0.07927 0.63487 0.0
Li882 Li 0.20081 0.08253 0.58411 0.0
Li883 Li 0.19544 0.10757 0.60784 0.0
C884 C 0.22682 0.07225 0.6265 0.0
N885 N 0.25807 0.06858 0.64783 0.0
C886 C 0.2268 0.06695 0.6552 0.0
C887 C 0.24265 0.07554 0.60859 0.0
C888 C 0.24276 0.06519 0.66558 0.0
C889 C 0.25834 0.07367 0.61981 0.0
C890 C 0.20633 0.12299 0.65937 0.0
C891 C 0.18844 0.13697 0.68299 0.0
N892 N 0.20554 0.1549 0.68434 0.0
C893 C 0.22375 0.14152 0.66108 0.0
C894 C 0.18855 0.12064 0.67052 0.0
C895 C 0.22303 0.15748 0.67377 0.0
C896 C 0.26587 0.12983 0.61016 0.0
N897 N 0.25157 0.11872 0.6297 0.0
C898 C 0.27573 0.12907 0.66719 0.0
C899 C 0.25606 0.11813 0.65776 0.0
C900 C 0.29087 0.14083 0.64756 0.0
C901 C 0.28575 0.14102 0.61865 0.0
H902 H 0.26181 0.13028 0.58809 0.0
H903 H 0.2443 0.1093 0.67285 0.0
C904 C 0.16849 0.04078 0.65753 0.0
N905 N 0.17711 0.06045 0.66419 0.0
C906 C 0.15907 0.02636 0.67876 0.0
C907 C 0.16809 0.05271 0.71351 0.0
C908 C 0.177 0.06664 0.69146 0.0
C909 C 0.15908 0.03231 0.70722 0.0
H910 H 0.16938 0.03633 0.63583 0.0
H911 H 0.18432 0.08239 0.69622 0.0
C912 C 0.22116 0.11466 0.55326 0.0
N913 N 0.22721 0.11871 0.49458 0.0
C914 C 0.21117 0.12184 0.53645 0.0
C915 C 0.2343 0.10964 0.54024 0.0
C916 C 0.21442 0.12377 0.50681 0.0
C917 C 0.23712 0.11175 0.51054 0.0
C918 C 0.15727 0.06425 0.60635 0.0
C919 C 0.1501 0.04599 0.59227 0.0
C920 C 0.14531 0.06662 0.6266 0.0
C921 C 0.13109 0.03034 0.5989 0.0
C922 C 0.1264 0.05059 0.63266 0.0
N923 N 0.11975 0.03293 0.6188 0.0
C924 C 0.20156 0.05398 0.54692 0.0
C925 C 0.184 0.06964 0.52977 0.0
C926 C 0.1948 0.04075 0.52378 0.0
N927 N 0.19574 0.06776 0.54971 0.0
C928 C 0.17696 0.05681 0.50627 0.0
C929 C 0.18184 0.0417 0.50354 0.0
H930 H 0.21058 0.05257 0.56344 0.0
H931 H 0.17929 0.08049 0.53292 0.0
C932 C 0.1994 0.14554 0.59967 0.0
N933 N 0.18626 0.12565 0.60044 0.0
C934 C 0.19368 0.15858 0.58827 0.0
C935 C 0.16091 0.13043 0.57944 0.0
C936 C 0.1672 0.11799 0.59127 0.0
C937 C 0.17439 0.15098 0.57696 0.0
H938 H 0.21465 0.15115 0.60628 0.0
H939 H 0.15724 0.10208 0.59133 0.0
O940 O 0.21155 0.07446 0.61608 0.0
O941 O 0.20668 0.10723 0.6468 0.0
O942 O 0.218 0.11242 0.58227 0.0
O943 O 0.17593 0.0797 0.60043 0.0
H944 H 0.21472 0.06442 0.6694 0.0
H945 H 0.2429 0.0797 0.58635 0.0
H946 H 0.243 0.06119 0.68778 0.0
H947 H 0.27075 0.0763 0.60625 0.0
H948 H 0.17477 0.1354 0.69159 0.0
H949 H 0.23762 0.14362 0.65246 0.0
H950 H 0.17497 0.10638 0.66942 0.0
H951 H 0.23636 0.17193 0.67513 0.0
H952 H 0.27904 0.12832 0.6896 0.0
H953 H 0.2969 0.15012 0.6029 0.0
H954 H 0.15259 0.01076 0.67324 0.0
H955 H 0.16843 0.0578 0.73529 0.0
H956 H 0.20089 0.12573 0.54608 0.0
H957 H 0.24205 0.10393 0.55289 0.0
H958 H 0.20674 0.12925 0.49353 0.0
H959 H 0.24716 0.10781 0.50016 0.0
H960 H 0.15916 0.04383 0.57665 0.0
H961 H 0.15063 0.08065 0.63765 0.0
H962 H 0.12539 0.0161 0.58828 0.0
H963 H 0.11703 0.05219 0.64839 0.0
H964 H 0.19867 0.02914 0.52278 0.0
H965 H 0.16715 0.05817 0.49104 0.0
H966 H 0.20453 0.17431 0.58709 0.0
H967 H 0.14604 0.12374 0.57052 0.0
Li968 Li 0.89416 0.11959 0.62083 0.0
Li969 Li 0.91948 0.11137 0.63609 0.0
Li970 Li 0.91571 0.11759 0.5855 0.0
Li971 Li 0.89073 0.08738 0.6098 0.0
C972 C 0.92715 0.15419 0.62792 0.0
N973 N 0.93299 0.19001 0.64912 0.0
C974 C 0.9338 0.1599 0.6561 0.0
C975 C 0.92362 0.16677 0.61046 0.0
C976 C 0.93665 0.17806 0.66642 0.0
C977 C 0.9266 0.18479 0.62161 0.0
C978 C 0.87573 0.08285 0.66096 0.0
C979 C 0.86149 0.05083 0.68419 0.0
N980 N 0.84339 0.04964 0.68415 0.0
C981 C 0.85702 0.08138 0.66127 0.0
C982 C 0.87805 0.06753 0.67263 0.0
C983 C 0.84084 0.06445 0.67306 0.0
C984 C 0.86648 0.13259 0.6126 0.0
N985 N 0.87976 0.13243 0.63148 0.0
C986 C 0.87131 0.14943 0.66662 0.0
C987 C 0.88223 0.14042 0.65818 0.0
C988 C 0.85748 0.14981 0.64755 0.0
C989 C 0.85511 0.14125 0.62023 0.0
H990 H 0.8645 0.12575 0.59175 0.0
H991 H 0.89251 0.1396 0.67302 0.0
C992 C 0.95847 0.12705 0.65578 0.0
N993 N 0.93916 0.11634 0.66431 0.0
C994 C 0.97384 0.13256 0.67556 0.0
C995 C 0.94921 0.11637 0.71285 0.0
C996 C 0.93426 0.11081 0.69216 0.0
C997 C 0.96938 0.12761 0.70473 0.0
H998 H 0.96192 0.13165 0.63361 0.0
H999 H 0.91876 0.10262 0.69843 0.0
C1000 C 0.88325 0.10649 0.55565 0.0
N1001 N 0.87834 0.10938 0.49739 0.0
C1002 C 0.87629 0.08968 0.53809 0.0
C1003 C 0.88764 0.12475 0.54359 0.0
C1004 C 0.87391 0.09145 0.50869 0.0
C1005 C 0.88509 0.12591 0.51409 0.0
C1006 C 0.93373 0.09182 0.60665 0.0
C1007 C 0.95142 0.10187 0.59094 0.0
C1008 C 0.93181 0.0782 0.62785 0.0
C1009 C 0.96697 0.09823 0.59688 0.0
C1010 C 0.94772 0.075 0.63317 0.0
N1011 N 0.96482 0.085 0.61772 0.0
C1012 C 0.94438 0.14729 0.54939 0.0
C1013 C 0.9278 0.11476 0.52964 0.0
C1014 C 0.9574 0.15435 0.52604 0.0
N1015 N 0.93022 0.12775 0.55096 0.0
C1016 C 0.94035 0.1212 0.50578 0.0
C1017 C 0.95583 0.14111 0.50419 0.0
H1018 H 0.94623 0.15719 0.56696 0.0
H1019 H 0.91671 0.09919 0.53182 0.0
C1020 C 0.85261 0.05517 0.59842 0.0
N1021 N 0.87192 0.06025 0.60272 0.0
C1022 C 0.83913 0.03657 0.58697 0.0
C1023 C 0.86545 0.02845 0.5861 0.0
C1024 C 0.87841 0.04721 0.5975 0.0
C1025 C 0.84569 0.0232 0.57975 0.0
H1026 H 0.84799 0.06603 0.60215 0.0
H1027 H 0.89394 0.05181 0.60045 0.0
O1028 O 0.92402 0.13636 0.61751 0.0
O1029 O 0.89166 0.09911 0.649 0.0
O1030 O 0.88591 0.10513 0.58444 0.0
O1031 O 0.9184 0.09533 0.60136 0.0
H1032 H 0.93657 0.15035 0.66995 0.0
H1033 H 0.91848 0.16258 0.58861 0.0
H1034 H 0.9417 0.18263 0.68822 0.0
H1035 H 0.92381 0.19461 0.60839 0.0
H1036 H 0.86304 0.03881 0.69316 0.0
H1037 H 0.85497 0.09309 0.65224 0.0
H1038 H 0.89245 0.06848 0.6726 0.0
H1039 H 0.82624 0.06305 0.67331 0.0
H1040 H 0.87333 0.15559 0.68805 0.0
H1041 H 0.84464 0.14131 0.60489 0.0
H1042 H 0.98906 0.14086 0.66801 0.0
H1043 H 0.94494 0.11248 0.73508 0.0
H1044 H 0.87299 0.07546 0.54695 0.0
H1045 H 0.89311 0.13792 0.55683 0.0
H1046 H 0.86862 0.07858 0.49483 0.0
H1047 H 0.88852 0.13997 0.50445 0.0
H1048 H 0.95322 0.11251 0.57452 0.0
H1049 H 0.91825 0.07034 0.64025 0.0
H1050 H 0.98078 0.10596 0.58498 0.0
H1051 H 0.94648 0.06459 0.64963 0.0
H1052 H 0.9693 0.16972 0.52606 0.0
H1053 H 0.93845 0.11051 0.48933 0.0
H1054 H 0.824 0.03307 0.58256 0.0
H1055 H 0.87125 0.01877 0.58043 0.0
Li1056 Li 0.8635 0.4256 0.43597 0.0
Li1057 Li 0.89365 0.45428 0.45075 0.0
Li1058 Li 0.85982 0.44754 0.4686 0.0
Li1059 Li 0.87027 0.45676 0.41704 0.0
C1060 C 0.87384 0.417 0.48887 0.0
N1061 N 0.87384 0.38525 0.51568 0.0
C1062 C 0.8876 0.41128 0.48071 0.0
C1063 C 0.86018 0.40671 0.51075 0.0
C1064 C 0.88732 0.39514 0.4945 0.0
C1065 C 0.86039 0.39066 0.52402 0.0
C1066 C 0.90132 0.4542 0.39245 0.0
C1067 C 0.92767 0.48564 0.37475 0.0
N1068 N 0.93177 0.47586 0.35401 0.0
C1069 C 0.90576 0.44446 0.37093 0.0
C1070 C 0.91231 0.47497 0.39436 0.0
C1071 C 0.92122 0.45567 0.35171 0.0
C1072 C 0.85369 0.39836 0.39352 0.0
N1073 N 0.85312 0.39887 0.42263 0.0
C1074 C 0.83966 0.3636 0.42499 0.0
C1075 C 0.84595 0.38193 0.43853 0.0
C1076 C 0.84064 0.3628 0.39489 0.0
C1077 C 0.84743 0.38048 0.37918 0.0
H1078 H 0.85897 0.41196 0.38136 0.0
H1079 H 0.84508 0.38251 0.4616 0.0
C1080 C 0.92688 0.4769 0.48563 0.0
N1081 N 0.92049 0.46487 0.46216 0.0
C1082 C 0.94646 0.48486 0.49519 0.0
C1083 C 0.95249 0.46794 0.45617 0.0
C1084 C 0.93272 0.46009 0.44761 0.0
C1085 C 0.95954 0.48047 0.48026 0.0
H1086 H 0.9167 0.48025 0.49691 0.0
H1087 H 0.92713 0.45007 0.42947 0.0
C1088 C 0.82755 0.4184 0.42744 0.0
N1089 N 0.79393 0.38228 0.41585 0.0
C1090 C 0.81962 0.4141 0.39969 0.0
C1091 C 0.81833 0.40439 0.44934 0.0
C1092 C 0.80262 0.39573 0.39426 0.0
C1093 C 0.80135 0.3862 0.44304 0.0
C1094 C 0.8855 0.4911 0.45696 0.0
C1095 C 0.86908 0.49366 0.46123 0.0
C1096 C 0.90471 0.50762 0.45765 0.0
C1097 C 0.87216 0.51279 0.46603 0.0
C1098 C 0.90717 0.52651 0.46245 0.0
N1099 N 0.89098 0.52868 0.46652 0.0
C1100 C 0.85807 0.46318 0.52201 0.0
C1101 C 0.82698 0.44565 0.49813 0.0
C1102 C 0.84958 0.46889 0.54378 0.0
N1103 N 0.84675 0.45195 0.49969 0.0
C1104 C 0.81782 0.45086 0.51956 0.0
C1105 C 0.8292 0.4629 0.54262 0.0
H1106 H 0.87385 0.46828 0.52232 0.0
H1107 H 0.81841 0.43706 0.47983 0.0
C1108 C 0.86302 0.4584 0.35911 0.0
N1109 N 0.8677 0.46937 0.38361 0.0
C1110 C 0.85804 0.46494 0.33421 0.0
C1111 C 0.86381 0.49448 0.35979 0.0
C1112 C 0.86879 0.48741 0.38414 0.0
C1113 C 0.85774 0.48291 0.33462 0.0
H1114 H 0.8624 0.44415 0.35927 0.0
H1115 H 0.8727 0.49599 0.40364 0.0
O1116 O 0.87398 0.43287 0.47594 0.0
O1117 O 0.88602 0.44334 0.41111 0.0
O1118 O 0.84442 0.4361 0.43309 0.0
O1119 O 0.88288 0.47249 0.45266 0.0
H1120 H 0.89828 0.41915 0.46382 0.0
H1121 H 0.84951 0.41108 0.51735 0.0
H1122 H 0.89782 0.39047 0.48837 0.0
H1123 H 0.84987 0.38251 0.54095 0.0
H1124 H 0.93631 0.50171 0.376 0.0
H1125 H 0.89734 0.4284 0.36911 0.0
H1126 H 0.90903 0.48278 0.41072 0.0
H1127 H 0.92482 0.44832 0.33495 0.0
H1128 H 0.83441 0.35031 0.43795 0.0
H1129 H 0.84782 0.38055 0.35592 0.0
H1130 H 0.95141 0.49453 0.51381 0.0
H1131 H 0.96208 0.46401 0.44438 0.0
H1132 H 0.82657 0.42479 0.38252 0.0
H1133 H 0.82441 0.40744 0.47088 0.0
H1134 H 0.79636 0.39217 0.37287 0.0
H1135 H 0.79414 0.37516 0.45972 0.0
H1136 H 0.8541 0.48106 0.46045 0.0
H1137 H 0.91759 0.50589 0.45448 0.0
H1138 H 0.85959 0.515 0.46928 0.0
H1139 H 0.92195 0.53944 0.46297 0.0
H1140 H 0.85905 0.47848 0.56077 0.0
H1141 H 0.80205 0.44568 0.51789 0.0
H1142 H 0.85377 0.45567 0.31518 0.0
H1143 H 0.86361 0.50831 0.36129 0.0
Li1144 Li 0.5727 0.43938 0.43985 0.0
Li1145 Li 0.54147 0.43766 0.45345 0.0
Li1146 Li 0.54862 0.41177 0.46879 0.0
Li1147 Li 0.5408 0.41473 0.41855 0.0
C1148 C 0.57938 0.45456 0.49318 0.0
N1149 N 0.61289 0.48402 0.52035 0.0
C1150 C 0.58215 0.47373 0.49597 0.0
C1151 C 0.59359 0.45034 0.50434 0.0
C1152 C 0.5992 0.48843 0.50977 0.0
C1153 C 0.61046 0.46545 0.51794 0.0
C1154 C 0.55317 0.44637 0.38663 0.0
C1155 C 0.53345 0.44194 0.34428 0.0
N1156 N 0.55016 0.44921 0.32787 0.0
C1157 C 0.57016 0.45385 0.36936 0.0
C1158 C 0.53467 0.44044 0.37403 0.0
C1159 C 0.56832 0.45516 0.33969 0.0
C1160 C 0.60882 0.44695 0.41653 0.0
N1161 N 0.60006 0.4559 0.43062 0.0
C1162 C 0.629 0.48788 0.42392 0.0
C1163 C 0.6097 0.47597 0.43449 0.0
C1164 C 0.63822 0.47909 0.40846 0.0
C1165 C 0.6279 0.45827 0.40522 0.0
H1166 H 0.60059 0.43109 0.41275 0.0
H1167 H 0.60215 0.48284 0.44469 0.0
C1168 C 0.52936 0.45665 0.49373 0.0
N1169 N 0.52956 0.45274 0.46532 0.0
C1170 C 0.52102 0.46798 0.50306 0.0
C1171 C 0.51252 0.47032 0.45382 0.0
C1172 C 0.52134 0.45926 0.44542 0.0
C1173 C 0.51249 0.47508 0.48298 0.0
H1174 H 0.53592 0.45114 0.5091 0.0
H1175 H 0.52156 0.4558 0.42302 0.0
C1176 C 0.56691 0.39628 0.4382 0.0
N1177 N 0.57538 0.36623 0.4488 0.0
C1178 C 0.55546 0.37759 0.42543 0.0
C1179 C 0.58277 0.39973 0.45615 0.0
C1180 C 0.55995 0.36258 0.43111 0.0
C1181 C 0.58678 0.38434 0.46131 0.0
C1182 C 0.50701 0.40692 0.46482 0.0
C1183 C 0.50445 0.40442 0.49455 0.0
C1184 C 0.49308 0.40896 0.44832 0.0
C1185 C 0.48796 0.40405 0.5073 0.0
C1186 C 0.4768 0.40854 0.46189 0.0
N1187 N 0.4746 0.40611 0.49085 0.0
C1188 C 0.55108 0.39757 0.52457 0.0
C1189 C 0.53202 0.37322 0.48955 0.0
C1190 C 0.54582 0.38279 0.54543 0.0
N1191 N 0.54405 0.39251 0.49732 0.0
C1192 C 0.52663 0.35799 0.50952 0.0
C1193 C 0.53321 0.36267 0.53808 0.0
H1194 H 0.56023 0.41308 0.53032 0.0
H1195 H 0.52627 0.36969 0.46789 0.0
C1196 C 0.54154 0.39976 0.36397 0.0
N1197 N 0.52922 0.39904 0.3853 0.0
C1198 C 0.53412 0.38602 0.3415 0.0
C1199 C 0.50137 0.37156 0.36291 0.0
C1200 C 0.50942 0.38561 0.38492 0.0
C1201 C 0.5139 0.37128 0.34132 0.0
H1202 H 0.55732 0.41033 0.36527 0.0
H1203 H 0.50007 0.38516 0.40245 0.0
O1204 O 0.56275 0.43995 0.47984 0.0
O1205 O 0.55463 0.44477 0.41569 0.0
O1206 O 0.56266 0.41113 0.4331 0.0
O1207 O 0.52337 0.40792 0.45205 0.0
H1208 H 0.57141 0.47733 0.48724 0.0
H1209 H 0.59163 0.43556 0.50253 0.0
H1210 H 0.60159 0.50335 0.51195 0.0
H1211 H 0.62161 0.4624 0.52661 0.0
H1212 H 0.5192 0.43724 0.33422 0.0
H1213 H 0.58461 0.45858 0.37869 0.0
H1214 H 0.52131 0.43433 0.38698 0.0
H1215 H 0.58134 0.46087 0.32606 0.0
H1216 H 0.63634 0.50383 0.42711 0.0
H1217 H 0.63399 0.45077 0.39277 0.0
H1218 H 0.52163 0.47144 0.52569 0.0
H1219 H 0.50573 0.475 0.43757 0.0
H1220 H 0.54311 0.37464 0.41151 0.0
H1221 H 0.59188 0.41416 0.46597 0.0
H1222 H 0.55115 0.34802 0.4215 0.0
H1223 H 0.59897 0.38679 0.47523 0.0
H1224 H 0.51518 0.40301 0.50768 0.0
H1225 H 0.49498 0.41115 0.42533 0.0
H1226 H 0.48582 0.4022 0.5303 0.0
H1227 H 0.46597 0.41022 0.44942 0.0
H1228 H 0.55097 0.38716 0.56726 0.0
H1229 H 0.51714 0.34273 0.50268 0.0
H1230 H 0.54433 0.38612 0.32555 0.0
H1231 H 0.48568 0.36048 0.36346 0.0
Li1232 Li 0.58604 0.12981 0.42221 0.0
Li1233 Li 0.58683 0.13924 0.47141 0.0
Li1234 Li 0.56063 0.10531 0.45365 0.0
Li1235 Li 0.56066 0.13667 0.43918 0.0
C1236 C 0.6023 0.1098 0.45074 0.0
N1237 N 0.62787 0.09549 0.43966 0.0
C1238 C 0.62289 0.1225 0.45251 0.0
C1239 C 0.59469 0.08974 0.4438 0.0
C1240 C 0.63557 0.11501 0.44667 0.0
C1241 C 0.60788 0.08281 0.43817 0.0
C1242 C 0.60586 0.1735 0.43963 0.0
C1243 C 0.62096 0.20885 0.44762 0.0
N1244 N 0.63929 0.21066 0.4456 0.0
C1245 C 0.62484 0.17571 0.43746 0.0
C1246 C 0.60387 0.19019 0.44458 0.0
C1247 C 0.64156 0.19462 0.44061 0.0
C1248 C 0.60673 0.15067 0.37372 0.0
N1249 N 0.60213 0.1339 0.38879 0.0
C1250 C 0.62081 0.1259 0.35592 0.0
C1251 C 0.60844 0.12125 0.37992 0.0
C1252 C 0.62647 0.14359 0.34071 0.0
C1253 C 0.61896 0.15586 0.34961 0.0
H1254 H 0.60106 0.1602 0.38066 0.0
H1255 H 0.60394 0.10756 0.39131 0.0
C1256 C 0.61086 0.1412 0.51669 0.0
N1257 N 0.60384 0.15209 0.50351 0.0
C1258 C 0.62458 0.14936 0.53903 0.0
C1259 C 0.62326 0.17972 0.53463 0.0
C1260 C 0.60953 0.17094 0.51224 0.0
C1261 C 0.63109 0.16893 0.54821 0.0
H1262 H 0.60602 0.1262 0.50954 0.0
H1263 H 0.60361 0.17928 0.50175 0.0
C1264 C 0.55681 0.10854 0.38738 0.0
N1265 N 0.55884 0.09918 0.33071 0.0
C1266 C 0.55586 0.12028 0.36536 0.0
C1267 C 0.5587 0.092 0.38063 0.0
C1268 C 0.55695 0.11531 0.33682 0.0
C1269 C 0.55971 0.08752 0.35183 0.0
C1270 C 0.54872 0.13201 0.49646 0.0
C1271 C 0.53168 0.11885 0.51184 0.0
C1272 C 0.55633 0.15252 0.49889 0.0
C1273 C 0.52257 0.12647 0.52963 0.0
C1274 C 0.54679 0.15956 0.51689 0.0
N1275 N 0.53025 0.1465 0.53177 0.0
C1276 C 0.54769 0.07261 0.49025 0.0
C1277 C 0.52976 0.06556 0.44646 0.0
C1278 C 0.53589 0.05292 0.49923 0.0
N1279 N 0.54443 0.07846 0.46429 0.0
C1280 C 0.51771 0.04568 0.45446 0.0
C1281 C 0.52069 0.03918 0.48119 0.0
H1282 H 0.55949 0.0833 0.50394 0.0
H1283 H 0.52736 0.07074 0.42611 0.0
C1284 C 0.55264 0.16265 0.4095 0.0
N1285 N 0.54436 0.14717 0.42822 0.0
C1286 C 0.54116 0.16998 0.39744 0.0
C1287 C 0.51283 0.14551 0.42457 0.0
C1288 C 0.52492 0.13862 0.43615 0.0
C1289 C 0.52089 0.16123 0.40461 0.0
H1290 H 0.568 0.16876 0.40304 0.0
H1291 H 0.51868 0.12609 0.45074 0.0
O1292 O 0.58962 0.11679 0.45669 0.0
O1293 O 0.58928 0.15511 0.4367 0.0
O1294 O 0.55635 0.11349 0.41544 0.0
O1295 O 0.55749 0.12478 0.47838 0.0
H1296 H 0.62901 0.13795 0.4585 0.0
H1297 H 0.5788 0.07966 0.44256 0.0
H1298 H 0.65154 0.1247 0.44781 0.0
H1299 H 0.60222 0.06735 0.43259 0.0
H1300 H 0.61964 0.22189 0.45161 0.0
H1301 H 0.62662 0.16299 0.43326 0.0
H1302 H 0.58928 0.18874 0.44633 0.0
H1303 H 0.65634 0.19655 0.43903 0.0
H1304 H 0.62597 0.11584 0.34945 0.0
H1305 H 0.62304 0.16971 0.33868 0.0
H1306 H 0.63038 0.14054 0.54853 0.0
H1307 H 0.62764 0.19475 0.54126 0.0
H1308 H 0.5545 0.13319 0.37026 0.0
H1309 H 0.55969 0.08291 0.39745 0.0
H1310 H 0.55634 0.12432 0.31954 0.0
H1311 H 0.5613 0.07484 0.34628 0.0
H1312 H 0.52554 0.10291 0.50994 0.0
H1313 H 0.56925 0.16284 0.48663 0.0
H1314 H 0.50936 0.11647 0.54167 0.0
H1315 H 0.55248 0.1754 0.51893 0.0
H1316 H 0.53876 0.04843 0.51989 0.0
H1317 H 0.50599 0.03558 0.44012 0.0
H1318 H 0.54791 0.18177 0.38164 0.0
H1319 H 0.4973 0.13839 0.43073 0.0
Li1320 Li 0.75748 0.5301 0.72926 0.0
Li1321 Li 0.78797 0.56111 0.71349 0.0
Li1322 Li 0.78138 0.52665 0.69824 0.0
Li1323 Li 0.79036 0.53856 0.74808 0.0
C1324 C 0.75164 0.54011 0.67226 0.0
N1325 N 0.72257 0.54003 0.63787 0.0
C1326 C 0.74905 0.5567 0.67166 0.0
C1327 C 0.73969 0.52362 0.65502 0.0
C1328 C 0.73421 0.55634 0.65421 0.0
C1329 C 0.72499 0.52382 0.6379 0.0
C1330 C 0.77864 0.56285 0.77815 0.0
C1331 C 0.79912 0.58901 0.81145 0.0
N1332 N 0.78405 0.58114 0.83096 0.0
C1333 C 0.76332 0.55506 0.79848 0.0
C1334 C 0.79666 0.58001 0.78461 0.0
C1335 C 0.76636 0.56451 0.82508 0.0
C1336 C 0.72502 0.50525 0.76263 0.0
N1337 N 0.73036 0.51851 0.74071 0.0
C1338 C 0.69821 0.51572 0.74118 0.0
C1339 C 0.71743 0.52388 0.72986 0.0
C1340 C 0.69236 0.50202 0.76391 0.0
C1341 C 0.70604 0.49672 0.77449 0.0
H1342 H 0.73578 0.50177 0.77158 0.0
H1343 H 0.72208 0.53482 0.713 0.0
C1344 C 0.80984 0.59366 0.6772 0.0
N1345 N 0.79859 0.5877 0.70142 0.0
C1346 C 0.81801 0.61326 0.66759 0.0
C1347 C 0.80289 0.62013 0.70815 0.0
C1348 C 0.79483 0.60035 0.71678 0.0
C1349 C 0.81468 0.62685 0.68322 0.0
H1350 H 0.81239 0.58315 0.66535 0.0
H1351 H 0.78559 0.59509 0.73575 0.0
C1352 C 0.75718 0.49247 0.73236 0.0
N1353 N 0.73312 0.45166 0.72841 0.0
C1354 C 0.7604 0.47998 0.75046 0.0
C1355 C 0.74171 0.48425 0.71233 0.0
C1356 C 0.74808 0.45937 0.7481 0.0
C1357 C 0.7297 0.46357 0.71065 0.0
C1358 C 0.82616 0.55823 0.71577 0.0
C1359 C 0.8356 0.54798 0.70608 0.0
C1360 C 0.83743 0.57709 0.72806 0.0
C1361 C 0.8562 0.55666 0.70929 0.0
C1362 C 0.858 0.58528 0.73087 0.0
N1363 N 0.86688 0.57497 0.72153 0.0
C1364 C 0.78789 0.51848 0.64145 0.0
C1365 C 0.78865 0.49698 0.67697 0.0
C1366 C 0.79347 0.50943 0.62029 0.0
N1367 N 0.7858 0.51225 0.66915 0.0
C1368 C 0.79398 0.48735 0.65651 0.0
C1369 C 0.79686 0.49378 0.62778 0.0
H1370 H 0.78587 0.53093 0.636 0.0
H1371 H 0.78737 0.49263 0.69926 0.0
C1372 C 0.80233 0.53895 0.80757 0.0
N1373 N 0.80383 0.53481 0.77956 0.0
C1374 C 0.80974 0.532 0.82934 0.0
C1375 C 0.82046 0.51714 0.793 0.0
C1376 C 0.81291 0.52436 0.77204 0.0
C1377 C 0.81839 0.52044 0.82212 0.0
H1378 H 0.79449 0.54663 0.81333 0.0
H1379 H 0.81325 0.52063 0.74976 0.0
O1380 O 0.76624 0.54028 0.68891 0.0
O1381 O 0.77586 0.55384 0.75197 0.0
O1382 O 0.7691 0.51267 0.7345 0.0
O1383 O 0.80606 0.55011 0.71229 0.0
H1384 H 0.75826 0.56963 0.68474 0.0
H1385 H 0.74182 0.51086 0.6547 0.0
H1386 H 0.73194 0.56901 0.65368 0.0
H1387 H 0.71557 0.51113 0.62454 0.0
H1388 H 0.81301 0.60226 0.81676 0.0
H1389 H 0.74924 0.54187 0.79379 0.0
H1390 H 0.80862 0.58629 0.76911 0.0
H1391 H 0.75465 0.55863 0.84103 0.0
H1392 H 0.68813 0.52025 0.73247 0.0
H1393 H 0.70239 0.48666 0.79252 0.0
H1394 H 0.82668 0.61762 0.64797 0.0
H1395 H 0.8001 0.63007 0.72111 0.0
H1396 H 0.7723 0.48615 0.76615 0.0
H1397 H 0.73895 0.49375 0.69841 0.0
H1398 H 0.75041 0.44951 0.76193 0.0
H1399 H 0.71765 0.45699 0.69526 0.0
H1400 H 0.82709 0.53346 0.6962 0.0
H1401 H 0.83042 0.58539 0.7351 0.0
H1402 H 0.8637 0.54887 0.70198 0.0
H1403 H 0.86692 0.59986 0.74038 0.0
H1404 H 0.79581 0.51515 0.59857 0.0
H1405 H 0.79613 0.4752 0.66328 0.0
H1406 H 0.80761 0.5346 0.85159 0.0
H1407 H 0.82714 0.50837 0.78654 0.0
Li1408 Li 0.47095 0.25572 0.69945 0.0
Li1409 Li 0.46035 0.25232 0.75009 0.0
Li1410 Li 0.46863 0.22849 0.72952 0.0
Li1411 Li 0.43832 0.22919 0.71579 0.0
C1412 C 0.50598 0.26697 0.72787 0.0
N1413 N 0.54587 0.28682 0.71345 0.0
C1414 C 0.51897 0.28535 0.74044 0.0
C1415 C 0.51326 0.25866 0.70803 0.0
C1416 C 0.53909 0.29516 0.73284 0.0
C1417 C 0.53348 0.26892 0.701 0.0
C1418 C 0.43358 0.25977 0.7045 0.0
C1419 C 0.40049 0.2552 0.70741 0.0
N1420 N 0.40182 0.26086 0.67947 0.0
C1421 C 0.43467 0.26565 0.67587 0.0
C1422 C 0.41641 0.25463 0.72048 0.0
C1423 C 0.41845 0.26608 0.66359 0.0
C1424 C 0.48232 0.26783 0.64209 0.0
N1425 N 0.48524 0.27408 0.66984 0.0
C1426 C 0.50662 0.30779 0.65532 0.0
C1427 C 0.49716 0.29357 0.67683 0.0
C1428 C 0.50346 0.30188 0.6264 0.0
C1429 C 0.49133 0.28157 0.61988 0.0
H1430 H 0.47249 0.25228 0.63719 0.0
H1431 H 0.49885 0.29814 0.69908 0.0
C1432 C 0.47889 0.27 0.8016 0.0
N1433 N 0.46391 0.26743 0.78382 0.0
C1434 C 0.48371 0.28237 0.82553 0.0
C1435 C 0.45706 0.28863 0.813 0.0
C1436 C 0.45284 0.27621 0.78916 0.0
C1437 C 0.47298 0.2922 0.83124 0.0
H1438 H 0.48748 0.26288 0.79664 0.0
H1439 H 0.44105 0.27394 0.77457 0.0
C1440 C 0.4565 0.21184 0.67426 0.0
N1441 N 0.45378 0.18069 0.64191 0.0
C1442 C 0.43935 0.19307 0.67558 0.0
C1443 C 0.4722 0.2148 0.6563 0.0
C1444 C 0.43828 0.17751 0.65909 0.0
C1445 C 0.47057 0.19885 0.64019 0.0
C1446 C 0.44137 0.22149 0.78234 0.0
C1447 C 0.45263 0.2172 0.80143 0.0
C1448 C 0.42668 0.2252 0.793 0.0
C1449 C 0.44913 0.21688 0.83091 0.0
C1450 C 0.42365 0.22477 0.82263 0.0
N1451 N 0.43485 0.22066 0.84082 0.0
C1452 C 0.49604 0.22123 0.75753 0.0
C1453 C 0.47233 0.19337 0.73093 0.0
C1454 C 0.50412 0.21017 0.76876 0.0
N1455 N 0.48035 0.21272 0.73914 0.0
C1456 C 0.48008 0.18177 0.74146 0.0
C1457 C 0.49598 0.19005 0.76108 0.0
H1458 H 0.50168 0.23638 0.76465 0.0
H1459 H 0.45947 0.18666 0.71712 0.0
C1460 C 0.40702 0.21354 0.67567 0.0
N1461 N 0.41149 0.21317 0.70381 0.0
C1462 C 0.38749 0.20189 0.66599 0.0
C1463 C 0.37759 0.18951 0.71439 0.0
C1464 C 0.39733 0.20139 0.72311 0.0
C1465 C 0.37247 0.18968 0.68548 0.0
H1466 H 0.41869 0.22292 0.66077 0.0
H1467 H 0.40138 0.20108 0.74521 0.0
O1468 O 0.48619 0.25732 0.73475 0.0
O1469 O 0.44918 0.25891 0.71675 0.0
O1470 O 0.45773 0.22739 0.68984 0.0
O1471 O 0.44494 0.22239 0.75343 0.0
H1472 H 0.51352 0.292 0.75578 0.0
H1473 H 0.50339 0.24442 0.69821 0.0
H1474 H 0.54932 0.30943 0.74234 0.0
H1475 H 0.53932 0.26266 0.68566 0.0
H1476 H 0.38704 0.25109 0.71946 0.0
H1477 H 0.44783 0.26972 0.66317 0.0
H1478 H 0.41525 0.24994 0.74261 0.0
H1479 H 0.41906 0.27052 0.64142 0.0
H1480 H 0.51561 0.32334 0.66121 0.0
H1481 H 0.48859 0.27643 0.59783 0.0
H1482 H 0.49632 0.28491 0.8386 0.0
H1483 H 0.44825 0.2957 0.81673 0.0
H1484 H 0.42711 0.19041 0.6895 0.0
H1485 H 0.48548 0.22928 0.6547 0.0
H1486 H 0.42514 0.16288 0.66003 0.0
H1487 H 0.48262 0.20092 0.62625 0.0
H1488 H 0.464 0.21422 0.79361 0.0
H1489 H 0.41793 0.2287 0.77859 0.0
H1490 H 0.4578 0.21366 0.84593 0.0
H1491 H 0.41244 0.22778 0.83117 0.0
H1492 H 0.51599 0.21711 0.78442 0.0
H1493 H 0.47335 0.16635 0.73486 0.0
H1494 H 0.38415 0.20258 0.64358 0.0
H1495 H 0.36653 0.18006 0.73 0.0
Li1496 Li 0.77158 0.21195 0.71408 0.0
Li1497 Li 0.77275 0.24316 0.728 0.0
Li1498 Li 0.7493 0.21143 0.7514 0.0
Li1499 Li 0.74412 0.2187 0.70173 0.0
C1500 C 0.78438 0.22584 0.77964 0.0
N1501 N 0.79441 0.22604 0.83669 0.0
C1502 C 0.79137 0.24316 0.79608 0.0
C1503 C 0.78273 0.20869 0.79218 0.0
C1504 C 0.79632 0.24295 0.82489 0.0
C1505 C 0.78779 0.20906 0.82106 0.0
C1506 C 0.78679 0.24909 0.67457 0.0
C1507 C 0.79881 0.28105 0.6519 0.0
N1508 N 0.81681 0.28239 0.64782 0.0
C1509 C 0.80535 0.25071 0.67 0.0
C1510 C 0.78341 0.26429 0.66529 0.0
C1511 C 0.82036 0.26769 0.65647 0.0
C1512 C 0.78248 0.19077 0.67591 0.0
N1513 N 0.78659 0.2003 0.70161 0.0
C1514 C 0.81327 0.19395 0.70995 0.0
C1515 C 0.80162 0.20208 0.7186 0.0
C1516 C 0.8095 0.18405 0.68342 0.0
C1517 C 0.79383 0.18249 0.66631 0.0
H1518 H 0.77047 0.18974 0.66281 0.0
H1519 H 0.80461 0.20986 0.73886 0.0
C1520 C 0.78105 0.28008 0.7492 0.0
N1521 N 0.78963 0.27066 0.73594 0.0
C1522 C 0.79279 0.29909 0.76054 0.0
C1523 C 0.82204 0.29887 0.74314 0.0
C1524 C 0.8097 0.27966 0.73249 0.0
C1525 C 0.81365 0.30866 0.75813 0.0
H1526 H 0.76514 0.27237 0.75253 0.0
H1527 H 0.8162 0.2716 0.72271 0.0
C1528 C 0.73526 0.17418 0.71592 0.0
N1529 N 0.72062 0.13359 0.71332 0.0
C1530 C 0.71878 0.16216 0.6987 0.0
C1531 C 0.74436 0.16558 0.73167 0.0
C1532 C 0.71155 0.14166 0.69775 0.0
C1533 C 0.73675 0.14504 0.73007 0.0
C1534 C 0.72902 0.23613 0.73448 0.0
C1535 C 0.71154 0.22491 0.75024 0.0
C1536 C 0.73038 0.25062 0.71529 0.0
C1537 C 0.69558 0.22824 0.74628 0.0
C1538 C 0.71409 0.25348 0.71192 0.0
N1539 N 0.69717 0.24233 0.72734 0.0
C1540 C 0.7394 0.21214 0.80907 0.0
C1541 C 0.71988 0.18087 0.78641 0.0
C1542 C 0.72738 0.20551 0.83347 0.0
N1543 N 0.73536 0.19989 0.78609 0.0
C1544 C 0.70726 0.17371 0.8102 0.0
C1545 C 0.7106 0.18629 0.83387 0.0
H1546 H 0.7513 0.22742 0.80788 0.0
H1547 H 0.71654 0.17161 0.76758 0.0
C1548 C 0.72812 0.21985 0.64702 0.0
N1549 N 0.72373 0.21338 0.67461 0.0
C1550 C 0.71285 0.21421 0.62686 0.0
C1551 C 0.68891 0.19598 0.66421 0.0
C1552 C 0.70461 0.20177 0.68348 0.0
C1553 C 0.6929 0.20183 0.63527 0.0
H1554 H 0.7435 0.22887 0.64049 0.0
H1555 H 0.70158 0.19655 0.70544 0.0
O1556 O 0.77938 0.22572 0.75138 0.0
O1557 O 0.77195 0.23264 0.68788 0.0
O1558 O 0.74228 0.19424 0.71744 0.0
O1559 O 0.74477 0.233 0.73789 0.0
H1560 H 0.79282 0.2566 0.78688 0.0
H1561 H 0.77759 0.19522 0.77983 0.0
H1562 H 0.80164 0.25622 0.83787 0.0
H1563 H 0.78647 0.19586 0.83104 0.0
H1564 H 0.79645 0.29298 0.64475 0.0
H1565 H 0.80819 0.23905 0.67699 0.0
H1566 H 0.76907 0.26318 0.6685 0.0
H1567 H 0.83484 0.2692 0.65291 0.0
H1568 H 0.82497 0.19526 0.72405 0.0
H1569 H 0.79055 0.17523 0.64555 0.0
H1570 H 0.78554 0.30565 0.77253 0.0
H1571 H 0.83799 0.30565 0.74051 0.0
H1572 H 0.71157 0.16857 0.6863 0.0
H1573 H 0.75717 0.17466 0.74491 0.0
H1574 H 0.69874 0.13216 0.68465 0.0
H1575 H 0.74366 0.1382 0.74215 0.0
H1576 H 0.71023 0.21365 0.76521 0.0
H1577 H 0.74385 0.25948 0.70305 0.0
H1578 H 0.68192 0.21961 0.75823 0.0
H1579 H 0.71489 0.26458 0.69704 0.0
H1580 H 0.73068 0.21569 0.85125 0.0
H1581 H 0.69431 0.15895 0.80916 0.0
H1582 H 0.7167 0.21886 0.60474 0.0
H1583 H 0.67381 0.18672 0.67186 0.0
Li1584 Li 0.46941 0.24113 0.22739 0.0
Li1585 Li 0.46187 0.20926 0.248 0.0
Li1586 Li 0.47353 0.21732 0.19691 0.0
Li1587 Li 0.43985 0.20983 0.21206 0.0
C1588 C 0.5073 0.24477 0.22995 0.0
N1589 N 0.54689 0.27344 0.22387 0.0
C1590 C 0.52129 0.2462 0.25014 0.0
C1591 C 0.51339 0.25793 0.20673 0.0
C1592 C 0.54125 0.26079 0.24667 0.0
C1593 C 0.53349 0.27232 0.20402 0.0
C1594 C 0.43761 0.2188 0.27704 0.0
C1595 C 0.41479 0.19577 0.31209 0.0
N1596 N 0.42157 0.21073 0.33174 0.0
C1597 C 0.44411 0.23401 0.29747 0.0
C1598 C 0.42263 0.19959 0.2843 0.0
C1599 C 0.43591 0.22961 0.32504 0.0
C1600 C 0.4769 0.28205 0.22689 0.0
N1601 N 0.48029 0.26809 0.2392 0.0
C1602 C 0.49659 0.28945 0.27905 0.0
C1603 C 0.49042 0.27172 0.26434 0.0
C1604 C 0.49236 0.30369 0.26776 0.0
C1605 C 0.48299 0.3002 0.24087 0.0
H1606 H 0.4688 0.2789 0.20696 0.0
H1607 H 0.49266 0.26027 0.27385 0.0
C1608 C 0.4633 0.17957 0.28136 0.0
N1609 N 0.46544 0.19805 0.28197 0.0
C1610 C 0.46917 0.17257 0.3049 0.0
C1611 C 0.47857 0.20347 0.3296 0.0
C1612 C 0.47273 0.20993 0.30548 0.0
C1613 C 0.4774 0.18478 0.32921 0.0
H1614 H 0.45806 0.17069 0.26204 0.0
H1615 H 0.47487 0.22482 0.30501 0.0
C1616 C 0.45718 0.24513 0.17106 0.0
N1617 N 0.45212 0.27173 0.13774 0.0
C1618 C 0.4406 0.24744 0.17521 0.0
C1619 C 0.47111 0.25622 0.14984 0.0
C1620 C 0.43831 0.26098 0.15815 0.0
C1621 C 0.46832 0.26965 0.13328 0.0
C1622 C 0.43698 0.17346 0.20576 0.0
C1623 C 0.43604 0.16685 0.17756 0.0
C1624 C 0.42285 0.16088 0.22579 0.0
C1625 C 0.42067 0.14799 0.16967 0.0
C1626 C 0.40769 0.14212 0.21709 0.0
N1627 N 0.4069 0.13613 0.18943 0.0
C1628 C 0.50592 0.21458 0.17334 0.0
C1629 C 0.48047 0.2096 0.14059 0.0
C1630 C 0.51593 0.21042 0.15194 0.0
N1631 N 0.48846 0.21395 0.16736 0.0
C1632 C 0.48962 0.20472 0.11878 0.0
C1633 C 0.50757 0.20486 0.12427 0.0
H1634 H 0.51191 0.21793 0.19487 0.0
H1635 H 0.4665 0.20914 0.13652 0.0
C1636 C 0.3999 0.20042 0.21689 0.0
N1637 N 0.41297 0.19841 0.19973 0.0
C1638 C 0.38011 0.19255 0.20847 0.0
C1639 C 0.38758 0.18076 0.16473 0.0
C1640 C 0.40732 0.18914 0.17382 0.0
C1641 C 0.37373 0.18245 0.18218 0.0
H1642 H 0.40488 0.20836 0.23699 0.0
H1643 H 0.41818 0.18841 0.16011 0.0
O1644 O 0.4877 0.23062 0.23317 0.0
O1645 O 0.44562 0.22276 0.24997 0.0
O1646 O 0.4596 0.23176 0.18718 0.0
O1647 O 0.45186 0.19198 0.21381 0.0
H1648 H 0.51674 0.23613 0.26829 0.0
H1649 H 0.5027 0.25705 0.19104 0.0
H1650 H 0.55226 0.26207 0.2621 0.0
H1651 H 0.53844 0.28261 0.18615 0.0
H1652 H 0.40326 0.18093 0.318 0.0
H1653 H 0.45533 0.24906 0.29216 0.0
H1654 H 0.417 0.18779 0.26857 0.0
H1655 H 0.44092 0.24123 0.34109 0.0
H1656 H 0.50398 0.29172 0.2996 0.0
H1657 H 0.47949 0.31088 0.23157 0.0
H1658 H 0.46836 0.15826 0.3033 0.0
H1659 H 0.48465 0.21333 0.3479 0.0
H1660 H 0.42973 0.23904 0.19162 0.0
H1661 H 0.48391 0.25443 0.14616 0.0
H1662 H 0.4256 0.263 0.16119 0.0
H1663 H 0.47901 0.27838 0.11684 0.0
H1664 H 0.44695 0.17623 0.16183 0.0
H1665 H 0.42367 0.16543 0.24789 0.0
H1666 H 0.41968 0.14278 0.14785 0.0
H1667 H 0.39661 0.13229 0.23236 0.0
H1668 H 0.52992 0.21129 0.15729 0.0
H1669 H 0.48222 0.20018 0.09819 0.0
H1670 H 0.36985 0.19416 0.22249 0.0
H1671 H 0.38327 0.17337 0.14407 0.0
Li1672 Li 0.75376 0.22429 0.22474 0.0
Li1673 Li 0.78471 0.24961 0.24652 0.0
Li1674 Li 0.77716 0.25191 0.19616 0.0
Li1675 Li 0.78546 0.22689 0.21216 0.0
C1676 C 0.75843 0.2672 0.22415 0.0
N1677 N 0.75106 0.29739 0.209 0.0
C1678 C 0.76941 0.28605 0.23666 0.0
C1679 C 0.74368 0.26372 0.20398 0.0
C1680 C 0.76545 0.30111 0.22872 0.0
C1681 C 0.7402 0.27917 0.19657 0.0
C1682 C 0.77405 0.21883 0.27851 0.0
C1683 C 0.79383 0.22104 0.3198 0.0
N1684 N 0.77843 0.21782 0.33726 0.0
C1685 C 0.75841 0.21553 0.29684 0.0
C1686 C 0.7919 0.22159 0.29003 0.0
C1687 C 0.76092 0.21506 0.32649 0.0
C1688 C 0.72179 0.18671 0.23884 0.0
N1689 N 0.72685 0.20594 0.23377 0.0
C1690 C 0.69554 0.20003 0.25174 0.0
C1691 C 0.71405 0.21268 0.2394 0.0
C1692 C 0.69028 0.18034 0.25862 0.0
C1693 C 0.70342 0.17354 0.25117 0.0
H1694 H 0.73249 0.18193 0.23481 0.0
H1695 H 0.71868 0.22816 0.236 0.0
C1696 C 0.81573 0.27431 0.28509 0.0
N1697 N 0.79579 0.26486 0.28036 0.0
C1698 C 0.82406 0.28782 0.30771 0.0
C1699 C 0.79107 0.28106 0.32071 0.0
C1700 C 0.78337 0.26744 0.29812 0.0
C1701 C 0.81177 0.29196 0.32521 0.0
H1702 H 0.82526 0.27196 0.27065 0.0
H1703 H 0.76755 0.25974 0.29372 0.0
C1704 C 0.74765 0.2073 0.17459 0.0
N1705 N 0.71401 0.17407 0.15412 0.0
C1706 C 0.74636 0.18867 0.1753 0.0
C1707 C 0.73191 0.20907 0.16327 0.0
C1708 C 0.72921 0.17204 0.16488 0.0
C1709 C 0.715 0.19207 0.1531 0.0
C1710 C 0.82009 0.25944 0.20233 0.0
C1711 C 0.82587 0.26691 0.17451 0.0
C1712 C 0.83221 0.25455 0.21858 0.0
C1713 C 0.84365 0.26925 0.16334 0.0
C1714 C 0.84985 0.25707 0.20662 0.0
N1715 N 0.85515 0.26431 0.17948 0.0
C1716 C 0.79248 0.29001 0.1726 0.0
C1717 C 0.77422 0.26385 0.13945 0.0
C1718 C 0.79709 0.30424 0.1512 0.0
N1719 N 0.78118 0.2703 0.16642 0.0
C1720 C 0.77884 0.27759 0.11721 0.0
C1721 C 0.79049 0.29804 0.12303 0.0
H1722 H 0.79836 0.29466 0.19402 0.0
H1723 H 0.76557 0.24806 0.13508 0.0
C1724 C 0.79792 0.19853 0.21935 0.0
N1725 N 0.79768 0.212 0.20096 0.0
C1726 C 0.80647 0.18718 0.21101 0.0
C1727 C 0.81438 0.20385 0.16498 0.0
C1728 C 0.8054 0.21463 0.17407 0.0
C1729 C 0.81494 0.1898 0.1835 0.0
H1730 H 0.7912 0.19638 0.24035 0.0
H1731 H 0.80461 0.22516 0.15969 0.0
O1732 O 0.76223 0.25231 0.23137 0.0
O1733 O 0.77208 0.21986 0.24947 0.0
O1734 O 0.76414 0.2237 0.18519 0.0
O1735 O 0.80264 0.25685 0.21355 0.0
H1736 H 0.78107 0.28915 0.25199 0.0
H1737 H 0.73514 0.24928 0.19393 0.0
H1738 H 0.7739 0.31578 0.23814 0.0
H1739 H 0.72889 0.27669 0.1809 0.0
H1740 H 0.80759 0.22325 0.32903 0.0
H1741 H 0.74457 0.21358 0.28833 0.0
H1742 H 0.80422 0.22436 0.27616 0.0
H1743 H 0.74897 0.21258 0.34095 0.0
H1744 H 0.68606 0.20603 0.25762 0.0
H1745 H 0.69991 0.15847 0.25597 0.0
H1746 H 0.84004 0.29549 0.31072 0.0
H1747 H 0.78097 0.28383 0.33329 0.0
H1748 H 0.75838 0.18703 0.18407 0.0
H1749 H 0.73271 0.22338 0.16248 0.0
H1750 H 0.72796 0.15751 0.16544 0.0
H1751 H 0.70266 0.1932 0.14441 0.0
H1752 H 0.81669 0.27072 0.16155 0.0
H1753 H 0.82787 0.24853 0.24001 0.0
H1754 H 0.84826 0.27495 0.14181 0.0
H1755 H 0.85928 0.2532 0.21887 0.0
H1756 H 0.80643 0.31987 0.15633 0.0
H1757 H 0.77361 0.27231 0.09565 0.0
H1758 H 0.8061 0.17623 0.2258 0.0
H1759 H 0.8209 0.20661 0.14373 0.0
Li1760 Li 0.7468 0.53523 0.25269 0.0
Li1761 Li 0.77132 0.52827 0.23013 0.0
Li1762 Li 0.76867 0.55759 0.21693 0.0
Li1763 Li 0.74262 0.52412 0.2012 0.0
C1764 C 0.78076 0.55641 0.28252 0.0
N1765 N 0.78883 0.56593 0.34004 0.0
C1766 C 0.78916 0.54748 0.29915 0.0
C1767 C 0.77677 0.57043 0.29508 0.0
C1768 C 0.79306 0.55243 0.3282 0.0
C1769 C 0.78086 0.57496 0.3242 0.0
C1770 C 0.73412 0.48964 0.23434 0.0
C1771 C 0.73153 0.46066 0.21111 0.0
N1772 N 0.7166 0.4488 0.22946 0.0
C1773 C 0.7188 0.4772 0.25303 0.0
C1774 C 0.74059 0.48135 0.21325 0.0
C1775 C 0.71011 0.45658 0.25018 0.0
C1776 C 0.71576 0.53375 0.28532 0.0
N1777 N 0.73188 0.53128 0.28669 0.0
C1778 C 0.72339 0.51853 0.33446 0.0
C1779 C 0.73593 0.52389 0.3106 0.0
C1780 C 0.70611 0.52013 0.33333 0.0
C1781 C 0.70261 0.52822 0.30843 0.0
H1782 H 0.71259 0.53912 0.26573 0.0
H1783 H 0.74848 0.52145 0.31079 0.0
C1784 C 0.80792 0.5274 0.22984 0.0
N1785 N 0.78854 0.51795 0.23836 0.0
C1786 C 0.82078 0.52095 0.23978 0.0
C1787 C 0.79343 0.4951 0.26671 0.0
C1788 C 0.7812 0.50208 0.25644 0.0
C1789 C 0.81358 0.50474 0.25878 0.0
H1790 H 0.81366 0.54046 0.21643 0.0
H1791 H 0.76613 0.49549 0.26428 0.0
C1792 C 0.73673 0.56137 0.21224 0.0
N1793 N 0.73326 0.59405 0.19765 0.0
C1794 C 0.7308 0.56311 0.18456 0.0
C1795 C 0.74057 0.57609 0.23263 0.0
C1796 C 0.7292 0.57978 0.17756 0.0
C1797 C 0.73884 0.59255 0.22481 0.0
C1798 C 0.78492 0.5391 0.17271 0.0
C1799 C 0.80376 0.55612 0.17121 0.0
C1800 C 0.78039 0.52279 0.15507 0.0
C1801 C 0.81794 0.55638 0.15242 0.0
C1802 C 0.79498 0.52363 0.13658 0.0
N1803 N 0.8133 0.54026 0.13566 0.0
C1804 C 0.7964 0.59845 0.22337 0.0
C1805 C 0.78135 0.5891 0.17741 0.0
C1806 C 0.80776 0.61824 0.21465 0.0
N1807 N 0.78349 0.58442 0.2048 0.0
C1808 C 0.7923 0.60874 0.16783 0.0
C1809 C 0.80579 0.62364 0.18653 0.0
H1810 H 0.79806 0.59423 0.24486 0.0
H1811 H 0.77115 0.57753 0.16301 0.0
C1812 C 0.70769 0.49163 0.1765 0.0
N1813 N 0.72419 0.50956 0.1715 0.0
C1814 C 0.6938 0.48191 0.15468 0.0
C1815 C 0.71373 0.50966 0.12327 0.0
C1816 C 0.72761 0.51846 0.14538 0.0
C1817 C 0.69638 0.49109 0.12767 0.0
H1818 H 0.70503 0.48495 0.19754 0.0
H1819 H 0.74082 0.53281 0.14207 0.0
O1820 O 0.77675 0.55168 0.25404 0.0
O1821 O 0.74272 0.50984 0.23684 0.0
O1822 O 0.7388 0.54537 0.21934 0.0
O1823 O 0.77077 0.53863 0.19072 0.0
H1824 H 0.79261 0.53681 0.28982 0.0
H1825 H 0.77056 0.57771 0.2825 0.0
H1826 H 0.79946 0.54554 0.34134 0.0
H1827 H 0.77772 0.58569 0.33421 0.0
H1828 H 0.73638 0.45402 0.19489 0.0
H1829 H 0.71367 0.48344 0.2695 0.0
H1830 H 0.75253 0.49081 0.1988 0.0
H1831 H 0.69821 0.44675 0.26445 0.0
H1832 H 0.72692 0.51262 0.3532 0.0
H1833 H 0.6893 0.52931 0.30606 0.0
H1834 H 0.83627 0.5289 0.23334 0.0
H1835 H 0.78738 0.48298 0.28207 0.0
H1836 H 0.72758 0.5518 0.16857 0.0
H1837 H 0.74485 0.57482 0.25425 0.0
H1838 H 0.72476 0.58138 0.15615 0.0
H1839 H 0.7419 0.60411 0.24034 0.0
H1840 H 0.80747 0.56891 0.18462 0.0
H1841 H 0.76573 0.50968 0.15552 0.0
H1842 H 0.83264 0.56939 0.15117 0.0
H1843 H 0.79171 0.51109 0.12287 0.0
H1844 H 0.81824 0.62912 0.22963 0.0
H1845 H 0.79012 0.61221 0.14607 0.0
H1846 H 0.68109 0.46744 0.15927 0.0
H1847 H 0.71644 0.51777 0.10334 0.0
Li1848 Li 0.55133 0.13935 0.96482 0.0
Li1849 Li 0.54407 0.1061 0.94878 0.0
Li1850 Li 0.57604 0.13544 0.9358 0.0
Li1851 Li 0.54463 0.12847 0.91336 0.0
C1852 C 0.57888 0.12435 0.99289 0.0
N1853 N 0.60625 0.12288 0.02927 0.0
C1854 C 0.58089 0.10742 0.99357 0.0
C1855 C 0.59058 0.14042 0.01097 0.0
C1856 C 0.59487 0.10699 0.01206 0.0
C1857 C 0.6044 0.13942 0.02911 0.0
C1858 C 0.50876 0.10217 0.9552 0.0
C1859 C 0.47937 0.07062 0.94521 0.0
N1860 N 0.4738 0.06929 0.97319 0.0
C1861 C 0.50265 0.10058 0.98379 0.0
C1862 C 0.49695 0.08716 0.93568 0.0
C1863 C 0.48496 0.08382 0.99249 0.0
C1864 C 0.54678 0.17086 0.98744 0.0
N1865 N 0.54749 0.15417 0.99412 0.0
C1866 C 0.53936 0.15622 0.04302 0.0
C1867 C 0.54423 0.14695 0.02135 0.0
C1868 C 0.53831 0.17347 0.03684 0.0
C1869 C 0.5426 0.18099 0.00861 0.0
H1870 H 0.54906 0.17615 0.96555 0.0
H1871 H 0.5447 0.13351 0.02598 0.0
C1872 C 0.52826 0.06468 0.9414 0.0
N1873 N 0.53196 0.07919 0.96085 0.0
C1874 C 0.51959 0.04486 0.95017 0.0
C1875 C 0.51873 0.05535 0.99882 0.0
C1876 C 0.52745 0.07496 0.98911 0.0
C1877 C 0.51475 0.03998 0.97926 0.0
H1878 H 0.53221 0.06852 0.91913 0.0
H1879 H 0.53068 0.08687 0.00408 0.0
C1880 C 0.57726 0.17392 0.93239 0.0
N1881 N 0.60026 0.21472 0.93832 0.0
C1882 C 0.57426 0.1865 0.91416 0.0
C1883 C 0.59198 0.18205 0.95355 0.0
C1884 C 0.58604 0.2071 0.91753 0.0
C1885 C 0.60345 0.20273 0.95622 0.0
C1886 C 0.55708 0.1078 0.88299 0.0
C1887 C 0.57436 0.11617 0.86626 0.0
C1888 C 0.53872 0.09492 0.87026 0.0
C1889 C 0.57293 0.1118 0.83694 0.0
C1890 C 0.5379 0.09094 0.84087 0.0
N1891 N 0.55487 0.09941 0.82495 0.0
C1892 C 0.61485 0.13866 0.93697 0.0
C1893 C 0.61085 0.16128 0.90742 0.0
C1894 C 0.63426 0.14599 0.92679 0.0
N1895 N 0.60359 0.14637 0.92713 0.0
C1896 C 0.63009 0.16907 0.8968 0.0
C1897 C 0.64202 0.1613 0.90621 0.0
H1898 H 0.6086 0.12636 0.95185 0.0
H1899 H 0.60136 0.1665 0.89878 0.0
C1900 C 0.51529 0.12954 0.87909 0.0
N1901 N 0.53431 0.13312 0.8793 0.0
C1902 C 0.50845 0.13604 0.85612 0.0
C1903 C 0.54062 0.14891 0.83342 0.0
C1904 C 0.54692 0.14243 0.85703 0.0
C1905 C 0.52133 0.14631 0.83313 0.0
H1906 H 0.50577 0.1226 0.89746 0.0
H1907 H 0.56215 0.14556 0.85816 0.0
O1908 O 0.56513 0.12498 0.97523 0.0
O1909 O 0.5263 0.11822 0.94644 0.0
O1910 O 0.56578 0.15374 0.92943 0.0
O1911 O 0.55816 0.11203 0.91171 0.0
H1912 H 0.57192 0.09484 0.97976 0.0
H1913 H 0.58893 0.15347 0.0111 0.0
H1914 H 0.59668 0.09404 0.0127 0.0
H1915 H 0.61362 0.15178 0.04314 0.0
H1916 H 0.47016 0.05883 0.93036 0.0
H1917 H 0.51155 0.11206 0.99917 0.0
H1918 H 0.50134 0.08823 0.91343 0.0
H1919 H 0.48013 0.08234 0.0146 0.0
H1920 H 0.5358 0.14945 0.0641 0.0
H1921 H 0.5425 0.19442 0.00265 0.0
H1922 H 0.51707 0.03355 0.93444 0.0
H1923 H 0.51504 0.05225 0.02137 0.0
H1924 H 0.56291 0.18039 0.89765 0.0
H1925 H 0.59454 0.17248 0.96766 0.0
H1926 H 0.58387 0.21703 0.90362 0.0
H1927 H 0.6149 0.20925 0.97251 0.0
H1928 H 0.58874 0.1259 0.87575 0.0
H1929 H 0.52522 0.08819 0.88287 0.0
H1930 H 0.58618 0.11825 0.82373 0.0
H1931 H 0.52376 0.08112 0.83072 0.0
H1932 H 0.64294 0.1395 0.93448 0.0
H1933 H 0.63517 0.18041 0.88028 0.0
H1934 H 0.49361 0.13403 0.85725 0.0
H1935 H 0.55101 0.15652 0.8161 0.0
Li1936 Li 0.85706 0.40958 0.96792 0.0
Li1937 Li 0.89068 0.43605 0.9547 0.0
Li1938 Li 0.86122 0.43802 0.94189 0.0
Li1939 Li 0.86841 0.41417 0.91768 0.0
C1940 C 0.86997 0.45286 0.99302 0.0
N1941 N 0.867 0.48437 0.01493 0.0
C1942 C 0.88673 0.47191 0.99393 0.0
C1943 C 0.85174 0.44979 0.0034 0.0
C1944 C 0.88491 0.48766 0.00506 0.0
C1945 C 0.85053 0.46593 0.01434 0.0
C1946 C 0.89289 0.40247 0.96045 0.0
C1947 C 0.92333 0.40176 0.95335 0.0
N1948 N 0.92189 0.39478 0.98057 0.0
C1949 C 0.89162 0.39515 0.98828 0.0
C1950 C 0.90877 0.40565 0.94274 0.0
C1951 C 0.90646 0.3914 0.99807 0.0
C1952 C 0.8343 0.37025 0.98695 0.0
N1953 N 0.84224 0.3895 0.99547 0.0
C1954 C 0.83087 0.37925 0.04347 0.0
C1955 C 0.84066 0.39427 0.02304 0.0
C1956 C 0.82247 0.35913 0.03534 0.0
C1957 C 0.82404 0.35478 0.00645 0.0
H1958 H 0.83615 0.36693 0.96499 0.0
H1959 H 0.84745 0.40974 0.0293 0.0
C1960 C 0.93061 0.46653 0.94989 0.0
N1961 N 0.91764 0.4511 0.96661 0.0
C1962 C 0.95047 0.47821 0.95816 0.0
C1963 C 0.94323 0.45802 0.00087 0.0
C1964 C 0.92345 0.44689 0.99193 0.0
C1965 C 0.95708 0.47396 0.98389 0.0
H1966 H 0.92547 0.46999 0.93034 0.0
H1967 H 0.91269 0.43494 0.00526 0.0
C1968 C 0.82408 0.39404 0.93637 0.0
N1969 N 0.78674 0.36132 0.94501 0.0
C1970 C 0.81764 0.37696 0.91957 0.0
C1971 C 0.81145 0.39455 0.95738 0.0
C1972 C 0.79872 0.36056 0.9243 0.0
C1973 C 0.79266 0.37783 0.96149 0.0
C1974 C 0.89152 0.44868 0.89031 0.0
C1975 C 0.88334 0.45674 0.87152 0.0
C1976 C 0.90673 0.4454 0.88075 0.0
C1977 C 0.89046 0.46128 0.84337 0.0
C1978 C 0.91342 0.45011 0.85243 0.0
N1979 N 0.90521 0.45789 0.83448 0.0
C1980 C 0.86478 0.47523 0.92908 0.0
C1981 C 0.83194 0.44759 0.92751 0.0
C1982 C 0.85856 0.48729 0.91558 0.0
N1983 N 0.85158 0.45564 0.93377 0.0
C1984 C 0.82509 0.45907 0.91408 0.0
C1985 C 0.83865 0.47892 0.90674 0.0
H1986 H 0.8804 0.48108 0.93368 0.0
H1987 H 0.82185 0.43193 0.93106 0.0
C1988 C 0.86784 0.38386 0.88416 0.0
N1989 N 0.86564 0.40015 0.88305 0.0
C1990 C 0.86261 0.37109 0.86059 0.0
C1991 C 0.85412 0.39279 0.83458 0.0
C1992 C 0.85904 0.40486 0.8589 0.0
C1993 C 0.8552 0.37522 0.83547 0.0
H1994 H 0.87258 0.38016 0.90391 0.0
H1995 H 0.85674 0.41749 0.85891 0.0
O1996 O 0.87135 0.43733 0.98171 0.0
O1997 O 0.87859 0.40636 0.95052 0.0
O1998 O 0.84264 0.41018 0.93228 0.0
O1999 O 0.8847 0.44404 0.91793 0.0
H2000 H 0.90094 0.47454 0.9859 0.0
H2001 H 0.83864 0.43512 0.00284 0.0
H2002 H 0.89773 0.50251 0.0058 0.0
H2003 H 0.8365 0.4638 0.02233 0.0
H2004 H 0.93576 0.40425 0.93993 0.0
H2005 H 0.87943 0.39258 0.00227 0.0
H2006 H 0.90984 0.41109 0.92105 0.0
H2007 H 0.90574 0.38585 0.01961 0.0
H2008 H 0.83046 0.38344 0.06553 0.0
H2009 H 0.81758 0.33959 0.99891 0.0
H2010 H 0.96042 0.49065 0.94473 0.0
H2011 H 0.94761 0.45407 0.02077 0.0
H2012 H 0.82716 0.3763 0.90315 0.0
H2013 H 0.81622 0.40763 0.97062 0.0
H2014 H 0.79358 0.34721 0.91154 0.0
H2015 H 0.78281 0.37796 0.97781 0.0
H2016 H 0.87145 0.45923 0.87844 0.0
H2017 H 0.91327 0.43926 0.89505 0.0
H2018 H 0.8842 0.46743 0.82856 0.0
H2019 H 0.92514 0.4476 0.84473 0.0
H2020 H 0.8695 0.50247 0.91005 0.0
H2021 H 0.80957 0.45215 0.90788 0.0
H2022 H 0.86331 0.35756 0.86279 0.0
H2023 H 0.84881 0.39686 0.8157 0.0
Li2024 Li 0.58694 0.44463 0.96753 0.0
Li2025 Li 0.56179 0.45338 0.9526 0.0
Li2026 Li 0.55756 0.42087 0.94106 0.0
Li2027 Li 0.5828 0.45106 0.91665 0.0
C2028 C 0.5436 0.41667 0.99333 0.0
N2029 N 0.5121 0.38392 0.01884 0.0
C2030 C 0.52455 0.41436 0.99269 0.0
C2031 C 0.54671 0.40245 0.00714 0.0
C2032 C 0.50879 0.39766 0.00567 0.0
C2033 C 0.53057 0.38596 0.01985 0.0
C2034 C 0.5952 0.48802 0.95807 0.0
C2035 C 0.59408 0.51817 0.95 0.0
N2036 N 0.60177 0.52467 0.97666 0.0
C2037 C 0.60323 0.49505 0.98531 0.0
C2038 C 0.59072 0.49972 0.94016 0.0
C2039 C 0.60641 0.51361 0.99434 0.0
C2040 C 0.6247 0.45306 0.98905 0.0
N2041 N 0.60607 0.44897 0.9964 0.0
C2042 C 0.61543 0.45519 0.04585 0.0
C2043 C 0.60117 0.44974 0.02418 0.0
C2044 C 0.63488 0.45941 0.03904 0.0
C2045 C 0.63917 0.45776 0.01011 0.0
H2046 H 0.62852 0.4531 0.96676 0.0
H2047 H 0.58638 0.44693 0.02934 0.0
C2048 C 0.53325 0.46532 0.94651 0.0
N2049 N 0.54766 0.46628 0.96415 0.0
C2050 C 0.52177 0.47369 0.95493 0.0
C2051 C 0.54025 0.48396 0.9995 0.0
C2052 C 0.55122 0.47518 0.99034 0.0
C2053 C 0.52521 0.48313 0.98175 0.0
H2054 H 0.53043 0.45776 0.92609 0.0
H2055 H 0.56239 0.4752 0.00426 0.0
C2056 C 0.59865 0.42229 0.93566 0.0
N2057 N 0.62609 0.40975 0.94226 0.0
C2058 C 0.61506 0.42937 0.91725 0.0
C2059 C 0.5962 0.40881 0.9574 0.0
C2060 C 0.62876 0.42285 0.92093 0.0
C2061 C 0.61025 0.40266 0.9604 0.0
C2062 C 0.54985 0.44016 0.88746 0.0
C2063 C 0.54325 0.42339 0.86991 0.0
C2064 C 0.5532 0.45813 0.87554 0.0
C2065 C 0.54021 0.42491 0.84066 0.0
C2066 C 0.55002 0.45905 0.84619 0.0
N2067 N 0.54364 0.44256 0.8295 0.0
C2068 C 0.51921 0.38957 0.92916 0.0
C2069 C 0.54389 0.38006 0.93006 0.0
C2070 C 0.50531 0.37112 0.91776 0.0
N2071 N 0.5382 0.39383 0.93426 0.0
C2072 C 0.53045 0.36138 0.91886 0.0
C2073 C 0.5111 0.35701 0.91156 0.0
H2074 H 0.51523 0.40098 0.93215 0.0
H2075 H 0.55915 0.38395 0.93361 0.0
C2076 C 0.61171 0.48055 0.88076 0.0
N2077 N 0.59718 0.46113 0.88198 0.0
C2078 C 0.62472 0.48757 0.85741 0.0
C2079 C 0.60691 0.45468 0.8364 0.0
C2080 C 0.59437 0.44826 0.86027 0.0
C2081 C 0.62276 0.47443 0.83518 0.0
H2082 H 0.61387 0.49034 0.89861 0.0
H2083 H 0.58303 0.43276 0.86218 0.0
O2084 O 0.55913 0.43269 0.98027 0.0
O2085 O 0.59173 0.46978 0.94899 0.0
O2086 O 0.58515 0.42861 0.93246 0.0
O2087 O 0.55308 0.43904 0.91612 0.0
H2088 H 0.52192 0.42524 0.98204 0.0
H2089 H 0.56142 0.40414 0.00799 0.0
H2090 H 0.49393 0.3956 0.0052 0.0
H2091 H 0.53272 0.37479 0.03053 0.0
H2092 H 0.59056 0.52731 0.93643 0.0
H2093 H 0.60689 0.48627 0.99939 0.0
H2094 H 0.58461 0.49454 0.91897 0.0
H2095 H 0.61253 0.5192 0.01541 0.0
H2096 H 0.61127 0.45673 0.06747 0.0
H2097 H 0.65363 0.46034 0.00345 0.0
H2098 H 0.51035 0.47281 0.94061 0.0
H2099 H 0.54313 0.49086 0.02051 0.0
H2100 H 0.61728 0.43991 0.90043 0.0
H2101 H 0.58367 0.40329 0.97193 0.0
H2102 H 0.64154 0.42824 0.90689 0.0
H2103 H 0.60857 0.39229 0.97719 0.0
H2104 H 0.54077 0.40941 0.87863 0.0
H2105 H 0.55828 0.47124 0.88879 0.0
H2106 H 0.53519 0.41208 0.82681 0.0
H2107 H 0.55262 0.47288 0.83667 0.0
H2108 H 0.49051 0.3683 0.9125 0.0
H2109 H 0.53563 0.35106 0.91399 0.0
H2110 H 0.6369 0.50281 0.85772 0.0
H2111 H 0.60472 0.44407 0.81966 0.0
Li2112 Li 0.53459 0.78816 0.75169 0.0
Li2113 Li 0.52383 0.7783 0.80337 0.0
Li2114 Li 0.55849 0.7867 0.78581 0.0
Li2115 Li 0.52922 0.7578 0.77065 0.0
C2116 C 0.55014 0.82277 0.79231 0.0
N2117 N 0.55809 0.86115 0.80286 0.0
C2118 C 0.53469 0.82635 0.7994 0.0
C2119 C 0.56968 0.83873 0.79086 0.0
C2120 C 0.539 0.84585 0.80458 0.0
C2121 C 0.57338 0.85802 0.79617 0.0
C2122 C 0.49365 0.74994 0.75572 0.0
C2123 C 0.4633 0.71844 0.76104 0.0
N2124 N 0.46294 0.71554 0.73218 0.0
C2125 C 0.49293 0.7467 0.7261 0.0
C2126 C 0.47871 0.73574 0.77336 0.0
C2127 C 0.4773 0.72919 0.71462 0.0
C2128 C 0.53415 0.79688 0.69236 0.0
N2129 N 0.53101 0.80128 0.71948 0.0
C2130 C 0.51916 0.82222 0.70118 0.0
C2131 C 0.52363 0.81364 0.7242 0.0
C2132 C 0.52206 0.81783 0.67292 0.0
C2133 C 0.52982 0.8051 0.66863 0.0
H2134 H 0.53945 0.78652 0.68907 0.0
H2135 H 0.52048 0.81626 0.74578 0.0
C2136 C 0.52217 0.79359 0.85667 0.0
N2137 N 0.51059 0.78233 0.83457 0.0
C2138 C 0.51397 0.79937 0.87874 0.0
C2139 C 0.48189 0.78118 0.85543 0.0
C2140 C 0.4908 0.77602 0.83355 0.0
C2141 C 0.49356 0.79331 0.87826 0.0
H2142 H 0.53796 0.79873 0.85651 0.0
H2143 H 0.48205 0.76751 0.81534 0.0
C2144 C 0.56765 0.78857 0.72853 0.0
N2145 N 0.59965 0.8135 0.69416 0.0
C2146 C 0.57621 0.78068 0.71009 0.0
C2147 C 0.57544 0.80918 0.72943 0.0
C2148 C 0.59236 0.79352 0.69291 0.0
C2149 C 0.59158 0.82152 0.7119 0.0
C2150 C 0.53777 0.74777 0.82136 0.0
C2151 C 0.55085 0.74151 0.81186 0.0
C2152 C 0.52324 0.73653 0.84179 0.0
C2153 C 0.54895 0.72383 0.82268 0.0
C2154 C 0.52185 0.71897 0.85213 0.0
N2155 N 0.5346 0.71302 0.84241 0.0
C2156 C 0.5917 0.81078 0.82052 0.0
C2157 C 0.59753 0.793 0.78403 0.0
C2158 C 0.61134 0.81912 0.83006 0.0
N2159 N 0.5853 0.79814 0.79774 0.0
C2160 C 0.61732 0.80115 0.79258 0.0
C2161 C 0.6245 0.8144 0.81595 0.0
H2162 H 0.58147 0.81426 0.83138 0.0
H2163 H 0.59192 0.78246 0.76652 0.0
C2164 C 0.52713 0.72877 0.73397 0.0
N2165 N 0.51963 0.73068 0.75936 0.0
C2166 C 0.52094 0.71004 0.7224 0.0
C2167 C 0.49905 0.69527 0.7631 0.0
C2168 C 0.50588 0.71441 0.77411 0.0
C2169 C 0.50665 0.69299 0.73688 0.0
H2170 H 0.53756 0.74184 0.72224 0.0
H2171 H 0.49983 0.71625 0.79401 0.0
O2172 O 0.54629 0.8037 0.78778 0.0
O2173 O 0.50906 0.76682 0.76737 0.0
O2174 O 0.55197 0.77609 0.74577 0.0
O2175 O 0.53934 0.76497 0.811 0.0
H2176 H 0.51947 0.81423 0.8006 0.0
H2177 H 0.5819 0.83628 0.78573 0.0
H2178 H 0.52715 0.84882 0.80995 0.0
H2179 H 0.58842 0.8705 0.79504 0.0
H2180 H 0.45172 0.70725 0.77445 0.0
H2181 H 0.50445 0.75747 0.71218 0.0
H2182 H 0.47921 0.73782 0.79638 0.0
H2183 H 0.47662 0.72643 0.69176 0.0
H2184 H 0.51268 0.8315 0.70551 0.0
H2185 H 0.53222 0.80127 0.6472 0.0
H2186 H 0.52372 0.80908 0.8954 0.0
H2187 H 0.46609 0.77593 0.85422 0.0
H2188 H 0.57061 0.76481 0.70923 0.0
H2189 H 0.569 0.8156 0.74321 0.0
H2190 H 0.59913 0.78759 0.67863 0.0
H2191 H 0.59767 0.83748 0.71238 0.0
H2192 H 0.5622 0.75011 0.79608 0.0
H2193 H 0.51307 0.74128 0.8494 0.0
H2194 H 0.55886 0.7187 0.81539 0.0
H2195 H 0.51061 0.71004 0.86784 0.0
H2196 H 0.61603 0.82891 0.84854 0.0
H2197 H 0.62688 0.7972 0.78081 0.0
H2198 H 0.52677 0.70899 0.70174 0.0
H2199 H 0.48788 0.68245 0.77478 0.0
Li2200 Li 0.20936 0.77027 0.78024 0.0
Li2201 Li 0.24016 0.77034 0.76721 0.0
Li2202 Li 0.20815 0.7472 0.74574 0.0
Li2203 Li 0.2145 0.74307 0.79669 0.0
C2204 C 0.22118 0.77845 0.71395 0.0
N2205 N 0.21672 0.78017 0.6553 0.0
C2206 C 0.23704 0.78276 0.69548 0.0
C2207 C 0.2031 0.77519 0.7026 0.0
C2208 C 0.23448 0.78353 0.66589 0.0
C2209 C 0.20112 0.77607 0.67289 0.0
C2210 C 0.24433 0.78638 0.8229 0.0
C2211 C 0.27063 0.79808 0.8581 0.0
N2212 N 0.27286 0.8166 0.85642 0.0
C2213 C 0.24678 0.80549 0.82167 0.0
C2214 C 0.25623 0.78258 0.84142 0.0
C2215 C 0.26132 0.82058 0.83874 0.0
C2216 C 0.19378 0.78616 0.82008 0.0
N2217 N 0.19888 0.78663 0.79205 0.0
C2218 C 0.18885 0.81042 0.78121 0.0
C2219 C 0.19674 0.79853 0.77268 0.0
C2220 C 0.18325 0.81013 0.80999 0.0
C2221 C 0.18585 0.79782 0.82956 0.0
H2222 H 0.19582 0.77665 0.83502 0.0
H2223 H 0.20126 0.79887 0.75065 0.0
C2224 C 0.27497 0.77705 0.74016 0.0
N2225 N 0.26781 0.7858 0.75813 0.0
C2226 C 0.29412 0.78793 0.7289 0.0
C2227 C 0.29853 0.8167 0.75525 0.0
C2228 C 0.27916 0.80523 0.76589 0.0
C2229 C 0.30612 0.80815 0.73604 0.0
H2230 H 0.26543 0.76187 0.73322 0.0
H2231 H 0.273 0.81213 0.77931 0.0
C2232 C 0.17353 0.74013 0.79019 0.0
N2233 N 0.14065 0.73979 0.81379 0.0
C2234 C 0.16804 0.73404 0.81861 0.0
C2235 C 0.16217 0.74586 0.77369 0.0
C2236 C 0.15139 0.73399 0.83016 0.0
C2237 C 0.14566 0.74566 0.78604 0.0
C2238 C 0.23833 0.73156 0.76804 0.0
C2239 C 0.23327 0.71366 0.75416 0.0
C2240 C 0.25341 0.73913 0.7887 0.0
C2241 C 0.24338 0.70357 0.7613 0.0
C2242 C 0.26318 0.72861 0.79523 0.0
N2243 N 0.258 0.71118 0.78153 0.0
C2244 C 0.20935 0.72977 0.69418 0.0
C2245 C 0.17709 0.72385 0.70594 0.0
C2246 C 0.20191 0.71735 0.67027 0.0
N2247 N 0.19686 0.73245 0.71167 0.0
C2248 C 0.16901 0.71142 0.68208 0.0
C2249 C 0.1814 0.70762 0.66427 0.0
H2250 H 0.22501 0.73676 0.69944 0.0
H2251 H 0.16751 0.72621 0.72029 0.0
C2252 C 0.21128 0.72991 0.85413 0.0
N2253 N 0.20967 0.72428 0.82615 0.0
C2254 C 0.20608 0.71579 0.87597 0.0
C2255 C 0.19844 0.6906 0.83977 0.0
C2256 C 0.20341 0.7051 0.81864 0.0
C2257 C 0.19945 0.69585 0.8688 0.0
H2258 H 0.21603 0.74522 0.85943 0.0
H2259 H 0.2018 0.70097 0.79622 0.0
O2260 O 0.22324 0.77714 0.74295 0.0
O2261 O 0.23 0.77132 0.80669 0.0
O2262 O 0.19001 0.74063 0.77868 0.0
O2263 O 0.22837 0.74147 0.76159 0.0
H2264 H 0.25116 0.78542 0.70382 0.0
H2265 H 0.19061 0.7717 0.71652 0.0
H2266 H 0.24661 0.78677 0.65135 0.0
H2267 H 0.18716 0.77341 0.66381 0.0
H2268 H 0.27999 0.79536 0.87245 0.0
H2269 H 0.23778 0.80875 0.80741 0.0
H2270 H 0.25431 0.7678 0.84302 0.0
H2271 H 0.26347 0.83547 0.83787 0.0
H2272 H 0.1874 0.81994 0.76554 0.0
H2273 H 0.18157 0.79701 0.85188 0.0
H2274 H 0.29901 0.78079 0.71352 0.0
H2275 H 0.30722 0.83222 0.76139 0.0
H2276 H 0.17659 0.72949 0.83168 0.0
H2277 H 0.16624 0.7507 0.75172 0.0
H2278 H 0.14703 0.72939 0.85216 0.0
H2279 H 0.13685 0.75023 0.77359 0.0
H2280 H 0.22156 0.70758 0.73817 0.0
H2281 H 0.25754 0.75301 0.7995 0.0
H2282 H 0.23958 0.68967 0.7508 0.0
H2283 H 0.27488 0.73429 0.8112 0.0
H2284 H 0.21202 0.71466 0.65754 0.0
H2285 H 0.15316 0.70445 0.67809 0.0
H2286 H 0.207 0.72035 0.89818 0.0
H2287 H 0.19309 0.6753 0.83346 0.0
Li2288 Li 0.25043 0.46099 0.74782 0.0
Li2289 Li 0.25555 0.47279 0.79795 0.0
Li2290 Li 0.22809 0.43994 0.7839 0.0
Li2291 Li 0.2275 0.4702 0.7699 0.0
C2292 C 0.25863 0.43491 0.79368 0.0
N2293 N 0.25981 0.40347 0.81963 0.0
C2294 C 0.26479 0.43642 0.82224 0.0
C2295 C 0.25323 0.41747 0.77824 0.0
C2296 C 0.26526 0.42035 0.83499 0.0
C2297 C 0.25386 0.40171 0.79178 0.0
C2298 C 0.26784 0.50707 0.76712 0.0
C2299 C 0.27451 0.53717 0.79164 0.0
N2300 N 0.2921 0.5473 0.77734 0.0
C2301 C 0.28595 0.51777 0.75257 0.0
C2302 C 0.26202 0.51682 0.78674 0.0
C2303 C 0.29802 0.5381 0.75807 0.0
C2304 C 0.26637 0.47807 0.69477 0.0
N2305 N 0.26474 0.4639 0.71348 0.0
C2306 C 0.28726 0.45821 0.68564 0.0
C2307 C 0.27453 0.4537 0.70916 0.0
C2308 C 0.2901 0.47356 0.66669 0.0
C2309 C 0.27902 0.48317 0.67111 0.0
H2310 H 0.25851 0.48606 0.69901 0.0
H2311 H 0.27304 0.44259 0.72453 0.0
C2312 C 0.27131 0.48758 0.85369 0.0
N2313 N 0.2756 0.48793 0.82533 0.0
C2314 C 0.28665 0.49775 0.87358 0.0
C2315 C 0.31032 0.50896 0.83447 0.0
C2316 C 0.29461 0.49828 0.8155 0.0
C2317 C 0.30655 0.5085 0.86409 0.0
H2318 H 0.25606 0.47891 0.86094 0.0
H2319 H 0.2976 0.49796 0.79289 0.0
C2320 C 0.21847 0.44199 0.71771 0.0
N2321 N 0.2154 0.43445 0.65937 0.0
C2322 C 0.21306 0.45264 0.69915 0.0
C2323 C 0.22217 0.42738 0.70662 0.0
C2324 C 0.21161 0.44863 0.66971 0.0
C2325 C 0.22059 0.42384 0.67706 0.0
C2326 C 0.21282 0.46047 0.82548 0.0
C2327 C 0.19381 0.44363 0.82661 0.0
C2328 C 0.21679 0.47753 0.8409 0.0
C2329 C 0.179 0.44424 0.84292 0.0
C2330 C 0.20156 0.47756 0.8569 0.0
N2331 N 0.18314 0.46106 0.85756 0.0
C2332 C 0.21282 0.40878 0.82467 0.0
C2333 C 0.19988 0.39907 0.7776 0.0
C2334 C 0.20126 0.38924 0.83445 0.0
N2335 N 0.21203 0.41324 0.79664 0.0
C2336 C 0.18805 0.37936 0.78644 0.0
C2337 C 0.18866 0.37421 0.81521 0.0
H2338 H 0.22242 0.42045 0.83942 0.0
H2339 H 0.19937 0.40308 0.75553 0.0
C2340 C 0.22057 0.498 0.74271 0.0
N2341 N 0.21185 0.48215 0.76081 0.0
C2342 C 0.20969 0.50626 0.73149 0.0
C2343 C 0.18097 0.482 0.75803 0.0
C2344 C 0.19243 0.47409 0.76864 0.0
C2345 C 0.18951 0.49812 0.73878 0.0
H2346 H 0.23573 0.5036 0.73573 0.0
H2347 H 0.18556 0.46104 0.78211 0.0
O2348 O 0.2577 0.45034 0.781 0.0
O2349 O 0.25593 0.48711 0.76223 0.0
O2350 O 0.22039 0.44599 0.74653 0.0
O2351 O 0.22759 0.46011 0.80993 0.0
H2352 H 0.269 0.44978 0.83454 0.0
H2353 H 0.24833 0.416 0.75618 0.0
H2354 H 0.26991 0.42128 0.85711 0.0
H2355 H 0.24957 0.38807 0.78016 0.0
H2356 H 0.2702 0.54491 0.80681 0.0
H2357 H 0.29068 0.51041 0.73736 0.0
H2358 H 0.248 0.50875 0.79801 0.0
H2359 H 0.31211 0.54657 0.74706 0.0
H2360 H 0.2953 0.45023 0.68287 0.0
H2361 H 0.28092 0.49529 0.65744 0.0
H2362 H 0.28296 0.49659 0.89618 0.0
H2363 H 0.32529 0.51727 0.82595 0.0
H2364 H 0.21006 0.46393 0.70732 0.0
H2365 H 0.22653 0.4191 0.72064 0.0
H2366 H 0.2075 0.45682 0.65509 0.0
H2367 H 0.22357 0.41269 0.66817 0.0
H2368 H 0.19044 0.43031 0.81477 0.0
H2369 H 0.23148 0.49058 0.84062 0.0
H2370 H 0.1642 0.43136 0.84386 0.0
H2371 H 0.2044 0.49069 0.86886 0.0
H2372 H 0.20198 0.38598 0.8569 0.0
H2373 H 0.1787 0.36823 0.77083 0.0
H2374 H 0.21681 0.51825 0.71605 0.0
H2375 H 0.16547 0.47523 0.76425 0.0
Li2376 Li 0.42367 0.86231 0.06416 0.0
Li2377 Li 0.45426 0.8927 0.04958 0.0
Li2378 Li 0.44898 0.86012 0.03414 0.0
Li2379 Li 0.4557 0.87152 0.08463 0.0
C2380 C 0.42017 0.87512 0.0074 0.0
N2381 N 0.39446 0.88069 0.97267 0.0
C2382 C 0.41758 0.89154 0.01166 0.0
C2383 C 0.4098 0.86163 0.98534 0.0
C2384 C 0.4045 0.89407 0.99389 0.0
C2385 C 0.39682 0.86466 0.96809 0.0
C2386 C 0.44354 0.8906 0.11608 0.0
C2387 C 0.46464 0.90903 0.15595 0.0
N2388 N 0.44931 0.89831 0.17434 0.0
C2389 C 0.42796 0.87989 0.13537 0.0
C2390 C 0.462 0.90541 0.12643 0.0
C2391 C 0.43118 0.88397 0.16474 0.0
C2392 C 0.39 0.83568 0.09458 0.0
N2393 N 0.39605 0.84994 0.07395 0.0
C2394 C 0.36421 0.84789 0.07446 0.0
C2395 C 0.38355 0.85603 0.06361 0.0
C2396 C 0.35776 0.83344 0.09625 0.0
C2397 C 0.37088 0.82716 0.10598 0.0
H2398 H 0.40038 0.83159 0.10329 0.0
H2399 H 0.38869 0.86765 0.04773 0.0
C2400 C 0.46944 0.9236 0.00854 0.0
N2401 N 0.46471 0.91937 0.03675 0.0
C2402 C 0.47746 0.9431 0.99857 0.0
C2403 C 0.47528 0.95341 0.04683 0.0
C2404 C 0.46727 0.93372 0.05583 0.0
C2405 C 0.48056 0.95832 0.01788 0.0
H2406 H 0.46708 0.91181 0.99383 0.0
H2407 H 0.46303 0.92987 0.07801 0.0
C2408 C 0.42283 0.8255 0.06309 0.0
N2409 N 0.3975 0.78596 0.04962 0.0
C2410 C 0.42339 0.81052 0.07902 0.0
C2411 C 0.40939 0.8204 0.04033 0.0
C2412 C 0.41046 0.79061 0.07187 0.0
C2413 C 0.3967 0.80032 0.03386 0.0
C2414 C 0.49002 0.89835 0.03935 0.0
C2415 C 0.49527 0.89744 0.01091 0.0
C2416 C 0.50155 0.91562 0.05544 0.0
C2417 C 0.51181 0.91392 0.99889 0.0
C2418 C 0.51796 0.9318 0.04263 0.0
N2419 N 0.5227 0.93062 0.01486 0.0
C2420 C 0.45341 0.84996 0.97715 0.0
C2421 C 0.45767 0.83126 0.01388 0.0
C2422 C 0.45844 0.84033 0.95618 0.0
N2423 N 0.45342 0.84547 0.00535 0.0
C2424 C 0.46239 0.82099 0.99364 0.0
C2425 C 0.46325 0.82574 0.96432 0.0
H2426 H 0.45021 0.86153 0.97105 0.0
H2427 H 0.45775 0.82813 0.03649 0.0
C2428 C 0.45505 0.85358 0.13654 0.0
N2429 N 0.4674 0.86847 0.11856 0.0
C2430 C 0.46276 0.84851 0.16001 0.0
C2431 C 0.49566 0.87488 0.14686 0.0
C2432 C 0.48731 0.87934 0.12345 0.0
C2433 C 0.48341 0.85889 0.16506 0.0
H2434 H 0.43928 0.84513 0.13191 0.0
H2435 H 0.49678 0.89102 0.10868 0.0
O2436 O 0.43318 0.87251 0.02413 0.0
O2437 O 0.44081 0.88651 0.08728 0.0
O2438 O 0.4355 0.84506 0.06978 0.0
O2439 O 0.47362 0.8825 0.05131 0.0
H2440 H 0.42532 0.90203 0.02877 0.0
H2441 H 0.41178 0.84895 0.98156 0.0
H2442 H 0.40227 0.90664 0.99703 0.0
H2443 H 0.38865 0.8543 0.951 0.0
H2444 H 0.4789 0.92032 0.16424 0.0
H2445 H 0.41352 0.86856 0.12782 0.0
H2446 H 0.47425 0.91382 0.1119 0.0
H2447 H 0.41925 0.87572 0.17989 0.0
H2448 H 0.35458 0.85314 0.06631 0.0
H2449 H 0.3668 0.81648 0.12327 0.0
H2450 H 0.48146 0.94627 0.97613 0.0
H2451 H 0.47711 0.96464 0.0623 0.0
H2452 H 0.43375 0.81425 0.09667 0.0
H2453 H 0.40874 0.8318 0.02786 0.0
H2454 H 0.41075 0.77885 0.08398 0.0
H2455 H 0.38622 0.79615 0.01631 0.0
H2456 H 0.48663 0.88421 0.99816 0.0
H2457 H 0.49774 0.91664 0.07744 0.0
H2458 H 0.51597 0.91343 0.97685 0.0
H2459 H 0.52689 0.94531 0.05477 0.0
H2460 H 0.45921 0.84481 0.93399 0.0
H2461 H 0.46554 0.80962 0.00104 0.0
H2462 H 0.45274 0.83588 0.17308 0.0
H2463 H 0.51161 0.88346 0.15012 0.0
Li2464 Li 0.13969 0.58756 0.02821 0.0
Li2465 Li 0.12994 0.58704 0.08032 0.0
Li2466 Li 0.13577 0.56209 0.06144 0.0
Li2467 Li 0.10568 0.56109 0.04724 0.0
C2468 C 0.17146 0.59042 0.07284 0.0
N2469 N 0.20341 0.58711 0.09189 0.0
C2470 C 0.17654 0.59296 0.10194 0.0
C2471 C 0.18265 0.5863 0.05338 0.0
C2472 C 0.19275 0.59121 0.11116 0.0
C2473 C 0.19875 0.58466 0.06345 0.0
C2474 C 0.1127 0.60509 0.04253 0.0
C2475 C 0.08874 0.61629 0.04365 0.0
N2476 N 0.10337 0.63497 0.03657 0.0
C2477 C 0.12745 0.62437 0.035 0.0
C2478 C 0.09313 0.60097 0.04664 0.0
C2479 C 0.12245 0.63928 0.0322 0.0
C2480 C 0.13983 0.60644 0.97741 0.0
N2481 N 0.15209 0.60462 0.99647 0.0
C2482 C 0.1808 0.63034 0.97276 0.0
C2483 C 0.17223 0.61602 0.99444 0.0
C2484 C 0.16844 0.63313 0.9536 0.0
C2485 C 0.14773 0.62082 0.95583 0.0
H2486 H 0.12386 0.59727 0.97978 0.0
H2487 H 0.18161 0.6145 0.01021 0.0
C2488 C 0.1311 0.59602 0.13974 0.0
N2489 N 0.13381 0.60365 0.11271 0.0
C2490 C 0.13561 0.60845 0.16364 0.0
C2491 C 0.14578 0.63635 0.13147 0.0
C2492 C 0.14111 0.6234 0.10826 0.0
C2493 C 0.14319 0.62895 0.15964 0.0
H2494 H 0.126 0.58039 0.14281 0.0
H2495 H 0.14408 0.62928 0.08674 0.0
C2496 C 0.12611 0.54345 0.00894 0.0
N2497 N 0.12857 0.51285 0.98264 0.0
C2498 C 0.11287 0.52371 0.01656 0.0
C2499 C 0.14047 0.54767 0.98779 0.0
C2500 C 0.11441 0.50844 0.00307 0.0
C2501 C 0.1415 0.53197 0.97477 0.0
C2502 C 0.09804 0.55286 0.10519 0.0
C2503 C 0.09152 0.53624 0.12302 0.0
C2504 C 0.08862 0.56419 0.1064 0.0
C2505 C 0.07561 0.53121 0.14173 0.0
C2506 C 0.07277 0.55869 0.1254 0.0
N2507 N 0.06664 0.54244 0.14252 0.0
C2508 C 0.14362 0.54275 0.10366 0.0
C2509 C 0.15404 0.53659 0.0589 0.0
C2510 C 0.14952 0.53075 0.11773 0.0
N2511 N 0.14568 0.54527 0.07475 0.0
C2512 C 0.16004 0.52423 0.07215 0.0
C2513 C 0.15757 0.52101 0.10196 0.0
H2514 H 0.13755 0.55031 0.11594 0.0
H2515 H 0.15619 0.53927 0.0361 0.0
C2516 C 0.07181 0.5516 0.01431 0.0
N2517 N 0.07867 0.54528 0.03646 0.0
C2518 C 0.05206 0.54021 0.00534 0.0
C2519 C 0.04685 0.51606 0.04214 0.0
C2520 C 0.06676 0.52778 0.05015 0.0
C2521 C 0.03931 0.52225 0.01944 0.0
H2522 H 0.08175 0.56547 0.0036 0.0
H2523 H 0.07274 0.5228 0.0671 0.0
O2524 O 0.15536 0.5916 0.06354 0.0
O2525 O 0.11721 0.59018 0.04478 0.0
O2526 O 0.12473 0.55859 0.0216 0.0
O2527 O 0.11348 0.55778 0.08657 0.0
H2528 H 0.16797 0.59609 0.11727 0.0
H2529 H 0.17871 0.584 0.03085 0.0
H2530 H 0.19682 0.59304 0.13364 0.0
H2531 H 0.20745 0.58132 0.04869 0.0
H2532 H 0.07367 0.61332 0.04687 0.0
H2533 H 0.14266 0.62784 0.03165 0.0
H2534 H 0.08141 0.58609 0.05195 0.0
H2535 H 0.13376 0.65427 0.02656 0.0
H2536 H 0.19684 0.6397 0.97174 0.0
H2537 H 0.13777 0.62254 0.94131 0.0
H2538 H 0.13349 0.60214 0.18497 0.0
H2539 H 0.15217 0.65213 0.12733 0.0
H2540 H 0.10162 0.52025 0.03283 0.0
H2541 H 0.15074 0.56291 0.9816 0.0
H2542 H 0.10434 0.49308 0.00883 0.0
H2543 H 0.15258 0.53499 0.95844 0.0
H2544 H 0.09862 0.52726 0.12229 0.0
H2545 H 0.09363 0.5772 0.09306 0.0
H2546 H 0.07038 0.51836 0.1556 0.0
H2547 H 0.06538 0.56737 0.12658 0.0
H2548 H 0.14798 0.52933 0.14086 0.0
H2549 H 0.16633 0.51715 0.05917 0.0
H2550 H 0.04674 0.54548 0.98778 0.0
H2551 H 0.03754 0.50212 0.0532 0.0
Li2552 Li 0.43784 0.54454 0.04404 0.0
Li2553 Li 0.43868 0.57554 0.05984 0.0
Li2554 Li 0.4118 0.54261 0.07582 0.0
Li2555 Li 0.41283 0.55292 0.02628 0.0
C2556 C 0.44604 0.54869 0.10668 0.0
N2557 N 0.4563 0.53502 0.15484 0.0
C2558 C 0.45938 0.56219 0.12672 0.0
C2559 C 0.43786 0.52826 0.11116 0.0
C2560 C 0.4644 0.55497 0.15092 0.0
C2561 C 0.44324 0.52163 0.13563 0.0
C2562 C 0.4471 0.58362 0.00149 0.0
C2563 C 0.4434 0.6113 0.98613 0.0
N2564 N 0.45626 0.61472 0.96412 0.0
C2565 C 0.46026 0.58738 0.97872 0.0
C2566 C 0.43858 0.59565 0.00525 0.0
C2567 C 0.46471 0.60319 0.96006 0.0
C2568 C 0.44874 0.52186 0.01006 0.0
N2569 N 0.45364 0.53321 0.03416 0.0
C2570 C 0.48138 0.52854 0.04275 0.0
C2571 C 0.46963 0.53677 0.05043 0.0
C2572 C 0.47673 0.51672 0.01791 0.0
C2573 C 0.46014 0.51343 0.00147 0.0
H2574 H 0.43601 0.51948 0.99743 0.0
H2575 H 0.47334 0.54608 0.0693 0.0
C2576 C 0.44865 0.60415 0.10026 0.0
N2577 N 0.4549 0.60143 0.0743 0.0
C2578 C 0.46015 0.62163 0.11559 0.0
C2579 C 0.48405 0.63363 0.07667 0.0
C2580 C 0.47212 0.6157 0.06214 0.0
C2581 C 0.47823 0.63649 0.10402 0.0
H2582 H 0.43497 0.59239 0.1094 0.0
H2583 H 0.47688 0.61296 0.04165 0.0
C2584 C 0.39564 0.50725 0.03935 0.0
N2585 N 0.369 0.4668 0.03638 0.0
C2586 C 0.37628 0.50028 0.02919 0.0
C2587 C 0.40153 0.49361 0.04748 0.0
C2588 C 0.36301 0.47979 0.02801 0.0
C2589 C 0.38782 0.47323 0.04597 0.0
C2590 C 0.39236 0.56562 0.06443 0.0
C2591 C 0.37422 0.54795 0.06128 0.0
C2592 C 0.39254 0.58337 0.07032 0.0
C2593 C 0.35647 0.54832 0.06409 0.0
C2594 C 0.37447 0.58314 0.07295 0.0
N2595 N 0.35696 0.56577 0.06981 0.0
C2596 C 0.40188 0.54021 0.13383 0.0
C2597 C 0.37749 0.51327 0.10652 0.0
C2598 C 0.38995 0.53338 0.15833 0.0
N2599 N 0.39545 0.53021 0.10855 0.0
C2600 C 0.36492 0.50609 0.13033 0.0
C2601 C 0.37094 0.51634 0.15666 0.0
H2602 H 0.41608 0.55386 0.13477 0.0
H2603 H 0.37246 0.50575 0.08619 0.0
C2604 C 0.3938 0.53533 0.97554 0.0
N2605 N 0.39673 0.55013 0.99395 0.0
C2606 C 0.38033 0.53014 0.95294 0.0
C2607 C 0.37405 0.55644 0.96746 0.0
C2608 C 0.38755 0.56099 0.99006 0.0
C2609 C 0.36998 0.54054 0.94884 0.0
H2610 H 0.40139 0.52701 0.97915 0.0
H2611 H 0.39034 0.57288 0.00478 0.0
O2612 O 0.44085 0.55553 0.08302 0.0
O2613 O 0.44257 0.56813 0.0198 0.0
O2614 O 0.40895 0.52728 0.04028 0.0
O2615 O 0.40993 0.5657 0.06148 0.0
H2616 H 0.46578 0.57807 0.12358 0.0
H2617 H 0.42733 0.51767 0.09608 0.0
H2618 H 0.47471 0.56524 0.16661 0.0
H2619 H 0.437 0.50585 0.13939 0.0
H2620 H 0.43693 0.62074 0.98879 0.0
H2621 H 0.46695 0.57817 0.97551 0.0
H2622 H 0.42839 0.59302 0.02274 0.0
H2623 H 0.47488 0.60628 0.94235 0.0
H2624 H 0.49387 0.53129 0.05627 0.0
H2625 H 0.45618 0.50473 0.9819 0.0
H2626 H 0.4551 0.6234 0.1365 0.0
H2627 H 0.49797 0.64477 0.06721 0.0
H2628 H 0.37147 0.51053 0.0224 0.0
H2629 H 0.41658 0.49865 0.0546 0.0
H2630 H 0.34796 0.47421 0.02038 0.0
H2631 H 0.39218 0.46253 0.05228 0.0
H2632 H 0.37387 0.53415 0.05657 0.0
H2633 H 0.4065 0.59719 0.07271 0.0
H2634 H 0.34231 0.53475 0.06168 0.0
H2635 H 0.37437 0.59678 0.07746 0.0
H2636 H 0.39541 0.54166 0.17815 0.0
H2637 H 0.35028 0.49317 0.12764 0.0
H2638 H 0.37755 0.5176 0.93955 0.0
H2639 H 0.36674 0.56512 0.96484 0.0
Li2640 Li 0.13644 0.5776 0.55741 0.0
Li2641 Li 0.13155 0.5477 0.58238 0.0
Li2642 Li 0.1419 0.5539 0.53188 0.0
Li2643 Li 0.10802 0.5451 0.54629 0.0
C2644 C 0.17537 0.57374 0.56193 0.0
N2645 N 0.21343 0.58064 0.55195 0.0
C2646 C 0.18301 0.56403 0.57844 0.0
C2647 C 0.18714 0.58707 0.5405 0.0
C2648 C 0.20228 0.56771 0.57304 0.0
C2649 C 0.20633 0.59031 0.53573 0.0
C2650 C 0.10891 0.55823 0.611 0.0
C2651 C 0.09017 0.53863 0.65178 0.0
N2652 N 0.09931 0.55514 0.66864 0.0
C2653 C 0.11809 0.57502 0.62871 0.0
C2654 C 0.09479 0.5399 0.62257 0.0
C2655 C 0.11304 0.57314 0.6578 0.0
C2656 C 0.12973 0.60927 0.56847 0.0
N2657 N 0.14427 0.60467 0.56383 0.0
C2658 C 0.1693 0.63711 0.57873 0.0
C2659 C 0.1638 0.61825 0.56798 0.0
C2660 C 0.1545 0.64185 0.58556 0.0
C2661 C 0.13455 0.62791 0.57936 0.0
H2662 H 0.11429 0.59801 0.56546 0.0
H2663 H 0.175 0.61405 0.56466 0.0
C2664 C 0.13188 0.51854 0.61779 0.0
N2665 N 0.13574 0.53765 0.6172 0.0
C2666 C 0.13773 0.51154 0.64132 0.0
C2667 C 0.15049 0.54376 0.66383 0.0
C2668 C 0.14468 0.55021 0.63964 0.0
C2669 C 0.1476 0.52435 0.66456 0.0
H2670 H 0.1252 0.50902 0.59933 0.0
H2671 H 0.14811 0.56552 0.63824 0.0
C2672 C 0.12622 0.58173 0.50599 0.0
N2673 N 0.1268 0.61467 0.48229 0.0
C2674 C 0.10886 0.58298 0.50535 0.0
C2675 C 0.14384 0.59715 0.49442 0.0
C2676 C 0.10947 0.59977 0.4933 0.0
C2677 C 0.14384 0.6137 0.48259 0.0
C2678 C 0.10734 0.51062 0.54054 0.0
C2679 C 0.10866 0.50451 0.51277 0.0
C2680 C 0.09138 0.498 0.55817 0.0
C2681 C 0.0938 0.48592 0.50298 0.0
C2682 C 0.0768 0.47954 0.54757 0.0
N2683 N 0.0783 0.47394 0.52042 0.0
C2684 C 0.16606 0.53901 0.51244 0.0
C2685 C 0.15702 0.55436 0.47603 0.0
C2686 C 0.17604 0.53373 0.49254 0.0
N2687 N 0.15688 0.54917 0.50393 0.0
C2688 C 0.1665 0.549 0.45524 0.0
C2689 C 0.17604 0.53834 0.46332 0.0
H2690 H 0.16527 0.53465 0.53467 0.0
H2691 H 0.14922 0.56207 0.4698 0.0
C2692 C 0.0673 0.53252 0.55263 0.0
N2693 N 0.08089 0.53185 0.53498 0.0
C2694 C 0.0474 0.52378 0.54428 0.0
C2695 C 0.05586 0.51372 0.49977 0.0
C2696 C 0.07565 0.5229 0.50885 0.0
C2697 C 0.04141 0.51418 0.5175 0.0
H2698 H 0.07198 0.54025 0.57294 0.0
H2699 H 0.08688 0.52306 0.49492 0.0
O2700 O 0.15646 0.57019 0.56669 0.0
O2701 O 0.11377 0.55969 0.58251 0.0
O2702 O 0.12604 0.56563 0.51824 0.0
O2703 O 0.12161 0.52885 0.55042 0.0
H2704 H 0.17412 0.55366 0.5951 0.0
H2705 H 0.18144 0.59466 0.52747 0.0
H2706 H 0.20835 0.56023 0.58556 0.0
H2707 H 0.21555 0.60049 0.51909 0.0
H2708 H 0.07932 0.52452 0.66104 0.0
H2709 H 0.12918 0.58929 0.62023 0.0
H2710 H 0.08755 0.52677 0.60917 0.0
H2711 H 0.12009 0.58599 0.67179 0.0
H2712 H 0.18482 0.6473 0.58359 0.0
H2713 H 0.12272 0.63103 0.58423 0.0
H2714 H 0.13553 0.49663 0.64048 0.0
H2715 H 0.15781 0.55411 0.68129 0.0
H2716 H 0.09511 0.5712 0.5143 0.0
H2717 H 0.15739 0.59638 0.49475 0.0
H2718 H 0.09617 0.601 0.49277 0.0
H2719 H 0.15739 0.6258 0.47368 0.0
H2720 H 0.12089 0.51408 0.4988 0.0
H2721 H 0.0902 0.50247 0.57976 0.0
H2722 H 0.09457 0.48104 0.48149 0.0
H2723 H 0.0643 0.46968 0.56092 0.0
H2724 H 0.18343 0.52586 0.50002 0.0
H2725 H 0.1657 0.55258 0.43299 0.0
H2726 H 0.03695 0.52497 0.5584 0.0
H2727 H 0.05198 0.50636 0.47908 0.0
Li2728 Li 0.41959 0.56022 0.55696 0.0
Li2729 Li 0.44987 0.58595 0.58127 0.0
Li2730 Li 0.44229 0.58898 0.53062 0.0
Li2731 Li 0.45131 0.56351 0.54459 0.0
C2732 C 0.42325 0.60321 0.56222 0.0
N2733 N 0.41625 0.63448 0.55398 0.0
C2734 C 0.4331 0.62036 0.57911 0.0
C2735 C 0.40963 0.60186 0.54142 0.0
C2736 C 0.4294 0.63603 0.57456 0.0
C2737 C 0.40637 0.61786 0.53749 0.0
C2738 C 0.44632 0.55148 0.60429 0.0
C2739 C 0.475 0.55327 0.62736 0.0
N2740 N 0.46319 0.54183 0.64923 0.0
C2741 C 0.43445 0.53974 0.62696 0.0
C2742 C 0.46675 0.55833 0.60446 0.0
C2743 C 0.44326 0.53502 0.6495 0.0
C2744 C 0.38955 0.52245 0.57296 0.0
N2745 N 0.3929 0.54077 0.56526 0.0
C2746 C 0.35992 0.53223 0.579 0.0
C2747 C 0.37845 0.54574 0.56736 0.0
C2748 C 0.35641 0.51359 0.58878 0.0
C2749 C 0.37128 0.50851 0.58472 0.0
H2750 H 0.40144 0.51903 0.57128 0.0
H2751 H 0.38167 0.56054 0.56152 0.0
C2752 C 0.47803 0.61854 0.6121 0.0
N2753 N 0.46122 0.6006 0.61524 0.0
C2754 C 0.48624 0.63118 0.63557 0.0
C2755 C 0.45963 0.6067 0.66524 0.0
C2756 C 0.45201 0.59438 0.64112 0.0
C2757 C 0.47688 0.62545 0.66249 0.0
H2758 H 0.48459 0.6234 0.59108 0.0
H2759 H 0.43842 0.58017 0.64281 0.0
C2760 C 0.41295 0.54636 0.50575 0.0
N2761 N 0.37726 0.51648 0.48405 0.0
C2762 C 0.40893 0.52667 0.50544 0.0
C2763 C 0.39892 0.55089 0.49474 0.0
C2764 C 0.39077 0.51177 0.49445 0.0
C2765 C 0.38094 0.53557 0.48393 0.0
C2766 C 0.4866 0.60221 0.53793 0.0
C2767 C 0.49062 0.60796 0.50912 0.0
C2768 C 0.50229 0.60592 0.55643 0.0
C2769 C 0.51027 0.61728 0.4993 0.0
C2770 C 0.52173 0.61525 0.54577 0.0
N2771 N 0.52529 0.6207 0.51767 0.0
C2772 C 0.45711 0.62811 0.51173 0.0
C2773 C 0.4419 0.60408 0.47485 0.0
C2774 C 0.46265 0.64357 0.49209 0.0
N2775 N 0.4469 0.60885 0.50287 0.0
C2776 C 0.4475 0.61911 0.45432 0.0
C2777 C 0.45825 0.63924 0.46277 0.0
H2778 H 0.4614 0.63149 0.53401 0.0
H2779 H 0.43426 0.58863 0.46828 0.0
C2780 C 0.45466 0.52929 0.54284 0.0
N2781 N 0.46387 0.54861 0.53417 0.0
C2782 C 0.46236 0.51705 0.53525 0.0
C2783 C 0.48926 0.54497 0.51067 0.0
C2784 C 0.48084 0.55655 0.51829 0.0
C2785 C 0.47991 0.52483 0.51883 0.0
H2786 H 0.4411 0.52329 0.5553 0.0
H2787 H 0.48783 0.57178 0.51123 0.0
O2788 O 0.42684 0.58778 0.56616 0.0
O2789 O 0.43792 0.55645 0.58232 0.0
O2790 O 0.4304 0.56108 0.51714 0.0
O2791 O 0.46747 0.59326 0.54807 0.0
H2792 H 0.44354 0.62162 0.59549 0.0
H2793 H 0.4018 0.58868 0.52827 0.0
H2794 H 0.437 0.64943 0.58737 0.0
H2795 H 0.39598 0.61707 0.5213 0.0
H2796 H 0.4908 0.55846 0.62776 0.0
H2797 H 0.4186 0.5344 0.62718 0.0
H2798 H 0.47612 0.5674 0.58708 0.0
H2799 H 0.43427 0.52597 0.66722 0.0
H2800 H 0.34898 0.53685 0.58208 0.0
H2801 H 0.36911 0.49424 0.59174 0.0
H2802 H 0.49924 0.64572 0.63232 0.0
H2803 H 0.45195 0.60182 0.68561 0.0
H2804 H 0.41962 0.5229 0.51381 0.0
H2805 H 0.40184 0.56606 0.49462 0.0
H2806 H 0.38741 0.49644 0.49425 0.0
H2807 H 0.3699 0.53886 0.47548 0.0
H2808 H 0.47871 0.60499 0.49434 0.0
H2809 H 0.49954 0.60171 0.57883 0.0
H2810 H 0.51357 0.62173 0.47704 0.0
H2811 H 0.534 0.6182 0.55986 0.0
H2812 H 0.47061 0.65876 0.49984 0.0
H2813 H 0.4441 0.61495 0.43197 0.0
H2814 H 0.45437 0.50156 0.54169 0.0
H2815 H 0.50299 0.55182 0.49848 0.0
Li2816 Li 0.41471 0.86687 0.5808 0.0
Li2817 Li 0.43995 0.86171 0.55711 0.0
Li2818 Li 0.43637 0.89039 0.54545 0.0
Li2819 Li 0.41148 0.85681 0.53022 0.0
C2820 C 0.44758 0.88884 0.61072 0.0
N2821 N 0.45352 0.8977 0.66863 0.0
C2822 C 0.45552 0.87984 0.62815 0.0
C2823 C 0.44276 0.90242 0.62272 0.0
C2824 C 0.4584 0.88451 0.65738 0.0
C2825 C 0.44583 0.90667 0.65205 0.0
C2826 C 0.39662 0.82325 0.55977 0.0
C2827 C 0.38234 0.79224 0.53371 0.0
N2828 N 0.36497 0.78573 0.5483 0.0
C2829 C 0.37866 0.81622 0.57462 0.0
C2830 C 0.39854 0.81115 0.53927 0.0
C2831 C 0.36283 0.79721 0.56847 0.0
C2832 C 0.38469 0.86631 0.61547 0.0
N2833 N 0.39999 0.86252 0.61516 0.0
C2834 C 0.39099 0.84755 0.66162 0.0
C2835 C 0.40345 0.85349 0.63765 0.0
C2836 C 0.37441 0.85035 0.66206 0.0
C2837 C 0.37163 0.8603 0.63878 0.0
H2838 H 0.38201 0.87307 0.59698 0.0
H2839 H 0.41539 0.85016 0.63647 0.0
C2840 C 0.47815 0.86709 0.56717 0.0
N2841 N 0.45853 0.85322 0.56472 0.0
C2842 C 0.49148 0.86189 0.57893 0.0
C2843 C 0.4643 0.82808 0.58412 0.0
C2844 C 0.45152 0.83392 0.57218 0.0
C2845 C 0.48445 0.84231 0.58858 0.0
H2846 H 0.48319 0.88244 0.56171 0.0
H2847 H 0.43578 0.82333 0.57065 0.0
C2848 C 0.40327 0.89175 0.53808 0.0
N2849 N 0.39737 0.92173 0.51714 0.0
C2850 C 0.39712 0.89112 0.5097 0.0
C2851 C 0.40625 0.90751 0.5559 0.0
C2852 C 0.39424 0.90644 0.4995 0.0
C2853 C 0.40326 0.92257 0.54488 0.0
C2854 C 0.45539 0.87231 0.50593 0.0
C2855 C 0.47376 0.8899 0.50428 0.0
C2856 C 0.45349 0.85454 0.49551 0.0
C2857 C 0.49004 0.88937 0.49241 0.0
C2858 C 0.47013 0.85463 0.48383 0.0
N2859 N 0.48791 0.8719 0.48255 0.0
C2860 C 0.46325 0.93142 0.55315 0.0
C2861 C 0.44822 0.92249 0.50714 0.0
C2862 C 0.47434 0.95136 0.54495 0.0
N2863 N 0.45047 0.91752 0.53431 0.0
C2864 C 0.45889 0.94228 0.49809 0.0
C2865 C 0.47226 0.95703 0.51706 0.0
H2866 H 0.46512 0.92698 0.57438 0.0
H2867 H 0.43825 0.91103 0.49244 0.0
C2868 C 0.37293 0.83356 0.50782 0.0
N2869 N 0.39259 0.84217 0.50116 0.0
C2870 C 0.3585 0.82396 0.48664 0.0
C2871 C 0.38484 0.83265 0.45199 0.0
C2872 C 0.39878 0.84178 0.47398 0.0
C2873 C 0.36444 0.82373 0.45824 0.0
H2874 H 0.36849 0.83463 0.52946 0.0
H2875 H 0.41452 0.84906 0.46923 0.0
O2876 O 0.44452 0.88438 0.58207 0.0
O2877 O 0.41222 0.84191 0.56521 0.0
O2878 O 0.40647 0.87706 0.54835 0.0
O2879 O 0.43935 0.87245 0.51783 0.0
H2880 H 0.45924 0.86921 0.61933 0.0
H2881 H 0.43657 0.90949 0.60955 0.0
H2882 H 0.46446 0.8776 0.67114 0.0
H2883 H 0.44207 0.91707 0.66164 0.0
H2884 H 0.38358 0.78277 0.51777 0.0
H2885 H 0.37688 0.82536 0.59053 0.0
H2886 H 0.41233 0.81638 0.52759 0.0
H2887 H 0.34881 0.7916 0.57969 0.0
H2888 H 0.39393 0.84021 0.67914 0.0
H2889 H 0.35888 0.86244 0.63773 0.0
H2890 H 0.50691 0.87329 0.58177 0.0
H2891 H 0.45811 0.81291 0.59167 0.0
H2892 H 0.39478 0.87905 0.49559 0.0
H2893 H 0.41095 0.90817 0.57794 0.0
H2894 H 0.38958 0.90622 0.47754 0.0
H2895 H 0.40562 0.93492 0.55837 0.0
H2896 H 0.47549 0.90377 0.51231 0.0
H2897 H 0.43936 0.84081 0.49662 0.0
H2898 H 0.50438 0.90285 0.4911 0.0
H2899 H 0.46892 0.84097 0.47582 0.0
H2900 H 0.48478 0.96211 0.5601 0.0
H2901 H 0.45665 0.94596 0.47649 0.0
H2902 H 0.34291 0.81755 0.49214 0.0
H2903 H 0.38994 0.83278 0.43029 0.0
Li2904 Li 0.21976 0.47452 0.30265 0.0
Li2905 Li 0.21272 0.44157 0.28675 0.0
Li2906 Li 0.24415 0.4714 0.27443 0.0
Li2907 Li 0.21284 0.46454 0.2522 0.0
C2908 C 0.24993 0.46072 0.32599 0.0
N2909 N 0.283 0.46185 0.35022 0.0
C2910 C 0.25104 0.44331 0.32809 0.0
C2911 C 0.26554 0.47865 0.33644 0.0
C2912 C 0.2679 0.44421 0.34038 0.0
C2913 C 0.28217 0.47893 0.34853 0.0
C2914 C 0.17751 0.43815 0.29611 0.0
C2915 C 0.14843 0.40554 0.29168 0.0
N2916 N 0.14306 0.40707 0.31896 0.0
C2917 C 0.17168 0.43943 0.32407 0.0
C2918 C 0.16575 0.42111 0.27971 0.0
C2919 C 0.15422 0.42355 0.33524 0.0
C2920 C 0.20317 0.49625 0.32607 0.0
N2921 N 0.21527 0.48873 0.33213 0.0
C2922 C 0.21848 0.49957 0.38086 0.0
C2923 C 0.22302 0.49025 0.35882 0.0
C2924 C 0.20607 0.50753 0.37514 0.0
C2925 C 0.19857 0.50602 0.34727 0.0
H2926 H 0.19674 0.49427 0.30488 0.0
H2927 H 0.23233 0.48384 0.36313 0.0
C2928 C 0.20071 0.40083 0.27936 0.0
N2929 N 0.20108 0.4145 0.298 0.0
C2930 C 0.19229 0.38093 0.28761 0.0
C2931 C 0.18487 0.38961 0.33408 0.0
C2932 C 0.19367 0.40937 0.32507 0.0
C2933 C 0.18413 0.37512 0.31524 0.0
H2934 H 0.20705 0.40541 0.25816 0.0
H2935 H 0.19463 0.42067 0.33965 0.0
C2936 C 0.23816 0.50865 0.27462 0.0
N2937 N 0.2451 0.5461 0.28942 0.0
C2938 C 0.22624 0.5158 0.26325 0.0
C2939 C 0.25367 0.52059 0.29339 0.0
C2940 C 0.22998 0.53477 0.27102 0.0
C2941 C 0.25691 0.53946 0.30065 0.0
C2942 C 0.22479 0.44535 0.22057 0.0
C2943 C 0.24055 0.45777 0.20249 0.0
C2944 C 0.20708 0.43021 0.20876 0.0
C2945 C 0.2383 0.45485 0.1728 0.0
C2946 C 0.2054 0.4278 0.17897 0.0
N2947 N 0.22092 0.44007 0.16176 0.0
C2948 C 0.27908 0.46904 0.26595 0.0
C2949 C 0.28162 0.49992 0.25394 0.0
C2950 C 0.29772 0.47507 0.2538 0.0
N2951 N 0.27137 0.48138 0.26547 0.0
C2952 C 0.30013 0.50644 0.2412 0.0
C2953 C 0.30823 0.49376 0.2403 0.0
H2954 H 0.27032 0.45411 0.27432 0.0
H2955 H 0.27485 0.50915 0.25288 0.0
C2956 C 0.18226 0.45734 0.21191 0.0
N2957 N 0.20197 0.46854 0.21803 0.0
C2958 C 0.17418 0.4624 0.18881 0.0
C2959 C 0.20697 0.49002 0.17832 0.0
C2960 C 0.21445 0.48421 0.20129 0.0
C2961 C 0.18645 0.47943 0.1723 0.0
H2962 H 0.1727 0.44492 0.22554 0.0
H2963 H 0.23008 0.49285 0.20675 0.0
O2964 O 0.23361 0.46019 0.31388 0.0
O2965 O 0.1947 0.45343 0.28491 0.0
O2966 O 0.23456 0.48999 0.26764 0.0
O2967 O 0.22649 0.4483 0.24964 0.0
H2968 H 0.2391 0.4293 0.32012 0.0
H2969 H 0.26486 0.49222 0.33514 0.0
H2970 H 0.26901 0.43088 0.34202 0.0
H2971 H 0.29441 0.49273 0.35658 0.0
H2972 H 0.13928 0.3922 0.27932 0.0
H2973 H 0.1806 0.45244 0.33714 0.0
H2974 H 0.17015 0.41976 0.25816 0.0
H2975 H 0.14957 0.42431 0.35689 0.0
H2976 H 0.22445 0.50042 0.40218 0.0
H2977 H 0.18866 0.51165 0.34222 0.0
H2978 H 0.19197 0.37016 0.27248 0.0
H2979 H 0.17901 0.38574 0.3557 0.0
H2980 H 0.21402 0.5067 0.24896 0.0
H2981 H 0.26304 0.51529 0.30234 0.0
H2982 H 0.2208 0.54045 0.26252 0.0
H2983 H 0.26882 0.54883 0.31524 0.0
H2984 H 0.25432 0.46963 0.21121 0.0
H2985 H 0.19466 0.4206 0.22243 0.0
H2986 H 0.25036 0.46439 0.15854 0.0
H2987 H 0.19174 0.41622 0.16953 0.0
H2988 H 0.3034 0.46484 0.25393 0.0
H2989 H 0.30732 0.52076 0.23053 0.0
H2990 H 0.15837 0.45349 0.18464 0.0
H2991 H 0.21704 0.50338 0.1666 0.0
Li2992 Li 0.5587 0.77187 0.28767 0.0
Li2993 Li 0.52512 0.74704 0.30319 0.0
Li2994 Li 0.53563 0.74896 0.25323 0.0
Li2995 Li 0.52995 0.7746 0.27401 0.0
C2996 C 0.56066 0.73965 0.29896 0.0
N2997 N 0.5909 0.73559 0.32343 0.0
C2998 C 0.55918 0.73345 0.3275 0.0
C2999 C 0.57747 0.74366 0.28282 0.0
C3000 C 0.57463 0.7315 0.33948 0.0
C3001 C 0.59262 0.74158 0.2956 0.0
C3002 C 0.53999 0.79162 0.32401 0.0
C3003 C 0.52202 0.80671 0.34405 0.0
N3004 N 0.53893 0.82481 0.3431 0.0
C3005 C 0.55722 0.81033 0.32334 0.0
C3006 C 0.52225 0.78974 0.33456 0.0
C3007 C 0.55637 0.82694 0.33306 0.0
C3008 C 0.59974 0.79896 0.28003 0.0
N3009 N 0.58573 0.78669 0.29915 0.0
C3010 C 0.61025 0.79602 0.33595 0.0
C3011 C 0.59051 0.78519 0.32675 0.0
C3012 C 0.62514 0.80882 0.31668 0.0
C3013 C 0.61964 0.81023 0.28838 0.0
H3014 H 0.59543 0.80021 0.25841 0.0
H3015 H 0.57896 0.77556 0.3416 0.0
C3016 C 0.50215 0.70894 0.32647 0.0
N3017 N 0.51023 0.72862 0.33268 0.0
C3018 C 0.49197 0.6946 0.34752 0.0
C3019 C 0.49912 0.72105 0.38131 0.0
C3020 C 0.50886 0.73491 0.35939 0.0
C3021 C 0.4906 0.70063 0.37543 0.0
H3022 H 0.50401 0.70442 0.30526 0.0
H3023 H 0.51573 0.75067 0.36383 0.0
C3024 C 0.55625 0.77976 0.2209 0.0
N3025 N 0.56261 0.78115 0.16234 0.0
C3026 C 0.54512 0.78451 0.20222 0.0
C3027 C 0.57063 0.77576 0.2098 0.0
C3028 C 0.54857 0.78515 0.17268 0.0
C3029 C 0.57361 0.77651 0.18013 0.0
C3030 C 0.49167 0.73128 0.27348 0.0
C3031 C 0.48447 0.71279 0.26009 0.0
C3032 C 0.47975 0.73397 0.29345 0.0
C3033 C 0.46547 0.69725 0.26705 0.0
C3034 C 0.46085 0.71804 0.29986 0.0
N3035 N 0.45416 0.70017 0.28664 0.0
C3036 C 0.53956 0.72074 0.22006 0.0
C3037 C 0.51984 0.73282 0.19885 0.0
C3038 C 0.53437 0.70665 0.19828 0.0
N3039 N 0.53192 0.73314 0.22025 0.0
C3040 C 0.51427 0.71897 0.17661 0.0
C3041 C 0.52107 0.70524 0.17669 0.0
H3042 H 0.54891 0.72114 0.23753 0.0
H3043 H 0.51366 0.74259 0.19994 0.0
C3044 C 0.5362 0.81215 0.25871 0.0
N3045 N 0.52173 0.79322 0.2648 0.0
C3046 C 0.53123 0.82567 0.24712 0.0
C3047 C 0.49648 0.80024 0.24964 0.0
C3048 C 0.50214 0.78717 0.26106 0.0
C3049 C 0.51116 0.81959 0.2417 0.0
H3050 H 0.55168 0.81641 0.2615 0.0
H3051 H 0.49098 0.77193 0.26554 0.0
O3052 O 0.54583 0.74195 0.28696 0.0
O3053 O 0.5404 0.77526 0.314 0.0
O3054 O 0.55286 0.77871 0.24986 0.0
O3055 O 0.51034 0.74661 0.26725 0.0
H3056 H 0.54633 0.73035 0.34036 0.0
H3057 H 0.57892 0.7486 0.26077 0.0
H3058 H 0.57372 0.72679 0.36157 0.0
H3059 H 0.60578 0.74477 0.28343 0.0
H3060 H 0.50837 0.80551 0.35212 0.0
H3061 H 0.57105 0.81205 0.31512 0.0
H3062 H 0.50879 0.77536 0.33519 0.0
H3063 H 0.56957 0.84154 0.33254 0.0
H3064 H 0.61377 0.79426 0.35787 0.0
H3065 H 0.6305 0.82021 0.27295 0.0
H3066 H 0.48591 0.679 0.34235 0.0
H3067 H 0.4984 0.72622 0.40265 0.0
H3068 H 0.53377 0.78744 0.21036 0.0
H3069 H 0.57926 0.77189 0.22392 0.0
H3070 H 0.54002 0.78873 0.15797 0.0
H3071 H 0.58462 0.77335 0.17124 0.0
H3072 H 0.4935 0.71035 0.24476 0.0
H3073 H 0.48514 0.74812 0.30417 0.0
H3074 H 0.45974 0.68284 0.25695 0.0
H3075 H 0.45153 0.71988 0.31541 0.0
H3076 H 0.54004 0.69641 0.19899 0.0
H3077 H 0.50375 0.71818 0.16063 0.0
H3078 H 0.54298 0.84048 0.2414 0.0
H3079 H 0.48087 0.79485 0.24539 0.0
Li3080 Li 0.25383 0.77878 0.30153 0.0
Li3081 Li 0.22823 0.78672 0.2869 0.0
Li3082 Li 0.22503 0.75453 0.27583 0.0
Li3083 Li 0.24955 0.78476 0.25097 0.0
C3084 C 0.21044 0.75016 0.32747 0.0
N3085 N 0.1786 0.71717 0.35198 0.0
C3086 C 0.19188 0.74895 0.32933 0.0
C3087 C 0.21288 0.7347 0.33827 0.0
C3088 C 0.17595 0.73211 0.34177 0.0
C3089 C 0.19657 0.71811 0.35051 0.0
C3090 C 0.26144 0.82165 0.29283 0.0
C3091 C 0.26102 0.85225 0.28586 0.0
N3092 N 0.2679 0.8579 0.31309 0.0
C3093 C 0.26862 0.82779 0.32069 0.0
C3094 C 0.25773 0.83401 0.27518 0.0
C3095 C 0.27176 0.84617 0.33055 0.0
C3096 C 0.2929 0.79462 0.32129 0.0
N3097 N 0.27356 0.78375 0.32956 0.0
C3098 C 0.2833 0.78301 0.37801 0.0
C3099 C 0.26849 0.77779 0.35722 0.0
C3100 C 0.30351 0.79436 0.37016 0.0
C3101 C 0.30816 0.79982 0.34117 0.0
H3102 H 0.29647 0.79952 0.29925 0.0
H3103 H 0.25296 0.76947 0.36328 0.0
C3104 C 0.19958 0.79854 0.27976 0.0
N3105 N 0.21377 0.79945 0.29784 0.0
C3106 C 0.18813 0.80707 0.28763 0.0
C3107 C 0.20617 0.81736 0.33254 0.0
C3108 C 0.21708 0.80839 0.32397 0.0
C3109 C 0.19141 0.81665 0.3143 0.0
H3110 H 0.19695 0.79096 0.2594 0.0
H3111 H 0.22804 0.80835 0.33827 0.0
C3112 C 0.26829 0.75962 0.27163 0.0
N3113 N 0.29996 0.75354 0.28178 0.0
C3114 C 0.28588 0.77011 0.25582 0.0
C3115 C 0.26674 0.74592 0.29243 0.0
C3116 C 0.30173 0.76684 0.2613 0.0
C3117 C 0.28294 0.7431 0.29731 0.0
C3118 C 0.21629 0.77316 0.22214 0.0
C3119 C 0.20879 0.7562 0.2048 0.0
C3120 C 0.2203 0.79132 0.21013 0.0
C3121 C 0.20554 0.75773 0.17563 0.0
C3122 C 0.21689 0.79224 0.18085 0.0
N3123 N 0.20964 0.77557 0.16436 0.0
C3124 C 0.18694 0.72145 0.26662 0.0
C3125 C 0.21369 0.71514 0.26115 0.0
C3126 C 0.17365 0.70292 0.25479 0.0
N3127 N 0.20659 0.72733 0.26885 0.0
C3128 C 0.20096 0.69654 0.24914 0.0
C3129 C 0.18078 0.69052 0.24482 0.0
H3130 H 0.18183 0.73168 0.2722 0.0
H3131 H 0.22946 0.7204 0.26245 0.0
C3132 C 0.27844 0.81402 0.21468 0.0
N3133 N 0.26366 0.79471 0.21608 0.0
C3134 C 0.29134 0.82076 0.19117 0.0
C3135 C 0.27285 0.78785 0.17036 0.0
C3136 C 0.26049 0.7817 0.19443 0.0
C3137 C 0.28896 0.80746 0.16892 0.0
H3138 H 0.28091 0.82391 0.23254 0.0
H3139 H 0.24897 0.76629 0.1965 0.0
O3140 O 0.22613 0.76636 0.31499 0.0
O3141 O 0.25806 0.80363 0.28288 0.0
O3142 O 0.25267 0.76275 0.26681 0.0
O3143 O 0.21972 0.77203 0.25071 0.0
H3144 H 0.18974 0.76078 0.32104 0.0
H3145 H 0.22717 0.73546 0.33704 0.0
H3146 H 0.16146 0.73091 0.34323 0.0
H3147 H 0.19821 0.70598 0.35882 0.0
H3148 H 0.25809 0.86191 0.2725 0.0
H3149 H 0.27156 0.81842 0.33467 0.0
H3150 H 0.25224 0.8295 0.25354 0.0
H3151 H 0.27722 0.85107 0.35211 0.0
H3152 H 0.2789 0.77875 0.40011 0.0
H3153 H 0.32343 0.80825 0.33386 0.0
H3154 H 0.17689 0.80624 0.27298 0.0
H3155 H 0.20889 0.82435 0.35348 0.0
H3156 H 0.28737 0.78079 0.23967 0.0
H3157 H 0.25324 0.73768 0.30485 0.0
H3158 H 0.31546 0.77492 0.24932 0.0
H3159 H 0.282 0.73264 0.31346 0.0
H3160 H 0.2057 0.74205 0.21366 0.0
H3161 H 0.2261 0.80458 0.22324 0.0
H3162 H 0.19983 0.74475 0.16193 0.0
H3163 H 0.22001 0.80621 0.17125 0.0
H3164 H 0.15819 0.69882 0.25207 0.0
H3165 H 0.20722 0.68768 0.24134 0.0
H3166 H 0.30373 0.83589 0.19136 0.0
H3167 H 0.27029 0.77713 0.15362 0.0
C3168 C 0.14324 0.99227 0.05149 0.0
C3169 C 0.16354 0.00567 0.05652 0.0
H3170 H 0.12161 0.96717 0.02806 0.0
C3171 C 0.17771 0.00166 0.04412 0.0
H3172 H 0.13184 0.99454 0.06121 0.0
C3173 C 0.17177 0.98534 0.02582 0.0
C3174 C 0.15154 0.97284 0.01902 0.0
H3175 H 0.19349 0.01163 0.04732 0.0
H3176 H 0.18315 0.98296 0.0163 0.0
C3177 C 0.13733 0.97623 0.03276 0.0
C3178 C 0.00162 0.14241 0.03976 0.0
C3179 C 0.99204 0.15207 0.05155 0.0
H3180 H 0.02471 0.14459 0.01245 0.0
C3181 C 0.00024 0.17262 0.04699 0.0
H3182 H 0.99576 0.12663 0.04319 0.0
C3183 C 0.01704 0.18305 0.02954 0.0
C3184 C 0.02598 0.17312 0.01645 0.0
H3185 H 0.99311 0.18044 0.05572 0.0
H3186 H 0.02268 0.19874 0.02564 0.0
C3187 C 0.01837 0.1528 0.02239 0.0
C3188 C 0.84347 0.86324 0.02293 0.0
C3189 C 0.82344 0.85053 0.01534 0.0
H3190 H 0.86905 0.86645 0.04509 0.0
C3191 C 0.81335 0.83118 0.02691 0.0
H3192 H 0.85182 0.87816 0.01423 0.0
C3193 C 0.8234 0.82436 0.04433 0.0
C3194 C 0.84373 0.83675 0.05047 0.0
H3195 H 0.79785 0.82111 0.0218 0.0
H3196 H 0.8155 0.80908 0.05177 0.0
C3197 C 0.85346 0.85645 0.04035 0.0
C3198 C 0.98093 0.16684 0.47046 0.0
C3199 C 0.97164 0.14747 0.48199 0.0
H3200 H 0.00523 0.18895 0.44567 0.0
C3201 C 0.97891 0.13473 0.47431 0.0
H3202 H 0.97553 0.17693 0.47563 0.0
C3203 C 0.99568 0.14152 0.45688 0.0
C3204 C 0.00571 0.16124 0.44685 0.0
H3205 H 0.97231 0.1198 0.48297 0.0
H3206 H 0.00124 0.1315 0.45209 0.0
C3207 C 0.9978 0.17366 0.45304 0.0
C3208 C 0.82911 0.82693 0.45022 0.0
C3209 C 0.8414 0.84747 0.44548 0.0
H3210 H 0.82566 0.80088 0.47147 0.0
C3211 C 0.86084 0.85711 0.45661 0.0
H3212 H 0.81402 0.8191 0.442 0.0
C3213 C 0.86741 0.84677 0.47371 0.0
C3214 C 0.85471 0.8265 0.47999 0.0
H3215 H 0.87074 0.87287 0.45298 0.0
H3216 H 0.88207 0.855 0.48327 0.0
C3217 C 0.8357 0.81654 0.46735 0.0
C3218 C 0.14064 0.0004 0.46026 0.0
C3219 C 0.15056 0.99146 0.44729 0.0
H3220 H 0.1427 0.02317 0.4882 0.0
C3221 C 0.1713 0.00037 0.45054 0.0
H3222 H 0.12468 0.99395 0.45788 0.0
C3223 C 0.18172 0.01727 0.46782 0.0
C3224 C 0.1716 0.02562 0.48197 0.0
H3225 H 0.17931 0.99373 0.44087 0.0
H3226 H 0.1976 0.02347 0.47073 0.0
C3227 C 0.15102 0.01728 0.47739 0.0
C3228 C 0.81911 0.0064 0.97984 0.0
C3229 C 0.83837 0.0231 0.97916 0.0
H3230 H 0.79877 0.97808 0.96179 0.0
C3231 C 0.85118 0.025 0.95648 0.0
H3232 H 0.8088 0.00465 0.9968 0.0
C3233 C 0.84533 0.00987 0.93605 0.0
C3234 C 0.82655 0.99253 0.93791 0.0
H3235 H 0.86615 0.03764 0.95539 0.0
H3236 H 0.85579 0.01141 0.91946 0.0
C3237 C 0.81328 0.99128 0.95949 0.0
C3238 C 0.97777 0.81378 0.96077 0.0
C3239 C 0.97936 0.82176 0.9884 0.0
H3240 H 0.99159 0.81757 0.91939 0.0
C3241 C 0.99603 0.84018 0.99527 0.0
H3242 H 0.965 0.79959 0.95504 0.0
C3243 C 0.01087 0.85049 0.97497 0.0
C3244 C 0.00947 0.84253 0.94743 0.0
H3245 H 0.99747 0.84676 0.0163 0.0
H3246 H 0.02364 0.86462 0.98099 0.0
C3247 C 0.9929 0.824 0.94049 0.0
C3248 C 0.17767 0.1846 0.95851 0.0
C3249 C 0.16432 0.17091 0.93836 0.0
H3250 H 0.19699 0.18953 0.99417 0.0
C3251 C 0.16178 0.15165 0.93745 0.0
H3252 H 0.1799 0.19951 0.96006 0.0
C3253 C 0.17129 0.14581 0.95746 0.0
C3254 C 0.18367 0.15914 0.97875 0.0
H3255 H 0.15184 0.14084 0.92193 0.0
H3256 H 0.16807 0.13051 0.95715 0.0
C3257 C 0.18728 0.17879 0.97839 0.0
C3258 C 0.9936 0.81413 0.54271 0.0
C3259 C 0.99455 0.82804 0.56297 0.0
H3260 H 0.00717 0.80867 0.5065 0.0
C3261 C 0.01163 0.84706 0.56369 0.0
H3262 H 0.98062 0.79939 0.5413 0.0
C3263 C 0.02671 0.8525 0.5433 0.0
C3264 C 0.02507 0.839 0.52183 0.0
H3265 H 0.01296 0.85804 0.57927 0.0
H3266 H 0.03907 0.86765 0.54341 0.0
C3267 C 0.00871 0.81953 0.52245 0.0
C3268 C 0.17733 0.18729 0.52013 0.0
C3269 C 0.15731 0.18241 0.51789 0.0
H3270 H 0.19839 0.1811 0.54014 0.0
C3271 C 0.14355 0.16919 0.53809 0.0
H3272 H 0.18844 0.19777 0.5054 0.0
C3273 C 0.1494 0.16003 0.55869 0.0
C3274 C 0.16908 0.16367 0.55937 0.0
H3275 H 0.12799 0.16499 0.53706 0.0
H3276 H 0.13828 0.14945 0.5733 0.0
C3277 C 0.18312 0.17794 0.54047 0.0
C3278 C 0.82232 0.00637 0.53873 0.0
C3279 C 0.83304 0.00518 0.56227 0.0
H3280 H 0.80621 0.99262 0.50027 0.0
C3281 C 0.83341 0.98745 0.56678 0.0
H3282 H 0.82196 0.01991 0.53438 0.0
C3283 C 0.82437 0.97177 0.54714 0.0
C3284 C 0.81479 0.9735 0.52258 0.0
H3285 H 0.84129 0.98597 0.58496 0.0
H3286 H 0.82545 0.95853 0.55068 0.0
C3287 C 0.81328 0.9907 0.51911 0.0
C3288 C 0.83809 0.32667 0.33814 0.0
C3289 C 0.82054 0.30907 0.34557 0.0
H3290 H 0.85847 0.35706 0.34827 0.0
C3291 C 0.81064 0.30877 0.3711 0.0
H3292 H 0.84606 0.32767 0.31855 0.0
C3293 C 0.81752 0.32598 0.38784 0.0
C3294 C 0.83451 0.34381 0.37948 0.0
H3295 H 0.79727 0.29539 0.37777 0.0
H3296 H 0.80905 0.32552 0.40661 0.0
C3297 C 0.84505 0.34372 0.35498 0.0
C3298 C 0.66199 0.50965 0.38053 0.0
C3299 C 0.65753 0.49145 0.39336 0.0
H3300 H 0.6812 0.5334 0.35256 0.0
C3301 C 0.67075 0.48423 0.38916 0.0
H3302 H 0.65218 0.51572 0.38309 0.0
C3303 C 0.68702 0.49401 0.37072 0.0
C3304 C 0.69078 0.51155 0.35644 0.0
H3305 H 0.66813 0.47055 0.39926 0.0
H3306 H 0.69597 0.48715 0.3666 0.0
C3307 C 0.67851 0.51966 0.36252 0.0
C3308 C 0.48928 0.15334 0.37896 0.0
C3309 C 0.50814 0.16755 0.38938 0.0
H3310 H 0.4645 0.14765 0.35226 0.0
C3311 C 0.5156 0.18771 0.3826 0.0
H3312 H 0.48313 0.13767 0.38368 0.0
C3313 C 0.50512 0.19338 0.36419 0.0
C3314 C 0.48681 0.17904 0.3523 0.0
H3315 H 0.52993 0.19907 0.39067 0.0
H3316 H 0.51196 0.2089 0.35811 0.0
C3317 C 0.47871 0.15903 0.36064 0.0
C3318 C 0.64537 0.46765 0.80479 0.0
C3319 C 0.63854 0.48067 0.81296 0.0
H3320 H 0.66741 0.46406 0.78232 0.0
C3321 C 0.64829 0.50019 0.80199 0.0
H3322 H 0.6384 0.45258 0.813 0.0
C3323 C 0.66521 0.50688 0.78473 0.0
C3324 C 0.6727 0.49417 0.77807 0.0
H3325 H 0.64324 0.51051 0.80753 0.0
H3326 H 0.673 0.52229 0.77787 0.0
C3327 C 0.66219 0.47431 0.78748 0.0
C3328 C 0.52314 0.1857 0.78303 0.0
C3329 C 0.50299 0.17757 0.77553 0.0
H3330 H 0.54465 0.18249 0.80734 0.0
C3331 C 0.48932 0.15804 0.78434 0.0
H3332 H 0.53415 0.20053 0.77613 0.0
C3333 C 0.49547 0.1474 0.80167 0.0
C3334 C 0.51537 0.15609 0.81085 0.0
H3335 H 0.47366 0.1513 0.77912 0.0
H3336 H 0.48445 0.13259 0.80865 0.0
C3337 C 0.52923 0.17517 0.80062 0.0
C3338 C 0.85412 0.34737 0.80603 0.0
C3339 C 0.84667 0.36024 0.81186 0.0
H3340 H 0.84949 0.32089 0.7851 0.0
C3341 C 0.82972 0.35741 0.79675 0.0
H3342 H 0.86742 0.34933 0.8166 0.0
C3343 C 0.81985 0.3415 0.77773 0.0
C3344 C 0.82634 0.32767 0.77377 0.0
H3345 H 0.82331 0.3668 0.80063 0.0
H3346 H 0.80663 0.33962 0.76701 0.0
C3347 C 0.84399 0.33119 0.78745 0.0
C3348 C 0.49517 0.33476 0.33179 0.0
C3349 C 0.5066 0.35424 0.32117 0.0
H3350 H 0.48171 0.30362 0.32307 0.0
C3351 C 0.51231 0.35704 0.29208 0.0
H3352 H 0.49077 0.33208 0.35416 0.0
C3353 C 0.5071 0.34061 0.27419 0.0
C3354 C 0.49642 0.32121 0.28531 0.0
H3355 H 0.52107 0.37191 0.28333 0.0
H3356 H 0.51203 0.34307 0.25204 0.0
C3357 C 0.49018 0.31846 0.31409 0.0
C3358 C 0.67391 0.15742 0.30022 0.0
C3359 C 0.6725 0.16802 0.2767 0.0
H3360 H 0.66052 0.14149 0.33893 0.0
C3361 C 0.65479 0.16852 0.27265 0.0
H3362 H 0.68745 0.15698 0.30423 0.0
C3363 C 0.63933 0.15964 0.29265 0.0
C3364 C 0.64127 0.1501 0.3171 0.0
H3365 H 0.65314 0.17631 0.2545 0.0
H3366 H 0.62609 0.16076 0.28942 0.0
C3367 C 0.65846 0.14854 0.32018 0.0
C3368 C 0.85614 0.50844 0.30312 0.0
C3369 C 0.84885 0.48838 0.3105 0.0
H3370 H 0.85069 0.52939 0.28082 0.0
C3371 C 0.83144 0.47364 0.29705 0.0
H3372 H 0.8697 0.52014 0.31271 0.0
C3373 C 0.82075 0.47893 0.27844 0.0
C3374 C 0.82714 0.49906 0.27298 0.0
H3375 H 0.82528 0.45805 0.30229 0.0
H3376 H 0.8069 0.46727 0.26947 0.0
C3377 C 0.84538 0.51374 0.28456 0.0
C3378 C 0.66725 0.15433 0.88335 0.0
C3379 C 0.66167 0.16813 0.89248 0.0
H3380 H 0.68743 0.14928 0.85819 0.0
C3381 C 0.6739 0.1883 0.88537 0.0
H3382 H 0.65811 0.13866 0.8884 0.0
C3383 C 0.69042 0.19432 0.86764 0.0
C3384 C 0.69527 0.18034 0.85679 0.0
H3385 H 0.67018 0.19935 0.89248 0.0
H3386 H 0.69863 0.20978 0.8611 0.0
C3387 C 0.68392 0.16038 0.86572 0.0
C3388 C 0.82183 0.47978 0.86166 0.0
C3389 C 0.8327 0.48968 0.88634 0.0
H3390 H 0.80879 0.48172 0.82232 0.0
C3391 C 0.83873 0.50992 0.89011 0.0
H3392 H 0.81727 0.46429 0.85787 0.0
C3393 C 0.83394 0.52001 0.86947 0.0
C3394 C 0.82337 0.51009 0.84456 0.0
H3395 H 0.84715 0.5179 0.90893 0.0
H3396 H 0.83881 0.53563 0.87268 0.0
C3397 C 0.81723 0.48985 0.84106 0.0
C3398 C 0.49695 0.32081 0.89968 0.0
C3399 C 0.49825 0.3392 0.89391 0.0
H3400 H 0.48734 0.29123 0.88486 0.0
C3401 C 0.48914 0.34118 0.86903 0.0
H3402 H 0.50366 0.3188 0.91887 0.0
C3403 C 0.48001 0.32554 0.84943 0.0
C3404 C 0.4797 0.30749 0.85431 0.0
H3405 H 0.49014 0.35526 0.86374 0.0
H3406 H 0.47429 0.32807 0.82963 0.0
C3407 C 0.48769 0.30507 0.88015 0.0
C3408 C 0.5048 0.65192 0.69128 0.0
C3409 C 0.48424 0.63996 0.68647 0.0
H3410 H 0.52801 0.67791 0.71167 0.0
C3411 C 0.471 0.64381 0.70208 0.0
H3412 H 0.51532 0.64908 0.67991 0.0
C3413 C 0.47828 0.66034 0.7203 0.0
C3414 C 0.49889 0.67325 0.72314 0.0
H3415 H 0.45508 0.63491 0.69867 0.0
H3416 H 0.46781 0.66379 0.73049 0.0
C3417 C 0.51205 0.66839 0.70944 0.0
C3418 C 0.34787 0.85 0.69373 0.0
C3419 C 0.35896 0.8411 0.68488 0.0
H3420 H 0.32242 0.84658 0.71652 0.0
C3421 C 0.3539 0.82228 0.69603 0.0
H3422 H 0.35157 0.86464 0.68609 0.0
C3423 C 0.3375 0.81216 0.71416 0.0
C3424 C 0.32554 0.82042 0.72128 0.0
H3425 H 0.3619 0.81479 0.68963 0.0
H3426 H 0.33377 0.79748 0.72172 0.0
C3427 C 0.33129 0.83974 0.7116 0.0
C3428 C 0.14771 0.4982 0.69659 0.0
C3429 C 0.15672 0.51817 0.68759 0.0
H3430 H 0.151 0.47613 0.7195 0.0
C3431 C 0.17556 0.53188 0.69873 0.0
H3432 H 0.13305 0.48729 0.68896 0.0
C3433 C 0.18562 0.52558 0.71692 0.0
C3434 C 0.17727 0.50535 0.72411 0.0
H3435 H 0.18311 0.54736 0.69223 0.0
H3436 H 0.20032 0.53648 0.72443 0.0
C3437 C 0.15791 0.49184 0.71451 0.0
C3438 C 0.33145 0.83924 0.11804 0.0
C3439 C 0.33821 0.82604 0.11065 0.0
H3440 H 0.31027 0.84363 0.14167 0.0
C3441 C 0.32717 0.80613 0.11973 0.0
H3442 H 0.33964 0.85471 0.11151 0.0
C3443 C 0.3106 0.79989 0.13746 0.0
C3444 C 0.30451 0.81337 0.14636 0.0
H3445 H 0.33179 0.7955 0.11401 0.0
H3446 H 0.30326 0.78474 0.14541 0.0
C3447 C 0.31474 0.83295 0.13565 0.0
C3448 C 0.15238 0.49625 0.14036 0.0
C3449 C 0.1637 0.50805 0.11711 0.0
H3450 H 0.15073 0.47841 0.17613 0.0
C3451 C 0.18148 0.50839 0.11 0.0
H3452 H 0.13836 0.49525 0.14603 0.0
C3453 C 0.18837 0.49814 0.12689 0.0
C3454 C 0.1777 0.48748 0.15138 0.0
H3455 H 0.19056 0.5173 0.0922 0.0
H3456 H 0.20237 0.4991 0.12123 0.0
C3457 C 0.15935 0.48625 0.15739 0.0
C3458 C 0.50897 0.69032 0.12765 0.0
C3459 C 0.51231 0.68803 0.15675 0.0
H3460 H 0.49568 0.67564 0.08784 0.0
C3461 C 0.50561 0.66879 0.16756 0.0
H3462 H 0.51406 0.70499 0.11874 0.0
C3463 C 0.49511 0.65217 0.15006 0.0
C3464 C 0.49114 0.65438 0.1213 0.0
H3465 H 0.5077 0.66649 0.18995 0.0
H3466 H 0.4897 0.63749 0.1592 0.0
C3467 C 0.49858 0.6736 0.10998 0.0
C3468 C 0.17692 0.67812 0.59683 0.0
C3469 C 0.15965 0.6599 0.60275 0.0
H3470 H 0.19704 0.7078 0.61113 0.0
C3471 C 0.14845 0.65833 0.62734 0.0
H3472 H 0.18573 0.67981 0.57787 0.0
C3473 C 0.155 0.67421 0.64652 0.0
C3474 C 0.17287 0.6921 0.6415 0.0
H3475 H 0.13524 0.64439 0.63275 0.0
H3476 H 0.14662 0.67197 0.66612 0.0
C3477 C 0.18342 0.69409 0.61595 0.0
C3478 C 0.32457 0.48283 0.65098 0.0
C3479 C 0.30605 0.48108 0.64453 0.0
H3480 H 0.3549 0.49448 0.63853 0.0
C3481 C 0.30369 0.48839 0.61803 0.0
H3482 H 0.3271 0.47774 0.67137 0.0
C3483 C 0.31979 0.49819 0.59917 0.0
C3484 C 0.33853 0.50073 0.60634 0.0
H3485 H 0.28954 0.48701 0.61217 0.0
H3486 H 0.31771 0.50419 0.5793 0.0
C3487 C 0.34059 0.49249 0.63211 0.0
C3488 C 0.50447 0.81244 0.6257 0.0
C3489 C 0.5154 0.82527 0.64836 0.0
H3490 H 0.48644 0.80793 0.58852 0.0
C3491 C 0.51823 0.84463 0.64881 0.0
H3492 H 0.50195 0.7974 0.62478 0.0
C3493 C 0.50916 0.85057 0.62826 0.0
C3494 C 0.4971 0.8373 0.6067 0.0
H3495 H 0.52684 0.85495 0.66575 0.0
H3496 H 0.51067 0.86517 0.63036 0.0
C3497 C 0.49542 0.81841 0.60507 0.0
C3498 C 0.32739 0.48462 0.20593 0.0
C3499 C 0.3262 0.49917 0.22251 0.0
H3500 H 0.34276 0.47848 0.17301 0.0
C3501 C 0.34129 0.51917 0.21955 0.0
H3502 H 0.31603 0.46908 0.20736 0.0
C3503 C 0.35628 0.52464 0.19904 0.0
C3504 C 0.3568 0.51022 0.18127 0.0
H3505 H 0.34114 0.53074 0.23236 0.0
H3506 H 0.36685 0.54033 0.19623 0.0
C3507 C 0.34259 0.49007 0.18576 0.0
C3508 C 0.51638 0.84165 0.19961 0.0
C3509 C 0.5057 0.83231 0.22469 0.0
H3510 H 0.51762 0.85706 0.16105 0.0
C3511 C 0.48876 0.83363 0.2316 0.0
H3512 H 0.52932 0.84063 0.19346 0.0
C3513 C 0.4821 0.84327 0.21307 0.0
C3514 C 0.49215 0.85161 0.18711 0.0
H3515 H 0.48038 0.82676 0.25097 0.0
H3516 H 0.46877 0.84369 0.2187 0.0
C3517 C 0.50966 0.85113 0.18101 0.0
C3518 C 0.15606 0.67427 0.20509 0.0
C3519 C 0.16819 0.67298 0.22645 0.0
H3520 H 0.13831 0.66117 0.1676 0.0
C3521 C 0.17001 0.65583 0.22762 0.0
H3522 H 0.15445 0.68732 0.20332 0.0
C3523 C 0.16099 0.64096 0.20677 0.0
C3524 C 0.14994 0.64292 0.18435 0.0
H3525 H 0.17906 0.65428 0.244 0.0
H3526 H 0.1636 0.62849 0.20736 0.0
C3527 C 0.14701 0.65939 0.18433 0.0
C3528 C 0.1308 0.13544 0.26608 0.0
C3529 C 0.13251 0.15423 0.26209 0.0
H3530 H 0.13656 0.11311 0.24925 0.0
C3531 C 0.14134 0.16475 0.23667 0.0
H3532 H 0.12427 0.12698 0.2855 0.0
C3533 C 0.14884 0.15704 0.21625 0.0
C3534 C 0.14748 0.13842 0.2204 0.0
H3535 H 0.14265 0.17911 0.23259 0.0
H3536 H 0.15618 0.166 0.19752 0.0
C3537 C 0.13814 0.12761 0.24545 0.0
C3538 C 0.8633 0.99298 0.26209 0.0
C3539 C 0.84346 0.98445 0.27138 0.0
H3540 H 0.88604 0.01421 0.23419 0.0
C3541 C 0.83123 0.9912 0.25957 0.0
H3542 H 0.87299 0.98798 0.27087 0.0
C3543 C 0.83874 0.00634 0.23901 0.0
C3544 C 0.85853 0.01479 0.22956 0.0
H3545 H 0.81593 0.98497 0.26658 0.0
H3546 H 0.829 0.01127 0.23022 0.0
C3547 C 0.87072 0.00789 0.24113 0.0
C3548 C 0.97589 0.83819 0.26182 0.0
C3549 C 0.98004 0.84488 0.23324 0.0
H3550 H 0.98735 0.83962 0.30403 0.0
C3551 C -0.00039 0.85944 0.22594 0.0
H3552 H 0.96096 0.82717 0.26829 0.0
C3553 C 0.01472 0.86686 0.24659 0.0
C3554 C 0.01066 0.85986 0.27503 0.0
H3555 H 0.00341 0.86477 0.20407 0.0
H3556 H 0.02961 0.87805 0.24021 0.0
C3557 C 0.99101 0.84555 0.28243 0.0
C3558 C 0.8758 0.86166 0.74907 0.0
C3559 C 0.86441 0.85198 0.72455 0.0
H3560 H 0.87726 0.87613 0.78904 0.0
C3561 C 0.84556 0.8503 0.72144 0.0
H3562 H 0.89051 0.86358 0.75203 0.0
C3563 C 0.83825 0.85791 0.7423 0.0
C3564 C 0.84944 0.8671 0.76701 0.0
H3565 H 0.83609 0.84256 0.7033 0.0
H3566 H 0.82351 0.85599 0.73957 0.0
C3567 C 0.86831 0.86899 0.7702 0.0
C3568 C 0.16286 0.01926 0.75434 0.0
C3569 C 0.15102 0.01729 0.73043 0.0
H3570 H 0.16592 0.00613 0.7928 0.0
C3571 C 0.13196 0.00045 0.72818 0.0
H3572 H 0.17775 0.03196 0.7563 0.0
C3573 C 0.1249 0.98576 0.74948 0.0
C3574 C 0.13692 0.98743 0.7732 0.0
H3575 H 0.12253 0.99868 0.70995 0.0
H3576 H 0.11002 0.97311 0.74729 0.0
C3577 C 0.15598 0.00444 0.77533 0.0
C3578 C 0.98387 0.12377 0.75131 0.0
C3579 C 0.98563 0.135 0.72657 0.0
H3580 H 0.99693 0.12244 0.79131 0.0
C3581 C 0.00293 0.15374 0.7232 0.0
H3582 H 0.97098 0.10916 0.7545 0.0
C3583 C 0.01794 0.16106 0.74394 0.0
C3584 C 0.01591 0.15002 0.76883 0.0
H3585 H 0.00471 0.16311 0.70491 0.0
H3586 H 0.03086 0.17569 0.74096 0.0
C3587 C 0.99877 0.13129 0.77232 0.0
C3588 C 0.81848 0.47943 0.61395 0.0
C3589 C 0.80435 0.48494 0.60615 0.0
H3590 H 0.83695 0.46775 0.60042 0.0
C3591 C 0.79798 0.48248 0.5774 0.0
H3592 H 0.82399 0.48136 0.63576 0.0
C3593 C 0.80582 0.4751 0.55691 0.0
C3594 C 0.82013 0.46984 0.56468 0.0
H3595 H 0.78696 0.48632 0.57064 0.0
H3596 H 0.80098 0.47397 0.53483 0.0
C3597 C 0.82617 0.47189 0.59354 0.0
C3598 C 0.5313 0.33287 0.60417 0.0
C3599 C 0.51158 0.31696 0.60318 0.0
H3600 H 0.55381 0.35952 0.58404 0.0
C3601 C 0.49924 0.31598 0.58044 0.0
H3602 H 0.54117 0.33391 0.62139 0.0
C3603 C 0.50633 0.33071 0.55934 0.0
C3604 C 0.52603 0.34673 0.56026 0.0
H3605 H 0.48387 0.3041 0.57941 0.0
H3606 H 0.49614 0.32978 0.54271 0.0
C3607 C 0.53849 0.34756 0.58285 0.0
C3608 C 0.66175 0.19785 0.5697 0.0
C3609 C 0.64622 0.17795 0.57144 0.0
H3610 H 0.68851 0.22112 0.5886 0.0
C3611 C 0.64572 0.16637 0.59498 0.0
H3612 H 0.66268 0.20715 0.55174 0.0
C3613 C 0.66068 0.17424 0.61577 0.0
C3614 C 0.67647 0.19399 0.61378 0.0
H3615 H 0.63383 0.15109 0.59726 0.0
H3616 H 0.66009 0.16458 0.633 0.0
C3617 C 0.67671 0.20579 0.59065 0.0
C3618 C 0.53526 0.18151 0.08856 0.0
C3619 C 0.53181 0.1829 0.0592 0.0
H3620 H 0.52987 0.18645 0.13181 0.0
C3621 C 0.52132 0.19269 0.05149 0.0
H3622 H 0.54366 0.17457 0.09558 0.0
C3623 C 0.51425 0.20051 0.07242 0.0
C3624 C 0.51686 0.19827 0.10183 0.0
H3625 H 0.518 0.19393 0.02927 0.0
H3626 H 0.5065 0.20812 0.06536 0.0
C3627 C 0.52766 0.1888 0.10953 0.0
C3628 C 0.81479 0.32569 0.05461 0.0
C3629 C 0.81301 0.34284 0.05703 0.0
H3630 H 0.80882 0.29803 0.07342 0.0
C3631 C 0.80273 0.34453 0.08083 0.0
H3632 H 0.82295 0.32395 0.03705 0.0
C3633 C 0.79504 0.32979 0.10204 0.0
C3634 C 0.79711 0.31287 0.09961 0.0
H3635 H 0.80068 0.35728 0.08322 0.0
H3636 H 0.78754 0.33163 0.12042 0.0
C3637 C 0.80677 0.31081 0.07552 0.0
C3638 C 0.64591 0.46138 0.09069 0.0
C3639 C 0.65077 0.46644 0.0616 0.0
H3640 H 0.65584 0.46568 0.13405 0.0
C3641 C 0.67098 0.4789 0.05444 0.0
H3642 H 0.63072 0.45145 0.09734 0.0
C3643 C 0.68573 0.48615 0.07558 0.0
C3644 C 0.68077 0.48186 0.1048 0.0
H3645 H 0.6756 0.48359 0.03255 0.0
H3646 H 0.70103 0.4953 0.06877 0.0
C3647 C 0.66059 0.46924 0.11195 0.0
C3648 C 0.46252 0.81266 0.91444 0.0
C3649 C 0.47007 0.81628 0.94262 0.0
H3650 H 0.46419 0.80308 0.87203 0.0
C3651 C 0.48477 0.81141 0.94969 0.0
H3652 H 0.45098 0.81589 0.90822 0.0
C3653 C 0.4919 0.80341 0.92912 0.0
C3654 C 0.48481 0.80038 0.90071 0.0
H3655 H 0.49123 0.81421 0.97098 0.0
H3656 H 0.50312 0.79977 0.93554 0.0
C3657 C 0.46989 0.80495 0.89372 0.0
C3658 C 0.19914 0.66659 0.89232 0.0
C3659 C 0.19234 0.68032 0.89132 0.0
H3660 H 0.19705 0.64094 0.9133 0.0
C3661 C 0.17798 0.67865 0.91123 0.0
H3662 H 0.21023 0.66762 0.87719 0.0
C3663 C 0.17023 0.66327 0.9314 0.0
C3664 C 0.17696 0.64949 0.93236 0.0
H3665 H 0.17238 0.68895 0.91072 0.0
H3666 H 0.15901 0.66215 0.94634 0.0
C3667 C 0.19167 0.65141 0.91293 0.0
C3668 C 0.33666 0.53434 0.93106 0.0
C3669 C 0.35444 0.53409 0.92612 0.0
H3670 H 0.30786 0.52698 0.91528 0.0
C3671 C 0.35672 0.52645 0.89991 0.0
H3672 H 0.33425 0.53994 0.95108 0.0
C3673 C 0.34134 0.51845 0.87977 0.0
C3674 C 0.32334 0.51819 0.88497 0.0
H3675 H 0.37032 0.52633 0.89506 0.0
H3676 H 0.34345 0.51193 0.86048 0.0
C3677 C 0.32134 0.52658 0.91068 0.0
C3678 C 0.18405 0.51263 0.44481 0.0
C3679 C 0.18496 0.53113 0.44134 0.0
H3680 H 0.1902 0.49087 0.42674 0.0
C3681 C 0.19381 0.54221 0.41625 0.0
H3682 H 0.17697 0.50339 0.46341 0.0
C3683 C 0.20099 0.53472 0.39491 0.0
C3684 C 0.19982 0.51619 0.39843 0.0
H3685 H 0.19515 0.55665 0.41298 0.0
H3686 H 0.20743 0.5434 0.37561 0.0
C3687 C 0.19155 0.50535 0.42373 0.0
C3688 C 0.48445 0.67294 0.44491 0.0
C3689 C 0.46584 0.65557 0.44107 0.0
H3690 H 0.50668 0.70082 0.42732 0.0
C3691 C 0.455 0.65369 0.41585 0.0
H3692 H 0.4935 0.67482 0.46363 0.0
C3693 C 0.46285 0.6685 0.39473 0.0
C3694 C 0.48152 0.68565 0.39859 0.0
H3695 H 0.44049 0.64075 0.41229 0.0
H3696 H 0.45436 0.66653 0.3753 0.0
C3697 C 0.4921 0.68786 0.42404 0.0
C3698 C 0.35165 0.82708 0.41062 0.0
C3699 C 0.34943 0.81553 0.43501 0.0
H3700 H 0.33876 0.82987 0.37172 0.0
C3701 C 0.33233 0.79668 0.43768 0.0
H3702 H 0.36455 0.84181 0.40829 0.0
C3703 C 0.31764 0.78956 0.41638 0.0
C3704 C 0.31959 0.80131 0.39218 0.0
H3705 H 0.33035 0.78746 0.45627 0.0
H3706 H 0.30477 0.77486 0.41893 0.0
C3707 C 0.33686 0.82014 0.38959 0.0
C3708 C 0.32216 0.14595 0.15459 0.0
C3709 C 0.31252 0.15722 0.15621 0.0
H3710 H 0.34907 0.14513 0.16148 0.0
C3711 C 0.32332 0.17695 0.16631 0.0
H3712 H 0.31426 0.13061 0.14746 0.0
C3713 C 0.34317 0.18511 0.17477 0.0
C3714 C 0.35274 0.17384 0.173 0.0
H3715 H 0.31654 0.18621 0.16734 0.0
H3716 H 0.35114 0.20037 0.18232 0.0
C3717 C 0.34209 0.15422 0.16271 0.0
C3718 C 0.83447 0.17251 0.19362 0.0
C3719 C 0.82407 0.17781 0.17403 0.0
H3720 H 0.85092 0.15737 0.20021 0.0
C3721 C 0.82243 0.17152 0.14529 0.0
H3722 H 0.83636 0.17736 0.21578 0.0
C3723 C 0.83112 0.16042 0.13634 0.0
C3724 C 0.84137 0.15508 0.15598 0.0
H3725 H 0.81419 0.17491 0.12971 0.0
H3726 H 0.82955 0.15571 0.11411 0.0
C3727 C 0.84289 0.16114 0.18472 0.0
C3728 C 0.82575 0.64893 0.14867 0.0
C3729 C 0.81793 0.6446 0.17669 0.0
H3730 H 0.84331 0.67151 0.11791 0.0
C3731 C 0.82198 0.66047 0.19533 0.0
H3732 H 0.82324 0.6371 0.13391 0.0
C3733 C 0.83368 0.68017 0.18623 0.0
C3734 C 0.84144 0.68444 0.15823 0.0
H3735 H 0.81592 0.65769 0.21688 0.0
H3736 H 0.8364 0.69208 0.20098 0.0
C3737 C 0.83731 0.66863 0.13951 0.0
C3738 C 0.1565 0.34469 0.33837 0.0
C3739 C 0.17505 0.3541 0.32448 0.0
H3740 H 0.13342 0.31795 0.35727 0.0
C3741 C 0.18494 0.34336 0.31967 0.0
H3742 H 0.14846 0.35259 0.34202 0.0
C3743 C 0.17651 0.32361 0.32879 0.0
C3744 C 0.15788 0.31409 0.34264 0.0
H3745 H 0.19939 0.35035 0.30932 0.0
H3746 H 0.18476 0.31591 0.32536 0.0
C3747 C 0.14795 0.32488 0.3472 0.0
C3748 C 0.66191 0.82432 0.30751 0.0
C3749 C 0.64622 0.82086 0.32617 0.0
H3750 H 0.69348 0.83812 0.30164 0.0
C3751 C 0.65082 0.8291 0.35394 0.0
H3752 H 0.65893 0.81794 0.28615 0.0
C3753 C 0.6706 0.84041 0.36288 0.0
C3754 C 0.68622 0.84392 0.34416 0.0
H3755 H 0.63917 0.8271 0.36869 0.0
H3756 H 0.67369 0.84672 0.3843 0.0
C3757 C 0.6817 0.83582 0.31637 0.0
C3758 C 0.1584 0.81469 0.32026 0.0
C3759 C 0.1792 0.82549 0.32328 0.0
H3760 H 0.13079 0.81394 0.32715 0.0
C3761 C 0.18823 0.84471 0.3351 0.0
H3762 H 0.15105 0.79973 0.31154 0.0
C3763 C 0.17668 0.85301 0.34366 0.0
C3764 C 0.15581 0.84216 0.34091 0.0
H3765 H 0.20427 0.85343 0.33735 0.0
H3766 H 0.18416 0.86802 0.35214 0.0
C3767 C 0.14682 0.82289 0.32911 0.0
C3768 C 0.67601 0.85114 0.84433 0.0
C3769 C 0.6857 0.83998 0.84258 0.0
H3770 H 0.64933 0.85207 0.83654 0.0
C3771 C 0.67518 0.82033 0.83243 0.0
H3772 H 0.6839 0.86641 0.85181 0.0
C3773 C 0.65527 0.81195 0.8242 0.0
C3774 C 0.64554 0.82315 0.8255 0.0
H3775 H 0.68229 0.81137 0.83121 0.0
H3776 H 0.64747 0.7966 0.81706 0.0
C3777 C 0.65618 0.84286 0.8357 0.0
C3778 C 0.16077 0.82432 0.80246 0.0
C3779 C 0.17478 0.82261 0.81954 0.0
H3780 H 0.14162 0.83665 0.79816 0.0
C3781 C 0.18061 0.83287 0.84583 0.0
H3782 H 0.15576 0.81637 0.78229 0.0
C3783 C 0.17255 0.84452 0.85489 0.0
C3784 C 0.15845 0.84616 0.83789 0.0
H3785 H 0.19162 0.8321 0.85925 0.0
H3786 H 0.17753 0.85244 0.87509 0.0
C3787 C 0.15268 0.83596 0.81154 0.0
C3788 C 0.15655 0.34156 0.81522 0.0
C3789 C 0.17624 0.35329 0.82501 0.0
H3790 H 0.12981 0.31318 0.81633 0.0
C3791 C 0.18405 0.34482 0.84398 0.0
H3792 H 0.14999 0.34774 0.80097 0.0
C3793 C 0.17247 0.32503 0.8528 0.0
C3794 C 0.15283 0.31326 0.84285 0.0
H3795 H 0.19926 0.35337 0.85157 0.0
H3796 H 0.17906 0.31883 0.86697 0.0
C3797 C 0.14498 0.32177 0.82403 0.0
C3798 C 0.851 0.67773 0.6526 0.0
C3799 C 0.84052 0.688 0.65618 0.0
H3800 H 0.85137 0.65064 0.65901 0.0
C3801 C 0.82146 0.67809 0.66854 0.0
H3802 H 0.86584 0.68513 0.64347 0.0
C3803 C 0.81299 0.65821 0.67705 0.0
C3804 C 0.82352 0.6479 0.67371 0.0
H3805 H 0.81299 0.68563 0.67124 0.0
H3806 H 0.79809 0.65088 0.68593 0.0
C3807 C 0.84265 0.65794 0.66141 0.0
C3808 C 0.3161 0.16366 0.68343 0.0
C3809 C 0.31179 0.1532 0.65732 0.0
H3810 H 0.33862 0.18359 0.71255 0.0
C3811 C 0.3276 0.15483 0.64052 0.0
H3812 H 0.30428 0.163 0.69663 0.0
C3813 C 0.34728 0.16667 0.64962 0.0
C3814 C 0.35158 0.17713 0.67574 0.0
H3815 H 0.32474 0.14674 0.62048 0.0
H3816 H 0.35913 0.16741 0.63641 0.0
C3817 C 0.33577 0.17548 0.69255 0.0
C3818 C 0.85404 0.17713 0.67064 0.0
C3819 C 0.84527 0.15873 0.65632 0.0
H3820 H 0.84976 0.19979 0.68972 0.0
C3821 C 0.82473 0.14881 0.65064 0.0
H3822 H 0.86989 0.18522 0.67495 0.0
C3823 C 0.81314 0.15703 0.65933 0.0
C3824 C 0.82186 0.17542 0.67375 0.0
H3825 H 0.81753 0.13447 0.63996 0.0
H3826 H 0.79727 0.14877 0.65523 0.0
C3827 C 0.84248 0.18543 0.67915 0.0
C3828 C 0.00459 0.49587 0.52767 0.0
C3829 C 0.02035 0.5052 0.50787 0.0
H3830 H 0.97303 0.48077 0.53442 0.0
C3831 C 0.01581 0.50616 0.47884 0.0
H3832 H 0.00746 0.49451 0.55008 0.0
C3833 C 0.99606 0.49798 0.46987 0.0
C3834 C 0.98043 0.48889 0.48976 0.0
H3835 H 0.02752 0.51356 0.46306 0.0
H3836 H 0.99303 0.4991 0.44744 0.0
C3837 C 0.98486 0.48793 0.51873 0.0
C3838 C 0.49764 0.51493 0.48297 0.0
C3839 C 0.48819 0.51199 0.50977 0.0
H3840 H 0.51317 0.5062 0.45397 0.0
C3841 C 0.48667 0.49667 0.52765 0.0
H3842 H 0.4988 0.5263 0.46831 0.0
C3843 C 0.49433 0.48458 0.5189 0.0
C3844 C 0.50397 0.48768 0.49222 0.0
H3845 H 0.47973 0.49408 0.54859 0.0
H3846 H 0.49253 0.47271 0.53304 0.0
C3847 C 0.50558 0.50308 0.47445 0.0
C3848 C 0.50019 0.01358 0.51816 0.0
C3849 C 0.50803 0.01818 0.49022 0.0
H3850 H 0.48233 0.99074 0.5483 0.0
C3851 C 0.5038 0.00259 0.471 0.0
H3852 H 0.50299 0.02531 0.53329 0.0
C3853 C 0.49215 0.98278 0.47965 0.0
C3854 C 0.48432 0.97812 0.50766 0.0
H3855 H 0.50986 0.00572 0.44943 0.0
H3856 H 0.48963 0.97113 0.46454 0.0
C3857 C 0.4884 0.99377 0.52675 0.0
C3858 C 0.51198 0.01462 0.01525 0.0
C3859 C 0.50588 0.01905 0.98918 0.0
H3860 H 0.50898 0.992 0.04451 0.0
C3861 C 0.49137 0.00331 0.9726 0.0
H3862 H 0.52338 0.02635 0.02829 0.0
C3863 C 0.48318 0.98361 0.98186 0.0
C3864 C 0.48928 0.97922 0.00794 0.0
H3865 H 0.48614 0.00623 0.95262 0.0
H3866 H 0.47185 0.97184 0.9688 0.0
C3867 C 0.50376 0.99494 0.02453 0.0
C3868 C 0.98311 0.49069 0.02228 0.0
C3869 C 0.97821 0.48625 0.99307 0.0
H3870 H 0.00628 0.50559 0.05345 0.0
C3871 C 0.99368 0.49378 0.97267 0.0
H3872 H 0.97162 0.48549 0.03856 0.0
C3873 C 0.01349 0.50559 0.98121 0.0
C3874 C 0.01831 0.50991 0.01037 0.0
H3875 H 0.99053 0.49037 0.95006 0.0
H3876 H 0.02509 0.51107 0.96505 0.0
C3877 C 0.00296 0.50229 0.03084 0.0
C3878 C 0.49206 0.4808 0.9881 0.0
C3879 C 0.51285 0.49167 0.99136 0.0
H3880 H 0.46435 0.47991 0.9946 0.0
C3881 C 0.52171 0.51072 0.00373 0.0
H3882 H 0.48482 0.46594 0.97904 0.0
C3883 C 0.51001 0.51885 0.01235 0.0
C3884 C 0.48919 0.50801 0.00904 0.0
H3885 H 0.53772 0.51949 0.00621 0.0
H3886 H 0.51736 0.53378 0.02114 0.0
C3887 C 0.48035 0.48884 0.99696 0.0
loop_
_geom_bond_atom_site_label_1
_geom_bond_atom_site_label_2
_geom_bond_distance
_geom_bond_site_symmetry_2
_ccdc_geom_bond_type
Li0 N17 1.990 . S
Li0 O60 1.956 . S
Li0 O61 1.970 . S
Li0 O62 1.961 . S
Li1 N25 1.990 . S
Li1 O60 1.970 . S
Li1 O61 1.956 . S
Li1 O63 1.961 . S
Li2 N47 1.990 . S
Li2 O60 1.961 . S
Li2 O62 1.956 . S
Li2 O63 1.970 . S
Li3 N53 1.990 . S
Li3 O61 1.961 . S
Li3 O62 1.970 . S
Li3 O63 1.956 . S
C4 C6 1.348 . S
C4 C7 1.356 . S
C4 O60 1.325 . S
N5 C8 1.314 . S
N5 C9 1.279 . S
C6 C4 1.348 . S
C6 C8 1.353 . S
C6 H64 0.929 . S
C7 C4 1.356 . S
C7 C9 1.358 . S
C7 H65 0.930 . S
C8 N5 1.314 . S
C8 C6 1.353 . S
C8 H66 0.930 . S
C9 N5 1.279 . S
C9 C7 1.358 . S
C9 H67 0.930 . S
C10 C13 1.348 . S
C10 C14 1.356 . S
C10 O61 1.325 . S
C11 N12 1.279 . S
C11 C14 1.358 . S
C11 H68 0.930 . S
N12 C11 1.279 . S
N12 C15 1.314 . S
C13 C10 1.348 . S
C13 C15 1.353 . S
C13 H69 0.929 . S
C14 C10 1.356 . S
C14 C11 1.358 . S
C14 H70 0.930 . S
C15 N12 1.314 . S
C15 C13 1.353 . S
C15 H71 0.930 . S
C16 N17 1.314 . S
C16 C21 1.353 . S
C16 H22 0.930 . S
N17 Li0 1.990 . S
N17 C16 1.314 . S
N17 C19 1.279 . S
C18 C19 1.358 . S
C18 C20 1.356 . S
C18 H72 0.930 . S
C19 N17 1.279 . S
C19 C18 1.358 . S
C19 H23 0.930 . S
C20 C18 1.356 . S
C20 C21 1.348 . S
C21 C16 1.353 . S
C21 C20 1.348 . S
C21 H73 0.929 . S
H22 C16 0.930 . S
H23 C19 0.930 . S
C24 N25 1.314 . S
C24 C26 1.353 . S
C24 H30 0.930 . S
N25 Li1 1.990 . S
N25 C24 1.314 . S
N25 C28 1.279 . S
C26 C24 1.353 . S
C26 C29 1.348 . S
C26 H74 0.929 . S
C27 C28 1.358 . S
C27 C29 1.356 . S
C27 H75 0.930 . S
C28 N25 1.279 . S
C28 C27 1.358 . S
C28 H31 0.930 . S
C29 C26 1.348 . S
C29 C27 1.356 . S
H30 C24 0.930 . S
H31 C28 0.930 . S
C32 C34 1.348 . S
C32 C35 1.356 . S
C32 O62 1.325 . S
N33 C36 1.314 . S
N33 C37 1.279 . S
C34 C32 1.348 . S
C34 C36 1.353 . S
C34 H76 0.929 . S
C35 C32 1.356 . S
C35 C37 1.358 . S
C35 H77 0.930 . S
C36 N33 1.314 . S
C36 C34 1.353 . S
C36 H78 0.930 . S
C37 N33 1.279 . S
C37 C35 1.358 . S
C37 H79 0.930 . S
C38 C39 1.348 . S
C38 C40 1.356 . S
C38 O63 1.325 . S
C39 C38 1.348 . S
C39 C41 1.353 . S
C39 H80 0.929 . S
C40 C38 1.356 . S
C40 C42 1.358 . S
C40 H81 0.930 . S
C41 C39 1.353 . S
C41 N43 1.314 . S
C41 H82 0.930 . S
C42 C40 1.358 . S
C42 N43 1.279 . S
C42 H83 0.930 . S
N43 C41 1.314 . S
N43 C42 1.279 . S
C44 C46 1.353 . S
C44 N47 1.314 . S
C44 H50 0.930 . S
C45 N47 1.279 . S
C45 C48 1.358 . S
C45 H51 0.930 . S
C46 C44 1.353 . S
C46 C49 1.348 . S
C46 H84 0.929 . S
N47 Li2 1.990 . S
N47 C44 1.314 . S
N47 C45 1.279 . S
C48 C45 1.358 . S
C48 C49 1.356 . S
C48 H85 0.930 . S
C49 C46 1.348 . S
C49 C48 1.356 . S
H50 C44 0.930 . S
H51 C45 0.930 . S
C52 N53 1.314 . S
C52 C54 1.353 . S
C52 H58 0.930 . S
N53 Li3 1.990 . S
N53 C52 1.314 . S
N53 C56 1.279 . S
C54 C52 1.353 . S
C54 C57 1.348 . S
C54 H86 0.929 1_554 S
C55 C56 1.358 . S
C55 C57 1.356 . S
C55 H87 0.930 . S
C56 N53 1.279 . S
C56 C55 1.358 . S
C56 H59 0.930 . S
C57 C54 1.348 . S
C57 C55 1.356 . S
H58 C52 0.930 . S
H59 C56 0.930 . S
O60 Li0 1.956 . S
O60 Li1 1.970 . S
O60 Li2 1.961 . S
O60 C4 1.325 . S
O61 Li0 1.970 . S
O61 Li1 1.956 . S
O61 Li3 1.961 . S
O61 C10 1.325 . S
O62 Li0 1.961 . S
O62 Li2 1.956 . S
O62 Li3 1.970 . S
O62 C32 1.325 . S
O63 Li1 1.961 . S
O63 Li2 1.970 . S
O63 Li3 1.956 . S
O63 C38 1.325 . S
H64 C6 0.929 . S
H65 C7 0.930 . S
H66 C8 0.930 . S
H67 C9 0.930 . S
H68 C11 0.930 . S
H69 C13 0.929 . S
H70 C14 0.930 . S
H71 C15 0.930 . S
H72 C18 0.930 . S
H73 C21 0.929 . S
H74 C26 0.929 . S
H75 C27 0.930 . S
H76 C34 0.929 . S
H77 C35 0.930 . S
H78 C36 0.930 . S
H79 C37 0.930 . S
H80 C39 0.929 . S
H81 C40 0.930 . S
H82 C41 0.930 . S
H83 C42 0.930 . S
H84 C46 0.929 . S
H85 C48 0.930 . S
H86 C54 0.929 1_556 S
H87 C55 0.930 . S
Li88 N105 1.990 . S
Li88 O148 1.956 . S
Li88 O149 1.970 . S
Li88 O150 1.961 . S
Li89 N113 1.990 . S
Li89 O148 1.970 . S
Li89 O149 1.956 . S
Li89 O151 1.961 . S
Li90 N135 1.990 . S
Li90 O148 1.961 . S
Li90 O150 1.956 . S
Li90 O151 1.970 . S
Li91 N141 1.990 . S
Li91 O149 1.961 . S
Li91 O150 1.970 . S
Li91 O151 1.956 . S
C92 C94 1.348 . S
C92 C95 1.356 . S
C92 O148 1.325 . S
N93 C96 1.314 . S
N93 C97 1.279 . S
C94 C92 1.348 . S
C94 C96 1.353 . S
C94 H152 0.929 . S
C95 C92 1.356 . S
C95 C97 1.358 . S
C95 H153 0.930 . S
C96 N93 1.314 . S
C96 C94 1.353 . S
C96 H154 0.930 . S
C97 N93 1.279 . S
C97 C95 1.358 . S
C97 H155 0.930 . S
C98 C101 1.348 . S
C98 C102 1.356 . S
C98 O149 1.325 . S
C99 N100 1.279 . S
C99 C102 1.358 . S
C99 H156 0.930 . S
N100 C99 1.279 . S
N100 C103 1.314 . S
C101 C98 1.348 . S
C101 C103 1.353 . S
C101 H157 0.929 . S
C102 C98 1.356 . S
C102 C99 1.358 . S
C102 H158 0.930 . S
C103 N100 1.314 . S
C103 C101 1.353 . S
C103 H159 0.930 . S
C104 N105 1.314 . S
C104 C109 1.353 . S
C104 H110 0.930 . S
N105 Li88 1.990 . S
N105 C104 1.314 . S
N105 C107 1.279 . S
C106 C107 1.358 . S
C106 C108 1.356 . S
C106 H160 0.930 . S
C107 N105 1.279 . S
C107 C106 1.358 . S
C107 H111 0.930 . S
C108 C106 1.356 . S
C108 C109 1.348 . S
C109 C104 1.353 . S
C109 C108 1.348 . S
C109 H161 0.929 . S
H110 C104 0.930 . S
H111 C107 0.930 . S
C112 N113 1.314 . S
C112 C114 1.353 . S
C112 H118 0.930 . S
N113 Li89 1.990 . S
N113 C112 1.314 . S
N113 C116 1.279 . S
C114 C112 1.353 . S
C114 C117 1.348 . S
C114 H162 0.929 . S
C115 C116 1.358 . S
C115 C117 1.356 . S
C115 H163 0.930 . S
C116 N113 1.279 . S
C116 C115 1.358 . S
C116 H119 0.930 . S
C117 C114 1.348 . S
C117 C115 1.356 . S
H118 C112 0.930 . S
H119 C116 0.930 . S
C120 C122 1.348 . S
C120 C123 1.356 . S
C120 O150 1.325 . S
N121 C124 1.314 . S
N121 C125 1.279 . S
C122 C120 1.348 . S
C122 C124 1.353 . S
C122 H164 0.929 . S
C123 C120 1.356 . S
C123 C125 1.358 . S
C123 H165 0.930 . S
C124 N121 1.314 . S
C124 C122 1.353 . S
C124 H166 0.930 . S
C125 N121 1.279 . S
C125 C123 1.358 . S
C125 H167 0.930 . S
C126 C127 1.348 . S
C126 C128 1.356 . S
C126 O151 1.325 . S
C127 C126 1.348 . S
C127 C129 1.353 . S
C127 H168 0.929 . S
C128 C126 1.356 . S
C128 C130 1.358 . S
C128 H169 0.930 . S
C129 C127 1.353 . S
C129 N131 1.314 . S
C129 H170 0.930 . S
C130 C128 1.358 . S
C130 N131 1.279 . S
C130 H171 0.930 . S
N131 C129 1.314 . S
N131 C130 1.279 . S
C132 C134 1.353 . S
C132 N135 1.314 . S
C132 H138 0.930 . S
C133 N135 1.279 . S
C133 C136 1.358 . S
C133 H139 0.930 . S
C134 C132 1.353 . S
C134 C137 1.348 . S
C134 H172 0.929 1_554 S
N135 Li90 1.990 . S
N135 C132 1.314 . S
N135 C133 1.279 . S
C136 C133 1.358 . S
C136 C137 1.356 . S
C136 H173 0.930 . S
C137 C134 1.348 . S
C137 C136 1.356 . S
H138 C132 0.930 . S
H139 C133 0.930 . S
C140 N141 1.314 . S
C140 C142 1.353 . S
C140 H146 0.930 . S
N141 Li91 1.990 . S
N141 C140 1.314 . S
N141 C144 1.279 . S
C142 C140 1.353 . S
C142 C145 1.348 . S
C142 H174 0.929 . S
C143 C144 1.358 . S
C143 C145 1.356 . S
C143 H175 0.930 . S
C144 N141 1.279 . S
C144 C143 1.358 . S
C144 H147 0.930 . S
C145 C142 1.348 . S
C145 C143 1.356 . S
H146 C140 0.930 . S
H147 C144 0.930 . S
O148 Li88 1.956 . S
O148 Li89 1.970 . S
O148 Li90 1.961 . S
O148 C92 1.325 . S
O149 Li88 1.970 . S
O149 Li89 1.956 . S
O149 Li91 1.961 . S
O149 C98 1.325 . S
O150 Li88 1.961 . S
O150 Li90 1.956 . S
O150 Li91 1.970 . S
O150 C120 1.325 . S
O151 Li89 1.961 . S
O151 Li90 1.970 . S
O151 Li91 1.956 . S
O151 C126 1.325 . S
H152 C94 0.929 . S
H153 C95 0.930 . S
H154 C96 0.930 . S
H155 C97 0.930 . S
H156 C99 0.930 . S
H157 C101 0.929 . S
H158 C102 0.930 . S
H159 C103 0.930 . S
H160 C106 0.930 . S
H161 C109 0.929 . S
H162 C114 0.929 . S
H163 C115 0.930 . S
H164 C122 0.929 . S
H165 C123 0.930 . S
H166 C124 0.930 . S
H167 C125 0.930 . S
H168 C127 0.929 . S
H169 C128 0.930 . S
H170 C129 0.930 . S
H171 C130 0.930 . S
H172 C134 0.929 1_556 S
H173 C136 0.930 . S
H174 C142 0.929 . S
H175 C143 0.930 . S
Li176 N193 1.990 . S
Li176 O236 1.956 . S
Li176 O237 1.970 . S
Li176 O238 1.961 . S
Li177 N201 1.990 . S
Li177 O236 1.970 . S
Li177 O237 1.956 . S
Li177 O239 1.961 . S
Li178 N223 1.990 . S
Li178 O236 1.961 . S
Li178 O238 1.956 . S
Li178 O239 1.970 . S
Li179 N229 1.990 . S
Li179 O237 1.961 . S
Li179 O238 1.970 . S
Li179 O239 1.956 . S
C180 C182 1.348 . S
C180 C183 1.356 . S
C180 O236 1.325 . S
N181 C184 1.314 . S
N181 C185 1.279 . S
C182 C180 1.348 . S
C182 C184 1.353 . S
C182 H240 0.929 . S
C183 C180 1.356 . S
C183 C185 1.358 . S
C183 H241 0.930 . S
C184 N181 1.314 . S
C184 C182 1.353 . S
C184 H242 0.930 . S
C185 N181 1.279 . S
C185 C183 1.358 . S
C185 H243 0.930 . S
C186 C189 1.348 . S
C186 C190 1.356 . S
C186 O237 1.325 . S
C187 N188 1.279 . S
C187 C190 1.358 . S
C187 H244 0.930 . S
N188 C187 1.279 . S
N188 C191 1.314 . S
C189 C186 1.348 . S
C189 C191 1.353 . S
C189 H245 0.929 . S
C190 C186 1.356 . S
C190 C187 1.358 . S
C190 H246 0.930 . S
C191 N188 1.314 . S
C191 C189 1.353 . S
C191 H247 0.930 . S
C192 N193 1.314 . S
C192 C197 1.353 . S
C192 H198 0.930 . S
N193 Li176 1.990 . S
N193 C192 1.314 . S
N193 C195 1.279 . S
C194 C195 1.358 . S
C194 C196 1.356 . S
C194 H248 0.930 . S
C195 N193 1.279 . S
C195 C194 1.358 . S
C195 H199 0.930 . S
C196 C194 1.356 . S
C196 C197 1.348 . S
C197 C192 1.353 . S
C197 C196 1.348 . S
C197 H249 0.929 1_554 S
H198 C192 0.930 . S
H199 C195 0.930 . S
C200 N201 1.314 . S
C200 C202 1.353 . S
C200 H206 0.930 . S
N201 Li177 1.990 . S
N201 C200 1.314 . S
N201 C204 1.279 . S
C202 C200 1.353 . S
C202 C205 1.348 . S
C202 H250 0.929 . S
C203 C204 1.358 . S
C203 C205 1.356 . S
C203 H251 0.930 . S
C204 N201 1.279 . S
C204 C203 1.358 . S
C204 H207 0.930 . S
C205 C202 1.348 . S
C205 C203 1.356 . S
H206 C200 0.930 . S
H207 C204 0.930 . S
C208 C210 1.348 . S
C208 C211 1.356 . S
C208 O238 1.325 . S
N209 C212 1.314 . S
N209 C213 1.279 . S
C210 C208 1.348 . S
C210 C212 1.353 . S
C210 H252 0.929 . S
C211 C208 1.356 . S
C211 C213 1.358 . S
C211 H253 0.930 . S
C212 N209 1.314 . S
C212 C210 1.353 . S
C212 H254 0.930 . S
C213 N209 1.279 . S
C213 C211 1.358 . S
C213 H255 0.930 . S
C214 C215 1.348 . S
C214 C216 1.356 . S
C214 O239 1.325 . S
C215 C214 1.348 . S
C215 C217 1.353 . S
C215 H256 0.929 . S
C216 C214 1.356 . S
C216 C218 1.358 . S
C216 H257 0.930 . S
C217 C215 1.353 . S
C217 N219 1.314 . S
C217 H258 0.930 . S
C218 C216 1.358 . S
C218 N219 1.279 . S
C218 H259 0.930 . S
N219 C217 1.314 . S
N219 C218 1.279 . S
C220 C222 1.353 . S
C220 N223 1.314 . S
C220 H226 0.930 . S
C221 N223 1.279 . S
C221 C224 1.358 . S
C221 H227 0.930 . S
C222 C220 1.353 . S
C222 C225 1.348 . S
C222 H260 0.929 . S
N223 Li178 1.990 . S
N223 C220 1.314 . S
N223 C221 1.279 . S
C224 C221 1.358 . S
C224 C225 1.356 . S
C224 H261 0.930 . S
C225 C222 1.348 . S
C225 C224 1.356 . S
H226 C220 0.930 . S
H227 C221 0.930 . S
C228 N229 1.314 . S
C228 C230 1.353 . S
C228 H234 0.930 . S
N229 Li179 1.990 . S
N229 C228 1.314 . S
N229 C232 1.279 . S
C230 C228 1.353 . S
C230 C233 1.348 . S
C230 H262 0.929 . S
C231 C232 1.358 . S
C231 C233 1.356 . S
C231 H263 0.930 . S
C232 N229 1.279 . S
C232 C231 1.358 . S
C232 H235 0.930 . S
C233 C230 1.348 . S
C233 C231 1.356 . S
H234 C228 0.930 . S
H235 C232 0.930 . S
O236 Li176 1.956 . S
O236 Li177 1.970 . S
O236 Li178 1.961 . S
O236 C180 1.325 . S
O237 Li176 1.970 . S
O237 Li177 1.956 . S
O237 Li179 1.961 . S
O237 C186 1.325 . S
O238 Li176 1.961 . S
O238 Li178 1.956 . S
O238 Li179 1.970 . S
O238 C208 1.325 . S
O239 Li177 1.961 . S
O239 Li178 1.970 . S
O239 Li179 1.956 . S
O239 C214 1.325 . S
H240 C182 0.929 . S
H241 C183 0.930 . S
H242 C184 0.930 . S
H243 C185 0.930 . S
H244 C187 0.930 . S
H245 C189 0.929 . S
H246 C190 0.930 . S
H247 C191 0.930 . S
H248 C194 0.930 . S
H249 C197 0.929 1_556 S
H250 C202 0.929 . S
H251 C203 0.930 . S
H252 C210 0.929 . S
H253 C211 0.930 . S
H254 C212 0.930 . S
H255 C213 0.930 . S
H256 C215 0.929 . S
H257 C216 0.930 . S
H258 C217 0.930 . S
H259 C218 0.930 . S
H260 C222 0.929 . S
H261 C224 0.930 . S
H262 C230 0.929 . S
H263 C231 0.930 . S
Li264 N281 1.990 . S
Li264 O324 1.956 . S
Li264 O325 1.970 . S
Li264 O326 1.961 . S
Li265 N289 1.990 . S
Li265 O324 1.970 . S
Li265 O325 1.956 . S
Li265 O327 1.961 . S
Li266 N311 1.990 . S
Li266 O324 1.961 . S
Li266 O326 1.956 . S
Li266 O327 1.970 . S
Li267 N317 1.990 . S
Li267 O325 1.961 . S
Li267 O326 1.970 . S
Li267 O327 1.956 . S
C268 C270 1.348 . S
C268 C271 1.356 . S
C268 O324 1.325 . S
N269 C272 1.314 . S
N269 C273 1.279 . S
C270 C268 1.348 . S
C270 C272 1.353 . S
C270 H328 0.929 . S
C271 C268 1.356 . S
C271 C273 1.358 . S
C271 H329 0.930 . S
C272 N269 1.314 . S
C272 C270 1.353 . S
C272 H330 0.930 . S
C273 N269 1.279 . S
C273 C271 1.358 . S
C273 H331 0.930 . S
C274 C277 1.348 . S
C274 C278 1.356 . S
C274 O325 1.325 . S
C275 N276 1.279 . S
C275 C278 1.358 . S
C275 H332 0.930 . S
N276 C275 1.279 . S
N276 C279 1.314 . S
C277 C274 1.348 . S
C277 C279 1.353 . S
C277 H333 0.929 . S
C278 C274 1.356 . S
C278 C275 1.358 . S
C278 H334 0.930 . S
C279 N276 1.314 . S
C279 C277 1.353 . S
C279 H335 0.930 . S
C280 N281 1.314 . S
C280 C285 1.353 . S
C280 H286 0.930 . S
N281 Li264 1.990 . S
N281 C280 1.314 . S
N281 C283 1.279 . S
C282 C283 1.358 . S
C282 C284 1.356 . S
C282 H336 0.930 . S
C283 N281 1.279 . S
C283 C282 1.358 . S
C283 H287 0.930 . S
C284 C282 1.356 . S
C284 C285 1.348 . S
C285 C280 1.353 . S
C285 C284 1.348 . S
C285 H337 0.929 . S
H286 C280 0.930 . S
H287 C283 0.930 . S
C288 N289 1.314 . S
C288 C290 1.353 . S
C288 H294 0.930 . S
N289 Li265 1.990 . S
N289 C288 1.314 . S
N289 C292 1.279 . S
C290 C288 1.353 . S
C290 C293 1.348 . S
C290 H338 0.929 . S
C291 C292 1.358 . S
C291 C293 1.356 . S
C291 H339 0.930 . S
C292 N289 1.279 . S
C292 C291 1.358 . S
C292 H295 0.930 . S
C293 C290 1.348 . S
C293 C291 1.356 . S
H294 C288 0.930 . S
H295 C292 0.930 . S
C296 C298 1.348 . S
C296 C299 1.356 . S
C296 O326 1.325 . S
N297 C300 1.314 . S
N297 C301 1.279 . S
C298 C296 1.348 . S
C298 C300 1.353 . S
C298 H340 0.929 . S
C299 C296 1.356 . S
C299 C301 1.358 . S
C299 H341 0.930 . S
C300 N297 1.314 . S
C300 C298 1.353 . S
C300 H342 0.930 . S
C301 N297 1.279 . S
C301 C299 1.358 . S
C301 H343 0.930 . S
C302 C303 1.348 . S
C302 C304 1.356 . S
C302 O327 1.325 . S
C303 C302 1.348 . S
C303 C305 1.353 . S
C303 H344 0.929 . S
C304 C302 1.356 . S
C304 C306 1.358 . S
C304 H345 0.930 . S
C305 C303 1.353 . S
C305 N307 1.314 . S
C305 H346 0.930 . S
C306 C304 1.358 . S
C306 N307 1.279 . S
C306 H347 0.930 . S
N307 C305 1.314 . S
N307 C306 1.279 . S
C308 C310 1.353 . S
C308 N311 1.314 . S
C308 H314 0.930 . S
C309 N311 1.279 . S
C309 C312 1.358 . S
C309 H315 0.930 . S
C310 C308 1.353 . S
C310 C313 1.348 . S
C310 H348 0.929 . S
N311 Li266 1.990 . S
N311 C308 1.314 . S
N311 C309 1.279 . S
C312 C309 1.358 . S
C312 C313 1.356 . S
C312 H349 0.930 . S
C313 C310 1.348 . S
C313 C312 1.356 . S
H314 C308 0.930 . S
H315 C309 0.930 . S
C316 N317 1.314 . S
C316 C318 1.353 . S
C316 H322 0.930 . S
N317 Li267 1.990 . S
N317 C316 1.314 . S
N317 C320 1.279 . S
C318 C316 1.353 . S
C318 C321 1.348 . S
C318 H350 0.929 . S
C319 C320 1.358 . S
C319 C321 1.356 . S
C319 H351 0.930 . S
C320 N317 1.279 . S
C320 C319 1.358 . S
C320 H323 0.930 . S
C321 C318 1.348 . S
C321 C319 1.356 . S
H322 C316 0.930 . S
H323 C320 0.930 . S
O324 Li264 1.956 . S
O324 Li265 1.970 . S
O324 Li266 1.961 . S
O324 C268 1.325 . S
O325 Li264 1.970 . S
O325 Li265 1.956 . S
O325 Li267 1.961 . S
O325 C274 1.325 . S
O326 Li264 1.961 . S
O326 Li266 1.956 . S
O326 Li267 1.970 . S
O326 C296 1.325 . S
O327 Li265 1.961 . S
O327 Li266 1.970 . S
O327 Li267 1.956 . S
O327 C302 1.325 . S
H328 C270 0.929 . S
H329 C271 0.930 . S
H330 C272 0.930 . S
H331 C273 0.930 . S
H332 C275 0.930 . S
H333 C277 0.929 . S
H334 C278 0.930 . S
H335 C279 0.930 . S
H336 C282 0.930 . S
H337 C285 0.929 . S
H338 C290 0.929 . S
H339 C291 0.930 . S
H340 C298 0.929 . S
H341 C299 0.930 . S
H342 C300 0.930 . S
H343 C301 0.930 . S
H344 C303 0.929 . S
H345 C304 0.930 . S
H346 C305 0.930 . S
H347 C306 0.930 . S
H348 C310 0.929 . S
H349 C312 0.930 . S
H350 C318 0.929 . S
H351 C319 0.930 . S
Li352 N369 1.990 . S
Li352 O412 1.956 . S
Li352 O413 1.970 . S
Li352 O414 1.961 . S
Li353 N377 1.990 . S
Li353 O412 1.970 . S
Li353 O413 1.956 . S
Li353 O415 1.961 . S
Li354 N399 1.990 . S
Li354 O412 1.961 . S
Li354 O414 1.956 . S
Li354 O415 1.970 . S
Li355 N405 1.990 . S
Li355 O413 1.961 . S
Li355 O414 1.970 . S
Li355 O415 1.956 . S
C356 C358 1.348 . S
C356 C359 1.356 . S
C356 O412 1.325 . S
N357 C360 1.314 . S
N357 C361 1.279 . S
C358 C356 1.348 . S
C358 C360 1.353 . S
C358 H416 0.929 . S
C359 C356 1.356 . S
C359 C361 1.358 . S
C359 H417 0.930 . S
C360 N357 1.314 . S
C360 C358 1.353 . S
C360 H418 0.930 . S
C361 N357 1.279 . S
C361 C359 1.358 . S
C361 H419 0.930 . S
C362 C365 1.348 . S
C362 C366 1.356 . S
C362 O413 1.325 . S
C363 N364 1.279 . S
C363 C366 1.358 . S
C363 H420 0.930 . S
N364 C363 1.279 . S
N364 C367 1.314 . S
C365 C362 1.348 . S
C365 C367 1.353 . S
C365 H421 0.929 . S
C366 C362 1.356 . S
C366 C363 1.358 . S
C366 H422 0.930 . S
C367 N364 1.314 . S
C367 C365 1.353 . S
C367 H423 0.930 . S
C368 N369 1.314 . S
C368 C373 1.353 . S
C368 H374 0.930 . S
N369 Li352 1.990 . S
N369 C368 1.314 . S
N369 C371 1.279 . S
C370 C371 1.358 . S
C370 C372 1.356 . S
C370 H424 0.930 . S
C371 N369 1.279 . S
C371 C370 1.358 . S
C371 H375 0.930 . S
C372 C370 1.356 . S
C372 C373 1.348 . S
C373 C368 1.353 . S
C373 C372 1.348 . S
C373 H425 0.929 . S
H374 C368 0.930 . S
H375 C371 0.930 . S
C376 N377 1.314 . S
C376 C378 1.353 . S
C376 H382 0.930 . S
N377 Li353 1.990 . S
N377 C376 1.314 . S
N377 C380 1.279 . S
C378 C376 1.353 . S
C378 C381 1.348 . S
C378 H426 0.929 . S
C379 C380 1.358 . S
C379 C381 1.356 . S
C379 H427 0.930 . S
C380 N377 1.279 . S
C380 C379 1.358 . S
C380 H383 0.930 . S
C381 C378 1.348 . S
C381 C379 1.356 . S
H382 C376 0.930 . S
H383 C380 0.930 . S
C384 C386 1.348 . S
C384 C387 1.356 . S
C384 O414 1.325 . S
N385 C388 1.314 . S
N385 C389 1.279 . S
C386 C384 1.348 . S
C386 C388 1.353 . S
C386 H428 0.929 . S
C387 C384 1.356 . S
C387 C389 1.358 . S
C387 H429 0.930 . S
C388 N385 1.314 . S
C388 C386 1.353 . S
C388 H430 0.930 . S
C389 N385 1.279 . S
C389 C387 1.358 . S
C389 H431 0.930 . S
C390 C391 1.348 . S
C390 C392 1.356 . S
C390 O415 1.325 . S
C391 C390 1.348 . S
C391 C393 1.353 . S
C391 H432 0.929 . S
C392 C390 1.356 . S
C392 C394 1.358 . S
C392 H433 0.930 . S
C393 C391 1.353 . S
C393 N395 1.314 . S
C393 H434 0.930 . S
C394 C392 1.358 . S
C394 N395 1.279 . S
C394 H435 0.930 . S
N395 C393 1.314 . S
N395 C394 1.279 . S
C396 C398 1.353 . S
C396 N399 1.314 . S
C396 H402 0.930 . S
C397 N399 1.279 . S
C397 C400 1.358 . S
C397 H403 0.930 . S
C398 C396 1.353 . S
C398 C401 1.348 . S
C398 H436 0.929 . S
N399 Li354 1.990 . S
N399 C396 1.314 . S
N399 C397 1.279 . S
C400 C397 1.358 . S
C400 C401 1.356 . S
C400 H437 0.930 . S
C401 C398 1.348 . S
C401 C400 1.356 . S
H402 C396 0.930 . S
H403 C397 0.930 . S
C404 N405 1.314 . S
C404 C406 1.353 . S
C404 H410 0.930 . S
N405 Li355 1.990 . S
N405 C404 1.314 . S
N405 C408 1.279 . S
C406 C404 1.353 . S
C406 C409 1.348 . S
C406 H438 0.929 . S
C407 C408 1.358 . S
C407 C409 1.356 . S
C407 H439 0.930 . S
C408 N405 1.279 . S
C408 C407 1.358 . S
C408 H411 0.930 . S
C409 C406 1.348 . S
C409 C407 1.356 . S
H410 C404 0.930 . S
H411 C408 0.930 . S
O412 Li352 1.956 . S
O412 Li353 1.970 . S
O412 Li354 1.961 . S
O412 C356 1.325 . S
O413 Li352 1.970 . S
O413 Li353 1.956 . S
O413 Li355 1.961 . S
O413 C362 1.325 . S
O414 Li352 1.961 . S
O414 Li354 1.956 . S
O414 Li355 1.970 . S
O414 C384 1.325 . S
O415 Li353 1.961 . S
O415 Li354 1.970 . S
O415 Li355 1.956 . S
O415 C390 1.325 . S
H416 C358 0.929 . S
H417 C359 0.930 . S
H418 C360 0.930 . S
H419 C361 0.930 . S
H420 C363 0.930 . S
H421 C365 0.929 . S
H422 C366 0.930 . S
H423 C367 0.930 . S
H424 C370 0.930 . S
H425 C373 0.929 . S
H426 C378 0.929 . S
H427 C379 0.930 . S
H428 C386 0.929 . S
H429 C387 0.930 . S
H430 C388 0.930 . S
H431 C389 0.930 . S
H432 C391 0.929 . S
H433 C392 0.930 . S
H434 C393 0.930 . S
H435 C394 0.930 . S
H436 C398 0.929 . S
H437 C400 0.930 . S
H438 C406 0.929 . S
H439 C407 0.930 . S
Li440 N457 1.990 . S
Li440 O500 1.956 . S
Li440 O501 1.970 . S
Li440 O502 1.961 . S
Li441 N465 1.990 . S
Li441 O500 1.970 . S
Li441 O501 1.956 . S
Li441 O503 1.961 . S
Li442 N487 1.990 . S
Li442 O500 1.961 . S
Li442 O502 1.956 . S
Li442 O503 1.970 . S
Li443 N493 1.990 . S
Li443 O501 1.961 . S
Li443 O502 1.970 . S
Li443 O503 1.956 . S
C444 C446 1.348 . S
C444 C447 1.356 . S
C444 O500 1.325 . S
N445 C448 1.314 . S
N445 C449 1.279 . S
C446 C444 1.348 . S
C446 C448 1.353 . S
C446 H504 0.929 . S
C447 C444 1.356 . S
C447 C449 1.358 . S
C447 H505 0.930 . S
C448 N445 1.314 . S
C448 C446 1.353 . S
C448 H506 0.930 . S
C449 N445 1.279 . S
C449 C447 1.358 . S
C449 H507 0.930 . S
C450 C453 1.348 . S
C450 C454 1.356 . S
C450 O501 1.325 . S
C451 N452 1.279 . S
C451 C454 1.358 . S
C451 H508 0.930 . S
N452 C451 1.279 . S
N452 C455 1.314 . S
C453 C450 1.348 . S
C453 C455 1.353 . S
C453 H509 0.929 . S
C454 C450 1.356 . S
C454 C451 1.358 . S
C454 H510 0.930 . S
C455 N452 1.314 . S
C455 C453 1.353 . S
C455 H511 0.930 . S
C456 N457 1.314 . S
C456 C461 1.353 . S
C456 H462 0.930 . S
N457 Li440 1.990 . S
N457 C456 1.314 . S
N457 C459 1.279 . S
C458 C459 1.358 . S
C458 C460 1.356 . S
C458 H512 0.930 . S
C459 N457 1.279 . S
C459 C458 1.358 . S
C459 H463 0.930 . S
C460 C458 1.356 . S
C460 C461 1.348 . S
C461 C456 1.353 . S
C461 C460 1.348 . S
C461 H513 0.929 . S
H462 C456 0.930 . S
H463 C459 0.930 . S
C464 N465 1.314 . S
C464 C466 1.353 . S
C464 H470 0.930 . S
N465 Li441 1.990 . S
N465 C464 1.314 . S
N465 C468 1.279 . S
C466 C464 1.353 . S
C466 C469 1.348 . S
C466 H514 0.929 . S
C467 C468 1.358 . S
C467 C469 1.356 . S
C467 H515 0.930 . S
C468 N465 1.279 . S
C468 C467 1.358 . S
C468 H471 0.930 . S
C469 C466 1.348 . S
C469 C467 1.356 . S
H470 C464 0.930 . S
H471 C468 0.930 . S
C472 C474 1.348 . S
C472 C475 1.356 . S
C472 O502 1.325 . S
N473 C476 1.314 . S
N473 C477 1.279 . S
C474 C472 1.348 . S
C474 C476 1.353 . S
C474 H516 0.929 . S
C475 C472 1.356 . S
C475 C477 1.358 . S
C475 H517 0.930 . S
C476 N473 1.314 . S
C476 C474 1.353 . S
C476 H518 0.930 . S
C477 N473 1.279 . S
C477 C475 1.358 . S
C477 H519 0.930 . S
C478 C479 1.348 . S
C478 C480 1.356 . S
C478 O503 1.325 . S
C479 C478 1.348 . S
C479 C481 1.353 . S
C479 H520 0.929 . S
C480 C478 1.356 . S
C480 C482 1.358 . S
C480 H521 0.930 . S
C481 C479 1.353 . S
C481 N483 1.314 . S
C481 H522 0.930 . S
C482 C480 1.358 . S
C482 N483 1.279 . S
C482 H523 0.930 . S
N483 C481 1.314 . S
N483 C482 1.279 . S
C484 C486 1.353 . S
C484 N487 1.314 . S
C484 H490 0.930 . S
C485 N487 1.279 . S
C485 C488 1.358 . S
C485 H491 0.930 . S
C486 C484 1.353 . S
C486 C489 1.348 . S
C486 H524 0.929 . S
N487 Li442 1.990 . S
N487 C484 1.314 . S
N487 C485 1.279 . S
C488 C485 1.358 . S
C488 C489 1.356 . S
C488 H525 0.930 . S
C489 C486 1.348 . S
C489 C488 1.356 . S
H490 C484 0.930 . S
H491 C485 0.930 . S
C492 N493 1.314 . S
C492 C494 1.353 . S
C492 H498 0.930 . S
N493 Li443 1.990 . S
N493 C492 1.314 . S
N493 C496 1.279 . S
C494 C492 1.353 . S
C494 C497 1.348 . S
C494 H526 0.929 . S
C495 C496 1.358 . S
C495 C497 1.356 . S
C495 H527 0.930 . S
C496 N493 1.279 . S
C496 C495 1.358 . S
C496 H499 0.930 . S
C497 C494 1.348 . S
C497 C495 1.356 . S
H498 C492 0.930 . S
H499 C496 0.930 . S
O500 Li440 1.956 . S
O500 Li441 1.970 . S
O500 Li442 1.961 . S
O500 C444 1.325 . S
O501 Li440 1.970 . S
O501 Li441 1.956 . S
O501 Li443 1.961 . S
O501 C450 1.325 . S
O502 Li440 1.961 . S
O502 Li442 1.956 . S
O502 Li443 1.970 . S
O502 C472 1.325 . S
O503 Li441 1.961 . S
O503 Li442 1.970 . S
O503 Li443 1.956 . S
O503 C478 1.325 . S
H504 C446 0.929 . S
H505 C447 0.930 . S
H506 C448 0.930 . S
H507 C449 0.930 . S
H508 C451 0.930 . S
H509 C453 0.929 . S
H510 C454 0.930 . S
H511 C455 0.930 . S
H512 C458 0.930 . S
H513 C461 0.929 . S
H514 C466 0.929 . S
H515 C467 0.930 . S
H516 C474 0.929 . S
H517 C475 0.930 . S
H518 C476 0.930 . S
H519 C477 0.930 . S
H520 C479 0.929 . S
H521 C480 0.930 . S
H522 C481 0.930 . S
H523 C482 0.930 . S
H524 C486 0.929 . S
H525 C488 0.930 . S
H526 C494 0.929 . S
H527 C495 0.930 . S
Li528 N545 1.990 . S
Li528 O588 1.956 . S
Li528 O589 1.970 . S
Li528 O590 1.961 . S
Li529 N553 1.990 . S
Li529 O588 1.970 . S
Li529 O589 1.956 . S
Li529 O591 1.961 . S
Li530 N575 1.990 . S
Li530 O588 1.961 . S
Li530 O590 1.956 . S
Li530 O591 1.970 . S
Li531 N581 1.990 . S
Li531 O589 1.961 . S
Li531 O590 1.970 . S
Li531 O591 1.956 . S
C532 C534 1.348 . S
C532 C535 1.356 . S
C532 O588 1.325 . S
N533 C536 1.314 . S
N533 C537 1.279 . S
C534 C532 1.348 . S
C534 C536 1.353 . S
C534 H592 0.929 . S
C535 C532 1.356 . S
C535 C537 1.358 . S
C535 H593 0.930 . S
C536 N533 1.314 . S
C536 C534 1.353 . S
C536 H594 0.930 . S
C537 N533 1.279 . S
C537 C535 1.358 . S
C537 H595 0.930 . S
C538 C541 1.348 . S
C538 C542 1.356 . S
C538 O589 1.325 . S
C539 N540 1.279 . S
C539 C542 1.358 . S
C539 H596 0.930 . S
N540 C539 1.279 . S
N540 C543 1.314 . S
C541 C538 1.348 . S
C541 C543 1.353 . S
C541 H597 0.929 . S
C542 C538 1.356 . S
C542 C539 1.358 . S
C542 H598 0.930 . S
C543 N540 1.314 . S
C543 C541 1.353 . S
C543 H599 0.925 1_556 S
C544 N545 1.314 . S
C544 C549 1.353 . S
C544 H550 0.930 . S
N545 Li528 1.990 . S
N545 C544 1.314 . S
N545 C547 1.279 . S
C546 C547 1.358 . S
C546 C548 1.356 . S
C546 H600 0.930 . S
C547 N545 1.279 . S
C547 C546 1.358 . S
C547 H551 0.930 . S
C548 C546 1.356 . S
C548 C549 1.348 . S
C549 C544 1.353 . S
C549 C548 1.348 . S
C549 H601 0.929 . S
H550 C544 0.930 . S
H551 C547 0.930 . S
C552 N553 1.314 . S
C552 C554 1.353 . S
C552 H558 0.930 . S
N553 Li529 1.990 . S
N553 C552 1.314 . S
N553 C556 1.279 . S
C554 C552 1.353 . S
C554 C557 1.348 . S
C554 H602 0.929 . S
C555 C556 1.358 . S
C555 C557 1.356 . S
C555 H603 0.930 1_556 S
C556 N553 1.279 . S
C556 C555 1.358 . S
C556 H559 0.930 . S
C557 C554 1.348 . S
C557 C555 1.356 . S
H558 C552 0.930 . S
H559 C556 0.930 . S
C560 C562 1.348 . S
C560 C563 1.356 . S
C560 O590 1.325 . S
N561 C564 1.314 . S
N561 C565 1.279 . S
C562 C560 1.348 . S
C562 C564 1.353 . S
C562 H604 0.929 . S
C563 C560 1.356 . S
C563 C565 1.358 . S
C563 H605 0.930 . S
C564 N561 1.314 . S
C564 C562 1.353 . S
C564 H606 0.930 . S
C565 N561 1.279 . S
C565 C563 1.358 . S
C565 H607 0.930 . S
C566 C567 1.348 . S
C566 C568 1.356 . S
C566 O591 1.325 . S
C567 C566 1.348 . S
C567 C569 1.353 . S
C567 H608 0.929 . S
C568 C566 1.356 . S
C568 C570 1.358 . S
C568 H609 0.930 . S
C569 C567 1.353 . S
C569 N571 1.314 . S
C569 H610 0.930 . S
C570 C568 1.358 . S
C570 N571 1.279 . S
C570 H611 0.930 . S
N571 C569 1.314 . S
N571 C570 1.279 . S
C572 C574 1.353 . S
C572 N575 1.314 . S
C572 H578 0.930 . S
C573 N575 1.279 . S
C573 C576 1.358 . S
C573 H579 0.930 . S
C574 C572 1.353 . S
C574 C577 1.348 . S
C574 H612 0.929 . S
N575 Li530 1.990 . S
N575 C572 1.314 . S
N575 C573 1.279 . S
C576 C573 1.358 . S
C576 C577 1.356 . S
C576 H613 0.930 . S
C577 C574 1.348 . S
C577 C576 1.356 . S
H578 C572 0.930 . S
H579 C573 0.930 . S
C580 N581 1.314 . S
C580 C582 1.353 . S
C580 H586 0.930 . S
N581 Li531 1.990 . S
N581 C580 1.314 . S
N581 C584 1.279 . S
C582 C580 1.353 . S
C582 C585 1.348 . S
C582 H614 0.929 . S
C583 C584 1.358 . S
C583 C585 1.356 . S
C583 H615 0.930 . S
C584 N581 1.279 . S
C584 C583 1.358 . S
C584 H587 0.930 . S
C585 C582 1.348 . S
C585 C583 1.356 . S
H586 C580 0.930 . S
H587 C584 0.930 . S
O588 Li528 1.956 . S
O588 Li529 1.970 . S
O588 Li530 1.961 . S
O588 C532 1.325 . S
O589 Li528 1.970 . S
O589 Li529 1.956 . S
O589 Li531 1.961 . S
O589 C538 1.325 . S
O590 Li528 1.961 . S
O590 Li530 1.956 . S
O590 Li531 1.970 . S
O590 C560 1.325 . S
O591 Li529 1.961 . S
O591 Li530 1.970 . S
O591 Li531 1.956 . S
O591 C566 1.325 . S
H592 C534 0.929 . S
H593 C535 0.930 . S
H594 C536 0.930 . S
H595 C537 0.930 . S
H596 C539 0.930 . S
H597 C541 0.929 . S
H598 C542 0.930 . S
H599 C543 0.925 1_554 S
H600 C546 0.930 . S
H601 C549 0.929 . S
H602 C554 0.929 . S
H603 C555 0.930 1_554 S
H604 C562 0.929 . S
H605 C563 0.930 . S
H606 C564 0.930 . S
H607 C565 0.930 . S
H608 C567 0.929 . S
H609 C568 0.930 . S
H610 C569 0.930 . S
H611 C570 0.930 . S
H612 C574 0.929 . S
H613 C576 0.930 . S
H614 C582 0.929 . S
H615 C583 0.930 . S
Li616 N633 1.990 . S
Li616 O676 1.956 . S
Li616 O677 1.970 . S
Li616 O678 1.961 . S
Li617 N641 1.990 . S
Li617 O676 1.970 . S
Li617 O677 1.956 . S
Li617 O679 1.961 . S
Li618 N663 1.990 . S
Li618 O676 1.961 . S
Li618 O678 1.956 . S
Li618 O679 1.970 . S
Li619 N669 1.990 . S
Li619 O677 1.961 . S
Li619 O678 1.970 . S
Li619 O679 1.956 . S
C620 C622 1.348 . S
C620 C623 1.356 . S
C620 O676 1.325 . S
N621 C624 1.314 . S
N621 C625 1.279 . S
C622 C620 1.348 . S
C622 C624 1.353 . S
C622 H680 0.929 . S
C623 C620 1.356 . S
C623 C625 1.358 . S
C623 H681 0.930 . S
C624 N621 1.314 . S
C624 C622 1.353 . S
C624 H682 0.930 . S
C625 N621 1.279 . S
C625 C623 1.358 . S
C625 H683 0.930 . S
C626 C629 1.348 . S
C626 C630 1.356 . S
C626 O677 1.325 . S
C627 N628 1.279 . S
C627 C630 1.358 . S
C627 H684 0.930 . S
N628 C627 1.279 . S
N628 C631 1.314 . S
C629 C626 1.348 . S
C629 C631 1.353 . S
C629 H685 0.929 . S
C630 C626 1.356 . S
C630 C627 1.358 . S
C630 H686 0.930 . S
C631 N628 1.314 . S
C631 C629 1.353 . S
C631 H687 0.925 1_556 S
C632 N633 1.314 . S
C632 C637 1.353 . S
C632 H638 0.930 . S
N633 Li616 1.990 . S
N633 C632 1.314 . S
N633 C635 1.279 . S
C634 C635 1.358 . S
C634 C636 1.356 . S
C634 H688 0.930 . S
C635 N633 1.279 . S
C635 C634 1.358 . S
C635 H639 0.930 . S
C636 C634 1.356 . S
C636 C637 1.348 . S
C637 C632 1.353 . S
C637 C636 1.348 . S
C637 H689 0.929 . S
H638 C632 0.930 . S
H639 C635 0.930 . S
C640 N641 1.314 . S
C640 C642 1.353 . S
C640 H646 0.930 . S
N641 Li617 1.990 . S
N641 C640 1.314 . S
N641 C644 1.279 . S
C642 C640 1.353 . S
C642 C645 1.348 . S
C642 H690 0.929 . S
C643 C644 1.358 . S
C643 C645 1.356 . S
C643 H691 0.930 1_556 S
C644 N641 1.279 . S
C644 C643 1.358 . S
C644 H647 0.930 . S
C645 C642 1.348 . S
C645 C643 1.356 . S
H646 C640 0.930 . S
H647 C644 0.930 . S
C648 C650 1.348 . S
C648 C651 1.356 . S
C648 O678 1.325 . S
N649 C652 1.314 . S
N649 C653 1.279 . S
C650 C648 1.348 . S
C650 C652 1.353 . S
C650 H692 0.929 . S
C651 C648 1.356 . S
C651 C653 1.358 . S
C651 H693 0.930 . S
C652 N649 1.314 . S
C652 C650 1.353 . S
C652 H694 0.930 . S
C653 N649 1.279 . S
C653 C651 1.358 . S
C653 H695 0.930 . S
C654 C655 1.348 . S
C654 C656 1.356 . S
C654 O679 1.325 . S
C655 C654 1.348 . S
C655 C657 1.353 . S
C655 H696 0.929 . S
C656 C654 1.356 . S
C656 C658 1.358 . S
C656 H697 0.930 . S
C657 C655 1.353 . S
C657 N659 1.314 . S
C657 H698 0.930 . S
C658 C656 1.358 . S
C658 N659 1.279 . S
C658 H699 0.930 . S
N659 C657 1.314 . S
N659 C658 1.279 . S
C660 C662 1.353 . S
C660 N663 1.314 . S
C660 H666 0.930 . S
C661 N663 1.279 . S
C661 C664 1.358 . S
C661 H667 0.930 . S
C662 C660 1.353 . S
C662 C665 1.348 . S
C662 H700 0.929 . S
N663 Li618 1.990 . S
N663 C660 1.314 . S
N663 C661 1.279 . S
C664 C661 1.358 . S
C664 C665 1.356 . S
C664 H701 0.930 . S
C665 C662 1.348 . S
C665 C664 1.356 . S
H666 C660 0.930 . S
H667 C661 0.930 . S
C668 N669 1.314 . S
C668 C670 1.353 . S
C668 H674 0.930 . S
N669 Li619 1.990 . S
N669 C668 1.314 . S
N669 C672 1.279 . S
C670 C668 1.353 . S
C670 C673 1.348 . S
C670 H702 0.929 . S
C671 C672 1.358 . S
C671 C673 1.356 . S
C671 H703 0.930 . S
C672 N669 1.279 . S
C672 C671 1.358 . S
C672 H675 0.930 . S
C673 C670 1.348 . S
C673 C671 1.356 . S
H674 C668 0.930 . S
H675 C672 0.930 . S
O676 Li616 1.956 . S
O676 Li617 1.970 . S
O676 Li618 1.961 . S
O676 C620 1.325 . S
O677 Li616 1.970 . S
O677 Li617 1.956 . S
O677 Li619 1.961 . S
O677 C626 1.325 . S
O678 Li616 1.961 . S
O678 Li618 1.956 . S
O678 Li619 1.970 . S
O678 C648 1.325 . S
O679 Li617 1.961 . S
O679 Li618 1.970 . S
O679 Li619 1.956 . S
O679 C654 1.325 . S
H680 C622 0.929 . S
H681 C623 0.930 . S
H682 C624 0.930 . S
H683 C625 0.930 . S
H684 C627 0.930 . S
H685 C629 0.929 . S
H686 C630 0.930 . S
H687 C631 0.925 1_554 S
H688 C634 0.930 . S
H689 C637 0.929 . S
H690 C642 0.929 . S
H691 C643 0.930 1_554 S
H692 C650 0.929 . S
H693 C651 0.930 . S
H694 C652 0.930 . S
H695 C653 0.930 . S
H696 C655 0.929 . S
H697 C656 0.930 . S
H698 C657 0.930 . S
H699 C658 0.930 . S
H700 C662 0.929 . S
H701 C664 0.930 . S
H702 C670 0.929 . S
H703 C671 0.930 . S
Li704 N721 1.990 . S
Li704 O764 1.956 . S
Li704 O765 1.970 . S
Li704 O766 1.961 . S
Li705 N729 1.990 . S
Li705 O764 1.970 . S
Li705 O765 1.956 . S
Li705 O767 1.961 . S
Li706 N751 1.990 . S
Li706 O764 1.961 . S
Li706 O766 1.956 . S
Li706 O767 1.970 . S
Li707 N757 1.990 . S
Li707 O765 1.961 . S
Li707 O766 1.970 . S
Li707 O767 1.956 . S
C708 C710 1.348 . S
C708 C711 1.356 . S
C708 O764 1.325 . S
N709 C712 1.314 . S
N709 C713 1.279 . S
C710 C708 1.348 . S
C710 C712 1.353 . S
C710 H768 0.929 . S
C711 C708 1.356 . S
C711 C713 1.358 . S
C711 H769 0.930 . S
C712 N709 1.314 . S
C712 C710 1.353 . S
C712 H770 0.925 1_556 S
C713 N709 1.279 . S
C713 C711 1.358 . S
C713 H771 0.930 . S
C714 C717 1.348 . S
C714 C718 1.356 . S
C714 O765 1.325 . S
C715 N716 1.279 . S
C715 C718 1.358 . S
C715 H772 0.930 . S
N716 C715 1.279 . S
N716 C719 1.314 . S
C717 C714 1.348 . S
C717 C719 1.353 . S
C717 H773 0.929 . S
C718 C714 1.356 . S
C718 C715 1.358 . S
C718 H774 0.930 . S
C719 N716 1.314 . S
C719 C717 1.353 . S
C719 H775 0.930 . S
C720 N721 1.314 . S
C720 C725 1.353 . S
C720 H726 0.930 . S
N721 Li704 1.990 . S
N721 C720 1.314 . S
N721 C723 1.279 . S
C722 C723 1.358 . S
C722 C724 1.356 . S
C722 H776 0.930 1_556 S
C723 N721 1.279 . S
C723 C722 1.358 . S
C723 H727 0.930 . S
C724 C722 1.356 . S
C724 C725 1.348 . S
C725 C720 1.353 . S
C725 C724 1.348 . S
C725 H777 0.929 . S
H726 C720 0.930 . S
H727 C723 0.930 . S
C728 N729 1.314 . S
C728 C730 1.353 . S
C728 H734 0.930 . S
N729 Li705 1.990 . S
N729 C728 1.314 . S
N729 C732 1.279 . S
C730 C728 1.353 . S
C730 C733 1.348 . S
C730 H778 0.929 . S
C731 C732 1.358 . S
C731 C733 1.356 . S
C731 H779 0.930 . S
C732 N729 1.279 . S
C732 C731 1.358 . S
C732 H735 0.930 . S
C733 C730 1.348 . S
C733 C731 1.356 . S
H734 C728 0.930 . S
H735 C732 0.930 . S
C736 C738 1.348 . S
C736 C739 1.356 . S
C736 O766 1.325 . S
N737 C740 1.314 . S
N737 C741 1.279 . S
C738 C736 1.348 . S
C738 C740 1.353 . S
C738 H780 0.929 . S
C739 C736 1.356 . S
C739 C741 1.358 . S
C739 H781 0.930 . S
C740 N737 1.314 . S
C740 C738 1.353 . S
C740 H782 0.930 . S
C741 N737 1.279 . S
C741 C739 1.358 . S
C741 H783 0.930 . S
C742 C743 1.348 . S
C742 C744 1.356 . S
C742 O767 1.325 . S
C743 C742 1.348 . S
C743 C745 1.353 . S
C743 H784 0.929 . S
C744 C742 1.356 . S
C744 C746 1.358 . S
C744 H785 0.930 . S
C745 C743 1.353 . S
C745 N747 1.314 . S
C745 H786 0.930 . S
C746 C744 1.358 . S
C746 N747 1.279 . S
C746 H787 0.930 . S
N747 C745 1.314 . S
N747 C746 1.279 . S
C748 C750 1.353 . S
C748 N751 1.314 . S
C748 H754 0.930 . S
C749 N751 1.279 . S
C749 C752 1.358 . S
C749 H755 0.930 . S
C750 C748 1.353 . S
C750 C753 1.348 . S
C750 H788 0.929 . S
N751 Li706 1.990 . S
N751 C748 1.314 . S
N751 C749 1.279 . S
C752 C749 1.358 . S
C752 C753 1.356 . S
C752 H789 0.930 . S
C753 C750 1.348 . S
C753 C752 1.356 . S
H754 C748 0.930 . S
H755 C749 0.930 . S
C756 N757 1.314 . S
C756 C758 1.353 . S
C756 H762 0.930 . S
N757 Li707 1.990 . S
N757 C756 1.314 . S
N757 C760 1.279 . S
C758 C756 1.353 . S
C758 C761 1.348 . S
C758 H790 0.929 . S
C759 C760 1.358 . S
C759 C761 1.356 . S
C759 H791 0.930 . S
C760 N757 1.279 . S
C760 C759 1.358 . S
C760 H763 0.930 . S
C761 C758 1.348 . S
C761 C759 1.356 . S
H762 C756 0.930 . S
H763 C760 0.930 . S
O764 Li704 1.956 . S
O764 Li705 1.970 . S
O764 Li706 1.961 . S
O764 C708 1.325 . S
O765 Li704 1.970 . S
O765 Li705 1.956 . S
O765 Li707 1.961 . S
O765 C714 1.325 . S
O766 Li704 1.961 . S
O766 Li706 1.956 . S
O766 Li707 1.970 . S
O766 C736 1.325 . S
O767 Li705 1.961 . S
O767 Li706 1.970 . S
O767 Li707 1.956 . S
O767 C742 1.325 . S
H768 C710 0.929 . S
H769 C711 0.930 . S
H770 C712 0.925 1_554 S
H771 C713 0.930 . S
H772 C715 0.930 . S
H773 C717 0.929 . S
H774 C718 0.930 . S
H775 C719 0.930 . S
H776 C722 0.930 1_554 S
H777 C725 0.929 . S
H778 C730 0.929 . S
H779 C731 0.930 . S
H780 C738 0.929 . S
H781 C739 0.930 . S
H782 C740 0.930 . S
H783 C741 0.930 . S
H784 C743 0.929 . S
H785 C744 0.930 . S
H786 C745 0.930 . S
H787 C746 0.930 . S
H788 C750 0.929 . S
H789 C752 0.930 . S
H790 C758 0.929 . S
H791 C759 0.930 . S
Li792 N809 1.990 . S
Li792 O852 1.956 . S
Li792 O853 1.970 . S
Li792 O854 1.961 . S
Li793 N817 1.990 . S
Li793 O852 1.970 . S
Li793 O853 1.956 . S
Li793 O855 1.961 . S
Li794 N839 1.990 . S
Li794 O852 1.961 . S
Li794 O854 1.956 . S
Li794 O855 1.970 . S
Li795 N845 1.990 . S
Li795 O853 1.961 . S
Li795 O854 1.970 . S
Li795 O855 1.956 . S
C796 C798 1.348 . S
C796 C799 1.356 . S
C796 O852 1.325 . S
N797 C800 1.314 . S
N797 C801 1.279 . S
C798 C796 1.348 . S
C798 C800 1.353 . S
C798 H856 0.929 . S
C799 C796 1.356 . S
C799 C801 1.358 . S
C799 H857 0.930 . S
C800 N797 1.314 . S
C800 C798 1.353 . S
C800 H858 0.930 . S
C801 N797 1.279 . S
C801 C799 1.358 . S
C801 H859 0.930 . S
C802 C805 1.348 . S
C802 C806 1.356 . S
C802 O853 1.325 . S
C803 N804 1.279 . S
C803 C806 1.358 . S
C803 H860 0.930 . S
N804 C803 1.279 . S
N804 C807 1.314 . S
C805 C802 1.348 . S
C805 C807 1.353 . S
C805 H861 0.929 . S
C806 C802 1.356 . S
C806 C803 1.358 . S
C806 H862 0.930 . S
C807 N804 1.314 . S
C807 C805 1.353 . S
C807 H863 0.930 . S
C808 N809 1.314 . S
C808 C813 1.353 . S
C808 H814 0.930 . S
N809 Li792 1.990 . S
N809 C808 1.314 . S
N809 C811 1.279 . S
C810 C811 1.358 . S
C810 C812 1.356 . S
C810 H864 0.930 . S
C811 N809 1.279 . S
C811 C810 1.358 . S
C811 H815 0.930 . S
C812 C810 1.356 . S
C812 C813 1.348 . S
C813 C808 1.353 . S
C813 C812 1.348 . S
C813 H865 0.929 . S
H814 C808 0.930 . S
H815 C811 0.930 . S
C816 N817 1.314 . S
C816 C818 1.353 . S
C816 H822 0.930 . S
N817 Li793 1.990 . S
N817 C816 1.314 . S
N817 C820 1.279 . S
C818 C816 1.353 . S
C818 C821 1.348 . S
C818 H866 0.929 . S
C819 C820 1.358 . S
C819 C821 1.356 . S
C819 H867 0.930 . S
C820 N817 1.279 . S
C820 C819 1.358 . S
C820 H823 0.930 . S
C821 C818 1.348 . S
C821 C819 1.356 . S
H822 C816 0.930 . S
H823 C820 0.930 . S
C824 C826 1.348 . S
C824 C827 1.356 . S
C824 O854 1.325 . S
N825 C828 1.314 . S
N825 C829 1.279 . S
C826 C824 1.348 . S
C826 C828 1.353 . S
C826 H868 0.929 . S
C827 C824 1.356 . S
C827 C829 1.358 . S
C827 H869 0.930 . S
C828 N825 1.314 . S
C828 C826 1.353 . S
C828 H870 0.930 . S
C829 N825 1.279 . S
C829 C827 1.358 . S
C829 H871 0.930 . S
C830 C831 1.348 . S
C830 C832 1.356 . S
C830 O855 1.325 . S
C831 C830 1.348 . S
C831 C833 1.353 . S
C831 H872 0.929 . S
C832 C830 1.356 . S
C832 C834 1.358 . S
C832 H873 0.930 . S
C833 C831 1.353 . S
C833 N835 1.314 . S
C833 H874 0.930 . S
C834 C832 1.358 . S
C834 N835 1.279 . S
C834 H875 0.930 . S
N835 C833 1.314 . S
N835 C834 1.279 . S
C836 C838 1.353 . S
C836 N839 1.314 . S
C836 H842 0.930 . S
C837 N839 1.279 . S
C837 C840 1.358 . S
C837 H843 0.930 . S
C838 C836 1.353 . S
C838 C841 1.348 . S
C838 H876 0.929 . S
N839 Li794 1.990 . S
N839 C836 1.314 . S
N839 C837 1.279 . S
C840 C837 1.358 . S
C840 C841 1.356 . S
C840 H877 0.930 . S
C841 C838 1.348 . S
C841 C840 1.356 . S
H842 C836 0.930 . S
H843 C837 0.930 . S
C844 N845 1.314 . S
C844 C846 1.353 . S
C844 H850 0.930 . S
N845 Li795 1.990 . S
N845 C844 1.314 . S
N845 C848 1.279 . S
C846 C844 1.353 . S
C846 C849 1.348 . S
C846 H878 0.929 . S
C847 C848 1.358 . S
C847 C849 1.356 . S
C847 H879 0.930 . S
C848 N845 1.279 . S
C848 C847 1.358 . S
C848 H851 0.930 . S
C849 C846 1.348 . S
C849 C847 1.356 . S
H850 C844 0.930 . S
H851 C848 0.930 . S
O852 Li792 1.956 . S
O852 Li793 1.970 . S
O852 Li794 1.961 . S
O852 C796 1.325 . S
O853 Li792 1.970 . S
O853 Li793 1.956 . S
O853 Li795 1.961 . S
O853 C802 1.325 . S
O854 Li792 1.961 . S
O854 Li794 1.956 . S
O854 Li795 1.970 . S
O854 C824 1.325 . S
O855 Li793 1.961 . S
O855 Li794 1.970 . S
O855 Li795 1.956 . S
O855 C830 1.325 . S
H856 C798 0.929 . S
H857 C799 0.930 . S
H858 C800 0.930 . S
H859 C801 0.930 . S
H860 C803 0.930 . S
H861 C805 0.929 . S
H862 C806 0.930 . S
H863 C807 0.930 . S
H864 C810 0.930 . S
H865 C813 0.929 . S
H866 C818 0.929 . S
H867 C819 0.930 . S
H868 C826 0.929 . S
H869 C827 0.930 . S
H870 C828 0.930 . S
H871 C829 0.930 . S
H872 C831 0.929 . S
H873 C832 0.930 . S
H874 C833 0.930 . S
H875 C834 0.930 . S
H876 C838 0.929 . S
H877 C840 0.930 . S
H878 C846 0.929 . S
H879 C847 0.930 . S
Li880 N897 1.990 . S
Li880 O940 1.956 . S
Li880 O941 1.970 . S
Li880 O942 1.961 . S
Li881 N905 1.990 . S
Li881 O940 1.970 . S
Li881 O941 1.956 . S
Li881 O943 1.961 . S
Li882 N927 1.990 . S
Li882 O940 1.961 . S
Li882 O942 1.956 . S
Li882 O943 1.970 . S
Li883 N933 1.990 . S
Li883 O941 1.961 . S
Li883 O942 1.970 . S
Li883 O943 1.956 . S
C884 C886 1.348 . S
C884 C887 1.356 . S
C884 O940 1.325 . S
N885 C888 1.314 . S
N885 C889 1.279 . S
C886 C884 1.348 . S
C886 C888 1.353 . S
C886 H944 0.929 . S
C887 C884 1.356 . S
C887 C889 1.358 . S
C887 H945 0.930 . S
C888 N885 1.314 . S
C888 C886 1.353 . S
C888 H946 0.930 . S
C889 N885 1.279 . S
C889 C887 1.358 . S
C889 H947 0.930 . S
C890 C893 1.348 . S
C890 C894 1.356 . S
C890 O941 1.325 . S
C891 N892 1.279 . S
C891 C894 1.358 . S
C891 H948 0.930 . S
N892 C891 1.279 . S
N892 C895 1.314 . S
C893 C890 1.348 . S
C893 C895 1.353 . S
C893 H949 0.929 . S
C894 C890 1.356 . S
C894 C891 1.358 . S
C894 H950 0.930 . S
C895 N892 1.314 . S
C895 C893 1.353 . S
C895 H951 0.930 . S
C896 N897 1.314 . S
C896 C901 1.353 . S
C896 H902 0.930 . S
N897 Li880 1.990 . S
N897 C896 1.314 . S
N897 C899 1.279 . S
C898 C899 1.358 . S
C898 C900 1.356 . S
C898 H952 0.930 . S
C899 N897 1.279 . S
C899 C898 1.358 . S
C899 H903 0.930 . S
C900 C898 1.356 . S
C900 C901 1.348 . S
C901 C896 1.353 . S
C901 C900 1.348 . S
C901 H953 0.929 . S
H902 C896 0.930 . S
H903 C899 0.930 . S
C904 N905 1.314 . S
C904 C906 1.353 . S
C904 H910 0.930 . S
N905 Li881 1.990 . S
N905 C904 1.314 . S
N905 C908 1.279 . S
C906 C904 1.353 . S
C906 C909 1.348 . S
C906 H954 0.929 . S
C907 C908 1.358 . S
C907 C909 1.356 . S
C907 H955 0.930 . S
C908 N905 1.279 . S
C908 C907 1.358 . S
C908 H911 0.930 . S
C909 C906 1.348 . S
C909 C907 1.356 . S
H910 C904 0.930 . S
H911 C908 0.930 . S
C912 C914 1.348 . S
C912 C915 1.356 . S
C912 O942 1.325 . S
N913 C916 1.314 . S
N913 C917 1.279 . S
C914 C912 1.348 . S
C914 C916 1.353 . S
C914 H956 0.929 . S
C915 C912 1.356 . S
C915 C917 1.358 . S
C915 H957 0.930 . S
C916 N913 1.314 . S
C916 C914 1.353 . S
C916 H958 0.930 . S
C917 N913 1.279 . S
C917 C915 1.358 . S
C917 H959 0.930 . S
C918 C919 1.348 . S
C918 C920 1.356 . S
C918 O943 1.325 . S
C919 C918 1.348 . S
C919 C921 1.353 . S
C919 H960 0.929 . S
C920 C918 1.356 . S
C920 C922 1.358 . S
C920 H961 0.930 . S
C921 C919 1.353 . S
C921 N923 1.314 . S
C921 H962 0.930 . S
C922 C920 1.358 . S
C922 N923 1.279 . S
C922 H963 0.930 . S
N923 C921 1.314 . S
N923 C922 1.279 . S
C924 C926 1.353 . S
C924 N927 1.314 . S
C924 H930 0.930 . S
C925 N927 1.279 . S
C925 C928 1.358 . S
C925 H931 0.930 . S
C926 C924 1.353 . S
C926 C929 1.348 . S
C926 H964 0.929 . S
N927 Li882 1.990 . S
N927 C924 1.314 . S
N927 C925 1.279 . S
C928 C925 1.358 . S
C928 C929 1.356 . S
C928 H965 0.930 . S
C929 C926 1.348 . S
C929 C928 1.356 . S
H930 C924 0.930 . S
H931 C925 0.930 . S
C932 N933 1.314 . S
C932 C934 1.353 . S
C932 H938 0.930 . S
N933 Li883 1.990 . S
N933 C932 1.314 . S
N933 C936 1.279 . S
C934 C932 1.353 . S
C934 C937 1.348 . S
C934 H966 0.929 . S
C935 C936 1.358 . S
C935 C937 1.356 . S
C935 H967 0.930 . S
C936 N933 1.279 . S
C936 C935 1.358 . S
C936 H939 0.930 . S
C937 C934 1.348 . S
C937 C935 1.356 . S
H938 C932 0.930 . S
H939 C936 0.930 . S
O940 Li880 1.956 . S
O940 Li881 1.970 . S
O940 Li882 1.961 . S
O940 C884 1.325 . S
O941 Li880 1.970 . S
O941 Li881 1.956 . S
O941 Li883 1.961 . S
O941 C890 1.325 . S
O942 Li880 1.961 . S
O942 Li882 1.956 . S
O942 Li883 1.970 . S
O942 C912 1.325 . S
O943 Li881 1.961 . S
O943 Li882 1.970 . S
O943 Li883 1.956 . S
O943 C918 1.325 . S
H944 C886 0.929 . S
H945 C887 0.930 . S
H946 C888 0.930 . S
H947 C889 0.930 . S
H948 C891 0.930 . S
H949 C893 0.929 . S
H950 C894 0.930 . S
H951 C895 0.930 . S
H952 C898 0.930 . S
H953 C901 0.929 . S
H954 C906 0.929 . S
H955 C907 0.930 . S
H956 C914 0.929 . S
H957 C915 0.930 . S
H958 C916 0.930 . S
H959 C917 0.930 . S
H960 C919 0.929 . S
H961 C920 0.930 . S
H962 C921 0.930 . S
H963 C922 0.930 . S
H964 C926 0.929 . S
H965 C928 0.930 . S
H966 C934 0.929 . S
H967 C935 0.930 . S
Li968 N985 1.990 . S
Li968 O1028 1.956 . S
Li968 O1029 1.970 . S
Li968 O1030 1.961 . S
Li969 N993 1.990 . S
Li969 O1028 1.970 . S
Li969 O1029 1.956 . S
Li969 O1031 1.961 . S
Li970 N1015 1.990 . S
Li970 O1028 1.961 . S
Li970 O1030 1.956 . S
Li970 O1031 1.970 . S
Li971 N1021 1.990 . S
Li971 O1029 1.961 . S
Li971 O1030 1.970 . S
Li971 O1031 1.956 . S
C972 C974 1.348 . S
C972 C975 1.356 . S
C972 O1028 1.325 . S
N973 C976 1.314 . S
N973 C977 1.279 . S
C974 C972 1.348 . S
C974 C976 1.353 . S
C974 H1032 0.929 . S
C975 C972 1.356 . S
C975 C977 1.358 . S
C975 H1033 0.930 . S
C976 N973 1.314 . S
C976 C974 1.353 . S
C976 H1034 0.930 . S
C977 N973 1.279 . S
C977 C975 1.358 . S
C977 H1035 0.930 . S
C978 C981 1.348 . S
C978 C982 1.356 . S
C978 O1029 1.325 . S
C979 N980 1.279 . S
C979 C982 1.358 . S
C979 H1036 0.930 . S
N980 C979 1.279 . S
N980 C983 1.314 . S
C981 C978 1.348 . S
C981 C983 1.353 . S
C981 H1037 0.929 . S
C982 C978 1.356 . S
C982 C979 1.358 . S
C982 H1038 0.930 . S
C983 N980 1.314 . S
C983 C981 1.353 . S
C983 H1039 0.930 . S
C984 N985 1.314 . S
C984 C989 1.353 . S
C984 H990 0.930 . S
N985 Li968 1.990 . S
N985 C984 1.314 . S
N985 C987 1.279 . S
C986 C987 1.358 . S
C986 C988 1.356 . S
C986 H1040 0.930 . S
C987 N985 1.279 . S
C987 C986 1.358 . S
C987 H991 0.930 . S
C988 C986 1.356 . S
C988 C989 1.348 . S
C989 C984 1.353 . S
C989 C988 1.348 . S
C989 H1041 0.929 . S
H990 C984 0.930 . S
H991 C987 0.930 . S
C992 N993 1.314 . S
C992 C994 1.353 . S
C992 H998 0.930 . S
N993 Li969 1.990 . S
N993 C992 1.314 . S
N993 C996 1.279 . S
C994 C992 1.353 . S
C994 C997 1.348 . S
C994 H1042 0.929 . S
C995 C996 1.358 . S
C995 C997 1.356 . S
C995 H1043 0.930 . S
C996 N993 1.279 . S
C996 C995 1.358 . S
C996 H999 0.930 . S
C997 C994 1.348 . S
C997 C995 1.356 . S
H998 C992 0.930 . S
H999 C996 0.930 . S
C1000 C1002 1.348 . S
C1000 C1003 1.356 . S
C1000 O1030 1.325 . S
N1001 C1004 1.314 . S
N1001 C1005 1.279 . S
C1002 C1000 1.348 . S
C1002 C1004 1.353 . S
C1002 H1044 0.929 . S
C1003 C1000 1.356 . S
C1003 C1005 1.358 . S
C1003 H1045 0.930 . S
C1004 N1001 1.314 . S
C1004 C1002 1.353 . S
C1004 H1046 0.930 . S
C1005 N1001 1.279 . S
C1005 C1003 1.358 . S
C1005 H1047 0.930 . S
C1006 C1007 1.348 . S
C1006 C1008 1.356 . S
C1006 O1031 1.325 . S
C1007 C1006 1.348 . S
C1007 C1009 1.353 . S
C1007 H1048 0.929 . S
C1008 C1006 1.356 . S
C1008 C1010 1.358 . S
C1008 H1049 0.930 . S
C1009 C1007 1.353 . S
C1009 N1011 1.314 . S
C1009 H1050 0.930 . S
C1010 C1008 1.358 . S
C1010 N1011 1.279 . S
C1010 H1051 0.930 . S
N1011 C1009 1.314 . S
N1011 C1010 1.279 . S
C1012 C1014 1.353 . S
C1012 N1015 1.314 . S
C1012 H1018 0.930 . S
C1013 N1015 1.279 . S
C1013 C1016 1.358 . S
C1013 H1019 0.930 . S
C1014 C1012 1.353 . S
C1014 C1017 1.348 . S
C1014 H1052 0.929 . S
N1015 Li970 1.990 . S
N1015 C1012 1.314 . S
N1015 C1013 1.279 . S
C1016 C1013 1.358 . S
C1016 C1017 1.356 . S
C1016 H1053 0.930 . S
C1017 C1014 1.348 . S
C1017 C1016 1.356 . S
H1018 C1012 0.930 . S
H1019 C1013 0.930 . S
C1020 N1021 1.314 . S
C1020 C1022 1.353 . S
C1020 H1026 0.930 . S
N1021 Li971 1.990 . S
N1021 C1020 1.314 . S
N1021 C1024 1.279 . S
C1022 C1020 1.353 . S
C1022 C1025 1.348 . S
C1022 H1054 0.929 . S
C1023 C1024 1.358 . S
C1023 C1025 1.356 . S
C1023 H1055 0.930 . S
C1024 N1021 1.279 . S
C1024 C1023 1.358 . S
C1024 H1027 0.930 . S
C1025 C1022 1.348 . S
C1025 C1023 1.356 . S
H1026 C1020 0.930 . S
H1027 C1024 0.930 . S
O1028 Li968 1.956 . S
O1028 Li969 1.970 . S
O1028 Li970 1.961 . S
O1028 C972 1.325 . S
O1029 Li968 1.970 . S
O1029 Li969 1.956 . S
O1029 Li971 1.961 . S
O1029 C978 1.325 . S
O1030 Li968 1.961 . S
O1030 Li970 1.956 . S
O1030 Li971 1.970 . S
O1030 C1000 1.325 . S
O1031 Li969 1.961 . S
O1031 Li970 1.970 . S
O1031 Li971 1.956 . S
O1031 C1006 1.325 . S
H1032 C974 0.929 . S
H1033 C975 0.930 . S
H1034 C976 0.930 . S
H1035 C977 0.930 . S
H1036 C979 0.930 . S
H1037 C981 0.929 . S
H1038 C982 0.930 . S
H1039 C983 0.930 . S
H1040 C986 0.930 . S
H1041 C989 0.929 . S
H1042 C994 0.929 . S
H1043 C995 0.930 . S
H1044 C1002 0.929 . S
H1045 C1003 0.930 . S
H1046 C1004 0.930 . S
H1047 C1005 0.930 . S
H1048 C1007 0.929 . S
H1049 C1008 0.930 . S
H1050 C1009 0.930 . S
H1051 C1010 0.930 . S
H1052 C1014 0.929 . S
H1053 C1016 0.930 . S
H1054 C1022 0.929 . S
H1055 C1023 0.930 . S
Li1056 N1073 1.990 . S
Li1056 O1116 1.956 . S
Li1056 O1117 1.970 . S
Li1056 O1118 1.961 . S
Li1057 N1081 1.990 . S
Li1057 O1116 1.970 . S
Li1057 O1117 1.956 . S
Li1057 O1119 1.961 . S
Li1058 N1103 1.990 . S
Li1058 O1116 1.961 . S
Li1058 O1118 1.956 . S
Li1058 O1119 1.970 . S
Li1059 N1109 1.990 . S
Li1059 O1117 1.961 . S
Li1059 O1118 1.970 . S
Li1059 O1119 1.956 . S
C1060 C1062 1.348 . S
C1060 C1063 1.356 . S
C1060 O1116 1.325 . S
N1061 C1064 1.314 . S
N1061 C1065 1.279 . S
C1062 C1060 1.348 . S
C1062 C1064 1.353 . S
C1062 H1120 0.929 . S
C1063 C1060 1.356 . S
C1063 C1065 1.358 . S
C1063 H1121 0.930 . S
C1064 N1061 1.314 . S
C1064 C1062 1.353 . S
C1064 H1122 0.930 . S
C1065 N1061 1.279 . S
C1065 C1063 1.358 . S
C1065 H1123 0.930 . S
C1066 C1069 1.348 . S
C1066 C1070 1.356 . S
C1066 O1117 1.325 . S
C1067 N1068 1.279 . S
C1067 C1070 1.358 . S
C1067 H1124 0.930 . S
N1068 C1067 1.279 . S
N1068 C1071 1.314 . S
C1069 C1066 1.348 . S
C1069 C1071 1.353 . S
C1069 H1125 0.929 . S
C1070 C1066 1.356 . S
C1070 C1067 1.358 . S
C1070 H1126 0.930 . S
C1071 N1068 1.314 . S
C1071 C1069 1.353 . S
C1071 H1127 0.930 . S
C1072 N1073 1.314 . S
C1072 C1077 1.353 . S
C1072 H1078 0.930 . S
N1073 Li1056 1.990 . S
N1073 C1072 1.314 . S
N1073 C1075 1.279 . S
C1074 C1075 1.358 . S
C1074 C1076 1.356 . S
C1074 H1128 0.930 . S
C1075 N1073 1.279 . S
C1075 C1074 1.358 . S
C1075 H1079 0.930 . S
C1076 C1074 1.356 . S
C1076 C1077 1.348 . S
C1077 C1072 1.353 . S
C1077 C1076 1.348 . S
C1077 H1129 0.929 . S
H1078 C1072 0.930 . S
H1079 C1075 0.930 . S
C1080 N1081 1.314 . S
C1080 C1082 1.353 . S
C1080 H1086 0.930 . S
N1081 Li1057 1.990 . S
N1081 C1080 1.314 . S
N1081 C1084 1.279 . S
C1082 C1080 1.353 . S
C1082 C1085 1.348 . S
C1082 H1130 0.929 . S
C1083 C1084 1.358 . S
C1083 C1085 1.356 . S
C1083 H1131 0.930 . S
C1084 N1081 1.279 . S
C1084 C1083 1.358 . S
C1084 H1087 0.930 . S
C1085 C1082 1.348 . S
C1085 C1083 1.356 . S
H1086 C1080 0.930 . S
H1087 C1084 0.930 . S
C1088 C1090 1.348 . S
C1088 C1091 1.356 . S
C1088 O1118 1.325 . S
N1089 C1092 1.314 . S
N1089 C1093 1.279 . S
C1090 C1088 1.348 . S
C1090 C1092 1.353 . S
C1090 H1132 0.929 . S
C1091 C1088 1.356 . S
C1091 C1093 1.358 . S
C1091 H1133 0.930 . S
C1092 N1089 1.314 . S
C1092 C1090 1.353 . S
C1092 H1134 0.930 . S
C1093 N1089 1.279 . S
C1093 C1091 1.358 . S
C1093 H1135 0.930 . S
C1094 C1095 1.348 . S
C1094 C1096 1.356 . S
C1094 O1119 1.325 . S
C1095 C1094 1.348 . S
C1095 C1097 1.353 . S
C1095 H1136 0.929 . S
C1096 C1094 1.356 . S
C1096 C1098 1.358 . S
C1096 H1137 0.930 . S
C1097 C1095 1.353 . S
C1097 N1099 1.314 . S
C1097 H1138 0.930 . S
C1098 C1096 1.358 . S
C1098 N1099 1.279 . S
C1098 H1139 0.930 . S
N1099 C1097 1.314 . S
N1099 C1098 1.279 . S
C1100 C1102 1.353 . S
C1100 N1103 1.314 . S
C1100 H1106 0.930 . S
C1101 N1103 1.279 . S
C1101 C1104 1.358 . S
C1101 H1107 0.930 . S
C1102 C1100 1.353 . S
C1102 C1105 1.348 . S
C1102 H1140 0.929 . S
N1103 Li1058 1.990 . S
N1103 C1100 1.314 . S
N1103 C1101 1.279 . S
C1104 C1101 1.358 . S
C1104 C1105 1.356 . S
C1104 H1141 0.930 . S
C1105 C1102 1.348 . S
C1105 C1104 1.356 . S
H1106 C1100 0.930 . S
H1107 C1101 0.930 . S
C1108 N1109 1.314 . S
C1108 C1110 1.353 . S
C1108 H1114 0.930 . S
N1109 Li1059 1.990 . S
N1109 C1108 1.314 . S
N1109 C1112 1.279 . S
C1110 C1108 1.353 . S
C1110 C1113 1.348 . S
C1110 H1142 0.929 . S
C1111 C1112 1.358 . S
C1111 C1113 1.356 . S
C1111 H1143 0.930 . S
C1112 N1109 1.279 . S
C1112 C1111 1.358 . S
C1112 H1115 0.930 . S
C1113 C1110 1.348 . S
C1113 C1111 1.356 . S
H1114 C1108 0.930 . S
H1115 C1112 0.930 . S
O1116 Li1056 1.956 . S
O1116 Li1057 1.970 . S
O1116 Li1058 1.961 . S
O1116 C1060 1.325 . S
O1117 Li1056 1.970 . S
O1117 Li1057 1.956 . S
O1117 Li1059 1.961 . S
O1117 C1066 1.325 . S
O1118 Li1056 1.961 . S
O1118 Li1058 1.956 . S
O1118 Li1059 1.970 . S
O1118 C1088 1.325 . S
O1119 Li1057 1.961 . S
O1119 Li1058 1.970 . S
O1119 Li1059 1.956 . S
O1119 C1094 1.325 . S
H1120 C1062 0.929 . S
H1121 C1063 0.930 . S
H1122 C1064 0.930 . S
H1123 C1065 0.930 . S
H1124 C1067 0.930 . S
H1125 C1069 0.929 . S
H1126 C1070 0.930 . S
H1127 C1071 0.930 . S
H1128 C1074 0.930 . S
H1129 C1077 0.929 . S
H1130 C1082 0.929 . S
H1131 C1083 0.930 . S
H1132 C1090 0.929 . S
H1133 C1091 0.930 . S
H1134 C1092 0.930 . S
H1135 C1093 0.930 . S
H1136 C1095 0.929 . S
H1137 C1096 0.930 . S
H1138 C1097 0.930 . S
H1139 C1098 0.930 . S
H1140 C1102 0.929 . S
H1141 C1104 0.930 . S
H1142 C1110 0.929 . S
H1143 C1111 0.930 . S
Li1144 N1161 1.990 . S
Li1144 O1204 1.956 . S
Li1144 O1205 1.970 . S
Li1144 O1206 1.961 . S
Li1145 N1169 1.990 . S
Li1145 O1204 1.970 . S
Li1145 O1205 1.956 . S
Li1145 O1207 1.961 . S
Li1146 N1191 1.990 . S
Li1146 O1204 1.961 . S
Li1146 O1206 1.956 . S
Li1146 O1207 1.970 . S
Li1147 N1197 1.990 . S
Li1147 O1205 1.961 . S
Li1147 O1206 1.970 . S
Li1147 O1207 1.956 . S
C1148 C1150 1.348 . S
C1148 C1151 1.356 . S
C1148 O1204 1.325 . S
N1149 C1152 1.314 . S
N1149 C1153 1.279 . S
C1150 C1148 1.348 . S
C1150 C1152 1.353 . S
C1150 H1208 0.929 . S
C1151 C1148 1.356 . S
C1151 C1153 1.358 . S
C1151 H1209 0.930 . S
C1152 N1149 1.314 . S
C1152 C1150 1.353 . S
C1152 H1210 0.930 . S
C1153 N1149 1.279 . S
C1153 C1151 1.358 . S
C1153 H1211 0.930 . S
C1154 C1157 1.348 . S
C1154 C1158 1.356 . S
C1154 O1205 1.325 . S
C1155 N1156 1.279 . S
C1155 C1158 1.358 . S
C1155 H1212 0.930 . S
N1156 C1155 1.279 . S
N1156 C1159 1.314 . S
C1157 C1154 1.348 . S
C1157 C1159 1.353 . S
C1157 H1213 0.929 . S
C1158 C1154 1.356 . S
C1158 C1155 1.358 . S
C1158 H1214 0.930 . S
C1159 N1156 1.314 . S
C1159 C1157 1.353 . S
C1159 H1215 0.930 . S
C1160 N1161 1.314 . S
C1160 C1165 1.353 . S
C1160 H1166 0.930 . S
N1161 Li1144 1.990 . S
N1161 C1160 1.314 . S
N1161 C1163 1.279 . S
C1162 C1163 1.358 . S
C1162 C1164 1.356 . S
C1162 H1216 0.930 . S
C1163 N1161 1.279 . S
C1163 C1162 1.358 . S
C1163 H1167 0.930 . S
C1164 C1162 1.356 . S
C1164 C1165 1.348 . S
C1165 C1160 1.353 . S
C1165 C1164 1.348 . S
C1165 H1217 0.929 . S
H1166 C1160 0.930 . S
H1167 C1163 0.930 . S
C1168 N1169 1.314 . S
C1168 C1170 1.353 . S
C1168 H1174 0.930 . S
N1169 Li1145 1.990 . S
N1169 C1168 1.314 . S
N1169 C1172 1.279 . S
C1170 C1168 1.353 . S
C1170 C1173 1.348 . S
C1170 H1218 0.929 . S
C1171 C1172 1.358 . S
C1171 C1173 1.356 . S
C1171 H1219 0.930 . S
C1172 N1169 1.279 . S
C1172 C1171 1.358 . S
C1172 H1175 0.930 . S
C1173 C1170 1.348 . S
C1173 C1171 1.356 . S
H1174 C1168 0.930 . S
H1175 C1172 0.930 . S
C1176 C1178 1.348 . S
C1176 C1179 1.356 . S
C1176 O1206 1.325 . S
N1177 C1180 1.314 . S
N1177 C1181 1.279 . S
C1178 C1176 1.348 . S
C1178 C1180 1.353 . S
C1178 H1220 0.929 . S
C1179 C1176 1.356 . S
C1179 C1181 1.358 . S
C1179 H1221 0.930 . S
C1180 N1177 1.314 . S
C1180 C1178 1.353 . S
C1180 H1222 0.930 . S
C1181 N1177 1.279 . S
C1181 C1179 1.358 . S
C1181 H1223 0.930 . S
C1182 C1183 1.348 . S
C1182 C1184 1.356 . S
C1182 O1207 1.325 . S
C1183 C1182 1.348 . S
C1183 C1185 1.353 . S
C1183 H1224 0.929 . S
C1184 C1182 1.356 . S
C1184 C1186 1.358 . S
C1184 H1225 0.930 . S
C1185 C1183 1.353 . S
C1185 N1187 1.314 . S
C1185 H1226 0.930 . S
C1186 C1184 1.358 . S
C1186 N1187 1.279 . S
C1186 H1227 0.930 . S
N1187 C1185 1.314 . S
N1187 C1186 1.279 . S
C1188 C1190 1.353 . S
C1188 N1191 1.314 . S
C1188 H1194 0.930 . S
C1189 N1191 1.279 . S
C1189 C1192 1.358 . S
C1189 H1195 0.930 . S
C1190 C1188 1.353 . S
C1190 C1193 1.348 . S
C1190 H1228 0.929 . S
N1191 Li1146 1.990 . S
N1191 C1188 1.314 . S
N1191 C1189 1.279 . S
C1192 C1189 1.358 . S
C1192 C1193 1.356 . S
C1192 H1229 0.930 . S
C1193 C1190 1.348 . S
C1193 C1192 1.356 . S
H1194 C1188 0.930 . S
H1195 C1189 0.930 . S
C1196 N1197 1.314 . S
C1196 C1198 1.353 . S
C1196 H1202 0.930 . S
N1197 Li1147 1.990 . S
N1197 C1196 1.314 . S
N1197 C1200 1.279 . S
C1198 C1196 1.353 . S
C1198 C1201 1.348 . S
C1198 H1230 0.929 . S
C1199 C1200 1.358 . S
C1199 C1201 1.356 . S
C1199 H1231 0.930 . S
C1200 N1197 1.279 . S
C1200 C1199 1.358 . S
C1200 H1203 0.930 . S
C1201 C1198 1.348 . S
C1201 C1199 1.356 . S
H1202 C1196 0.930 . S
H1203 C1200 0.930 . S
O1204 Li1144 1.956 . S
O1204 Li1145 1.970 . S
O1204 Li1146 1.961 . S
O1204 C1148 1.325 . S
O1205 Li1144 1.970 . S
O1205 Li1145 1.956 . S
O1205 Li1147 1.961 . S
O1205 C1154 1.325 . S
O1206 Li1144 1.961 . S
O1206 Li1146 1.956 . S
O1206 Li1147 1.970 . S
O1206 C1176 1.325 . S
O1207 Li1145 1.961 . S
O1207 Li1146 1.970 . S
O1207 Li1147 1.956 . S
O1207 C1182 1.325 . S
H1208 C1150 0.929 . S
H1209 C1151 0.930 . S
H1210 C1152 0.930 . S
H1211 C1153 0.930 . S
H1212 C1155 0.930 . S
H1213 C1157 0.929 . S
H1214 C1158 0.930 . S
H1215 C1159 0.930 . S
H1216 C1162 0.930 . S
H1217 C1165 0.929 . S
H1218 C1170 0.929 . S
H1219 C1171 0.930 . S
H1220 C1178 0.929 . S
H1221 C1179 0.930 . S
H1222 C1180 0.930 . S
H1223 C1181 0.930 . S
H1224 C1183 0.929 . S
H1225 C1184 0.930 . S
H1226 C1185 0.930 . S
H1227 C1186 0.930 . S
H1228 C1190 0.929 . S
H1229 C1192 0.930 . S
H1230 C1198 0.929 . S
H1231 C1199 0.930 . S
Li1232 N1249 1.990 . S
Li1232 O1292 1.956 . S
Li1232 O1293 1.970 . S
Li1232 O1294 1.961 . S
Li1233 N1257 1.990 . S
Li1233 O1292 1.970 . S
Li1233 O1293 1.956 . S
Li1233 O1295 1.961 . S
Li1234 N1279 1.990 . S
Li1234 O1292 1.961 . S
Li1234 O1294 1.956 . S
Li1234 O1295 1.970 . S
Li1235 N1285 1.990 . S
Li1235 O1293 1.961 . S
Li1235 O1294 1.970 . S
Li1235 O1295 1.956 . S
C1236 C1238 1.348 . S
C1236 C1239 1.356 . S
C1236 O1292 1.325 . S
N1237 C1240 1.314 . S
N1237 C1241 1.279 . S
C1238 C1236 1.348 . S
C1238 C1240 1.353 . S
C1238 H1296 0.929 . S
C1239 C1236 1.356 . S
C1239 C1241 1.358 . S
C1239 H1297 0.930 . S
C1240 N1237 1.314 . S
C1240 C1238 1.353 . S
C1240 H1298 0.930 . S
C1241 N1237 1.279 . S
C1241 C1239 1.358 . S
C1241 H1299 0.930 . S
C1242 C1245 1.348 . S
C1242 C1246 1.356 . S
C1242 O1293 1.325 . S
C1243 N1244 1.279 . S
C1243 C1246 1.358 . S
C1243 H1300 0.930 . S
N1244 C1243 1.279 . S
N1244 C1247 1.314 . S
C1245 C1242 1.348 . S
C1245 C1247 1.353 . S
C1245 H1301 0.929 . S
C1246 C1242 1.356 . S
C1246 C1243 1.358 . S
C1246 H1302 0.930 . S
C1247 N1244 1.314 . S
C1247 C1245 1.353 . S
C1247 H1303 0.930 . S
C1248 N1249 1.314 . S
C1248 C1253 1.353 . S
C1248 H1254 0.930 . S
N1249 Li1232 1.990 . S
N1249 C1248 1.314 . S
N1249 C1251 1.279 . S
C1250 C1251 1.358 . S
C1250 C1252 1.356 . S
C1250 H1304 0.930 . S
C1251 N1249 1.279 . S
C1251 C1250 1.358 . S
C1251 H1255 0.930 . S
C1252 C1250 1.356 . S
C1252 C1253 1.348 . S
C1253 C1248 1.353 . S
C1253 C1252 1.348 . S
C1253 H1305 0.929 . S
H1254 C1248 0.930 . S
H1255 C1251 0.930 . S
C1256 N1257 1.314 . S
C1256 C1258 1.353 . S
C1256 H1262 0.930 . S
N1257 Li1233 1.990 . S
N1257 C1256 1.314 . S
N1257 C1260 1.279 . S
C1258 C1256 1.353 . S
C1258 C1261 1.348 . S
C1258 H1306 0.929 . S
C1259 C1260 1.358 . S
C1259 C1261 1.356 . S
C1259 H1307 0.930 . S
C1260 N1257 1.279 . S
C1260 C1259 1.358 . S
C1260 H1263 0.930 . S
C1261 C1258 1.348 . S
C1261 C1259 1.356 . S
H1262 C1256 0.930 . S
H1263 C1260 0.930 . S
C1264 C1266 1.348 . S
C1264 C1267 1.356 . S
C1264 O1294 1.325 . S
N1265 C1268 1.314 . S
N1265 C1269 1.279 . S
C1266 C1264 1.348 . S
C1266 C1268 1.353 . S
C1266 H1308 0.929 . S
C1267 C1264 1.356 . S
C1267 C1269 1.358 . S
C1267 H1309 0.930 . S
C1268 N1265 1.314 . S
C1268 C1266 1.353 . S
C1268 H1310 0.930 . S
C1269 N1265 1.279 . S
C1269 C1267 1.358 . S
C1269 H1311 0.930 . S
C1270 C1271 1.348 . S
C1270 C1272 1.356 . S
C1270 O1295 1.325 . S
C1271 C1270 1.348 . S
C1271 C1273 1.353 . S
C1271 H1312 0.929 . S
C1272 C1270 1.356 . S
C1272 C1274 1.358 . S
C1272 H1313 0.930 . S
C1273 C1271 1.353 . S
C1273 N1275 1.314 . S
C1273 H1314 0.930 . S
C1274 C1272 1.358 . S
C1274 N1275 1.279 . S
C1274 H1315 0.930 . S
N1275 C1273 1.314 . S
N1275 C1274 1.279 . S
C1276 C1278 1.353 . S
C1276 N1279 1.314 . S
C1276 H1282 0.930 . S
C1277 N1279 1.279 . S
C1277 C1280 1.358 . S
C1277 H1283 0.930 . S
C1278 C1276 1.353 . S
C1278 C1281 1.348 . S
C1278 H1316 0.929 . S
N1279 Li1234 1.990 . S
N1279 C1276 1.314 . S
N1279 C1277 1.279 . S
C1280 C1277 1.358 . S
C1280 C1281 1.356 . S
C1280 H1317 0.930 . S
C1281 C1278 1.348 . S
C1281 C1280 1.356 . S
H1282 C1276 0.930 . S
H1283 C1277 0.930 . S
C1284 N1285 1.314 . S
C1284 C1286 1.353 . S
C1284 H1290 0.930 . S
N1285 Li1235 1.990 . S
N1285 C1284 1.314 . S
N1285 C1288 1.279 . S
C1286 C1284 1.353 . S
C1286 C1289 1.348 . S
C1286 H1318 0.929 . S
C1287 C1288 1.358 . S
C1287 C1289 1.356 . S
C1287 H1319 0.930 . S
C1288 N1285 1.279 . S
C1288 C1287 1.358 . S
C1288 H1291 0.930 . S
C1289 C1286 1.348 . S
C1289 C1287 1.356 . S
H1290 C1284 0.930 . S
H1291 C1288 0.930 . S
O1292 Li1232 1.956 . S
O1292 Li1233 1.970 . S
O1292 Li1234 1.961 . S
O1292 C1236 1.325 . S
O1293 Li1232 1.970 . S
O1293 Li1233 1.956 . S
O1293 Li1235 1.961 . S
O1293 C1242 1.325 . S
O1294 Li1232 1.961 . S
O1294 Li1234 1.956 . S
O1294 Li1235 1.970 . S
O1294 C1264 1.325 . S
O1295 Li1233 1.961 . S
O1295 Li1234 1.970 . S
O1295 Li1235 1.956 . S
O1295 C1270 1.325 . S
H1296 C1238 0.929 . S
H1297 C1239 0.930 . S
H1298 C1240 0.930 . S
H1299 C1241 0.930 . S
H1300 C1243 0.930 . S
H1301 C1245 0.929 . S
H1302 C1246 0.930 . S
H1303 C1247 0.930 . S
H1304 C1250 0.930 . S
H1305 C1253 0.929 . S
H1306 C1258 0.929 . S
H1307 C1259 0.930 . S
H1308 C1266 0.929 . S
H1309 C1267 0.930 . S
H1310 C1268 0.930 . S
H1311 C1269 0.930 . S
H1312 C1271 0.929 . S
H1313 C1272 0.930 . S
H1314 C1273 0.930 . S
H1315 C1274 0.930 . S
H1316 C1278 0.929 . S
H1317 C1280 0.930 . S
H1318 C1286 0.929 . S
H1319 C1287 0.930 . S
Li1320 N1337 1.990 . S
Li1320 O1380 1.956 . S
Li1320 O1381 1.970 . S
Li1320 O1382 1.961 . S
Li1321 N1345 1.990 . S
Li1321 O1380 1.970 . S
Li1321 O1381 1.956 . S
Li1321 O1383 1.961 . S
Li1322 N1367 1.990 . S
Li1322 O1380 1.961 . S
Li1322 O1382 1.956 . S
Li1322 O1383 1.970 . S
Li1323 N1373 1.990 . S
Li1323 O1381 1.961 . S
Li1323 O1382 1.970 . S
Li1323 O1383 1.956 . S
C1324 C1326 1.348 . S
C1324 C1327 1.356 . S
C1324 O1380 1.325 . S
N1325 C1328 1.314 . S
N1325 C1329 1.279 . S
C1326 C1324 1.348 . S
C1326 C1328 1.353 . S
C1326 H1384 0.929 . S
C1327 C1324 1.356 . S
C1327 C1329 1.358 . S
C1327 H1385 0.930 . S
C1328 N1325 1.314 . S
C1328 C1326 1.353 . S
C1328 H1386 0.930 . S
C1329 N1325 1.279 . S
C1329 C1327 1.358 . S
C1329 H1387 0.930 . S
C1330 C1333 1.348 . S
C1330 C1334 1.356 . S
C1330 O1381 1.325 . S
C1331 N1332 1.279 . S
C1331 C1334 1.358 . S
C1331 H1388 0.930 . S
N1332 C1331 1.279 . S
N1332 C1335 1.314 . S
C1333 C1330 1.348 . S
C1333 C1335 1.353 . S
C1333 H1389 0.929 . S
C1334 C1330 1.356 . S
C1334 C1331 1.358 . S
C1334 H1390 0.930 . S
C1335 N1332 1.314 . S
C1335 C1333 1.353 . S
C1335 H1391 0.930 . S
C1336 N1337 1.314 . S
C1336 C1341 1.353 . S
C1336 H1342 0.930 . S
N1337 Li1320 1.990 . S
N1337 C1336 1.314 . S
N1337 C1339 1.279 . S
C1338 C1339 1.358 . S
C1338 C1340 1.356 . S
C1338 H1392 0.930 . S
C1339 N1337 1.279 . S
C1339 C1338 1.358 . S
C1339 H1343 0.930 . S
C1340 C1338 1.356 . S
C1340 C1341 1.348 . S
C1341 C1336 1.353 . S
C1341 C1340 1.348 . S
C1341 H1393 0.929 . S
H1342 C1336 0.930 . S
H1343 C1339 0.930 . S
C1344 N1345 1.314 . S
C1344 C1346 1.353 . S
C1344 H1350 0.930 . S
N1345 Li1321 1.990 . S
N1345 C1344 1.314 . S
N1345 C1348 1.279 . S
C1346 C1344 1.353 . S
C1346 C1349 1.348 . S
C1346 H1394 0.929 . S
C1347 C1348 1.358 . S
C1347 C1349 1.356 . S
C1347 H1395 0.930 . S
C1348 N1345 1.279 . S
C1348 C1347 1.358 . S
C1348 H1351 0.930 . S
C1349 C1346 1.348 . S
C1349 C1347 1.356 . S
H1350 C1344 0.930 . S
H1351 C1348 0.930 . S
C1352 C1354 1.348 . S
C1352 C1355 1.356 . S
C1352 O1382 1.325 . S
N1353 C1356 1.314 . S
N1353 C1357 1.279 . S
C1354 C1352 1.348 . S
C1354 C1356 1.353 . S
C1354 H1396 0.929 . S
C1355 C1352 1.356 . S
C1355 C1357 1.358 . S
C1355 H1397 0.930 . S
C1356 N1353 1.314 . S
C1356 C1354 1.353 . S
C1356 H1398 0.930 . S
C1357 N1353 1.279 . S
C1357 C1355 1.358 . S
C1357 H1399 0.930 . S
C1358 C1359 1.348 . S
C1358 C1360 1.356 . S
C1358 O1383 1.325 . S
C1359 C1358 1.348 . S
C1359 C1361 1.353 . S
C1359 H1400 0.929 . S
C1360 C1358 1.356 . S
C1360 C1362 1.358 . S
C1360 H1401 0.930 . S
C1361 C1359 1.353 . S
C1361 N1363 1.314 . S
C1361 H1402 0.930 . S
C1362 C1360 1.358 . S
C1362 N1363 1.279 . S
C1362 H1403 0.930 . S
N1363 C1361 1.314 . S
N1363 C1362 1.279 . S
C1364 C1366 1.353 . S
C1364 N1367 1.314 . S
C1364 H1370 0.930 . S
C1365 N1367 1.279 . S
C1365 C1368 1.358 . S
C1365 H1371 0.930 . S
C1366 C1364 1.353 . S
C1366 C1369 1.348 . S
C1366 H1404 0.929 . S
N1367 Li1322 1.990 . S
N1367 C1364 1.314 . S
N1367 C1365 1.279 . S
C1368 C1365 1.358 . S
C1368 C1369 1.356 . S
C1368 H1405 0.930 . S
C1369 C1366 1.348 . S
C1369 C1368 1.356 . S
H1370 C1364 0.930 . S
H1371 C1365 0.930 . S
C1372 N1373 1.314 . S
C1372 C1374 1.353 . S
C1372 H1378 0.930 . S
N1373 Li1323 1.990 . S
N1373 C1372 1.314 . S
N1373 C1376 1.279 . S
C1374 C1372 1.353 . S
C1374 C1377 1.348 . S
C1374 H1406 0.929 . S
C1375 C1376 1.358 . S
C1375 C1377 1.356 . S
C1375 H1407 0.930 . S
C1376 N1373 1.279 . S
C1376 C1375 1.358 . S
C1376 H1379 0.930 . S
C1377 C1374 1.348 . S
C1377 C1375 1.356 . S
H1378 C1372 0.930 . S
H1379 C1376 0.930 . S
O1380 Li1320 1.956 . S
O1380 Li1321 1.970 . S
O1380 Li1322 1.961 . S
O1380 C1324 1.325 . S
O1381 Li1320 1.970 . S
O1381 Li1321 1.956 . S
O1381 Li1323 1.961 . S
O1381 C1330 1.325 . S
O1382 Li1320 1.961 . S
O1382 Li1322 1.956 . S
O1382 Li1323 1.970 . S
O1382 C1352 1.325 . S
O1383 Li1321 1.961 . S
O1383 Li1322 1.970 . S
O1383 Li1323 1.956 . S
O1383 C1358 1.325 . S
H1384 C1326 0.929 . S
H1385 C1327 0.930 . S
H1386 C1328 0.930 . S
H1387 C1329 0.930 . S
H1388 C1331 0.930 . S
H1389 C1333 0.929 . S
H1390 C1334 0.930 . S
H1391 C1335 0.930 . S
H1392 C1338 0.930 . S
H1393 C1341 0.929 . S
H1394 C1346 0.929 . S
H1395 C1347 0.930 . S
H1396 C1354 0.929 . S
H1397 C1355 0.930 . S
H1398 C1356 0.930 . S
H1399 C1357 0.930 . S
H1400 C1359 0.929 . S
H1401 C1360 0.930 . S
H1402 C1361 0.930 . S
H1403 C1362 0.930 . S
H1404 C1366 0.929 . S
H1405 C1368 0.930 . S
H1406 C1374 0.929 . S
H1407 C1375 0.930 . S
Li1408 N1425 1.990 . S
Li1408 O1468 1.956 . S
Li1408 O1469 1.970 . S
Li1408 O1470 1.961 . S
Li1409 N1433 1.990 . S
Li1409 O1468 1.970 . S
Li1409 O1469 1.956 . S
Li1409 O1471 1.961 . S
Li1410 N1455 1.990 . S
Li1410 O1468 1.961 . S
Li1410 O1470 1.956 . S
Li1410 O1471 1.970 . S
Li1411 N1461 1.990 . S
Li1411 O1469 1.961 . S
Li1411 O1470 1.970 . S
Li1411 O1471 1.956 . S
C1412 C1414 1.348 . S
C1412 C1415 1.356 . S
C1412 O1468 1.325 . S
N1413 C1416 1.314 . S
N1413 C1417 1.279 . S
C1414 C1412 1.348 . S
C1414 C1416 1.353 . S
C1414 H1472 0.929 . S
C1415 C1412 1.356 . S
C1415 C1417 1.358 . S
C1415 H1473 0.930 . S
C1416 N1413 1.314 . S
C1416 C1414 1.353 . S
C1416 H1474 0.930 . S
C1417 N1413 1.279 . S
C1417 C1415 1.358 . S
C1417 H1475 0.930 . S
C1418 C1421 1.348 . S
C1418 C1422 1.356 . S
C1418 O1469 1.325 . S
C1419 N1420 1.279 . S
C1419 C1422 1.358 . S
C1419 H1476 0.930 . S
N1420 C1419 1.279 . S
N1420 C1423 1.314 . S
C1421 C1418 1.348 . S
C1421 C1423 1.353 . S
C1421 H1477 0.929 . S
C1422 C1418 1.356 . S
C1422 C1419 1.358 . S
C1422 H1478 0.930 . S
C1423 N1420 1.314 . S
C1423 C1421 1.353 . S
C1423 H1479 0.930 . S
C1424 N1425 1.314 . S
C1424 C1429 1.353 . S
C1424 H1430 0.930 . S
N1425 Li1408 1.990 . S
N1425 C1424 1.314 . S
N1425 C1427 1.279 . S
C1426 C1427 1.358 . S
C1426 C1428 1.356 . S
C1426 H1480 0.930 . S
C1427 N1425 1.279 . S
C1427 C1426 1.358 . S
C1427 H1431 0.930 . S
C1428 C1426 1.356 . S
C1428 C1429 1.348 . S
C1429 C1424 1.353 . S
C1429 C1428 1.348 . S
C1429 H1481 0.929 . S
H1430 C1424 0.930 . S
H1431 C1427 0.930 . S
C1432 N1433 1.314 . S
C1432 C1434 1.353 . S
C1432 H1438 0.930 . S
N1433 Li1409 1.990 . S
N1433 C1432 1.314 . S
N1433 C1436 1.279 . S
C1434 C1432 1.353 . S
C1434 C1437 1.348 . S
C1434 H1482 0.929 . S
C1435 C1436 1.358 . S
C1435 C1437 1.356 . S
C1435 H1483 0.930 . S
C1436 N1433 1.279 . S
C1436 C1435 1.358 . S
C1436 H1439 0.930 . S
C1437 C1434 1.348 . S
C1437 C1435 1.356 . S
H1438 C1432 0.930 . S
H1439 C1436 0.930 . S
C1440 C1442 1.348 . S
C1440 C1443 1.356 . S
C1440 O1470 1.325 . S
N1441 C1444 1.314 . S
N1441 C1445 1.279 . S
C1442 C1440 1.348 . S
C1442 C1444 1.353 . S
C1442 H1484 0.929 . S
C1443 C1440 1.356 . S
C1443 C1445 1.358 . S
C1443 H1485 0.930 . S
C1444 N1441 1.314 . S
C1444 C1442 1.353 . S
C1444 H1486 0.930 . S
C1445 N1441 1.279 . S
C1445 C1443 1.358 . S
C1445 H1487 0.930 . S
C1446 C1447 1.348 . S
C1446 C1448 1.356 . S
C1446 O1471 1.325 . S
C1447 C1446 1.348 . S
C1447 C1449 1.353 . S
C1447 H1488 0.929 . S
C1448 C1446 1.356 . S
C1448 C1450 1.358 . S
C1448 H1489 0.930 . S
C1449 C1447 1.353 . S
C1449 N1451 1.314 . S
C1449 H1490 0.930 . S
C1450 C1448 1.358 . S
C1450 N1451 1.279 . S
C1450 H1491 0.930 . S
N1451 C1449 1.314 . S
N1451 C1450 1.279 . S
C1452 C1454 1.353 . S
C1452 N1455 1.314 . S
C1452 H1458 0.930 . S
C1453 N1455 1.279 . S
C1453 C1456 1.358 . S
C1453 H1459 0.930 . S
C1454 C1452 1.353 . S
C1454 C1457 1.348 . S
C1454 H1492 0.929 . S
N1455 Li1410 1.990 . S
N1455 C1452 1.314 . S
N1455 C1453 1.279 . S
C1456 C1453 1.358 . S
C1456 C1457 1.356 . S
C1456 H1493 0.930 . S
C1457 C1454 1.348 . S
C1457 C1456 1.356 . S
H1458 C1452 0.930 . S
H1459 C1453 0.930 . S
C1460 N1461 1.314 . S
C1460 C1462 1.353 . S
C1460 H1466 0.930 . S
N1461 Li1411 1.990 . S
N1461 C1460 1.314 . S
N1461 C1464 1.279 . S
C1462 C1460 1.353 . S
C1462 C1465 1.348 . S
C1462 H1494 0.929 . S
C1463 C1464 1.358 . S
C1463 C1465 1.356 . S
C1463 H1495 0.930 . S
C1464 N1461 1.279 . S
C1464 C1463 1.358 . S
C1464 H1467 0.930 . S
C1465 C1462 1.348 . S
C1465 C1463 1.356 . S
H1466 C1460 0.930 . S
H1467 C1464 0.930 . S
O1468 Li1408 1.956 . S
O1468 Li1409 1.970 . S
O1468 Li1410 1.961 . S
O1468 C1412 1.325 . S
O1469 Li1408 1.970 . S
O1469 Li1409 1.956 . S
O1469 Li1411 1.961 . S
O1469 C1418 1.325 . S
O1470 Li1408 1.961 . S
O1470 Li1410 1.956 . S
O1470 Li1411 1.970 . S
O1470 C1440 1.325 . S
O1471 Li1409 1.961 . S
O1471 Li1410 1.970 . S
O1471 Li1411 1.956 . S
O1471 C1446 1.325 . S
H1472 C1414 0.929 . S
H1473 C1415 0.930 . S
H1474 C1416 0.930 . S
H1475 C1417 0.930 . S
H1476 C1419 0.930 . S
H1477 C1421 0.929 . S
H1478 C1422 0.930 . S
H1479 C1423 0.930 . S
H1480 C1426 0.930 . S
H1481 C1429 0.929 . S
H1482 C1434 0.929 . S
H1483 C1435 0.930 . S
H1484 C1442 0.929 . S
H1485 C1443 0.930 . S
H1486 C1444 0.930 . S
H1487 C1445 0.930 . S
H1488 C1447 0.929 . S
H1489 C1448 0.930 . S
H1490 C1449 0.930 . S
H1491 C1450 0.930 . S
H1492 C1454 0.929 . S
H1493 C1456 0.930 . S
H1494 C1462 0.929 . S
H1495 C1463 0.930 . S
Li1496 N1513 1.990 . S
Li1496 O1556 1.956 . S
Li1496 O1557 1.970 . S
Li1496 O1558 1.961 . S
Li1497 N1521 1.990 . S
Li1497 O1556 1.970 . S
Li1497 O1557 1.956 . S
Li1497 O1559 1.961 . S
Li1498 N1543 1.990 . S
Li1498 O1556 1.961 . S
Li1498 O1558 1.956 . S
Li1498 O1559 1.970 . S
Li1499 N1549 1.990 . S
Li1499 O1557 1.961 . S
Li1499 O1558 1.970 . S
Li1499 O1559 1.956 . S
C1500 C1502 1.348 . S
C1500 C1503 1.356 . S
C1500 O1556 1.325 . S
N1501 C1504 1.314 . S
N1501 C1505 1.279 . S
C1502 C1500 1.348 . S
C1502 C1504 1.353 . S
C1502 H1560 0.929 . S
C1503 C1500 1.356 . S
C1503 C1505 1.358 . S
C1503 H1561 0.930 . S
C1504 N1501 1.314 . S
C1504 C1502 1.353 . S
C1504 H1562 0.930 . S
C1505 N1501 1.279 . S
C1505 C1503 1.358 . S
C1505 H1563 0.930 . S
C1506 C1509 1.348 . S
C1506 C1510 1.356 . S
C1506 O1557 1.325 . S
C1507 N1508 1.279 . S
C1507 C1510 1.358 . S
C1507 H1564 0.930 . S
N1508 C1507 1.279 . S
N1508 C1511 1.314 . S
C1509 C1506 1.348 . S
C1509 C1511 1.353 . S
C1509 H1565 0.929 . S
C1510 C1506 1.356 . S
C1510 C1507 1.358 . S
C1510 H1566 0.930 . S
C1511 N1508 1.314 . S
C1511 C1509 1.353 . S
C1511 H1567 0.930 . S
C1512 N1513 1.314 . S
C1512 C1517 1.353 . S
C1512 H1518 0.930 . S
N1513 Li1496 1.990 . S
N1513 C1512 1.314 . S
N1513 C1515 1.279 . S
C1514 C1515 1.358 . S
C1514 C1516 1.356 . S
C1514 H1568 0.930 . S
C1515 N1513 1.279 . S
C1515 C1514 1.358 . S
C1515 H1519 0.930 . S
C1516 C1514 1.356 . S
C1516 C1517 1.348 . S
C1517 C1512 1.353 . S
C1517 C1516 1.348 . S
C1517 H1569 0.929 . S
H1518 C1512 0.930 . S
H1519 C1515 0.930 . S
C1520 N1521 1.314 . S
C1520 C1522 1.353 . S
C1520 H1526 0.930 . S
N1521 Li1497 1.990 . S
N1521 C1520 1.314 . S
N1521 C1524 1.279 . S
C1522 C1520 1.353 . S
C1522 C1525 1.348 . S
C1522 H1570 0.929 . S
C1523 C1524 1.358 . S
C1523 C1525 1.356 . S
C1523 H1571 0.930 . S
C1524 N1521 1.279 . S
C1524 C1523 1.358 . S
C1524 H1527 0.930 . S
C1525 C1522 1.348 . S
C1525 C1523 1.356 . S
H1526 C1520 0.930 . S
H1527 C1524 0.930 . S
C1528 C1530 1.348 . S
C1528 C1531 1.356 . S
C1528 O1558 1.325 . S
N1529 C1532 1.314 . S
N1529 C1533 1.279 . S
C1530 C1528 1.348 . S
C1530 C1532 1.353 . S
C1530 H1572 0.929 . S
C1531 C1528 1.356 . S
C1531 C1533 1.358 . S
C1531 H1573 0.930 . S
C1532 N1529 1.314 . S
C1532 C1530 1.353 . S
C1532 H1574 0.930 . S
C1533 N1529 1.279 . S
C1533 C1531 1.358 . S
C1533 H1575 0.930 . S
C1534 C1535 1.348 . S
C1534 C1536 1.356 . S
C1534 O1559 1.325 . S
C1535 C1534 1.348 . S
C1535 C1537 1.353 . S
C1535 H1576 0.929 . S
C1536 C1534 1.356 . S
C1536 C1538 1.358 . S
C1536 H1577 0.930 . S
C1537 C1535 1.353 . S
C1537 N1539 1.314 . S
C1537 H1578 0.930 . S
C1538 C1536 1.358 . S
C1538 N1539 1.279 . S
C1538 H1579 0.930 . S
N1539 C1537 1.314 . S
N1539 C1538 1.279 . S
C1540 C1542 1.353 . S
C1540 N1543 1.314 . S
C1540 H1546 0.930 . S
C1541 N1543 1.279 . S
C1541 C1544 1.358 . S
C1541 H1547 0.930 . S
C1542 C1540 1.353 . S
C1542 C1545 1.348 . S
C1542 H1580 0.929 . S
N1543 Li1498 1.990 . S
N1543 C1540 1.314 . S
N1543 C1541 1.279 . S
C1544 C1541 1.358 . S
C1544 C1545 1.356 . S
C1544 H1581 0.930 . S
C1545 C1542 1.348 . S
C1545 C1544 1.356 . S
H1546 C1540 0.930 . S
H1547 C1541 0.930 . S
C1548 N1549 1.314 . S
C1548 C1550 1.353 . S
C1548 H1554 0.930 . S
N1549 Li1499 1.990 . S
N1549 C1548 1.314 . S
N1549 C1552 1.279 . S
C1550 C1548 1.353 . S
C1550 C1553 1.348 . S
C1550 H1582 0.929 . S
C1551 C1552 1.358 . S
C1551 C1553 1.356 . S
C1551 H1583 0.930 . S
C1552 N1549 1.279 . S
C1552 C1551 1.358 . S
C1552 H1555 0.930 . S
C1553 C1550 1.348 . S
C1553 C1551 1.356 . S
H1554 C1548 0.930 . S
H1555 C1552 0.930 . S
O1556 Li1496 1.956 . S
O1556 Li1497 1.970 . S
O1556 Li1498 1.961 . S
O1556 C1500 1.325 . S
O1557 Li1496 1.970 . S
O1557 Li1497 1.956 . S
O1557 Li1499 1.961 . S
O1557 C1506 1.325 . S
O1558 Li1496 1.961 . S
O1558 Li1498 1.956 . S
O1558 Li1499 1.970 . S
O1558 C1528 1.325 . S
O1559 Li1497 1.961 . S
O1559 Li1498 1.970 . S
O1559 Li1499 1.956 . S
O1559 C1534 1.325 . S
H1560 C1502 0.929 . S
H1561 C1503 0.930 . S
H1562 C1504 0.930 . S
H1563 C1505 0.930 . S
H1564 C1507 0.930 . S
H1565 C1509 0.929 . S
H1566 C1510 0.930 . S
H1567 C1511 0.930 . S
H1568 C1514 0.930 . S
H1569 C1517 0.929 . S
H1570 C1522 0.929 . S
H1571 C1523 0.930 . S
H1572 C1530 0.929 . S
H1573 C1531 0.930 . S
H1574 C1532 0.930 . S
H1575 C1533 0.930 . S
H1576 C1535 0.929 . S
H1577 C1536 0.930 . S
H1578 C1537 0.930 . S
H1579 C1538 0.930 . S
H1580 C1542 0.929 . S
H1581 C1544 0.930 . S
H1582 C1550 0.929 . S
H1583 C1551 0.930 . S
Li1584 N1601 1.990 . S
Li1584 O1644 1.956 . S
Li1584 O1645 1.970 . S
Li1584 O1646 1.961 . S
Li1585 N1609 1.990 . S
Li1585 O1644 1.970 . S
Li1585 O1645 1.956 . S
Li1585 O1647 1.961 . S
Li1586 N1631 1.990 . S
Li1586 O1644 1.961 . S
Li1586 O1646 1.956 . S
Li1586 O1647 1.970 . S
Li1587 N1637 1.990 . S
Li1587 O1645 1.961 . S
Li1587 O1646 1.970 . S
Li1587 O1647 1.956 . S
C1588 C1590 1.348 . S
C1588 C1591 1.356 . S
C1588 O1644 1.325 . S
N1589 C1592 1.314 . S
N1589 C1593 1.279 . S
C1590 C1588 1.348 . S
C1590 C1592 1.353 . S
C1590 H1648 0.929 . S
C1591 C1588 1.356 . S
C1591 C1593 1.358 . S
C1591 H1649 0.930 . S
C1592 N1589 1.314 . S
C1592 C1590 1.353 . S
C1592 H1650 0.930 . S
C1593 N1589 1.279 . S
C1593 C1591 1.358 . S
C1593 H1651 0.930 . S
C1594 C1597 1.348 . S
C1594 C1598 1.356 . S
C1594 O1645 1.325 . S
C1595 N1596 1.279 . S
C1595 C1598 1.358 . S
C1595 H1652 0.930 . S
N1596 C1595 1.279 . S
N1596 C1599 1.314 . S
C1597 C1594 1.348 . S
C1597 C1599 1.353 . S
C1597 H1653 0.929 . S
C1598 C1594 1.356 . S
C1598 C1595 1.358 . S
C1598 H1654 0.930 . S
C1599 N1596 1.314 . S
C1599 C1597 1.353 . S
C1599 H1655 0.930 . S
C1600 N1601 1.314 . S
C1600 C1605 1.353 . S
C1600 H1606 0.930 . S
N1601 Li1584 1.990 . S
N1601 C1600 1.314 . S
N1601 C1603 1.279 . S
C1602 C1603 1.358 . S
C1602 C1604 1.356 . S
C1602 H1656 0.930 . S
C1603 N1601 1.279 . S
C1603 C1602 1.358 . S
C1603 H1607 0.930 . S
C1604 C1602 1.356 . S
C1604 C1605 1.348 . S
C1605 C1600 1.353 . S
C1605 C1604 1.348 . S
C1605 H1657 0.929 . S
H1606 C1600 0.930 . S
H1607 C1603 0.930 . S
C1608 N1609 1.314 . S
C1608 C1610 1.353 . S
C1608 H1614 0.930 . S
N1609 Li1585 1.990 . S
N1609 C1608 1.314 . S
N1609 C1612 1.279 . S
C1610 C1608 1.353 . S
C1610 C1613 1.348 . S
C1610 H1658 0.929 . S
C1611 C1612 1.358 . S
C1611 C1613 1.356 . S
C1611 H1659 0.930 . S
C1612 N1609 1.279 . S
C1612 C1611 1.358 . S
C1612 H1615 0.930 . S
C1613 C1610 1.348 . S
C1613 C1611 1.356 . S
H1614 C1608 0.930 . S
H1615 C1612 0.930 . S
C1616 C1618 1.348 . S
C1616 C1619 1.356 . S
C1616 O1646 1.325 . S
N1617 C1620 1.314 . S
N1617 C1621 1.279 . S
C1618 C1616 1.348 . S
C1618 C1620 1.353 . S
C1618 H1660 0.929 . S
C1619 C1616 1.356 . S
C1619 C1621 1.358 . S
C1619 H1661 0.930 . S
C1620 N1617 1.314 . S
C1620 C1618 1.353 . S
C1620 H1662 0.930 . S
C1621 N1617 1.279 . S
C1621 C1619 1.358 . S
C1621 H1663 0.930 . S
C1622 C1623 1.348 . S
C1622 C1624 1.356 . S
C1622 O1647 1.325 . S
C1623 C1622 1.348 . S
C1623 C1625 1.353 . S
C1623 H1664 0.929 . S
C1624 C1622 1.356 . S
C1624 C1626 1.358 . S
C1624 H1665 0.930 . S
C1625 C1623 1.353 . S
C1625 N1627 1.314 . S
C1625 H1666 0.930 . S
C1626 C1624 1.358 . S
C1626 N1627 1.279 . S
C1626 H1667 0.930 . S
N1627 C1625 1.314 . S
N1627 C1626 1.279 . S
C1628 C1630 1.353 . S
C1628 N1631 1.314 . S
C1628 H1634 0.930 . S
C1629 N1631 1.279 . S
C1629 C1632 1.358 . S
C1629 H1635 0.930 . S
C1630 C1628 1.353 . S
C1630 C1633 1.348 . S
C1630 H1668 0.929 . S
N1631 Li1586 1.990 . S
N1631 C1628 1.314 . S
N1631 C1629 1.279 . S
C1632 C1629 1.358 . S
C1632 C1633 1.356 . S
C1632 H1669 0.930 . S
C1633 C1630 1.348 . S
C1633 C1632 1.356 . S
H1634 C1628 0.930 . S
H1635 C1629 0.930 . S
C1636 N1637 1.314 . S
C1636 C1638 1.353 . S
C1636 H1642 0.930 . S
N1637 Li1587 1.990 . S
N1637 C1636 1.314 . S
N1637 C1640 1.279 . S
C1638 C1636 1.353 . S
C1638 C1641 1.348 . S
C1638 H1670 0.929 . S
C1639 C1640 1.358 . S
C1639 C1641 1.356 . S
C1639 H1671 0.930 . S
C1640 N1637 1.279 . S
C1640 C1639 1.358 . S
C1640 H1643 0.930 . S
C1641 C1638 1.348 . S
C1641 C1639 1.356 . S
H1642 C1636 0.930 . S
H1643 C1640 0.930 . S
O1644 Li1584 1.956 . S
O1644 Li1585 1.970 . S
O1644 Li1586 1.961 . S
O1644 C1588 1.325 . S
O1645 Li1584 1.970 . S
O1645 Li1585 1.956 . S
O1645 Li1587 1.961 . S
O1645 C1594 1.325 . S
O1646 Li1584 1.961 . S
O1646 Li1586 1.956 . S
O1646 Li1587 1.970 . S
O1646 C1616 1.325 . S
O1647 Li1585 1.961 . S
O1647 Li1586 1.970 . S
O1647 Li1587 1.956 . S
O1647 C1622 1.325 . S
H1648 C1590 0.929 . S
H1649 C1591 0.930 . S
H1650 C1592 0.930 . S
H1651 C1593 0.930 . S
H1652 C1595 0.930 . S
H1653 C1597 0.929 . S
H1654 C1598 0.930 . S
H1655 C1599 0.930 . S
H1656 C1602 0.930 . S
H1657 C1605 0.929 . S
H1658 C1610 0.929 . S
H1659 C1611 0.930 . S
H1660 C1618 0.929 . S
H1661 C1619 0.930 . S
H1662 C1620 0.930 . S
H1663 C1621 0.930 . S
H1664 C1623 0.929 . S
H1665 C1624 0.930 . S
H1666 C1625 0.930 . S
H1667 C1626 0.930 . S
H1668 C1630 0.929 . S
H1669 C1632 0.930 . S
H1670 C1638 0.929 . S
H1671 C1639 0.930 . S
Li1672 N1689 1.990 . S
Li1672 O1732 1.956 . S
Li1672 O1733 1.970 . S
Li1672 O1734 1.961 . S
Li1673 N1697 1.990 . S
Li1673 O1732 1.970 . S
Li1673 O1733 1.956 . S
Li1673 O1735 1.961 . S
Li1674 N1719 1.990 . S
Li1674 O1732 1.961 . S
Li1674 O1734 1.956 . S
Li1674 O1735 1.970 . S
Li1675 N1725 1.990 . S
Li1675 O1733 1.961 . S
Li1675 O1734 1.970 . S
Li1675 O1735 1.956 . S
C1676 C1678 1.348 . S
C1676 C1679 1.356 . S
C1676 O1732 1.325 . S
N1677 C1680 1.314 . S
N1677 C1681 1.279 . S
C1678 C1676 1.348 . S
C1678 C1680 1.353 . S
C1678 H1736 0.929 . S
C1679 C1676 1.356 . S
C1679 C1681 1.358 . S
C1679 H1737 0.930 . S
C1680 N1677 1.314 . S
C1680 C1678 1.353 . S
C1680 H1738 0.930 . S
C1681 N1677 1.279 . S
C1681 C1679 1.358 . S
C1681 H1739 0.930 . S
C1682 C1685 1.348 . S
C1682 C1686 1.356 . S
C1682 O1733 1.325 . S
C1683 N1684 1.279 . S
C1683 C1686 1.358 . S
C1683 H1740 0.930 . S
N1684 C1683 1.279 . S
N1684 C1687 1.314 . S
C1685 C1682 1.348 . S
C1685 C1687 1.353 . S
C1685 H1741 0.929 . S
C1686 C1682 1.356 . S
C1686 C1683 1.358 . S
C1686 H1742 0.930 . S
C1687 N1684 1.314 . S
C1687 C1685 1.353 . S
C1687 H1743 0.930 . S
C1688 N1689 1.314 . S
C1688 C1693 1.353 . S
C1688 H1694 0.930 . S
N1689 Li1672 1.990 . S
N1689 C1688 1.314 . S
N1689 C1691 1.279 . S
C1690 C1691 1.358 . S
C1690 C1692 1.356 . S
C1690 H1744 0.930 . S
C1691 N1689 1.279 . S
C1691 C1690 1.358 . S
C1691 H1695 0.930 . S
C1692 C1690 1.356 . S
C1692 C1693 1.348 . S
C1693 C1688 1.353 . S
C1693 C1692 1.348 . S
C1693 H1745 0.929 . S
H1694 C1688 0.930 . S
H1695 C1691 0.930 . S
C1696 N1697 1.314 . S
C1696 C1698 1.353 . S
C1696 H1702 0.930 . S
N1697 Li1673 1.990 . S
N1697 C1696 1.314 . S
N1697 C1700 1.279 . S
C1698 C1696 1.353 . S
C1698 C1701 1.348 . S
C1698 H1746 0.929 . S
C1699 C1700 1.358 . S
C1699 C1701 1.356 . S
C1699 H1747 0.930 . S
C1700 N1697 1.279 . S
C1700 C1699 1.358 . S
C1700 H1703 0.930 . S
C1701 C1698 1.348 . S
C1701 C1699 1.356 . S
H1702 C1696 0.930 . S
H1703 C1700 0.930 . S
C1704 C1706 1.348 . S
C1704 C1707 1.356 . S
C1704 O1734 1.325 . S
N1705 C1708 1.314 . S
N1705 C1709 1.279 . S
C1706 C1704 1.348 . S
C1706 C1708 1.353 . S
C1706 H1748 0.929 . S
C1707 C1704 1.356 . S
C1707 C1709 1.358 . S
C1707 H1749 0.930 . S
C1708 N1705 1.314 . S
C1708 C1706 1.353 . S
C1708 H1750 0.930 . S
C1709 N1705 1.279 . S
C1709 C1707 1.358 . S
C1709 H1751 0.930 . S
C1710 C1711 1.348 . S
C1710 C1712 1.356 . S
C1710 O1735 1.325 . S
C1711 C1710 1.348 . S
C1711 C1713 1.353 . S
C1711 H1752 0.929 . S
C1712 C1710 1.356 . S
C1712 C1714 1.358 . S
C1712 H1753 0.930 . S
C1713 C1711 1.353 . S
C1713 N1715 1.314 . S
C1713 H1754 0.930 . S
C1714 C1712 1.358 . S
C1714 N1715 1.279 . S
C1714 H1755 0.930 . S
N1715 C1713 1.314 . S
N1715 C1714 1.279 . S
C1716 C1718 1.353 . S
C1716 N1719 1.314 . S
C1716 H1722 0.930 . S
C1717 N1719 1.279 . S
C1717 C1720 1.358 . S
C1717 H1723 0.930 . S
C1718 C1716 1.353 . S
C1718 C1721 1.348 . S
C1718 H1756 0.929 . S
N1719 Li1674 1.990 . S
N1719 C1716 1.314 . S
N1719 C1717 1.279 . S
C1720 C1717 1.358 . S
C1720 C1721 1.356 . S
C1720 H1757 0.930 . S
C1721 C1718 1.348 . S
C1721 C1720 1.356 . S
H1722 C1716 0.930 . S
H1723 C1717 0.930 . S
C1724 N1725 1.314 . S
C1724 C1726 1.353 . S
C1724 H1730 0.930 . S
N1725 Li1675 1.990 . S
N1725 C1724 1.314 . S
N1725 C1728 1.279 . S
C1726 C1724 1.353 . S
C1726 C1729 1.348 . S
C1726 H1758 0.929 . S
C1727 C1728 1.358 . S
C1727 C1729 1.356 . S
C1727 H1759 0.930 . S
C1728 N1725 1.279 . S
C1728 C1727 1.358 . S
C1728 H1731 0.930 . S
C1729 C1726 1.348 . S
C1729 C1727 1.356 . S
H1730 C1724 0.930 . S
H1731 C1728 0.930 . S
O1732 Li1672 1.956 . S
O1732 Li1673 1.970 . S
O1732 Li1674 1.961 . S
O1732 C1676 1.325 . S
O1733 Li1672 1.970 . S
O1733 Li1673 1.956 . S
O1733 Li1675 1.961 . S
O1733 C1682 1.325 . S
O1734 Li1672 1.961 . S
O1734 Li1674 1.956 . S
O1734 Li1675 1.970 . S
O1734 C1704 1.325 . S
O1735 Li1673 1.961 . S
O1735 Li1674 1.970 . S
O1735 Li1675 1.956 . S
O1735 C1710 1.325 . S
H1736 C1678 0.929 . S
H1737 C1679 0.930 . S
H1738 C1680 0.930 . S
H1739 C1681 0.930 . S
H1740 C1683 0.930 . S
H1741 C1685 0.929 . S
H1742 C1686 0.930 . S
H1743 C1687 0.930 . S
H1744 C1690 0.930 . S
H1745 C1693 0.929 . S
H1746 C1698 0.929 . S
H1747 C1699 0.930 . S
H1748 C1706 0.929 . S
H1749 C1707 0.930 . S
H1750 C1708 0.930 . S
H1751 C1709 0.930 . S
H1752 C1711 0.929 . S
H1753 C1712 0.930 . S
H1754 C1713 0.930 . S
H1755 C1714 0.930 . S
H1756 C1718 0.929 . S
H1757 C1720 0.930 . S
H1758 C1726 0.929 . S
H1759 C1727 0.930 . S
Li1760 N1777 1.990 . S
Li1760 O1820 1.956 . S
Li1760 O1821 1.970 . S
Li1760 O1822 1.961 . S
Li1761 N1785 1.990 . S
Li1761 O1820 1.970 . S
Li1761 O1821 1.956 . S
Li1761 O1823 1.961 . S
Li1762 N1807 1.990 . S
Li1762 O1820 1.961 . S
Li1762 O1822 1.956 . S
Li1762 O1823 1.970 . S
Li1763 N1813 1.990 . S
Li1763 O1821 1.961 . S
Li1763 O1822 1.970 . S
Li1763 O1823 1.956 . S
C1764 C1766 1.348 . S
C1764 C1767 1.356 . S
C1764 O1820 1.325 . S
N1765 C1768 1.314 . S
N1765 C1769 1.279 . S
C1766 C1764 1.348 . S
C1766 C1768 1.353 . S
C1766 H1824 0.929 . S
C1767 C1764 1.356 . S
C1767 C1769 1.358 . S
C1767 H1825 0.930 . S
C1768 N1765 1.314 . S
C1768 C1766 1.353 . S
C1768 H1826 0.930 . S
C1769 N1765 1.279 . S
C1769 C1767 1.358 . S
C1769 H1827 0.930 . S
C1770 C1773 1.348 . S
C1770 C1774 1.356 . S
C1770 O1821 1.325 . S
C1771 N1772 1.279 . S
C1771 C1774 1.358 . S
C1771 H1828 0.930 . S
N1772 C1771 1.279 . S
N1772 C1775 1.314 . S
C1773 C1770 1.348 . S
C1773 C1775 1.353 . S
C1773 H1829 0.929 . S
C1774 C1770 1.356 . S
C1774 C1771 1.358 . S
C1774 H1830 0.930 . S
C1775 N1772 1.314 . S
C1775 C1773 1.353 . S
C1775 H1831 0.930 . S
C1776 N1777 1.314 . S
C1776 C1781 1.353 . S
C1776 H1782 0.930 . S
N1777 Li1760 1.990 . S
N1777 C1776 1.314 . S
N1777 C1779 1.279 . S
C1778 C1779 1.358 . S
C1778 C1780 1.356 . S
C1778 H1832 0.930 . S
C1779 N1777 1.279 . S
C1779 C1778 1.358 . S
C1779 H1783 0.930 . S
C1780 C1778 1.356 . S
C1780 C1781 1.348 . S
C1781 C1776 1.353 . S
C1781 C1780 1.348 . S
C1781 H1833 0.929 . S
H1782 C1776 0.930 . S
H1783 C1779 0.930 . S
C1784 N1785 1.314 . S
C1784 C1786 1.353 . S
C1784 H1790 0.930 . S
N1785 Li1761 1.990 . S
N1785 C1784 1.314 . S
N1785 C1788 1.279 . S
C1786 C1784 1.353 . S
C1786 C1789 1.348 . S
C1786 H1834 0.929 . S
C1787 C1788 1.358 . S
C1787 C1789 1.356 . S
C1787 H1835 0.930 . S
C1788 N1785 1.279 . S
C1788 C1787 1.358 . S
C1788 H1791 0.930 . S
C1789 C1786 1.348 . S
C1789 C1787 1.356 . S
H1790 C1784 0.930 . S
H1791 C1788 0.930 . S
C1792 C1794 1.348 . S
C1792 C1795 1.356 . S
C1792 O1822 1.325 . S
N1793 C1796 1.314 . S
N1793 C1797 1.279 . S
C1794 C1792 1.348 . S
C1794 C1796 1.353 . S
C1794 H1836 0.929 . S
C1795 C1792 1.356 . S
C1795 C1797 1.358 . S
C1795 H1837 0.930 . S
C1796 N1793 1.314 . S
C1796 C1794 1.353 . S
C1796 H1838 0.930 . S
C1797 N1793 1.279 . S
C1797 C1795 1.358 . S
C1797 H1839 0.930 . S
C1798 C1799 1.348 . S
C1798 C1800 1.356 . S
C1798 O1823 1.325 . S
C1799 C1798 1.348 . S
C1799 C1801 1.353 . S
C1799 H1840 0.929 . S
C1800 C1798 1.356 . S
C1800 C1802 1.358 . S
C1800 H1841 0.930 . S
C1801 C1799 1.353 . S
C1801 N1803 1.314 . S
C1801 H1842 0.930 . S
C1802 C1800 1.358 . S
C1802 N1803 1.279 . S
C1802 H1843 0.930 . S
N1803 C1801 1.314 . S
N1803 C1802 1.279 . S
C1804 C1806 1.353 . S
C1804 N1807 1.314 . S
C1804 H1810 0.930 . S
C1805 N1807 1.279 . S
C1805 C1808 1.358 . S
C1805 H1811 0.930 . S
C1806 C1804 1.353 . S
C1806 C1809 1.348 . S
C1806 H1844 0.929 . S
N1807 Li1762 1.990 . S
N1807 C1804 1.314 . S
N1807 C1805 1.279 . S
C1808 C1805 1.358 . S
C1808 C1809 1.356 . S
C1808 H1845 0.930 . S
C1809 C1806 1.348 . S
C1809 C1808 1.356 . S
H1810 C1804 0.930 . S
H1811 C1805 0.930 . S
C1812 N1813 1.314 . S
C1812 C1814 1.353 . S
C1812 H1818 0.930 . S
N1813 Li1763 1.990 . S
N1813 C1812 1.314 . S
N1813 C1816 1.279 . S
C1814 C1812 1.353 . S
C1814 C1817 1.348 . S
C1814 H1846 0.929 . S
C1815 C1816 1.358 . S
C1815 C1817 1.356 . S
C1815 H1847 0.930 . S
C1816 N1813 1.279 . S
C1816 C1815 1.358 . S
C1816 H1819 0.930 . S
C1817 C1814 1.348 . S
C1817 C1815 1.356 . S
H1818 C1812 0.930 . S
H1819 C1816 0.930 . S
O1820 Li1760 1.956 . S
O1820 Li1761 1.970 . S
O1820 Li1762 1.961 . S
O1820 C1764 1.325 . S
O1821 Li1760 1.970 . S
O1821 Li1761 1.956 . S
O1821 Li1763 1.961 . S
O1821 C1770 1.325 . S
O1822 Li1760 1.961 . S
O1822 Li1762 1.956 . S
O1822 Li1763 1.970 . S
O1822 C1792 1.325 . S
O1823 Li1761 1.961 . S
O1823 Li1762 1.970 . S
O1823 Li1763 1.956 . S
O1823 C1798 1.325 . S
H1824 C1766 0.929 . S
H1825 C1767 0.930 . S
H1826 C1768 0.930 . S
H1827 C1769 0.930 . S
H1828 C1771 0.930 . S
H1829 C1773 0.929 . S
H1830 C1774 0.930 . S
H1831 C1775 0.930 . S
H1832 C1778 0.930 . S
H1833 C1781 0.929 . S
H1834 C1786 0.929 . S
H1835 C1787 0.930 . S
H1836 C1794 0.929 . S
H1837 C1795 0.930 . S
H1838 C1796 0.930 . S
H1839 C1797 0.930 . S
H1840 C1799 0.929 . S
H1841 C1800 0.930 . S
H1842 C1801 0.930 . S
H1843 C1802 0.930 . S
H1844 C1806 0.929 . S
H1845 C1808 0.930 . S
H1846 C1814 0.929 . S
H1847 C1815 0.930 . S
Li1848 N1865 1.990 1_556 S
Li1848 O1908 1.956 . S
Li1848 O1909 1.970 . S
Li1848 O1910 1.961 . S
Li1849 N1873 1.990 . S
Li1849 O1908 1.970 . S
Li1849 O1909 1.956 . S
Li1849 O1911 1.961 . S
Li1850 N1895 1.990 . S
Li1850 O1908 1.961 . S
Li1850 O1910 1.956 . S
Li1850 O1911 1.970 . S
Li1851 N1901 1.990 . S
Li1851 O1909 1.961 . S
Li1851 O1910 1.970 . S
Li1851 O1911 1.956 . S
C1852 C1854 1.348 1_556 S
C1852 C1855 1.352 1_556 S
C1852 O1908 1.325 . S
N1853 C1856 1.314 . S
N1853 C1857 1.279 . S
C1854 C1852 1.348 1_554 S
C1854 C1856 1.353 . S
C1854 H1912 0.929 . S
C1855 C1852 1.352 1_554 S
C1855 C1857 1.368 . S
C1855 H1913 0.924 1_554 S
C1856 N1853 1.314 . S
C1856 C1854 1.353 . S
C1856 H1914 0.930 . S
C1857 N1853 1.279 . S
C1857 C1855 1.368 . S
C1857 H1915 0.930 . S
C1858 C1861 1.348 . S
C1858 C1862 1.356 . S
C1858 O1909 1.325 . S
C1859 N1860 1.279 . S
C1859 C1862 1.358 . S
C1859 H1916 0.930 . S
N1860 C1859 1.279 . S
N1860 C1863 1.322 . S
C1861 C1858 1.348 . S
C1861 C1863 1.356 . S
C1861 H1917 0.929 1_556 S
C1862 C1858 1.356 . S
C1862 C1859 1.358 . S
C1862 H1918 0.930 . S
C1863 N1860 1.322 . S
C1863 C1861 1.356 . S
C1863 H1919 0.917 1_556 S
C1864 N1865 1.314 . S
C1864 C1869 1.353 . S
C1864 H1870 0.930 1_554 S
N1865 Li1848 1.990 1_554 S
N1865 C1864 1.314 . S
N1865 C1867 1.279 . S
C1866 C1867 1.358 . S
C1866 C1868 1.356 . S
C1866 H1920 0.930 . S
C1867 N1865 1.279 . S
C1867 C1866 1.358 . S
C1867 H1871 0.930 . S
C1868 C1866 1.356 . S
C1868 C1869 1.348 . S
C1869 C1864 1.353 . S
C1869 C1868 1.348 . S
C1869 H1921 0.929 . S
H1870 C1864 0.930 1_556 S
H1871 C1867 0.930 . S
C1872 N1873 1.314 . S
C1872 C1874 1.353 . S
C1872 H1878 0.930 . S
N1873 Li1849 1.990 . S
N1873 C1872 1.314 . S
N1873 C1876 1.279 . S
C1874 C1872 1.353 . S
C1874 C1877 1.348 . S
C1874 H1922 0.929 . S
C1875 C1876 1.358 . S
C1875 C1877 1.356 . S
C1875 H1923 0.930 . S
C1876 N1873 1.279 . S
C1876 C1875 1.358 . S
C1876 H1879 0.930 . S
C1877 C1874 1.348 . S
C1877 C1875 1.356 . S
H1878 C1872 0.930 . S
H1879 C1876 0.930 . S
C1880 C1882 1.348 . S
C1880 C1883 1.356 . S
C1880 O1910 1.325 . S
N1881 C1884 1.314 . S
N1881 C1885 1.279 . S
C1882 C1880 1.348 . S
C1882 C1884 1.353 . S
C1882 H1924 0.929 . S
C1883 C1880 1.356 . S
C1883 C1885 1.358 . S
C1883 H1925 0.930 . S
C1884 N1881 1.314 . S
C1884 C1882 1.353 . S
C1884 H1926 0.930 . S
C1885 N1881 1.279 . S
C1885 C1883 1.358 . S
C1885 H1927 0.930 . S
C1886 C1887 1.348 . S
C1886 C1888 1.356 . S
C1886 O1911 1.325 . S
C1887 C1886 1.348 . S
C1887 C1889 1.353 . S
C1887 H1928 0.929 . S
C1888 C1886 1.356 . S
C1888 C1890 1.358 . S
C1888 H1929 0.930 . S
C1889 C1887 1.353 . S
C1889 N1891 1.314 . S
C1889 H1930 0.930 . S
C1890 C1888 1.358 . S
C1890 N1891 1.279 . S
C1890 H1931 0.930 . S
N1891 C1889 1.314 . S
N1891 C1890 1.279 . S
C1892 C1894 1.353 . S
C1892 N1895 1.314 . S
C1892 H1898 0.930 . S
C1893 N1895 1.279 . S
C1893 C1896 1.358 . S
C1893 H1899 0.930 . S
C1894 C1892 1.353 . S
C1894 C1897 1.348 . S
C1894 H1932 0.929 . S
N1895 Li1850 1.990 . S
N1895 C1892 1.314 . S
N1895 C1893 1.279 . S
C1896 C1893 1.358 . S
C1896 C1897 1.356 . S
C1896 H1933 0.930 . S
C1897 C1894 1.348 . S
C1897 C1896 1.356 . S
H1898 C1892 0.930 . S
H1899 C1893 0.930 . S
C1900 N1901 1.314 . S
C1900 C1902 1.353 . S
C1900 H1906 0.930 . S
N1901 Li1851 1.990 . S
N1901 C1900 1.314 . S
N1901 C1904 1.279 . S
C1902 C1900 1.353 . S
C1902 C1905 1.348 . S
C1902 H1934 0.929 . S
C1903 C1904 1.358 . S
C1903 C1905 1.356 . S
C1903 H1935 0.930 . S
C1904 N1901 1.279 . S
C1904 C1903 1.358 . S
C1904 H1907 0.930 . S
C1905 C1902 1.348 . S
C1905 C1903 1.356 . S
H1906 C1900 0.930 . S
H1907 C1904 0.930 . S
O1908 Li1848 1.956 . S
O1908 Li1849 1.970 . S
O1908 Li1850 1.961 . S
O1908 C1852 1.325 . S
O1909 Li1848 1.970 . S
O1909 Li1849 1.956 . S
O1909 Li1851 1.961 . S
O1909 C1858 1.325 . S
O1910 Li1848 1.961 . S
O1910 Li1850 1.956 . S
O1910 Li1851 1.970 . S
O1910 C1880 1.325 . S
O1911 Li1849 1.961 . S
O1911 Li1850 1.970 . S
O1911 Li1851 1.956 . S
O1911 C1886 1.325 . S
H1912 C1854 0.929 . S
H1913 C1855 0.924 1_556 S
H1914 C1856 0.930 . S
H1915 C1857 0.930 . S
H1916 C1859 0.930 . S
H1917 C1861 0.929 1_554 S
H1918 C1862 0.930 . S
H1919 C1863 0.917 1_554 S
H1920 C1866 0.930 . S
H1921 C1869 0.929 . S
H1922 C1874 0.929 . S
H1923 C1875 0.930 . S
H1924 C1882 0.929 . S
H1925 C1883 0.930 . S
H1926 C1884 0.930 . S
H1927 C1885 0.930 . S
H1928 C1887 0.929 . S
H1929 C1888 0.930 . S
H1930 C1889 0.930 . S
H1931 C1890 0.930 . S
H1932 C1894 0.929 . S
H1933 C1896 0.930 . S
H1934 C1902 0.929 . S
H1935 C1903 0.930 . S
Li1936 N1953 1.990 1_556 S
Li1936 O1996 1.956 . S
Li1936 O1997 1.970 . S
Li1936 O1998 1.961 . S
Li1937 N1961 1.990 . S
Li1937 O1996 1.970 . S
Li1937 O1997 1.956 . S
Li1937 O1999 1.961 . S
Li1938 N1983 1.990 . S
Li1938 O1996 1.961 . S
Li1938 O1998 1.956 . S
Li1938 O1999 1.970 . S
Li1939 N1989 1.990 . S
Li1939 O1997 1.961 . S
Li1939 O1998 1.970 . S
Li1939 O1999 1.956 . S
C1940 C1942 1.348 1_556 S
C1940 C1943 1.352 1_556 S
C1940 O1996 1.325 . S
N1941 C1944 1.314 . S
N1941 C1945 1.279 . S
C1942 C1940 1.348 1_554 S
C1942 C1944 1.353 . S
C1942 H2000 0.929 . S
C1943 C1940 1.352 1_554 S
C1943 C1945 1.368 . S
C1943 H2001 0.924 1_554 S
C1944 N1941 1.314 . S
C1944 C1942 1.353 . S
C1944 H2002 0.930 . S
C1945 N1941 1.279 . S
C1945 C1943 1.368 . S
C1945 H2003 0.930 . S
C1946 C1949 1.348 . S
C1946 C1950 1.356 . S
C1946 O1997 1.325 . S
C1947 N1948 1.279 . S
C1947 C1950 1.358 . S
C1947 H2004 0.930 . S
N1948 C1947 1.279 . S
N1948 C1951 1.322 . S
C1949 C1946 1.348 . S
C1949 C1951 1.356 . S
C1949 H2005 0.929 1_556 S
C1950 C1946 1.356 . S
C1950 C1947 1.358 . S
C1950 H2006 0.930 . S
C1951 N1948 1.322 . S
C1951 C1949 1.356 . S
C1951 H2007 0.917 1_556 S
C1952 N1953 1.314 . S
C1952 C1957 1.353 . S
C1952 H1958 0.930 1_554 S
N1953 Li1936 1.990 1_554 S
N1953 C1952 1.314 . S
N1953 C1955 1.279 . S
C1954 C1955 1.358 . S
C1954 C1956 1.356 . S
C1954 H2008 0.930 . S
C1955 N1953 1.279 . S
C1955 C1954 1.358 . S
C1955 H1959 0.930 . S
C1956 C1954 1.356 . S
C1956 C1957 1.348 . S
C1957 C1952 1.353 . S
C1957 C1956 1.348 . S
C1957 H2009 0.929 . S
H1958 C1952 0.930 1_556 S
H1959 C1955 0.930 . S
C1960 N1961 1.314 . S
C1960 C1962 1.353 . S
C1960 H1966 0.930 . S
N1961 Li1937 1.990 . S
N1961 C1960 1.314 . S
N1961 C1964 1.279 . S
C1962 C1960 1.353 . S
C1962 C1965 1.348 . S
C1962 H2010 0.929 . S
C1963 C1964 1.358 . S
C1963 C1965 1.356 . S
C1963 H2011 0.930 . S
C1964 N1961 1.279 . S
C1964 C1963 1.358 . S
C1964 H1967 0.930 . S
C1965 C1962 1.348 . S
C1965 C1963 1.356 . S
H1966 C1960 0.930 . S
H1967 C1964 0.930 . S
C1968 C1970 1.348 . S
C1968 C1971 1.356 . S
C1968 O1998 1.325 . S
N1969 C1972 1.314 . S
N1969 C1973 1.279 . S
C1970 C1968 1.348 . S
C1970 C1972 1.353 . S
C1970 H2012 0.929 . S
C1971 C1968 1.356 . S
C1971 C1973 1.358 . S
C1971 H2013 0.930 . S
C1972 N1969 1.314 . S
C1972 C1970 1.353 . S
C1972 H2014 0.930 . S
C1973 N1969 1.279 . S
C1973 C1971 1.358 . S
C1973 H2015 0.930 . S
C1974 C1975 1.348 . S
C1974 C1976 1.356 . S
C1974 O1999 1.325 . S
C1975 C1974 1.348 . S
C1975 C1977 1.353 . S
C1975 H2016 0.929 . S
C1976 C1974 1.356 . S
C1976 C1978 1.358 . S
C1976 H2017 0.930 . S
C1977 C1975 1.353 . S
C1977 N1979 1.314 . S
C1977 H2018 0.930 . S
C1978 C1976 1.358 . S
C1978 N1979 1.279 . S
C1978 H2019 0.930 . S
N1979 C1977 1.314 . S
N1979 C1978 1.279 . S
C1980 C1982 1.353 . S
C1980 N1983 1.314 . S
C1980 H1986 0.930 . S
C1981 N1983 1.279 . S
C1981 C1984 1.358 . S
C1981 H1987 0.930 . S
C1982 C1980 1.353 . S
C1982 C1985 1.348 . S
C1982 H2020 0.929 . S
N1983 Li1938 1.990 . S
N1983 C1980 1.314 . S
N1983 C1981 1.279 . S
C1984 C1981 1.358 . S
C1984 C1985 1.356 . S
C1984 H2021 0.930 . S
C1985 C1982 1.348 . S
C1985 C1984 1.356 . S
H1986 C1980 0.930 . S
H1987 C1981 0.930 . S
C1988 N1989 1.314 . S
C1988 C1990 1.353 . S
C1988 H1994 0.930 . S
N1989 Li1939 1.990 . S
N1989 C1988 1.314 . S
N1989 C1992 1.279 . S
C1990 C1988 1.353 . S
C1990 C1993 1.348 . S
C1990 H2022 0.929 . S
C1991 C1992 1.358 . S
C1991 C1993 1.356 . S
C1991 H2023 0.930 . S
C1992 N1989 1.279 . S
C1992 C1991 1.358 . S
C1992 H1995 0.930 . S
C1993 C1990 1.348 . S
C1993 C1991 1.356 . S
H1994 C1988 0.930 . S
H1995 C1992 0.930 . S
O1996 Li1936 1.956 . S
O1996 Li1937 1.970 . S
O1996 Li1938 1.961 . S
O1996 C1940 1.325 . S
O1997 Li1936 1.970 . S
O1997 Li1937 1.956 . S
O1997 Li1939 1.961 . S
O1997 C1946 1.325 . S
O1998 Li1936 1.961 . S
O1998 Li1938 1.956 . S
O1998 Li1939 1.970 . S
O1998 C1968 1.325 . S
O1999 Li1937 1.961 . S
O1999 Li1938 1.970 . S
O1999 Li1939 1.956 . S
O1999 C1974 1.325 . S
H2000 C1942 0.929 . S
H2001 C1943 0.924 1_556 S
H2002 C1944 0.930 . S
H2003 C1945 0.930 . S
H2004 C1947 0.930 . S
H2005 C1949 0.929 1_554 S
H2006 C1950 0.930 . S
H2007 C1951 0.917 1_554 S
H2008 C1954 0.930 . S
H2009 C1957 0.929 . S
H2010 C1962 0.929 . S
H2011 C1963 0.930 . S
H2012 C1970 0.929 . S
H2013 C1971 0.930 . S
H2014 C1972 0.930 . S
H2015 C1973 0.930 . S
H2016 C1975 0.929 . S
H2017 C1976 0.930 . S
H2018 C1977 0.930 . S
H2019 C1978 0.930 . S
H2020 C1982 0.929 . S
H2021 C1984 0.930 . S
H2022 C1990 0.929 . S
H2023 C1991 0.930 . S
Li2024 N2041 1.990 1_556 S
Li2024 O2084 1.956 . S
Li2024 O2085 1.970 . S
Li2024 O2086 1.961 . S
Li2025 N2049 1.990 . S
Li2025 O2084 1.970 . S
Li2025 O2085 1.956 . S
Li2025 O2087 1.961 . S
Li2026 N2071 1.990 . S
Li2026 O2084 1.961 . S
Li2026 O2086 1.956 . S
Li2026 O2087 1.970 . S
Li2027 N2077 1.990 . S
Li2027 O2085 1.961 . S
Li2027 O2086 1.970 . S
Li2027 O2087 1.956 . S
C2028 C2030 1.348 1_556 S
C2028 C2031 1.352 1_556 S
C2028 O2084 1.325 . S
N2029 C2032 1.314 . S
N2029 C2033 1.279 . S
C2030 C2028 1.348 1_554 S
C2030 C2032 1.353 . S
C2030 H2088 0.929 . S
C2031 C2028 1.352 1_554 S
C2031 C2033 1.368 . S
C2031 H2089 0.924 1_554 S
C2032 N2029 1.314 . S
C2032 C2030 1.353 . S
C2032 H2090 0.930 . S
C2033 N2029 1.279 . S
C2033 C2031 1.368 . S
C2033 H2091 0.930 . S
C2034 C2037 1.348 . S
C2034 C2038 1.356 . S
C2034 O2085 1.325 . S
C2035 N2036 1.279 . S
C2035 C2038 1.358 . S
C2035 H2092 0.930 . S
N2036 C2035 1.279 . S
N2036 C2039 1.322 . S
C2037 C2034 1.348 . S
C2037 C2039 1.356 . S
C2037 H2093 0.929 1_556 S
C2038 C2034 1.356 . S
C2038 C2035 1.358 . S
C2038 H2094 0.930 . S
C2039 N2036 1.322 . S
C2039 C2037 1.356 . S
C2039 H2095 0.917 1_556 S
C2040 N2041 1.314 . S
C2040 C2045 1.353 . S
C2040 H2046 0.930 1_554 S
N2041 Li2024 1.990 1_554 S
N2041 C2040 1.314 . S
N2041 C2043 1.279 . S
C2042 C2043 1.358 . S
C2042 C2044 1.356 . S
C2042 H2096 0.930 . S
C2043 N2041 1.279 . S
C2043 C2042 1.358 . S
C2043 H2047 0.930 . S
C2044 C2042 1.356 . S
C2044 C2045 1.348 . S
C2045 C2040 1.353 . S
C2045 C2044 1.348 . S
C2045 H2097 0.929 . S
H2046 C2040 0.930 1_556 S
H2047 C2043 0.930 . S
C2048 N2049 1.314 . S
C2048 C2050 1.353 . S
C2048 H2054 0.930 . S
N2049 Li2025 1.990 . S
N2049 C2048 1.314 . S
N2049 C2052 1.279 . S
C2050 C2048 1.353 . S
C2050 C2053 1.348 . S
C2050 H2098 0.929 . S
C2051 C2052 1.358 . S
C2051 C2053 1.356 . S
C2051 H2099 0.930 . S
C2052 N2049 1.279 . S
C2052 C2051 1.358 . S
C2052 H2055 0.930 . S
C2053 C2050 1.348 . S
C2053 C2051 1.356 . S
H2054 C2048 0.930 . S
H2055 C2052 0.930 . S
C2056 C2058 1.348 . S
C2056 C2059 1.356 . S
C2056 O2086 1.325 . S
N2057 C2060 1.314 . S
N2057 C2061 1.279 . S
C2058 C2056 1.348 . S
C2058 C2060 1.353 . S
C2058 H2100 0.929 . S
C2059 C2056 1.356 . S
C2059 C2061 1.358 . S
C2059 H2101 0.930 . S
C2060 N2057 1.314 . S
C2060 C2058 1.353 . S
C2060 H2102 0.930 . S
C2061 N2057 1.279 . S
C2061 C2059 1.358 . S
C2061 H2103 0.930 . S
C2062 C2063 1.348 . S
C2062 C2064 1.356 . S
C2062 O2087 1.325 . S
C2063 C2062 1.348 . S
C2063 C2065 1.353 . S
C2063 H2104 0.929 . S
C2064 C2062 1.356 . S
C2064 C2066 1.358 . S
C2064 H2105 0.930 . S
C2065 C2063 1.353 . S
C2065 N2067 1.314 . S
C2065 H2106 0.930 . S
C2066 C2064 1.358 . S
C2066 N2067 1.279 . S
C2066 H2107 0.930 . S
N2067 C2065 1.314 . S
N2067 C2066 1.279 . S
C2068 C2070 1.353 . S
C2068 N2071 1.314 . S
C2068 H2074 0.930 . S
C2069 N2071 1.279 . S
C2069 C2072 1.358 . S
C2069 H2075 0.930 . S
C2070 C2068 1.353 . S
C2070 C2073 1.348 . S
C2070 H2108 0.929 . S
N2071 Li2026 1.990 . S
N2071 C2068 1.314 . S
N2071 C2069 1.279 . S
C2072 C2069 1.358 . S
C2072 C2073 1.356 . S
C2072 H2109 0.930 . S
C2073 C2070 1.348 . S
C2073 C2072 1.356 . S
H2074 C2068 0.930 . S
H2075 C2069 0.930 . S
C2076 N2077 1.314 . S
C2076 C2078 1.353 . S
C2076 H2082 0.930 . S
N2077 Li2027 1.990 . S
N2077 C2076 1.314 . S
N2077 C2080 1.279 . S
C2078 C2076 1.353 . S
C2078 C2081 1.348 . S
C2078 H2110 0.929 . S
C2079 C2080 1.358 . S
C2079 C2081 1.356 . S
C2079 H2111 0.930 . S
C2080 N2077 1.279 . S
C2080 C2079 1.358 . S
C2080 H2083 0.930 . S
C2081 C2078 1.348 . S
C2081 C2079 1.356 . S
H2082 C2076 0.930 . S
H2083 C2080 0.930 . S
O2084 Li2024 1.956 . S
O2084 Li2025 1.970 . S
O2084 Li2026 1.961 . S
O2084 C2028 1.325 . S
O2085 Li2024 1.970 . S
O2085 Li2025 1.956 . S
O2085 Li2027 1.961 . S
O2085 C2034 1.325 . S
O2086 Li2024 1.961 . S
O2086 Li2026 1.956 . S
O2086 Li2027 1.970 . S
O2086 C2056 1.325 . S
O2087 Li2025 1.961 . S
O2087 Li2026 1.970 . S
O2087 Li2027 1.956 . S
O2087 C2062 1.325 . S
H2088 C2030 0.929 . S
H2089 C2031 0.924 1_556 S
H2090 C2032 0.930 . S
H2091 C2033 0.930 . S
H2092 C2035 0.930 . S
H2093 C2037 0.929 1_554 S
H2094 C2038 0.930 . S
H2095 C2039 0.917 1_554 S
H2096 C2042 0.930 . S
H2097 C2045 0.929 . S
H2098 C2050 0.929 . S
H2099 C2051 0.930 . S
H2100 C2058 0.929 . S
H2101 C2059 0.930 . S
H2102 C2060 0.930 . S
H2103 C2061 0.930 . S
H2104 C2063 0.929 . S
H2105 C2064 0.930 . S
H2106 C2065 0.930 . S
H2107 C2066 0.930 . S
H2108 C2070 0.929 . S
H2109 C2072 0.930 . S
H2110 C2078 0.929 . S
H2111 C2079 0.930 . S
Li2112 N2129 1.990 . S
Li2112 O2172 1.956 . S
Li2112 O2173 1.970 . S
Li2112 O2174 1.961 . S
Li2113 N2137 1.990 . S
Li2113 O2172 1.970 . S
Li2113 O2173 1.956 . S
Li2113 O2175 1.961 . S
Li2114 N2159 1.990 . S
Li2114 O2172 1.961 . S
Li2114 O2174 1.956 . S
Li2114 O2175 1.970 . S
Li2115 N2165 1.990 . S
Li2115 O2173 1.961 . S
Li2115 O2174 1.970 . S
Li2115 O2175 1.956 . S
C2116 C2118 1.348 . S
C2116 C2119 1.356 . S
C2116 O2172 1.325 . S
N2117 C2120 1.314 . S
N2117 C2121 1.279 . S
C2118 C2116 1.348 . S
C2118 C2120 1.353 . S
C2118 H2176 0.929 . S
C2119 C2116 1.356 . S
C2119 C2121 1.358 . S
C2119 H2177 0.930 . S
C2120 N2117 1.314 . S
C2120 C2118 1.353 . S
C2120 H2178 0.930 . S
C2121 N2117 1.279 . S
C2121 C2119 1.358 . S
C2121 H2179 0.930 . S
C2122 C2125 1.348 . S
C2122 C2126 1.356 . S
C2122 O2173 1.325 . S
C2123 N2124 1.279 . S
C2123 C2126 1.358 . S
C2123 H2180 0.930 . S
N2124 C2123 1.279 . S
N2124 C2127 1.314 . S
C2125 C2122 1.348 . S
C2125 C2127 1.353 . S
C2125 H2181 0.929 . S
C2126 C2122 1.356 . S
C2126 C2123 1.358 . S
C2126 H2182 0.930 . S
C2127 N2124 1.314 . S
C2127 C2125 1.353 . S
C2127 H2183 0.930 . S
C2128 N2129 1.314 . S
C2128 C2133 1.353 . S
C2128 H2134 0.930 . S
N2129 Li2112 1.990 . S
N2129 C2128 1.314 . S
N2129 C2131 1.279 . S
C2130 C2131 1.358 . S
C2130 C2132 1.356 . S
C2130 H2184 0.930 . S
C2131 N2129 1.279 . S
C2131 C2130 1.358 . S
C2131 H2135 0.930 . S
C2132 C2130 1.356 . S
C2132 C2133 1.348 . S
C2133 C2128 1.353 . S
C2133 C2132 1.348 . S
C2133 H2185 0.929 . S
H2134 C2128 0.930 . S
H2135 C2131 0.930 . S
C2136 N2137 1.314 . S
C2136 C2138 1.353 . S
C2136 H2142 0.930 . S
N2137 Li2113 1.990 . S
N2137 C2136 1.314 . S
N2137 C2140 1.279 . S
C2138 C2136 1.353 . S
C2138 C2141 1.348 . S
C2138 H2186 0.929 . S
C2139 C2140 1.358 . S
C2139 C2141 1.356 . S
C2139 H2187 0.930 . S
C2140 N2137 1.279 . S
C2140 C2139 1.358 . S
C2140 H2143 0.930 . S
C2141 C2138 1.348 . S
C2141 C2139 1.356 . S
H2142 C2136 0.930 . S
H2143 C2140 0.930 . S
C2144 C2146 1.348 . S
C2144 C2147 1.356 . S
C2144 O2174 1.325 . S
N2145 C2148 1.314 . S
N2145 C2149 1.279 . S
C2146 C2144 1.348 . S
C2146 C2148 1.353 . S
C2146 H2188 0.929 . S
C2147 C2144 1.356 . S
C2147 C2149 1.358 . S
C2147 H2189 0.930 . S
C2148 N2145 1.314 . S
C2148 C2146 1.353 . S
C2148 H2190 0.930 . S
C2149 N2145 1.279 . S
C2149 C2147 1.358 . S
C2149 H2191 0.930 . S
C2150 C2151 1.348 . S
C2150 C2152 1.356 . S
C2150 O2175 1.325 . S
C2151 C2150 1.348 . S
C2151 C2153 1.353 . S
C2151 H2192 0.929 . S
C2152 C2150 1.356 . S
C2152 C2154 1.358 . S
C2152 H2193 0.930 . S
C2153 C2151 1.353 . S
C2153 N2155 1.314 . S
C2153 H2194 0.930 . S
C2154 C2152 1.358 . S
C2154 N2155 1.279 . S
C2154 H2195 0.930 . S
N2155 C2153 1.314 . S
N2155 C2154 1.279 . S
C2156 C2158 1.353 . S
C2156 N2159 1.314 . S
C2156 H2162 0.930 . S
C2157 N2159 1.279 . S
C2157 C2160 1.358 . S
C2157 H2163 0.930 . S
C2158 C2156 1.353 . S
C2158 C2161 1.348 . S
C2158 H2196 0.929 . S
N2159 Li2114 1.990 . S
N2159 C2156 1.314 . S
N2159 C2157 1.279 . S
C2160 C2157 1.358 . S
C2160 C2161 1.356 . S
C2160 H2197 0.930 . S
C2161 C2158 1.348 . S
C2161 C2160 1.356 . S
H2162 C2156 0.930 . S
H2163 C2157 0.930 . S
C2164 N2165 1.314 . S
C2164 C2166 1.353 . S
C2164 H2170 0.930 . S
N2165 Li2115 1.990 . S
N2165 C2164 1.314 . S
N2165 C2168 1.279 . S
C2166 C2164 1.353 . S
C2166 C2169 1.348 . S
C2166 H2198 0.929 . S
C2167 C2168 1.358 . S
C2167 C2169 1.356 . S
C2167 H2199 0.930 . S
C2168 N2165 1.279 . S
C2168 C2167 1.358 . S
C2168 H2171 0.930 . S
C2169 C2166 1.348 . S
C2169 C2167 1.356 . S
H2170 C2164 0.930 . S
H2171 C2168 0.930 . S
O2172 Li2112 1.956 . S
O2172 Li2113 1.970 . S
O2172 Li2114 1.961 . S
O2172 C2116 1.325 . S
O2173 Li2112 1.970 . S
O2173 Li2113 1.956 . S
O2173 Li2115 1.961 . S
O2173 C2122 1.325 . S
O2174 Li2112 1.961 . S
O2174 Li2114 1.956 . S
O2174 Li2115 1.970 . S
O2174 C2144 1.325 . S
O2175 Li2113 1.961 . S
O2175 Li2114 1.970 . S
O2175 Li2115 1.956 . S
O2175 C2150 1.325 . S
H2176 C2118 0.929 . S
H2177 C2119 0.930 . S
H2178 C2120 0.930 . S
H2179 C2121 0.930 . S
H2180 C2123 0.930 . S
H2181 C2125 0.929 . S
H2182 C2126 0.930 . S
H2183 C2127 0.930 . S
H2184 C2130 0.930 . S
H2185 C2133 0.929 . S
H2186 C2138 0.929 . S
H2187 C2139 0.930 . S
H2188 C2146 0.929 . S
H2189 C2147 0.930 . S
H2190 C2148 0.930 . S
H2191 C2149 0.930 . S
H2192 C2151 0.929 . S
H2193 C2152 0.930 . S
H2194 C2153 0.930 . S
H2195 C2154 0.930 . S
H2196 C2158 0.929 . S
H2197 C2160 0.930 . S
H2198 C2166 0.929 . S
H2199 C2167 0.930 . S
Li2200 N2217 1.990 . S
Li2200 O2260 1.956 . S
Li2200 O2261 1.970 . S
Li2200 O2262 1.961 . S
Li2201 N2225 1.990 . S
Li2201 O2260 1.970 . S
Li2201 O2261 1.956 . S
Li2201 O2263 1.961 . S
Li2202 N2247 1.990 . S
Li2202 O2260 1.961 . S
Li2202 O2262 1.956 . S
Li2202 O2263 1.970 . S
Li2203 N2253 1.990 . S
Li2203 O2261 1.961 . S
Li2203 O2262 1.970 . S
Li2203 O2263 1.956 . S
C2204 C2206 1.348 . S
C2204 C2207 1.356 . S
C2204 O2260 1.325 . S
N2205 C2208 1.314 . S
N2205 C2209 1.279 . S
C2206 C2204 1.348 . S
C2206 C2208 1.353 . S
C2206 H2264 0.929 . S
C2207 C2204 1.356 . S
C2207 C2209 1.358 . S
C2207 H2265 0.930 . S
C2208 N2205 1.314 . S
C2208 C2206 1.353 . S
C2208 H2266 0.930 . S
C2209 N2205 1.279 . S
C2209 C2207 1.358 . S
C2209 H2267 0.930 . S
C2210 C2213 1.348 . S
C2210 C2214 1.356 . S
C2210 O2261 1.325 . S
C2211 N2212 1.279 . S
C2211 C2214 1.358 . S
C2211 H2268 0.930 . S
N2212 C2211 1.279 . S
N2212 C2215 1.314 . S
C2213 C2210 1.348 . S
C2213 C2215 1.353 . S
C2213 H2269 0.929 . S
C2214 C2210 1.356 . S
C2214 C2211 1.358 . S
C2214 H2270 0.930 . S
C2215 N2212 1.314 . S
C2215 C2213 1.353 . S
C2215 H2271 0.930 . S
C2216 N2217 1.314 . S
C2216 C2221 1.353 . S
C2216 H2222 0.930 . S
N2217 Li2200 1.990 . S
N2217 C2216 1.314 . S
N2217 C2219 1.279 . S
C2218 C2219 1.358 . S
C2218 C2220 1.356 . S
C2218 H2272 0.930 . S
C2219 N2217 1.279 . S
C2219 C2218 1.358 . S
C2219 H2223 0.930 . S
C2220 C2218 1.356 . S
C2220 C2221 1.348 . S
C2221 C2216 1.353 . S
C2221 C2220 1.348 . S
C2221 H2273 0.929 . S
H2222 C2216 0.930 . S
H2223 C2219 0.930 . S
C2224 N2225 1.314 . S
C2224 C2226 1.353 . S
C2224 H2230 0.930 . S
N2225 Li2201 1.990 . S
N2225 C2224 1.314 . S
N2225 C2228 1.279 . S
C2226 C2224 1.353 . S
C2226 C2229 1.348 . S
C2226 H2274 0.929 . S
C2227 C2228 1.358 . S
C2227 C2229 1.356 . S
C2227 H2275 0.930 . S
C2228 N2225 1.279 . S
C2228 C2227 1.358 . S
C2228 H2231 0.930 . S
C2229 C2226 1.348 . S
C2229 C2227 1.356 . S
H2230 C2224 0.930 . S
H2231 C2228 0.930 . S
C2232 C2234 1.348 . S
C2232 C2235 1.356 . S
C2232 O2262 1.325 . S
N2233 C2236 1.314 . S
N2233 C2237 1.279 . S
C2234 C2232 1.348 . S
C2234 C2236 1.353 . S
C2234 H2276 0.929 . S
C2235 C2232 1.356 . S
C2235 C2237 1.358 . S
C2235 H2277 0.930 . S
C2236 N2233 1.314 . S
C2236 C2234 1.353 . S
C2236 H2278 0.930 . S
C2237 N2233 1.279 . S
C2237 C2235 1.358 . S
C2237 H2279 0.930 . S
C2238 C2239 1.348 . S
C2238 C2240 1.356 . S
C2238 O2263 1.325 . S
C2239 C2238 1.348 . S
C2239 C2241 1.353 . S
C2239 H2280 0.929 . S
C2240 C2238 1.356 . S
C2240 C2242 1.358 . S
C2240 H2281 0.930 . S
C2241 C2239 1.353 . S
C2241 N2243 1.314 . S
C2241 H2282 0.930 . S
C2242 C2240 1.358 . S
C2242 N2243 1.279 . S
C2242 H2283 0.930 . S
N2243 C2241 1.314 . S
N2243 C2242 1.279 . S
C2244 C2246 1.353 . S
C2244 N2247 1.314 . S
C2244 H2250 0.930 . S
C2245 N2247 1.279 . S
C2245 C2248 1.358 . S
C2245 H2251 0.930 . S
C2246 C2244 1.353 . S
C2246 C2249 1.348 . S
C2246 H2284 0.929 . S
N2247 Li2202 1.990 . S
N2247 C2244 1.314 . S
N2247 C2245 1.279 . S
C2248 C2245 1.358 . S
C2248 C2249 1.356 . S
C2248 H2285 0.930 . S
C2249 C2246 1.348 . S
C2249 C2248 1.356 . S
H2250 C2244 0.930 . S
H2251 C2245 0.930 . S
C2252 N2253 1.314 . S
C2252 C2254 1.353 . S
C2252 H2258 0.930 . S
N2253 Li2203 1.990 . S
N2253 C2252 1.314 . S
N2253 C2256 1.279 . S
C2254 C2252 1.353 . S
C2254 C2257 1.348 . S
C2254 H2286 0.929 . S
C2255 C2256 1.358 . S
C2255 C2257 1.356 . S
C2255 H2287 0.930 . S
C2256 N2253 1.279 . S
C2256 C2255 1.358 . S
C2256 H2259 0.930 . S
C2257 C2254 1.348 . S
C2257 C2255 1.356 . S
H2258 C2252 0.930 . S
H2259 C2256 0.930 . S
O2260 Li2200 1.956 . S
O2260 Li2201 1.970 . S
O2260 Li2202 1.961 . S
O2260 C2204 1.325 . S
O2261 Li2200 1.970 . S
O2261 Li2201 1.956 . S
O2261 Li2203 1.961 . S
O2261 C2210 1.325 . S
O2262 Li2200 1.961 . S
O2262 Li2202 1.956 . S
O2262 Li2203 1.970 . S
O2262 C2232 1.325 . S
O2263 Li2201 1.961 . S
O2263 Li2202 1.970 . S
O2263 Li2203 1.956 . S
O2263 C2238 1.325 . S
H2264 C2206 0.929 . S
H2265 C2207 0.930 . S
H2266 C2208 0.930 . S
H2267 C2209 0.930 . S
H2268 C2211 0.930 . S
H2269 C2213 0.929 . S
H2270 C2214 0.930 . S
H2271 C2215 0.930 . S
H2272 C2218 0.930 . S
H2273 C2221 0.929 . S
H2274 C2226 0.929 . S
H2275 C2227 0.930 . S
H2276 C2234 0.929 . S
H2277 C2235 0.930 . S
H2278 C2236 0.930 . S
H2279 C2237 0.930 . S
H2280 C2239 0.929 . S
H2281 C2240 0.930 . S
H2282 C2241 0.930 . S
H2283 C2242 0.930 . S
H2284 C2246 0.929 . S
H2285 C2248 0.930 . S
H2286 C2254 0.929 . S
H2287 C2255 0.930 . S
Li2288 N2305 1.990 . S
Li2288 O2348 1.956 . S
Li2288 O2349 1.970 . S
Li2288 O2350 1.961 . S
Li2289 N2313 1.990 . S
Li2289 O2348 1.970 . S
Li2289 O2349 1.956 . S
Li2289 O2351 1.961 . S
Li2290 N2335 1.990 . S
Li2290 O2348 1.961 . S
Li2290 O2350 1.956 . S
Li2290 O2351 1.970 . S
Li2291 N2341 1.990 . S
Li2291 O2349 1.961 . S
Li2291 O2350 1.970 . S
Li2291 O2351 1.956 . S
C2292 C2294 1.348 . S
C2292 C2295 1.356 . S
C2292 O2348 1.325 . S
N2293 C2296 1.314 . S
N2293 C2297 1.279 . S
C2294 C2292 1.348 . S
C2294 C2296 1.353 . S
C2294 H2352 0.929 . S
C2295 C2292 1.356 . S
C2295 C2297 1.358 . S
C2295 H2353 0.930 . S
C2296 N2293 1.314 . S
C2296 C2294 1.353 . S
C2296 H2354 0.930 . S
C2297 N2293 1.279 . S
C2297 C2295 1.358 . S
C2297 H2355 0.930 . S
C2298 C2301 1.348 . S
C2298 C2302 1.356 . S
C2298 O2349 1.325 . S
C2299 N2300 1.279 . S
C2299 C2302 1.358 . S
C2299 H2356 0.930 . S
N2300 C2299 1.279 . S
N2300 C2303 1.314 . S
C2301 C2298 1.348 . S
C2301 C2303 1.353 . S
C2301 H2357 0.929 . S
C2302 C2298 1.356 . S
C2302 C2299 1.358 . S
C2302 H2358 0.930 . S
C2303 N2300 1.314 . S
C2303 C2301 1.353 . S
C2303 H2359 0.930 . S
C2304 N2305 1.314 . S
C2304 C2309 1.353 . S
C2304 H2310 0.930 . S
N2305 Li2288 1.990 . S
N2305 C2304 1.314 . S
N2305 C2307 1.279 . S
C2306 C2307 1.358 . S
C2306 C2308 1.356 . S
C2306 H2360 0.930 . S
C2307 N2305 1.279 . S
C2307 C2306 1.358 . S
C2307 H2311 0.930 . S
C2308 C2306 1.356 . S
C2308 C2309 1.348 . S
C2309 C2304 1.353 . S
C2309 C2308 1.348 . S
C2309 H2361 0.929 . S
H2310 C2304 0.930 . S
H2311 C2307 0.930 . S
C2312 N2313 1.314 . S
C2312 C2314 1.353 . S
C2312 H2318 0.930 . S
N2313 Li2289 1.990 . S
N2313 C2312 1.314 . S
N2313 C2316 1.279 . S
C2314 C2312 1.353 . S
C2314 C2317 1.348 . S
C2314 H2362 0.929 . S
C2315 C2316 1.358 . S
C2315 C2317 1.356 . S
C2315 H2363 0.930 . S
C2316 N2313 1.279 . S
C2316 C2315 1.358 . S
C2316 H2319 0.930 . S
C2317 C2314 1.348 . S
C2317 C2315 1.356 . S
H2318 C2312 0.930 . S
H2319 C2316 0.930 . S
C2320 C2322 1.348 . S
C2320 C2323 1.356 . S
C2320 O2350 1.325 . S
N2321 C2324 1.314 . S
N2321 C2325 1.279 . S
C2322 C2320 1.348 . S
C2322 C2324 1.353 . S
C2322 H2364 0.929 . S
C2323 C2320 1.356 . S
C2323 C2325 1.358 . S
C2323 H2365 0.930 . S
C2324 N2321 1.314 . S
C2324 C2322 1.353 . S
C2324 H2366 0.930 . S
C2325 N2321 1.279 . S
C2325 C2323 1.358 . S
C2325 H2367 0.930 . S
C2326 C2327 1.348 . S
C2326 C2328 1.356 . S
C2326 O2351 1.325 . S
C2327 C2326 1.348 . S
C2327 C2329 1.353 . S
C2327 H2368 0.929 . S
C2328 C2326 1.356 . S
C2328 C2330 1.358 . S
C2328 H2369 0.930 . S
C2329 C2327 1.353 . S
C2329 N2331 1.314 . S
C2329 H2370 0.930 . S
C2330 C2328 1.358 . S
C2330 N2331 1.279 . S
C2330 H2371 0.930 . S
N2331 C2329 1.314 . S
N2331 C2330 1.279 . S
C2332 C2334 1.353 . S
C2332 N2335 1.314 . S
C2332 H2338 0.930 . S
C2333 N2335 1.279 . S
C2333 C2336 1.358 . S
C2333 H2339 0.930 . S
C2334 C2332 1.353 . S
C2334 C2337 1.348 . S
C2334 H2372 0.929 . S
N2335 Li2290 1.990 . S
N2335 C2332 1.314 . S
N2335 C2333 1.279 . S
C2336 C2333 1.358 . S
C2336 C2337 1.356 . S
C2336 H2373 0.930 . S
C2337 C2334 1.348 . S
C2337 C2336 1.356 . S
H2338 C2332 0.930 . S
H2339 C2333 0.930 . S
C2340 N2341 1.314 . S
C2340 C2342 1.353 . S
C2340 H2346 0.930 . S
N2341 Li2291 1.990 . S
N2341 C2340 1.314 . S
N2341 C2344 1.279 . S
C2342 C2340 1.353 . S
C2342 C2345 1.348 . S
C2342 H2374 0.929 . S
C2343 C2344 1.358 . S
C2343 C2345 1.356 . S
C2343 H2375 0.930 . S
C2344 N2341 1.279 . S
C2344 C2343 1.358 . S
C2344 H2347 0.930 . S
C2345 C2342 1.348 . S
C2345 C2343 1.356 . S
H2346 C2340 0.930 . S
H2347 C2344 0.930 . S
O2348 Li2288 1.956 . S
O2348 Li2289 1.970 . S
O2348 Li2290 1.961 . S
O2348 C2292 1.325 . S
O2349 Li2288 1.970 . S
O2349 Li2289 1.956 . S
O2349 Li2291 1.961 . S
O2349 C2298 1.325 . S
O2350 Li2288 1.961 . S
O2350 Li2290 1.956 . S
O2350 Li2291 1.970 . S
O2350 C2320 1.325 . S
O2351 Li2289 1.961 . S
O2351 Li2290 1.970 . S
O2351 Li2291 1.956 . S
O2351 C2326 1.325 . S
H2352 C2294 0.929 . S
H2353 C2295 0.930 . S
H2354 C2296 0.930 . S
H2355 C2297 0.930 . S
H2356 C2299 0.930 . S
H2357 C2301 0.929 . S
H2358 C2302 0.930 . S
H2359 C2303 0.930 . S
H2360 C2306 0.930 . S
H2361 C2309 0.929 . S
H2362 C2314 0.929 . S
H2363 C2315 0.930 . S
H2364 C2322 0.929 . S
H2365 C2323 0.930 . S
H2366 C2324 0.930 . S
H2367 C2325 0.930 . S
H2368 C2327 0.929 . S
H2369 C2328 0.930 . S
H2370 C2329 0.930 . S
H2371 C2330 0.930 . S
H2372 C2334 0.929 . S
H2373 C2336 0.930 . S
H2374 C2342 0.929 . S
H2375 C2343 0.930 . S
Li2376 N2393 1.990 . S
Li2376 O2436 1.956 . S
Li2376 O2437 1.970 . S
Li2376 O2438 1.961 . S
Li2377 N2401 1.990 . S
Li2377 O2436 1.970 . S
Li2377 O2437 1.956 . S
Li2377 O2439 1.961 . S
Li2378 N2423 1.990 1_554 S
Li2378 O2436 1.961 . S
Li2378 O2438 1.956 . S
Li2378 O2439 1.970 . S
Li2379 N2429 1.990 . S
Li2379 O2437 1.961 . S
Li2379 O2438 1.970 . S
Li2379 O2439 1.956 . S
C2380 C2382 1.348 . S
C2380 C2383 1.356 1_554 S
C2380 O2436 1.325 . S
N2381 C2384 1.314 . S
N2381 C2385 1.279 . S
C2382 C2380 1.348 . S
C2382 C2384 1.353 1_554 S
C2382 H2440 0.929 . S
C2383 C2380 1.356 1_556 S
C2383 C2385 1.358 . S
C2383 H2441 0.930 . S
C2384 N2381 1.314 . S
C2384 C2382 1.353 1_556 S
C2384 H2442 0.930 . S
C2385 N2381 1.279 . S
C2385 C2383 1.358 . S
C2385 H2443 0.930 . S
C2386 C2389 1.348 . S
C2386 C2390 1.356 . S
C2386 O2437 1.325 . S
C2387 N2388 1.279 . S
C2387 C2390 1.358 . S
C2387 H2444 0.930 . S
N2388 C2387 1.279 . S
N2388 C2391 1.314 . S
C2389 C2386 1.348 . S
C2389 C2391 1.353 . S
C2389 H2445 0.929 . S
C2390 C2386 1.356 . S
C2390 C2387 1.358 . S
C2390 H2446 0.930 . S
C2391 N2388 1.314 . S
C2391 C2389 1.353 . S
C2391 H2447 0.930 . S
C2392 N2393 1.314 . S
C2392 C2397 1.353 . S
C2392 H2398 0.930 . S
N2393 Li2376 1.990 . S
N2393 C2392 1.314 . S
N2393 C2395 1.279 . S
C2394 C2395 1.358 . S
C2394 C2396 1.356 . S
C2394 H2448 0.930 . S
C2395 N2393 1.279 . S
C2395 C2394 1.358 . S
C2395 H2399 0.930 . S
C2396 C2394 1.356 . S
C2396 C2397 1.348 . S
C2397 C2392 1.353 . S
C2397 C2396 1.348 . S
C2397 H2449 0.929 . S
H2398 C2392 0.930 . S
H2399 C2395 0.930 . S
C2400 N2401 1.314 . S
C2400 C2402 1.353 . S
C2400 H2406 0.930 . S
N2401 Li2377 1.990 . S
N2401 C2400 1.314 . S
N2401 C2404 1.279 . S
C2402 C2400 1.353 . S
C2402 C2405 1.348 . S
C2402 H2450 0.929 . S
C2403 C2404 1.358 . S
C2403 C2405 1.356 . S
C2403 H2451 0.930 . S
C2404 N2401 1.279 . S
C2404 C2403 1.358 . S
C2404 H2407 0.930 . S
C2405 C2402 1.348 . S
C2405 C2403 1.356 . S
H2406 C2400 0.930 . S
H2407 C2404 0.930 . S
C2408 C2410 1.348 . S
C2408 C2411 1.356 . S
C2408 O2438 1.325 . S
N2409 C2412 1.314 . S
N2409 C2413 1.279 . S
C2410 C2408 1.348 . S
C2410 C2412 1.353 . S
C2410 H2452 0.929 . S
C2411 C2408 1.356 . S
C2411 C2413 1.358 . S
C2411 H2453 0.930 . S
C2412 N2409 1.314 . S
C2412 C2410 1.353 . S
C2412 H2454 0.930 . S
C2413 N2409 1.279 . S
C2413 C2411 1.358 . S
C2413 H2455 0.930 . S
C2414 C2415 1.348 . S
C2414 C2416 1.356 . S
C2414 O2439 1.325 . S
C2415 C2414 1.348 . S
C2415 C2417 1.353 . S
C2415 H2456 0.929 . S
C2416 C2414 1.356 . S
C2416 C2418 1.358 . S
C2416 H2457 0.930 . S
C2417 C2415 1.353 . S
C2417 N2419 1.314 . S
C2417 H2458 0.930 1_554 S
C2418 C2416 1.358 . S
C2418 N2419 1.279 . S
C2418 H2459 0.930 . S
N2419 C2417 1.314 . S
N2419 C2418 1.279 . S
C2420 C2422 1.353 . S
C2420 N2423 1.314 . S
C2420 H2426 0.930 . S
C2421 N2423 1.279 . S
C2421 C2424 1.358 . S
C2421 H2427 0.930 1_556 S
C2422 C2420 1.353 . S
C2422 C2425 1.348 . S
C2422 H2460 0.929 . S
N2423 Li2378 1.990 1_556 S
N2423 C2420 1.314 . S
N2423 C2421 1.279 . S
C2424 C2421 1.358 . S
C2424 C2425 1.356 . S
C2424 H2461 0.930 . S
C2425 C2422 1.348 . S
C2425 C2424 1.356 . S
H2426 C2420 0.930 . S
H2427 C2421 0.930 1_554 S
C2428 N2429 1.314 . S
C2428 C2430 1.353 . S
C2428 H2434 0.930 . S
N2429 Li2379 1.990 . S
N2429 C2428 1.314 . S
N2429 C2432 1.279 . S
C2430 C2428 1.353 . S
C2430 C2433 1.348 . S
C2430 H2462 0.929 . S
C2431 C2432 1.358 . S
C2431 C2433 1.356 . S
C2431 H2463 0.930 . S
C2432 N2429 1.279 . S
C2432 C2431 1.358 . S
C2432 H2435 0.930 . S
C2433 C2430 1.348 . S
C2433 C2431 1.356 . S
H2434 C2428 0.930 . S
H2435 C2432 0.930 . S
O2436 Li2376 1.956 . S
O2436 Li2377 1.970 . S
O2436 Li2378 1.961 . S
O2436 C2380 1.325 . S
O2437 Li2376 1.970 . S
O2437 Li2377 1.956 . S
O2437 Li2379 1.961 . S
O2437 C2386 1.325 . S
O2438 Li2376 1.961 . S
O2438 Li2378 1.956 . S
O2438 Li2379 1.970 . S
O2438 C2408 1.325 . S
O2439 Li2377 1.961 . S
O2439 Li2378 1.970 . S
O2439 Li2379 1.956 . S
O2439 C2414 1.325 . S
H2440 C2382 0.929 . S
H2441 C2383 0.930 . S
H2442 C2384 0.930 . S
H2443 C2385 0.930 . S
H2444 C2387 0.930 . S
H2445 C2389 0.929 . S
H2446 C2390 0.930 . S
H2447 C2391 0.930 . S
H2448 C2394 0.930 . S
H2449 C2397 0.929 . S
H2450 C2402 0.929 . S
H2451 C2403 0.930 . S
H2452 C2410 0.929 . S
H2453 C2411 0.930 . S
H2454 C2412 0.930 . S
H2455 C2413 0.930 . S
H2456 C2415 0.929 . S
H2457 C2416 0.930 . S
H2458 C2417 0.930 1_556 S
H2459 C2418 0.930 . S
H2460 C2422 0.929 . S
H2461 C2424 0.930 . S
H2462 C2430 0.929 . S
H2463 C2431 0.930 . S
Li2464 N2481 1.990 1_554 S
Li2464 O2524 1.956 . S
Li2464 O2525 1.970 . S
Li2464 O2526 1.961 . S
Li2465 N2489 1.990 . S
Li2465 O2524 1.970 . S
Li2465 O2525 1.956 . S
Li2465 O2527 1.961 . S
Li2466 N2511 1.990 . S
Li2466 O2524 1.961 . S
Li2466 O2526 1.956 . S
Li2466 O2527 1.970 . S
Li2467 N2517 1.990 . S
Li2467 O2525 1.961 . S
Li2467 O2526 1.970 . S
Li2467 O2527 1.956 . S
C2468 C2470 1.348 . S
C2468 C2471 1.356 . S
C2468 O2524 1.325 . S
N2469 C2472 1.314 . S
N2469 C2473 1.279 . S
C2470 C2468 1.348 . S
C2470 C2472 1.353 . S
C2470 H2528 0.929 . S
C2471 C2468 1.356 . S
C2471 C2473 1.358 . S
C2471 H2529 0.930 . S
C2472 N2469 1.314 . S
C2472 C2470 1.353 . S
C2472 H2530 0.930 . S
C2473 N2469 1.279 . S
C2473 C2471 1.358 . S
C2473 H2531 0.930 . S
C2474 C2477 1.348 . S
C2474 C2478 1.356 . S
C2474 O2525 1.325 . S
C2475 N2476 1.279 . S
C2475 C2478 1.358 . S
C2475 H2532 0.930 . S
N2476 C2475 1.279 . S
N2476 C2479 1.314 . S
C2477 C2474 1.348 . S
C2477 C2479 1.353 . S
C2477 H2533 0.929 . S
C2478 C2474 1.356 . S
C2478 C2475 1.358 . S
C2478 H2534 0.930 . S
C2479 N2476 1.314 . S
C2479 C2477 1.353 . S
C2479 H2535 0.930 1_554 S
C2480 N2481 1.314 . S
C2480 C2485 1.353 . S
C2480 H2486 0.930 . S
N2481 Li2464 1.990 1_556 S
N2481 C2480 1.314 . S
N2481 C2483 1.279 . S
C2482 C2483 1.358 . S
C2482 C2484 1.356 . S
C2482 H2536 0.930 . S
C2483 N2481 1.279 . S
C2483 C2482 1.358 . S
C2483 H2487 0.930 1_556 S
C2484 C2482 1.356 . S
C2484 C2485 1.348 . S
C2485 C2480 1.353 . S
C2485 C2484 1.348 . S
C2485 H2537 0.929 . S
H2486 C2480 0.930 . S
H2487 C2483 0.930 1_554 S
C2488 N2489 1.314 . S
C2488 C2490 1.353 . S
C2488 H2494 0.930 . S
N2489 Li2465 1.990 . S
N2489 C2488 1.314 . S
N2489 C2492 1.279 . S
C2490 C2488 1.353 . S
C2490 C2493 1.348 . S
C2490 H2538 0.929 . S
C2491 C2492 1.358 . S
C2491 C2493 1.356 . S
C2491 H2539 0.930 . S
C2492 N2489 1.279 . S
C2492 C2491 1.358 . S
C2492 H2495 0.930 . S
C2493 C2490 1.348 . S
C2493 C2491 1.356 . S
H2494 C2488 0.930 . S
H2495 C2492 0.930 . S
C2496 C2498 1.348 . S
C2496 C2499 1.356 1_554 S
C2496 O2526 1.325 . S
N2497 C2500 1.314 . S
N2497 C2501 1.279 . S
C2498 C2496 1.348 . S
C2498 C2500 1.353 1_554 S
C2498 H2540 0.929 . S
C2499 C2496 1.356 1_556 S
C2499 C2501 1.358 . S
C2499 H2541 0.930 . S
C2500 N2497 1.314 . S
C2500 C2498 1.353 1_556 S
C2500 H2542 0.930 . S
C2501 N2497 1.279 . S
C2501 C2499 1.358 . S
C2501 H2543 0.930 . S
C2502 C2503 1.348 . S
C2502 C2504 1.356 . S
C2502 O2527 1.325 . S
C2503 C2502 1.348 . S
C2503 C2505 1.353 . S
C2503 H2544 0.929 . S
C2504 C2502 1.356 . S
C2504 C2506 1.358 . S
C2504 H2545 0.930 . S
C2505 C2503 1.353 . S
C2505 N2507 1.314 . S
C2505 H2546 0.930 . S
C2506 C2504 1.358 . S
C2506 N2507 1.279 . S
C2506 H2547 0.930 . S
N2507 C2505 1.314 . S
N2507 C2506 1.279 . S
C2508 C2510 1.353 . S
C2508 N2511 1.314 . S
C2508 H2514 0.930 . S
C2509 N2511 1.279 . S
C2509 C2512 1.358 . S
C2509 H2515 0.930 . S
C2510 C2508 1.353 . S
C2510 C2513 1.348 . S
C2510 H2548 0.929 . S
N2511 Li2466 1.990 . S
N2511 C2508 1.314 . S
N2511 C2509 1.279 . S
C2512 C2509 1.358 . S
C2512 C2513 1.356 . S
C2512 H2549 0.930 . S
C2513 C2510 1.348 . S
C2513 C2512 1.356 . S
H2514 C2508 0.930 . S
H2515 C2509 0.930 . S
C2516 N2517 1.314 . S
C2516 C2518 1.353 . S
C2516 H2522 0.930 . S
N2517 Li2467 1.990 . S
N2517 C2516 1.314 . S
N2517 C2520 1.279 . S
C2518 C2516 1.353 . S
C2518 C2521 1.348 . S
C2518 H2550 0.929 . S
C2519 C2520 1.358 . S
C2519 C2521 1.356 . S
C2519 H2551 0.930 . S
C2520 N2517 1.279 . S
C2520 C2519 1.358 . S
C2520 H2523 0.930 . S
C2521 C2518 1.348 . S
C2521 C2519 1.356 . S
H2522 C2516 0.930 . S
H2523 C2520 0.930 . S
O2524 Li2464 1.956 . S
O2524 Li2465 1.970 . S
O2524 Li2466 1.961 . S
O2524 C2468 1.325 . S
O2525 Li2464 1.970 . S
O2525 Li2465 1.956 . S
O2525 Li2467 1.961 . S
O2525 C2474 1.325 . S
O2526 Li2464 1.961 . S
O2526 Li2466 1.956 . S
O2526 Li2467 1.970 . S
O2526 C2496 1.325 . S
O2527 Li2465 1.961 . S
O2527 Li2466 1.970 . S
O2527 Li2467 1.956 . S
O2527 C2502 1.325 . S
H2528 C2470 0.929 . S
H2529 C2471 0.930 . S
H2530 C2472 0.930 . S
H2531 C2473 0.930 . S
H2532 C2475 0.930 . S
H2533 C2477 0.929 . S
H2534 C2478 0.930 . S
H2535 C2479 0.930 1_556 S
H2536 C2482 0.930 . S
H2537 C2485 0.929 . S
H2538 C2490 0.929 . S
H2539 C2491 0.930 . S
H2540 C2498 0.929 . S
H2541 C2499 0.930 . S
H2542 C2500 0.930 . S
H2543 C2501 0.930 . S
H2544 C2503 0.929 . S
H2545 C2504 0.930 . S
H2546 C2505 0.930 . S
H2547 C2506 0.930 . S
H2548 C2510 0.929 . S
H2549 C2512 0.930 . S
H2550 C2518 0.929 . S
H2551 C2519 0.930 . S
Li2552 N2569 1.990 . S
Li2552 O2612 1.956 . S
Li2552 O2613 1.970 . S
Li2552 O2614 1.961 . S
Li2553 N2577 1.990 . S
Li2553 O2612 1.970 . S
Li2553 O2613 1.956 . S
Li2553 O2615 1.961 . S
Li2554 N2599 1.990 . S
Li2554 O2612 1.961 . S
Li2554 O2614 1.956 . S
Li2554 O2615 1.970 . S
Li2555 N2605 1.990 1_554 S
Li2555 O2613 1.961 . S
Li2555 O2614 1.970 . S
Li2555 O2615 1.956 . S
C2556 C2558 1.348 . S
C2556 C2559 1.356 . S
C2556 O2612 1.325 . S
N2557 C2560 1.314 . S
N2557 C2561 1.279 . S
C2558 C2556 1.348 . S
C2558 C2560 1.353 . S
C2558 H2616 0.929 . S
C2559 C2556 1.356 . S
C2559 C2561 1.358 . S
C2559 H2617 0.930 . S
C2560 N2557 1.314 . S
C2560 C2558 1.353 . S
C2560 H2618 0.930 . S
C2561 N2557 1.279 . S
C2561 C2559 1.358 . S
C2561 H2619 0.930 . S
C2562 C2565 1.348 . S
C2562 C2566 1.356 1_554 S
C2562 O2613 1.325 . S
C2563 N2564 1.279 . S
C2563 C2566 1.358 . S
C2563 H2620 0.930 . S
N2564 C2563 1.279 . S
N2564 C2567 1.314 . S
C2565 C2562 1.348 . S
C2565 C2567 1.353 1_554 S
C2565 H2621 0.929 . S
C2566 C2562 1.356 1_556 S
C2566 C2563 1.358 . S
C2566 H2622 0.930 . S
C2567 N2564 1.314 . S
C2567 C2565 1.353 1_556 S
C2567 H2623 0.930 . S
C2568 N2569 1.314 . S
C2568 C2573 1.353 . S
C2568 H2574 0.930 . S
N2569 Li2552 1.990 . S
N2569 C2568 1.314 . S
N2569 C2571 1.279 . S
C2570 C2571 1.358 . S
C2570 C2572 1.356 . S
C2570 H2624 0.930 . S
C2571 N2569 1.279 . S
C2571 C2570 1.358 . S
C2571 H2575 0.930 . S
C2572 C2570 1.356 . S
C2572 C2573 1.348 . S
C2573 C2568 1.353 . S
C2573 C2572 1.348 . S
C2573 H2625 0.929 . S
H2574 C2568 0.930 . S
H2575 C2571 0.930 . S
C2576 N2577 1.314 . S
C2576 C2578 1.353 . S
C2576 H2582 0.930 . S
N2577 Li2553 1.990 . S
N2577 C2576 1.314 . S
N2577 C2580 1.279 . S
C2578 C2576 1.353 . S
C2578 C2581 1.348 . S
C2578 H2626 0.929 . S
C2579 C2580 1.358 . S
C2579 C2581 1.356 . S
C2579 H2627 0.930 . S
C2580 N2577 1.279 . S
C2580 C2579 1.358 . S
C2580 H2583 0.930 . S
C2581 C2578 1.348 . S
C2581 C2579 1.356 . S
H2582 C2576 0.930 . S
H2583 C2580 0.930 . S
C2584 C2586 1.348 . S
C2584 C2587 1.356 . S
C2584 O2614 1.325 . S
N2585 C2588 1.314 . S
N2585 C2589 1.279 . S
C2586 C2584 1.348 . S
C2586 C2588 1.353 . S
C2586 H2628 0.929 . S
C2587 C2584 1.356 . S
C2587 C2589 1.358 . S
C2587 H2629 0.930 . S
C2588 N2585 1.314 . S
C2588 C2586 1.353 . S
C2588 H2630 0.930 1_554 S
C2589 N2585 1.279 . S
C2589 C2587 1.358 . S
C2589 H2631 0.930 . S
C2590 C2591 1.348 . S
C2590 C2592 1.356 . S
C2590 O2615 1.325 . S
C2591 C2590 1.348 . S
C2591 C2593 1.353 . S
C2591 H2632 0.929 . S
C2592 C2590 1.356 . S
C2592 C2594 1.358 . S
C2592 H2633 0.930 . S
C2593 C2591 1.353 . S
C2593 N2595 1.314 . S
C2593 H2634 0.930 . S
C2594 C2592 1.358 . S
C2594 N2595 1.279 . S
C2594 H2635 0.930 . S
N2595 C2593 1.314 . S
N2595 C2594 1.279 . S
C2596 C2598 1.353 . S
C2596 N2599 1.314 . S
C2596 H2602 0.930 . S
C2597 N2599 1.279 . S
C2597 C2600 1.358 . S
C2597 H2603 0.930 . S
C2598 C2596 1.353 . S
C2598 C2601 1.348 . S
C2598 H2636 0.929 . S
N2599 Li2554 1.990 . S
N2599 C2596 1.314 . S
N2599 C2597 1.279 . S
C2600 C2597 1.358 . S
C2600 C2601 1.356 . S
C2600 H2637 0.930 . S
C2601 C2598 1.348 . S
C2601 C2600 1.356 . S
H2602 C2596 0.930 . S
H2603 C2597 0.930 . S
C2604 N2605 1.314 . S
C2604 C2606 1.353 . S
C2604 H2610 0.930 . S
N2605 Li2555 1.990 1_556 S
N2605 C2604 1.314 . S
N2605 C2608 1.279 . S
C2606 C2604 1.353 . S
C2606 C2609 1.348 . S
C2606 H2638 0.929 . S
C2607 C2608 1.358 . S
C2607 C2609 1.356 . S
C2607 H2639 0.930 . S
C2608 N2605 1.279 . S
C2608 C2607 1.358 . S
C2608 H2611 0.930 1_556 S
C2609 C2606 1.348 . S
C2609 C2607 1.356 . S
H2610 C2604 0.930 . S
H2611 C2608 0.930 1_554 S
O2612 Li2552 1.956 . S
O2612 Li2553 1.970 . S
O2612 Li2554 1.961 . S
O2612 C2556 1.325 . S
O2613 Li2552 1.970 . S
O2613 Li2553 1.956 . S
O2613 Li2555 1.961 . S
O2613 C2562 1.325 . S
O2614 Li2552 1.961 . S
O2614 Li2554 1.956 . S
O2614 Li2555 1.970 . S
O2614 C2584 1.325 . S
O2615 Li2553 1.961 . S
O2615 Li2554 1.970 . S
O2615 Li2555 1.956 . S
O2615 C2590 1.325 . S
H2616 C2558 0.929 . S
H2617 C2559 0.930 . S
H2618 C2560 0.930 . S
H2619 C2561 0.930 . S
H2620 C2563 0.930 . S
H2621 C2565 0.929 . S
H2622 C2566 0.930 . S
H2623 C2567 0.930 . S
H2624 C2570 0.930 . S
H2625 C2573 0.929 . S
H2626 C2578 0.929 . S
H2627 C2579 0.930 . S
H2628 C2586 0.929 . S
H2629 C2587 0.930 . S
H2630 C2588 0.930 1_556 S
H2631 C2589 0.930 . S
H2632 C2591 0.929 . S
H2633 C2592 0.930 . S
H2634 C2593 0.930 . S
H2635 C2594 0.930 . S
H2636 C2598 0.929 . S
H2637 C2600 0.930 . S
H2638 C2606 0.929 . S
H2639 C2607 0.930 . S
Li2640 N2657 1.990 . S
Li2640 O2700 1.956 . S
Li2640 O2701 1.970 . S
Li2640 O2702 1.961 . S
Li2641 N2665 1.990 . S
Li2641 O2700 1.970 . S
Li2641 O2701 1.956 . S
Li2641 O2703 1.961 . S
Li2642 N2687 1.990 . S
Li2642 O2700 1.961 . S
Li2642 O2702 1.956 . S
Li2642 O2703 1.970 . S
Li2643 N2693 1.990 . S
Li2643 O2701 1.961 . S
Li2643 O2702 1.970 . S
Li2643 O2703 1.956 . S
C2644 C2646 1.348 . S
C2644 C2647 1.356 . S
C2644 O2700 1.325 . S
N2645 C2648 1.314 . S
N2645 C2649 1.279 . S
C2646 C2644 1.348 . S
C2646 C2648 1.353 . S
C2646 H2704 0.929 . S
C2647 C2644 1.356 . S
C2647 C2649 1.358 . S
C2647 H2705 0.930 . S
C2648 N2645 1.314 . S
C2648 C2646 1.353 . S
C2648 H2706 0.930 . S
C2649 N2645 1.279 . S
C2649 C2647 1.358 . S
C2649 H2707 0.930 . S
C2650 C2653 1.348 . S
C2650 C2654 1.356 . S
C2650 O2701 1.325 . S
C2651 N2652 1.279 . S
C2651 C2654 1.358 . S
C2651 H2708 0.930 . S
N2652 C2651 1.279 . S
N2652 C2655 1.314 . S
C2653 C2650 1.348 . S
C2653 C2655 1.353 . S
C2653 H2709 0.929 . S
C2654 C2650 1.356 . S
C2654 C2651 1.358 . S
C2654 H2710 0.930 . S
C2655 N2652 1.314 . S
C2655 C2653 1.353 . S
C2655 H2711 0.930 . S
C2656 N2657 1.314 . S
C2656 C2661 1.353 . S
C2656 H2662 0.930 . S
N2657 Li2640 1.990 . S
N2657 C2656 1.314 . S
N2657 C2659 1.279 . S
C2658 C2659 1.358 . S
C2658 C2660 1.356 . S
C2658 H2712 0.930 . S
C2659 N2657 1.279 . S
C2659 C2658 1.358 . S
C2659 H2663 0.930 . S
C2660 C2658 1.356 . S
C2660 C2661 1.348 . S
C2661 C2656 1.353 . S
C2661 C2660 1.348 . S
C2661 H2713 0.929 . S
H2662 C2656 0.930 . S
H2663 C2659 0.930 . S
C2664 N2665 1.314 . S
C2664 C2666 1.353 . S
C2664 H2670 0.930 . S
N2665 Li2641 1.990 . S
N2665 C2664 1.314 . S
N2665 C2668 1.279 . S
C2666 C2664 1.353 . S
C2666 C2669 1.348 . S
C2666 H2714 0.929 . S
C2667 C2668 1.358 . S
C2667 C2669 1.356 . S
C2667 H2715 0.930 . S
C2668 N2665 1.279 . S
C2668 C2667 1.358 . S
C2668 H2671 0.930 . S
C2669 C2666 1.348 . S
C2669 C2667 1.356 . S
H2670 C2664 0.930 . S
H2671 C2668 0.930 . S
C2672 C2674 1.348 . S
C2672 C2675 1.356 . S
C2672 O2702 1.325 . S
N2673 C2676 1.314 . S
N2673 C2677 1.279 . S
C2674 C2672 1.348 . S
C2674 C2676 1.353 . S
C2674 H2716 0.929 . S
C2675 C2672 1.356 . S
C2675 C2677 1.358 . S
C2675 H2717 0.930 . S
C2676 N2673 1.314 . S
C2676 C2674 1.353 . S
C2676 H2718 0.930 . S
C2677 N2673 1.279 . S
C2677 C2675 1.358 . S
C2677 H2719 0.930 . S
C2678 C2679 1.348 . S
C2678 C2680 1.356 . S
C2678 O2703 1.325 . S
C2679 C2678 1.348 . S
C2679 C2681 1.353 . S
C2679 H2720 0.929 . S
C2680 C2678 1.356 . S
C2680 C2682 1.358 . S
C2680 H2721 0.930 . S
C2681 C2679 1.353 . S
C2681 N2683 1.314 . S
C2681 H2722 0.930 . S
C2682 C2680 1.358 . S
C2682 N2683 1.279 . S
C2682 H2723 0.930 . S
N2683 C2681 1.314 . S
N2683 C2682 1.279 . S
C2684 C2686 1.353 . S
C2684 N2687 1.314 . S
C2684 H2690 0.930 . S
C2685 N2687 1.279 . S
C2685 C2688 1.358 . S
C2685 H2691 0.930 . S
C2686 C2684 1.353 . S
C2686 C2689 1.348 . S
C2686 H2724 0.929 . S
N2687 Li2642 1.990 . S
N2687 C2684 1.314 . S
N2687 C2685 1.279 . S
C2688 C2685 1.358 . S
C2688 C2689 1.356 . S
C2688 H2725 0.930 . S
C2689 C2686 1.348 . S
C2689 C2688 1.356 . S
H2690 C2684 0.930 . S
H2691 C2685 0.930 . S
C2692 N2693 1.314 . S
C2692 C2694 1.353 . S
C2692 H2698 0.930 . S
N2693 Li2643 1.990 . S
N2693 C2692 1.314 . S
N2693 C2696 1.279 . S
C2694 C2692 1.353 . S
C2694 C2697 1.348 . S
C2694 H2726 0.929 . S
C2695 C2696 1.358 . S
C2695 C2697 1.356 . S
C2695 H2727 0.930 . S
C2696 N2693 1.279 . S
C2696 C2695 1.358 . S
C2696 H2699 0.930 . S
C2697 C2694 1.348 . S
C2697 C2695 1.356 . S
H2698 C2692 0.930 . S
H2699 C2696 0.930 . S
O2700 Li2640 1.956 . S
O2700 Li2641 1.970 . S
O2700 Li2642 1.961 . S
O2700 C2644 1.325 . S
O2701 Li2640 1.970 . S
O2701 Li2641 1.956 . S
O2701 Li2643 1.961 . S
O2701 C2650 1.325 . S
O2702 Li2640 1.961 . S
O2702 Li2642 1.956 . S
O2702 Li2643 1.970 . S
O2702 C2672 1.325 . S
O2703 Li2641 1.961 . S
O2703 Li2642 1.970 . S
O2703 Li2643 1.956 . S
O2703 C2678 1.325 . S
H2704 C2646 0.929 . S
H2705 C2647 0.930 . S
H2706 C2648 0.930 . S
H2707 C2649 0.930 . S
H2708 C2651 0.930 . S
H2709 C2653 0.929 . S
H2710 C2654 0.930 . S
H2711 C2655 0.930 . S
H2712 C2658 0.930 . S
H2713 C2661 0.929 . S
H2714 C2666 0.929 . S
H2715 C2667 0.930 . S
H2716 C2674 0.929 . S
H2717 C2675 0.930 . S
H2718 C2676 0.930 . S
H2719 C2677 0.930 . S
H2720 C2679 0.929 . S
H2721 C2680 0.930 . S
H2722 C2681 0.930 . S
H2723 C2682 0.930 . S
H2724 C2686 0.929 . S
H2725 C2688 0.930 . S
H2726 C2694 0.929 . S
H2727 C2695 0.930 . S
Li2728 N2745 1.990 . S
Li2728 O2788 1.956 . S
Li2728 O2789 1.970 . S
Li2728 O2790 1.961 . S
Li2729 N2753 1.990 . S
Li2729 O2788 1.970 . S
Li2729 O2789 1.956 . S
Li2729 O2791 1.961 . S
Li2730 N2775 1.990 . S
Li2730 O2788 1.961 . S
Li2730 O2790 1.956 . S
Li2730 O2791 1.970 . S
Li2731 N2781 1.990 . S
Li2731 O2789 1.961 . S
Li2731 O2790 1.970 . S
Li2731 O2791 1.956 . S
C2732 C2734 1.348 . S
C2732 C2735 1.356 . S
C2732 O2788 1.325 . S
N2733 C2736 1.314 . S
N2733 C2737 1.279 . S
C2734 C2732 1.348 . S
C2734 C2736 1.353 . S
C2734 H2792 0.929 . S
C2735 C2732 1.356 . S
C2735 C2737 1.358 . S
C2735 H2793 0.930 . S
C2736 N2733 1.314 . S
C2736 C2734 1.353 . S
C2736 H2794 0.930 . S
C2737 N2733 1.279 . S
C2737 C2735 1.358 . S
C2737 H2795 0.930 . S
C2738 C2741 1.348 . S
C2738 C2742 1.356 . S
C2738 O2789 1.325 . S
C2739 N2740 1.279 . S
C2739 C2742 1.358 . S
C2739 H2796 0.930 . S
N2740 C2739 1.279 . S
N2740 C2743 1.314 . S
C2741 C2738 1.348 . S
C2741 C2743 1.353 . S
C2741 H2797 0.929 . S
C2742 C2738 1.356 . S
C2742 C2739 1.358 . S
C2742 H2798 0.930 . S
C2743 N2740 1.314 . S
C2743 C2741 1.353 . S
C2743 H2799 0.930 . S
C2744 N2745 1.314 . S
C2744 C2749 1.353 . S
C2744 H2750 0.930 . S
N2745 Li2728 1.990 . S
N2745 C2744 1.314 . S
N2745 C2747 1.279 . S
C2746 C2747 1.358 . S
C2746 C2748 1.356 . S
C2746 H2800 0.930 . S
C2747 N2745 1.279 . S
C2747 C2746 1.358 . S
C2747 H2751 0.930 . S
C2748 C2746 1.356 . S
C2748 C2749 1.348 . S
C2749 C2744 1.353 . S
C2749 C2748 1.348 . S
C2749 H2801 0.929 . S
H2750 C2744 0.930 . S
H2751 C2747 0.930 . S
C2752 N2753 1.314 . S
C2752 C2754 1.353 . S
C2752 H2758 0.930 . S
N2753 Li2729 1.990 . S
N2753 C2752 1.314 . S
N2753 C2756 1.279 . S
C2754 C2752 1.353 . S
C2754 C2757 1.348 . S
C2754 H2802 0.929 . S
C2755 C2756 1.358 . S
C2755 C2757 1.356 . S
C2755 H2803 0.930 . S
C2756 N2753 1.279 . S
C2756 C2755 1.358 . S
C2756 H2759 0.930 . S
C2757 C2754 1.348 . S
C2757 C2755 1.356 . S
H2758 C2752 0.930 . S
H2759 C2756 0.930 . S
C2760 C2762 1.348 . S
C2760 C2763 1.356 . S
C2760 O2790 1.325 . S
N2761 C2764 1.314 . S
N2761 C2765 1.279 . S
C2762 C2760 1.348 . S
C2762 C2764 1.353 . S
C2762 H2804 0.929 . S
C2763 C2760 1.356 . S
C2763 C2765 1.358 . S
C2763 H2805 0.930 . S
C2764 N2761 1.314 . S
C2764 C2762 1.353 . S
C2764 H2806 0.930 . S
C2765 N2761 1.279 . S
C2765 C2763 1.358 . S
C2765 H2807 0.930 . S
C2766 C2767 1.348 . S
C2766 C2768 1.356 . S
C2766 O2791 1.325 . S
C2767 C2766 1.348 . S
C2767 C2769 1.353 . S
C2767 H2808 0.929 . S
C2768 C2766 1.356 . S
C2768 C2770 1.358 . S
C2768 H2809 0.930 . S
C2769 C2767 1.353 . S
C2769 N2771 1.314 . S
C2769 H2810 0.930 . S
C2770 C2768 1.358 . S
C2770 N2771 1.279 . S
C2770 H2811 0.930 . S
N2771 C2769 1.314 . S
N2771 C2770 1.279 . S
C2772 C2774 1.353 . S
C2772 N2775 1.314 . S
C2772 H2778 0.930 . S
C2773 N2775 1.279 . S
C2773 C2776 1.358 . S
C2773 H2779 0.930 . S
C2774 C2772 1.353 . S
C2774 C2777 1.348 . S
C2774 H2812 0.929 . S
N2775 Li2730 1.990 . S
N2775 C2772 1.314 . S
N2775 C2773 1.279 . S
C2776 C2773 1.358 . S
C2776 C2777 1.356 . S
C2776 H2813 0.930 . S
C2777 C2774 1.348 . S
C2777 C2776 1.356 . S
H2778 C2772 0.930 . S
H2779 C2773 0.930 . S
C2780 N2781 1.314 . S
C2780 C2782 1.353 . S
C2780 H2786 0.930 . S
N2781 Li2731 1.990 . S
N2781 C2780 1.314 . S
N2781 C2784 1.279 . S
C2782 C2780 1.353 . S
C2782 C2785 1.348 . S
C2782 H2814 0.929 . S
C2783 C2784 1.358 . S
C2783 C2785 1.356 . S
C2783 H2815 0.930 . S
C2784 N2781 1.279 . S
C2784 C2783 1.358 . S
C2784 H2787 0.930 . S
C2785 C2782 1.348 . S
C2785 C2783 1.356 . S
H2786 C2780 0.930 . S
H2787 C2784 0.930 . S
O2788 Li2728 1.956 . S
O2788 Li2729 1.970 . S
O2788 Li2730 1.961 . S
O2788 C2732 1.325 . S
O2789 Li2728 1.970 . S
O2789 Li2729 1.956 . S
O2789 Li2731 1.961 . S
O2789 C2738 1.325 . S
O2790 Li2728 1.961 . S
O2790 Li2730 1.956 . S
O2790 Li2731 1.970 . S
O2790 C2760 1.325 . S
O2791 Li2729 1.961 . S
O2791 Li2730 1.970 . S
O2791 Li2731 1.956 . S
O2791 C2766 1.325 . S
H2792 C2734 0.929 . S
H2793 C2735 0.930 . S
H2794 C2736 0.930 . S
H2795 C2737 0.930 . S
H2796 C2739 0.930 . S
H2797 C2741 0.929 . S
H2798 C2742 0.930 . S
H2799 C2743 0.930 . S
H2800 C2746 0.930 . S
H2801 C2749 0.929 . S
H2802 C2754 0.929 . S
H2803 C2755 0.930 . S
H2804 C2762 0.929 . S
H2805 C2763 0.930 . S
H2806 C2764 0.930 . S
H2807 C2765 0.930 . S
H2808 C2767 0.929 . S
H2809 C2768 0.930 . S
H2810 C2769 0.930 . S
H2811 C2770 0.930 . S
H2812 C2774 0.929 . S
H2813 C2776 0.930 . S
H2814 C2782 0.929 . S
H2815 C2783 0.930 . S
Li2816 N2833 1.990 . S
Li2816 O2876 1.956 . S
Li2816 O2877 1.970 . S
Li2816 O2878 1.961 . S
Li2817 N2841 1.990 . S
Li2817 O2876 1.970 . S
Li2817 O2877 1.956 . S
Li2817 O2879 1.961 . S
Li2818 N2863 1.990 . S
Li2818 O2876 1.961 . S
Li2818 O2878 1.956 . S
Li2818 O2879 1.970 . S
Li2819 N2869 1.990 . S
Li2819 O2877 1.961 . S
Li2819 O2878 1.970 . S
Li2819 O2879 1.956 . S
C2820 C2822 1.348 . S
C2820 C2823 1.356 . S
C2820 O2876 1.325 . S
N2821 C2824 1.314 . S
N2821 C2825 1.279 . S
C2822 C2820 1.348 . S
C2822 C2824 1.353 . S
C2822 H2880 0.929 . S
C2823 C2820 1.356 . S
C2823 C2825 1.358 . S
C2823 H2881 0.930 . S
C2824 N2821 1.314 . S
C2824 C2822 1.353 . S
C2824 H2882 0.930 . S
C2825 N2821 1.279 . S
C2825 C2823 1.358 . S
C2825 H2883 0.930 . S
C2826 C2829 1.348 . S
C2826 C2830 1.356 . S
C2826 O2877 1.325 . S
C2827 N2828 1.279 . S
C2827 C2830 1.358 . S
C2827 H2884 0.930 . S
N2828 C2827 1.279 . S
N2828 C2831 1.314 . S
C2829 C2826 1.348 . S
C2829 C2831 1.353 . S
C2829 H2885 0.929 . S
C2830 C2826 1.356 . S
C2830 C2827 1.358 . S
C2830 H2886 0.930 . S
C2831 N2828 1.314 . S
C2831 C2829 1.353 . S
C2831 H2887 0.930 . S
C2832 N2833 1.314 . S
C2832 C2837 1.353 . S
C2832 H2838 0.930 . S
N2833 Li2816 1.990 . S
N2833 C2832 1.314 . S
N2833 C2835 1.279 . S
C2834 C2835 1.358 . S
C2834 C2836 1.356 . S
C2834 H2888 0.930 . S
C2835 N2833 1.279 . S
C2835 C2834 1.358 . S
C2835 H2839 0.930 . S
C2836 C2834 1.356 . S
C2836 C2837 1.348 . S
C2837 C2832 1.353 . S
C2837 C2836 1.348 . S
C2837 H2889 0.929 . S
H2838 C2832 0.930 . S
H2839 C2835 0.930 . S
C2840 N2841 1.314 . S
C2840 C2842 1.353 . S
C2840 H2846 0.930 . S
N2841 Li2817 1.990 . S
N2841 C2840 1.314 . S
N2841 C2844 1.279 . S
C2842 C2840 1.353 . S
C2842 C2845 1.348 . S
C2842 H2890 0.929 . S
C2843 C2844 1.358 . S
C2843 C2845 1.356 . S
C2843 H2891 0.930 . S
C2844 N2841 1.279 . S
C2844 C2843 1.358 . S
C2844 H2847 0.930 . S
C2845 C2842 1.348 . S
C2845 C2843 1.356 . S
H2846 C2840 0.930 . S
H2847 C2844 0.930 . S
C2848 C2850 1.348 . S
C2848 C2851 1.356 . S
C2848 O2878 1.325 . S
N2849 C2852 1.314 . S
N2849 C2853 1.279 . S
C2850 C2848 1.348 . S
C2850 C2852 1.353 . S
C2850 H2892 0.929 . S
C2851 C2848 1.356 . S
C2851 C2853 1.358 . S
C2851 H2893 0.930 . S
C2852 N2849 1.314 . S
C2852 C2850 1.353 . S
C2852 H2894 0.930 . S
C2853 N2849 1.279 . S
C2853 C2851 1.358 . S
C2853 H2895 0.930 . S
C2854 C2855 1.348 . S
C2854 C2856 1.356 . S
C2854 O2879 1.325 . S
C2855 C2854 1.348 . S
C2855 C2857 1.353 . S
C2855 H2896 0.929 . S
C2856 C2854 1.356 . S
C2856 C2858 1.358 . S
C2856 H2897 0.930 . S
C2857 C2855 1.353 . S
C2857 N2859 1.314 . S
C2857 H2898 0.930 . S
C2858 C2856 1.358 . S
C2858 N2859 1.279 . S
C2858 H2899 0.930 . S
N2859 C2857 1.314 . S
N2859 C2858 1.279 . S
C2860 C2862 1.353 . S
C2860 N2863 1.314 . S
C2860 H2866 0.930 . S
C2861 N2863 1.279 . S
C2861 C2864 1.358 . S
C2861 H2867 0.930 . S
C2862 C2860 1.353 . S
C2862 C2865 1.348 . S
C2862 H2900 0.929 . S
N2863 Li2818 1.990 . S
N2863 C2860 1.314 . S
N2863 C2861 1.279 . S
C2864 C2861 1.358 . S
C2864 C2865 1.356 . S
C2864 H2901 0.930 . S
C2865 C2862 1.348 . S
C2865 C2864 1.356 . S
H2866 C2860 0.930 . S
H2867 C2861 0.930 . S
C2868 N2869 1.314 . S
C2868 C2870 1.353 . S
C2868 H2874 0.930 . S
N2869 Li2819 1.990 . S
N2869 C2868 1.314 . S
N2869 C2872 1.279 . S
C2870 C2868 1.353 . S
C2870 C2873 1.348 . S
C2870 H2902 0.929 . S
C2871 C2872 1.358 . S
C2871 C2873 1.356 . S
C2871 H2903 0.930 . S
C2872 N2869 1.279 . S
C2872 C2871 1.358 . S
C2872 H2875 0.930 . S
C2873 C2870 1.348 . S
C2873 C2871 1.356 . S
H2874 C2868 0.930 . S
H2875 C2872 0.930 . S
O2876 Li2816 1.956 . S
O2876 Li2817 1.970 . S
O2876 Li2818 1.961 . S
O2876 C2820 1.325 . S
O2877 Li2816 1.970 . S
O2877 Li2817 1.956 . S
O2877 Li2819 1.961 . S
O2877 C2826 1.325 . S
O2878 Li2816 1.961 . S
O2878 Li2818 1.956 . S
O2878 Li2819 1.970 . S
O2878 C2848 1.325 . S
O2879 Li2817 1.961 . S
O2879 Li2818 1.970 . S
O2879 Li2819 1.956 . S
O2879 C2854 1.325 . S
H2880 C2822 0.929 . S
H2881 C2823 0.930 . S
H2882 C2824 0.930 . S
H2883 C2825 0.930 . S
H2884 C2827 0.930 . S
H2885 C2829 0.929 . S
H2886 C2830 0.930 . S
H2887 C2831 0.930 . S
H2888 C2834 0.930 . S
H2889 C2837 0.929 . S
H2890 C2842 0.929 . S
H2891 C2843 0.930 . S
H2892 C2850 0.929 . S
H2893 C2851 0.930 . S
H2894 C2852 0.930 . S
H2895 C2853 0.930 . S
H2896 C2855 0.929 . S
H2897 C2856 0.930 . S
H2898 C2857 0.930 . S
H2899 C2858 0.930 . S
H2900 C2862 0.929 . S
H2901 C2864 0.930 . S
H2902 C2870 0.929 . S
H2903 C2871 0.930 . S
Li2904 N2921 1.990 . S
Li2904 O2964 1.956 . S
Li2904 O2965 1.970 . S
Li2904 O2966 1.961 . S
Li2905 N2929 1.990 . S
Li2905 O2964 1.970 . S
Li2905 O2965 1.956 . S
Li2905 O2967 1.961 . S
Li2906 N2951 1.990 . S
Li2906 O2964 1.961 . S
Li2906 O2966 1.956 . S
Li2906 O2967 1.970 . S
Li2907 N2957 1.990 . S
Li2907 O2965 1.961 . S
Li2907 O2966 1.970 . S
Li2907 O2967 1.956 . S
C2908 C2910 1.348 . S
C2908 C2911 1.356 . S
C2908 O2964 1.325 . S
N2909 C2912 1.314 . S
N2909 C2913 1.279 . S
C2910 C2908 1.348 . S
C2910 C2912 1.353 . S
C2910 H2968 0.929 . S
C2911 C2908 1.356 . S
C2911 C2913 1.358 . S
C2911 H2969 0.930 . S
C2912 N2909 1.314 . S
C2912 C2910 1.353 . S
C2912 H2970 0.930 . S
C2913 N2909 1.279 . S
C2913 C2911 1.358 . S
C2913 H2971 0.930 . S
C2914 C2917 1.348 . S
C2914 C2918 1.356 . S
C2914 O2965 1.325 . S
C2915 N2916 1.279 . S
C2915 C2918 1.358 . S
C2915 H2972 0.930 . S
N2916 C2915 1.279 . S
N2916 C2919 1.314 . S
C2917 C2914 1.348 . S
C2917 C2919 1.353 . S
C2917 H2973 0.929 . S
C2918 C2914 1.356 . S
C2918 C2915 1.358 . S
C2918 H2974 0.930 . S
C2919 N2916 1.314 . S
C2919 C2917 1.353 . S
C2919 H2975 0.930 . S
C2920 N2921 1.314 . S
C2920 C2925 1.353 . S
C2920 H2926 0.930 . S
N2921 Li2904 1.990 . S
N2921 C2920 1.314 . S
N2921 C2923 1.279 . S
C2922 C2923 1.358 . S
C2922 C2924 1.356 . S
C2922 H2976 0.930 . S
C2923 N2921 1.279 . S
C2923 C2922 1.358 . S
C2923 H2927 0.930 . S
C2924 C2922 1.356 . S
C2924 C2925 1.348 . S
C2925 C2920 1.353 . S
C2925 C2924 1.348 . S
C2925 H2977 0.929 . S
H2926 C2920 0.930 . S
H2927 C2923 0.930 . S
C2928 N2929 1.314 . S
C2928 C2930 1.353 . S
C2928 H2934 0.930 . S
N2929 Li2905 1.990 . S
N2929 C2928 1.314 . S
N2929 C2932 1.279 . S
C2930 C2928 1.353 . S
C2930 C2933 1.348 . S
C2930 H2978 0.929 . S
C2931 C2932 1.358 . S
C2931 C2933 1.356 . S
C2931 H2979 0.930 . S
C2932 N2929 1.279 . S
C2932 C2931 1.358 . S
C2932 H2935 0.930 . S
C2933 C2930 1.348 . S
C2933 C2931 1.356 . S
H2934 C2928 0.930 . S
H2935 C2932 0.930 . S
C2936 C2938 1.348 . S
C2936 C2939 1.356 . S
C2936 O2966 1.325 . S
N2937 C2940 1.314 . S
N2937 C2941 1.279 . S
C2938 C2936 1.348 . S
C2938 C2940 1.353 . S
C2938 H2980 0.929 . S
C2939 C2936 1.356 . S
C2939 C2941 1.358 . S
C2939 H2981 0.930 . S
C2940 N2937 1.314 . S
C2940 C2938 1.353 . S
C2940 H2982 0.930 . S
C2941 N2937 1.279 . S
C2941 C2939 1.358 . S
C2941 H2983 0.930 . S
C2942 C2943 1.348 . S
C2942 C2944 1.356 . S
C2942 O2967 1.325 . S
C2943 C2942 1.348 . S
C2943 C2945 1.353 . S
C2943 H2984 0.929 . S
C2944 C2942 1.356 . S
C2944 C2946 1.358 . S
C2944 H2985 0.930 . S
C2945 C2943 1.353 . S
C2945 N2947 1.314 . S
C2945 H2986 0.930 . S
C2946 C2944 1.358 . S
C2946 N2947 1.279 . S
C2946 H2987 0.930 . S
N2947 C2945 1.314 . S
N2947 C2946 1.279 . S
C2948 C2950 1.353 . S
C2948 N2951 1.314 . S
C2948 H2954 0.930 . S
C2949 N2951 1.279 . S
C2949 C2952 1.358 . S
C2949 H2955 0.930 . S
C2950 C2948 1.353 . S
C2950 C2953 1.348 . S
C2950 H2988 0.929 . S
N2951 Li2906 1.990 . S
N2951 C2948 1.314 . S
N2951 C2949 1.279 . S
C2952 C2949 1.358 . S
C2952 C2953 1.356 . S
C2952 H2989 0.930 . S
C2953 C2950 1.348 . S
C2953 C2952 1.356 . S
H2954 C2948 0.930 . S
H2955 C2949 0.930 . S
C2956 N2957 1.314 . S
C2956 C2958 1.353 . S
C2956 H2962 0.930 . S
N2957 Li2907 1.990 . S
N2957 C2956 1.314 . S
N2957 C2960 1.279 . S
C2958 C2956 1.353 . S
C2958 C2961 1.348 . S
C2958 H2990 0.929 . S
C2959 C2960 1.358 . S
C2959 C2961 1.356 . S
C2959 H2991 0.930 . S
C2960 N2957 1.279 . S
C2960 C2959 1.358 . S
C2960 H2963 0.930 . S
C2961 C2958 1.348 . S
C2961 C2959 1.356 . S
H2962 C2956 0.930 . S
H2963 C2960 0.930 . S
O2964 Li2904 1.956 . S
O2964 Li2905 1.970 . S
O2964 Li2906 1.961 . S
O2964 C2908 1.325 . S
O2965 Li2904 1.970 . S
O2965 Li2905 1.956 . S
O2965 Li2907 1.961 . S
O2965 C2914 1.325 . S
O2966 Li2904 1.961 . S
O2966 Li2906 1.956 . S
O2966 Li2907 1.970 . S
O2966 C2936 1.325 . S
O2967 Li2905 1.961 . S
O2967 Li2906 1.970 . S
O2967 Li2907 1.956 . S
O2967 C2942 1.325 . S
H2968 C2910 0.929 . S
H2969 C2911 0.930 . S
H2970 C2912 0.930 . S
H2971 C2913 0.930 . S
H2972 C2915 0.930 . S
H2973 C2917 0.929 . S
H2974 C2918 0.930 . S
H2975 C2919 0.930 . S
H2976 C2922 0.930 . S
H2977 C2925 0.929 . S
H2978 C2930 0.929 . S
H2979 C2931 0.930 . S
H2980 C2938 0.929 . S
H2981 C2939 0.930 . S
H2982 C2940 0.930 . S
H2983 C2941 0.930 . S
H2984 C2943 0.929 . S
H2985 C2944 0.930 . S
H2986 C2945 0.930 . S
H2987 C2946 0.930 . S
H2988 C2950 0.929 . S
H2989 C2952 0.930 . S
H2990 C2958 0.929 . S
H2991 C2959 0.930 . S
Li2992 N3009 1.990 . S
Li2992 O3052 1.956 . S
Li2992 O3053 1.970 . S
Li2992 O3054 1.961 . S
Li2993 N3017 1.990 . S
Li2993 O3052 1.970 . S
Li2993 O3053 1.956 . S
Li2993 O3055 1.961 . S
Li2994 N3039 1.990 . S
Li2994 O3052 1.961 . S
Li2994 O3054 1.956 . S
Li2994 O3055 1.970 . S
Li2995 N3045 1.990 . S
Li2995 O3053 1.961 . S
Li2995 O3054 1.970 . S
Li2995 O3055 1.956 . S
C2996 C2998 1.348 . S
C2996 C2999 1.356 . S
C2996 O3052 1.325 . S
N2997 C3000 1.314 . S
N2997 C3001 1.279 . S
C2998 C2996 1.348 . S
C2998 C3000 1.353 . S
C2998 H3056 0.929 . S
C2999 C2996 1.356 . S
C2999 C3001 1.358 . S
C2999 H3057 0.930 . S
C3000 N2997 1.314 . S
C3000 C2998 1.353 . S
C3000 H3058 0.930 . S
C3001 N2997 1.279 . S
C3001 C2999 1.358 . S
C3001 H3059 0.930 . S
C3002 C3005 1.348 . S
C3002 C3006 1.356 . S
C3002 O3053 1.325 . S
C3003 N3004 1.279 . S
C3003 C3006 1.358 . S
C3003 H3060 0.930 . S
N3004 C3003 1.279 . S
N3004 C3007 1.314 . S
C3005 C3002 1.348 . S
C3005 C3007 1.353 . S
C3005 H3061 0.929 . S
C3006 C3002 1.356 . S
C3006 C3003 1.358 . S
C3006 H3062 0.930 . S
C3007 N3004 1.314 . S
C3007 C3005 1.353 . S
C3007 H3063 0.930 . S
C3008 N3009 1.314 . S
C3008 C3013 1.353 . S
C3008 H3014 0.930 . S
N3009 Li2992 1.990 . S
N3009 C3008 1.314 . S
N3009 C3011 1.279 . S
C3010 C3011 1.358 . S
C3010 C3012 1.356 . S
C3010 H3064 0.930 . S
C3011 N3009 1.279 . S
C3011 C3010 1.358 . S
C3011 H3015 0.930 . S
C3012 C3010 1.356 . S
C3012 C3013 1.348 . S
C3013 C3008 1.353 . S
C3013 C3012 1.348 . S
C3013 H3065 0.929 . S
H3014 C3008 0.930 . S
H3015 C3011 0.930 . S
C3016 N3017 1.314 . S
C3016 C3018 1.353 . S
C3016 H3022 0.930 . S
N3017 Li2993 1.990 . S
N3017 C3016 1.314 . S
N3017 C3020 1.279 . S
C3018 C3016 1.353 . S
C3018 C3021 1.348 . S
C3018 H3066 0.929 . S
C3019 C3020 1.358 . S
C3019 C3021 1.356 . S
C3019 H3067 0.930 . S
C3020 N3017 1.279 . S
C3020 C3019 1.358 . S
C3020 H3023 0.930 . S
C3021 C3018 1.348 . S
C3021 C3019 1.356 . S
H3022 C3016 0.930 . S
H3023 C3020 0.930 . S
C3024 C3026 1.348 . S
C3024 C3027 1.356 . S
C3024 O3054 1.325 . S
N3025 C3028 1.314 . S
N3025 C3029 1.279 . S
C3026 C3024 1.348 . S
C3026 C3028 1.353 . S
C3026 H3068 0.929 . S
C3027 C3024 1.356 . S
C3027 C3029 1.358 . S
C3027 H3069 0.930 . S
C3028 N3025 1.314 . S
C3028 C3026 1.353 . S
C3028 H3070 0.930 . S
C3029 N3025 1.279 . S
C3029 C3027 1.358 . S
C3029 H3071 0.930 . S
C3030 C3031 1.348 . S
C3030 C3032 1.356 . S
C3030 O3055 1.325 . S
C3031 C3030 1.348 . S
C3031 C3033 1.353 . S
C3031 H3072 0.929 . S
C3032 C3030 1.356 . S
C3032 C3034 1.358 . S
C3032 H3073 0.930 . S
C3033 C3031 1.353 . S
C3033 N3035 1.314 . S
C3033 H3074 0.930 . S
C3034 C3032 1.358 . S
C3034 N3035 1.279 . S
C3034 H3075 0.930 . S
N3035 C3033 1.314 . S
N3035 C3034 1.279 . S
C3036 C3038 1.353 . S
C3036 N3039 1.314 . S
C3036 H3042 0.930 . S
C3037 N3039 1.279 . S
C3037 C3040 1.358 . S
C3037 H3043 0.930 . S
C3038 C3036 1.353 . S
C3038 C3041 1.348 . S
C3038 H3076 0.929 . S
N3039 Li2994 1.990 . S
N3039 C3036 1.314 . S
N3039 C3037 1.279 . S
C3040 C3037 1.358 . S
C3040 C3041 1.356 . S
C3040 H3077 0.930 . S
C3041 C3038 1.348 . S
C3041 C3040 1.356 . S
H3042 C3036 0.930 . S
H3043 C3037 0.930 . S
C3044 N3045 1.314 . S
C3044 C3046 1.353 . S
C3044 H3050 0.930 . S
N3045 Li2995 1.990 . S
N3045 C3044 1.314 . S
N3045 C3048 1.279 . S
C3046 C3044 1.353 . S
C3046 C3049 1.348 . S
C3046 H3078 0.929 . S
C3047 C3048 1.358 . S
C3047 C3049 1.356 . S
C3047 H3079 0.930 . S
C3048 N3045 1.279 . S
C3048 C3047 1.358 . S
C3048 H3051 0.930 . S
C3049 C3046 1.348 . S
C3049 C3047 1.356 . S
H3050 C3044 0.930 . S
H3051 C3048 0.930 . S
O3052 Li2992 1.956 . S
O3052 Li2993 1.970 . S
O3052 Li2994 1.961 . S
O3052 C2996 1.325 . S
O3053 Li2992 1.970 . S
O3053 Li2993 1.956 . S
O3053 Li2995 1.961 . S
O3053 C3002 1.325 . S
O3054 Li2992 1.961 . S
O3054 Li2994 1.956 . S
O3054 Li2995 1.970 . S
O3054 C3024 1.325 . S
O3055 Li2993 1.961 . S
O3055 Li2994 1.970 . S
O3055 Li2995 1.956 . S
O3055 C3030 1.325 . S
H3056 C2998 0.929 . S
H3057 C2999 0.930 . S
H3058 C3000 0.930 . S
H3059 C3001 0.930 . S
H3060 C3003 0.930 . S
H3061 C3005 0.929 . S
H3062 C3006 0.930 . S
H3063 C3007 0.930 . S
H3064 C3010 0.930 . S
H3065 C3013 0.929 . S
H3066 C3018 0.929 . S
H3067 C3019 0.930 . S
H3068 C3026 0.929 . S
H3069 C3027 0.930 . S
H3070 C3028 0.930 . S
H3071 C3029 0.930 . S
H3072 C3031 0.929 . S
H3073 C3032 0.930 . S
H3074 C3033 0.930 . S
H3075 C3034 0.930 . S
H3076 C3038 0.929 . S
H3077 C3040 0.930 . S
H3078 C3046 0.929 . S
H3079 C3047 0.930 . S
Li3080 N3097 1.990 . S
Li3080 O3140 1.956 . S
Li3080 O3141 1.970 . S
Li3080 O3142 1.961 . S
Li3081 N3105 1.990 . S
Li3081 O3140 1.970 . S
Li3081 O3141 1.956 . S
Li3081 O3143 1.961 . S
Li3082 N3127 1.990 . S
Li3082 O3140 1.961 . S
Li3082 O3142 1.956 . S
Li3082 O3143 1.970 . S
Li3083 N3133 1.990 . S
Li3083 O3141 1.961 . S
Li3083 O3142 1.970 . S
Li3083 O3143 1.956 . S
C3084 C3086 1.348 . S
C3084 C3087 1.356 . S
C3084 O3140 1.325 . S
N3085 C3088 1.314 . S
N3085 C3089 1.279 . S
C3086 C3084 1.348 . S
C3086 C3088 1.353 . S
C3086 H3144 0.929 . S
C3087 C3084 1.356 . S
C3087 C3089 1.358 . S
C3087 H3145 0.930 . S
C3088 N3085 1.314 . S
C3088 C3086 1.353 . S
C3088 H3146 0.930 . S
C3089 N3085 1.279 . S
C3089 C3087 1.358 . S
C3089 H3147 0.930 . S
C3090 C3093 1.348 . S
C3090 C3094 1.356 . S
C3090 O3141 1.325 . S
C3091 N3092 1.279 . S
C3091 C3094 1.358 . S
C3091 H3148 0.930 . S
N3092 C3091 1.279 . S
N3092 C3095 1.314 . S
C3093 C3090 1.348 . S
C3093 C3095 1.353 . S
C3093 H3149 0.929 . S
C3094 C3090 1.356 . S
C3094 C3091 1.358 . S
C3094 H3150 0.930 . S
C3095 N3092 1.314 . S
C3095 C3093 1.353 . S
C3095 H3151 0.930 . S
C3096 N3097 1.314 . S
C3096 C3101 1.353 . S
C3096 H3102 0.930 . S
N3097 Li3080 1.990 . S
N3097 C3096 1.314 . S
N3097 C3099 1.279 . S
C3098 C3099 1.358 . S
C3098 C3100 1.356 . S
C3098 H3152 0.930 . S
C3099 N3097 1.279 . S
C3099 C3098 1.358 . S
C3099 H3103 0.930 . S
C3100 C3098 1.356 . S
C3100 C3101 1.348 . S
C3101 C3096 1.353 . S
C3101 C3100 1.348 . S
C3101 H3153 0.929 . S
H3102 C3096 0.930 . S
H3103 C3099 0.930 . S
C3104 N3105 1.314 . S
C3104 C3106 1.353 . S
C3104 H3110 0.930 . S
N3105 Li3081 1.990 . S
N3105 C3104 1.314 . S
N3105 C3108 1.279 . S
C3106 C3104 1.353 . S
C3106 C3109 1.348 . S
C3106 H3154 0.929 . S
C3107 C3108 1.358 . S
C3107 C3109 1.356 . S
C3107 H3155 0.930 . S
C3108 N3105 1.279 . S
C3108 C3107 1.358 . S
C3108 H3111 0.930 . S
C3109 C3106 1.348 . S
C3109 C3107 1.356 . S
H3110 C3104 0.930 . S
H3111 C3108 0.930 . S
C3112 C3114 1.348 . S
C3112 C3115 1.356 . S
C3112 O3142 1.325 . S
N3113 C3116 1.314 . S
N3113 C3117 1.279 . S
C3114 C3112 1.348 . S
C3114 C3116 1.353 . S
C3114 H3156 0.929 . S
C3115 C3112 1.356 . S
C3115 C3117 1.358 . S
C3115 H3157 0.930 . S
C3116 N3113 1.314 . S
C3116 C3114 1.353 . S
C3116 H3158 0.930 . S
C3117 N3113 1.279 . S
C3117 C3115 1.358 . S
C3117 H3159 0.930 . S
C3118 C3119 1.348 . S
C3118 C3120 1.356 . S
C3118 O3143 1.325 . S
C3119 C3118 1.348 . S
C3119 C3121 1.353 . S
C3119 H3160 0.929 . S
C3120 C3118 1.356 . S
C3120 C3122 1.358 . S
C3120 H3161 0.930 . S
C3121 C3119 1.353 . S
C3121 N3123 1.314 . S
C3121 H3162 0.930 . S
C3122 C3120 1.358 . S
C3122 N3123 1.279 . S
C3122 H3163 0.930 . S
N3123 C3121 1.314 . S
N3123 C3122 1.279 . S
C3124 C3126 1.353 . S
C3124 N3127 1.314 . S
C3124 H3130 0.930 . S
C3125 N3127 1.279 . S
C3125 C3128 1.358 . S
C3125 H3131 0.930 . S
C3126 C3124 1.353 . S
C3126 C3129 1.348 . S
C3126 H3164 0.929 . S
N3127 Li3082 1.990 . S
N3127 C3124 1.314 . S
N3127 C3125 1.279 . S
C3128 C3125 1.358 . S
C3128 C3129 1.356 . S
C3128 H3165 0.930 . S
C3129 C3126 1.348 . S
C3129 C3128 1.356 . S
H3130 C3124 0.930 . S
H3131 C3125 0.930 . S
C3132 N3133 1.314 . S
C3132 C3134 1.353 . S
C3132 H3138 0.930 . S
N3133 Li3083 1.990 . S
N3133 C3132 1.314 . S
N3133 C3136 1.279 . S
C3134 C3132 1.353 . S
C3134 C3137 1.348 . S
C3134 H3166 0.929 . S
C3135 C3136 1.358 . S
C3135 C3137 1.356 . S
C3135 H3167 0.930 . S
C3136 N3133 1.279 . S
C3136 C3135 1.358 . S
C3136 H3139 0.930 . S
C3137 C3134 1.348 . S
C3137 C3135 1.356 . S
H3138 C3132 0.930 . S
H3139 C3136 0.930 . S
O3140 Li3080 1.956 . S
O3140 Li3081 1.970 . S
O3140 Li3082 1.961 . S
O3140 C3084 1.325 . S
O3141 Li3080 1.970 . S
O3141 Li3081 1.956 . S
O3141 Li3083 1.961 . S
O3141 C3090 1.325 . S
O3142 Li3080 1.961 . S
O3142 Li3082 1.956 . S
O3142 Li3083 1.970 . S
O3142 C3112 1.325 . S
O3143 Li3081 1.961 . S
O3143 Li3082 1.970 . S
O3143 Li3083 1.956 . S
O3143 C3118 1.325 . S
H3144 C3086 0.929 . S
H3145 C3087 0.930 . S
H3146 C3088 0.930 . S
H3147 C3089 0.930 . S
H3148 C3091 0.930 . S
H3149 C3093 0.929 . S
H3150 C3094 0.930 . S
H3151 C3095 0.930 . S
H3152 C3098 0.930 . S
H3153 C3101 0.929 . S
H3154 C3106 0.929 . S
H3155 C3107 0.930 . S
H3156 C3114 0.929 . S
H3157 C3115 0.930 . S
H3158 C3116 0.930 . S
H3159 C3117 0.930 . S
H3160 C3119 0.929 . S
H3161 C3120 0.930 . S
H3162 C3121 0.930 . S
H3163 C3122 0.930 . S
H3164 C3126 0.929 . S
H3165 C3128 0.930 . S
H3166 C3134 0.929 . S
H3167 C3135 0.930 . S
C3168 C3169 1.387 1_565 S
C3168 H3172 0.950 . S
C3168 C3177 1.390 . S
C3169 C3168 1.387 1_545 S
C3169 C3171 1.387 . S
H3170 C3177 0.950 . S
C3171 C3169 1.387 . S
C3171 C3173 1.390 . S
C3171 H3175 0.950 . S
H3172 C3168 0.950 . S
C3173 C3171 1.390 . S
C3173 C3174 1.387 1_545 S
C3173 H3176 0.950 1_554 S
C3174 C3173 1.387 1_565 S
C3174 C3177 1.387 . S
H3175 C3171 0.950 . S
H3176 C3173 0.950 1_556 S
C3177 C3168 1.390 . S
C3177 H3170 0.950 . S
C3177 C3174 1.387 . S
C3178 C3179 1.387 1_455 S
C3178 H3182 0.950 . S
C3178 C3187 1.390 . S
C3179 C3178 1.387 1_655 S
C3179 C3181 1.387 . S
H3180 C3187 0.950 . S
C3181 C3179 1.387 . S
C3181 C3183 1.390 . S
C3181 H3185 0.950 . S
H3182 C3178 0.950 . S
C3183 C3181 1.390 . S
C3183 C3184 1.387 1_655 S
C3183 H3186 0.950 . S
C3184 C3183 1.387 1_455 S
C3184 C3187 1.387 . S
H3185 C3181 0.950 . S
H3186 C3183 0.950 . S
C3187 C3178 1.390 . S
C3187 H3180 0.950 . S
C3187 C3184 1.387 . S
C3188 C3189 1.387 . S
C3188 H3192 0.950 . S
C3188 C3197 1.390 . S
C3189 C3188 1.387 . S
C3189 C3191 1.387 . S
H3190 C3197 0.950 . S
C3191 C3189 1.387 . S
C3191 C3193 1.390 . S
C3191 H3195 0.950 . S
H3192 C3188 0.950 . S
C3193 C3191 1.390 . S
C3193 C3194 1.387 . S
C3193 H3196 0.950 . S
C3194 C3193 1.387 . S
C3194 C3197 1.387 . S
H3195 C3191 0.950 . S
H3196 C3193 0.950 . S
C3197 C3188 1.390 . S
C3197 H3190 0.950 . S
C3197 C3194 1.387 . S
C3198 C3199 1.387 1_455 S
C3198 H3202 0.950 . S
C3198 C3207 1.390 . S
C3199 C3198 1.387 1_655 S
C3199 C3201 1.387 . S
H3200 C3207 0.950 . S
C3201 C3199 1.387 . S
C3201 C3203 1.390 . S
C3201 H3205 0.950 . S
H3202 C3198 0.950 . S
C3203 C3201 1.390 . S
C3203 C3204 1.387 1_655 S
C3203 H3206 0.950 . S
C3204 C3203 1.387 1_455 S
C3204 C3207 1.387 . S
H3205 C3201 0.950 . S
H3206 C3203 0.950 . S
C3207 C3198 1.390 . S
C3207 H3200 0.950 . S
C3207 C3204 1.387 . S
C3208 C3209 1.387 . S
C3208 H3212 0.950 . S
C3208 C3217 1.390 . S
C3209 C3208 1.387 . S
C3209 C3211 1.387 . S
H3210 C3217 0.950 . S
C3211 C3209 1.387 . S
C3211 C3213 1.390 . S
C3211 H3215 0.950 . S
H3212 C3208 0.950 . S
C3213 C3211 1.390 . S
C3213 C3214 1.387 . S
C3213 H3216 0.950 . S
C3214 C3213 1.387 . S
C3214 C3217 1.387 . S
H3215 C3211 0.950 . S
H3216 C3213 0.950 . S
C3217 C3208 1.390 . S
C3217 H3210 0.950 . S
C3217 C3214 1.387 . S
C3218 C3219 1.387 . S
C3218 H3222 0.950 . S
C3218 C3227 1.390 1_565 S
C3219 C3218 1.387 . S
C3219 C3221 1.387 . S
H3220 C3227 0.950 . S
C3221 C3219 1.387 . S
C3221 C3223 1.390 1_565 S
C3221 H3225 0.950 . S
H3222 C3218 0.950 . S
C3223 C3221 1.390 1_545 S
C3223 C3224 1.387 . S
C3223 H3226 0.950 . S
C3224 C3223 1.387 . S
C3224 C3227 1.387 . S
H3225 C3221 0.950 . S
H3226 C3223 0.950 . S
C3227 C3218 1.390 1_545 S
C3227 H3220 0.950 . S
C3227 C3224 1.387 . S
C3228 C3229 1.387 1_565 S
C3228 H3232 0.958 . S
C3228 C3237 1.390 . S
C3229 C3228 1.387 1_545 S
C3229 C3231 1.387 . S
H3230 C3237 0.950 . S
C3231 C3229 1.387 . S
C3231 C3233 1.390 . S
C3231 H3235 0.950 . S
H3232 C3228 0.958 . S
C3233 C3231 1.390 . S
C3233 C3234 1.387 1_545 S
C3233 H3236 0.950 . S
C3234 C3233 1.387 1_565 S
C3234 C3237 1.387 . S
H3235 C3231 0.950 . S
H3236 C3233 0.950 . S
C3237 C3228 1.390 . S
C3237 H3230 0.950 . S
C3237 C3234 1.387 . S
C3238 C3239 1.387 . S
C3238 H3242 0.950 . S
C3238 C3247 1.390 1_655 S
C3239 C3238 1.387 . S
C3239 C3241 1.387 . S
H3240 C3247 0.950 . S
C3241 C3239 1.387 . S
C3241 C3243 1.390 1_655 S
C3241 H3245 0.950 1_556 S
H3242 C3238 0.950 . S
C3243 C3241 1.390 1_455 S
C3243 C3244 1.387 . S
C3243 H3246 0.950 . S
C3244 C3243 1.387 . S
C3244 C3247 1.387 . S
H3245 C3241 0.950 1_554 S
H3246 C3243 0.950 . S
C3247 C3238 1.390 1_455 S
C3247 H3240 0.950 . S
C3247 C3244 1.387 . S
C3248 C3249 1.387 . S
C3248 H3252 0.950 . S
C3248 C3257 1.390 . S
C3249 C3248 1.387 . S
C3249 C3251 1.387 . S
H3250 C3257 0.950 . S
C3251 C3249 1.387 . S
C3251 C3253 1.390 . S
C3251 H3255 0.950 . S
H3252 C3248 0.950 . S
C3253 C3251 1.390 . S
C3253 C3254 1.387 . S
C3253 H3256 0.950 . S
C3254 C3253 1.387 . S
C3254 C3257 1.387 . S
H3255 C3251 0.950 . S
H3256 C3253 0.950 . S
C3257 C3248 1.390 . S
C3257 H3250 0.950 . S
C3257 C3254 1.387 . S
C3258 C3259 1.387 . S
C3258 H3262 0.950 . S
C3258 C3267 1.390 . S
C3259 C3258 1.387 . S
C3259 C3261 1.387 1_655 S
H3260 C3267 0.950 . S
C3261 C3259 1.387 1_455 S
C3261 C3263 1.390 . S
C3261 H3265 0.950 . S
H3262 C3258 0.950 . S
C3263 C3261 1.390 . S
C3263 C3264 1.387 . S
C3263 H3266 0.950 . S
C3264 C3263 1.387 . S
C3264 C3267 1.387 1_455 S
H3265 C3261 0.950 . S
H3266 C3263 0.950 . S
C3267 C3258 1.390 . S
C3267 H3260 0.950 . S
C3267 C3264 1.387 1_655 S
C3268 C3269 1.387 . S
C3268 H3272 0.950 . S
C3268 C3277 1.390 . S
C3269 C3268 1.387 . S
C3269 C3271 1.387 . S
H3270 C3277 0.950 . S
C3271 C3269 1.387 . S
C3271 C3273 1.390 . S
C3271 H3275 0.950 . S
H3272 C3268 0.950 . S
C3273 C3271 1.390 . S
C3273 C3274 1.387 . S
C3273 H3276 0.950 . S
C3274 C3273 1.387 . S
C3274 C3277 1.387 . S
H3275 C3271 0.950 . S
H3276 C3273 0.950 . S
C3277 C3268 1.390 . S
C3277 H3270 0.950 . S
C3277 C3274 1.387 . S
C3278 C3279 1.387 . S
C3278 H3282 0.950 . S
C3278 C3287 1.390 . S
C3279 C3278 1.387 . S
C3279 C3281 1.387 1_545 S
H3280 C3287 0.950 . S
C3281 C3279 1.387 1_565 S
C3281 C3283 1.390 . S
C3281 H3285 0.950 . S
H3282 C3278 0.950 . S
C3283 C3281 1.390 . S
C3283 C3284 1.387 . S
C3283 H3286 0.950 . S
C3284 C3283 1.387 . S
C3284 C3287 1.387 1_565 S
H3285 C3281 0.950 . S
H3286 C3283 0.950 . S
C3287 C3278 1.390 . S
C3287 H3280 0.950 . S
C3287 C3284 1.387 1_545 S
C3288 C3289 1.387 . S
C3288 H3292 0.950 . S
C3288 C3297 1.390 . S
C3289 C3288 1.387 . S
C3289 C3291 1.387 . S
H3290 C3297 0.950 . S
C3291 C3289 1.387 . S
C3291 C3293 1.390 . S
C3291 H3295 0.950 . S
H3292 C3288 0.950 . S
C3293 C3291 1.390 . S
C3293 C3294 1.387 . S
C3293 H3296 0.950 . S
C3294 C3293 1.387 . S
C3294 C3297 1.387 . S
H3295 C3291 0.950 . S
H3296 C3293 0.950 . S
C3297 C3288 1.390 . S
C3297 H3290 0.950 . S
C3297 C3294 1.387 . S
C3298 C3299 1.387 . S
C3298 H3302 0.950 . S
C3298 C3307 1.390 . S
C3299 C3298 1.387 . S
C3299 C3301 1.387 . S
H3300 C3307 0.950 . S
C3301 C3299 1.387 . S
C3301 C3303 1.390 . S
C3301 H3305 0.950 . S
H3302 C3298 0.950 . S
C3303 C3301 1.390 . S
C3303 C3304 1.387 . S
C3303 H3306 0.950 . S
C3304 C3303 1.387 . S
C3304 C3307 1.387 . S
H3305 C3301 0.950 . S
H3306 C3303 0.950 . S
C3307 C3298 1.390 . S
C3307 H3300 0.950 . S
C3307 C3304 1.387 . S
C3308 C3309 1.387 . S
C3308 H3312 0.950 . S
C3308 C3317 1.390 . S
C3309 C3308 1.387 . S
C3309 C3311 1.387 . S
H3310 C3317 0.950 . S
C3311 C3309 1.387 . S
C3311 C3313 1.390 . S
C3311 H3315 0.950 . S
H3312 C3308 0.950 . S
C3313 C3311 1.390 . S
C3313 C3314 1.387 . S
C3313 H3316 0.950 . S
C3314 C3313 1.387 . S
C3314 C3317 1.387 . S
H3315 C3311 0.950 . S
H3316 C3313 0.950 . S
C3317 C3308 1.390 . S
C3317 H3310 0.950 . S
C3317 C3314 1.387 . S
C3318 C3319 1.387 . S
C3318 H3322 0.950 . S
C3318 C3327 1.390 . S
C3319 C3318 1.387 . S
C3319 C3321 1.387 . S
H3320 C3327 0.950 . S
C3321 C3319 1.387 . S
C3321 C3323 1.390 . S
C3321 H3325 0.950 . S
H3322 C3318 0.950 . S
C3323 C3321 1.390 . S
C3323 C3324 1.387 . S
C3323 H3326 0.950 . S
C3324 C3323 1.387 . S
C3324 C3327 1.387 . S
H3325 C3321 0.950 . S
H3326 C3323 0.950 . S
C3327 C3318 1.390 . S
C3327 H3320 0.950 . S
C3327 C3324 1.387 . S
C3328 C3329 1.387 . S
C3328 H3332 0.950 . S
C3328 C3337 1.390 . S
C3329 C3328 1.387 . S
C3329 C3331 1.387 . S
H3330 C3337 0.950 . S
C3331 C3329 1.387 . S
C3331 C3333 1.390 . S
C3331 H3335 0.950 . S
H3332 C3328 0.950 . S
C3333 C3331 1.390 . S
C3333 C3334 1.387 . S
C3333 H3336 0.950 . S
C3334 C3333 1.387 . S
C3334 C3337 1.387 . S
H3335 C3331 0.950 . S
H3336 C3333 0.950 . S
C3337 C3328 1.390 . S
C3337 H3330 0.950 . S
C3337 C3334 1.387 . S
C3338 C3339 1.387 . S
C3338 H3342 0.950 . S
C3338 C3347 1.390 . S
C3339 C3338 1.387 . S
C3339 C3341 1.387 . S
H3340 C3347 0.950 . S
C3341 C3339 1.387 . S
C3341 C3343 1.390 . S
C3341 H3345 0.950 . S
H3342 C3338 0.950 . S
C3343 C3341 1.390 . S
C3343 C3344 1.387 . S
C3343 H3346 0.950 . S
C3344 C3343 1.387 . S
C3344 C3347 1.387 . S
H3345 C3341 0.950 . S
H3346 C3343 0.950 . S
C3347 C3338 1.390 . S
C3347 H3340 0.950 . S
C3347 C3344 1.387 . S
C3348 C3349 1.387 . S
C3348 H3352 0.950 . S
C3348 C3357 1.390 . S
C3349 C3348 1.387 . S
C3349 C3351 1.387 . S
H3350 C3357 0.950 . S
C3351 C3349 1.387 . S
C3351 C3353 1.390 . S
C3351 H3355 0.950 . S
H3352 C3348 0.950 . S
C3353 C3351 1.390 . S
C3353 C3354 1.387 . S
C3353 H3356 0.950 . S
C3354 C3353 1.387 . S
C3354 C3357 1.387 . S
H3355 C3351 0.950 . S
H3356 C3353 0.950 . S
C3357 C3348 1.390 . S
C3357 H3350 0.950 . S
C3357 C3354 1.387 . S
C3358 C3359 1.387 . S
C3358 H3362 0.950 . S
C3358 C3367 1.390 . S
C3359 C3358 1.387 . S
C3359 C3361 1.387 . S
H3360 C3367 0.950 . S
C3361 C3359 1.387 . S
C3361 C3363 1.390 . S
C3361 H3365 0.950 . S
H3362 C3358 0.950 . S
C3363 C3361 1.390 . S
C3363 C3364 1.387 . S
C3363 H3366 0.950 . S
C3364 C3363 1.387 . S
C3364 C3367 1.387 . S
H3365 C3361 0.950 . S
H3366 C3363 0.950 . S
C3367 C3358 1.390 . S
C3367 H3360 0.950 . S
C3367 C3364 1.387 . S
C3368 C3369 1.387 . S
C3368 H3372 0.950 . S
C3368 C3377 1.390 . S
C3369 C3368 1.387 . S
C3369 C3371 1.387 . S
H3370 C3377 0.950 . S
C3371 C3369 1.387 . S
C3371 C3373 1.390 . S
C3371 H3375 0.950 . S
H3372 C3368 0.950 . S
C3373 C3371 1.390 . S
C3373 C3374 1.387 . S
C3373 H3376 0.950 . S
C3374 C3373 1.387 . S
C3374 C3377 1.387 . S
H3375 C3371 0.950 . S
H3376 C3373 0.950 . S
C3377 C3368 1.390 . S
C3377 H3370 0.950 . S
C3377 C3374 1.387 . S
C3378 C3379 1.387 . S
C3378 H3382 0.950 . S
C3378 C3387 1.390 . S
C3379 C3378 1.387 . S
C3379 C3381 1.387 . S
H3380 C3387 0.950 . S
C3381 C3379 1.387 . S
C3381 C3383 1.390 . S
C3381 H3385 0.950 . S
H3382 C3378 0.950 . S
C3383 C3381 1.390 . S
C3383 C3384 1.387 . S
C3383 H3386 0.950 . S
C3384 C3383 1.387 . S
C3384 C3387 1.387 . S
H3385 C3381 0.950 . S
H3386 C3383 0.950 . S
C3387 C3378 1.390 . S
C3387 H3380 0.950 . S
C3387 C3384 1.387 . S
C3388 C3389 1.387 . S
C3388 H3392 0.950 . S
C3388 C3397 1.390 . S
C3389 C3388 1.387 . S
C3389 C3391 1.387 . S
H3390 C3397 0.950 . S
C3391 C3389 1.387 . S
C3391 C3393 1.390 . S
C3391 H3395 0.950 . S
H3392 C3388 0.950 . S
C3393 C3391 1.390 . S
C3393 C3394 1.387 . S
C3393 H3396 0.950 . S
C3394 C3393 1.387 . S
C3394 C3397 1.387 . S
H3395 C3391 0.950 . S
H3396 C3393 0.950 . S
C3397 C3388 1.390 . S
C3397 H3390 0.950 . S
C3397 C3394 1.387 . S
C3398 C3399 1.387 . S
C3398 H3402 0.950 . S
C3398 C3407 1.390 . S
C3399 C3398 1.387 . S
C3399 C3401 1.387 . S
H3400 C3407 0.950 . S
C3401 C3399 1.387 . S
C3401 C3403 1.390 . S
C3401 H3405 0.950 . S
H3402 C3398 0.950 . S
C3403 C3401 1.390 . S
C3403 C3404 1.387 . S
C3403 H3406 0.950 . S
C3404 C3403 1.387 . S
C3404 C3407 1.387 . S
H3405 C3401 0.950 . S
H3406 C3403 0.950 . S
C3407 C3398 1.390 . S
C3407 H3400 0.950 . S
C3407 C3404 1.387 . S
C3408 C3409 1.387 . S
C3408 H3412 0.950 . S
C3408 C3417 1.390 . S
C3409 C3408 1.387 . S
C3409 C3411 1.387 . S
H3410 C3417 0.950 . S
C3411 C3409 1.387 . S
C3411 C3413 1.390 . S
C3411 H3415 0.950 . S
H3412 C3408 0.950 . S
C3413 C3411 1.390 . S
C3413 C3414 1.387 . S
C3413 H3416 0.950 . S
C3414 C3413 1.387 . S
C3414 C3417 1.387 . S
H3415 C3411 0.950 . S
H3416 C3413 0.950 . S
C3417 C3408 1.390 . S
C3417 H3410 0.950 . S
C3417 C3414 1.387 . S
C3418 C3419 1.387 . S
C3418 H3422 0.950 . S
C3418 C3427 1.390 . S
C3419 C3418 1.387 . S
C3419 C3421 1.387 . S
H3420 C3427 0.950 . S
C3421 C3419 1.387 . S
C3421 C3423 1.390 . S
C3421 H3425 0.950 . S
H3422 C3418 0.950 . S
C3423 C3421 1.390 . S
C3423 C3424 1.387 . S
C3423 H3426 0.950 . S
C3424 C3423 1.387 . S
C3424 C3427 1.387 . S
H3425 C3421 0.950 . S
H3426 C3423 0.950 . S
C3427 C3418 1.390 . S
C3427 H3420 0.950 . S
C3427 C3424 1.387 . S
C3428 C3429 1.387 . S
C3428 H3432 0.950 . S
C3428 C3437 1.390 . S
C3429 C3428 1.387 . S
C3429 C3431 1.387 . S
H3430 C3437 0.950 . S
C3431 C3429 1.387 . S
C3431 C3433 1.390 . S
C3431 H3435 0.950 . S
H3432 C3428 0.950 . S
C3433 C3431 1.390 . S
C3433 C3434 1.387 . S
C3433 H3436 0.950 . S
C3434 C3433 1.387 . S
C3434 C3437 1.387 . S
H3435 C3431 0.950 . S
H3436 C3433 0.950 . S
C3437 C3428 1.390 . S
C3437 H3430 0.950 . S
C3437 C3434 1.387 . S
C3438 C3439 1.387 . S
C3438 H3442 0.950 . S
C3438 C3447 1.390 . S
C3439 C3438 1.387 . S
C3439 C3441 1.387 . S
H3440 C3447 0.950 . S
C3441 C3439 1.387 . S
C3441 C3443 1.390 . S
C3441 H3445 0.950 . S
H3442 C3438 0.950 . S
C3443 C3441 1.390 . S
C3443 C3444 1.387 . S
C3443 H3446 0.950 . S
C3444 C3443 1.387 . S
C3444 C3447 1.387 . S
H3445 C3441 0.950 . S
H3446 C3443 0.950 . S
C3447 C3438 1.390 . S
C3447 H3440 0.950 . S
C3447 C3444 1.387 . S
C3448 C3449 1.387 . S
C3448 H3452 0.950 . S
C3448 C3457 1.390 . S
C3449 C3448 1.387 . S
C3449 C3451 1.387 . S
H3450 C3457 0.950 . S
C3451 C3449 1.387 . S
C3451 C3453 1.390 . S
C3451 H3455 0.950 . S
H3452 C3448 0.950 . S
C3453 C3451 1.390 . S
C3453 C3454 1.387 . S
C3453 H3456 0.950 . S
C3454 C3453 1.387 . S
C3454 C3457 1.387 . S
H3455 C3451 0.950 . S
H3456 C3453 0.950 . S
C3457 C3448 1.390 . S
C3457 H3450 0.950 . S
C3457 C3454 1.387 . S
C3458 C3459 1.387 . S
C3458 H3462 0.950 . S
C3458 C3467 1.390 . S
C3459 C3458 1.387 . S
C3459 C3461 1.387 . S
H3460 C3467 0.950 . S
C3461 C3459 1.387 . S
C3461 C3463 1.390 . S
C3461 H3465 0.950 . S
H3462 C3458 0.950 . S
C3463 C3461 1.390 . S
C3463 C3464 1.387 . S
C3463 H3466 0.950 . S
C3464 C3463 1.387 . S
C3464 C3467 1.387 . S
H3465 C3461 0.950 . S
H3466 C3463 0.950 . S
C3467 C3458 1.390 . S
C3467 H3460 0.950 . S
C3467 C3464 1.387 . S
C3468 C3469 1.387 . S
C3468 H3472 0.950 . S
C3468 C3477 1.390 . S
C3469 C3468 1.387 . S
C3469 C3471 1.387 . S
H3470 C3477 0.950 . S
C3471 C3469 1.387 . S
C3471 C3473 1.390 . S
C3471 H3475 0.950 . S
H3472 C3468 0.950 . S
C3473 C3471 1.390 . S
C3473 C3474 1.387 . S
C3473 H3476 0.950 . S
C3474 C3473 1.387 . S
C3474 C3477 1.387 . S
H3475 C3471 0.950 . S
H3476 C3473 0.950 . S
C3477 C3468 1.390 . S
C3477 H3470 0.950 . S
C3477 C3474 1.387 . S
C3478 C3479 1.387 . S
C3478 H3482 0.950 . S
C3478 C3487 1.390 . S
C3479 C3478 1.387 . S
C3479 C3481 1.387 . S
H3480 C3487 0.950 . S
C3481 C3479 1.387 . S
C3481 C3483 1.390 . S
C3481 H3485 0.950 . S
H3482 C3478 0.950 . S
C3483 C3481 1.390 . S
C3483 C3484 1.387 . S
C3483 H3486 0.950 . S
C3484 C3483 1.387 . S
C3484 C3487 1.387 . S
H3485 C3481 0.950 . S
H3486 C3483 0.950 . S
C3487 C3478 1.390 . S
C3487 H3480 0.950 . S
C3487 C3484 1.387 . S
C3488 C3489 1.387 . S
C3488 H3492 0.950 . S
C3488 C3497 1.390 . S
C3489 C3488 1.387 . S
C3489 C3491 1.387 . S
H3490 C3497 0.950 . S
C3491 C3489 1.387 . S
C3491 C3493 1.390 . S
C3491 H3495 0.950 . S
H3492 C3488 0.950 . S
C3493 C3491 1.390 . S
C3493 C3494 1.387 . S
C3493 H3496 0.950 . S
C3494 C3493 1.387 . S
C3494 C3497 1.387 . S
H3495 C3491 0.950 . S
H3496 C3493 0.950 . S
C3497 C3488 1.390 . S
C3497 H3490 0.950 . S
C3497 C3494 1.387 . S
C3498 C3499 1.387 . S
C3498 H3502 0.950 . S
C3498 C3507 1.390 . S
C3499 C3498 1.387 . S
C3499 C3501 1.387 . S
H3500 C3507 0.950 . S
C3501 C3499 1.387 . S
C3501 C3503 1.390 . S
C3501 H3505 0.950 . S
H3502 C3498 0.950 . S
C3503 C3501 1.390 . S
C3503 C3504 1.387 . S
C3503 H3506 0.950 . S
C3504 C3503 1.387 . S
C3504 C3507 1.387 . S
H3505 C3501 0.950 . S
H3506 C3503 0.950 . S
C3507 C3498 1.390 . S
C3507 H3500 0.950 . S
C3507 C3504 1.387 . S
C3508 C3509 1.387 . S
C3508 H3512 0.950 . S
C3508 C3517 1.390 . S
C3509 C3508 1.387 . S
C3509 C3511 1.387 . S
H3510 C3517 0.950 . S
C3511 C3509 1.387 . S
C3511 C3513 1.390 . S
C3511 H3515 0.950 . S
H3512 C3508 0.950 . S
C3513 C3511 1.390 . S
C3513 C3514 1.387 . S
C3513 H3516 0.950 . S
C3514 C3513 1.387 . S
C3514 C3517 1.387 . S
H3515 C3511 0.950 . S
H3516 C3513 0.950 . S
C3517 C3508 1.390 . S
C3517 H3510 0.950 . S
C3517 C3514 1.387 . S
C3518 C3519 1.387 . S
C3518 H3522 0.950 . S
C3518 C3527 1.390 . S
C3519 C3518 1.387 . S
C3519 C3521 1.387 . S
H3520 C3527 0.950 . S
C3521 C3519 1.387 . S
C3521 C3523 1.390 . S
C3521 H3525 0.950 . S
H3522 C3518 0.950 . S
C3523 C3521 1.390 . S
C3523 C3524 1.387 . S
C3523 H3526 0.950 . S
C3524 C3523 1.387 . S
C3524 C3527 1.387 . S
H3525 C3521 0.950 . S
H3526 C3523 0.950 . S
C3527 C3518 1.390 . S
C3527 H3520 0.950 . S
C3527 C3524 1.387 . S
C3528 C3529 1.387 . S
C3528 H3532 0.950 . S
C3528 C3537 1.390 . S
C3529 C3528 1.387 . S
C3529 C3531 1.387 . S
H3530 C3537 0.950 . S
C3531 C3529 1.387 . S
C3531 C3533 1.390 . S
C3531 H3535 0.950 . S
H3532 C3528 0.950 . S
C3533 C3531 1.390 . S
C3533 C3534 1.387 . S
C3533 H3536 0.950 . S
C3534 C3533 1.387 . S
C3534 C3537 1.387 . S
H3535 C3531 0.950 . S
H3536 C3533 0.950 . S
C3537 C3528 1.390 . S
C3537 H3530 0.950 . S
C3537 C3534 1.387 . S
C3538 C3539 1.387 . S
C3538 H3542 0.950 . S
C3538 C3547 1.390 1_565 S
C3539 C3538 1.387 . S
C3539 C3541 1.387 . S
H3540 C3547 0.950 . S
C3541 C3539 1.387 . S
C3541 C3543 1.390 1_565 S
C3541 H3545 0.950 . S
H3542 C3538 0.950 . S
C3543 C3541 1.390 1_545 S
C3543 C3544 1.387 . S
C3543 H3546 0.950 . S
C3544 C3543 1.387 . S
C3544 C3547 1.387 . S
H3545 C3541 0.950 . S
H3546 C3543 0.950 . S
C3547 C3538 1.390 1_545 S
C3547 H3540 0.950 . S
C3547 C3544 1.387 . S
C3548 C3549 1.387 . S
C3548 H3552 0.950 . S
C3548 C3557 1.390 1_655 S
C3549 C3548 1.387 . S
C3549 C3551 1.387 . S
H3550 C3557 0.950 . S
C3551 C3549 1.387 . S
C3551 C3553 1.390 1_655 S
C3551 H3555 0.950 . S
H3552 C3548 0.950 . S
C3553 C3551 1.390 1_455 S
C3553 C3554 1.387 . S
C3553 H3556 0.950 . S
C3554 C3553 1.387 . S
C3554 C3557 1.387 . S
H3555 C3551 0.950 . S
H3556 C3553 0.950 . S
C3557 C3548 1.390 1_455 S
C3557 H3550 0.950 . S
C3557 C3554 1.387 . S
C3558 C3559 1.387 . S
C3558 H3562 0.950 . S
C3558 C3567 1.390 . S
C3559 C3558 1.387 . S
C3559 C3561 1.387 . S
H3560 C3567 0.950 . S
C3561 C3559 1.387 . S
C3561 C3563 1.390 . S
C3561 H3565 0.950 . S
H3562 C3558 0.950 . S
C3563 C3561 1.390 . S
C3563 C3564 1.387 . S
C3563 H3566 0.950 . S
C3564 C3563 1.387 . S
C3564 C3567 1.387 . S
H3565 C3561 0.950 . S
H3566 C3563 0.950 . S
C3567 C3558 1.390 . S
C3567 H3560 0.950 . S
C3567 C3564 1.387 . S
C3568 C3569 1.387 . S
C3568 H3572 0.950 . S
C3568 C3577 1.390 1_545 S
C3569 C3568 1.387 . S
C3569 C3571 1.387 . S
H3570 C3577 0.950 . S
C3571 C3569 1.387 . S
C3571 C3573 1.390 1_545 S
C3571 H3575 0.950 . S
H3572 C3568 0.950 . S
C3573 C3571 1.390 1_565 S
C3573 C3574 1.387 . S
C3573 H3576 0.950 . S
C3574 C3573 1.387 . S
C3574 C3577 1.387 . S
H3575 C3571 0.950 . S
H3576 C3573 0.950 . S
C3577 C3568 1.390 1_565 S
C3577 H3570 0.950 . S
C3577 C3574 1.387 . S
C3578 C3579 1.387 . S
C3578 H3582 0.950 . S
C3578 C3587 1.390 1_655 S
C3579 C3578 1.387 . S
C3579 C3581 1.387 . S
H3580 C3587 0.950 . S
C3581 C3579 1.387 . S
C3581 C3583 1.390 1_655 S
C3581 H3585 0.950 . S
H3582 C3578 0.950 . S
C3583 C3581 1.390 1_455 S
C3583 C3584 1.387 . S
C3583 H3586 0.950 . S
C3584 C3583 1.387 . S
C3584 C3587 1.387 . S
H3585 C3581 0.950 . S
H3586 C3583 0.950 . S
C3587 C3578 1.390 1_455 S
C3587 H3580 0.950 . S
C3587 C3584 1.387 . S
C3588 C3589 1.387 . S
C3588 H3592 0.950 . S
C3588 C3597 1.390 . S
C3589 C3588 1.387 . S
C3589 C3591 1.387 . S
H3590 C3597 0.950 . S
C3591 C3589 1.387 . S
C3591 C3593 1.390 . S
C3591 H3595 0.950 . S
H3592 C3588 0.950 . S
C3593 C3591 1.390 . S
C3593 C3594 1.387 . S
C3593 H3596 0.950 . S
C3594 C3593 1.387 . S
C3594 C3597 1.387 . S
H3595 C3591 0.950 . S
H3596 C3593 0.950 . S
C3597 C3588 1.390 . S
C3597 H3590 0.950 . S
C3597 C3594 1.387 . S
C3598 C3599 1.387 . S
C3598 H3602 0.950 . S
C3598 C3607 1.390 . S
C3599 C3598 1.387 . S
C3599 C3601 1.387 . S
H3600 C3607 0.950 . S
C3601 C3599 1.387 . S
C3601 C3603 1.390 . S
C3601 H3605 0.950 . S
H3602 C3598 0.950 . S
C3603 C3601 1.390 . S
C3603 C3604 1.387 . S
C3603 H3606 0.950 . S
C3604 C3603 1.387 . S
C3604 C3607 1.387 . S
H3605 C3601 0.950 . S
H3606 C3603 0.950 . S
C3607 C3598 1.390 . S
C3607 H3600 0.950 . S
C3607 C3604 1.387 . S
C3608 C3609 1.387 . S
C3608 H3612 0.950 . S
C3608 C3617 1.390 . S
C3609 C3608 1.387 . S
C3609 C3611 1.387 . S
H3610 C3617 0.950 . S
C3611 C3609 1.387 . S
C3611 C3613 1.390 . S
C3611 H3615 0.950 . S
H3612 C3608 0.950 . S
C3613 C3611 1.390 . S
C3613 C3614 1.387 . S
C3613 H3616 0.950 . S
C3614 C3613 1.387 . S
C3614 C3617 1.387 . S
H3615 C3611 0.950 . S
H3616 C3613 0.950 . S
C3617 C3608 1.390 . S
C3617 H3610 0.950 . S
C3617 C3614 1.387 . S
C3618 C3619 1.387 . S
C3618 H3622 0.950 . S
C3618 C3627 1.390 . S
C3619 C3618 1.387 . S
C3619 C3621 1.387 . S
H3620 C3627 0.950 . S
C3621 C3619 1.387 . S
C3621 C3623 1.390 . S
C3621 H3625 0.950 . S
H3622 C3618 0.950 . S
C3623 C3621 1.390 . S
C3623 C3624 1.387 . S
C3623 H3626 0.950 . S
C3624 C3623 1.387 . S
C3624 C3627 1.387 . S
H3625 C3621 0.950 . S
H3626 C3623 0.950 . S
C3627 C3618 1.390 . S
C3627 H3620 0.950 . S
C3627 C3624 1.387 . S
C3628 C3629 1.387 . S
C3628 H3632 0.950 . S
C3628 C3637 1.390 . S
C3629 C3628 1.387 . S
C3629 C3631 1.387 . S
H3630 C3637 0.950 . S
C3631 C3629 1.387 . S
C3631 C3633 1.390 . S
C3631 H3635 0.950 . S
H3632 C3628 0.950 . S
C3633 C3631 1.390 . S
C3633 C3634 1.387 . S
C3633 H3636 0.950 . S
C3634 C3633 1.387 . S
C3634 C3637 1.387 . S
H3635 C3631 0.950 . S
H3636 C3633 0.950 . S
C3637 C3628 1.390 . S
C3637 H3630 0.950 . S
C3637 C3634 1.387 . S
C3638 C3639 1.387 . S
C3638 H3642 0.950 . S
C3638 C3647 1.390 . S
C3639 C3638 1.387 . S
C3639 C3641 1.387 . S
H3640 C3647 0.950 . S
C3641 C3639 1.387 . S
C3641 C3643 1.390 . S
C3641 H3645 0.950 . S
H3642 C3638 0.950 . S
C3643 C3641 1.390 . S
C3643 C3644 1.387 . S
C3643 H3646 0.950 . S
C3644 C3643 1.387 . S
C3644 C3647 1.387 . S
H3645 C3641 0.950 . S
H3646 C3643 0.950 . S
C3647 C3638 1.390 . S
C3647 H3640 0.950 . S
C3647 C3644 1.387 . S
C3648 C3649 1.387 . S
C3648 H3652 0.950 . S
C3648 C3657 1.390 . S
C3649 C3648 1.387 . S
C3649 C3651 1.387 . S
H3650 C3657 0.950 . S
C3651 C3649 1.387 . S
C3651 C3653 1.390 . S
C3651 H3655 0.950 . S
H3652 C3648 0.950 . S
C3653 C3651 1.390 . S
C3653 C3654 1.387 . S
C3653 H3656 0.950 . S
C3654 C3653 1.387 . S
C3654 C3657 1.387 . S
H3655 C3651 0.950 . S
H3656 C3653 0.950 . S
C3657 C3648 1.390 . S
C3657 H3650 0.950 . S
C3657 C3654 1.387 . S
C3658 C3659 1.387 . S
C3658 H3662 0.950 . S
C3658 C3667 1.390 . S
C3659 C3658 1.387 . S
C3659 C3661 1.387 . S
H3660 C3667 0.950 . S
C3661 C3659 1.387 . S
C3661 C3663 1.390 . S
C3661 H3665 0.950 . S
H3662 C3658 0.950 . S
C3663 C3661 1.390 . S
C3663 C3664 1.387 . S
C3663 H3666 0.950 . S
C3664 C3663 1.387 . S
C3664 C3667 1.387 . S
H3665 C3661 0.950 . S
H3666 C3663 0.950 . S
C3667 C3658 1.390 . S
C3667 H3660 0.950 . S
C3667 C3664 1.387 . S
C3668 C3669 1.387 . S
C3668 H3672 0.950 . S
C3668 C3677 1.390 . S
C3669 C3668 1.387 . S
C3669 C3671 1.387 . S
H3670 C3677 0.950 . S
C3671 C3669 1.387 . S
C3671 C3673 1.390 . S
C3671 H3675 0.950 . S
H3672 C3668 0.950 . S
C3673 C3671 1.390 . S
C3673 C3674 1.387 . S
C3673 H3676 0.950 . S
C3674 C3673 1.387 . S
C3674 C3677 1.387 . S
H3675 C3671 0.950 . S
H3676 C3673 0.950 . S
C3677 C3668 1.390 . S
C3677 H3670 0.950 . S
C3677 C3674 1.387 . S
C3678 C3679 1.387 . S
C3678 H3682 0.950 . S
C3678 C3687 1.390 . S
C3679 C3678 1.387 . S
C3679 C3681 1.387 . S
H3680 C3687 0.950 . S
C3681 C3679 1.387 . S
C3681 C3683 1.390 . S
C3681 H3685 0.950 . S
H3682 C3678 0.950 . S
C3683 C3681 1.390 . S
C3683 C3684 1.387 . S
C3683 H3686 0.950 . S
C3684 C3683 1.387 . S
C3684 C3687 1.387 . S
H3685 C3681 0.950 . S
H3686 C3683 0.950 . S
C3687 C3678 1.390 . S
C3687 H3680 0.950 . S
C3687 C3684 1.387 . S
C3688 C3689 1.387 . S
C3688 H3692 0.950 . S
C3688 C3697 1.390 . S
C3689 C3688 1.387 . S
C3689 C3691 1.387 . S
H3690 C3697 0.950 . S
C3691 C3689 1.387 . S
C3691 C3693 1.390 . S
C3691 H3695 0.950 . S
H3692 C3688 0.950 . S
C3693 C3691 1.390 . S
C3693 C3694 1.387 . S
C3693 H3696 0.950 . S
C3694 C3693 1.387 . S
C3694 C3697 1.387 . S
H3695 C3691 0.950 . S
H3696 C3693 0.950 . S
C3697 C3688 1.390 . S
C3697 H3690 0.950 . S
C3697 C3694 1.387 . S
C3698 C3699 1.387 . S
C3698 H3702 0.950 . S
C3698 C3707 1.390 . S
C3699 C3698 1.387 . S
C3699 C3701 1.387 . S
H3700 C3707 0.950 . S
C3701 C3699 1.387 . S
C3701 C3703 1.390 . S
C3701 H3705 0.950 . S
H3702 C3698 0.950 . S
C3703 C3701 1.390 . S
C3703 C3704 1.387 . S
C3703 H3706 0.950 . S
C3704 C3703 1.387 . S
C3704 C3707 1.387 . S
H3705 C3701 0.950 . S
H3706 C3703 0.950 . S
C3707 C3698 1.390 . S
C3707 H3700 0.950 . S
C3707 C3704 1.387 . S
C3708 C3709 1.387 . S
C3708 H3712 0.950 . S
C3708 C3717 1.390 . S
C3709 C3708 1.387 . S
C3709 C3711 1.387 . S
H3710 C3717 0.950 . S
C3711 C3709 1.387 . S
C3711 C3713 1.390 . S
C3711 H3715 0.950 . S
H3712 C3708 0.950 . S
C3713 C3711 1.390 . S
C3713 C3714 1.387 . S
C3713 H3716 0.950 . S
C3714 C3713 1.387 . S
C3714 C3717 1.387 . S
H3715 C3711 0.950 . S
H3716 C3713 0.950 . S
C3717 C3708 1.390 . S
C3717 H3710 0.950 . S
C3717 C3714 1.387 . S
C3718 C3719 1.387 . S
C3718 H3722 0.950 . S
C3718 C3727 1.390 . S
C3719 C3718 1.387 . S
C3719 C3721 1.387 . S
H3720 C3727 0.950 . S
C3721 C3719 1.387 . S
C3721 C3723 1.390 . S
C3721 H3725 0.950 . S
H3722 C3718 0.950 . S
C3723 C3721 1.390 . S
C3723 C3724 1.387 . S
C3723 H3726 0.950 . S
C3724 C3723 1.387 . S
C3724 C3727 1.387 . S
H3725 C3721 0.950 . S
H3726 C3723 0.950 . S
C3727 C3718 1.390 . S
C3727 H3720 0.950 . S
C3727 C3724 1.387 . S
C3728 C3729 1.387 . S
C3728 H3732 0.950 . S
C3728 C3737 1.390 . S
C3729 C3728 1.387 . S
C3729 C3731 1.387 . S
H3730 C3737 0.950 . S
C3731 C3729 1.387 . S
C3731 C3733 1.390 . S
C3731 H3735 0.950 . S
H3732 C3728 0.950 . S
C3733 C3731 1.390 . S
C3733 C3734 1.387 . S
C3733 H3736 0.950 . S
C3734 C3733 1.387 . S
C3734 C3737 1.387 . S
H3735 C3731 0.950 . S
H3736 C3733 0.950 . S
C3737 C3728 1.390 . S
C3737 H3730 0.950 . S
C3737 C3734 1.387 . S
C3738 C3739 1.387 . S
C3738 H3742 0.950 . S
C3738 C3747 1.390 . S
C3739 C3738 1.387 . S
C3739 C3741 1.387 . S
H3740 C3747 0.950 . S
C3741 C3739 1.387 . S
C3741 C3743 1.390 . S
C3741 H3745 0.950 . S
H3742 C3738 0.950 . S
C3743 C3741 1.390 . S
C3743 C3744 1.387 . S
C3743 H3746 0.950 . S
C3744 C3743 1.387 . S
C3744 C3747 1.387 . S
H3745 C3741 0.950 . S
H3746 C3743 0.950 . S
C3747 C3738 1.390 . S
C3747 H3740 0.950 . S
C3747 C3744 1.387 . S
C3748 C3749 1.387 . S
C3748 H3752 0.950 . S
C3748 C3757 1.390 . S
C3749 C3748 1.387 . S
C3749 C3751 1.387 . S
H3750 C3757 0.950 . S
C3751 C3749 1.387 . S
C3751 C3753 1.390 . S
C3751 H3755 0.950 . S
H3752 C3748 0.950 . S
C3753 C3751 1.390 . S
C3753 C3754 1.387 . S
C3753 H3756 0.950 . S
C3754 C3753 1.387 . S
C3754 C3757 1.387 . S
H3755 C3751 0.950 . S
H3756 C3753 0.950 . S
C3757 C3748 1.390 . S
C3757 H3750 0.950 . S
C3757 C3754 1.387 . S
C3758 C3759 1.387 . S
C3758 H3762 0.950 . S
C3758 C3767 1.390 . S
C3759 C3758 1.387 . S
C3759 C3761 1.387 . S
H3760 C3767 0.950 . S
C3761 C3759 1.387 . S
C3761 C3763 1.390 . S
C3761 H3765 0.950 . S
H3762 C3758 0.950 . S
C3763 C3761 1.390 . S
C3763 C3764 1.387 . S
C3763 H3766 0.950 . S
C3764 C3763 1.387 . S
C3764 C3767 1.387 . S
H3765 C3761 0.950 . S
H3766 C3763 0.950 . S
C3767 C3758 1.390 . S
C3767 H3760 0.950 . S
C3767 C3764 1.387 . S
C3768 C3769 1.387 . S
C3768 H3772 0.950 . S
C3768 C3777 1.390 . S
C3769 C3768 1.387 . S
C3769 C3771 1.387 . S
H3770 C3777 0.950 . S
C3771 C3769 1.387 . S
C3771 C3773 1.390 . S
C3771 H3775 0.950 . S
H3772 C3768 0.950 . S
C3773 C3771 1.390 . S
C3773 C3774 1.387 . S
C3773 H3776 0.950 . S
C3774 C3773 1.387 . S
C3774 C3777 1.387 . S
H3775 C3771 0.950 . S
H3776 C3773 0.950 . S
C3777 C3768 1.390 . S
C3777 H3770 0.950 . S
C3777 C3774 1.387 . S
C3778 C3779 1.387 . S
C3778 H3782 0.950 . S
C3778 C3787 1.390 . S
C3779 C3778 1.387 . S
C3779 C3781 1.387 . S
H3780 C3787 0.950 . S
C3781 C3779 1.387 . S
C3781 C3783 1.390 . S
C3781 H3785 0.950 . S
H3782 C3778 0.950 . S
C3783 C3781 1.390 . S
C3783 C3784 1.387 . S
C3783 H3786 0.950 . S
C3784 C3783 1.387 . S
C3784 C3787 1.387 . S
H3785 C3781 0.950 . S
H3786 C3783 0.950 . S
C3787 C3778 1.390 . S
C3787 H3780 0.950 . S
C3787 C3784 1.387 . S
C3788 C3789 1.387 . S
C3788 H3792 0.950 . S
C3788 C3797 1.390 . S
C3789 C3788 1.387 . S
C3789 C3791 1.387 . S
H3790 C3797 0.950 . S
C3791 C3789 1.387 . S
C3791 C3793 1.390 . S
C3791 H3795 0.950 . S
H3792 C3788 0.950 . S
C3793 C3791 1.390 . S
C3793 C3794 1.387 . S
C3793 H3796 0.950 . S
C3794 C3793 1.387 . S
C3794 C3797 1.387 . S
H3795 C3791 0.950 . S
H3796 C3793 0.950 . S
C3797 C3788 1.390 . S
C3797 H3790 0.950 . S
C3797 C3794 1.387 . S
C3798 C3799 1.387 . S
C3798 H3802 0.950 . S
C3798 C3807 1.390 . S
C3799 C3798 1.387 . S
C3799 C3801 1.387 . S
H3800 C3807 0.950 . S
C3801 C3799 1.387 . S
C3801 C3803 1.390 . S
C3801 H3805 0.950 . S
H3802 C3798 0.950 . S
C3803 C3801 1.390 . S
C3803 C3804 1.387 . S
C3803 H3806 0.950 . S
C3804 C3803 1.387 . S
C3804 C3807 1.387 . S
H3805 C3801 0.950 . S
H3806 C3803 0.950 . S
C3807 C3798 1.390 . S
C3807 H3800 0.950 . S
C3807 C3804 1.387 . S
C3808 C3809 1.387 . S
C3808 H3812 0.950 . S
C3808 C3817 1.390 . S
C3809 C3808 1.387 . S
C3809 C3811 1.387 . S
H3810 C3817 0.950 . S
C3811 C3809 1.387 . S
C3811 C3813 1.390 . S
C3811 H3815 0.950 . S
H3812 C3808 0.950 . S
C3813 C3811 1.390 . S
C3813 C3814 1.387 . S
C3813 H3816 0.950 . S
C3814 C3813 1.387 . S
C3814 C3817 1.387 . S
H3815 C3811 0.950 . S
H3816 C3813 0.950 . S
C3817 C3808 1.390 . S
C3817 H3810 0.950 . S
C3817 C3814 1.387 . S
C3818 C3819 1.387 . S
C3818 H3822 0.950 . S
C3818 C3827 1.390 . S
C3819 C3818 1.387 . S
C3819 C3821 1.387 . S
H3820 C3827 0.950 . S
C3821 C3819 1.387 . S
C3821 C3823 1.390 . S
C3821 H3825 0.950 . S
H3822 C3818 0.950 . S
C3823 C3821 1.390 . S
C3823 C3824 1.387 . S
C3823 H3826 0.950 . S
C3824 C3823 1.387 . S
C3824 C3827 1.387 . S
H3825 C3821 0.950 . S
H3826 C3823 0.950 . S
C3827 C3818 1.390 . S
C3827 H3820 0.950 . S
C3827 C3824 1.387 . S
C3828 C3829 1.387 1_655 S
C3828 H3832 0.950 . S
C3828 C3837 1.390 . S
C3829 C3828 1.387 1_455 S
C3829 C3831 1.387 . S
H3830 C3837 0.950 . S
C3831 C3829 1.387 . S
C3831 C3833 1.390 . S
C3831 H3835 0.950 . S
H3832 C3828 0.950 . S
C3833 C3831 1.390 . S
C3833 C3834 1.387 1_455 S
C3833 H3836 0.950 . S
C3834 C3833 1.387 1_655 S
C3834 C3837 1.387 . S
H3835 C3831 0.950 . S
H3836 C3833 0.950 . S
C3837 C3828 1.390 . S
C3837 H3830 0.950 . S
C3837 C3834 1.387 . S
C3838 C3839 1.387 . S
C3838 H3842 0.950 . S
C3838 C3847 1.390 . S
C3839 C3838 1.387 . S
C3839 C3841 1.387 . S
H3840 C3847 0.950 . S
C3841 C3839 1.387 . S
C3841 C3843 1.390 . S
C3841 H3845 0.950 . S
H3842 C3838 0.950 . S
C3843 C3841 1.390 . S
C3843 C3844 1.387 . S
C3843 H3846 0.950 . S
C3844 C3843 1.387 . S
C3844 C3847 1.387 . S
H3845 C3841 0.950 . S
H3846 C3843 0.950 . S
C3847 C3838 1.390 . S
C3847 H3840 0.950 . S
C3847 C3844 1.387 . S
C3848 C3849 1.387 . S
C3848 H3852 0.950 . S
C3848 C3857 1.390 . S
C3849 C3848 1.387 . S
C3849 C3851 1.387 1_545 S
H3850 C3857 0.950 . S
C3851 C3849 1.387 1_565 S
C3851 C3853 1.390 . S
C3851 H3855 0.950 . S
H3852 C3848 0.950 . S
C3853 C3851 1.390 . S
C3853 C3854 1.387 . S
C3853 H3856 0.950 . S
C3854 C3853 1.387 . S
C3854 C3857 1.387 1_565 S
H3855 C3851 0.950 . S
H3856 C3853 0.950 . S
C3857 C3848 1.390 . S
C3857 H3850 0.950 . S
C3857 C3854 1.387 1_545 S
C3858 C3859 1.387 1_554 S
C3858 H3862 0.950 . S
C3858 C3867 1.390 . S
C3859 C3858 1.387 1_556 S
C3859 C3861 1.387 1_545 S
H3860 C3867 0.950 . S
C3861 C3859 1.387 1_565 S
C3861 C3863 1.390 . S
C3861 H3865 0.950 . S
H3862 C3858 0.950 . S
C3863 C3861 1.390 . S
C3863 C3864 1.387 1_556 S
C3863 H3866 0.950 . S
C3864 C3863 1.387 1_554 S
C3864 C3867 1.387 1_565 S
H3865 C3861 0.950 . S
H3866 C3863 0.950 . S
C3867 C3858 1.390 . S
C3867 H3860 0.950 . S
C3867 C3864 1.387 1_545 S
C3868 C3869 1.387 1_554 S
C3868 H3872 0.950 . S
C3868 C3877 1.390 . S
C3869 C3868 1.387 1_556 S
C3869 C3871 1.369 1_655 S
H3870 C3877 0.950 . S
C3871 C3869 1.369 1_455 S
C3871 C3873 1.421 . S
C3871 H3875 0.941 . S
H3872 C3868 0.950 . S
C3873 C3871 1.421 . S
C3873 C3874 1.387 1_556 S
C3873 H3876 0.950 . S
C3874 C3873 1.387 1_554 S
C3874 C3877 1.387 1_455 S
H3875 C3871 0.941 . S
H3876 C3873 0.950 . S
C3877 C3868 1.390 . S
C3877 H3870 0.950 . S
C3877 C3874 1.387 1_655 S
C3878 C3879 1.387 . S
C3878 H3882 0.950 . S
C3878 C3887 1.390 1_556 S
C3879 C3878 1.387 . S
C3879 C3881 1.387 . S
H3880 C3887 0.950 . S
C3881 C3879 1.387 . S
C3881 C3883 1.390 1_556 S
C3881 H3885 0.950 . S
H3882 C3878 0.950 . S
C3883 C3881 1.390 1_554 S
C3883 C3884 1.387 . S
C3883 H3886 0.950 . S
C3884 C3883 1.387 . S
C3884 C3887 1.387 . S
H3885 C3881 0.950 . S
H3886 C3883 0.950 . S
C3887 C3878 1.390 1_554 S
C3887 H3880 0.950 . S
C3887 C3884 1.387 . S
C3169 C20 1.279 . S
C3174 C645 1.300 1_554 S
C3179 C117 1.280 . S
C3184 C724 1.300 1_554 S
C3189 C557 1.301 1_554 S
C3194 C233 1.281 . S
C3199 C1017 1.301 . S
C3204 C284 1.277 . S
C3209 C401 1.277 . S
C3214 C841 1.300 . S
C3219 C469 1.281 . S
C3224 C929 1.302 . S
C3229 C137 1.297 1_556 S
C3234 C548 1.273 . S
C3239 C196 1.300 1_556 S
C3244 C636 1.275 . S
C3249 C733 1.274 . S
C3254 C57 1.299 1_556 S
C3259 C849 1.274 . S
C3264 C489 1.298 . S
C3269 C321 1.298 . S
C3274 C937 1.274 . S
C3279 C1025 1.271 . S
C3284 C381 1.296 . S
C3289 C1701 1.303 . S
C3294 C1076 1.280 . S
C3299 C1164 1.277 . S
C3304 C1780 1.300 . S
C3309 C1289 1.277 . S
C3314 C1613 1.301 . S
C3319 C2081 1.301 . S
C3324 C1340 1.281 . S
C3329 C1457 1.281 . S
C3334 C1905 1.302 . S
C3339 C1993 1.302 . S
C3344 C1525 1.278 . S
C3349 C1201 1.296 . S
C3354 C1604 1.271 . S
C3359 C1692 1.272 . S
C3364 C1252 1.297 . S
C3369 C1113 1.299 . S
C3374 C1789 1.274 . S
C3379 C1897 1.274 . S
C3384 C1545 1.298 . S
C3389 C1985 1.270 . S
C3394 C1377 1.297 . S
C3399 C2073 1.274 . S
C3404 C1437 1.300 . S
C3409 C2757 1.303 . S
C3414 C2169 1.279 . S
C3419 C2836 1.301 . S
C3424 C2229 1.278 . S
C3429 C2669 1.300 . S
C3434 C2345 1.277 . S
C3439 C2396 1.277 . S
C3444 C3137 1.301 . S
C3449 C2513 1.280 . S
C3454 C2961 1.303 . S
C3459 C3041 1.299 . S
C3464 C2581 1.277 . S
C3469 C2660 1.274 . S
C3474 C2249 1.300 . S
C3479 C2308 1.297 . S
C3484 C2748 1.270 . S
C3489 C2132 1.298 . S
C3494 C2845 1.270 . S
C3499 C2953 1.274 . S
C3504 C2601 1.299 . S
C3509 C3049 1.271 . S
C3514 C2433 1.296 . S
C3519 C3129 1.273 . S
C3524 C2493 1.297 . S
C3529 C313 1.864 . S
C3534 C49 1.865 . S
C3539 C372 1.863 . S
C3544 C145 1.863 . S
C3549 C205 1.866 . S
C3554 C497 1.865 . S
C3559 C821 1.870 . S
C3564 C577 1.870 . S
C3569 C909 1.866 . S
C3574 C665 1.866 . S
C3579 C997 1.868 . S
C3584 C761 1.869 . S
C3589 C1369 1.865 . S
C3594 C1105 1.865 . S
C3599 C1428 1.863 . S
C3604 C1193 1.863 . S
C3609 C1261 1.864 . S
C3614 C1553 1.865 . S
C3619 C1868 1.868 . S
C3624 C1633 1.869 . S
C3629 C1956 1.866 . S
C3634 C1721 1.866 . S
C3639 C2044 1.868 . S
C3644 C1817 1.869 . S
C3649 C2425 1.866 . S
C3654 C2141 1.865 . S
C3659 C2257 1.863 . S
C3664 C2484 1.863 . S
C3669 C2609 1.864 . S
C3674 C2317 1.865 . S
C3679 C2689 1.868 . S
C3684 C2924 1.867 . S
C3689 C2777 1.866 . S
C3694 C3021 1.866 . S
C3699 C2873 1.867 . S
C3704 C3100 1.868 . S
C3709 C29 1.575 . S
C3714 C1641 1.571 . S
C3719 C1729 1.572 . S
C3724 C108 1.576 . S
C3729 C1809 1.572 . S
C3734 C225 1.576 . S
C3739 C2933 1.570 . S
C3744 C293 1.574 . S
C3749 C3012 1.572 . S
C3754 C409 1.576 . S
C3759 C3109 1.573 . S
C3764 C460 1.577 . S
C3769 C585 1.573 . S
C3774 C2161 1.577 . S
C3779 C2220 1.576 . S
C3784 C673 1.572 . S
C3789 C2337 1.574 . S
C3794 C753 1.570 . S
C3799 C812 1.573 . S
C3804 C1349 1.577 . S
C3809 C900 1.572 . S
C3814 C1465 1.576 . S
C3819 C988 1.570 . S
C3824 C1516 1.574 . S
C3829 C2697 1.572 . S
C3834 C1085 1.576 . S
C3839 C2785 1.570 . S
C3844 C1173 1.574 . S
C3849 C1281 1.575 . S
C3854 C2865 1.571 . S
C3859 C1877 1.572 . S
C3864 C2405 1.576 . S
C3869 C1965 1.571 . S
C3874 C2521 1.575 . S
C3879 C2053 1.573 . S
C3884 C2572 1.577 . S
