# Generated by pormake.
# Topology rob, (6)-cn, num edge types: 1
# Building blocks:
#     Node 0, Type 0, BuildingBlock: BETDIP_clean_sbu_0, # of connection points: 6
#     Node 1, Type 0, BuildingBlock: BETDIP_clean_sbu_0, # of connection points: 6
#     Node 2, Type 0, BuildingBlock: BETDIP_clean_sbu_0, # of connection points: 6
#     Node 3, Type 0, BuildingBlock: BETDIP_clean_sbu_0, # of connection points: 6
#     Edge 4, Type (0, 0), BuildingBlock: FUNLAD_clean_linker_0, # of connection points: 2
#     Edge 5, Type (0, 0), BuildingBlock: FUNLAD_clean_linker_0, # of connection points: 2
#     Edge 6, Type (0, 0), BuildingBlock: FUNLAD_clean_linker_0, # of connection points: 2
#     Edge 7, Type (0, 0), BuildingBlock: FUNLAD_clean_linker_0, # of connection points: 2
#     Edge 8, Type (0, 0), BuildingBlock: FUNLAD_clean_linker_0, # of connection points: 2
#     Edge 9, Type (0, 0), BuildingBlock: FUNLAD_clean_linker_0, # of connection points: 2
#     Edge 10, Type (0, 0), BuildingBlock: FUNLAD_clean_linker_0, # of connection points: 2
#     Edge 11, Type (0, 0), BuildingBlock: FUNLAD_clean_linker_0, # of connection points: 2
#     Edge 12, Type (0, 0), BuildingBlock: FUNLAD_clean_linker_0, # of connection points: 2
#     Edge 13, Type (0, 0), BuildingBlock: FUNLAD_clean_linker_0, # of connection points: 2
#     Edge 14, Type (0, 0), BuildingBlock: FUNLAD_clean_linker_0, # of connection points: 2
#     Edge 15, Type (0, 0), BuildingBlock: FUNLAD_clean_linker_0, # of connection points: 2
# Relax obj value: 0.034
# Max RMSD: 0.134
# Mean RMSD: 0.134
data_MOF--net-rob--node1-BETDIP_clean_sbu_0--edge1-FUNLAD_clean_linker_0
_symmetry_space_group_name_H-M    P1
_symmetry_Int_Tables_number       1
_symmetry_cell_setting            triclinic
loop_
_symmetry_equiv_pos_as_xyz
'x, y, z'
_cell_length_a     16.887121
_cell_length_b     29.120163
_cell_length_c     41.251389
_cell_angle_alpha  95.382971
_cell_angle_beta   89.98528
_cell_angle_gamma 90.024815
loop_
_atom_site_label
_atom_site_type_symbol
_atom_site_fract_x
_atom_site_fract_y
_atom_site_fract_z
_atom_type_partial_charge
Tb0 Tb 0.16941 0.28586 0.03886 0.0
Tb1 Tb 0.32495 0.24885 1.01169 0.0
C2 C 0.04373 0.29699 0.07128 0.0
C3 C 0.0216 0.29176 0.1054 0.0
C4 C 0.04021 0.25157 0.12023 0.0
C5 C 0.02075 0.248 0.15287 0.0
C6 C 0.98273 0.2846 0.17137 0.0
C7 C 0.96424 0.32473 0.15644 0.0
C8 C 0.98332 0.32819 0.12377 0.0
C9 C 0.27554 0.34846 0.0279 0.0
C10 C 0.30488 0.25197 0.08623 0.0
C11 C 0.45028 0.2387 0.97889 0.0
C12 C 0.47082 0.24321 0.94446 0.0
C13 C 0.44796 0.28206 0.92888 0.0
C14 C 0.4671 0.2853 0.89616 0.0
C15 C 0.50891 0.24964 0.87824 0.0
C16 C 0.53105 0.21066 0.89383 0.0
C17 C 0.5124 0.20758 0.92661 0.0
C18 C 0.21872 0.18622 0.02257 0.0
C19 C 0.18777 0.28152 0.96433 0.0
O20 O 0.06053 0.25921 0.05277 0.0
O21 O 0.09331 0.33043 0.06706 0.0
O22 O 0.2885 0.31048 0.03918 0.0
O23 O 0.19998 0.35381 0.0241 0.0
O24 O 0.22888 0.25973 0.08078 0.0
O25 O 0.35825 0.25133 0.06269 0.0
O26 O 0.43207 0.27671 0.99689 0.0
O27 O 0.40282 0.20462 0.98402 0.0
O28 O 0.20607 0.22428 1.01137 0.0
O29 O 0.29435 0.18066 0.02617 0.0
O30 O 0.2639 0.27329 0.9693 0.0
O31 O 0.1354 0.28309 0.98821 0.0
H32 H 0.07051 0.22305 0.10677 0.0
H33 H 0.03657 0.21685 0.16378 0.0
H34 H 0.93414 0.3533 0.16993 0.0
H35 H 0.96848 0.3595 0.11286 0.0
H36 H 0.41495 0.30988 0.94189 0.0
H37 H 0.44836 0.31551 0.88475 0.0
H38 H 0.56398 0.18283 0.88081 0.0
H39 H 0.53043 0.17726 0.93807 0.0
Tb40 Tb 0.66704 0.78526 0.03818 0.0
Tb41 Tb 0.82509 0.75037 1.01233 0.0
C42 C 0.53879 0.79402 0.06915 0.0
C43 C 0.5153 0.79383 0.1036 0.0
C44 C 0.54506 0.76081 0.12318 0.0
C45 C 0.52372 0.76212 0.15602 0.0
C46 C 0.47186 0.79631 0.16991 0.0
C47 C 0.44193 0.82914 0.15015 0.0
C48 C 0.46352 0.82789 0.11735 0.0
C49 C 0.77175 0.84928 0.02837 0.0
C50 C 0.8038 0.75694 0.0872 0.0
C51 C 0.95036 0.742 0.97927 0.0
C52 C 0.96531 0.73798 0.94382 0.0
C53 C 0.03605 0.7549 0.93172 0.0
C54 C 0.04898 0.75347 0.89808 0.0
C55 C 0.99107 0.73535 0.87585 0.0
C56 C 0.92037 0.71817 0.88815 0.0
C57 C 0.90776 0.71933 0.92176 0.0
C58 C 0.72026 0.6863 0.0218 0.0
C59 C 0.68726 0.77945 0.96361 0.0
O60 O 0.56365 0.75487 0.05441 0.0
O61 O 0.58229 0.82895 0.06218 0.0
O62 O 0.78527 0.81135 0.03959 0.0
O63 O 0.69618 0.85388 0.0241 0.0
O64 O 0.72743 0.76287 0.08124 0.0
O65 O 0.85749 0.75633 0.06371 0.0
O66 O 0.92239 0.78179 0.99156 0.0
O67 O 0.91365 0.7073 0.99063 0.0
O68 O 0.70707 0.72437 1.01075 0.0
O69 O 0.79585 0.68145 0.02583 0.0
O70 O 0.76335 0.77175 0.96905 0.0
O71 O 0.63436 0.78092 0.98728 0.0
H72 H 0.58513 0.73409 0.11319 0.0
H73 H 0.54717 0.73603 0.17043 0.0
H74 H 0.40272 0.85629 0.16016 0.0
H75 H 0.44016 0.8538 0.10274 0.0
H76 H 0.08096 0.76974 0.94829 0.0
H77 H 0.10372 0.76746 0.88948 0.0
H78 H 0.87486 0.70357 0.87178 0.0
H79 H 0.85252 0.70613 0.93051 0.0
Tb80 Tb 0.17403 0.75083 0.51201 0.0
Tb81 Tb 0.33199 0.78513 0.53799 0.0
C82 C 0.04859 0.74337 0.47904 0.0
C83 C 0.03389 0.73963 0.4436 0.0
C84 C 0.96265 0.75582 0.43151 0.0
C85 C 0.95002 0.75475 0.39788 0.0
C86 C 0.00869 0.73768 0.37561 0.0
C87 C 0.07984 0.72109 0.38794 0.0
C88 C 0.0922 0.72198 0.42154 0.0
C89 C 0.2781 0.68621 0.52072 0.0
C90 C 0.31229 0.77996 0.46345 0.0
C91 C 0.45991 0.79459 0.56908 0.0
C92 C 0.48356 0.79376 0.60349 0.0
C93 C 0.46232 0.7571 0.6216 0.0
C94 C 0.48427 0.75756 0.65432 0.0
C95 C 0.52789 0.79468 0.66964 0.0
C96 C 0.54888 0.83131 0.65138 0.0
C97 C 0.52706 0.83077 0.61866 0.0
C98 C 0.22703 0.84928 0.52872 0.0
C99 C 0.19624 0.75485 0.58668 0.0
O100 O 0.07728 0.78294 0.49143 0.0
O101 O 0.08463 0.70839 0.49029 0.0
O102 O 0.29199 0.72454 0.51014 0.0
O103 O 0.20245 0.68147 0.52464 0.0
O104 O 0.23601 0.77269 0.46884 0.0
O105 O 0.36502 0.78088 0.48714 0.0
O106 O 0.43658 0.75551 0.55371 0.0
O107 O 0.41522 0.82923 0.56258 0.0
O108 O 0.21391 0.81127 0.53986 0.0
O109 O 0.30245 0.85381 0.52407 0.0
O110 O 0.27259 0.76057 0.58057 0.0
O111 O 0.14215 0.75573 0.56345 0.0
H112 H 0.91696 0.76964 0.4481 0.0
H113 H 0.89403 0.76715 0.38936 0.0
H114 H 0.12687 0.70837 0.37165 0.0
H115 H 0.14796 0.70953 0.43028 0.0
H116 H 0.4286 0.72807 0.61056 0.0
H117 H 0.4679 0.72851 0.66748 0.0
H118 H 0.58138 0.86077 0.66247 0.0
H119 H 0.54377 0.85951 0.60522 0.0
Tb120 Tb 0.67437 0.24788 0.51129 0.0
Tb121 Tb 0.82784 0.28659 0.53882 0.0
C122 C 0.55207 0.23571 0.47697 0.0
C123 C 0.53758 0.23595 0.44157 0.0
C124 C 0.55366 0.27513 0.42514 0.0
C125 C 0.54297 0.27395 0.39144 0.0
C126 C 0.51622 0.23356 0.37332 0.0
C127 C 0.50012 0.19446 0.38987 0.0
C128 C 0.51042 0.19573 0.42359 0.0
C129 C 0.78092 0.18631 0.52364 0.0
C130 C 0.81238 0.27905 0.46391 0.0
C131 C 0.95355 0.29915 0.57107 0.0
C132 C 0.97571 0.29931 0.60566 0.0
C133 C 0.94798 0.26528 0.62486 0.0
C134 C 0.9697 0.26628 0.65763 0.0
C135 C 0.01935 0.3014 0.67192 0.0
C136 C 0.04616 0.33565 0.65262 0.0
C137 C 0.02466 0.33452 0.61984 0.0
C138 C 0.72128 0.34807 0.52609 0.0
C139 C 0.68919 0.25573 0.58626 0.0
O140 O 0.57034 0.27522 0.49309 0.0
O141 O 0.59595 0.20187 0.48555 0.0
O142 O 0.79374 0.22402 0.51194 0.0
O143 O 0.7053 0.18058 0.52702 0.0
O144 O 0.73635 0.2705 0.46863 0.0
O145 O 0.8638 0.2818 0.48817 0.0
O146 O 0.93304 0.25937 0.55591 0.0
O147 O 0.90719 0.33271 0.56392 0.0
O148 O 0.70865 0.31053 0.53803 0.0
O149 O 0.79691 0.35375 0.52274 0.0
O150 O 0.76538 0.26447 0.58168 0.0
O151 O 0.63795 0.25265 0.56188 0.0
H152 H 0.57512 0.30668 0.43821 0.0
H153 H 0.55494 0.30493 0.37966 0.0
H154 H 0.4806 0.16252 0.37673 0.0
H155 H 0.4981 0.16497 0.4356 0.0
H156 H 0.90975 0.23781 0.61456 0.0
H157 H 0.94863 0.23905 0.6716 0.0
H158 H 0.08329 0.36364 0.66291 0.0
H159 H 0.04615 0.3613 0.60553 0.0
C160 C 0.68281 0.60737 0.03535 0.0
C161 C 0.66132 0.64916 0.0234 0.0
C162 C 0.62791 0.57145 0.03584 0.0
C163 C 0.55032 0.5766 0.02415 0.0
C164 C 0.52868 0.61887 1.01286 0.0
C165 C 0.58367 0.6547 1.0123 0.0
C166 C 0.48979 0.53937 0.024 0.0
C167 C 0.50763 0.49416 0.02375 0.0
C168 C 0.44696 0.45702 0.02379 0.0
C169 C 0.46831 0.41491 0.0354 0.0
C170 C 0.41291 0.37937 0.03644 0.0
C171 C 0.33514 0.38505 0.02552 0.0
H172 H 0.35104 0.49335 1.00188 0.0
C173 C 0.31405 0.4266 1.01311 0.0
C174 C 0.36936 0.46221 1.01213 0.0
H175 H 0.25463 0.43167 1.00423 0.0
H176 H 0.74217 0.60238 0.04433 0.0
H177 H 0.64647 0.54015 0.04582 0.0
H178 H 0.46926 0.62401 1.00398 0.0
H179 H 0.56558 0.68652 1.00281 0.0
H180 H 0.42826 0.55001 0.02364 0.0
H181 H 0.56915 0.48349 0.02413 0.0
H182 H 0.52776 0.40973 0.04425 0.0
H183 H 0.43071 0.34774 0.04626 0.0
C184 C 0.31455 0.60684 0.53358 0.0
C185 C 0.3367 0.64891 0.52218 0.0
C186 C 0.3692 0.57081 0.53396 0.0
C187 C 0.44716 0.57613 0.52272 0.0
C188 C 0.46944 0.61867 0.512 0.0
C189 C 0.41472 0.65461 0.51154 0.0
C190 C 0.50744 0.5388 0.5225 0.0
C191 C 0.48933 0.49356 0.52162 0.0
C192 C 0.54983 0.45638 0.5216 0.0
C193 C 0.52809 0.41404 0.5328 0.0
C194 C 0.58346 0.37853 0.53388 0.0
C195 C 0.66158 0.38448 0.52343 0.0
H196 H 0.64633 0.4931 0.50036 0.0
C197 C 0.68299 0.42621 0.51134 0.0
C198 C 0.62772 0.46178 0.51032 0.0
H199 H 0.74269 0.43148 0.5028 0.0
H200 H 0.25489 0.60173 0.54221 0.0
H201 H 0.35014 0.53928 0.54351 0.0
H202 H 0.52918 0.62393 0.50349 0.0
H203 H 0.43332 0.68664 0.5025 0.0
H204 H 0.56905 0.54941 0.52262 0.0
H205 H 0.42775 0.48291 0.52155 0.0
H206 H 0.46839 0.40869 0.54132 0.0
H207 H 0.56538 0.3467 0.54338 0.0
C208 C 0.17963 0.10799 0.03702 0.0
C209 C 0.15884 0.14974 0.02485 0.0
C210 C 0.12399 0.07253 0.0379 0.0
C211 C 0.04635 0.07809 0.02639 0.0
C212 C 0.02532 0.12041 1.01502 0.0
C213 C 0.08105 0.15578 1.01406 0.0
C214 C 0.98533 0.04115 0.02639 0.0
C215 C 0.0028 0.99585 0.02569 0.0
C216 C 0.94203 0.95875 0.02561 0.0
C217 C 0.96397 0.91615 0.0363 0.0
C218 C 0.90884 0.88042 0.03696 0.0
C219 C 0.83069 0.88638 0.02657 0.0
H220 H 0.84508 0.99591 1.00509 0.0
C221 C 0.80887 0.9285 1.01518 0.0
C222 C 0.86394 0.96433 1.0146 0.0
H223 H 0.74911 0.93381 1.00675 0.0
H224 H 0.23907 0.10264 0.04579 0.0
H225 H 0.14207 0.0412 0.04797 0.0
H226 H 0.96586 0.12587 1.00629 0.0
H227 H 0.06349 0.18757 1.0044 0.0
H228 H 0.92391 0.05205 0.02635 0.0
H229 H 0.06428 0.98503 0.02566 0.0
H230 H 0.02377 0.91066 0.04463 0.0
H231 H 0.92728 0.84831 0.04592 0.0
C232 C 0.81945 0.10796 0.53798 0.0
C233 C 0.84067 0.14985 0.52609 0.0
C234 C 0.87491 0.07244 0.53887 0.0
C235 C 0.9528 0.07809 0.52764 0.0
C236 C 0.97428 0.12055 0.51658 0.0
C237 C 0.91874 0.15598 0.51563 0.0
C238 C 0.01363 0.04107 0.52758 0.0
C239 C 0.99598 0.99577 0.52668 0.0
C240 C 0.05668 0.95866 0.52647 0.0
C241 C 0.0349 0.91606 0.53721 0.0
C242 C 0.09005 0.88035 0.53773 0.0
C243 C 0.16803 0.88634 0.52713 0.0
H244 H 0.15328 0.99585 0.50566 0.0
C245 C 0.18967 0.92845 0.51567 0.0
C246 C 0.13459 0.96426 0.51523 0.0
H247 H 0.24929 0.93379 0.50707 0.0
H248 H 0.75978 0.10253 0.5465 0.0
H249 H 0.85647 0.041 0.5487 0.0
H250 H 0.03395 0.12607 0.50809 0.0
H251 H 0.93667 0.18791 0.50624 0.0
H252 H 0.07511 0.05192 0.52767 0.0
H253 H 0.93448 0.98494 0.52656 0.0
H254 H 0.97521 0.91057 0.5457 0.0
H255 H 0.07177 0.84822 0.54673 0.0
C256 C 0.43943 0.20849 0.32242 0.0
C257 C 0.504 0.23245 0.33742 0.0
C258 C 0.4264 0.20838 0.28895 0.0
C259 C 0.477 0.23291 0.26957 0.0
C260 C 0.54283 0.25573 0.28438 0.0
C261 C 0.55614 0.25562 0.31788 0.0
C262 C 0.46295 0.23549 0.23404 0.0
C263 C 0.39078 0.22964 0.22021 0.0
C264 C 0.37254 0.23475 0.18535 0.0
C265 C 0.29283 0.23936 0.17663 0.0
C266 C 0.27146 0.24458 0.14455 0.0
C267 C 0.32923 0.24509 0.12003 0.0
H268 H 0.49271 0.22997 0.16619 0.0
C269 C 0.40918 0.23973 0.12847 0.0
C270 C 0.43073 0.23454 0.1608 0.0
H271 H 0.45516 0.23971 0.11016 0.0
H272 H 0.39786 0.19034 0.33661 0.0
H273 H 0.37668 0.18881 0.27852 0.0
H274 H 0.58356 0.27432 0.27007 0.0
H275 H 0.60755 0.27358 0.32841 0.0
H276 H 0.51261 0.24548 0.21957 0.0
H277 H 0.34046 0.22335 0.23555 0.0
H278 H 0.2465 0.23935 0.19482 0.0
H279 H 0.20927 0.24845 0.13911 0.0
C280 C 0.50517 0.78967 0.22875 0.0
C281 C 0.44886 0.79769 0.20483 0.0
C282 C 0.48349 0.79107 0.26159 0.0
C283 C 0.40453 0.80023 0.27127 0.0
C284 C 0.34863 0.80858 0.24729 0.0
C285 C 0.37036 0.80728 0.21453 0.0
C286 C 0.37741 0.80201 0.30583 0.0
C287 C 0.41966 0.78639 0.33031 0.0
C288 C 0.39016 0.7871 0.36442 0.0
C289 C 0.44537 0.78537 0.38975 0.0
C290 C 0.42031 0.78404 0.42197 0.0
C291 C 0.33919 0.78396 0.4296 0.0
H292 H 0.26407 0.78721 0.35338 0.0
C293 C 0.28385 0.786 0.40432 0.0
C294 C 0.30887 0.78731 0.37211 0.0
H295 H 0.22092 0.7861 0.4093 0.0
H296 H 0.5665 0.78304 0.22217 0.0
H297 H 0.5294 0.78559 0.27903 0.0
H298 H 0.28747 0.81583 0.25387 0.0
H299 H 0.32527 0.81317 0.19672 0.0
H300 H 0.31915 0.81658 0.31103 0.0
H301 H 0.47857 0.77256 0.3257 0.0
H302 H 0.5083 0.78484 0.38458 0.0
H303 H 0.46463 0.78232 0.44079 0.0
C304 C 0.71633 0.7823 0.90424 0.0
C305 C 0.66089 0.78377 0.92974 0.0
C306 C 0.6918 0.78405 0.87204 0.0
C307 C 0.61085 0.78822 0.86451 0.0
C308 C 0.55559 0.79018 0.8901 0.0
C309 C 0.58018 0.78802 0.92231 0.0
C310 C 0.58109 0.78898 0.83047 0.0
C311 C 0.6275 0.7959 0.8047 0.0
C312 C 0.59871 0.79571 0.77047 0.0
C313 C 0.65002 0.81173 0.74719 0.0
C314 C 0.62709 0.81147 0.71463 0.0
C315 C 0.55199 0.79509 0.7044 0.0
H316 H 0.48246 0.76518 0.77685 0.0
C317 C 0.50054 0.77884 0.7276 0.0
C318 C 0.52361 0.77892 0.76019 0.0
H319 H 0.44201 0.76629 0.72063 0.0
H320 H 0.77899 0.77932 0.90904 0.0
H321 H 0.73684 0.78119 0.85337 0.0
H322 H 0.49286 0.79313 0.88517 0.0
H323 H 0.53575 0.78921 0.94131 0.0
H324 H 0.51781 0.7847 0.82701 0.0
H325 H 0.68984 0.80335 0.80858 0.0
H326 H 0.70851 0.82441 0.75416 0.0
H327 H 0.66888 0.82346 0.69738 0.0
C328 C 0.71185 0.26102 0.64663 0.0
C329 C 0.66092 0.25107 0.61989 0.0
C330 C 0.68533 0.25744 0.67842 0.0
C331 C 0.60704 0.24383 0.68429 0.0
C332 C 0.55663 0.23304 0.65757 0.0
C333 C 0.58298 0.23696 0.62574 0.0
C334 C 0.57719 0.23909 0.71781 0.0
C335 C 0.60498 0.26458 0.74439 0.0
C336 C 0.57632 0.26019 0.77813 0.0
C337 C 0.58494 0.29795 0.80168 0.0
C338 C 0.56182 0.29477 0.83396 0.0
C339 C 0.53061 0.25342 0.84361 0.0
H340 H 0.5387 0.18859 0.77053 0.0
C341 C 0.52209 0.21552 0.8201 0.0
C342 C 0.54454 0.21883 0.78771 0.0
H343 H 0.49798 0.18323 0.82676 0.0
H344 H 0.77237 0.27178 0.6431 0.0
H345 H 0.72681 0.26466 0.69824 0.0
H346 H 0.49632 0.222 0.66133 0.0
H347 H 0.54227 0.22877 0.60575 0.0
H348 H 0.52827 0.21546 0.72032 0.0
H349 H 0.64847 0.29133 0.74134 0.0
H350 H 0.60992 0.33008 0.79511 0.0
H351 H 0.57012 0.32441 0.85154 0.0
C352 C 0.90701 0.74546 0.13022 0.0
C353 C 0.82822 0.75436 0.12164 0.0
C354 C 0.92871 0.74491 0.1631 0.0
C355 C 0.87187 0.75339 0.188 0.0
C356 C 0.79347 0.76216 0.17925 0.0
C357 C 0.77188 0.76246 0.14665 0.0
C358 C 0.89137 0.75568 0.22338 0.0
C359 C 0.95467 0.7354 0.23598 0.0
C360 C 0.96936 0.73718 0.27177 0.0
C361 C 0.01042 0.70089 0.28438 0.0
C362 C 0.02323 0.70095 0.31795 0.0
C363 C 0.99601 0.73766 0.33976 0.0
H364 H 0.9146 0.80394 0.28469 0.0
C365 C 0.95679 0.7746 0.32699 0.0
C366 C 0.94377 0.77444 0.29348 0.0
H367 H 0.93696 0.80408 0.34286 0.0
H368 H 0.95203 0.73937 0.11162 0.0
H369 H 0.99015 0.73899 0.16883 0.0
H370 H 0.7484 0.76908 0.19778 0.0
H371 H 0.71085 0.76993 0.1412 0.0
H372 H 0.84854 0.773 0.23995 0.0
H373 H 0.9941 0.7144 0.21996 0.0
H374 H 0.03138 0.67191 0.26827 0.0
H375 H 0.05324 0.67176 0.32682 0.0
C376 C 0.78757 0.27525 0.40383 0.0
C377 C 0.83999 0.28367 0.43024 0.0
C378 C 0.81324 0.27863 0.37195 0.0
C379 C 0.8922 0.29041 0.36564 0.0
C380 C 0.94417 0.29973 0.39202 0.0
C381 C 0.91858 0.29609 0.42398 0.0
C382 C 0.92125 0.29464 0.33198 0.0
C383 C 0.89044 0.27021 0.30556 0.0
C384 C 0.91795 0.2743 0.27167 0.0
C385 C 0.90507 0.23723 0.24794 0.0
C386 C 0.9272 0.24029 0.21555 0.0
C387 C 0.96171 0.28083 0.20603 0.0
H388 H 0.96201 0.34464 0.27953 0.0
C389 C 0.97448 0.31805 0.22972 0.0
C390 C 0.95291 0.31487 0.2622 0.0
H391 H 0.00126 0.34969 0.22316 0.0
H392 H 0.7265 0.26584 0.40769 0.0
H393 H 0.77061 0.27268 0.35242 0.0
H394 H 0.00506 0.30938 0.38789 0.0
H395 H 0.96041 0.30307 0.44373 0.0
H396 H 0.97188 0.31694 0.32921 0.0
H397 H 0.84505 0.2446 0.30882 0.0
H398 H 0.87755 0.20576 0.25446 0.0
H399 H 0.91565 0.21123 0.19781 0.0
C400 C 0.99116 0.28928 0.73052 0.0
C401 C 0.04422 0.30193 0.70661 0.0
C402 C 0.01526 0.28894 0.76296 0.0
C403 C 0.09307 0.30172 0.77235 0.0
C404 C 0.14583 0.31436 0.7484 0.0
C405 C 0.12186 0.31448 0.716 0.0
C406 C 0.12315 0.30067 0.80629 0.0
C407 C 0.07686 0.297 0.8326 0.0
C408 C 0.10814 0.29447 0.86622 0.0
C409 C 0.05595 0.3025 0.89269 0.0
C410 C 0.08181 0.29889 0.92456 0.0
C411 C 0.16067 0.28703 0.93074 0.0
H412 H 0.22913 0.27443 0.85298 0.0
C413 C 0.21308 0.2791 0.90433 0.0
C414 C 0.18716 0.28246 0.87246 0.0
H415 H 0.27402 0.26936 0.90812 0.0
H416 H 0.93071 0.27975 0.72422 0.0
H417 H 0.97276 0.27789 0.7802 0.0
H418 H 0.20631 0.32392 0.7547 0.0
H419 H 0.16484 0.32361 0.6982 0.0
H420 H 0.18665 0.30425 0.80952 0.0
H421 H 0.013 0.29698 0.82995 0.0
H422 H 0.99467 0.31145 0.88871 0.0
H423 H 0.03976 0.30514 0.94431 0.0
C424 C 0.09284 0.74638 0.63023 0.0
C425 C 0.17265 0.74981 0.62095 0.0
C426 C 0.07236 0.74336 0.66303 0.0
C427 C 0.13155 0.74373 0.68724 0.0
C428 C 0.21102 0.74671 0.67765 0.0
C429 C 0.23127 0.74965 0.64514 0.0
C430 C 0.11512 0.7418 0.72275 0.0
C431 C 0.04318 0.73648 0.73625 0.0
C432 C 0.03107 0.73522 0.7721 0.0
C433 C 0.95638 0.74652 0.78563 0.0
C434 C 0.94314 0.74636 0.81917 0.0
C435 C 0.00431 0.73466 0.84004 0.0
H436 H 0.14914 0.71141 0.7836 0.0
C437 C 0.07852 0.72236 0.82645 0.0
C438 C 0.09166 0.72232 0.79294 0.0
H439 H 0.12636 0.71207 0.84168 0.0
H440 H 0.04613 0.74649 0.61226 0.0
H441 H 0.01029 0.74126 0.66903 0.0
H442 H 0.25822 0.74703 0.69548 0.0
H443 H 0.29338 0.75223 0.63913 0.0
H444 H 0.16621 0.74587 0.7387 0.0
H445 H 0.99072 0.73442 0.72106 0.0
H446 H 0.90829 0.75618 0.77027 0.0
H447 H 0.88531 0.75623 0.82881 0.0
loop_
_geom_bond_atom_site_label_1
_geom_bond_atom_site_label_2
_geom_bond_distance
_geom_bond_site_symmetry_2
_ccdc_geom_bond_type
Tb0 C2 2.809 . S
Tb0 O20 2.484 . S
Tb0 O21 2.440 . S
Tb0 O22 2.650 1_554 S
Tb0 O23 2.409 . S
Tb0 O24 2.378 . S
Tb0 O28 2.325 . S
Tb0 O31 2.341 1_554 S
Tb1 C11 2.809 . S
Tb1 O22 2.328 . S
Tb1 O25 2.341 1_556 S
Tb1 O26 2.484 . S
Tb1 O27 2.440 . S
Tb1 O28 2.658 1_556 S
Tb1 O29 2.409 . S
Tb1 O30 2.378 . S
C2 Tb0 2.809 . S
C2 C3 1.514 . S
C2 O20 1.248 . S
C2 O21 1.266 . S
C3 C2 1.514 . S
C3 C4 1.359 . S
C3 C8 1.348 . S
C4 C3 1.359 . S
C4 C5 1.380 . S
C4 H32 0.929 . S
C5 C4 1.380 . S
C5 C6 1.347 . S
C5 H33 0.931 . S
C6 C5 1.347 . S
C6 C7 1.369 . S
C7 C6 1.369 . S
C7 C8 1.408 . S
C7 H34 0.930 . S
C8 C3 1.348 . S
C8 C7 1.408 . S
C8 H35 0.930 . S
C9 O22 1.275 1_554 S
C9 O23 1.254 . S
C10 O24 1.236 . S
C10 O25 1.266 . S
C11 Tb1 2.809 . S
C11 C12 1.514 . S
C11 O26 1.248 . S
C11 O27 1.266 . S
C12 C11 1.514 . S
C12 C13 1.359 . S
C12 C17 1.348 . S
C13 C12 1.359 . S
C13 C14 1.380 . S
C13 H36 0.929 . S
C14 C13 1.380 . S
C14 C15 1.347 . S
C14 H37 0.931 . S
C15 C14 1.347 . S
C15 C16 1.369 . S
C16 C15 1.369 . S
C16 C17 1.408 . S
C16 H38 0.930 . S
C17 C12 1.348 . S
C17 C16 1.408 . S
C17 H39 0.930 . S
C18 O28 1.281 . S
C18 O29 1.254 1_554 S
C19 O30 1.236 . S
C19 O31 1.266 . S
O20 Tb0 2.484 . S
O20 C2 1.248 . S
O21 Tb0 2.440 . S
O21 C2 1.266 . S
O22 Tb0 2.650 1_556 S
O22 Tb1 2.328 . S
O22 C9 1.275 1_556 S
O23 Tb0 2.409 . S
O23 C9 1.254 . S
O24 Tb0 2.378 . S
O24 C10 1.236 . S
O25 Tb1 2.341 1_554 S
O25 C10 1.266 . S
O26 Tb1 2.484 . S
O26 C11 1.248 . S
O27 Tb1 2.440 . S
O27 C11 1.266 . S
O28 Tb0 2.325 . S
O28 Tb1 2.658 1_554 S
O28 C18 1.281 . S
O29 Tb1 2.409 . S
O29 C18 1.254 1_556 S
O30 Tb1 2.378 . S
O30 C19 1.236 . S
O31 Tb0 2.341 1_556 S
O31 C19 1.266 . S
H32 C4 0.929 . S
H33 C5 0.931 . S
H34 C7 0.930 . S
H35 C8 0.930 . S
H36 C13 0.929 . S
H37 C14 0.931 . S
H38 C16 0.930 . S
H39 C17 0.930 . S
Tb40 C42 2.809 . S
Tb40 O60 2.484 . S
Tb40 O61 2.440 . S
Tb40 O62 2.650 1_554 S
Tb40 O63 2.409 . S
Tb40 O64 2.378 . S
Tb40 O68 2.325 . S
Tb40 O71 2.341 1_554 S
Tb41 C51 2.809 . S
Tb41 O62 2.328 . S
Tb41 O65 2.341 1_556 S
Tb41 O66 2.484 . S
Tb41 O67 2.440 . S
Tb41 O68 2.658 1_556 S
Tb41 O69 2.409 . S
Tb41 O70 2.378 . S
C42 Tb40 2.809 . S
C42 C43 1.514 . S
C42 O60 1.248 . S
C42 O61 1.266 . S
C43 C42 1.514 . S
C43 C44 1.359 . S
C43 C48 1.348 . S
C44 C43 1.359 . S
C44 C45 1.380 . S
C44 H72 0.929 . S
C45 C44 1.380 . S
C45 C46 1.347 . S
C45 H73 0.931 . S
C46 C45 1.347 . S
C46 C47 1.369 . S
C47 C46 1.369 . S
C47 C48 1.408 . S
C47 H74 0.930 . S
C48 C43 1.348 . S
C48 C47 1.408 . S
C48 H75 0.930 . S
C49 O62 1.275 1_554 S
C49 O63 1.254 . S
C50 O64 1.236 . S
C50 O65 1.266 . S
C51 Tb41 2.809 . S
C51 C52 1.514 . S
C51 O66 1.248 . S
C51 O67 1.266 . S
C52 C51 1.514 . S
C52 C53 1.359 . S
C52 C57 1.348 . S
C53 C52 1.359 . S
C53 C54 1.380 . S
C53 H76 0.929 . S
C54 C53 1.380 . S
C54 C55 1.347 . S
C54 H77 0.931 . S
C55 C54 1.347 . S
C55 C56 1.369 . S
C56 C55 1.369 . S
C56 C57 1.408 . S
C56 H78 0.930 . S
C57 C52 1.348 . S
C57 C56 1.408 . S
C57 H79 0.930 . S
C58 O68 1.281 . S
C58 O69 1.254 1_554 S
C59 O70 1.236 . S
C59 O71 1.266 . S
O60 Tb40 2.484 . S
O60 C42 1.248 . S
O61 Tb40 2.440 . S
O61 C42 1.266 . S
O62 Tb40 2.650 1_556 S
O62 Tb41 2.328 . S
O62 C49 1.275 1_556 S
O63 Tb40 2.409 . S
O63 C49 1.254 . S
O64 Tb40 2.378 . S
O64 C50 1.236 . S
O65 Tb41 2.341 1_554 S
O65 C50 1.266 . S
O66 Tb41 2.484 . S
O66 C51 1.248 . S
O67 Tb41 2.440 . S
O67 C51 1.266 . S
O68 Tb40 2.325 . S
O68 Tb41 2.658 1_554 S
O68 C58 1.281 . S
O69 Tb41 2.409 . S
O69 C58 1.254 1_556 S
O70 Tb41 2.378 . S
O70 C59 1.236 . S
O71 Tb40 2.341 1_556 S
O71 C59 1.266 . S
H72 C44 0.929 . S
H73 C45 0.931 . S
H74 C47 0.930 . S
H75 C48 0.930 . S
H76 C53 0.929 . S
H77 C54 0.931 . S
H78 C56 0.930 . S
H79 C57 0.930 . S
Tb80 C82 2.809 . S
Tb80 O100 2.484 . S
Tb80 O101 2.440 . S
Tb80 O102 2.658 . S
Tb80 O103 2.409 . S
Tb80 O104 2.378 . S
Tb80 O108 2.325 . S
Tb80 O111 2.341 . S
Tb81 C91 2.809 . S
Tb81 O102 2.325 . S
Tb81 O105 2.341 . S
Tb81 O106 2.484 . S
Tb81 O107 2.440 . S
Tb81 O108 2.658 . S
Tb81 O109 2.409 . S
Tb81 O110 2.378 . S
C82 Tb80 2.809 . S
C82 C83 1.514 . S
C82 O100 1.248 . S
C82 O101 1.266 . S
C83 C82 1.514 . S
C83 C84 1.359 . S
C83 C88 1.348 . S
C84 C83 1.359 . S
C84 C85 1.380 . S
C84 H112 0.929 . S
C85 C84 1.380 . S
C85 C86 1.347 . S
C85 H113 0.931 . S
C86 C85 1.347 . S
C86 C87 1.369 . S
C87 C86 1.369 . S
C87 C88 1.408 . S
C87 H114 0.930 . S
C88 C83 1.348 . S
C88 C87 1.408 . S
C88 H115 0.930 . S
C89 O102 1.281 . S
C89 O103 1.254 . S
C90 O104 1.236 . S
C90 O105 1.266 . S
C91 Tb81 2.809 . S
C91 C92 1.514 . S
C91 O106 1.248 . S
C91 O107 1.266 . S
C92 C91 1.514 . S
C92 C93 1.359 . S
C92 C97 1.348 . S
C93 C92 1.359 . S
C93 C94 1.380 . S
C93 H116 0.929 . S
C94 C93 1.380 . S
C94 C95 1.347 . S
C94 H117 0.931 . S
C95 C94 1.347 . S
C95 C96 1.369 . S
C96 C95 1.369 . S
C96 C97 1.408 . S
C96 H118 0.930 . S
C97 C92 1.348 . S
C97 C96 1.408 . S
C97 H119 0.930 . S
C98 O108 1.281 . S
C98 O109 1.254 . S
C99 O110 1.236 . S
C99 O111 1.266 . S
O100 Tb80 2.484 . S
O100 C82 1.248 . S
O101 Tb80 2.440 . S
O101 C82 1.266 . S
O102 Tb80 2.658 . S
O102 Tb81 2.325 . S
O102 C89 1.281 . S
O103 Tb80 2.409 . S
O103 C89 1.254 . S
O104 Tb80 2.378 . S
O104 C90 1.236 . S
O105 Tb81 2.341 . S
O105 C90 1.266 . S
O106 Tb81 2.484 . S
O106 C91 1.248 . S
O107 Tb81 2.440 . S
O107 C91 1.266 . S
O108 Tb80 2.325 . S
O108 Tb81 2.658 . S
O108 C98 1.281 . S
O109 Tb81 2.409 . S
O109 C98 1.254 . S
O110 Tb81 2.378 . S
O110 C99 1.236 . S
O111 Tb80 2.341 . S
O111 C99 1.266 . S
H112 C84 0.929 . S
H113 C85 0.931 . S
H114 C87 0.930 . S
H115 C88 0.930 . S
H116 C93 0.929 . S
H117 C94 0.931 . S
H118 C96 0.930 . S
H119 C97 0.930 . S
Tb120 C122 2.809 . S
Tb120 O140 2.484 . S
Tb120 O141 2.440 . S
Tb120 O142 2.658 . S
Tb120 O143 2.409 . S
Tb120 O144 2.378 . S
Tb120 O148 2.325 . S
Tb120 O151 2.341 . S
Tb121 C131 2.809 . S
Tb121 O142 2.325 . S
Tb121 O145 2.341 . S
Tb121 O146 2.484 . S
Tb121 O147 2.440 . S
Tb121 O148 2.658 . S
Tb121 O149 2.409 . S
Tb121 O150 2.378 . S
C122 Tb120 2.809 . S
C122 C123 1.514 . S
C122 O140 1.248 . S
C122 O141 1.266 . S
C123 C122 1.514 . S
C123 C124 1.359 . S
C123 C128 1.348 . S
C124 C123 1.359 . S
C124 C125 1.380 . S
C124 H152 0.929 . S
C125 C124 1.380 . S
C125 C126 1.347 . S
C125 H153 0.931 . S
C126 C125 1.347 . S
C126 C127 1.369 . S
C127 C126 1.369 . S
C127 C128 1.408 . S
C127 H154 0.930 . S
C128 C123 1.348 . S
C128 C127 1.408 . S
C128 H155 0.930 . S
C129 O142 1.281 . S
C129 O143 1.254 . S
C130 O144 1.236 . S
C130 O145 1.266 . S
C131 Tb121 2.809 . S
C131 C132 1.514 . S
C131 O146 1.248 . S
C131 O147 1.266 . S
C132 C131 1.514 . S
C132 C133 1.359 . S
C132 C137 1.348 . S
C133 C132 1.359 . S
C133 C134 1.380 . S
C133 H156 0.929 . S
C134 C133 1.380 . S
C134 C135 1.347 . S
C134 H157 0.931 . S
C135 C134 1.347 . S
C135 C136 1.369 . S
C136 C135 1.369 . S
C136 C137 1.408 . S
C136 H158 0.930 . S
C137 C132 1.348 . S
C137 C136 1.408 . S
C137 H159 0.930 . S
C138 O148 1.281 . S
C138 O149 1.254 . S
C139 O150 1.236 . S
C139 O151 1.266 . S
O140 Tb120 2.484 . S
O140 C122 1.248 . S
O141 Tb120 2.440 . S
O141 C122 1.266 . S
O142 Tb120 2.658 . S
O142 Tb121 2.325 . S
O142 C129 1.281 . S
O143 Tb120 2.409 . S
O143 C129 1.254 . S
O144 Tb120 2.378 . S
O144 C130 1.236 . S
O145 Tb121 2.341 . S
O145 C130 1.266 . S
O146 Tb121 2.484 . S
O146 C131 1.248 . S
O147 Tb121 2.440 . S
O147 C131 1.266 . S
O148 Tb120 2.325 . S
O148 Tb121 2.658 . S
O148 C138 1.281 . S
O149 Tb121 2.409 . S
O149 C138 1.254 . S
O150 Tb121 2.378 . S
O150 C139 1.236 . S
O151 Tb120 2.341 . S
O151 C139 1.266 . S
H152 C124 0.929 . S
H153 C125 0.931 . S
H154 C127 0.930 . S
H155 C128 0.930 . S
H156 C133 0.929 . S
H157 C134 0.931 . S
H158 C136 0.930 . S
H159 C137 0.930 . S
C160 C161 1.386 . S
C160 C162 1.383 . S
C160 H176 0.951 . S
C161 C160 1.386 . S
C161 C165 1.383 1_554 S
C162 C160 1.383 . S
C162 C163 1.402 . S
C162 H177 0.951 . S
C163 C162 1.402 . S
C163 C164 1.375 1_554 S
C163 C166 1.481 . S
C164 C163 1.375 1_556 S
C164 C165 1.367 . S
C164 H178 0.951 . S
C165 C161 1.383 1_556 S
C165 C164 1.367 . S
C165 H179 0.950 . S
C166 C163 1.481 . S
C166 C167 1.297 . S
C166 H180 0.950 1_554 S
C167 C166 1.297 . S
C167 C168 1.479 . S
C167 H181 0.950 . S
C168 C167 1.479 . S
C168 C169 1.375 . S
C168 C174 1.404 . S
C169 C168 1.375 . S
C169 C170 1.369 . S
C169 H182 0.950 . S
C170 C169 1.369 . S
C170 C171 1.392 . S
C170 H183 0.951 . S
C171 C170 1.392 . S
C171 C173 1.376 1_554 S
H172 C174 0.949 1_556 S
C173 C171 1.376 1_556 S
C173 C174 1.384 1_556 S
C173 H175 0.960 . S
C174 C168 1.404 . S
C174 H172 0.949 1_554 S
C174 C173 1.384 1_554 S
H175 C173 0.960 . S
H176 C160 0.951 . S
H177 C162 0.951 . S
H178 C164 0.951 . S
H179 C165 0.950 . S
H180 C166 0.950 1_556 S
H181 C167 0.950 . S
H182 C169 0.950 . S
H183 C170 0.951 . S
C184 C185 1.386 . S
C184 C186 1.383 . S
C184 H200 0.951 . S
C185 C184 1.386 . S
C185 C189 1.383 . S
C186 C184 1.383 . S
C186 C187 1.402 . S
C186 H201 0.951 . S
C187 C186 1.402 . S
C187 C188 1.375 . S
C187 C190 1.481 . S
C188 C187 1.375 . S
C188 C189 1.367 . S
C188 H202 0.951 . S
C189 C185 1.383 . S
C189 C188 1.367 . S
C189 H203 0.950 . S
C190 C187 1.481 . S
C190 C191 1.297 . S
C190 H204 0.950 . S
C191 C190 1.297 . S
C191 C192 1.479 . S
C191 H205 0.950 . S
C192 C191 1.479 . S
C192 C193 1.375 . S
C192 C198 1.404 . S
C193 C192 1.375 . S
C193 C194 1.369 . S
C193 H206 0.950 . S
C194 C193 1.369 . S
C194 C195 1.392 . S
C194 H207 0.951 . S
C195 C194 1.392 . S
C195 C197 1.384 . S
H196 C198 0.949 . S
C197 C195 1.384 . S
C197 C198 1.385 . S
C197 H199 0.950 . S
C198 C192 1.404 . S
C198 H196 0.949 . S
C198 C197 1.385 . S
H199 C197 0.950 . S
H200 C184 0.951 . S
H201 C186 0.951 . S
H202 C188 0.951 . S
H203 C189 0.950 . S
H204 C190 0.950 . S
H205 C191 0.950 . S
H206 C193 0.950 . S
H207 C194 0.951 . S
C208 C209 1.386 . S
C208 C210 1.383 . S
C208 H224 0.951 . S
C209 C208 1.386 . S
C209 C213 1.383 . S
C210 C208 1.383 . S
C210 C211 1.402 . S
C210 H225 0.951 . S
C211 C210 1.402 . S
C211 C212 1.375 . S
C211 C214 1.481 1_455 S
C212 C211 1.375 . S
C212 C213 1.367 . S
C212 H226 0.951 1_454 S
C213 C209 1.383 . S
C213 C212 1.367 . S
C213 H227 0.950 1_554 S
C214 C211 1.481 1_655 S
C214 C215 1.297 1_545 S
C214 H228 0.950 . S
C215 C214 1.297 1_565 S
C215 C216 1.479 . S
C215 H229 0.950 1_655 S
C216 C215 1.479 . S
C216 C217 1.375 . S
C216 C222 1.404 . S
C217 C216 1.375 . S
C217 C218 1.369 . S
C217 H230 0.950 1_655 S
C218 C217 1.369 . S
C218 C219 1.392 . S
C218 H231 0.951 . S
C219 C218 1.392 . S
C219 C221 1.384 . S
H220 C222 0.949 . S
C221 C219 1.384 . S
C221 C222 1.385 . S
C221 H223 0.950 . S
C222 C216 1.404 . S
C222 H220 0.949 . S
C222 C221 1.385 . S
H223 C221 0.950 . S
H224 C208 0.951 . S
H225 C210 0.951 . S
H226 C212 0.951 1_656 S
H227 C213 0.950 1_556 S
H228 C214 0.950 . S
H229 C215 0.950 1_455 S
H230 C217 0.950 1_455 S
H231 C218 0.951 . S
C232 C233 1.386 . S
C232 C234 1.383 . S
C232 H248 0.951 . S
C233 C232 1.386 . S
C233 C237 1.383 . S
C234 C232 1.383 . S
C234 C235 1.402 . S
C234 H249 0.951 . S
C235 C234 1.402 . S
C235 C236 1.375 . S
C235 C238 1.481 1_655 S
C236 C235 1.375 . S
C236 C237 1.367 . S
C236 H250 0.951 . S
C237 C233 1.383 . S
C237 C236 1.367 . S
C237 H251 0.950 . S
C238 C235 1.481 1_455 S
C238 C239 1.297 1_545 S
C238 H252 0.950 . S
C239 C238 1.297 1_565 S
C239 C240 1.479 . S
C239 H253 0.950 . S
C240 C239 1.479 . S
C240 C241 1.375 . S
C240 C246 1.404 . S
C241 C240 1.375 . S
C241 C242 1.369 . S
C241 H254 0.950 . S
C242 C241 1.369 . S
C242 C243 1.392 . S
C242 H255 0.951 . S
C243 C242 1.392 . S
C243 C245 1.384 . S
H244 C246 0.949 . S
C245 C243 1.384 . S
C245 C246 1.385 . S
C245 H247 0.950 . S
C246 C240 1.404 . S
C246 H244 0.949 . S
C246 C245 1.385 . S
H247 C245 0.950 . S
H248 C232 0.951 . S
H249 C234 0.951 . S
H250 C236 0.951 . S
H251 C237 0.950 . S
H252 C238 0.950 . S
H253 C239 0.950 . S
H254 C241 0.950 . S
H255 C242 0.951 . S
C256 C257 1.386 . S
C256 C258 1.383 . S
C256 H272 0.951 . S
C257 C256 1.386 . S
C257 C261 1.383 . S
C258 C256 1.383 . S
C258 C259 1.402 . S
C258 H273 0.951 . S
C259 C258 1.402 . S
C259 C260 1.375 . S
C259 C262 1.481 . S
C260 C259 1.375 . S
C260 C261 1.367 . S
C260 H274 0.951 . S
C261 C257 1.383 . S
C261 C260 1.367 . S
C261 H275 0.950 . S
C262 C259 1.481 . S
C262 C263 1.297 . S
C262 H276 0.950 . S
C263 C262 1.297 . S
C263 C264 1.479 . S
C263 H277 0.950 . S
C264 C263 1.479 . S
C264 C265 1.375 . S
C264 C270 1.404 . S
C265 C264 1.375 . S
C265 C266 1.369 . S
C265 H278 0.950 . S
C266 C265 1.369 . S
C266 C267 1.392 . S
C266 H279 0.951 . S
C267 C266 1.392 . S
C267 C269 1.384 . S
H268 C270 0.949 . S
C269 C267 1.384 . S
C269 C270 1.385 . S
C269 H271 0.950 . S
C270 C264 1.404 . S
C270 H268 0.949 . S
C270 C269 1.385 . S
H271 C269 0.950 . S
H272 C256 0.951 . S
H273 C258 0.951 . S
H274 C260 0.951 . S
H275 C261 0.950 . S
H276 C262 0.950 . S
H277 C263 0.950 . S
H278 C265 0.950 . S
H279 C266 0.951 . S
C280 C281 1.386 . S
C280 C282 1.383 . S
C280 H296 0.951 . S
C281 C280 1.386 . S
C281 C285 1.383 . S
C282 C280 1.383 . S
C282 C283 1.402 . S
C282 H297 0.951 . S
C283 C282 1.402 . S
C283 C284 1.375 . S
C283 C286 1.481 . S
C284 C283 1.375 . S
C284 C285 1.367 . S
C284 H298 0.951 . S
C285 C281 1.383 . S
C285 C284 1.367 . S
C285 H299 0.950 . S
C286 C283 1.481 . S
C286 C287 1.297 . S
C286 H300 0.950 . S
C287 C286 1.297 . S
C287 C288 1.479 . S
C287 H301 0.950 . S
C288 C287 1.479 . S
C288 C289 1.375 . S
C288 C294 1.404 . S
C289 C288 1.375 . S
C289 C290 1.369 . S
C289 H302 0.950 . S
C290 C289 1.369 . S
C290 C291 1.392 . S
C290 H303 0.951 . S
C291 C290 1.392 . S
C291 C293 1.384 . S
H292 C294 0.949 . S
C293 C291 1.384 . S
C293 C294 1.385 . S
C293 H295 0.950 . S
C294 C288 1.404 . S
C294 H292 0.949 . S
C294 C293 1.385 . S
H295 C293 0.950 . S
H296 C280 0.951 . S
H297 C282 0.951 . S
H298 C284 0.951 . S
H299 C285 0.950 . S
H300 C286 0.950 . S
H301 C287 0.950 . S
H302 C289 0.950 . S
H303 C290 0.951 . S
C304 C305 1.386 . S
C304 C306 1.383 . S
C304 H320 0.951 . S
C305 C304 1.386 . S
C305 C309 1.383 . S
C306 C304 1.383 . S
C306 C307 1.402 . S
C306 H321 0.951 . S
C307 C306 1.402 . S
C307 C308 1.375 . S
C307 C310 1.481 . S
C308 C307 1.375 . S
C308 C309 1.367 . S
C308 H322 0.951 . S
C309 C305 1.383 . S
C309 C308 1.367 . S
C309 H323 0.950 . S
C310 C307 1.481 . S
C310 C311 1.297 . S
C310 H324 0.950 . S
C311 C310 1.297 . S
C311 C312 1.479 . S
C311 H325 0.950 . S
C312 C311 1.479 . S
C312 C313 1.375 . S
C312 C318 1.404 . S
C313 C312 1.375 . S
C313 C314 1.369 . S
C313 H326 0.950 . S
C314 C313 1.369 . S
C314 C315 1.392 . S
C314 H327 0.951 . S
C315 C314 1.392 . S
C315 C317 1.384 . S
H316 C318 0.949 . S
C317 C315 1.384 . S
C317 C318 1.385 . S
C317 H319 0.950 . S
C318 C312 1.404 . S
C318 H316 0.949 . S
C318 C317 1.385 . S
H319 C317 0.950 . S
H320 C304 0.951 . S
H321 C306 0.951 . S
H322 C308 0.951 . S
H323 C309 0.950 . S
H324 C310 0.950 . S
H325 C311 0.950 . S
H326 C313 0.950 . S
H327 C314 0.951 . S
C328 C329 1.386 . S
C328 C330 1.383 . S
C328 H344 0.951 . S
C329 C328 1.386 . S
C329 C333 1.383 . S
C330 C328 1.383 . S
C330 C331 1.402 . S
C330 H345 0.951 . S
C331 C330 1.402 . S
C331 C332 1.375 . S
C331 C334 1.481 . S
C332 C331 1.375 . S
C332 C333 1.367 . S
C332 H346 0.951 . S
C333 C329 1.383 . S
C333 C332 1.367 . S
C333 H347 0.950 . S
C334 C331 1.481 . S
C334 C335 1.297 . S
C334 H348 0.950 . S
C335 C334 1.297 . S
C335 C336 1.479 . S
C335 H349 0.950 . S
C336 C335 1.479 . S
C336 C337 1.375 . S
C336 C342 1.404 . S
C337 C336 1.375 . S
C337 C338 1.369 . S
C337 H350 0.950 . S
C338 C337 1.369 . S
C338 C339 1.392 . S
C338 H351 0.951 . S
C339 C338 1.392 . S
C339 C341 1.384 . S
H340 C342 0.949 . S
C341 C339 1.384 . S
C341 C342 1.385 . S
C341 H343 0.950 . S
C342 C336 1.404 . S
C342 H340 0.949 . S
C342 C341 1.385 . S
H343 C341 0.950 . S
H344 C328 0.951 . S
H345 C330 0.951 . S
H346 C332 0.951 . S
H347 C333 0.950 . S
H348 C334 0.950 . S
H349 C335 0.950 . S
H350 C337 0.950 . S
H351 C338 0.951 . S
C352 C353 1.386 . S
C352 C354 1.383 . S
C352 H368 0.951 . S
C353 C352 1.386 . S
C353 C357 1.383 . S
C354 C352 1.383 . S
C354 C355 1.402 . S
C354 H369 0.951 . S
C355 C354 1.402 . S
C355 C356 1.375 . S
C355 C358 1.481 . S
C356 C355 1.375 . S
C356 C357 1.367 . S
C356 H370 0.951 . S
C357 C353 1.383 . S
C357 C356 1.367 . S
C357 H371 0.950 . S
C358 C355 1.481 . S
C358 C359 1.297 . S
C358 H372 0.950 . S
C359 C358 1.297 . S
C359 C360 1.479 . S
C359 H373 0.950 . S
C360 C359 1.479 . S
C360 C361 1.377 . S
C360 C366 1.404 . S
C361 C360 1.377 . S
C361 C362 1.367 1_655 S
C361 H374 0.951 . S
C362 C361 1.367 1_455 S
C362 C363 1.392 . S
C362 H375 0.951 . S
C363 C362 1.392 . S
C363 C365 1.384 . S
H364 C366 0.949 . S
C365 C363 1.384 . S
C365 C366 1.385 1_455 S
C365 H367 0.950 . S
C366 C360 1.404 . S
C366 H364 0.949 . S
C366 C365 1.385 1_655 S
H367 C365 0.950 . S
H368 C352 0.951 . S
H369 C354 0.951 . S
H370 C356 0.951 . S
H371 C357 0.950 . S
H372 C358 0.950 . S
H373 C359 0.950 . S
H374 C361 0.951 . S
H375 C362 0.951 . S
C376 C377 1.386 . S
C376 C378 1.383 . S
C376 H392 0.951 . S
C377 C376 1.386 . S
C377 C381 1.383 . S
C378 C376 1.383 . S
C378 C379 1.402 . S
C378 H393 0.951 . S
C379 C378 1.402 . S
C379 C380 1.375 . S
C379 C382 1.481 . S
C380 C379 1.375 . S
C380 C381 1.367 . S
C380 H394 0.951 . S
C381 C377 1.383 . S
C381 C380 1.367 . S
C381 H395 0.950 . S
C382 C379 1.481 . S
C382 C383 1.297 . S
C382 H396 0.950 . S
C383 C382 1.297 . S
C383 C384 1.479 . S
C383 H397 0.950 . S
C384 C383 1.479 . S
C384 C385 1.375 . S
C384 C390 1.404 . S
C385 C384 1.375 . S
C385 C386 1.369 . S
C385 H398 0.950 . S
C386 C385 1.369 . S
C386 C387 1.392 . S
C386 H399 0.951 . S
C387 C386 1.392 . S
C387 C389 1.384 . S
H388 C390 0.949 . S
C389 C387 1.384 . S
C389 C390 1.385 . S
C389 H391 0.950 . S
C390 C384 1.404 . S
C390 H388 0.949 . S
C390 C389 1.385 . S
H391 C389 0.950 . S
H392 C376 0.951 . S
H393 C378 0.951 . S
H394 C380 0.951 . S
H395 C381 0.950 . S
H396 C382 0.950 . S
H397 C383 0.950 . S
H398 C385 0.950 . S
H399 C386 0.951 . S
C400 C401 1.386 . S
C400 C402 1.383 . S
C400 H416 0.951 . S
C401 C400 1.386 . S
C401 C405 1.383 . S
C402 C400 1.383 . S
C402 C403 1.402 . S
C402 H417 0.951 . S
C403 C402 1.402 . S
C403 C404 1.375 . S
C403 C406 1.481 . S
C404 C403 1.375 . S
C404 C405 1.367 . S
C404 H418 0.951 . S
C405 C401 1.383 . S
C405 C404 1.367 . S
C405 H419 0.950 . S
C406 C403 1.481 . S
C406 C407 1.297 . S
C406 H420 0.950 . S
C407 C406 1.297 . S
C407 C408 1.479 . S
C407 H421 0.950 . S
C408 C407 1.479 . S
C408 C409 1.375 . S
C408 C414 1.404 . S
C409 C408 1.375 . S
C409 C410 1.369 . S
C409 H422 0.950 . S
C410 C409 1.369 . S
C410 C411 1.392 . S
C410 H423 0.951 . S
C411 C410 1.392 . S
C411 C413 1.384 . S
H412 C414 0.949 . S
C413 C411 1.384 . S
C413 C414 1.385 . S
C413 H415 0.950 . S
C414 C408 1.404 . S
C414 H412 0.949 . S
C414 C413 1.385 . S
H415 C413 0.950 . S
H416 C400 0.951 . S
H417 C402 0.951 . S
H418 C404 0.951 . S
H419 C405 0.950 . S
H420 C406 0.950 . S
H421 C407 0.950 . S
H422 C409 0.950 . S
H423 C410 0.951 . S
C424 C425 1.386 . S
C424 C426 1.383 . S
C424 H440 0.951 . S
C425 C424 1.386 . S
C425 C429 1.383 . S
C426 C424 1.383 . S
C426 C427 1.402 . S
C426 H441 0.951 . S
C427 C426 1.402 . S
C427 C428 1.375 . S
C427 C430 1.481 . S
C428 C427 1.375 . S
C428 C429 1.367 . S
C428 H442 0.951 . S
C429 C425 1.383 . S
C429 C428 1.367 . S
C429 H443 0.950 . S
C430 C427 1.481 . S
C430 C431 1.297 . S
C430 H444 0.950 . S
C431 C430 1.297 . S
C431 C432 1.479 . S
C431 H445 0.950 . S
C432 C431 1.479 . S
C432 C433 1.375 1_455 S
C432 C438 1.404 . S
C433 C432 1.375 1_655 S
C433 C434 1.369 . S
C433 H446 0.950 . S
C434 C433 1.369 . S
C434 C435 1.392 1_655 S
C434 H447 0.951 . S
C435 C434 1.392 1_455 S
C435 C437 1.384 . S
H436 C438 0.949 . S
C437 C435 1.384 . S
C437 C438 1.385 . S
C437 H439 0.950 . S
C438 C432 1.404 . S
C438 H436 0.949 . S
C438 C437 1.385 . S
H439 C437 0.950 . S
H440 C424 0.951 . S
H441 C426 0.951 . S
H442 C428 0.951 . S
H443 C429 0.950 . S
H444 C430 0.950 . S
H445 C431 0.950 . S
H446 C433 0.950 . S
H447 C434 0.951 . S
C161 C58 1.511 . S
C171 C9 1.456 . S
C185 C89 1.506 . S
C195 C138 1.498 . S
C209 C18 1.514 . S
C219 C49 1.464 . S
C233 C129 1.514 . S
C243 C98 1.472 . S
C257 C126 1.233 . S
C267 C10 1.221 . S
C281 C46 1.255 . S
C291 C90 1.251 . S
C305 C59 1.228 . S
C315 C95 1.226 . S
C329 C139 1.237 . S
C339 C15 1.216 . S
C353 C50 1.229 . S
C363 C86 1.226 . S
C377 C130 1.256 . S
C387 C6 1.252 1_655 S
C401 C135 1.257 1_455 S
C411 C19 1.232 . S
C425 C99 1.244 . S
C435 C55 1.261 1_455 S
