# Generated by pormake.
# Topology unh, (4)-cn, num edge types: 1
# Building blocks:
#     Node 0, Type 0, BuildingBlock: ICAMEG_clean_sbu_1, # of connection points: 4
#     Node 1, Type 0, BuildingBlock: ICAMEG_clean_sbu_1, # of connection points: 4
#     Node 2, Type 0, BuildingBlock: ICAMEG_clean_sbu_1, # of connection points: 4
#     Node 3, Type 0, BuildingBlock: ICAMEG_clean_sbu_1, # of connection points: 4
#     Node 4, Type 0, BuildingBlock: ICAMEG_clean_sbu_1, # of connection points: 4
#     Node 5, Type 0, BuildingBlock: ICAMEG_clean_sbu_1, # of connection points: 4
#     Edge 6, Type (0, 0), BuildingBlock: OJICUG_clean_linker_0, # of connection points: 2
#     Edge 7, Type (0, 0), BuildingBlock: OJICUG_clean_linker_0, # of connection points: 2
#     Edge 8, Type (0, 0), BuildingBlock: OJICUG_clean_linker_0, # of connection points: 2
#     Edge 9, Type (0, 0), BuildingBlock: OJICUG_clean_linker_0, # of connection points: 2
#     Edge 10, Type (0, 0), BuildingBlock: OJICUG_clean_linker_0, # of connection points: 2
#     Edge 11, Type (0, 0), BuildingBlock: OJICUG_clean_linker_0, # of connection points: 2
#     Edge 12, Type (0, 0), BuildingBlock: OJICUG_clean_linker_0, # of connection points: 2
#     Edge 13, Type (0, 0), BuildingBlock: OJICUG_clean_linker_0, # of connection points: 2
#     Edge 14, Type (0, 0), BuildingBlock: OJICUG_clean_linker_0, # of connection points: 2
#     Edge 15, Type (0, 0), BuildingBlock: OJICUG_clean_linker_0, # of connection points: 2
#     Edge 16, Type (0, 0), BuildingBlock: OJICUG_clean_linker_0, # of connection points: 2
#     Edge 17, Type (0, 0), BuildingBlock: OJICUG_clean_linker_0, # of connection points: 2
# Relax obj value: 0.025
# Max RMSD: 0.111
# Mean RMSD: 0.111
data_MOF--net-unh--node1-ICAMEG_clean_sbu_1--edge1-OJICUG_clean_linker_0
_symmetry_space_group_name_H-M    P1
_symmetry_Int_Tables_number       1
_symmetry_cell_setting            triclinic
loop_
_symmetry_equiv_pos_as_xyz
'x, y, z'
_cell_length_a     32.670498
_cell_length_b     32.667354
_cell_length_c     18.170278
_cell_angle_alpha  90.00789
_cell_angle_beta   89.997283
_cell_angle_gamma 120.00395
loop_
_atom_site_label
_atom_site_type_symbol
_atom_site_fract_x
_atom_site_fract_y
_atom_site_fract_z
_atom_type_partial_charge
Co0 Co 0.15734 0.53981 0.02789 0.0
Co1 Co 0.15751 0.61918 0.15131 0.0
O2 O 0.12487 0.56326 0.08961 0.0
C3 C 0.08913 0.54681 0.93027 0.0
O4 O 0.10739 0.59061 0.95322 0.0
C5 C 0.08924 0.54407 0.24899 0.0
O6 O 0.10742 0.51847 0.22601 0.0
O7 O 0.19469 0.59332 0.19793 0.0
O8 O 0.2087 0.55752 0.10342 0.0
H9 H 0.29841 0.75268 0.27582 0.0
H10 H 0.05571 0.47734 0.06251 0.0
O11 O 0.10629 0.52147 0.95241 0.0
H12 H 0.13549 0.39344 0.15567 0.0
H13 H 0.16399 0.42637 0.84732 0.0
H14 H 0.25713 0.57454 0.98617 0.0
H15 H 0.18104 0.47052 0.09353 0.0
H16 H 0.12466 0.45532 0.93135 0.0
O17 O 0.10647 0.58657 0.22685 0.0
H18 H 0.25737 0.68403 0.1929 0.0
H19 H 0.12511 0.67119 0.24792 0.0
H20 H 0.29796 0.5467 0.90324 0.0
H21 H 0.00877 0.40016 0.12375 0.0
H22 H 0.25127 0.47218 0.83292 0.0
H23 H 0.04871 0.35775 0.17107 0.0
O24 O 0.19465 0.60283 0.98122 0.0
H25 H 0.00912 0.61071 0.05563 0.0
H26 H 0.18146 0.71224 0.08567 0.0
H27 H 0.13607 0.74396 0.02358 0.0
H28 H 0.04926 0.69306 1.00827 0.0
H29 H 0.0559 0.58028 0.11681 0.0
H30 H 0.16466 0.73947 0.33195 0.0
H31 H 0.25193 0.78071 0.34624 0.0
O32 O 0.20885 0.65269 0.07572 0.0
C33 C 0.21621 0.57375 0.16915 0.0
C34 C 0.26038 0.73511 0.26987 0.0
C35 C 0.1853 0.72765 0.30144 0.0
N36 N 0.18898 0.67395 0.21507 0.0
C37 C 0.23698 0.69634 0.22278 0.0
C38 C 0.1631 0.68899 0.25385 0.0
C39 C 0.23428 0.75079 0.30941 0.0
C40 C 0.07328 0.45886 0.08219 0.0
N41 N 0.12104 0.47833 0.07413 0.0
C42 C 0.04654 0.41526 0.11713 0.0
C43 C 0.06899 0.39153 0.1438 0.0
C44 C 0.11768 0.41156 0.13523 0.0
C45 C 0.1433 0.45526 0.10012 0.0
C46 C 0.18473 0.45883 0.87778 0.0
C47 C 0.23664 0.54183 0.95633 0.0
C48 C 0.16265 0.47542 0.92537 0.0
N49 N 0.18864 0.51634 0.9641 0.0
C50 C 0.25993 0.52634 0.90924 0.0
C51 C 0.2337 0.48454 0.86975 0.0
C52 C 0.21628 0.64392 0.00998 0.0
C53 C 0.0469 0.63329 0.06221 0.0
C54 C 0.14371 0.68984 0.07911 0.0
C55 C 0.11818 0.70803 0.04404 0.0
C56 C 0.06946 0.67947 0.03552 0.0
N57 N 0.12133 0.6445 0.10512 0.0
C58 C 0.07356 0.61632 0.09712 0.0
Co59 Co 0.62076 0.15568 0.19431 0.0
Co60 Co 0.54177 0.15576 0.31818 0.0
O61 O 0.56493 0.12313 0.25621 0.0
C62 C 0.54548 0.08736 0.09684 0.0
O63 O 0.51989 0.10553 0.11991 0.0
C64 C 0.54856 0.0873 0.41549 0.0
O65 O 0.59232 0.10544 0.39243 0.0
O66 O 0.60486 0.1928 0.36466 0.0
O67 O 0.65447 0.20707 0.2698 0.0
H68 H 0.54963 0.29662 0.44356 0.0
H69 H 0.58184 0.05407 0.22889 0.0
O70 O 0.58801 0.1046 0.11886 0.0
H71 H 0.74572 0.13415 0.32122 0.0
H72 H 0.74063 0.16261 0.01302 0.0
H73 H 0.6856 0.25551 0.15253 0.0
H74 H 0.71392 0.17958 0.25948 0.0
H75 H 0.67254 0.12315 0.09739 0.0
O76 O 0.52333 0.10461 0.39352 0.0
H77 H 0.57698 0.2556 0.36013 0.0
H78 H 0.45749 0.12336 0.41508 0.0
H79 H 0.75406 0.29645 0.06928 0.0
H80 H 0.61235 0.00725 0.28972 0.0
H81 H 0.78189 0.24989 0.99863 0.0
H82 H 0.6948 0.04733 0.33662 0.0
O83 O 0.59486 0.19286 0.14788 0.0
H84 H 0.40155 0.00757 0.2225 0.0
H85 H 0.47269 0.17992 0.25308 0.0
H86 H 0.39546 0.13469 0.19127 0.0
H87 H 0.35937 0.04786 0.17569 0.0
H88 H 0.4789 0.0542 0.28341 0.0
H89 H 0.42902 0.16289 0.49962 0.0
H90 H 0.47522 0.25014 0.51421 0.0
O91 O 0.55959 0.20721 0.24277 0.0
C92 C 0.64587 0.21444 0.33569 0.0
C93 C 0.5291 0.2586 0.43748 0.0
C94 C 0.46144 0.18353 0.46901 0.0
N95 N 0.51862 0.18722 0.38224 0.0
C96 C 0.54431 0.23521 0.3901 0.0
C97 C 0.47775 0.16134 0.42113 0.0
C98 C 0.48737 0.2325 0.47715 0.0
C99 C 0.61793 0.07171 0.24839 0.0
N100 N 0.64612 0.11947 0.24032 0.0
C101 C 0.63494 0.04503 0.2831 0.0
C102 C 0.68117 0.06756 0.30953 0.0
C103 C 0.70975 0.11627 0.30096 0.0
C104 C 0.69151 0.14182 0.26609 0.0
C105 C 0.7289 0.1833 0.04364 0.0
C106 C 0.69782 0.23507 0.12256 0.0
C107 C 0.69035 0.16115 0.09142 0.0
N108 N 0.67542 0.18708 0.13032 0.0
C109 C 0.73649 0.25842 0.07528 0.0
C110 C 0.75205 0.23227 0.0356 0.0
C111 C 0.57557 0.21457 0.17689 0.0
C112 C 0.41683 0.04536 0.22919 0.0
C113 C 0.45727 0.14216 0.2464 0.0
C114 C 0.41348 0.11672 0.21148 0.0
C115 C 0.39323 0.068 0.20282 0.0
N116 N 0.4802 0.1197 0.27211 0.0
C117 C 0.46052 0.07192 0.26395 0.0
Co118 Co 0.38908 0.53975 0.48482 0.0
Co119 Co 0.46822 0.6188 0.36109 0.0
O120 O 0.4449 0.56294 0.42293 0.0
C121 C 0.46428 0.54654 0.58222 0.0
O122 O 0.48991 0.5903 0.55919 0.0
C123 C 0.46135 0.54356 0.2636 0.0
O124 O 0.41758 0.51794 0.28662 0.0
O125 O 0.40516 0.5929 0.31455 0.0
O126 O 0.35548 0.55758 0.40936 0.0
H127 H 0.46081 0.75214 0.23609 0.0
H128 H 0.42778 0.47689 0.45012 0.0
O129 O 0.42174 0.5213 0.56021 0.0
H130 H 0.26391 0.39344 0.35771 0.0
H131 H 0.26908 0.42689 0.66602 0.0
H132 H 0.3244 0.57492 0.52668 0.0
H133 H 0.29588 0.47066 0.41957 0.0
H134 H 0.33715 0.45543 0.58163 0.0
O135 O 0.4866 0.58609 0.28566 0.0
H136 H 0.43324 0.68363 0.31926 0.0
H137 H 0.55259 0.67065 0.26435 0.0
H138 H 0.25596 0.5475 0.60996 0.0
H139 H 0.39711 0.39956 0.38916 0.0
H140 H 0.22799 0.47306 0.68053 0.0
H141 H 0.31467 0.35737 0.34222 0.0
O142 O 0.41509 0.60283 0.53137 0.0
H143 H 0.60816 0.61037 0.45676 0.0
H144 H 0.53743 0.71194 0.42643 0.0
H145 H 0.6146 0.74372 0.48835 0.0
H146 H 0.65048 0.6928 0.5038 0.0
H147 H 0.53088 0.57988 0.39575 0.0
H148 H 0.58128 0.73879 0.18007 0.0
H149 H 0.53527 0.78003 0.1656 0.0
O150 O 0.45048 0.65247 0.43656 0.0
C151 C 0.36414 0.57358 0.3435 0.0
C152 C 0.48126 0.73457 0.24212 0.0
C153 C 0.54885 0.72703 0.21062 0.0
N154 N 0.49152 0.67349 0.29716 0.0
C155 C 0.46592 0.69588 0.28935 0.0
C156 C 0.53241 0.68845 0.25834 0.0
C157 C 0.52302 0.75018 0.20254 0.0
C158 C 0.3917 0.45852 0.4306 0.0
N159 N 0.3636 0.47819 0.43871 0.0
C160 C 0.3746 0.41483 0.39581 0.0
C161 C 0.32837 0.39122 0.36937 0.0
C162 C 0.29988 0.41146 0.37798 0.0
C163 C 0.31821 0.45525 0.41292 0.0
C164 C 0.28087 0.45932 0.63544 0.0
C165 C 0.31211 0.54223 0.55662 0.0
C166 C 0.31941 0.47567 0.58765 0.0
N167 N 0.33442 0.51656 0.54879 0.0
C168 C 0.27347 0.52698 0.60391 0.0
C169 C 0.25782 0.48523 0.64354 0.0
C170 C 0.43449 0.64385 0.50242 0.0
C171 C 0.59297 0.63296 0.45012 0.0
C172 C 0.55277 0.68953 0.43305 0.0
C173 C 0.59652 0.70776 0.46803 0.0
C174 C 0.61665 0.67918 0.47663 0.0
N175 N 0.52975 0.64415 0.40721 0.0
C176 C 0.54932 0.61596 0.4153 0.0
Co177 Co 0.85253 0.46666 0.52759 0.0
Co178 Co 0.85261 0.38762 0.65134 0.0
O179 O 0.88516 0.44348 0.58952 0.0
C180 C 0.921 0.45992 0.43025 0.0
O181 O 0.90285 0.41615 0.45327 0.0
C182 C 0.92092 0.46285 0.74889 0.0
O183 O 0.90277 0.48847 0.72587 0.0
O184 O 0.81541 0.41349 0.69783 0.0
O185 O 0.80105 0.44879 0.60299 0.0
H186 H 0.71183 0.25421 0.77619 0.0
H187 H 0.95407 0.52955 0.56241 0.0
O188 O 0.90369 0.48515 0.45225 0.0
H189 H 0.87352 0.61289 0.65476 0.0
H190 H 0.84542 0.57952 0.34638 0.0
H191 H 0.7527 0.43145 0.48561 0.0
H192 H 0.82832 0.53569 0.59282 0.0
H193 H 0.88494 0.551 0.43082 0.0
O194 O 0.90366 0.42033 0.72681 0.0
H195 H 0.75278 0.32275 0.69306 0.0
H196 H 0.88512 0.33578 0.74811 0.0
H197 H 0.7117 0.45886 0.40227 0.0
H198 H 1.00066 0.60687 0.62344 0.0
H199 H 0.75818 0.53332 0.33174 0.0
H200 H 0.96033 0.649 0.67036 0.0
O201 O 0.81551 0.40359 0.48101 0.0
H202 H 1.00105 0.39613 0.55579 0.0
H203 H 0.82873 0.29449 0.58598 0.0
H204 H 0.87418 0.26275 0.5241 0.0
H205 H 0.96098 0.3137 0.50872 0.0
H206 H 0.95421 0.42658 0.61676 0.0
H207 H 0.84565 0.26762 0.83234 0.0
H208 H 0.75838 0.22633 0.84672 0.0
O209 O 0.80124 0.35394 0.57582 0.0
C210 C 0.79369 0.43278 0.66885 0.0
C211 C 0.74985 0.2718 0.77019 0.0
C212 C 0.82497 0.27937 0.80178 0.0
N213 N 0.8212 0.33292 0.71523 0.0
C214 C 0.77321 0.3105 0.72299 0.0
C215 C 0.84712 0.31796 0.75408 0.0
C216 C 0.776 0.2562 0.8098 0.0
C217 C 0.93633 0.54791 0.58191 0.0
N218 N 0.88856 0.52822 0.57374 0.0
C219 C 0.96287 0.59158 0.61674 0.0
C220 C 0.94021 0.61516 0.64317 0.0
C221 C 0.8915 0.5949 0.6345 0.0
C222 C 0.86608 0.55113 0.59951 0.0
C223 C 0.82477 0.54708 0.37693 0.0
C224 C 0.77309 0.46415 0.45569 0.0
C225 C 0.84695 0.53074 0.42475 0.0
N226 N 0.82108 0.48984 0.46358 0.0
C227 C 0.74971 0.47939 0.40836 0.0
C228 C 0.77582 0.52115 0.36876 0.0
C229 C 0.79388 0.36256 0.50994 0.0
C230 C 0.96327 0.37353 0.5624 0.0
C231 C 0.86648 0.31692 0.57939 0.0
C232 C 0.89204 0.29871 0.54444 0.0
C233 C 0.94075 0.32731 0.53588 0.0
N234 N 0.88882 0.36229 0.60524 0.0
C235 C 0.93659 0.3905 0.59719 0.0
Co236 Co 0.38917 0.85067 0.69416 0.0
Co237 Co 0.46835 0.85084 0.81791 0.0
O238 O 0.445 0.88333 0.75604 0.0
C239 C 0.46438 0.91903 0.5967 0.0
O240 O 0.48998 0.90087 0.61975 0.0
C241 C 0.46138 0.91916 0.91538 0.0
O242 O 0.41761 0.90096 0.89235 0.0
O243 O 0.40529 0.81362 0.86443 0.0
O244 O 0.35558 0.79928 0.76967 0.0
H245 H 0.4611 0.71017 0.94293 0.0
H246 H 0.4279 0.95226 0.72876 0.0
O247 O 0.42185 0.90176 0.61872 0.0
H248 H 0.26404 0.87187 0.8212 0.0
H249 H 0.26918 0.84344 0.51288 0.0
H250 H 0.32447 0.7508 0.65241 0.0
H251 H 0.29598 0.82658 0.7594 0.0
H252 H 0.33725 0.88303 0.59727 0.0
O253 O 0.48667 0.90193 0.89333 0.0
H254 H 0.43346 0.75103 0.85975 0.0
H255 H 0.55272 0.88346 0.91466 0.0
H256 H 0.25603 0.70973 0.56914 0.0
H257 H 0.39725 0.99895 0.78965 0.0
H258 H 0.22807 0.75618 0.49847 0.0
H259 H 0.31481 0.95871 0.83661 0.0
O260 O 0.41516 0.81358 0.64768 0.0
H261 H 0.6082 0.9993 0.72222 0.0
H262 H 0.53762 0.827 0.75259 0.0
H263 H 0.61478 0.87246 0.69067 0.0
H264 H 0.65059 0.95926 0.6752 0.0
H265 H 0.53094 0.95244 0.78323 0.0
H266 H 0.58148 0.84408 0.99894 0.0
H267 H 0.53555 0.75681 0.01342 0.0
O268 O 0.45065 0.79943 0.74245 0.0
C269 C 0.36426 0.79191 0.83551 0.0
C270 C 0.48152 0.7482 0.9369 0.0
C271 C 0.54905 0.82337 0.9684 0.0
N272 N 0.49169 0.8195 0.88185 0.0
C273 C 0.46614 0.7715 0.88966 0.0
C274 C 0.53257 0.84547 0.92067 0.0
C275 C 0.52327 0.77439 0.97648 0.0
C276 C 0.39182 0.93456 0.74828 0.0
N277 N 0.36371 0.88678 0.74021 0.0
C278 C 0.37473 0.96116 0.78304 0.0
C279 C 0.3285 0.93854 0.80949 0.0
C280 C 0.30001 0.88981 0.80091 0.0
C281 C 0.31832 0.86434 0.76601 0.0
C282 C 0.28096 0.82282 0.5435 0.0
C283 C 0.31219 0.77118 0.62243 0.0
C284 C 0.3195 0.84503 0.59129 0.0
N285 N 0.33451 0.81917 0.6302 0.0
C286 C 0.27354 0.74776 0.57514 0.0
C287 C 0.2579 0.77384 0.53546 0.0
C288 C 0.4346 0.79199 0.67662 0.0
C289 C 0.59305 0.96152 0.72887 0.0
C290 C 0.55293 0.86475 0.74596 0.0
C291 C 0.59668 0.89032 0.71098 0.0
C292 C 0.61677 0.93902 0.70237 0.0
N293 N 0.52987 0.88707 0.77179 0.0
C294 C 0.5494 0.93483 0.76369 0.0
Co295 Co 0.62078 0.46668 0.98444 0.0
Co296 Co 0.54143 0.38725 0.86121 0.0
O297 O 0.56483 0.44322 0.92281 0.0
C298 C 0.54563 0.45967 0.08219 0.0
O299 O 0.52011 0.41586 0.05927 0.0
C300 C 0.54834 0.46234 0.76344 0.0
O301 O 0.59214 0.48792 0.78636 0.0
O302 O 0.60444 0.41297 0.8145 0.0
O303 O 0.65436 0.44894 0.90883 0.0
H304 H 0.54843 0.25345 0.73695 0.0
H305 H 0.58159 0.52913 0.94993 0.0
O306 O 0.58811 0.48502 0.05999 0.0
H307 H 0.74517 0.61299 0.85634 0.0
H308 H 0.74103 0.58021 0.16473 0.0
H309 H 0.68589 0.43198 0.026 0.0
H310 H 0.71371 0.53594 0.91858 0.0
H311 H 0.67265 0.55121 0.08087 0.0
O312 O 0.52303 0.41986 0.78564 0.0
H313 H 0.57624 0.32222 0.81967 0.0
H314 H 0.45693 0.33527 0.76479 0.0
H315 H 0.75464 0.45987 0.10875 0.0
H316 H 0.61175 0.60627 0.88861 0.0
H317 H 0.78252 0.53443 0.17902 0.0
H318 H 0.69405 0.64866 0.84106 0.0
O319 O 0.59512 0.40368 0.03115 0.0
H320 H 0.40175 0.39611 0.95704 0.0
H321 H 0.47225 0.2943 0.9271 0.0
H322 H 0.39521 0.26277 0.98936 0.0
H323 H 0.35945 0.31382 1.00463 0.0
H324 H 0.47889 0.42634 0.89569 0.0
H325 H 0.42799 0.26687 0.68097 0.0
H326 H 0.47386 0.22546 0.66671 0.0
O327 O 0.55922 0.35373 0.93682 0.0
C328 C 0.64556 0.43259 0.84317 0.0
C329 C 0.52804 0.2711 0.74289 0.0
C330 C 0.46048 0.27867 0.7114 0.0
N331 N 0.518 0.33241 0.79756 0.0
C332 C 0.54352 0.30993 0.78986 0.0
C333 C 0.47705 0.3174 0.75887 0.0
C334 C 0.48622 0.25544 0.70344 0.0
C335 C 0.61761 0.5476 0.93016 0.0
N336 N 0.64591 0.52814 0.93815 0.0
C337 C 0.63442 0.59117 0.89517 0.0
C338 C 0.68057 0.61489 0.86838 0.0
C339 C 0.70926 0.59488 0.87688 0.0
C340 C 0.69122 0.5512 0.91204 0.0
C341 C 0.72927 0.54774 0.13429 0.0
C342 C 0.69813 0.4647 0.05581 0.0
C343 C 0.69056 0.53112 0.0868 0.0
N344 N 0.67561 0.49018 0.0481 0.0
C345 C 0.73695 0.48023 0.10281 0.0
C346 C 0.75256 0.52204 0.14226 0.0
C347 C 0.57555 0.36256 1.00249 0.0
C348 C 0.41688 0.37347 0.95049 0.0
C349 C 0.45696 0.31675 0.93362 0.0
C350 C 0.41328 0.29867 0.9688 0.0
C351 C 0.39322 0.32732 0.97729 0.0
N352 N 0.47996 0.36206 0.90749 0.0
C353 C 0.46046 0.39032 0.91547 0.0
C354 C 0.02548 0.47811 0.86099 0.0
C355 C 0.04656 0.52569 0.88284 0.0
H356 H 0.96925 0.42093 0.80219 0.0
C357 C 0.02562 0.55231 0.86099 0.0
H358 H 0.04055 0.45651 0.87711 0.0
C359 C 0.98456 0.53182 0.81811 0.0
C360 C 0.96349 0.48422 0.79633 0.0
H361 H 0.04082 0.58898 0.87719 0.0
H362 H 0.96948 0.55338 0.80185 0.0
C363 C 0.98443 0.45762 0.81825 0.0
C364 C 0.5301 0.98275 0.98469 0.0
C365 C 0.48254 0.96172 0.96282 0.0
H366 H 0.58731 0.03893 0.04353 0.0
C367 C 0.45596 0.98272 0.98467 0.0
H368 H 0.55166 0.96764 0.96857 0.0
C369 C 0.47649 0.02378 0.02758 0.0
C370 C 0.52407 0.0448 0.04938 0.0
H371 H 0.4193 0.96757 0.96846 0.0
H372 H 0.45497 0.0389 0.04384 0.0
C373 C 0.55062 0.0238 0.02745 0.0
C374 C 0.45606 0.4746 0.19443 0.0
C375 C 0.48255 0.5222 0.21618 0.0
H376 H 0.45517 0.41745 0.13537 0.0
C377 C 0.53009 0.54883 0.19421 0.0
H378 H 0.41942 0.45303 0.21071 0.0
C379 C 0.55066 0.52835 0.15147 0.0
C380 C 0.52419 0.48077 0.12964 0.0
H381 H 0.55159 0.58553 0.21025 0.0
H382 H 0.58733 0.54997 0.13531 0.0
C383 C 0.47664 0.45413 0.15154 0.0
C384 C 0.98457 0.52866 0.36096 0.0
C385 C 0.96359 0.48111 0.38288 0.0
H386 H 0.04074 0.58588 0.30211 0.0
C387 C 0.98464 0.45457 0.36114 0.0
H388 H 0.96941 0.5502 0.377 0.0
C389 C 0.0257 0.47511 0.31828 0.0
C390 C 0.04668 0.52267 0.29642 0.0
H391 H 0.96952 0.41792 0.37739 0.0
H392 H 0.04087 0.4536 0.30212 0.0
C393 C 0.02564 0.5492 0.31824 0.0
C394 C 0.47981 0.02371 0.48474 0.0
C395 C 0.52737 0.04471 0.46286 0.0
H396 H 0.42258 0.96752 0.54353 0.0
C397 C 0.55391 0.02368 0.48464 0.0
H398 H 0.45827 0.03886 0.46867 0.0
C399 C 0.53336 0.9826 0.52749 0.0
C400 C 0.48579 0.96161 0.5493 0.0
H401 H 0.59057 0.0388 0.46843 0.0
H402 H 0.55487 0.96745 0.54369 0.0
C403 C 0.45926 0.98264 0.52744 0.0
C404 C 0.55379 0.53131 0.69412 0.0
C405 C 0.52718 0.48375 0.71603 0.0
H406 H 0.55483 0.58851 0.63499 0.0
C407 C 0.4796 0.45725 0.69426 0.0
H408 H 0.59048 0.5528 0.71024 0.0
C409 C 0.45908 0.4778 0.65156 0.0
C410 C 0.48567 0.52534 0.6296 0.0
H411 H 0.45801 0.42058 0.71043 0.0
H412 H 0.42238 0.45628 0.63557 0.0
C413 C 0.53327 0.55186 0.65128 0.0
C414 C 0.29077 0.57007 0.17948 0.0
C415 C 0.25272 0.5711 0.21369 0.0
H416 H 0.35617 0.57069 0.19379 0.0
C417 C 0.25069 0.57111 0.291 0.0
H418 H 0.29338 0.57016 0.12004 0.0
C419 C 0.28617 0.5705 0.33323 0.0
C420 C 0.32498 0.571 0.29902 0.0
H421 H 0.22166 0.57164 0.31891 0.0
H422 H 0.28384 0.57095 0.39268 0.0
C423 C 0.32681 0.57058 0.22171 0.0
C424 C 0.68317 0.24884 0.45747 0.0
C425 C 0.68507 0.25098 0.38016 0.0
H426 H 0.71656 0.28196 0.55912 0.0
C427 C 0.72398 0.28919 0.34592 0.0
H428 H 0.65373 0.21968 0.4854 0.0
C429 C 0.75948 0.32528 0.38813 0.0
C430 C 0.75737 0.32335 0.46545 0.0
H431 H 0.72637 0.29188 0.28648 0.0
H432 H 0.78859 0.35477 0.3602 0.0
C433 C 0.71923 0.28438 0.49968 0.0
C434 C 0.43801 0.71727 0.66641 0.0
C435 C 0.43724 0.75544 0.63216 0.0
H436 H 0.43709 0.65171 0.65215 0.0
C437 C 0.43742 0.75754 0.55484 0.0
H438 H 0.43776 0.71461 0.72585 0.0
C439 C 0.43794 0.722 0.51265 0.0
C440 C 0.43717 0.68306 0.5469 0.0
H441 H 0.43709 0.78667 0.5269 0.0
H442 H 0.43764 0.72438 0.4532 0.0
C443 C 0.43742 0.68117 0.62421 0.0
C444 C 0.68258 0.43502 0.72129 0.0
C445 C 0.6847 0.4352 0.79861 0.0
H446 H 0.71586 0.43507 0.61962 0.0
C447 C 0.72386 0.43639 0.83281 0.0
H448 H 0.65295 0.43435 0.69338 0.0
C449 C 0.7594 0.4359 0.79059 0.0
C450 C 0.75708 0.43533 0.71329 0.0
H451 H 0.72643 0.43643 0.89225 0.0
H452 H 0.78871 0.43592 0.81851 0.0
C453 C 0.71868 0.43564 0.67906 0.0
C454 C 0.32698 0.75759 0.95733 0.0
C455 C 0.32511 0.75535 0.88002 0.0
H456 H 0.29357 0.7246 0.05902 0.0
C457 C 0.28626 0.71705 0.84583 0.0
H458 H 0.35638 0.78682 0.98522 0.0
C459 C 0.25077 0.68099 0.8881 0.0
C460 C 0.25283 0.68304 0.96541 0.0
H461 H 0.28389 0.71428 0.78639 0.0
H462 H 0.22169 0.65144 0.86021 0.0
C463 C 0.29093 0.72209 0.99958 0.0
C464 C 0.57184 0.2843 0.01289 0.0
C465 C 0.57299 0.32344 0.04708 0.0
H466 H 0.5724 0.21949 0.02722 0.0
C467 C 0.57317 0.32559 0.12439 0.0
H468 H 0.5718 0.28171 0.95345 0.0
C469 C 0.5726 0.28952 0.16664 0.0
C470 C 0.57296 0.25113 0.13243 0.0
H471 H 0.5738 0.35521 0.15229 0.0
H472 H 0.57317 0.29236 0.22608 0.0
C473 C 0.57239 0.24879 0.05513 0.0
loop_
_geom_bond_atom_site_label_1
_geom_bond_atom_site_label_2
_geom_bond_distance
_geom_bond_site_symmetry_2
_ccdc_geom_bond_type
Co0 O2 2.143 . S
Co0 O8 2.074 . S
Co0 O11 2.093 1_554 S
Co0 O24 2.097 1_554 S
Co0 N41 2.151 . S
Co0 N49 2.214 1_554 S
Co1 O2 2.160 . S
Co1 O7 2.058 . S
Co1 O17 2.057 . S
Co1 O32 2.037 . S
Co1 N36 2.145 . S
Co1 N57 2.257 . S
O2 Co0 2.143 . S
O2 Co1 2.160 . S
C3 O4 1.278 . S
C3 O11 1.224 . S
O4 C3 1.278 . S
C5 O6 1.245 . S
C5 O17 1.232 . S
O6 C5 1.245 . S
O7 Co1 2.058 . S
O7 C33 1.269 . S
O8 Co0 2.074 . S
O8 C33 1.257 . S
H9 C34 0.930 . S
H10 C40 0.930 . S
O11 Co0 2.093 1_556 S
O11 C3 1.224 . S
H12 C44 0.929 . S
H13 C46 0.930 . S
H14 C47 0.930 . S
H15 C45 0.929 . S
H16 C48 0.928 . S
O17 Co1 2.057 . S
O17 C5 1.232 . S
H18 C37 0.929 . S
H19 C38 0.929 . S
H20 C50 0.931 . S
H21 C42 0.929 . S
H22 C51 0.930 . S
H23 C43 0.931 . S
O24 Co0 2.097 1_556 S
O24 C52 1.214 1_556 S
H25 C53 0.929 . S
H26 C54 0.929 . S
H27 C55 0.930 . S
H28 C56 0.929 . S
H29 C58 0.930 . S
H30 C35 0.930 . S
H31 C39 0.930 . S
O32 Co1 2.037 . S
O32 C52 1.234 . S
C33 O7 1.269 . S
C33 O8 1.257 . S
C34 H9 0.930 . S
C34 C37 1.388 . S
C34 C39 1.418 . S
C35 H30 0.930 . S
C35 C38 1.404 . S
C35 C39 1.353 . S
N36 Co1 2.145 . S
N36 C37 1.397 . S
N36 C38 1.334 . S
C37 H18 0.929 . S
C37 C34 1.388 . S
C37 N36 1.397 . S
C38 H19 0.929 . S
C38 C35 1.404 . S
C38 N36 1.334 . S
C39 H31 0.930 . S
C39 C34 1.418 . S
C39 C35 1.353 . S
C40 H10 0.930 . S
C40 N41 1.330 . S
C40 C42 1.446 . S
N41 Co0 2.151 . S
N41 C40 1.330 . S
N41 C45 1.418 . S
C42 H21 0.929 . S
C42 C40 1.446 . S
C42 C43 1.332 . S
C43 H23 0.931 . S
C43 C42 1.332 . S
C43 C44 1.267 . S
C44 H12 0.929 . S
C44 C43 1.267 . S
C44 C45 1.251 . S
C45 H15 0.929 . S
C45 N41 1.418 . S
C45 C44 1.251 . S
C46 H13 0.930 . S
C46 C48 1.406 . S
C46 C51 1.261 . S
C47 H14 0.930 . S
C47 N49 1.325 . S
C47 C50 1.357 . S
C48 H16 0.928 . S
C48 C46 1.406 . S
C48 N49 1.261 . S
N49 Co0 2.214 1_556 S
N49 C47 1.325 . S
N49 C48 1.261 . S
C50 H20 0.931 . S
C50 C47 1.357 . S
C50 C51 1.312 . S
C51 H22 0.930 . S
C51 C46 1.261 . S
C51 C50 1.312 . S
C52 O24 1.214 1_554 S
C52 O32 1.234 . S
C53 H25 0.929 . S
C53 C56 1.391 . S
C53 C58 1.391 . S
C54 H26 0.929 . S
C54 C55 1.390 . S
C54 N57 1.391 . S
C55 H27 0.930 . S
C55 C54 1.390 . S
C55 C56 1.392 . S
C56 H28 0.929 . S
C56 C53 1.391 . S
C56 C55 1.392 . S
N57 Co1 2.257 . S
N57 C54 1.391 . S
N57 C58 1.388 . S
C58 H29 0.930 . S
C58 C53 1.391 . S
C58 N57 1.388 . S
Co59 O61 2.143 . S
Co59 O67 2.074 . S
Co59 O70 2.093 . S
Co59 O83 2.097 . S
Co59 N100 2.151 . S
Co59 N108 2.214 . S
Co60 O61 2.160 . S
Co60 O66 2.058 . S
Co60 O76 2.057 . S
Co60 O91 2.037 . S
Co60 N95 2.145 . S
Co60 N116 2.257 . S
O61 Co59 2.143 . S
O61 Co60 2.160 . S
C62 O63 1.278 . S
C62 O70 1.224 . S
O63 C62 1.278 . S
C64 O65 1.245 . S
C64 O76 1.232 . S
O65 C64 1.245 . S
O66 Co60 2.058 . S
O66 C92 1.269 . S
O67 Co59 2.074 . S
O67 C92 1.257 . S
H68 C93 0.930 . S
H69 C99 0.930 . S
O70 Co59 2.093 . S
O70 C62 1.224 . S
H71 C103 0.929 . S
H72 C105 0.930 1_556 S
H73 C106 0.930 . S
H74 C104 0.929 . S
H75 C107 0.928 . S
O76 Co60 2.057 . S
O76 C64 1.232 . S
H77 C96 0.929 . S
H78 C97 0.929 . S
H79 C109 0.931 . S
H80 C101 0.929 . S
H81 C110 0.930 1_556 S
H82 C102 0.931 . S
O83 Co59 2.097 . S
O83 C111 1.214 . S
H84 C112 0.929 . S
H85 C113 0.929 . S
H86 C114 0.930 . S
H87 C115 0.929 . S
H88 C117 0.930 . S
H89 C94 0.930 . S
H90 C98 0.930 . S
O91 Co60 2.037 . S
O91 C111 1.234 . S
C92 O66 1.269 . S
C92 O67 1.257 . S
C93 H68 0.930 . S
C93 C96 1.388 . S
C93 C98 1.418 . S
C94 H89 0.930 . S
C94 C97 1.404 . S
C94 C98 1.353 . S
N95 Co60 2.145 . S
N95 C96 1.397 . S
N95 C97 1.334 . S
C96 H77 0.929 . S
C96 C93 1.388 . S
C96 N95 1.397 . S
C97 H78 0.929 . S
C97 C94 1.404 . S
C97 N95 1.334 . S
C98 H90 0.930 . S
C98 C93 1.418 . S
C98 C94 1.353 . S
C99 H69 0.930 . S
C99 N100 1.330 . S
C99 C101 1.446 . S
N100 Co59 2.151 . S
N100 C99 1.330 . S
N100 C104 1.418 . S
C101 H80 0.929 . S
C101 C99 1.446 . S
C101 C102 1.332 . S
C102 H82 0.931 . S
C102 C101 1.332 . S
C102 C103 1.267 . S
C103 H71 0.929 . S
C103 C102 1.267 . S
C103 C104 1.251 . S
C104 H74 0.929 . S
C104 N100 1.418 . S
C104 C103 1.251 . S
C105 H72 0.930 1_554 S
C105 C107 1.406 . S
C105 C110 1.261 . S
C106 H73 0.930 . S
C106 N108 1.325 . S
C106 C109 1.357 . S
C107 H75 0.928 . S
C107 C105 1.406 . S
C107 N108 1.261 . S
N108 Co59 2.214 . S
N108 C106 1.325 . S
N108 C107 1.261 . S
C109 H79 0.931 . S
C109 C106 1.357 . S
C109 C110 1.312 . S
C110 H81 0.930 1_554 S
C110 C105 1.261 . S
C110 C109 1.312 . S
C111 O83 1.214 . S
C111 O91 1.234 . S
C112 H84 0.929 . S
C112 C115 1.391 . S
C112 C117 1.391 . S
C113 H85 0.929 . S
C113 C114 1.390 . S
C113 N116 1.391 . S
C114 H86 0.930 . S
C114 C113 1.390 . S
C114 C115 1.392 . S
C115 H87 0.929 . S
C115 C112 1.391 . S
C115 C114 1.392 . S
N116 Co60 2.257 . S
N116 C113 1.391 . S
N116 C117 1.388 . S
C117 H88 0.930 . S
C117 C112 1.391 . S
C117 N116 1.388 . S
Co118 O120 2.143 . S
Co118 O126 2.074 . S
Co118 O129 2.093 . S
Co118 O142 2.097 . S
Co118 N159 2.151 . S
Co118 N167 2.214 . S
Co119 O120 2.160 . S
Co119 O125 2.058 . S
Co119 O135 2.057 . S
Co119 O150 2.037 . S
Co119 N154 2.145 . S
Co119 N175 2.257 . S
O120 Co118 2.143 . S
O120 Co119 2.160 . S
C121 O122 1.278 . S
C121 O129 1.224 . S
O122 C121 1.278 . S
C123 O124 1.245 . S
C123 O135 1.232 . S
O124 C123 1.245 . S
O125 Co119 2.058 . S
O125 C151 1.269 . S
O126 Co118 2.074 . S
O126 C151 1.257 . S
H127 C152 0.930 . S
H128 C158 0.930 . S
O129 Co118 2.093 . S
O129 C121 1.224 . S
H130 C162 0.929 . S
H131 C164 0.930 . S
H132 C165 0.930 . S
H133 C163 0.929 . S
H134 C166 0.928 . S
O135 Co119 2.057 . S
O135 C123 1.232 . S
H136 C155 0.929 . S
H137 C156 0.929 . S
H138 C168 0.931 . S
H139 C160 0.929 . S
H140 C169 0.930 . S
H141 C161 0.931 . S
O142 Co118 2.097 . S
O142 C170 1.214 . S
H143 C171 0.929 . S
H144 C172 0.929 . S
H145 C173 0.930 . S
H146 C174 0.929 . S
H147 C176 0.930 . S
H148 C153 0.930 . S
H149 C157 0.930 . S
O150 Co119 2.037 . S
O150 C170 1.234 . S
C151 O125 1.269 . S
C151 O126 1.257 . S
C152 H127 0.930 . S
C152 C155 1.388 . S
C152 C157 1.418 . S
C153 H148 0.930 . S
C153 C156 1.404 . S
C153 C157 1.353 . S
N154 Co119 2.145 . S
N154 C155 1.397 . S
N154 C156 1.334 . S
C155 H136 0.929 . S
C155 C152 1.388 . S
C155 N154 1.397 . S
C156 H137 0.929 . S
C156 C153 1.404 . S
C156 N154 1.334 . S
C157 H149 0.930 . S
C157 C152 1.418 . S
C157 C153 1.353 . S
C158 H128 0.930 . S
C158 N159 1.330 . S
C158 C160 1.446 . S
N159 Co118 2.151 . S
N159 C158 1.330 . S
N159 C163 1.418 . S
C160 H139 0.929 . S
C160 C158 1.446 . S
C160 C161 1.332 . S
C161 H141 0.931 . S
C161 C160 1.332 . S
C161 C162 1.267 . S
C162 H130 0.929 . S
C162 C161 1.267 . S
C162 C163 1.251 . S
C163 H133 0.929 . S
C163 N159 1.418 . S
C163 C162 1.251 . S
C164 H131 0.930 . S
C164 C166 1.406 . S
C164 C169 1.261 . S
C165 H132 0.930 . S
C165 N167 1.325 . S
C165 C168 1.357 . S
C166 H134 0.928 . S
C166 C164 1.406 . S
C166 N167 1.261 . S
N167 Co118 2.214 . S
N167 C165 1.325 . S
N167 C166 1.261 . S
C168 H138 0.931 . S
C168 C165 1.357 . S
C168 C169 1.312 . S
C169 H140 0.930 . S
C169 C164 1.261 . S
C169 C168 1.312 . S
C170 O142 1.214 . S
C170 O150 1.234 . S
C171 H143 0.929 . S
C171 C174 1.391 . S
C171 C176 1.391 . S
C172 H144 0.929 . S
C172 C173 1.390 . S
C172 N175 1.391 . S
C173 H145 0.930 . S
C173 C172 1.390 . S
C173 C174 1.392 . S
C174 H146 0.929 . S
C174 C171 1.391 . S
C174 C173 1.392 . S
N175 Co119 2.257 . S
N175 C172 1.391 . S
N175 C176 1.388 . S
C176 H147 0.930 . S
C176 C171 1.391 . S
C176 N175 1.388 . S
Co177 O179 2.143 . S
Co177 O185 2.074 . S
Co177 O188 2.093 . S
Co177 O201 2.097 . S
Co177 N218 2.151 . S
Co177 N226 2.214 . S
Co178 O179 2.160 . S
Co178 O184 2.058 . S
Co178 O194 2.057 . S
Co178 O209 2.037 . S
Co178 N213 2.145 . S
Co178 N234 2.257 . S
O179 Co177 2.143 . S
O179 Co178 2.160 . S
C180 O181 1.278 . S
C180 O188 1.224 . S
O181 C180 1.278 . S
C182 O183 1.245 . S
C182 O194 1.232 . S
O183 C182 1.245 . S
O184 Co178 2.058 . S
O184 C210 1.269 . S
O185 Co177 2.074 . S
O185 C210 1.257 . S
H186 C211 0.930 . S
H187 C217 0.930 . S
O188 Co177 2.093 . S
O188 C180 1.224 . S
H189 C221 0.929 . S
H190 C223 0.930 . S
H191 C224 0.930 . S
H192 C222 0.929 . S
H193 C225 0.928 . S
O194 Co178 2.057 . S
O194 C182 1.232 . S
H195 C214 0.929 . S
H196 C215 0.929 . S
H197 C227 0.931 . S
H198 C219 0.929 . S
H199 C228 0.930 . S
H200 C220 0.931 . S
O201 Co177 2.097 . S
O201 C229 1.214 . S
H202 C230 0.929 . S
H203 C231 0.929 . S
H204 C232 0.930 . S
H205 C233 0.929 . S
H206 C235 0.930 . S
H207 C212 0.930 . S
H208 C216 0.930 . S
O209 Co178 2.037 . S
O209 C229 1.234 . S
C210 O184 1.269 . S
C210 O185 1.257 . S
C211 H186 0.930 . S
C211 C214 1.388 . S
C211 C216 1.418 . S
C212 H207 0.930 . S
C212 C215 1.404 . S
C212 C216 1.353 . S
N213 Co178 2.145 . S
N213 C214 1.397 . S
N213 C215 1.334 . S
C214 H195 0.929 . S
C214 C211 1.388 . S
C214 N213 1.397 . S
C215 H196 0.929 . S
C215 C212 1.404 . S
C215 N213 1.334 . S
C216 H208 0.930 . S
C216 C211 1.418 . S
C216 C212 1.353 . S
C217 H187 0.930 . S
C217 N218 1.330 . S
C217 C219 1.446 . S
N218 Co177 2.151 . S
N218 C217 1.330 . S
N218 C222 1.418 . S
C219 H198 0.929 . S
C219 C217 1.446 . S
C219 C220 1.332 . S
C220 H200 0.931 . S
C220 C219 1.332 . S
C220 C221 1.267 . S
C221 H189 0.929 . S
C221 C220 1.267 . S
C221 C222 1.251 . S
C222 H192 0.929 . S
C222 N218 1.418 . S
C222 C221 1.251 . S
C223 H190 0.930 . S
C223 C225 1.406 . S
C223 C228 1.261 . S
C224 H191 0.930 . S
C224 N226 1.325 . S
C224 C227 1.357 . S
C225 H193 0.928 . S
C225 C223 1.406 . S
C225 N226 1.261 . S
N226 Co177 2.214 . S
N226 C224 1.325 . S
N226 C225 1.261 . S
C227 H197 0.931 . S
C227 C224 1.357 . S
C227 C228 1.312 . S
C228 H199 0.930 . S
C228 C223 1.261 . S
C228 C227 1.312 . S
C229 O201 1.214 . S
C229 O209 1.234 . S
C230 H202 0.929 . S
C230 C233 1.391 . S
C230 C235 1.391 . S
C231 H203 0.929 . S
C231 C232 1.390 . S
C231 N234 1.391 . S
C232 H204 0.930 . S
C232 C231 1.390 . S
C232 C233 1.392 . S
C233 H205 0.929 . S
C233 C230 1.391 . S
C233 C232 1.392 . S
N234 Co178 2.257 . S
N234 C231 1.391 . S
N234 C235 1.388 . S
C235 H206 0.930 . S
C235 C230 1.391 . S
C235 N234 1.388 . S
Co236 O238 2.143 . S
Co236 O244 2.074 . S
Co236 O247 2.093 . S
Co236 O260 2.097 . S
Co236 N277 2.151 . S
Co236 N285 2.214 . S
Co237 O238 2.160 . S
Co237 O243 2.058 . S
Co237 O253 2.057 . S
Co237 O268 2.037 . S
Co237 N272 2.145 . S
Co237 N293 2.257 . S
O238 Co236 2.143 . S
O238 Co237 2.160 . S
C239 O240 1.278 . S
C239 O247 1.224 . S
O240 C239 1.278 . S
C241 O242 1.245 . S
C241 O253 1.232 . S
O242 C241 1.245 . S
O243 Co237 2.058 . S
O243 C269 1.269 . S
O244 Co236 2.074 . S
O244 C269 1.257 . S
H245 C270 0.930 . S
H246 C276 0.930 . S
O247 Co236 2.093 . S
O247 C239 1.224 . S
H248 C280 0.929 . S
H249 C282 0.930 . S
H250 C283 0.930 . S
H251 C281 0.929 . S
H252 C284 0.928 . S
O253 Co237 2.057 . S
O253 C241 1.232 . S
H254 C273 0.929 . S
H255 C274 0.929 . S
H256 C286 0.931 . S
H257 C278 0.929 . S
H258 C287 0.930 . S
H259 C279 0.931 . S
O260 Co236 2.097 . S
O260 C288 1.214 . S
H261 C289 0.929 . S
H262 C290 0.929 . S
H263 C291 0.930 . S
H264 C292 0.929 . S
H265 C294 0.930 . S
H266 C271 0.930 1_554 S
H267 C275 0.930 1_554 S
O268 Co237 2.037 . S
O268 C288 1.234 . S
C269 O243 1.269 . S
C269 O244 1.257 . S
C270 H245 0.930 . S
C270 C273 1.388 . S
C270 C275 1.418 . S
C271 H266 0.930 1_556 S
C271 C274 1.404 . S
C271 C275 1.353 . S
N272 Co237 2.145 . S
N272 C273 1.397 . S
N272 C274 1.334 . S
C273 H254 0.929 . S
C273 C270 1.388 . S
C273 N272 1.397 . S
C274 H255 0.929 . S
C274 C271 1.404 . S
C274 N272 1.334 . S
C275 H267 0.930 1_556 S
C275 C270 1.418 . S
C275 C271 1.353 . S
C276 H246 0.930 . S
C276 N277 1.330 . S
C276 C278 1.446 . S
N277 Co236 2.151 . S
N277 C276 1.330 . S
N277 C281 1.418 . S
C278 H257 0.929 . S
C278 C276 1.446 . S
C278 C279 1.332 . S
C279 H259 0.931 . S
C279 C278 1.332 . S
C279 C280 1.267 . S
C280 H248 0.929 . S
C280 C279 1.267 . S
C280 C281 1.251 . S
C281 H251 0.929 . S
C281 N277 1.418 . S
C281 C280 1.251 . S
C282 H249 0.930 . S
C282 C284 1.406 . S
C282 C287 1.261 . S
C283 H250 0.930 . S
C283 N285 1.325 . S
C283 C286 1.357 . S
C284 H252 0.928 . S
C284 C282 1.406 . S
C284 N285 1.261 . S
N285 Co236 2.214 . S
N285 C283 1.325 . S
N285 C284 1.261 . S
C286 H256 0.931 . S
C286 C283 1.357 . S
C286 C287 1.312 . S
C287 H258 0.930 . S
C287 C282 1.261 . S
C287 C286 1.312 . S
C288 O260 1.214 . S
C288 O268 1.234 . S
C289 H261 0.929 . S
C289 C292 1.391 . S
C289 C294 1.391 . S
C290 H262 0.929 . S
C290 C291 1.390 . S
C290 N293 1.391 . S
C291 H263 0.930 . S
C291 C290 1.390 . S
C291 C292 1.392 . S
C292 H264 0.929 . S
C292 C289 1.391 . S
C292 C291 1.392 . S
N293 Co237 2.257 . S
N293 C290 1.391 . S
N293 C294 1.388 . S
C294 H265 0.930 . S
C294 C289 1.391 . S
C294 N293 1.388 . S
Co295 O297 2.143 . S
Co295 O303 2.074 . S
Co295 O306 2.093 1_556 S
Co295 O319 2.097 1_556 S
Co295 N336 2.151 . S
Co295 N344 2.214 1_556 S
Co296 O297 2.160 . S
Co296 O302 2.058 . S
Co296 O312 2.057 . S
Co296 O327 2.037 . S
Co296 N331 2.145 . S
Co296 N352 2.257 . S
O297 Co295 2.143 . S
O297 Co296 2.160 . S
C298 O299 1.278 . S
C298 O306 1.224 . S
O299 C298 1.278 . S
C300 O301 1.245 . S
C300 O312 1.232 . S
O301 C300 1.245 . S
O302 Co296 2.058 . S
O302 C328 1.269 . S
O303 Co295 2.074 . S
O303 C328 1.257 . S
H304 C329 0.930 . S
H305 C335 0.930 . S
O306 Co295 2.093 1_554 S
O306 C298 1.224 . S
H307 C339 0.929 . S
H308 C341 0.930 . S
H309 C342 0.930 . S
H310 C340 0.929 . S
H311 C343 0.928 . S
O312 Co296 2.057 . S
O312 C300 1.232 . S
H313 C332 0.929 . S
H314 C333 0.929 . S
H315 C345 0.931 . S
H316 C337 0.929 . S
H317 C346 0.930 . S
H318 C338 0.931 . S
O319 Co295 2.097 1_554 S
O319 C347 1.214 1_554 S
H320 C348 0.929 . S
H321 C349 0.929 . S
H322 C350 0.930 . S
H323 C351 0.929 . S
H324 C353 0.930 . S
H325 C330 0.930 . S
H326 C334 0.930 . S
O327 Co296 2.037 . S
O327 C347 1.234 . S
C328 O302 1.269 . S
C328 O303 1.257 . S
C329 H304 0.930 . S
C329 C332 1.388 . S
C329 C334 1.418 . S
C330 H325 0.930 . S
C330 C333 1.404 . S
C330 C334 1.353 . S
N331 Co296 2.145 . S
N331 C332 1.397 . S
N331 C333 1.334 . S
C332 H313 0.929 . S
C332 C329 1.388 . S
C332 N331 1.397 . S
C333 H314 0.929 . S
C333 C330 1.404 . S
C333 N331 1.334 . S
C334 H326 0.930 . S
C334 C329 1.418 . S
C334 C330 1.353 . S
C335 H305 0.930 . S
C335 N336 1.330 . S
C335 C337 1.446 . S
N336 Co295 2.151 . S
N336 C335 1.330 . S
N336 C340 1.418 . S
C337 H316 0.929 . S
C337 C335 1.446 . S
C337 C338 1.332 . S
C338 H318 0.931 . S
C338 C337 1.332 . S
C338 C339 1.267 . S
C339 H307 0.929 . S
C339 C338 1.267 . S
C339 C340 1.251 . S
C340 H310 0.929 . S
C340 N336 1.418 . S
C340 C339 1.251 . S
C341 H308 0.930 . S
C341 C343 1.406 . S
C341 C346 1.261 . S
C342 H309 0.930 . S
C342 N344 1.325 . S
C342 C345 1.357 . S
C343 H311 0.928 . S
C343 C341 1.406 . S
C343 N344 1.261 . S
N344 Co295 2.214 1_554 S
N344 C342 1.325 . S
N344 C343 1.261 . S
C345 H315 0.931 . S
C345 C342 1.357 . S
C345 C346 1.312 . S
C346 H317 0.930 . S
C346 C341 1.261 . S
C346 C345 1.312 . S
C347 O319 1.214 1_556 S
C347 O327 1.234 . S
C348 H320 0.929 . S
C348 C351 1.391 . S
C348 C353 1.391 . S
C349 H321 0.929 . S
C349 C350 1.390 . S
C349 N352 1.391 . S
C350 H322 0.930 . S
C350 C349 1.390 . S
C350 C351 1.392 . S
C351 H323 0.929 . S
C351 C348 1.391 . S
C351 C350 1.392 . S
N352 Co296 2.257 . S
N352 C349 1.391 . S
N352 C353 1.388 . S
C353 H324 0.930 . S
C353 C348 1.391 . S
C353 N352 1.388 . S
C354 C355 1.387 . S
C354 H358 0.950 . S
C354 C363 1.390 1_455 S
C355 C354 1.387 . S
C355 C357 1.387 . S
H356 C363 0.950 . S
C357 C355 1.387 . S
C357 C359 1.390 1_455 S
C357 H361 0.950 . S
H358 C354 0.950 . S
C359 C357 1.390 1_655 S
C359 C360 1.387 . S
C359 H362 0.950 . S
C360 C359 1.387 . S
C360 C363 1.387 . S
H361 C357 0.950 . S
H362 C359 0.950 . S
C363 C354 1.390 1_655 S
C363 H356 0.950 . S
C363 C360 1.387 . S
C364 C365 1.387 . S
C364 H368 0.950 . S
C364 C373 1.390 1_566 S
C365 C364 1.387 . S
C365 C367 1.387 . S
H366 C373 0.950 . S
C367 C365 1.387 . S
C367 C369 1.390 1_566 S
C367 H371 0.950 . S
H368 C364 0.950 . S
C369 C367 1.390 1_544 S
C369 C370 1.387 . S
C369 H372 0.950 . S
C370 C369 1.387 . S
C370 C373 1.387 . S
H371 C367 0.950 . S
H372 C369 0.950 . S
C373 C364 1.390 1_544 S
C373 H366 0.950 . S
C373 C370 1.387 . S
C374 C375 1.387 . S
C374 H378 0.950 . S
C374 C383 1.390 . S
C375 C374 1.387 . S
C375 C377 1.387 . S
H376 C383 0.950 . S
C377 C375 1.387 . S
C377 C379 1.390 . S
C377 H381 0.950 . S
H378 C374 0.950 . S
C379 C377 1.390 . S
C379 C380 1.387 . S
C379 H382 0.950 . S
C380 C379 1.387 . S
C380 C383 1.387 . S
H381 C377 0.950 . S
H382 C379 0.950 . S
C383 C374 1.390 . S
C383 H376 0.950 . S
C383 C380 1.387 . S
C384 C385 1.387 . S
C384 H388 0.950 . S
C384 C393 1.390 1_655 S
C385 C384 1.387 . S
C385 C387 1.387 . S
H386 C393 0.950 . S
C387 C385 1.387 . S
C387 C389 1.390 1_655 S
C387 H391 0.950 . S
H388 C384 0.950 . S
C389 C387 1.390 1_455 S
C389 C390 1.387 . S
C389 H392 0.950 . S
C390 C389 1.387 . S
C390 C393 1.387 . S
H391 C387 0.950 . S
H392 C389 0.950 . S
C393 C384 1.390 1_455 S
C393 H386 0.950 . S
C393 C390 1.387 . S
C394 C395 1.387 . S
C394 H398 0.950 . S
C394 C403 1.390 1_545 S
C395 C394 1.387 . S
C395 C397 1.387 . S
H396 C403 0.950 . S
C397 C395 1.387 . S
C397 C399 1.390 1_545 S
C397 H401 0.950 . S
H398 C394 0.950 . S
C399 C397 1.390 1_565 S
C399 C400 1.387 . S
C399 H402 0.950 . S
C400 C399 1.387 . S
C400 C403 1.387 . S
H401 C397 0.950 . S
H402 C399 0.950 . S
C403 C394 1.390 1_565 S
C403 H396 0.950 . S
C403 C400 1.387 . S
C404 C405 1.387 . S
C404 H408 0.950 . S
C404 C413 1.390 . S
C405 C404 1.387 . S
C405 C407 1.387 . S
H406 C413 0.950 . S
C407 C405 1.387 . S
C407 C409 1.390 . S
C407 H411 0.950 . S
H408 C404 0.950 . S
C409 C407 1.390 . S
C409 C410 1.387 . S
C409 H412 0.950 . S
C410 C409 1.387 . S
C410 C413 1.387 . S
H411 C407 0.950 . S
H412 C409 0.950 . S
C413 C404 1.390 . S
C413 H406 0.950 . S
C413 C410 1.387 . S
C414 C415 1.387 . S
C414 H418 0.950 . S
C414 C423 1.390 . S
C415 C414 1.387 . S
C415 C417 1.387 . S
H416 C423 0.950 . S
C417 C415 1.387 . S
C417 C419 1.390 . S
C417 H421 0.950 . S
H418 C414 0.950 . S
C419 C417 1.390 . S
C419 C420 1.387 . S
C419 H422 0.950 . S
C420 C419 1.387 . S
C420 C423 1.387 . S
H421 C417 0.950 . S
H422 C419 0.950 . S
C423 C414 1.390 . S
C423 H416 0.950 . S
C423 C420 1.387 . S
C424 C425 1.387 . S
C424 H428 0.950 . S
C424 C433 1.390 . S
C425 C424 1.387 . S
C425 C427 1.387 . S
H426 C433 0.950 . S
C427 C425 1.387 . S
C427 C429 1.390 . S
C427 H431 0.950 . S
H428 C424 0.950 . S
C429 C427 1.390 . S
C429 C430 1.387 . S
C429 H432 0.950 . S
C430 C429 1.387 . S
C430 C433 1.387 . S
H431 C427 0.950 . S
H432 C429 0.950 . S
C433 C424 1.390 . S
C433 H426 0.950 . S
C433 C430 1.387 . S
C434 C435 1.387 . S
C434 H438 0.950 . S
C434 C443 1.390 . S
C435 C434 1.387 . S
C435 C437 1.387 . S
H436 C443 0.950 . S
C437 C435 1.387 . S
C437 C439 1.390 . S
C437 H441 0.950 . S
H438 C434 0.950 . S
C439 C437 1.390 . S
C439 C440 1.387 . S
C439 H442 0.950 . S
C440 C439 1.387 . S
C440 C443 1.387 . S
H441 C437 0.950 . S
H442 C439 0.950 . S
C443 C434 1.390 . S
C443 H436 0.950 . S
C443 C440 1.387 . S
C444 C445 1.387 . S
C444 H448 0.950 . S
C444 C453 1.390 . S
C445 C444 1.387 . S
C445 C447 1.387 . S
H446 C453 0.950 . S
C447 C445 1.387 . S
C447 C449 1.390 . S
C447 H451 0.950 . S
H448 C444 0.950 . S
C449 C447 1.390 . S
C449 C450 1.387 . S
C449 H452 0.950 . S
C450 C449 1.387 . S
C450 C453 1.387 . S
H451 C447 0.950 . S
H452 C449 0.950 . S
C453 C444 1.390 . S
C453 H446 0.950 . S
C453 C450 1.387 . S
C454 C455 1.387 . S
C454 H458 0.950 . S
C454 C463 1.390 . S
C455 C454 1.387 . S
C455 C457 1.387 . S
H456 C463 0.950 . S
C457 C455 1.387 . S
C457 C459 1.390 . S
C457 H461 0.950 . S
H458 C454 0.950 . S
C459 C457 1.390 . S
C459 C460 1.387 . S
C459 H462 0.950 . S
C460 C459 1.387 . S
C460 C463 1.387 . S
H461 C457 0.950 . S
H462 C459 0.950 . S
C463 C454 1.390 . S
C463 H456 0.950 . S
C463 C460 1.387 . S
C464 C465 1.387 . S
C464 H468 0.950 1_554 S
C464 C473 1.390 . S
C465 C464 1.387 . S
C465 C467 1.387 . S
H466 C473 0.950 . S
C467 C465 1.387 . S
C467 C469 1.390 . S
C467 H471 0.950 . S
H468 C464 0.950 1_556 S
C469 C467 1.390 . S
C469 C470 1.387 . S
C469 H472 0.950 . S
C470 C469 1.387 . S
C470 C473 1.387 . S
H471 C467 0.950 . S
H472 C469 0.950 . S
C473 C464 1.390 . S
C473 H466 0.950 . S
C473 C470 1.387 . S
C355 C3 1.339 . S
C360 C182 1.341 . S
C365 C241 1.342 . S
C370 C62 1.339 . S
C375 C123 1.341 . S
C380 C298 1.339 . S
C385 C180 1.339 . S
C390 C5 1.341 . S
C395 C64 1.342 . S
C400 C239 1.339 . S
C405 C300 1.341 . S
C410 C121 1.339 . S
C415 C33 1.537 . S
C420 C151 1.537 . S
C425 C92 1.539 . S
C430 C229 1.538 . S
C435 C288 1.539 . S
C440 C170 1.538 . S
C445 C328 1.539 . S
C450 C210 1.539 . S
C455 C269 1.538 . S
C460 C52 1.537 1_556 S
C465 C347 1.539 1_554 S
C470 C111 1.539 . S
