# Generated by pormake.
# Topology qtz-e, (6)-cn, num edge types: 1
# Building blocks:
#     Node 0, Type 0, BuildingBlock: PAMTUU_clean_sbu_0, # of connection points: 6
#     Node 1, Type 0, BuildingBlock: PAMTUU_clean_sbu_0, # of connection points: 6
#     Node 2, Type 0, BuildingBlock: PAMTUU_clean_sbu_0, # of connection points: 6
#     Node 3, Type 0, BuildingBlock: PAMTUU_clean_sbu_0, # of connection points: 6
#     Node 4, Type 0, BuildingBlock: PAMTUU_clean_sbu_0, # of connection points: 6
#     Node 5, Type 0, BuildingBlock: PAMTUU_clean_sbu_0, # of connection points: 6
#     Edge 6, Type (0, 0), BuildingBlock: MIFKUJ_clean_linker_0, # of connection points: 2
#     Edge 7, Type (0, 0), BuildingBlock: MIFKUJ_clean_linker_0, # of connection points: 2
#     Edge 8, Type (0, 0), BuildingBlock: MIFKUJ_clean_linker_0, # of connection points: 2
#     Edge 9, Type (0, 0), BuildingBlock: MIFKUJ_clean_linker_0, # of connection points: 2
#     Edge 10, Type (0, 0), BuildingBlock: MIFKUJ_clean_linker_0, # of connection points: 2
#     Edge 11, Type (0, 0), BuildingBlock: MIFKUJ_clean_linker_0, # of connection points: 2
#     Edge 12, Type (0, 0), BuildingBlock: MIFKUJ_clean_linker_0, # of connection points: 2
#     Edge 13, Type (0, 0), BuildingBlock: MIFKUJ_clean_linker_0, # of connection points: 2
#     Edge 14, Type (0, 0), BuildingBlock: MIFKUJ_clean_linker_0, # of connection points: 2
#     Edge 15, Type (0, 0), BuildingBlock: MIFKUJ_clean_linker_0, # of connection points: 2
#     Edge 16, Type (0, 0), BuildingBlock: MIFKUJ_clean_linker_0, # of connection points: 2
#     Edge 17, Type (0, 0), BuildingBlock: MIFKUJ_clean_linker_0, # of connection points: 2
#     Edge 18, Type (0, 0), BuildingBlock: MIFKUJ_clean_linker_0, # of connection points: 2
#     Edge 19, Type (0, 0), BuildingBlock: MIFKUJ_clean_linker_0, # of connection points: 2
#     Edge 20, Type (0, 0), BuildingBlock: MIFKUJ_clean_linker_0, # of connection points: 2
#     Edge 21, Type (0, 0), BuildingBlock: MIFKUJ_clean_linker_0, # of connection points: 2
#     Edge 22, Type (0, 0), BuildingBlock: MIFKUJ_clean_linker_0, # of connection points: 2
#     Edge 23, Type (0, 0), BuildingBlock: MIFKUJ_clean_linker_0, # of connection points: 2
# Relax obj value: 0.168
# Max RMSD: 0.200
# Mean RMSD: 0.200
data_MOF--net-qtz-e--node1-PAMTUU_clean_sbu_0--edge1-MIFKUJ_clean_linker_0
_symmetry_space_group_name_H-M    P1
_symmetry_Int_Tables_number       1
_symmetry_cell_setting            triclinic
loop_
_symmetry_equiv_pos_as_xyz
'x, y, z'
_cell_length_a     34.483796
_cell_length_b     34.462763
_cell_length_c     61.969917
_cell_angle_alpha  89.912933
_cell_angle_beta   89.853063
_cell_angle_gamma 119.91277
loop_
_atom_site_label
_atom_site_type_symbol
_atom_site_fract_x
_atom_site_fract_y
_atom_site_fract_z
_atom_type_partial_charge
Tb0 Tb 0.22143 0.35297 0.08457 0.0
Tb1 Tb 0.25863 0.44732 0.05667 0.0
C2 C 0.31921 0.42828 0.08631 0.0
C3 C 0.16508 0.27142 0.12798 0.0
C4 C 0.11771 0.25052 0.16753 0.0
C5 C 0.13547 0.22414 0.1598 0.0
C6 C 0.15901 0.23457 0.14022 0.0
C7 C 0.14711 0.2976 0.13548 0.0
C8 C 0.12365 0.28726 0.15504 0.0
C9 C 0.19204 0.28402 0.10804 0.0
O10 O 0.22765 0.40349 0.10764 0.0
O11 O 0.23185 0.46023 0.08589 0.0
O12 O 0.18972 0.401 0.04788 0.0
O13 O 0.16646 0.36536 0.08019 0.0
O14 O 0.31376 0.50647 0.04538 0.0
O15 O 0.24678 0.48972 0.03652 0.0
O16 O 0.27597 0.40431 0.03851 0.0
O17 O 0.22181 0.33538 0.05084 0.0
O18 O 0.29393 0.38556 0.08204 0.0
O19 O 0.30573 0.45684 0.08196 0.0
C20 C 0.22612 0.44069 0.10487 0.0
O21 O 0.17212 0.28613 0.09056 0.0
O22 O 0.23208 0.31863 0.10978 0.0
C23 C 0.15849 0.38128 0.06262 0.0
C24 C 0.30416 0.52782 0.01021 0.0
C25 C 0.33484 0.55529 0.96737 0.0
C26 C 0.29468 0.55223 0.97467 0.0
C27 C 0.27967 0.53889 0.99587 0.0
C28 C 0.34383 0.53001 1.00282 0.0
C29 C 0.35897 0.54362 0.98171 0.0
C30 C 0.28939 0.51631 0.03298 0.0
C31 C 0.25121 0.36079 0.03614 0.0
H32 H 0.13208 0.19599 0.16912 0.0
H33 H 0.173 0.21425 0.13479 0.0
H34 H 0.15158 0.32631 0.12628 0.0
H35 H 0.10999 0.30796 0.16031 0.0
H36 H 0.2748 0.56025 0.96402 0.0
H37 H 0.24909 0.53767 1.00113 0.0
H38 H 0.36378 0.522 0.01342 0.0
H39 H 0.39036 0.54619 0.97687 0.0
Tb40 Tb 0.77699 0.15079 0.45356 0.0
Tb41 Tb 0.76077 0.21891 0.48536 0.0
C42 C 0.68123 0.13579 0.46243 0.0
C43 C 0.82368 0.117 0.40835 0.0
C44 C 0.87525 0.1399 0.36987 0.0
C45 C 0.83126 0.10326 0.37047 0.0
C46 C 0.8059 0.09189 0.3895 0.0
C47 C 0.86746 0.1538 0.40782 0.0
C48 C 0.89299 0.16494 0.38886 0.0
C49 C 0.79569 0.10542 0.42808 0.0
O50 O 0.76441 0.19476 0.43285 0.0
O51 O 0.78355 0.25549 0.455 0.0
O52 O 0.82812 0.22966 0.48804 0.0
O53 O 0.83786 0.21469 0.4538 0.0
O54 O 0.72815 0.25399 0.4949 0.0
O55 O 0.78314 0.2584 0.51324 0.0
O56 O 0.73361 0.15566 0.50221 0.0
O57 O 0.77793 0.13064 0.48709 0.0
O58 O 0.70561 0.11639 0.46018 0.0
O59 O 0.6984 0.17773 0.46848 0.0
C60 C 0.77507 0.23688 0.43576 0.0
O61 O 0.81649 0.12184 0.44627 0.0
O62 O 0.75954 0.1084 0.42656 0.0
C63 C 0.85378 0.23925 0.47103 0.0
C64 C 0.72553 0.25956 0.53277 0.0
C65 C 0.68028 0.24435 0.57259 0.0
C66 C 0.70872 0.28822 0.56505 0.0
C67 C 0.73113 0.2957 0.54533 0.0
C68 C 0.69703 0.21568 0.54008 0.0
C69 C 0.67448 0.20812 0.55981 0.0
C70 C 0.7512 0.26808 0.51264 0.0
C71 C 0.75158 0.12995 0.50272 0.0
H72 H 0.81598 0.08372 0.35612 0.0
H73 H 0.77209 0.06368 0.38943 0.0
H74 H 0.88204 0.17414 0.42204 0.0
H75 H 0.92681 0.19303 0.38918 0.0
H76 H 0.7134 0.31684 0.57433 0.0
H77 H 0.75312 0.32977 0.53995 0.0
H78 H 0.6926 0.18733 0.53065 0.0
H79 H 0.6532 0.17397 0.56525 0.0
Tb80 Tb 0.62308 0.82706 0.74142 0.0
Tb81 Tb 0.52956 0.77382 0.71273 0.0
C82 C 0.5529 0.85928 0.73729 0.0
C83 C 0.70351 0.8536 0.78628 0.0
C84 C 0.72379 0.83028 0.82674 0.0
C85 C 0.72953 0.87315 0.82324 0.0
C86 C 0.71968 0.88472 0.80318 0.0
C87 C 0.69761 0.81063 0.78972 0.0
C88 C 0.70798 0.79921 0.80974 0.0
C89 C 0.69055 0.86588 0.76578 0.0
O90 O 0.57715 0.76964 0.76085 0.0
O91 O 0.51043 0.75797 0.74664 0.0
O92 O 0.55068 0.72601 0.71976 0.0
O93 O 0.62597 0.77244 0.72544 0.0
O94 O 0.46362 0.75889 0.70674 0.0
O95 O 0.49412 0.72819 0.68806 0.0
O96 O 0.58339 0.81119 0.68979 0.0
O97 O 0.63602 0.8659 0.71173 0.0
O98 O 0.57758 0.85079 0.75037 0.0
O99 O 0.54152 0.84062 0.71827 0.0
C100 C 0.5336 0.75275 0.76208 0.0
O101 O 0.68925 0.84362 0.74855 0.0
O102 O 0.65599 0.87143 0.76696 0.0
C103 C 0.59155 0.73298 0.72113 0.0
C104 C 0.44072 0.74005 0.67039 0.0
C105 C 0.40495 0.75032 0.63139 0.0
C106 C 0.3958 0.70774 0.63837 0.0
C107 C 0.41347 0.7027 0.65769 0.0
C108 C 0.45011 0.78277 0.66356 0.0
C109 C 0.43209 0.78782 0.64423 0.0
C110 C 0.45935 0.73325 0.6904 0.0
C111 C 0.6191 0.85075 0.69249 0.0
H112 H 0.74195 0.89786 0.83599 0.0
H113 H 0.72415 0.9179 0.80094 0.0
H114 H 0.6845 0.78572 0.77707 0.0
H115 H 0.70274 0.76576 0.81207 0.0
H116 H 0.37452 0.67817 0.62898 0.0
H117 H 0.40591 0.66951 0.66272 0.0
H118 H 0.47142 0.81211 0.67309 0.0
H119 H 0.43992 0.82105 0.63916 0.0
Tb120 Tb 0.86388 0.64417 0.11579 0.0
Tb121 Tb 0.80744 0.55069 0.14453 0.0
C122 C 0.88735 0.56925 0.11511 0.0
C123 C 0.887 0.72458 0.07217 0.0
C124 C 0.85736 0.74243 0.03294 0.0
C125 C 0.90334 0.76054 0.03696 0.0
C126 C 0.91801 0.75174 0.05644 0.0
C127 C 0.84107 0.70655 0.06825 0.0
C128 C 0.82641 0.71564 0.04888 0.0
C129 C 0.90238 0.71229 0.09182 0.0
O130 O 0.8202 0.59307 0.0931 0.0
O131 O 0.76794 0.53705 0.11522 0.0
O132 O 0.78637 0.59808 0.15377 0.0
O133 O 0.79672 0.63191 0.12109 0.0
O134 O 0.80556 0.4937 0.15758 0.0
O135 O 0.75172 0.5071 0.16365 0.0
O136 O 0.8675 0.59457 0.16253 0.0
O137 O 0.8832 0.66317 0.14909 0.0
O138 O 0.90428 0.61213 0.11885 0.0
O139 O 0.84538 0.54062 0.11948 0.0
C140 C 0.78171 0.55599 0.0961 0.0
O141 O 0.88174 0.71106 0.10974 0.0
O142 O 0.90748 0.67744 0.0899 0.0
C143 C 0.77427 0.61754 0.1392 0.0
C144 C 0.76945 0.47088 0.19134 0.0
C145 C 0.77307 0.44336 0.23399 0.0
C146 C 0.73468 0.41889 0.22119 0.0
C147 C 0.733 0.43247 0.20009 0.0
C148 C 0.80714 0.49652 0.20426 0.0
C149 C 0.80897 0.48289 0.22536 0.0
C150 C 0.76882 0.48187 0.16836 0.0
C151 C 0.88721 0.63837 0.16405 0.0
H152 H 0.92796 0.78152 0.02503 0.0
H153 H 0.95354 0.76556 0.05908 0.0
H154 H 0.81649 0.68478 0.08002 0.0
H155 H 0.79079 0.70072 0.04614 0.0
H156 H 0.70598 0.3889 0.2274 0.0
H157 H 0.70351 0.41237 0.19042 0.0
H158 H 0.83567 0.52638 0.19783 0.0
H159 H 0.83919 0.50252 0.23461 0.0
Tb160 Tb 0.13118 0.79027 0.4109 0.0
Tb161 Tb 0.17707 0.73939 0.38468 0.0
C162 C 0.08067 0.68762 0.40093 0.0
C163 C 0.11357 0.85379 0.45326 0.0
C164 C 0.14245 0.89383 0.4941 0.0
C165 C 0.09667 0.86568 0.48992 0.0
C166 C 0.08237 0.84598 0.46965 0.0
C167 C 0.15938 0.8822 0.45735 0.0
C168 C 0.17364 0.90236 0.47754 0.0
C169 C 0.09834 0.8283 0.433 0.0
O170 O 0.17428 0.78431 0.43416 0.0
O171 O 0.18112 0.72683 0.41907 0.0
O172 O 0.23223 0.79944 0.39753 0.0
O173 O 0.19846 0.84211 0.40141 0.0
O174 O 0.17834 0.68018 0.3782 0.0
O175 O 0.22382 0.74231 0.36212 0.0
O176 O 0.16216 0.77716 0.36132 0.0
O177 O 0.10362 0.77775 0.37863 0.0
O178 O 0.09049 0.7183 0.41572 0.0
O179 O 0.10535 0.69664 0.38359 0.0
C180 C 0.18478 0.75267 0.43556 0.0
O181 O 0.1231 0.84622 0.41588 0.0
O182 O 0.08599 0.78608 0.43479 0.0
C183 C 0.23446 0.8381 0.40061 0.0
C184 C 0.1994 0.67584 0.34247 0.0
C185 C 0.18525 0.63289 0.30222 0.0
C186 C 0.21288 0.62925 0.31781 0.0
C187 C 0.21988 0.65056 0.33773 0.0
C188 C 0.17127 0.6792 0.32715 0.0
C189 C 0.1644 0.65803 0.30711 0.0
C190 C 0.20875 0.69933 0.36321 0.0
C191 C 0.12565 0.78014 0.3609 0.0
H192 H 0.07193 0.85882 0.50237 0.0
H193 H 0.04698 0.82373 0.46692 0.0
H194 H 0.18423 0.88799 0.44512 0.0
H195 H 0.20915 0.92356 0.48042 0.0
H196 H 0.23002 0.61078 0.31443 0.0
H197 H 0.24179 0.64777 0.34936 0.0
H198 H 0.155 0.69847 0.33063 0.0
H199 H 0.1427 0.66119 0.2955 0.0
Tb200 Tb 0.3487 0.19179 0.78952 0.0
Tb201 Tb 0.44219 0.23291 0.81808 0.0
C202 C 0.41485 0.29462 0.79581 0.0
C203 C 0.26783 0.13517 0.74557 0.0
C204 C 0.25097 0.09176 0.70524 0.0
C205 C 0.23965 0.12517 0.7089 0.0
C206 C 0.24788 0.14654 0.7289 0.0
C207 C 0.27877 0.10144 0.74207 0.0
C208 C 0.27004 0.07965 0.72212 0.0
C209 C 0.2804 0.16142 0.76569 0.0
O210 O 0.39641 0.18602 0.76879 0.0
O211 O 0.46214 0.23972 0.78425 0.0
O212 O 0.42535 0.16603 0.80925 0.0
O213 O 0.34967 0.13431 0.80356 0.0
O214 O 0.50709 0.28525 0.8246 0.0
O215 O 0.47843 0.22312 0.84256 0.0
O216 O 0.38701 0.20922 0.84081 0.0
O217 O 0.33468 0.21414 0.81995 0.0
O218 O 0.39113 0.26246 0.78211 0.0
O219 O 0.42654 0.2859 0.81446 0.0
C220 C 0.43982 0.21371 0.76795 0.0
O221 O 0.28246 0.14153 0.7832 0.0
O222 O 0.31452 0.20166 0.764 0.0
C223 C 0.3853 0.13102 0.80757 0.0
C224 C 0.52902 0.28837 0.86109 0.0
C225 C 0.56379 0.33452 0.90016 0.0
C226 C 0.57003 0.29857 0.89431 0.0
C227 C 0.55296 0.2759 0.87495 0.0
C228 C 0.52182 0.32364 0.86697 0.0
C229 C 0.53919 0.34662 0.88634 0.0
C230 C 0.51199 0.26379 0.84076 0.0
C231 C 0.35103 0.21287 0.83893 0.0
H232 H 0.22455 0.13488 0.69625 0.0
H233 H 0.23954 0.1727 0.7312 0.0
H234 H 0.2949 0.09258 0.75457 0.0
H235 H 0.27944 0.05431 0.71968 0.0
H236 H 0.58792 0.28769 0.90475 0.0
H237 H 0.55848 0.2485 0.87077 0.0
H238 H 0.5031 0.33361 0.85656 0.0
H239 H 0.53404 0.37433 0.89028 0.0
H240 H 0.17136 0.54923 0.29361 0.0
H241 H 0.17211 0.51776 0.25844 0.0
H242 H 0.18723 0.63631 0.22704 0.0
H243 H 0.18676 0.66828 0.26232 0.0
H244 H 0.13057 0.55671 0.20423 0.0
H245 H 0.2772 0.63098 0.2351 0.0
H246 H 0.33331 0.64891 0.26362 0.0
H247 H 0.30385 0.51227 0.26445 0.0
H248 H 0.24699 0.49334 0.23616 0.0
H249 H 0.22158 0.51792 0.10704 0.0
H250 H 0.20868 0.55136 0.13911 0.0
H251 H 0.19784 0.44248 0.17803 0.0
H252 H 0.21084 0.40902 0.14626 0.0
H253 H 0.25389 0.52298 0.19562 0.0
H254 H 0.10618 0.44872 0.16467 0.0
H255 H 0.05127 0.43178 0.13563 0.0
H256 H 0.08432 0.56944 0.13391 0.0
H257 H 0.13994 0.5874 0.16276 0.0
C258 C 0.17456 0.56852 0.27923 0.0
C259 C 0.17972 0.61154 0.28077 0.0
C260 C 0.17476 0.55041 0.25914 0.0
C261 C 0.18041 0.57501 0.24017 0.0
C262 C 0.18286 0.61682 0.2415 0.0
C263 C 0.18258 0.635 0.26166 0.0
C264 C 0.18768 0.55853 0.21931 0.0
C265 C 0.15782 0.54984 0.2022 0.0
C266 C 0.22311 0.54935 0.21675 0.0
C267 C 0.25754 0.56067 0.23365 0.0
C268 C 0.28243 0.60467 0.24148 0.0
C269 C 0.3144 0.61503 0.25759 0.0
C270 C 0.32207 0.58173 0.26588 0.0
C271 C 0.29784 0.53802 0.25804 0.0
C272 C 0.26575 0.52746 0.24196 0.0
C273 C 0.21625 0.501 0.12239 0.0
C274 C 0.21749 0.46091 0.12404 0.0
C275 C 0.2087 0.52007 0.1407 0.0
C276 C 0.20213 0.49929 0.16093 0.0
C277 C 0.20295 0.45912 0.16258 0.0
C278 C 0.21041 0.44005 0.14434 0.0
C279 C 0.19616 0.52002 0.18067 0.0
C280 C 0.2266 0.52985 0.19758 0.0
C281 C 0.16141 0.53033 0.18291 0.0
C282 C 0.12754 0.51949 0.16576 0.0
C283 C 0.102 0.47547 0.158 0.0
C284 C 0.07073 0.46567 0.14158 0.0
C285 C 0.06442 0.49954 0.13291 0.0
C286 C 0.0893 0.54327 0.14064 0.0
C287 C 0.12067 0.55327 0.15705 0.0
H288 H 0.0401 0.49185 0.12029 0.0
H289 H 0.34685 0.58982 0.27835 0.0
H290 H 0.52966 0.26543 0.76004 0.0
H291 H 0.57035 0.2678 0.72733 0.0
H292 H 0.44712 0.16912 0.69788 0.0
H293 H 0.406 0.1661 0.73063 0.0
H294 H 0.51539 0.15096 0.69138 0.0
H295 H 0.4927 0.27728 0.68401 0.0
H296 H 0.49606 0.34712 0.69594 0.0
H297 H 0.63919 0.41143 0.70006 0.0
H298 H 0.63663 0.34173 0.68847 0.0
H299 H 0.5933 0.18248 0.58238 0.0
H300 H 0.5535 0.17381 0.61635 0.0
H301 H 0.67412 0.2802 0.64441 0.0
H302 H 0.71403 0.28904 0.61049 0.0
H303 H 0.60675 0.29379 0.65185 0.0
H304 H 0.63103 0.16914 0.66158 0.0
H305 H 0.62971 0.09893 0.65224 0.0
H306 H 0.48716 0.03268 0.64441 0.0
H307 H 0.48757 0.10239 0.65399 0.0
C308 C 0.51108 0.24429 0.74662 0.0
C309 C 0.46449 0.21563 0.74799 0.0
C310 C 0.53444 0.24574 0.7279 0.0
C311 C 0.51171 0.21892 0.7101 0.0
C312 C 0.46529 0.19009 0.71143 0.0
C313 C 0.44184 0.18859 0.73015 0.0
C314 C 0.53641 0.22118 0.69006 0.0
C315 C 0.53488 0.18204 0.68254 0.0
C316 C 0.56279 0.26199 0.67889 0.0
C317 C 0.56443 0.30414 0.68556 0.0
C318 C 0.52487 0.30622 0.6876 0.0
C319 C 0.52663 0.3458 0.69428 0.0
C320 C 0.5678 0.38366 0.69881 0.0
C321 C 0.60731 0.38206 0.69658 0.0
C322 C 0.60573 0.34254 0.68994 0.0
C323 C 0.61152 0.20354 0.59589 0.0
C324 C 0.65673 0.23675 0.59366 0.0
C325 C 0.58874 0.19851 0.61534 0.0
C326 C 0.61083 0.22625 0.63301 0.0
C327 C 0.65628 0.25859 0.63098 0.0
C328 C 0.679 0.26374 0.61155 0.0
C329 C 0.58599 0.22356 0.65314 0.0
C330 C 0.58734 0.26265 0.66065 0.0
C331 C 0.55973 0.1828 0.66438 0.0
C332 C 0.5594 0.14106 0.65828 0.0
C333 C 0.59945 0.13966 0.65773 0.0
C334 C 0.59883 0.09992 0.65249 0.0
C335 C 0.55843 0.06146 0.64758 0.0
C336 C 0.51846 0.06254 0.64814 0.0
C337 C 0.51882 0.10208 0.65359 0.0
H338 H 0.55809 0.0308 0.64343 0.0
H339 H 0.56909 0.41426 0.704 0.0
H340 H 0.33158 0.62193 0.94446 0.0
H341 H 0.36254 0.6508 0.90872 0.0
H342 H 0.41015 0.55671 0.90439 0.0
H343 H 0.37879 0.52717 0.94005 0.0
H344 H 0.47432 0.64108 0.89253 0.0
H345 H 0.32014 0.53994 0.87597 0.0
H346 H 0.23864 0.50818 0.87968 0.0
H347 H 0.25186 0.63453 0.8615 0.0
H348 H 0.33358 0.66727 0.858 0.0
H349 H 0.54447 0.69002 0.78358 0.0
H350 H 0.50735 0.65087 0.81696 0.0
H351 H 0.43594 0.72419 0.81921 0.0
H352 H 0.47032 0.76037 0.78487 0.0
H353 H 0.38304 0.64676 0.8322 0.0
H354 H 0.53812 0.74944 0.85019 0.0
H355 H 0.61976 0.78115 0.84668 0.0
H356 H 0.60568 0.65362 0.86303 0.0
H357 H 0.52394 0.62095 0.86624 0.0
C358 C 0.34791 0.60674 0.93581 0.0
C359 C 0.35236 0.57192 0.94519 0.0
C360 C 0.36581 0.62349 0.91537 0.0
C361 C 0.38843 0.60574 0.90379 0.0
C362 C 0.39295 0.57103 0.91305 0.0
C363 C 0.37503 0.55423 0.93348 0.0
C364 C 0.40818 0.62408 0.88222 0.0
C365 C 0.45434 0.64189 0.87922 0.0
C366 C 0.38225 0.62593 0.86502 0.0
C367 C 0.33305 0.60616 0.8669 0.0
C368 C 0.30572 0.56105 0.87291 0.0
C369 C 0.25947 0.54285 0.87495 0.0
C370 C 0.24009 0.56934 0.87087 0.0
C371 C 0.26692 0.61406 0.86467 0.0
C372 C 0.3132 0.63244 0.86264 0.0
C373 C 0.52057 0.69739 0.79121 0.0
C374 C 0.51027 0.72822 0.78182 0.0
C375 C 0.49965 0.67537 0.8104 0.0
C376 C 0.4697 0.68542 0.82113 0.0
C377 C 0.45895 0.7158 0.81142 0.0
C378 C 0.47864 0.73658 0.79182 0.0
C379 C 0.44963 0.66462 0.84244 0.0
C380 C 0.40328 0.6462 0.84544 0.0
C381 C 0.47553 0.66257 0.85972 0.0
C382 C 0.52485 0.68265 0.85826 0.0
C383 C 0.55243 0.72814 0.85295 0.0
C384 C 0.59872 0.74627 0.851 0.0
C385 C 0.61783 0.71936 0.85459 0.0
C386 C 0.59079 0.67437 0.86023 0.0
C387 C 0.5445 0.65604 0.86211 0.0
H388 H 0.65357 0.73323 0.853 0.0
H389 H 0.20428 0.5552 0.87246 0.0
H390 H 0.7336 0.20562 0.39729 0.0
H391 H 0.73863 0.24821 0.36499 0.0
H392 H 0.8277 0.37127 0.39775 0.0
H393 H 0.82181 0.32853 0.43065 0.0
H394 H 0.76232 0.37663 0.37223 0.0
H395 H 0.87363 0.3298 0.36138 0.0
H396 H 0.89441 0.27083 0.36302 0.0
H397 H 0.7884 0.1901 0.31913 0.0
H398 H 0.76749 0.24879 0.31696 0.0
H399 H 0.81182 0.49206 0.2707 0.0
H400 H 0.81898 0.46441 0.30603 0.0
H401 H 0.7471 0.32893 0.28225 0.0
H402 H 0.7421 0.35652 0.24675 0.0
H403 H 0.81381 0.3382 0.30491 0.0
H404 H 0.69946 0.37646 0.31456 0.0
H405 H 0.66611 0.42522 0.31425 0.0
H406 H 0.76168 0.51103 0.36122 0.0
H407 H 0.79581 0.46297 0.36165 0.0
C408 C 0.75428 0.24174 0.39771 0.0
C409 C 0.77752 0.26364 0.41651 0.0
C410 C 0.75718 0.26609 0.37918 0.0
C411 C 0.78421 0.31289 0.37878 0.0
C412 C 0.80676 0.33516 0.39767 0.0
C413 C 0.80337 0.31072 0.41643 0.0
C414 C 0.78919 0.33778 0.35835 0.0
C415 C 0.77449 0.36909 0.35756 0.0
C416 C 0.80391 0.327 0.33913 0.0
C417 C 0.81909 0.29365 0.33898 0.0
C418 C 0.85512 0.29965 0.35191 0.0
C419 C 0.8669 0.26629 0.35292 0.0
C420 C 0.84276 0.22681 0.34114 0.0
C421 C 0.80719 0.22081 0.32813 0.0
C422 C 0.7956 0.25423 0.32687 0.0
C423 C 0.79799 0.45647 0.27295 0.0
C424 C 0.77625 0.42666 0.25582 0.0
C425 C 0.80168 0.4406 0.29325 0.0
C426 C 0.78319 0.39445 0.29696 0.0
C427 C 0.76165 0.36468 0.27987 0.0
C428 C 0.75829 0.38053 0.25958 0.0
C429 C 0.78609 0.37673 0.31852 0.0
C430 C 0.80245 0.34672 0.31956 0.0
C431 C 0.77178 0.38798 0.33784 0.0
C432 C 0.75093 0.41667 0.33777 0.0
C433 C 0.71372 0.40601 0.32464 0.0
C434 C 0.69455 0.43344 0.32449 0.0
C435 C 0.71195 0.47138 0.33759 0.0
C436 C 0.74838 0.48178 0.35098 0.0
C437 C 0.76769 0.45447 0.35117 0.0
H438 H 0.69707 0.49258 0.33746 0.0
H439 H 0.85134 0.2007 0.34213 0.0
H440 H 0.40261 0.71143 0.59278 0.0
H441 H 0.36617 0.71418 0.55954 0.0
H442 H 0.32797 0.80272 0.58998 0.0
H443 H 0.36387 0.79944 0.62354 0.0
H444 H 0.25821 0.73482 0.5694 0.0
H445 H 0.40776 0.84325 0.55181 0.0
H446 H 0.48927 0.87577 0.54762 0.0
H447 H 0.46807 0.77317 0.50216 0.0
H448 H 0.38636 0.73966 0.50629 0.0
H449 H 0.18906 0.79428 0.47355 0.0
H450 H 0.22577 0.79292 0.50672 0.0
H451 H 0.26213 0.70175 0.47772 0.0
H452 H 0.22551 0.70313 0.44409 0.0
H453 H 0.33261 0.77173 0.49769 0.0
H454 H 0.18057 0.66477 0.51598 0.0
H455 H 0.09975 0.63725 0.51974 0.0
H456 H 0.12712 0.74397 0.56377 0.0
H457 H 0.20811 0.77234 0.5601 0.0
C458 C 0.38654 0.73157 0.59238 0.0
C459 C 0.38589 0.75506 0.61078 0.0
C460 C 0.36605 0.73342 0.57333 0.0
C461 C 0.34459 0.75887 0.57225 0.0
C462 C 0.34444 0.78294 0.59048 0.0
C463 C 0.36518 0.7813 0.60956 0.0
C464 C 0.32056 0.75839 0.55236 0.0
C465 C 0.27464 0.74363 0.55377 0.0
C466 C 0.34182 0.76901 0.53191 0.0
C467 C 0.39092 0.78861 0.52957 0.0
C468 C 0.42047 0.82732 0.5411 0.0
C469 C 0.46671 0.84601 0.53869 0.0
C470 C 0.48384 0.82646 0.52469 0.0
C471 C 0.45475 0.78823 0.51303 0.0
C472 C 0.40846 0.76939 0.51539 0.0
C473 C 0.20447 0.77354 0.47417 0.0
C474 C 0.20429 0.74872 0.45611 0.0
C475 C 0.22529 0.77268 0.49325 0.0
C476 C 0.24632 0.74693 0.49476 0.0
C477 C 0.24593 0.72175 0.47688 0.0
C478 C 0.22485 0.72241 0.45772 0.0
C479 C 0.27034 0.74807 0.51474 0.0
C480 C 0.31624 0.76293 0.51335 0.0
C481 C 0.2492 0.73822 0.53521 0.0
C482 C 0.20045 0.72091 0.53762 0.0
C483 C 0.16937 0.68253 0.52636 0.0
C484 C 0.12351 0.66673 0.5285 0.0
C485 C 0.10831 0.6889 0.54195 0.0
C486 C 0.13893 0.72683 0.55335 0.0
C487 C 0.18482 0.74275 0.55127 0.0
H488 H 0.07279 0.67663 0.54357 0.0
H489 H 0.51965 0.841 0.52283 0.0
H490 H 0.70081 0.4779 0.09397 0.0
H491 H 0.65739 0.44168 0.06156 0.0
H492 H 0.75625 0.54949 0.02239 0.0
H493 H 0.79908 0.58631 0.05453 0.0
H494 H 0.67541 0.52478 0.00775 0.0
H495 H 0.75785 0.45203 0.02847 0.0
H496 H 0.78179 0.41219 0.05341 0.0
H497 H 0.64616 0.30444 0.05877 0.0
H498 H 0.62133 0.34399 0.03409 0.0
H499 H 0.64567 0.35835 0.91717 0.0
H500 H 0.67723 0.39645 0.95116 0.0
H501 H 0.55929 0.40654 0.96305 0.0
H502 H 0.52674 0.36722 0.92917 0.0
H503 H 0.64609 0.37137 0.992 0.0
H504 H 0.60048 0.51306 0.99065 0.0
H505 H 0.58696 0.5587 0.96431 0.0
H506 H 0.66331 0.53518 0.9166 0.0
H507 H 0.67821 0.49037 0.94275 0.0
C508 C 0.71309 0.49408 0.07849 0.0
C509 C 0.75373 0.53471 0.07687 0.0
C510 C 0.68828 0.47331 0.05998 0.0
C511 C 0.70391 0.49263 0.03953 0.0
C512 C 0.74354 0.53397 0.03798 0.0
C513 C 0.76819 0.5548 0.05643 0.0
C514 C 0.68072 0.4688 0.01956 0.0
C515 C 0.6685 0.49104 1.00438 0.0
C516 C 0.67277 0.42523 0.01497 0.0
C517 C 0.68768 0.40117 0.02963 0.0
C518 C 0.7331 0.41997 0.03508 0.0
C519 C 0.74684 0.39744 0.04916 0.0
C520 C 0.7155 0.35586 0.05771 0.0
C521 C 0.67038 0.33668 0.05216 0.0
C522 C 0.65646 0.35913 0.03813 0.0
C523 C 0.62612 0.36816 0.92708 0.0
C524 C 0.58348 0.35937 0.9205 0.0
C525 C 0.64431 0.3901 0.94648 0.0
C526 C 0.62058 0.40424 0.95961 0.0
C527 C 0.57826 0.39613 0.95305 0.0
C528 C 0.55984 0.37387 0.93364 0.0
C529 C 0.6404 0.42718 0.98022 0.0
C530 C 0.65212 0.40477 0.99552 0.0
C531 C 0.64889 0.47104 0.98462 0.0
C532 C 0.63975 0.49758 0.96861 0.0
C533 C 0.61437 0.51758 0.97454 0.0
C534 C 0.60655 0.54342 0.95964 0.0
C535 C 0.62402 0.5496 0.93875 0.0
C536 C 0.64943 0.53003 0.93272 0.0
C537 C 0.65751 0.50433 0.94758 0.0
H538 H 0.61804 0.56971 0.92727 0.0
H539 H 0.72619 0.33847 0.06861 0.0
H540 H 0.35476 0.49244 0.11683 0.0
H541 H 0.42932 0.52569 0.13263 0.0
H542 H 0.45657 0.43645 0.09508 0.0
H543 H 0.38063 0.40125 0.0802 0.0
H544 H 0.49649 0.44989 0.13193 0.0
H545 H 0.48846 0.54572 0.07802 0.0
H546 H 0.45824 0.58942 0.06059 0.0
H547 H 0.48857 0.67135 0.11712 0.0
H548 H 0.51841 0.6277 0.13499 0.0
H549 H 0.73202 0.63844 0.10814 0.0
H550 H 0.65221 0.61013 0.10545 0.0
H551 H 0.63317 0.55597 0.16995 0.0
H552 H 0.71338 0.58254 0.17242 0.0
H553 H 0.58755 0.61479 0.12301 0.0
H554 H 0.53861 0.45362 0.17093 0.0
H555 H 0.57329 0.40997 0.18351 0.0
H556 H 0.66387 0.45722 0.12961 0.0
H557 H 0.62919 0.50044 0.11645 0.0
C558 C 0.37655 0.47961 0.11218 0.0
C559 C 0.36249 0.44486 0.09709 0.0
C560 C 0.41913 0.49865 0.12117 0.0
C561 C 0.44902 0.48445 0.1146 0.0
C562 C 0.43416 0.44812 0.10032 0.0
C563 C 0.39095 0.42815 0.09176 0.0
C564 C 0.49655 0.50955 0.12138 0.0
C565 C 0.51632 0.48596 0.13009 0.0
C566 C 0.52273 0.55659 0.1187 0.0
C567 C 0.50522 0.58317 0.10792 0.0
C568 C 0.48843 0.57289 0.08677 0.0
C569 C 0.4714 0.59765 0.07681 0.0
C570 C 0.47138 0.63306 0.08776 0.0
C571 C 0.48853 0.64386 0.10867 0.0
C572 C 0.50553 0.61915 0.11872 0.0
C573 C 0.71117 0.62138 0.122 0.0
C574 C 0.72892 0.61178 0.14031 0.0
C575 C 0.66538 0.60528 0.12044 0.0
C576 C 0.63653 0.57981 0.13726 0.0
C577 C 0.65475 0.57452 0.15655 0.0
C578 C 0.70063 0.59001 0.15799 0.0
C579 C 0.58762 0.55516 0.1334 0.0
C580 C 0.56753 0.57881 0.12521 0.0
C581 C 0.56173 0.508 0.13571 0.0
C582 C 0.58161 0.48064 0.14288 0.0
C583 C 0.56572 0.45442 0.16169 0.0
C584 C 0.58539 0.42979 0.16891 0.0
C585 C 0.62086 0.43096 0.15739 0.0
C586 C 0.63645 0.45643 0.13851 0.0
C587 C 0.61676 0.48094 0.13115 0.0
H588 H 0.63622 0.4121 0.16308 0.0
H589 H 0.45816 0.65218 0.08003 0.0
H590 H 0.06215 0.61353 0.3772 0.0
H591 H 0.02129 0.53591 0.38936 0.0
H592 H 0.98421 0.57686 0.44799 0.0
H593 H 0.02575 0.65481 0.43615 0.0
H594 H 0.02537 0.53147 0.45655 0.0
H595 H 0.90963 0.51424 0.40893 0.0
H596 H 0.87308 0.51544 0.37509 0.0
H597 H 0.90309 0.41934 0.34732 0.0
H598 H 0.94173 0.41904 0.38064 0.0
H599 H 0.87641 0.31166 0.49686 0.0
H600 H 0.91945 0.38959 0.48549 0.0
H601 H 0.95804 0.34952 0.42704 0.0
H602 H 0.91427 0.27126 0.4381 0.0
H603 H 0.91497 0.394 0.41863 0.0
H604 H 0.03529 0.41543 0.46497 0.0
H605 H 0.07042 0.4126 0.49909 0.0
H606 H 0.0283 0.49771 0.52916 0.0
H607 H 0.9923 0.5005 0.49531 0.0
C608 C 0.04439 0.60599 0.39245 0.0
C609 C 0.04776 0.64044 0.40587 0.0
C610 C 0.02088 0.56149 0.39934 0.0
C611 C -7e-05 0.55066 0.41963 0.0
C612 C 0.00043 0.5846 0.43233 0.0
C613 C 0.02409 0.62912 0.4255 0.0
C614 C 0.98254 0.50522 0.42874 0.0
C615 C 0.00069 0.50142 0.44839 0.0
C616 C 0.95148 0.466 0.41768 0.0
C617 C 0.92941 0.46726 0.39728 0.0
C618 C 0.90931 0.49402 0.3955 0.0
C619 C 0.88809 0.49445 0.37638 0.0
C620 C 0.88593 0.46763 0.35902 0.0
C621 C 0.90506 0.44034 0.36073 0.0
C622 C 0.92681 0.44019 0.37971 0.0
C623 C 0.89539 0.31946 0.48197 0.0
C624 C 0.89125 0.28528 0.46815 0.0
C625 C 0.91999 0.36413 0.47548 0.0
C626 C 0.94143 0.37521 0.4553 0.0
C627 C 0.94129 0.34152 0.44258 0.0
C628 C 0.9165 0.29686 0.44898 0.0
C629 C 0.95834 0.42049 0.44617 0.0
C630 C 0.9399 0.42418 0.42662 0.0
C631 C 0.98917 0.45958 0.45722 0.0
C632 C 0.01071 0.45782 0.47763 0.0
C633 C 0.03314 0.43321 0.47891 0.0
C634 C 0.05329 0.43168 0.49819 0.0
C635 C 0.05149 0.45486 0.5163 0.0
C636 C 0.02962 0.47971 0.51513 0.0
C637 C 0.00937 0.48131 0.49589 0.0
H638 H 0.06713 0.45365 0.53121 0.0
H639 H 0.86928 0.46785 0.34427 0.0
H640 H 0.42963 0.10334 0.83332 0.0
H641 H 0.44509 0.04303 0.82536 0.0
H642 H 0.35341 0.00167 0.77185 0.0
H643 H 0.33706 0.06177 0.78006 0.0
H644 H 0.36491 0.92885 0.79536 0.0
H645 H 0.44884 0.06856 0.75361 0.0
H646 H 0.4909 0.15053 0.74987 0.0
H647 H 0.57989 0.15957 0.80042 0.0
H648 H 0.53892 0.0771 0.80398 0.0
H649 H 0.47868 0.85889 0.72179 0.0
H650 H 0.43987 0.89502 0.73783 0.0
H651 H 0.5401 0.95154 0.78758 0.0
H652 H 0.57896 0.91525 0.77182 0.0
H653 H 0.52063 0.01275 0.76716 0.0
H654 H 0.4456 0.86888 0.80101 0.0
H655 H 0.40479 0.7864 0.80206 0.0
H656 H 0.29682 0.78344 0.76633 0.0
H657 H 0.33742 0.86598 0.76469 0.0
C658 C 0.41126 0.08011 0.82047 0.0
C659 C 0.38254 0.08719 0.80715 0.0
C660 C 0.42003 0.04569 0.81598 0.0
C661 C 0.40076 0.01846 0.79789 0.0
C662 C 0.36832 0.02231 0.78595 0.0
C663 C 0.35904 0.05657 0.79064 0.0
C664 C 0.42186 0.99383 0.789 0.0
C665 C 0.39872 0.94693 0.78898 0.0
C666 C 0.46615 0.01765 0.78102 0.0
C667 C 0.49071 0.06699 0.77917 0.0
C668 C 0.47727 0.08812 0.76397 0.0
C669 C 0.50094 0.13465 0.76187 0.0
C670 C 0.53775 0.16045 0.77507 0.0
C671 C 0.55128 0.1396 0.79025 0.0
C672 C 0.52806 0.09294 0.79222 0.0
C673 C 0.49269 0.87936 0.73603 0.0
C674 C 0.53192 0.88443 0.74555 0.0
C675 C 0.47022 0.89949 0.74528 0.0
C676 C 0.48691 0.92525 0.764 0.0
C677 C 0.52665 0.93138 0.7732 0.0
C678 C 0.54882 0.91081 0.76415 0.0
C679 C 0.46396 0.94752 0.77351 0.0
C680 C 0.48685 0.99431 0.7736 0.0
C681 C 0.4195 0.9233 0.78142 0.0
C682 C 0.3948 0.87366 0.78252 0.0
C683 C 0.41336 0.85066 0.79318 0.0
C684 C 0.39023 0.80389 0.79392 0.0
C685 C 0.34829 0.77969 0.78423 0.0
C686 C 0.32935 0.80224 0.77381 0.0
C687 C 0.3524 0.84903 0.77298 0.0
H688 H 0.33041 0.74347 0.78482 0.0
H689 H 0.55591 0.19654 0.77343 0.0
H690 H 0.6345 0.71355 0.75219 0.0
H691 H 0.6155 0.63765 0.76274 0.0
H692 H 0.53726 0.58593 0.70477 0.0
H693 H 0.55502 0.66156 0.69464 0.0
H694 H 0.4872 0.55517 0.74008 0.0
H695 H 0.62647 0.57016 0.71573 0.0
H696 H 0.70856 0.60596 0.71301 0.0
H697 H 0.71704 0.592 0.78143 0.0
H698 H 0.63501 0.55663 0.78461 0.0
H699 H 0.40129 0.32496 0.75754 0.0
H700 H 0.44077 0.40133 0.7437 0.0
H701 H 0.51357 0.44707 0.80345 0.0
H702 H 0.47465 0.37033 0.81741 0.0
H703 H 0.5687 0.48123 0.76821 0.0
H704 H 0.43169 0.46927 0.79306 0.0
H705 H 0.3499 0.43527 0.79682 0.0
H706 H 0.33802 0.44626 0.72842 0.0
H707 H 0.41971 0.47982 0.72421 0.0
C708 C 0.61524 0.68621 0.74119 0.0
C709 C 0.59601 0.69301 0.72267 0.0
C710 C 0.60423 0.64281 0.74726 0.0
C711 C 0.57456 0.60614 0.73463 0.0
C712 C 0.55996 0.61378 0.71479 0.0
C713 C 0.57033 0.65693 0.70893 0.0
C714 C 0.55183 0.56044 0.74388 0.0
C715 C 0.50504 0.53866 0.74581 0.0
C716 C 0.57527 0.53993 0.75231 0.0
C717 C 0.6246 0.5611 0.75043 0.0
C718 C 0.64585 0.57506 0.73022 0.0
C719 C 0.69238 0.5952 0.72859 0.0
C720 C 0.71801 0.60135 0.74704 0.0
C721 C 0.69715 0.58725 0.76716 0.0
C722 C 0.65063 0.5671 0.76888 0.0
C723 C 0.42529 0.35124 0.76788 0.0
C724 C 0.43473 0.34156 0.7886 0.0
C725 C 0.44786 0.39489 0.75992 0.0
C726 C 0.47995 0.42978 0.77259 0.0
C727 C 0.48898 0.42049 0.79342 0.0
C728 C 0.46642 0.37672 0.80142 0.0
C729 C 0.50419 0.47583 0.76386 0.0
C730 C 0.55106 0.49777 0.76227 0.0
C731 C 0.48096 0.49686 0.75583 0.0
C732 C 0.43178 0.47667 0.7583 0.0
C733 C 0.4116 0.4641 0.7788 0.0
C734 C 0.36526 0.44498 0.78102 0.0
C735 C 0.33877 0.4385 0.76287 0.0
C736 C 0.35857 0.45125 0.74246 0.0
C737 C 0.40489 0.47037 0.74016 0.0
H738 H 0.3029 0.4237 0.76462 0.0
H739 H 0.75403 0.61695 0.74574 0.0
H740 H 0.13158 0.41744 0.03044 0.0
H741 H 0.07867 0.44484 0.03425 0.0
H742 H 0.0477 0.39183 0.09909 0.0
H743 H 0.0984 0.36269 0.09509 0.0
H744 H 0.97715 0.38551 0.08287 0.0
H745 H 0.13112 0.50295 0.08769 0.0
H746 H 0.20862 0.54758 0.07411 0.0
H747 H 0.16227 0.59006 0.0197 0.0
H748 H 0.08442 0.54515 0.03272 0.0
H749 H 0.97607 0.59872 0.1215 0.0
H750 H 0.01858 0.56411 0.10786 0.0
H751 H 0.9032 0.46937 0.07161 0.0
H752 H 0.86017 0.50213 0.08617 0.0
H753 H 0.0457 0.54937 0.07144 0.0
H754 H 0.8933 0.36963 0.07145 0.0
H755 H 0.8209 0.32615 0.09032 0.0
H756 H 0.87366 0.41185 0.14553 0.0
H757 H 0.94645 0.45551 0.12706 0.0
C758 C 0.11247 0.4105 0.04526 0.0
C759 C 0.11969 0.38846 0.06256 0.0
C760 C 0.08257 0.42652 0.04749 0.0
C761 C 0.06025 0.42154 0.06719 0.0
C762 C 0.06474 0.39638 0.08379 0.0
C763 C 0.0939 0.37973 0.08145 0.0
C764 C 0.03524 0.44542 0.07142 0.0
C765 C 0.99198 0.42124 0.08014 0.0
C766 C 0.05508 0.49232 0.06852 0.0
C767 C 0.10195 0.52035 0.06104 0.0
C768 C 0.13746 0.52168 0.07278 0.0
C769 C 0.18141 0.54698 0.06519 0.0
C770 C 0.19031 0.57149 0.04605 0.0
C771 C 0.1553 0.57097 0.0345 0.0
C772 C 0.11127 0.54563 0.04197 0.0
C773 C 0.96009 0.57071 0.1105 0.0
C774 C 0.91481 0.55247 0.10514 0.0
C775 C 0.98434 0.55108 0.10265 0.0
C776 C 0.96377 0.51354 0.08906 0.0
C777 C 0.9194 0.49746 0.08254 0.0
C778 C 0.89489 0.51623 0.09083 0.0
C779 C 0.98759 0.48937 0.08284 0.0
C780 C 0.03061 0.51352 0.07381 0.0
C781 C 0.96839 0.44272 0.08637 0.0
C782 C 0.92508 0.41604 0.09779 0.0
C783 C 0.88946 0.37902 0.08765 0.0
C784 C 0.84836 0.3544 0.09826 0.0
C785 C 0.84265 0.36631 0.11909 0.0
C786 C 0.87808 0.40275 0.12938 0.0
C787 C 0.91924 0.42746 0.11884 0.0
H788 H 0.81078 0.34725 0.12726 0.0
H789 H 0.22435 0.59095 0.04018 0.0
H790 H 0.31189 0.83711 0.40671 0.0
H791 H 0.38251 0.89706 0.42001 0.0
H792 H 0.32889 0.98642 0.42102 0.0
H793 H 0.25664 0.92567 0.40797 0.0
H794 H 0.42042 0.01989 0.40144 0.0
H795 H 0.33638 0.95619 0.46536 0.0
H796 H 0.28804 0.89848 0.49173 0.0
H797 H 0.38591 0.85692 0.49831 0.0
H798 H 0.43411 0.91318 0.47145 0.0
H799 H 0.62392 0.16812 0.45715 0.0
H800 H 0.54423 0.12572 0.44861 0.0
H801 H 0.54946 0.00326 0.44875 0.0
H802 H 0.62924 0.04531 0.45725 0.0
H803 H 0.47621 -0.0024 0.47149 0.0
H804 H 0.5515 0.05002 0.40257 0.0
H805 H 0.60173 0.10796 0.37672 0.0
H806 H 0.52083 0.17039 0.38014 0.0
H807 H 0.47048 0.11314 0.4063 0.0
C808 C 0.31483 0.86947 0.40954 0.0
C809 C 0.27845 0.87654 0.4063 0.0
C810 C 0.35527 0.90363 0.41727 0.0
C811 C 0.36047 0.94572 0.42175 0.0
C812 C 0.32511 0.95384 0.41776 0.0
C813 C 0.28406 0.91924 0.41026 0.0
C814 C 0.40343 0.98056 0.43058 0.0
C815 C 0.43233 0.01587 0.41701 0.0
C816 C 0.41886 0.97443 0.45073 0.0
C817 C 0.38887 0.93892 0.46621 0.0
C818 C 0.3473 0.93425 0.47212 0.0
C819 C 0.3199 0.90179 0.48721 0.0
C820 C 0.33388 0.87405 0.4967 0.0
C821 C 0.37502 0.87833 0.49093 0.0
C822 C 0.40239 0.91049 0.47574 0.0
C823 C 0.60811 0.13212 0.45548 0.0
C824 C 0.63289 0.11001 0.45782 0.0
C825 C 0.56264 0.10806 0.45054 0.0
C826 C 0.54121 0.06153 0.44799 0.0
C827 C 0.56557 0.03924 0.45071 0.0
C828 C 0.61114 0.0633 0.45545 0.0
C829 C 0.49351 0.03585 0.44205 0.0
C830 C 0.46389 0.00226 0.45617 0.0
C831 C 0.47747 0.04342 0.42241 0.0
C832 C 0.50759 0.07768 0.40662 0.0
C833 C 0.54467 0.07635 0.39797 0.0
C834 C 0.57311 0.10902 0.38324 0.0
C835 C 0.56457 0.14294 0.37685 0.0
C836 C 0.52747 0.14416 0.38514 0.0
C837 C 0.49897 0.11162 0.39993 0.0
H838 H 0.58662 0.16819 0.36544 0.0
H839 H 0.313 0.84949 0.50864 0.0
H840 H 0.37907 0.21626 0.88041 0.0
H841 H 0.3513 0.23382 0.91289 0.0
H842 H 0.25 0.2419 0.87567 0.0
H843 H 0.27835 0.22516 0.84274 0.0
H844 H 0.28983 0.31125 0.90168 0.0
H845 H 0.22216 0.15392 0.91081 0.0
H846 H 0.21832 0.08057 0.91194 0.0
H847 H 0.31228 0.1255 0.96417 0.0
H848 H 0.31717 0.19936 0.96316 0.0
H849 H 0.19549 0.27655 0.02036 0.0
H850 H 0.20198 0.24541 0.98594 0.0
H851 H 0.32532 0.36745 0.97235 0.0
H852 H 0.31834 0.3992 0.00625 0.0
H853 H 0.25928 0.2255 0.97001 0.0
H854 H 0.33845 0.38875 0.91799 0.0
H855 H 0.33752 0.45962 0.91581 0.0
H856 H 0.21037 0.39878 0.94823 0.0
H857 H 0.20969 0.32697 0.94991 0.0
C858 C 0.35051 0.22119 0.87905 0.0
C859 C 0.33093 0.2192 0.85888 0.0
C860 C 0.33451 0.23107 0.89774 0.0
C861 C 0.29819 0.23869 0.89683 0.0
C862 C 0.278 0.23603 0.87679 0.0
C863 C 0.29414 0.22628 0.85799 0.0
C864 C 0.28328 0.25188 0.91666 0.0
C865 C 0.28284 0.29239 0.9166 0.0
C866 C 0.27325 0.2268 0.93604 0.0
C867 C 0.2702 0.18229 0.93682 0.0
C868 C 0.24221 0.14826 0.92245 0.0
C869 C 0.23982 0.10657 0.92308 0.0
C870 C 0.26508 0.0984 0.93809 0.0
C871 C 0.29272 0.13188 0.95255 0.0
C872 C 0.29526 0.17364 0.95198 0.0
C873 C 0.22403 0.29671 0.01005 0.0
C874 C 0.25623 0.34047 0.01602 0.0
C875 C 0.22769 0.27888 0.99036 0.0
C876 C 0.26368 0.30436 0.97631 0.0
C877 C 0.29659 0.34751 0.9826 0.0
C878 C 0.2927 0.36553 1.00211 0.0
C879 C 0.26738 0.28575 0.95524 0.0
C880 C 0.26574 0.2442 0.95507 0.0
C881 C 0.27476 0.3096 0.93557 0.0
C882 C 0.2743 0.35248 0.93429 0.0
C883 C 0.31012 0.39033 0.92454 0.0
C884 C 0.30989 0.43074 0.9234 0.0
C885 C 0.27411 0.43387 0.93205 0.0
C886 C 0.2382 0.3964 0.94164 0.0
C887 C 0.23806 0.35578 0.94265 0.0
H888 H 0.27412 0.46526 0.93125 0.0
H889 H 0.2632 0.0661 0.93855 0.0
H890 H 0.93538 0.22407 0.35462 0.0
H891 H 0.97806 0.24392 0.32103 0.0
H892 H 0.91836 0.10414 0.30477 0.0
H893 H 0.87682 0.08378 0.33876 0.0
H894 H 0.00556 0.14682 0.29589 0.0
H895 H 0.88286 0.1719 0.27887 0.0
H896 H 0.83323 0.20337 0.28456 0.0
H897 H 0.94674 0.33638 0.2839 0.0
H898 H -0.00299 0.30562 0.27781 0.0
H899 H 0.05799 0.16807 0.18427 0.0
H900 H 0.01921 0.15116 0.21903 0.0
H901 H 0.08338 0.29218 0.23334 0.0
H902 H 0.12257 0.30939 0.19865 0.0
H903 H -0.00384 0.25124 0.24377 0.0
H904 H 0.1182 0.22575 0.2572 0.0
H905 H 0.16714 0.19376 0.2507 0.0
H906 H 0.05527 0.06112 0.25902 0.0
H907 H 0.0055 0.0923 0.26527 0.0
C908 C 0.93162 0.19738 0.34409 0.0
C909 C 0.90218 0.15221 0.34948 0.0
C910 C 0.9557 0.2089 0.32469 0.0
C911 C 0.95091 0.17559 0.31015 0.0
C912 C 0.9224 0.13049 0.31564 0.0
C913 C 0.89829 0.11892 0.33504 0.0
C914 C 0.97585 0.18766 0.28929 0.0
C915 C 0.00304 0.16918 0.28437 0.0
C916 C 0.97365 0.21783 0.27448 0.0
C917 C 0.94365 0.23648 0.27807 0.0
C918 C 0.89722 0.20785 0.28002 0.0
C919 C 0.86898 0.22556 0.28326 0.0
C920 C 0.88683 0.27185 0.28477 0.0
C921 C 0.93296 0.30054 0.28278 0.0
C922 C 0.96132 0.283 0.2793 0.0
C923 C 0.06424 0.19551 0.19488 0.0
C924 C 0.09359 0.24011 0.18864 0.0
C925 C 0.04195 0.18578 0.21476 0.0
C926 C 0.04873 0.22036 0.22895 0.0
C927 C 0.07755 0.26492 0.22268 0.0
C928 C 0.09983 0.2747 0.20278 0.0
C929 C 0.02553 0.21 0.25025 0.0
C930 C -0.00122 0.22891 0.25528 0.0
C931 C 0.02818 0.18022 0.26518 0.0
C932 C 0.05804 0.16135 0.2615 0.0
C933 C 0.10396 0.18974 0.25748 0.0
C934 C 0.13186 0.17176 0.25387 0.0
C935 C 0.11431 0.12543 0.2544 0.0
C936 C 0.06882 0.097 0.25859 0.0
C937 C 0.04075 0.11481 0.26219 0.0
H938 H 0.13597 0.11157 0.2516 0.0
H939 H 0.86492 0.28548 0.2874 0.0
H940 H 0.59024 0.83225 0.65071 0.0
H941 H 0.61916 0.88127 0.61935 0.0
H942 H 0.72122 0.98475 0.65868 0.0
H943 H 0.69191 0.93595 0.69044 0.0
H944 H 0.68464 0.01957 0.63268 0.0
H945 H 0.74731 0.92458 0.62332 0.0
H946 H 0.74701 0.85298 0.6212 0.0
H947 H 0.6576 0.81334 0.5672 0.0
H948 H 0.65689 0.88447 0.56918 0.0
H949 H 0.79944 0.0917 0.51836 0.0
H950 H 0.78389 0.0464 0.55128 0.0
H951 H 0.66362 0.05315 0.56171 0.0
H952 H 0.67989 0.09962 0.52964 0.0
H953 H 0.72049 0.96859 0.56447 0.0
H954 H 0.6403 0.05572 0.61101 0.0
H955 H 0.6466 0.13038 0.61192 0.0
H956 H 0.78464 0.19165 0.59316 0.0
H957 H 0.77906 0.11748 0.59175 0.0
C958 C 0.6191 0.86527 0.65277 0.0
C959 C 0.63887 0.87994 0.67319 0.0
C960 C 0.63569 0.89331 0.63473 0.0
C961 C 0.67273 0.93661 0.63653 0.0
C962 C 0.69265 0.95146 0.65686 0.0
C963 C 0.67597 0.92339 0.67499 0.0
C964 C 0.68992 0.96638 0.61721 0.0
C965 C 0.6927 0.00846 0.61783 0.0
C966 C 0.70126 0.95246 0.59784 0.0
C967 C 0.70181 0.90974 0.5965 0.0
C968 C 0.72736 0.90047 0.61108 0.0
C969 C 0.7274 0.85999 0.60989 0.0
C970 C 0.70224 0.8286 0.5941 0.0
C971 C 0.67706 0.83768 0.57943 0.0
C972 C 0.67687 0.8781 0.58056 0.0
C973 C 0.7697 0.08341 0.5277 0.0
C974 C 0.74123 0.09971 0.52154 0.0
C975 C 0.76081 0.05754 0.54651 0.0
C976 C 0.72313 0.04722 0.55935 0.0
C977 C 0.6937 0.06183 0.55257 0.0
C978 C 0.70293 0.08822 0.53409 0.0
C979 C 0.71425 0.02124 0.57981 0.0
C980 C 0.71287 0.97985 0.57939 0.0
C981 C 0.70519 0.03623 0.59948 0.0
C982 C 0.70925 0.08106 0.6013 0.0
C983 C 0.67209 0.08517 0.60727 0.0
C984 C 0.67548 0.12735 0.60779 0.0
C985 C 0.71605 0.16567 0.60278 0.0
C986 C 0.75326 0.16193 0.59709 0.0
C987 C 0.74997 0.11985 0.59633 0.0
H988 H 0.71864 0.19827 0.60327 0.0
H989 H 0.70231 0.79727 0.59321 0.0
H990 H 0.69748 0.84323 0.86637 0.0
H991 H 0.71532 0.82454 0.90167 0.0
H992 H 0.7918 0.77208 0.87077 0.0
H993 H 0.77249 0.78923 0.83536 0.0
H994 H 0.74858 0.72068 0.90318 0.0
H995 H 0.84133 0.87977 0.89436 0.0
H996 H 0.85753 0.95688 0.88723 0.0
H997 H 0.77722 0.94962 0.94183 0.0
H998 H 0.76007 0.87223 0.94912 0.0
H999 H 0.88598 0.73736 0.99241 0.0
H1000 H 0.85928 0.74958 0.95788 0.0
H1001 H 0.76635 0.77754 0.99152 0.0
H1002 H 0.79306 0.76554 0.02616 0.0
H1003 H 0.81519 0.83979 0.95867 0.0
H1004 H 0.72654 0.67995 0.96801 0.0
H1005 H 0.71735 0.60558 0.97576 0.0
H1006 H 0.79631 0.61671 0.91994 0.0
H1007 H 0.80652 0.69144 0.91202 0.0
C1008 C 0.71819 0.82781 0.86714 0.0
C1009 C 0.73403 0.81814 0.84813 0.0
C1010 C 0.72842 0.81715 0.88732 0.0
C1011 C 0.75578 0.79775 0.88898 0.0
C1012 C 0.77074 0.78712 0.86997 0.0
C1013 C 0.75981 0.79703 0.84974 0.0
C1014 C 0.76967 0.78956 0.9105 0.0
C1015 C 0.76353 0.74691 0.91519 0.0
C1016 C 0.7886 0.82346 0.92643 0.0
C1017 C 0.79906 0.87007 0.92215 0.0
C1018 C 0.82689 0.89453 0.90476 0.0
C1019 C 0.83627 0.93829 0.9007 0.0
C1020 C 0.81832 0.95809 0.91403 0.0
C1021 C 0.79105 0.93422 0.93149 0.0
C1022 C 0.78151 0.89042 0.93561 0.0
C1023 C 0.86007 0.7464 0.99245 0.0
C1024 C 0.84163 0.75052 0.012 0.0
C1025 C 0.84462 0.75303 0.97272 0.0
C1026 C 0.81058 0.76411 0.97215 0.0
C1027 C 0.79252 0.76886 0.99162 0.0
C1028 C 0.80765 0.76178 0.01137 0.0
C1029 C 0.79423 0.77119 0.95119 0.0
C1030 C 0.79996 0.81359 0.94664 0.0
C1031 C 0.77545 0.73727 0.93534 0.0
C1032 C 0.7677 0.69152 0.93955 0.0
C1033 C 0.74213 0.66664 0.95744 0.0
C1034 C 0.73678 0.62445 0.96189 0.0
C1035 C 0.75658 0.60664 0.94846 0.0
C1036 C 0.7812 0.63067 0.93039 0.0
C1037 C 0.78672 0.67292 0.92589 0.0
H1038 H 0.75272 0.57414 0.95201 0.0
H1039 H 0.82561 0.99198 0.91086 0.0
H1040 H 0.15402 0.77148 0.32089 0.0
H1041 H 0.11496 0.76036 0.28679 0.0
H1042 H 0.01429 0.77933 0.3187 0.0
H1043 H 0.05258 0.78933 0.35309 0.0
H1044 H 0.97668 0.70544 0.29662 0.0
H1045 H 0.08706 0.85589 0.28117 0.0
H1046 H 0.16307 0.92115 0.27821 0.0
H1047 H 0.1978 0.85201 0.23124 0.0
H1048 H 0.12218 0.78608 0.23413 0.0
H1049 H 0.9249 0.72637 0.17592 0.0
H1050 H 0.96597 0.76101 0.20905 0.0
H1051 H 0.95218 0.63471 0.22898 0.0
H1052 H 0.91066 0.5997 0.19617 0.0
H1053 H 0.0426 0.77257 0.22552 0.0
H1054 H 0.93765 0.62425 0.28443 0.0
H1055 H 0.86066 0.56168 0.28863 0.0
H1056 H 0.81184 0.63103 0.2495 0.0
H1057 H 0.88844 0.69499 0.24583 0.0
C1058 C 0.12402 0.77412 0.32064 0.0
C1059 C 0.10617 0.78085 0.33978 0.0
C1060 C 0.10184 0.76801 0.30106 0.0
C1061 C 0.06178 0.76922 0.30016 0.0
C1062 C 0.04512 0.7782 0.31904 0.0
C1063 C 0.06709 0.78397 0.33868 0.0
C1064 C 0.035 0.75632 0.28008 0.0
C1065 C 0.99097 0.72036 0.28109 0.0
C1066 C 0.0535 0.77622 0.25987 0.0
C1067 C 0.09897 0.81592 0.25797 0.0
C1068 C 0.11098 0.85448 0.27031 0.0
C1069 C 0.15399 0.89162 0.26863 0.0
C1070 C 0.18526 0.8907 0.25457 0.0
C1071 C 0.17355 0.85267 0.24212 0.0
C1072 C 0.13058 0.81543 0.24375 0.0
C1073 C 0.93071 0.70598 0.18732 0.0
C1074 C 0.91411 0.66014 0.18348 0.0
C1075 C 0.95424 0.72586 0.20622 0.0
C1076 C 0.96149 0.70027 0.22161 0.0
C1077 C 0.94616 0.65487 0.21751 0.0
C1078 C 0.9225 0.63493 0.1987 0.0
C1079 C 0.98484 0.72078 0.24206 0.0
C1080 C 0.02816 0.75805 0.24109 0.0
C1081 C 0.9655 0.70237 0.26238 0.0
C1082 C 0.91902 0.66427 0.26463 0.0
C1083 C 0.91051 0.62632 0.27681 0.0
C1084 C 0.86687 0.59056 0.2791 0.0
C1085 C 0.83136 0.59212 0.26915 0.0
C1086 C 0.8394 0.62973 0.25709 0.0
C1087 C 0.88295 0.66583 0.25495 0.0
H1088 H 0.79761 0.56427 0.27086 0.0
H1089 H 0.21855 0.91948 0.25329 0.0
H1090 H 0.27406 0.13337 0.66608 0.0
H1091 H 0.26006 0.09893 0.63041 0.0
H1092 H 0.19728 0.9679 0.65991 0.0
H1093 H 0.21243 0.00249 0.69576 0.0
H1094 H 0.24565 0.96954 0.62633 0.0
H1095 H 0.13507 0.01259 0.63838 0.0
H1096 H 0.10688 0.06367 0.64766 0.0
H1097 H 0.17935 0.14869 0.59418 0.0
H1098 H 0.20849 0.09842 0.58476 0.0
H1099 H 0.11812 0.85118 0.53308 0.0
H1100 H 0.1415 0.88438 0.56901 0.0
H1101 H 0.22387 0.01423 0.53999 0.0
H1102 H 0.20084 0.98112 0.50399 0.0
H1103 H 0.16585 0.01199 0.57313 0.0
H1104 H 0.27395 0.9654 0.56064 0.0
H1105 H 0.29887 0.91174 0.5513 0.0
H1106 H 0.22642 0.8296 0.60555 0.0
H1107 H 0.20045 0.88246 0.61504 0.0
C1108 C 0.25724 0.09722 0.66495 0.0
C1109 C 0.24382 0.07058 0.68367 0.0
C1110 C 0.24923 0.07754 0.64456 0.0
C1111 C 0.22675 0.03073 0.64241 0.0
C1112 C 0.21454 0.00406 0.66113 0.0
C1113 C 0.22312 0.02382 0.68159 0.0
C1114 C 0.21484 0.00981 0.62065 0.0
C1115 C 0.22771 0.97842 0.61481 0.0
C1116 C 0.19194 0.02176 0.60543 0.0
C1117 C 0.17429 0.05196 0.61099 0.0
C1118 C 0.14524 0.04234 0.62869 0.0
C1119 C 0.12906 0.07113 0.63396 0.0
C1120 C 0.14141 0.10946 0.62155 0.0
C1121 C 0.16987 0.11902 0.6038 0.0
C1122 C 0.1862 0.09038 0.59847 0.0
C1123 C 0.14125 0.8868 0.5344 0.0
C1124 C 0.15756 0.91368 0.5158 0.0
C1125 C 0.15479 0.90563 0.55489 0.0
C1126 C 0.18453 0.9517 0.55712 0.0
C1127 C 0.20097 0.97858 0.53857 0.0
C1128 C 0.18795 0.95966 0.51807 0.0
C1129 C 0.19694 0.97215 0.57883 0.0
C1130 C 0.18391 0.00327 0.58467 0.0
C1131 C 0.21919 0.95953 0.59404 0.0
C1132 C 0.23492 0.92774 0.58845 0.0
C1133 C 0.26299 0.93571 0.57048 0.0
C1134 C 0.27738 0.90548 0.56518 0.0
C1135 C 0.26425 0.8673 0.57783 0.0
C1136 C 0.23661 0.85923 0.59579 0.0
C1137 C 0.22207 0.88934 0.60114 0.0
H1138 H 0.27558 0.84403 0.57375 0.0
H1139 H 0.12884 0.1317 0.62566 0.0
loop_
_geom_bond_atom_site_label_1
_geom_bond_atom_site_label_2
_geom_bond_distance
_geom_bond_site_symmetry_2
_ccdc_geom_bond_type
Tb0 C9 2.764 . S
Tb0 O10 2.325 . S
Tb0 O13 2.303 . S
Tb0 O17 2.322 . S
Tb0 O18 2.349 . S
Tb0 O21 2.415 . S
Tb0 O22 2.399 . S
Tb1 O11 2.322 . S
Tb1 O12 2.349 . S
Tb1 O14 2.415 . S
Tb1 O15 2.399 . S
Tb1 O16 2.325 . S
Tb1 O19 2.303 . S
Tb1 C30 2.764 . S
C2 O18 1.261 . S
C2 O19 1.257 . S
C3 C6 1.358 . S
C3 C7 1.332 . S
C3 C9 1.504 . S
C4 C5 1.373 . S
C4 C8 1.308 . S
C5 C4 1.373 . S
C5 C6 1.429 . S
C5 H32 0.932 . S
C6 C3 1.358 . S
C6 C5 1.429 . S
C6 H33 0.930 . S
C7 C3 1.332 . S
C7 C8 1.394 . S
C7 H34 0.932 . S
C8 C4 1.308 . S
C8 C7 1.394 . S
C8 H35 0.929 . S
C9 Tb0 2.764 . S
C9 C3 1.504 . S
C9 O21 1.239 . S
C9 O22 1.263 . S
O10 Tb0 2.325 . S
O10 C20 1.236 . S
O11 Tb1 2.322 . S
O11 C20 1.257 . S
O12 Tb1 2.349 . S
O12 C23 1.261 . S
O13 Tb0 2.303 . S
O13 C23 1.257 . S
O14 Tb1 2.415 . S
O14 C30 1.239 . S
O15 Tb1 2.399 . S
O15 C30 1.263 . S
O16 Tb1 2.325 . S
O16 C31 1.236 . S
O17 Tb0 2.322 . S
O17 C31 1.257 . S
O18 Tb0 2.349 . S
O18 C2 1.261 . S
O19 Tb1 2.303 . S
O19 C2 1.257 . S
C20 O10 1.236 . S
C20 O11 1.257 . S
O21 Tb0 2.415 . S
O21 C9 1.239 . S
O22 Tb0 2.399 . S
O22 C9 1.263 . S
C23 O12 1.261 . S
C23 O13 1.257 . S
C24 C27 1.358 . S
C24 C28 1.332 . S
C24 C30 1.504 1_556 S
C25 C26 1.373 . S
C25 C29 1.308 . S
C26 C25 1.373 . S
C26 C27 1.429 . S
C26 H36 0.932 . S
C27 C24 1.358 . S
C27 C26 1.429 . S
C27 H37 0.930 . S
C28 C24 1.332 . S
C28 C29 1.394 . S
C28 H38 0.932 . S
C29 C25 1.308 . S
C29 C28 1.394 . S
C29 H39 0.929 . S
C30 Tb1 2.764 . S
C30 O14 1.239 . S
C30 O15 1.263 . S
C30 C24 1.504 1_554 S
C31 O16 1.236 . S
C31 O17 1.257 . S
H32 C5 0.932 . S
H33 C6 0.930 . S
H34 C7 0.932 . S
H35 C8 0.929 . S
H36 C26 0.932 . S
H37 C27 0.930 . S
H38 C28 0.932 . S
H39 C29 0.929 . S
Tb40 C49 2.764 . S
Tb40 O50 2.325 . S
Tb40 O53 2.303 . S
Tb40 O57 2.322 . S
Tb40 O58 2.349 . S
Tb40 O61 2.415 . S
Tb40 O62 2.399 . S
Tb41 O51 2.322 . S
Tb41 O52 2.349 . S
Tb41 O54 2.415 . S
Tb41 O55 2.399 . S
Tb41 O56 2.325 . S
Tb41 O59 2.303 . S
Tb41 C70 2.764 . S
C42 O58 1.261 . S
C42 O59 1.257 . S
C43 C46 1.358 . S
C43 C47 1.332 . S
C43 C49 1.504 . S
C44 C45 1.373 . S
C44 C48 1.308 . S
C45 C44 1.373 . S
C45 C46 1.429 . S
C45 H72 0.932 . S
C46 C43 1.358 . S
C46 C45 1.429 . S
C46 H73 0.930 . S
C47 C43 1.332 . S
C47 C48 1.394 . S
C47 H74 0.932 . S
C48 C44 1.308 . S
C48 C47 1.394 . S
C48 H75 0.929 . S
C49 Tb40 2.764 . S
C49 C43 1.504 . S
C49 O61 1.239 . S
C49 O62 1.263 . S
O50 Tb40 2.325 . S
O50 C60 1.236 . S
O51 Tb41 2.322 . S
O51 C60 1.257 . S
O52 Tb41 2.349 . S
O52 C63 1.261 . S
O53 Tb40 2.303 . S
O53 C63 1.257 . S
O54 Tb41 2.415 . S
O54 C70 1.239 . S
O55 Tb41 2.399 . S
O55 C70 1.263 . S
O56 Tb41 2.325 . S
O56 C71 1.236 . S
O57 Tb40 2.322 . S
O57 C71 1.257 . S
O58 Tb40 2.349 . S
O58 C42 1.261 . S
O59 Tb41 2.303 . S
O59 C42 1.257 . S
C60 O50 1.236 . S
C60 O51 1.257 . S
O61 Tb40 2.415 . S
O61 C49 1.239 . S
O62 Tb40 2.399 . S
O62 C49 1.263 . S
C63 O52 1.261 . S
C63 O53 1.257 . S
C64 C67 1.358 . S
C64 C68 1.332 . S
C64 C70 1.504 . S
C65 C66 1.373 . S
C65 C69 1.308 . S
C66 C65 1.373 . S
C66 C67 1.429 . S
C66 H76 0.932 . S
C67 C64 1.358 . S
C67 C66 1.429 . S
C67 H77 0.930 . S
C68 C64 1.332 . S
C68 C69 1.394 . S
C68 H78 0.932 . S
C69 C65 1.308 . S
C69 C68 1.394 . S
C69 H79 0.929 . S
C70 Tb41 2.764 . S
C70 O54 1.239 . S
C70 O55 1.263 . S
C70 C64 1.504 . S
C71 O56 1.236 . S
C71 O57 1.257 . S
H72 C45 0.932 . S
H73 C46 0.930 . S
H74 C47 0.932 . S
H75 C48 0.929 . S
H76 C66 0.932 . S
H77 C67 0.930 . S
H78 C68 0.932 . S
H79 C69 0.929 . S
Tb80 C89 2.764 . S
Tb80 O90 2.325 . S
Tb80 O93 2.303 . S
Tb80 O97 2.322 . S
Tb80 O98 2.349 . S
Tb80 O101 2.415 . S
Tb80 O102 2.399 . S
Tb81 O91 2.322 . S
Tb81 O92 2.349 . S
Tb81 O94 2.415 . S
Tb81 O95 2.399 . S
Tb81 O96 2.325 . S
Tb81 O99 2.303 . S
Tb81 C110 2.764 . S
C82 O98 1.261 . S
C82 O99 1.257 . S
C83 C86 1.358 . S
C83 C87 1.332 . S
C83 C89 1.504 . S
C84 C85 1.373 . S
C84 C88 1.308 . S
C85 C84 1.373 . S
C85 C86 1.429 . S
C85 H112 0.932 . S
C86 C83 1.358 . S
C86 C85 1.429 . S
C86 H113 0.930 . S
C87 C83 1.332 . S
C87 C88 1.394 . S
C87 H114 0.932 . S
C88 C84 1.308 . S
C88 C87 1.394 . S
C88 H115 0.929 . S
C89 Tb80 2.764 . S
C89 C83 1.504 . S
C89 O101 1.239 . S
C89 O102 1.263 . S
O90 Tb80 2.325 . S
O90 C100 1.236 . S
O91 Tb81 2.322 . S
O91 C100 1.257 . S
O92 Tb81 2.349 . S
O92 C103 1.261 . S
O93 Tb80 2.303 . S
O93 C103 1.257 . S
O94 Tb81 2.415 . S
O94 C110 1.239 . S
O95 Tb81 2.399 . S
O95 C110 1.263 . S
O96 Tb81 2.325 . S
O96 C111 1.236 . S
O97 Tb80 2.322 . S
O97 C111 1.257 . S
O98 Tb80 2.349 . S
O98 C82 1.261 . S
O99 Tb81 2.303 . S
O99 C82 1.257 . S
C100 O90 1.236 . S
C100 O91 1.257 . S
O101 Tb80 2.415 . S
O101 C89 1.239 . S
O102 Tb80 2.399 . S
O102 C89 1.263 . S
C103 O92 1.261 . S
C103 O93 1.257 . S
C104 C107 1.358 . S
C104 C108 1.332 . S
C104 C110 1.504 . S
C105 C106 1.373 . S
C105 C109 1.308 . S
C106 C105 1.373 . S
C106 C107 1.429 . S
C106 H116 0.932 . S
C107 C104 1.358 . S
C107 C106 1.429 . S
C107 H117 0.930 . S
C108 C104 1.332 . S
C108 C109 1.394 . S
C108 H118 0.932 . S
C109 C105 1.308 . S
C109 C108 1.394 . S
C109 H119 0.929 . S
C110 Tb81 2.764 . S
C110 O94 1.239 . S
C110 O95 1.263 . S
C110 C104 1.504 . S
C111 O96 1.236 . S
C111 O97 1.257 . S
H112 C85 0.932 . S
H113 C86 0.930 . S
H114 C87 0.932 . S
H115 C88 0.929 . S
H116 C106 0.932 . S
H117 C107 0.930 . S
H118 C108 0.932 . S
H119 C109 0.929 . S
Tb120 C129 2.764 . S
Tb120 O130 2.325 . S
Tb120 O133 2.303 . S
Tb120 O137 2.322 . S
Tb120 O138 2.349 . S
Tb120 O141 2.415 . S
Tb120 O142 2.399 . S
Tb121 O131 2.322 . S
Tb121 O132 2.349 . S
Tb121 O134 2.415 . S
Tb121 O135 2.399 . S
Tb121 O136 2.325 . S
Tb121 O139 2.303 . S
Tb121 C150 2.764 . S
C122 O138 1.261 . S
C122 O139 1.257 . S
C123 C126 1.358 . S
C123 C127 1.332 . S
C123 C129 1.504 . S
C124 C125 1.373 . S
C124 C128 1.308 . S
C125 C124 1.373 . S
C125 C126 1.429 . S
C125 H152 0.932 . S
C126 C123 1.358 . S
C126 C125 1.429 . S
C126 H153 0.930 . S
C127 C123 1.332 . S
C127 C128 1.394 . S
C127 H154 0.932 . S
C128 C124 1.308 . S
C128 C127 1.394 . S
C128 H155 0.929 . S
C129 Tb120 2.764 . S
C129 C123 1.504 . S
C129 O141 1.239 . S
C129 O142 1.263 . S
O130 Tb120 2.325 . S
O130 C140 1.236 . S
O131 Tb121 2.322 . S
O131 C140 1.257 . S
O132 Tb121 2.349 . S
O132 C143 1.261 . S
O133 Tb120 2.303 . S
O133 C143 1.257 . S
O134 Tb121 2.415 . S
O134 C150 1.239 . S
O135 Tb121 2.399 . S
O135 C150 1.263 . S
O136 Tb121 2.325 . S
O136 C151 1.236 . S
O137 Tb120 2.322 . S
O137 C151 1.257 . S
O138 Tb120 2.349 . S
O138 C122 1.261 . S
O139 Tb121 2.303 . S
O139 C122 1.257 . S
C140 O130 1.236 . S
C140 O131 1.257 . S
O141 Tb120 2.415 . S
O141 C129 1.239 . S
O142 Tb120 2.399 . S
O142 C129 1.263 . S
C143 O132 1.261 . S
C143 O133 1.257 . S
C144 C147 1.358 . S
C144 C148 1.332 . S
C144 C150 1.504 . S
C145 C146 1.373 . S
C145 C149 1.308 . S
C146 C145 1.373 . S
C146 C147 1.429 . S
C146 H156 0.932 . S
C147 C144 1.358 . S
C147 C146 1.429 . S
C147 H157 0.930 . S
C148 C144 1.332 . S
C148 C149 1.394 . S
C148 H158 0.932 . S
C149 C145 1.308 . S
C149 C148 1.394 . S
C149 H159 0.929 . S
C150 Tb121 2.764 . S
C150 O134 1.239 . S
C150 O135 1.263 . S
C150 C144 1.504 . S
C151 O136 1.236 . S
C151 O137 1.257 . S
H152 C125 0.932 . S
H153 C126 0.930 . S
H154 C127 0.932 . S
H155 C128 0.929 . S
H156 C146 0.932 . S
H157 C147 0.930 . S
H158 C148 0.932 . S
H159 C149 0.929 . S
Tb160 C169 2.764 . S
Tb160 O170 2.325 . S
Tb160 O173 2.303 . S
Tb160 O177 2.322 . S
Tb160 O178 2.349 . S
Tb160 O181 2.415 . S
Tb160 O182 2.399 . S
Tb161 O171 2.322 . S
Tb161 O172 2.349 . S
Tb161 O174 2.415 . S
Tb161 O175 2.399 . S
Tb161 O176 2.325 . S
Tb161 O179 2.303 . S
Tb161 C190 2.764 . S
C162 O178 1.261 . S
C162 O179 1.257 . S
C163 C166 1.358 . S
C163 C167 1.332 . S
C163 C169 1.504 . S
C164 C165 1.373 . S
C164 C168 1.308 . S
C165 C164 1.373 . S
C165 C166 1.429 . S
C165 H192 0.932 . S
C166 C163 1.358 . S
C166 C165 1.429 . S
C166 H193 0.930 . S
C167 C163 1.332 . S
C167 C168 1.394 . S
C167 H194 0.932 . S
C168 C164 1.308 . S
C168 C167 1.394 . S
C168 H195 0.929 . S
C169 Tb160 2.764 . S
C169 C163 1.504 . S
C169 O181 1.239 . S
C169 O182 1.263 . S
O170 Tb160 2.325 . S
O170 C180 1.236 . S
O171 Tb161 2.322 . S
O171 C180 1.257 . S
O172 Tb161 2.349 . S
O172 C183 1.261 . S
O173 Tb160 2.303 . S
O173 C183 1.257 . S
O174 Tb161 2.415 . S
O174 C190 1.239 . S
O175 Tb161 2.399 . S
O175 C190 1.263 . S
O176 Tb161 2.325 . S
O176 C191 1.236 . S
O177 Tb160 2.322 . S
O177 C191 1.257 . S
O178 Tb160 2.349 . S
O178 C162 1.261 . S
O179 Tb161 2.303 . S
O179 C162 1.257 . S
C180 O170 1.236 . S
C180 O171 1.257 . S
O181 Tb160 2.415 . S
O181 C169 1.239 . S
O182 Tb160 2.399 . S
O182 C169 1.263 . S
C183 O172 1.261 . S
C183 O173 1.257 . S
C184 C187 1.358 . S
C184 C188 1.332 . S
C184 C190 1.504 . S
C185 C186 1.373 . S
C185 C189 1.308 . S
C186 C185 1.373 . S
C186 C187 1.429 . S
C186 H196 0.932 . S
C187 C184 1.358 . S
C187 C186 1.429 . S
C187 H197 0.930 . S
C188 C184 1.332 . S
C188 C189 1.394 . S
C188 H198 0.932 . S
C189 C185 1.308 . S
C189 C188 1.394 . S
C189 H199 0.929 . S
C190 Tb161 2.764 . S
C190 O174 1.239 . S
C190 O175 1.263 . S
C190 C184 1.504 . S
C191 O176 1.236 . S
C191 O177 1.257 . S
H192 C165 0.932 . S
H193 C166 0.930 . S
H194 C167 0.932 . S
H195 C168 0.929 . S
H196 C186 0.932 . S
H197 C187 0.930 . S
H198 C188 0.932 . S
H199 C189 0.929 . S
Tb200 C209 2.764 . S
Tb200 O210 2.325 . S
Tb200 O213 2.303 . S
Tb200 O217 2.322 . S
Tb200 O218 2.349 . S
Tb200 O221 2.415 . S
Tb200 O222 2.399 . S
Tb201 O211 2.322 . S
Tb201 O212 2.349 . S
Tb201 O214 2.415 . S
Tb201 O215 2.399 . S
Tb201 O216 2.325 . S
Tb201 O219 2.303 . S
Tb201 C230 2.764 . S
C202 O218 1.261 . S
C202 O219 1.257 . S
C203 C206 1.358 . S
C203 C207 1.332 . S
C203 C209 1.504 . S
C204 C205 1.373 . S
C204 C208 1.308 . S
C205 C204 1.373 . S
C205 C206 1.429 . S
C205 H232 0.932 . S
C206 C203 1.358 . S
C206 C205 1.429 . S
C206 H233 0.930 . S
C207 C203 1.332 . S
C207 C208 1.394 . S
C207 H234 0.932 . S
C208 C204 1.308 . S
C208 C207 1.394 . S
C208 H235 0.929 . S
C209 Tb200 2.764 . S
C209 C203 1.504 . S
C209 O221 1.239 . S
C209 O222 1.263 . S
O210 Tb200 2.325 . S
O210 C220 1.236 . S
O211 Tb201 2.322 . S
O211 C220 1.257 . S
O212 Tb201 2.349 . S
O212 C223 1.261 . S
O213 Tb200 2.303 . S
O213 C223 1.257 . S
O214 Tb201 2.415 . S
O214 C230 1.239 . S
O215 Tb201 2.399 . S
O215 C230 1.263 . S
O216 Tb201 2.325 . S
O216 C231 1.236 . S
O217 Tb200 2.322 . S
O217 C231 1.257 . S
O218 Tb200 2.349 . S
O218 C202 1.261 . S
O219 Tb201 2.303 . S
O219 C202 1.257 . S
C220 O210 1.236 . S
C220 O211 1.257 . S
O221 Tb200 2.415 . S
O221 C209 1.239 . S
O222 Tb200 2.399 . S
O222 C209 1.263 . S
C223 O212 1.261 . S
C223 O213 1.257 . S
C224 C227 1.358 . S
C224 C228 1.332 . S
C224 C230 1.504 . S
C225 C226 1.373 . S
C225 C229 1.308 . S
C226 C225 1.373 . S
C226 C227 1.429 . S
C226 H236 0.932 . S
C227 C224 1.358 . S
C227 C226 1.429 . S
C227 H237 0.930 . S
C228 C224 1.332 . S
C228 C229 1.394 . S
C228 H238 0.932 . S
C229 C225 1.308 . S
C229 C228 1.394 . S
C229 H239 0.929 . S
C230 Tb201 2.764 . S
C230 O214 1.239 . S
C230 O215 1.263 . S
C230 C224 1.504 . S
C231 O216 1.236 . S
C231 O217 1.257 . S
H232 C205 0.932 . S
H233 C206 0.930 . S
H234 C207 0.932 . S
H235 C208 0.929 . S
H236 C226 0.932 . S
H237 C227 0.930 . S
H238 C228 0.932 . S
H239 C229 0.929 . S
H240 C258 0.951 . S
H241 C260 0.951 . S
H242 C262 0.950 . S
H243 C263 0.950 . S
H244 C265 0.950 . S
H245 C268 0.950 . S
H246 C269 0.950 . S
H247 C271 0.950 . S
H248 C272 0.950 . S
H249 C273 0.951 . S
H250 C275 0.951 . S
H251 C277 0.950 . S
H252 C278 0.950 . S
H253 C280 0.950 . S
H254 C283 0.950 . S
H255 C284 0.950 . S
H256 C286 0.950 . S
H257 C287 0.950 . S
C258 H240 0.951 . S
C258 C259 1.366 . S
C258 C260 1.388 . S
C259 C258 1.366 . S
C259 C263 1.385 . S
C260 H241 0.951 . S
C260 C258 1.388 . S
C260 C261 1.366 . S
C261 C260 1.366 . S
C261 C262 1.414 . S
C261 C264 1.499 . S
C262 H242 0.950 . S
C262 C261 1.414 . S
C262 C263 1.374 . S
C263 H243 0.950 . S
C263 C259 1.385 . S
C263 C262 1.374 . S
C264 C261 1.499 . S
C264 C265 1.373 . S
C264 C266 1.389 . S
C265 H244 0.950 . S
C265 C264 1.373 . S
C265 C281 1.377 . S
C266 C264 1.389 . S
C266 C267 1.524 . S
C266 C280 1.377 . S
C267 C266 1.524 . S
C267 C268 1.397 . S
C267 C272 1.363 . S
C268 H245 0.950 . S
C268 C267 1.397 . S
C268 C269 1.334 . S
C269 H246 0.950 . S
C269 C268 1.334 . S
C269 C270 1.287 . S
C270 C269 1.287 . S
C270 C271 1.524 . S
C270 H289 0.913 . S
C271 H247 0.950 . S
C271 C270 1.524 . S
C271 C272 1.415 . S
C272 H248 0.950 . S
C272 C267 1.363 . S
C272 C271 1.415 . S
C273 H249 0.951 . S
C273 C274 1.366 . S
C273 C275 1.388 . S
C274 C273 1.366 . S
C274 C278 1.385 . S
C275 H250 0.951 . S
C275 C273 1.388 . S
C275 C276 1.366 . S
C276 C275 1.366 . S
C276 C277 1.414 . S
C276 C279 1.499 . S
C277 H251 0.950 . S
C277 C276 1.414 . S
C277 C278 1.374 . S
C278 H252 0.950 . S
C278 C274 1.385 . S
C278 C277 1.374 . S
C279 C276 1.499 . S
C279 C280 1.373 . S
C279 C281 1.389 . S
C280 H253 0.950 . S
C280 C266 1.377 . S
C280 C279 1.373 . S
C281 C265 1.377 . S
C281 C279 1.389 . S
C281 C282 1.524 . S
C282 C281 1.524 . S
C282 C283 1.397 . S
C282 C287 1.363 . S
C283 H254 0.950 . S
C283 C282 1.397 . S
C283 C284 1.334 . S
C284 H255 0.950 . S
C284 C283 1.334 . S
C284 C285 1.287 . S
C285 C284 1.287 . S
C285 C286 1.524 . S
C285 H288 0.999 . S
C286 H256 0.950 . S
C286 C285 1.524 . S
C286 C287 1.415 . S
C287 H257 0.950 . S
C287 C282 1.363 . S
C287 C286 1.415 . S
H288 C285 0.999 . S
H289 C270 0.913 . S
H290 C308 0.951 . S
H291 C310 0.951 . S
H292 C312 0.950 . S
H293 C313 0.950 . S
H294 C315 0.950 . S
H295 C318 0.950 . S
H296 C319 0.950 . S
H297 C321 0.950 . S
H298 C322 0.950 . S
H299 C323 0.951 . S
H300 C325 0.951 . S
H301 C327 0.950 . S
H302 C328 0.950 . S
H303 C330 0.950 . S
H304 C333 0.950 . S
H305 C334 0.950 . S
H306 C336 0.950 . S
H307 C337 0.950 . S
C308 H290 0.951 . S
C308 C309 1.366 . S
C308 C310 1.388 . S
C309 C308 1.366 . S
C309 C313 1.385 . S
C310 H291 0.951 . S
C310 C308 1.388 . S
C310 C311 1.366 . S
C311 C310 1.366 . S
C311 C312 1.414 . S
C311 C314 1.499 . S
C312 H292 0.950 . S
C312 C311 1.414 . S
C312 C313 1.374 . S
C313 H293 0.950 . S
C313 C309 1.385 . S
C313 C312 1.374 . S
C314 C311 1.499 . S
C314 C315 1.373 . S
C314 C316 1.389 . S
C315 H294 0.950 . S
C315 C314 1.373 . S
C315 C331 1.377 . S
C316 C314 1.389 . S
C316 C317 1.524 . S
C316 C330 1.377 . S
C317 C316 1.524 . S
C317 C318 1.397 . S
C317 C322 1.363 . S
C318 H295 0.950 . S
C318 C317 1.397 . S
C318 C319 1.334 . S
C319 H296 0.950 . S
C319 C318 1.334 . S
C319 C320 1.287 . S
C320 C319 1.287 . S
C320 C321 1.524 . S
C320 H339 0.913 . S
C321 H297 0.950 . S
C321 C320 1.524 . S
C321 C322 1.415 . S
C322 H298 0.950 . S
C322 C317 1.363 . S
C322 C321 1.415 . S
C323 H299 0.951 . S
C323 C324 1.366 . S
C323 C325 1.388 . S
C324 C323 1.366 . S
C324 C328 1.385 . S
C325 H300 0.951 . S
C325 C323 1.388 . S
C325 C326 1.366 . S
C326 C325 1.366 . S
C326 C327 1.414 . S
C326 C329 1.499 . S
C327 H301 0.950 . S
C327 C326 1.414 . S
C327 C328 1.374 . S
C328 H302 0.950 . S
C328 C324 1.385 . S
C328 C327 1.374 . S
C329 C326 1.499 . S
C329 C330 1.373 . S
C329 C331 1.389 . S
C330 H303 0.950 . S
C330 C316 1.377 . S
C330 C329 1.373 . S
C331 C315 1.377 . S
C331 C329 1.389 . S
C331 C332 1.524 . S
C332 C331 1.524 . S
C332 C333 1.397 . S
C332 C337 1.363 . S
C333 H304 0.950 . S
C333 C332 1.397 . S
C333 C334 1.334 . S
C334 H305 0.950 . S
C334 C333 1.334 . S
C334 C335 1.287 . S
C335 C334 1.287 . S
C335 C336 1.524 . S
C335 H338 0.999 . S
C336 H306 0.950 . S
C336 C335 1.524 . S
C336 C337 1.415 . S
C337 H307 0.950 . S
C337 C332 1.363 . S
C337 C336 1.415 . S
H338 C335 0.999 . S
H339 C320 0.913 . S
H340 C358 0.951 . S
H341 C360 0.951 . S
H342 C362 0.950 . S
H343 C363 0.950 . S
H344 C365 0.950 . S
H345 C368 0.950 . S
H346 C369 0.950 . S
H347 C371 0.950 . S
H348 C372 0.950 . S
H349 C373 0.951 . S
H350 C375 0.951 . S
H351 C377 0.950 . S
H352 C378 0.950 . S
H353 C380 0.950 . S
H354 C383 0.950 . S
H355 C384 0.950 . S
H356 C386 0.950 . S
H357 C387 0.950 . S
C358 H340 0.951 . S
C358 C359 1.366 . S
C358 C360 1.388 . S
C359 C358 1.366 . S
C359 C363 1.385 . S
C360 H341 0.951 . S
C360 C358 1.388 . S
C360 C361 1.366 . S
C361 C360 1.366 . S
C361 C362 1.414 . S
C361 C364 1.499 . S
C362 H342 0.950 . S
C362 C361 1.414 . S
C362 C363 1.374 . S
C363 H343 0.950 . S
C363 C359 1.385 . S
C363 C362 1.374 . S
C364 C361 1.499 . S
C364 C365 1.373 . S
C364 C366 1.389 . S
C365 H344 0.950 . S
C365 C364 1.373 . S
C365 C381 1.377 . S
C366 C364 1.389 . S
C366 C367 1.524 . S
C366 C380 1.377 . S
C367 C366 1.524 . S
C367 C368 1.397 . S
C367 C372 1.363 . S
C368 H345 0.950 . S
C368 C367 1.397 . S
C368 C369 1.334 . S
C369 H346 0.950 . S
C369 C368 1.334 . S
C369 C370 1.287 . S
C370 C369 1.287 . S
C370 C371 1.524 . S
C370 H389 0.913 . S
C371 H347 0.950 . S
C371 C370 1.524 . S
C371 C372 1.415 . S
C372 H348 0.950 . S
C372 C367 1.363 . S
C372 C371 1.415 . S
C373 H349 0.951 . S
C373 C374 1.366 . S
C373 C375 1.388 . S
C374 C373 1.366 . S
C374 C378 1.385 . S
C375 H350 0.951 . S
C375 C373 1.388 . S
C375 C376 1.366 . S
C376 C375 1.366 . S
C376 C377 1.414 . S
C376 C379 1.499 . S
C377 H351 0.950 . S
C377 C376 1.414 . S
C377 C378 1.374 . S
C378 H352 0.950 . S
C378 C374 1.385 . S
C378 C377 1.374 . S
C379 C376 1.499 . S
C379 C380 1.373 . S
C379 C381 1.389 . S
C380 H353 0.950 . S
C380 C366 1.377 . S
C380 C379 1.373 . S
C381 C365 1.377 . S
C381 C379 1.389 . S
C381 C382 1.524 . S
C382 C381 1.524 . S
C382 C383 1.397 . S
C382 C387 1.363 . S
C383 H354 0.950 . S
C383 C382 1.397 . S
C383 C384 1.334 . S
C384 H355 0.950 . S
C384 C383 1.334 . S
C384 C385 1.287 . S
C385 C384 1.287 . S
C385 C386 1.524 . S
C385 H388 0.999 . S
C386 H356 0.950 . S
C386 C385 1.524 . S
C386 C387 1.415 . S
C387 H357 0.950 . S
C387 C382 1.363 . S
C387 C386 1.415 . S
H388 C385 0.999 . S
H389 C370 0.913 . S
H390 C408 0.951 . S
H391 C410 0.951 . S
H392 C412 0.950 . S
H393 C413 0.950 . S
H394 C415 0.950 . S
H395 C418 0.950 . S
H396 C419 0.950 . S
H397 C421 0.950 . S
H398 C422 0.950 . S
H399 C423 0.951 . S
H400 C425 0.951 . S
H401 C427 0.950 . S
H402 C428 0.950 . S
H403 C430 0.950 . S
H404 C433 0.950 . S
H405 C434 0.950 . S
H406 C436 0.950 . S
H407 C437 0.950 . S
C408 H390 0.951 . S
C408 C409 1.366 . S
C408 C410 1.388 . S
C409 C408 1.366 . S
C409 C413 1.385 . S
C410 H391 0.951 . S
C410 C408 1.388 . S
C410 C411 1.366 . S
C411 C410 1.366 . S
C411 C412 1.414 . S
C411 C414 1.499 . S
C412 H392 0.950 . S
C412 C411 1.414 . S
C412 C413 1.374 . S
C413 H393 0.950 . S
C413 C409 1.385 . S
C413 C412 1.374 . S
C414 C411 1.499 . S
C414 C415 1.373 . S
C414 C416 1.389 . S
C415 H394 0.950 . S
C415 C414 1.373 . S
C415 C431 1.377 . S
C416 C414 1.389 . S
C416 C417 1.524 . S
C416 C430 1.377 . S
C417 C416 1.524 . S
C417 C418 1.397 . S
C417 C422 1.363 . S
C418 H395 0.950 . S
C418 C417 1.397 . S
C418 C419 1.334 . S
C419 H396 0.950 . S
C419 C418 1.334 . S
C419 C420 1.287 . S
C420 C419 1.287 . S
C420 C421 1.524 . S
C420 H439 0.913 . S
C421 H397 0.950 . S
C421 C420 1.524 . S
C421 C422 1.415 . S
C422 H398 0.950 . S
C422 C417 1.363 . S
C422 C421 1.415 . S
C423 H399 0.951 . S
C423 C424 1.366 . S
C423 C425 1.388 . S
C424 C423 1.366 . S
C424 C428 1.385 . S
C425 H400 0.951 . S
C425 C423 1.388 . S
C425 C426 1.366 . S
C426 C425 1.366 . S
C426 C427 1.414 . S
C426 C429 1.499 . S
C427 H401 0.950 . S
C427 C426 1.414 . S
C427 C428 1.374 . S
C428 H402 0.950 . S
C428 C424 1.385 . S
C428 C427 1.374 . S
C429 C426 1.499 . S
C429 C430 1.373 . S
C429 C431 1.389 . S
C430 H403 0.950 . S
C430 C416 1.377 . S
C430 C429 1.373 . S
C431 C415 1.377 . S
C431 C429 1.389 . S
C431 C432 1.524 . S
C432 C431 1.524 . S
C432 C433 1.397 . S
C432 C437 1.363 . S
C433 H404 0.950 . S
C433 C432 1.397 . S
C433 C434 1.334 . S
C434 H405 0.950 . S
C434 C433 1.334 . S
C434 C435 1.287 . S
C435 C434 1.287 . S
C435 C436 1.524 . S
C435 H438 0.999 . S
C436 H406 0.950 . S
C436 C435 1.524 . S
C436 C437 1.415 . S
C437 H407 0.950 . S
C437 C432 1.363 . S
C437 C436 1.415 . S
H438 C435 0.999 . S
H439 C420 0.913 . S
H440 C458 0.951 . S
H441 C460 0.951 . S
H442 C462 0.950 . S
H443 C463 0.950 . S
H444 C465 0.950 . S
H445 C468 0.950 . S
H446 C469 0.950 . S
H447 C471 0.950 . S
H448 C472 0.950 . S
H449 C473 0.951 . S
H450 C475 0.951 . S
H451 C477 0.950 . S
H452 C478 0.950 . S
H453 C480 0.950 . S
H454 C483 0.950 . S
H455 C484 0.950 . S
H456 C486 0.950 . S
H457 C487 0.950 . S
C458 H440 0.951 . S
C458 C459 1.366 . S
C458 C460 1.388 . S
C459 C458 1.366 . S
C459 C463 1.385 . S
C460 H441 0.951 . S
C460 C458 1.388 . S
C460 C461 1.366 . S
C461 C460 1.366 . S
C461 C462 1.414 . S
C461 C464 1.499 . S
C462 H442 0.950 . S
C462 C461 1.414 . S
C462 C463 1.374 . S
C463 H443 0.950 . S
C463 C459 1.385 . S
C463 C462 1.374 . S
C464 C461 1.499 . S
C464 C465 1.373 . S
C464 C466 1.389 . S
C465 H444 0.950 . S
C465 C464 1.373 . S
C465 C481 1.377 . S
C466 C464 1.389 . S
C466 C467 1.524 . S
C466 C480 1.377 . S
C467 C466 1.524 . S
C467 C468 1.397 . S
C467 C472 1.363 . S
C468 H445 0.950 . S
C468 C467 1.397 . S
C468 C469 1.334 . S
C469 H446 0.950 . S
C469 C468 1.334 . S
C469 C470 1.287 . S
C470 C469 1.287 . S
C470 C471 1.524 . S
C470 H489 0.913 . S
C471 H447 0.950 . S
C471 C470 1.524 . S
C471 C472 1.415 . S
C472 H448 0.950 . S
C472 C467 1.363 . S
C472 C471 1.415 . S
C473 H449 0.951 . S
C473 C474 1.366 . S
C473 C475 1.388 . S
C474 C473 1.366 . S
C474 C478 1.385 . S
C475 H450 0.951 . S
C475 C473 1.388 . S
C475 C476 1.366 . S
C476 C475 1.366 . S
C476 C477 1.414 . S
C476 C479 1.499 . S
C477 H451 0.950 . S
C477 C476 1.414 . S
C477 C478 1.374 . S
C478 H452 0.950 . S
C478 C474 1.385 . S
C478 C477 1.374 . S
C479 C476 1.499 . S
C479 C480 1.373 . S
C479 C481 1.389 . S
C480 H453 0.950 . S
C480 C466 1.377 . S
C480 C479 1.373 . S
C481 C465 1.377 . S
C481 C479 1.389 . S
C481 C482 1.524 . S
C482 C481 1.524 . S
C482 C483 1.397 . S
C482 C487 1.363 . S
C483 H454 0.950 . S
C483 C482 1.397 . S
C483 C484 1.334 . S
C484 H455 0.950 . S
C484 C483 1.334 . S
C484 C485 1.287 . S
C485 C484 1.287 . S
C485 C486 1.524 . S
C485 H488 0.999 . S
C486 H456 0.950 . S
C486 C485 1.524 . S
C486 C487 1.415 . S
C487 H457 0.950 . S
C487 C482 1.363 . S
C487 C486 1.415 . S
H488 C485 0.999 . S
H489 C470 0.913 . S
H490 C508 0.951 . S
H491 C510 0.951 . S
H492 C512 0.950 . S
H493 C513 0.950 . S
H494 C515 0.950 . S
H495 C518 0.950 . S
H496 C519 0.950 . S
H497 C521 0.950 . S
H498 C522 0.950 . S
H499 C523 0.951 . S
H500 C525 0.951 . S
H501 C527 0.950 . S
H502 C528 0.950 . S
H503 C530 0.950 . S
H504 C533 0.950 . S
H505 C534 0.950 . S
H506 C536 0.950 . S
H507 C537 0.950 . S
C508 H490 0.951 . S
C508 C509 1.366 . S
C508 C510 1.388 . S
C509 C508 1.366 . S
C509 C513 1.385 . S
C510 H491 0.951 . S
C510 C508 1.388 . S
C510 C511 1.366 . S
C511 C510 1.366 . S
C511 C512 1.414 . S
C511 C514 1.499 . S
C512 H492 0.950 . S
C512 C511 1.414 . S
C512 C513 1.374 . S
C513 H493 0.950 . S
C513 C509 1.385 . S
C513 C512 1.374 . S
C514 C511 1.499 . S
C514 C515 1.373 1_554 S
C514 C516 1.389 . S
C515 H494 0.950 . S
C515 C514 1.373 1_556 S
C515 C531 1.377 . S
C516 C514 1.389 . S
C516 C517 1.524 . S
C516 C530 1.377 1_554 S
C517 C516 1.524 . S
C517 C518 1.397 . S
C517 C522 1.363 . S
C518 H495 0.950 . S
C518 C517 1.397 . S
C518 C519 1.334 . S
C519 H496 0.950 . S
C519 C518 1.334 . S
C519 C520 1.287 . S
C520 C519 1.287 . S
C520 C521 1.524 . S
C520 H539 0.913 . S
C521 H497 0.950 . S
C521 C520 1.524 . S
C521 C522 1.415 . S
C522 H498 0.950 . S
C522 C517 1.363 . S
C522 C521 1.415 . S
C523 H499 0.951 . S
C523 C524 1.366 . S
C523 C525 1.388 . S
C524 C523 1.366 . S
C524 C528 1.385 . S
C525 H500 0.951 . S
C525 C523 1.388 . S
C525 C526 1.366 . S
C526 C525 1.366 . S
C526 C527 1.414 . S
C526 C529 1.499 . S
C527 H501 0.950 . S
C527 C526 1.414 . S
C527 C528 1.374 . S
C528 H502 0.950 . S
C528 C524 1.385 . S
C528 C527 1.374 . S
C529 C526 1.499 . S
C529 C530 1.373 . S
C529 C531 1.389 . S
C530 H503 0.950 . S
C530 C516 1.377 1_556 S
C530 C529 1.373 . S
C531 C515 1.377 . S
C531 C529 1.389 . S
C531 C532 1.524 . S
C532 C531 1.524 . S
C532 C533 1.397 . S
C532 C537 1.363 . S
C533 H504 0.950 . S
C533 C532 1.397 . S
C533 C534 1.334 . S
C534 H505 0.950 . S
C534 C533 1.334 . S
C534 C535 1.287 . S
C535 C534 1.287 . S
C535 C536 1.524 . S
C535 H538 0.999 . S
C536 H506 0.950 . S
C536 C535 1.524 . S
C536 C537 1.415 . S
C537 H507 0.950 . S
C537 C532 1.363 . S
C537 C536 1.415 . S
H538 C535 0.999 . S
H539 C520 0.913 . S
H540 C558 0.951 . S
H541 C560 0.951 . S
H542 C562 0.950 . S
H543 C563 0.950 . S
H544 C565 0.950 . S
H545 C568 0.950 . S
H546 C569 0.950 . S
H547 C571 0.950 . S
H548 C572 0.950 . S
H549 C573 0.951 . S
H550 C575 0.951 . S
H551 C577 0.950 . S
H552 C578 0.950 . S
H553 C580 0.950 . S
H554 C583 0.950 . S
H555 C584 0.950 . S
H556 C586 0.950 . S
H557 C587 0.950 . S
C558 H540 0.951 . S
C558 C559 1.366 . S
C558 C560 1.388 . S
C559 C558 1.366 . S
C559 C563 1.385 . S
C560 H541 0.951 . S
C560 C558 1.388 . S
C560 C561 1.366 . S
C561 C560 1.366 . S
C561 C562 1.414 . S
C561 C564 1.499 . S
C562 H542 0.950 . S
C562 C561 1.414 . S
C562 C563 1.374 . S
C563 H543 0.950 . S
C563 C559 1.385 . S
C563 C562 1.374 . S
C564 C561 1.499 . S
C564 C565 1.373 . S
C564 C566 1.389 . S
C565 H544 0.950 . S
C565 C564 1.373 . S
C565 C581 1.377 . S
C566 C564 1.389 . S
C566 C567 1.524 . S
C566 C580 1.377 . S
C567 C566 1.524 . S
C567 C568 1.397 . S
C567 C572 1.363 . S
C568 H545 0.950 . S
C568 C567 1.397 . S
C568 C569 1.334 . S
C569 H546 0.950 . S
C569 C568 1.334 . S
C569 C570 1.287 . S
C570 C569 1.287 . S
C570 C571 1.524 . S
C570 H589 0.913 . S
C571 H547 0.950 . S
C571 C570 1.524 . S
C571 C572 1.415 . S
C572 H548 0.950 . S
C572 C567 1.363 . S
C572 C571 1.415 . S
C573 H549 0.951 . S
C573 C574 1.366 . S
C573 C575 1.388 . S
C574 C573 1.366 . S
C574 C578 1.385 . S
C575 H550 0.951 . S
C575 C573 1.388 . S
C575 C576 1.366 . S
C576 C575 1.366 . S
C576 C577 1.414 . S
C576 C579 1.499 . S
C577 H551 0.950 . S
C577 C576 1.414 . S
C577 C578 1.374 . S
C578 H552 0.950 . S
C578 C574 1.385 . S
C578 C577 1.374 . S
C579 C576 1.499 . S
C579 C580 1.373 . S
C579 C581 1.389 . S
C580 H553 0.950 . S
C580 C566 1.377 . S
C580 C579 1.373 . S
C581 C565 1.377 . S
C581 C579 1.389 . S
C581 C582 1.524 . S
C582 C581 1.524 . S
C582 C583 1.397 . S
C582 C587 1.363 . S
C583 H554 0.950 . S
C583 C582 1.397 . S
C583 C584 1.334 . S
C584 H555 0.950 . S
C584 C583 1.334 . S
C584 C585 1.287 . S
C585 C584 1.287 . S
C585 C586 1.524 . S
C585 H588 0.999 . S
C586 H556 0.950 . S
C586 C585 1.524 . S
C586 C587 1.415 . S
C587 H557 0.950 . S
C587 C582 1.363 . S
C587 C586 1.415 . S
H588 C585 0.999 . S
H589 C570 0.913 . S
H590 C608 0.951 . S
H591 C610 0.951 . S
H592 C612 0.950 . S
H593 C613 0.950 . S
H594 C615 0.950 . S
H595 C618 0.950 . S
H596 C619 0.950 . S
H597 C621 0.950 . S
H598 C622 0.950 . S
H599 C623 0.951 . S
H600 C625 0.951 . S
H601 C627 0.950 . S
H602 C628 0.950 . S
H603 C630 0.950 . S
H604 C633 0.950 . S
H605 C634 0.950 . S
H606 C636 0.950 . S
H607 C637 0.950 . S
C608 H590 0.951 . S
C608 C609 1.366 . S
C608 C610 1.388 . S
C609 C608 1.366 . S
C609 C613 1.385 . S
C610 H591 0.951 . S
C610 C608 1.388 . S
C610 C611 1.366 1_455 S
C611 C610 1.366 1_655 S
C611 C612 1.414 . S
C611 C614 1.499 . S
C612 H592 0.950 . S
C612 C611 1.414 . S
C612 C613 1.374 1_655 S
C613 H593 0.950 . S
C613 C609 1.385 . S
C613 C612 1.374 1_455 S
C614 C611 1.499 . S
C614 C615 1.373 . S
C614 C616 1.389 . S
C615 H594 0.950 . S
C615 C614 1.373 . S
C615 C631 1.377 . S
C616 C614 1.389 . S
C616 C617 1.524 . S
C616 C630 1.377 . S
C617 C616 1.524 . S
C617 C618 1.397 . S
C617 C622 1.363 . S
C618 H595 0.950 . S
C618 C617 1.397 . S
C618 C619 1.334 . S
C619 H596 0.950 . S
C619 C618 1.334 . S
C619 C620 1.287 . S
C620 C619 1.287 . S
C620 C621 1.524 . S
C620 H639 0.913 . S
C621 H597 0.950 . S
C621 C620 1.524 . S
C621 C622 1.415 . S
C622 H598 0.950 . S
C622 C617 1.363 . S
C622 C621 1.415 . S
C623 H599 0.951 . S
C623 C624 1.366 . S
C623 C625 1.388 . S
C624 C623 1.366 . S
C624 C628 1.385 . S
C625 H600 0.951 . S
C625 C623 1.388 . S
C625 C626 1.366 . S
C626 C625 1.366 . S
C626 C627 1.414 . S
C626 C629 1.499 . S
C627 H601 0.950 . S
C627 C626 1.414 . S
C627 C628 1.374 . S
C628 H602 0.950 . S
C628 C624 1.385 . S
C628 C627 1.374 . S
C629 C626 1.499 . S
C629 C630 1.373 . S
C629 C631 1.389 . S
C630 H603 0.950 . S
C630 C616 1.377 . S
C630 C629 1.373 . S
C631 C615 1.377 . S
C631 C629 1.389 . S
C631 C632 1.524 . S
C632 C631 1.524 . S
C632 C633 1.397 . S
C632 C637 1.363 . S
C633 H604 0.950 . S
C633 C632 1.397 . S
C633 C634 1.334 . S
C634 H605 0.950 . S
C634 C633 1.334 . S
C634 C635 1.287 . S
C635 C634 1.287 . S
C635 C636 1.524 . S
C635 H638 0.999 . S
C636 H606 0.950 . S
C636 C635 1.524 . S
C636 C637 1.415 . S
C637 H607 0.950 . S
C637 C632 1.363 . S
C637 C636 1.415 . S
H638 C635 0.999 . S
H639 C620 0.913 . S
H640 C658 0.951 . S
H641 C660 0.951 . S
H642 C662 0.950 . S
H643 C663 0.950 . S
H644 C665 0.950 . S
H645 C668 0.950 . S
H646 C669 0.950 . S
H647 C671 0.950 . S
H648 C672 0.950 . S
H649 C673 0.951 . S
H650 C675 0.951 . S
H651 C677 0.950 . S
H652 C678 0.950 1_545 S
H653 C680 0.950 . S
H654 C683 0.950 . S
H655 C684 0.950 . S
H656 C686 0.950 . S
H657 C687 0.950 . S
C658 H640 0.951 . S
C658 C659 1.366 . S
C658 C660 1.388 . S
C659 C658 1.366 . S
C659 C663 1.385 . S
C660 H641 0.951 . S
C660 C658 1.388 . S
C660 C661 1.366 . S
C661 C660 1.366 . S
C661 C662 1.414 . S
C661 C664 1.499 . S
C662 H642 0.950 . S
C662 C661 1.414 . S
C662 C663 1.374 . S
C663 H643 0.950 . S
C663 C659 1.385 . S
C663 C662 1.374 . S
C664 C661 1.499 . S
C664 C665 1.373 . S
C664 C666 1.389 . S
C665 H644 0.950 . S
C665 C664 1.373 . S
C665 C681 1.377 . S
C666 C664 1.389 . S
C666 C667 1.524 . S
C666 C680 1.377 . S
C667 C666 1.524 . S
C667 C668 1.397 . S
C667 C672 1.363 . S
C668 H645 0.950 . S
C668 C667 1.397 . S
C668 C669 1.334 . S
C669 H646 0.950 . S
C669 C668 1.334 . S
C669 C670 1.287 . S
C670 C669 1.287 . S
C670 C671 1.524 . S
C670 H689 0.913 . S
C671 H647 0.950 . S
C671 C670 1.524 . S
C671 C672 1.415 . S
C672 H648 0.950 . S
C672 C667 1.363 . S
C672 C671 1.415 . S
C673 H649 0.951 . S
C673 C674 1.366 . S
C673 C675 1.388 . S
C674 C673 1.366 . S
C674 C678 1.385 . S
C675 H650 0.951 . S
C675 C673 1.388 . S
C675 C676 1.366 1_565 S
C676 C675 1.366 1_545 S
C676 C677 1.414 . S
C676 C679 1.499 . S
C677 H651 0.950 . S
C677 C676 1.414 . S
C677 C678 1.374 1_545 S
C678 H652 0.950 1_565 S
C678 C674 1.385 . S
C678 C677 1.374 1_565 S
C679 C676 1.499 . S
C679 C680 1.373 . S
C679 C681 1.389 . S
C680 H653 0.950 . S
C680 C666 1.377 . S
C680 C679 1.373 . S
C681 C665 1.377 . S
C681 C679 1.389 . S
C681 C682 1.524 1_545 S
C682 C681 1.524 1_565 S
C682 C683 1.397 . S
C682 C687 1.363 . S
C683 H654 0.950 . S
C683 C682 1.397 . S
C683 C684 1.334 . S
C684 H655 0.950 . S
C684 C683 1.334 . S
C684 C685 1.287 . S
C685 C684 1.287 . S
C685 C686 1.524 . S
C685 H688 0.999 . S
C686 H656 0.950 . S
C686 C685 1.524 . S
C686 C687 1.415 . S
C687 H657 0.950 . S
C687 C682 1.363 . S
C687 C686 1.415 . S
H688 C685 0.999 . S
H689 C670 0.913 . S
H690 C708 0.951 . S
H691 C710 0.951 . S
H692 C712 0.950 . S
H693 C713 0.950 . S
H694 C715 0.950 . S
H695 C718 0.950 . S
H696 C719 0.950 . S
H697 C721 0.950 . S
H698 C722 0.950 . S
H699 C723 0.951 . S
H700 C725 0.951 . S
H701 C727 0.950 . S
H702 C728 0.950 . S
H703 C730 0.950 . S
H704 C733 0.950 . S
H705 C734 0.950 . S
H706 C736 0.950 . S
H707 C737 0.950 . S
C708 H690 0.951 . S
C708 C709 1.366 . S
C708 C710 1.388 . S
C709 C708 1.366 . S
C709 C713 1.385 . S
C710 H691 0.951 . S
C710 C708 1.388 . S
C710 C711 1.366 . S
C711 C710 1.366 . S
C711 C712 1.414 . S
C711 C714 1.499 . S
C712 H692 0.950 . S
C712 C711 1.414 . S
C712 C713 1.374 . S
C713 H693 0.950 . S
C713 C709 1.385 . S
C713 C712 1.374 . S
C714 C711 1.499 . S
C714 C715 1.373 . S
C714 C716 1.389 . S
C715 H694 0.950 . S
C715 C714 1.373 . S
C715 C731 1.377 . S
C716 C714 1.389 . S
C716 C717 1.524 . S
C716 C730 1.377 . S
C717 C716 1.524 . S
C717 C718 1.397 . S
C717 C722 1.363 . S
C718 H695 0.950 . S
C718 C717 1.397 . S
C718 C719 1.334 . S
C719 H696 0.950 . S
C719 C718 1.334 . S
C719 C720 1.287 . S
C720 C719 1.287 . S
C720 C721 1.524 . S
C720 H739 0.913 . S
C721 H697 0.950 . S
C721 C720 1.524 . S
C721 C722 1.415 . S
C722 H698 0.950 . S
C722 C717 1.363 . S
C722 C721 1.415 . S
C723 H699 0.951 . S
C723 C724 1.366 . S
C723 C725 1.388 . S
C724 C723 1.366 . S
C724 C728 1.385 . S
C725 H700 0.951 . S
C725 C723 1.388 . S
C725 C726 1.366 . S
C726 C725 1.366 . S
C726 C727 1.414 . S
C726 C729 1.499 . S
C727 H701 0.950 . S
C727 C726 1.414 . S
C727 C728 1.374 . S
C728 H702 0.950 . S
C728 C724 1.385 . S
C728 C727 1.374 . S
C729 C726 1.499 . S
C729 C730 1.373 . S
C729 C731 1.389 . S
C730 H703 0.950 . S
C730 C716 1.377 . S
C730 C729 1.373 . S
C731 C715 1.377 . S
C731 C729 1.389 . S
C731 C732 1.524 . S
C732 C731 1.524 . S
C732 C733 1.397 . S
C732 C737 1.363 . S
C733 H704 0.950 . S
C733 C732 1.397 . S
C733 C734 1.334 . S
C734 H705 0.950 . S
C734 C733 1.334 . S
C734 C735 1.287 . S
C735 C734 1.287 . S
C735 C736 1.524 . S
C735 H738 0.999 . S
C736 H706 0.950 . S
C736 C735 1.524 . S
C736 C737 1.415 . S
C737 H707 0.950 . S
C737 C732 1.363 . S
C737 C736 1.415 . S
H738 C735 0.999 . S
H739 C720 0.913 . S
H740 C758 0.951 . S
H741 C760 0.951 . S
H742 C762 0.950 . S
H743 C763 0.950 . S
H744 C765 0.950 . S
H745 C768 0.950 . S
H746 C769 0.950 . S
H747 C771 0.950 1_556 S
H748 C772 0.950 . S
H749 C773 0.951 . S
H750 C775 0.951 . S
H751 C777 0.950 . S
H752 C778 0.950 . S
H753 C780 0.950 . S
H754 C783 0.950 . S
H755 C784 0.950 . S
H756 C786 0.950 . S
H757 C787 0.950 . S
C758 H740 0.951 . S
C758 C759 1.366 . S
C758 C760 1.388 . S
C759 C758 1.366 . S
C759 C763 1.385 . S
C760 H741 0.951 . S
C760 C758 1.388 . S
C760 C761 1.366 . S
C761 C760 1.366 . S
C761 C762 1.414 . S
C761 C764 1.499 . S
C762 H742 0.950 . S
C762 C761 1.414 . S
C762 C763 1.374 . S
C763 H743 0.950 . S
C763 C759 1.385 . S
C763 C762 1.374 . S
C764 C761 1.499 . S
C764 C765 1.373 . S
C764 C766 1.389 . S
C765 H744 0.950 . S
C765 C764 1.373 . S
C765 C781 1.377 . S
C766 C764 1.389 . S
C766 C767 1.524 . S
C766 C780 1.377 . S
C767 C766 1.524 . S
C767 C768 1.397 . S
C767 C772 1.363 . S
C768 H745 0.950 . S
C768 C767 1.397 . S
C768 C769 1.334 . S
C769 H746 0.950 . S
C769 C768 1.334 . S
C769 C770 1.287 . S
C770 C769 1.287 . S
C770 C771 1.524 . S
C770 H789 0.913 1_554 S
C771 H747 0.950 1_554 S
C771 C770 1.524 . S
C771 C772 1.415 . S
C772 H748 0.950 . S
C772 C767 1.363 . S
C772 C771 1.415 . S
C773 H749 0.951 . S
C773 C774 1.366 . S
C773 C775 1.388 1_655 S
C774 C773 1.366 . S
C774 C778 1.385 . S
C775 H750 0.951 . S
C775 C773 1.388 1_455 S
C775 C776 1.366 . S
C776 C775 1.366 . S
C776 C777 1.414 1_455 S
C776 C779 1.499 . S
C777 H751 0.950 . S
C777 C776 1.414 1_655 S
C777 C778 1.374 . S
C778 H752 0.950 . S
C778 C774 1.385 . S
C778 C777 1.374 . S
C779 C776 1.499 . S
C779 C780 1.373 . S
C779 C781 1.389 . S
C780 H753 0.950 . S
C780 C766 1.377 . S
C780 C779 1.373 . S
C781 C765 1.377 . S
C781 C779 1.389 . S
C781 C782 1.524 . S
C782 C781 1.524 . S
C782 C783 1.397 1_455 S
C782 C787 1.363 . S
C783 H754 0.950 . S
C783 C782 1.397 1_655 S
C783 C784 1.334 . S
C784 H755 0.950 . S
C784 C783 1.334 . S
C784 C785 1.287 . S
C785 C784 1.287 . S
C785 C786 1.524 1_655 S
C785 H788 0.999 . S
C786 H756 0.950 . S
C786 C785 1.524 1_455 S
C786 C787 1.415 . S
C787 H757 0.950 . S
C787 C782 1.363 . S
C787 C786 1.415 . S
H788 C785 0.999 . S
H789 C770 0.913 1_556 S
H790 C808 0.951 . S
H791 C810 0.951 . S
H792 C812 0.950 . S
H793 C813 0.950 . S
H794 C815 0.950 . S
H795 C818 0.950 . S
H796 C819 0.950 . S
H797 C821 0.950 . S
H798 C822 0.950 . S
H799 C823 0.951 . S
H800 C825 0.951 . S
H801 C827 0.950 . S
H802 C828 0.950 . S
H803 C830 0.950 . S
H804 C833 0.950 . S
H805 C834 0.950 . S
H806 C836 0.950 . S
H807 C837 0.950 1_545 S
C808 H790 0.951 . S
C808 C809 1.366 . S
C808 C810 1.388 . S
C809 C808 1.366 . S
C809 C813 1.385 . S
C810 H791 0.951 . S
C810 C808 1.388 . S
C810 C811 1.366 . S
C811 C810 1.366 . S
C811 C812 1.414 . S
C811 C814 1.499 . S
C812 H792 0.950 . S
C812 C811 1.414 . S
C812 C813 1.374 . S
C813 H793 0.950 . S
C813 C809 1.385 . S
C813 C812 1.374 . S
C814 C811 1.499 . S
C814 C815 1.373 . S
C814 C816 1.389 . S
C815 H794 0.950 . S
C815 C814 1.373 . S
C815 C831 1.377 . S
C816 C814 1.389 . S
C816 C817 1.524 . S
C816 C830 1.377 . S
C817 C816 1.524 . S
C817 C818 1.397 . S
C817 C822 1.363 . S
C818 H795 0.950 . S
C818 C817 1.397 . S
C818 C819 1.334 . S
C819 H796 0.950 . S
C819 C818 1.334 . S
C819 C820 1.287 . S
C820 C819 1.287 . S
C820 C821 1.524 . S
C820 H839 0.913 . S
C821 H797 0.950 . S
C821 C820 1.524 . S
C821 C822 1.415 . S
C822 H798 0.950 . S
C822 C817 1.363 . S
C822 C821 1.415 . S
C823 H799 0.951 . S
C823 C824 1.366 . S
C823 C825 1.388 . S
C824 C823 1.366 . S
C824 C828 1.385 1_545 S
C825 H800 0.951 . S
C825 C823 1.388 . S
C825 C826 1.366 1_545 S
C826 C825 1.366 1_565 S
C826 C827 1.414 . S
C826 C829 1.499 . S
C827 H801 0.950 . S
C827 C826 1.414 . S
C827 C828 1.374 . S
C828 H802 0.950 . S
C828 C824 1.385 1_565 S
C828 C827 1.374 . S
C829 C826 1.499 . S
C829 C830 1.373 . S
C829 C831 1.389 . S
C830 H803 0.950 . S
C830 C816 1.377 . S
C830 C829 1.373 . S
C831 C815 1.377 . S
C831 C829 1.389 . S
C831 C832 1.524 . S
C832 C831 1.524 . S
C832 C833 1.397 . S
C832 C837 1.363 . S
C833 H804 0.950 . S
C833 C832 1.397 . S
C833 C834 1.334 . S
C834 H805 0.950 . S
C834 C833 1.334 . S
C834 C835 1.287 . S
C835 C834 1.287 . S
C835 C836 1.524 1_565 S
C835 H838 0.999 . S
C836 H806 0.950 . S
C836 C835 1.524 1_545 S
C836 C837 1.415 1_545 S
C837 H807 0.950 1_565 S
C837 C832 1.363 . S
C837 C836 1.415 1_565 S
H838 C835 0.999 . S
H839 C820 0.913 . S
H840 C858 0.951 . S
H841 C860 0.951 . S
H842 C862 0.950 . S
H843 C863 0.950 . S
H844 C865 0.950 . S
H845 C868 0.950 . S
H846 C869 0.950 . S
H847 C871 0.950 . S
H848 C872 0.950 . S
H849 C873 0.946 1_554 S
H850 C875 0.951 . S
H851 C877 0.950 . S
H852 C878 0.950 . S
H853 C880 0.950 . S
H854 C883 0.950 . S
H855 C884 0.950 . S
H856 C886 0.950 . S
H857 C887 0.950 . S
C858 H840 0.951 . S
C858 C859 1.366 . S
C858 C860 1.388 . S
C859 C858 1.366 . S
C859 C863 1.385 . S
C860 H841 0.951 . S
C860 C858 1.388 . S
C860 C861 1.366 . S
C861 C860 1.366 . S
C861 C862 1.414 . S
C861 C864 1.499 . S
C862 H842 0.950 . S
C862 C861 1.414 . S
C862 C863 1.374 . S
C863 H843 0.950 . S
C863 C859 1.385 . S
C863 C862 1.374 . S
C864 C861 1.499 . S
C864 C865 1.373 . S
C864 C866 1.389 . S
C865 H844 0.950 . S
C865 C864 1.373 . S
C865 C881 1.377 . S
C866 C864 1.389 . S
C866 C867 1.524 . S
C866 C880 1.377 . S
C867 C866 1.524 . S
C867 C868 1.397 . S
C867 C872 1.363 . S
C868 H845 0.950 . S
C868 C867 1.397 . S
C868 C869 1.334 . S
C869 H846 0.950 . S
C869 C868 1.334 . S
C869 C870 1.287 . S
C870 C869 1.287 . S
C870 C871 1.524 . S
C870 H889 0.913 . S
C871 H847 0.950 . S
C871 C870 1.524 . S
C871 C872 1.415 . S
C872 H848 0.950 . S
C872 C867 1.363 . S
C872 C871 1.415 . S
C873 H849 0.946 1_556 S
C873 C874 1.366 1_556 S
C873 C875 1.388 . S
C874 C873 1.366 1_554 S
C874 C878 1.385 . S
C875 H850 0.951 . S
C875 C873 1.388 . S
C875 C876 1.366 . S
C876 C875 1.366 . S
C876 C877 1.414 . S
C876 C879 1.499 . S
C877 H851 0.950 . S
C877 C876 1.414 . S
C877 C878 1.374 1_556 S
C878 H852 0.950 . S
C878 C874 1.385 . S
C878 C877 1.374 1_554 S
C879 C876 1.499 . S
C879 C880 1.373 . S
C879 C881 1.389 . S
C880 H853 0.950 . S
C880 C866 1.377 . S
C880 C879 1.373 . S
C881 C865 1.377 . S
C881 C879 1.389 . S
C881 C882 1.524 . S
C882 C881 1.524 . S
C882 C883 1.397 . S
C882 C887 1.363 . S
C883 H854 0.950 . S
C883 C882 1.397 . S
C883 C884 1.334 . S
C884 H855 0.950 . S
C884 C883 1.334 . S
C884 C885 1.287 . S
C885 C884 1.287 . S
C885 C886 1.524 . S
C885 H888 0.999 . S
C886 H856 0.950 . S
C886 C885 1.524 . S
C886 C887 1.415 . S
C887 H857 0.950 . S
C887 C882 1.363 . S
C887 C886 1.415 . S
H888 C885 0.999 . S
H889 C870 0.913 . S
H890 C908 0.951 . S
H891 C910 0.951 . S
H892 C912 0.950 . S
H893 C913 0.950 . S
H894 C915 0.950 . S
H895 C918 0.950 . S
H896 C919 0.950 . S
H897 C921 0.950 . S
H898 C922 0.950 . S
H899 C923 0.951 . S
H900 C925 0.951 . S
H901 C927 0.950 . S
H902 C928 0.950 . S
H903 C930 0.950 . S
H904 C933 0.950 . S
H905 C934 0.950 . S
H906 C936 0.950 . S
H907 C937 0.950 . S
C908 H890 0.951 . S
C908 C909 1.366 . S
C908 C910 1.388 . S
C909 C908 1.366 . S
C909 C913 1.385 . S
C910 H891 0.951 . S
C910 C908 1.388 . S
C910 C911 1.366 . S
C911 C910 1.366 . S
C911 C912 1.414 . S
C911 C914 1.499 . S
C912 H892 0.950 . S
C912 C911 1.414 . S
C912 C913 1.374 . S
C913 H893 0.950 . S
C913 C909 1.385 . S
C913 C912 1.374 . S
C914 C911 1.499 . S
C914 C915 1.373 1_655 S
C914 C916 1.389 . S
C915 H894 0.950 . S
C915 C914 1.373 1_455 S
C915 C931 1.377 . S
C916 C914 1.389 . S
C916 C917 1.524 . S
C916 C930 1.377 . S
C917 C916 1.524 . S
C917 C918 1.397 . S
C917 C922 1.363 . S
C918 H895 0.950 . S
C918 C917 1.397 . S
C918 C919 1.334 . S
C919 H896 0.950 . S
C919 C918 1.334 . S
C919 C920 1.287 . S
C920 C919 1.287 . S
C920 C921 1.524 . S
C920 H939 0.913 . S
C921 H897 0.950 . S
C921 C920 1.524 . S
C921 C922 1.415 . S
C922 H898 0.950 . S
C922 C917 1.363 . S
C922 C921 1.415 . S
C923 H899 0.951 . S
C923 C924 1.366 . S
C923 C925 1.388 . S
C924 C923 1.366 . S
C924 C928 1.385 . S
C925 H900 0.951 . S
C925 C923 1.388 . S
C925 C926 1.366 . S
C926 C925 1.366 . S
C926 C927 1.414 . S
C926 C929 1.499 . S
C927 H901 0.950 . S
C927 C926 1.414 . S
C927 C928 1.374 . S
C928 H902 0.950 . S
C928 C924 1.385 . S
C928 C927 1.374 . S
C929 C926 1.499 . S
C929 C930 1.373 1_455 S
C929 C931 1.389 . S
C930 H903 0.950 . S
C930 C916 1.377 . S
C930 C929 1.373 1_655 S
C931 C915 1.377 . S
C931 C929 1.389 . S
C931 C932 1.524 . S
C932 C931 1.524 . S
C932 C933 1.397 . S
C932 C937 1.363 . S
C933 H904 0.950 . S
C933 C932 1.397 . S
C933 C934 1.334 . S
C934 H905 0.950 . S
C934 C933 1.334 . S
C934 C935 1.287 . S
C935 C934 1.287 . S
C935 C936 1.524 . S
C935 H938 0.999 . S
C936 H906 0.950 . S
C936 C935 1.524 . S
C936 C937 1.415 . S
C937 H907 0.950 . S
C937 C932 1.363 . S
C937 C936 1.415 . S
H938 C935 0.999 . S
H939 C920 0.913 . S
H940 C958 0.951 . S
H941 C960 0.951 . S
H942 C962 0.950 . S
H943 C963 0.950 . S
H944 C965 0.950 . S
H945 C968 0.950 . S
H946 C969 0.950 . S
H947 C971 0.950 . S
H948 C972 0.950 . S
H949 C973 0.951 . S
H950 C975 0.951 . S
H951 C977 0.957 . S
H952 C978 0.950 . S
H953 C980 0.950 . S
H954 C983 0.950 . S
H955 C984 0.950 . S
H956 C986 0.950 . S
H957 C987 0.950 . S
C958 H940 0.951 . S
C958 C959 1.366 . S
C958 C960 1.388 . S
C959 C958 1.366 . S
C959 C963 1.385 . S
C960 H941 0.951 . S
C960 C958 1.388 . S
C960 C961 1.366 . S
C961 C960 1.366 . S
C961 C962 1.414 . S
C961 C964 1.499 . S
C962 H942 0.950 . S
C962 C961 1.414 . S
C962 C963 1.374 . S
C963 H943 0.950 . S
C963 C959 1.385 . S
C963 C962 1.374 . S
C964 C961 1.499 . S
C964 C965 1.373 1_565 S
C964 C966 1.389 . S
C965 H944 0.950 . S
C965 C964 1.373 1_545 S
C965 C981 1.377 . S
C966 C964 1.389 . S
C966 C967 1.524 . S
C966 C980 1.377 . S
C967 C966 1.524 . S
C967 C968 1.397 . S
C967 C972 1.363 . S
C968 H945 0.950 . S
C968 C967 1.397 . S
C968 C969 1.334 . S
C969 H946 0.950 . S
C969 C968 1.334 . S
C969 C970 1.287 . S
C970 C969 1.287 . S
C970 C971 1.524 . S
C970 H989 0.913 . S
C971 H947 0.950 . S
C971 C970 1.524 . S
C971 C972 1.415 . S
C972 H948 0.950 . S
C972 C967 1.363 . S
C972 C971 1.415 . S
C973 H949 0.951 . S
C973 C974 1.366 . S
C973 C975 1.388 . S
C974 C973 1.366 . S
C974 C978 1.385 . S
C975 H950 0.951 . S
C975 C973 1.388 . S
C975 C976 1.366 . S
C976 C975 1.366 . S
C976 C977 1.414 . S
C976 C979 1.499 . S
C977 H951 0.957 . S
C977 C976 1.414 . S
C977 C978 1.374 . S
C978 H952 0.950 . S
C978 C974 1.385 . S
C978 C977 1.374 . S
C979 C976 1.499 . S
C979 C980 1.373 1_545 S
C979 C981 1.389 . S
C980 H953 0.950 . S
C980 C966 1.377 . S
C980 C979 1.373 1_565 S
C981 C965 1.377 . S
C981 C979 1.389 . S
C981 C982 1.524 . S
C982 C981 1.524 . S
C982 C983 1.397 . S
C982 C987 1.363 . S
C983 H954 0.950 . S
C983 C982 1.397 . S
C983 C984 1.334 . S
C984 H955 0.950 . S
C984 C983 1.334 . S
C984 C985 1.287 . S
C985 C984 1.287 . S
C985 C986 1.524 . S
C985 H988 0.999 . S
C986 H956 0.950 . S
C986 C985 1.524 . S
C986 C987 1.415 . S
C987 H957 0.950 . S
C987 C982 1.363 . S
C987 C986 1.415 . S
H988 C985 0.999 . S
H989 C970 0.913 . S
H990 C1008 0.951 . S
H991 C1010 0.951 . S
H992 C1012 0.950 . S
H993 C1013 0.950 . S
H994 C1015 0.950 . S
H995 C1018 0.950 . S
H996 C1019 0.950 . S
H997 C1021 0.950 . S
H998 C1022 0.950 . S
H999 C1023 0.951 . S
H1000 C1025 0.951 . S
H1001 C1027 0.950 . S
H1002 C1028 0.950 . S
H1003 C1030 0.950 . S
H1004 C1033 0.950 . S
H1005 C1034 0.950 . S
H1006 C1036 0.950 . S
H1007 C1037 0.950 . S
C1008 H990 0.951 . S
C1008 C1009 1.366 . S
C1008 C1010 1.388 . S
C1009 C1008 1.366 . S
C1009 C1013 1.385 . S
C1010 H991 0.951 . S
C1010 C1008 1.388 . S
C1010 C1011 1.366 . S
C1011 C1010 1.366 . S
C1011 C1012 1.414 . S
C1011 C1014 1.499 . S
C1012 H992 0.950 . S
C1012 C1011 1.414 . S
C1012 C1013 1.374 . S
C1013 H993 0.950 . S
C1013 C1009 1.385 . S
C1013 C1012 1.374 . S
C1014 C1011 1.499 . S
C1014 C1015 1.373 . S
C1014 C1016 1.389 . S
C1015 H994 0.950 . S
C1015 C1014 1.373 . S
C1015 C1031 1.377 . S
C1016 C1014 1.389 . S
C1016 C1017 1.524 . S
C1016 C1030 1.377 . S
C1017 C1016 1.524 . S
C1017 C1018 1.397 . S
C1017 C1022 1.363 . S
C1018 H995 0.950 . S
C1018 C1017 1.397 . S
C1018 C1019 1.334 . S
C1019 H996 0.950 . S
C1019 C1018 1.334 . S
C1019 C1020 1.287 . S
C1020 C1019 1.287 . S
C1020 C1021 1.524 . S
C1020 H1039 0.913 1_565 S
C1021 H997 0.950 . S
C1021 C1020 1.524 . S
C1021 C1022 1.415 . S
C1022 H998 0.950 . S
C1022 C1017 1.363 . S
C1022 C1021 1.415 . S
C1023 H999 0.951 . S
C1023 C1024 1.366 1_556 S
C1023 C1025 1.388 . S
C1024 C1023 1.366 1_554 S
C1024 C1028 1.385 . S
C1025 H1000 0.951 . S
C1025 C1023 1.388 . S
C1025 C1026 1.366 . S
C1026 C1025 1.366 . S
C1026 C1027 1.414 . S
C1026 C1029 1.499 . S
C1027 H1001 0.950 . S
C1027 C1026 1.414 . S
C1027 C1028 1.374 1_556 S
C1028 H1002 0.950 . S
C1028 C1024 1.385 . S
C1028 C1027 1.374 1_554 S
C1029 C1026 1.499 . S
C1029 C1030 1.373 . S
C1029 C1031 1.389 . S
C1030 H1003 0.950 . S
C1030 C1016 1.377 . S
C1030 C1029 1.373 . S
C1031 C1015 1.377 . S
C1031 C1029 1.389 . S
C1031 C1032 1.524 . S
C1032 C1031 1.524 . S
C1032 C1033 1.397 . S
C1032 C1037 1.363 . S
C1033 H1004 0.950 . S
C1033 C1032 1.397 . S
C1033 C1034 1.334 . S
C1034 H1005 0.950 . S
C1034 C1033 1.334 . S
C1034 C1035 1.287 . S
C1035 C1034 1.287 . S
C1035 C1036 1.524 . S
C1035 H1038 0.999 . S
C1036 H1006 0.950 . S
C1036 C1035 1.524 . S
C1036 C1037 1.415 . S
C1037 H1007 0.950 . S
C1037 C1032 1.363 . S
C1037 C1036 1.415 . S
H1038 C1035 0.999 . S
H1039 C1020 0.913 1_545 S
H1040 C1058 0.951 . S
H1041 C1060 0.951 . S
H1042 C1062 0.950 1_655 S
H1043 C1063 0.950 . S
H1044 C1065 0.950 . S
H1045 C1068 0.950 . S
H1046 C1069 0.950 . S
H1047 C1071 0.950 . S
H1048 C1072 0.950 . S
H1049 C1073 0.951 . S
H1050 C1075 0.951 . S
H1051 C1077 0.950 1_455 S
H1052 C1078 0.950 . S
H1053 C1080 0.950 . S
H1054 C1083 0.950 . S
H1055 C1084 0.950 . S
H1056 C1086 0.950 . S
H1057 C1087 0.950 . S
C1058 H1040 0.951 . S
C1058 C1059 1.366 . S
C1058 C1060 1.388 . S
C1059 C1058 1.366 . S
C1059 C1063 1.385 . S
C1060 H1041 0.951 . S
C1060 C1058 1.388 . S
C1060 C1061 1.366 . S
C1061 C1060 1.366 . S
C1061 C1062 1.414 . S
C1061 C1064 1.499 . S
C1062 H1042 0.950 1_455 S
C1062 C1061 1.414 . S
C1062 C1063 1.374 . S
C1063 H1043 0.950 . S
C1063 C1059 1.385 . S
C1063 C1062 1.374 . S
C1064 C1061 1.499 . S
C1064 C1065 1.373 1_455 S
C1064 C1066 1.389 . S
C1065 H1044 0.950 . S
C1065 C1064 1.373 1_655 S
C1065 C1081 1.377 . S
C1066 C1064 1.389 . S
C1066 C1067 1.524 . S
C1066 C1080 1.377 . S
C1067 C1066 1.524 . S
C1067 C1068 1.397 . S
C1067 C1072 1.363 . S
C1068 H1045 0.950 . S
C1068 C1067 1.397 . S
C1068 C1069 1.334 . S
C1069 H1046 0.950 . S
C1069 C1068 1.334 . S
C1069 C1070 1.287 . S
C1070 C1069 1.287 . S
C1070 C1071 1.524 . S
C1070 H1089 0.913 . S
C1071 H1047 0.950 . S
C1071 C1070 1.524 . S
C1071 C1072 1.415 . S
C1072 H1048 0.950 . S
C1072 C1067 1.363 . S
C1072 C1071 1.415 . S
C1073 H1049 0.951 . S
C1073 C1074 1.366 . S
C1073 C1075 1.388 . S
C1074 C1073 1.366 . S
C1074 C1078 1.385 . S
C1075 H1050 0.951 . S
C1075 C1073 1.388 . S
C1075 C1076 1.366 . S
C1076 C1075 1.366 . S
C1076 C1077 1.414 . S
C1076 C1079 1.499 . S
C1077 H1051 0.950 1_655 S
C1077 C1076 1.414 . S
C1077 C1078 1.374 . S
C1078 H1052 0.950 . S
C1078 C1074 1.385 . S
C1078 C1077 1.374 . S
C1079 C1076 1.499 . S
C1079 C1080 1.373 1_655 S
C1079 C1081 1.389 . S
C1080 H1053 0.950 . S
C1080 C1066 1.377 . S
C1080 C1079 1.373 1_455 S
C1081 C1065 1.377 . S
C1081 C1079 1.389 . S
C1081 C1082 1.524 . S
C1082 C1081 1.524 . S
C1082 C1083 1.397 . S
C1082 C1087 1.363 . S
C1083 H1054 0.950 . S
C1083 C1082 1.397 . S
C1083 C1084 1.334 . S
C1084 H1055 0.950 . S
C1084 C1083 1.334 . S
C1084 C1085 1.287 . S
C1085 C1084 1.287 . S
C1085 C1086 1.524 . S
C1085 H1088 0.999 . S
C1086 H1056 0.950 . S
C1086 C1085 1.524 . S
C1086 C1087 1.415 . S
C1087 H1057 0.950 . S
C1087 C1082 1.363 . S
C1087 C1086 1.415 . S
H1088 C1085 0.999 . S
H1089 C1070 0.913 . S
H1090 C1108 0.951 . S
H1091 C1110 0.951 . S
H1092 C1112 0.970 . S
H1093 C1113 0.950 . S
H1094 C1115 0.950 . S
H1095 C1118 0.950 . S
H1096 C1119 0.950 . S
H1097 C1121 0.950 . S
H1098 C1122 0.950 . S
H1099 C1123 0.951 . S
H1100 C1125 0.951 . S
H1101 C1127 0.950 . S
H1102 C1128 0.950 . S
H1103 C1130 0.950 . S
H1104 C1133 0.950 . S
H1105 C1134 0.950 . S
H1106 C1136 0.950 . S
H1107 C1137 0.950 . S
C1108 H1090 0.951 . S
C1108 C1109 1.366 . S
C1108 C1110 1.388 . S
C1109 C1108 1.366 . S
C1109 C1113 1.385 . S
C1110 H1091 0.951 . S
C1110 C1108 1.388 . S
C1110 C1111 1.366 . S
C1111 C1110 1.366 . S
C1111 C1112 1.414 . S
C1111 C1114 1.499 . S
C1112 H1092 0.970 . S
C1112 C1111 1.414 . S
C1112 C1113 1.374 . S
C1113 H1093 0.950 . S
C1113 C1109 1.385 . S
C1113 C1112 1.374 . S
C1114 C1111 1.499 . S
C1114 C1115 1.373 1_545 S
C1114 C1116 1.389 . S
C1115 H1094 0.950 . S
C1115 C1114 1.373 1_565 S
C1115 C1131 1.377 . S
C1116 C1114 1.389 . S
C1116 C1117 1.524 . S
C1116 C1130 1.377 . S
C1117 C1116 1.524 . S
C1117 C1118 1.397 . S
C1117 C1122 1.363 . S
C1118 H1095 0.950 . S
C1118 C1117 1.397 . S
C1118 C1119 1.334 . S
C1119 H1096 0.950 . S
C1119 C1118 1.334 . S
C1119 C1120 1.287 . S
C1120 C1119 1.287 . S
C1120 C1121 1.524 . S
C1120 H1139 0.913 . S
C1121 H1097 0.950 . S
C1121 C1120 1.524 . S
C1121 C1122 1.415 . S
C1122 H1098 0.950 . S
C1122 C1117 1.363 . S
C1122 C1121 1.415 . S
C1123 H1099 0.951 . S
C1123 C1124 1.366 . S
C1123 C1125 1.388 . S
C1124 C1123 1.366 . S
C1124 C1128 1.385 . S
C1125 H1100 0.951 . S
C1125 C1123 1.388 . S
C1125 C1126 1.366 . S
C1126 C1125 1.366 . S
C1126 C1127 1.414 . S
C1126 C1129 1.499 . S
C1127 H1101 0.950 . S
C1127 C1126 1.414 . S
C1127 C1128 1.374 . S
C1128 H1102 0.950 . S
C1128 C1124 1.385 . S
C1128 C1127 1.374 . S
C1129 C1126 1.499 . S
C1129 C1130 1.373 1_565 S
C1129 C1131 1.389 . S
C1130 H1103 0.950 . S
C1130 C1116 1.377 . S
C1130 C1129 1.373 1_545 S
C1131 C1115 1.377 . S
C1131 C1129 1.389 . S
C1131 C1132 1.524 . S
C1132 C1131 1.524 . S
C1132 C1133 1.397 . S
C1132 C1137 1.363 . S
C1133 H1104 0.950 . S
C1133 C1132 1.397 . S
C1133 C1134 1.334 . S
C1134 H1105 0.950 . S
C1134 C1133 1.334 . S
C1134 C1135 1.287 . S
C1135 C1134 1.287 . S
C1135 C1136 1.524 . S
C1135 H1138 0.999 . S
C1136 H1106 0.950 . S
C1136 C1135 1.524 . S
C1136 C1137 1.415 . S
C1137 H1107 0.950 . S
C1137 C1132 1.363 . S
C1137 C1136 1.415 . S
H1138 C1135 0.999 . S
H1139 C1120 0.913 . S
C259 C185 1.191 . S
C274 C20 1.192 . S
C309 C220 1.192 . S
C324 C65 1.190 . S
C359 C25 1.191 . S
C374 C100 1.193 . S
C409 C60 1.193 . S
C424 C145 1.191 . S
C459 C105 1.191 . S
C474 C180 1.192 . S
C509 C140 1.192 . S
C524 C225 1.190 . S
C559 C2 1.255 . S
C574 C143 1.194 . S
C609 C162 1.255 . S
C624 C63 1.192 . S
C659 C223 1.194 . S
C674 C82 1.256 . S
C709 C103 1.192 . S
C724 C202 1.255 . S
C759 C23 1.194 . S
C774 C122 1.255 . S
C809 C183 1.193 . S
C824 C42 1.256 . S
C859 C231 1.494 . S
C874 C31 1.494 . S
C909 C44 0.658 . S
C924 C4 0.657 . S
C959 C111 1.494 . S
C974 C71 1.494 . S
C1009 C84 0.657 . S
C1024 C124 0.659 . S
C1059 C191 1.494 . S
C1074 C151 1.494 . S
C1109 C204 0.657 . S
C1124 C164 0.659 . S
