# Generated by pormake.
# Topology vmv, (8)-cn, num edge types: 1
# Building blocks:
#     Node 0, Type 0, BuildingBlock: TAGTUT_clean_sbu_1, # of connection points: 8
#     Node 1, Type 0, BuildingBlock: TAGTUT_clean_sbu_1, # of connection points: 8
#     Node 2, Type 0, BuildingBlock: TAGTUT_clean_sbu_1, # of connection points: 8
#     Node 3, Type 0, BuildingBlock: TAGTUT_clean_sbu_1, # of connection points: 8
#     Edge 4, Type (0, 0), BuildingBlock: CIFDUS_clean_linker_0, # of connection points: 2
#     Edge 5, Type (0, 0), BuildingBlock: CIFDUS_clean_linker_0, # of connection points: 2
#     Edge 6, Type (0, 0), BuildingBlock: CIFDUS_clean_linker_0, # of connection points: 2
#     Edge 7, Type (0, 0), BuildingBlock: CIFDUS_clean_linker_0, # of connection points: 2
#     Edge 8, Type (0, 0), BuildingBlock: CIFDUS_clean_linker_0, # of connection points: 2
#     Edge 9, Type (0, 0), BuildingBlock: CIFDUS_clean_linker_0, # of connection points: 2
#     Edge 10, Type (0, 0), BuildingBlock: CIFDUS_clean_linker_0, # of connection points: 2
#     Edge 11, Type (0, 0), BuildingBlock: CIFDUS_clean_linker_0, # of connection points: 2
#     Edge 12, Type (0, 0), BuildingBlock: CIFDUS_clean_linker_0, # of connection points: 2
#     Edge 13, Type (0, 0), BuildingBlock: CIFDUS_clean_linker_0, # of connection points: 2
#     Edge 14, Type (0, 0), BuildingBlock: CIFDUS_clean_linker_0, # of connection points: 2
#     Edge 15, Type (0, 0), BuildingBlock: CIFDUS_clean_linker_0, # of connection points: 2
#     Edge 16, Type (0, 0), BuildingBlock: CIFDUS_clean_linker_0, # of connection points: 2
#     Edge 17, Type (0, 0), BuildingBlock: CIFDUS_clean_linker_0, # of connection points: 2
#     Edge 18, Type (0, 0), BuildingBlock: CIFDUS_clean_linker_0, # of connection points: 2
#     Edge 19, Type (0, 0), BuildingBlock: CIFDUS_clean_linker_0, # of connection points: 2
# Relax obj value: 0.297
# Max RMSD: 0.291
# Mean RMSD: 0.282
data_MOF--net-vmv--node1-TAGTUT_clean_sbu_1--edge1-CIFDUS_clean_linker_0
_symmetry_space_group_name_H-M    P1
_symmetry_Int_Tables_number       1
_symmetry_cell_setting            triclinic
loop_
_symmetry_equiv_pos_as_xyz
'x, y, z'
_cell_length_a     14.423477
_cell_length_b     27.653953
_cell_length_c     28.440825
_cell_angle_alpha  90.00045
_cell_angle_beta   105.65505
_cell_angle_gamma 88.052651
loop_
_atom_site_label
_atom_site_type_symbol
_atom_site_fract_x
_atom_site_fract_y
_atom_site_fract_z
_atom_type_partial_charge
C0 C 0.31241 0.15391 0.78191 0.0
C1 C 0.54619 0.25212 0.83123 0.0
C2 C 0.28877 0.39935 0.78887 0.0
Mg3 Mg 0.42716 0.21899 0.72993 0.0
O4 O 0.32227 0.26015 0.7353 0.0
Mg5 Mg 0.30631 0.27621 0.80062 0.0
Mg6 Mg 0.32618 0.32564 0.7108 0.0
O7 O 0.33094 0.39164 0.68303 0.0
Mg8 Mg 0.22865 0.43603 0.68384 0.0
Mg9 Mg 0.33626 0.36876 0.61611 0.0
C10 C 0.3536 0.25698 0.61981 0.0
C11 C 0.5393 0.33528 0.69351 0.0
O12 O 0.28244 0.19091 0.80247 0.0
O13 O 0.36885 0.15781 0.75438 0.0
O14 O 0.46438 0.26391 0.83743 0.0
O15 O 0.55411 0.23696 0.7898 0.0
O16 O 0.40357 0.22401 0.64875 0.0
O17 O 0.31436 0.29292 0.63624 0.0
C18 C 0.10813 0.31266 0.72357 0.0
O19 O 0.15841 0.32896 0.69648 0.0
O20 O 0.14847 0.29124 0.76397 0.0
O21 O 0.35792 0.44481 0.60439 0.0
O22 O 0.29138 0.49503 0.64971 0.0
O23 O 0.17695 0.3871 0.57773 0.0
C24 C 0.33868 0.48708 0.61772 0.0
O25 O 0.10415 0.41262 0.63269 0.0
O26 O 0.21415 0.40875 0.75392 0.0
C27 C 0.10212 0.40374 0.58883 0.0
O28 O 0.33913 0.36 0.78769 0.0
O29 O 0.49193 0.32179 0.7232 0.0
O30 O 0.49609 0.35355 0.65176 0.0
C31 C 0.94041 0.72719 0.66891 0.0
C32 C 0.22375 0.66939 0.77142 0.0
C33 C 0.09455 0.74698 0.91796 0.0
Mg34 Mg 0.13681 0.76781 0.72538 0.0
O35 O 0.05811 0.77205 0.76938 0.0
Mg36 Mg 0.01735 0.71258 0.79464 0.0
Mg37 Mg 0.10946 0.80691 0.82947 0.0
O38 O 0.16696 0.84625 0.89067 0.0
Mg39 Mg 0.09101 0.85478 0.93536 0.0
Mg40 Mg 0.18243 0.90848 0.85303 0.0
C41 C 0.14697 0.88078 0.74901 0.0
C42 C 0.33271 0.82486 0.83348 0.0
O43 O 0.92966 0.7074 0.70852 0.0
O44 O 0.01694 0.74881 0.66795 0.0
O45 O 0.1484 0.66919 0.7865 0.0
O46 O 0.24071 0.70555 0.74722 0.0
O47 O 0.17292 0.84548 0.72518 0.0
O48 O 0.10523 0.87359 0.78261 0.0
C49 C 0.87784 0.79476 0.81957 0.0
O50 O 0.94865 0.82317 0.83022 0.0
O51 O 0.88905 0.75197 0.80569 0.0
O52 O 0.26156 0.93422 0.92395 0.0
O53 O 0.2121 0.8983 0.98367 0.0
O54 O 0.05491 0.95482 0.8682 0.0
C55 C 0.2668 0.92771 0.96882 0.0
O56 O 0.97799 0.89644 0.8885 0.0
O57 O 0.03474 0.78163 0.91839 0.0
C58 C 0.9927 0.94081 0.88902 0.0
O59 O 0.11237 0.73619 0.87681 0.0
O60 O 0.26732 0.7933 0.827 0.0
O61 O 0.31546 0.86882 0.84297 0.0
C62 C 0.64582 0.56287 0.45461 0.0
C63 C 0.88755 0.63937 0.45277 0.0
C64 C 0.63497 0.78182 0.4026 0.0
Mg65 Mg 0.74691 0.59056 0.37484 0.0
O66 O 0.65496 0.64009 0.36601 0.0
Mg67 Mg 0.65675 0.67662 0.42805 0.0
Mg68 Mg 0.66464 0.69834 0.32551 0.0
O69 O 0.66735 0.75798 0.28916 0.0
Mg70 Mg 0.5617 0.80194 0.28802 0.0
Mg71 Mg 0.68736 0.73223 0.22757 0.0
C72 C 0.69277 0.60699 0.25758 0.0
C73 C 0.88284 0.70503 0.3107 0.0
O74 O 0.63167 0.60795 0.45948 0.0
O75 O 0.68659 0.54551 0.42296 0.0
O76 O 0.8178 0.6599 0.46567 0.0
O77 O 0.87574 0.62468 0.40951 0.0
O78 O 0.7259 0.58322 0.29778 0.0
O79 O 0.65731 0.65122 0.25611 0.0
C80 C 0.45286 0.69852 0.34575 0.0
O81 O 0.49929 0.70378 0.31342 0.0
O82 O 0.49675 0.68924 0.39048 0.0
O83 O 0.71374 0.81806 0.21606 0.0
O84 O 0.62435 0.85813 0.25864 0.0
O85 O 0.53034 0.74289 0.18655 0.0
C86 C 0.68373 0.85797 0.23243 0.0
O87 O 0.43745 0.78016 0.22736 0.0
O88 O 0.58141 0.81002 0.36934 0.0
C89 C 0.44794 0.75882 0.18886 0.0
O90 O 0.67723 0.74413 0.39159 0.0
O91 O 0.83244 0.69375 0.33977 0.0
O92 O 0.84283 0.72045 0.26758 0.0
C93 C 0.73157 0.08056 0.04833 0.0
C94 C 0.03143 0.06806 0.12101 0.0
C95 C 0.86763 0.12987 0.26445 0.0
Mg96 Mg 0.89982 0.15446 0.06939 0.0
O97 O 0.85328 0.16005 0.12511 0.0
Mg98 Mg 0.84326 0.09925 0.16274 0.0
Mg99 Mg 0.91004 0.20095 0.18441 0.0
O100 O 0.96059 0.23801 0.24372 0.0
Mg101 Mg 0.87757 0.24492 0.28534 0.0
Mg102 Mg 0.00268 0.29667 0.2168 0.0
C103 C 0.92023 0.25947 0.09508 0.0
C104 C 0.14071 0.21159 0.19325 0.0
O105 O 0.76364 0.06782 0.09289 0.0
O106 O 0.76433 0.11722 0.03037 0.0
O107 O 0.98298 0.06258 0.15214 0.0
O108 O 0.00943 0.10075 0.08812 0.0
O109 O 0.97332 0.2223 0.09376 0.0
O110 O 0.9067 0.27143 0.13664 0.0
C111 C 0.68632 0.18077 0.17939 0.0
O112 O 0.75111 0.21286 0.18621 0.0
O113 O 0.70492 0.13666 0.17044 0.0
O114 O 0.085 0.30715 0.30198 0.0
O115 O 0.99692 0.26653 0.34302 0.0
O116 O 0.87576 0.34309 0.22301 0.0
C117 C 0.07169 0.2899 0.34204 0.0
O118 O 0.77631 0.3091 0.25931 0.0
O119 O 0.83973 0.16634 0.28637 0.0
C120 C 0.79872 0.34505 0.23642 0.0
O121 O 0.91457 0.1359 0.23278 0.0
O122 O 0.06947 0.18346 0.18222 0.0
O123 O 0.1301 0.25438 0.20745 0.0
H124 H 0.83836 0.58331 0.51765 0.0
H125 H 0.07735 0.61972 0.46193 0.0
H126 H 0.15615 0.54133 0.48938 0.0
H127 H 0.15215 0.46126 0.52499 0.0
H128 H 0.9119 0.42421 0.57954 0.0
H129 H 0.83282 0.50286 0.55193 0.0
C130 C 0.90955 0.57483 0.51328 0.0
C131 C 0.953 0.60743 0.48852 0.0
C132 C 0.95048 0.52848 0.52572 0.0
C133 C 0.04412 0.59564 0.48213 0.0
C134 C 0.08764 0.55028 0.49652 0.0
C135 C 0.0809 0.46962 0.52929 0.0
C136 C 0.03727 0.43685 0.55379 0.0
C137 C 0.03978 0.51591 0.51673 0.0
C138 C 0.94568 0.44855 0.55982 0.0
C139 C 0.90213 0.49398 0.54549 0.0
H140 H 0.67958 0.99191 0.06907 0.0
H141 H 0.5796 0.11525 0.97339 0.0
H142 H 0.41774 0.08237 0.94896 0.0
H143 H 0.30614 0.01956 0.95599 0.0
H144 H 0.40696 0.89542 0.04988 0.0
H145 H 0.56657 0.93053 0.07812 0.0
C146 C 0.62272 0.01159 0.04241 0.0
C147 C 0.6421 0.0561 0.0228 0.0
C148 C 0.52956 0.99371 0.03056 0.0
C149 C 0.56754 0.08068 0.98825 0.0
C150 C 0.47461 0.06241 0.97525 0.0
C151 C 0.36239 1.00083 0.98385 0.0
C152 C 0.34456 0.95505 1.00127 0.0
C153 C 0.45479 0.01952 0.99691 0.0
C154 C 0.41794 0.93103 0.03688 0.0
C155 C 0.50977 0.95052 0.05182 0.0
H156 H 0.66791 0.56652 0.55067 0.0
H157 H 0.50701 0.49942 0.41832 0.0
H158 H 0.37422 0.48676 0.45483 0.0
H159 H 0.30354 0.49759 0.52263 0.0
H160 H 0.47093 0.55475 0.65873 0.0
H161 H 0.59776 0.5748 0.62048 0.0
C162 C 0.60528 0.54719 0.53075 0.0
C163 C 0.59722 0.53315 0.48223 0.0
C164 C 0.52795 0.54234 0.55109 0.0
C165 C 0.51562 0.50911 0.45614 0.0
C166 C 0.43853 0.5036 0.47636 0.0
C167 C 0.36568 0.51676 0.54324 0.0
C168 C 0.37735 0.52499 0.59334 0.0
C169 C 0.44296 0.52163 0.52306 0.0
C170 C 0.459 0.54876 0.62005 0.0
C171 C 0.5333 0.55831 0.59865 0.0
H172 H 0.96086 0.98129 0.09977 0.0
H173 H 0.21198 0.06294 0.10584 0.0
H174 H 0.21271 0.03557 0.02447 0.0
H175 H 0.12169 1.00202 0.94565 0.0
H176 H 0.85906 0.92817 0.93778 0.0
H177 H 0.87628 0.94368 0.02401 0.0
C178 C 0.01889 0.99094 0.08426 0.0
C179 C 0.08262 0.02635 0.10714 0.0
C180 C 0.01105 0.98007 0.03531 0.0
C181 C 0.16021 0.0367 0.0881 0.0
C182 C 0.15822 0.02265 0.04064 0.0
C183 C 0.0678 0.98975 0.96266 0.0
C184 C 0.9895 0.96371 0.93539 0.0
C185 C 0.07984 0.99731 0.01271 0.0
C186 C 0.9197 0.94856 0.95799 0.0
C187 C 0.9307 0.95629 1.00751 0.0
H188 H 0.54571 0.28714 0.92031 0.0
H189 H 0.73693 0.22587 0.84057 0.0
H190 H 0.87069 0.22698 0.91512 0.0
H191 H 0.92974 0.24055 1.00345 0.0
H192 H 0.73604 0.29854 0.08331 0.0
H193 H 0.60604 0.30405 1.00734 0.0
C194 C 0.61659 0.27411 0.91879 0.0
C195 C 0.63076 0.25591 0.87462 0.0
C196 C 0.69231 0.27424 0.96178 0.0
C197 C 0.72364 0.23979 0.87383 0.0
C198 C 0.8 0.24038 0.91651 0.0
C199 C 0.8591 0.25463 1.00432 0.0
C200 C 0.84244 0.26857 0.04929 0.0
C201 C 0.78459 0.25676 0.96077 0.0
C202 C 0.75099 0.28744 0.0495 0.0
C203 C 0.6766 0.29034 1.00606 0.0
H204 H 0.59292 0.7288 0.4756 0.0
H205 H 0.73577 0.85636 0.44963 0.0
H206 H 0.83994 0.85146 0.53313 0.0
H207 H 0.91022 0.80289 0.60646 0.0
H208 H 0.78276 0.66946 0.63085 0.0
H209 H 0.65632 0.6827 0.55359 0.0
C210 C 0.64664 0.75563 0.48831 0.0
C211 C 0.65808 0.79227 0.45569 0.0
C212 C 0.71175 0.75009 0.53518 0.0
C213 C 0.72436 0.8282 0.47377 0.0
C214 C 0.78572 0.82459 0.52121 0.0
C215 C 0.85506 0.77635 0.59513 0.0
C216 C 0.85801 0.73431 0.62404 0.0
C217 C 0.78355 0.78424 0.551 0.0
C218 C 0.78346 0.70162 0.60923 0.0
C219 C 0.711 0.7094 0.56511 0.0
H220 H 0.07757 0.76868 1.00814 0.0
H221 H 0.2819 0.70947 0.93509 0.0
H222 H 0.4061 0.70541 0.01346 0.0
H223 H 0.45814 0.72301 0.10107 0.0
H224 H 0.25553 0.78564 0.17344 0.0
H225 H 0.12843 0.78411 0.09624 0.0
C226 C 0.14929 0.75477 1.0091 0.0
C227 C 0.17031 0.73987 0.96527 0.0
C228 C 0.22043 0.75342 0.05403 0.0
C229 C 0.26336 0.7213 0.96781 0.0
C230 C 0.33445 0.71918 0.01268 0.0
C231 C 0.3861 0.7361 0.10044 0.0
C232 C 0.36694 0.75466 0.14351 0.0
C233 C 0.31402 0.73579 0.05581 0.0
C234 C 0.27279 0.7713 0.14125 0.0
C235 C 0.20017 0.77048 0.09702 0.0
H236 H 0.13349 0.21477 0.40337 0.0
H237 H 0.18173 0.3659 0.38611 0.0
H238 H 0.28826 0.36691 0.46988 0.0
H239 H 0.35264 0.32624 0.55017 0.0
H240 H 0.29736 0.17597 0.56724 0.0
H241 H 0.21271 0.17228 0.48033 0.0
C242 C 0.16836 0.24787 0.41773 0.0
C243 C 0.14867 0.29048 0.38888 0.0
C244 C 0.22869 0.24802 0.46565 0.0
C245 C 0.19558 0.33277 0.40755 0.0
C246 C 0.25607 0.33328 0.4555 0.0
C247 C 0.32201 0.29273 0.53509 0.0
C248 C 0.32917 0.25172 0.56577 0.0
C249 C 0.27077 0.29141 0.48531 0.0
C250 C 0.29333 0.20794 0.54466 0.0
C251 C 0.24371 0.20605 0.49505 0.0
H252 H 0.98867 0.30239 0.78184 0.0
H253 H 0.9869 0.33794 0.63381 0.0
H254 H 0.81132 0.34881 0.61188 0.0
H255 H 0.65832 0.3468 0.63456 0.0
H256 H 0.66177 0.31246 0.78312 0.0
H257 H 0.83684 0.3017 0.80479 0.0
C258 C 0.95015 0.31239 0.74465 0.0
C259 C 1.00142 0.31952 0.70954 0.0
C260 C 0.84934 0.31836 0.73233 0.0
C261 C 0.9498 0.33281 0.66172 0.0
C262 C 0.84922 0.33875 0.64911 0.0
C263 C 0.69718 0.33703 0.67175 0.0
C264 C 0.64623 0.32967 0.70701 0.0
C265 C 0.79825 0.33151 0.68411 0.0
C266 C 0.69838 0.31726 0.75499 0.0
C267 C 0.79877 0.31147 0.7675 0.0
H268 H 0.48021 0.88491 0.83744 0.0
H269 H 0.40657 0.73445 0.82167 0.0
H270 H 0.56905 0.71273 0.81654 0.0
H271 H 0.73053 0.73614 0.81696 0.0
H272 H 0.80521 0.88637 0.83136 0.0
H273 H 0.6431 0.90845 0.83757 0.0
C274 C 0.49946 0.84726 0.83298 0.0
C275 C 0.43088 0.81129 0.82992 0.0
C276 C 0.59308 0.83503 0.83021 0.0
C277 C 0.45742 0.76285 0.82391 0.0
C278 C 0.55045 0.75041 0.82112 0.0
C279 C 0.71186 0.77387 0.82137 0.0
C280 C 0.78074 0.80957 0.82407 0.0
C281 C 0.61862 0.7862 0.82425 0.0
C282 C 0.75461 0.85809 0.82999 0.0
C283 C 0.66159 0.87072 0.83315 0.0
H284 H 0.00304 0.70968 0.25242 0.0
H285 H 0.0039 0.69316 0.40346 0.0
H286 H 0.18027 0.6894 0.42738 0.0
H287 H 0.33361 0.69243 0.40527 0.0
H288 H 0.33069 0.71023 0.25392 0.0
H289 H 0.15501 0.71301 0.23041 0.0
C290 C 0.04142 0.70526 0.2907 0.0
C291 C 0.9898 0.70118 0.3261 0.0
C292 C 0.14243 0.70397 0.30413 0.0
C293 C 0.04137 0.6954 0.37538 0.0
C294 C 0.14231 0.69373 0.38908 0.0
C295 C 0.29477 0.69701 0.36709 0.0
C296 C 0.34586 0.70148 0.33144 0.0
C297 C 0.19351 0.69817 0.35374 0.0
C298 C 0.29379 0.70725 0.28221 0.0
C299 C 0.19315 0.70856 0.26869 0.0
H300 H 0.29123 0.26916 0.19992 0.0
H301 H 0.20892 0.12062 0.17603 0.0
H302 H 0.371 0.09811 0.16929 0.0
H303 H 0.53584 0.12107 0.1712 0.0
H304 H 0.61434 0.27038 0.19477 0.0
H305 H 0.45292 0.29207 0.20105 0.0
C306 C 0.30817 0.23168 0.19334 0.0
C307 C 0.23762 0.19653 0.18855 0.0
C308 C 0.40078 0.21923 0.18962 0.0
C309 C 0.26147 0.14837 0.17965 0.0
C310 C 0.35419 0.13555 0.17595 0.0
C311 C 0.51779 0.15844 0.17761 0.0
C312 C 0.58772 0.19407 0.18266 0.0
C313 C 0.42441 0.17074 0.18097 0.0
C314 C 0.5626 0.24219 0.19099 0.0
C315 C 0.47013 0.25464 0.19449 0.0
H316 H 0.38005 0.06961 0.75299 0.0
H317 H 0.15829 0.12778 0.81532 0.0
H318 H 0.0839 0.04868 0.80681 0.0
H319 H 0.0782 0.96467 0.77794 0.0
H320 H 0.3025 0.90675 0.71754 0.0
H321 H 0.37683 0.98567 0.72637 0.0
C322 C 0.31559 0.06525 0.76505 0.0
C323 C 0.27454 0.10496 0.7846 0.0
C324 C 0.27229 0.02026 0.75896 0.0
C325 C 0.19174 0.09802 0.80043 0.0
C326 C 0.14862 0.05294 0.795 0.0
C327 C 0.1435 0.96926 0.76674 0.0
C328 C 0.18495 0.92972 0.74724 0.0
C329 C 0.18746 0.01416 0.77354 0.0
C330 C 0.26852 0.93654 0.73212 0.0
C331 C 0.31169 0.98148 0.73782 0.0
H332 H 0.38762 0.46223 0.74843 0.0
H333 H 0.2834 0.43897 0.87459 0.0
H334 H 0.27098 0.52622 0.88594 0.0
H335 H 0.24848 0.60665 0.84715 0.0
H336 H 0.3382 0.63016 0.71635 0.0
H337 H 0.40005 0.54601 0.72063 0.0
C338 C 0.36688 0.47629 0.77982 0.0
C339 C 0.33579 0.44397 0.81048 0.0
C340 C 0.35381 0.52679 0.78413 0.0
C341 C 0.30873 0.46282 0.85083 0.0
C342 C 0.29949 0.51289 0.85663 0.0
C343 C 0.28342 0.59373 0.81997 0.0
C344 C 0.2862 0.62441 0.78065 0.0
C345 C 0.31515 0.54493 0.82144 0.0
C346 C 0.33394 0.60738 0.74663 0.0
C347 C 0.36834 0.55905 0.74873 0.0
H348 H 0.61523 0.94588 0.25277 0.0
H349 H 0.84786 0.87934 0.20404 0.0
H350 H 0.92761 0.9573 0.21265 0.0
H351 H 0.93514 0.043 0.2389 0.0
H352 H 0.70228 0.10746 0.28879 0.0
H353 H 0.62128 0.03037 0.27749 0.0
C354 C 0.68329 0.94802 0.24364 0.0
C355 C 0.72541 0.90613 0.22785 0.0
C356 C 0.73013 0.99225 0.25052 0.0
C357 C 0.81307 0.9106 0.21584 0.0
C358 C 0.85931 0.95511 0.22147 0.0
C359 C 0.86679 0.04017 0.24756 0.0
C360 C 0.82515 0.08132 0.2649 0.0
C361 C 0.81944 0.99586 0.23982 0.0
C362 C 0.73693 0.07662 0.27619 0.0
C363 C 0.68989 0.03263 0.26901 0.0
H364 H 0.84026 0.42555 0.19192 0.0
H365 H 0.62595 0.37116 0.25708 0.0
H366 H 0.54673 0.45199 0.24882 0.0
H367 H 0.55839 0.53999 0.23831 0.0
H368 H 0.79249 0.59414 0.18904 0.0
H369 H 0.83905 0.51161 0.17171 0.0
C370 C 0.77539 0.43076 0.2039 0.0
C371 C 0.74051 0.39188 0.22615 0.0
C372 C 0.73262 0.47763 0.20072 0.0
C373 C 0.65555 0.40007 0.24058 0.0
C374 C 0.61008 0.44641 0.23565 0.0
C375 C 0.6162 0.53386 0.221 0.0
C376 C 0.67271 0.57355 0.21568 0.0
C377 C 0.65017 0.48582 0.21749 0.0
C378 C 0.74741 0.56486 0.19345 0.0
C379 C 0.77611 0.51727 0.18521 0.0
loop_
_geom_bond_atom_site_label_1
_geom_bond_atom_site_label_2
_geom_bond_distance
_geom_bond_site_symmetry_2
_ccdc_geom_bond_type
C0 O12 1.241 . S
C0 O13 1.280 . S
C1 O14 1.277 . S
C1 O15 1.245 . S
C2 O26 1.247 . S
C2 O28 1.289 . S
Mg3 O4 1.926 . S
Mg3 O13 1.984 . S
Mg3 O15 1.988 . S
Mg3 O16 2.061 . S
O4 Mg3 1.926 . S
O4 Mg5 1.986 . S
O4 Mg6 1.917 . S
Mg5 O4 1.986 . S
Mg5 O12 2.042 . S
Mg5 O14 2.041 . S
Mg5 O20 2.038 . S
Mg5 O28 2.238 . S
Mg6 O4 1.917 . S
Mg6 O7 1.917 . S
Mg6 O17 2.106 . S
Mg6 O19 2.079 . S
Mg6 O28 2.106 . S
Mg6 O29 2.079 . S
O7 Mg6 1.917 . S
O7 Mg8 1.926 . S
O7 Mg9 1.986 . S
Mg8 O7 1.926 . S
Mg8 O22 1.984 . S
Mg8 O25 1.988 . S
Mg8 O26 2.061 . S
Mg9 O7 1.986 . S
Mg9 O17 2.238 . S
Mg9 O21 2.042 . S
Mg9 O23 2.041 . S
Mg9 O30 2.038 . S
C10 O16 1.247 . S
C10 O17 1.289 . S
C11 O29 1.245 . S
C11 O30 1.274 . S
O12 C0 1.241 . S
O12 Mg5 2.042 . S
O13 C0 1.280 . S
O13 Mg3 1.984 . S
O14 C1 1.277 . S
O14 Mg5 2.041 . S
O15 C1 1.245 . S
O15 Mg3 1.988 . S
O16 Mg3 2.061 . S
O16 C10 1.247 . S
O17 Mg6 2.106 . S
O17 Mg9 2.238 . S
O17 C10 1.289 . S
C18 O19 1.245 . S
C18 O20 1.274 . S
O19 Mg6 2.079 . S
O19 C18 1.245 . S
O20 Mg5 2.038 . S
O20 C18 1.274 . S
O21 Mg9 2.042 . S
O21 C24 1.241 . S
O22 Mg8 1.984 . S
O22 C24 1.280 . S
O23 Mg9 2.041 . S
O23 C27 1.277 . S
C24 O21 1.241 . S
C24 O22 1.280 . S
O25 Mg8 1.988 . S
O25 C27 1.245 . S
O26 C2 1.247 . S
O26 Mg8 2.061 . S
C27 O23 1.277 . S
C27 O25 1.245 . S
O28 C2 1.289 . S
O28 Mg5 2.238 . S
O28 Mg6 2.106 . S
O29 Mg6 2.079 . S
O29 C11 1.245 . S
O30 Mg9 2.038 . S
O30 C11 1.274 . S
C31 O43 1.241 1_655 S
C31 O44 1.280 1_655 S
C32 O45 1.277 . S
C32 O46 1.245 . S
C33 O57 1.247 . S
C33 O59 1.289 . S
Mg34 O35 1.926 . S
Mg34 O44 1.984 . S
Mg34 O46 1.988 . S
Mg34 O47 2.061 . S
O35 Mg34 1.926 . S
O35 Mg36 1.986 . S
O35 Mg37 1.917 . S
Mg36 O35 1.986 . S
Mg36 O43 2.042 . S
Mg36 O45 2.041 . S
Mg36 O51 2.038 1_455 S
Mg36 O59 2.238 . S
Mg37 O35 1.917 . S
Mg37 O38 1.917 . S
Mg37 O48 2.106 . S
Mg37 O50 2.079 . S
Mg37 O59 2.106 . S
Mg37 O60 2.079 . S
O38 Mg37 1.917 . S
O38 Mg39 1.926 . S
O38 Mg40 1.986 . S
Mg39 O38 1.926 . S
Mg39 O53 1.984 1_556 S
Mg39 O56 1.988 . S
Mg39 O57 2.061 . S
Mg40 O38 1.986 . S
Mg40 O48 2.238 . S
Mg40 O52 2.042 . S
Mg40 O54 2.041 . S
Mg40 O61 2.038 . S
C41 O47 1.247 . S
C41 O48 1.289 . S
C42 O60 1.245 . S
C42 O61 1.274 . S
O43 C31 1.241 1_455 S
O43 Mg36 2.042 . S
O44 C31 1.280 1_455 S
O44 Mg34 1.984 . S
O45 C32 1.277 . S
O45 Mg36 2.041 . S
O46 C32 1.245 . S
O46 Mg34 1.988 . S
O47 Mg34 2.061 . S
O47 C41 1.247 . S
O48 Mg37 2.106 . S
O48 Mg40 2.238 . S
O48 C41 1.289 . S
C49 O50 1.245 1_655 S
C49 O51 1.274 . S
O50 Mg37 2.079 . S
O50 C49 1.245 1_455 S
O51 Mg36 2.038 1_655 S
O51 C49 1.274 . S
O52 Mg40 2.042 . S
O52 C55 1.241 . S
O53 Mg39 1.984 1_554 S
O53 C55 1.280 1_554 S
O54 Mg40 2.041 . S
O54 C58 1.277 . S
C55 O52 1.241 . S
C55 O53 1.280 1_556 S
O56 Mg39 1.988 . S
O56 C58 1.245 . S
O57 C33 1.247 . S
O57 Mg39 2.061 . S
C58 O54 1.277 . S
C58 O56 1.245 . S
O59 C33 1.289 . S
O59 Mg36 2.238 . S
O59 Mg37 2.106 . S
O60 Mg37 2.079 . S
O60 C42 1.245 . S
O61 Mg40 2.038 . S
O61 C42 1.274 . S
C62 O74 1.241 . S
C62 O75 1.280 . S
C63 O76 1.277 . S
C63 O77 1.245 . S
C64 O88 1.247 . S
C64 O90 1.289 . S
Mg65 O66 1.926 . S
Mg65 O75 1.984 . S
Mg65 O77 1.988 . S
Mg65 O78 2.061 . S
O66 Mg65 1.926 . S
O66 Mg67 1.986 . S
O66 Mg68 1.917 . S
Mg67 O66 1.986 . S
Mg67 O74 2.042 . S
Mg67 O76 2.041 . S
Mg67 O82 2.038 . S
Mg67 O90 2.238 . S
Mg68 O66 1.917 . S
Mg68 O69 1.917 . S
Mg68 O79 2.106 . S
Mg68 O81 2.079 . S
Mg68 O90 2.106 . S
Mg68 O91 2.079 . S
O69 Mg68 1.917 . S
O69 Mg70 1.926 . S
O69 Mg71 1.986 . S
Mg70 O69 1.926 . S
Mg70 O84 1.984 . S
Mg70 O87 1.988 . S
Mg70 O88 2.061 . S
Mg71 O69 1.986 . S
Mg71 O79 2.238 . S
Mg71 O83 2.042 . S
Mg71 O85 2.041 . S
Mg71 O92 2.038 . S
C72 O78 1.247 . S
C72 O79 1.289 . S
C73 O91 1.245 . S
C73 O92 1.274 . S
O74 C62 1.241 . S
O74 Mg67 2.042 . S
O75 C62 1.280 . S
O75 Mg65 1.984 . S
O76 C63 1.277 . S
O76 Mg67 2.041 . S
O77 C63 1.245 . S
O77 Mg65 1.988 . S
O78 Mg65 2.061 . S
O78 C72 1.247 . S
O79 Mg68 2.106 . S
O79 Mg71 2.238 . S
O79 C72 1.289 . S
C80 O81 1.245 . S
C80 O82 1.274 . S
O81 Mg68 2.079 . S
O81 C80 1.245 . S
O82 Mg67 2.038 . S
O82 C80 1.274 . S
O83 Mg71 2.042 . S
O83 C86 1.241 . S
O84 Mg70 1.984 . S
O84 C86 1.280 . S
O85 Mg71 2.041 . S
O85 C89 1.277 . S
C86 O83 1.241 . S
C86 O84 1.280 . S
O87 Mg70 1.988 . S
O87 C89 1.245 . S
O88 C64 1.247 . S
O88 Mg70 2.061 . S
C89 O85 1.277 . S
C89 O87 1.245 . S
O90 C64 1.289 . S
O90 Mg67 2.238 . S
O90 Mg68 2.106 . S
O91 Mg68 2.079 . S
O91 C73 1.245 . S
O92 Mg71 2.038 . S
O92 C73 1.274 . S
C93 O105 1.241 . S
C93 O106 1.280 1_554 S
C94 O107 1.277 . S
C94 O108 1.245 . S
C95 O119 1.247 . S
C95 O121 1.289 . S
Mg96 O97 1.926 . S
Mg96 O106 1.984 1_554 S
Mg96 O108 1.988 . S
Mg96 O109 2.061 . S
O97 Mg96 1.926 . S
O97 Mg98 1.986 . S
O97 Mg99 1.917 . S
Mg98 O97 1.986 . S
Mg98 O105 2.042 . S
Mg98 O107 2.041 . S
Mg98 O113 2.038 . S
Mg98 O121 2.238 . S
Mg99 O97 1.917 . S
Mg99 O100 1.917 . S
Mg99 O110 2.106 . S
Mg99 O112 2.079 . S
Mg99 O121 2.106 . S
Mg99 O122 2.079 . S
O100 Mg99 1.917 . S
O100 Mg101 1.926 . S
O100 Mg102 1.986 . S
Mg101 O100 1.926 . S
Mg101 O115 1.984 . S
Mg101 O118 1.988 . S
Mg101 O119 2.061 . S
Mg102 O100 1.986 . S
Mg102 O110 2.238 . S
Mg102 O114 2.042 . S
Mg102 O116 2.041 . S
Mg102 O123 2.038 1_655 S
C103 O109 1.247 . S
C103 O110 1.289 . S
C104 O122 1.245 1_455 S
C104 O123 1.274 . S
O105 C93 1.241 . S
O105 Mg98 2.042 . S
O106 C93 1.280 1_556 S
O106 Mg96 1.984 1_556 S
O107 C94 1.277 . S
O107 Mg98 2.041 . S
O108 C94 1.245 . S
O108 Mg96 1.988 . S
O109 Mg96 2.061 . S
O109 C103 1.247 . S
O110 Mg99 2.106 . S
O110 Mg102 2.238 . S
O110 C103 1.289 . S
C111 O112 1.245 . S
C111 O113 1.274 . S
O112 Mg99 2.079 . S
O112 C111 1.245 . S
O113 Mg98 2.038 . S
O113 C111 1.274 . S
O114 Mg102 2.042 . S
O114 C117 1.241 1_655 S
O115 Mg101 1.984 . S
O115 C117 1.280 1_655 S
O116 Mg102 2.041 . S
O116 C120 1.277 . S
C117 O114 1.241 1_455 S
C117 O115 1.280 1_455 S
O118 Mg101 1.988 . S
O118 C120 1.245 . S
O119 C95 1.247 . S
O119 Mg101 2.061 . S
C120 O116 1.277 . S
C120 O118 1.245 . S
O121 C95 1.289 . S
O121 Mg98 2.238 . S
O121 Mg99 2.106 . S
O122 Mg99 2.079 . S
O122 C104 1.245 1_655 S
O123 Mg102 2.038 1_455 S
O123 C104 1.274 . S
H124 C130 0.930 . S
H125 C133 0.930 . S
H126 C134 0.930 . S
H127 C135 0.930 . S
H128 C138 0.930 . S
H129 C139 0.930 . S
C130 H124 0.930 . S
C130 C131 1.355 . S
C130 C132 1.415 1_655 S
C131 C130 1.355 . S
C131 C133 1.419 . S
C132 C130 1.415 1_455 S
C132 C137 1.425 1_455 S
C132 C139 1.409 . S
C133 H125 0.930 . S
C133 C131 1.419 . S
C133 C134 1.362 . S
C134 H126 0.930 . S
C134 C133 1.362 . S
C134 C137 1.409 . S
C135 H127 0.930 . S
C135 C136 1.355 . S
C135 C137 1.415 1_455 S
C136 C135 1.355 . S
C136 C138 1.419 . S
C137 C132 1.425 1_655 S
C137 C134 1.409 . S
C137 C135 1.415 1_655 S
C138 H128 0.930 . S
C138 C136 1.419 . S
C138 C139 1.362 . S
C139 H129 0.930 . S
C139 C132 1.409 . S
C139 C138 1.362 . S
H140 C146 0.930 . S
H141 C149 0.930 . S
H142 C150 0.930 . S
H143 C151 0.930 . S
H144 C154 0.930 . S
H145 C155 0.930 . S
C146 H140 0.930 . S
C146 C147 1.355 1_554 S
C146 C148 1.415 . S
C147 C146 1.355 1_556 S
C147 C149 1.419 . S
C148 C146 1.415 . S
C148 C153 1.425 1_544 S
C148 C155 1.409 1_545 S
C149 H141 0.930 . S
C149 C147 1.419 . S
C149 C150 1.362 . S
C150 H142 0.930 . S
C150 C149 1.362 . S
C150 C153 1.409 1_545 S
C151 H143 0.930 . S
C151 C152 1.355 1_556 S
C151 C153 1.415 . S
C152 C151 1.355 1_554 S
C152 C154 1.419 . S
C153 C148 1.425 1_566 S
C153 C150 1.409 1_565 S
C153 C151 1.415 . S
C154 H144 0.930 . S
C154 C152 1.419 . S
C154 C155 1.362 . S
C155 H145 0.930 . S
C155 C148 1.409 1_565 S
C155 C154 1.362 . S
H156 C162 0.930 . S
H157 C165 0.930 . S
H158 C166 0.930 . S
H159 C167 0.930 . S
H160 C170 0.930 . S
H161 C171 0.930 . S
C162 H156 0.930 . S
C162 C163 1.355 . S
C162 C164 1.415 . S
C163 C162 1.355 . S
C163 C165 1.419 . S
C164 C162 1.415 . S
C164 C169 1.425 . S
C164 C171 1.409 . S
C165 H157 0.930 . S
C165 C163 1.419 . S
C165 C166 1.362 . S
C166 H158 0.930 . S
C166 C165 1.362 . S
C166 C169 1.409 . S
C167 H159 0.930 . S
C167 C168 1.355 . S
C167 C169 1.415 . S
C168 C167 1.355 . S
C168 C170 1.419 . S
C169 C164 1.425 . S
C169 C166 1.409 . S
C169 C167 1.415 . S
C170 H160 0.930 . S
C170 C168 1.419 . S
C170 C171 1.362 . S
C171 H161 0.930 . S
C171 C164 1.409 . S
C171 C170 1.362 . S
H172 C178 0.930 . S
H173 C181 0.930 . S
H174 C182 0.930 . S
H175 C183 0.930 . S
H176 C186 0.930 . S
H177 C187 0.930 . S
C178 H172 0.930 . S
C178 C179 1.355 . S
C178 C180 1.415 1_554 S
C179 C178 1.355 . S
C179 C181 1.419 1_645 S
C180 C178 1.415 1_556 S
C180 C185 1.425 1_646 S
C180 C187 1.409 . S
C181 H173 0.930 . S
C181 C179 1.419 1_465 S
C181 C182 1.362 . S
C182 H174 0.930 . S
C182 C181 1.362 . S
C182 C185 1.409 . S
C183 H175 0.930 . S
C183 C184 1.355 . S
C183 C185 1.415 1_556 S
C184 C183 1.355 . S
C184 C186 1.419 1_465 S
C185 C180 1.425 1_464 S
C185 C182 1.409 . S
C185 C183 1.415 1_554 S
C186 H176 0.930 . S
C186 C184 1.419 1_645 S
C186 C187 1.362 . S
C187 H177 0.930 . S
C187 C180 1.409 . S
C187 C186 1.362 . S
H188 C194 0.930 . S
H189 C197 0.930 . S
H190 C198 0.930 . S
H191 C199 0.930 . S
H192 C202 0.930 . S
H193 C203 0.930 . S
C194 H188 0.930 . S
C194 C195 1.355 . S
C194 C196 1.415 . S
C195 C194 1.355 . S
C195 C197 1.419 . S
C196 C194 1.415 . S
C196 C201 1.425 . S
C196 C203 1.409 . S
C197 H189 0.930 . S
C197 C195 1.419 . S
C197 C198 1.362 . S
C198 H190 0.930 . S
C198 C197 1.362 . S
C198 C201 1.409 . S
C199 H191 0.930 . S
C199 C200 1.355 1_556 S
C199 C201 1.415 . S
C200 C199 1.355 1_554 S
C200 C202 1.419 . S
C201 C196 1.425 . S
C201 C198 1.409 . S
C201 C199 1.415 . S
C202 H192 0.930 . S
C202 C200 1.419 . S
C202 C203 1.362 1_554 S
C203 H193 0.930 . S
C203 C196 1.409 . S
C203 C202 1.362 1_556 S
H204 C210 0.930 . S
H205 C213 0.930 . S
H206 C214 0.930 . S
H207 C215 0.930 . S
H208 C218 0.930 . S
H209 C219 0.930 . S
C210 H204 0.930 . S
C210 C211 1.355 . S
C210 C212 1.415 . S
C211 C210 1.355 . S
C211 C213 1.419 . S
C212 C210 1.415 . S
C212 C217 1.425 . S
C212 C219 1.409 . S
C213 H205 0.930 . S
C213 C211 1.419 . S
C213 C214 1.362 . S
C214 H206 0.930 . S
C214 C213 1.362 . S
C214 C217 1.409 . S
C215 H207 0.930 . S
C215 C216 1.355 . S
C215 C217 1.415 . S
C216 C215 1.355 . S
C216 C218 1.419 . S
C217 C212 1.425 . S
C217 C214 1.409 . S
C217 C215 1.415 . S
C218 H208 0.930 . S
C218 C216 1.419 . S
C218 C219 1.362 . S
C219 H209 0.930 . S
C219 C212 1.409 . S
C219 C218 1.362 . S
H220 C226 0.930 1_556 S
H221 C229 0.930 1_556 S
H222 C230 0.930 . S
H223 C231 0.930 . S
H224 C234 0.930 . S
H225 C235 0.930 . S
C226 H220 0.930 1_554 S
C226 C227 1.355 1_554 S
C226 C228 1.415 . S
C227 C226 1.355 1_556 S
C227 C229 1.419 1_556 S
C228 C226 1.415 . S
C228 C233 1.425 . S
C228 C235 1.409 . S
C229 H221 0.930 1_554 S
C229 C227 1.419 1_554 S
C229 C230 1.362 . S
C230 H222 0.930 . S
C230 C229 1.362 . S
C230 C233 1.409 . S
C231 H223 0.930 . S
C231 C232 1.355 . S
C231 C233 1.415 . S
C232 C231 1.355 . S
C232 C234 1.419 . S
C233 C228 1.425 . S
C233 C230 1.409 . S
C233 C231 1.415 . S
C234 H224 0.930 . S
C234 C232 1.419 . S
C234 C235 1.362 . S
C235 H225 0.930 . S
C235 C228 1.409 . S
C235 C234 1.362 . S
H236 C242 0.930 . S
H237 C245 0.930 . S
H238 C246 0.930 1_655 S
H239 C247 0.930 . S
H240 C250 0.930 . S
H241 C251 0.930 . S
C242 H236 0.930 . S
C242 C243 1.355 . S
C242 C244 1.415 . S
C243 C242 1.355 . S
C243 C245 1.419 1_455 S
C244 C242 1.415 . S
C244 C249 1.425 . S
C244 C251 1.409 . S
C245 H237 0.930 . S
C245 C243 1.419 1_655 S
C245 C246 1.362 1_655 S
C246 H238 0.930 1_455 S
C246 C245 1.362 1_455 S
C246 C249 1.409 . S
C247 H239 0.930 . S
C247 C248 1.355 . S
C247 C249 1.415 . S
C248 C247 1.355 . S
C248 C250 1.419 . S
C249 C244 1.425 . S
C249 C246 1.409 . S
C249 C247 1.415 . S
C250 H240 0.930 . S
C250 C248 1.419 . S
C250 C251 1.362 . S
C251 H241 0.930 . S
C251 C244 1.409 . S
C251 C250 1.362 . S
H252 C258 0.930 . S
H253 C261 0.930 . S
H254 C262 0.930 . S
H255 C263 0.930 . S
H256 C266 0.930 . S
H257 C267 0.930 . S
C258 H252 0.930 . S
C258 C259 1.355 . S
C258 C260 1.415 . S
C259 C258 1.355 . S
C259 C261 1.419 . S
C260 C258 1.415 . S
C260 C265 1.425 . S
C260 C267 1.409 . S
C261 H253 0.930 . S
C261 C259 1.419 . S
C261 C262 1.362 . S
C262 H254 0.930 . S
C262 C261 1.362 . S
C262 C265 1.409 . S
C263 H255 0.930 . S
C263 C264 1.355 . S
C263 C265 1.415 . S
C264 C263 1.355 . S
C264 C266 1.419 . S
C265 C260 1.425 . S
C265 C262 1.409 . S
C265 C263 1.415 . S
C266 H256 0.930 . S
C266 C264 1.419 . S
C266 C267 1.362 . S
C267 H257 0.930 . S
C267 C260 1.409 . S
C267 C266 1.362 . S
H268 C274 0.930 . S
H269 C277 0.930 . S
H270 C278 0.930 . S
H271 C279 0.930 . S
H272 C282 0.930 . S
H273 C283 0.930 . S
C274 H268 0.930 . S
C274 C275 1.355 . S
C274 C276 1.415 . S
C275 C274 1.355 . S
C275 C277 1.419 . S
C276 C274 1.415 . S
C276 C281 1.425 . S
C276 C283 1.409 . S
C277 H269 0.930 . S
C277 C275 1.419 . S
C277 C278 1.362 . S
C278 H270 0.930 . S
C278 C277 1.362 . S
C278 C281 1.409 . S
C279 H271 0.930 . S
C279 C280 1.355 . S
C279 C281 1.415 . S
C280 C279 1.355 . S
C280 C282 1.419 . S
C281 C276 1.425 . S
C281 C278 1.409 . S
C281 C279 1.415 . S
C282 H272 0.930 . S
C282 C280 1.419 . S
C282 C283 1.362 . S
C283 H273 0.930 . S
C283 C276 1.409 . S
C283 C282 1.362 . S
H284 C290 0.930 . S
H285 C293 0.930 . S
H286 C294 0.930 . S
H287 C295 0.930 . S
H288 C298 0.930 . S
H289 C299 0.930 . S
C290 H284 0.930 . S
C290 C291 1.355 . S
C290 C292 1.415 . S
C291 C290 1.355 . S
C291 C293 1.419 . S
C292 C290 1.415 . S
C292 C297 1.425 . S
C292 C299 1.409 . S
C293 H285 0.930 . S
C293 C291 1.419 . S
C293 C294 1.362 . S
C294 H286 0.930 . S
C294 C293 1.362 . S
C294 C297 1.409 . S
C295 H287 0.930 . S
C295 C296 1.355 . S
C295 C297 1.415 . S
C296 C295 1.355 . S
C296 C298 1.419 . S
C297 C292 1.425 . S
C297 C294 1.409 . S
C297 C295 1.415 . S
C298 H288 0.930 . S
C298 C296 1.419 . S
C298 C299 1.362 . S
C299 H289 0.930 . S
C299 C292 1.409 . S
C299 C298 1.362 . S
H300 C306 0.930 . S
H301 C309 0.930 . S
H302 C310 0.930 . S
H303 C311 0.930 . S
H304 C314 0.930 . S
H305 C315 0.930 . S
C306 H300 0.930 . S
C306 C307 1.355 . S
C306 C308 1.415 . S
C307 C306 1.355 . S
C307 C309 1.419 . S
C308 C306 1.415 . S
C308 C313 1.425 . S
C308 C315 1.409 . S
C309 H301 0.930 . S
C309 C307 1.419 . S
C309 C310 1.362 . S
C310 H302 0.930 . S
C310 C309 1.362 . S
C310 C313 1.409 . S
C311 H303 0.930 . S
C311 C312 1.355 . S
C311 C313 1.415 . S
C312 C311 1.355 . S
C312 C314 1.419 . S
C313 C308 1.425 . S
C313 C310 1.409 . S
C313 C311 1.415 . S
C314 H304 0.930 . S
C314 C312 1.419 . S
C314 C315 1.362 . S
C315 H305 0.930 . S
C315 C308 1.409 . S
C315 C314 1.362 . S
H316 C322 0.930 . S
H317 C325 0.930 . S
H318 C326 0.930 . S
H319 C327 0.930 . S
H320 C330 0.930 . S
H321 C331 0.930 . S
C322 H316 0.930 . S
C322 C323 1.355 . S
C322 C324 1.415 . S
C323 C322 1.355 . S
C323 C325 1.419 . S
C324 C322 1.415 . S
C324 C329 1.425 . S
C324 C331 1.409 . S
C325 H317 0.930 . S
C325 C323 1.419 . S
C325 C326 1.362 . S
C326 H318 0.930 . S
C326 C325 1.362 . S
C326 C329 1.409 . S
C327 H319 0.930 . S
C327 C328 1.355 1_545 S
C327 C329 1.415 . S
C328 C327 1.355 1_565 S
C328 C330 1.419 . S
C329 C324 1.425 . S
C329 C326 1.409 . S
C329 C327 1.415 . S
C330 H320 0.930 . S
C330 C328 1.419 . S
C330 C331 1.362 1_565 S
C331 H321 0.930 . S
C331 C324 1.409 . S
C331 C330 1.362 1_545 S
H332 C338 0.930 . S
H333 C341 0.930 . S
H334 C342 0.930 . S
H335 C343 0.930 . S
H336 C346 0.930 . S
H337 C347 0.930 . S
C338 H332 0.930 . S
C338 C339 1.355 . S
C338 C340 1.415 . S
C339 C338 1.355 . S
C339 C341 1.419 . S
C340 C338 1.415 . S
C340 C345 1.425 . S
C340 C347 1.409 . S
C341 H333 0.930 . S
C341 C339 1.419 . S
C341 C342 1.362 . S
C342 H334 0.930 . S
C342 C341 1.362 . S
C342 C345 1.409 . S
C343 H335 0.930 . S
C343 C344 1.355 . S
C343 C345 1.415 . S
C344 C343 1.355 . S
C344 C346 1.419 . S
C345 C340 1.425 . S
C345 C342 1.409 . S
C345 C343 1.415 . S
C346 H336 0.930 . S
C346 C344 1.419 . S
C346 C347 1.362 . S
C347 H337 0.930 . S
C347 C340 1.409 . S
C347 C346 1.362 . S
H348 C354 0.930 . S
H349 C357 0.930 . S
H350 C358 0.930 . S
H351 C359 0.930 . S
H352 C362 0.930 . S
H353 C363 0.930 . S
C354 H348 0.930 . S
C354 C355 1.355 . S
C354 C356 1.415 . S
C355 C354 1.355 . S
C355 C357 1.419 . S
C356 C354 1.415 . S
C356 C361 1.425 . S
C356 C363 1.409 . S
C357 H349 0.930 . S
C357 C355 1.419 . S
C357 C358 1.362 . S
C358 H350 0.930 . S
C358 C357 1.362 . S
C358 C361 1.409 . S
C359 H351 0.930 . S
C359 C360 1.355 1_565 S
C359 C361 1.415 . S
C360 C359 1.355 1_545 S
C360 C362 1.419 . S
C361 C356 1.425 . S
C361 C358 1.409 . S
C361 C359 1.415 . S
C362 H352 0.930 . S
C362 C360 1.419 . S
C362 C363 1.362 1_545 S
C363 H353 0.930 . S
C363 C356 1.409 . S
C363 C362 1.362 1_565 S
H364 C370 0.930 . S
H365 C373 0.930 . S
H366 C374 0.930 . S
H367 C375 0.930 . S
H368 C378 0.930 . S
H369 C379 0.930 . S
C370 H364 0.930 . S
C370 C371 1.355 . S
C370 C372 1.415 . S
C371 C370 1.355 . S
C371 C373 1.419 . S
C372 C370 1.415 . S
C372 C377 1.425 . S
C372 C379 1.409 . S
C373 H365 0.930 . S
C373 C371 1.419 . S
C373 C374 1.362 . S
C374 H366 0.930 . S
C374 C373 1.362 . S
C374 C377 1.409 . S
C375 H367 0.930 . S
C375 C376 1.355 . S
C375 C377 1.415 . S
C376 C375 1.355 . S
C376 C378 1.419 . S
C377 C372 1.425 . S
C377 C374 1.409 . S
C377 C375 1.415 . S
C378 H368 0.930 . S
C378 C376 1.419 . S
C378 C379 1.362 . S
C379 H369 0.930 . S
C379 C372 1.409 . S
C379 C378 1.362 . S
C131 C63 0.618 . S
C136 C27 0.618 . S
C147 C93 0.819 1_556 S
C152 C55 0.819 1_554 S
C163 C62 0.936 . S
C168 C24 0.936 . S
C179 C94 0.901 . S
C184 C58 0.901 . S
C195 C1 1.868 . S
C200 C103 1.669 . S
C211 C64 2.031 . S
C216 C31 1.909 . S
C227 C33 1.655 . S
C232 C89 1.810 . S
C243 C117 1.851 . S
C248 C10 1.997 . S
C259 C18 1.733 1_655 S
C264 C11 1.733 . S
C275 C42 1.723 . S
C280 C49 1.723 . S
C291 C73 1.716 1_455 S
C296 C80 1.716 . S
C307 C104 1.716 . S
C312 C111 1.716 . S
C323 C0 1.966 . S
C328 C41 2.012 . S
C339 C2 1.635 . S
C344 C32 1.783 . S
C355 C86 1.908 . S
C360 C95 2.050 . S
C371 C120 1.793 . S
C376 C72 1.616 . S
