# Generated by pormake.
# Topology wne, (6)-cn, num edge types: 1
# Building blocks:
#     Node 0, Type 0, BuildingBlock: PAMTOO_clean_sbu_0, # of connection points: 6
#     Node 1, Type 0, BuildingBlock: PAMTOO_clean_sbu_0, # of connection points: 6
#     Node 2, Type 0, BuildingBlock: PAMTOO_clean_sbu_0, # of connection points: 6
#     Node 3, Type 0, BuildingBlock: PAMTOO_clean_sbu_0, # of connection points: 6
#     Node 4, Type 0, BuildingBlock: PAMTOO_clean_sbu_0, # of connection points: 6
#     Node 5, Type 0, BuildingBlock: PAMTOO_clean_sbu_0, # of connection points: 6
#     Node 6, Type 0, BuildingBlock: PAMTOO_clean_sbu_0, # of connection points: 6
#     Node 7, Type 0, BuildingBlock: PAMTOO_clean_sbu_0, # of connection points: 6
#     Node 8, Type 0, BuildingBlock: PAMTOO_clean_sbu_0, # of connection points: 6
#     Node 9, Type 0, BuildingBlock: PAMTOO_clean_sbu_0, # of connection points: 6
#     Node 10, Type 0, BuildingBlock: PAMTOO_clean_sbu_0, # of connection points: 6
#     Node 11, Type 0, BuildingBlock: PAMTOO_clean_sbu_0, # of connection points: 6
#     Node 12, Type 0, BuildingBlock: PAMTOO_clean_sbu_0, # of connection points: 6
#     Node 13, Type 0, BuildingBlock: PAMTOO_clean_sbu_0, # of connection points: 6
#     Node 14, Type 0, BuildingBlock: PAMTOO_clean_sbu_0, # of connection points: 6
#     Node 15, Type 0, BuildingBlock: PAMTOO_clean_sbu_0, # of connection points: 6
#     Node 16, Type 0, BuildingBlock: PAMTOO_clean_sbu_0, # of connection points: 6
#     Node 17, Type 0, BuildingBlock: PAMTOO_clean_sbu_0, # of connection points: 6
#     Node 18, Type 0, BuildingBlock: PAMTOO_clean_sbu_0, # of connection points: 6
#     Node 19, Type 0, BuildingBlock: PAMTOO_clean_sbu_0, # of connection points: 6
#     Node 20, Type 0, BuildingBlock: PAMTOO_clean_sbu_0, # of connection points: 6
#     Node 21, Type 0, BuildingBlock: PAMTOO_clean_sbu_0, # of connection points: 6
#     Node 22, Type 0, BuildingBlock: PAMTOO_clean_sbu_0, # of connection points: 6
#     Node 23, Type 0, BuildingBlock: PAMTOO_clean_sbu_0, # of connection points: 6
#     Node 24, Type 0, BuildingBlock: PAMTOO_clean_sbu_0, # of connection points: 6
#     Node 25, Type 0, BuildingBlock: PAMTOO_clean_sbu_0, # of connection points: 6
#     Node 26, Type 0, BuildingBlock: PAMTOO_clean_sbu_0, # of connection points: 6
#     Node 27, Type 0, BuildingBlock: PAMTOO_clean_sbu_0, # of connection points: 6
#     Node 28, Type 0, BuildingBlock: PAMTOO_clean_sbu_0, # of connection points: 6
#     Node 29, Type 0, BuildingBlock: PAMTOO_clean_sbu_0, # of connection points: 6
#     Node 30, Type 0, BuildingBlock: PAMTOO_clean_sbu_0, # of connection points: 6
#     Node 31, Type 0, BuildingBlock: PAMTOO_clean_sbu_0, # of connection points: 6
#     Node 32, Type 0, BuildingBlock: PAMTOO_clean_sbu_0, # of connection points: 6
#     Node 33, Type 0, BuildingBlock: PAMTOO_clean_sbu_0, # of connection points: 6
#     Node 34, Type 0, BuildingBlock: PAMTOO_clean_sbu_0, # of connection points: 6
#     Node 35, Type 0, BuildingBlock: PAMTOO_clean_sbu_0, # of connection points: 6
#     Edge 36, Type (0, 0), BuildingBlock: CIFDUS_clean_linker_0, # of connection points: 2
#     Edge 37, Type (0, 0), BuildingBlock: CIFDUS_clean_linker_0, # of connection points: 2
#     Edge 38, Type (0, 0), BuildingBlock: CIFDUS_clean_linker_0, # of connection points: 2
#     Edge 39, Type (0, 0), BuildingBlock: CIFDUS_clean_linker_0, # of connection points: 2
#     Edge 40, Type (0, 0), BuildingBlock: CIFDUS_clean_linker_0, # of connection points: 2
#     Edge 41, Type (0, 0), BuildingBlock: CIFDUS_clean_linker_0, # of connection points: 2
#     Edge 42, Type (0, 0), BuildingBlock: CIFDUS_clean_linker_0, # of connection points: 2
#     Edge 43, Type (0, 0), BuildingBlock: CIFDUS_clean_linker_0, # of connection points: 2
#     Edge 44, Type (0, 0), BuildingBlock: CIFDUS_clean_linker_0, # of connection points: 2
#     Edge 45, Type (0, 0), BuildingBlock: CIFDUS_clean_linker_0, # of connection points: 2
#     Edge 46, Type (0, 0), BuildingBlock: CIFDUS_clean_linker_0, # of connection points: 2
#     Edge 47, Type (0, 0), BuildingBlock: CIFDUS_clean_linker_0, # of connection points: 2
#     Edge 48, Type (0, 0), BuildingBlock: CIFDUS_clean_linker_0, # of connection points: 2
#     Edge 49, Type (0, 0), BuildingBlock: CIFDUS_clean_linker_0, # of connection points: 2
#     Edge 50, Type (0, 0), BuildingBlock: CIFDUS_clean_linker_0, # of connection points: 2
#     Edge 51, Type (0, 0), BuildingBlock: CIFDUS_clean_linker_0, # of connection points: 2
#     Edge 52, Type (0, 0), BuildingBlock: CIFDUS_clean_linker_0, # of connection points: 2
#     Edge 53, Type (0, 0), BuildingBlock: CIFDUS_clean_linker_0, # of connection points: 2
#     Edge 54, Type (0, 0), BuildingBlock: CIFDUS_clean_linker_0, # of connection points: 2
#     Edge 55, Type (0, 0), BuildingBlock: CIFDUS_clean_linker_0, # of connection points: 2
#     Edge 56, Type (0, 0), BuildingBlock: CIFDUS_clean_linker_0, # of connection points: 2
#     Edge 57, Type (0, 0), BuildingBlock: CIFDUS_clean_linker_0, # of connection points: 2
#     Edge 58, Type (0, 0), BuildingBlock: CIFDUS_clean_linker_0, # of connection points: 2
#     Edge 59, Type (0, 0), BuildingBlock: CIFDUS_clean_linker_0, # of connection points: 2
#     Edge 60, Type (0, 0), BuildingBlock: CIFDUS_clean_linker_0, # of connection points: 2
#     Edge 61, Type (0, 0), BuildingBlock: CIFDUS_clean_linker_0, # of connection points: 2
#     Edge 62, Type (0, 0), BuildingBlock: CIFDUS_clean_linker_0, # of connection points: 2
#     Edge 63, Type (0, 0), BuildingBlock: CIFDUS_clean_linker_0, # of connection points: 2
#     Edge 64, Type (0, 0), BuildingBlock: CIFDUS_clean_linker_0, # of connection points: 2
#     Edge 65, Type (0, 0), BuildingBlock: CIFDUS_clean_linker_0, # of connection points: 2
#     Edge 66, Type (0, 0), BuildingBlock: CIFDUS_clean_linker_0, # of connection points: 2
#     Edge 67, Type (0, 0), BuildingBlock: CIFDUS_clean_linker_0, # of connection points: 2
#     Edge 68, Type (0, 0), BuildingBlock: CIFDUS_clean_linker_0, # of connection points: 2
#     Edge 69, Type (0, 0), BuildingBlock: CIFDUS_clean_linker_0, # of connection points: 2
#     Edge 70, Type (0, 0), BuildingBlock: CIFDUS_clean_linker_0, # of connection points: 2
#     Edge 71, Type (0, 0), BuildingBlock: CIFDUS_clean_linker_0, # of connection points: 2
#     Edge 72, Type (0, 0), BuildingBlock: CIFDUS_clean_linker_0, # of connection points: 2
#     Edge 73, Type (0, 0), BuildingBlock: CIFDUS_clean_linker_0, # of connection points: 2
#     Edge 74, Type (0, 0), BuildingBlock: CIFDUS_clean_linker_0, # of connection points: 2
#     Edge 75, Type (0, 0), BuildingBlock: CIFDUS_clean_linker_0, # of connection points: 2
#     Edge 76, Type (0, 0), BuildingBlock: CIFDUS_clean_linker_0, # of connection points: 2
#     Edge 77, Type (0, 0), BuildingBlock: CIFDUS_clean_linker_0, # of connection points: 2
#     Edge 78, Type (0, 0), BuildingBlock: CIFDUS_clean_linker_0, # of connection points: 2
#     Edge 79, Type (0, 0), BuildingBlock: CIFDUS_clean_linker_0, # of connection points: 2
#     Edge 80, Type (0, 0), BuildingBlock: CIFDUS_clean_linker_0, # of connection points: 2
#     Edge 81, Type (0, 0), BuildingBlock: CIFDUS_clean_linker_0, # of connection points: 2
#     Edge 82, Type (0, 0), BuildingBlock: CIFDUS_clean_linker_0, # of connection points: 2
#     Edge 83, Type (0, 0), BuildingBlock: CIFDUS_clean_linker_0, # of connection points: 2
#     Edge 84, Type (0, 0), BuildingBlock: CIFDUS_clean_linker_0, # of connection points: 2
#     Edge 85, Type (0, 0), BuildingBlock: CIFDUS_clean_linker_0, # of connection points: 2
#     Edge 86, Type (0, 0), BuildingBlock: CIFDUS_clean_linker_0, # of connection points: 2
#     Edge 87, Type (0, 0), BuildingBlock: CIFDUS_clean_linker_0, # of connection points: 2
#     Edge 88, Type (0, 0), BuildingBlock: CIFDUS_clean_linker_0, # of connection points: 2
#     Edge 89, Type (0, 0), BuildingBlock: CIFDUS_clean_linker_0, # of connection points: 2
#     Edge 90, Type (0, 0), BuildingBlock: CIFDUS_clean_linker_0, # of connection points: 2
#     Edge 91, Type (0, 0), BuildingBlock: CIFDUS_clean_linker_0, # of connection points: 2
#     Edge 92, Type (0, 0), BuildingBlock: CIFDUS_clean_linker_0, # of connection points: 2
#     Edge 93, Type (0, 0), BuildingBlock: CIFDUS_clean_linker_0, # of connection points: 2
#     Edge 94, Type (0, 0), BuildingBlock: CIFDUS_clean_linker_0, # of connection points: 2
#     Edge 95, Type (0, 0), BuildingBlock: CIFDUS_clean_linker_0, # of connection points: 2
#     Edge 96, Type (0, 0), BuildingBlock: CIFDUS_clean_linker_0, # of connection points: 2
#     Edge 97, Type (0, 0), BuildingBlock: CIFDUS_clean_linker_0, # of connection points: 2
#     Edge 98, Type (0, 0), BuildingBlock: CIFDUS_clean_linker_0, # of connection points: 2
#     Edge 99, Type (0, 0), BuildingBlock: CIFDUS_clean_linker_0, # of connection points: 2
#     Edge 100, Type (0, 0), BuildingBlock: CIFDUS_clean_linker_0, # of connection points: 2
#     Edge 101, Type (0, 0), BuildingBlock: CIFDUS_clean_linker_0, # of connection points: 2
#     Edge 102, Type (0, 0), BuildingBlock: CIFDUS_clean_linker_0, # of connection points: 2
#     Edge 103, Type (0, 0), BuildingBlock: CIFDUS_clean_linker_0, # of connection points: 2
#     Edge 104, Type (0, 0), BuildingBlock: CIFDUS_clean_linker_0, # of connection points: 2
#     Edge 105, Type (0, 0), BuildingBlock: CIFDUS_clean_linker_0, # of connection points: 2
#     Edge 106, Type (0, 0), BuildingBlock: CIFDUS_clean_linker_0, # of connection points: 2
#     Edge 107, Type (0, 0), BuildingBlock: CIFDUS_clean_linker_0, # of connection points: 2
#     Edge 108, Type (0, 0), BuildingBlock: CIFDUS_clean_linker_0, # of connection points: 2
#     Edge 109, Type (0, 0), BuildingBlock: CIFDUS_clean_linker_0, # of connection points: 2
#     Edge 110, Type (0, 0), BuildingBlock: CIFDUS_clean_linker_0, # of connection points: 2
#     Edge 111, Type (0, 0), BuildingBlock: CIFDUS_clean_linker_0, # of connection points: 2
#     Edge 112, Type (0, 0), BuildingBlock: CIFDUS_clean_linker_0, # of connection points: 2
#     Edge 113, Type (0, 0), BuildingBlock: CIFDUS_clean_linker_0, # of connection points: 2
#     Edge 114, Type (0, 0), BuildingBlock: CIFDUS_clean_linker_0, # of connection points: 2
#     Edge 115, Type (0, 0), BuildingBlock: CIFDUS_clean_linker_0, # of connection points: 2
#     Edge 116, Type (0, 0), BuildingBlock: CIFDUS_clean_linker_0, # of connection points: 2
#     Edge 117, Type (0, 0), BuildingBlock: CIFDUS_clean_linker_0, # of connection points: 2
#     Edge 118, Type (0, 0), BuildingBlock: CIFDUS_clean_linker_0, # of connection points: 2
#     Edge 119, Type (0, 0), BuildingBlock: CIFDUS_clean_linker_0, # of connection points: 2
#     Edge 120, Type (0, 0), BuildingBlock: CIFDUS_clean_linker_0, # of connection points: 2
#     Edge 121, Type (0, 0), BuildingBlock: CIFDUS_clean_linker_0, # of connection points: 2
#     Edge 122, Type (0, 0), BuildingBlock: CIFDUS_clean_linker_0, # of connection points: 2
#     Edge 123, Type (0, 0), BuildingBlock: CIFDUS_clean_linker_0, # of connection points: 2
#     Edge 124, Type (0, 0), BuildingBlock: CIFDUS_clean_linker_0, # of connection points: 2
#     Edge 125, Type (0, 0), BuildingBlock: CIFDUS_clean_linker_0, # of connection points: 2
#     Edge 126, Type (0, 0), BuildingBlock: CIFDUS_clean_linker_0, # of connection points: 2
#     Edge 127, Type (0, 0), BuildingBlock: CIFDUS_clean_linker_0, # of connection points: 2
#     Edge 128, Type (0, 0), BuildingBlock: CIFDUS_clean_linker_0, # of connection points: 2
#     Edge 129, Type (0, 0), BuildingBlock: CIFDUS_clean_linker_0, # of connection points: 2
#     Edge 130, Type (0, 0), BuildingBlock: CIFDUS_clean_linker_0, # of connection points: 2
#     Edge 131, Type (0, 0), BuildingBlock: CIFDUS_clean_linker_0, # of connection points: 2
#     Edge 132, Type (0, 0), BuildingBlock: CIFDUS_clean_linker_0, # of connection points: 2
#     Edge 133, Type (0, 0), BuildingBlock: CIFDUS_clean_linker_0, # of connection points: 2
#     Edge 134, Type (0, 0), BuildingBlock: CIFDUS_clean_linker_0, # of connection points: 2
#     Edge 135, Type (0, 0), BuildingBlock: CIFDUS_clean_linker_0, # of connection points: 2
#     Edge 136, Type (0, 0), BuildingBlock: CIFDUS_clean_linker_0, # of connection points: 2
#     Edge 137, Type (0, 0), BuildingBlock: CIFDUS_clean_linker_0, # of connection points: 2
#     Edge 138, Type (0, 0), BuildingBlock: CIFDUS_clean_linker_0, # of connection points: 2
#     Edge 139, Type (0, 0), BuildingBlock: CIFDUS_clean_linker_0, # of connection points: 2
#     Edge 140, Type (0, 0), BuildingBlock: CIFDUS_clean_linker_0, # of connection points: 2
#     Edge 141, Type (0, 0), BuildingBlock: CIFDUS_clean_linker_0, # of connection points: 2
#     Edge 142, Type (0, 0), BuildingBlock: CIFDUS_clean_linker_0, # of connection points: 2
#     Edge 143, Type (0, 0), BuildingBlock: CIFDUS_clean_linker_0, # of connection points: 2
# Relax obj value: 0.343
# Max RMSD: 0.224
# Mean RMSD: 0.224
data_MOF--net-wne--node1-PAMTOO_clean_sbu_0--edge1-CIFDUS_clean_linker_0
_symmetry_space_group_name_H-M    P1
_symmetry_Int_Tables_number       1
_symmetry_cell_setting            triclinic
loop_
_symmetry_equiv_pos_as_xyz
'x, y, z'
_cell_length_a     79.164168
_cell_length_b     79.039758
_cell_length_c     27.491115
_cell_angle_alpha  89.816762
_cell_angle_beta   90.019053
_cell_angle_gamma 120.08265
loop_
_atom_site_label
_atom_site_type_symbol
_atom_site_fract_x
_atom_site_fract_y
_atom_site_fract_z
_atom_type_partial_charge
Dy0 Dy 0.31431 0.2364 0.13099 0.0
Dy1 Dy 0.28397 0.19095 0.09698 0.0
C2 C 0.27516 0.21247 0.18888 0.0
O3 O 0.33213 0.2219 0.14649 0.0
O4 O 0.30721 0.19001 0.1438 0.0
O5 O 0.32682 0.2568 0.1907 0.0
O6 O 0.33247 0.2671 0.11603 0.0
O7 O 0.30734 0.20443 0.03602 0.0
O8 O 0.33058 0.23416 0.06742 0.0
O9 O 0.26807 0.20579 0.0669 0.0
O10 O 0.28956 0.23743 0.0909 0.0
O11 O 0.26965 0.16763 0.0438 0.0
O12 O 0.26648 0.16047 0.12041 0.0
C13 C 0.32574 0.20309 0.15196 0.0
O14 O 0.29417 0.22146 0.19342 0.0
O15 O 0.26727 0.20009 0.15192 0.0
C16 C 0.32738 0.28617 0.17174 0.0
C17 C 0.31828 0.31609 0.16446 0.0
C18 C 0.30386 0.29665 0.15551 0.0
C19 C 0.30834 0.28172 0.15973 0.0
C20 C 0.34118 0.3052 0.18533 0.0
C21 C 0.3366 0.32008 0.18218 0.0
C22 C 0.33361 0.27192 0.16175 0.0
C23 C 0.3248 0.22066 0.03378 0.0
C24 C 0.27293 0.22437 0.07036 0.0
C25 C 0.26323 0.13493 0.06521 0.0
C26 C 0.26024 0.09786 0.04088 0.0
C27 C 0.27099 0.11477 1.01167 0.0
C28 C 0.27241 0.13287 0.02348 0.0
C29 C 0.25264 0.11816 0.09464 0.0
C30 C 0.25118 0.10005 0.08281 0.0
C31 C 0.26282 0.15355 0.07612 0.0
H32 H 0.28968 0.29324 0.14171 0.0
H33 H 0.29742 0.26697 0.14986 0.0
H34 H 0.35592 0.30885 0.19473 0.0
H35 H 0.34805 0.33499 0.18878 0.0
H36 H 0.27801 0.11399 0.97867 0.0
H37 H 0.28048 0.1452 0.99928 0.0
H38 H 0.24515 0.11897 0.12674 0.0
H39 H 0.24297 0.08775 0.10695 0.0
Dy40 Dy 0.8229 0.09028 0.13209 0.0
Dy41 Dy 0.86897 0.1084 0.09827 0.0
C42 C 0.84704 0.07435 0.18569 0.0
O43 O 0.83581 0.12109 0.15838 0.0
O44 O 0.86825 0.13321 0.13971 0.0
O45 O 0.80109 0.07928 0.1891 0.0
O46 O 0.7925 0.0773 0.11355 0.0
O47 O 0.8549 0.11712 0.037 0.0
O48 O 0.82586 0.11103 0.072 0.0
O49 O 0.85542 0.07838 0.06354 0.0
O50 O 0.82341 0.06665 0.08633 0.0
O51 O 0.89322 0.11928 0.04686 0.0
O52 O 0.89892 0.12089 0.12431 0.0
C53 C 0.85399 0.13564 0.15708 0.0
O54 O 0.83625 0.08227 0.19341 0.0
O55 O 0.85978 0.08124 0.14897 0.0
C56 C 0.77405 0.05005 0.16216 0.0
C57 C 0.7487 1.01052 0.14111 0.0
C58 C 0.76893 1.01803 0.14041 0.0
C59 C 0.78155 0.03766 0.15165 0.0
C60 C 0.75393 0.04214 0.16757 0.0
C61 C 0.74131 1.0224 0.15763 0.0
C62 C 0.7868 0.07125 0.15794 0.0
C63 C 0.83888 0.11866 0.03687 0.0
C64 C 0.83697 0.06419 0.06484 0.0
C65 C 0.92627 0.14349 0.07306 0.0
C66 C 0.9657 0.17475 0.05417 0.0
C67 C 0.95017 0.17097 0.02227 0.0
C68 C 0.93085 0.15553 0.03132 0.0
C69 C 0.94164 0.14776 0.10562 0.0
C70 C 0.96087 0.163 0.09645 0.0
C71 C 0.90661 0.12514 0.08068 0.0
H72 H 0.77492 1.00917 0.12764 0.0
H73 H 0.79712 0.04353 0.14817 0.0
H74 H 0.74793 0.05149 0.17562 0.0
H75 H 0.72573 1.01697 0.15788 0.0
H76 H 0.95307 0.17945 0.98916 0.0
H77 H 0.9196 0.1527 1.00487 0.0
H78 H 0.93891 0.13882 0.13785 0.0
H79 H 0.97209 0.1654 0.12257 0.0
Dy80 Dy 0.97042 0.74872 0.13509 0.0
Dy81 Dy 0.9537 0.77706 0.09734 0.0
C82 C 0.9853 0.78856 0.18761 0.0
O83 O 0.93778 0.72983 0.14711 0.0
O84 O 0.93039 0.75436 0.14692 0.0
O85 O 0.97582 0.73556 0.19785 0.0
O86 O 0.98616 0.73324 0.12646 0.0
O87 O 0.94286 0.75234 0.04017 0.0
O88 O 0.95449 0.73242 0.06805 0.0
O89 O 0.98257 0.79065 0.05842 0.0
O90 O 0.99628 0.77424 0.09588 0.0
O91 O 0.94266 0.78942 0.04341 0.0
O92 O 0.94278 0.79631 0.11947 0.0
C93 C 0.92511 0.73581 0.15377 0.0
O94 O 0.9757 0.76972 0.1954 0.0
O95 O 0.98042 0.7952 0.14869 0.0
C96 C 1.00759 0.74063 0.19136 0.0
C97 C 0.04814 0.75668 0.19643 0.0
C98 C 0.04029 0.76886 0.1876 0.0
C99 C 1.02008 0.76086 0.18524 0.0
C100 C 1.01524 0.72899 0.20674 0.0
C101 C 1.03544 0.73702 0.20983 0.0
C102 C 0.9875 0.73156 0.1734 0.0
C103 C 0.9445 0.73638 0.03627 0.0
C104 C 0.99775 0.78839 0.06698 0.0
C105 C 0.91953 0.79978 0.06821 0.0
C106 C 0.88847 0.80811 0.0495 0.0
C107 C 0.89255 0.7968 1.01694 0.0
C108 C 0.90789 0.79284 0.02593 0.0
C109 C 0.915 0.81049 0.10139 0.0
C110 C 0.89982 0.81453 0.09232 0.0
C111 C 0.93782 0.79843 0.07547 0.0
H112 H 0.0497 0.78405 0.17747 0.0
H113 H 1.01431 0.77012 0.17411 0.0
H114 H 1.00578 0.71341 0.21211 0.0
H115 H 0.04099 0.72721 0.21677 0.0
H116 H 0.8844 0.79163 0.98338 0.0
H117 H 0.91096 0.78479 0.99895 0.0
H118 H 0.92365 0.81633 0.13406 0.0
H119 H 0.89716 0.82299 0.11896 0.0
Dy120 Dy 0.24917 0.30264 0.41338 0.0
Dy121 Dy 0.2015 0.2747 0.43627 0.0
C122 C 0.22522 0.26239 0.35248 0.0
O123 O 0.23574 0.3183 0.37368 0.0
O124 O 0.20466 0.30271 0.40533 0.0
O125 O 0.27277 0.31641 0.36145 0.0
O126 O 0.27873 0.31949 0.43912 0.0
O127 O 0.21515 0.29515 0.50274 0.0
O128 O 0.24439 0.31935 0.47163 0.0
O129 O 0.21337 0.25596 0.46395 0.0
O130 O 0.24657 0.27732 0.45967 0.0
O131 O 0.17692 0.25823 0.48543 0.0
O132 O 0.17156 0.2617 0.40992 0.0
C133 C 0.2188 0.3174 0.38116 0.0
O134 O 0.24162 0.27816 0.36288 0.0
O135 O 0.20831 0.25906 0.37242 0.0
C136 C 0.29867 0.3128 0.39027 0.0
C137 C 0.3237 0.29763 0.40253 0.0
C138 C 0.33119 0.31733 0.38898 0.0
C139 C 0.31873 0.32492 0.38332 0.0
C140 C 0.29101 0.29269 0.39863 0.0
C141 C 0.30346 0.28517 0.40531 0.0
C142 C 0.28592 0.32116 0.3954 0.0
C143 C 0.23096 0.3129 0.50555 0.0
C144 C 0.2315 0.25995 0.47069 0.0
C145 C 0.145 0.25391 0.46649 0.0
C146 C 0.10838 0.25103 0.49368 0.0
C147 C 0.10982 0.23425 0.48422 0.0
C148 C 0.12773 0.23569 0.47096 0.0
C149 C 0.14379 0.27079 0.47566 0.0
C150 C 0.12581 0.26938 0.48909 0.0
C151 C 0.16367 0.25443 0.45224 0.0
H152 H 0.3468 0.32731 0.38734 0.0
H153 H 0.32484 0.34043 0.37671 0.0
H154 H 0.27549 0.28307 0.40341 0.0
H155 H 0.29741 0.27 0.41593 0.0
H156 H 0.09715 0.21981 0.48794 0.0
H157 H 0.12807 0.22236 0.46434 0.0
H158 H 0.15672 0.28509 0.47243 0.0
H159 H 0.12558 0.28277 0.49533 0.0
Dy160 Dy 0.7581 0.96053 0.40883 0.0
Dy161 Dy 0.78422 0.94007 0.44012 0.0
C162 C 0.79689 0.97397 0.35239 0.0
O163 O 0.73828 0.92938 0.3852 0.0
O164 O 0.75833 0.91644 0.39795 0.0
O165 O 0.7473 0.97153 0.35183 0.0
O166 O 0.7429 0.97581 0.42761 0.0
O167 O 0.76085 0.93051 0.50007 0.0
O168 O 0.74023 0.94095 0.47055 0.0
O169 O 0.8003 0.96864 0.48048 0.0
O170 O 0.78401 0.98396 0.45175 0.0
O171 O 0.79785 0.92942 0.49083 0.0
O172 O 0.79985 0.92559 0.41358 0.0
C173 C 0.74148 0.91453 0.3837 0.0
O174 O 0.77814 0.96617 0.34571 0.0
O175 O 0.8027 0.96728 0.38965 0.0
C176 C 0.75197 1.00215 0.37518 0.0
C177 C 0.76815 0.04258 0.38692 0.0
C178 C 0.77999 0.03415 0.39167 0.0
C179 C 0.77196 1.01404 0.3853 0.0
C180 C 0.74064 1.01076 0.36554 0.0
C181 C 0.74874 0.03091 0.37088 0.0
C182 C 0.74257 0.98097 0.38264 0.0
C183 C 0.74441 0.93121 0.50272 0.0
C184 C 0.79843 0.9843 0.47694 0.0
C185 C 0.80326 0.90279 0.46761 0.0
C186 C 0.80688 0.86907 0.49199 0.0
C187 C 0.79667 0.87538 0.52235 0.0
C188 C 0.79495 0.8919 0.51052 0.0
C189 C 0.8132 0.89638 0.43691 0.0
C190 C 0.81496 0.87989 0.44876 0.0
C191 C 0.80384 0.92195 0.45729 0.0
H192 H 0.79494 0.0428 0.40405 0.0
H193 H 0.78096 1.00758 0.39209 0.0
H194 H 0.72522 1.00179 0.35756 0.0
H195 H 0.73919 0.03699 0.36753 0.0
H196 H 0.7904 0.86789 0.55633 0.0
H197 H 0.78744 0.89637 0.53574 0.0
H198 H 0.82005 0.90443 0.4039 0.0
H199 H 0.82271 0.87564 0.42372 0.0
Dy200 Dy 0.10209 0.81436 0.39995 0.0
Dy201 Dy 0.11923 0.8602 0.43352 0.0
C202 C 0.0876 0.8389 0.34323 0.0
O203 O 0.13468 0.8283 0.38538 0.0
O204 O 0.14237 0.86038 0.38471 0.0
O205 O 0.09458 0.79399 0.34027 0.0
O206 O 0.08798 0.78352 0.41473 0.0
O207 O 0.13087 0.8472 0.49116 0.0
O208 O 0.11902 0.81532 0.4661 0.0
O209 O 0.09037 0.84535 0.47258 0.0
O210 O 0.07642 0.81473 0.43788 0.0
O211 O 0.1297 0.88383 0.48644 0.0
O212 O 0.13109 0.89047 0.40973 0.0
C213 C 0.14745 0.84698 0.37828 0.0
O214 O 0.09685 0.82923 0.33733 0.0
O215 O 0.0927 0.85108 0.38086 0.0
C216 C 0.06471 0.76521 0.35616 0.0
C217 C 1.02542 0.73559 0.35894 0.0
C218 C 1.0306 0.75492 0.37 0.0
C219 C 0.05016 0.76971 0.3682 0.0
C220 C 0.05936 0.74645 0.33984 0.0
C221 C 0.03978 0.73175 0.34068 0.0
C222 C 0.08511 0.77887 0.36876 0.0
C223 C 0.12942 0.82973 0.49623 0.0
C224 C 0.07509 0.82783 0.46514 0.0
C225 C 0.15399 0.91709 0.46195 0.0
C226 C 0.18559 0.95622 0.48198 0.0
C227 C 0.18049 0.94068 0.51516 0.0
C228 C 0.1649 0.92152 0.50551 0.0
C229 C 0.15956 0.93246 0.42821 0.0
C230 C 0.17499 0.95155 0.43792 0.0
C231 C 0.13545 0.89766 0.4537 0.0
H232 H 1.01981 0.75825 0.3841 0.0
H233 H 0.05407 0.78424 0.38026 0.0
H234 H 0.07041 0.74278 0.33028 0.0
H235 H 0.03622 0.71695 0.33219 0.0
H236 H 0.18802 0.94346 0.54964 0.0
H237 H 0.16104 0.91031 0.53293 0.0
H238 H 0.15152 0.92988 0.39455 0.0
H239 H 0.17845 0.96277 0.41076 0.0
Dy240 Dy 0.78972 0.86089 0.94049 0.0
Dy241 Dy 0.7606 0.81651 0.89948 0.0
C242 C 0.74892 0.82945 1.00035 0.0
O243 O 0.80413 0.84513 0.97438 0.0
O244 O 0.78415 0.81444 0.94231 0.0
O245 O 0.80224 0.88409 0.99478 0.0
O246 O 0.80951 0.89111 0.91872 0.0
O247 O 0.78298 0.83163 0.84076 0.0
O248 O 0.80764 0.8519 0.88985 0.0
O249 O 0.74264 0.83079 0.88404 0.0
O250 O 0.76667 0.86275 0.89434 0.0
O251 O 0.74946 0.79761 0.83658 0.0
O252 O 0.74238 0.78549 0.90962 0.0
C253 C 0.79966 0.82675 0.96792 0.0
O254 O 0.76599 0.84615 0.99984 0.0
O255 O 0.74377 0.81673 0.96477 0.0
C256 C 0.81334 0.91788 0.96997 0.0
C257 C 0.82144 0.95723 0.98898 0.0
C258 C 0.80702 0.94104 1.01552 0.0
C259 C 0.80315 0.92173 1.00647 0.0
C260 C 0.82723 0.93396 0.94257 0.0
C261 C 0.8312 0.95316 0.95181 0.0
C262 C 0.81158 0.89804 0.96281 0.0
C263 C 0.80161 0.84044 0.85082 0.0
C264 C 0.74852 0.84959 0.88264 0.0
C265 C 0.75267 0.77005 0.85332 0.0
C266 C 0.76849 0.74561 0.8356 0.0
C267 C 0.76185 0.75245 0.79679 0.0
C268 C 0.75381 0.7644 0.80564 0.0
C269 C 0.76123 0.76498 0.89116 0.0
C270 C 0.76906 0.75301 0.88247 0.0
C271 C 0.74363 0.78206 0.8637 0.0
H272 H 0.7992 0.94336 0.04462 0.0
H273 H 0.79247 0.90989 0.02884 0.0
H274 H 0.83552 0.93175 0.91447 0.0
H275 H 0.84216 0.96493 0.92981 0.0
H276 H 0.7617 0.74757 0.76008 0.0
H277 H 0.74797 0.76874 0.77549 0.0
H278 H 0.76124 0.7696 0.92821 0.0
H279 H 0.77393 0.74827 0.91374 0.0
Dy280 Dy 0.20292 0.94168 0.93927 0.0
Dy281 Dy 0.24933 0.9617 0.90632 0.0
C282 C 0.234 0.93304 1.00136 0.0
O283 O 0.2157 0.97054 0.97811 0.0
O284 O 0.24729 0.98548 0.94919 0.0
O285 O 0.1791 0.93216 0.99093 0.0
O286 O 0.17257 0.92658 0.91427 0.0
O287 O 0.23506 0.96751 0.84326 0.0
O288 O 0.21145 0.96845 0.88711 0.0
O289 O 0.23722 0.93056 0.88063 0.0
O290 O 0.20466 0.91717 0.90017 0.0
O291 O 0.27135 0.97376 0.84977 0.0
O292 O 0.27973 0.9752 0.92526 0.0
C293 C 0.23329 0.98609 0.97418 0.0
O294 O 0.21712 0.9329 0.99986 0.0
O295 O 0.24745 0.94195 0.96769 0.0
C296 C 0.14706 0.90474 0.97126 0.0
C297 C 0.1101 0.87127 0.99948 0.0
C298 C 0.12619 0.87988 0.03169 0.0
C299 C 0.14422 0.89625 1.01795 0.0
C300 C 0.13113 0.89606 0.9388 0.0
C301 C 0.11307 0.87966 0.95252 0.0
C302 C 0.16534 0.92382 0.95834 0.0
C303 C 0.22391 0.97511 0.84971 0.0
C304 C 0.21927 0.91541 0.88267 0.0
C305 C 0.29882 1.00262 0.87749 0.0
C306 C 0.32556 0.04182 0.89902 0.0
C307 C 0.30545 0.03489 0.9019 0.0
C308 C 0.29214 1.01543 0.89065 0.0
C309 C 0.31875 1.00999 0.86968 0.0
C310 C 0.33205 0.02956 0.8798 0.0
C311 C 0.2856 0.98145 0.8811 0.0
H312 H 0.12477 0.87436 0.06843 0.0
H313 H 0.15583 0.90254 0.0446 0.0
H314 H 0.13249 0.90223 0.90281 0.0
H315 H 0.10142 0.87359 0.926 0.0
H316 H 0.3001 0.04404 0.91662 0.0
H317 H 0.27675 1.00997 0.89625 0.0
H318 H 0.32414 1.0003 0.85969 0.0
H319 H 0.3475 0.03446 0.87769 0.0
Dy320 Dy 0.11743 0.27229 0.94475 0.0
Dy321 Dy 0.10271 0.3016 0.90135 0.0
C322 C 0.12765 0.31384 1.00204 0.0
O323 O 0.08741 0.25872 0.97943 0.0
O324 O 0.07693 0.27865 0.94546 0.0
O325 O 0.12822 0.26027 1.00034 0.0
O326 O 0.12734 0.25197 0.92509 0.0
O327 O 0.0951 0.27854 0.84413 0.0
O328 O 0.09031 0.25414 0.8951 0.0
O329 O 0.13522 0.31927 0.88926 0.0
O330 O 0.14183 0.29427 0.89549 0.0
O331 O 0.09761 0.31401 0.83665 0.0
O332 O 0.08881 0.31892 0.90753 0.0
C333 C 0.07367 0.26339 0.97256 0.0
O334 O 0.12736 0.29682 1.0019 0.0
O335 O 0.11965 0.31872 0.96673 0.0
C336 C 0.15084 0.24907 0.97644 0.0
C337 C 0.18222 0.24117 0.99526 0.0
C338 C 0.17941 0.25423 0.0246 0.0
C339 C 0.16391 0.25799 1.01561 0.0
C340 C 0.15409 0.23658 0.94633 0.0
C341 C 0.1694 0.23273 0.95546 0.0
C342 C 0.13258 0.25052 0.96931 0.0
C343 C 0.08521 0.25992 0.85495 0.0
C344 C 0.14757 0.31279 0.88585 0.0
C345 C 0.06684 0.31141 0.84408 0.0
C346 C 1.02655 0.29721 0.84516 0.0
C347 C 1.03365 0.28424 0.85124 0.0
C348 C 0.05373 0.29133 0.85057 0.0
C349 C 0.05975 0.32383 0.83154 0.0
C350 C 0.03967 0.31671 0.83141 0.0
C351 C 0.08705 0.31966 0.86045 0.0
H352 H 0.18873 0.26101 0.05577 0.0
H353 H 0.1619 0.26753 0.04016 0.0
H354 H 0.14436 0.22924 0.91614 0.0
H355 H 0.17103 0.22286 0.93127 0.0
H356 H 1.0239 0.26917 0.86174 0.0
H357 H 0.05905 0.28151 0.86006 0.0
H358 H 0.06968 0.33934 0.82646 0.0
H359 H 1.03469 0.32712 0.82668 0.0
Dy360 Dy 0.87036 0.77608 0.59433 0.0
Dy361 Dy 0.82463 0.74776 0.62988 0.0
C362 C 0.83977 0.73512 0.53416 0.0
O363 O 0.85577 0.79045 0.55571 0.0
O364 O 0.82447 0.77249 0.58622 0.0
O365 O 0.89339 0.78984 0.54024 0.0
O366 O 0.90102 0.79322 0.61642 0.0
O367 O 0.83893 0.76929 0.69069 0.0
O368 O 0.86129 0.79418 0.64452 0.0
O369 O 0.83831 0.72924 0.64865 0.0
O370 O 0.87056 0.7531 0.64355 0.0
O371 O 0.80385 0.73616 0.68923 0.0
O372 O 0.794 0.73006 0.61443 0.0
C373 C 0.83781 0.78734 0.5601 0.0
O374 O 0.85689 0.75164 0.53685 0.0
O375 O 0.82588 0.73076 0.56629 0.0
C376 C 0.92604 0.79599 0.55929 0.0
C377 C 0.963 0.79947 0.53164 0.0
C378 C 0.94686 0.79178 0.49953 0.0
C379 C 0.92884 0.79012 0.51298 0.0
C380 C 0.94203 0.80351 0.59162 0.0
C381 C 0.96008 0.80518 0.57818 0.0
C382 C 0.90765 0.79662 0.57174 0.0
C383 C 0.84919 0.78813 0.68266 0.0
C384 C 0.85699 0.73492 0.65362 0.0
C385 C 0.77555 0.73706 0.66723 0.0
C386 C 0.74842 0.74947 0.65218 0.0
C387 C 0.76847 0.76304 0.65007 0.0
C388 C 0.78198 0.75688 0.65802 0.0
C389 C 0.75567 0.72391 0.67385 0.0
C390 C 0.74217 0.73013 0.66699 0.0
C391 C 0.78897 0.72964 0.65976 0.0
H392 H 0.94822 0.78749 0.46307 0.0
H393 H 0.9172 0.78461 0.48638 0.0
H394 H 0.94071 0.80851 0.6273 0.0
H395 H 0.97177 0.81095 0.60461 0.0
H396 H 0.77362 0.77795 0.63841 0.0
H397 H 0.79734 0.76719 0.65277 0.0
H398 H 0.75049 0.70856 0.68069 0.0
H399 H 0.72677 0.71929 0.66826 0.0
Dy400 Dy 0.28405 0.1076 0.59146 0.0
Dy401 Dy 0.31336 0.09295 0.63506 0.0
C402 C 0.32521 0.11708 0.53301 0.0
O403 O 0.27019 0.07716 0.55921 0.0
O404 O 0.29001 0.06663 0.5935 0.0
O405 O 0.27109 0.11686 0.53472 0.0
O406 O 0.2651 0.11919 0.61032 0.0
O407 O 0.29019 0.08501 0.69201 0.0
O408 O 0.26572 0.0807 0.64203 0.0
O409 O 0.33087 0.12569 0.64508 0.0
O410 O 0.30572 0.13199 0.64074 0.0
O411 O 0.32679 0.08947 0.69988 0.0
O412 O 0.33024 0.07854 0.63039 0.0
C413 C 0.27463 0.06329 0.56699 0.0
O414 O 0.30861 0.11755 0.53424 0.0
O415 O 0.32986 0.10865 0.56774 0.0
C416 C 0.26196 0.14114 0.55421 0.0
C417 C 0.25921 0.17555 0.53393 0.0
C418 C 0.27639 0.1769 0.55374 0.0
C419 C 0.27772 0.15999 0.56385 0.0
C420 C 0.24492 0.13976 0.53433 0.0
C421 C 0.24354 0.15657 0.52444 0.0
C422 C 0.2624 0.12265 0.5653 0.0
C423 C 0.2716 0.07519 0.68129 0.0
C424 C 0.32429 0.13794 0.64932 0.0
C425 C 0.32451 0.05871 0.69834 0.0
C426 C 0.31247 1.01917 0.71298 0.0
C427 C 0.29894 1.02462 0.69768 0.0
C428 C 0.30493 0.04433 0.69055 0.0
C429 C 0.33732 0.05352 0.7195 0.0
C430 C 0.33127 0.03383 0.72731 0.0
C431 C 0.33202 0.07827 0.67759 0.0
H432 H 0.2888 0.19105 0.56225 0.0
H433 H 0.29104 0.16167 0.57942 0.0
H434 H 0.23249 0.12552 0.52642 0.0
H435 H 0.23016 0.15459 0.50855 0.0
H436 H 0.28437 1.01363 0.68665 0.0
H437 H 0.29474 0.0482 0.67493 0.0
H438 H 0.3524 0.06449 0.7262 0.0
H439 H 0.34207 0.0301 0.73907 0.0
Dy440 Dy 0.95285 0.18938 0.59729 0.0
Dy441 Dy 0.97021 0.23468 0.63507 0.0
C442 C 0.94329 0.22077 0.5376 0.0
O443 O 0.98158 0.20484 0.55737 0.0
O444 O 0.99558 0.23531 0.59316 0.0
O445 O 0.94244 0.1663 0.54314 0.0
O446 O 0.94056 0.15879 0.61932 0.0
O447 O 0.9767 0.21925 0.69456 0.0
O448 O 0.98022 0.19825 0.64612 0.0
O449 O 0.93766 0.22072 0.64924 0.0
O450 O 0.93005 0.18872 0.64842 0.0
O451 O 0.977 0.25373 0.6973 0.0
O452 O 0.98459 0.26579 0.62432 0.0
C453 C 0.99676 0.22252 0.5643 0.0
O454 O 0.94162 0.20317 0.54114 0.0
O455 O 0.95354 0.23472 0.56907 0.0
C456 C 0.91703 0.13339 0.56551 0.0
C457 C 0.88293 0.09614 0.54277 0.0
C458 C 0.88864 0.11295 0.51356 0.0
C459 C 0.90533 0.13114 0.52459 0.0
C460 C 0.9113 0.11671 0.59496 0.0
C461 C 0.89462 0.0985 0.58392 0.0
C462 C 0.93617 0.15208 0.57493 0.0
C463 C 0.98592 0.20979 0.68507 0.0
C464 C 0.92494 0.20203 0.65594 0.0
C465 C 1.00723 0.28248 0.68543 0.0
C466 C 0.04666 0.31163 0.68595 0.0
C467 C 0.04132 0.29244 0.67283 0.0
C468 C 1.02167 0.27787 0.67293 0.0
C469 C 1.0127 0.30093 0.70417 0.0
C470 C 1.03236 0.3154 0.70495 0.0
C471 C 0.98695 0.26941 0.67088 0.0
H472 H 0.88049 0.11203 0.48109 0.0
H473 H 0.90925 0.14338 0.50033 0.0
H474 H 0.91998 0.11765 0.62639 0.0
H475 H 0.89088 0.08625 0.608 0.0
H476 H 0.05206 0.28917 0.65815 0.0
H477 H 1.01764 0.26353 0.65905 0.0
H478 H 1.00173 0.30465 0.71421 0.0
H479 H 1.03605 0.3301 0.71508 0.0
Dy480 Dy 0.97909 0.56932 0.46918 0.0
Dy481 Dy 0.95076 0.52407 0.43131 0.0
C482 C 0.93841 0.54469 0.51951 0.0
O483 O 0.99723 0.55489 0.48401 0.0
O484 O 0.97273 0.52289 0.48197 0.0
O485 O 0.99186 0.58877 0.53054 0.0
O486 O 0.99614 0.60031 0.45703 0.0
O487 O 0.97617 0.53734 0.37624 0.0
O488 O 0.99565 0.56906 0.40316 0.0
O489 O 0.93815 0.53998 0.39065 0.0
O490 O 0.95407 0.56999 0.42866 0.0
O491 O 0.93759 0.50118 0.37671 0.0
O492 O 0.93207 0.49359 0.45287 0.0
C493 C 0.99114 0.53613 0.49002 0.0
O494 O 0.95712 0.55436 0.5289 0.0
O495 O 0.93254 0.53307 0.48071 0.0
C496 C 0.99137 0.61801 0.51756 0.0
C497 C 0.98191 0.64777 0.51769 0.0
C498 C 0.96749 0.62845 0.50726 0.0
C499 C 0.97217 0.61359 0.50757 0.0
C500 C 1.00513 0.63678 0.53305 0.0
C501 C 1.00036 0.65153 0.53376 0.0
C502 C 0.99784 0.60432 0.50341 0.0
C503 C 0.99212 0.55491 0.37249 0.0
C504 C 0.94031 0.55742 0.39896 0.0
C505 C 0.92842 0.46795 0.39815 0.0
C506 C 0.92573 0.43106 0.37539 0.0
C507 C 0.94387 0.44797 0.38605 0.0
C508 C 0.9452 0.46609 0.39723 0.0
C509 C 0.91036 0.45116 0.38801 0.0
C510 C 0.90901 0.43311 0.37688 0.0
C511 C 0.92904 0.48698 0.40832 0.0
H512 H 0.9532 0.62519 0.49473 0.0
H513 H 0.96131 0.59906 0.49588 0.0
H514 H 1.02 0.6404 0.54077 0.0
H515 H 1.01181 0.66632 0.54161 0.0
H516 H 0.95716 0.44723 0.38613 0.0
H517 H 0.95935 0.47866 0.40496 0.0
H518 H 0.89714 0.45205 0.38815 0.0
H519 H 0.89478 0.42084 0.36829 0.0
Dy520 Dy 0.4915 0.42229 0.45813 0.0
Dy521 Dy 0.53718 0.43904 0.42747 0.0
C522 C 0.51538 0.40911 0.51894 0.0
O523 O 0.50488 0.45497 0.47024 0.0
O524 O 0.53674 0.46223 0.47502 0.0
O525 O 0.47146 0.41495 0.51849 0.0
O526 O 0.46054 0.40703 0.44493 0.0
O527 O 0.52448 0.45061 0.368 0.0
O528 O 0.49243 0.43882 0.39151 0.0
O529 O 0.52294 0.41034 0.38813 0.0
O530 O 0.49229 0.39641 0.42234 0.0
O531 O 0.56136 0.44966 0.37607 0.0
O532 O 0.56713 0.45077 0.4532 0.0
C533 C 0.52343 0.46756 0.47932 0.0
O534 O 0.50823 0.42079 0.52136 0.0
O535 O 0.52726 0.41239 0.48148 0.0
C536 C 0.44455 0.3836 0.50516 0.0
C537 C 0.41929 0.34302 0.50428 0.0
C538 C 0.43934 0.35073 0.49655 0.0
C539 C 0.45191 0.37093 0.49719 0.0
C540 C 0.42504 0.37589 0.51855 0.0
C541 C 0.41248 0.35568 0.51859 0.0
C542 C 0.45635 0.40423 0.49121 0.0
C543 C 0.50702 0.44913 0.36171 0.0
C544 C 0.50547 0.39501 0.39555 0.0
C545 C 0.59438 0.47357 0.4021 0.0
C546 C 0.63364 0.50495 0.38254 0.0
C547 C 0.61789 0.50145 0.35179 0.0
C548 C 0.59864 0.48596 0.36118 0.0
C549 C 0.60997 0.47755 0.4336 0.0
C550 C 0.62913 0.49286 0.4241 0.0
C551 C 0.57478 0.45519 0.40962 0.0
H552 H 0.44495 0.34133 0.4855 0.0
H553 H 0.46704 0.37667 0.48745 0.0
H554 H 0.41916 0.38546 0.52496 0.0
H555 H 0.39705 0.35018 0.52431 0.0
H556 H 0.62054 0.5102 0.31927 0.0
H557 H 0.58721 0.48336 0.33555 0.0
H558 H 0.60747 0.46834 0.46517 0.0
H559 H 0.64055 0.49506 0.44937 0.0
Dy560 Dy 0.63911 0.08095 0.46106 0.0
Dy561 Dy 0.61912 0.10791 0.43152 0.0
C562 C 0.65267 0.11971 0.51962 0.0
O563 O 0.60771 0.06148 0.48385 0.0
O564 O 0.59535 0.0822 0.47416 0.0
O565 O 0.64864 0.06856 0.51766 0.0
O566 O 0.65476 0.06617 0.44188 0.0
O567 O 0.60941 0.08448 0.37114 0.0
O568 O 0.62009 0.06375 0.3986 0.0
O569 O 0.64826 0.12443 0.3936 0.0
O570 O 0.66308 0.10741 0.42074 0.0
O571 O 0.60841 0.12138 0.38005 0.0
O572 O 0.60533 0.12423 0.45736 0.0
C573 C 0.59311 0.06502 0.48678 0.0
O574 O 0.64552 0.10087 0.52409 0.0
O575 O 0.64519 0.12606 0.48534 0.0
C576 C 0.67975 0.07376 0.49756 0.0
C577 C 0.72033 0.08961 0.49314 0.0
C578 C 0.71227 0.10167 0.48563 0.0
C579 C 0.69208 0.09378 0.48801 0.0
C580 C 0.68784 0.06223 0.51041 0.0
C581 C 0.70805 0.07014 0.50862 0.0
C582 C 0.65882 0.06463 0.48716 0.0
C583 C 0.61022 0.06806 0.36737 0.0
C584 C 0.6638 0.12239 0.39727 0.0
C585 C 0.58326 0.12906 0.40431 0.0
C586 C 0.55214 0.137 0.38242 0.0
C587 C 0.55726 0.1265 0.34979 0.0
C588 C 0.57263 0.12274 0.36035 0.0
C589 C 0.57764 0.13889 0.43752 0.0
C590 C 0.56245 0.14275 0.42689 0.0
C591 C 0.60167 0.12813 0.41361 0.0
H592 H 0.72137 0.11669 0.47384 0.0
H593 H 0.68605 0.10298 0.4788 0.0
H594 H 0.67853 0.0468 0.51821 0.0
H595 H 0.7138 0.0604 0.51425 0.0
H596 H 0.54992 0.12186 0.31505 0.0
H597 H 0.57655 0.11536 0.33333 0.0
H598 H 0.58549 0.14422 0.47145 0.0
H599 H 0.55896 0.15056 0.45362 0.0
Dy600 Dy 0.91261 0.63546 0.73692 0.0
Dy601 Dy 0.86867 0.60611 0.77971 0.0
C602 C 0.88859 0.59394 0.68983 0.0
O603 O 0.89777 0.65319 0.72514 0.0
O604 O 0.86619 0.6281 0.73061 0.0
O605 O 0.93005 0.64833 0.67237 0.0
O606 O 0.9439 0.65244 0.74285 0.0
O607 O 0.88318 0.63053 0.83727 0.0
O608 O 0.91288 0.65249 0.80253 0.0
O609 O 0.88503 0.59257 0.81503 0.0
O610 O 0.91543 0.61242 0.78099 0.0
O611 O 0.84571 0.59408 0.83479 0.0
O612 O 0.83855 0.58551 0.75956 0.0
C613 C 0.87893 0.64667 0.72129 0.0
O614 O 0.89723 0.61258 0.67929 0.0
O615 O 0.87783 0.5881 0.73012 0.0
C616 C 0.95781 0.64501 0.67795 0.0
C617 C 0.98324 0.63007 0.67394 0.0
C618 C 0.98973 0.64963 0.66048 0.0
C619 C 0.97709 0.65711 0.66306 0.0
C620 C 0.95061 0.62489 0.68441 0.0
C621 C 0.96327 0.61743 0.68247 0.0
C622 C 0.94627 0.65352 0.6957 0.0
C623 C 0.89996 0.64754 0.83776 0.0
C624 C 0.90342 0.5972 0.80827 0.0
C625 C 0.81184 0.58208 0.81034 0.0
C626 C 0.77255 0.5739 0.82942 0.0
C627 C 0.78885 0.58977 0.85186 0.0
C628 C 0.80817 0.59371 0.8428 0.0
C629 C 0.79563 0.56673 0.78677 0.0
C630 C 0.77645 0.56271 0.79608 0.0
C631 C 0.83174 0.58404 0.80364 0.0
H632 H 1.00506 0.6598 0.65388 0.0
H633 H 0.98282 0.67264 0.65779 0.0
H634 H 0.93565 0.61534 0.69567 0.0
H635 H 0.95788 0.60234 0.6928 0.0
H636 H 0.78665 0.59873 0.87792 0.0
H637 H 0.82016 0.60558 0.86206 0.0
H638 H 0.79773 0.55736 0.76181 0.0
H639 H 0.76454 0.55055 0.77732 0.0
Dy640 Dy 0.42664 0.29336 0.744 0.0
Dy641 Dy 0.45444 0.27441 0.77384 0.0
C642 C 0.46566 0.30748 0.68472 0.0
O643 O 0.40758 0.26131 0.7228 0.0
O644 O 0.4308 0.25198 0.7255 0.0
O645 O 0.41503 0.30404 0.68797 0.0
O646 O 0.40994 0.30689 0.76416 0.0
O647 O 0.43045 0.26374 0.83326 0.0
O648 O 0.40972 0.27446 0.80671 0.0
O649 O 0.47099 0.30385 0.8093 0.0
O650 O 0.45282 0.31776 0.78466 0.0
O651 O 0.46841 0.26488 0.82661 0.0
O652 O 0.46996 0.25944 0.75027 0.0
C653 C 0.4128 0.24798 0.7163 0.0
O654 O 0.44682 0.30039 0.68093 0.0
O655 O 0.47227 0.3002 0.71895 0.0
C656 C 0.41718 0.33346 0.71425 0.0
C657 C 0.42965 0.37293 0.73212 0.0
C658 C 0.44281 0.36605 0.73671 0.0
C659 C 0.43662 0.34644 0.72749 0.0
C660 C 0.40464 0.34071 0.70464 0.0
C661 C 0.4109 0.36041 0.71312 0.0
C662 C 0.40927 0.31233 0.71971 0.0
C663 C 0.41405 0.26449 0.83747 0.0
C664 C 0.4683 0.319 0.80666 0.0
C665 C 0.47312 0.23746 0.80761 0.0
C666 C 0.47621 0.20381 0.83596 0.0
C667 C 0.46875 0.21247 0.86803 0.0
C668 C 0.46729 0.22894 0.85422 0.0
C669 C 0.48033 0.22872 0.7753 0.0
C670 C 0.48181 0.21224 0.78909 0.0
C671 C 0.4741 0.2566 0.79456 0.0
H672 H 0.4573 0.37539 0.75129 0.0
H673 H 0.44654 0.3411 0.73469 0.0
H674 H 0.38959 0.3309 0.69445 0.0
H675 H 0.40037 0.36529 0.70974 0.0
H676 H 0.46452 0.2069 0.90468 0.0
H677 H 0.46199 0.23529 0.88074 0.0
H678 H 0.48526 0.23491 0.73937 0.0
H679 H 0.48738 0.20612 0.7627 0.0
Dy680 Dy 0.76979 0.14811 0.74207 0.0
Dy681 Dy 0.7861 0.19431 0.77064 0.0
C682 C 0.75513 0.17107 0.68138 0.0
O683 O 0.80241 0.16212 0.72892 0.0
O684 O 0.80953 0.19402 0.72361 0.0
O685 O 0.76269 0.1271 0.68407 0.0
O686 O 0.75564 0.11744 0.75896 0.0
O687 O 0.79791 0.18222 0.83096 0.0
O688 O 0.78641 0.15003 0.80902 0.0
O689 O 0.75762 0.17956 0.81115 0.0
O690 O 0.74392 0.14869 0.77809 0.0
O691 O 0.79642 0.21864 0.82129 0.0
O692 O 0.79719 0.22421 0.74407 0.0
C693 C 0.8149 0.18071 0.71954 0.0
O694 O 0.76664 0.16372 0.67816 0.0
O695 O 0.75903 0.18353 0.71791 0.0
C696 C 0.73239 0.09891 0.70054 0.0
C697 C 0.69284 0.06993 0.6983 0.0
C698 C 0.70716 0.06627 0.67882 0.0
C699 C 0.72687 0.08068 0.68022 0.0
C700 C 0.71795 0.10329 0.71468 0.0
C701 C 0.6983 0.08891 0.71355 0.0
C702 C 0.75284 0.11231 0.7133 0.0
C703 C 0.79655 0.16483 0.83816 0.0
C704 C 0.74248 0.16189 0.80464 0.0
C705 C 0.81876 0.2521 0.79502 0.0
C706 C 0.85027 0.29148 0.81378 0.0
C707 C 0.8519 0.27485 0.82542 0.0
C708 C 0.83641 0.25552 0.81637 0.0
C709 C 0.81714 0.26857 0.78335 0.0
C710 C 0.83242 0.28775 0.79264 0.0
C711 C 0.80122 0.23193 0.78751 0.0
H712 H 0.7034 0.05171 0.66718 0.0
H713 H 0.73782 0.07712 0.66885 0.0
H714 H 0.72195 0.11741 0.72983 0.0
H715 H 0.68756 0.09212 0.72852 0.0
H716 H 0.86523 0.27669 0.84125 0.0
H717 H 0.83823 0.24326 0.82631 0.0
H718 H 0.80372 0.2666 0.76765 0.0
H719 H 0.82991 0.29966 0.784 0.0
Dy720 Dy 0.4542 0.1905 0.27112 0.0
Dy721 Dy 0.42392 0.14583 0.23152 0.0
C722 C 0.41328 0.1597 0.33235 0.0
O723 O 0.46864 0.17434 0.30234 0.0
O724 O 0.44815 0.14362 0.2708 0.0
O725 O 0.46788 0.21304 0.32654 0.0
O726 O 0.47275 0.22114 0.2506 0.0
O727 O 0.44543 0.16131 0.17157 0.0
O728 O 0.47146 0.18176 0.2172 0.0
O729 O 0.40645 0.16094 0.22001 0.0
O730 O 0.43166 0.19259 0.22388 0.0
O731 O 0.41067 0.1275 0.16861 0.0
O732 O 0.40625 0.11469 0.2407 0.0
C733 C 0.46403 0.15595 0.29532 0.0
O734 O 0.4303 0.17642 0.3303 0.0
O735 O 0.40794 0.14639 0.29815 0.0
C736 C 0.47642 0.24638 0.3069 0.0
C737 C 0.47891 0.28312 0.33173 0.0
C738 C 0.49574 0.28185 0.32166 0.0
C739 C 0.4945 0.2639 0.30953 0.0
C740 C 0.45949 0.24744 0.31646 0.0
C741 C 0.46071 0.26546 0.32863 0.0
C742 C 0.47602 0.22748 0.2954 0.0
C743 C 0.46429 0.1701 0.17873 0.0
C744 C 0.41307 0.17982 0.21559 0.0
C745 C 0.41105 0.09807 0.17739 0.0
C746 C 0.42092 0.06865 0.17461 0.0
C747 C 0.43532 0.08802 0.18456 0.0
C748 C 0.43042 0.10271 0.18563 0.0
C749 C 0.39733 0.07935 0.16155 0.0
C750 C 0.40229 0.06474 0.15961 0.0
C751 C 0.40455 0.11148 0.19391 0.0
H752 H 0.51009 0.29471 0.3242 0.0
H753 H 0.50787 0.26369 0.30268 0.0
H754 H 0.44529 0.23432 0.3147 0.0
H755 H 0.44726 0.26551 0.33525 0.0
H756 H 0.44976 0.0914 0.19611 0.0
H757 H 0.44129 0.11724 0.19726 0.0
H758 H 0.38236 0.07561 0.15476 0.0
H759 H 0.39086 0.04992 0.15196 0.0
Dy760 Dy 0.86956 0.27511 0.27385 0.0
Dy761 Dy 0.91682 0.29532 0.24645 0.0
C762 C 0.89991 0.26642 0.34053 0.0
O763 O 0.88213 0.3041 0.31208 0.0
O764 O 0.91389 0.31939 0.28427 0.0
O765 O 0.84508 0.26579 0.32388 0.0
O766 O 0.83957 0.25987 0.24702 0.0
O767 O 0.90363 0.30134 0.1821 0.0
O768 O 0.87798 0.30116 0.21918 0.0
O769 O 0.9051 0.26404 0.22324 0.0
O770 O 0.87199 0.2511 0.23431 0.0
O771 O 0.93937 0.30501 0.19149 0.0
O772 O 0.947 0.31078 0.26786 0.0
C773 C 0.89957 0.31984 0.30788 0.0
O774 O 0.88268 0.26546 0.33573 0.0
O775 O 0.91429 0.2763 0.30977 0.0
C776 C 0.81273 0.23965 0.30215 0.0
C777 C 0.77556 0.20582 0.32624 0.0
C778 C 0.77839 0.22492 0.3277 0.0
C779 C 0.79656 0.24144 0.31598 0.0
C780 C 0.81012 0.22068 0.30031 0.0
C781 C 0.79188 0.20407 0.31223 0.0
C782 C 0.83177 0.25791 0.29012 0.0
C783 C 0.89209 0.30864 0.18558 0.0
C784 C 0.88703 0.24919 0.22125 0.0
C785 C 0.96602 0.33561 0.21258 0.0
C786 C 0.99329 0.37575 0.21339 0.0
C787 C 0.99847 0.3623 0.19537 0.0
C788 C 0.98494 0.34232 0.19538 0.0
C789 C 0.96018 0.34914 0.22522 0.0
C790 C 0.9738 0.36911 0.22616 0.0
C791 C 0.9532 0.31476 0.22298 0.0
H792 H 0.76661 0.22727 0.33892 0.0
H793 H 0.798 0.25579 0.31795 0.0
H794 H 0.82218 0.21868 0.28969 0.0
H795 H 0.79054 0.18978 0.30991 0.0
H796 H 1.01348 0.367 0.18586 0.0
H797 H 0.98961 0.33207 0.18513 0.0
H798 H 0.94546 0.34416 0.2376 0.0
H799 H 0.96948 0.37917 0.24027 0.0
Dy800 Dy 0.78534 0.60568 0.27481 0.0
Dy801 Dy 0.77004 0.63576 0.23843 0.0
C802 C 0.79563 0.64637 0.33704 0.0
O803 O 0.75461 0.59007 0.30527 0.0
O804 O 0.74443 0.61142 0.27997 0.0
O805 O 0.79458 0.59204 0.32955 0.0
O806 O 0.79796 0.58779 0.25338 0.0
O807 O 0.76209 0.61408 0.17836 0.0
O808 O 0.75938 0.5882 0.22095 0.0
O809 O 0.80244 0.65339 0.2231 0.0
O810 O 0.80955 0.62864 0.22724 0.0
O811 O 0.76393 0.64941 0.1779 0.0
O812 O 0.75641 0.65297 0.25162 0.0
C813 C 0.74092 0.59493 0.30147 0.0
O814 O 0.79493 0.62917 0.33497 0.0
O815 O 0.78779 0.65195 0.30308 0.0
C816 C 0.81986 0.58442 0.30923 0.0
C817 C 0.85441 0.58262 0.33432 0.0
C818 C 0.85411 0.60042 0.33598 0.0
C819 C 0.83715 0.60129 0.32374 0.0
C820 C 0.82016 0.56677 0.30696 0.0
C821 C 0.83701 0.56586 0.31924 0.0
C822 C 0.80114 0.58437 0.29802 0.0
C823 C 0.75319 0.59513 0.18503 0.0
C824 C 0.81493 0.64711 0.21831 0.0
C825 C 0.73385 0.64792 0.19099 0.0
C826 C 0.69419 0.63668 0.18774 0.0
C827 C 0.70855 0.65552 0.17249 0.0
C828 C 0.7283 0.66115 0.17452 0.0
C829 C 0.71951 0.62844 0.20065 0.0
C830 C 0.69977 0.62286 0.1993 0.0
C831 C 0.75412 0.65493 0.20531 0.0
H832 H 0.86705 0.61383 0.34651 0.0
H833 H 0.83755 0.61517 0.32588 0.0
H834 H 0.80711 0.55345 0.29626 0.0
H835 H 0.83615 0.55176 0.31798 0.0
H836 H 0.70469 0.66655 0.16393 0.0
H837 H 0.7392 0.6762 0.1668 0.0
H838 H 0.72361 0.61797 0.21291 0.0
H839 H 0.689 0.60829 0.21122 0.0
Dy840 Dy 0.53792 0.10927 0.93443 0.0
Dy841 Dy 0.49251 0.08076 0.97135 0.0
C842 C 0.50667 0.06855 0.87346 0.0
O843 O 0.52283 0.12333 0.89693 0.0
O844 O 0.49224 0.10625 0.93186 0.0
O845 O 0.56066 0.12277 0.87948 0.0
O846 O 0.56862 0.12675 0.95544 0.0
O847 O 0.50765 0.10193 0.03181 0.0
O848 O 0.52959 0.12742 0.98635 0.0
O849 O 0.50659 0.06221 0.98492 0.0
O850 O 0.5385 0.08685 0.98483 0.0
O851 O 0.47328 0.06783 0.03317 0.0
O852 O 0.46142 0.06453 0.96042 0.0
C853 C 0.50521 0.12076 0.90429 0.0
O854 O 0.52421 0.08452 0.87761 0.0
O855 O 0.49257 0.06454 0.90475 0.0
C856 C 0.59342 0.12926 0.89837 0.0
C857 C 0.63037 0.13273 0.87127 0.0
C858 C 0.61425 0.12488 0.8391 0.0
C859 C 0.59622 0.12323 0.85229 0.0
C860 C 0.60939 0.13692 0.93076 0.0
C861 C 0.62745 0.13859 0.91758 0.0
C862 C 0.57505 0.12987 0.91062 0.0
C863 C 0.51748 0.12079 0.0243 0.0
C864 C 0.52527 0.06831 0.99187 0.0
C865 C 0.44579 0.07143 0.0222 0.0
C866 C 0.42017 0.08623 0.02012 0.0
C867 C 0.44035 0.09899 1.01528 0.0
C868 C 0.45311 0.09162 1.01655 0.0
C869 C 0.42607 0.05914 0.0332 0.0
C870 C 0.41334 0.06654 0.03279 0.0
C871 C 0.45777 0.06305 1.00704 0.0
H872 H 0.61565 0.12045 0.80282 0.0
H873 H 0.58458 0.1176 0.82569 0.0
H874 H 0.60805 0.14203 0.96628 0.0
H875 H 0.63914 0.14448 0.944 0.0
H876 H 0.446 0.1142 1.00568 0.0
H877 H 0.4684 0.10135 1.00847 0.0
H878 H 0.42022 0.04356 0.0377 0.0
H879 H 0.39785 0.0563 0.03652 0.0
Dy880 Dy 0.95324 0.44241 0.93307 0.0
Dy881 Dy 0.983 0.42547 0.96034 0.0
C882 C 0.9929 0.45354 0.86584 0.0
O883 O 0.93698 0.4126 0.89697 0.0
O884 O 0.95609 0.40024 0.92523 0.0
O885 O 0.9381 0.45212 0.88411 0.0
O886 O 0.93626 0.45506 0.96189 0.0
O887 O 0.96514 0.42207 0.02595 0.0
O888 O 0.93753 0.416 0.98859 0.0
O889 O 1.00119 0.45677 0.98336 0.0
O890 O 0.97939 0.46773 0.97171 0.0
O891 O 0.99564 0.41506 1.01431 0.0
O892 O 1.00038 0.41297 0.9376 0.0
C893 C 0.94028 0.39787 0.9026 0.0
O894 O 0.97558 0.45247 0.8697 0.0
O895 O 0.99874 0.44523 0.89786 0.0
C896 C 0.93022 0.47689 0.91083 0.0
C897 C 0.92222 0.50825 0.89124 0.0
C898 C 0.93427 0.5046 0.86013 0.0
C899 C 0.93807 0.48912 0.86952 0.0
C900 C 0.9188 0.48101 0.94264 0.0
C901 C 0.91489 0.49629 0.93313 0.0
C902 C 0.93156 0.45857 0.91889 0.0
C903 C 0.94614 0.41139 0.02378 0.0
C904 C 0.99682 0.47082 0.98509 0.0
C905 C 0.99443 0.38637 0.98579 0.0
C906 C 0.98201 0.34717 0.96472 0.0
C907 C 0.96846 0.35363 0.96565 0.0
C908 C 0.97463 0.37308 0.97686 0.0
C909 C 1.00762 0.37955 0.98928 0.0
C910 C 1.00139 0.35997 0.97931 0.0
C911 C 1.00164 0.40739 0.98149 0.0
H912 H 0.94018 0.51323 0.82736 0.0
H913 H 0.94677 0.48644 0.84367 0.0
H914 H 0.91231 0.47195 0.97455 0.0
H915 H 0.90583 0.49858 0.9587 0.0
H916 H 0.95351 0.34407 0.95427 0.0
H917 H 0.96431 0.37817 0.97466 0.0
H918 H 1.02296 0.38962 0.99594 0.0
H919 H 1.01216 0.35535 0.9782 0.0
Dy920 Dy 0.62072 0.52375 0.93081 0.0
Dy921 Dy 0.63553 0.56975 0.95735 0.0
C922 C 0.60857 0.55128 0.86324 0.0
O923 O 0.65164 0.53779 0.90334 0.0
O924 O 0.66033 0.57008 0.91374 0.0
O925 O 0.61293 0.49982 0.8801 0.0
O926 O 0.60713 0.49363 0.95686 0.0
O927 O 0.64143 0.55688 0.02313 0.0
O928 O 0.64683 0.53457 0.98629 0.0
O929 O 0.60414 0.5556 0.98224 0.0
O930 O 0.59573 0.52337 0.97264 0.0
O931 O 0.64883 0.59389 1.00815 0.0
O932 O 0.64294 0.59863 0.93408 0.0
C933 C 0.66457 0.55659 0.89974 0.0
O934 O 0.61208 0.53645 0.86528 0.0
O935 O 0.61417 0.56409 0.89832 0.0
C936 C 0.58696 0.46729 0.90124 0.0
C937 C 0.5528 0.4305 0.87649 0.0
C938 C 0.57159 0.4326 0.87815 0.0
C939 C 0.58827 0.45059 0.89021 0.0
C940 C 0.5683 0.4654 0.89995 0.0
C941 C 0.55153 0.44735 0.88774 0.0
C942 C 0.60532 0.48618 0.91344 0.0
C943 C 0.65174 0.54812 0.02069 0.0
C944 C 0.59118 0.53678 0.985 0.0
C945 C 0.67242 0.62203 0.96603 0.0
C946 C 0.70687 0.64817 0.91743 0.0
C947 C 0.69346 0.65398 0.93137 0.0
C948 C 0.67632 0.64097 0.9556 0.0
C949 C 0.68673 0.61688 0.95635 0.0
C950 C 0.704 0.62999 0.93231 0.0
C951 C 0.65214 0.60674 0.97418 0.0
H952 H 0.57359 0.4204 0.86913 0.0
H953 H 0.60237 0.45147 0.89064 0.0
H954 H 0.56666 0.47788 0.90835 0.0
H955 H 0.5375 0.44659 0.88766 0.0
H956 H 0.69561 0.6681 0.92032 0.0
H957 H 0.66538 0.64511 0.96224 0.0
H958 H 0.68387 0.60221 0.96349 0.0
H959 H 0.7143 0.62541 0.92205 0.0
Dy960 Dy 0.64446 0.90058 0.79729 0.0
Dy961 Dy 0.61591 0.85403 0.76608 0.0
C962 C 0.60492 0.87596 0.85456 0.0
O963 O 0.66344 0.88716 0.81358 0.0
O964 O 0.63979 0.85472 0.81305 0.0
O965 O 0.65801 0.92155 0.85547 0.0
O966 O 0.66056 0.93127 0.78051 0.0
O967 O 0.63967 0.86736 0.70612 0.0
O968 O 0.65997 0.89926 0.73092 0.0
O969 O 0.60093 0.86825 0.72815 0.0
O970 O 0.61837 0.89962 0.75856 0.0
O971 O 0.60296 0.83004 0.71407 0.0
O972 O 0.59795 0.82382 0.79102 0.0
C973 C 0.65807 0.86858 0.82018 0.0
O974 O 0.62382 0.88705 0.85952 0.0
O975 O 0.59821 0.86246 0.81957 0.0
C976 C 0.65557 0.94953 0.83934 0.0
C977 C 0.64517 0.97859 0.84282 0.0
C978 C 0.63187 0.95992 0.82515 0.0
C979 C 0.6371 0.94552 0.82323 0.0
C980 C 0.66784 0.96725 0.86258 0.0
C981 C 0.66262 0.9817 0.86458 0.0
C982 C 0.66281 0.93632 0.82626 0.0
C983 C 0.65563 0.88488 0.70053 0.0
C984 C 0.60347 0.886 0.73345 0.0
C985 C 0.59375 0.7968 0.73968 0.0
C986 C 0.58597 0.7576 0.71969 0.0
C987 C 0.59906 0.7737 0.69067 0.0
C988 C 0.60276 0.79292 0.70023 0.0
C989 C 0.58128 0.78084 0.76954 0.0
C990 C 0.57747 0.76172 0.75982 0.0
C991 C 0.59498 0.8164 0.74731 0.0
H992 H 0.61826 0.95706 0.80864 0.0
H993 H 0.62731 0.93178 0.8058 0.0
H994 H 0.68205 0.97047 0.87574 0.0
H995 H 0.67323 0.99596 0.87837 0.0
H996 H 0.60587 0.77135 0.65928 0.0
H997 H 0.61229 0.80465 0.67588 0.0
H998 H 0.57389 0.78304 0.79993 0.0
H999 H 0.56756 0.75002 0.78374 0.0
Dy1000 Dy 0.15584 0.75733 0.78693 0.0
Dy1001 Dy 0.20241 0.77537 0.76254 0.0
C1002 C 0.17883 0.73978 0.84595 0.0
O1003 O 0.17089 0.78557 0.83042 0.0
O1004 O 0.20021 0.80118 0.79042 0.0
O1005 O 0.13246 0.74615 0.83978 0.0
O1006 O 0.12641 0.74719 0.76305 0.0
O1007 O 0.1885 0.7821 0.69621 0.0
O1008 O 0.16134 0.78021 0.7315 0.0
O1009 O 0.18923 0.7438 0.73878 0.0
O1010 O 0.15738 0.73658 0.7322 0.0
O1011 O 0.22674 0.78286 0.71322 0.0
O1012 O 0.23243 0.79139 0.7888 0.0
C1013 C 0.18722 0.80183 0.8191 0.0
O1014 O 0.16227 0.73716 0.82927 0.0
O1015 O 0.19568 0.75531 0.83153 0.0
C1016 C 0.10556 0.71874 0.80538 0.0
C1017 C 0.07922 0.67962 0.78223 0.0
C1018 C 0.09934 0.6867 0.77988 0.0
C1019 C 0.11243 0.7061 0.79198 0.0
C1020 C 0.08554 0.71133 0.81138 0.0
C1021 C 0.07242 0.69179 0.80028 0.0
C1022 C 0.11916 0.73986 0.80578 0.0
C1023 C 0.17377 0.78575 0.69535 0.0
C1024 C 0.17093 0.73161 0.72643 0.0
C1025 C 0.25877 0.81082 0.73215 0.0
C1026 C 0.29612 0.84365 0.70435 0.0
C1027 C 0.28006 0.83544 0.67195 0.0
C1028 C 0.2618 0.81932 0.68549 0.0
C1029 C 0.2747 0.81907 0.76465 0.0
C1030 C 0.29297 0.83513 0.75111 0.0
C1031 C 0.24014 0.79234 0.74613 0.0
H1032 H 0.10487 0.67762 0.76574 0.0
H1033 H 0.12789 0.71157 0.78757 0.0
H1034 H 0.08001 0.72089 0.82158 0.0
H1035 H 0.05692 0.6867 0.80165 0.0
H1036 H 0.28167 0.84115 0.63536 0.0
H1037 H 0.25013 0.81332 0.65896 0.0
H1038 H 0.27312 0.81285 0.80067 0.0
H1039 H 0.30462 0.84093 0.77766 0.0
Dy1040 Dy 0.30302 0.41456 0.80035 0.0
Dy1041 Dy 0.28553 0.44239 0.76251 0.0
C1042 C 0.31846 0.45502 0.85073 0.0
O1043 O 0.27056 0.39562 0.81511 0.0
O1044 O 0.26273 0.41986 0.81335 0.0
O1045 O 0.3101 0.40249 0.86259 0.0
O1046 O 0.31791 0.39838 0.78973 0.0
O1047 O 0.27413 0.41725 0.70699 0.0
O1048 O 0.28588 0.39749 0.73522 0.0
O1049 O 0.31425 0.45606 0.72266 0.0
O1050 O 0.32821 0.43944 0.75778 0.0
O1051 O 0.27572 0.45549 0.70787 0.0
O1052 O 0.27248 0.45999 0.78396 0.0
C1053 C 0.25775 0.40144 0.82131 0.0
O1054 O 0.3092 0.43627 0.86001 0.0
O1055 O 0.31285 0.46092 0.81161 0.0
C1056 C 0.3411 0.40602 0.85027 0.0
C1057 C 0.38146 0.42065 0.84675 0.0
C1058 C 0.37407 0.43336 0.8404 0.0
C1059 C 0.35396 0.42608 0.84244 0.0
C1060 C 0.34854 0.39387 0.86253 0.0
C1061 C 0.36865 0.4012 0.86143 0.0
C1062 C 0.32057 0.39744 0.83631 0.0
C1063 C 0.27559 0.4012 0.7038 0.0
C1064 C 0.32941 0.45357 0.72925 0.0
C1065 C 0.24973 0.46229 0.72777 0.0
C1066 C 0.21621 0.46591 0.70167 0.0
C1067 C 0.22392 0.45742 0.66979 0.0
C1068 C 0.24031 0.4557 0.68248 0.0
C1069 C 0.24198 0.47059 0.75989 0.0
C1070 C 0.22557 0.47233 0.7472 0.0
C1071 C 0.26877 0.46283 0.73924 0.0
H1072 H 0.3836 0.44838 0.82914 0.0
H1073 H 0.34838 0.4357 0.83332 0.0
H1074 H 0.3388 0.37838 0.86856 0.0
H1075 H 0.37387 0.39099 0.86628 0.0
H1076 H 0.21765 0.45254 0.63405 0.0
H1077 H 0.24588 0.44957 0.65608 0.0
H1078 H 0.24889 0.47615 0.79478 0.0
H1079 H 0.22022 0.47873 0.77341 0.0
Dy1080 Dy 0.5805 0.96765 0.0741 0.0
Dy1081 Dy 0.53491 0.93825 0.10648 0.0
C1082 C 0.55646 0.92978 1.01549 0.0
O1083 O 0.56665 0.98651 0.06252 0.0
O1084 O 0.53494 0.96154 0.05792 0.0
O1085 O 0.6001 0.9806 1.0129 0.0
O1086 O 0.61154 0.98385 0.08599 0.0
O1087 O 0.54782 0.9626 0.16539 0.0
O1088 O 0.57969 0.98325 0.14075 0.0
O1089 O 0.54962 0.92397 0.14485 0.0
O1090 O 0.58027 0.94132 0.11059 0.0
O1091 O 0.51106 0.92479 0.15887 0.0
O1092 O 0.50483 0.91974 0.08203 0.0
C1093 C 0.54806 0.98029 0.05363 0.0
O1094 O 0.56368 0.94865 1.01195 0.0
O1095 O 0.54457 0.92133 0.05311 0.0
C1096 C 0.62761 0.97709 0.02494 0.0
C1097 C 0.65382 0.96297 0.02516 0.0
C1098 C 0.65997 0.9823 1.01015 0.0
C1099 C 0.64694 0.98935 1.01042 0.0
C1100 C 0.62086 0.95717 0.03341 0.0
C1101 C 0.63385 0.95011 0.03328 0.0
C1102 C 0.61547 0.98539 0.03954 0.0
C1103 C 0.56522 0.97877 0.17103 0.0
C1104 C 0.56722 0.92651 0.13734 0.0
C1105 C 0.47799 0.91572 0.13369 0.0
C1106 C 0.43899 0.90831 0.15381 0.0
C1107 C 0.45491 0.9205 0.18418 0.0
C1108 C 0.47402 0.92402 0.17452 0.0
C1109 C 0.46223 0.90416 0.10256 0.0
C1110 C 0.4432 0.90055 0.11233 0.0
C1111 C 0.49744 0.91673 0.12587 0.0
H1112 H 0.67528 0.99265 1.00378 0.0
H1113 H 0.65234 1.00473 1.00344 0.0
H1114 H 0.6059 0.94743 0.04422 0.0
H1115 H 0.62866 0.93513 0.04446 0.0
H1116 H 0.45248 0.92672 0.21663 0.0
H1117 H 0.48559 0.93284 0.19986 0.0
H1118 H 0.4645 0.89733 0.07107 0.0
H1119 H 0.43165 0.89136 0.08734 0.0
Dy1120 Dy 0.0925 0.62909 0.08632 0.0
Dy1121 Dy 0.11962 0.60863 0.10677 0.0
C1122 C 0.13205 0.64488 0.02419 0.0
O1123 O 0.07775 0.60069 0.04276 0.0
O1124 O 0.09105 0.58395 0.0794 0.0
O1125 O 0.0801 0.64057 0.03488 0.0
O1126 O 0.07463 0.64055 0.11241 0.0
O1127 O 0.09924 0.60153 0.17376 0.0
O1128 O 0.07527 0.60689 0.14312 0.0
O1129 O 0.13891 0.63943 0.13264 0.0
O1130 O 0.11707 0.6506 0.13602 0.0
O1131 O 0.13731 0.60134 0.15392 0.0
O1132 O 0.13138 0.59071 0.07995 0.0
C1133 C 0.07741 0.58407 0.05233 0.0
O1134 O 0.11872 0.64815 0.04204 0.0
O1135 O 0.13292 0.62899 0.03791 0.0
C1136 C 0.08182 0.66865 0.06881 0.0
C1137 C 0.09513 0.70805 0.08984 0.0
C1138 C 0.10805 0.70082 0.09222 0.0
C1139 C 0.10148 0.68127 0.08114 0.0
C1140 C 0.06933 0.67618 0.06261 0.0
C1141 C 0.076 0.69585 0.07263 0.0
C1142 C 0.07402 0.64747 0.06961 0.0
C1143 C 0.0815 0.59957 0.17669 0.0
C1144 C 0.13476 0.65319 0.14349 0.0
C1145 C 0.14062 0.57298 0.13641 0.0
C1146 C 0.1442 0.53949 0.16258 0.0
C1147 C 0.12604 0.53751 0.14861 0.0
C1148 C 0.1243 0.55395 0.13554 0.0
C1149 C 0.15865 0.57499 0.15057 0.0
C1150 C 0.16043 0.55864 0.16327 0.0
C1151 C 0.13985 0.59094 0.12098 0.0
H1152 H 0.12278 0.70993 0.10561 0.0
H1153 H 0.11138 0.67569 0.08547 0.0
H1154 H 0.05415 0.66664 0.05313 0.0
H1155 H 0.06568 0.70104 0.07121 0.0
H1156 H 0.11313 0.52316 0.14694 0.0
H1157 H 0.1102 0.55174 0.1245 0.0
H1158 H 0.17156 0.58939 0.15156 0.0
H1159 H 0.17462 0.56111 0.17437 0.0
Dy1160 Dy 0.43607 0.48018 0.06591 0.0
Dy1161 Dy 0.4509 0.52453 0.10818 0.0
C1162 C 0.41819 0.50408 0.01921 0.0
O1163 O 0.46858 0.49543 0.05307 0.0
O1164 O 0.47514 0.52705 0.05869 0.0
O1165 O 0.4311 0.46237 1.00205 0.0
O1166 O 0.42249 0.44898 0.07356 0.0
O1167 O 0.46145 0.51031 0.16511 0.0
O1168 O 0.45329 0.48041 0.13121 0.0
O1169 O 0.42096 0.50787 0.14324 0.0
O1170 O 0.41026 0.47741 0.10946 0.0
O1171 O 0.46164 0.54747 0.16322 0.0
O1172 O 0.46073 0.55475 0.08772 0.0
C1173 C 0.48089 0.51432 0.04934 0.0
O1174 O 0.42778 0.49508 1.00848 0.0
O1175 O 0.4237 0.51535 0.05861 0.0
C1176 C 0.40117 0.43297 1.00954 0.0
C1177 C 0.36188 0.40357 1.00498 0.0
C1178 C 0.37665 0.39995 0.98872 0.0
C1179 C 0.39623 0.41456 0.99148 0.0
C1180 C 0.38641 0.43744 0.01907 0.0
C1181 C 0.36682 0.42277 1.01698 0.0
C1182 C 0.42107 0.44616 0.02659 0.0
C1183 C 0.4617 0.49355 0.1657 0.0
C1184 C 0.40711 0.48947 0.13631 0.0
C1185 C 0.4841 0.5814 0.13868 0.0
C1186 C 0.51547 0.62084 0.15688 0.0
C1187 C 0.51312 0.60485 0.18538 0.0
C1188 C 0.49764 0.58552 0.17671 0.0
C1189 C 0.48684 0.59726 0.10943 0.0
C1190 C 0.50214 0.61649 0.11825 0.0
C1191 C 0.46593 0.56154 0.13183 0.0
H1192 H 0.3733 0.38529 0.9794 0.0
H1193 H 0.40747 0.41096 0.98359 0.0
H1194 H 0.39004 0.45175 0.03245 0.0
H1195 H 0.35573 0.42596 0.02943 0.0
H1196 H 0.52284 0.60735 0.21567 0.0
H1197 H 0.49603 0.57388 0.20057 0.0
H1198 H 0.47674 0.59488 0.08013 0.0
H1199 H 0.50338 0.62807 0.0947 0.0
Dy1200 Dy 0.12175 0.52751 0.60193 0.0
Dy1201 Dy 0.09186 0.48114 0.57373 0.0
C1202 C 0.08142 0.49835 0.66834 0.0
O1203 O 0.13565 0.51283 0.64223 0.0
O1204 O 0.1183 0.48179 0.6101 0.0
O1205 O 0.13583 0.55173 0.65277 0.0
O1206 O 0.14025 0.5575 0.5755 0.0
O1207 O 0.11077 0.49651 0.50978 0.0
O1208 O 0.13814 0.51684 0.5495 0.0
O1209 O 0.07335 0.49523 0.55969 0.0
O1210 O 0.09819 0.52709 0.55407 0.0
O1211 O 0.07804 0.45982 0.51623 0.0
O1212 O 0.07514 0.45057 0.59156 0.0
C1213 C 0.13309 0.49513 0.63611 0.0
O1214 O 0.09756 0.51565 0.6613 0.0
O1215 O 0.07689 0.48341 0.63983 0.0
C1216 C 0.14595 0.58504 0.62709 0.0
C1217 C 0.15421 0.62417 0.64973 0.0
C1218 C 0.13765 0.60751 0.66915 0.0
C1219 C 0.13368 0.58827 0.65836 0.0
C1220 C 0.162 0.60163 0.60644 0.0
C1221 C 0.16607 0.62073 0.61754 0.0
C1222 C 0.14391 0.56513 0.61906 0.0
C1223 C 0.12969 0.50419 0.51327 0.0
C1224 C 0.07949 0.51382 0.55018 0.0
C1225 C 0.07931 0.43126 0.53439 0.0
C1226 C 0.08872 0.40142 0.53405 0.0
C1227 C 0.07091 0.39817 0.51431 0.0
C1228 C 0.06619 0.41299 0.5148 0.0
C1229 C 0.09793 0.43517 0.54895 0.0
C1230 C 0.10265 0.42038 0.54863 0.0
C1231 C 0.07276 0.44516 0.54612 0.0
H1232 H 0.12814 0.60933 0.69423 0.0
H1233 H 0.12125 0.57595 0.67541 0.0
H1234 H 0.17187 0.59986 0.5825 0.0
H1235 H 0.17879 0.63293 0.60107 0.0
H1236 H 0.0598 0.38367 0.50311 0.0
H1237 H 0.05178 0.40975 0.50334 0.0
H1238 H 0.10833 0.44927 0.56379 0.0
H1239 H 0.11652 0.42333 0.56367 0.0
Dy1240 Dy 0.53448 0.60686 0.60522 0.0
Dy1241 Dy 0.57937 0.62268 0.56618 0.0
C1242 C 0.56498 0.59563 0.6633 0.0
O1243 O 0.54979 0.63682 0.63993 0.0
O1244 O 0.5811 0.64749 0.61236 0.0
O1245 O 0.51173 0.59713 0.66031 0.0
O1246 O 0.50389 0.59446 0.58426 0.0
O1247 O 0.56463 0.63035 0.50719 0.0
O1248 O 0.54378 0.63421 0.55549 0.0
O1249 O 0.56473 0.59035 0.54988 0.0
O1250 O 0.53295 0.58331 0.55491 0.0
O1251 O 0.59873 0.63061 0.5041 0.0
O1252 O 0.61034 0.63585 0.57735 0.0
C1253 C 0.56838 0.65053 0.63663 0.0
O1254 O 0.54842 0.59619 0.66246 0.0
O1255 O 0.57831 0.60408 0.62917 0.0
C1256 C 0.47884 0.57127 0.63976 0.0
C1257 C 0.44172 0.53719 0.66417 0.0
C1258 C 0.45794 0.54447 0.69595 0.0
C1259 C 0.47605 0.56114 0.68409 0.0
C1260 C 0.46275 0.56397 0.60777 0.0
C1261 C 0.44462 0.54729 0.61962 0.0
C1262 C 0.49738 0.59046 0.629 0.0
C1263 C 0.55536 0.63979 0.51652 0.0
C1264 C 0.54592 0.57791 0.54515 0.0
C1265 C 0.62686 0.66071 0.52096 0.0
C1266 C 0.65318 0.70075 0.53269 0.0
C1267 C 0.63307 0.69349 0.53763 0.0
C1268 C 0.61998 0.67358 0.53148 0.0
C1269 C 0.64661 0.66821 0.51025 0.0
C1270 C 0.65971 0.6882 0.51558 0.0
C1271 C 0.61425 0.63982 0.53123 0.0
H1272 H 0.45658 0.53761 0.73098 0.0
H1273 H 0.48779 0.56633 0.71035 0.0
H1274 H 0.46407 0.5714 0.57361 0.0
H1275 H 0.43286 0.5423 0.59351 0.0
H1276 H 0.62767 0.70283 0.55073 0.0
H1277 H 0.60471 0.66796 0.53954 0.0
H1278 H 0.65214 0.65848 0.502 0.0
H1279 H 0.67516 0.69336 0.51181 0.0
Dy1280 Dy 0.45305 0.94156 0.60747 0.0
Dy1281 Dy 0.43365 0.96932 0.57963 0.0
C1282 C 0.46213 0.9806 0.67412 0.0
O1283 O 0.42398 0.9253 0.64586 0.0
O1284 O 0.40937 0.94233 0.61738 0.0
O1285 O 0.46223 0.92628 0.65735 0.0
O1286 O 0.46749 0.92603 0.58026 0.0
O1287 O 0.43006 0.95118 0.51431 0.0
O1288 O 0.42658 0.92471 0.55387 0.0
O1289 O 0.46492 0.98864 0.55599 0.0
O1290 O 0.47735 0.96802 0.56774 0.0
O1291 O 0.42121 0.9799 0.52542 0.0
O1292 O 0.42115 0.98677 0.60156 0.0
C1293 C 0.40849 0.92736 0.64123 0.0
O1294 O 0.46264 0.96406 0.6697 0.0
O1295 O 0.45279 0.98552 0.64278 0.0
C1296 C 0.4878 0.9194 0.63502 0.0
C1297 C 0.52114 0.91564 0.66154 0.0
C1298 C 0.52249 0.93419 0.65695 0.0
C1299 C 0.50612 0.93603 0.64402 0.0
C1300 C 0.48644 0.90099 0.63903 0.0
C1301 C 0.5027 0.89912 0.65198 0.0
C1302 C 0.46964 0.92038 0.6235 0.0
C1303 C 0.42096 0.93213 0.51788 0.0
C1304 C 0.47957 0.98514 0.55427 0.0
C1305 C 0.39335 0.97973 0.55661 0.0
C1306 C 0.3543 0.9702 0.56922 0.0
C1307 C 0.36702 0.98603 0.53923 0.0
C1308 C 0.38643 0.99075 0.53299 0.0
C1309 C 0.38027 0.96295 0.58289 0.0
C1310 C 0.36086 0.95808 0.58871 0.0
C1311 C 0.41438 0.98675 0.55831 0.0
H1312 H 0.53628 0.94742 0.66309 0.0
H1313 H 0.50778 0.95046 0.64135 0.0
H1314 H 0.47256 0.88783 0.63277 0.0
H1315 H 0.50057 0.88454 0.65567 0.0
H1316 H 0.36252 0.99581 0.52402 0.0
H1317 H 0.3963 1.00371 0.51239 0.0
H1318 H 0.38534 0.95431 0.60157 0.0
H1319 H 0.3514 0.9457 0.61154 0.0
Dy1320 Dy 0.20364 0.44219 0.26484 0.0
Dy1321 Dy 0.15687 0.41503 0.29631 0.0
C1322 C 0.17217 0.40281 0.19998 0.0
O1323 O 0.19033 0.4581 0.22685 0.0
O1324 O 0.15897 0.44164 0.25766 0.0
O1325 O 0.2279 0.4555 0.21339 0.0
O1326 O 0.23369 0.45907 0.29073 0.0
O1327 O 0.17102 0.43508 0.35876 0.0
O1328 O 0.1957 0.46036 0.31837 0.0
O1329 O 0.16909 0.39552 0.31583 0.0
O1330 O 0.20212 0.41648 0.30651 0.0
O1331 O 0.13589 0.40141 0.35449 0.0
O1332 O 0.12616 0.40082 0.28033 0.0
C1333 C 0.1729 0.45629 0.23246 0.0
O1334 O 0.18967 0.41889 0.20429 0.0
O1335 O 0.15805 0.39859 0.23136 0.0
C1336 C 0.26075 0.46352 0.23907 0.0
C1337 C 0.29989 0.47114 0.21971 0.0
C1338 C 0.28442 0.46036 0.18684 0.0
C1339 C 0.26524 0.45676 0.19614 0.0
C1340 C 0.27605 0.47365 0.27253 0.0
C1341 C 0.29514 0.47736 0.26313 0.0
C1342 C 0.24134 0.46263 0.2471 0.0
C1343 C 0.18219 0.45395 0.35342 0.0
C1344 C 0.18726 0.39916 0.31843 0.0
C1345 C 0.10918 0.40617 0.34243 0.0
C1346 C 0.08245 0.41932 0.35399 0.0
C1347 C 0.10136 0.43213 0.33663 0.0
C1348 C 0.11464 0.42557 0.33082 0.0
C1349 C 0.09129 0.39417 0.36533 0.0
C1350 C 0.07802 0.40074 0.37142 0.0
C1351 C 0.12128 0.39801 0.32629 0.0
H1352 H 0.28727 0.45537 0.15284 0.0
H1353 H 0.25407 0.44914 0.16896 0.0
H1354 H 0.2734 0.47932 0.30571 0.0
H1355 H 0.30633 0.48542 0.28999 0.0
H1356 H 0.10524 0.44657 0.32343 0.0
H1357 H 0.12865 0.43521 0.31417 0.0
H1358 H 0.08702 0.37927 0.37529 0.0
H1359 H 0.06357 0.39046 0.3849 0.0
Dy1360 Dy 0.61968 0.77307 0.25891 0.0
Dy1361 Dy 0.6475 0.75519 0.29696 0.0
C1362 C 0.65999 0.78218 0.19887 0.0
O1363 O 0.60322 0.7424 0.22726 0.0
O1364 O 0.62319 0.73069 0.25341 0.0
O1365 O 0.60605 0.7826 0.2049 0.0
O1366 O 0.60308 0.78701 0.28136 0.0
O1367 O 0.62553 0.7475 0.35665 0.0
O1368 O 0.60123 0.74662 0.31101 0.0
O1369 O 0.66545 0.78648 0.31958 0.0
O1370 O 0.6448 0.79814 0.30083 0.0
O1371 O 0.65947 0.74684 0.35701 0.0
O1372 O 0.66416 0.74104 0.28263 0.0
C1373 C 0.60727 0.72808 0.23097 0.0
O1374 O 0.64271 0.78124 0.19869 0.0
O1375 O 0.66511 0.7745 0.23449 0.0
C1376 C 0.60005 0.80926 0.22473 0.0
C1377 C 0.59641 0.84286 0.19866 0.0
C1378 C 0.60416 0.83468 0.16592 0.0
C1379 C 0.60588 0.81824 0.17859 0.0
C1380 C 0.59249 0.81748 0.25766 0.0
C1381 C 0.59074 0.83392 0.24499 0.0
C1382 C 0.59951 0.79021 0.23677 0.0
C1383 C 0.60685 0.73972 0.34818 0.0
C1384 C 0.66163 0.80087 0.31795 0.0
C1385 C 0.6579 0.71694 0.34046 0.0
C1386 C 0.64697 0.67728 0.33934 0.0
C1387 C 0.63345 0.68303 0.32608 0.0
C1388 C 0.63885 0.70277 0.32704 0.0
C1389 C 0.67061 0.71106 0.35897 0.0
C1390 C 0.6651 0.6913 0.35887 0.0
C1391 C 0.66526 0.73755 0.32863 0.0
H1392 H 0.60846 0.84064 0.12959 0.0
H1393 H 0.61142 0.8123 0.15159 0.0
H1394 H 0.58753 0.81094 0.29326 0.0
H1395 H 0.58493 0.83963 0.27187 0.0
H1396 H 0.6194 0.67252 0.31104 0.0
H1397 H 0.62871 0.7071 0.31365 0.0
H1398 H 0.68527 0.72182 0.36996 0.0
H1399 H 0.67589 0.68732 0.36905 0.0
Dy1400 Dy 0.28801 0.85797 0.26266 0.0
Dy1401 Dy 0.30326 0.90326 0.2993 0.0
C1402 C 0.27782 0.88835 0.20014 0.0
O1403 O 0.31864 0.87329 0.23196 0.0
O1404 O 0.32894 0.90478 0.25768 0.0
O1405 O 0.27936 0.83497 0.20839 0.0
O1406 O 0.27516 0.82752 0.28484 0.0
O1407 O 0.31148 0.88966 0.35958 0.0
O1408 O 0.31408 0.86671 0.31613 0.0
O1409 O 0.27084 0.88828 0.31504 0.0
O1410 O 0.26351 0.85636 0.30917 0.0
O1411 O 0.31009 0.92322 0.35958 0.0
O1412 O 0.316 0.93403 0.28531 0.0
C1413 C 0.33237 0.89186 0.23588 0.0
O1414 O 0.27849 0.87184 0.20217 0.0
O1415 O 0.28556 0.90165 0.2343 0.0
C1416 C 0.25389 0.80203 0.2289 0.0
C1417 C 0.21938 0.76494 0.20887 0.0
C1418 C 0.23818 0.76868 0.19565 0.0
C1419 C 0.25504 0.78683 0.20542 0.0
C1420 C 0.23521 0.79853 0.24215 0.0
C1421 C 0.21825 0.78034 0.23216 0.0
C1422 C 0.27247 0.8208 0.24042 0.0
C1423 C 0.32027 0.87958 0.35248 0.0
C1424 C 0.25822 0.86943 0.31874 0.0
C1425 C 0.33936 0.95254 0.34328 0.0
C1426 C 0.37848 0.98237 0.33778 0.0
C1427 C 0.37345 0.96292 0.32891 0.0
C1428 C 0.35398 0.94803 0.33218 0.0
C1429 C 0.34458 0.97152 0.35731 0.0
C1430 C 0.3641 0.98635 0.35508 0.0
C1431 C 0.31899 0.93853 0.33136 0.0
H1432 H 0.23996 0.75763 0.17701 0.0
H1433 H 0.26914 0.78894 0.19472 0.0
H1434 H 0.23371 0.8098 0.26056 0.0
H1435 H 0.20425 0.77825 0.24356 0.0
H1436 H 0.38427 0.95951 0.3155 0.0
H1437 H 0.35015 0.93332 0.32192 0.0
H1438 H 0.33347 0.9752 0.36608 0.0
H1439 H 0.36756 1.00126 0.36171 0.0
H1440 H 0.22925 0.0599 0.05564 0.0
H1441 H 0.28752 0.09093 0.99598 0.0
H1442 H 0.28496 0.05999 0.97252 0.0
H1443 H 0.26602 1.02362 0.96712 0.0
H1444 H 0.2077 0.99283 0.02652 0.0
H1445 H 0.2108 1.02371 0.05251 0.0
C1446 C 0.24156 0.06005 0.03801 0.0
C1447 C 0.25856 0.07826 0.02764 0.0
C1448 C 0.24005 0.04193 0.0245 0.0
C1449 C 0.27405 0.07757 1.00397 0.0
C1450 C 0.27267 0.05969 0.99072 0.0
C1451 C 0.25399 1.02355 0.98605 0.0
C1452 C 0.23656 1.00545 0.99438 0.0
C1453 C 0.25571 0.04169 1.00049 0.0
C1454 C 0.22131 1.00616 0.01919 0.0
C1455 C 0.22303 1.02399 0.03406 0.0
H1456 H 0.05824 0.22725 0.01907 0.0
H1457 H 0.04149 0.26788 0.96379 0.0
H1458 H 1.00737 0.24469 0.98252 0.0
H1459 H 0.98146 0.21214 1.01316 0.0
H1460 H 0.99843 0.17173 0.06865 0.0
H1461 H 1.03258 0.19526 0.05169 0.0
C1462 C 0.04723 0.23124 1.01174 0.0
C1463 C 0.05292 0.24968 0.9902 0.0
C1464 C 1.02728 0.21762 0.02251 0.0
C1465 C 0.038 0.2541 0.98068 0.0
C1466 C 1.01827 0.24068 0.99117 0.0
C1467 C 0.99257 0.2084 0.0215 0.0
C1468 C 0.98692 0.1899 0.04274 0.0
C1469 C 1.01259 0.22226 1.01174 0.0
C1470 C 1.00194 0.18574 0.05325 0.0
C1471 C 1.02166 0.19926 0.04325 0.0
H1472 H 0.83531 0.84747 1.01617 0.0
H1473 H 0.79643 0.7908 0.9548 0.0
H1474 H 0.81979 0.78018 0.97313 0.0
H1475 H 0.85187 0.7868 1.00563 0.0
H1476 H 0.89071 0.84342 0.0673 0.0
H1477 H 0.86705 0.85383 0.05033 0.0
C1478 C 0.83177 0.8327 1.00727 0.0
C1479 C 0.81373 0.82003 0.98423 0.0
C1480 C 0.8455 0.82653 1.01796 0.0
C1481 C 0.80987 0.80101 0.97281 0.0
C1482 C 0.82339 0.79487 0.98313 0.0
C1483 C 0.85526 0.80146 1.0153 0.0
C1484 C 0.87332 0.81414 0.03828 0.0
C1485 C 0.84137 0.8075 1.00545 0.0
C1486 C 0.87702 0.83304 0.05052 0.0
C1487 C 0.86343 0.83912 0.04049 0.0
H1488 H 1.03443 0.25317 0.58467 0.0
H1489 H 1.00361 0.20172 0.49538 0.0
H1490 H 1.03452 0.20608 0.46555 0.0
H1491 H 0.07054 0.22359 0.46602 0.0
H1492 H 0.10182 0.27441 0.55705 0.0
H1493 H 0.07092 0.27122 0.58391 0.0
C1494 C 1.0344 0.24302 0.55818 0.0
C1495 C 1.01628 0.22705 0.54262 0.0
C1496 C 0.05255 0.24541 0.54138 0.0
C1497 C 1.01698 0.21411 0.50852 0.0
C1498 C 1.0348 0.21656 0.49135 0.0
C1499 C 0.07077 0.23399 0.49199 0.0
C1500 C 0.08898 0.24928 0.50911 0.0
C1501 C 0.05273 0.23198 0.50791 0.0
C1502 C 0.08841 0.26263 0.54222 0.0
C1503 C 0.07058 0.26074 0.55803 0.0
H1504 H 0.83791 0.86273 0.47396 0.0
H1505 H 0.78097 0.83514 0.54122 0.0
H1506 H 0.78472 0.80748 0.56563 0.0
H1507 H 0.80449 0.7909 0.56994 0.0
H1508 H 0.86152 0.81899 0.50296 0.0
H1509 H 0.85703 0.84581 0.47577 0.0
C1510 C 0.82613 0.85062 0.4934 0.0
C1511 C 0.80916 0.85152 0.50561 0.0
C1512 C 0.82833 0.83447 0.50747 0.0
C1513 C 0.79439 0.83546 0.53168 0.0
C1514 C 0.79645 0.81938 0.5455 0.0
C1515 C 0.81591 0.80277 0.54901 0.0
C1516 C 0.83344 0.80259 0.53904 0.0
C1517 C 0.81342 0.81869 0.53391 0.0
C1518 C 0.84789 0.81838 0.51172 0.0
C1519 C 0.84537 0.83394 0.49613 0.0
H1520 H 0.22131 0.9709 0.53057 0.0
H1521 H 0.18473 0.98981 0.4608 0.0
H1522 H 0.20868 1.02377 0.47826 0.0
H1523 H 0.23999 0.04875 0.5148 0.0
H1524 H 0.27674 0.03008 0.58462 0.0
H1525 H 0.25307 0.99608 0.56595 0.0
C1526 C 0.21848 0.98239 0.51922 0.0
C1527 C 0.20095 0.97733 0.49375 0.0
C1528 C 0.23256 1.0023 0.52941 0.0
C1529 C 0.19799 0.99283 0.47947 0.0
C1530 C 0.21174 1.01246 0.48977 0.0
C1531 C 0.24301 0.03733 0.52554 0.0
C1532 C 0.26053 0.04244 0.55094 0.0
C1533 C 0.22914 1.01747 0.51469 0.0
C1534 C 0.26372 0.02703 0.56468 0.0
C1535 C 0.25002 1.00737 0.55418 0.0
H1536 H 0.86034 0.04912 0.03356 0.0
H1537 H 0.80005 0.03243 0.05674 0.0
H1538 H 0.78996 0.9986 0.03746 0.0
H1539 H 0.79795 0.9729 1.01496 0.0
H1540 H 0.85819 0.98967 0.99074 0.0
H1541 H 0.86822 1.02361 1.00876 0.0
C1542 C 0.84495 0.0382 0.03373 0.0
C1543 C 0.8311 0.04379 0.04674 0.0
C1544 C 0.83907 1.01838 0.02242 0.0
C1545 C 0.81124 0.02898 0.04709 0.0
C1546 C 0.80537 1.00941 0.03607 0.0
C1547 C 0.8133 0.98392 1.01373 0.0
C1548 C 0.82716 0.9783 1.00096 0.0
C1549 C 0.81912 1.0038 0.02404 0.0
C1550 C 0.84697 0.99319 0.99947 0.0
C1551 C 0.85282 1.01279 1.0101 0.0
H1552 H 0.07246 0.86166 0.97179 0.0
H1553 H 0.10278 0.84097 0.063 0.0
H1554 H 0.07162 0.8138 0.09062 0.0
H1555 H 1.03517 0.79563 0.09047 0.0
H1556 H 1.00524 0.81646 0.99822 0.0
H1557 H 0.03642 0.84307 0.96939 0.0
C1558 C 0.07243 0.85115 0.99721 0.0
C1559 C 0.09046 0.85388 1.01508 0.0
C1560 C 0.05422 0.83521 1.01299 0.0
C1561 C 0.08952 0.83989 0.04881 0.0
C1562 C 0.07153 0.82407 0.06455 0.0
C1563 C 1.0354 0.80583 0.06363 0.0
C1564 C 1.01746 0.80367 0.04675 0.0
C1565 C 0.05369 0.82154 0.04713 0.0
C1566 C 1.01848 0.81742 1.01225 0.0
C1567 C 0.03646 0.83282 0.99562 0.0
H1568 H 0.23525 0.20204 0.03381 0.0
H1569 H 0.27744 0.26126 0.07335 0.0
H1570 H 0.25376 0.27159 0.05547 0.0
H1571 H 0.22054 0.26405 0.02902 0.0
H1572 H 0.17862 0.20482 0.9887 0.0
H1573 H 0.20243 0.19465 1.00592 0.0
C1574 C 0.23942 0.21726 0.03815 0.0
C1575 C 0.25845 0.23073 0.05507 0.0
C1576 C 0.22556 0.22327 0.02757 0.0
C1577 C 0.26314 0.25038 0.06051 0.0
C1578 C 0.24947 0.25637 0.0503 0.0
C1579 C 0.21652 0.24889 0.0241 0.0
C1580 C 0.19751 0.23537 1.00696 0.0
C1581 C 0.23053 0.24297 0.03402 0.0
C1582 C 0.19301 0.21581 1.00082 0.0
C1583 C 0.20669 0.20987 1.011 0.0
H1584 H 0.03745 0.79779 0.44221 0.0
H1585 H 0.06794 0.84898 0.53245 0.0
H1586 H 0.03693 0.84483 0.56082 0.0
H1587 H 1.00084 0.82755 0.5587 0.0
H1588 H 0.97002 0.77607 0.46952 0.0
H1589 H 1.001 0.77972 0.4423 0.0
C1590 C 0.03738 0.80794 0.46854 0.0
C1591 C 0.05543 0.82371 0.48501 0.0
C1592 C 1.01918 0.80559 0.48479 0.0
C1593 C 0.05461 0.83669 0.51877 0.0
C1594 C 0.03672 0.83435 0.53514 0.0
C1595 C 1.00072 0.81689 0.5338 0.0
C1596 C 0.98258 0.80157 0.51636 0.0
C1597 C 1.01884 0.81896 0.51824 0.0
C1598 C 0.98335 0.78828 0.48333 0.0
C1599 C 1.00124 0.79026 0.46783 0.0
H1600 H 0.22698 0.18057 0.54101 0.0
H1601 H 0.28786 0.21195 0.50069 0.0
H1602 H 0.2853 0.24073 0.48045 0.0
H1603 H 0.26539 0.25712 0.47109 0.0
H1604 H 0.20441 0.22497 0.51051 0.0
H1605 H 0.20751 0.1969 0.53344 0.0
C1606 C 0.23975 0.19359 0.5275 0.0
C1607 C 0.25763 0.19366 0.52258 0.0
C1608 C 0.23817 0.21028 0.5155 0.0
C1609 C 0.27391 0.21115 0.50572 0.0
C1610 C 0.27243 0.22774 0.49371 0.0
C1611 C 0.2528 0.24408 0.48516 0.0
C1612 C 0.23463 0.24354 0.48886 0.0
C1613 C 0.2546 0.22754 0.49819 0.0
C1614 C 0.21859 0.22618 0.50695 0.0
C1615 C 0.22033 0.20992 0.52013 0.0
H1616 H 0.87644 0.05833 0.55689 0.0
H1617 H 0.84823 0.08888 0.50012 0.0
H1618 H 0.81989 0.05782 0.47726 0.0
H1619 H 0.80283 1.02155 0.47121 0.0
H1620 H 0.83113 0.99111 0.528 0.0
H1621 H 0.85894 1.02212 0.55363 0.0
C1622 C 0.86407 0.05834 0.54005 0.0
C1623 C 0.865 0.07645 0.53022 0.0
C1624 C 0.84747 0.04015 0.52694 0.0
C1625 C 0.84855 0.07559 0.5076 0.0
C1626 C 0.83208 0.05765 0.4947 0.0
C1627 C 0.81495 1.02158 0.48964 0.0
C1628 C 0.81452 1.00358 0.49734 0.0
C1629 C 0.83134 0.03976 0.50385 0.0
C1630 C 0.83068 1.00439 0.52128 0.0
C1631 C 0.84679 1.02228 0.5359 0.0
H1632 H 0.8959 0.39303 0.39446 0.0
H1633 H 0.95213 0.42471 0.32407 0.0
H1634 H 0.94969 0.3939 0.29962 0.0
H1635 H 0.93111 0.35755 0.29518 0.0
H1636 H 0.87457 0.32612 0.36408 0.0
H1637 H 0.87766 0.3569 0.39116 0.0
C1638 C 0.90764 0.39335 0.37349 0.0
C1639 C 0.92424 0.41165 0.36151 0.0
C1640 C 0.9061 0.37536 0.3589 0.0
C1641 C 0.93928 0.41121 0.33489 0.0
C1642 C 0.93783 0.39344 0.32041 0.0
C1643 C 0.9195 0.35733 0.31647 0.0
C1644 C 0.90259 0.33913 0.32735 0.0
C1645 C 0.92127 0.37535 0.33193 0.0
C1646 C 0.88778 0.33958 0.35486 0.0
C1647 C 0.88951 0.35732 0.37043 0.0
H1648 H 0.72585 0.5581 0.34393 0.0
H1649 H 0.70836 0.59885 0.29401 0.0
H1650 H 0.67441 0.57528 0.31312 0.0
H1651 H 0.6489 0.54252 0.34333 0.0
H1652 H 0.66657 0.502 0.39391 0.0
H1653 H 0.70054 0.52576 0.37575 0.0
C1654 C 0.7147 0.56198 0.33758 0.0
C1655 C 0.72013 0.58057 0.31746 0.0
C1656 C 0.69485 0.54817 0.34884 0.0
C1657 C 0.70507 0.58491 0.30949 0.0
C1658 C 0.68543 0.57129 0.32035 0.0
C1659 C 0.66012 0.5388 0.3503 0.0
C1660 C 0.65474 0.52021 0.37054 0.0
C1661 C 0.68002 0.55277 0.33981 0.0
C1662 C 0.66989 0.51608 0.37932 0.0
C1663 C 0.6895 0.52973 0.36861 0.0
H1664 H 0.499 0.17616 0.3462 0.0
H1665 H 0.46153 0.12044 0.27847 0.0
H1666 H 0.48489 0.10983 0.29773 0.0
H1667 H 0.51649 0.11617 0.33355 0.0
H1668 H 0.55369 0.17184 0.40177 0.0
H1669 H 0.53019 0.18226 0.38302 0.0
C1670 C 0.49578 0.16161 0.33593 0.0
C1671 C 0.47816 0.14921 0.31092 0.0
C1672 C 0.50945 0.15543 0.3473 0.0
C1673 C 0.47468 0.13045 0.29793 0.0
C1674 C 0.48818 0.12432 0.30885 0.0
C1675 C 0.51955 0.13062 0.34426 0.0
C1676 C 0.5371 0.14302 0.36969 0.0
C1677 C 0.50572 0.13667 0.3334 0.0
C1678 C 0.54038 0.16166 0.38314 0.0
C1679 C 0.52689 0.16776 0.3721 0.0
H1680 H 0.75559 0.59721 0.84417 0.0
H1681 H 0.74164 0.53699 0.84444 0.0
H1682 H 0.70774 0.52641 0.86383 0.0
H1683 H 0.68152 0.53383 0.8822 0.0
H1684 H 0.69476 0.59375 0.88003 0.0
H1685 H 0.72885 0.60461 0.86047 0.0
C1686 C 0.74518 0.58177 0.84861 0.0
C1687 C 0.75156 0.56801 0.8423 0.0
C1688 C 0.72528 0.57559 0.85961 0.0
C1689 C 0.73748 0.54805 0.84809 0.0
C1690 C 0.71792 0.54191 0.85951 0.0
C1691 C 0.69175 0.54928 0.87706 0.0
C1692 C 0.68522 0.56289 0.88319 0.0
C1693 C 0.71155 0.55549 0.8653 0.0
C1694 C 0.69909 0.58284 0.87633 0.0
C1695 C 0.71873 0.5891 0.86495 0.0
H1696 H 0.47473 0.12775 0.92637 0.0
H1697 H 0.52618 0.14906 0.83649 0.0
H1698 H 0.52179 0.17574 0.80756 0.0
H1699 H 0.50435 0.19429 0.80935 0.0
H1700 H 0.45278 0.17332 0.89852 0.0
H1701 H 0.45649 0.14596 0.92604 0.0
C1702 C 0.4849 0.13808 0.90006 0.0
C1703 C 0.50084 0.13605 0.88392 0.0
C1704 C 0.48245 0.15387 0.88359 0.0
C1705 C 0.5138 0.14994 0.85001 0.0
C1706 C 0.51132 0.16538 0.83331 0.0
C1707 C 0.49369 0.18368 0.8343 0.0
C1708 C 0.47831 0.18636 0.85161 0.0
C1709 C 0.49583 0.16768 0.85008 0.0
C1710 C 0.46502 0.17225 0.88477 0.0
C1711 C 0.46704 0.15634 0.90044 0.0
H1712 H 0.87931 0.306 0.88557 0.0
H1713 H 0.8593 0.32541 0.76286 0.0
H1714 H 0.88402 0.35912 0.77927 0.0
H1715 H 0.91189 0.3841 0.82883 0.0
H1716 H 0.93251 0.36418 0.94884 0.0
H1717 H 0.90777 0.3305 0.93245 0.0
C1718 C 0.88035 0.31745 0.86181 0.0
C1719 C 0.86673 0.31252 0.82323 0.0
C1720 C 0.89512 0.3372 0.87083 0.0
C1721 C 0.86879 0.32818 0.79375 0.0
C1722 C 0.88323 0.34773 0.80284 0.0
C1723 C 0.91105 0.37241 0.85128 0.0
C1724 C 0.92466 0.37709 0.88969 0.0
C1725 C 0.89649 0.35257 0.84148 0.0
C1726 C 0.92294 0.3614 0.91818 0.0
C1727 C 0.9085 0.34192 0.9091 0.0
H1728 H 0.50599 0.32109 0.30272 0.0
H1729 H 0.45534 0.28966 0.39469 0.0
H1730 H 0.45806 0.32052 0.42007 0.0
H1731 H 0.47567 0.35713 0.41928 0.0
H1732 H 0.52673 0.38805 0.32836 0.0
H1733 H 0.52302 0.35714 0.30068 0.0
C1734 C 0.49554 0.32081 0.32863 0.0
C1735 C 0.48043 0.30253 0.34638 0.0
C1736 C 0.49729 0.33884 0.34375 0.0
C1737 C 0.467 0.30308 0.37935 0.0
C1738 C 0.46863 0.32091 0.39437 0.0
C1739 C 0.48588 0.35717 0.393 0.0
C1740 C 0.50151 0.37533 0.37617 0.0
C1741 C 0.48379 0.33899 0.3771 0.0
C1742 C 0.51457 0.37465 0.34237 0.0
C1743 C 0.51248 0.35681 0.32638 0.0
H1744 H 0.70102 0.12697 0.40557 0.0
H1745 H 0.67089 0.15492 0.34469 0.0
H1746 H 0.7019 0.18235 0.31743 0.0
H1747 H 0.73791 0.19925 0.31174 0.0
H1748 H 0.76838 0.17179 0.37335 0.0
H1749 H 0.73729 0.14371 0.39825 0.0
C1750 C 0.70113 0.13895 0.386 0.0
C1751 C 0.68321 0.13851 0.37745 0.0
C1752 C 0.71932 0.15504 0.37031 0.0
C1753 C 0.68411 0.15449 0.35207 0.0
C1754 C 0.70199 0.17036 0.33641 0.0
C1755 C 0.73792 0.18725 0.33088 0.0
C1756 C 0.75596 0.18807 0.34033 0.0
C1757 C 0.71976 0.17096 0.34561 0.0
C1758 C 0.75509 0.17186 0.36458 0.0
C1759 C 0.73715 0.15569 0.3793 0.0
H1760 H 0.8675 0.55802 0.29992 0.0
H1761 H 0.88248 0.60428 0.40369 0.0
H1762 H 0.91075 0.60197 0.42955 0.0
H1763 H 0.93099 0.58587 0.42583 0.0
H1764 H 0.9146 0.53845 0.3249 0.0
H1765 H 0.88763 0.54227 0.29563 0.0
C1766 C 0.87677 0.56759 0.32847 0.0
C1767 C 0.8724 0.58138 0.34933 0.0
C1768 C 0.8931 0.56602 0.344 0.0
C1769 C 0.88522 0.59371 0.38581 0.0
C1770 C 0.9015 0.59232 0.40108 0.0
C1771 C 0.92171 0.57651 0.39694 0.0
C1772 C 0.92517 0.56183 0.37786 0.0
C1773 C 0.90563 0.57846 0.38068 0.0
C1774 C 0.91258 0.54984 0.34074 0.0
C1775 C 0.89697 0.55197 0.32391 0.0
H1776 H 0.70502 0.13125 0.78339 0.0
H1777 H 0.73521 0.18341 0.87047 0.0
H1778 H 0.70411 0.17906 0.89873 0.0
H1779 H 0.66804 0.16135 0.89714 0.0
H1780 H 0.6375 0.10892 0.81112 0.0
H1781 H 0.66859 0.11269 0.78432 0.0
C1782 C 0.70487 0.14157 0.80899 0.0
C1783 C 0.72284 0.15768 0.82457 0.0
C1784 C 0.68662 0.13909 0.82518 0.0
C1785 C 0.72193 0.17088 0.85746 0.0
C1786 C 0.704 0.16842 0.87377 0.0
C1787 C 0.66802 0.15053 0.87301 0.0
C1788 C 0.64996 0.13489 0.85629 0.0
C1789 C 0.68619 0.15269 0.85766 0.0
C1790 C 0.65081 0.12136 0.8243 0.0
C1791 C 0.66875 0.12342 0.80904 0.0
H1792 H 0.88244 0.56088 0.85391 0.0
H1793 H 0.9402 0.60175 0.80127 0.0
H1794 H 0.95102 0.57852 0.82061 0.0
H1795 H 0.94417 0.54584 0.85105 0.0
H1796 H 0.88635 0.50521 0.90388 0.0
H1797 H 0.87588 0.52879 0.88632 0.0
C1798 C 0.89749 0.56492 0.84729 0.0
C1799 C 0.91038 0.58345 0.82629 0.0
C1800 C 0.90376 0.55127 0.85841 0.0
C1801 C 0.9298 0.58792 0.81772 0.0
C1802 C 0.93605 0.57446 0.82855 0.0
C1803 C 0.92925 0.54206 0.85869 0.0
C1804 C 0.91624 0.52346 0.87939 0.0
C1805 C 0.92316 0.55595 0.84857 0.0
C1806 C 0.89699 0.51928 0.88895 0.0
C1807 C 0.89086 0.53284 0.8786 0.0
H1808 H 0.54463 0.39246 0.89478 0.0
H1809 H 0.51996 0.4241 0.825 0.0
H1810 H 0.49168 0.39326 0.79988 0.0
H1811 H 0.47402 0.35676 0.79453 0.0
H1812 H 0.49945 0.32564 0.86347 0.0
H1813 H 0.5269 0.35641 0.89103 0.0
C1814 C 0.53322 0.39278 0.87378 0.0
C1815 C 0.53489 0.41108 0.86213 0.0
C1816 C 0.51682 0.37478 0.85887 0.0
C1817 C 0.51938 0.41061 0.83551 0.0
C1818 C 0.50309 0.39281 0.82066 0.0
C1819 C 0.48542 0.35661 0.81597 0.0
C1820 C 0.48427 0.33845 0.82659 0.0
C1821 C 0.50161 0.37471 0.83182 0.0
C1822 C 0.49957 0.33904 0.8543 0.0
C1823 C 0.51547 0.35679 0.87021 0.0
H1824 H 0.6088 0.74214 0.68567 0.0
H1825 H 0.54954 0.72492 0.72472 0.0
H1826 H 0.53918 0.69099 0.70585 0.0
H1827 H 0.54634 0.66564 0.67611 0.0
H1828 H 0.60557 0.68251 0.63766 0.0
H1829 H 0.61619 0.71643 0.65817 0.0
C1830 C 0.5936 0.73102 0.69 0.0
C1831 C 0.58011 0.73652 0.70719 0.0
C1832 C 0.58758 0.71111 0.67919 0.0
C1833 C 0.56049 0.7215 0.71255 0.0
C1834 C 0.55445 0.7019 0.70145 0.0
C1835 C 0.56165 0.67661 0.67284 0.0
C1836 C 0.57502 0.67104 0.65536 0.0
C1837 C 0.5678 0.69643 0.68473 0.0
C1838 C 0.59477 0.68592 0.65117 0.0
C1839 C 0.60092 0.70554 0.66272 0.0
H1840 H 0.33362 0.85211 0.73031 0.0
H1841 H 0.30372 0.87485 0.64449 0.0
H1842 H 0.33501 0.90233 0.61876 0.0
H1843 H 0.37122 0.92009 0.61901 0.0
H1844 H 0.40118 0.89754 0.70501 0.0
H1845 H 0.36985 0.87034 0.73213 0.0
C1846 C 0.33381 0.86312 0.70637 0.0
C1847 C 0.31586 0.86095 0.68947 0.0
C1848 C 0.35211 0.8792 0.69156 0.0
C1849 C 0.31693 0.87555 0.65778 0.0
C1850 C 0.33498 0.89151 0.64317 0.0
C1851 C 0.37101 0.90945 0.64428 0.0
C1852 C 0.38893 0.9113 0.66011 0.0
C1853 C 0.35272 0.89352 0.65962 0.0
C1854 C 0.38792 0.89683 0.69207 0.0
C1855 C 0.36987 0.88113 0.70767 0.0
H1856 H 0.13949 0.4641 0.61628 0.0
H1857 H 0.16261 0.51722 0.69991 0.0
H1858 H 0.18949 0.51296 0.72753 0.0
H1859 H 0.20765 0.49503 0.72632 0.0
H1860 H 0.18454 0.44161 0.64387 0.0
H1861 H 0.15713 0.44534 0.61771 0.0
C1862 C 0.15024 0.47466 0.641 0.0
C1863 C 0.14864 0.491 0.65579 0.0
C1864 C 0.16609 0.47223 0.65684 0.0
C1865 C 0.16312 0.50449 0.68754 0.0
C1866 C 0.17868 0.50209 0.70347 0.0
C1867 C 0.19657 0.48399 0.70312 0.0
C1868 C 0.1987 0.46808 0.68717 0.0
C1869 C 0.18049 0.48612 0.68815 0.0
C1870 C 0.18394 0.45427 0.65639 0.0
C1871 C 0.168 0.4563 0.64151 0.0
H1872 H 0.34703 0.86989 0.19381 0.0
H1873 H 0.36518 0.92837 0.24257 0.0
H1874 H 0.39904 0.93854 0.22308 0.0
H1875 H 0.42425 0.93098 0.1928 0.0
H1876 H 0.40579 0.87249 0.14353 0.0
H1877 H 0.37198 0.86255 0.1621 0.0
C1878 C 0.3583 0.88493 0.19984 0.0
C1879 C 0.35311 0.89824 0.21973 0.0
C1880 C 0.37807 0.89083 0.18838 0.0
C1881 C 0.36832 0.91764 0.22729 0.0
C1882 C 0.38789 0.92353 0.2162 0.0
C1883 C 0.41288 0.91603 0.1862 0.0
C1884 C 0.418 0.90266 0.16616 0.0
C1885 C 0.39306 0.91026 0.19695 0.0
C1886 C 0.40268 0.88337 0.1579 0.0
C1887 C 0.38315 0.87757 0.16886 0.0
H1888 H 0.17501 0.53273 0.1461 0.0
H1889 H 0.11798 0.50607 0.21263 0.0
H1890 H 0.12121 0.47816 0.23802 0.0
H1891 H 0.14064 0.4613 0.24394 0.0
H1892 H 0.19771 0.4883 0.17741 0.0
H1893 H 0.19399 0.51565 0.1503 0.0
C1894 C 0.16325 0.52092 0.16639 0.0
C1895 C 0.14621 0.5219 0.17713 0.0
C1896 C 0.1652 0.5047 0.18119 0.0
C1897 C 0.13118 0.50598 0.20291 0.0
C1898 C 0.13307 0.48991 0.21786 0.0
C1899 C 0.15224 0.47304 0.22314 0.0
C1900 C 0.1695 0.47237 0.21295 0.0
C1901 C 0.15005 0.48907 0.20743 0.0
C1902 C 0.18425 0.48806 0.18607 0.0
C1903 C 0.18215 0.50388 0.17048 0.0
H1904 H 0.56938 0.7132 0.19525 0.0
H1905 H 0.61143 0.6956 0.23092 0.0
H1906 H 0.58747 0.66171 0.21302 0.0
H1907 H 0.55405 0.63622 0.18803 0.0
H1908 H 0.51202 0.65378 0.15193 0.0
H1909 H 0.53616 0.68778 0.16859 0.0
C1910 C 0.57346 0.70205 0.19853 0.0
C1911 C 0.59257 0.70745 0.21444 0.0
C1912 C 0.55937 0.68217 0.18811 0.0
C1913 C 0.59711 0.69235 0.21879 0.0
C1914 C 0.58327 0.67273 0.20861 0.0
C1915 C 0.55007 0.64741 0.18392 0.0
C1916 C 0.53093 0.64198 0.16814 0.0
C1917 C 0.56425 0.66733 0.19354 0.0
C1918 C 0.52649 0.65712 0.16299 0.0
C1919 C 0.54038 0.67677 0.17285 0.0
H1920 H 0.19377 0.71439 0.71213 0.0
H1921 H 0.13424 0.70187 0.70153 0.0
H1922 H 0.12365 0.66812 0.67925 0.0
H1923 H 0.13103 0.6414 0.66253 0.0
H1924 H 0.19078 0.65446 0.67121 0.0
H1925 H 0.20121 0.6881 0.69374 0.0
C1926 C 0.17848 0.7044 0.70454 0.0
C1927 C 0.16495 0.71113 0.70872 0.0
C1928 C 0.17237 0.68473 0.6912 0.0
C1929 C 0.14518 0.69752 0.69882 0.0
C1930 C 0.13903 0.67801 0.68602 0.0
C1931 C 0.14633 0.65154 0.66948 0.0
C1932 C 0.16001 0.645 0.66458 0.0
C1933 C 0.15244 0.67131 0.68221 0.0
C1934 C 0.1798 0.65877 0.67369 0.0
C1935 C 0.18585 0.67817 0.68691 0.0
H1936 H 0.40406 0.52894 0.64081 0.0
H1937 H 0.43432 0.50454 0.71852 0.0
H1938 H 0.40314 0.47659 0.74308 0.0
H1939 H 0.36672 0.45892 0.74477 0.0
H1940 H 0.33682 0.48365 0.66679 0.0
H1941 H 0.36798 0.51077 0.63962 0.0
C1942 C 0.40401 0.51747 0.66257 0.0
C1943 C 0.42204 0.51938 0.6777 0.0
C1944 C 0.38578 0.5011 0.67663 0.0
C1945 C 0.42107 0.5041 0.70669 0.0
C1946 C 0.40306 0.48784 0.7206 0.0
C1947 C 0.36693 0.47006 0.72125 0.0
C1948 C 0.349 0.46888 0.70819 0.0
C1949 C 0.38523 0.48615 0.70609 0.0
C1950 C 0.35003 0.48383 0.6779 0.0
C1951 C 0.36801 0.49956 0.66232 0.0
H1952 H 0.59671 0.9168 0.75312 0.0
H1953 H 0.57459 0.86417 0.66786 0.0
H1954 H 0.54812 0.8687 0.63803 0.0
H1955 H 0.53041 0.88705 0.63648 0.0
H1956 H 0.55164 0.93915 0.72352 0.0
H1957 H 0.57897 0.93548 0.75087 0.0
C1958 C 0.58626 0.90639 0.72762 0.0
C1959 C 0.58803 0.89012 0.71295 0.0
C1960 C 0.57064 0.90897 0.71057 0.0
C1961 C 0.57393 0.87683 0.68018 0.0
C1962 C 0.55862 0.8794 0.66296 0.0
C1963 C 0.54084 0.89762 0.66173 0.0
C1964 C 0.53851 0.91345 0.67741 0.0
C1965 C 0.55665 0.8953 0.67812 0.0
C1966 C 0.55279 0.92697 0.70964 0.0
C1967 C 0.56852 0.9248 0.72582 0.0
H1968 H 0.3149 0.44966 0.17502 0.0
H1969 H 0.33316 0.5062 0.23776 0.0
H1970 H 0.36716 0.51641 0.22063 0.0
H1971 H 0.39235 0.50998 0.18593 0.0
H1972 H 0.3743 0.45338 0.12376 0.0
H1973 H 0.34031 0.44287 0.14238 0.0
C1974 C 0.32626 0.46425 0.18491 0.0
C1975 C 0.32102 0.47698 0.20821 0.0
C1976 C 0.3462 0.47016 0.17508 0.0
C1977 C 0.33635 0.49579 0.22071 0.0
C1978 C 0.35599 0.50176 0.21062 0.0
C1979 C 0.38108 0.49523 0.177 0.0
C1980 C 0.38637 0.48258 0.15357 0.0
C1981 C 0.3612 0.48912 0.18782 0.0
C1982 C 0.37113 0.46358 0.14211 0.0
C1983 C 0.35146 0.4575 0.15254 0.0
H1984 H 0.568 0.85195 0.22654 0.0
H1985 H 0.61986 0.87407 0.13799 0.0
H1986 H 0.61608 0.90161 0.11263 0.0
H1987 H 0.59766 0.91966 0.11374 0.0
H1988 H 0.54603 0.89737 0.20324 0.0
H1989 H 0.55042 0.87041 0.22998 0.0
C1990 C 0.57869 0.86283 0.20214 0.0
C1991 C 0.59419 0.8604 0.18434 0.0
C1992 C 0.57651 0.87896 0.18758 0.0
C1993 C 0.60753 0.87491 0.15202 0.0
C1994 C 0.60547 0.89093 0.13759 0.0
C1995 C 0.58746 0.90906 0.13953 0.0
C1996 C 0.57149 0.91093 0.15628 0.0
C1997 C 0.58995 0.89315 0.15484 0.0
C1998 C 0.55846 0.89665 0.18937 0.0
C1999 C 0.56093 0.88105 0.2048 0.0
H2000 H 0.21488 0.72776 0.2098 0.0
H2001 H 0.18232 0.75719 0.18275 0.0
H2002 H 0.15337 0.72589 0.16333 0.0
H2003 H 0.13712 0.6897 0.15079 0.0
H2004 H 0.17046 0.66098 0.17681 0.0
H2005 H 0.19873 0.69205 0.1992 0.0
C2006 C 0.20156 0.72751 0.19935 0.0
C2007 C 0.20121 0.74528 0.19791 0.0
C2008 C 0.18477 0.70928 0.18779 0.0
C2009 C 0.18336 0.74406 0.18501 0.0
C2010 C 0.16666 0.72602 0.17348 0.0
C2011 C 0.15047 0.69015 0.16178 0.0
C2012 C 0.15129 0.67259 0.16183 0.0
C2013 C 0.16713 0.70844 0.17446 0.0
C2014 C 0.16904 0.67391 0.17609 0.0
C2015 C 0.1854 0.69184 0.18894 0.0
H2016 H 0.36623 0.22431 0.16211 0.0
H2017 H 0.31721 0.16564 0.17363 0.0
H2018 H 0.33926 0.15338 0.1927 0.0
H2019 H 0.37268 0.15887 0.206 0.0
H2020 H 0.42178 0.21749 0.19499 0.0
H2021 H 0.39975 0.22984 0.17599 0.0
C2022 C 0.36028 0.20885 0.16914 0.0
C2023 C 0.33977 0.19607 0.1665 0.0
C2024 C 0.37323 0.2017 0.17999 0.0
C2025 C 0.33271 0.17602 0.1754 0.0
C2026 C 0.34542 0.16891 0.18627 0.0
C2027 C 0.37866 0.17435 0.19917 0.0
C2028 C 0.39917 0.18708 0.20177 0.0
C2029 C 0.36574 0.18153 0.1885 0.0
C2030 C 0.40627 0.20715 0.19317 0.0
C2031 C 0.39357 0.21431 0.18234 0.0
H2032 H 0.88806 0.17224 0.1499 0.0
H2033 H 0.82859 0.14478 0.20146 0.0
H2034 H 0.83307 0.17654 0.22383 0.0
H2035 H 0.85357 0.21263 0.22878 0.0
H2036 H 0.91319 0.24039 0.17867 0.0
H2037 H 0.90885 0.20856 0.1561 0.0
C2038 C 0.8761 0.17312 0.16641 0.0
C2039 C 0.85796 0.15567 0.17383 0.0
C2040 C 0.87872 0.19179 0.17935 0.0
C2041 C 0.84275 0.15758 0.19505 0.0
C2042 C 0.84526 0.17592 0.20789 0.0
C2043 C 0.86563 0.21183 0.21262 0.0
C2044 C 0.88371 0.22931 0.20535 0.0
C2045 C 0.86312 0.19321 0.20003 0.0
C2046 C 0.89907 0.2275 0.1848 0.0
C2047 C 0.89661 0.20915 0.17185 0.0
H2048 H 0.83412 0.68763 0.20974 0.0
H2049 H 0.84389 0.63889 0.19494 0.0
H2050 H 0.87816 0.66132 0.17523 0.0
H2051 H 0.90603 0.69512 0.162 0.0
H2052 H 0.89611 0.74376 0.17752 0.0
H2053 H 0.8619 0.7213 0.19697 0.0
C2054 C 0.84364 0.68181 0.20186 0.0
C2055 C 0.83596 0.66128 0.20366 0.0
C2056 C 0.86369 0.69496 0.19084 0.0
C2057 C 0.84898 0.65441 0.19378 0.0
C2058 C 0.86877 0.66733 0.18254 0.0
C2059 C 0.89648 0.70089 0.16994 0.0
C2060 C 0.90412 0.72142 0.1683 0.0
C2061 C 0.87642 0.6877 0.18107 0.0
C2062 C 0.89107 0.72824 0.17845 0.0
C2063 C 0.8713 0.7153 0.18956 0.0
H2064 H 0.22064 0.39584 0.30841 0.0
H2065 H 0.16165 0.36464 0.36344 0.0
H2066 H 0.16585 0.33712 0.38609 0.0
H2067 H 0.18603 0.3213 0.39072 0.0
H2068 H 0.24485 0.35184 0.33461 0.0
H2069 H 0.24085 0.37963 0.31215 0.0
C2070 C 0.20872 0.3831 0.32568 0.0
C2071 C 0.19081 0.38271 0.33426 0.0
C2072 C 0.21113 0.36688 0.3383 0.0
C2073 C 0.17561 0.36572 0.35621 0.0
C2074 C 0.17799 0.3498 0.36922 0.0
C2075 C 0.19801 0.33394 0.37328 0.0
C2076 C 0.21576 0.33409 0.3644 0.0
C2077 C 0.19563 0.3501 0.36036 0.0
C2078 C 0.23097 0.35092 0.3419 0.0
C2079 C 0.22871 0.367 0.32912 0.0
H2080 H 0.66393 0.83741 0.31041 0.0
H2081 H 0.69617 0.81028 0.36263 0.0
H2082 H 0.72324 0.84208 0.38545 0.0
H2083 H 0.73859 0.87809 0.39086 0.0
H2084 H 0.70661 0.90562 0.34013 0.0
H2085 H 0.6793 0.87375 0.31686 0.0
C2086 C 0.67678 0.83837 0.32712 0.0
C2087 C 0.67759 0.82099 0.3346 0.0
C2088 C 0.69274 0.85709 0.34037 0.0
C2089 C 0.69472 0.82302 0.35612 0.0
C2090 C 0.71043 0.84138 0.36925 0.0
C2091 C 0.72574 0.87724 0.3744 0.0
C2092 C 0.72506 0.89466 0.36719 0.0
C2093 C 0.70975 0.8586 0.3614 0.0
C2094 C 0.70792 0.89278 0.34622 0.0
C2095 C 0.69212 0.8744 0.33288 0.0
H2096 H 0.23876 0.89047 0.32528 0.0
H2097 H 0.22927 0.83208 0.34227 0.0
H2098 H 0.19484 0.81989 0.36052 0.0
H2099 H 0.16673 0.82551 0.37194 0.0
H2100 H 0.17642 0.88396 0.35371 0.0
H2101 H 0.21075 0.89601 0.33581 0.0
C2102 C 0.22927 0.87509 0.33336 0.0
C2103 C 0.23708 0.86238 0.33265 0.0
C2104 C 0.20912 0.86798 0.34341 0.0
C2105 C 0.22409 0.84242 0.34265 0.0
C2106 C 0.2042 0.83535 0.35304 0.0
C2107 C 0.17626 0.84086 0.36367 0.0
C2108 C 0.16849 0.85364 0.36415 0.0
C2109 C 0.19641 0.84793 0.3534 0.0
C2110 C 0.18153 0.87356 0.35367 0.0
C2111 C 0.20138 0.88057 0.34346 0.0
H2112 H 0.70823 0.82756 0.8728 0.0
H2113 H 0.75589 0.88695 0.86235 0.0
H2114 H 0.73287 0.89817 0.84364 0.0
H2115 H 0.69875 0.89134 0.82991 0.0
H2116 H 0.65132 0.83181 0.84203 0.0
H2117 H 0.6744 0.82083 0.8603 0.0
C2118 C 0.7137 0.84297 0.86611 0.0
C2119 C 0.73411 0.85625 0.86876 0.0
C2120 C 0.70021 0.84949 0.85584 0.0
C2121 C 0.74049 0.8762 0.86048 0.0
C2122 C 0.72721 0.8827 0.84981 0.0
C2123 C 0.69338 0.87597 0.83691 0.0
C2124 C 0.67295 0.86258 0.83457 0.0
C2125 C 0.70696 0.86953 0.84749 0.0
C2126 C 0.6667 0.84268 0.84351 0.0
C2127 C 0.68 0.83628 0.85393 0.0
H2128 H 0.21914 0.83894 0.80307 0.0
H2129 H 0.16289 0.81004 0.87371 0.0
H2130 H 0.16726 0.84177 0.89781 0.0
H2131 H 0.18699 0.87828 0.89898 0.0
H2132 H 0.24353 0.9069 0.82965 0.0
H2133 H 0.239 0.8752 0.80529 0.0
C2134 C 0.20781 0.83945 0.824 0.0
C2135 C 0.19065 0.82165 0.83645 0.0
C2136 C 0.21042 0.858 0.83796 0.0
C2137 C 0.1763 0.82312 0.86352 0.0
C2138 C 0.17877 0.84144 0.87728 0.0
C2139 C 0.19832 0.87768 0.87824 0.0
C2140 C 0.21562 0.89543 0.86612 0.0
C2141 C 0.19573 0.85907 0.86462 0.0
C2142 C 0.23005 0.89386 0.83969 0.0
C2143 C 0.22747 0.87557 0.82567 0.0
H2144 H 0.16681 0.35318 0.87689 0.0
H2145 H 0.17665 0.30443 0.86408 0.0
H2146 H 0.21101 0.32688 0.84465 0.0
H2147 H 0.23888 0.36074 0.83082 0.0
H2148 H 0.22867 0.40927 0.84472 0.0
H2149 H 0.1945 0.38678 0.8641 0.0
C2150 C 0.17637 0.34735 0.86956 0.0
C2151 C 0.1687 0.32683 0.87176 0.0
C2152 C 0.19642 0.36049 0.85876 0.0
C2153 C 0.18175 0.31995 0.86259 0.0
C2154 C 0.20158 0.33288 0.85151 0.0
C2155 C 0.22927 0.36648 0.83846 0.0
C2156 C 0.23682 0.38701 0.83631 0.0
C2157 C 0.2092 0.35325 0.84956 0.0
C2158 C 0.22371 0.39377 0.84603 0.0
C2159 C 0.20395 0.38082 0.85709 0.0
H2160 H 0.83518 0.69418 0.66478 0.0
H2161 H 0.89391 0.74289 0.67733 0.0
H2162 H 0.90572 0.7206 0.6976 0.0
H2163 H 0.89996 0.68709 0.71142 0.0
H2164 H 0.84139 0.63814 0.69976 0.0
H2165 H 0.82933 0.6604 0.67972 0.0
C2166 C 0.85055 0.7 0.67236 0.0
C2167 C 0.86348 0.72054 0.66951 0.0
C2168 C 0.85748 0.68688 0.68395 0.0
C2169 C 0.8834 0.7274 0.67914 0.0
C2170 C 0.89027 0.71455 0.69072 0.0
C2171 C 0.88454 0.68118 0.70423 0.0
C2172 C 0.87176 0.66065 0.70696 0.0
C2173 C 0.87754 0.69422 0.69301 0.0
C2174 C 0.85178 0.65367 0.6979 0.0
C2175 C 0.84479 0.6665 0.68646 0.0
H2176 H 0.36463 0.15754 0.65627 0.0
H2177 H 0.31573 0.16681 0.67296 0.0
H2178 H 0.33803 0.20116 0.69322 0.0
H2179 H 0.37192 0.22918 0.70734 0.0
H2180 H 0.42042 0.21926 0.68871 0.0
H2181 H 0.39806 0.18528 0.66824 0.0
C2182 C 0.35873 0.16696 0.66458 0.0
C2183 C 0.33822 0.15912 0.66335 0.0
C2184 C 0.37177 0.18699 0.67577 0.0
C2185 C 0.33125 0.17203 0.67374 0.0
C2186 C 0.34411 0.19186 0.6853 0.0
C2187 C 0.37767 0.21969 0.69833 0.0
C2188 C 0.39819 0.2273 0.69972 0.0
C2189 C 0.36448 0.19964 0.68645 0.0
C2190 C 0.40495 0.2143 0.68819 0.0
C2191 C 0.39206 0.19462 0.67646 0.0
H2192 H 0.9056 0.22331 0.66006 0.0
H2193 H 0.89641 0.1654 0.68515 0.0
H2194 H 0.86228 0.15364 0.70555 0.0
H2195 H 0.83431 0.1594 0.71631 0.0
H2196 H 0.84352 0.21731 0.6906 0.0
H2197 H 0.87766 0.22906 0.67066 0.0
C2198 C 0.89623 0.20814 0.67037 0.0
C2199 C 0.90404 0.19542 0.67117 0.0
C2200 C 0.87623 0.20126 0.6818 0.0
C2201 C 0.89123 0.17573 0.68417 0.0
C2202 C 0.8715 0.1689 0.69584 0.0
C2203 C 0.84369 0.17458 0.70605 0.0
C2204 C 0.83586 0.18728 0.70494 0.0
C2205 C 0.86371 0.18145 0.69463 0.0
C2206 C 0.8487 0.20697 0.69184 0.0
C2207 C 0.86843 0.2138 0.68043 0.0
H2208 H 1.0318 0.55708 0.49319 0.0
H2209 H 0.98279 0.49936 0.51877 0.0
H2210 H 1.005 0.4873 0.53809 0.0
H2211 H 0.03869 0.49274 0.54783 0.0
H2212 H 0.08764 0.55045 0.52125 0.0
H2213 H 0.06541 0.56248 0.50244 0.0
C2214 C 1.0259 0.54189 0.5034 0.0
C2215 C 1.00534 0.52933 0.50472 0.0
C2216 C 0.03893 0.53482 0.51411 0.0
C2217 C 0.99834 0.50959 0.51748 0.0
C2218 C 1.01114 0.50258 0.52851 0.0
C2219 C 0.04457 0.50793 0.53758 0.0
C2220 C 0.06514 0.52049 0.53592 0.0
C2221 C 1.03152 0.51498 0.52679 0.0
C2222 C 0.0721 0.5402 0.52288 0.0
C2223 C 0.05929 0.54721 0.51214 0.0
H2224 H 0.56671 0.55828 0.53811 0.0
H2225 H 0.50883 0.54953 0.51844 0.0
H2226 H 0.49666 0.51528 0.49762 0.0
H2227 H 0.50216 0.48709 0.485 0.0
H2228 H 0.56013 0.49613 0.50612 0.0
H2229 H 0.57215 0.53028 0.52613 0.0
C2230 C 0.55145 0.54899 0.5289 0.0
C2231 C 0.53887 0.55694 0.52968 0.0
C2232 C 0.54436 0.52896 0.51736 0.0
C2233 C 0.51905 0.54421 0.51813 0.0
C2234 C 0.512 0.52443 0.50624 0.0
C2235 C 0.5174 0.49644 0.49426 0.0
C2236 C 0.53005 0.48854 0.494 0.0
C2237 C 0.52445 0.51651 0.50588 0.0
C2238 C 0.54982 0.50134 0.50591 0.0
C2239 C 0.55682 0.52109 0.51737 0.0
H2240 H 0.5571 0.06342 0.48617 0.0
H2241 H 0.58352 0.02884 0.52345 0.0
H2242 H 0.55159 1.00148 0.54598 0.0
H2243 H 0.51562 0.98673 0.55531 0.0
H2244 H 0.48924 1.02133 0.51772 0.0
H2245 H 0.52116 0.04868 0.49541 0.0
C2246 C 0.55599 0.04998 0.49953 0.0
C2247 C 0.57315 0.0486 0.5031 0.0
C2248 C 0.53727 0.03395 0.51229 0.0
C2249 C 0.57093 0.03072 0.52021 0.0
C2250 C 0.5525 1.01489 0.53311 0.0
C2251 C 0.51674 1.00018 0.54194 0.0
C2252 C 0.49958 1.00156 0.53824 0.0
C2253 C 0.53547 1.01621 0.52919 0.0
C2254 C 0.50182 1.01944 0.52109 0.0
C2255 C 0.52025 0.03528 0.50831 0.0
H2256 H 0.56876 1.02112 0.05173 0.0
H2257 H 0.51153 0.97184 0.02387 0.0
H2258 H 0.49935 0.99392 1.00428 0.0
H2259 H 0.50453 0.02753 0.99461 0.0
H2260 H 0.56178 0.07683 0.02204 0.0
H2261 H 0.57394 0.05474 0.04201 0.0
C2262 C 0.55365 1.01514 0.04105 0.0
C2263 C 0.54126 0.99453 0.03923 0.0
C2264 C 0.54651 0.0281 0.02988 0.0
C2265 C 0.52163 0.98743 0.02566 0.0
C2266 C 0.51454 1.00015 1.01445 0.0
C2267 C 0.51964 0.03351 1.00534 0.0
C2268 C 0.53204 0.05411 1.00689 0.0
C2269 C 0.52677 1.02056 1.01655 0.0
C2270 C 0.55168 0.06123 0.02044 0.0
C2271 C 0.55875 0.04851 0.03187 0.0
H2272 H 1.00036 0.50778 0.97192 0.0
H2273 H 1.02976 0.47971 0.03645 0.0
H2274 H 0.05662 0.51134 0.06124 0.0
H2275 H 0.0725 0.54721 0.06493 0.0
H2276 H 0.04419 0.57624 1.00014 0.0
H2277 H 1.01676 0.54448 0.97539 0.0
C2278 C 1.01255 0.50852 0.99175 0.0
C2279 C 1.01264 0.49091 1.00222 0.0
C2280 C 1.02848 0.52718 1.00576 0.0
C2281 C 1.02893 0.49263 0.02754 0.0
C2282 C 0.04448 0.51088 0.04185 0.0
C2283 C 0.06043 0.54676 0.04519 0.0
C2284 C 0.06079 0.56453 0.03449 0.0
C2285 C 0.04454 0.5283 0.03104 0.0
C2286 C 0.04469 0.56313 1.00892 0.0
C2287 C 1.02883 0.54482 0.99482 0.0
H2288 H 0.5 0.49319 0.03825 0.0
H2289 H 0.51019 0.55208 0.03035 0.0
H2290 H 0.54463 0.56428 1.0119 0.0
H2291 H 0.57246 0.55847 0.99747 0.0
H2292 H 0.56193 0.49942 1.00556 0.0
H2293 H 0.52767 0.48742 0.02443 0.0
C2294 C 0.50965 0.5087 0.03219 0.0
C2295 C 0.50205 0.52155 0.03551 0.0
C2296 C 0.52975 0.51577 0.02184 0.0
C2297 C 0.51523 0.54165 0.02794 0.0
C2298 C 0.53511 0.54872 1.01745 0.0
C2299 C 0.56277 0.54299 1.0038 0.0
C2300 C 0.57025 0.53002 1.0002 0.0
C2301 C 0.54265 0.53596 1.0144 0.0
C2302 C 0.55702 0.50995 1.00809 0.0
C2303 C 0.53722 0.50297 0.01883 0.0
H2304 H 0.36479 0.23647 0.03587 0.0
H2305 H 0.3166 0.21495 0.93562 0.0
H2306 H 0.33958 0.22609 0.86691 0.0
H2307 H 0.37376 0.244 0.83477 0.0
H2308 H 0.42176 0.26266 0.93466 0.0
H2309 H 0.39873 0.25057 1.00324 0.0
C2310 C 0.35925 0.23395 0.99895 0.0
C2311 C 0.33873 0.22484 0.99145 0.0
C2312 C 0.37267 0.24004 0.95923 0.0
C2313 C 0.33208 0.2217 0.94304 0.0
C2314 C 0.34533 0.22823 0.90355 0.0
C2315 C 0.37922 0.24521 0.87152 0.0
C2316 C 0.39974 0.25444 0.87904 0.0
C2317 C 0.3657 0.23771 0.91107 0.0
C2318 C 0.40627 0.25562 0.9272 0.0
C2319 C 0.393 0.24877 0.96665 0.0
H2320 H 0.82156 0.14174 0.03866 0.0
H2321 H 0.84593 0.11755 0.9393 0.0
H2322 H 0.83579 0.13009 0.87024 0.0
H2323 H 0.81813 0.14632 0.83707 0.0
H2324 H 0.79646 0.17328 0.93573 0.0
H2325 H 0.80748 0.16162 1.0052 0.0
C2326 C 0.82485 0.13935 1.0019 0.0
C2327 C 0.83449 0.12842 0.99476 0.0
C2328 C 0.81939 0.14719 0.96186 0.0
C2329 C 0.83869 0.12583 0.94651 0.0
C2330 C 0.83277 0.13298 0.90677 0.0
C2331 C 0.8161 0.14998 0.87377 0.0
C2332 C 0.80638 0.16082 0.88063 0.0
C2333 C 0.82288 0.14348 0.91381 0.0
C2334 C 0.804 0.16527 0.92878 0.0
C2335 C 0.8102 0.1584 0.96872 0.0
H2336 H 0.91768 0.68801 0.83625 0.0
H2337 H 0.89447 0.63923 0.93574 0.0
H2338 H 0.90596 0.66187 1.00482 0.0
H2339 H 0.9241 0.6959 0.03786 0.0
H2340 H 0.94408 0.74459 0.93887 0.0
H2341 H 0.9324 0.72194 0.86972 0.0
C2342 C 0.91495 0.68228 0.87306 0.0
C2343 C 0.9052 0.66166 0.88019 0.0
C2344 C 0.92116 0.69555 0.91314 0.0
C2345 C 0.90176 0.65479 0.92855 0.0
C2346 C 0.90846 0.66785 0.9683 0.0
C2347 C 0.92575 0.7016 1.00117 0.0
C2348 C 0.93521 0.7222 0.99413 0.0
C2349 C 0.91839 0.6883 0.96122 0.0
C2350 C 0.9369 0.72902 0.94599 0.0
C2351 C 0.93026 0.71597 0.90619 0.0
H2352 H 0.24558 0.35263 0.50546 0.0
H2353 H 0.22664 0.30386 0.6037 0.0
H2354 H 0.23862 0.32647 0.67304 0.0
H2355 H 0.25655 0.36065 0.70592 0.0
H2356 H 0.2725 0.40899 0.6078 0.0
H2357 H 0.25971 0.38627 0.5391 0.0
C2358 C 0.24375 0.34686 0.54212 0.0
C2359 C 0.23508 0.32632 0.54883 0.0
C2360 C 0.25039 0.36005 0.58217 0.0
C2361 C 0.23294 0.31937 0.59694 0.0
C2362 C 0.24 0.33242 0.63675 0.0
C2363 C 0.25709 0.36623 0.66954 0.0
C2364 C 0.26579 0.38679 0.66249 0.0
C2365 C 0.24907 0.35286 0.62989 0.0
C2366 C 0.26599 0.39347 0.61486 0.0
C2367 C 0.25869 0.38039 0.57532 0.0
H2368 H 0.69575 0.90273 0.70194 0.0
H2369 H 0.64717 0.87815 0.60271 0.0
H2370 H 0.66991 0.89014 0.53345 0.0
H2371 H 0.70397 0.90948 0.50046 0.0
H2372 H 0.75243 0.93094 0.59987 0.0
H2373 H 0.72967 0.91836 0.6688 0.0
C2374 C 0.69009 0.8997 0.66513 0.0
C2375 C 0.66954 0.88943 0.65803 0.0
C2376 C 0.7034 0.90629 0.62515 0.0
C2377 C 0.66272 0.88574 0.60977 0.0
C2378 C 0.67582 0.89277 0.56997 0.0
C2379 C 0.70958 0.91125 0.5372 0.0
C2380 C 0.73015 0.92142 0.54449 0.0
C2381 C 0.69623 0.90335 0.57706 0.0
C2382 C 0.73689 0.92325 0.59263 0.0
C2383 C 0.72378 0.91608 0.63229 0.0
H2384 H 0.14806 0.80803 0.49485 0.0
H2385 H 0.13338 0.84143 0.59196 0.0
H2386 H 0.14617 0.83143 0.66089 0.0
H2387 H 0.15981 0.81147 0.69501 0.0
H2388 H 0.17729 0.78052 0.59725 0.0
H2389 H 0.16546 0.79136 0.52788 0.0
C2390 C 0.14782 0.81332 0.53104 0.0
C2391 C 0.13948 0.82547 0.53774 0.0
C2392 C 0.15576 0.80786 0.57074 0.0
C2393 C 0.13964 0.83221 0.58514 0.0
C2394 C 0.14691 0.82638 0.62481 0.0
C2395 C 0.16134 0.8073 0.65845 0.0
C2396 C 0.16954 0.79503 0.65193 0.0
C2397 C 0.15479 0.81398 0.61829 0.0
C2398 C 0.17133 0.79 0.60391 0.0
C2399 C 0.16437 0.79612 0.56406 0.0
H2400 H 0.70043 0.80423 0.2007 0.0
H2401 H 0.6519 0.78132 0.10123 0.0
H2402 H 0.67463 0.79376 0.03223 0.0
H2403 H 0.70858 0.81007 0.99909 0.0
H2404 H 0.75713 0.83591 0.0984 0.0
H2405 H 0.73441 0.82371 0.16758 0.0
C2406 C 0.69478 0.80205 0.16393 0.0
C2407 C 0.67421 0.79155 0.15672 0.0
C2408 C 0.7081 0.80984 0.12398 0.0
C2409 C 0.66744 0.78925 0.10847 0.0
C2410 C 0.68054 0.79635 0.06876 0.0
C2411 C 0.71425 0.81322 0.03587 0.0
C2412 C 0.73482 0.82394 0.04295 0.0
C2413 C 0.70093 0.80652 0.07588 0.0
C2414 C 0.74159 0.8279 0.09126 0.0
C2415 C 0.7285 0.82077 0.13105 0.0
H2416 H 0.25377 0.91239 0.99961 0.0
H2417 H 0.22532 0.93242 0.09846 0.0
H2418 H 0.23591 0.92032 0.1676 0.0
H2419 H 0.25484 0.90545 0.20106 0.0
H2420 H 0.28047 0.88242 0.10221 0.0
H2421 H 0.26938 0.89398 0.03282 0.0
C2422 C 0.24971 0.91397 0.03626 0.0
C2423 C 0.23877 0.92358 0.04333 0.0
C2424 C 0.25545 0.90639 0.07622 0.0
C2425 C 0.23358 0.92515 0.09138 0.0
C2426 C 0.23976 0.91827 0.13115 0.0
C2427 C 0.25782 0.90273 0.16431 0.0
C2428 C 0.26867 0.89303 0.15738 0.0
C2429 C 0.25091 0.90906 0.12421 0.0
C2430 C 0.27214 0.88962 0.10917 0.0
C2431 C 0.26587 0.8964 0.06928 0.0
H2432 H 0.1524 0.36242 0.20165 0.0
H2433 H 0.18079 0.41106 0.10243 0.0
H2434 H 0.1697 0.38835 0.03335 0.0
H2435 H 0.15038 0.35434 1.0001 0.0
H2436 H 0.12509 0.30568 0.1 0.0
H2437 H 0.13646 0.3284 0.16889 0.0
C2438 C 0.15637 0.3681 0.16493 0.0
C2439 C 0.16747 0.3887 0.1578 0.0
C2440 C 0.15034 0.35477 0.12507 0.0
C2441 C 0.17247 0.3955 0.10961 0.0
C2442 C 0.16598 0.38241 0.06987 0.0
C2443 C 0.14748 0.34866 0.03696 0.0
C2444 C 0.13662 0.32805 0.04428 0.0
C2445 C 0.15468 0.36198 0.07694 0.0
C2446 C 0.13335 0.32124 0.09268 0.0
C2447 C 0.13983 0.33434 0.13231 0.0
H2448 H 0.8197 0.69466 0.53663 0.0
H2449 H 0.84917 0.74313 0.43722 0.0
H2450 H 0.8386 0.72034 0.36849 0.0
H2451 H 0.81927 0.68647 0.33549 0.0
H2452 H 0.79261 0.63779 0.43512 0.0
H2453 H 0.8038 0.66054 0.50411 0.0
C2454 C 0.82401 0.70027 0.49996 0.0
C2455 C 0.83523 0.72085 0.49258 0.0
C2456 C 0.81826 0.68689 0.46029 0.0
C2457 C 0.84071 0.72757 0.44453 0.0
C2458 C 0.83453 0.71445 0.40499 0.0
C2459 C 0.8161 0.68078 0.37234 0.0
C2460 C 0.80492 0.6602 0.37961 0.0
C2461 C 0.82308 0.69407 0.41222 0.0
C2462 C 0.8012 0.65334 0.42793 0.0
C2463 C 0.80754 0.66645 0.46757 0.0
H2464 H 0.36565 0.13779 0.53371 0.0
H2465 H 0.31679 0.11603 0.43549 0.0
H2466 H 0.33925 0.12709 0.36584 0.0
H2467 H 0.37301 0.14175 0.33188 0.0
H2468 H 0.422 0.16661 0.42997 0.0
H2469 H 0.39955 0.1558 0.49971 0.0
C2470 C 0.35987 0.13559 0.49707 0.0
C2471 C 0.33928 0.12582 0.49039 0.0
C2472 C 0.37306 0.14257 0.45676 0.0
C2473 C 0.33235 0.12345 0.4423 0.0
C2474 C 0.34529 0.12973 0.40223 0.0
C2475 C 0.37883 0.14499 0.36852 0.0
C2476 C 0.39943 0.15499 0.37513 0.0
C2477 C 0.3657 0.13914 0.40883 0.0
C2478 C 0.40643 0.15911 0.42322 0.0
C2479 C 0.39349 0.15279 0.46332 0.0
H2480 H 0.92239 0.24024 0.54008 0.0
H2481 H 0.94323 0.21285 0.4403 0.0
H2482 H 0.9316 0.22408 0.37144 0.0
H2483 H 0.91701 0.24342 0.33859 0.0
H2484 H 0.89298 0.26779 0.43828 0.0
H2485 H 0.90403 0.256 0.50733 0.0
C2486 C 0.9242 0.23652 0.50328 0.0
C2487 C 0.9339 0.2257 0.49585 0.0
C2488 C 0.91687 0.2426 0.46348 0.0
C2489 C 0.93584 0.22098 0.44762 0.0
C2490 C 0.92924 0.22754 0.40802 0.0
C2491 C 0.91392 0.24593 0.37545 0.0
C2492 C 0.9041 0.25664 0.38276 0.0
C2493 C 0.91993 0.23859 0.41532 0.0
C2494 C 0.90027 0.25955 0.43107 0.0
C2495 C 0.90676 0.25288 0.47075 0.0
H2496 H 0.04187 0.57425 0.17549 0.0
H2497 H 0.08993 0.6037 0.27509 0.0
H2498 H 0.0669 0.59264 0.34379 0.0
H2499 H 1.03257 0.57625 0.3757 0.0
H2500 H 0.98491 0.54427 0.2763 0.0
H2501 H 1.00805 0.55448 0.20821 0.0
C2502 C 0.04739 0.57799 0.21231 0.0
C2503 C 0.06786 0.58989 0.21959 0.0
C2504 C 1.03395 0.57121 0.25199 0.0
C2505 C 0.07448 0.59446 0.26789 0.0
C2506 C 0.0612 0.58824 0.30734 0.0
C2507 C 1.02722 0.57133 0.33918 0.0
C2508 C 1.00674 0.55952 0.33157 0.0
C2509 C 0.04083 0.57687 0.29991 0.0
C2510 C 1.00037 0.55323 0.28378 0.0
C2511 C 1.01369 0.55918 0.2446 0.0
H2512 H 0.48855 0.47082 0.36412 0.0
H2513 H 0.51512 0.4493 0.26378 0.0
H2514 H 0.50365 0.46088 0.1951 0.0
H2515 H 0.48418 0.47559 0.16272 0.0
H2516 H 0.46059 0.50001 0.26365 0.0
H2517 H 0.47271 0.48908 0.332 0.0
C2518 C 0.49213 0.46891 0.32722 0.0
C2519 C 0.50282 0.45906 0.31968 0.0
C2520 C 0.48579 0.47608 0.2876 0.0
C2521 C 0.5072 0.45689 0.27128 0.0
C2522 C 0.50045 0.46343 0.23178 0.0
C2523 C 0.48182 0.47871 0.19968 0.0
C2524 C 0.47118 0.48861 0.20746 0.0
C2525 C 0.48945 0.47281 0.23931 0.0
C2526 C 0.46864 0.49258 0.25595 0.0
C2527 C 0.47556 0.4862 0.29529 0.0
H2528 H 0.5885 0.0276 0.37008 0.0
H2529 H 0.60988 0.07602 0.26977 0.0
H2530 H 0.59771 0.0531 0.20121 0.0
H2531 H 0.58262 1.01902 0.1687 0.0
H2532 H 0.5582 0.97053 0.26904 0.0
H2533 H 0.5696 0.99343 0.33775 0.0
C2534 C 0.59031 0.03318 0.33323 0.0
C2535 C 0.60034 0.0538 0.32564 0.0
C2536 C 0.58269 1.01973 0.2936 0.0
C2537 C 0.60225 0.06046 0.27731 0.0
C2538 C 0.59534 0.04725 0.23786 0.0
C2539 C 0.5795 1.01341 0.20563 0.0
C2540 C 0.56944 0.9928 0.21315 0.0
C2541 C 0.58575 0.02683 0.24535 0.0
C2542 C 0.56562 0.98608 0.26158 0.0
C2543 C 0.57233 0.99928 0.30109 0.0
H2544 H 0.48494 1.02082 0.67318 0.0
H2545 H 0.46052 0.9717 0.77166 0.0
H2546 H 0.47198 0.99415 0.84126 0.0
H2547 H 0.48745 0.0281 0.87487 0.0
H2548 H 0.51489 0.07709 0.77632 0.0
H2549 H 0.504 0.05462 0.70687 0.0
C2550 C 0.48235 1.01498 0.70989 0.0
C2551 C 0.47172 0.99436 0.71668 0.0
C2552 C 0.4895 0.02811 0.75008 0.0
C2553 C 0.4687 0.9873 0.76482 0.0
C2554 C 0.47518 1.00023 0.80482 0.0
C2555 C 0.49126 0.03389 0.8382 0.0
C2556 C 0.50199 0.05451 0.8313 0.0
C2557 C 0.48537 1.02071 0.79807 0.0
C2558 C 0.50682 0.0615 0.78324 0.0
C2559 C 0.50046 0.04856 0.7433 0.0
H2560 H 0.04123 0.47966 0.66616 0.0
H2561 H 0.08963 0.508 0.7653 0.0
H2562 H 0.06678 0.49731 0.83427 0.0
H2563 H 1.03287 0.47766 0.86736 0.0
H2564 H 0.98436 0.45186 0.76793 0.0
H2565 H 1.00715 0.46384 0.69883 0.0
C2566 C 0.04682 0.4838 0.70283 0.0
C2567 C 0.06739 0.49471 0.71005 0.0
C2568 C 1.03342 0.47789 0.74258 0.0
C2569 C 0.0741 0.49988 0.7581 0.0
C2570 C 0.06093 0.49358 0.79775 0.0
C2571 C 1.02722 0.47491 0.83054 0.0
C2572 C 1.00666 0.46369 0.82337 0.0
C2573 C 0.04055 0.48228 0.79062 0.0
C2574 C 0.99987 0.46048 0.77509 0.0
C2575 C 1.01301 0.46725 0.73538 0.0
H2576 H 0.58598 0.57614 0.6619 0.0
H2577 H 0.55439 0.59293 0.75957 0.0
H2578 H 0.56423 0.58011 0.8286 0.0
H2579 H 0.58349 0.56583 0.86261 0.0
H2580 H 0.61296 0.54652 0.7651 0.0
H2581 H 0.60216 0.55824 0.69536 0.0
C2582 C 0.58108 0.57687 0.69825 0.0
C2583 C 0.56948 0.5858 0.70501 0.0
C2584 C 0.58647 0.56893 0.73814 0.0
C2585 C 0.5632 0.58624 0.75266 0.0
C2586 C 0.56893 0.57893 0.79239 0.0
C2587 C 0.58733 0.56387 0.82604 0.0
C2588 C 0.59916 0.55518 0.81968 0.0
C2589 C 0.58077 0.57045 0.7858 0.0
C2590 C 0.6038 0.55285 0.77165 0.0
C2591 C 0.59772 0.55977 0.7316 0.0
H2592 H 0.2511 0.24954 0.36388 0.0
H2593 H 0.20666 0.24402 0.26452 0.0
H2594 H 0.21676 0.22701 0.20622 0.0
H2595 H 0.24078 0.21594 0.17989 0.0
H2596 H 0.28467 0.22229 0.28314 0.0
H2597 H 0.27234 0.23633 0.34194 0.0
C2598 C 0.24322 0.24427 0.32992 0.0
C2599 C 0.22776 0.24805 0.31979 0.0
C2600 C 0.24929 0.2346 0.29629 0.0
C2601 C 0.21819 0.24115 0.27473 0.0
C2602 C 0.22422 0.23153 0.24085 0.0
C2603 C 0.24733 0.21986 0.21568 0.0
C2604 C 0.26384 0.21758 0.22624 0.0
C2605 C 0.24006 0.22838 0.25064 0.0
C2606 C 0.27209 0.2235 0.27301 0.0
C2607 C 0.26503 0.23172 0.3071 0.0
H2608 H 0.84106 0.06436 0.285 0.0
H2609 H 0.83822 0.03917 0.14462 0.0
H2610 H 0.82267 1.00647 0.18111 0.0
H2611 H 0.80764 0.98399 0.25363 0.0
H2612 H 0.81551 1.00988 0.39509 0.0
H2613 H 0.83104 0.04247 0.35866 0.0
C2614 C 0.8375 0.05182 0.26234 0.0
C2615 C 0.84111 0.05477 0.21129 0.0
C2616 C 0.82917 0.03274 0.28433 0.0
C2617 C 0.83601 0.03788 0.18353 0.0
C2618 C 0.82691 1.01893 0.20466 0.0
C2619 C 0.8132 0.99675 0.27677 0.0
C2620 C 0.81023 0.99395 0.3281 0.0
C2621 C 0.82313 1.01599 0.25511 0.0
C2622 C 0.81756 1.01109 0.35625 0.0
C2623 C 0.82644 0.02997 0.33504 0.0
H2624 H 1.02538 0.81024 0.16715 0.0
H2625 H 0.98479 0.79383 0.2861 0.0
H2626 H 1.01199 0.80928 0.34382 0.0
H2627 H 0.04793 0.82579 0.36249 0.0
H2628 H 0.0882 0.8392 0.2438 0.0
H2629 H 0.0612 0.82699 0.1856 0.0
C2630 C 1.02242 0.81051 0.20552 0.0
C2631 C 1.00259 0.80128 0.22131 0.0
C2632 C 0.03845 0.81894 0.23936 0.0
C2633 C 0.99956 0.80115 0.27197 0.0
C2634 C 1.01529 0.80994 0.30536 0.0
C2635 C 0.05094 0.82662 0.32384 0.0
C2636 C 0.07066 0.83431 0.30822 0.0
C2637 C 1.03491 0.81876 0.28985 0.0
C2638 C 0.0736 0.83407 0.2576 0.0
C2639 C 0.05798 0.82687 0.22395 0.0
H2640 H 0.8537 0.80269 0.77938 0.0
H2641 H 0.82708 0.80193 0.64258 0.0
H2642 H 0.81018 0.81727 0.67986 0.0
H2643 H 0.8012 0.82985 0.75322 0.0
H2644 H 0.83093 0.83487 0.8882 0.0
H2645 H 0.84799 0.81949 0.85084 0.0
C2646 C 0.84459 0.80629 0.7573 0.0
C2647 C 0.8421 0.80108 0.70693 0.0
C2648 C 0.83515 0.81598 0.77936 0.0
C2649 C 0.82981 0.80584 0.68038 0.0
C2650 C 0.8199 0.8146 0.70217 0.0
C2651 C 0.81169 0.82798 0.77447 0.0
C2652 C 0.81451 0.83382 0.82428 0.0
C2653 C 0.82223 0.81964 0.75185 0.0
C2654 C 0.82827 0.83091 0.85019 0.0
C2655 C 0.83809 0.82191 0.82859 0.0
H2656 H 0.21923 0.98519 0.75313 0.0
H2657 H 0.24558 1.01104 0.8901 0.0
H2658 H 0.26249 0.04336 0.85263 0.0
H2659 H 0.27169 0.06498 0.77905 0.0
H2660 H 0.24221 0.04034 0.6439 0.0
H2661 H 0.22502 1.00778 0.68147 0.0
C2662 C 0.22824 0.99791 0.77523 0.0
C2663 C 0.23066 0.99516 0.82565 0.0
C2664 C 0.23771 1.0171 0.75306 0.0
C2665 C 0.24289 1.01223 0.85222 0.0
C2666 C 0.25281 0.03096 0.83033 0.0
C2667 C 0.26122 0.05262 0.75782 0.0
C2668 C 0.25853 0.05566 0.70791 0.0
C2669 C 0.25059 0.03369 0.78057 0.0
C2670 C 0.24478 0.03898 0.68199 0.0
C2671 C 0.23488 1.02011 0.7037 0.0
H2672 H 0.99524 0.21424 0.7848 0.0
H2673 H 1.02174 0.22127 0.64414 0.0
H2674 H 0.05423 0.2379 0.6813 0.0
H2675 H 0.07597 0.25215 0.75499 0.0
H2676 H 0.04898 0.23873 0.8963 0.0
H2677 H 1.01668 0.2232 0.85894 0.0
C2678 C 1.00805 0.219 0.76217 0.0
C2679 C 1.00555 0.21642 0.71079 0.0
C2680 C 1.02702 0.2277 0.78454 0.0
C2681 C 1.02275 0.22291 0.68316 0.0
C2682 C 0.04155 0.23255 0.70472 0.0
C2683 C 0.06306 0.2455 0.77782 0.0
C2684 C 0.06545 0.24708 0.82943 0.0
C2685 C 0.04403 0.23529 0.75553 0.0
C2686 C 0.04812 0.2381 0.8572 0.0
C2687 C 1.0294 0.22911 0.83549 0.0
H2688 H 0.88812 0.58415 0.5904 0.0
H2689 H 0.90642 0.57543 0.73091 0.0
H2690 H 0.92371 0.56058 0.69328 0.0
H2691 H 0.93541 0.55104 0.61892 0.0
H2692 H 0.91155 0.55315 0.47998 0.0
H2693 H 0.895 0.56908 0.51725 0.0
C2694 C 0.89553 0.57866 0.61305 0.0
C2695 C 0.89584 0.58134 0.6645 0.0
C2696 C 0.90475 0.56884 0.59073 0.0
C2697 C 0.90568 0.57385 0.69201 0.0
C2698 C 0.91575 0.56528 0.67011 0.0
C2699 C 0.92628 0.55458 0.59674 0.0
C2700 C 0.92518 0.5509 0.54574 0.0
C2701 C 0.91564 0.56281 0.61933 0.0
C2702 C 0.91304 0.55576 0.5187 0.0
C2703 C 0.90347 0.56497 0.54032 0.0
H2704 H 0.5252 0.37879 0.54067 0.0
H2705 H 0.48355 0.39706 0.57613 0.0
H2706 H 0.46514 0.36829 0.62505 0.0
H2707 H 0.45939 0.33721 0.65885 0.0
H2708 H 0.50194 0.31929 0.63805 0.0
H2709 H 0.5209 0.34787 0.58422 0.0
C2710 C 0.51219 0.37661 0.55921 0.0
C2711 C 0.506 0.39072 0.55239 0.0
C2712 C 0.50151 0.3597 0.5908 0.0
C2713 C 0.48906 0.38705 0.57852 0.0
C2714 C 0.47825 0.37029 0.60729 0.0
C2715 C 0.47291 0.33948 0.64313 0.0
C2716 C 0.47884 0.32558 0.65317 0.0
C2717 C 0.48416 0.35643 0.61371 0.0
C2718 C 0.49666 0.32937 0.63178 0.0
C2719 C 0.50758 0.34588 0.60057 0.0
H2720 H 0.67863 0.11074 0.56163 0.0
H2721 H 0.66887 0.15941 0.54816 0.0
H2722 H 0.69821 0.17947 0.59818 0.0
H2723 H 0.72789 0.18338 0.64686 0.0
H2724 H 0.73788 0.13448 0.64565 0.0
H2725 H 0.70805 0.11507 0.60162 0.0
C2726 C 0.68275 0.12576 0.56915 0.0
C2727 C 0.67088 0.13312 0.55058 0.0
C2728 C 0.70018 0.1375 0.59633 0.0
C2729 C 0.67721 0.1529 0.56145 0.0
C2730 C 0.6942 0.1645 0.59038 0.0
C2731 C 0.72358 0.16849 0.63718 0.0
C2732 C 0.73574 0.16068 0.65195 0.0
C2733 C 0.70604 0.15704 0.60834 0.0
C2734 C 0.72939 0.1413 0.63691 0.0
C2735 C 0.71204 0.12993 0.61096 0.0
H2736 H 0.49293 0.15948 0.19742 0.0
H2737 H 0.46183 0.16771 0.07967 0.0
H2738 H 0.47653 0.15538 0.02184 0.0
H2739 H 0.49676 0.13996 1.0037 0.0
H2740 H 0.52565 0.12888 0.1216 0.0
H2741 H 0.51376 0.14443 0.17871 0.0
C2742 C 0.48977 0.15914 0.15896 0.0
C2743 C 0.47648 0.16534 0.14354 0.0
C2744 C 0.49798 0.15126 0.12518 0.0
C2745 C 0.47216 0.16366 0.0933 0.0
C2746 C 0.48057 0.15641 0.05985 0.0
C2747 C 0.50098 0.14143 0.0416 0.0
C2748 C 0.51294 0.1337 0.05724 0.0
C2749 C 0.49337 0.14992 0.07512 0.0
C2750 C 0.51715 0.13508 0.10747 0.0
C2751 C 0.51012 0.14391 0.14054 0.0
H2752 H 0.92753 0.33432 0.1454 0.0
H2753 H 0.86954 0.32576 0.15627 0.0
H2754 H 0.87982 0.3555 0.10654 0.0
H2755 H 0.90632 0.38506 0.05846 0.0
H2756 H 0.96438 0.39287 0.05891 0.0
H2757 H 0.95306 0.36306 0.10394 0.0
C2758 C 0.91688 0.33869 0.13695 0.0
C2759 C 0.89748 0.32707 0.15476 0.0
C2760 C 0.92308 0.35619 0.10942 0.0
C2761 C 0.88447 0.33387 0.14341 0.0
C2762 C 0.89045 0.35109 0.11464 0.0
C2763 C 0.91653 0.38029 0.06826 0.0
C2764 C 0.93659 0.39199 0.05349 0.0
C2765 C 0.90987 0.36259 0.09707 0.0
C2766 C 0.94909 0.38494 0.06823 0.0
C2767 C 0.94257 0.36754 0.09461 0.0
H2768 H 0.73158 0.6068 0.13097 0.0
H2769 H 0.73202 0.55422 0.16962 0.0
H2770 H 0.702 0.53486 0.12152 0.0
H2771 H 0.67431 0.53269 0.06783 0.0
H2772 H 0.67424 0.58641 0.04008 0.0
H2773 H 0.70456 0.60477 0.08339 0.0
C2774 C 0.72534 0.59109 0.12905 0.0
C2775 C 0.73477 0.58235 0.15421 0.0
C2776 C 0.7076 0.57991 0.10252 0.0
C2777 C 0.72566 0.56176 0.15088 0.0
C2778 C 0.70826 0.55057 0.12313 0.0
C2779 C 0.68093 0.5484 0.07092 0.0
C2780 C 0.67134 0.55784 0.04894 0.0
C2781 C 0.69886 0.5594 0.09853 0.0
C2782 C 0.68064 0.57832 0.05522 0.0
C2783 C 0.69829 0.58907 0.0805 0.0
H2784 H 0.61208 0.91235 0.87945 0.0
H2785 H 0.56822 0.85211 0.89999 0.0
H2786 H 0.54952 0.86231 0.95239 0.0
H2787 H 0.54582 0.88937 0.99475 0.0
H2788 H 0.58873 0.94914 0.95937 0.0
H2789 H 0.60695 0.93821 0.91214 0.0
C2790 C 0.59834 0.9013 0.89483 0.0
C2791 C 0.59195 0.88133 0.88515 0.0
C2792 C 0.58724 0.90736 0.92337 0.0
C2793 C 0.57385 0.86755 0.90602 0.0
C2794 C 0.56308 0.87348 0.9364 0.0
C2795 C 0.55906 0.90005 0.97654 0.0
C2796 C 0.56568 0.92048 0.98291 0.0
C2797 C 0.56959 0.89349 0.94579 0.0
C2798 C 0.58289 0.93353 0.95721 0.0
C2799 C 0.59358 0.92726 0.9294 0.0
H2800 H 0.15582 0.68483 0.03465 0.0
H2801 H 0.13654 0.63972 0.9263 0.0
H2802 H 0.15038 0.66481 0.8621 0.0
H2803 H 0.16493 0.69995 0.83543 0.0
H2804 H 0.18608 0.74499 0.94435 0.0
H2805 H 0.17492 0.71998 1.00855 0.0
C2806 C 0.15524 0.6804 0.99711 0.0
C2807 C 0.14534 0.65997 0.98623 0.0
C2808 C 0.16351 0.69515 0.95992 0.0
C2809 C 0.1444 0.65496 0.93675 0.0
C2810 C 0.15217 0.66948 0.89968 0.0
C2811 C 0.1678 0.70441 0.87319 0.0
C2812 C 0.17702 0.7248 0.88423 0.0
C2813 C 0.16141 0.68968 0.91055 0.0
C2814 C 0.17978 0.72981 0.93391 0.0
C2815 C 0.17309 0.71533 0.97094 0.0
H2816 H 0.40863 0.49976 0.91933 0.0
H2817 H 0.38246 0.49276 0.0605 0.0
H2818 H 0.34996 0.47662 0.02377 0.0
H2819 H 0.32801 0.46271 0.95045 0.0
H2820 H 0.35451 0.47614 0.80871 0.0
H2821 H 0.38698 0.49123 0.84544 0.0
C2822 C 0.39589 0.49508 0.94219 0.0
C2823 C 0.39852 0.49752 0.99361 0.0
C2824 C 0.37688 0.48668 0.92008 0.0
C2825 C 0.3814 0.4912 0.02147 0.0
C2826 C 0.36257 0.48184 1.00015 0.0
C2827 C 0.34086 0.46931 0.9274 0.0
C2828 C 0.33831 0.46787 0.87584 0.0
C2829 C 0.35995 0.47925 0.94937 0.0
C2830 C 0.35555 0.47672 0.84778 0.0
C2831 C 0.37435 0.48544 0.86914 0.0
H2832 H 0.169 0.51747 0.47593 0.0
H2833 H 0.1112 0.46686 0.48276 0.0
H2834 H 0.12217 0.44765 0.43977 0.0
H2835 H 0.14744 0.44408 0.39799 0.0
H2836 H 0.20464 0.49417 0.37773 0.0
H2837 H 0.19486 0.51409 0.42652 0.0
C2838 C 0.15879 0.50224 0.46826 0.0
C2839 C 0.13896 0.49389 0.48479 0.0
C2840 C 0.16517 0.49089 0.44017 0.0
C2841 C 0.12638 0.47408 0.47242 0.0
C2842 C 0.13269 0.46285 0.44711 0.0
C2843 C 0.15798 0.45937 0.40394 0.0
C2844 C 0.17703 0.4672 0.3838 0.0
C2845 C 0.15197 0.47096 0.43059 0.0
C2846 C 0.18997 0.48731 0.39237 0.0
C2847 C 0.18427 0.49882 0.42057 0.0
H2848 H 0.60525 0.72965 0.44657 0.0
H2849 H 0.57725 0.70536 0.30979 0.0
H2850 H 0.55924 0.6728 0.34703 0.0
H2851 H 0.55249 0.65008 0.41895 0.0
H2852 H 0.5768 0.67575 0.55757 0.0
H2853 H 0.59457 0.70805 0.52035 0.0
C2854 C 0.59488 0.71737 0.42493 0.0
C2855 C 0.59289 0.72048 0.37465 0.0
C2856 C 0.58373 0.69848 0.44747 0.0
C2857 C 0.57927 0.70393 0.34816 0.0
C2858 C 0.56893 0.68506 0.36969 0.0
C2859 C 0.56128 0.66276 0.44138 0.0
C2860 C 0.56294 0.65993 0.49217 0.0
C2861 C 0.57113 0.68195 0.41939 0.0
C2862 C 0.57474 0.67697 0.51933 0.0
C2863 C 0.58516 0.69568 0.49761 0.0
H2864 H 0.40392 0.90063 0.44844 0.0
H2865 H 0.39161 0.93936 0.53116 0.0
H2866 H 0.36013 0.92647 0.49126 0.0
H2867 H 0.33611 0.90551 0.42957 0.0
H2868 H 0.34741 0.86684 0.34337 0.0
H2869 H 0.3784 0.87809 0.38688 0.0
C2870 C 0.39423 0.90601 0.45846 0.0
C2871 C 0.40054 0.92106 0.49438 0.0
C2872 C 0.37564 0.89852 0.43392 0.0
C2873 C 0.38749 0.92782 0.50491 0.0
C2874 C 0.36931 0.92044 0.48158 0.0
C2875 C 0.34508 0.89919 0.4204 0.0
C2876 C 0.33872 0.8849 0.38281 0.0
C2877 C 0.3632 0.90595 0.44556 0.0
C2878 C 0.35127 0.8775 0.37208 0.0
C2879 C 0.36927 0.88411 0.39709 0.0
H2880 H 0.30926 0.31965 0.07241 0.0
H2881 H 0.32453 0.3494 0.21031 0.0
H2882 H 0.33412 0.38045 0.16936 0.0
H2883 H 0.34687 0.39938 0.09463 0.0
H2884 H 0.33657 0.36985 0.957 0.0
H2885 H 0.3157 0.33845 0.99697 0.0
C2886 C 0.31381 0.33279 0.09361 0.0
C2887 C 0.31644 0.33241 0.14412 0.0
C2888 C 0.32055 0.3507 0.06949 0.0
C2889 C 0.32253 0.34949 0.17133 0.0
C2890 C 0.32817 0.36722 0.14784 0.0
C2891 C 0.33928 0.38618 0.07302 0.0
C2892 C 0.34344 0.38683 0.02305 0.0
C2893 C 0.32857 0.36815 0.09681 0.0
C2894 C 0.33365 0.36964 0.99552 0.0
C2895 C 0.32193 0.35168 0.01854 0.0
H2896 H 0.68853 0.97029 0.98567 0.0
H2897 H 0.65228 0.94655 0.11317 0.0
H2898 H 0.68075 0.95467 0.16241 0.0
H2899 H 0.71561 0.97855 0.17286 0.0
H2900 H 0.752 1.00362 0.04644 0.0
H2901 H 0.72412 0.98468 0.99334 0.0
C2902 C 0.68684 0.96608 0.02375 0.0
C2903 C 0.66849 0.95863 0.04607 0.0
C2904 C 0.70343 0.97155 0.05249 0.0
C2905 C 0.6663 0.95265 0.09509 0.0
C2906 C 0.68266 0.95755 0.12363 0.0
C2907 C 0.71756 0.97898 0.13371 0.0
C2908 C 0.73552 0.99278 0.1134 0.0
C2909 C 0.70133 0.96855 0.10344 0.0
C2910 C 0.73815 0.99319 0.06277 0.0
C2911 C 0.72215 0.98255 0.03234 0.0
H2912 H 0.07641 0.75157 0.23905 0.0
H2913 H 0.06312 0.77283 0.10834 0.0
H2914 H 0.08317 0.76377 0.06081 0.0
H2915 H 0.09361 0.7393 0.05396 0.0
H2916 H 0.10553 0.71661 0.18405 0.0
H2917 H 0.09739 0.73692 0.23413 0.0
C2918 C 0.07879 0.75514 0.20063 0.0
C2919 C 0.06761 0.76195 0.17693 0.0
C2920 C 0.08962 0.749 0.17302 0.0
C2921 C 0.07122 0.76716 0.12743 0.0
C2922 C 0.08247 0.76167 0.0999 0.0
C2923 C 0.09539 0.73964 0.09315 0.0
C2924 C 0.09952 0.72615 0.11552 0.0
C2925 C 0.0901 0.75091 0.12174 0.0
C2926 C 0.10212 0.72677 0.16618 0.0
C2927 C 0.09725 0.73823 0.19489 0.0
H2928 H 0.38627 0.31397 0.54661 0.0
H2929 H 0.42009 0.32953 0.41438 0.0
H2930 H 0.39074 0.3097 0.36721 0.0
H2931 H 0.35575 0.29904 0.36261 0.0
H2932 H 0.32189 0.28471 0.49447 0.0
H2933 H 0.35065 0.29227 0.5426 0.0
C2934 C 0.38726 0.31209 0.50783 0.0
C2935 C 0.40505 0.32381 0.48372 0.0
C2936 C 0.37016 0.3013 0.48059 0.0
C2937 C 0.40643 0.32095 0.43372 0.0
C2938 C 0.38957 0.30981 0.40648 0.0
C2939 C 0.35453 0.29654 0.40161 0.0
C2940 C 0.33708 0.29206 0.42528 0.0
C2941 C 0.37129 0.30156 0.42916 0.0
C2942 C 0.33536 0.28847 0.47564 0.0
C2943 C 0.35187 0.29304 0.50328 0.0
H2944 H 0.76675 0.07368 0.34907 0.0
H2945 H 0.78079 0.05291 0.47939 0.0
H2946 H 0.7721 0.07284 0.52906 0.0
H2947 H 0.74954 0.08569 0.53429 0.0
H2948 H 0.73386 0.10476 0.40349 0.0
H2949 H 0.75477 0.0969 0.35558 0.0
C2950 C 0.76892 0.07443 0.38815 0.0
C2951 C 0.77359 0.06135 0.41075 0.0
C2952 C 0.76308 0.08528 0.41662 0.0
C2953 C 0.77684 0.06263 0.46124 0.0
C2954 C 0.77159 0.07383 0.4898 0.0
C2955 C 0.75154 0.08905 0.49569 0.0
C2956 C 0.73959 0.09495 0.47214 0.0
C2957 C 0.76296 0.08367 0.46794 0.0
C2958 C 0.74263 0.09983 0.4224 0.0
C2959 C 0.75441 0.09507 0.39473 0.0
H2960 H 1.0122 0.73159 0.45054 0.0
H2961 H 0.99881 0.7022 0.31218 0.0
H2962 H 0.97769 0.6709 0.35261 0.0
H2963 H 0.97158 0.65185 0.42737 0.0
H2964 H 0.9896 0.68123 0.56546 0.0
H2965 H 0.99982 0.71261 0.52557 0.0
C2966 C 1.00391 0.71846 0.42904 0.0
C2967 C 1.0072 0.71906 0.3786 0.0
C2968 C 0.99295 0.70046 0.45288 0.0
C2969 C 0.99655 0.70198 0.3511 0.0
C2970 C 0.98466 0.6841 0.37431 0.0
C2971 C 0.97685 0.66501 0.44901 0.0
C2972 C 0.9801 0.66436 0.49913 0.0
C2973 C 0.98395 0.68305 0.42533 0.0
C2974 C 0.9871 0.68148 0.52679 0.0
C2975 C 0.99314 0.69941 0.50386 0.0
H2976 H 0.74601 0.67089 0.93153 0.0
H2977 H 0.70087 0.65228 0.82325 0.0
H2978 H 0.7218 0.68059 0.77279 0.0
H2979 H 0.74686 0.71462 0.77631 0.0
H2980 H 0.7921 0.7345 0.88484 0.0
H2981 H 0.77779 0.70132 0.91703 0.0
C2982 C 0.74123 0.67265 0.89584 0.0
C2983 C 0.72189 0.66012 0.88142 0.0
C2984 C 0.75317 0.68931 0.86767 0.0
C2985 C 0.71569 0.66216 0.83507 0.0
C2986 C 0.72761 0.67834 0.80636 0.0
C2987 C 0.75441 0.71173 0.80514 0.0
C2988 C 0.76943 0.72729 0.83113 0.0
C2989 C 0.74563 0.69281 0.8245 0.0
C2990 C 0.77956 0.72288 0.86646 0.0
C2991 C 0.77127 0.70391 0.88527 0.0
H2992 H 0.36006 0.07261 0.86867 0.0
H2993 H 0.32253 0.04889 0.99385 0.0
H2994 H 0.35027 0.06689 0.04787 0.0
H2995 H 0.38559 0.08008 0.05732 0.0
H2996 H 0.42309 0.10277 0.93171 0.0
H2997 H 0.39519 0.09536 0.88055 0.0
C2998 C 0.35789 0.07222 0.90772 0.0
C2999 C 0.33951 0.05907 0.92737 0.0
C3000 C 0.37402 0.08216 0.93864 0.0
C3001 C 0.33665 0.0588 0.97791 0.0
C3002 C 0.35256 0.06891 1.00892 0.0
C3003 C 0.38772 0.08429 0.01925 0.0
C3004 C 0.40618 0.09124 0.99803 0.0
C3005 C 0.37146 0.07929 0.98956 0.0
C3006 C 0.40894 0.0971 0.94889 0.0
C3007 C 0.39291 0.09259 0.91932 0.0
H3008 H 0.98481 0.31617 0.99702 0.0
H3009 H 0.97076 0.33922 0.87099 0.0
H3010 H 0.97809 0.31909 0.81783 0.0
H3011 H 0.9984 0.30385 0.80825 0.0
H3012 H 1.0134 0.28179 0.93477 0.0
H3013 H 0.99489 0.29155 0.98634 0.0
C3014 C 0.98242 0.31596 0.95811 0.0
C3015 C 0.97778 0.32939 0.93767 0.0
C3016 C 0.98712 0.3047 0.9277 0.0
C3017 C 0.97449 0.32902 0.88735 0.0
C3018 C 0.97888 0.31767 0.85688 0.0
C3019 C 0.99671 0.30027 0.84671 0.0
C3020 C 1.00786 0.29289 0.8679 0.0
C3021 C 0.98671 0.3067 0.87658 0.0
C3022 C 1.00524 0.28781 0.91756 0.0
C3023 C 0.99489 0.29369 0.94737 0.0
H3024 H 0.7139 0.74411 0.68674 0.0
H3025 H 0.75098 0.76259 0.56002 0.0
H3026 H 0.72286 0.75341 0.50777 0.0
H3027 H 0.68763 0.73048 0.49808 0.0
H3028 H 0.65063 0.71105 0.62504 0.0
H3029 H 0.67856 0.73075 0.67695 0.0
C3030 C 0.71586 0.74704 0.64794 0.0
C3031 C 0.73424 0.75338 0.62699 0.0
C3032 C 0.69952 0.74109 0.61793 0.0
C3033 C 0.73685 0.75748 0.57687 0.0
C3034 C 0.72072 0.75197 0.54683 0.0
C3035 C 0.68562 0.73136 0.53684 0.0
C3036 C 0.66731 0.7189 0.55789 0.0
C3037 C 0.70189 0.74225 0.56676 0.0
C3038 C 0.66466 0.72036 0.60799 0.0
C3039 C 0.6807 0.73144 0.6379 0.0
H3040 H 0.34239 0.96462 0.66297 0.0
H3041 H 0.32656 0.97465 0.51998 0.0
H3042 H 0.30551 0.98555 0.5564 0.0
H3043 H 0.3002 1.00102 0.62693 0.0
H3044 H 0.31959 0.99458 0.76874 0.0
H3045 H 0.32986 0.97258 0.7351 0.0
C3046 C 0.33365 0.96831 0.6396 0.0
C3047 C 0.33645 0.96937 0.58883 0.0
C3048 C 0.3224 0.97546 0.66082 0.0
C3049 C 0.325 0.97419 0.55919 0.0
C3050 C 0.31302 0.98048 0.58004 0.0
C3051 C 0.30575 0.99401 0.65098 0.0
C3052 C 0.30963 0.99976 0.70002 0.0
C3053 C 0.31283 0.98254 0.63069 0.0
C3054 C 0.31677 0.99056 0.73076 0.0
C3055 C 0.32285 0.97819 0.71134 0.0
H3056 H 0.09906 0.39602 0.62349 0.0
H3057 H 0.08081 0.36842 0.48324 0.0
H3058 H 0.07125 0.33666 0.52015 0.0
H3059 H 0.0596 0.3167 0.59394 0.0
H3060 H 0.07352 0.34435 0.73454 0.0
H3061 H 0.09397 0.37619 0.69609 0.0
C3062 C 0.09384 0.38321 0.60058 0.0
C3063 C 0.09026 0.38443 0.55089 0.0
C3064 C 0.0873 0.36494 0.62252 0.0
C3065 C 0.0834 0.36772 0.52171 0.0
C3066 C 0.07782 0.34957 0.5429 0.0
C3067 C 0.06789 0.32957 0.61627 0.0
C3068 C 0.06488 0.32832 0.66692 0.0
C3069 C 0.0784 0.3479 0.59366 0.0
C3070 C 0.07556 0.34507 0.6955 0.0
C3071 C 0.08704 0.36327 0.67341 0.0
H3072 H 1.01707 0.6362 0.63199 0.0
H3073 H 0.98236 0.61421 0.76224 0.0
H3074 H 1.01152 0.62361 0.81002 0.0
H3075 H 0.04637 0.64826 0.81729 0.0
H3076 H 0.08108 0.67164 0.68759 0.0
H3077 H 0.05271 0.65131 0.63713 0.0
C3078 C 1.01586 0.63254 0.67032 0.0
C3079 C 0.99778 0.62536 0.69381 0.0
C3080 C 1.03283 0.63885 0.69806 0.0
C3081 C 0.99619 0.62012 0.74329 0.0
C3082 C 1.01295 0.6258 0.77096 0.0
C3083 C 0.04785 0.64809 0.77808 0.0
C3084 C 0.06546 0.66172 0.75595 0.0
C3085 C 1.03135 0.63679 0.7493 0.0
C3086 C 0.0675 0.66134 0.70526 0.0
C3087 C 0.05123 0.64987 0.67635 0.0
H3088 H 0.42575 0.40314 0.69787 0.0
H3089 H 0.44039 0.38176 0.82621 0.0
H3090 H 0.43167 0.40125 0.87759 0.0
H3091 H 0.41012 0.41517 0.88513 0.0
H3092 H 0.39436 0.43542 0.75654 0.0
H3093 H 0.414 0.42652 0.70655 0.0
C3094 C 0.4279 0.40354 0.73692 0.0
C3095 C 0.4331 0.39066 0.75838 0.0
C3096 C 0.42231 0.41436 0.76639 0.0
C3097 C 0.43619 0.39144 0.8089 0.0
C3098 C 0.43099 0.40242 0.83842 0.0
C3099 C 0.41184 0.41854 0.84654 0.0
C3100 C 0.40027 0.4252 0.82432 0.0
C3101 C 0.42254 0.41262 0.81762 0.0
C3102 C 0.40289 0.42998 0.7745 0.0
C3103 C 0.41391 0.42461 0.74563 0.0
H3104 H 0.67759 0.06394 0.78824 0.0
H3105 H 0.66685 0.03803 0.64562 0.0
H3106 H 0.64448 1.00595 0.6807 0.0
H3107 H 0.63678 0.98516 0.75237 0.0
H3108 H 0.65179 1.01086 0.89529 0.0
H3109 H 0.66318 0.04324 0.85989 0.0
C3110 C 0.66963 0.05143 0.76455 0.0
C3111 C 0.67409 0.05317 0.71458 0.0
C3112 C 0.65791 0.03295 0.78539 0.0
C3113 C 0.66378 0.0369 0.68428 0.0
C3114 C 0.65115 1.01857 0.70443 0.0
C3115 C 0.64165 0.9977 0.77609 0.0
C3116 C 0.6439 0.99575 0.82626 0.0
C3117 C 0.64935 1.01629 0.75517 0.0
C3118 C 0.65026 1.01212 0.85648 0.0
C3119 C 0.65692 0.03062 0.83616 0.0
H3120 H 0.43214 0.06534 0.26447 0.0
H3121 H 0.41274 0.03474 0.12821 0.0
H3122 H 0.4028 1.00371 0.16962 0.0
H3123 H 0.39097 0.98542 0.24581 0.0
H3124 H 0.40546 1.01613 0.3824 0.0
H3125 H 0.42647 0.04699 0.34011 0.0
C3126 C 0.42663 0.052 0.2435 0.0
C3127 C 0.42292 0.05221 0.1935 0.0
C3128 C 0.41963 0.03416 0.26812 0.0
C3129 C 0.41562 0.03484 0.16675 0.0
C3130 C 0.40973 1.0171 0.19058 0.0
C3131 C 0.39948 0.99874 0.26648 0.0
C3132 C 0.39657 0.99866 0.31697 0.0
C3133 C 0.41033 1.01651 0.24157 0.0
C3134 C 0.40745 1.01597 0.34345 0.0
C3135 C 0.41928 0.0336 0.31918 0.0
H3136 H 0.99815 0.38974 0.30421 0.0
H3137 H 1.02415 0.40386 0.16142 0.0
H3138 H 0.05598 0.42612 0.19706 0.0
H3139 H 0.07671 0.43174 0.26758 0.0
H3140 H 0.05103 0.41303 0.40992 0.0
H3141 H 1.01879 0.40301 0.37632 0.0
C3142 C 1.01061 0.39849 0.28081 0.0
C3143 C 1.00904 0.39492 0.23046 0.0
C3144 C 1.02903 0.41004 0.30185 0.0
C3145 C 1.02518 0.40626 0.20035 0.0
C3146 C 0.04339 0.41879 0.22083 0.0
C3147 C 0.06424 0.42641 0.29178 0.0
C3148 C 0.06609 0.42251 0.34089 0.0
C3149 C 0.04568 0.4194 0.27154 0.0
C3150 C 0.04983 0.41575 0.37179 0.0
C3151 C 1.03138 0.40983 0.35243 0.0
H3152 H 0.63811 0.66395 0.24786 0.0
H3153 H 0.65259 0.65019 0.3881 0.0
H3154 H 0.66353 0.62955 0.34931 0.0
H3155 H 0.67815 0.62475 0.2762 0.0
H3156 H 0.66831 0.64325 0.13662 0.0
H3157 H 0.64582 0.65215 0.17393 0.0
C3158 C 0.64273 0.65564 0.27011 0.0
C3159 C 0.64495 0.65885 0.32061 0.0
C3160 C 0.65028 0.64502 0.24728 0.0
C3161 C 0.65101 0.64808 0.34908 0.0
C3162 C 0.65745 0.63647 0.32681 0.0
C3163 C 0.67032 0.62981 0.25359 0.0
C3164 C 0.6751 0.63374 0.20398 0.0
C3165 C 0.65858 0.63617 0.27589 0.0
C3166 C 0.66496 0.64036 0.17501 0.0
C3167 C 0.65228 0.64562 0.19647 0.0
loop_
_geom_bond_atom_site_label_1
_geom_bond_atom_site_label_2
_geom_bond_distance
_geom_bond_site_symmetry_2
_ccdc_geom_bond_type
Dy0 O3 2.307 . S
Dy0 O5 2.395 . S
Dy0 O6 2.379 . S
Dy0 O8 2.339 . S
Dy0 O10 2.298 . S
Dy0 O14 2.275 . S
Dy0 C22 2.738 . S
Dy1 O4 2.298 . S
Dy1 O7 2.275 . S
Dy1 O9 2.307 . S
Dy1 O11 2.395 . S
Dy1 O12 2.379 . S
Dy1 O15 2.339 . S
Dy1 C31 2.738 . S
C2 O14 1.254 . S
C2 O15 1.257 . S
O3 Dy0 2.307 . S
O3 C13 1.266 . S
O4 Dy1 2.298 . S
O4 C13 1.236 . S
O5 Dy0 2.395 . S
O5 C22 1.255 . S
O6 Dy0 2.379 . S
O6 C22 1.249 . S
O7 Dy1 2.275 . S
O7 C23 1.254 . S
O8 Dy0 2.339 . S
O8 C23 1.257 . S
O9 Dy1 2.307 . S
O9 C24 1.266 . S
O10 Dy0 2.298 . S
O10 C24 1.236 . S
O11 Dy1 2.395 . S
O11 C31 1.255 . S
O12 Dy1 2.379 . S
O12 C31 1.249 . S
C13 O3 1.266 . S
C13 O4 1.236 . S
O14 Dy0 2.275 . S
O14 C2 1.254 . S
O15 Dy1 2.339 . S
O15 C2 1.257 . S
C16 C19 1.344 . S
C16 C20 1.328 . S
C16 C22 1.516 . S
C17 C18 1.304 . S
C17 C21 1.323 . S
C18 C17 1.304 . S
C18 C19 1.371 . S
C18 H32 0.930 . S
C19 C16 1.344 . S
C19 C18 1.371 . S
C19 H33 0.931 . S
C20 C16 1.328 . S
C20 C21 1.433 . S
C20 H34 0.931 . S
C21 C17 1.323 . S
C21 C20 1.433 . S
C21 H35 0.933 . S
C22 Dy0 2.738 . S
C22 O5 1.255 . S
C22 O6 1.249 . S
C22 C16 1.516 . S
C23 O7 1.254 . S
C23 O8 1.257 . S
C24 O9 1.266 . S
C24 O10 1.236 . S
C25 C28 1.344 . S
C25 C29 1.328 . S
C25 C31 1.516 . S
C26 C27 1.304 . S
C26 C30 1.323 . S
C27 C26 1.304 . S
C27 C28 1.371 . S
C27 H36 0.930 . S
C28 C25 1.344 . S
C28 C27 1.371 . S
C28 H37 0.931 . S
C29 C25 1.328 . S
C29 C30 1.433 . S
C29 H38 0.931 . S
C30 C26 1.323 . S
C30 C29 1.433 . S
C30 H39 0.933 . S
C31 Dy1 2.738 . S
C31 O11 1.255 . S
C31 O12 1.249 . S
C31 C25 1.516 . S
H32 C18 0.930 . S
H33 C19 0.931 . S
H34 C20 0.931 . S
H35 C21 0.933 . S
H36 C27 0.930 . S
H37 C28 0.931 . S
H38 C29 0.931 . S
H39 C30 0.933 . S
Dy40 O43 2.307 . S
Dy40 O45 2.395 . S
Dy40 O46 2.379 . S
Dy40 O48 2.339 . S
Dy40 O50 2.298 . S
Dy40 O54 2.275 . S
Dy40 C62 2.738 . S
Dy41 O44 2.298 . S
Dy41 O47 2.275 . S
Dy41 O49 2.307 . S
Dy41 O51 2.395 . S
Dy41 O52 2.379 . S
Dy41 O55 2.339 . S
Dy41 C71 2.738 . S
C42 O54 1.254 . S
C42 O55 1.257 . S
O43 Dy40 2.307 . S
O43 C53 1.266 . S
O44 Dy41 2.298 . S
O44 C53 1.236 . S
O45 Dy40 2.395 . S
O45 C62 1.255 . S
O46 Dy40 2.379 . S
O46 C62 1.249 . S
O47 Dy41 2.275 . S
O47 C63 1.254 . S
O48 Dy40 2.339 . S
O48 C63 1.257 . S
O49 Dy41 2.307 . S
O49 C64 1.266 . S
O50 Dy40 2.298 . S
O50 C64 1.236 . S
O51 Dy41 2.395 . S
O51 C71 1.255 . S
O52 Dy41 2.379 . S
O52 C71 1.249 . S
C53 O43 1.266 . S
C53 O44 1.236 . S
O54 Dy40 2.275 . S
O54 C42 1.254 . S
O55 Dy41 2.339 . S
O55 C42 1.257 . S
C56 C59 1.344 . S
C56 C60 1.328 . S
C56 C62 1.516 . S
C57 C58 1.304 . S
C57 C61 1.323 1_565 S
C58 C57 1.304 . S
C58 C59 1.371 1_565 S
C58 H72 0.930 . S
C59 C56 1.344 . S
C59 C58 1.371 1_545 S
C59 H73 0.931 . S
C60 C56 1.328 . S
C60 C61 1.433 . S
C60 H74 0.931 . S
C61 C57 1.323 1_545 S
C61 C60 1.433 . S
C61 H75 0.933 . S
C62 Dy40 2.738 . S
C62 O45 1.255 . S
C62 O46 1.249 . S
C62 C56 1.516 . S
C63 O47 1.254 . S
C63 O48 1.257 . S
C64 O49 1.266 . S
C64 O50 1.236 . S
C65 C68 1.344 . S
C65 C69 1.328 . S
C65 C71 1.516 . S
C66 C67 1.304 . S
C66 C70 1.323 . S
C67 C66 1.304 . S
C67 C68 1.371 . S
C67 H76 0.930 . S
C68 C65 1.344 . S
C68 C67 1.371 . S
C68 H77 0.931 . S
C69 C65 1.328 . S
C69 C70 1.433 . S
C69 H78 0.931 . S
C70 C66 1.323 . S
C70 C69 1.433 . S
C70 H79 0.933 . S
C71 Dy41 2.738 . S
C71 O51 1.255 . S
C71 O52 1.249 . S
C71 C65 1.516 . S
H72 C58 0.930 . S
H73 C59 0.931 . S
H74 C60 0.931 . S
H75 C61 0.933 . S
H76 C67 0.930 . S
H77 C68 0.931 . S
H78 C69 0.931 . S
H79 C70 0.933 . S
Dy80 O83 2.307 . S
Dy80 O85 2.395 . S
Dy80 O86 2.379 . S
Dy80 O88 2.339 . S
Dy80 O90 2.298 . S
Dy80 O94 2.275 . S
Dy80 C102 2.738 . S
Dy81 O84 2.298 . S
Dy81 O87 2.275 . S
Dy81 O89 2.307 . S
Dy81 O91 2.395 . S
Dy81 O92 2.379 . S
Dy81 O95 2.339 . S
Dy81 C111 2.738 . S
C82 O94 1.254 . S
C82 O95 1.257 . S
O83 Dy80 2.307 . S
O83 C93 1.266 . S
O84 Dy81 2.298 . S
O84 C93 1.236 . S
O85 Dy80 2.395 . S
O85 C102 1.255 . S
O86 Dy80 2.379 . S
O86 C102 1.249 . S
O87 Dy81 2.275 . S
O87 C103 1.254 . S
O88 Dy80 2.339 . S
O88 C103 1.257 . S
O89 Dy81 2.307 . S
O89 C104 1.266 . S
O90 Dy80 2.298 . S
O90 C104 1.236 . S
O91 Dy81 2.395 . S
O91 C111 1.255 . S
O92 Dy81 2.379 . S
O92 C111 1.249 . S
C93 O83 1.266 . S
C93 O84 1.236 . S
O94 Dy80 2.275 . S
O94 C82 1.254 . S
O95 Dy81 2.339 . S
O95 C82 1.257 . S
C96 C99 1.344 . S
C96 C100 1.328 . S
C96 C102 1.516 . S
C97 C98 1.304 . S
C97 C101 1.323 1_455 S
C98 C97 1.304 . S
C98 C99 1.371 1_455 S
C98 H112 0.930 . S
C99 C96 1.344 . S
C99 C98 1.371 1_655 S
C99 H113 0.931 . S
C100 C96 1.328 . S
C100 C101 1.433 . S
C100 H114 0.931 . S
C101 C97 1.323 1_655 S
C101 C100 1.433 . S
C101 H115 0.933 . S
C102 Dy80 2.738 . S
C102 O85 1.255 . S
C102 O86 1.249 . S
C102 C96 1.516 . S
C103 O87 1.254 . S
C103 O88 1.257 . S
C104 O89 1.266 . S
C104 O90 1.236 . S
C105 C108 1.344 . S
C105 C109 1.328 . S
C105 C111 1.516 . S
C106 C107 1.304 . S
C106 C110 1.323 . S
C107 C106 1.304 . S
C107 C108 1.371 . S
C107 H116 0.930 . S
C108 C105 1.344 . S
C108 C107 1.371 . S
C108 H117 0.931 . S
C109 C105 1.328 . S
C109 C110 1.433 . S
C109 H118 0.931 . S
C110 C106 1.323 . S
C110 C109 1.433 . S
C110 H119 0.933 . S
C111 Dy81 2.738 . S
C111 O91 1.255 . S
C111 O92 1.249 . S
C111 C105 1.516 . S
H112 C98 0.930 . S
H113 C99 0.931 . S
H114 C100 0.931 . S
H115 C101 0.933 . S
H116 C107 0.930 . S
H117 C108 0.931 . S
H118 C109 0.931 . S
H119 C110 0.933 . S
Dy120 O123 2.307 . S
Dy120 O125 2.395 . S
Dy120 O126 2.379 . S
Dy120 O128 2.339 . S
Dy120 O130 2.298 . S
Dy120 O134 2.275 . S
Dy120 C142 2.738 . S
Dy121 O124 2.298 . S
Dy121 O127 2.275 . S
Dy121 O129 2.307 . S
Dy121 O131 2.395 . S
Dy121 O132 2.379 . S
Dy121 O135 2.339 . S
Dy121 C151 2.738 . S
C122 O134 1.254 . S
C122 O135 1.257 . S
O123 Dy120 2.307 . S
O123 C133 1.266 . S
O124 Dy121 2.298 . S
O124 C133 1.236 . S
O125 Dy120 2.395 . S
O125 C142 1.255 . S
O126 Dy120 2.379 . S
O126 C142 1.249 . S
O127 Dy121 2.275 . S
O127 C143 1.254 . S
O128 Dy120 2.339 . S
O128 C143 1.257 . S
O129 Dy121 2.307 . S
O129 C144 1.266 . S
O130 Dy120 2.298 . S
O130 C144 1.236 . S
O131 Dy121 2.395 . S
O131 C151 1.255 . S
O132 Dy121 2.379 . S
O132 C151 1.249 . S
C133 O123 1.266 . S
C133 O124 1.236 . S
O134 Dy120 2.275 . S
O134 C122 1.254 . S
O135 Dy121 2.339 . S
O135 C122 1.257 . S
C136 C139 1.344 . S
C136 C140 1.328 . S
C136 C142 1.516 . S
C137 C138 1.304 . S
C137 C141 1.323 . S
C138 C137 1.304 . S
C138 C139 1.371 . S
C138 H152 0.930 . S
C139 C136 1.344 . S
C139 C138 1.371 . S
C139 H153 0.931 . S
C140 C136 1.328 . S
C140 C141 1.433 . S
C140 H154 0.931 . S
C141 C137 1.323 . S
C141 C140 1.433 . S
C141 H155 0.933 . S
C142 Dy120 2.738 . S
C142 O125 1.255 . S
C142 O126 1.249 . S
C142 C136 1.516 . S
C143 O127 1.254 . S
C143 O128 1.257 . S
C144 O129 1.266 . S
C144 O130 1.236 . S
C145 C148 1.344 . S
C145 C149 1.328 . S
C145 C151 1.516 . S
C146 C147 1.304 . S
C146 C150 1.323 . S
C147 C146 1.304 . S
C147 C148 1.371 . S
C147 H156 0.930 . S
C148 C145 1.344 . S
C148 C147 1.371 . S
C148 H157 0.931 . S
C149 C145 1.328 . S
C149 C150 1.433 . S
C149 H158 0.931 . S
C150 C146 1.323 . S
C150 C149 1.433 . S
C150 H159 0.933 . S
C151 Dy121 2.738 . S
C151 O131 1.255 . S
C151 O132 1.249 . S
C151 C145 1.516 . S
H152 C138 0.930 . S
H153 C139 0.931 . S
H154 C140 0.931 . S
H155 C141 0.933 . S
H156 C147 0.930 . S
H157 C148 0.931 . S
H158 C149 0.931 . S
H159 C150 0.933 . S
Dy160 O163 2.307 . S
Dy160 O165 2.395 . S
Dy160 O166 2.379 . S
Dy160 O168 2.339 . S
Dy160 O170 2.298 . S
Dy160 O174 2.275 . S
Dy160 C182 2.738 . S
Dy161 O164 2.298 . S
Dy161 O167 2.275 . S
Dy161 O169 2.307 . S
Dy161 O171 2.395 . S
Dy161 O172 2.379 . S
Dy161 O175 2.339 . S
Dy161 C191 2.738 . S
C162 O174 1.254 . S
C162 O175 1.257 . S
O163 Dy160 2.307 . S
O163 C173 1.266 . S
O164 Dy161 2.298 . S
O164 C173 1.236 . S
O165 Dy160 2.395 . S
O165 C182 1.255 . S
O166 Dy160 2.379 . S
O166 C182 1.249 . S
O167 Dy161 2.275 . S
O167 C183 1.254 . S
O168 Dy160 2.339 . S
O168 C183 1.257 . S
O169 Dy161 2.307 . S
O169 C184 1.266 . S
O170 Dy160 2.298 . S
O170 C184 1.236 . S
O171 Dy161 2.395 . S
O171 C191 1.255 . S
O172 Dy161 2.379 . S
O172 C191 1.249 . S
C173 O163 1.266 . S
C173 O164 1.236 . S
O174 Dy160 2.275 . S
O174 C162 1.254 . S
O175 Dy161 2.339 . S
O175 C162 1.257 . S
C176 C179 1.344 . S
C176 C180 1.328 . S
C176 C182 1.516 . S
C177 C178 1.304 . S
C177 C181 1.323 1_545 S
C178 C177 1.304 . S
C178 C179 1.371 1_545 S
C178 H192 0.930 . S
C179 C176 1.344 . S
C179 C178 1.371 1_565 S
C179 H193 0.931 . S
C180 C176 1.328 . S
C180 C181 1.433 . S
C180 H194 0.931 . S
C181 C177 1.323 1_565 S
C181 C180 1.433 . S
C181 H195 0.933 . S
C182 Dy160 2.738 . S
C182 O165 1.255 . S
C182 O166 1.249 . S
C182 C176 1.516 . S
C183 O167 1.254 . S
C183 O168 1.257 . S
C184 O169 1.266 . S
C184 O170 1.236 . S
C185 C188 1.344 . S
C185 C189 1.328 . S
C185 C191 1.516 . S
C186 C187 1.304 . S
C186 C190 1.323 . S
C187 C186 1.304 . S
C187 C188 1.371 . S
C187 H196 0.930 . S
C188 C185 1.344 . S
C188 C187 1.371 . S
C188 H197 0.931 . S
C189 C185 1.328 . S
C189 C190 1.433 . S
C189 H198 0.931 . S
C190 C186 1.323 . S
C190 C189 1.433 . S
C190 H199 0.933 . S
C191 Dy161 2.738 . S
C191 O171 1.255 . S
C191 O172 1.249 . S
C191 C185 1.516 . S
H192 C178 0.930 . S
H193 C179 0.931 . S
H194 C180 0.931 . S
H195 C181 0.933 . S
H196 C187 0.930 . S
H197 C188 0.931 . S
H198 C189 0.931 . S
H199 C190 0.933 . S
Dy200 O203 2.307 . S
Dy200 O205 2.395 . S
Dy200 O206 2.379 . S
Dy200 O208 2.339 . S
Dy200 O210 2.298 . S
Dy200 O214 2.275 . S
Dy200 C222 2.738 . S
Dy201 O204 2.298 . S
Dy201 O207 2.275 . S
Dy201 O209 2.307 . S
Dy201 O211 2.395 . S
Dy201 O212 2.379 . S
Dy201 O215 2.339 . S
Dy201 C231 2.738 . S
C202 O214 1.254 . S
C202 O215 1.257 . S
O203 Dy200 2.307 . S
O203 C213 1.266 . S
O204 Dy201 2.298 . S
O204 C213 1.236 . S
O205 Dy200 2.395 . S
O205 C222 1.255 . S
O206 Dy200 2.379 . S
O206 C222 1.249 . S
O207 Dy201 2.275 . S
O207 C223 1.254 . S
O208 Dy200 2.339 . S
O208 C223 1.257 . S
O209 Dy201 2.307 . S
O209 C224 1.266 . S
O210 Dy200 2.298 . S
O210 C224 1.236 . S
O211 Dy201 2.395 . S
O211 C231 1.255 . S
O212 Dy201 2.379 . S
O212 C231 1.249 . S
C213 O203 1.266 . S
C213 O204 1.236 . S
O214 Dy200 2.275 . S
O214 C202 1.254 . S
O215 Dy201 2.339 . S
O215 C202 1.257 . S
C216 C219 1.344 . S
C216 C220 1.328 . S
C216 C222 1.516 . S
C217 C218 1.304 . S
C217 C221 1.323 1_655 S
C218 C217 1.304 . S
C218 C219 1.371 1_655 S
C218 H232 0.930 . S
C219 C216 1.344 . S
C219 C218 1.371 1_455 S
C219 H233 0.931 . S
C220 C216 1.328 . S
C220 C221 1.433 . S
C220 H234 0.931 . S
C221 C217 1.323 1_455 S
C221 C220 1.433 . S
C221 H235 0.933 . S
C222 Dy200 2.738 . S
C222 O205 1.255 . S
C222 O206 1.249 . S
C222 C216 1.516 . S
C223 O207 1.254 . S
C223 O208 1.257 . S
C224 O209 1.266 . S
C224 O210 1.236 . S
C225 C228 1.344 . S
C225 C229 1.328 . S
C225 C231 1.516 . S
C226 C227 1.304 . S
C226 C230 1.323 . S
C227 C226 1.304 . S
C227 C228 1.371 . S
C227 H236 0.930 . S
C228 C225 1.344 . S
C228 C227 1.371 . S
C228 H237 0.931 . S
C229 C225 1.328 . S
C229 C230 1.433 . S
C229 H238 0.931 . S
C230 C226 1.323 . S
C230 C229 1.433 . S
C230 H239 0.933 . S
C231 Dy201 2.738 . S
C231 O211 1.255 . S
C231 O212 1.249 . S
C231 C225 1.516 . S
H232 C218 0.930 . S
H233 C219 0.931 . S
H234 C220 0.931 . S
H235 C221 0.933 . S
H236 C227 0.930 . S
H237 C228 0.931 . S
H238 C229 0.931 . S
H239 C230 0.933 . S
Dy240 O243 2.307 . S
Dy240 O245 2.395 . S
Dy240 O246 2.379 . S
Dy240 O248 2.339 . S
Dy240 O250 2.298 . S
Dy240 O254 2.275 . S
Dy240 C262 2.738 . S
Dy241 O244 2.298 . S
Dy241 O247 2.275 . S
Dy241 O249 2.307 . S
Dy241 O251 2.395 . S
Dy241 O252 2.379 . S
Dy241 O255 2.339 . S
Dy241 C271 2.738 . S
C242 O254 1.254 . S
C242 O255 1.257 . S
O243 Dy240 2.307 . S
O243 C253 1.266 . S
O244 Dy241 2.298 . S
O244 C253 1.236 . S
O245 Dy240 2.395 . S
O245 C262 1.255 . S
O246 Dy240 2.379 . S
O246 C262 1.249 . S
O247 Dy241 2.275 . S
O247 C263 1.254 . S
O248 Dy240 2.339 . S
O248 C263 1.257 . S
O249 Dy241 2.307 . S
O249 C264 1.266 . S
O250 Dy240 2.298 . S
O250 C264 1.236 . S
O251 Dy241 2.395 . S
O251 C271 1.255 . S
O252 Dy241 2.379 . S
O252 C271 1.249 . S
C253 O243 1.266 . S
C253 O244 1.236 . S
O254 Dy240 2.275 . S
O254 C242 1.254 . S
O255 Dy241 2.339 . S
O255 C242 1.257 . S
C256 C259 1.344 . S
C256 C260 1.328 . S
C256 C262 1.516 . S
C257 C258 1.304 . S
C257 C261 1.323 . S
C258 C257 1.304 . S
C258 C259 1.371 . S
C258 H272 0.930 . S
C259 C256 1.344 . S
C259 C258 1.371 . S
C259 H273 0.931 . S
C260 C256 1.328 . S
C260 C261 1.433 . S
C260 H274 0.931 . S
C261 C257 1.323 . S
C261 C260 1.433 . S
C261 H275 0.933 . S
C262 Dy240 2.738 . S
C262 O245 1.255 . S
C262 O246 1.249 . S
C262 C256 1.516 . S
C263 O247 1.254 . S
C263 O248 1.257 . S
C264 O249 1.266 . S
C264 O250 1.236 . S
C265 C268 1.344 . S
C265 C269 1.328 . S
C265 C271 1.516 . S
C266 C267 1.304 . S
C266 C270 1.323 . S
C267 C266 1.304 . S
C267 C268 1.371 . S
C267 H276 0.930 . S
C268 C265 1.344 . S
C268 C267 1.371 . S
C268 H277 0.931 . S
C269 C265 1.328 . S
C269 C270 1.433 . S
C269 H278 0.931 . S
C270 C266 1.323 . S
C270 C269 1.433 . S
C270 H279 0.933 . S
C271 Dy241 2.738 . S
C271 O251 1.255 . S
C271 O252 1.249 . S
C271 C265 1.516 . S
H272 C258 0.930 . S
H273 C259 0.931 . S
H274 C260 0.931 . S
H275 C261 0.933 . S
H276 C267 0.930 . S
H277 C268 0.931 . S
H278 C269 0.931 . S
H279 C270 0.933 . S
Dy280 O283 2.307 . S
Dy280 O285 2.395 . S
Dy280 O286 2.379 . S
Dy280 O288 2.339 . S
Dy280 O290 2.298 . S
Dy280 O294 2.275 . S
Dy280 C302 2.738 . S
Dy281 O284 2.298 . S
Dy281 O287 2.275 . S
Dy281 O289 2.307 . S
Dy281 O291 2.395 . S
Dy281 O292 2.379 . S
Dy281 O295 2.339 . S
Dy281 C311 2.738 . S
C282 O294 1.254 . S
C282 O295 1.257 . S
O283 Dy280 2.307 . S
O283 C293 1.266 . S
O284 Dy281 2.298 . S
O284 C293 1.236 . S
O285 Dy280 2.395 . S
O285 C302 1.255 . S
O286 Dy280 2.379 . S
O286 C302 1.249 . S
O287 Dy281 2.275 . S
O287 C303 1.254 . S
O288 Dy280 2.339 . S
O288 C303 1.257 . S
O289 Dy281 2.307 . S
O289 C304 1.266 . S
O290 Dy280 2.298 . S
O290 C304 1.236 . S
O291 Dy281 2.395 . S
O291 C311 1.255 . S
O292 Dy281 2.379 . S
O292 C311 1.249 . S
C293 O283 1.266 . S
C293 O284 1.236 . S
O294 Dy280 2.275 . S
O294 C282 1.254 . S
O295 Dy281 2.339 . S
O295 C282 1.257 . S
C296 C299 1.344 . S
C296 C300 1.328 . S
C296 C302 1.516 . S
C297 C298 1.304 . S
C297 C301 1.323 . S
C298 C297 1.304 . S
C298 C299 1.371 . S
C298 H312 0.930 . S
C299 C296 1.344 . S
C299 C298 1.371 . S
C299 H313 0.931 . S
C300 C296 1.328 . S
C300 C301 1.433 . S
C300 H314 0.931 . S
C301 C297 1.323 . S
C301 C300 1.433 . S
C301 H315 0.933 . S
C302 Dy280 2.738 . S
C302 O285 1.255 . S
C302 O286 1.249 . S
C302 C296 1.516 . S
C303 O287 1.254 . S
C303 O288 1.257 . S
C304 O289 1.266 . S
C304 O290 1.236 . S
C305 C308 1.344 . S
C305 C309 1.328 . S
C305 C311 1.516 . S
C306 C307 1.304 . S
C306 C310 1.323 1_545 S
C307 C306 1.304 . S
C307 C308 1.371 1_545 S
C307 H316 0.930 . S
C308 C305 1.344 . S
C308 C307 1.371 1_565 S
C308 H317 0.931 . S
C309 C305 1.328 . S
C309 C310 1.433 . S
C309 H318 0.931 . S
C310 C306 1.323 1_565 S
C310 C309 1.433 . S
C310 H319 0.933 . S
C311 Dy281 2.738 . S
C311 O291 1.255 . S
C311 O292 1.249 . S
C311 C305 1.516 . S
H312 C298 0.930 . S
H313 C299 0.931 . S
H314 C300 0.931 . S
H315 C301 0.933 . S
H316 C307 0.930 . S
H317 C308 0.931 . S
H318 C309 0.931 . S
H319 C310 0.933 . S
Dy320 O323 2.307 . S
Dy320 O325 2.395 . S
Dy320 O326 2.379 . S
Dy320 O328 2.339 . S
Dy320 O330 2.298 . S
Dy320 O334 2.275 . S
Dy320 C342 2.738 . S
Dy321 O324 2.298 . S
Dy321 O327 2.275 . S
Dy321 O329 2.307 . S
Dy321 O331 2.395 . S
Dy321 O332 2.379 . S
Dy321 O335 2.339 . S
Dy321 C351 2.738 . S
C322 O334 1.254 . S
C322 O335 1.257 . S
O323 Dy320 2.307 . S
O323 C333 1.266 . S
O324 Dy321 2.298 . S
O324 C333 1.236 . S
O325 Dy320 2.395 . S
O325 C342 1.255 . S
O326 Dy320 2.379 . S
O326 C342 1.249 . S
O327 Dy321 2.275 . S
O327 C343 1.254 . S
O328 Dy320 2.339 . S
O328 C343 1.257 . S
O329 Dy321 2.307 . S
O329 C344 1.266 . S
O330 Dy320 2.298 . S
O330 C344 1.236 . S
O331 Dy321 2.395 . S
O331 C351 1.255 . S
O332 Dy321 2.379 . S
O332 C351 1.249 . S
C333 O323 1.266 . S
C333 O324 1.236 . S
O334 Dy320 2.275 . S
O334 C322 1.254 . S
O335 Dy321 2.339 . S
O335 C322 1.257 . S
C336 C339 1.344 . S
C336 C340 1.328 . S
C336 C342 1.516 . S
C337 C338 1.304 . S
C337 C341 1.323 . S
C338 C337 1.304 . S
C338 C339 1.371 . S
C338 H352 0.930 . S
C339 C336 1.344 . S
C339 C338 1.371 . S
C339 H353 0.931 . S
C340 C336 1.328 . S
C340 C341 1.433 . S
C340 H354 0.931 . S
C341 C337 1.323 . S
C341 C340 1.433 . S
C341 H355 0.933 . S
C342 Dy320 2.738 . S
C342 O325 1.255 . S
C342 O326 1.249 . S
C342 C336 1.516 . S
C343 O327 1.254 . S
C343 O328 1.257 . S
C344 O329 1.266 . S
C344 O330 1.236 . S
C345 C348 1.344 . S
C345 C349 1.328 . S
C345 C351 1.516 . S
C346 C347 1.304 . S
C346 C350 1.323 1_655 S
C347 C346 1.304 . S
C347 C348 1.371 1_655 S
C347 H356 0.930 . S
C348 C345 1.344 . S
C348 C347 1.371 1_455 S
C348 H357 0.931 . S
C349 C345 1.328 . S
C349 C350 1.433 . S
C349 H358 0.931 . S
C350 C346 1.323 1_455 S
C350 C349 1.433 . S
C350 H359 0.933 . S
C351 Dy321 2.738 . S
C351 O331 1.255 . S
C351 O332 1.249 . S
C351 C345 1.516 . S
H352 C338 0.930 . S
H353 C339 0.931 . S
H354 C340 0.931 . S
H355 C341 0.933 . S
H356 C347 0.930 . S
H357 C348 0.931 . S
H358 C349 0.931 . S
H359 C350 0.933 . S
Dy360 O363 2.307 . S
Dy360 O365 2.395 . S
Dy360 O366 2.379 . S
Dy360 O368 2.339 . S
Dy360 O370 2.298 . S
Dy360 O374 2.275 . S
Dy360 C382 2.738 . S
Dy361 O364 2.298 . S
Dy361 O367 2.275 . S
Dy361 O369 2.307 . S
Dy361 O371 2.395 . S
Dy361 O372 2.379 . S
Dy361 O375 2.339 . S
Dy361 C391 2.738 . S
C362 O374 1.254 . S
C362 O375 1.257 . S
O363 Dy360 2.307 . S
O363 C373 1.266 . S
O364 Dy361 2.298 . S
O364 C373 1.236 . S
O365 Dy360 2.395 . S
O365 C382 1.255 . S
O366 Dy360 2.379 . S
O366 C382 1.249 . S
O367 Dy361 2.275 . S
O367 C383 1.254 . S
O368 Dy360 2.339 . S
O368 C383 1.257 . S
O369 Dy361 2.307 . S
O369 C384 1.266 . S
O370 Dy360 2.298 . S
O370 C384 1.236 . S
O371 Dy361 2.395 . S
O371 C391 1.255 . S
O372 Dy361 2.379 . S
O372 C391 1.249 . S
C373 O363 1.266 . S
C373 O364 1.236 . S
O374 Dy360 2.275 . S
O374 C362 1.254 . S
O375 Dy361 2.339 . S
O375 C362 1.257 . S
C376 C379 1.344 . S
C376 C380 1.328 . S
C376 C382 1.516 . S
C377 C378 1.304 . S
C377 C381 1.323 . S
C378 C377 1.304 . S
C378 C379 1.371 . S
C378 H392 0.930 . S
C379 C376 1.344 . S
C379 C378 1.371 . S
C379 H393 0.931 . S
C380 C376 1.328 . S
C380 C381 1.433 . S
C380 H394 0.931 . S
C381 C377 1.323 . S
C381 C380 1.433 . S
C381 H395 0.933 . S
C382 Dy360 2.738 . S
C382 O365 1.255 . S
C382 O366 1.249 . S
C382 C376 1.516 . S
C383 O367 1.254 . S
C383 O368 1.257 . S
C384 O369 1.266 . S
C384 O370 1.236 . S
C385 C388 1.344 . S
C385 C389 1.328 . S
C385 C391 1.516 . S
C386 C387 1.304 . S
C386 C390 1.323 . S
C387 C386 1.304 . S
C387 C388 1.371 . S
C387 H396 0.930 . S
C388 C385 1.344 . S
C388 C387 1.371 . S
C388 H397 0.931 . S
C389 C385 1.328 . S
C389 C390 1.433 . S
C389 H398 0.931 . S
C390 C386 1.323 . S
C390 C389 1.433 . S
C390 H399 0.933 . S
C391 Dy361 2.738 . S
C391 O371 1.255 . S
C391 O372 1.249 . S
C391 C385 1.516 . S
H392 C378 0.930 . S
H393 C379 0.931 . S
H394 C380 0.931 . S
H395 C381 0.933 . S
H396 C387 0.930 . S
H397 C388 0.931 . S
H398 C389 0.931 . S
H399 C390 0.933 . S
Dy400 O403 2.307 . S
Dy400 O405 2.395 . S
Dy400 O406 2.379 . S
Dy400 O408 2.339 . S
Dy400 O410 2.298 . S
Dy400 O414 2.275 . S
Dy400 C422 2.738 . S
Dy401 O404 2.298 . S
Dy401 O407 2.275 . S
Dy401 O409 2.307 . S
Dy401 O411 2.395 . S
Dy401 O412 2.379 . S
Dy401 O415 2.339 . S
Dy401 C431 2.738 . S
C402 O414 1.254 . S
C402 O415 1.257 . S
O403 Dy400 2.307 . S
O403 C413 1.266 . S
O404 Dy401 2.298 . S
O404 C413 1.236 . S
O405 Dy400 2.395 . S
O405 C422 1.255 . S
O406 Dy400 2.379 . S
O406 C422 1.249 . S
O407 Dy401 2.275 . S
O407 C423 1.254 . S
O408 Dy400 2.339 . S
O408 C423 1.257 . S
O409 Dy401 2.307 . S
O409 C424 1.266 . S
O410 Dy400 2.298 . S
O410 C424 1.236 . S
O411 Dy401 2.395 . S
O411 C431 1.255 . S
O412 Dy401 2.379 . S
O412 C431 1.249 . S
C413 O403 1.266 . S
C413 O404 1.236 . S
O414 Dy400 2.275 . S
O414 C402 1.254 . S
O415 Dy401 2.339 . S
O415 C402 1.257 . S
C416 C419 1.344 . S
C416 C420 1.328 . S
C416 C422 1.516 . S
C417 C418 1.304 . S
C417 C421 1.323 . S
C418 C417 1.304 . S
C418 C419 1.371 . S
C418 H432 0.930 . S
C419 C416 1.344 . S
C419 C418 1.371 . S
C419 H433 0.931 . S
C420 C416 1.328 . S
C420 C421 1.433 . S
C420 H434 0.931 . S
C421 C417 1.323 . S
C421 C420 1.433 . S
C421 H435 0.933 . S
C422 Dy400 2.738 . S
C422 O405 1.255 . S
C422 O406 1.249 . S
C422 C416 1.516 . S
C423 O407 1.254 . S
C423 O408 1.257 . S
C424 O409 1.266 . S
C424 O410 1.236 . S
C425 C428 1.344 . S
C425 C429 1.328 . S
C425 C431 1.516 . S
C426 C427 1.304 . S
C426 C430 1.323 1_565 S
C427 C426 1.304 . S
C427 C428 1.371 1_565 S
C427 H436 0.930 . S
C428 C425 1.344 . S
C428 C427 1.371 1_545 S
C428 H437 0.931 . S
C429 C425 1.328 . S
C429 C430 1.433 . S
C429 H438 0.931 . S
C430 C426 1.323 1_545 S
C430 C429 1.433 . S
C430 H439 0.933 . S
C431 Dy401 2.738 . S
C431 O411 1.255 . S
C431 O412 1.249 . S
C431 C425 1.516 . S
H432 C418 0.930 . S
H433 C419 0.931 . S
H434 C420 0.931 . S
H435 C421 0.933 . S
H436 C427 0.930 . S
H437 C428 0.931 . S
H438 C429 0.931 . S
H439 C430 0.933 . S
Dy440 O443 2.307 . S
Dy440 O445 2.395 . S
Dy440 O446 2.379 . S
Dy440 O448 2.339 . S
Dy440 O450 2.298 . S
Dy440 O454 2.275 . S
Dy440 C462 2.738 . S
Dy441 O444 2.298 . S
Dy441 O447 2.275 . S
Dy441 O449 2.307 . S
Dy441 O451 2.395 . S
Dy441 O452 2.379 . S
Dy441 O455 2.339 . S
Dy441 C471 2.738 . S
C442 O454 1.254 . S
C442 O455 1.257 . S
O443 Dy440 2.307 . S
O443 C453 1.266 . S
O444 Dy441 2.298 . S
O444 C453 1.236 . S
O445 Dy440 2.395 . S
O445 C462 1.255 . S
O446 Dy440 2.379 . S
O446 C462 1.249 . S
O447 Dy441 2.275 . S
O447 C463 1.254 . S
O448 Dy440 2.339 . S
O448 C463 1.257 . S
O449 Dy441 2.307 . S
O449 C464 1.266 . S
O450 Dy440 2.298 . S
O450 C464 1.236 . S
O451 Dy441 2.395 . S
O451 C471 1.255 . S
O452 Dy441 2.379 . S
O452 C471 1.249 . S
C453 O443 1.266 . S
C453 O444 1.236 . S
O454 Dy440 2.275 . S
O454 C442 1.254 . S
O455 Dy441 2.339 . S
O455 C442 1.257 . S
C456 C459 1.344 . S
C456 C460 1.328 . S
C456 C462 1.516 . S
C457 C458 1.304 . S
C457 C461 1.323 . S
C458 C457 1.304 . S
C458 C459 1.371 . S
C458 H472 0.930 . S
C459 C456 1.344 . S
C459 C458 1.371 . S
C459 H473 0.931 . S
C460 C456 1.328 . S
C460 C461 1.433 . S
C460 H474 0.931 . S
C461 C457 1.323 . S
C461 C460 1.433 . S
C461 H475 0.933 . S
C462 Dy440 2.738 . S
C462 O445 1.255 . S
C462 O446 1.249 . S
C462 C456 1.516 . S
C463 O447 1.254 . S
C463 O448 1.257 . S
C464 O449 1.266 . S
C464 O450 1.236 . S
C465 C468 1.344 . S
C465 C469 1.328 . S
C465 C471 1.516 . S
C466 C467 1.304 . S
C466 C470 1.323 1_455 S
C467 C466 1.304 . S
C467 C468 1.371 1_455 S
C467 H476 0.930 . S
C468 C465 1.344 . S
C468 C467 1.371 1_655 S
C468 H477 0.931 . S
C469 C465 1.328 . S
C469 C470 1.433 . S
C469 H478 0.931 . S
C470 C466 1.323 1_655 S
C470 C469 1.433 . S
C470 H479 0.933 . S
C471 Dy441 2.738 . S
C471 O451 1.255 . S
C471 O452 1.249 . S
C471 C465 1.516 . S
H472 C458 0.930 . S
H473 C459 0.931 . S
H474 C460 0.931 . S
H475 C461 0.933 . S
H476 C467 0.930 . S
H477 C468 0.931 . S
H478 C469 0.931 . S
H479 C470 0.933 . S
Dy480 O483 2.307 . S
Dy480 O485 2.395 . S
Dy480 O486 2.379 . S
Dy480 O488 2.339 . S
Dy480 O490 2.298 . S
Dy480 O494 2.275 . S
Dy480 C502 2.738 . S
Dy481 O484 2.298 . S
Dy481 O487 2.275 . S
Dy481 O489 2.307 . S
Dy481 O491 2.395 . S
Dy481 O492 2.379 . S
Dy481 O495 2.339 . S
Dy481 C511 2.738 . S
C482 O494 1.254 . S
C482 O495 1.257 . S
O483 Dy480 2.307 . S
O483 C493 1.266 . S
O484 Dy481 2.298 . S
O484 C493 1.236 . S
O485 Dy480 2.395 . S
O485 C502 1.255 . S
O486 Dy480 2.379 . S
O486 C502 1.249 . S
O487 Dy481 2.275 . S
O487 C503 1.254 . S
O488 Dy480 2.339 . S
O488 C503 1.257 . S
O489 Dy481 2.307 . S
O489 C504 1.266 . S
O490 Dy480 2.298 . S
O490 C504 1.236 . S
O491 Dy481 2.395 . S
O491 C511 1.255 . S
O492 Dy481 2.379 . S
O492 C511 1.249 . S
C493 O483 1.266 . S
C493 O484 1.236 . S
O494 Dy480 2.275 . S
O494 C482 1.254 . S
O495 Dy481 2.339 . S
O495 C482 1.257 . S
C496 C499 1.344 . S
C496 C500 1.328 . S
C496 C502 1.516 . S
C497 C498 1.304 . S
C497 C501 1.323 . S
C498 C497 1.304 . S
C498 C499 1.371 . S
C498 H512 0.930 . S
C499 C496 1.344 . S
C499 C498 1.371 . S
C499 H513 0.931 . S
C500 C496 1.328 . S
C500 C501 1.433 . S
C500 H514 0.931 . S
C501 C497 1.323 . S
C501 C500 1.433 . S
C501 H515 0.933 . S
C502 Dy480 2.738 . S
C502 O485 1.255 . S
C502 O486 1.249 . S
C502 C496 1.516 . S
C503 O487 1.254 . S
C503 O488 1.257 . S
C504 O489 1.266 . S
C504 O490 1.236 . S
C505 C508 1.344 . S
C505 C509 1.328 . S
C505 C511 1.516 . S
C506 C507 1.304 . S
C506 C510 1.323 . S
C507 C506 1.304 . S
C507 C508 1.371 . S
C507 H516 0.930 . S
C508 C505 1.344 . S
C508 C507 1.371 . S
C508 H517 0.931 . S
C509 C505 1.328 . S
C509 C510 1.433 . S
C509 H518 0.931 . S
C510 C506 1.323 . S
C510 C509 1.433 . S
C510 H519 0.933 . S
C511 Dy481 2.738 . S
C511 O491 1.255 . S
C511 O492 1.249 . S
C511 C505 1.516 . S
H512 C498 0.930 . S
H513 C499 0.931 . S
H514 C500 0.931 . S
H515 C501 0.933 . S
H516 C507 0.930 . S
H517 C508 0.931 . S
H518 C509 0.931 . S
H519 C510 0.933 . S
Dy520 O523 2.307 . S
Dy520 O525 2.395 . S
Dy520 O526 2.379 . S
Dy520 O528 2.339 . S
Dy520 O530 2.298 . S
Dy520 O534 2.275 . S
Dy520 C542 2.738 . S
Dy521 O524 2.298 . S
Dy521 O527 2.275 . S
Dy521 O529 2.307 . S
Dy521 O531 2.395 . S
Dy521 O532 2.379 . S
Dy521 O535 2.339 . S
Dy521 C551 2.738 . S
C522 O534 1.254 . S
C522 O535 1.257 . S
O523 Dy520 2.307 . S
O523 C533 1.266 . S
O524 Dy521 2.298 . S
O524 C533 1.236 . S
O525 Dy520 2.395 . S
O525 C542 1.255 . S
O526 Dy520 2.379 . S
O526 C542 1.249 . S
O527 Dy521 2.275 . S
O527 C543 1.254 . S
O528 Dy520 2.339 . S
O528 C543 1.257 . S
O529 Dy521 2.307 . S
O529 C544 1.266 . S
O530 Dy520 2.298 . S
O530 C544 1.236 . S
O531 Dy521 2.395 . S
O531 C551 1.255 . S
O532 Dy521 2.379 . S
O532 C551 1.249 . S
C533 O523 1.266 . S
C533 O524 1.236 . S
O534 Dy520 2.275 . S
O534 C522 1.254 . S
O535 Dy521 2.339 . S
O535 C522 1.257 . S
C536 C539 1.344 . S
C536 C540 1.328 . S
C536 C542 1.516 . S
C537 C538 1.304 . S
C537 C541 1.323 . S
C538 C537 1.304 . S
C538 C539 1.371 . S
C538 H552 0.930 . S
C539 C536 1.344 . S
C539 C538 1.371 . S
C539 H553 0.931 . S
C540 C536 1.328 . S
C540 C541 1.433 . S
C540 H554 0.931 . S
C541 C537 1.323 . S
C541 C540 1.433 . S
C541 H555 0.933 . S
C542 Dy520 2.738 . S
C542 O525 1.255 . S
C542 O526 1.249 . S
C542 C536 1.516 . S
C543 O527 1.254 . S
C543 O528 1.257 . S
C544 O529 1.266 . S
C544 O530 1.236 . S
C545 C548 1.344 . S
C545 C549 1.328 . S
C545 C551 1.516 . S
C546 C547 1.304 . S
C546 C550 1.323 . S
C547 C546 1.304 . S
C547 C548 1.371 . S
C547 H556 0.930 . S
C548 C545 1.344 . S
C548 C547 1.371 . S
C548 H557 0.931 . S
C549 C545 1.328 . S
C549 C550 1.433 . S
C549 H558 0.931 . S
C550 C546 1.323 . S
C550 C549 1.433 . S
C550 H559 0.933 . S
C551 Dy521 2.738 . S
C551 O531 1.255 . S
C551 O532 1.249 . S
C551 C545 1.516 . S
H552 C538 0.930 . S
H553 C539 0.931 . S
H554 C540 0.931 . S
H555 C541 0.933 . S
H556 C547 0.930 . S
H557 C548 0.931 . S
H558 C549 0.931 . S
H559 C550 0.933 . S
Dy560 O563 2.307 . S
Dy560 O565 2.395 . S
Dy560 O566 2.379 . S
Dy560 O568 2.339 . S
Dy560 O570 2.298 . S
Dy560 O574 2.275 . S
Dy560 C582 2.738 . S
Dy561 O564 2.298 . S
Dy561 O567 2.275 . S
Dy561 O569 2.307 . S
Dy561 O571 2.395 . S
Dy561 O572 2.379 . S
Dy561 O575 2.339 . S
Dy561 C591 2.738 . S
C562 O574 1.254 . S
C562 O575 1.257 . S
O563 Dy560 2.307 . S
O563 C573 1.266 . S
O564 Dy561 2.298 . S
O564 C573 1.236 . S
O565 Dy560 2.395 . S
O565 C582 1.255 . S
O566 Dy560 2.379 . S
O566 C582 1.249 . S
O567 Dy561 2.275 . S
O567 C583 1.254 . S
O568 Dy560 2.339 . S
O568 C583 1.257 . S
O569 Dy561 2.307 . S
O569 C584 1.266 . S
O570 Dy560 2.298 . S
O570 C584 1.236 . S
O571 Dy561 2.395 . S
O571 C591 1.255 . S
O572 Dy561 2.379 . S
O572 C591 1.249 . S
C573 O563 1.266 . S
C573 O564 1.236 . S
O574 Dy560 2.275 . S
O574 C562 1.254 . S
O575 Dy561 2.339 . S
O575 C562 1.257 . S
C576 C579 1.344 . S
C576 C580 1.328 . S
C576 C582 1.516 . S
C577 C578 1.304 . S
C577 C581 1.323 . S
C578 C577 1.304 . S
C578 C579 1.371 . S
C578 H592 0.930 . S
C579 C576 1.344 . S
C579 C578 1.371 . S
C579 H593 0.931 . S
C580 C576 1.328 . S
C580 C581 1.433 . S
C580 H594 0.931 . S
C581 C577 1.323 . S
C581 C580 1.433 . S
C581 H595 0.933 . S
C582 Dy560 2.738 . S
C582 O565 1.255 . S
C582 O566 1.249 . S
C582 C576 1.516 . S
C583 O567 1.254 . S
C583 O568 1.257 . S
C584 O569 1.266 . S
C584 O570 1.236 . S
C585 C588 1.344 . S
C585 C589 1.328 . S
C585 C591 1.516 . S
C586 C587 1.304 . S
C586 C590 1.323 . S
C587 C586 1.304 . S
C587 C588 1.371 . S
C587 H596 0.930 . S
C588 C585 1.344 . S
C588 C587 1.371 . S
C588 H597 0.931 . S
C589 C585 1.328 . S
C589 C590 1.433 . S
C589 H598 0.931 . S
C590 C586 1.323 . S
C590 C589 1.433 . S
C590 H599 0.933 . S
C591 Dy561 2.738 . S
C591 O571 1.255 . S
C591 O572 1.249 . S
C591 C585 1.516 . S
H592 C578 0.930 . S
H593 C579 0.931 . S
H594 C580 0.931 . S
H595 C581 0.933 . S
H596 C587 0.930 . S
H597 C588 0.931 . S
H598 C589 0.931 . S
H599 C590 0.933 . S
Dy600 O603 2.307 . S
Dy600 O605 2.395 . S
Dy600 O606 2.379 . S
Dy600 O608 2.339 . S
Dy600 O610 2.298 . S
Dy600 O614 2.275 . S
Dy600 C622 2.738 . S
Dy601 O604 2.298 . S
Dy601 O607 2.275 . S
Dy601 O609 2.307 . S
Dy601 O611 2.395 . S
Dy601 O612 2.379 . S
Dy601 O615 2.339 . S
Dy601 C631 2.738 . S
C602 O614 1.254 . S
C602 O615 1.257 . S
O603 Dy600 2.307 . S
O603 C613 1.266 . S
O604 Dy601 2.298 . S
O604 C613 1.236 . S
O605 Dy600 2.395 . S
O605 C622 1.255 . S
O606 Dy600 2.379 . S
O606 C622 1.249 . S
O607 Dy601 2.275 . S
O607 C623 1.254 . S
O608 Dy600 2.339 . S
O608 C623 1.257 . S
O609 Dy601 2.307 . S
O609 C624 1.266 . S
O610 Dy600 2.298 . S
O610 C624 1.236 . S
O611 Dy601 2.395 . S
O611 C631 1.255 . S
O612 Dy601 2.379 . S
O612 C631 1.249 . S
C613 O603 1.266 . S
C613 O604 1.236 . S
O614 Dy600 2.275 . S
O614 C602 1.254 . S
O615 Dy601 2.339 . S
O615 C602 1.257 . S
C616 C619 1.344 . S
C616 C620 1.328 . S
C616 C622 1.516 . S
C617 C618 1.304 . S
C617 C621 1.323 . S
C618 C617 1.304 . S
C618 C619 1.371 . S
C618 H632 0.930 . S
C619 C616 1.344 . S
C619 C618 1.371 . S
C619 H633 0.931 . S
C620 C616 1.328 . S
C620 C621 1.433 . S
C620 H634 0.931 . S
C621 C617 1.323 . S
C621 C620 1.433 . S
C621 H635 0.933 . S
C622 Dy600 2.738 . S
C622 O605 1.255 . S
C622 O606 1.249 . S
C622 C616 1.516 . S
C623 O607 1.254 . S
C623 O608 1.257 . S
C624 O609 1.266 . S
C624 O610 1.236 . S
C625 C628 1.344 . S
C625 C629 1.328 . S
C625 C631 1.516 . S
C626 C627 1.304 . S
C626 C630 1.323 . S
C627 C626 1.304 . S
C627 C628 1.371 . S
C627 H636 0.930 . S
C628 C625 1.344 . S
C628 C627 1.371 . S
C628 H637 0.931 . S
C629 C625 1.328 . S
C629 C630 1.433 . S
C629 H638 0.931 . S
C630 C626 1.323 . S
C630 C629 1.433 . S
C630 H639 0.933 . S
C631 Dy601 2.738 . S
C631 O611 1.255 . S
C631 O612 1.249 . S
C631 C625 1.516 . S
H632 C618 0.930 . S
H633 C619 0.931 . S
H634 C620 0.931 . S
H635 C621 0.933 . S
H636 C627 0.930 . S
H637 C628 0.931 . S
H638 C629 0.931 . S
H639 C630 0.933 . S
Dy640 O643 2.307 . S
Dy640 O645 2.395 . S
Dy640 O646 2.379 . S
Dy640 O648 2.339 . S
Dy640 O650 2.298 . S
Dy640 O654 2.275 . S
Dy640 C662 2.738 . S
Dy641 O644 2.298 . S
Dy641 O647 2.275 . S
Dy641 O649 2.307 . S
Dy641 O651 2.395 . S
Dy641 O652 2.379 . S
Dy641 O655 2.339 . S
Dy641 C671 2.738 . S
C642 O654 1.254 . S
C642 O655 1.257 . S
O643 Dy640 2.307 . S
O643 C653 1.266 . S
O644 Dy641 2.298 . S
O644 C653 1.236 . S
O645 Dy640 2.395 . S
O645 C662 1.255 . S
O646 Dy640 2.379 . S
O646 C662 1.249 . S
O647 Dy641 2.275 . S
O647 C663 1.254 . S
O648 Dy640 2.339 . S
O648 C663 1.257 . S
O649 Dy641 2.307 . S
O649 C664 1.266 . S
O650 Dy640 2.298 . S
O650 C664 1.236 . S
O651 Dy641 2.395 . S
O651 C671 1.255 . S
O652 Dy641 2.379 . S
O652 C671 1.249 . S
C653 O643 1.266 . S
C653 O644 1.236 . S
O654 Dy640 2.275 . S
O654 C642 1.254 . S
O655 Dy641 2.339 . S
O655 C642 1.257 . S
C656 C659 1.344 . S
C656 C660 1.328 . S
C656 C662 1.516 . S
C657 C658 1.304 . S
C657 C661 1.323 . S
C658 C657 1.304 . S
C658 C659 1.371 . S
C658 H672 0.930 . S
C659 C656 1.344 . S
C659 C658 1.371 . S
C659 H673 0.931 . S
C660 C656 1.328 . S
C660 C661 1.433 . S
C660 H674 0.931 . S
C661 C657 1.323 . S
C661 C660 1.433 . S
C661 H675 0.933 . S
C662 Dy640 2.738 . S
C662 O645 1.255 . S
C662 O646 1.249 . S
C662 C656 1.516 . S
C663 O647 1.254 . S
C663 O648 1.257 . S
C664 O649 1.266 . S
C664 O650 1.236 . S
C665 C668 1.344 . S
C665 C669 1.328 . S
C665 C671 1.516 . S
C666 C667 1.304 . S
C666 C670 1.323 . S
C667 C666 1.304 . S
C667 C668 1.371 . S
C667 H676 0.930 . S
C668 C665 1.344 . S
C668 C667 1.371 . S
C668 H677 0.931 . S
C669 C665 1.328 . S
C669 C670 1.433 . S
C669 H678 0.931 . S
C670 C666 1.323 . S
C670 C669 1.433 . S
C670 H679 0.933 . S
C671 Dy641 2.738 . S
C671 O651 1.255 . S
C671 O652 1.249 . S
C671 C665 1.516 . S
H672 C658 0.930 . S
H673 C659 0.931 . S
H674 C660 0.931 . S
H675 C661 0.933 . S
H676 C667 0.930 . S
H677 C668 0.931 . S
H678 C669 0.931 . S
H679 C670 0.933 . S
Dy680 O683 2.307 . S
Dy680 O685 2.395 . S
Dy680 O686 2.379 . S
Dy680 O688 2.339 . S
Dy680 O690 2.298 . S
Dy680 O694 2.275 . S
Dy680 C702 2.738 . S
Dy681 O684 2.298 . S
Dy681 O687 2.275 . S
Dy681 O689 2.307 . S
Dy681 O691 2.395 . S
Dy681 O692 2.379 . S
Dy681 O695 2.339 . S
Dy681 C711 2.738 . S
C682 O694 1.254 . S
C682 O695 1.257 . S
O683 Dy680 2.307 . S
O683 C693 1.266 . S
O684 Dy681 2.298 . S
O684 C693 1.236 . S
O685 Dy680 2.395 . S
O685 C702 1.255 . S
O686 Dy680 2.379 . S
O686 C702 1.249 . S
O687 Dy681 2.275 . S
O687 C703 1.254 . S
O688 Dy680 2.339 . S
O688 C703 1.257 . S
O689 Dy681 2.307 . S
O689 C704 1.266 . S
O690 Dy680 2.298 . S
O690 C704 1.236 . S
O691 Dy681 2.395 . S
O691 C711 1.255 . S
O692 Dy681 2.379 . S
O692 C711 1.249 . S
C693 O683 1.266 . S
C693 O684 1.236 . S
O694 Dy680 2.275 . S
O694 C682 1.254 . S
O695 Dy681 2.339 . S
O695 C682 1.257 . S
C696 C699 1.344 . S
C696 C700 1.328 . S
C696 C702 1.516 . S
C697 C698 1.304 . S
C697 C701 1.323 . S
C698 C697 1.304 . S
C698 C699 1.371 . S
C698 H712 0.930 . S
C699 C696 1.344 . S
C699 C698 1.371 . S
C699 H713 0.931 . S
C700 C696 1.328 . S
C700 C701 1.433 . S
C700 H714 0.931 . S
C701 C697 1.323 . S
C701 C700 1.433 . S
C701 H715 0.933 . S
C702 Dy680 2.738 . S
C702 O685 1.255 . S
C702 O686 1.249 . S
C702 C696 1.516 . S
C703 O687 1.254 . S
C703 O688 1.257 . S
C704 O689 1.266 . S
C704 O690 1.236 . S
C705 C708 1.344 . S
C705 C709 1.328 . S
C705 C711 1.516 . S
C706 C707 1.304 . S
C706 C710 1.323 . S
C707 C706 1.304 . S
C707 C708 1.371 . S
C707 H716 0.930 . S
C708 C705 1.344 . S
C708 C707 1.371 . S
C708 H717 0.931 . S
C709 C705 1.328 . S
C709 C710 1.433 . S
C709 H718 0.931 . S
C710 C706 1.323 . S
C710 C709 1.433 . S
C710 H719 0.933 . S
C711 Dy681 2.738 . S
C711 O691 1.255 . S
C711 O692 1.249 . S
C711 C705 1.516 . S
H712 C698 0.930 . S
H713 C699 0.931 . S
H714 C700 0.931 . S
H715 C701 0.933 . S
H716 C707 0.930 . S
H717 C708 0.931 . S
H718 C709 0.931 . S
H719 C710 0.933 . S
Dy720 O723 2.307 . S
Dy720 O725 2.395 . S
Dy720 O726 2.379 . S
Dy720 O728 2.339 . S
Dy720 O730 2.298 . S
Dy720 O734 2.275 . S
Dy720 C742 2.738 . S
Dy721 O724 2.298 . S
Dy721 O727 2.275 . S
Dy721 O729 2.307 . S
Dy721 O731 2.395 . S
Dy721 O732 2.379 . S
Dy721 O735 2.339 . S
Dy721 C751 2.738 . S
C722 O734 1.254 . S
C722 O735 1.257 . S
O723 Dy720 2.307 . S
O723 C733 1.266 . S
O724 Dy721 2.298 . S
O724 C733 1.236 . S
O725 Dy720 2.395 . S
O725 C742 1.255 . S
O726 Dy720 2.379 . S
O726 C742 1.249 . S
O727 Dy721 2.275 . S
O727 C743 1.254 . S
O728 Dy720 2.339 . S
O728 C743 1.257 . S
O729 Dy721 2.307 . S
O729 C744 1.266 . S
O730 Dy720 2.298 . S
O730 C744 1.236 . S
O731 Dy721 2.395 . S
O731 C751 1.255 . S
O732 Dy721 2.379 . S
O732 C751 1.249 . S
C733 O723 1.266 . S
C733 O724 1.236 . S
O734 Dy720 2.275 . S
O734 C722 1.254 . S
O735 Dy721 2.339 . S
O735 C722 1.257 . S
C736 C739 1.344 . S
C736 C740 1.328 . S
C736 C742 1.516 . S
C737 C738 1.304 . S
C737 C741 1.323 . S
C738 C737 1.304 . S
C738 C739 1.371 . S
C738 H752 0.930 . S
C739 C736 1.344 . S
C739 C738 1.371 . S
C739 H753 0.931 . S
C740 C736 1.328 . S
C740 C741 1.433 . S
C740 H754 0.931 . S
C741 C737 1.323 . S
C741 C740 1.433 . S
C741 H755 0.933 . S
C742 Dy720 2.738 . S
C742 O725 1.255 . S
C742 O726 1.249 . S
C742 C736 1.516 . S
C743 O727 1.254 . S
C743 O728 1.257 . S
C744 O729 1.266 . S
C744 O730 1.236 . S
C745 C748 1.344 . S
C745 C749 1.328 . S
C745 C751 1.516 . S
C746 C747 1.304 . S
C746 C750 1.323 . S
C747 C746 1.304 . S
C747 C748 1.371 . S
C747 H756 0.930 . S
C748 C745 1.344 . S
C748 C747 1.371 . S
C748 H757 0.931 . S
C749 C745 1.328 . S
C749 C750 1.433 . S
C749 H758 0.931 . S
C750 C746 1.323 . S
C750 C749 1.433 . S
C750 H759 0.933 . S
C751 Dy721 2.738 . S
C751 O731 1.255 . S
C751 O732 1.249 . S
C751 C745 1.516 . S
H752 C738 0.930 . S
H753 C739 0.931 . S
H754 C740 0.931 . S
H755 C741 0.933 . S
H756 C747 0.930 . S
H757 C748 0.931 . S
H758 C749 0.931 . S
H759 C750 0.933 . S
Dy760 O763 2.307 . S
Dy760 O765 2.395 . S
Dy760 O766 2.379 . S
Dy760 O768 2.339 . S
Dy760 O770 2.298 . S
Dy760 O774 2.275 . S
Dy760 C782 2.738 . S
Dy761 O764 2.298 . S
Dy761 O767 2.275 . S
Dy761 O769 2.307 . S
Dy761 O771 2.395 . S
Dy761 O772 2.379 . S
Dy761 O775 2.339 . S
Dy761 C791 2.738 . S
C762 O774 1.254 . S
C762 O775 1.257 . S
O763 Dy760 2.307 . S
O763 C773 1.266 . S
O764 Dy761 2.298 . S
O764 C773 1.236 . S
O765 Dy760 2.395 . S
O765 C782 1.255 . S
O766 Dy760 2.379 . S
O766 C782 1.249 . S
O767 Dy761 2.275 . S
O767 C783 1.254 . S
O768 Dy760 2.339 . S
O768 C783 1.257 . S
O769 Dy761 2.307 . S
O769 C784 1.266 . S
O770 Dy760 2.298 . S
O770 C784 1.236 . S
O771 Dy761 2.395 . S
O771 C791 1.255 . S
O772 Dy761 2.379 . S
O772 C791 1.249 . S
C773 O763 1.266 . S
C773 O764 1.236 . S
O774 Dy760 2.275 . S
O774 C762 1.254 . S
O775 Dy761 2.339 . S
O775 C762 1.257 . S
C776 C779 1.344 . S
C776 C780 1.328 . S
C776 C782 1.516 . S
C777 C778 1.304 . S
C777 C781 1.323 . S
C778 C777 1.304 . S
C778 C779 1.371 . S
C778 H792 0.930 . S
C779 C776 1.344 . S
C779 C778 1.371 . S
C779 H793 0.931 . S
C780 C776 1.328 . S
C780 C781 1.433 . S
C780 H794 0.931 . S
C781 C777 1.323 . S
C781 C780 1.433 . S
C781 H795 0.933 . S
C782 Dy760 2.738 . S
C782 O765 1.255 . S
C782 O766 1.249 . S
C782 C776 1.516 . S
C783 O767 1.254 . S
C783 O768 1.257 . S
C784 O769 1.266 . S
C784 O770 1.236 . S
C785 C788 1.344 . S
C785 C789 1.328 . S
C785 C791 1.516 . S
C786 C787 1.304 . S
C786 C790 1.323 . S
C787 C786 1.304 . S
C787 C788 1.371 . S
C787 H796 0.930 . S
C788 C785 1.344 . S
C788 C787 1.371 . S
C788 H797 0.931 . S
C789 C785 1.328 . S
C789 C790 1.433 . S
C789 H798 0.931 . S
C790 C786 1.323 . S
C790 C789 1.433 . S
C790 H799 0.933 . S
C791 Dy761 2.738 . S
C791 O771 1.255 . S
C791 O772 1.249 . S
C791 C785 1.516 . S
H792 C778 0.930 . S
H793 C779 0.931 . S
H794 C780 0.931 . S
H795 C781 0.933 . S
H796 C787 0.930 . S
H797 C788 0.931 . S
H798 C789 0.931 . S
H799 C790 0.933 . S
Dy800 O803 2.307 . S
Dy800 O805 2.395 . S
Dy800 O806 2.379 . S
Dy800 O808 2.339 . S
Dy800 O810 2.298 . S
Dy800 O814 2.275 . S
Dy800 C822 2.738 . S
Dy801 O804 2.298 . S
Dy801 O807 2.275 . S
Dy801 O809 2.307 . S
Dy801 O811 2.395 . S
Dy801 O812 2.379 . S
Dy801 O815 2.339 . S
Dy801 C831 2.738 . S
C802 O814 1.254 . S
C802 O815 1.257 . S
O803 Dy800 2.307 . S
O803 C813 1.266 . S
O804 Dy801 2.298 . S
O804 C813 1.236 . S
O805 Dy800 2.395 . S
O805 C822 1.255 . S
O806 Dy800 2.379 . S
O806 C822 1.249 . S
O807 Dy801 2.275 . S
O807 C823 1.254 . S
O808 Dy800 2.339 . S
O808 C823 1.257 . S
O809 Dy801 2.307 . S
O809 C824 1.266 . S
O810 Dy800 2.298 . S
O810 C824 1.236 . S
O811 Dy801 2.395 . S
O811 C831 1.255 . S
O812 Dy801 2.379 . S
O812 C831 1.249 . S
C813 O803 1.266 . S
C813 O804 1.236 . S
O814 Dy800 2.275 . S
O814 C802 1.254 . S
O815 Dy801 2.339 . S
O815 C802 1.257 . S
C816 C819 1.344 . S
C816 C820 1.328 . S
C816 C822 1.516 . S
C817 C818 1.304 . S
C817 C821 1.323 . S
C818 C817 1.304 . S
C818 C819 1.371 . S
C818 H832 0.930 . S
C819 C816 1.344 . S
C819 C818 1.371 . S
C819 H833 0.931 . S
C820 C816 1.328 . S
C820 C821 1.433 . S
C820 H834 0.931 . S
C821 C817 1.323 . S
C821 C820 1.433 . S
C821 H835 0.933 . S
C822 Dy800 2.738 . S
C822 O805 1.255 . S
C822 O806 1.249 . S
C822 C816 1.516 . S
C823 O807 1.254 . S
C823 O808 1.257 . S
C824 O809 1.266 . S
C824 O810 1.236 . S
C825 C828 1.344 . S
C825 C829 1.328 . S
C825 C831 1.516 . S
C826 C827 1.304 . S
C826 C830 1.323 . S
C827 C826 1.304 . S
C827 C828 1.371 . S
C827 H836 0.930 . S
C828 C825 1.344 . S
C828 C827 1.371 . S
C828 H837 0.931 . S
C829 C825 1.328 . S
C829 C830 1.433 . S
C829 H838 0.931 . S
C830 C826 1.323 . S
C830 C829 1.433 . S
C830 H839 0.933 . S
C831 Dy801 2.738 . S
C831 O811 1.255 . S
C831 O812 1.249 . S
C831 C825 1.516 . S
H832 C818 0.930 . S
H833 C819 0.931 . S
H834 C820 0.931 . S
H835 C821 0.933 . S
H836 C827 0.930 . S
H837 C828 0.931 . S
H838 C829 0.931 . S
H839 C830 0.933 . S
Dy840 O843 2.307 . S
Dy840 O845 2.395 . S
Dy840 O846 2.379 . S
Dy840 O848 2.339 . S
Dy840 O850 2.298 . S
Dy840 O854 2.275 . S
Dy840 C862 2.738 . S
Dy841 O844 2.298 . S
Dy841 O847 2.275 . S
Dy841 O849 2.307 . S
Dy841 O851 2.395 . S
Dy841 O852 2.379 . S
Dy841 O855 2.339 . S
Dy841 C871 2.738 . S
C842 O854 1.254 . S
C842 O855 1.257 . S
O843 Dy840 2.307 . S
O843 C853 1.266 . S
O844 Dy841 2.298 . S
O844 C853 1.236 . S
O845 Dy840 2.395 . S
O845 C862 1.255 . S
O846 Dy840 2.379 . S
O846 C862 1.249 . S
O847 Dy841 2.275 . S
O847 C863 1.254 . S
O848 Dy840 2.339 . S
O848 C863 1.257 . S
O849 Dy841 2.307 . S
O849 C864 1.266 . S
O850 Dy840 2.298 . S
O850 C864 1.236 . S
O851 Dy841 2.395 . S
O851 C871 1.255 . S
O852 Dy841 2.379 . S
O852 C871 1.249 . S
C853 O843 1.266 . S
C853 O844 1.236 . S
O854 Dy840 2.275 . S
O854 C842 1.254 . S
O855 Dy841 2.339 . S
O855 C842 1.257 . S
C856 C859 1.344 . S
C856 C860 1.328 . S
C856 C862 1.516 . S
C857 C858 1.304 . S
C857 C861 1.323 . S
C858 C857 1.304 . S
C858 C859 1.371 . S
C858 H872 0.930 . S
C859 C856 1.344 . S
C859 C858 1.371 . S
C859 H873 0.931 . S
C860 C856 1.328 . S
C860 C861 1.433 . S
C860 H874 0.931 . S
C861 C857 1.323 . S
C861 C860 1.433 . S
C861 H875 0.933 . S
C862 Dy840 2.738 . S
C862 O845 1.255 . S
C862 O846 1.249 . S
C862 C856 1.516 . S
C863 O847 1.254 . S
C863 O848 1.257 . S
C864 O849 1.266 . S
C864 O850 1.236 . S
C865 C868 1.344 . S
C865 C869 1.328 . S
C865 C871 1.516 . S
C866 C867 1.304 . S
C866 C870 1.323 . S
C867 C866 1.304 . S
C867 C868 1.371 . S
C867 H876 0.930 . S
C868 C865 1.344 . S
C868 C867 1.371 . S
C868 H877 0.931 . S
C869 C865 1.328 . S
C869 C870 1.433 . S
C869 H878 0.931 . S
C870 C866 1.323 . S
C870 C869 1.433 . S
C870 H879 0.933 . S
C871 Dy841 2.738 . S
C871 O851 1.255 . S
C871 O852 1.249 . S
C871 C865 1.516 . S
H872 C858 0.930 . S
H873 C859 0.931 . S
H874 C860 0.931 . S
H875 C861 0.933 . S
H876 C867 0.930 . S
H877 C868 0.931 . S
H878 C869 0.931 . S
H879 C870 0.933 . S
Dy880 O883 2.307 . S
Dy880 O885 2.395 . S
Dy880 O886 2.379 . S
Dy880 O888 2.339 . S
Dy880 O890 2.298 . S
Dy880 O894 2.275 . S
Dy880 C902 2.738 . S
Dy881 O884 2.298 . S
Dy881 O887 2.275 . S
Dy881 O889 2.307 . S
Dy881 O891 2.395 . S
Dy881 O892 2.379 . S
Dy881 O895 2.339 . S
Dy881 C911 2.738 . S
C882 O894 1.254 . S
C882 O895 1.257 . S
O883 Dy880 2.307 . S
O883 C893 1.266 . S
O884 Dy881 2.298 . S
O884 C893 1.236 . S
O885 Dy880 2.395 . S
O885 C902 1.255 . S
O886 Dy880 2.379 . S
O886 C902 1.249 . S
O887 Dy881 2.275 . S
O887 C903 1.254 . S
O888 Dy880 2.339 . S
O888 C903 1.257 . S
O889 Dy881 2.307 . S
O889 C904 1.266 . S
O890 Dy880 2.298 . S
O890 C904 1.236 . S
O891 Dy881 2.395 . S
O891 C911 1.255 . S
O892 Dy881 2.379 . S
O892 C911 1.249 . S
C893 O883 1.266 . S
C893 O884 1.236 . S
O894 Dy880 2.275 . S
O894 C882 1.254 . S
O895 Dy881 2.339 . S
O895 C882 1.257 . S
C896 C899 1.344 . S
C896 C900 1.328 . S
C896 C902 1.516 . S
C897 C898 1.304 . S
C897 C901 1.323 . S
C898 C897 1.304 . S
C898 C899 1.371 . S
C898 H912 0.930 . S
C899 C896 1.344 . S
C899 C898 1.371 . S
C899 H913 0.931 . S
C900 C896 1.328 . S
C900 C901 1.433 . S
C900 H914 0.931 . S
C901 C897 1.323 . S
C901 C900 1.433 . S
C901 H915 0.933 . S
C902 Dy880 2.738 . S
C902 O885 1.255 . S
C902 O886 1.249 . S
C902 C896 1.516 . S
C903 O887 1.254 . S
C903 O888 1.257 . S
C904 O889 1.266 . S
C904 O890 1.236 . S
C905 C908 1.344 . S
C905 C909 1.328 . S
C905 C911 1.516 . S
C906 C907 1.304 . S
C906 C910 1.323 . S
C907 C906 1.304 . S
C907 C908 1.371 . S
C907 H916 0.930 . S
C908 C905 1.344 . S
C908 C907 1.371 . S
C908 H917 0.931 . S
C909 C905 1.328 . S
C909 C910 1.433 . S
C909 H918 0.931 . S
C910 C906 1.323 . S
C910 C909 1.433 . S
C910 H919 0.933 . S
C911 Dy881 2.738 . S
C911 O891 1.255 . S
C911 O892 1.249 . S
C911 C905 1.516 . S
H912 C898 0.930 . S
H913 C899 0.931 . S
H914 C900 0.931 . S
H915 C901 0.933 . S
H916 C907 0.930 . S
H917 C908 0.931 . S
H918 C909 0.931 . S
H919 C910 0.933 . S
Dy920 O923 2.307 . S
Dy920 O925 2.395 . S
Dy920 O926 2.379 . S
Dy920 O928 2.339 . S
Dy920 O930 2.298 . S
Dy920 O934 2.275 . S
Dy920 C942 2.738 . S
Dy921 O924 2.298 . S
Dy921 O927 2.275 . S
Dy921 O929 2.307 . S
Dy921 O931 2.395 . S
Dy921 O932 2.379 . S
Dy921 O935 2.339 . S
Dy921 C951 2.738 . S
C922 O934 1.254 . S
C922 O935 1.257 . S
O923 Dy920 2.307 . S
O923 C933 1.266 . S
O924 Dy921 2.298 . S
O924 C933 1.236 . S
O925 Dy920 2.395 . S
O925 C942 1.255 . S
O926 Dy920 2.379 . S
O926 C942 1.249 . S
O927 Dy921 2.275 . S
O927 C943 1.254 . S
O928 Dy920 2.339 . S
O928 C943 1.257 . S
O929 Dy921 2.307 . S
O929 C944 1.266 . S
O930 Dy920 2.298 . S
O930 C944 1.236 . S
O931 Dy921 2.395 . S
O931 C951 1.255 . S
O932 Dy921 2.379 . S
O932 C951 1.249 . S
C933 O923 1.266 . S
C933 O924 1.236 . S
O934 Dy920 2.275 . S
O934 C922 1.254 . S
O935 Dy921 2.339 . S
O935 C922 1.257 . S
C936 C939 1.344 . S
C936 C940 1.328 . S
C936 C942 1.516 . S
C937 C938 1.304 . S
C937 C941 1.323 . S
C938 C937 1.304 . S
C938 C939 1.371 . S
C938 H952 0.930 . S
C939 C936 1.344 . S
C939 C938 1.371 . S
C939 H953 0.931 . S
C940 C936 1.328 . S
C940 C941 1.433 . S
C940 H954 0.931 . S
C941 C937 1.323 . S
C941 C940 1.433 . S
C941 H955 0.933 . S
C942 Dy920 2.738 . S
C942 O925 1.255 . S
C942 O926 1.249 . S
C942 C936 1.516 . S
C943 O927 1.254 . S
C943 O928 1.257 . S
C944 O929 1.266 . S
C944 O930 1.236 . S
C945 C948 1.344 . S
C945 C949 1.328 . S
C945 C951 1.516 . S
C946 C947 1.304 . S
C946 C950 1.323 . S
C947 C946 1.304 . S
C947 C948 1.371 . S
C947 H956 0.930 . S
C948 C945 1.344 . S
C948 C947 1.371 . S
C948 H957 0.931 . S
C949 C945 1.328 . S
C949 C950 1.433 . S
C949 H958 0.931 . S
C950 C946 1.323 . S
C950 C949 1.433 . S
C950 H959 0.933 . S
C951 Dy921 2.738 . S
C951 O931 1.255 . S
C951 O932 1.249 . S
C951 C945 1.516 . S
H952 C938 0.930 . S
H953 C939 0.931 . S
H954 C940 0.931 . S
H955 C941 0.933 . S
H956 C947 0.930 . S
H957 C948 0.931 . S
H958 C949 0.931 . S
H959 C950 0.933 . S
Dy960 O963 2.307 . S
Dy960 O965 2.395 . S
Dy960 O966 2.379 . S
Dy960 O968 2.339 . S
Dy960 O970 2.298 . S
Dy960 O974 2.275 . S
Dy960 C982 2.738 . S
Dy961 O964 2.298 . S
Dy961 O967 2.275 . S
Dy961 O969 2.307 . S
Dy961 O971 2.395 . S
Dy961 O972 2.379 . S
Dy961 O975 2.339 . S
Dy961 C991 2.738 . S
C962 O974 1.254 . S
C962 O975 1.257 . S
O963 Dy960 2.307 . S
O963 C973 1.266 . S
O964 Dy961 2.298 . S
O964 C973 1.236 . S
O965 Dy960 2.395 . S
O965 C982 1.255 . S
O966 Dy960 2.379 . S
O966 C982 1.249 . S
O967 Dy961 2.275 . S
O967 C983 1.254 . S
O968 Dy960 2.339 . S
O968 C983 1.257 . S
O969 Dy961 2.307 . S
O969 C984 1.266 . S
O970 Dy960 2.298 . S
O970 C984 1.236 . S
O971 Dy961 2.395 . S
O971 C991 1.255 . S
O972 Dy961 2.379 . S
O972 C991 1.249 . S
C973 O963 1.266 . S
C973 O964 1.236 . S
O974 Dy960 2.275 . S
O974 C962 1.254 . S
O975 Dy961 2.339 . S
O975 C962 1.257 . S
C976 C979 1.344 . S
C976 C980 1.328 . S
C976 C982 1.516 . S
C977 C978 1.304 . S
C977 C981 1.323 . S
C978 C977 1.304 . S
C978 C979 1.371 . S
C978 H992 0.930 . S
C979 C976 1.344 . S
C979 C978 1.371 . S
C979 H993 0.931 . S
C980 C976 1.328 . S
C980 C981 1.433 . S
C980 H994 0.931 . S
C981 C977 1.323 . S
C981 C980 1.433 . S
C981 H995 0.933 . S
C982 Dy960 2.738 . S
C982 O965 1.255 . S
C982 O966 1.249 . S
C982 C976 1.516 . S
C983 O967 1.254 . S
C983 O968 1.257 . S
C984 O969 1.266 . S
C984 O970 1.236 . S
C985 C988 1.344 . S
C985 C989 1.328 . S
C985 C991 1.516 . S
C986 C987 1.304 . S
C986 C990 1.323 . S
C987 C986 1.304 . S
C987 C988 1.371 . S
C987 H996 0.930 . S
C988 C985 1.344 . S
C988 C987 1.371 . S
C988 H997 0.931 . S
C989 C985 1.328 . S
C989 C990 1.433 . S
C989 H998 0.931 . S
C990 C986 1.323 . S
C990 C989 1.433 . S
C990 H999 0.933 . S
C991 Dy961 2.738 . S
C991 O971 1.255 . S
C991 O972 1.249 . S
C991 C985 1.516 . S
H992 C978 0.930 . S
H993 C979 0.931 . S
H994 C980 0.931 . S
H995 C981 0.933 . S
H996 C987 0.930 . S
H997 C988 0.931 . S
H998 C989 0.931 . S
H999 C990 0.933 . S
Dy1000 O1003 2.307 . S
Dy1000 O1005 2.395 . S
Dy1000 O1006 2.379 . S
Dy1000 O1008 2.339 . S
Dy1000 O1010 2.298 . S
Dy1000 O1014 2.275 . S
Dy1000 C1022 2.738 . S
Dy1001 O1004 2.298 . S
Dy1001 O1007 2.275 . S
Dy1001 O1009 2.307 . S
Dy1001 O1011 2.395 . S
Dy1001 O1012 2.379 . S
Dy1001 O1015 2.339 . S
Dy1001 C1031 2.738 . S
C1002 O1014 1.254 . S
C1002 O1015 1.257 . S
O1003 Dy1000 2.307 . S
O1003 C1013 1.266 . S
O1004 Dy1001 2.298 . S
O1004 C1013 1.236 . S
O1005 Dy1000 2.395 . S
O1005 C1022 1.255 . S
O1006 Dy1000 2.379 . S
O1006 C1022 1.249 . S
O1007 Dy1001 2.275 . S
O1007 C1023 1.254 . S
O1008 Dy1000 2.339 . S
O1008 C1023 1.257 . S
O1009 Dy1001 2.307 . S
O1009 C1024 1.266 . S
O1010 Dy1000 2.298 . S
O1010 C1024 1.236 . S
O1011 Dy1001 2.395 . S
O1011 C1031 1.255 . S
O1012 Dy1001 2.379 . S
O1012 C1031 1.249 . S
C1013 O1003 1.266 . S
C1013 O1004 1.236 . S
O1014 Dy1000 2.275 . S
O1014 C1002 1.254 . S
O1015 Dy1001 2.339 . S
O1015 C1002 1.257 . S
C1016 C1019 1.344 . S
C1016 C1020 1.328 . S
C1016 C1022 1.516 . S
C1017 C1018 1.304 . S
C1017 C1021 1.323 . S
C1018 C1017 1.304 . S
C1018 C1019 1.371 . S
C1018 H1032 0.930 . S
C1019 C1016 1.344 . S
C1019 C1018 1.371 . S
C1019 H1033 0.931 . S
C1020 C1016 1.328 . S
C1020 C1021 1.433 . S
C1020 H1034 0.931 . S
C1021 C1017 1.323 . S
C1021 C1020 1.433 . S
C1021 H1035 0.933 . S
C1022 Dy1000 2.738 . S
C1022 O1005 1.255 . S
C1022 O1006 1.249 . S
C1022 C1016 1.516 . S
C1023 O1007 1.254 . S
C1023 O1008 1.257 . S
C1024 O1009 1.266 . S
C1024 O1010 1.236 . S
C1025 C1028 1.344 . S
C1025 C1029 1.328 . S
C1025 C1031 1.516 . S
C1026 C1027 1.304 . S
C1026 C1030 1.323 . S
C1027 C1026 1.304 . S
C1027 C1028 1.371 . S
C1027 H1036 0.930 . S
C1028 C1025 1.344 . S
C1028 C1027 1.371 . S
C1028 H1037 0.931 . S
C1029 C1025 1.328 . S
C1029 C1030 1.433 . S
C1029 H1038 0.931 . S
C1030 C1026 1.323 . S
C1030 C1029 1.433 . S
C1030 H1039 0.933 . S
C1031 Dy1001 2.738 . S
C1031 O1011 1.255 . S
C1031 O1012 1.249 . S
C1031 C1025 1.516 . S
H1032 C1018 0.930 . S
H1033 C1019 0.931 . S
H1034 C1020 0.931 . S
H1035 C1021 0.933 . S
H1036 C1027 0.930 . S
H1037 C1028 0.931 . S
H1038 C1029 0.931 . S
H1039 C1030 0.933 . S
Dy1040 O1043 2.307 . S
Dy1040 O1045 2.395 . S
Dy1040 O1046 2.379 . S
Dy1040 O1048 2.339 . S
Dy1040 O1050 2.298 . S
Dy1040 O1054 2.275 . S
Dy1040 C1062 2.738 . S
Dy1041 O1044 2.298 . S
Dy1041 O1047 2.275 . S
Dy1041 O1049 2.307 . S
Dy1041 O1051 2.395 . S
Dy1041 O1052 2.379 . S
Dy1041 O1055 2.339 . S
Dy1041 C1071 2.738 . S
C1042 O1054 1.254 . S
C1042 O1055 1.257 . S
O1043 Dy1040 2.307 . S
O1043 C1053 1.266 . S
O1044 Dy1041 2.298 . S
O1044 C1053 1.236 . S
O1045 Dy1040 2.395 . S
O1045 C1062 1.255 . S
O1046 Dy1040 2.379 . S
O1046 C1062 1.249 . S
O1047 Dy1041 2.275 . S
O1047 C1063 1.254 . S
O1048 Dy1040 2.339 . S
O1048 C1063 1.257 . S
O1049 Dy1041 2.307 . S
O1049 C1064 1.266 . S
O1050 Dy1040 2.298 . S
O1050 C1064 1.236 . S
O1051 Dy1041 2.395 . S
O1051 C1071 1.255 . S
O1052 Dy1041 2.379 . S
O1052 C1071 1.249 . S
C1053 O1043 1.266 . S
C1053 O1044 1.236 . S
O1054 Dy1040 2.275 . S
O1054 C1042 1.254 . S
O1055 Dy1041 2.339 . S
O1055 C1042 1.257 . S
C1056 C1059 1.344 . S
C1056 C1060 1.328 . S
C1056 C1062 1.516 . S
C1057 C1058 1.304 . S
C1057 C1061 1.323 . S
C1058 C1057 1.304 . S
C1058 C1059 1.371 . S
C1058 H1072 0.930 . S
C1059 C1056 1.344 . S
C1059 C1058 1.371 . S
C1059 H1073 0.931 . S
C1060 C1056 1.328 . S
C1060 C1061 1.433 . S
C1060 H1074 0.931 . S
C1061 C1057 1.323 . S
C1061 C1060 1.433 . S
C1061 H1075 0.933 . S
C1062 Dy1040 2.738 . S
C1062 O1045 1.255 . S
C1062 O1046 1.249 . S
C1062 C1056 1.516 . S
C1063 O1047 1.254 . S
C1063 O1048 1.257 . S
C1064 O1049 1.266 . S
C1064 O1050 1.236 . S
C1065 C1068 1.344 . S
C1065 C1069 1.328 . S
C1065 C1071 1.516 . S
C1066 C1067 1.304 . S
C1066 C1070 1.323 . S
C1067 C1066 1.304 . S
C1067 C1068 1.371 . S
C1067 H1076 0.930 . S
C1068 C1065 1.344 . S
C1068 C1067 1.371 . S
C1068 H1077 0.931 . S
C1069 C1065 1.328 . S
C1069 C1070 1.433 . S
C1069 H1078 0.931 . S
C1070 C1066 1.323 . S
C1070 C1069 1.433 . S
C1070 H1079 0.933 . S
C1071 Dy1041 2.738 . S
C1071 O1051 1.255 . S
C1071 O1052 1.249 . S
C1071 C1065 1.516 . S
H1072 C1058 0.930 . S
H1073 C1059 0.931 . S
H1074 C1060 0.931 . S
H1075 C1061 0.933 . S
H1076 C1067 0.930 . S
H1077 C1068 0.931 . S
H1078 C1069 0.931 . S
H1079 C1070 0.933 . S
Dy1080 O1083 2.307 . S
Dy1080 O1085 2.395 . S
Dy1080 O1086 2.379 . S
Dy1080 O1088 2.339 . S
Dy1080 O1090 2.298 . S
Dy1080 O1094 2.275 . S
Dy1080 C1102 2.738 . S
Dy1081 O1084 2.298 . S
Dy1081 O1087 2.275 . S
Dy1081 O1089 2.307 . S
Dy1081 O1091 2.395 . S
Dy1081 O1092 2.379 . S
Dy1081 O1095 2.339 . S
Dy1081 C1111 2.738 . S
C1082 O1094 1.254 . S
C1082 O1095 1.257 . S
O1083 Dy1080 2.307 . S
O1083 C1093 1.266 . S
O1084 Dy1081 2.298 . S
O1084 C1093 1.236 . S
O1085 Dy1080 2.395 . S
O1085 C1102 1.255 . S
O1086 Dy1080 2.379 . S
O1086 C1102 1.249 . S
O1087 Dy1081 2.275 . S
O1087 C1103 1.254 . S
O1088 Dy1080 2.339 . S
O1088 C1103 1.257 . S
O1089 Dy1081 2.307 . S
O1089 C1104 1.266 . S
O1090 Dy1080 2.298 . S
O1090 C1104 1.236 . S
O1091 Dy1081 2.395 . S
O1091 C1111 1.255 . S
O1092 Dy1081 2.379 . S
O1092 C1111 1.249 . S
C1093 O1083 1.266 . S
C1093 O1084 1.236 . S
O1094 Dy1080 2.275 . S
O1094 C1082 1.254 . S
O1095 Dy1081 2.339 . S
O1095 C1082 1.257 . S
C1096 C1099 1.344 . S
C1096 C1100 1.328 . S
C1096 C1102 1.516 . S
C1097 C1098 1.304 . S
C1097 C1101 1.323 . S
C1098 C1097 1.304 . S
C1098 C1099 1.371 . S
C1098 H1112 0.930 . S
C1099 C1096 1.344 . S
C1099 C1098 1.371 . S
C1099 H1113 0.931 . S
C1100 C1096 1.328 . S
C1100 C1101 1.433 . S
C1100 H1114 0.931 . S
C1101 C1097 1.323 . S
C1101 C1100 1.433 . S
C1101 H1115 0.933 . S
C1102 Dy1080 2.738 . S
C1102 O1085 1.255 . S
C1102 O1086 1.249 . S
C1102 C1096 1.516 . S
C1103 O1087 1.254 . S
C1103 O1088 1.257 . S
C1104 O1089 1.266 . S
C1104 O1090 1.236 . S
C1105 C1108 1.344 . S
C1105 C1109 1.328 . S
C1105 C1111 1.516 . S
C1106 C1107 1.304 . S
C1106 C1110 1.323 . S
C1107 C1106 1.304 . S
C1107 C1108 1.371 . S
C1107 H1116 0.930 . S
C1108 C1105 1.344 . S
C1108 C1107 1.371 . S
C1108 H1117 0.931 . S
C1109 C1105 1.328 . S
C1109 C1110 1.433 . S
C1109 H1118 0.931 . S
C1110 C1106 1.323 . S
C1110 C1109 1.433 . S
C1110 H1119 0.933 . S
C1111 Dy1081 2.738 . S
C1111 O1091 1.255 . S
C1111 O1092 1.249 . S
C1111 C1105 1.516 . S
H1112 C1098 0.930 . S
H1113 C1099 0.931 . S
H1114 C1100 0.931 . S
H1115 C1101 0.933 . S
H1116 C1107 0.930 . S
H1117 C1108 0.931 . S
H1118 C1109 0.931 . S
H1119 C1110 0.933 . S
Dy1120 O1123 2.307 . S
Dy1120 O1125 2.395 . S
Dy1120 O1126 2.379 . S
Dy1120 O1128 2.339 . S
Dy1120 O1130 2.298 . S
Dy1120 O1134 2.275 . S
Dy1120 C1142 2.738 . S
Dy1121 O1124 2.298 . S
Dy1121 O1127 2.275 . S
Dy1121 O1129 2.307 . S
Dy1121 O1131 2.395 . S
Dy1121 O1132 2.379 . S
Dy1121 O1135 2.339 . S
Dy1121 C1151 2.738 . S
C1122 O1134 1.254 . S
C1122 O1135 1.257 . S
O1123 Dy1120 2.307 . S
O1123 C1133 1.266 . S
O1124 Dy1121 2.298 . S
O1124 C1133 1.236 . S
O1125 Dy1120 2.395 . S
O1125 C1142 1.255 . S
O1126 Dy1120 2.379 . S
O1126 C1142 1.249 . S
O1127 Dy1121 2.275 . S
O1127 C1143 1.254 . S
O1128 Dy1120 2.339 . S
O1128 C1143 1.257 . S
O1129 Dy1121 2.307 . S
O1129 C1144 1.266 . S
O1130 Dy1120 2.298 . S
O1130 C1144 1.236 . S
O1131 Dy1121 2.395 . S
O1131 C1151 1.255 . S
O1132 Dy1121 2.379 . S
O1132 C1151 1.249 . S
C1133 O1123 1.266 . S
C1133 O1124 1.236 . S
O1134 Dy1120 2.275 . S
O1134 C1122 1.254 . S
O1135 Dy1121 2.339 . S
O1135 C1122 1.257 . S
C1136 C1139 1.344 . S
C1136 C1140 1.328 . S
C1136 C1142 1.516 . S
C1137 C1138 1.304 . S
C1137 C1141 1.323 . S
C1138 C1137 1.304 . S
C1138 C1139 1.371 . S
C1138 H1152 0.930 . S
C1139 C1136 1.344 . S
C1139 C1138 1.371 . S
C1139 H1153 0.931 . S
C1140 C1136 1.328 . S
C1140 C1141 1.433 . S
C1140 H1154 0.931 . S
C1141 C1137 1.323 . S
C1141 C1140 1.433 . S
C1141 H1155 0.933 . S
C1142 Dy1120 2.738 . S
C1142 O1125 1.255 . S
C1142 O1126 1.249 . S
C1142 C1136 1.516 . S
C1143 O1127 1.254 . S
C1143 O1128 1.257 . S
C1144 O1129 1.266 . S
C1144 O1130 1.236 . S
C1145 C1148 1.344 . S
C1145 C1149 1.328 . S
C1145 C1151 1.516 . S
C1146 C1147 1.304 . S
C1146 C1150 1.323 . S
C1147 C1146 1.304 . S
C1147 C1148 1.371 . S
C1147 H1156 0.930 . S
C1148 C1145 1.344 . S
C1148 C1147 1.371 . S
C1148 H1157 0.931 . S
C1149 C1145 1.328 . S
C1149 C1150 1.433 . S
C1149 H1158 0.931 . S
C1150 C1146 1.323 . S
C1150 C1149 1.433 . S
C1150 H1159 0.933 . S
C1151 Dy1121 2.738 . S
C1151 O1131 1.255 . S
C1151 O1132 1.249 . S
C1151 C1145 1.516 . S
H1152 C1138 0.930 . S
H1153 C1139 0.931 . S
H1154 C1140 0.931 . S
H1155 C1141 0.933 . S
H1156 C1147 0.930 . S
H1157 C1148 0.931 . S
H1158 C1149 0.931 . S
H1159 C1150 0.933 . S
Dy1160 O1163 2.307 . S
Dy1160 O1165 2.395 . S
Dy1160 O1166 2.379 . S
Dy1160 O1168 2.339 . S
Dy1160 O1170 2.298 . S
Dy1160 O1174 2.275 . S
Dy1160 C1182 2.738 . S
Dy1161 O1164 2.298 . S
Dy1161 O1167 2.275 . S
Dy1161 O1169 2.307 . S
Dy1161 O1171 2.395 . S
Dy1161 O1172 2.379 . S
Dy1161 O1175 2.339 . S
Dy1161 C1191 2.738 . S
C1162 O1174 1.254 . S
C1162 O1175 1.257 . S
O1163 Dy1160 2.307 . S
O1163 C1173 1.266 . S
O1164 Dy1161 2.298 . S
O1164 C1173 1.236 . S
O1165 Dy1160 2.395 . S
O1165 C1182 1.255 . S
O1166 Dy1160 2.379 . S
O1166 C1182 1.249 . S
O1167 Dy1161 2.275 . S
O1167 C1183 1.254 . S
O1168 Dy1160 2.339 . S
O1168 C1183 1.257 . S
O1169 Dy1161 2.307 . S
O1169 C1184 1.266 . S
O1170 Dy1160 2.298 . S
O1170 C1184 1.236 . S
O1171 Dy1161 2.395 . S
O1171 C1191 1.255 . S
O1172 Dy1161 2.379 . S
O1172 C1191 1.249 . S
C1173 O1163 1.266 . S
C1173 O1164 1.236 . S
O1174 Dy1160 2.275 . S
O1174 C1162 1.254 . S
O1175 Dy1161 2.339 . S
O1175 C1162 1.257 . S
C1176 C1179 1.344 . S
C1176 C1180 1.328 . S
C1176 C1182 1.516 . S
C1177 C1178 1.304 . S
C1177 C1181 1.323 . S
C1178 C1177 1.304 . S
C1178 C1179 1.371 . S
C1178 H1192 0.930 . S
C1179 C1176 1.344 . S
C1179 C1178 1.371 . S
C1179 H1193 0.931 . S
C1180 C1176 1.328 . S
C1180 C1181 1.433 . S
C1180 H1194 0.931 . S
C1181 C1177 1.323 . S
C1181 C1180 1.433 . S
C1181 H1195 0.933 . S
C1182 Dy1160 2.738 . S
C1182 O1165 1.255 . S
C1182 O1166 1.249 . S
C1182 C1176 1.516 . S
C1183 O1167 1.254 . S
C1183 O1168 1.257 . S
C1184 O1169 1.266 . S
C1184 O1170 1.236 . S
C1185 C1188 1.344 . S
C1185 C1189 1.328 . S
C1185 C1191 1.516 . S
C1186 C1187 1.304 . S
C1186 C1190 1.323 . S
C1187 C1186 1.304 . S
C1187 C1188 1.371 . S
C1187 H1196 0.930 . S
C1188 C1185 1.344 . S
C1188 C1187 1.371 . S
C1188 H1197 0.931 . S
C1189 C1185 1.328 . S
C1189 C1190 1.433 . S
C1189 H1198 0.931 . S
C1190 C1186 1.323 . S
C1190 C1189 1.433 . S
C1190 H1199 0.933 . S
C1191 Dy1161 2.738 . S
C1191 O1171 1.255 . S
C1191 O1172 1.249 . S
C1191 C1185 1.516 . S
H1192 C1178 0.930 . S
H1193 C1179 0.931 . S
H1194 C1180 0.931 . S
H1195 C1181 0.933 . S
H1196 C1187 0.930 . S
H1197 C1188 0.931 . S
H1198 C1189 0.931 . S
H1199 C1190 0.933 . S
Dy1200 O1203 2.307 . S
Dy1200 O1205 2.395 . S
Dy1200 O1206 2.379 . S
Dy1200 O1208 2.339 . S
Dy1200 O1210 2.298 . S
Dy1200 O1214 2.275 . S
Dy1200 C1222 2.738 . S
Dy1201 O1204 2.298 . S
Dy1201 O1207 2.275 . S
Dy1201 O1209 2.307 . S
Dy1201 O1211 2.395 . S
Dy1201 O1212 2.379 . S
Dy1201 O1215 2.339 . S
Dy1201 C1231 2.738 . S
C1202 O1214 1.254 . S
C1202 O1215 1.257 . S
O1203 Dy1200 2.307 . S
O1203 C1213 1.266 . S
O1204 Dy1201 2.298 . S
O1204 C1213 1.236 . S
O1205 Dy1200 2.395 . S
O1205 C1222 1.255 . S
O1206 Dy1200 2.379 . S
O1206 C1222 1.249 . S
O1207 Dy1201 2.275 . S
O1207 C1223 1.254 . S
O1208 Dy1200 2.339 . S
O1208 C1223 1.257 . S
O1209 Dy1201 2.307 . S
O1209 C1224 1.266 . S
O1210 Dy1200 2.298 . S
O1210 C1224 1.236 . S
O1211 Dy1201 2.395 . S
O1211 C1231 1.255 . S
O1212 Dy1201 2.379 . S
O1212 C1231 1.249 . S
C1213 O1203 1.266 . S
C1213 O1204 1.236 . S
O1214 Dy1200 2.275 . S
O1214 C1202 1.254 . S
O1215 Dy1201 2.339 . S
O1215 C1202 1.257 . S
C1216 C1219 1.344 . S
C1216 C1220 1.328 . S
C1216 C1222 1.516 . S
C1217 C1218 1.304 . S
C1217 C1221 1.323 . S
C1218 C1217 1.304 . S
C1218 C1219 1.371 . S
C1218 H1232 0.930 . S
C1219 C1216 1.344 . S
C1219 C1218 1.371 . S
C1219 H1233 0.931 . S
C1220 C1216 1.328 . S
C1220 C1221 1.433 . S
C1220 H1234 0.931 . S
C1221 C1217 1.323 . S
C1221 C1220 1.433 . S
C1221 H1235 0.933 . S
C1222 Dy1200 2.738 . S
C1222 O1205 1.255 . S
C1222 O1206 1.249 . S
C1222 C1216 1.516 . S
C1223 O1207 1.254 . S
C1223 O1208 1.257 . S
C1224 O1209 1.266 . S
C1224 O1210 1.236 . S
C1225 C1228 1.344 . S
C1225 C1229 1.328 . S
C1225 C1231 1.516 . S
C1226 C1227 1.304 . S
C1226 C1230 1.323 . S
C1227 C1226 1.304 . S
C1227 C1228 1.371 . S
C1227 H1236 0.930 . S
C1228 C1225 1.344 . S
C1228 C1227 1.371 . S
C1228 H1237 0.931 . S
C1229 C1225 1.328 . S
C1229 C1230 1.433 . S
C1229 H1238 0.931 . S
C1230 C1226 1.323 . S
C1230 C1229 1.433 . S
C1230 H1239 0.933 . S
C1231 Dy1201 2.738 . S
C1231 O1211 1.255 . S
C1231 O1212 1.249 . S
C1231 C1225 1.516 . S
H1232 C1218 0.930 . S
H1233 C1219 0.931 . S
H1234 C1220 0.931 . S
H1235 C1221 0.933 . S
H1236 C1227 0.930 . S
H1237 C1228 0.931 . S
H1238 C1229 0.931 . S
H1239 C1230 0.933 . S
Dy1240 O1243 2.307 . S
Dy1240 O1245 2.395 . S
Dy1240 O1246 2.379 . S
Dy1240 O1248 2.339 . S
Dy1240 O1250 2.298 . S
Dy1240 O1254 2.275 . S
Dy1240 C1262 2.738 . S
Dy1241 O1244 2.298 . S
Dy1241 O1247 2.275 . S
Dy1241 O1249 2.307 . S
Dy1241 O1251 2.395 . S
Dy1241 O1252 2.379 . S
Dy1241 O1255 2.339 . S
Dy1241 C1271 2.738 . S
C1242 O1254 1.254 . S
C1242 O1255 1.257 . S
O1243 Dy1240 2.307 . S
O1243 C1253 1.266 . S
O1244 Dy1241 2.298 . S
O1244 C1253 1.236 . S
O1245 Dy1240 2.395 . S
O1245 C1262 1.255 . S
O1246 Dy1240 2.379 . S
O1246 C1262 1.249 . S
O1247 Dy1241 2.275 . S
O1247 C1263 1.254 . S
O1248 Dy1240 2.339 . S
O1248 C1263 1.257 . S
O1249 Dy1241 2.307 . S
O1249 C1264 1.266 . S
O1250 Dy1240 2.298 . S
O1250 C1264 1.236 . S
O1251 Dy1241 2.395 . S
O1251 C1271 1.255 . S
O1252 Dy1241 2.379 . S
O1252 C1271 1.249 . S
C1253 O1243 1.266 . S
C1253 O1244 1.236 . S
O1254 Dy1240 2.275 . S
O1254 C1242 1.254 . S
O1255 Dy1241 2.339 . S
O1255 C1242 1.257 . S
C1256 C1259 1.344 . S
C1256 C1260 1.328 . S
C1256 C1262 1.516 . S
C1257 C1258 1.304 . S
C1257 C1261 1.323 . S
C1258 C1257 1.304 . S
C1258 C1259 1.371 . S
C1258 H1272 0.930 . S
C1259 C1256 1.344 . S
C1259 C1258 1.371 . S
C1259 H1273 0.931 . S
C1260 C1256 1.328 . S
C1260 C1261 1.433 . S
C1260 H1274 0.931 . S
C1261 C1257 1.323 . S
C1261 C1260 1.433 . S
C1261 H1275 0.933 . S
C1262 Dy1240 2.738 . S
C1262 O1245 1.255 . S
C1262 O1246 1.249 . S
C1262 C1256 1.516 . S
C1263 O1247 1.254 . S
C1263 O1248 1.257 . S
C1264 O1249 1.266 . S
C1264 O1250 1.236 . S
C1265 C1268 1.344 . S
C1265 C1269 1.328 . S
C1265 C1271 1.516 . S
C1266 C1267 1.304 . S
C1266 C1270 1.323 . S
C1267 C1266 1.304 . S
C1267 C1268 1.371 . S
C1267 H1276 0.930 . S
C1268 C1265 1.344 . S
C1268 C1267 1.371 . S
C1268 H1277 0.931 . S
C1269 C1265 1.328 . S
C1269 C1270 1.433 . S
C1269 H1278 0.931 . S
C1270 C1266 1.323 . S
C1270 C1269 1.433 . S
C1270 H1279 0.933 . S
C1271 Dy1241 2.738 . S
C1271 O1251 1.255 . S
C1271 O1252 1.249 . S
C1271 C1265 1.516 . S
H1272 C1258 0.930 . S
H1273 C1259 0.931 . S
H1274 C1260 0.931 . S
H1275 C1261 0.933 . S
H1276 C1267 0.930 . S
H1277 C1268 0.931 . S
H1278 C1269 0.931 . S
H1279 C1270 0.933 . S
Dy1280 O1283 2.307 . S
Dy1280 O1285 2.395 . S
Dy1280 O1286 2.379 . S
Dy1280 O1288 2.339 . S
Dy1280 O1290 2.298 . S
Dy1280 O1294 2.275 . S
Dy1280 C1302 2.738 . S
Dy1281 O1284 2.298 . S
Dy1281 O1287 2.275 . S
Dy1281 O1289 2.307 . S
Dy1281 O1291 2.395 . S
Dy1281 O1292 2.379 . S
Dy1281 O1295 2.339 . S
Dy1281 C1311 2.738 . S
C1282 O1294 1.254 . S
C1282 O1295 1.257 . S
O1283 Dy1280 2.307 . S
O1283 C1293 1.266 . S
O1284 Dy1281 2.298 . S
O1284 C1293 1.236 . S
O1285 Dy1280 2.395 . S
O1285 C1302 1.255 . S
O1286 Dy1280 2.379 . S
O1286 C1302 1.249 . S
O1287 Dy1281 2.275 . S
O1287 C1303 1.254 . S
O1288 Dy1280 2.339 . S
O1288 C1303 1.257 . S
O1289 Dy1281 2.307 . S
O1289 C1304 1.266 . S
O1290 Dy1280 2.298 . S
O1290 C1304 1.236 . S
O1291 Dy1281 2.395 . S
O1291 C1311 1.255 . S
O1292 Dy1281 2.379 . S
O1292 C1311 1.249 . S
C1293 O1283 1.266 . S
C1293 O1284 1.236 . S
O1294 Dy1280 2.275 . S
O1294 C1282 1.254 . S
O1295 Dy1281 2.339 . S
O1295 C1282 1.257 . S
C1296 C1299 1.344 . S
C1296 C1300 1.328 . S
C1296 C1302 1.516 . S
C1297 C1298 1.304 . S
C1297 C1301 1.323 . S
C1298 C1297 1.304 . S
C1298 C1299 1.371 . S
C1298 H1312 0.930 . S
C1299 C1296 1.344 . S
C1299 C1298 1.371 . S
C1299 H1313 0.931 . S
C1300 C1296 1.328 . S
C1300 C1301 1.433 . S
C1300 H1314 0.931 . S
C1301 C1297 1.323 . S
C1301 C1300 1.433 . S
C1301 H1315 0.933 . S
C1302 Dy1280 2.738 . S
C1302 O1285 1.255 . S
C1302 O1286 1.249 . S
C1302 C1296 1.516 . S
C1303 O1287 1.254 . S
C1303 O1288 1.257 . S
C1304 O1289 1.266 . S
C1304 O1290 1.236 . S
C1305 C1308 1.344 . S
C1305 C1309 1.328 . S
C1305 C1311 1.516 . S
C1306 C1307 1.304 . S
C1306 C1310 1.323 . S
C1307 C1306 1.304 . S
C1307 C1308 1.371 . S
C1307 H1316 0.930 . S
C1308 C1305 1.344 . S
C1308 C1307 1.371 . S
C1308 H1317 0.931 . S
C1309 C1305 1.328 . S
C1309 C1310 1.433 . S
C1309 H1318 0.931 . S
C1310 C1306 1.323 . S
C1310 C1309 1.433 . S
C1310 H1319 0.933 . S
C1311 Dy1281 2.738 . S
C1311 O1291 1.255 . S
C1311 O1292 1.249 . S
C1311 C1305 1.516 . S
H1312 C1298 0.930 . S
H1313 C1299 0.931 . S
H1314 C1300 0.931 . S
H1315 C1301 0.933 . S
H1316 C1307 0.930 . S
H1317 C1308 0.931 . S
H1318 C1309 0.931 . S
H1319 C1310 0.933 . S
Dy1320 O1323 2.307 . S
Dy1320 O1325 2.395 . S
Dy1320 O1326 2.379 . S
Dy1320 O1328 2.339 . S
Dy1320 O1330 2.298 . S
Dy1320 O1334 2.275 . S
Dy1320 C1342 2.738 . S
Dy1321 O1324 2.298 . S
Dy1321 O1327 2.275 . S
Dy1321 O1329 2.307 . S
Dy1321 O1331 2.395 . S
Dy1321 O1332 2.379 . S
Dy1321 O1335 2.339 . S
Dy1321 C1351 2.738 . S
C1322 O1334 1.254 . S
C1322 O1335 1.257 . S
O1323 Dy1320 2.307 . S
O1323 C1333 1.266 . S
O1324 Dy1321 2.298 . S
O1324 C1333 1.236 . S
O1325 Dy1320 2.395 . S
O1325 C1342 1.255 . S
O1326 Dy1320 2.379 . S
O1326 C1342 1.249 . S
O1327 Dy1321 2.275 . S
O1327 C1343 1.254 . S
O1328 Dy1320 2.339 . S
O1328 C1343 1.257 . S
O1329 Dy1321 2.307 . S
O1329 C1344 1.266 . S
O1330 Dy1320 2.298 . S
O1330 C1344 1.236 . S
O1331 Dy1321 2.395 . S
O1331 C1351 1.255 . S
O1332 Dy1321 2.379 . S
O1332 C1351 1.249 . S
C1333 O1323 1.266 . S
C1333 O1324 1.236 . S
O1334 Dy1320 2.275 . S
O1334 C1322 1.254 . S
O1335 Dy1321 2.339 . S
O1335 C1322 1.257 . S
C1336 C1339 1.344 . S
C1336 C1340 1.328 . S
C1336 C1342 1.516 . S
C1337 C1338 1.304 . S
C1337 C1341 1.323 . S
C1338 C1337 1.304 . S
C1338 C1339 1.371 . S
C1338 H1352 0.930 . S
C1339 C1336 1.344 . S
C1339 C1338 1.371 . S
C1339 H1353 0.931 . S
C1340 C1336 1.328 . S
C1340 C1341 1.433 . S
C1340 H1354 0.931 . S
C1341 C1337 1.323 . S
C1341 C1340 1.433 . S
C1341 H1355 0.933 . S
C1342 Dy1320 2.738 . S
C1342 O1325 1.255 . S
C1342 O1326 1.249 . S
C1342 C1336 1.516 . S
C1343 O1327 1.254 . S
C1343 O1328 1.257 . S
C1344 O1329 1.266 . S
C1344 O1330 1.236 . S
C1345 C1348 1.344 . S
C1345 C1349 1.328 . S
C1345 C1351 1.516 . S
C1346 C1347 1.304 . S
C1346 C1350 1.323 . S
C1347 C1346 1.304 . S
C1347 C1348 1.371 . S
C1347 H1356 0.930 . S
C1348 C1345 1.344 . S
C1348 C1347 1.371 . S
C1348 H1357 0.931 . S
C1349 C1345 1.328 . S
C1349 C1350 1.433 . S
C1349 H1358 0.931 . S
C1350 C1346 1.323 . S
C1350 C1349 1.433 . S
C1350 H1359 0.933 . S
C1351 Dy1321 2.738 . S
C1351 O1331 1.255 . S
C1351 O1332 1.249 . S
C1351 C1345 1.516 . S
H1352 C1338 0.930 . S
H1353 C1339 0.931 . S
H1354 C1340 0.931 . S
H1355 C1341 0.933 . S
H1356 C1347 0.930 . S
H1357 C1348 0.931 . S
H1358 C1349 0.931 . S
H1359 C1350 0.933 . S
Dy1360 O1363 2.307 . S
Dy1360 O1365 2.395 . S
Dy1360 O1366 2.379 . S
Dy1360 O1368 2.339 . S
Dy1360 O1370 2.298 . S
Dy1360 O1374 2.275 . S
Dy1360 C1382 2.738 . S
Dy1361 O1364 2.298 . S
Dy1361 O1367 2.275 . S
Dy1361 O1369 2.307 . S
Dy1361 O1371 2.395 . S
Dy1361 O1372 2.379 . S
Dy1361 O1375 2.339 . S
Dy1361 C1391 2.738 . S
C1362 O1374 1.254 . S
C1362 O1375 1.257 . S
O1363 Dy1360 2.307 . S
O1363 C1373 1.266 . S
O1364 Dy1361 2.298 . S
O1364 C1373 1.236 . S
O1365 Dy1360 2.395 . S
O1365 C1382 1.255 . S
O1366 Dy1360 2.379 . S
O1366 C1382 1.249 . S
O1367 Dy1361 2.275 . S
O1367 C1383 1.254 . S
O1368 Dy1360 2.339 . S
O1368 C1383 1.257 . S
O1369 Dy1361 2.307 . S
O1369 C1384 1.266 . S
O1370 Dy1360 2.298 . S
O1370 C1384 1.236 . S
O1371 Dy1361 2.395 . S
O1371 C1391 1.255 . S
O1372 Dy1361 2.379 . S
O1372 C1391 1.249 . S
C1373 O1363 1.266 . S
C1373 O1364 1.236 . S
O1374 Dy1360 2.275 . S
O1374 C1362 1.254 . S
O1375 Dy1361 2.339 . S
O1375 C1362 1.257 . S
C1376 C1379 1.344 . S
C1376 C1380 1.328 . S
C1376 C1382 1.516 . S
C1377 C1378 1.304 . S
C1377 C1381 1.323 . S
C1378 C1377 1.304 . S
C1378 C1379 1.371 . S
C1378 H1392 0.930 . S
C1379 C1376 1.344 . S
C1379 C1378 1.371 . S
C1379 H1393 0.931 . S
C1380 C1376 1.328 . S
C1380 C1381 1.433 . S
C1380 H1394 0.931 . S
C1381 C1377 1.323 . S
C1381 C1380 1.433 . S
C1381 H1395 0.933 . S
C1382 Dy1360 2.738 . S
C1382 O1365 1.255 . S
C1382 O1366 1.249 . S
C1382 C1376 1.516 . S
C1383 O1367 1.254 . S
C1383 O1368 1.257 . S
C1384 O1369 1.266 . S
C1384 O1370 1.236 . S
C1385 C1388 1.344 . S
C1385 C1389 1.328 . S
C1385 C1391 1.516 . S
C1386 C1387 1.304 . S
C1386 C1390 1.323 . S
C1387 C1386 1.304 . S
C1387 C1388 1.371 . S
C1387 H1396 0.930 . S
C1388 C1385 1.344 . S
C1388 C1387 1.371 . S
C1388 H1397 0.931 . S
C1389 C1385 1.328 . S
C1389 C1390 1.433 . S
C1389 H1398 0.931 . S
C1390 C1386 1.323 . S
C1390 C1389 1.433 . S
C1390 H1399 0.933 . S
C1391 Dy1361 2.738 . S
C1391 O1371 1.255 . S
C1391 O1372 1.249 . S
C1391 C1385 1.516 . S
H1392 C1378 0.930 . S
H1393 C1379 0.931 . S
H1394 C1380 0.931 . S
H1395 C1381 0.933 . S
H1396 C1387 0.930 . S
H1397 C1388 0.931 . S
H1398 C1389 0.931 . S
H1399 C1390 0.933 . S
Dy1400 O1403 2.307 . S
Dy1400 O1405 2.395 . S
Dy1400 O1406 2.379 . S
Dy1400 O1408 2.339 . S
Dy1400 O1410 2.298 . S
Dy1400 O1414 2.275 . S
Dy1400 C1422 2.738 . S
Dy1401 O1404 2.298 . S
Dy1401 O1407 2.275 . S
Dy1401 O1409 2.307 . S
Dy1401 O1411 2.395 . S
Dy1401 O1412 2.379 . S
Dy1401 O1415 2.339 . S
Dy1401 C1431 2.738 . S
C1402 O1414 1.254 . S
C1402 O1415 1.257 . S
O1403 Dy1400 2.307 . S
O1403 C1413 1.266 . S
O1404 Dy1401 2.298 . S
O1404 C1413 1.236 . S
O1405 Dy1400 2.395 . S
O1405 C1422 1.255 . S
O1406 Dy1400 2.379 . S
O1406 C1422 1.249 . S
O1407 Dy1401 2.275 . S
O1407 C1423 1.254 . S
O1408 Dy1400 2.339 . S
O1408 C1423 1.257 . S
O1409 Dy1401 2.307 . S
O1409 C1424 1.266 . S
O1410 Dy1400 2.298 . S
O1410 C1424 1.236 . S
O1411 Dy1401 2.395 . S
O1411 C1431 1.255 . S
O1412 Dy1401 2.379 . S
O1412 C1431 1.249 . S
C1413 O1403 1.266 . S
C1413 O1404 1.236 . S
O1414 Dy1400 2.275 . S
O1414 C1402 1.254 . S
O1415 Dy1401 2.339 . S
O1415 C1402 1.257 . S
C1416 C1419 1.344 . S
C1416 C1420 1.328 . S
C1416 C1422 1.516 . S
C1417 C1418 1.304 . S
C1417 C1421 1.323 . S
C1418 C1417 1.304 . S
C1418 C1419 1.371 . S
C1418 H1432 0.930 . S
C1419 C1416 1.344 . S
C1419 C1418 1.371 . S
C1419 H1433 0.931 . S
C1420 C1416 1.328 . S
C1420 C1421 1.433 . S
C1420 H1434 0.931 . S
C1421 C1417 1.323 . S
C1421 C1420 1.433 . S
C1421 H1435 0.933 . S
C1422 Dy1400 2.738 . S
C1422 O1405 1.255 . S
C1422 O1406 1.249 . S
C1422 C1416 1.516 . S
C1423 O1407 1.254 . S
C1423 O1408 1.257 . S
C1424 O1409 1.266 . S
C1424 O1410 1.236 . S
C1425 C1428 1.344 . S
C1425 C1429 1.328 . S
C1425 C1431 1.516 . S
C1426 C1427 1.304 . S
C1426 C1430 1.323 . S
C1427 C1426 1.304 . S
C1427 C1428 1.371 . S
C1427 H1436 0.930 . S
C1428 C1425 1.344 . S
C1428 C1427 1.371 . S
C1428 H1437 0.931 . S
C1429 C1425 1.328 . S
C1429 C1430 1.433 . S
C1429 H1438 0.931 . S
C1430 C1426 1.323 . S
C1430 C1429 1.433 . S
C1430 H1439 0.933 . S
C1431 Dy1401 2.738 . S
C1431 O1411 1.255 . S
C1431 O1412 1.249 . S
C1431 C1425 1.516 . S
H1432 C1418 0.930 . S
H1433 C1419 0.931 . S
H1434 C1420 0.931 . S
H1435 C1421 0.933 . S
H1436 C1427 0.930 . S
H1437 C1428 0.931 . S
H1438 C1429 0.931 . S
H1439 C1430 0.933 . S
H1440 C1446 0.930 . S
H1441 C1449 0.930 . S
H1442 C1450 0.930 . S
H1443 C1451 0.930 . S
H1444 C1454 0.930 . S
H1445 C1455 0.930 . S
C1446 H1440 0.930 . S
C1446 C1447 1.355 . S
C1446 C1448 1.415 . S
C1447 C1446 1.355 . S
C1447 C1449 1.419 . S
C1448 C1446 1.415 . S
C1448 C1453 1.425 . S
C1448 C1455 1.409 1_545 S
C1449 H1441 0.930 . S
C1449 C1447 1.419 . S
C1449 C1450 1.362 . S
C1450 H1442 0.930 . S
C1450 C1449 1.362 . S
C1450 C1453 1.409 . S
C1451 H1443 0.930 . S
C1451 C1452 1.355 . S
C1451 C1453 1.415 1_566 S
C1452 C1451 1.355 . S
C1452 C1454 1.419 . S
C1453 C1448 1.425 . S
C1453 C1450 1.409 . S
C1453 C1451 1.415 1_544 S
C1454 H1444 0.930 . S
C1454 C1452 1.419 . S
C1454 C1455 1.362 1_556 S
C1455 H1445 0.930 . S
C1455 C1448 1.409 1_565 S
C1455 C1454 1.362 1_554 S
H1456 C1462 0.930 1_554 S
H1457 C1465 0.930 . S
H1458 C1466 0.930 . S
H1459 C1467 0.930 . S
H1460 C1470 0.930 . S
H1461 C1471 0.930 1_455 S
C1462 H1456 0.930 1_556 S
C1462 C1463 1.355 . S
C1462 C1464 1.364 1_456 S
C1463 C1462 1.355 . S
C1463 C1465 1.419 . S
C1464 C1462 1.364 1_654 S
C1464 C1469 1.489 . S
C1464 C1471 1.401 . S
C1465 H1457 0.930 . S
C1465 C1463 1.419 . S
C1465 C1466 1.362 1_455 S
C1466 H1458 0.930 . S
C1466 C1465 1.362 1_655 S
C1466 C1469 1.409 1_556 S
C1467 H1459 0.930 . S
C1467 C1468 1.355 . S
C1467 C1469 1.415 . S
C1468 C1467 1.355 . S
C1468 C1470 1.419 . S
C1469 C1464 1.489 . S
C1469 C1466 1.409 1_554 S
C1469 C1467 1.415 . S
C1470 H1460 0.930 . S
C1470 C1468 1.419 . S
C1470 C1471 1.362 . S
C1471 H1461 0.930 1_655 S
C1471 C1464 1.401 . S
C1471 C1470 1.362 . S
H1472 C1478 0.930 . S
H1473 C1481 0.930 . S
H1474 C1482 0.930 . S
H1475 C1483 0.930 . S
H1476 C1486 0.930 . S
H1477 C1487 0.930 . S
C1478 H1472 0.930 . S
C1478 C1479 1.355 . S
C1478 C1480 1.415 1_556 S
C1479 C1478 1.355 . S
C1479 C1481 1.419 . S
C1480 C1478 1.415 1_554 S
C1480 C1485 1.425 . S
C1480 C1487 1.409 . S
C1481 H1473 0.930 . S
C1481 C1479 1.419 . S
C1481 C1482 1.362 . S
C1482 H1474 0.930 . S
C1482 C1481 1.362 . S
C1482 C1485 1.409 1_556 S
C1483 H1475 0.930 . S
C1483 C1484 1.355 . S
C1483 C1485 1.415 . S
C1484 C1483 1.355 . S
C1484 C1486 1.419 . S
C1485 C1480 1.425 . S
C1485 C1482 1.409 1_554 S
C1485 C1483 1.415 . S
C1486 H1476 0.930 . S
C1486 C1484 1.419 . S
C1486 C1487 1.362 . S
C1487 H1477 0.930 . S
C1487 C1480 1.409 . S
C1487 C1486 1.362 . S
H1488 C1494 0.930 . S
H1489 C1497 0.930 . S
H1490 C1498 0.930 . S
H1491 C1499 0.930 . S
H1492 C1502 0.930 . S
H1493 C1503 0.930 . S
C1494 H1488 0.930 . S
C1494 C1495 1.355 . S
C1494 C1496 1.415 1_655 S
C1495 C1494 1.355 . S
C1495 C1497 1.419 . S
C1496 C1494 1.415 1_455 S
C1496 C1501 1.425 . S
C1496 C1503 1.409 . S
C1497 H1489 0.930 . S
C1497 C1495 1.419 . S
C1497 C1498 1.362 1_655 S
C1498 H1490 0.930 . S
C1498 C1497 1.362 1_455 S
C1498 C1501 1.409 . S
C1499 H1491 0.930 . S
C1499 C1500 1.355 . S
C1499 C1501 1.415 . S
C1500 C1499 1.355 . S
C1500 C1502 1.419 . S
C1501 C1496 1.425 . S
C1501 C1498 1.409 . S
C1501 C1499 1.415 . S
C1502 H1492 0.930 . S
C1502 C1500 1.419 . S
C1502 C1503 1.362 . S
C1503 H1493 0.930 . S
C1503 C1496 1.409 . S
C1503 C1502 1.362 . S
H1504 C1510 0.930 . S
H1505 C1513 0.930 . S
H1506 C1514 0.930 . S
H1507 C1515 0.930 . S
H1508 C1518 0.930 . S
H1509 C1519 0.930 . S
C1510 H1504 0.930 . S
C1510 C1511 1.355 . S
C1510 C1512 1.415 . S
C1511 C1510 1.355 . S
C1511 C1513 1.419 . S
C1512 C1510 1.415 . S
C1512 C1517 1.425 . S
C1512 C1519 1.409 . S
C1513 H1505 0.930 . S
C1513 C1511 1.419 . S
C1513 C1514 1.362 . S
C1514 H1506 0.930 . S
C1514 C1513 1.362 . S
C1514 C1517 1.409 . S
C1515 H1507 0.930 . S
C1515 C1516 1.355 . S
C1515 C1517 1.415 . S
C1516 C1515 1.355 . S
C1516 C1518 1.419 . S
C1517 C1512 1.425 . S
C1517 C1514 1.409 . S
C1517 C1515 1.415 . S
C1518 H1508 0.930 . S
C1518 C1516 1.419 . S
C1518 C1519 1.362 . S
C1519 H1509 0.930 . S
C1519 C1512 1.409 . S
C1519 C1518 1.362 . S
H1520 C1526 0.930 . S
H1521 C1529 0.930 . S
H1522 C1530 0.930 1_545 S
H1523 C1531 0.930 . S
H1524 C1534 0.930 . S
H1525 C1535 0.930 . S
C1526 H1520 0.930 . S
C1526 C1527 1.355 . S
C1526 C1528 1.415 . S
C1527 C1526 1.355 . S
C1527 C1529 1.419 . S
C1528 C1526 1.415 . S
C1528 C1533 1.432 . S
C1528 C1535 1.409 . S
C1529 H1521 0.930 . S
C1529 C1527 1.419 . S
C1529 C1530 1.362 . S
C1530 H1522 0.930 1_565 S
C1530 C1529 1.362 . S
C1530 C1533 1.408 . S
C1531 H1523 0.930 . S
C1531 C1532 1.355 . S
C1531 C1533 1.409 1_545 S
C1532 C1531 1.355 . S
C1532 C1534 1.419 . S
C1533 C1528 1.432 . S
C1533 C1530 1.408 . S
C1533 C1531 1.409 1_565 S
C1534 H1524 0.930 . S
C1534 C1532 1.419 . S
C1534 C1535 1.362 1_545 S
C1535 H1525 0.930 . S
C1535 C1528 1.409 . S
C1535 C1534 1.362 1_565 S
H1536 C1542 0.930 . S
H1537 C1545 0.930 . S
H1538 C1546 0.930 1_565 S
H1539 C1547 0.930 . S
H1540 C1550 0.930 . S
H1541 C1551 0.930 . S
C1542 H1536 0.930 . S
C1542 C1543 1.355 . S
C1542 C1544 1.415 1_545 S
C1543 C1542 1.355 . S
C1543 C1545 1.419 1_554 S
C1544 C1542 1.415 1_565 S
C1544 C1549 1.425 1_554 S
C1544 C1551 1.409 . S
C1545 H1537 0.930 . S
C1545 C1543 1.419 1_556 S
C1545 C1546 1.362 . S
C1546 H1538 0.930 1_545 S
C1546 C1545 1.362 . S
C1546 C1549 1.409 1_545 S
C1547 H1539 0.930 . S
C1547 C1548 1.355 . S
C1547 C1549 1.415 . S
C1548 C1547 1.355 . S
C1548 C1550 1.419 . S
C1549 C1544 1.425 1_556 S
C1549 C1546 1.409 1_565 S
C1549 C1547 1.415 . S
C1550 H1540 0.930 . S
C1550 C1548 1.419 . S
C1550 C1551 1.362 1_556 S
C1551 H1541 0.930 . S
C1551 C1544 1.409 . S
C1551 C1550 1.362 1_554 S
H1552 C1558 0.930 . S
H1553 C1561 0.930 . S
H1554 C1562 0.930 . S
H1555 C1563 0.930 . S
H1556 C1566 0.930 . S
H1557 C1567 0.930 . S
C1558 H1552 0.930 . S
C1558 C1559 1.355 . S
C1558 C1560 1.415 . S
C1559 C1558 1.355 . S
C1559 C1561 1.419 . S
C1560 C1558 1.415 . S
C1560 C1565 1.425 1_556 S
C1560 C1567 1.409 1_455 S
C1561 H1553 0.930 . S
C1561 C1559 1.419 . S
C1561 C1562 1.362 1_556 S
C1562 H1554 0.930 . S
C1562 C1561 1.362 1_554 S
C1562 C1565 1.409 . S
C1563 H1555 0.930 . S
C1563 C1564 1.355 . S
C1563 C1565 1.415 1_655 S
C1564 C1563 1.355 . S
C1564 C1566 1.419 1_554 S
C1565 C1560 1.425 1_554 S
C1565 C1562 1.409 . S
C1565 C1563 1.415 1_455 S
C1566 H1556 0.930 . S
C1566 C1564 1.419 1_556 S
C1566 C1567 1.362 . S
C1567 H1557 0.930 . S
C1567 C1560 1.409 1_655 S
C1567 C1566 1.362 . S
H1568 C1574 0.930 . S
H1569 C1577 0.930 . S
H1570 C1578 0.931 . S
H1571 C1579 0.930 . S
H1572 C1582 0.930 . S
H1573 C1583 0.930 . S
C1574 H1568 0.930 . S
C1574 C1575 1.355 . S
C1574 C1576 1.415 1_554 S
C1575 C1574 1.355 . S
C1575 C1577 1.419 . S
C1576 C1574 1.415 1_556 S
C1576 C1581 1.425 . S
C1576 C1583 1.409 . S
C1577 H1569 0.930 . S
C1577 C1575 1.419 . S
C1577 C1578 1.359 1_554 S
C1578 H1570 0.931 . S
C1578 C1577 1.359 1_556 S
C1578 C1581 1.412 . S
C1579 H1571 0.930 . S
C1579 C1580 1.355 . S
C1579 C1581 1.415 . S
C1580 C1579 1.355 . S
C1580 C1582 1.419 . S
C1581 C1576 1.425 . S
C1581 C1578 1.412 . S
C1581 C1579 1.415 . S
C1582 H1572 0.930 . S
C1582 C1580 1.419 . S
C1582 C1583 1.362 . S
C1583 H1573 0.930 . S
C1583 C1576 1.409 . S
C1583 C1582 1.362 . S
H1584 C1590 0.930 . S
H1585 C1593 0.930 . S
H1586 C1594 0.888 1_655 S
H1587 C1595 0.930 . S
H1588 C1598 0.930 . S
H1589 C1599 0.930 . S
C1590 H1584 0.930 . S
C1590 C1591 1.355 . S
C1590 C1592 1.415 1_455 S
C1591 C1590 1.355 . S
C1591 C1593 1.419 . S
C1592 C1590 1.415 1_655 S
C1592 C1597 1.425 . S
C1592 C1599 1.409 . S
C1593 H1585 0.930 . S
C1593 C1591 1.419 . S
C1593 C1594 1.362 . S
C1594 H1586 0.888 1_455 S
C1594 C1593 1.362 . S
C1594 C1597 1.409 1_455 S
C1595 H1587 0.930 . S
C1595 C1596 1.355 . S
C1595 C1597 1.415 . S
C1596 C1595 1.355 . S
C1596 C1598 1.419 . S
C1597 C1592 1.425 . S
C1597 C1594 1.409 1_655 S
C1597 C1595 1.415 . S
C1598 H1588 0.930 . S
C1598 C1596 1.419 . S
C1598 C1599 1.362 . S
C1599 H1589 0.930 . S
C1599 C1592 1.409 . S
C1599 C1598 1.362 . S
H1600 C1606 0.930 . S
H1601 C1609 0.930 . S
H1602 C1610 0.930 . S
H1603 C1611 0.930 . S
H1604 C1614 0.930 . S
H1605 C1615 0.930 . S
C1606 H1600 0.930 . S
C1606 C1607 1.355 . S
C1606 C1608 1.415 . S
C1607 C1606 1.355 . S
C1607 C1609 1.419 . S
C1608 C1606 1.415 . S
C1608 C1613 1.425 . S
C1608 C1615 1.409 . S
C1609 H1601 0.930 . S
C1609 C1607 1.419 . S
C1609 C1610 1.362 . S
C1610 H1602 0.930 . S
C1610 C1609 1.362 . S
C1610 C1613 1.409 . S
C1611 H1603 0.930 . S
C1611 C1612 1.355 . S
C1611 C1613 1.415 . S
C1612 C1611 1.355 . S
C1612 C1614 1.419 . S
C1613 C1608 1.425 . S
C1613 C1610 1.409 . S
C1613 C1611 1.415 . S
C1614 H1604 0.930 . S
C1614 C1612 1.419 . S
C1614 C1615 1.362 . S
C1615 H1605 0.930 . S
C1615 C1608 1.409 . S
C1615 C1614 1.362 . S
H1616 C1622 0.930 . S
H1617 C1625 0.930 . S
H1618 C1626 0.930 . S
H1619 C1627 0.930 . S
H1620 C1630 0.930 . S
H1621 C1631 0.930 . S
C1622 H1616 0.930 . S
C1622 C1623 1.355 . S
C1622 C1624 1.415 . S
C1623 C1622 1.355 . S
C1623 C1625 1.419 . S
C1624 C1622 1.415 . S
C1624 C1629 1.425 . S
C1624 C1631 1.409 1_545 S
C1625 H1617 0.930 . S
C1625 C1623 1.419 . S
C1625 C1626 1.362 . S
C1626 H1618 0.930 . S
C1626 C1625 1.362 . S
C1626 C1629 1.409 . S
C1627 H1619 0.930 . S
C1627 C1628 1.355 . S
C1627 C1629 1.415 1_565 S
C1628 C1627 1.355 . S
C1628 C1630 1.419 . S
C1629 C1624 1.425 . S
C1629 C1626 1.409 . S
C1629 C1627 1.415 1_545 S
C1630 H1620 0.930 . S
C1630 C1628 1.419 . S
C1630 C1631 1.362 . S
C1631 H1621 0.930 . S
C1631 C1624 1.409 1_565 S
C1631 C1630 1.362 . S
H1632 C1638 0.930 . S
H1633 C1641 0.930 . S
H1634 C1642 0.930 . S
H1635 C1643 0.930 . S
H1636 C1646 0.930 . S
H1637 C1647 0.930 . S
C1638 H1632 0.930 . S
C1638 C1639 1.355 . S
C1638 C1640 1.415 . S
C1639 C1638 1.355 . S
C1639 C1641 1.419 . S
C1640 C1638 1.415 . S
C1640 C1645 1.425 . S
C1640 C1647 1.409 . S
C1641 H1633 0.930 . S
C1641 C1639 1.419 . S
C1641 C1642 1.362 . S
C1642 H1634 0.930 . S
C1642 C1641 1.362 . S
C1642 C1645 1.409 . S
C1643 H1635 0.930 . S
C1643 C1644 1.355 . S
C1643 C1645 1.415 . S
C1644 C1643 1.355 . S
C1644 C1646 1.419 . S
C1645 C1640 1.425 . S
C1645 C1642 1.409 . S
C1645 C1643 1.415 . S
C1646 H1636 0.930 . S
C1646 C1644 1.419 . S
C1646 C1647 1.362 . S
C1647 H1637 0.930 . S
C1647 C1640 1.409 . S
C1647 C1646 1.362 . S
H1648 C1654 0.930 . S
H1649 C1657 0.930 . S
H1650 C1658 0.930 . S
H1651 C1659 0.930 . S
H1652 C1662 0.930 . S
H1653 C1663 0.930 . S
C1654 H1648 0.930 . S
C1654 C1655 1.355 . S
C1654 C1656 1.415 . S
C1655 C1654 1.355 . S
C1655 C1657 1.419 . S
C1656 C1654 1.415 . S
C1656 C1661 1.425 . S
C1656 C1663 1.409 . S
C1657 H1649 0.930 . S
C1657 C1655 1.419 . S
C1657 C1658 1.362 . S
C1658 H1650 0.930 . S
C1658 C1657 1.362 . S
C1658 C1661 1.409 . S
C1659 H1651 0.930 . S
C1659 C1660 1.355 . S
C1659 C1661 1.415 . S
C1660 C1659 1.355 . S
C1660 C1662 1.419 . S
C1661 C1656 1.425 . S
C1661 C1658 1.409 . S
C1661 C1659 1.415 . S
C1662 H1652 0.930 . S
C1662 C1660 1.419 . S
C1662 C1663 1.362 . S
C1663 H1653 0.930 . S
C1663 C1656 1.409 . S
C1663 C1662 1.362 . S
H1664 C1670 0.930 . S
H1665 C1673 0.930 . S
H1666 C1674 0.930 . S
H1667 C1675 0.930 . S
H1668 C1678 0.930 . S
H1669 C1679 0.930 . S
C1670 H1664 0.930 . S
C1670 C1671 1.355 . S
C1670 C1672 1.415 . S
C1671 C1670 1.355 . S
C1671 C1673 1.419 . S
C1672 C1670 1.415 . S
C1672 C1677 1.425 . S
C1672 C1679 1.409 . S
C1673 H1665 0.930 . S
C1673 C1671 1.419 . S
C1673 C1674 1.362 . S
C1674 H1666 0.930 . S
C1674 C1673 1.362 . S
C1674 C1677 1.409 . S
C1675 H1667 0.930 . S
C1675 C1676 1.355 . S
C1675 C1677 1.415 . S
C1676 C1675 1.355 . S
C1676 C1678 1.419 . S
C1677 C1672 1.425 . S
C1677 C1674 1.409 . S
C1677 C1675 1.415 . S
C1678 H1668 0.930 . S
C1678 C1676 1.419 . S
C1678 C1679 1.362 . S
C1679 H1669 0.930 . S
C1679 C1672 1.409 . S
C1679 C1678 1.362 . S
H1680 C1686 0.930 . S
H1681 C1689 0.930 . S
H1682 C1690 0.930 . S
H1683 C1691 0.930 . S
H1684 C1694 0.930 . S
H1685 C1695 0.930 . S
C1686 H1680 0.930 . S
C1686 C1687 1.355 . S
C1686 C1688 1.415 . S
C1687 C1686 1.355 . S
C1687 C1689 1.419 . S
C1688 C1686 1.415 . S
C1688 C1693 1.425 . S
C1688 C1695 1.409 . S
C1689 H1681 0.930 . S
C1689 C1687 1.419 . S
C1689 C1690 1.362 . S
C1690 H1682 0.930 . S
C1690 C1689 1.362 . S
C1690 C1693 1.409 . S
C1691 H1683 0.930 . S
C1691 C1692 1.355 . S
C1691 C1693 1.415 . S
C1692 C1691 1.355 . S
C1692 C1694 1.419 . S
C1693 C1688 1.425 . S
C1693 C1690 1.409 . S
C1693 C1691 1.415 . S
C1694 H1684 0.930 . S
C1694 C1692 1.419 . S
C1694 C1695 1.362 . S
C1695 H1685 0.930 . S
C1695 C1688 1.409 . S
C1695 C1694 1.362 . S
H1696 C1702 0.930 . S
H1697 C1705 0.930 . S
H1698 C1706 0.930 . S
H1699 C1707 0.930 . S
H1700 C1710 0.930 . S
H1701 C1711 0.930 . S
C1702 H1696 0.930 . S
C1702 C1703 1.355 . S
C1702 C1704 1.415 . S
C1703 C1702 1.355 . S
C1703 C1705 1.419 . S
C1704 C1702 1.415 . S
C1704 C1709 1.425 . S
C1704 C1711 1.409 . S
C1705 H1697 0.930 . S
C1705 C1703 1.419 . S
C1705 C1706 1.362 . S
C1706 H1698 0.930 . S
C1706 C1705 1.362 . S
C1706 C1709 1.409 . S
C1707 H1699 0.930 . S
C1707 C1708 1.355 . S
C1707 C1709 1.415 . S
C1708 C1707 1.355 . S
C1708 C1710 1.419 . S
C1709 C1704 1.425 . S
C1709 C1706 1.409 . S
C1709 C1707 1.415 . S
C1710 H1700 0.930 . S
C1710 C1708 1.419 . S
C1710 C1711 1.362 . S
C1711 H1701 0.930 . S
C1711 C1704 1.409 . S
C1711 C1710 1.362 . S
H1712 C1718 0.930 . S
H1713 C1721 0.930 . S
H1714 C1722 0.930 . S
H1715 C1723 0.930 . S
H1716 C1726 0.930 . S
H1717 C1727 0.930 . S
C1718 H1712 0.930 . S
C1718 C1719 1.355 . S
C1718 C1720 1.415 . S
C1719 C1718 1.355 . S
C1719 C1721 1.419 . S
C1720 C1718 1.415 . S
C1720 C1725 1.425 . S
C1720 C1727 1.409 . S
C1721 H1713 0.930 . S
C1721 C1719 1.419 . S
C1721 C1722 1.362 . S
C1722 H1714 0.930 . S
C1722 C1721 1.362 . S
C1722 C1725 1.409 . S
C1723 H1715 0.930 . S
C1723 C1724 1.355 . S
C1723 C1725 1.415 . S
C1724 C1723 1.355 . S
C1724 C1726 1.419 . S
C1725 C1720 1.425 . S
C1725 C1722 1.409 . S
C1725 C1723 1.415 . S
C1726 H1716 0.930 . S
C1726 C1724 1.419 . S
C1726 C1727 1.362 . S
C1727 H1717 0.930 . S
C1727 C1720 1.409 . S
C1727 C1726 1.362 . S
H1728 C1734 0.930 . S
H1729 C1737 0.930 . S
H1730 C1738 0.930 . S
H1731 C1739 0.930 . S
H1732 C1742 0.930 . S
H1733 C1743 0.930 . S
C1734 H1728 0.930 . S
C1734 C1735 1.355 . S
C1734 C1736 1.415 . S
C1735 C1734 1.355 . S
C1735 C1737 1.419 . S
C1736 C1734 1.415 . S
C1736 C1741 1.425 . S
C1736 C1743 1.409 . S
C1737 H1729 0.930 . S
C1737 C1735 1.419 . S
C1737 C1738 1.362 . S
C1738 H1730 0.930 . S
C1738 C1737 1.362 . S
C1738 C1741 1.409 . S
C1739 H1731 0.930 . S
C1739 C1740 1.355 . S
C1739 C1741 1.415 . S
C1740 C1739 1.355 . S
C1740 C1742 1.419 . S
C1741 C1736 1.425 . S
C1741 C1738 1.409 . S
C1741 C1739 1.415 . S
C1742 H1732 0.930 . S
C1742 C1740 1.419 . S
C1742 C1743 1.362 . S
C1743 H1733 0.930 . S
C1743 C1736 1.409 . S
C1743 C1742 1.362 . S
H1744 C1750 0.930 . S
H1745 C1753 0.930 . S
H1746 C1754 0.930 . S
H1747 C1755 0.930 . S
H1748 C1758 0.930 . S
H1749 C1759 0.930 . S
C1750 H1744 0.930 . S
C1750 C1751 1.355 . S
C1750 C1752 1.415 . S
C1751 C1750 1.355 . S
C1751 C1753 1.419 . S
C1752 C1750 1.415 . S
C1752 C1757 1.425 . S
C1752 C1759 1.409 . S
C1753 H1745 0.930 . S
C1753 C1751 1.419 . S
C1753 C1754 1.362 . S
C1754 H1746 0.930 . S
C1754 C1753 1.362 . S
C1754 C1757 1.409 . S
C1755 H1747 0.930 . S
C1755 C1756 1.355 . S
C1755 C1757 1.415 . S
C1756 C1755 1.355 . S
C1756 C1758 1.419 . S
C1757 C1752 1.425 . S
C1757 C1754 1.409 . S
C1757 C1755 1.415 . S
C1758 H1748 0.930 . S
C1758 C1756 1.419 . S
C1758 C1759 1.362 . S
C1759 H1749 0.930 . S
C1759 C1752 1.409 . S
C1759 C1758 1.362 . S
H1760 C1766 0.930 . S
H1761 C1769 0.930 . S
H1762 C1770 0.930 . S
H1763 C1771 0.930 . S
H1764 C1774 0.930 . S
H1765 C1775 0.930 . S
C1766 H1760 0.930 . S
C1766 C1767 1.355 . S
C1766 C1768 1.415 . S
C1767 C1766 1.355 . S
C1767 C1769 1.419 . S
C1768 C1766 1.415 . S
C1768 C1773 1.425 . S
C1768 C1775 1.409 . S
C1769 H1761 0.930 . S
C1769 C1767 1.419 . S
C1769 C1770 1.362 . S
C1770 H1762 0.930 . S
C1770 C1769 1.362 . S
C1770 C1773 1.409 . S
C1771 H1763 0.930 . S
C1771 C1772 1.355 . S
C1771 C1773 1.415 . S
C1772 C1771 1.355 . S
C1772 C1774 1.419 . S
C1773 C1768 1.425 . S
C1773 C1770 1.409 . S
C1773 C1771 1.415 . S
C1774 H1764 0.930 . S
C1774 C1772 1.419 . S
C1774 C1775 1.362 . S
C1775 H1765 0.930 . S
C1775 C1768 1.409 . S
C1775 C1774 1.362 . S
H1776 C1782 0.930 . S
H1777 C1785 0.930 . S
H1778 C1786 0.930 . S
H1779 C1787 0.930 . S
H1780 C1790 0.930 . S
H1781 C1791 0.930 . S
C1782 H1776 0.930 . S
C1782 C1783 1.355 . S
C1782 C1784 1.415 . S
C1783 C1782 1.355 . S
C1783 C1785 1.419 . S
C1784 C1782 1.415 . S
C1784 C1789 1.425 . S
C1784 C1791 1.409 . S
C1785 H1777 0.930 . S
C1785 C1783 1.419 . S
C1785 C1786 1.362 . S
C1786 H1778 0.930 . S
C1786 C1785 1.362 . S
C1786 C1789 1.409 . S
C1787 H1779 0.930 . S
C1787 C1788 1.355 . S
C1787 C1789 1.415 . S
C1788 C1787 1.355 . S
C1788 C1790 1.419 . S
C1789 C1784 1.425 . S
C1789 C1786 1.409 . S
C1789 C1787 1.415 . S
C1790 H1780 0.930 . S
C1790 C1788 1.419 . S
C1790 C1791 1.362 . S
C1791 H1781 0.930 . S
C1791 C1784 1.409 . S
C1791 C1790 1.362 . S
H1792 C1798 0.930 . S
H1793 C1801 0.930 . S
H1794 C1802 0.930 . S
H1795 C1803 0.930 . S
H1796 C1806 0.930 . S
H1797 C1807 0.930 . S
C1798 H1792 0.930 . S
C1798 C1799 1.355 . S
C1798 C1800 1.415 . S
C1799 C1798 1.355 . S
C1799 C1801 1.419 . S
C1800 C1798 1.415 . S
C1800 C1805 1.425 . S
C1800 C1807 1.409 . S
C1801 H1793 0.930 . S
C1801 C1799 1.419 . S
C1801 C1802 1.362 . S
C1802 H1794 0.930 . S
C1802 C1801 1.362 . S
C1802 C1805 1.409 . S
C1803 H1795 0.930 . S
C1803 C1804 1.355 . S
C1803 C1805 1.415 . S
C1804 C1803 1.355 . S
C1804 C1806 1.419 . S
C1805 C1800 1.425 . S
C1805 C1802 1.409 . S
C1805 C1803 1.415 . S
C1806 H1796 0.930 . S
C1806 C1804 1.419 . S
C1806 C1807 1.362 . S
C1807 H1797 0.930 . S
C1807 C1800 1.409 . S
C1807 C1806 1.362 . S
H1808 C1814 0.930 . S
H1809 C1817 0.930 . S
H1810 C1818 0.930 . S
H1811 C1819 0.930 . S
H1812 C1822 0.930 . S
H1813 C1823 0.930 . S
C1814 H1808 0.930 . S
C1814 C1815 1.355 . S
C1814 C1816 1.415 . S
C1815 C1814 1.355 . S
C1815 C1817 1.419 . S
C1816 C1814 1.415 . S
C1816 C1821 1.425 . S
C1816 C1823 1.409 . S
C1817 H1809 0.930 . S
C1817 C1815 1.419 . S
C1817 C1818 1.362 . S
C1818 H1810 0.930 . S
C1818 C1817 1.362 . S
C1818 C1821 1.409 . S
C1819 H1811 0.930 . S
C1819 C1820 1.355 . S
C1819 C1821 1.415 . S
C1820 C1819 1.355 . S
C1820 C1822 1.419 . S
C1821 C1816 1.425 . S
C1821 C1818 1.409 . S
C1821 C1819 1.415 . S
C1822 H1812 0.930 . S
C1822 C1820 1.419 . S
C1822 C1823 1.362 . S
C1823 H1813 0.930 . S
C1823 C1816 1.409 . S
C1823 C1822 1.362 . S
H1824 C1830 0.930 . S
H1825 C1833 0.930 . S
H1826 C1834 0.930 . S
H1827 C1835 0.930 . S
H1828 C1838 0.930 . S
H1829 C1839 0.930 . S
C1830 H1824 0.930 . S
C1830 C1831 1.355 . S
C1830 C1832 1.415 . S
C1831 C1830 1.355 . S
C1831 C1833 1.419 . S
C1832 C1830 1.415 . S
C1832 C1837 1.425 . S
C1832 C1839 1.409 . S
C1833 H1825 0.930 . S
C1833 C1831 1.419 . S
C1833 C1834 1.362 . S
C1834 H1826 0.930 . S
C1834 C1833 1.362 . S
C1834 C1837 1.409 . S
C1835 H1827 0.930 . S
C1835 C1836 1.355 . S
C1835 C1837 1.415 . S
C1836 C1835 1.355 . S
C1836 C1838 1.419 . S
C1837 C1832 1.425 . S
C1837 C1834 1.409 . S
C1837 C1835 1.415 . S
C1838 H1828 0.930 . S
C1838 C1836 1.419 . S
C1838 C1839 1.362 . S
C1839 H1829 0.930 . S
C1839 C1832 1.409 . S
C1839 C1838 1.362 . S
H1840 C1846 0.930 . S
H1841 C1849 0.930 . S
H1842 C1850 0.930 . S
H1843 C1851 0.930 . S
H1844 C1854 0.930 . S
H1845 C1855 0.930 . S
C1846 H1840 0.930 . S
C1846 C1847 1.355 . S
C1846 C1848 1.415 . S
C1847 C1846 1.355 . S
C1847 C1849 1.419 . S
C1848 C1846 1.415 . S
C1848 C1853 1.425 . S
C1848 C1855 1.409 . S
C1849 H1841 0.930 . S
C1849 C1847 1.419 . S
C1849 C1850 1.362 . S
C1850 H1842 0.930 . S
C1850 C1849 1.362 . S
C1850 C1853 1.409 . S
C1851 H1843 0.930 . S
C1851 C1852 1.355 . S
C1851 C1853 1.415 . S
C1852 C1851 1.355 . S
C1852 C1854 1.419 . S
C1853 C1848 1.425 . S
C1853 C1850 1.409 . S
C1853 C1851 1.415 . S
C1854 H1844 0.930 . S
C1854 C1852 1.419 . S
C1854 C1855 1.362 . S
C1855 H1845 0.930 . S
C1855 C1848 1.409 . S
C1855 C1854 1.362 . S
H1856 C1862 0.930 . S
H1857 C1865 0.930 . S
H1858 C1866 0.930 . S
H1859 C1867 0.930 . S
H1860 C1870 0.930 . S
H1861 C1871 0.930 . S
C1862 H1856 0.930 . S
C1862 C1863 1.355 . S
C1862 C1864 1.415 . S
C1863 C1862 1.355 . S
C1863 C1865 1.419 . S
C1864 C1862 1.415 . S
C1864 C1869 1.425 . S
C1864 C1871 1.409 . S
C1865 H1857 0.930 . S
C1865 C1863 1.419 . S
C1865 C1866 1.362 . S
C1866 H1858 0.930 . S
C1866 C1865 1.362 . S
C1866 C1869 1.409 . S
C1867 H1859 0.930 . S
C1867 C1868 1.355 . S
C1867 C1869 1.415 . S
C1868 C1867 1.355 . S
C1868 C1870 1.419 . S
C1869 C1864 1.425 . S
C1869 C1866 1.409 . S
C1869 C1867 1.415 . S
C1870 H1860 0.930 . S
C1870 C1868 1.419 . S
C1870 C1871 1.362 . S
C1871 H1861 0.930 . S
C1871 C1864 1.409 . S
C1871 C1870 1.362 . S
H1872 C1878 0.930 . S
H1873 C1881 0.930 . S
H1874 C1882 0.930 . S
H1875 C1883 0.930 . S
H1876 C1886 0.930 . S
H1877 C1887 0.930 . S
C1878 H1872 0.930 . S
C1878 C1879 1.355 . S
C1878 C1880 1.415 . S
C1879 C1878 1.355 . S
C1879 C1881 1.419 . S
C1880 C1878 1.415 . S
C1880 C1885 1.425 . S
C1880 C1887 1.409 . S
C1881 H1873 0.930 . S
C1881 C1879 1.419 . S
C1881 C1882 1.362 . S
C1882 H1874 0.930 . S
C1882 C1881 1.362 . S
C1882 C1885 1.409 . S
C1883 H1875 0.930 . S
C1883 C1884 1.355 . S
C1883 C1885 1.415 . S
C1884 C1883 1.355 . S
C1884 C1886 1.419 . S
C1885 C1880 1.425 . S
C1885 C1882 1.409 . S
C1885 C1883 1.415 . S
C1886 H1876 0.930 . S
C1886 C1884 1.419 . S
C1886 C1887 1.362 . S
C1887 H1877 0.930 . S
C1887 C1880 1.409 . S
C1887 C1886 1.362 . S
H1888 C1894 0.930 . S
H1889 C1897 0.930 . S
H1890 C1898 0.930 . S
H1891 C1899 0.930 . S
H1892 C1902 0.930 . S
H1893 C1903 0.930 . S
C1894 H1888 0.930 . S
C1894 C1895 1.355 . S
C1894 C1896 1.415 . S
C1895 C1894 1.355 . S
C1895 C1897 1.419 . S
C1896 C1894 1.415 . S
C1896 C1901 1.425 . S
C1896 C1903 1.409 . S
C1897 H1889 0.930 . S
C1897 C1895 1.419 . S
C1897 C1898 1.362 . S
C1898 H1890 0.930 . S
C1898 C1897 1.362 . S
C1898 C1901 1.409 . S
C1899 H1891 0.930 . S
C1899 C1900 1.355 . S
C1899 C1901 1.415 . S
C1900 C1899 1.355 . S
C1900 C1902 1.419 . S
C1901 C1896 1.425 . S
C1901 C1898 1.409 . S
C1901 C1899 1.415 . S
C1902 H1892 0.930 . S
C1902 C1900 1.419 . S
C1902 C1903 1.362 . S
C1903 H1893 0.930 . S
C1903 C1896 1.409 . S
C1903 C1902 1.362 . S
H1904 C1910 0.930 . S
H1905 C1913 0.930 . S
H1906 C1914 0.930 . S
H1907 C1915 0.930 . S
H1908 C1918 0.930 . S
H1909 C1919 0.930 . S
C1910 H1904 0.930 . S
C1910 C1911 1.355 . S
C1910 C1912 1.415 . S
C1911 C1910 1.355 . S
C1911 C1913 1.419 . S
C1912 C1910 1.415 . S
C1912 C1917 1.425 . S
C1912 C1919 1.409 . S
C1913 H1905 0.930 . S
C1913 C1911 1.419 . S
C1913 C1914 1.362 . S
C1914 H1906 0.930 . S
C1914 C1913 1.362 . S
C1914 C1917 1.409 . S
C1915 H1907 0.930 . S
C1915 C1916 1.355 . S
C1915 C1917 1.415 . S
C1916 C1915 1.355 . S
C1916 C1918 1.419 . S
C1917 C1912 1.425 . S
C1917 C1914 1.409 . S
C1917 C1915 1.415 . S
C1918 H1908 0.930 . S
C1918 C1916 1.419 . S
C1918 C1919 1.362 . S
C1919 H1909 0.930 . S
C1919 C1912 1.409 . S
C1919 C1918 1.362 . S
H1920 C1926 0.930 . S
H1921 C1929 0.930 . S
H1922 C1930 0.930 . S
H1923 C1931 0.930 . S
H1924 C1934 0.930 . S
H1925 C1935 0.930 . S
C1926 H1920 0.930 . S
C1926 C1927 1.355 . S
C1926 C1928 1.415 . S
C1927 C1926 1.355 . S
C1927 C1929 1.419 . S
C1928 C1926 1.415 . S
C1928 C1933 1.425 . S
C1928 C1935 1.409 . S
C1929 H1921 0.930 . S
C1929 C1927 1.419 . S
C1929 C1930 1.362 . S
C1930 H1922 0.930 . S
C1930 C1929 1.362 . S
C1930 C1933 1.409 . S
C1931 H1923 0.930 . S
C1931 C1932 1.355 . S
C1931 C1933 1.415 . S
C1932 C1931 1.355 . S
C1932 C1934 1.419 . S
C1933 C1928 1.425 . S
C1933 C1930 1.409 . S
C1933 C1931 1.415 . S
C1934 H1924 0.930 . S
C1934 C1932 1.419 . S
C1934 C1935 1.362 . S
C1935 H1925 0.930 . S
C1935 C1928 1.409 . S
C1935 C1934 1.362 . S
H1936 C1942 0.930 . S
H1937 C1945 0.930 . S
H1938 C1946 0.930 . S
H1939 C1947 0.930 . S
H1940 C1950 0.930 . S
H1941 C1951 0.930 . S
C1942 H1936 0.930 . S
C1942 C1943 1.355 . S
C1942 C1944 1.415 . S
C1943 C1942 1.355 . S
C1943 C1945 1.419 . S
C1944 C1942 1.415 . S
C1944 C1949 1.425 . S
C1944 C1951 1.409 . S
C1945 H1937 0.930 . S
C1945 C1943 1.419 . S
C1945 C1946 1.362 . S
C1946 H1938 0.930 . S
C1946 C1945 1.362 . S
C1946 C1949 1.409 . S
C1947 H1939 0.930 . S
C1947 C1948 1.355 . S
C1947 C1949 1.415 . S
C1948 C1947 1.355 . S
C1948 C1950 1.419 . S
C1949 C1944 1.425 . S
C1949 C1946 1.409 . S
C1949 C1947 1.415 . S
C1950 H1940 0.930 . S
C1950 C1948 1.419 . S
C1950 C1951 1.362 . S
C1951 H1941 0.930 . S
C1951 C1944 1.409 . S
C1951 C1950 1.362 . S
H1952 C1958 0.930 . S
H1953 C1961 0.930 . S
H1954 C1962 0.930 . S
H1955 C1963 0.930 . S
H1956 C1966 0.930 . S
H1957 C1967 0.930 . S
C1958 H1952 0.930 . S
C1958 C1959 1.355 . S
C1958 C1960 1.415 . S
C1959 C1958 1.355 . S
C1959 C1961 1.419 . S
C1960 C1958 1.415 . S
C1960 C1965 1.425 . S
C1960 C1967 1.409 . S
C1961 H1953 0.930 . S
C1961 C1959 1.419 . S
C1961 C1962 1.362 . S
C1962 H1954 0.930 . S
C1962 C1961 1.362 . S
C1962 C1965 1.409 . S
C1963 H1955 0.930 . S
C1963 C1964 1.355 . S
C1963 C1965 1.415 . S
C1964 C1963 1.355 . S
C1964 C1966 1.419 . S
C1965 C1960 1.425 . S
C1965 C1962 1.409 . S
C1965 C1963 1.415 . S
C1966 H1956 0.930 . S
C1966 C1964 1.419 . S
C1966 C1967 1.362 . S
C1967 H1957 0.930 . S
C1967 C1960 1.409 . S
C1967 C1966 1.362 . S
H1968 C1974 0.930 . S
H1969 C1977 0.930 . S
H1970 C1978 0.930 . S
H1971 C1979 0.930 . S
H1972 C1982 0.930 . S
H1973 C1983 0.930 . S
C1974 H1968 0.930 . S
C1974 C1975 1.355 . S
C1974 C1976 1.415 . S
C1975 C1974 1.355 . S
C1975 C1977 1.419 . S
C1976 C1974 1.415 . S
C1976 C1981 1.425 . S
C1976 C1983 1.409 . S
C1977 H1969 0.930 . S
C1977 C1975 1.419 . S
C1977 C1978 1.362 . S
C1978 H1970 0.930 . S
C1978 C1977 1.362 . S
C1978 C1981 1.409 . S
C1979 H1971 0.930 . S
C1979 C1980 1.355 . S
C1979 C1981 1.415 . S
C1980 C1979 1.355 . S
C1980 C1982 1.419 . S
C1981 C1976 1.425 . S
C1981 C1978 1.409 . S
C1981 C1979 1.415 . S
C1982 H1972 0.930 . S
C1982 C1980 1.419 . S
C1982 C1983 1.362 . S
C1983 H1973 0.930 . S
C1983 C1976 1.409 . S
C1983 C1982 1.362 . S
H1984 C1990 0.930 . S
H1985 C1993 0.930 . S
H1986 C1994 0.930 . S
H1987 C1995 0.930 . S
H1988 C1998 0.930 . S
H1989 C1999 0.930 . S
C1990 H1984 0.930 . S
C1990 C1991 1.355 . S
C1990 C1992 1.415 . S
C1991 C1990 1.355 . S
C1991 C1993 1.419 . S
C1992 C1990 1.415 . S
C1992 C1997 1.425 . S
C1992 C1999 1.409 . S
C1993 H1985 0.930 . S
C1993 C1991 1.419 . S
C1993 C1994 1.362 . S
C1994 H1986 0.930 . S
C1994 C1993 1.362 . S
C1994 C1997 1.409 . S
C1995 H1987 0.930 . S
C1995 C1996 1.355 . S
C1995 C1997 1.415 . S
C1996 C1995 1.355 . S
C1996 C1998 1.419 . S
C1997 C1992 1.425 . S
C1997 C1994 1.409 . S
C1997 C1995 1.415 . S
C1998 H1988 0.930 . S
C1998 C1996 1.419 . S
C1998 C1999 1.362 . S
C1999 H1989 0.930 . S
C1999 C1992 1.409 . S
C1999 C1998 1.362 . S
H2000 C2006 0.930 . S
H2001 C2009 0.930 . S
H2002 C2010 0.930 . S
H2003 C2011 0.930 . S
H2004 C2014 0.930 . S
H2005 C2015 0.930 . S
C2006 H2000 0.930 . S
C2006 C2007 1.355 . S
C2006 C2008 1.415 . S
C2007 C2006 1.355 . S
C2007 C2009 1.419 . S
C2008 C2006 1.415 . S
C2008 C2013 1.425 . S
C2008 C2015 1.409 . S
C2009 H2001 0.930 . S
C2009 C2007 1.419 . S
C2009 C2010 1.362 . S
C2010 H2002 0.930 . S
C2010 C2009 1.362 . S
C2010 C2013 1.409 . S
C2011 H2003 0.930 . S
C2011 C2012 1.355 . S
C2011 C2013 1.415 . S
C2012 C2011 1.355 . S
C2012 C2014 1.419 . S
C2013 C2008 1.425 . S
C2013 C2010 1.409 . S
C2013 C2011 1.415 . S
C2014 H2004 0.930 . S
C2014 C2012 1.419 . S
C2014 C2015 1.362 . S
C2015 H2005 0.930 . S
C2015 C2008 1.409 . S
C2015 C2014 1.362 . S
H2016 C2022 0.930 . S
H2017 C2025 0.930 . S
H2018 C2026 0.930 . S
H2019 C2027 0.930 . S
H2020 C2030 0.930 . S
H2021 C2031 0.930 . S
C2022 H2016 0.930 . S
C2022 C2023 1.355 . S
C2022 C2024 1.415 . S
C2023 C2022 1.355 . S
C2023 C2025 1.419 . S
C2024 C2022 1.415 . S
C2024 C2029 1.425 . S
C2024 C2031 1.409 . S
C2025 H2017 0.930 . S
C2025 C2023 1.419 . S
C2025 C2026 1.362 . S
C2026 H2018 0.930 . S
C2026 C2025 1.362 . S
C2026 C2029 1.409 . S
C2027 H2019 0.930 . S
C2027 C2028 1.355 . S
C2027 C2029 1.415 . S
C2028 C2027 1.355 . S
C2028 C2030 1.419 . S
C2029 C2024 1.425 . S
C2029 C2026 1.409 . S
C2029 C2027 1.415 . S
C2030 H2020 0.930 . S
C2030 C2028 1.419 . S
C2030 C2031 1.362 . S
C2031 H2021 0.930 . S
C2031 C2024 1.409 . S
C2031 C2030 1.362 . S
H2032 C2038 0.930 . S
H2033 C2041 0.930 . S
H2034 C2042 0.930 . S
H2035 C2043 0.930 . S
H2036 C2046 0.930 . S
H2037 C2047 0.930 . S
C2038 H2032 0.930 . S
C2038 C2039 1.355 . S
C2038 C2040 1.415 . S
C2039 C2038 1.355 . S
C2039 C2041 1.419 . S
C2040 C2038 1.415 . S
C2040 C2045 1.425 . S
C2040 C2047 1.409 . S
C2041 H2033 0.930 . S
C2041 C2039 1.419 . S
C2041 C2042 1.362 . S
C2042 H2034 0.930 . S
C2042 C2041 1.362 . S
C2042 C2045 1.409 . S
C2043 H2035 0.930 . S
C2043 C2044 1.355 . S
C2043 C2045 1.415 . S
C2044 C2043 1.355 . S
C2044 C2046 1.419 . S
C2045 C2040 1.425 . S
C2045 C2042 1.409 . S
C2045 C2043 1.415 . S
C2046 H2036 0.930 . S
C2046 C2044 1.419 . S
C2046 C2047 1.362 . S
C2047 H2037 0.930 . S
C2047 C2040 1.409 . S
C2047 C2046 1.362 . S
H2048 C2054 0.930 . S
H2049 C2057 0.930 . S
H2050 C2058 0.930 . S
H2051 C2059 0.930 . S
H2052 C2062 0.930 . S
H2053 C2063 0.930 . S
C2054 H2048 0.930 . S
C2054 C2055 1.355 . S
C2054 C2056 1.415 . S
C2055 C2054 1.355 . S
C2055 C2057 1.419 . S
C2056 C2054 1.415 . S
C2056 C2061 1.425 . S
C2056 C2063 1.409 . S
C2057 H2049 0.930 . S
C2057 C2055 1.419 . S
C2057 C2058 1.362 . S
C2058 H2050 0.930 . S
C2058 C2057 1.362 . S
C2058 C2061 1.409 . S
C2059 H2051 0.930 . S
C2059 C2060 1.355 . S
C2059 C2061 1.415 . S
C2060 C2059 1.355 . S
C2060 C2062 1.419 . S
C2061 C2056 1.425 . S
C2061 C2058 1.409 . S
C2061 C2059 1.415 . S
C2062 H2052 0.930 . S
C2062 C2060 1.419 . S
C2062 C2063 1.362 . S
C2063 H2053 0.930 . S
C2063 C2056 1.409 . S
C2063 C2062 1.362 . S
H2064 C2070 0.930 . S
H2065 C2073 0.930 . S
H2066 C2074 0.930 . S
H2067 C2075 0.930 . S
H2068 C2078 0.930 . S
H2069 C2079 0.930 . S
C2070 H2064 0.930 . S
C2070 C2071 1.355 . S
C2070 C2072 1.415 . S
C2071 C2070 1.355 . S
C2071 C2073 1.419 . S
C2072 C2070 1.415 . S
C2072 C2077 1.425 . S
C2072 C2079 1.409 . S
C2073 H2065 0.930 . S
C2073 C2071 1.419 . S
C2073 C2074 1.362 . S
C2074 H2066 0.930 . S
C2074 C2073 1.362 . S
C2074 C2077 1.409 . S
C2075 H2067 0.930 . S
C2075 C2076 1.355 . S
C2075 C2077 1.415 . S
C2076 C2075 1.355 . S
C2076 C2078 1.419 . S
C2077 C2072 1.425 . S
C2077 C2074 1.409 . S
C2077 C2075 1.415 . S
C2078 H2068 0.930 . S
C2078 C2076 1.419 . S
C2078 C2079 1.362 . S
C2079 H2069 0.930 . S
C2079 C2072 1.409 . S
C2079 C2078 1.362 . S
H2080 C2086 0.930 . S
H2081 C2089 0.930 . S
H2082 C2090 0.930 . S
H2083 C2091 0.930 . S
H2084 C2094 0.930 . S
H2085 C2095 0.930 . S
C2086 H2080 0.930 . S
C2086 C2087 1.355 . S
C2086 C2088 1.415 . S
C2087 C2086 1.355 . S
C2087 C2089 1.419 . S
C2088 C2086 1.415 . S
C2088 C2093 1.425 . S
C2088 C2095 1.409 . S
C2089 H2081 0.930 . S
C2089 C2087 1.419 . S
C2089 C2090 1.362 . S
C2090 H2082 0.930 . S
C2090 C2089 1.362 . S
C2090 C2093 1.409 . S
C2091 H2083 0.930 . S
C2091 C2092 1.355 . S
C2091 C2093 1.415 . S
C2092 C2091 1.355 . S
C2092 C2094 1.419 . S
C2093 C2088 1.425 . S
C2093 C2090 1.409 . S
C2093 C2091 1.415 . S
C2094 H2084 0.930 . S
C2094 C2092 1.419 . S
C2094 C2095 1.362 . S
C2095 H2085 0.930 . S
C2095 C2088 1.409 . S
C2095 C2094 1.362 . S
H2096 C2102 0.930 . S
H2097 C2105 0.930 . S
H2098 C2106 0.930 . S
H2099 C2107 0.930 . S
H2100 C2110 0.930 . S
H2101 C2111 0.930 . S
C2102 H2096 0.930 . S
C2102 C2103 1.355 . S
C2102 C2104 1.415 . S
C2103 C2102 1.355 . S
C2103 C2105 1.419 . S
C2104 C2102 1.415 . S
C2104 C2109 1.425 . S
C2104 C2111 1.409 . S
C2105 H2097 0.930 . S
C2105 C2103 1.419 . S
C2105 C2106 1.362 . S
C2106 H2098 0.930 . S
C2106 C2105 1.362 . S
C2106 C2109 1.409 . S
C2107 H2099 0.930 . S
C2107 C2108 1.355 . S
C2107 C2109 1.415 . S
C2108 C2107 1.355 . S
C2108 C2110 1.419 . S
C2109 C2104 1.425 . S
C2109 C2106 1.409 . S
C2109 C2107 1.415 . S
C2110 H2100 0.930 . S
C2110 C2108 1.419 . S
C2110 C2111 1.362 . S
C2111 H2101 0.930 . S
C2111 C2104 1.409 . S
C2111 C2110 1.362 . S
H2112 C2118 0.930 . S
H2113 C2121 0.930 . S
H2114 C2122 0.930 . S
H2115 C2123 0.930 . S
H2116 C2126 0.930 . S
H2117 C2127 0.930 . S
C2118 H2112 0.930 . S
C2118 C2119 1.355 . S
C2118 C2120 1.415 . S
C2119 C2118 1.355 . S
C2119 C2121 1.419 . S
C2120 C2118 1.415 . S
C2120 C2125 1.425 . S
C2120 C2127 1.409 . S
C2121 H2113 0.930 . S
C2121 C2119 1.419 . S
C2121 C2122 1.362 . S
C2122 H2114 0.930 . S
C2122 C2121 1.362 . S
C2122 C2125 1.409 . S
C2123 H2115 0.930 . S
C2123 C2124 1.355 . S
C2123 C2125 1.415 . S
C2124 C2123 1.355 . S
C2124 C2126 1.419 . S
C2125 C2120 1.425 . S
C2125 C2122 1.409 . S
C2125 C2123 1.415 . S
C2126 H2116 0.930 . S
C2126 C2124 1.419 . S
C2126 C2127 1.362 . S
C2127 H2117 0.930 . S
C2127 C2120 1.409 . S
C2127 C2126 1.362 . S
H2128 C2134 0.930 . S
H2129 C2137 0.930 . S
H2130 C2138 0.930 . S
H2131 C2139 0.930 . S
H2132 C2142 0.930 . S
H2133 C2143 0.930 . S
C2134 H2128 0.930 . S
C2134 C2135 1.355 . S
C2134 C2136 1.415 . S
C2135 C2134 1.355 . S
C2135 C2137 1.419 . S
C2136 C2134 1.415 . S
C2136 C2141 1.425 . S
C2136 C2143 1.409 . S
C2137 H2129 0.930 . S
C2137 C2135 1.419 . S
C2137 C2138 1.362 . S
C2138 H2130 0.930 . S
C2138 C2137 1.362 . S
C2138 C2141 1.409 . S
C2139 H2131 0.930 . S
C2139 C2140 1.355 . S
C2139 C2141 1.415 . S
C2140 C2139 1.355 . S
C2140 C2142 1.419 . S
C2141 C2136 1.425 . S
C2141 C2138 1.409 . S
C2141 C2139 1.415 . S
C2142 H2132 0.930 . S
C2142 C2140 1.419 . S
C2142 C2143 1.362 . S
C2143 H2133 0.930 . S
C2143 C2136 1.409 . S
C2143 C2142 1.362 . S
H2144 C2150 0.930 . S
H2145 C2153 0.930 . S
H2146 C2154 0.930 . S
H2147 C2155 0.930 . S
H2148 C2158 0.930 . S
H2149 C2159 0.930 . S
C2150 H2144 0.930 . S
C2150 C2151 1.355 . S
C2150 C2152 1.415 . S
C2151 C2150 1.355 . S
C2151 C2153 1.419 . S
C2152 C2150 1.415 . S
C2152 C2157 1.425 . S
C2152 C2159 1.409 . S
C2153 H2145 0.930 . S
C2153 C2151 1.419 . S
C2153 C2154 1.362 . S
C2154 H2146 0.930 . S
C2154 C2153 1.362 . S
C2154 C2157 1.409 . S
C2155 H2147 0.930 . S
C2155 C2156 1.355 . S
C2155 C2157 1.415 . S
C2156 C2155 1.355 . S
C2156 C2158 1.419 . S
C2157 C2152 1.425 . S
C2157 C2154 1.409 . S
C2157 C2155 1.415 . S
C2158 H2148 0.930 . S
C2158 C2156 1.419 . S
C2158 C2159 1.362 . S
C2159 H2149 0.930 . S
C2159 C2152 1.409 . S
C2159 C2158 1.362 . S
H2160 C2166 0.930 . S
H2161 C2169 0.930 . S
H2162 C2170 0.930 . S
H2163 C2171 0.930 . S
H2164 C2174 0.930 . S
H2165 C2175 0.930 . S
C2166 H2160 0.930 . S
C2166 C2167 1.355 . S
C2166 C2168 1.415 . S
C2167 C2166 1.355 . S
C2167 C2169 1.419 . S
C2168 C2166 1.415 . S
C2168 C2173 1.425 . S
C2168 C2175 1.409 . S
C2169 H2161 0.930 . S
C2169 C2167 1.419 . S
C2169 C2170 1.362 . S
C2170 H2162 0.930 . S
C2170 C2169 1.362 . S
C2170 C2173 1.409 . S
C2171 H2163 0.930 . S
C2171 C2172 1.355 . S
C2171 C2173 1.415 . S
C2172 C2171 1.355 . S
C2172 C2174 1.419 . S
C2173 C2168 1.425 . S
C2173 C2170 1.409 . S
C2173 C2171 1.415 . S
C2174 H2164 0.930 . S
C2174 C2172 1.419 . S
C2174 C2175 1.362 . S
C2175 H2165 0.930 . S
C2175 C2168 1.409 . S
C2175 C2174 1.362 . S
H2176 C2182 0.930 . S
H2177 C2185 0.930 . S
H2178 C2186 0.930 . S
H2179 C2187 0.930 . S
H2180 C2190 0.930 . S
H2181 C2191 0.930 . S
C2182 H2176 0.930 . S
C2182 C2183 1.355 . S
C2182 C2184 1.415 . S
C2183 C2182 1.355 . S
C2183 C2185 1.419 . S
C2184 C2182 1.415 . S
C2184 C2189 1.425 . S
C2184 C2191 1.409 . S
C2185 H2177 0.930 . S
C2185 C2183 1.419 . S
C2185 C2186 1.362 . S
C2186 H2178 0.930 . S
C2186 C2185 1.362 . S
C2186 C2189 1.409 . S
C2187 H2179 0.930 . S
C2187 C2188 1.355 . S
C2187 C2189 1.415 . S
C2188 C2187 1.355 . S
C2188 C2190 1.419 . S
C2189 C2184 1.425 . S
C2189 C2186 1.409 . S
C2189 C2187 1.415 . S
C2190 H2180 0.930 . S
C2190 C2188 1.419 . S
C2190 C2191 1.362 . S
C2191 H2181 0.930 . S
C2191 C2184 1.409 . S
C2191 C2190 1.362 . S
H2192 C2198 0.930 . S
H2193 C2201 0.930 . S
H2194 C2202 0.930 . S
H2195 C2203 0.930 . S
H2196 C2206 0.930 . S
H2197 C2207 0.930 . S
C2198 H2192 0.930 . S
C2198 C2199 1.355 . S
C2198 C2200 1.415 . S
C2199 C2198 1.355 . S
C2199 C2201 1.419 . S
C2200 C2198 1.415 . S
C2200 C2205 1.425 . S
C2200 C2207 1.409 . S
C2201 H2193 0.930 . S
C2201 C2199 1.419 . S
C2201 C2202 1.362 . S
C2202 H2194 0.930 . S
C2202 C2201 1.362 . S
C2202 C2205 1.409 . S
C2203 H2195 0.930 . S
C2203 C2204 1.355 . S
C2203 C2205 1.415 . S
C2204 C2203 1.355 . S
C2204 C2206 1.419 . S
C2205 C2200 1.425 . S
C2205 C2202 1.409 . S
C2205 C2203 1.415 . S
C2206 H2196 0.930 . S
C2206 C2204 1.419 . S
C2206 C2207 1.362 . S
C2207 H2197 0.930 . S
C2207 C2200 1.409 . S
C2207 C2206 1.362 . S
H2208 C2214 0.930 . S
H2209 C2217 0.930 . S
H2210 C2218 0.930 . S
H2211 C2219 0.930 . S
H2212 C2222 0.930 . S
H2213 C2223 0.930 . S
C2214 H2208 0.930 . S
C2214 C2215 1.355 . S
C2214 C2216 1.415 . S
C2215 C2214 1.355 . S
C2215 C2217 1.419 . S
C2216 C2214 1.415 . S
C2216 C2221 1.425 1_655 S
C2216 C2223 1.409 1_655 S
C2217 H2209 0.930 . S
C2217 C2215 1.419 . S
C2217 C2218 1.362 . S
C2218 H2210 0.930 . S
C2218 C2217 1.362 . S
C2218 C2221 1.409 1_655 S
C2219 H2211 0.930 . S
C2219 C2220 1.355 . S
C2219 C2221 1.415 . S
C2220 C2219 1.355 . S
C2220 C2222 1.419 . S
C2221 C2216 1.425 1_455 S
C2221 C2218 1.409 1_455 S
C2221 C2219 1.415 . S
C2222 H2212 0.930 . S
C2222 C2220 1.419 . S
C2222 C2223 1.362 . S
C2223 H2213 0.930 . S
C2223 C2216 1.409 1_455 S
C2223 C2222 1.362 . S
H2224 C2230 0.930 . S
H2225 C2233 0.930 . S
H2226 C2234 0.930 . S
H2227 C2235 0.930 . S
H2228 C2238 0.930 . S
H2229 C2239 0.930 . S
C2230 H2224 0.930 . S
C2230 C2231 1.355 . S
C2230 C2232 1.415 . S
C2231 C2230 1.355 . S
C2231 C2233 1.419 . S
C2232 C2230 1.415 . S
C2232 C2237 1.425 . S
C2232 C2239 1.409 . S
C2233 H2225 0.930 . S
C2233 C2231 1.419 . S
C2233 C2234 1.362 . S
C2234 H2226 0.930 . S
C2234 C2233 1.362 . S
C2234 C2237 1.409 . S
C2235 H2227 0.930 . S
C2235 C2236 1.355 . S
C2235 C2237 1.415 . S
C2236 C2235 1.355 . S
C2236 C2238 1.419 . S
C2237 C2232 1.425 . S
C2237 C2234 1.409 . S
C2237 C2235 1.415 . S
C2238 H2228 0.930 . S
C2238 C2236 1.419 . S
C2238 C2239 1.362 . S
C2239 H2229 0.930 . S
C2239 C2232 1.409 . S
C2239 C2238 1.362 . S
H2240 C2246 0.930 . S
H2241 C2249 0.930 . S
H2242 C2250 0.921 1_565 S
H2243 C2251 0.930 . S
H2244 C2254 0.930 . S
H2245 C2255 0.922 1_545 S
C2246 H2240 0.930 . S
C2246 C2247 1.355 . S
C2246 C2248 1.415 . S
C2247 C2246 1.355 . S
C2247 C2249 1.419 . S
C2248 C2246 1.415 . S
C2248 C2253 1.425 1_545 S
C2248 C2255 1.411 1_545 S
C2249 H2241 0.930 . S
C2249 C2247 1.419 . S
C2249 C2250 1.369 . S
C2250 H2242 0.921 1_545 S
C2250 C2249 1.369 . S
C2250 C2253 1.411 1_545 S
C2251 H2243 0.930 . S
C2251 C2252 1.355 . S
C2251 C2253 1.415 . S
C2252 C2251 1.355 . S
C2252 C2254 1.419 . S
C2253 C2248 1.425 1_565 S
C2253 C2250 1.411 1_565 S
C2253 C2251 1.415 . S
C2254 H2244 0.930 . S
C2254 C2252 1.419 . S
C2254 C2255 1.369 . S
C2255 H2245 0.922 1_565 S
C2255 C2248 1.411 1_565 S
C2255 C2254 1.369 . S
H2256 C2262 0.930 . S
H2257 C2265 0.930 . S
H2258 C2266 0.930 . S
H2259 C2267 0.930 . S
H2260 C2270 0.930 . S
H2261 C2271 0.930 . S
C2262 H2256 0.930 . S
C2262 C2263 1.355 1_556 S
C2262 C2264 1.463 . S
C2263 C2262 1.355 1_554 S
C2263 C2265 1.419 . S
C2264 C2262 1.463 . S
C2264 C2269 1.379 1_566 S
C2264 C2271 1.385 1_565 S
C2265 H2257 0.930 . S
C2265 C2263 1.419 . S
C2265 C2266 1.362 . S
C2266 H2258 0.930 . S
C2266 C2265 1.362 . S
C2266 C2269 1.385 1_565 S
C2267 H2259 0.930 . S
C2267 C2268 1.355 1_554 S
C2267 C2269 1.463 . S
C2268 C2267 1.355 1_556 S
C2268 C2270 1.419 . S
C2269 C2264 1.379 1_544 S
C2269 C2266 1.385 1_545 S
C2269 C2267 1.463 . S
C2270 H2260 0.930 . S
C2270 C2268 1.419 . S
C2270 C2271 1.362 . S
C2271 H2261 0.930 . S
C2271 C2264 1.385 1_545 S
C2271 C2270 1.362 . S
H2272 C2278 0.930 1_554 S
H2273 C2281 0.930 . S
H2274 C2282 0.930 . S
H2275 C2283 0.930 1_556 S
H2276 C2286 0.930 . S
H2277 C2287 0.930 . S
C2278 H2272 0.930 1_556 S
C2278 C2279 1.355 . S
C2278 C2280 1.415 1_556 S
C2279 C2278 1.355 . S
C2279 C2281 1.419 . S
C2280 C2278 1.415 1_554 S
C2280 C2285 1.425 1_654 S
C2280 C2287 1.409 . S
C2281 H2273 0.930 . S
C2281 C2279 1.419 . S
C2281 C2282 1.362 1_655 S
C2282 H2274 0.930 . S
C2282 C2281 1.362 1_455 S
C2282 C2285 1.409 . S
C2283 H2275 0.930 1_554 S
C2283 C2284 1.355 . S
C2283 C2285 1.415 1_554 S
C2284 C2283 1.355 . S
C2284 C2286 1.419 . S
C2285 C2280 1.425 1_456 S
C2285 C2282 1.409 . S
C2285 C2283 1.415 1_556 S
C2286 H2276 0.930 . S
C2286 C2284 1.419 . S
C2286 C2287 1.362 1_455 S
C2287 H2277 0.930 . S
C2287 C2280 1.409 . S
C2287 C2286 1.362 1_655 S
H2288 C2294 0.930 . S
H2289 C2297 0.930 . S
H2290 C2298 0.930 . S
H2291 C2299 0.930 . S
H2292 C2302 0.930 . S
H2293 C2303 0.930 . S
C2294 H2288 0.930 . S
C2294 C2295 1.355 1_556 S
C2294 C2296 1.415 . S
C2295 C2294 1.355 1_554 S
C2295 C2297 1.419 . S
C2296 C2294 1.415 . S
C2296 C2301 1.425 1_556 S
C2296 C2303 1.409 . S
C2297 H2289 0.930 . S
C2297 C2295 1.419 . S
C2297 C2298 1.362 . S
C2298 H2290 0.930 . S
C2298 C2297 1.362 . S
C2298 C2301 1.409 . S
C2299 H2291 0.930 . S
C2299 C2300 1.355 1_554 S
C2299 C2301 1.415 . S
C2300 C2299 1.355 1_556 S
C2300 C2302 1.419 . S
C2301 C2296 1.425 1_554 S
C2301 C2298 1.409 . S
C2301 C2299 1.415 . S
C2302 H2292 0.930 . S
C2302 C2300 1.419 . S
C2302 C2303 1.362 . S
C2303 H2293 0.930 . S
C2303 C2296 1.409 . S
C2303 C2302 1.362 . S
H2304 C2310 0.930 . S
H2305 C2313 0.930 1_554 S
H2306 C2314 0.930 . S
H2307 C2315 0.930 . S
H2308 C2318 0.930 . S
H2309 C2319 0.930 . S
C2310 H2304 0.930 . S
C2310 C2311 1.355 . S
C2310 C2312 1.415 . S
C2311 C2310 1.355 . S
C2311 C2313 1.419 . S
C2312 C2310 1.415 . S
C2312 C2317 1.425 . S
C2312 C2319 1.409 . S
C2313 H2305 0.930 1_556 S
C2313 C2311 1.419 . S
C2313 C2314 1.362 . S
C2314 H2306 0.930 . S
C2314 C2313 1.362 . S
C2314 C2317 1.409 . S
C2315 H2307 0.930 . S
C2315 C2316 1.355 . S
C2315 C2317 1.415 . S
C2316 C2315 1.355 . S
C2316 C2318 1.419 . S
C2317 C2312 1.425 . S
C2317 C2314 1.409 . S
C2317 C2315 1.415 . S
C2318 H2308 0.930 . S
C2318 C2316 1.419 . S
C2318 C2319 1.362 . S
C2319 H2309 0.930 . S
C2319 C2312 1.409 . S
C2319 C2318 1.362 . S
H2320 C2326 0.913 1_554 S
H2321 C2329 0.930 . S
H2322 C2330 0.930 . S
H2323 C2331 0.930 . S
H2324 C2334 0.930 . S
H2325 C2335 0.930 . S
C2326 H2320 0.913 1_556 S
C2326 C2327 1.355 . S
C2326 C2328 1.415 . S
C2327 C2326 1.355 . S
C2327 C2329 1.419 . S
C2328 C2326 1.415 . S
C2328 C2333 1.425 . S
C2328 C2335 1.409 . S
C2329 H2321 0.930 . S
C2329 C2327 1.419 . S
C2329 C2330 1.362 . S
C2330 H2322 0.930 . S
C2330 C2329 1.362 . S
C2330 C2333 1.409 . S
C2331 H2323 0.930 . S
C2331 C2332 1.355 . S
C2331 C2333 1.415 . S
C2332 C2331 1.355 . S
C2332 C2334 1.419 . S
C2333 C2328 1.425 . S
C2333 C2330 1.409 . S
C2333 C2331 1.415 . S
C2334 H2324 0.930 . S
C2334 C2332 1.419 . S
C2334 C2335 1.362 . S
C2335 H2325 0.930 . S
C2335 C2328 1.409 . S
C2335 C2334 1.362 . S
H2336 C2342 0.930 . S
H2337 C2345 0.930 . S
H2338 C2346 0.930 . S
H2339 C2347 0.930 . S
H2340 C2350 0.930 . S
H2341 C2351 0.930 . S
C2342 H2336 0.930 . S
C2342 C2343 1.355 . S
C2342 C2344 1.415 . S
C2343 C2342 1.355 . S
C2343 C2345 1.419 . S
C2344 C2342 1.415 . S
C2344 C2349 1.425 . S
C2344 C2351 1.409 . S
C2345 H2337 0.930 . S
C2345 C2343 1.419 . S
C2345 C2346 1.362 . S
C2346 H2338 0.930 . S
C2346 C2345 1.362 . S
C2346 C2349 1.409 . S
C2347 H2339 0.930 . S
C2347 C2348 1.355 . S
C2347 C2349 1.415 . S
C2348 C2347 1.355 . S
C2348 C2350 1.419 . S
C2349 C2344 1.425 . S
C2349 C2346 1.409 . S
C2349 C2347 1.415 . S
C2350 H2340 0.930 . S
C2350 C2348 1.419 . S
C2350 C2351 1.362 . S
C2351 H2341 0.930 . S
C2351 C2344 1.409 . S
C2351 C2350 1.362 . S
H2352 C2358 0.930 . S
H2353 C2361 0.930 . S
H2354 C2362 0.930 . S
H2355 C2363 0.930 . S
H2356 C2366 0.930 . S
H2357 C2367 0.930 . S
C2358 H2352 0.930 . S
C2358 C2359 1.355 . S
C2358 C2360 1.415 . S
C2359 C2358 1.355 . S
C2359 C2361 1.419 . S
C2360 C2358 1.415 . S
C2360 C2365 1.425 . S
C2360 C2367 1.409 . S
C2361 H2353 0.930 . S
C2361 C2359 1.419 . S
C2361 C2362 1.362 . S
C2362 H2354 0.930 . S
C2362 C2361 1.362 . S
C2362 C2365 1.409 . S
C2363 H2355 0.930 . S
C2363 C2364 1.355 . S
C2363 C2365 1.415 . S
C2364 C2363 1.355 . S
C2364 C2366 1.419 . S
C2365 C2360 1.425 . S
C2365 C2362 1.409 . S
C2365 C2363 1.415 . S
C2366 H2356 0.930 . S
C2366 C2364 1.419 . S
C2366 C2367 1.362 . S
C2367 H2357 0.930 . S
C2367 C2360 1.409 . S
C2367 C2366 1.362 . S
H2368 C2374 0.930 . S
H2369 C2377 0.930 . S
H2370 C2378 0.930 . S
H2371 C2379 0.930 . S
H2372 C2382 0.930 . S
H2373 C2383 0.930 . S
C2374 H2368 0.930 . S
C2374 C2375 1.355 . S
C2374 C2376 1.415 . S
C2375 C2374 1.355 . S
C2375 C2377 1.419 . S
C2376 C2374 1.415 . S
C2376 C2381 1.425 . S
C2376 C2383 1.409 . S
C2377 H2369 0.930 . S
C2377 C2375 1.419 . S
C2377 C2378 1.362 . S
C2378 H2370 0.930 . S
C2378 C2377 1.362 . S
C2378 C2381 1.409 . S
C2379 H2371 0.930 . S
C2379 C2380 1.355 . S
C2379 C2381 1.415 . S
C2380 C2379 1.355 . S
C2380 C2382 1.419 . S
C2381 C2376 1.425 . S
C2381 C2378 1.409 . S
C2381 C2379 1.415 . S
C2382 H2372 0.930 . S
C2382 C2380 1.419 . S
C2382 C2383 1.362 . S
C2383 H2373 0.930 . S
C2383 C2376 1.409 . S
C2383 C2382 1.362 . S
H2384 C2390 0.930 . S
H2385 C2393 0.930 . S
H2386 C2394 0.930 . S
H2387 C2395 0.930 . S
H2388 C2398 0.930 . S
H2389 C2399 0.930 . S
C2390 H2384 0.930 . S
C2390 C2391 1.355 . S
C2390 C2392 1.415 . S
C2391 C2390 1.355 . S
C2391 C2393 1.419 . S
C2392 C2390 1.415 . S
C2392 C2397 1.425 . S
C2392 C2399 1.409 . S
C2393 H2385 0.930 . S
C2393 C2391 1.419 . S
C2393 C2394 1.362 . S
C2394 H2386 0.930 . S
C2394 C2393 1.362 . S
C2394 C2397 1.409 . S
C2395 H2387 0.930 . S
C2395 C2396 1.355 . S
C2395 C2397 1.415 . S
C2396 C2395 1.355 . S
C2396 C2398 1.419 . S
C2397 C2392 1.425 . S
C2397 C2394 1.409 . S
C2397 C2395 1.415 . S
C2398 H2388 0.930 . S
C2398 C2396 1.419 . S
C2398 C2399 1.362 . S
C2399 H2389 0.930 . S
C2399 C2392 1.409 . S
C2399 C2398 1.362 . S
H2400 C2406 0.930 . S
H2401 C2409 0.930 . S
H2402 C2410 0.930 . S
H2403 C2411 0.930 . S
H2404 C2414 0.930 . S
H2405 C2415 0.930 . S
C2406 H2400 0.930 . S
C2406 C2407 1.355 . S
C2406 C2408 1.415 . S
C2407 C2406 1.355 . S
C2407 C2409 1.419 . S
C2408 C2406 1.415 . S
C2408 C2413 1.425 . S
C2408 C2415 1.409 . S
C2409 H2401 0.930 . S
C2409 C2407 1.419 . S
C2409 C2410 1.362 . S
C2410 H2402 0.930 . S
C2410 C2409 1.362 . S
C2410 C2413 1.409 . S
C2411 H2403 0.930 . S
C2411 C2412 1.355 . S
C2411 C2413 1.415 . S
C2412 C2411 1.355 . S
C2412 C2414 1.419 . S
C2413 C2408 1.425 . S
C2413 C2410 1.409 . S
C2413 C2411 1.415 . S
C2414 H2404 0.930 . S
C2414 C2412 1.419 . S
C2414 C2415 1.362 . S
C2415 H2405 0.930 . S
C2415 C2408 1.409 . S
C2415 C2414 1.362 . S
H2416 C2422 0.930 . S
H2417 C2425 0.930 1_556 S
H2418 C2426 0.930 . S
H2419 C2427 0.930 . S
H2420 C2430 0.930 . S
H2421 C2431 0.930 . S
C2422 H2416 0.930 . S
C2422 C2423 1.355 . S
C2422 C2424 1.415 . S
C2423 C2422 1.355 . S
C2423 C2425 1.419 . S
C2424 C2422 1.415 . S
C2424 C2429 1.425 . S
C2424 C2431 1.409 . S
C2425 H2417 0.930 1_554 S
C2425 C2423 1.419 . S
C2425 C2426 1.362 . S
C2426 H2418 0.930 . S
C2426 C2425 1.362 . S
C2426 C2429 1.409 . S
C2427 H2419 0.930 . S
C2427 C2428 1.355 . S
C2427 C2429 1.415 . S
C2428 C2427 1.355 . S
C2428 C2430 1.419 . S
C2429 C2424 1.425 . S
C2429 C2426 1.409 . S
C2429 C2427 1.415 . S
C2430 H2420 0.930 . S
C2430 C2428 1.419 . S
C2430 C2431 1.362 . S
C2431 H2421 0.930 . S
C2431 C2424 1.409 . S
C2431 C2430 1.362 . S
H2432 C2438 0.930 . S
H2433 C2441 0.930 . S
H2434 C2442 0.930 . S
H2435 C2443 0.930 . S
H2436 C2446 0.930 . S
H2437 C2447 0.930 . S
C2438 H2432 0.930 . S
C2438 C2439 1.355 . S
C2438 C2440 1.415 . S
C2439 C2438 1.355 . S
C2439 C2441 1.419 . S
C2440 C2438 1.415 . S
C2440 C2445 1.425 . S
C2440 C2447 1.409 . S
C2441 H2433 0.930 . S
C2441 C2439 1.419 . S
C2441 C2442 1.362 . S
C2442 H2434 0.930 . S
C2442 C2441 1.362 . S
C2442 C2445 1.409 . S
C2443 H2435 0.930 . S
C2443 C2444 1.355 . S
C2443 C2445 1.415 . S
C2444 C2443 1.355 . S
C2444 C2446 1.419 . S
C2445 C2440 1.425 . S
C2445 C2442 1.409 . S
C2445 C2443 1.415 . S
C2446 H2436 0.930 . S
C2446 C2444 1.419 . S
C2446 C2447 1.362 . S
C2447 H2437 0.930 . S
C2447 C2440 1.409 . S
C2447 C2446 1.362 . S
H2448 C2454 0.930 . S
H2449 C2457 0.930 . S
H2450 C2458 0.930 . S
H2451 C2459 0.930 . S
H2452 C2462 0.930 . S
H2453 C2463 0.930 . S
C2454 H2448 0.930 . S
C2454 C2455 1.355 . S
C2454 C2456 1.415 . S
C2455 C2454 1.355 . S
C2455 C2457 1.419 . S
C2456 C2454 1.415 . S
C2456 C2461 1.425 . S
C2456 C2463 1.409 . S
C2457 H2449 0.930 . S
C2457 C2455 1.419 . S
C2457 C2458 1.362 . S
C2458 H2450 0.930 . S
C2458 C2457 1.362 . S
C2458 C2461 1.409 . S
C2459 H2451 0.930 . S
C2459 C2460 1.355 . S
C2459 C2461 1.415 . S
C2460 C2459 1.355 . S
C2460 C2462 1.419 . S
C2461 C2456 1.425 . S
C2461 C2458 1.409 . S
C2461 C2459 1.415 . S
C2462 H2452 0.930 . S
C2462 C2460 1.419 . S
C2462 C2463 1.362 . S
C2463 H2453 0.930 . S
C2463 C2456 1.409 . S
C2463 C2462 1.362 . S
H2464 C2470 0.930 . S
H2465 C2473 0.930 . S
H2466 C2474 0.930 . S
H2467 C2475 0.930 . S
H2468 C2478 0.930 . S
H2469 C2479 0.930 . S
C2470 H2464 0.930 . S
C2470 C2471 1.355 . S
C2470 C2472 1.415 . S
C2471 C2470 1.355 . S
C2471 C2473 1.419 . S
C2472 C2470 1.415 . S
C2472 C2477 1.425 . S
C2472 C2479 1.409 . S
C2473 H2465 0.930 . S
C2473 C2471 1.419 . S
C2473 C2474 1.362 . S
C2474 H2466 0.930 . S
C2474 C2473 1.362 . S
C2474 C2477 1.409 . S
C2475 H2467 0.930 . S
C2475 C2476 1.355 . S
C2475 C2477 1.415 . S
C2476 C2475 1.355 . S
C2476 C2478 1.419 . S
C2477 C2472 1.425 . S
C2477 C2474 1.409 . S
C2477 C2475 1.415 . S
C2478 H2468 0.930 . S
C2478 C2476 1.419 . S
C2478 C2479 1.362 . S
C2479 H2469 0.930 . S
C2479 C2472 1.409 . S
C2479 C2478 1.362 . S
H2480 C2486 0.930 . S
H2481 C2489 0.930 . S
H2482 C2490 0.930 . S
H2483 C2491 0.930 . S
H2484 C2494 0.930 . S
H2485 C2495 0.930 . S
C2486 H2480 0.930 . S
C2486 C2487 1.355 . S
C2486 C2488 1.415 . S
C2487 C2486 1.355 . S
C2487 C2489 1.419 . S
C2488 C2486 1.415 . S
C2488 C2493 1.425 . S
C2488 C2495 1.409 . S
C2489 H2481 0.930 . S
C2489 C2487 1.419 . S
C2489 C2490 1.362 . S
C2490 H2482 0.930 . S
C2490 C2489 1.362 . S
C2490 C2493 1.409 . S
C2491 H2483 0.930 . S
C2491 C2492 1.355 . S
C2491 C2493 1.415 . S
C2492 C2491 1.355 . S
C2492 C2494 1.419 . S
C2493 C2488 1.425 . S
C2493 C2490 1.409 . S
C2493 C2491 1.415 . S
C2494 H2484 0.930 . S
C2494 C2492 1.419 . S
C2494 C2495 1.362 . S
C2495 H2485 0.930 . S
C2495 C2488 1.409 . S
C2495 C2494 1.362 . S
H2496 C2502 0.930 . S
H2497 C2505 0.930 . S
H2498 C2506 0.951 . S
H2499 C2507 0.930 . S
H2500 C2510 0.930 . S
H2501 C2511 0.951 . S
C2502 H2496 0.930 . S
C2502 C2503 1.355 . S
C2502 C2504 1.415 . S
C2503 C2502 1.355 . S
C2503 C2505 1.419 . S
C2504 C2502 1.415 . S
C2504 C2509 1.425 1_455 S
C2504 C2511 1.444 . S
C2505 H2497 0.930 . S
C2505 C2503 1.419 . S
C2505 C2506 1.311 1_455 S
C2506 H2498 0.951 . S
C2506 C2505 1.311 1_655 S
C2506 C2509 1.444 . S
C2507 H2499 0.930 . S
C2507 C2508 1.355 . S
C2507 C2509 1.415 . S
C2508 C2507 1.355 . S
C2508 C2510 1.419 . S
C2509 C2504 1.425 1_655 S
C2509 C2506 1.444 . S
C2509 C2507 1.415 . S
C2510 H2500 0.930 . S
C2510 C2508 1.419 . S
C2510 C2511 1.311 1_655 S
C2511 H2501 0.951 . S
C2511 C2504 1.444 . S
C2511 C2510 1.311 1_455 S
H2512 C2518 0.930 . S
H2513 C2521 0.930 . S
H2514 C2522 0.930 . S
H2515 C2523 0.930 . S
H2516 C2526 0.930 . S
H2517 C2527 0.930 . S
C2518 H2512 0.930 . S
C2518 C2519 1.355 . S
C2518 C2520 1.415 . S
C2519 C2518 1.355 . S
C2519 C2521 1.419 . S
C2520 C2518 1.415 . S
C2520 C2525 1.425 . S
C2520 C2527 1.409 . S
C2521 H2513 0.930 . S
C2521 C2519 1.419 . S
C2521 C2522 1.362 . S
C2522 H2514 0.930 . S
C2522 C2521 1.362 . S
C2522 C2525 1.409 . S
C2523 H2515 0.930 . S
C2523 C2524 1.355 . S
C2523 C2525 1.415 . S
C2524 C2523 1.355 . S
C2524 C2526 1.419 . S
C2525 C2520 1.425 . S
C2525 C2522 1.409 . S
C2525 C2523 1.415 . S
C2526 H2516 0.930 . S
C2526 C2524 1.419 . S
C2526 C2527 1.362 . S
C2527 H2517 0.930 . S
C2527 C2520 1.409 . S
C2527 C2526 1.362 . S
H2528 C2534 0.930 . S
H2529 C2537 0.930 . S
H2530 C2538 0.930 . S
H2531 C2539 0.930 . S
H2532 C2542 0.930 . S
H2533 C2543 0.930 . S
C2534 H2528 0.930 . S
C2534 C2535 1.355 . S
C2534 C2536 1.448 . S
C2535 C2534 1.355 . S
C2535 C2537 1.419 . S
C2536 C2534 1.448 . S
C2536 C2541 1.386 1_545 S
C2536 C2543 1.396 1_545 S
C2537 H2529 0.930 . S
C2537 C2535 1.419 . S
C2537 C2538 1.362 . S
C2538 H2530 0.930 . S
C2538 C2537 1.362 . S
C2538 C2541 1.396 1_545 S
C2539 H2531 0.930 . S
C2539 C2540 1.355 . S
C2539 C2541 1.448 . S
C2540 C2539 1.355 . S
C2540 C2542 1.419 . S
C2541 C2536 1.386 1_565 S
C2541 C2538 1.396 1_565 S
C2541 C2539 1.448 . S
C2542 H2532 0.930 . S
C2542 C2540 1.419 . S
C2542 C2543 1.362 . S
C2543 H2533 0.930 . S
C2543 C2536 1.396 1_565 S
C2543 C2542 1.362 . S
H2544 C2550 0.930 . S
H2545 C2553 0.930 . S
H2546 C2554 0.930 . S
H2547 C2555 0.930 . S
H2548 C2558 0.930 . S
H2549 C2559 0.930 . S
C2550 H2544 0.930 . S
C2550 C2551 1.355 . S
C2550 C2552 1.415 . S
C2551 C2550 1.355 . S
C2551 C2553 1.419 . S
C2552 C2550 1.415 . S
C2552 C2557 1.425 1_565 S
C2552 C2559 1.409 1_565 S
C2553 H2545 0.930 . S
C2553 C2551 1.419 . S
C2553 C2554 1.362 . S
C2554 H2546 0.930 . S
C2554 C2553 1.362 . S
C2554 C2557 1.409 1_565 S
C2555 H2547 0.930 . S
C2555 C2556 1.355 . S
C2555 C2557 1.415 . S
C2556 C2555 1.355 . S
C2556 C2558 1.419 . S
C2557 C2552 1.425 1_545 S
C2557 C2554 1.409 1_545 S
C2557 C2555 1.415 . S
C2558 H2548 0.930 . S
C2558 C2556 1.419 . S
C2558 C2559 1.362 . S
C2559 H2549 0.930 . S
C2559 C2552 1.409 1_545 S
C2559 C2558 1.362 . S
H2560 C2566 0.930 . S
H2561 C2569 0.930 . S
H2562 C2570 0.930 . S
H2563 C2571 0.930 . S
H2564 C2574 0.930 . S
H2565 C2575 0.930 . S
C2566 H2560 0.930 . S
C2566 C2567 1.355 . S
C2566 C2568 1.415 1_455 S
C2567 C2566 1.355 . S
C2567 C2569 1.419 . S
C2568 C2566 1.415 1_655 S
C2568 C2573 1.425 1_655 S
C2568 C2575 1.409 . S
C2569 H2561 0.930 . S
C2569 C2567 1.419 . S
C2569 C2570 1.362 . S
C2570 H2562 0.930 . S
C2570 C2569 1.362 . S
C2570 C2573 1.409 . S
C2571 H2563 0.930 . S
C2571 C2572 1.355 . S
C2571 C2573 1.415 1_655 S
C2572 C2571 1.355 . S
C2572 C2574 1.419 . S
C2573 C2568 1.425 1_455 S
C2573 C2570 1.409 . S
C2573 C2571 1.415 1_455 S
C2574 H2564 0.930 . S
C2574 C2572 1.419 . S
C2574 C2575 1.362 . S
C2575 H2565 0.930 . S
C2575 C2568 1.409 . S
C2575 C2574 1.362 . S
H2576 C2582 0.930 . S
H2577 C2585 0.930 . S
H2578 C2586 0.930 . S
H2579 C2587 0.930 . S
H2580 C2590 0.930 . S
H2581 C2591 0.930 . S
C2582 H2576 0.930 . S
C2582 C2583 1.355 . S
C2582 C2584 1.415 . S
C2583 C2582 1.355 . S
C2583 C2585 1.419 . S
C2584 C2582 1.415 . S
C2584 C2589 1.425 . S
C2584 C2591 1.409 . S
C2585 H2577 0.930 . S
C2585 C2583 1.419 . S
C2585 C2586 1.362 . S
C2586 H2578 0.930 . S
C2586 C2585 1.362 . S
C2586 C2589 1.409 . S
C2587 H2579 0.930 . S
C2587 C2588 1.355 . S
C2587 C2589 1.415 . S
C2588 C2587 1.355 . S
C2588 C2590 1.419 . S
C2589 C2584 1.425 . S
C2589 C2586 1.409 . S
C2589 C2587 1.415 . S
C2590 H2580 0.930 . S
C2590 C2588 1.419 . S
C2590 C2591 1.362 . S
C2591 H2581 0.930 . S
C2591 C2584 1.409 . S
C2591 C2590 1.362 . S
H2592 C2598 0.930 . S
H2593 C2601 0.930 . S
H2594 C2602 0.930 . S
H2595 C2603 0.930 . S
H2596 C2606 0.930 . S
H2597 C2607 0.930 . S
C2598 H2592 0.930 . S
C2598 C2599 1.355 . S
C2598 C2600 1.415 . S
C2599 C2598 1.355 . S
C2599 C2601 1.419 . S
C2600 C2598 1.415 . S
C2600 C2605 1.425 . S
C2600 C2607 1.409 . S
C2601 H2593 0.930 . S
C2601 C2599 1.419 . S
C2601 C2602 1.362 . S
C2602 H2594 0.930 . S
C2602 C2601 1.362 . S
C2602 C2605 1.409 . S
C2603 H2595 0.930 . S
C2603 C2604 1.355 . S
C2603 C2605 1.415 . S
C2604 C2603 1.355 . S
C2604 C2606 1.419 . S
C2605 C2600 1.425 . S
C2605 C2602 1.409 . S
C2605 C2603 1.415 . S
C2606 H2596 0.930 . S
C2606 C2604 1.419 . S
C2606 C2607 1.362 . S
C2607 H2597 0.930 . S
C2607 C2600 1.409 . S
C2607 C2606 1.362 . S
H2608 C2614 0.930 . S
H2609 C2617 0.930 . S
H2610 C2618 0.930 . S
H2611 C2619 0.930 . S
H2612 C2622 0.930 . S
H2613 C2623 0.930 . S
C2614 H2608 0.930 . S
C2614 C2615 1.355 . S
C2614 C2616 1.415 . S
C2615 C2614 1.355 . S
C2615 C2617 1.419 . S
C2616 C2614 1.415 . S
C2616 C2621 1.425 1_545 S
C2616 C2623 1.409 . S
C2617 H2609 0.930 . S
C2617 C2615 1.419 . S
C2617 C2618 1.362 1_545 S
C2618 H2610 0.930 . S
C2618 C2617 1.362 1_565 S
C2618 C2621 1.409 . S
C2619 H2611 0.930 . S
C2619 C2620 1.355 . S
C2619 C2621 1.415 . S
C2620 C2619 1.355 . S
C2620 C2622 1.419 . S
C2621 C2616 1.425 1_565 S
C2621 C2618 1.409 . S
C2621 C2619 1.415 . S
C2622 H2612 0.930 . S
C2622 C2620 1.419 . S
C2622 C2623 1.362 1_565 S
C2623 H2613 0.930 . S
C2623 C2616 1.409 . S
C2623 C2622 1.362 1_545 S
H2624 C2630 0.930 . S
H2625 C2633 0.930 . S
H2626 C2634 0.930 . S
H2627 C2635 0.930 . S
H2628 C2638 0.930 . S
H2629 C2639 0.930 . S
C2630 H2624 0.930 . S
C2630 C2631 1.355 . S
C2630 C2632 1.368 1_655 S
C2631 C2630 1.355 . S
C2631 C2633 1.419 . S
C2632 C2630 1.368 1_455 S
C2632 C2637 1.396 1_455 S
C2632 C2639 1.475 . S
C2633 H2625 0.930 . S
C2633 C2631 1.419 . S
C2633 C2634 1.362 . S
C2634 H2626 0.930 . S
C2634 C2633 1.362 . S
C2634 C2637 1.475 . S
C2635 H2627 0.930 . S
C2635 C2636 1.355 . S
C2635 C2637 1.368 1_455 S
C2636 C2635 1.355 . S
C2636 C2638 1.419 . S
C2637 C2632 1.396 1_655 S
C2637 C2634 1.475 . S
C2637 C2635 1.368 1_655 S
C2638 H2628 0.930 . S
C2638 C2636 1.419 . S
C2638 C2639 1.362 . S
C2639 H2629 0.930 . S
C2639 C2632 1.475 . S
C2639 C2638 1.362 . S
H2640 C2646 0.930 . S
H2641 C2649 0.930 . S
H2642 C2650 0.930 . S
H2643 C2651 0.930 . S
H2644 C2654 0.930 . S
H2645 C2655 0.930 . S
C2646 H2640 0.930 . S
C2646 C2647 1.355 . S
C2646 C2648 1.415 . S
C2647 C2646 1.355 . S
C2647 C2649 1.419 . S
C2648 C2646 1.415 . S
C2648 C2653 1.425 . S
C2648 C2655 1.409 . S
C2649 H2641 0.930 . S
C2649 C2647 1.419 . S
C2649 C2650 1.362 . S
C2650 H2642 0.930 . S
C2650 C2649 1.362 . S
C2650 C2653 1.409 . S
C2651 H2643 0.930 . S
C2651 C2652 1.355 . S
C2651 C2653 1.415 . S
C2652 C2651 1.355 . S
C2652 C2654 1.419 . S
C2653 C2648 1.425 . S
C2653 C2650 1.409 . S
C2653 C2651 1.415 . S
C2654 H2644 0.930 . S
C2654 C2652 1.419 . S
C2654 C2655 1.362 . S
C2655 H2645 0.930 . S
C2655 C2648 1.409 . S
C2655 C2654 1.362 . S
H2656 C2662 0.930 . S
H2657 C2665 0.930 . S
H2658 C2666 0.930 . S
H2659 C2667 0.930 . S
H2660 C2670 0.930 . S
H2661 C2671 0.930 . S
C2662 H2656 0.930 . S
C2662 C2663 1.355 . S
C2662 C2664 1.415 . S
C2663 C2662 1.355 . S
C2663 C2665 1.419 . S
C2664 C2662 1.415 . S
C2664 C2669 1.425 1_565 S
C2664 C2671 1.409 . S
C2665 H2657 0.930 . S
C2665 C2663 1.419 . S
C2665 C2666 1.362 1_565 S
C2666 H2658 0.930 . S
C2666 C2665 1.362 1_545 S
C2666 C2669 1.409 . S
C2667 H2659 0.930 . S
C2667 C2668 1.355 . S
C2667 C2669 1.415 . S
C2668 C2667 1.355 . S
C2668 C2670 1.419 . S
C2669 C2664 1.425 1_545 S
C2669 C2666 1.409 . S
C2669 C2667 1.415 . S
C2670 H2660 0.930 . S
C2670 C2668 1.419 . S
C2670 C2671 1.362 1_545 S
C2671 H2661 0.930 . S
C2671 C2664 1.409 . S
C2671 C2670 1.362 1_565 S
H2672 C2678 0.930 . S
H2673 C2681 0.930 . S
H2674 C2682 0.937 1_455 S
H2675 C2683 0.930 . S
H2676 C2686 0.930 . S
H2677 C2687 0.937 1_655 S
C2678 H2672 0.930 . S
C2678 C2679 1.355 . S
C2678 C2680 1.415 . S
C2679 C2678 1.355 . S
C2679 C2681 1.419 . S
C2680 C2678 1.415 . S
C2680 C2685 1.425 1_655 S
C2680 C2687 1.410 1_655 S
C2681 H2673 0.930 . S
C2681 C2679 1.419 . S
C2681 C2682 1.356 . S
C2682 H2674 0.937 1_655 S
C2682 C2681 1.356 . S
C2682 C2685 1.410 1_655 S
C2683 H2675 0.930 . S
C2683 C2684 1.355 . S
C2683 C2685 1.415 . S
C2684 C2683 1.355 . S
C2684 C2686 1.419 . S
C2685 C2680 1.425 1_455 S
C2685 C2682 1.410 1_455 S
C2685 C2683 1.415 . S
C2686 H2676 0.930 . S
C2686 C2684 1.419 . S
C2686 C2687 1.356 . S
C2687 H2677 0.937 1_455 S
C2687 C2680 1.410 1_455 S
C2687 C2686 1.356 . S
H2688 C2694 0.930 . S
H2689 C2697 0.930 . S
H2690 C2698 0.930 . S
H2691 C2699 0.930 . S
H2692 C2702 0.930 . S
H2693 C2703 0.930 . S
C2694 H2688 0.930 . S
C2694 C2695 1.355 . S
C2694 C2696 1.415 . S
C2695 C2694 1.355 . S
C2695 C2697 1.419 . S
C2696 C2694 1.415 . S
C2696 C2701 1.425 . S
C2696 C2703 1.409 . S
C2697 H2689 0.930 . S
C2697 C2695 1.419 . S
C2697 C2698 1.362 . S
C2698 H2690 0.930 . S
C2698 C2697 1.362 . S
C2698 C2701 1.409 . S
C2699 H2691 0.930 . S
C2699 C2700 1.355 . S
C2699 C2701 1.415 . S
C2700 C2699 1.355 . S
C2700 C2702 1.419 . S
C2701 C2696 1.425 . S
C2701 C2698 1.409 . S
C2701 C2699 1.415 . S
C2702 H2692 0.930 . S
C2702 C2700 1.419 . S
C2702 C2703 1.362 . S
C2703 H2693 0.930 . S
C2703 C2696 1.409 . S
C2703 C2702 1.362 . S
H2704 C2710 0.930 . S
H2705 C2713 0.930 . S
H2706 C2714 0.930 . S
H2707 C2715 0.930 . S
H2708 C2718 0.930 . S
H2709 C2719 0.930 . S
C2710 H2704 0.930 . S
C2710 C2711 1.355 . S
C2710 C2712 1.415 . S
C2711 C2710 1.355 . S
C2711 C2713 1.419 . S
C2712 C2710 1.415 . S
C2712 C2717 1.425 . S
C2712 C2719 1.409 . S
C2713 H2705 0.930 . S
C2713 C2711 1.419 . S
C2713 C2714 1.362 . S
C2714 H2706 0.930 . S
C2714 C2713 1.362 . S
C2714 C2717 1.409 . S
C2715 H2707 0.930 . S
C2715 C2716 1.355 . S
C2715 C2717 1.415 . S
C2716 C2715 1.355 . S
C2716 C2718 1.419 . S
C2717 C2712 1.425 . S
C2717 C2714 1.409 . S
C2717 C2715 1.415 . S
C2718 H2708 0.930 . S
C2718 C2716 1.419 . S
C2718 C2719 1.362 . S
C2719 H2709 0.930 . S
C2719 C2712 1.409 . S
C2719 C2718 1.362 . S
H2720 C2726 0.930 . S
H2721 C2729 0.930 . S
H2722 C2730 0.930 . S
H2723 C2731 0.930 . S
H2724 C2734 0.930 . S
H2725 C2735 0.930 . S
C2726 H2720 0.930 . S
C2726 C2727 1.355 . S
C2726 C2728 1.415 . S
C2727 C2726 1.355 . S
C2727 C2729 1.419 . S
C2728 C2726 1.415 . S
C2728 C2733 1.425 . S
C2728 C2735 1.409 . S
C2729 H2721 0.930 . S
C2729 C2727 1.419 . S
C2729 C2730 1.362 . S
C2730 H2722 0.930 . S
C2730 C2729 1.362 . S
C2730 C2733 1.409 . S
C2731 H2723 0.930 . S
C2731 C2732 1.355 . S
C2731 C2733 1.415 . S
C2732 C2731 1.355 . S
C2732 C2734 1.419 . S
C2733 C2728 1.425 . S
C2733 C2730 1.409 . S
C2733 C2731 1.415 . S
C2734 H2724 0.930 . S
C2734 C2732 1.419 . S
C2734 C2735 1.362 . S
C2735 H2725 0.930 . S
C2735 C2728 1.409 . S
C2735 C2734 1.362 . S
H2736 C2742 0.930 . S
H2737 C2745 0.930 . S
H2738 C2746 0.930 . S
H2739 C2747 0.930 . S
H2740 C2750 0.930 . S
H2741 C2751 0.930 . S
C2742 H2736 0.930 . S
C2742 C2743 1.355 . S
C2742 C2744 1.415 . S
C2743 C2742 1.355 . S
C2743 C2745 1.419 . S
C2744 C2742 1.415 . S
C2744 C2749 1.425 . S
C2744 C2751 1.409 . S
C2745 H2737 0.930 . S
C2745 C2743 1.419 . S
C2745 C2746 1.362 . S
C2746 H2738 0.930 . S
C2746 C2745 1.362 . S
C2746 C2749 1.409 . S
C2747 H2739 0.930 . S
C2747 C2748 1.355 . S
C2747 C2749 1.415 . S
C2748 C2747 1.355 . S
C2748 C2750 1.419 . S
C2749 C2744 1.425 . S
C2749 C2746 1.409 . S
C2749 C2747 1.415 . S
C2750 H2740 0.930 . S
C2750 C2748 1.419 . S
C2750 C2751 1.362 . S
C2751 H2741 0.930 . S
C2751 C2744 1.409 . S
C2751 C2750 1.362 . S
H2752 C2758 0.930 . S
H2753 C2761 0.930 . S
H2754 C2762 0.930 . S
H2755 C2763 0.930 . S
H2756 C2766 0.930 . S
H2757 C2767 0.930 . S
C2758 H2752 0.930 . S
C2758 C2759 1.355 . S
C2758 C2760 1.415 . S
C2759 C2758 1.355 . S
C2759 C2761 1.419 . S
C2760 C2758 1.415 . S
C2760 C2765 1.425 . S
C2760 C2767 1.409 . S
C2761 H2753 0.930 . S
C2761 C2759 1.419 . S
C2761 C2762 1.362 . S
C2762 H2754 0.930 . S
C2762 C2761 1.362 . S
C2762 C2765 1.409 . S
C2763 H2755 0.930 . S
C2763 C2764 1.355 . S
C2763 C2765 1.415 . S
C2764 C2763 1.355 . S
C2764 C2766 1.419 . S
C2765 C2760 1.425 . S
C2765 C2762 1.409 . S
C2765 C2763 1.415 . S
C2766 H2756 0.930 . S
C2766 C2764 1.419 . S
C2766 C2767 1.362 . S
C2767 H2757 0.930 . S
C2767 C2760 1.409 . S
C2767 C2766 1.362 . S
H2768 C2774 0.930 . S
H2769 C2777 0.930 . S
H2770 C2778 0.930 . S
H2771 C2779 0.930 . S
H2772 C2782 0.930 . S
H2773 C2783 0.930 . S
C2774 H2768 0.930 . S
C2774 C2775 1.355 . S
C2774 C2776 1.415 . S
C2775 C2774 1.355 . S
C2775 C2777 1.419 . S
C2776 C2774 1.415 . S
C2776 C2781 1.425 . S
C2776 C2783 1.409 . S
C2777 H2769 0.930 . S
C2777 C2775 1.419 . S
C2777 C2778 1.362 . S
C2778 H2770 0.930 . S
C2778 C2777 1.362 . S
C2778 C2781 1.409 . S
C2779 H2771 0.930 . S
C2779 C2780 1.355 . S
C2779 C2781 1.415 . S
C2780 C2779 1.355 . S
C2780 C2782 1.419 . S
C2781 C2776 1.425 . S
C2781 C2778 1.409 . S
C2781 C2779 1.415 . S
C2782 H2772 0.930 . S
C2782 C2780 1.419 . S
C2782 C2783 1.362 . S
C2783 H2773 0.930 . S
C2783 C2776 1.409 . S
C2783 C2782 1.362 . S
H2784 C2790 0.930 . S
H2785 C2793 0.930 . S
H2786 C2794 0.930 . S
H2787 C2795 0.930 1_554 S
H2788 C2798 0.930 . S
H2789 C2799 0.930 . S
C2790 H2784 0.930 . S
C2790 C2791 1.355 . S
C2790 C2792 1.415 . S
C2791 C2790 1.355 . S
C2791 C2793 1.419 . S
C2792 C2790 1.415 . S
C2792 C2797 1.425 . S
C2792 C2799 1.409 . S
C2793 H2785 0.930 . S
C2793 C2791 1.419 . S
C2793 C2794 1.362 . S
C2794 H2786 0.930 . S
C2794 C2793 1.362 . S
C2794 C2797 1.409 . S
C2795 H2787 0.930 1_556 S
C2795 C2796 1.355 . S
C2795 C2797 1.415 . S
C2796 C2795 1.355 . S
C2796 C2798 1.419 . S
C2797 C2792 1.425 . S
C2797 C2794 1.409 . S
C2797 C2795 1.415 . S
C2798 H2788 0.930 . S
C2798 C2796 1.419 . S
C2798 C2799 1.362 . S
C2799 H2789 0.930 . S
C2799 C2792 1.409 . S
C2799 C2798 1.362 . S
H2800 C2806 0.930 . S
H2801 C2809 0.930 . S
H2802 C2810 0.930 . S
H2803 C2811 0.930 . S
H2804 C2814 0.930 . S
H2805 C2815 0.930 . S
C2806 H2800 0.930 . S
C2806 C2807 1.355 . S
C2806 C2808 1.415 . S
C2807 C2806 1.355 . S
C2807 C2809 1.419 . S
C2808 C2806 1.415 . S
C2808 C2813 1.425 . S
C2808 C2815 1.409 . S
C2809 H2801 0.930 . S
C2809 C2807 1.419 . S
C2809 C2810 1.362 . S
C2810 H2802 0.930 . S
C2810 C2809 1.362 . S
C2810 C2813 1.409 . S
C2811 H2803 0.930 . S
C2811 C2812 1.355 . S
C2811 C2813 1.415 . S
C2812 C2811 1.355 . S
C2812 C2814 1.419 . S
C2813 C2808 1.425 . S
C2813 C2810 1.409 . S
C2813 C2811 1.415 . S
C2814 H2804 0.930 . S
C2814 C2812 1.419 . S
C2814 C2815 1.362 . S
C2815 H2805 0.930 . S
C2815 C2808 1.409 . S
C2815 C2814 1.362 . S
H2816 C2822 0.930 . S
H2817 C2825 0.930 1_554 S
H2818 C2826 0.930 . S
H2819 C2827 0.930 . S
H2820 C2830 0.930 . S
H2821 C2831 0.930 . S
C2822 H2816 0.930 . S
C2822 C2823 1.355 . S
C2822 C2824 1.415 . S
C2823 C2822 1.355 . S
C2823 C2825 1.419 . S
C2824 C2822 1.415 . S
C2824 C2829 1.425 . S
C2824 C2831 1.409 . S
C2825 H2817 0.930 1_556 S
C2825 C2823 1.419 . S
C2825 C2826 1.362 . S
C2826 H2818 0.930 . S
C2826 C2825 1.362 . S
C2826 C2829 1.409 . S
C2827 H2819 0.930 . S
C2827 C2828 1.355 . S
C2827 C2829 1.415 . S
C2828 C2827 1.355 . S
C2828 C2830 1.419 . S
C2829 C2824 1.425 . S
C2829 C2826 1.409 . S
C2829 C2827 1.415 . S
C2830 H2820 0.930 . S
C2830 C2828 1.419 . S
C2830 C2831 1.362 . S
C2831 H2821 0.930 . S
C2831 C2824 1.409 . S
C2831 C2830 1.362 . S
H2832 C2838 0.930 . S
H2833 C2841 0.930 . S
H2834 C2842 0.930 . S
H2835 C2843 0.930 . S
H2836 C2846 0.930 . S
H2837 C2847 0.930 . S
C2838 H2832 0.930 . S
C2838 C2839 1.355 . S
C2838 C2840 1.415 . S
C2839 C2838 1.355 . S
C2839 C2841 1.419 . S
C2840 C2838 1.415 . S
C2840 C2845 1.425 . S
C2840 C2847 1.409 . S
C2841 H2833 0.930 . S
C2841 C2839 1.419 . S
C2841 C2842 1.362 . S
C2842 H2834 0.930 . S
C2842 C2841 1.362 . S
C2842 C2845 1.409 . S
C2843 H2835 0.930 . S
C2843 C2844 1.355 . S
C2843 C2845 1.415 . S
C2844 C2843 1.355 . S
C2844 C2846 1.419 . S
C2845 C2840 1.425 . S
C2845 C2842 1.409 . S
C2845 C2843 1.415 . S
C2846 H2836 0.930 . S
C2846 C2844 1.419 . S
C2846 C2847 1.362 . S
C2847 H2837 0.930 . S
C2847 C2840 1.409 . S
C2847 C2846 1.362 . S
H2848 C2854 0.930 . S
H2849 C2857 0.930 . S
H2850 C2858 0.930 . S
H2851 C2859 0.930 . S
H2852 C2862 0.930 . S
H2853 C2863 0.930 . S
C2854 H2848 0.930 . S
C2854 C2855 1.355 . S
C2854 C2856 1.415 . S
C2855 C2854 1.355 . S
C2855 C2857 1.419 . S
C2856 C2854 1.415 . S
C2856 C2861 1.425 . S
C2856 C2863 1.409 . S
C2857 H2849 0.930 . S
C2857 C2855 1.419 . S
C2857 C2858 1.362 . S
C2858 H2850 0.930 . S
C2858 C2857 1.362 . S
C2858 C2861 1.409 . S
C2859 H2851 0.930 . S
C2859 C2860 1.355 . S
C2859 C2861 1.415 . S
C2860 C2859 1.355 . S
C2860 C2862 1.419 . S
C2861 C2856 1.425 . S
C2861 C2858 1.409 . S
C2861 C2859 1.415 . S
C2862 H2852 0.930 . S
C2862 C2860 1.419 . S
C2862 C2863 1.362 . S
C2863 H2853 0.930 . S
C2863 C2856 1.409 . S
C2863 C2862 1.362 . S
H2864 C2870 0.930 . S
H2865 C2873 0.930 . S
H2866 C2874 0.930 . S
H2867 C2875 0.930 . S
H2868 C2878 0.930 . S
H2869 C2879 0.930 . S
C2870 H2864 0.930 . S
C2870 C2871 1.355 . S
C2870 C2872 1.415 . S
C2871 C2870 1.355 . S
C2871 C2873 1.419 . S
C2872 C2870 1.415 . S
C2872 C2877 1.425 . S
C2872 C2879 1.409 . S
C2873 H2865 0.930 . S
C2873 C2871 1.419 . S
C2873 C2874 1.362 . S
C2874 H2866 0.930 . S
C2874 C2873 1.362 . S
C2874 C2877 1.409 . S
C2875 H2867 0.930 . S
C2875 C2876 1.355 . S
C2875 C2877 1.415 . S
C2876 C2875 1.355 . S
C2876 C2878 1.419 . S
C2877 C2872 1.425 . S
C2877 C2874 1.409 . S
C2877 C2875 1.415 . S
C2878 H2868 0.930 . S
C2878 C2876 1.419 . S
C2878 C2879 1.362 . S
C2879 H2869 0.930 . S
C2879 C2872 1.409 . S
C2879 C2878 1.362 . S
H2880 C2886 0.930 . S
H2881 C2889 0.930 . S
H2882 C2890 0.930 . S
H2883 C2891 0.930 . S
H2884 C2894 0.930 . S
H2885 C2895 0.930 . S
C2886 H2880 0.930 . S
C2886 C2887 1.355 . S
C2886 C2888 1.415 . S
C2887 C2886 1.355 . S
C2887 C2889 1.419 . S
C2888 C2886 1.415 . S
C2888 C2893 1.425 . S
C2888 C2895 1.409 . S
C2889 H2881 0.930 . S
C2889 C2887 1.419 . S
C2889 C2890 1.362 . S
C2890 H2882 0.930 . S
C2890 C2889 1.362 . S
C2890 C2893 1.409 . S
C2891 H2883 0.930 . S
C2891 C2892 1.355 . S
C2891 C2893 1.415 . S
C2892 C2891 1.355 . S
C2892 C2894 1.419 . S
C2893 C2888 1.425 . S
C2893 C2890 1.409 . S
C2893 C2891 1.415 . S
C2894 H2884 0.930 . S
C2894 C2892 1.419 . S
C2894 C2895 1.362 . S
C2895 H2885 0.930 . S
C2895 C2888 1.409 . S
C2895 C2894 1.362 . S
H2896 C2902 0.930 . S
H2897 C2905 0.930 . S
H2898 C2906 0.930 1_545 S
H2899 C2907 0.930 1_545 S
H2900 C2910 0.930 . S
H2901 C2911 0.930 . S
C2902 H2896 0.930 . S
C2902 C2903 1.355 . S
C2902 C2904 1.415 . S
C2903 C2902 1.355 . S
C2903 C2905 1.419 . S
C2904 C2902 1.415 . S
C2904 C2909 1.425 . S
C2904 C2911 1.409 . S
C2905 H2897 0.930 . S
C2905 C2903 1.419 . S
C2905 C2906 1.362 . S
C2906 H2898 0.930 1_565 S
C2906 C2905 1.362 . S
C2906 C2909 1.409 . S
C2907 H2899 0.930 1_565 S
C2907 C2908 1.355 . S
C2907 C2909 1.415 . S
C2908 C2907 1.355 . S
C2908 C2910 1.419 . S
C2909 C2904 1.425 . S
C2909 C2906 1.409 . S
C2909 C2907 1.415 . S
C2910 H2900 0.930 . S
C2910 C2908 1.419 . S
C2910 C2911 1.362 . S
C2911 H2901 0.930 . S
C2911 C2904 1.409 . S
C2911 C2910 1.362 . S
H2912 C2918 0.930 . S
H2913 C2921 0.930 . S
H2914 C2922 0.930 . S
H2915 C2923 0.930 . S
H2916 C2926 0.930 . S
H2917 C2927 0.930 . S
C2918 H2912 0.930 . S
C2918 C2919 1.355 . S
C2918 C2920 1.415 . S
C2919 C2918 1.355 . S
C2919 C2921 1.419 1_455 S
C2920 C2918 1.415 . S
C2920 C2925 1.425 . S
C2920 C2927 1.409 . S
C2921 H2913 0.930 . S
C2921 C2919 1.419 1_655 S
C2921 C2922 1.362 . S
C2922 H2914 0.930 . S
C2922 C2921 1.362 . S
C2922 C2925 1.409 1_655 S
C2923 H2915 0.930 . S
C2923 C2924 1.355 . S
C2923 C2925 1.415 . S
C2924 C2923 1.355 . S
C2924 C2926 1.419 . S
C2925 C2920 1.425 . S
C2925 C2922 1.409 1_455 S
C2925 C2923 1.415 . S
C2926 H2916 0.930 . S
C2926 C2924 1.419 . S
C2926 C2927 1.362 . S
C2927 H2917 0.930 . S
C2927 C2920 1.409 . S
C2927 C2926 1.362 . S
H2928 C2934 0.930 . S
H2929 C2937 0.930 . S
H2930 C2938 0.930 . S
H2931 C2939 0.930 . S
H2932 C2942 0.930 . S
H2933 C2943 0.930 . S
C2934 H2928 0.930 . S
C2934 C2935 1.355 . S
C2934 C2936 1.415 . S
C2935 C2934 1.355 . S
C2935 C2937 1.419 . S
C2936 C2934 1.415 . S
C2936 C2941 1.425 . S
C2936 C2943 1.409 . S
C2937 H2929 0.930 . S
C2937 C2935 1.419 . S
C2937 C2938 1.362 . S
C2938 H2930 0.930 . S
C2938 C2937 1.362 . S
C2938 C2941 1.409 . S
C2939 H2931 0.930 . S
C2939 C2940 1.355 . S
C2939 C2941 1.415 . S
C2940 C2939 1.355 . S
C2940 C2942 1.419 . S
C2941 C2936 1.425 . S
C2941 C2938 1.409 . S
C2941 C2939 1.415 . S
C2942 H2932 0.930 . S
C2942 C2940 1.419 . S
C2942 C2943 1.362 . S
C2943 H2933 0.930 . S
C2943 C2936 1.409 . S
C2943 C2942 1.362 . S
H2944 C2950 0.930 . S
H2945 C2953 0.930 . S
H2946 C2954 0.930 . S
H2947 C2955 0.930 . S
H2948 C2958 0.930 . S
H2949 C2959 0.930 . S
C2950 H2944 0.930 . S
C2950 C2951 1.355 . S
C2950 C2952 1.415 . S
C2951 C2950 1.355 . S
C2951 C2953 1.419 . S
C2952 C2950 1.415 . S
C2952 C2957 1.425 . S
C2952 C2959 1.409 . S
C2953 H2945 0.930 . S
C2953 C2951 1.419 . S
C2953 C2954 1.362 . S
C2954 H2946 0.930 . S
C2954 C2953 1.362 . S
C2954 C2957 1.409 . S
C2955 H2947 0.930 . S
C2955 C2956 1.355 . S
C2955 C2957 1.415 . S
C2956 C2955 1.355 . S
C2956 C2958 1.419 . S
C2957 C2952 1.425 . S
C2957 C2954 1.409 . S
C2957 C2955 1.415 . S
C2958 H2948 0.930 . S
C2958 C2956 1.419 . S
C2958 C2959 1.362 . S
C2959 H2949 0.930 . S
C2959 C2952 1.409 . S
C2959 C2958 1.362 . S
H2960 C2966 0.930 . S
H2961 C2969 0.930 . S
H2962 C2970 0.930 1_455 S
H2963 C2971 0.930 . S
H2964 C2974 0.930 . S
H2965 C2975 0.930 . S
C2966 H2960 0.930 . S
C2966 C2967 1.355 . S
C2966 C2968 1.415 . S
C2967 C2966 1.355 . S
C2967 C2969 1.419 1_655 S
C2968 C2966 1.415 . S
C2968 C2973 1.425 . S
C2968 C2975 1.409 . S
C2969 H2961 0.930 . S
C2969 C2967 1.419 1_455 S
C2969 C2970 1.362 1_455 S
C2970 H2962 0.930 1_655 S
C2970 C2969 1.362 1_655 S
C2970 C2973 1.409 . S
C2971 H2963 0.930 . S
C2971 C2972 1.355 . S
C2971 C2973 1.415 . S
C2972 C2971 1.355 . S
C2972 C2974 1.419 . S
C2973 C2968 1.425 . S
C2973 C2970 1.409 . S
C2973 C2971 1.415 . S
C2974 H2964 0.930 . S
C2974 C2972 1.419 . S
C2974 C2975 1.362 . S
C2975 H2965 0.930 . S
C2975 C2968 1.409 . S
C2975 C2974 1.362 . S
H2976 C2982 0.930 . S
H2977 C2985 0.930 . S
H2978 C2986 0.930 . S
H2979 C2987 0.930 . S
H2980 C2990 0.930 . S
H2981 C2991 0.930 . S
C2982 H2976 0.930 . S
C2982 C2983 1.355 . S
C2982 C2984 1.415 . S
C2983 C2982 1.355 . S
C2983 C2985 1.419 . S
C2984 C2982 1.415 . S
C2984 C2989 1.425 . S
C2984 C2991 1.409 . S
C2985 H2977 0.930 . S
C2985 C2983 1.419 . S
C2985 C2986 1.362 . S
C2986 H2978 0.930 . S
C2986 C2985 1.362 . S
C2986 C2989 1.409 . S
C2987 H2979 0.930 . S
C2987 C2988 1.355 . S
C2987 C2989 1.415 . S
C2988 C2987 1.355 . S
C2988 C2990 1.419 . S
C2989 C2984 1.425 . S
C2989 C2986 1.409 . S
C2989 C2987 1.415 . S
C2990 H2980 0.930 . S
C2990 C2988 1.419 . S
C2990 C2991 1.362 . S
C2991 H2981 0.930 . S
C2991 C2984 1.409 . S
C2991 C2990 1.362 . S
H2992 C2998 0.930 . S
H2993 C3001 0.930 . S
H2994 C3002 0.930 1_565 S
H2995 C3003 0.930 . S
H2996 C3006 0.930 . S
H2997 C3007 0.930 . S
C2998 H2992 0.930 . S
C2998 C2999 1.355 . S
C2998 C3000 1.415 . S
C2999 C2998 1.355 . S
C2999 C3001 1.419 1_545 S
C3000 C2998 1.415 . S
C3000 C3005 1.425 . S
C3000 C3007 1.409 . S
C3001 H2993 0.930 . S
C3001 C2999 1.419 1_565 S
C3001 C3002 1.362 1_565 S
C3002 H2994 0.930 1_545 S
C3002 C3001 1.362 1_545 S
C3002 C3005 1.409 . S
C3003 H2995 0.930 . S
C3003 C3004 1.355 . S
C3003 C3005 1.415 . S
C3004 C3003 1.355 . S
C3004 C3006 1.419 . S
C3005 C3000 1.425 . S
C3005 C3002 1.409 . S
C3005 C3003 1.415 . S
C3006 H2996 0.930 . S
C3006 C3004 1.419 . S
C3006 C3007 1.362 . S
C3007 H2997 0.930 . S
C3007 C3000 1.409 . S
C3007 C3006 1.362 . S
H3008 C3014 0.930 . S
H3009 C3017 0.930 . S
H3010 C3018 0.930 . S
H3011 C3019 0.930 . S
H3012 C3022 0.930 . S
H3013 C3023 0.932 1_455 S
C3014 H3008 0.930 . S
C3014 C3015 1.355 . S
C3014 C3016 1.415 . S
C3015 C3014 1.355 . S
C3015 C3017 1.419 . S
C3016 C3014 1.415 . S
C3016 C3021 1.425 . S
C3016 C3023 1.403 . S
C3017 H3009 0.930 . S
C3017 C3015 1.419 . S
C3017 C3018 1.362 . S
C3018 H3010 0.930 . S
C3018 C3017 1.362 . S
C3018 C3021 1.409 . S
C3019 H3011 0.930 . S
C3019 C3020 1.355 . S
C3019 C3021 1.415 . S
C3020 C3019 1.355 . S
C3020 C3022 1.419 1_655 S
C3021 C3016 1.425 . S
C3021 C3018 1.409 . S
C3021 C3019 1.415 . S
C3022 H3012 0.930 . S
C3022 C3020 1.419 1_455 S
C3022 C3023 1.366 1_455 S
C3023 H3013 0.932 1_655 S
C3023 C3016 1.403 . S
C3023 C3022 1.366 1_655 S
H3024 C3030 0.930 . S
H3025 C3033 0.930 . S
H3026 C3034 0.930 . S
H3027 C3035 0.930 . S
H3028 C3038 0.930 . S
H3029 C3039 0.930 . S
C3030 H3024 0.930 . S
C3030 C3031 1.355 . S
C3030 C3032 1.415 . S
C3031 C3030 1.355 . S
C3031 C3033 1.419 . S
C3032 C3030 1.415 . S
C3032 C3037 1.425 . S
C3032 C3039 1.409 . S
C3033 H3025 0.930 . S
C3033 C3031 1.419 . S
C3033 C3034 1.362 . S
C3034 H3026 0.930 . S
C3034 C3033 1.362 . S
C3034 C3037 1.409 . S
C3035 H3027 0.930 . S
C3035 C3036 1.355 . S
C3035 C3037 1.415 . S
C3036 C3035 1.355 . S
C3036 C3038 1.419 . S
C3037 C3032 1.425 . S
C3037 C3034 1.409 . S
C3037 C3035 1.415 . S
C3038 H3028 0.930 . S
C3038 C3036 1.419 . S
C3038 C3039 1.362 . S
C3039 H3029 0.930 . S
C3039 C3032 1.409 . S
C3039 C3038 1.362 . S
H3040 C3046 0.930 . S
H3041 C3049 0.930 . S
H3042 C3050 0.930 . S
H3043 C3051 0.930 . S
H3044 C3054 0.930 . S
H3045 C3055 0.930 . S
C3046 H3040 0.930 . S
C3046 C3047 1.355 . S
C3046 C3048 1.415 . S
C3047 C3046 1.355 . S
C3047 C3049 1.419 . S
C3048 C3046 1.415 . S
C3048 C3053 1.425 . S
C3048 C3055 1.409 1_565 S
C3049 H3041 0.930 . S
C3049 C3047 1.419 . S
C3049 C3050 1.362 . S
C3050 H3042 0.930 . S
C3050 C3049 1.362 . S
C3050 C3053 1.409 . S
C3051 H3043 0.930 . S
C3051 C3052 1.355 . S
C3051 C3053 1.415 . S
C3052 C3051 1.355 . S
C3052 C3054 1.419 1_565 S
C3053 C3048 1.425 . S
C3053 C3050 1.409 . S
C3053 C3051 1.415 . S
C3054 H3044 0.930 . S
C3054 C3052 1.419 1_545 S
C3054 C3055 1.362 . S
C3055 H3045 0.930 . S
C3055 C3048 1.409 1_545 S
C3055 C3054 1.362 . S
H3056 C3062 0.930 . S
H3057 C3065 0.930 . S
H3058 C3066 0.930 . S
H3059 C3067 0.930 . S
H3060 C3070 0.930 . S
H3061 C3071 0.929 1_655 S
C3062 H3056 0.930 . S
C3062 C3063 1.355 . S
C3062 C3064 1.415 . S
C3063 C3062 1.355 . S
C3063 C3065 1.419 . S
C3064 C3062 1.415 . S
C3064 C3069 1.425 . S
C3064 C3071 1.410 . S
C3065 H3057 0.930 . S
C3065 C3063 1.419 . S
C3065 C3066 1.362 . S
C3066 H3058 0.930 . S
C3066 C3065 1.362 . S
C3066 C3069 1.409 . S
C3067 H3059 0.930 . S
C3067 C3068 1.355 . S
C3067 C3069 1.415 . S
C3068 C3067 1.355 . S
C3068 C3070 1.419 1_455 S
C3069 C3064 1.425 . S
C3069 C3066 1.409 . S
C3069 C3067 1.415 . S
C3070 H3060 0.930 . S
C3070 C3068 1.419 1_655 S
C3070 C3071 1.363 1_655 S
C3071 H3061 0.929 1_455 S
C3071 C3064 1.410 . S
C3071 C3070 1.363 1_455 S
H3072 C3078 0.930 . S
H3073 C3081 0.930 . S
H3074 C3082 0.930 . S
H3075 C3083 0.930 . S
H3076 C3086 0.930 . S
H3077 C3087 0.930 . S
C3078 H3072 0.930 . S
C3078 C3079 1.355 . S
C3078 C3080 1.415 . S
C3079 C3078 1.355 . S
C3079 C3081 1.419 . S
C3080 C3078 1.415 . S
C3080 C3085 1.425 1_655 S
C3080 C3087 1.409 1_655 S
C3081 H3073 0.930 . S
C3081 C3079 1.419 . S
C3081 C3082 1.362 . S
C3082 H3074 0.930 . S
C3082 C3081 1.362 . S
C3082 C3085 1.409 1_655 S
C3083 H3075 0.930 . S
C3083 C3084 1.355 . S
C3083 C3085 1.415 . S
C3084 C3083 1.355 . S
C3084 C3086 1.419 . S
C3085 C3080 1.425 1_455 S
C3085 C3082 1.409 1_455 S
C3085 C3083 1.415 . S
C3086 H3076 0.930 . S
C3086 C3084 1.419 . S
C3086 C3087 1.362 . S
C3087 H3077 0.930 . S
C3087 C3080 1.409 1_455 S
C3087 C3086 1.362 . S
H3088 C3094 0.930 . S
H3089 C3097 0.930 . S
H3090 C3098 0.930 . S
H3091 C3099 0.930 . S
H3092 C3102 0.930 . S
H3093 C3103 0.930 . S
C3094 H3088 0.930 . S
C3094 C3095 1.355 . S
C3094 C3096 1.415 . S
C3095 C3094 1.355 . S
C3095 C3097 1.419 . S
C3096 C3094 1.415 . S
C3096 C3101 1.425 . S
C3096 C3103 1.409 . S
C3097 H3089 0.930 . S
C3097 C3095 1.419 . S
C3097 C3098 1.362 . S
C3098 H3090 0.930 . S
C3098 C3097 1.362 . S
C3098 C3101 1.409 . S
C3099 H3091 0.930 . S
C3099 C3100 1.355 . S
C3099 C3101 1.415 . S
C3100 C3099 1.355 . S
C3100 C3102 1.419 . S
C3101 C3096 1.425 . S
C3101 C3098 1.409 . S
C3101 C3099 1.415 . S
C3102 H3092 0.930 . S
C3102 C3100 1.419 . S
C3102 C3103 1.362 . S
C3103 H3093 0.930 . S
C3103 C3096 1.409 . S
C3103 C3102 1.362 . S
H3104 C3110 0.930 . S
H3105 C3113 0.930 . S
H3106 C3114 0.930 . S
H3107 C3115 0.930 . S
H3108 C3118 0.930 . S
H3109 C3119 0.930 . S
C3110 H3104 0.930 . S
C3110 C3111 1.355 . S
C3110 C3112 1.415 . S
C3111 C3110 1.355 . S
C3111 C3113 1.419 . S
C3112 C3110 1.415 . S
C3112 C3117 1.425 1_545 S
C3112 C3119 1.409 1_545 S
C3113 H3105 0.930 . S
C3113 C3111 1.419 . S
C3113 C3114 1.362 . S
C3114 H3106 0.930 . S
C3114 C3113 1.362 . S
C3114 C3117 1.409 1_545 S
C3115 H3107 0.930 . S
C3115 C3116 1.355 . S
C3115 C3117 1.415 . S
C3116 C3115 1.355 . S
C3116 C3118 1.419 . S
C3117 C3112 1.425 1_565 S
C3117 C3114 1.409 1_565 S
C3117 C3115 1.415 . S
C3118 H3108 0.930 . S
C3118 C3116 1.419 . S
C3118 C3119 1.362 . S
C3119 H3109 0.930 . S
C3119 C3112 1.409 1_565 S
C3119 C3118 1.362 . S
H3120 C3126 0.930 . S
H3121 C3129 0.930 . S
H3122 C3130 0.914 1_565 S
H3123 C3131 0.930 . S
H3124 C3134 0.930 . S
H3125 C3135 0.914 1_545 S
C3126 H3120 0.930 . S
C3126 C3127 1.355 . S
C3126 C3128 1.415 . S
C3127 C3126 1.355 . S
C3127 C3129 1.419 . S
C3128 C3126 1.415 . S
C3128 C3133 1.425 1_545 S
C3128 C3135 1.381 1_545 S
C3129 H3121 0.930 . S
C3129 C3127 1.419 . S
C3129 C3130 1.409 . S
C3130 H3122 0.914 1_545 S
C3130 C3129 1.409 . S
C3130 C3133 1.381 1_545 S
C3131 H3123 0.930 . S
C3131 C3132 1.355 . S
C3131 C3133 1.415 . S
C3132 C3131 1.355 . S
C3132 C3134 1.419 . S
C3133 C3128 1.425 1_565 S
C3133 C3130 1.381 1_565 S
C3133 C3131 1.415 . S
C3134 H3124 0.930 . S
C3134 C3132 1.419 . S
C3134 C3135 1.409 . S
C3135 H3125 0.914 1_565 S
C3135 C3128 1.381 1_565 S
C3135 C3134 1.409 . S
H3136 C3142 0.930 . S
H3137 C3145 0.930 . S
H3138 C3146 0.930 1_455 S
H3139 C3147 0.930 . S
H3140 C3150 0.930 . S
H3141 C3151 0.930 1_655 S
C3142 H3136 0.930 . S
C3142 C3143 1.355 . S
C3142 C3144 1.415 . S
C3143 C3142 1.355 . S
C3143 C3145 1.419 . S
C3144 C3142 1.415 . S
C3144 C3149 1.425 1_655 S
C3144 C3151 1.409 1_655 S
C3145 H3137 0.930 . S
C3145 C3143 1.419 . S
C3145 C3146 1.362 . S
C3146 H3138 0.930 1_655 S
C3146 C3145 1.362 . S
C3146 C3149 1.409 1_655 S
C3147 H3139 0.930 . S
C3147 C3148 1.355 . S
C3147 C3149 1.415 . S
C3148 C3147 1.355 . S
C3148 C3150 1.419 . S
C3149 C3144 1.425 1_455 S
C3149 C3146 1.409 1_455 S
C3149 C3147 1.415 . S
C3150 H3140 0.930 . S
C3150 C3148 1.419 . S
C3150 C3151 1.362 . S
C3151 H3141 0.930 1_455 S
C3151 C3144 1.409 1_455 S
C3151 C3150 1.362 . S
H3152 C3158 0.930 . S
H3153 C3161 0.930 . S
H3154 C3162 0.930 . S
H3155 C3163 0.930 . S
H3156 C3166 0.930 . S
H3157 C3167 0.930 . S
C3158 H3152 0.930 . S
C3158 C3159 1.355 . S
C3158 C3160 1.415 . S
C3159 C3158 1.355 . S
C3159 C3161 1.419 . S
C3160 C3158 1.415 . S
C3160 C3165 1.425 . S
C3160 C3167 1.409 . S
C3161 H3153 0.930 . S
C3161 C3159 1.419 . S
C3161 C3162 1.362 . S
C3162 H3154 0.930 . S
C3162 C3161 1.362 . S
C3162 C3165 1.409 . S
C3163 H3155 0.930 . S
C3163 C3164 1.355 . S
C3163 C3165 1.415 . S
C3164 C3163 1.355 . S
C3164 C3166 1.419 . S
C3165 C3160 1.425 . S
C3165 C3162 1.409 . S
C3165 C3163 1.415 . S
C3166 H3156 0.930 . S
C3166 C3164 1.419 . S
C3166 C3167 1.362 . S
C3167 H3157 0.930 . S
C3167 C3160 1.409 . S
C3167 C3166 1.362 . S
C1447 C26 1.745 . S
C1452 C293 1.770 . S
C1463 C333 1.784 . S
C1468 C66 1.769 . S
C1479 C253 1.784 . S
C1484 C106 1.767 . S
C1495 C453 1.774 . S
C1500 C146 1.758 . S
C1511 C186 1.738 . S
C1516 C373 1.769 . S
C1527 C226 1.766 . S
C1532 C413 1.784 . S
C1543 C64 1.778 . S
C1548 C257 1.738 . S
C1559 C297 1.729 . S
C1564 C104 1.769 . S
C1575 C24 1.782 . S
C1580 C337 1.753 . S
C1591 C224 1.775 . S
C1596 C377 1.760 . S
C1607 C417 1.732 . S
C1612 C144 1.774 . S
C1623 C457 1.731 . S
C1628 C184 1.769 . S
C1639 C506 1.733 . S
C1644 C773 1.769 . S
C1655 C813 1.783 . S
C1660 C546 1.756 . S
C1671 C733 1.778 . S
C1676 C586 1.767 . S
C1687 C626 1.746 . S
C1692 C933 1.781 . S
C1703 C853 1.769 . S
C1708 C666 1.740 . S
C1719 C706 1.769 . S
C1724 C893 1.784 . S
C1735 C737 1.759 . S
C1740 C544 1.774 . S
C1751 C584 1.781 . S
C1756 C777 1.771 . S
C1767 C817 1.729 . S
C1772 C504 1.772 . S
C1783 C704 1.776 . S
C1788 C857 1.763 . S
C1799 C624 1.779 . S
C1804 C897 1.743 . S
C1815 C937 1.758 . S
C1820 C664 1.774 . S
C1831 C986 1.749 . S
C1836 C1253 1.782 . S
C1847 C1026 1.751 . S
C1852 C1293 1.771 . S
C1863 C1213 1.772 . S
C1868 C1066 1.755 . S
C1879 C1413 1.785 . S
C1884 C1106 1.766 . S
C1895 C1146 1.728 . S
C1900 C1333 1.771 . S
C1911 C1373 1.776 . S
C1916 C1186 1.764 . S
C1927 C1024 1.783 . S
C1932 C1217 1.756 . S
C1943 C1257 1.740 . S
C1948 C1064 1.769 . S
C1959 C984 1.769 . S
C1964 C1297 1.729 . S
C1975 C1337 1.771 . S
C1980 C1184 1.783 . S
C1991 C1377 1.731 . S
C1996 C1104 1.769 . S
C2007 C1417 1.758 . S
C2012 C1144 1.774 . S
C2023 C13 2.164 . S
C2028 C744 2.164 . S
C2039 C53 2.157 . S
C2044 C784 2.157 . S
C2055 C824 2.192 . S
C2060 C93 2.192 . S
C2071 C1344 2.172 . S
C2076 C133 2.172 . S
C2087 C1384 2.155 . S
C2092 C173 2.155 . S
C2103 C1424 2.192 . S
C2108 C213 2.192 . S
C2119 C264 2.186 . S
C2124 C973 2.186 . S
C2135 C1013 2.156 . S
C2140 C304 2.156 . S
C2151 C344 2.193 . S
C2156 C1053 2.193 . S
C2167 C384 2.195 . S
C2172 C613 2.195 . S
C2183 C424 2.189 . S
C2188 C653 2.189 . S
C2199 C464 2.191 . S
C2204 C693 2.191 . S
C2215 C493 2.175 . S
C2220 C1224 2.175 . S
C2231 C1264 2.174 . S
C2236 C533 2.174 . S
C2247 C573 2.163 . S
C2252 C1304 2.163 . S
C2263 C1093 2.183 . S
C2268 C864 2.183 . S
C2279 C904 2.157 . S
C2284 C1133 2.157 . S
C2295 C1173 2.169 . S
C2300 C944 2.169 . S
C2311 C23 2.298 1_556 S
C2316 C663 2.266 . S
C2327 C63 2.325 1_556 S
C2332 C703 2.324 . S
C2343 C623 2.326 . S
C2348 C103 2.275 1_556 S
C2359 C143 2.274 . S
C2364 C1063 2.281 . S
C2375 C983 2.269 . S
C2380 C183 2.289 . S
C2391 C223 2.268 . S
C2396 C1023 2.290 . S
C2407 C1362 2.281 . S
C2412 C242 2.331 1_554 S
C2423 C282 2.266 1_554 S
C2428 C1402 2.300 . S
C2439 C1322 2.272 . S
C2444 C322 2.323 1_554 S
C2455 C362 2.332 . S
C2460 C802 2.283 . S
C2471 C402 2.293 . S
C2476 C722 2.336 . S
C2487 C442 2.325 . S
C2492 C762 2.325 . S
C2503 C1143 2.310 . S
C2508 C503 2.266 . S
C2519 C543 2.335 . S
C2524 C1183 2.292 . S
C2535 C583 2.279 . S
C2540 C1103 2.330 . S
C2551 C1282 2.316 . S
C2556 C842 2.268 . S
C2567 C1202 2.334 . S
C2572 C882 2.313 . S
C2583 C1242 2.266 . S
C2588 C922 2.296 . S
C2599 C122 2.802 . S
C2604 C2 2.804 . S
C2615 C42 2.774 . S
C2620 C162 2.777 . S
C2631 C82 2.804 . S
C2636 C202 2.804 . S
C2647 C383 2.783 . S
C2652 C263 2.779 . S
C2663 C303 2.777 . S
C2668 C423 2.774 . S
C2679 C463 2.774 . S
C2684 C343 2.776 . S
C2695 C602 2.777 . S
C2700 C482 2.775 . S
C2711 C522 2.784 . S
C2716 C642 2.780 . S
C2727 C562 2.804 . S
C2732 C682 2.803 . S
C2743 C743 2.804 . S
C2748 C863 2.802 1_554 S
C2759 C783 2.779 . S
C2764 C903 2.784 1_554 S
C2775 C823 2.796 . S
C2780 C943 2.801 1_554 S
C2791 C962 2.805 . S
C2796 C1082 2.803 1_556 S
C2807 C1122 2.786 1_556 S
C2812 C1002 2.792 . S
C2823 C1162 2.777 1_556 S
C2828 C1042 2.781 . S
C2839 C1223 2.793 . S
C2844 C1343 2.788 . S
C2855 C1383 2.775 . S
C2860 C1263 2.774 . S
C2871 C1303 2.790 . S
C2876 C1423 2.784 . S
C2887 C17 0.412 . S
C2892 C1177 0.468 . S
C2903 C1097 0.316 . S
C2908 C57 0.372 . S
C2919 C97 0.296 . S
C2924 C1137 0.338 . S
C2935 C537 0.418 . S
C2940 C137 0.355 . S
C2951 C177 0.369 . S
C2956 C577 0.314 . S
C2967 C217 0.420 . S
C2972 C497 0.474 . S
C2983 C946 0.365 . S
C2988 C266 0.428 . S
C2999 C306 0.314 . S
C3004 C866 0.371 . S
C3015 C906 0.322 . S
C3020 C346 0.291 . S
C3031 C386 0.298 . S
C3036 C1266 0.343 . S
C3047 C1306 0.427 . S
C3052 C426 0.364 . S
C3063 C1226 0.457 . S
C3068 C466 0.398 . S
C3079 C617 0.321 . S
C3084 C1017 0.380 . S
C3095 C657 0.344 . S
C3100 C1057 0.299 . S
C3111 C697 0.477 . S
C3116 C977 0.425 . S
C3127 C746 0.503 . S
C3132 C1426 0.513 . S
C3143 C786 0.466 . S
C3148 C1346 0.410 . S
C3159 C1386 0.462 . S
C3164 C826 0.501 . S
