# Generated by pormake.
# Topology smm, (6)-cn, num edge types: 1
# Building blocks:
#     Node 0, Type 0, BuildingBlock: KUMBUR_clean_sbu_0, # of connection points: 6
#     Node 1, Type 0, BuildingBlock: KUMBUR_clean_sbu_0, # of connection points: 6
#     Node 2, Type 0, BuildingBlock: KUMBUR_clean_sbu_0, # of connection points: 6
#     Node 3, Type 0, BuildingBlock: KUMBUR_clean_sbu_0, # of connection points: 6
#     Node 4, Type 0, BuildingBlock: KUMBUR_clean_sbu_0, # of connection points: 6
#     Node 5, Type 0, BuildingBlock: KUMBUR_clean_sbu_0, # of connection points: 6
#     Node 6, Type 0, BuildingBlock: KUMBUR_clean_sbu_0, # of connection points: 6
#     Node 7, Type 0, BuildingBlock: KUMBUR_clean_sbu_0, # of connection points: 6
#     Node 8, Type 0, BuildingBlock: KUMBUR_clean_sbu_0, # of connection points: 6
#     Edge 9, Type (0, 0), BuildingBlock: XIVTED_clean_linker_0, # of connection points: 2
#     Edge 10, Type (0, 0), BuildingBlock: XIVTED_clean_linker_0, # of connection points: 2
#     Edge 11, Type (0, 0), BuildingBlock: XIVTED_clean_linker_0, # of connection points: 2
#     Edge 12, Type (0, 0), BuildingBlock: XIVTED_clean_linker_0, # of connection points: 2
#     Edge 13, Type (0, 0), BuildingBlock: XIVTED_clean_linker_0, # of connection points: 2
#     Edge 14, Type (0, 0), BuildingBlock: XIVTED_clean_linker_0, # of connection points: 2
#     Edge 15, Type (0, 0), BuildingBlock: XIVTED_clean_linker_0, # of connection points: 2
#     Edge 16, Type (0, 0), BuildingBlock: XIVTED_clean_linker_0, # of connection points: 2
#     Edge 17, Type (0, 0), BuildingBlock: XIVTED_clean_linker_0, # of connection points: 2
#     Edge 18, Type (0, 0), BuildingBlock: XIVTED_clean_linker_0, # of connection points: 2
#     Edge 19, Type (0, 0), BuildingBlock: XIVTED_clean_linker_0, # of connection points: 2
#     Edge 20, Type (0, 0), BuildingBlock: XIVTED_clean_linker_0, # of connection points: 2
#     Edge 21, Type (0, 0), BuildingBlock: XIVTED_clean_linker_0, # of connection points: 2
#     Edge 22, Type (0, 0), BuildingBlock: XIVTED_clean_linker_0, # of connection points: 2
#     Edge 23, Type (0, 0), BuildingBlock: XIVTED_clean_linker_0, # of connection points: 2
#     Edge 24, Type (0, 0), BuildingBlock: XIVTED_clean_linker_0, # of connection points: 2
#     Edge 25, Type (0, 0), BuildingBlock: XIVTED_clean_linker_0, # of connection points: 2
#     Edge 26, Type (0, 0), BuildingBlock: XIVTED_clean_linker_0, # of connection points: 2
#     Edge 27, Type (0, 0), BuildingBlock: XIVTED_clean_linker_0, # of connection points: 2
#     Edge 28, Type (0, 0), BuildingBlock: XIVTED_clean_linker_0, # of connection points: 2
#     Edge 29, Type (0, 0), BuildingBlock: XIVTED_clean_linker_0, # of connection points: 2
#     Edge 30, Type (0, 0), BuildingBlock: XIVTED_clean_linker_0, # of connection points: 2
#     Edge 31, Type (0, 0), BuildingBlock: XIVTED_clean_linker_0, # of connection points: 2
#     Edge 32, Type (0, 0), BuildingBlock: XIVTED_clean_linker_0, # of connection points: 2
#     Edge 33, Type (0, 0), BuildingBlock: XIVTED_clean_linker_0, # of connection points: 2
#     Edge 34, Type (0, 0), BuildingBlock: XIVTED_clean_linker_0, # of connection points: 2
#     Edge 35, Type (0, 0), BuildingBlock: XIVTED_clean_linker_0, # of connection points: 2
# Relax obj value: 0.115
# Max RMSD: 0.258
# Mean RMSD: 0.195
data_MOF--net-smm--node1-KUMBUR_clean_sbu_0--edge1-XIVTED_clean_linker_0
_symmetry_space_group_name_H-M    P1
_symmetry_Int_Tables_number       1
_symmetry_cell_setting            triclinic
loop_
_symmetry_equiv_pos_as_xyz
'x, y, z'
_cell_length_a     57.862436
_cell_length_b     72.58434
_cell_length_c     15.116744
_cell_angle_alpha  98.739066
_cell_angle_beta   98.957523
_cell_angle_gamma 122.05603
loop_
_atom_site_label
_atom_site_type_symbol
_atom_site_fract_x
_atom_site_fract_y
_atom_site_fract_z
_atom_type_partial_charge
Tb0 Tb 0.0993 0.24244 0.17706 0.0
C1 C 0.97814 0.18286 0.92172 0.0
C2 C 0.95257 0.19579 -0.00738 0.0
C3 C 0.93822 0.18026 0.8245 0.0
C4 C 0.97495 0.19282 0.00046 0.0
C5 C 0.95933 0.17597 0.83316 0.0
C6 C 0.93483 0.19013 0.90408 0.0
C7 C 0.9816 0.159 0.76932 0.0
N8 N 0.99868 0.17879 0.93266 0.0
C9 C 0.99971 0.16605 0.85836 0.0
C10 C 0.96165 0.1643 0.75633 0.0
Tb11 Tb 1.0277 0.1924 0.08245 0.0
N12 N 0.99227 0.19787 0.08524 0.0
C13 C 0.98618 0.20348 0.16484 0.0
C14 C 0.94785 0.20339 0.07415 0.0
C15 C 0.96433 0.20675 0.16057 0.0
H16 H 1.01467 0.16147 0.866 0.0
H17 H 0.96029 0.21194 0.22408 0.0
H18 H 0.9178 0.1926 0.8967 0.0
H19 H 0.98302 0.14942 0.7107 0.0
H20 H 0.99849 0.20612 0.23228 0.0
H21 H 0.1649 0.22123 0.03387 0.0
H22 H 0.93093 0.20592 0.0711 0.0
H23 H 0.10944 0.26976 0.39225 0.0
H24 H 0.12645 0.22686 0.02776 0.0
H25 H 0.14115 0.28214 0.54927 0.0
H26 H 0.9238 0.17532 0.75691 0.0
H27 H 0.19588 0.22862 0.1862 0.0
H28 H 0.20997 0.24263 0.36133 0.0
H29 H 0.94759 0.15872 0.68723 0.0
H30 H 0.20357 0.25934 0.50202 0.0
N31 N 0.13466 0.23675 0.17535 0.0
C32 C 0.1397 0.23023 0.09489 0.0
C33 C 0.17892 0.23109 0.18398 0.0
C34 C 0.17473 0.23902 0.2661 0.0
C35 C 0.16155 0.22697 0.09794 0.0
C36 C 0.15228 0.24185 0.25915 0.0
H37 H 0.17823 0.2745 0.57268 0.0
N38 N 0.12782 0.2547 0.32633 0.0
C39 C 0.14346 0.27337 0.49037 0.0
C40 C 0.14872 0.25116 0.33772 0.0
C41 C 0.12554 0.26635 0.40088 0.0
C42 C 0.1643 0.26896 0.50337 0.0
C43 C 0.16742 0.25802 0.42631 0.0
O44 O 0.11716 0.27744 0.21235 0.0
O45 O 0.05435 0.22913 0.13113 0.0
O46 O 1.0377 0.20914 0.97298 0.0
O47 O 0.08727 0.23128 0.0244 0.0
O48 O 0.0793 0.25818 0.23664 0.0
O49 O 0.12387 0.26182 0.09576 0.0
O50 O 1.02666 0.16514 0.12113 0.0
O51 O 0.07259 0.20561 0.12771 0.0
O52 O 0.08814 0.22344 0.27978 0.0
O53 O 1.03925 0.20589 0.2336 0.0
O54 O 0.04797 0.17884 0.01108 0.0
O55 O 0.98952 0.16527 0.09636 0.0
C56 C 0.0537 0.24403 0.18484 0.0
C57 C 0.16043 0.30012 0.17585 0.0
C58 C 0.1991 0.33498 0.15268 0.0
C59 C 0.17036 0.31618 0.1245 0.0
C60 C 0.21765 0.33708 0.23202 0.0
C61 C 0.17944 0.30289 0.255 0.0
C62 C 0.20785 0.32118 0.28254 0.0
C63 C 0.06296 0.22163 0.95935 0.0
C64 C 0.13021 0.28082 0.14747 0.0
C65 C 0.1891 0.25436 0.43449 0.0
C66 C 0.19274 0.24485 0.35443 0.0
C67 C 0.07341 0.19195 0.06654 0.0
C68 C 0.98318 0.1297 0.05044 0.0
C69 C 0.98752 0.11385 0.07872 0.0
C70 C 0.97252 0.09138 0.02131 0.0
C71 C 0.95317 0.08513 0.93522 0.0
C72 C 0.96351 0.12284 0.96445 0.0
C73 C 0.94875 0.10074 0.90729 0.0
C74 C 0.06308 0.21327 0.29672 0.0
C75 C 0.99958 0.15335 0.11018 0.0
H76 H 0.15563 0.31423 0.06392 0.0
H77 H 0.23995 0.35092 0.25466 0.0
H78 H 0.17238 0.29103 0.29602 0.0
H79 H 0.22236 0.32307 0.34349 0.0
H80 H 1.00276 0.1191 0.14485 0.0
H81 H 0.94088 0.06798 0.89006 0.0
H82 H 0.95943 0.13449 0.94122 0.0
H83 H 0.93363 0.09564 0.84121 0.0
Tb84 Tb 0.94462 0.82123 0.02954 0.0
C85 C 0.88361 0.86174 0.07953 0.0
C86 C 0.8687 0.87317 0.95266 0.0
C87 C 0.83962 0.85971 0.05808 0.0
C88 C 0.88811 0.86967 0.00278 0.0
C89 C 0.85958 0.8571 0.10948 0.0
C90 C 0.84411 0.86765 0.97944 0.0
C91 C 0.87706 0.84817 0.23988 0.0
N92 N 0.90314 0.85903 0.12616 0.0
C93 C 0.90028 0.8527 0.20668 0.0
C94 C 0.85647 0.85021 0.1907 0.0
Tb95 Tb 0.94298 0.87024 0.07503 0.0
N96 N 0.91235 0.87518 0.98044 0.0
C97 C 0.91978 0.88667 0.9143 0.0
C98 C 0.87513 0.88295 0.87948 0.0
C99 C 0.90105 0.89008 0.86124 0.0
H100 H 0.9157 0.85113 0.24664 0.0
H101 H 0.90687 0.89857 0.80747 0.0
H102 H 0.82885 0.87002 0.94134 0.0
H103 H 0.87506 0.84305 0.30341 0.0
H104 H 0.9403 0.89318 0.90217 0.0
H105 H 0.05407 0.86728 0.235 0.0
H106 H 0.86079 0.88589 0.83925 0.0
H107 H 0.91102 0.78237 0.82467 0.0
H108 H 1.00296 0.85084 0.20885 0.0
H109 H 0.92371 0.77 0.68941 0.0
H110 H 0.82085 0.85592 0.07923 0.0
H111 H 0.07219 0.86135 0.10315 0.0
H112 H 0.06152 0.84247 0.93387 0.0
H113 H 0.83839 0.84655 0.21614 0.0
H114 H 1.0259 0.81596 0.78446 0.0
N115 N 0.99216 0.8362 0.06318 0.0
C116 C 1.01051 0.84814 0.15073 0.0
C117 C 0.04971 0.85414 0.09121 0.0
C118 C 1.03057 0.84089 0.00272 0.0
C119 C 1.03954 0.85745 0.16586 0.0
C120 C 1.00157 0.83197 -0.00891 0.0
H121 H 0.97429 0.78849 0.69292 0.0
N122 N 0.95395 0.80827 0.90128 0.0
C123 C 0.94025 0.78351 0.74985 0.0
C124 C 0.98172 0.81738 0.90706 0.0
C125 C 0.93313 0.79051 0.82637 0.0
C126 C 0.96882 0.79403 0.75201 0.0
C127 C 0.99001 0.81083 0.83221 0.0
O128 O 0.91299 0.78623 0.01002 0.0
O129 O 0.9189 0.83418 0.05786 0.0
O130 O 0.96216 0.86836 0.20744 0.0
O131 O 0.94849 0.83113 0.1767 0.0
O132 O 0.89997 0.80515 0.95065 0.0
O133 O 0.95317 0.80194 0.10538 0.0
O134 O 0.95895 0.89404 0.20522 0.0
O135 O 0.97233 0.85957 0.0733 0.0
O136 O 0.94284 0.83015 0.8989 0.0
O137 O 0.93018 0.85591 0.92238 0.0
O138 O 0.97671 0.88386 0.00827 0.0
O139 O 0.96393 0.90507 0.0823 0.0
C140 C 0.89569 0.81915 -0.00489 0.0
C141 C 0.92751 0.76134 0.03605 0.0
C142 C 0.91167 0.72117 0.03071 0.0
C143 C 0.91174 0.74096 0.06557 0.0
C144 C 0.9263 0.7224 0.96294 0.0
C145 C 0.94299 0.76133 0.97363 0.0
C146 C 0.9419 0.74209 0.93631 0.0
C147 C 0.95836 0.85076 0.23499 0.0
C148 C 0.92844 0.78279 0.06783 0.0
C149 C 1.01902 0.82054 0.84154 0.0
C150 C 1.03929 0.83561 0.92667 0.0
C151 C 0.9882 0.8735 0.02977 0.0
C152 C 0.95384 0.92409 0.19561 0.0
C153 C 0.96343 0.94474 0.1732 0.0
C154 C 0.95244 0.95742 0.19965 0.0
C155 C 0.93135 0.94888 0.24661 0.0
C156 C 0.9329 0.91621 0.24345 0.0
C157 C 0.92167 0.92845 0.268 0.0
C158 C 0.93471 0.84254 0.869 0.0
C159 C 0.96561 0.91083 0.16968 0.0
H160 H 0.90022 0.7407 0.11585 0.0
H161 H 0.92592 0.70792 0.92942 0.0
H162 H 0.95607 0.77634 0.95288 0.0
H163 H 0.95344 0.74246 0.88594 0.0
H164 H 0.97966 0.95107 0.13687 0.0
H165 H 0.92207 0.95795 0.26616 0.0
H166 H 0.92512 0.90057 0.26234 0.0
H167 H 0.90541 0.92209 0.30414 0.0
Tb168 Tb 0.24221 1.01604 0.06236 0.0
C169 C 0.28034 0.10414 0.11356 0.0
C170 C 0.294 0.12576 0.27308 0.0
C171 C 0.32319 0.14256 0.17151 0.0
C172 C 0.27557 0.10549 0.19997 0.0
C173 C 0.30365 0.12301 0.09733 0.0
C174 C 0.31843 0.14391 0.25948 0.0
C175 C 0.28518 0.10266 0.93423 0.0
N176 N 0.26096 0.08493 0.04352 0.0
C177 C 0.26261 0.08439 0.95393 0.0
C178 C 0.30609 0.12193 0.00649 0.0
Tb179 Tb 0.22373 0.05604 0.08138 0.0
N180 N 0.25126 0.08787 0.20927 0.0
C181 C 0.24226 0.09108 0.28567 0.0
C182 C 0.28642 0.12775 0.35559 0.0
C183 C 0.26006 0.11054 0.36095 0.0
H184 H 0.24637 0.07026 0.89643 0.0
H185 H 0.25322 0.11237 0.42246 0.0
H186 H 0.33303 0.15945 0.31523 0.0
H187 H 0.28634 0.10188 0.86311 0.0
H188 H 0.22156 0.07818 0.2899 0.0
H189 H 0.14594 0.94536 0.8067 0.0
H190 H 0.29999 0.143 0.41332 0.0
H191 H 0.28154 1.01609 0.24697 0.0
H192 H 0.1893 0.98399 0.86645 0.0
H193 H 0.27557 0.99121 0.34908 0.0
H194 H 0.3415 0.15701 0.16077 0.0
H195 H 0.13252 0.91962 0.9077 0.0
H196 H 0.14483 0.91267 0.06056 0.0
H197 H 0.32359 0.13605 -0.00891 0.0
H198 H 0.18018 0.92537 0.21001 0.0
N199 N 0.20058 0.98071 0.00128 0.0
C200 C 0.18384 0.97318 0.91187 0.0
C201 C 0.15167 0.93665 0.93451 0.0
C202 C 0.16945 0.94411 0.0246 0.0
C203 C 0.15922 0.95111 0.87725 0.0
C204 C 0.19423 0.9664 0.05575 0.0
H205 H 0.22941 0.95449 0.31734 0.0
N206 N 0.23874 0.99417 0.16127 0.0
C207 C 0.25798 0.98607 0.29071 0.0
C208 C 0.21401 0.97344 0.1392 0.0
C209 C 0.2613 1.00007 0.23261 0.0
C210 C 0.23185 0.96541 0.27283 0.0
C211 C 0.2097 0.95857 0.19473 0.0
O212 O 0.27994 1.01702 0.07338 0.0
O213 O 0.25815 0.05153 0.06736 0.0
O214 O 0.20854 0.03742 0.93362 0.0
O215 O 0.23543 1.0225 0.9284 0.0
O216 O 0.28303 0.04578 0.15396 0.0
O217 O 0.24616 0.99856 0.9473 0.0
O218 O 0.20502 0.06598 -0.01554 0.0
O219 O 0.20639 1.01955 0.04703 0.0
O220 O 0.23603 1.02087 0.19995 0.0
O221 O 0.23593 0.05339 0.22089 0.0
O222 O 0.18652 1.03007 0.11917 0.0
O223 O 0.19603 0.06507 0.11487 0.0
C224 C 0.28281 0.06159 0.12603 0.0
C225 C 0.27372 0.98397 0.98263 0.0
C226 C 0.29984 0.96678 0.95248 0.0
C227 C 0.29845 0.98594 0.96698 0.0
C228 C 0.27668 0.94608 0.95652 0.0
C229 C 0.25105 0.96289 -0.01458 0.0
C230 C 0.25263 0.94423 0.97334 0.0
C231 C 0.21889 1.02788 0.88747 0.0
C232 C 0.27069 1.00329 -0.00914 0.0
C233 C 0.18409 0.93695 0.16768 0.0
C234 C 0.16398 0.92971 0.08256 0.0
C235 C 0.18563 1.01229 0.08426 0.0
C236 C 0.1986 0.0944 0.05357 0.0
C237 C 0.17752 0.09862 0.06391 0.0
C238 C 0.1842 0.12106 0.07983 0.0
C239 C 0.21191 0.13881 0.08528 0.0
C240 C 0.22554 0.11275 0.056 0.0
C241 C 0.23221 0.13465 0.07277 0.0
C242 C 0.23659 0.03754 0.25148 0.0
C243 C 0.19316 0.07129 0.04027 0.0
H244 H 0.31603 1.00199 0.96338 0.0
H245 H 0.27719 0.93121 0.94647 0.0
H246 H 0.23175 0.96064 -0.00493 0.0
H247 H 0.23491 0.92811 0.97572 0.0
H248 H 0.15633 0.08471 0.06015 0.0
H249 H 0.21771 0.15602 0.09675 0.0
H250 H 0.24158 0.11024 0.04378 0.0
H251 H 0.25326 0.14851 0.07506 0.0
Tb252 Tb 0.75188 0.52441 0.1011 0.0
C253 C 0.86657 0.56443 0.11717 0.0
C254 C 0.8797 0.55517 0.98124 0.0
C255 C 0.90893 0.59355 0.08444 0.0
C256 C 0.8609 0.54896 0.03726 0.0
C257 C 0.8909 0.58686 0.14261 0.0
C258 C 0.90337 0.57771 0.00397 0.0
C259 C 0.87863 0.59394 0.28352 0.0
N260 N 0.84886 0.55722 0.17205 0.0
C261 C 0.85497 0.57143 0.25579 0.0
C262 C 0.89656 0.60176 0.22633 0.0
Tb263 Tb 0.81047 0.52026 0.11881 0.0
N264 N 0.83804 0.52735 0.01839 0.0
C265 C 0.83453 0.51054 0.95045 0.0
C266 C 0.87478 0.53835 0.90652 0.0
C267 C 0.85236 0.51586 0.89209 0.0
H268 H 0.84144 0.56566 0.30088 0.0
H269 H 0.84891 0.5026 0.83643 0.0
H270 H 0.91792 0.5829 0.96124 0.0
H271 H 0.88304 0.60523 0.34909 0.0
H272 H 0.81732 0.4931 0.93964 0.0
H273 H 0.69672 0.46433 0.29014 0.0
H274 H 0.88873 0.54242 0.8618 0.0
H275 H 0.72489 0.53242 0.91307 0.0
H276 H 0.7363 0.49892 0.26889 0.0
H277 H 0.68179 0.51044 0.77863 0.0
H278 H 0.92757 0.61076 0.10225 0.0
H279 H 0.65327 0.43761 0.15887 0.0
H280 H 0.62598 0.42851 -0.00645 0.0
H281 H 0.91493 0.61917 0.24813 0.0
H282 H 0.62231 0.44076 0.85171 0.0
N283 N 0.71617 0.49213 0.12638 0.0
C284 C 0.71769 0.48759 0.21087 0.0
C285 C 0.67066 0.45288 0.1492 0.0
C286 C 0.66868 0.45805 0.06412 0.0
C287 C 0.69512 0.46793 0.22341 0.0
C288 C 0.69199 0.47815 0.05533 0.0
H289 H 0.64296 0.47151 0.77104 0.0
N290 N 0.712 0.5054 0.97558 0.0
C291 C 0.68397 0.50287 0.83296 0.0
C292 C 0.69002 0.48487 0.97604 0.0
C293 C 0.70847 0.51519 0.90865 0.0
C294 C 0.66213 0.4809 0.82886 0.0
C295 C 0.66458 0.47192 0.90258 0.0
O296 O 0.74435 0.54971 0.0962 0.0
O297 O 0.7984 0.54469 0.13086 0.0
O298 O 0.80342 0.52254 0.25563 0.0
O299 O 0.77485 0.53589 0.2487 0.0
O300 O 0.77563 0.55129 0.03828 0.0
O301 O 0.73699 0.53365 0.20602 0.0
O302 O 0.84137 0.52328 0.22659 0.0
O303 O 0.76612 0.50263 0.12055 0.0
O304 O 0.7511 0.51118 0.95877 0.0
O305 O 0.797 0.51977 0.97565 0.0
O306 O 0.7767 0.48526 0.03602 0.0
O307 O 0.81477 0.49297 0.11406 0.0
C308 C 0.80109 0.55808 0.07936 0.0
C309 C 0.70947 0.54756 0.16552 0.0
C310 C 0.68717 0.56527 0.2267 0.0
C311 C 0.7114 0.56518 0.22652 0.0
C312 C 0.66083 0.54734 0.16434 0.0
C313 C 0.68305 0.52973 0.10422 0.0
C314 C 0.65887 0.5297 0.10351 0.0
C315 C 0.79088 0.53076 0.29524 0.0
C316 C 0.73535 0.54813 0.16984 0.0
C317 C 0.64191 0.45112 0.90792 0.0
C318 C 0.64395 0.44419 -0.01123 0.0
C319 C 0.75595 0.48325 0.06535 0.0
C320 C 0.8606 0.50226 0.1834 0.0
C321 C 0.86002 0.48286 0.19296 0.0
C322 C 0.8832 0.48141 0.18539 0.0
C323 C 0.90687 0.49982 0.16921 0.0
C324 C 0.8847 0.52024 0.16787 0.0
C325 C 0.90757 0.51898 0.16071 0.0
C326 C 0.7721 0.51373 0.92479 0.0
C327 C 0.83603 0.50356 0.18881 0.0
H328 H 0.73178 0.57862 0.27535 0.0
H329 H 0.64182 0.54702 0.16213 0.0
H330 H 0.681 0.51584 0.05751 0.0
H331 H 0.63853 0.51593 0.05586 0.0
H332 H 0.84147 0.46886 0.20481 0.0
H333 H 0.92521 0.49959 0.16448 0.0
H334 H 0.88597 0.53537 0.16165 0.0
H335 H 0.92605 0.533 0.1488 0.0
Tb336 Tb 0.52983 0.1767 0.1183 0.0
C337 C 0.50988 0.24821 0.27257 0.0
C338 C 0.46223 0.23289 0.18112 0.0
C339 C 0.48058 0.25776 0.33836 0.0
C340 C 0.48817 0.23489 0.19114 0.0
C341 C 0.50662 0.26015 0.3467 0.0
C342 C 0.45838 0.24411 0.25571 0.0
C343 C 0.55557 0.27693 0.42901 0.0
N344 N 0.53461 0.25001 0.27787 0.0
C345 C 0.55776 0.26476 0.35347 0.0
C346 C 0.5298 0.27444 0.42606 0.0
Tb347 Tb 0.53623 0.2294 0.15121 0.0
N348 N 0.49297 0.22468 0.12038 0.0
C349 C 0.47288 0.21298 0.03558 0.0
C350 C 0.44119 0.22009 0.09582 0.0
C351 C 0.44666 0.21027 0.0225 0.0
H352 H 0.57775 0.26673 0.35663 0.0
H353 H 0.43069 0.20061 0.9557 0.0
H354 H 0.43855 0.24268 0.24953 0.0
H355 H 0.57377 0.28821 0.48943 0.0
H356 H 0.4765 0.20526 0.97759 0.0
H357 H 0.63146 0.19806 0.31523 0.0
H358 H 0.42092 0.21806 0.08531 0.0
H359 H 0.48883 0.14292 0.904 0.0
H360 H 0.58775 0.19685 0.2925 0.0
H361 H 0.49209 0.12178 0.7689 0.0
H362 H 0.47755 0.26666 0.39473 0.0
H363 H 0.64031 0.18038 0.18352 0.0
H364 H 0.62275 0.1575 0.01635 0.0
H365 H 0.52817 0.28392 0.48456 0.0
H366 H 0.58474 0.13658 0.8679 0.0
N367 N 0.57167 0.17912 0.14755 0.0
C368 C 0.59099 0.18897 0.23382 0.0
C369 C 0.62093 0.17977 0.17286 0.0
C370 C 0.60048 0.16867 0.08606 0.0
C371 C 0.61599 0.18973 0.24732 0.0
C372 C 0.5757 0.16849 0.07582 0.0
H373 H 0.53584 0.12297 0.77535 0.0
N374 N 0.53075 0.15666 -0.01285 0.0
C375 C 0.50986 0.13165 0.83131 0.0
C376 C 0.55449 0.15684 -0.00733 0.0
C377 C 0.50812 0.14369 0.90851 0.0
C378 C 0.5346 0.13239 0.83515 0.0
C379 C 0.55722 0.14491 0.91681 0.0
O380 O 0.49643 0.14303 0.10255 0.0
O381 O 0.50702 0.19267 0.1393 0.0
O382 O 0.52948 0.21928 0.2772 0.0
O383 O 0.54517 0.19561 0.26624 0.0
O384 O 0.4863 0.16273 0.04027 0.0
O385 O 0.53174 0.16197 0.22678 0.0
O386 O 0.57298 0.26216 0.16888 0.0
O387 O 0.55734 0.21234 0.13261 0.0
O388 O 0.53949 0.18888 -0.00253 0.0
O389 O 0.52118 0.21065 0.00371 0.0
O390 O 0.58063 0.24315 0.22617 0.0
O391 O 0.53641 0.24767 0.05382 0.0
C392 C 0.48249 0.17722 0.08215 0.0
C393 C 0.51128 0.12273 0.17522 0.0
C394 C 0.51629 0.09719 0.2528 0.0
C395 C 0.5138 0.1156 0.25578 0.0
C396 C 0.51617 0.08607 0.16767 0.0
C397 C 0.51118 0.11125 0.09138 0.0
C398 C 0.51367 0.09309 0.0879 0.0
C399 C 0.53849 0.20809 0.31406 0.0
C400 C 0.50896 0.14219 0.17987 0.0
C401 C 0.58216 0.14553 0.92553 0.0
C402 C 0.60379 0.15742 0.01002 0.0
C403 C 0.58209 0.22703 0.18618 0.0
C404 C 0.56764 0.28861 0.1075 0.0
C405 C 0.59311 0.30742 0.09694 0.0
C406 C 0.59707 0.32886 0.10333 0.0
C407 C 0.57538 0.33095 0.12209 0.0
C408 C 0.54701 0.29191 0.12725 0.0
C409 C 0.5509 0.31282 0.13451 0.0
C410 C 0.52952 0.19926 0.95808 0.0
C411 C 0.56215 0.26553 0.09641 0.0
H412 H 0.51413 0.12456 0.32077 0.0
H413 H 0.51751 0.07164 0.16213 0.0
H414 H 0.50902 0.11615 0.02822 0.0
H415 H 0.51348 0.08431 0.02284 0.0
H416 H 0.60936 0.30524 0.08199 0.0
H417 H 0.57752 0.34689 0.12831 0.0
H418 H 0.52765 0.27818 0.13649 0.0
H419 H 0.53467 0.315 0.14953 0.0
Tb420 Tb 0.97238 0.37021 0.26914 0.0
C421 C 0.88746 0.27704 0.30682 0.0
C422 C 0.89303 0.25127 0.20615 0.0
C423 C 0.87841 0.24292 0.34539 0.0
C424 C 0.89443 0.27149 0.22858 0.0
C425 C 0.87863 0.26257 0.36491 0.0
C426 C 0.88568 0.23731 0.26622 0.0
C427 C 0.86845 0.28694 0.45173 0.0
N428 N 0.88807 0.29619 0.32344 0.0
C429 C 0.87744 0.30077 0.39211 0.0
C430 C 0.86948 0.26795 0.43904 0.0
Tb431 Tb 0.90276 0.3176 0.22146 0.0
N432 N 0.90082 0.28519 0.17142 0.0
C433 C 0.90402 0.27867 0.087 0.0
C434 C 0.89811 0.24532 0.12255 0.0
C435 C 0.90318 0.25891 0.06206 0.0
H436 H 0.87683 0.31555 0.40281 0.0
H437 H 0.90651 0.25421 -0.00382 0.0
H438 H 0.88474 0.22181 0.25062 0.0
H439 H 0.86086 0.291 0.50766 0.0
H440 H 0.90797 0.28884 0.03919 0.0
H441 H 0.96125 0.43102 0.47846 0.0
H442 H 0.89737 0.22998 0.10288 0.0
H443 H 1.00199 0.37379 0.09546 0.0
H444 H 0.96142 0.39703 0.44007 0.0
H445 H 1.01842 0.39828 -0.00894 0.0
H446 H 0.87197 0.23168 0.38969 0.0
H447 H 0.97197 0.45559 0.37282 0.0
H448 H 0.98711 0.46448 0.22906 0.0
H449 H 0.8625 0.25726 0.4853 0.0
H450 H 1.00289 0.45564 0.09638 0.0
N451 N 0.97139 0.40152 0.31164 0.0
C452 C 0.96619 0.40742 0.39289 0.0
C453 C 0.9721 0.44061 0.35541 0.0
C454 C 0.97911 0.43529 0.27536 0.0
C455 C 0.96609 0.4268 0.41523 0.0
C456 C 0.97885 0.41555 0.25585 0.0
H457 H 1.01505 0.43116 0.00786 0.0
N458 N 0.98872 0.39224 0.16968 0.0
C459 C 1.0098 0.40195 0.04441 0.0
C460 C 0.98792 0.41076 0.18227 0.0
C461 C 1.00053 0.38815 0.10398 0.0
C462 C 1.00779 0.42046 0.05393 0.0
C463 C 0.99716 0.42528 0.12447 0.0
O464 O 1.0153 0.38109 0.28748 0.0
O465 O 0.94849 0.33354 0.24609 0.0
O466 O 0.9285 0.32403 0.3583 0.0
O467 O 0.95969 0.36323 0.39725 0.0
O468 O 0.98292 0.34832 0.19643 0.0
O469 O 1.00147 0.38829 0.40325 0.0
O470 O 0.86343 0.31312 0.2198 0.0
O471 O 0.9269 0.35374 0.23695 0.0
O472 O 0.94832 0.36283 0.12769 0.0
O473 O 0.91343 0.32383 0.08949 0.0
O474 O 0.89426 0.34125 0.29423 0.0
O475 O 0.86772 0.29606 0.10128 0.0
C476 C 0.96278 0.32917 0.20185 0.0
C477 C 0.04856 0.41656 0.40305 0.0
C478 C 0.10021 0.44585 0.44637 0.0
C479 C 0.077 0.42269 0.42149 0.0
C480 C 0.0945 0.46248 0.45262 0.0
C481 C 1.04415 0.43393 0.41302 0.0
C482 C 0.06679 0.45656 0.43659 0.0
C483 C 0.946 0.344 0.42043 0.0
C484 C 1.02344 0.39238 0.37452 0.0
C485 C 0.99613 0.44437 0.14048 0.0
C486 C 0.98713 0.44939 0.21594 0.0
C487 C 0.91318 0.35933 0.27749 0.0
C488 C 0.82216 0.27688 0.13341 0.0
C489 C 0.7976 0.27682 0.13739 0.0
C490 C 0.77118 0.25635 0.12931 0.0
C491 C 0.77022 0.23636 0.11965 0.0
C492 C 0.81997 0.25643 0.12407 0.0
C493 C 0.79431 0.23646 0.11761 0.0
C494 C 0.92937 0.34284 0.06631 0.0
C495 C 0.84998 0.29804 0.13912 0.0
H496 H 0.08101 0.40964 0.41587 0.0
H497 H 0.1117 0.48029 0.47217 0.0
H498 H 1.02321 0.43022 0.40393 0.0
H499 H 0.06281 0.46962 0.44336 0.0
H500 H 0.7989 0.29245 0.14482 0.0
H501 H 0.75068 0.22049 0.11448 0.0
H502 H 0.83812 0.2558 0.12136 0.0
H503 H 0.79305 0.22086 0.11056 0.0
Tb504 Tb 0.49797 0.94258 0.87746 0.0
C505 C 0.37377 0.87861 0.66096 0.0
C506 C 0.34881 0.88973 0.74462 0.0
C507 C 0.33036 0.87327 0.5765 0.0
C508 C 0.37216 0.88832 0.7432 0.0
C509 C 0.35247 0.8703 0.57694 0.0
C510 C 0.3285 0.88294 0.6604 0.0
C511 C 0.37391 0.85362 0.5041 0.0
N512 N 0.39486 0.87535 0.66523 0.0
C513 C 0.39419 0.86182 0.5897 0.0
C514 C 0.35324 0.85824 0.49722 0.0
Tb515 Tb 0.42807 0.89019 0.80697 0.0
N516 N 0.39194 0.89422 0.82298 0.0
C517 C 0.38817 0.89995 0.90756 0.0
C518 C 0.34587 0.89687 0.83084 0.0
C519 C 0.36538 0.90163 0.91268 0.0
H520 H 0.40977 0.85784 0.59509 0.0
H521 H 0.36299 0.90672 0.97987 0.0
H522 H 0.31069 0.88427 0.65988 0.0
H523 H 0.37408 0.84358 0.4438 0.0
H524 H 0.40298 0.9038 0.97187 0.0
H525 H 0.55747 0.91897 0.69861 0.0
H526 H 0.32824 0.89817 0.83505 0.0
H527 H 0.52173 0.9793 0.08564 0.0
H528 H 0.52161 0.92653 0.7056 0.0
H529 H 0.55907 0.99411 0.23261 0.0
H530 H 0.31396 0.86727 0.51248 0.0
H531 H 0.59126 0.92627 0.84305 0.0
H532 H 0.611 0.94235 0.01656 0.0
H533 H 0.3373 0.85159 0.43122 0.0
H534 H 0.61167 0.96308 0.16271 0.0
N535 N 0.53256 0.93675 0.85553 0.0
C536 C 0.53531 0.92955 0.7708 0.0
C537 C 0.57515 0.92949 0.84735 0.0
C538 C 0.57414 0.93889 0.93317 0.0
C539 C 0.55613 0.92537 0.76576 0.0
C540 C 0.55262 0.94267 0.93492 0.0
H541 H 0.59288 0.983 0.24346 0.0
N542 N 0.53346 0.95922 0.01454 0.0
C543 C 0.55749 0.98276 0.17283 0.0
C544 C 0.55303 0.95426 0.01724 0.0
C545 C 0.5364 0.97439 0.08923 0.0
C546 C 0.57645 0.97638 0.17877 0.0
C547 C 0.57484 0.96243 0.09977 0.0
O548 O 0.49304 0.9602 0.78569 0.0
O549 O 0.4527 0.92699 0.84565 0.0
O550 O 0.43418 0.90496 0.69083 0.0
O551 O 0.4836 0.92583 0.72858 0.0
O552 O 0.47847 0.95675 0.95036 0.0
O553 O 0.53201 0.97612 0.89196 0.0
O554 O 0.41477 0.85616 0.77423 0.0
O555 O 0.47388 0.90601 0.85198 0.0
O556 O 0.49114 0.93236 0.00464 0.0
O557 O 0.44283 0.90249 0.95853 0.0
O558 O 0.45008 0.87658 0.74703 0.0
O559 O 0.40583 0.87004 0.88978 0.0
C560 C 0.45242 0.94147 0.90354 0.0
C561 C 0.51851 0.9997 0.84482 0.0
C562 C 0.51853 1.02955 0.78735 0.0
C563 C 0.51837 1.0098 0.77242 0.0
C564 C 0.51876 0.03897 0.87633 0.0
C565 C 0.51869 1.00941 0.93277 0.0
C566 C 0.51882 1.02893 0.94821 0.0
C567 C 0.45831 0.91558 0.66874 0.0
C568 C 0.51777 0.9788 0.82596 0.0
C569 C 0.59503 0.95727 0.09968 0.0
C570 C 0.59465 0.94548 0.01646 0.0
C571 C 0.47544 0.89147 0.80009 0.0
C572 C 0.37278 0.83119 0.81033 0.0
C573 C 0.36877 0.81112 0.82359 0.0
C574 C 0.34146 0.79072 0.79414 0.0
C575 C 0.31815 0.79087 0.75149 0.0
C576 C 0.34924 0.83102 0.76873 0.0
C577 C 0.32208 0.81094 0.73935 0.0
C578 C 0.46758 0.91711 0.0218 0.0
C579 C 0.40178 0.85187 0.8389 0.0
H580 H 0.51771 1.00202 0.70407 0.0
H581 H 0.5193 0.05429 0.89095 0.0
H582 H 0.51871 1.00196 -0.01056 0.0
H583 H 0.51904 0.03638 0.01635 0.0
H584 H 0.38703 0.81154 0.85775 0.0
H585 H 0.29691 0.77546 0.72644 0.0
H586 H 0.35175 0.8463 0.75889 0.0
H587 H 0.30403 0.81091 0.70664 0.0
Tb588 Tb 0.36644 0.54441 0.76156 0.0
C589 C 0.27747 0.55567 0.75007 0.0
C590 C 0.25718 0.56228 0.61635 0.0
C591 C 0.22701 0.54046 0.70676 0.0
C592 C 0.28071 0.56498 0.67645 0.0
C593 C 0.2505 0.54319 0.76601 0.0
C594 C 0.23033 0.54996 0.63189 0.0
C595 C 0.27144 0.5357 0.89398 0.0
N596 N 0.30048 0.55796 0.8034 0.0
C597 C 0.29758 0.54788 0.8745 0.0
C598 C 0.2478 0.53341 0.83978 0.0
Tb599 Tb 0.34344 0.58121 0.77351 0.0
N600 N 0.30687 0.57642 0.66294 0.0
C601 C 0.31115 0.58701 0.59336 0.0
C602 C 0.26132 0.57208 0.54254 0.0
C603 C 0.28851 0.58466 0.53148 0.0
H604 H 0.31493 0.54845 0.91568 0.0
H605 H 0.29217 0.5929 0.47627 0.0
H606 H 0.21201 0.54764 0.58634 0.0
H607 H 0.26949 0.52781 0.95018 0.0
H608 H 0.33229 0.59786 0.58689 0.0
H609 H 0.47607 0.60022 0.97748 0.0
H610 H 0.24381 0.57037 0.49483 0.0
H611 H 0.33884 0.5007 0.57001 0.0
H612 H 0.42503 0.5813 0.94552 0.0
H613 H 0.35571 0.4895 0.44789 0.0
H614 H 0.20615 0.53084 0.71765 0.0
H615 H 0.4965 0.59358 0.85491 0.0
H616 H 0.48937 0.57416 0.69228 0.0
H617 H 0.22749 0.5237 0.85428 0.0
H618 H 0.4565 0.54419 0.54671 0.0
N619 N 0.41525 0.5641 0.80243 0.0
C620 C 0.43289 0.578 0.8896 0.0
C621 C 0.47388 0.5856 0.83913 0.0
C622 C 0.45594 0.57072 0.75156 0.0
C623 C 0.46232 0.58905 0.90874 0.0
C624 C 0.42633 0.55974 0.73564 0.0
H625 H 0.40669 0.51222 0.45591 0.0
N626 N 0.37961 0.53092 0.64571 0.0
C627 C 0.3706 0.50468 0.50491 0.0
C628 C 0.40791 0.54263 0.65447 0.0
C629 C 0.36107 0.51138 0.57444 0.0
C630 C 0.39937 0.51755 0.50962 0.0
C631 C 0.41853 0.53642 0.58623 0.0
O632 O 0.33881 0.51923 0.81957 0.0
O633 O 0.3303 0.54685 0.75089 0.0
O634 O 0.35745 0.58185 0.91664 0.0
O635 O 0.37672 0.56069 0.90832 0.0
O636 O 0.32544 0.52093 0.65507 0.0
O637 O 0.37758 0.52351 0.80834 0.0
O638 O 0.35449 0.60424 0.90069 0.0
O639 O 0.38081 0.57995 0.79951 0.0
O640 O 0.36624 0.55241 0.62841 0.0
O641 O 0.34473 0.57235 0.62941 0.0
O642 O 0.38221 0.60339 0.73593 0.0
O643 O 0.34731 0.61176 0.77186 0.0
C644 C 0.31299 0.53032 0.6789 0.0
C645 C 0.33886 0.48623 0.79729 0.0
C646 C 0.30524 0.44852 0.81397 0.0
C647 C 0.31929 0.47231 0.84219 0.0
C648 C 0.31094 0.43898 0.73934 0.0
C649 C 0.34441 0.47613 0.72432 0.0
C650 C 0.33031 0.45268 0.6951 0.0
C651 C 0.37017 0.57325 0.95544 0.0
C652 C 0.35407 0.51119 0.8297 0.0
C653 C 0.44797 0.54853 0.59879 0.0
C654 C 0.46666 0.5656 0.6816 0.0
C655 C 0.39682 0.59596 0.76657 0.0
C656 C 0.3319 0.62328 0.89034 0.0
C657 C 0.33417 0.64266 0.87495 0.0
C658 C 0.31663 0.64891 0.90318 0.0
C659 C 0.29644 0.63517 0.94631 0.0
C660 C 0.31148 0.60972 0.93293 0.0
C661 C 0.29386 0.61567 0.96056 0.0
C662 C 0.35576 0.5625 0.58885 0.0
C663 C 0.35089 0.6175 0.86086 0.0
H664 H 0.31515 0.48005 0.89917 0.0
H665 H 0.30109 0.42091 0.7167 0.0
H666 H 0.35996 0.4863 0.69063 0.0
H667 H 0.3348 0.4451 0.63885 0.0
H668 H 0.34949 0.6527 0.83992 0.0
H669 H 0.28289 0.63962 0.97028 0.0
H670 H 0.30916 0.59458 0.94519 0.0
H671 H 0.27827 0.60522 -0.00623 0.0
Tb672 Tb 0.64231 0.72418 0.86562 0.0
C673 C 0.70426 0.81903 0.05006 0.0
C674 C 0.69837 0.8298 0.19981 0.0
C675 C 0.74453 0.85183 0.17129 0.0
C676 C 0.68747 0.81508 0.10927 0.0
C677 C 0.73288 0.8378 0.07925 0.0
C678 C 0.72725 0.84787 0.2315 0.0
C679 C 0.73501 0.82907 0.9215 0.0
N680 N 0.69179 0.80549 0.96124 0.0
C681 C 0.70643 0.81078 0.89591 0.0
C682 C 0.74847 0.8424 0.01401 0.0
Tb683 Tb 0.64533 0.77502 0.92624 0.0
N684 N 0.65974 0.79754 0.07526 0.0
C685 C 0.64102 0.79506 0.12567 0.0
C686 C 0.67968 0.82639 0.25408 0.0
C687 C 0.65078 0.80916 0.2162 0.0
H688 H 0.69649 0.80064 0.8242 0.0
H689 H 0.63601 0.80673 0.25665 0.0
H690 H 0.73618 0.85925 0.30126 0.0
H691 H 0.74666 0.83278 0.86987 0.0
H692 H 0.61865 0.78183 0.09705 0.0
H693 H 0.5407 0.65581 0.62181 0.0
H694 H 0.68717 0.83734 0.32402 0.0
H695 H 0.68251 0.71912 0.03858 0.0
H696 H 0.58706 0.69194 0.67006 0.0
H697 H 0.67376 0.69497 0.14242 0.0
H698 H 0.76655 0.86621 0.19547 0.0
H699 H 0.52559 0.63216 0.73023 0.0
H700 H 0.53814 0.6257 0.88303 0.0
H701 H 0.77055 0.8566 0.03356 0.0
H702 H 0.57432 0.63641 0.02607 0.0
N703 N 0.5985 0.69022 0.80882 0.0
C704 C 0.58107 0.68242 0.72008 0.0
C705 C 0.54616 0.64826 0.75256 0.0
C706 C 0.56497 0.65538 0.84017 0.0
C707 C 0.55461 0.66156 0.69127 0.0
C708 C 0.59157 0.67642 0.86573 0.0
H709 H 0.62518 0.66195 0.12219 0.0
N710 N 0.63858 0.70149 0.96219 0.0
C711 C 0.65616 0.69139 0.08811 0.0
C712 C 0.61222 0.6823 0.94534 0.0
C713 C 0.66091 0.70526 0.02869 0.0
C714 C 0.62873 0.67279 0.07656 0.0
C715 C 0.60652 0.66762 0.00275 0.0
O716 O 0.67092 0.73182 0.78381 0.0
O717 O 0.67035 0.76123 0.8975 0.0
O718 O 0.64834 0.76806 0.78356 0.0
O719 O 0.62168 0.72941 0.74785 0.0
O720 O 0.68393 0.74509 0.96632 0.0
O721 O 0.6432 0.69789 0.78825 0.0
O722 O 0.64623 0.79779 0.85217 0.0
O723 O 0.6178 0.73817 0.86689 0.0
O724 O 0.6383 0.72936 0.00748 0.0
O725 O 0.65622 0.76788 0.05616 0.0
O726 O 0.60374 0.75205 0.95164 0.0
O727 O 0.61202 0.77999 0.90914 0.0
C728 C 0.69183 0.76457 0.95563 0.0
C729 C 0.6878 0.70857 0.76914 0.0
C730 C 0.70711 0.68822 0.70822 0.0
C731 C 0.685 0.69133 0.70242 0.0
C732 C 0.73227 0.70274 0.78175 0.0
C733 C 0.71289 0.72274 0.84293 0.0
C734 C 0.73505 0.71986 0.84879 0.0
C735 C 0.63428 0.74812 0.72163 0.0
C736 C 0.66427 0.71139 0.75912 0.0
C737 C 0.57924 0.64771 0.98205 0.0
C738 C 0.55857 0.64159 0.90064 0.0
C739 C 0.59747 0.73319 0.90213 0.0
C740 C 0.62696 0.81758 0.91016 0.0
C741 C 0.60434 0.82044 0.88843 0.0
C742 C 0.608 0.84114 0.93056 0.0
C743 C 0.6346 0.85867 -0.00709 0.0
C744 C 0.65304 0.83573 0.97243 0.0
C745 C 0.65675 0.85597 0.01336 0.0
C746 C 0.64775 0.74813 0.0725 0.0
C747 C 0.62392 0.79599 0.86942 0.0
H748 H 0.66568 0.68053 0.6451 0.0
H749 H 0.7496 0.70065 0.78813 0.0
H750 H 0.7155 0.73603 0.89575 0.0
H751 H 0.7544 0.7309 0.90557 0.0
H752 H 0.58408 0.80664 0.84035 0.0
H753 H 0.63854 0.87483 0.02521 0.0
H754 H 0.67083 0.83439 -0.01082 0.0
H755 H 0.67707 0.86976 0.06108 0.0
H756 H 0.18682 0.32868 0.96218 0.0
H757 H 0.31081 0.45652 0.0028 0.0
H758 H 0.23712 0.38111 0.22314 0.0
H759 H 0.25537 0.40601 0.74009 0.0
H760 H 0.28183 0.42989 0.08406 0.0
H761 H 0.20929 0.35721 0.87898 0.0
C762 C 0.2023 0.3462 0.00207 0.0
C763 C 0.21029 0.35235 0.10007 0.0
C764 C 0.27586 0.42467 0.00856 0.0
C765 C 0.23646 0.38518 0.00504 0.0
C766 C 0.29232 0.43998 0.96196 0.0
C767 C 0.28583 0.43352 0.8642 0.0
C768 C 0.25269 0.40263 0.95734 0.0
C769 C 0.26167 0.41166 0.81553 0.0
C770 C 0.21527 0.3625 0.95447 0.0
C771 C 0.2307 0.37539 0.1477 0.0
N772 N 0.2462 0.397 0.86247 0.0
N773 N 0.24318 0.39085 0.09992 0.0
H774 H 0.8597 0.81945 0.85267 0.0
H775 H 0.73638 0.78563 0.11072 0.0
H776 H 0.8632 0.80401 0.11598 0.0
H777 H 0.71826 0.7754 0.81372 0.0
H778 H 0.78598 0.79979 0.11949 0.0
H779 H 0.81096 0.80927 0.84075 0.0
C780 C 0.85034 0.81414 0.90849 0.0
C781 C 0.86624 0.81365 -0.0123 0.0
C782 C 0.77138 0.79487 0.05241 0.0
C783 C 0.80993 0.80149 0.97372 0.0
C784 C 0.74305 0.78714 0.04756 0.0
C785 C 0.72295 0.77984 0.96182 0.0
C786 C 0.78023 0.79533 0.97071 0.0
C787 C 0.73294 0.78143 0.88189 0.0
C788 C 0.82243 0.80825 0.90147 0.0
C789 C 0.85241 0.80571 0.0558 0.0
N790 N 0.76068 0.78892 0.88825 0.0
N791 N 0.82544 0.80026 0.04785 0.0
H792 H 0.29957 0.94162 0.79845 0.0
H793 H 0.41445 0.93623 0.74965 0.0
H794 H 0.35558 0.99161 0.0607 0.0
H795 H 0.44226 0.95986 0.0496 0.0
H796 H 0.37925 0.94547 0.74939 0.0
H797 H 0.33704 0.93665 0.77595 0.0
C798 C 0.32013 0.95204 0.85016 0.0
C799 C 0.32453 0.9673 0.93099 0.0
C800 C 0.3927 0.94834 0.8155 0.0
C801 C 0.36792 0.9616 0.90616 0.0
C802 C 0.41274 0.94298 0.81546 0.0
C803 C 0.43029 0.94623 0.89994 0.0
C804 C 0.39035 0.95724 0.9008 0.0
C805 C 0.4284 0.95632 0.98306 0.0
C806 C 0.34165 0.94924 0.83717 0.0
C807 C 0.35141 0.97997 -0.00335 0.0
N808 N 0.40866 0.96125 0.9815 0.0
N809 N 0.37189 0.9766 0.98347 0.0
H810 H 0.43213 0.15468 0.94826 0.0
H811 H 0.32869 0.09667 0.27118 0.0
H812 H 0.46435 0.17295 0.24631 0.0
H813 H 0.30376 0.07164 0.97247 0.0
H814 H 0.37621 0.12715 0.26653 0.0
H815 H 0.38406 0.12835 0.95908 0.0
C816 C 0.42906 0.15379 0.01678 0.0
C817 C 0.45287 0.16689 0.09646 0.0
C818 C 0.36034 0.11522 0.20169 0.0
C819 C 0.39655 0.13524 0.10946 0.0
C820 C 0.33295 0.09773 0.2042 0.0
C821 C 0.31126 0.08175 0.1218 0.0
C822 C 0.3669 0.11697 0.11593 0.0
C823 C 0.31897 0.08386 0.0378 0.0
C824 C 0.40138 0.13832 0.02272 0.0
C825 C 0.44699 0.16399 0.18273 0.0
N826 N 0.34567 0.10098 0.03715 0.0
N827 N 0.41976 0.14859 0.18672 0.0
H828 H 0.96267 0.30454 0.32682 0.0
H829 H 1.02159 0.24437 0.02822 0.0
H830 H 0.97323 0.31134 0.05542 0.0
H831 H 1.03939 0.2594 0.32711 0.0
H832 H 0.99355 0.26083 0.02685 0.0
H833 H 0.9799 0.27977 0.31755 0.0
C834 C 0.96773 0.30028 0.26415 0.0
C835 C 0.96605 0.30982 0.19118 0.0
C836 C 1.00322 0.26019 0.09264 0.0
C837 C 0.9864 0.28177 0.18063 0.0
C838 C 1.01903 0.2506 0.09322 0.0
C839 C 1.03248 0.25008 0.17777 0.0
C840 C 1.00066 0.26931 0.17712 0.0
C841 C 1.0291 0.25914 0.2602 0.0
C842 C 0.97791 0.28634 0.25923 0.0
C843 C 0.97384 0.30418 0.11287 0.0
N844 N 1.01357 0.26822 0.25784 0.0
N845 N 0.98359 0.29065 0.10966 0.0
H846 H 0.93099 0.69383 0.04973 0.0
H847 H 0.80766 0.59397 0.20161 0.0
H848 H 0.86003 0.69658 0.08182 0.0
H849 H 0.84182 0.58 -0.01176 0.0
H850 H 0.83378 0.63402 0.19926 0.0
H851 H 0.90631 0.65572 0.06778 0.0
C852 C 0.91012 0.68661 0.06023 0.0
C853 C 0.89758 0.69894 0.06044 0.0
C854 C 0.83618 0.62235 0.15463 0.0
C855 C 0.86919 0.65426 0.08688 0.0
C856 C 0.82166 0.59944 0.15722 0.0
C857 C 0.82356 0.58337 0.0989 0.0
C858 C 0.85329 0.62981 0.09375 0.0
C859 C 0.84071 0.59163 0.03848 0.0
C860 C 0.89606 0.66458 0.07126 0.0
C861 C 0.8709 0.68822 0.0799 0.0
N862 N 0.85506 0.61401 0.03864 0.0
N863 N 0.85775 0.66672 0.09216 0.0
H864 H 0.28241 0.53018 0.52165 0.0
H865 H 0.12966 0.43789 0.5794 0.0
H866 H 0.27266 0.50094 0.75174 0.0
H867 H 0.14065 0.47327 0.36846 0.0
H868 H 0.18166 0.45793 0.63551 0.0
H869 H 0.23042 0.5074 0.45821 0.0
C870 C 0.26922 0.51919 0.55948 0.0
C871 C 0.28171 0.51828 0.64444 0.0
C872 C 0.17267 0.46109 0.57613 0.0
C873 C 0.22216 0.49123 0.57023 0.0
C874 C 0.14295 0.44941 0.54336 0.0
C875 C 0.13073 0.45377 0.46869 0.0
C876 C 0.19034 0.4772 0.53369 0.0
C877 C 0.14912 0.46931 0.42602 0.0
C878 C 0.23955 0.50605 0.52303 0.0
C879 C 0.26375 0.50291 0.6883 0.0
N880 N 0.17783 0.48047 0.45921 0.0
N881 N 0.23494 0.49012 0.65118 0.0
H882 H 0.66089 0.64435 0.63652 0.0
H883 H 0.72939 0.61067 0.27821 0.0
H884 H 0.7457 0.69038 0.61819 0.0
H885 H 0.65035 0.56218 0.32772 0.0
H886 H 0.73431 0.64063 0.39521 0.0
H887 H 0.65526 0.61453 0.51615 0.0
C888 C 0.6783 0.64818 0.60687 0.0
C889 C 0.7038 0.66986 0.63721 0.0
C890 C 0.71587 0.62344 0.38042 0.0
C891 C 0.69754 0.63583 0.49973 0.0
C892 C 0.71308 0.6063 0.31382 0.0
C893 C 0.68949 0.58383 0.29347 0.0
C894 C 0.69488 0.61813 0.42692 0.0
C895 C 0.66874 0.57928 0.34045 0.0
C896 C 0.67512 0.63114 0.5385 0.0
C897 C 0.7258 0.67383 0.59741 0.0
N898 N 0.67196 0.59627 0.40515 0.0
N899 N 0.72213 0.65699 0.53046 0.0
H900 H 0.54996 0.08287 0.31059 0.0
H901 H 0.48997 0.04914 0.74568 0.0
H902 H 0.48809 0.09323 0.38759 0.0
H903 H 0.54734 0.03491 0.65429 0.0
H904 H 0.49091 0.06723 0.6211 0.0
H905 H 0.55106 0.06716 0.44154 0.0
C906 C 0.53654 0.08182 0.35492 0.0
C907 C 0.51868 0.08922 0.33709 0.0
C908 C 0.50328 0.06014 0.62826 0.0
C909 C 0.52006 0.07133 0.48861 0.0
C910 C 0.50289 0.04989 0.69981 0.0
C911 C 0.51858 0.04039 0.7108 0.0
C912 C 0.51951 0.06097 0.56691 0.0
C913 C 0.53456 0.04165 0.648 0.0
C914 C 0.53728 0.0729 0.43009 0.0
C915 C 0.50231 0.08789 0.39867 0.0
N916 N 0.53461 0.05172 0.57904 0.0
N917 N 0.50329 0.07901 0.47128 0.0
H918 H 0.13558 0.10748 0.94761 0.0
H919 H 0.10676 0.19381 0.22797 0.0
H920 H 0.18677 0.15024 0.22619 0.0
H921 H 0.07943 0.16779 0.92866 0.0
H922 H 0.13184 0.17492 0.23666 0.0
H923 H 0.10884 0.12487 0.94814 0.0
C924 C 0.14062 0.12 0.00999 0.0
C925 C 0.16323 0.12709 0.08742 0.0
C926 C 0.12048 0.17347 0.16907 0.0
C927 C 0.13306 0.14766 0.08799 0.0
C928 C 0.10643 0.1845 0.16409 0.0
C929 C 0.09159 0.18299 0.07719 0.0
C930 C 0.11893 0.16018 0.08681 0.0
C931 C 0.09099 0.16981 -0.00293 0.0
C932 C 0.12563 0.13023 0.00985 0.0
C933 C 0.16928 0.144 0.16536 0.0
N934 N 0.10424 0.15895 0.00378 0.0
N935 N 0.15442 0.15367 0.16367 0.0
H936 H 0.96668 0.99669 0.31706 0.0
H937 H 0.97482 0.05834 0.91517 0.0
H938 H 0.96034 0.96837 0.03498 0.0
H939 H 0.97785 0.08467 0.19571 0.0
H940 H 0.97484 1.02748 0.9612 0.0
H941 H 0.97642 1.03105 0.27774 0.0
C942 C 0.96754 0.99778 0.24683 0.0
C943 C 0.96233 0.97947 0.17889 0.0
C944 C 0.97574 0.0401 0.01292 0.0
C945 C 0.97345 1.01895 0.13306 0.0
C946 C 0.9756 0.05771 -0.01337 0.0
C947 C 0.97597 0.07407 0.05132 0.0
C948 C 0.9762 0.03869 0.10473 0.0
C949 C 0.97764 0.07258 0.1434 0.0
C950 C 0.97315 1.01745 0.22444 0.0
C951 C 0.96424 0.98204 0.08954 0.0
N952 N 0.97743 0.05512 0.16701 0.0
N953 N 0.96933 1.0013 0.06892 0.0
H954 H 1.03371 0.89963 0.19432 0.0
H955 H 0.13944 0.9822 0.92827 0.0
H956 H 1.01613 0.88323 0.89596 0.0
H957 H 0.16923 0.9889 0.21754 0.0
H958 H 0.09437 0.94661 0.9172 0.0
H959 H 0.08264 0.9315 0.20758 0.0
C960 C 1.04034 0.90194 0.13145 0.0
C961 C 1.02045 0.88752 0.04368 0.0
C962 C 0.11084 0.95553 0.98303 0.0
C963 C 0.07694 0.92589 0.05831 0.0
C964 C 0.13697 0.97593 -0.01088 0.0
C965 C 0.15943 0.98836 0.07262 0.0
C966 C 0.10587 0.94738 0.0621 0.0
C967 C 0.15343 0.97969 0.15028 0.0
C968 C 0.06839 0.92062 0.13903 0.0
C969 C 1.03055 0.89296 0.96538 0.0
N970 N 0.12767 0.96006 0.14319 0.0
N971 N 0.05741 0.91145 0.97444 0.0
H972 H 0.86687 0.45678 0.31386 0.0
H973 H 0.91876 0.37851 0.13071 0.0
H974 H 0.9008 0.45995 0.07784 0.0
H975 H 0.89266 0.37837 0.38238 0.0
H976 H 0.90953 0.40673 0.10628 0.0
H977 H 0.87265 0.42633 0.335 0.0
C978 C 0.87518 0.45092 0.26577 0.0
C979 C 0.88352 0.46117 0.19429 0.0
C980 C 0.90585 0.40064 0.16715 0.0
C981 C 0.89043 0.42633 0.21856 0.0
C982 C 0.91141 0.38457 0.1816 0.0
C983 C 0.90752 0.37657 0.26065 0.0
C984 C 0.89574 0.40862 0.23121 0.0
C985 C 0.89655 0.38442 0.32153 0.0
C986 C 0.8787 0.43364 0.27834 0.0
C987 C 0.89444 0.4529 0.1348 0.0
N988 N 0.89127 0.40008 0.30605 0.0
N989 N 0.89762 0.43615 0.14839 0.0
H990 H 0.75393 0.46597 0.21653 0.0
H991 H 0.65433 0.35187 0.19947 0.0
H992 H 0.7072 0.44773 0.93127 0.0
H993 H 0.59889 0.35413 0.9825 0.0
H994 H 0.69421 0.38886 0.19443 0.0
H995 H 0.71817 0.42803 0.22639 0.0
C996 C 0.736 0.45401 0.15602 0.0
C997 C 0.73323 0.46046 0.07385 0.0
C998 C 0.67336 0.38134 0.14771 0.0
C999 C 0.6921 0.41618 0.08335 0.0
C1000 C 0.65058 0.3599 0.14956 0.0
C1001 C 0.62297 0.34953 0.091 0.0
C1002 C 0.66884 0.3927 0.08615 0.0
C1003 C 0.61966 0.36124 0.02893 0.0
C1004 C 0.71565 0.43212 0.16122 0.0
C1005 C 0.70994 0.44382 -0.00317 0.0
N1006 N 0.64207 0.38191 0.02799 0.0
N1007 N 0.69019 0.42278 0.00393 0.0
H1008 H 0.63386 0.25362 0.31582 0.0
H1009 H 0.71854 0.22696 0.00333 0.0
H1010 H 0.59455 0.21177 0.03144 0.0
H1011 H 0.7613 0.28112 0.25845 0.0
H1012 H 0.67302 0.22016 0.01503 0.0
H1013 H 0.68007 0.26257 0.29982 0.0
C1014 C 0.63486 0.24612 0.2501 0.0
C1015 C 0.6099 0.23136 0.17582 0.0
C1016 C 0.69231 0.23371 0.06809 0.0
C1017 C 0.66329 0.24185 0.15638 0.0
C1018 C 0.71844 0.23767 0.06138 0.0
C1019 C 0.74408 0.25477 0.12975 0.0
C1020 C 0.69132 0.24669 0.14461 0.0
C1021 C 0.74231 0.26796 0.20345 0.0
C1022 C 0.66136 0.25133 0.24093 0.0
C1023 C 0.61283 0.22261 0.09174 0.0
N1024 N 0.71649 0.26351 0.20937 0.0
N1025 N 0.63883 0.22781 0.08468 0.0
H1026 H 0.59272 0.86098 0.0569 0.0
H1027 H 0.48677 0.86856 0.67494 0.0
H1028 H 0.57164 0.83214 0.76143 0.0
H1029 H 0.5099 0.89869 0.96992 0.0
H1030 H 0.51701 0.85477 0.70475 0.0
H1031 H 0.56151 0.8737 0.02635 0.0
C1032 C 0.58135 0.85712 -0.01468 0.0
C1033 C 0.58516 0.8455 0.91165 0.0
C1034 C 0.51572 0.86452 0.76312 0.0
C1035 C 0.54896 0.8603 0.8759 0.0
C1036 C 0.49852 0.87251 0.74611 0.0
C1037 C 0.49631 0.88534 0.81975 0.0
C1038 C 0.53064 0.86895 0.85505 0.0
C1039 C 0.51152 0.88943 0.91072 0.0
C1040 C 0.56348 0.86449 0.96798 0.0
C1041 C 0.56938 0.84086 0.82065 0.0
N1042 N 0.528 0.88132 0.92568 0.0
N1043 N 0.55222 0.84838 0.80542 0.0
H1044 H 0.27453 0.65594 0.85626 0.0
H1045 H 0.37669 0.77656 0.78011 0.0
H1046 H 0.36545 0.68955 0.91518 0.0
H1047 H 0.29697 0.75613 0.83884 0.0
H1048 H 0.37054 0.74225 0.80825 0.0
H1049 H 0.28011 0.69033 0.82999 0.0
C1050 C 0.29567 0.67053 0.86433 0.0
C1051 C 0.31954 0.66972 0.8878 0.0
C1052 C 0.35444 0.74533 0.81507 0.0
C1053 C 0.32588 0.70889 0.85549 0.0
C1054 C 0.35797 0.76499 0.79952 0.0
C1055 C 0.33744 0.76945 0.80787 0.0
C1056 C 0.33002 0.72978 0.83785 0.0
C1057 C 0.31323 0.75336 0.8305 0.0
C1058 C 0.29878 0.6901 0.84878 0.0
C1059 C 0.34633 0.68911 0.89536 0.0
N1060 N 0.31016 0.73422 0.84454 0.0
N1061 N 0.34874 0.70783 0.87878 0.0
H1062 H 0.57795 0.70903 0.02748 0.0
H1063 H 0.43343 0.62116 0.94255 0.0
H1064 H 0.55286 0.70771 0.74235 0.0
H1065 H 0.43159 0.6092 0.65332 0.0
H1066 H 0.48321 0.65351 0.98247 0.0
H1067 H 0.53129 0.67388 0.00327 0.0
C1068 C 0.56267 0.70116 0.95936 0.0
C1069 C 0.56985 0.71085 0.88583 0.0
C1070 C 0.47242 0.64348 0.91048 0.0
C1071 C 0.51523 0.67095 0.85808 0.0
C1072 C 0.4439 0.62479 0.88782 0.0
C1073 C 0.42859 0.61167 0.79486 0.0
C1074 C 0.48573 0.64975 0.83931 0.0
C1075 C 0.44284 0.61823 0.72626 0.0
C1076 C 0.53574 0.68118 0.94571 0.0
C1077 C 0.54866 0.70041 0.80011 0.0
N1078 N 0.47033 0.63676 0.74961 0.0
N1079 N 0.52256 0.68104 0.78845 0.0
H1080 H 0.10825 0.23385 0.88946 0.0
H1081 H 1.01885 0.20345 0.36941 0.0
H1082 H 1.02034 0.21138 0.81181 0.0
H1083 H 0.1049 0.22146 0.44257 0.0
H1084 H 1.01919 0.20647 0.53154 0.0
H1085 H 0.10819 0.23111 0.72706 0.0
C1086 C 0.08895 0.22843 0.83838 0.0
C1087 C 0.06406 0.22239 0.86374 0.0
C1088 C 1.03803 0.20981 0.51225 0.0
C1089 C 0.06385 0.21911 0.67807 0.0
C1090 C 1.03784 0.20802 0.41943 0.0
C1091 C 0.06215 0.21276 0.39275 0.0
C1092 C 0.06268 0.2163 0.57878 0.0
C1093 C 0.08596 0.21824 0.46062 0.0
C1094 C 0.08891 0.22675 0.74558 0.0
C1095 C 1.03978 0.21569 0.7948 0.0
N1096 N 0.08572 0.22003 0.55097 0.0
N1097 N 1.04023 0.2141 0.70478 0.0
H1098 H 0.91146 0.80772 0.71243 0.0
H1099 H 0.97459 0.88681 0.38066 0.0
H1100 H 0.96024 0.88049 0.81017 0.0
H1101 H 0.94577 0.81658 0.31593 0.0
H1102 H 0.96791 0.88522 0.53579 0.0
H1103 H 0.92037 0.81059 0.56066 0.0
C1104 C 0.92376 0.82428 0.70135 0.0
C1105 C 0.93495 0.84387 0.77327 0.0
C1106 C 0.96337 0.87026 0.48778 0.0
C1107 C 0.94541 0.84742 0.60068 0.0
C1108 C 0.96737 0.87119 0.39943 0.0
C1109 C 0.96046 0.85173 0.33458 0.0
C1110 C 0.95223 0.84972 0.51101 0.0
C1111 C 0.95119 0.83198 0.36306 0.0
C1112 C 0.92893 0.82596 0.61502 0.0
C1113 C 0.9505 0.86497 0.75551 0.0
N1114 N 0.94703 0.83141 0.44868 0.0
N1115 N 0.95538 0.86622 0.67087 0.0
H1116 H 0.19459 0.04316 0.77466 0.0
H1117 H 0.26388 1.02798 0.38033 0.0
H1118 H 0.234 1.00656 0.76998 0.0
H1119 H 0.20224 0.04428 0.33439 0.0
H1120 H 0.25476 1.02209 0.52901 0.0
H1121 H 0.1971 0.04468 0.61529 0.0
C1122 C 0.20331 0.03513 0.73978 0.0
C1123 C 0.21475 1.02522 0.78653 0.0
C1124 C 0.24317 1.02695 0.48645 0.0
C1125 C 0.21794 1.02714 0.60593 0.0
C1126 C 0.24836 1.03023 0.40159 0.0
C1127 C 0.23378 0.03656 0.34547 0.0
C1128 C 0.2234 1.03023 0.51555 0.0
C1129 C 0.21443 0.03994 0.37713 0.0
C1130 C 0.20485 0.03611 0.64916 0.0
C1131 C 0.22554 1.01489 0.73774 0.0
N1132 N 0.20977 0.03676 0.4605 0.0
N1133 N 0.22723 1.0164 0.65065 0.0
H1134 H 0.81398 0.51504 0.40734 0.0
H1135 H 0.75557 0.53543 0.82906 0.0
H1136 H 0.76801 0.54641 0.40533 0.0
H1137 H 0.7856 0.4924 0.80089 0.0
H1138 H 0.7607 0.54056 0.67596 0.0
H1139 H 0.80719 0.50946 0.55832 0.0
C1140 C 0.80282 0.52108 0.43916 0.0
C1141 C 0.79137 0.53108 0.3932 0.0
C1142 C 0.76576 0.52971 0.70255 0.0
C1143 C 0.78314 0.52436 0.56542 0.0
C1144 C 0.76224 0.5264 0.78911 0.0
C1145 C 0.76966 0.51314 0.8265 0.0
C1146 C 0.7772 0.51993 0.65409 0.0
C1147 C 0.77978 0.50282 0.77423 0.0
C1148 C 0.79869 0.51765 0.525 0.0
C1149 C 0.77709 0.53853 0.438 0.0
N1150 N 0.78343 0.50654 0.69069 0.0
N1151 N 0.77323 0.5349 0.52154 0.0
H1152 H 0.56113 0.19139 0.42157 0.0
H1153 H 0.50666 0.21543 0.84885 0.0
H1154 H 0.51774 0.22487 0.42755 0.0
H1155 H 0.55345 0.18473 0.84962 0.0
H1156 H 0.51017 0.21864 0.69312 0.0
H1157 H 0.5589 0.18902 0.57915 0.0
C1158 C 0.55132 0.1984 0.45623 0.0
C1159 C 0.53956 0.20832 0.41151 0.0
C1160 C 0.5196 0.21114 0.72726 0.0
C1161 C 0.53681 0.20553 0.59101 0.0
C1162 C 0.51754 0.20925 0.81605 0.0
C1163 C 0.52976 0.19977 0.86197 0.0
C1164 C 0.53397 0.20351 0.68439 0.0
C1165 C 0.54355 0.192 0.81631 0.0
C1166 C 0.55003 0.197 0.54609 0.0
C1167 C 0.52721 0.21719 0.45965 0.0
N1168 N 0.54534 0.19409 0.72976 0.0
N1169 N 0.52604 0.21548 0.54692 0.0
H1170 H 0.93565 0.31038 0.50198 0.0
H1171 H 0.94153 0.37694 -0.01334 0.0
H1172 H 0.95839 0.37894 0.56245 0.0
H1173 H 0.91477 0.30731 0.92217 0.0
H1174 H 0.9476 0.37791 0.83119 0.0
H1175 H 0.9294 0.30929 0.65753 0.0
C1176 C 0.9396 0.3253 0.54845 0.0
C1177 C 0.94715 0.34468 0.51892 0.0
C1178 C 0.94018 0.36234 0.85061 0.0
C1179 C 0.94001 0.34355 0.69678 0.0
C1180 C 0.93661 0.36174 0.93927 0.0
C1181 C 0.92788 0.34205 0.96761 0.0
C1182 C 0.93495 0.34308 0.78964 0.0
C1183 C 0.92148 0.32281 0.90318 0.0
C1184 C 0.93592 0.32463 0.63706 0.0
C1185 C 0.95246 0.36363 0.58223 0.0
N1186 N 0.92538 0.32386 0.81728 0.0
N1187 N 0.94857 0.36254 0.66806 0.0
H1188 H 0.47336 0.95094 0.59732 0.0
H1189 H 0.44056 0.88014 0.08348 0.0
H1190 H 0.44398 0.88078 0.52629 0.0
H1191 H 0.49414 0.95312 0.1762 0.0
H1192 H 0.43735 0.87946 0.24223 0.0
H1193 H 0.47671 0.95167 0.43808 0.0
C1194 C 0.46717 0.93562 0.5473 0.0
C1195 C 0.45753 0.91556 0.57258 0.0
C1196 C 0.45009 0.89562 0.22806 0.0
C1197 C 0.46173 0.91628 0.39317 0.0
C1198 C 0.45191 0.896 0.13785 0.0
C1199 C 0.46798 0.91673 0.11796 0.0
C1200 C 0.46409 0.91614 0.29797 0.0
C1201 C 0.4822 0.93685 0.1898 0.0
C1202 C 0.46924 0.93605 0.45717 0.0
C1203 C 0.45028 0.89621 0.50731 0.0
N1204 N 0.47977 0.93609 0.27708 0.0
N1205 N 0.45246 0.89701 0.41993 0.0
H1206 H 0.36543 0.60136 0.0823 0.0
H1207 H 0.35627 0.53395 0.45157 0.0
H1208 H 0.38696 0.55249 0.05825 0.0
H1209 H 0.36545 0.59778 0.52047 0.0
H1210 H 0.36656 0.54016 0.30467 0.0
H1211 H 0.36567 0.60095 0.24322 0.0
C1212 C 0.37066 0.59083 0.11121 0.0
C1213 C 0.37567 0.57662 0.05642 0.0
C1214 C 0.36638 0.55284 0.35208 0.0
C1215 C 0.37557 0.57588 0.23925 0.0
C1216 C 0.36044 0.54924 0.4357 0.0
C1217 C 0.35961 0.56518 0.49734 0.0
C1218 C 0.37125 0.57245 0.32993 0.0
C1219 C 0.36488 0.58468 0.47324 0.0
C1220 C 0.37079 0.59062 0.20302 0.0
C1221 C 0.38265 0.56353 0.09771 0.0
N1222 N 0.37034 0.58774 0.39082 0.0
N1223 N 0.38192 0.56318 0.18649 0.0
H1224 H 0.62077 0.7114 0.58905 0.0
H1225 H 0.61703 0.71012 0.12778 0.0
H1226 H 0.65083 0.78163 0.63401 0.0
H1227 H 0.67707 0.7826 0.23475 0.0
H1228 H 0.61228 0.70812 0.28297 0.0
H1229 H 0.62495 0.70953 0.43159 0.0
C1230 C 0.62751 0.72629 0.56488 0.0
C1231 C 0.63484 0.74657 0.62404 0.0
C1232 C 0.62702 0.72446 0.27357 0.0
C1233 C 0.63947 0.74453 0.44257 0.0
C1234 C 0.62963 0.72561 0.18437 0.0
C1235 C 0.64725 0.7466 0.16812 0.0
C1236 C 0.64243 0.74447 0.34744 0.0
C1237 C 0.66282 0.76613 0.24397 0.0
C1238 C 0.62989 0.7252 0.47445 0.0
C1239 C 0.64463 0.76558 0.59016 0.0
N1240 N 0.65988 0.76461 0.33039 0.0
N1241 N 0.64666 0.76409 0.50142 0.0
loop_
_geom_bond_atom_site_label_1
_geom_bond_atom_site_label_2
_geom_bond_distance
_geom_bond_site_symmetry_2
_ccdc_geom_bond_type
Tb0 N31 2.660 . S
Tb0 N38 2.600 . S
Tb0 O44 2.546 . S
Tb0 O45 2.610 . S
Tb0 O47 2.320 . S
Tb0 O48 2.552 . S
Tb0 O49 2.413 . S
Tb0 O51 2.362 . S
Tb0 O52 2.421 . S
Tb0 C64 2.833 . S
C1 C4 1.432 . S
C1 C5 1.414 1_554 S
C1 N8 1.359 . S
C2 C4 1.417 . S
C2 C6 1.432 . S
C2 C14 1.410 . S
C3 C5 1.444 1_554 S
C3 C6 1.317 . S
C3 H26 0.929 1_554 S
C4 C1 1.432 . S
C4 C2 1.417 . S
C4 N12 1.360 . S
C5 C1 1.414 1_556 S
C5 C3 1.444 1_556 S
C5 C10 1.385 . S
C6 C2 1.432 . S
C6 C3 1.317 . S
C6 H18 0.930 . S
C7 C9 1.392 . S
C7 C10 1.370 . S
C7 H19 0.931 . S
N8 C1 1.359 . S
N8 C9 1.327 1_554 S
N8 Tb11 2.600 1_655 S
C9 C7 1.392 . S
C9 N8 1.327 1_556 S
C9 H16 0.930 . S
C10 C5 1.385 . S
C10 C7 1.370 . S
C10 H29 0.930 . S
Tb11 N8 2.600 1_455 S
Tb11 N12 2.660 1_455 S
Tb11 O45 2.362 . S
Tb11 O46 2.421 . S
Tb11 O50 2.546 1_455 S
Tb11 O51 2.610 . S
Tb11 O53 2.320 . S
Tb11 O54 2.552 . S
Tb11 O55 2.413 1_455 S
Tb11 C75 2.833 1_455 S
N12 C4 1.360 . S
N12 Tb11 2.660 1_655 S
N12 C13 1.305 . S
C13 N12 1.305 . S
C13 C15 1.407 . S
C13 H20 0.930 . S
C14 C2 1.410 . S
C14 C15 1.345 . S
C14 H22 0.930 . S
C15 C13 1.407 . S
C15 C14 1.345 . S
C15 H17 0.930 . S
H16 C9 0.930 . S
H17 C15 0.930 . S
H18 C6 0.930 . S
H19 C7 0.931 . S
H20 C13 0.930 . S
H21 C35 0.930 . S
H22 C14 0.930 . S
H23 C41 0.930 . S
H24 C32 0.930 . S
H25 C39 0.931 . S
H26 C3 0.929 1_556 S
H27 C33 0.930 . S
H28 C66 0.930 . S
H29 C10 0.930 . S
H30 C65 0.929 . S
N31 Tb0 2.660 . S
N31 C32 1.305 . S
N31 C36 1.360 . S
C32 H24 0.930 . S
C32 N31 1.305 . S
C32 C35 1.407 . S
C33 H27 0.930 . S
C33 C34 1.410 . S
C33 C35 1.345 . S
C34 C33 1.410 . S
C34 C36 1.417 . S
C34 C66 1.432 . S
C35 H21 0.930 . S
C35 C32 1.407 . S
C35 C33 1.345 . S
C36 N31 1.360 . S
C36 C34 1.417 . S
C36 C40 1.432 . S
H37 C42 0.930 . S
N38 Tb0 2.600 . S
N38 C40 1.359 . S
N38 C41 1.327 . S
C39 H25 0.931 . S
C39 C41 1.392 . S
C39 C42 1.370 . S
C40 C36 1.432 . S
C40 N38 1.359 . S
C40 C43 1.414 . S
C41 H23 0.930 . S
C41 N38 1.327 . S
C41 C39 1.392 . S
C42 H37 0.930 . S
C42 C39 1.370 . S
C42 C43 1.385 . S
C43 C40 1.414 . S
C43 C42 1.385 . S
C43 C65 1.444 . S
O44 Tb0 2.546 . S
O44 C64 1.251 . S
O45 Tb0 2.610 . S
O45 Tb11 2.362 . S
O45 C56 1.283 . S
O46 Tb11 2.421 . S
O46 C63 1.262 . S
O47 Tb0 2.320 . S
O47 C63 1.260 . S
O48 Tb0 2.552 . S
O48 C56 1.243 . S
O49 Tb0 2.413 . S
O49 C64 1.256 . S
O50 Tb11 2.546 1_655 S
O50 C75 1.251 . S
O51 Tb0 2.362 . S
O51 Tb11 2.610 . S
O51 C67 1.283 . S
O52 Tb0 2.421 . S
O52 C74 1.262 . S
O53 Tb11 2.320 . S
O53 C74 1.260 . S
O54 Tb11 2.552 . S
O54 C67 1.243 . S
O55 Tb11 2.413 1_655 S
O55 C75 1.256 . S
C56 O45 1.283 . S
C56 O48 1.243 . S
C57 C59 1.382 . S
C57 C61 1.393 . S
C57 C64 1.500 . S
C58 C59 1.400 . S
C58 C60 1.384 . S
C59 C57 1.382 . S
C59 C58 1.400 . S
C59 H76 0.930 . S
C60 C58 1.384 . S
C60 C62 1.392 . S
C60 H77 0.931 . S
C61 C57 1.393 . S
C61 C62 1.401 . S
C61 H78 0.930 . S
C62 C60 1.392 . S
C62 C61 1.401 . S
C62 H79 0.930 . S
C63 O46 1.262 . S
C63 O47 1.260 . S
C64 Tb0 2.833 . S
C64 O44 1.251 . S
C64 O49 1.256 . S
C64 C57 1.500 . S
C65 H30 0.929 . S
C65 C43 1.444 . S
C65 C66 1.317 . S
C66 H28 0.930 . S
C66 C34 1.432 . S
C66 C65 1.317 . S
C67 O51 1.283 . S
C67 O54 1.243 . S
C68 C69 1.382 . S
C68 C72 1.393 . S
C68 C75 1.500 . S
C69 C68 1.382 . S
C69 C70 1.400 . S
C69 H80 0.930 . S
C70 C69 1.400 . S
C70 C71 1.384 . S
C71 C70 1.384 . S
C71 C73 1.392 . S
C71 H81 0.931 . S
C72 C68 1.393 . S
C72 C73 1.401 . S
C72 H82 0.930 1_554 S
C73 C71 1.392 . S
C73 C72 1.401 . S
C73 H83 0.930 1_554 S
C74 O52 1.262 . S
C74 O53 1.260 . S
C75 Tb11 2.833 1_655 S
C75 O50 1.251 . S
C75 O55 1.256 . S
C75 C68 1.500 . S
H76 C59 0.930 . S
H77 C60 0.931 . S
H78 C61 0.930 . S
H79 C62 0.930 . S
H80 C69 0.930 . S
H81 C71 0.931 . S
H82 C72 0.930 1_556 S
H83 C73 0.930 1_556 S
Tb84 N115 2.660 . S
Tb84 N122 2.600 . S
Tb84 O128 2.546 . S
Tb84 O129 2.610 . S
Tb84 O131 2.320 . S
Tb84 O132 2.552 . S
Tb84 O133 2.413 . S
Tb84 O135 2.362 . S
Tb84 O136 2.421 . S
Tb84 C148 2.833 . S
C85 C88 1.432 . S
C85 C89 1.414 . S
C85 N92 1.359 . S
C86 C88 1.417 . S
C86 C90 1.432 . S
C86 C98 1.410 . S
C87 C89 1.444 . S
C87 C90 1.317 . S
C87 H110 0.929 . S
C88 C85 1.432 . S
C88 C86 1.417 . S
C88 N96 1.360 . S
C89 C85 1.414 . S
C89 C87 1.444 . S
C89 C94 1.385 . S
C90 C86 1.432 . S
C90 C87 1.317 . S
C90 H102 0.930 . S
C91 C93 1.392 . S
C91 C94 1.370 . S
C91 H103 0.931 . S
N92 C85 1.359 . S
N92 C93 1.327 . S
N92 Tb95 2.600 . S
C93 C91 1.392 . S
C93 N92 1.327 . S
C93 H100 0.930 . S
C94 C89 1.385 . S
C94 C91 1.370 . S
C94 H113 0.930 . S
Tb95 N92 2.600 . S
Tb95 N96 2.660 . S
Tb95 O129 2.362 . S
Tb95 O130 2.421 . S
Tb95 O134 2.546 . S
Tb95 O135 2.610 . S
Tb95 O137 2.320 . S
Tb95 O138 2.552 . S
Tb95 O139 2.413 . S
Tb95 C159 2.833 . S
N96 C88 1.360 . S
N96 Tb95 2.660 . S
N96 C97 1.305 . S
C97 N96 1.305 . S
C97 C99 1.407 1_554 S
C97 H104 0.930 . S
C98 C86 1.410 . S
C98 C99 1.345 1_554 S
C98 H106 0.930 . S
C99 C97 1.407 1_556 S
C99 C98 1.345 1_556 S
C99 H101 0.930 . S
H100 C93 0.930 . S
H101 C99 0.930 . S
H102 C90 0.930 . S
H103 C91 0.931 . S
H104 C97 0.930 . S
H105 C119 0.930 . S
H106 C98 0.930 . S
H107 C125 0.930 . S
H108 C116 0.930 . S
H109 C123 0.931 . S
H110 C87 0.929 . S
H111 C117 0.930 1_455 S
H112 C150 0.930 1_455 S
H113 C94 0.930 . S
H114 C149 0.929 . S
N115 Tb84 2.660 . S
N115 C116 1.305 . S
N115 C120 1.360 . S
C116 H108 0.930 . S
C116 N115 1.305 . S
C116 C119 1.407 . S
C117 H111 0.930 1_655 S
C117 C118 1.410 . S
C117 C119 1.345 . S
C118 C117 1.410 . S
C118 C120 1.417 . S
C118 C150 1.432 . S
C119 H105 0.930 . S
C119 C116 1.407 . S
C119 C117 1.345 . S
C120 N115 1.360 . S
C120 C118 1.417 . S
C120 C124 1.432 . S
H121 C126 0.930 . S
N122 Tb84 2.600 . S
N122 C124 1.359 . S
N122 C125 1.327 1_554 S
C123 H109 0.931 . S
C123 C125 1.392 . S
C123 C126 1.370 . S
C124 C120 1.432 . S
C124 N122 1.359 . S
C124 C127 1.414 . S
C125 H107 0.930 . S
C125 N122 1.327 1_556 S
C125 C123 1.392 . S
C126 H121 0.930 . S
C126 C123 1.370 . S
C126 C127 1.385 1_556 S
C127 C124 1.414 . S
C127 C126 1.385 1_554 S
C127 C149 1.444 . S
O128 Tb84 2.546 . S
O128 C148 1.251 . S
O129 Tb84 2.610 . S
O129 Tb95 2.362 . S
O129 C140 1.283 . S
O130 Tb95 2.421 . S
O130 C147 1.262 . S
O131 Tb84 2.320 . S
O131 C147 1.260 . S
O132 Tb84 2.552 . S
O132 C140 1.243 . S
O133 Tb84 2.413 . S
O133 C148 1.256 . S
O134 Tb95 2.546 . S
O134 C159 1.251 . S
O135 Tb84 2.362 . S
O135 Tb95 2.610 . S
O135 C151 1.283 . S
O136 Tb84 2.421 . S
O136 C158 1.262 . S
O137 Tb95 2.320 . S
O137 C158 1.260 . S
O138 Tb95 2.552 . S
O138 C151 1.243 . S
O139 Tb95 2.413 . S
O139 C159 1.256 . S
C140 O129 1.283 . S
C140 O132 1.243 . S
C141 C143 1.382 . S
C141 C145 1.393 . S
C141 C148 1.500 . S
C142 C143 1.400 . S
C142 C144 1.384 . S
C143 C141 1.382 . S
C143 C142 1.400 . S
C143 H160 0.930 . S
C144 C142 1.384 . S
C144 C146 1.392 . S
C144 H161 0.931 . S
C145 C141 1.393 . S
C145 C146 1.401 . S
C145 H162 0.927 1_554 S
C146 C144 1.392 . S
C146 C145 1.401 . S
C146 H163 0.930 1_554 S
C147 O130 1.262 . S
C147 O131 1.260 . S
C148 Tb84 2.833 . S
C148 O128 1.251 . S
C148 O133 1.256 . S
C148 C141 1.500 . S
C149 H114 0.929 . S
C149 C127 1.444 . S
C149 C150 1.317 . S
C150 H112 0.930 1_655 S
C150 C118 1.432 . S
C150 C149 1.317 . S
C151 O135 1.283 . S
C151 O138 1.243 . S
C152 C153 1.382 . S
C152 C156 1.393 . S
C152 C159 1.500 . S
C153 C152 1.382 . S
C153 C154 1.400 . S
C153 H164 0.930 . S
C154 C153 1.400 . S
C154 C155 1.384 . S
C155 C154 1.384 . S
C155 C157 1.392 . S
C155 H165 0.931 . S
C156 C152 1.393 . S
C156 C157 1.401 . S
C156 H166 0.930 . S
C157 C155 1.392 . S
C157 C156 1.401 . S
C157 H167 0.930 . S
C158 O136 1.262 . S
C158 O137 1.260 . S
C159 Tb95 2.833 . S
C159 O134 1.251 . S
C159 O139 1.256 . S
C159 C152 1.500 . S
H160 C143 0.930 . S
H161 C144 0.931 . S
H162 C145 0.927 1_556 S
H163 C146 0.930 1_556 S
H164 C153 0.930 . S
H165 C155 0.931 . S
H166 C156 0.930 . S
H167 C157 0.930 . S
Tb168 N199 2.660 1_554 S
Tb168 N206 2.600 . S
Tb168 O212 2.546 . S
Tb168 O213 2.610 1_565 S
Tb168 O215 2.320 1_554 S
Tb168 O216 2.552 1_565 S
Tb168 O217 2.413 1_554 S
Tb168 O219 2.362 . S
Tb168 O220 2.421 1_565 S
Tb168 C232 2.833 . S
C169 C172 1.432 1_556 S
C169 C173 1.414 . S
C169 N176 1.359 . S
C170 C172 1.417 . S
C170 C174 1.432 . S
C170 C182 1.410 . S
C171 C173 1.444 . S
C171 C174 1.317 1_556 S
C171 H194 0.929 . S
C172 C169 1.432 1_554 S
C172 C170 1.417 . S
C172 N180 1.360 . S
C173 C169 1.414 . S
C173 C171 1.444 . S
C173 C178 1.385 . S
C174 C170 1.432 . S
C174 C171 1.317 1_554 S
C174 H186 0.930 . S
C175 C177 1.392 . S
C175 C178 1.370 . S
C175 H187 0.931 . S
N176 C169 1.359 . S
N176 C177 1.327 . S
N176 Tb179 2.600 1_556 S
C177 C175 1.392 . S
C177 N176 1.327 . S
C177 H184 0.930 . S
C178 C173 1.385 . S
C178 C175 1.370 . S
C178 H197 0.930 . S
Tb179 N176 2.600 1_554 S
Tb179 N180 2.660 . S
Tb179 O213 2.362 . S
Tb179 O214 2.421 1_554 S
Tb179 O218 2.546 1_554 S
Tb179 O219 2.610 1_545 S
Tb179 O221 2.320 . S
Tb179 O222 2.538 1_545 S
Tb179 O223 2.413 . S
Tb179 C243 2.833 . S
N180 C172 1.360 . S
N180 Tb179 2.660 . S
N180 C181 1.305 . S
C181 N180 1.305 . S
C181 C183 1.407 . S
C181 H188 0.930 . S
C182 C170 1.410 . S
C182 C183 1.345 . S
C182 H190 0.930 . S
C183 C181 1.407 . S
C183 C182 1.345 . S
C183 H185 0.930 . S
H184 C177 0.930 . S
H185 C183 0.930 . S
H186 C174 0.930 . S
H187 C175 0.931 . S
H188 C181 0.930 . S
H189 C203 0.930 . S
H190 C182 0.930 . S
H191 C209 0.930 . S
H192 C200 0.930 . S
H193 C207 0.931 . S
H194 C171 0.929 . S
H195 C201 0.930 . S
H196 C234 0.930 . S
H197 C178 0.930 . S
H198 C233 0.929 . S
N199 Tb168 2.660 1_556 S
N199 C200 1.305 . S
N199 C204 1.360 . S
C200 H192 0.930 . S
C200 N199 1.305 . S
C200 C203 1.407 . S
C201 H195 0.930 . S
C201 C202 1.410 . S
C201 C203 1.345 . S
C202 C201 1.410 . S
C202 C204 1.417 . S
C202 C234 1.432 . S
C203 H189 0.930 . S
C203 C200 1.407 . S
C203 C201 1.345 . S
C204 N199 1.360 . S
C204 C202 1.417 . S
C204 C208 1.432 1_556 S
H205 C210 0.930 . S
N206 Tb168 2.600 . S
N206 C208 1.359 . S
N206 C209 1.327 . S
C207 H193 0.931 . S
C207 C209 1.392 . S
C207 C210 1.370 . S
C208 C204 1.432 1_554 S
C208 N206 1.359 . S
C208 C211 1.414 . S
C209 H191 0.930 . S
C209 N206 1.327 . S
C209 C207 1.392 . S
C210 H205 0.930 . S
C210 C207 1.370 . S
C210 C211 1.385 . S
C211 C208 1.414 . S
C211 C210 1.385 . S
C211 C233 1.444 . S
O212 Tb168 2.546 . S
O212 C232 1.251 . S
O213 Tb168 2.610 1_545 S
O213 Tb179 2.362 . S
O213 C224 1.283 . S
O214 Tb179 2.421 1_556 S
O214 C231 1.262 1_545 S
O215 Tb168 2.320 1_556 S
O215 C231 1.260 . S
O216 Tb168 2.552 1_545 S
O216 C224 1.243 . S
O217 Tb168 2.413 1_556 S
O217 C232 1.256 1_556 S
O218 Tb179 2.546 1_556 S
O218 C243 1.251 1_556 S
O219 Tb168 2.362 . S
O219 Tb179 2.610 1_565 S
O219 C235 1.283 . S
O220 Tb168 2.421 1_545 S
O220 C242 1.262 . S
O221 Tb179 2.320 . S
O221 C242 1.260 . S
O222 Tb179 2.538 1_565 S
O222 C235 1.291 . S
O223 Tb179 2.413 . S
O223 C243 1.256 . S
C224 O213 1.283 . S
C224 O216 1.243 . S
C225 C227 1.382 . S
C225 C229 1.393 1_556 S
C225 C232 1.500 1_556 S
C226 C227 1.400 . S
C226 C228 1.384 . S
C227 C225 1.382 . S
C227 C226 1.400 . S
C227 H244 0.930 . S
C228 C226 1.384 . S
C228 C230 1.392 1_556 S
C228 H245 0.931 . S
C229 C225 1.393 1_554 S
C229 C230 1.401 . S
C229 H246 0.930 . S
C230 C228 1.392 1_554 S
C230 C229 1.401 . S
C230 H247 0.930 . S
C231 O214 1.262 1_565 S
C231 O215 1.260 . S
C232 Tb168 2.833 . S
C232 O212 1.251 . S
C232 O217 1.256 1_554 S
C232 C225 1.500 1_554 S
C233 H198 0.929 . S
C233 C211 1.444 . S
C233 C234 1.317 1_554 S
C234 H196 0.930 . S
C234 C202 1.432 . S
C234 C233 1.317 1_556 S
C235 O219 1.283 . S
C235 O222 1.291 . S
C236 C237 1.382 . S
C236 C240 1.393 1_554 S
C236 C243 1.500 . S
C237 C236 1.382 . S
C237 C238 1.400 . S
C237 H248 0.930 . S
C238 C237 1.400 . S
C238 C239 1.384 . S
C239 C238 1.384 . S
C239 C241 1.392 . S
C239 H249 0.931 . S
C240 C236 1.393 1_556 S
C240 C241 1.401 1_556 S
C240 H250 0.930 . S
C241 C239 1.392 . S
C241 C240 1.401 1_554 S
C241 H251 0.930 1_554 S
C242 O220 1.262 . S
C242 O221 1.260 . S
C243 Tb179 2.833 . S
C243 O218 1.251 1_554 S
C243 O223 1.256 . S
C243 C236 1.500 . S
H244 C227 0.930 . S
H245 C228 0.931 . S
H246 C229 0.930 . S
H247 C230 0.930 . S
H248 C237 0.930 . S
H249 C239 0.931 . S
H250 C240 0.930 . S
H251 C241 0.930 1_556 S
Tb252 N283 2.660 . S
Tb252 N290 2.600 1_554 S
Tb252 O296 2.546 . S
Tb252 O297 2.610 . S
Tb252 O299 2.320 . S
Tb252 O300 2.552 . S
Tb252 O301 2.413 . S
Tb252 O303 2.362 . S
Tb252 O304 2.421 1_554 S
Tb252 C316 2.833 . S
C253 C256 1.432 . S
C253 C257 1.414 . S
C253 N260 1.359 . S
C254 C256 1.417 . S
C254 C258 1.432 . S
C254 C266 1.410 . S
C255 C257 1.444 . S
C255 C258 1.317 . S
C255 H278 0.929 . S
C256 C253 1.432 . S
C256 C254 1.417 . S
C256 N264 1.360 . S
C257 C253 1.414 . S
C257 C255 1.444 . S
C257 C262 1.385 . S
C258 C254 1.432 . S
C258 C255 1.317 . S
C258 H270 0.930 . S
C259 C261 1.392 . S
C259 C262 1.370 . S
C259 H271 0.931 . S
N260 C253 1.359 . S
N260 C261 1.327 . S
N260 Tb263 2.600 . S
C261 C259 1.392 . S
C261 N260 1.327 . S
C261 H268 0.930 . S
C262 C257 1.385 . S
C262 C259 1.370 . S
C262 H281 0.930 . S
Tb263 N260 2.600 . S
Tb263 N264 2.660 . S
Tb263 O297 2.362 . S
Tb263 O298 2.421 . S
Tb263 O302 2.546 . S
Tb263 O303 2.610 . S
Tb263 O305 2.320 1_554 S
Tb263 O306 2.552 . S
Tb263 O307 2.413 . S
Tb263 C327 2.833 . S
N264 C256 1.360 . S
N264 Tb263 2.660 . S
N264 C265 1.305 . S
C265 N264 1.305 . S
C265 C267 1.407 . S
C265 H272 0.930 1_554 S
C266 C254 1.410 . S
C266 C267 1.345 . S
C266 H274 0.930 . S
C267 C265 1.407 . S
C267 C266 1.345 . S
C267 H269 0.930 1_554 S
H268 C261 0.930 . S
H269 C267 0.930 1_556 S
H270 C258 0.930 . S
H271 C259 0.931 . S
H272 C265 0.930 1_556 S
H273 C287 0.930 . S
H274 C266 0.930 . S
H275 C293 0.930 . S
H276 C284 0.930 . S
H277 C291 0.931 . S
H278 C255 0.929 . S
H279 C285 0.930 . S
H280 C318 0.930 . S
H281 C262 0.930 . S
H282 C317 0.929 . S
N283 Tb252 2.660 . S
N283 C284 1.305 . S
N283 C288 1.360 . S
C284 H276 0.930 . S
C284 N283 1.305 . S
C284 C287 1.407 . S
C285 H279 0.930 . S
C285 C286 1.410 . S
C285 C287 1.345 . S
C286 C285 1.410 . S
C286 C288 1.417 . S
C286 C318 1.432 1_554 S
C287 H273 0.930 . S
C287 C284 1.407 . S
C287 C285 1.345 . S
C288 N283 1.360 . S
C288 C286 1.417 . S
C288 C292 1.432 1_554 S
H289 C294 0.930 . S
N290 Tb252 2.600 1_556 S
N290 C292 1.359 . S
N290 C293 1.327 . S
C291 H277 0.931 . S
C291 C293 1.392 . S
C291 C294 1.370 . S
C292 C288 1.432 1_556 S
C292 N290 1.359 . S
C292 C295 1.414 . S
C293 H275 0.930 . S
C293 N290 1.327 . S
C293 C291 1.392 . S
C294 H289 0.930 . S
C294 C291 1.370 . S
C294 C295 1.385 . S
C295 C292 1.414 . S
C295 C294 1.385 . S
C295 C317 1.444 . S
O296 Tb252 2.546 . S
O296 C316 1.251 . S
O297 Tb252 2.610 . S
O297 Tb263 2.362 . S
O297 C308 1.283 . S
O298 Tb263 2.421 . S
O298 C315 1.262 . S
O299 Tb252 2.320 . S
O299 C315 1.260 . S
O300 Tb252 2.552 . S
O300 C308 1.243 . S
O301 Tb252 2.413 . S
O301 C316 1.256 . S
O302 Tb263 2.546 . S
O302 C327 1.251 . S
O303 Tb252 2.362 . S
O303 Tb263 2.610 . S
O303 C319 1.283 . S
O304 Tb252 2.421 1_556 S
O304 C326 1.262 . S
O305 Tb263 2.320 1_556 S
O305 C326 1.260 . S
O306 Tb263 2.552 . S
O306 C319 1.243 . S
O307 Tb263 2.413 . S
O307 C327 1.256 . S
C308 O297 1.283 . S
C308 O300 1.243 . S
C309 C311 1.382 . S
C309 C313 1.393 . S
C309 C316 1.500 . S
C310 C311 1.400 . S
C310 C312 1.384 . S
C311 C309 1.382 . S
C311 C310 1.400 . S
C311 H328 0.930 . S
C312 C310 1.384 . S
C312 C314 1.392 . S
C312 H329 0.931 . S
C313 C309 1.393 . S
C313 C314 1.401 . S
C313 H330 0.930 1_554 S
C314 C312 1.392 . S
C314 C313 1.401 . S
C314 H331 0.930 . S
C315 O298 1.262 . S
C315 O299 1.260 . S
C316 Tb252 2.833 . S
C316 O296 1.251 . S
C316 O301 1.256 . S
C316 C309 1.500 . S
C317 H282 0.929 . S
C317 C295 1.444 . S
C317 C318 1.317 . S
C318 H280 0.930 . S
C318 C286 1.432 1_556 S
C318 C317 1.317 . S
C319 O303 1.283 . S
C319 O306 1.243 . S
C320 C321 1.382 . S
C320 C324 1.393 . S
C320 C327 1.500 . S
C321 C320 1.382 . S
C321 C322 1.400 . S
C321 H332 0.930 1_554 S
C322 C321 1.400 . S
C322 C323 1.384 . S
C323 C322 1.384 . S
C323 C325 1.392 . S
C323 H333 0.931 . S
C324 C320 1.393 . S
C324 C325 1.401 . S
C324 H334 0.930 . S
C325 C323 1.392 . S
C325 C324 1.401 . S
C325 H335 0.930 . S
C326 O304 1.262 . S
C326 O305 1.260 . S
C327 Tb263 2.833 . S
C327 O302 1.251 . S
C327 O307 1.256 . S
C327 C320 1.500 . S
H328 C311 0.930 . S
H329 C312 0.931 . S
H330 C313 0.930 1_556 S
H331 C314 0.930 . S
H332 C321 0.930 1_556 S
H333 C323 0.931 . S
H334 C324 0.930 . S
H335 C325 0.930 . S
Tb336 N367 2.660 1_556 S
Tb336 N374 2.600 . S
Tb336 O380 2.546 . S
Tb336 O381 2.610 . S
Tb336 O383 2.320 1_556 S
Tb336 O384 2.552 . S
Tb336 O385 2.413 1_556 S
Tb336 O387 2.362 1_556 S
Tb336 O388 2.421 . S
Tb336 C400 2.833 . S
C337 C340 1.432 1_554 S
C337 C341 1.414 . S
C337 N344 1.359 . S
C338 C340 1.417 . S
C338 C342 1.432 . S
C338 C350 1.410 . S
C339 C341 1.444 . S
C339 C342 1.317 1_554 S
C339 H362 0.929 . S
C340 C337 1.432 1_556 S
C340 C338 1.417 . S
C340 N348 1.360 . S
C341 C337 1.414 . S
C341 C339 1.444 . S
C341 C346 1.385 . S
C342 C338 1.432 . S
C342 C339 1.317 1_556 S
C342 H354 0.930 . S
C343 C345 1.392 . S
C343 C346 1.370 . S
C343 H355 0.931 . S
N344 C337 1.359 . S
N344 C345 1.327 . S
N344 Tb347 2.600 . S
C345 C343 1.392 . S
C345 N344 1.327 . S
C345 H352 0.930 . S
C346 C341 1.385 . S
C346 C343 1.370 . S
C346 H365 0.930 . S
Tb347 N344 2.600 . S
Tb347 N348 2.660 1_554 S
Tb347 O381 2.362 1_554 S
Tb347 O382 2.421 . S
Tb347 O386 2.546 . S
Tb347 O387 2.610 . S
Tb347 O389 2.320 1_554 S
Tb347 O390 2.552 . S
Tb347 O391 2.413 1_554 S
Tb347 C411 2.833 . S
N348 C340 1.360 . S
N348 Tb347 2.660 1_556 S
N348 C349 1.305 . S
C349 N348 1.305 . S
C349 C351 1.407 . S
C349 H356 0.930 . S
C350 C338 1.410 . S
C350 C351 1.345 . S
C350 H358 0.930 . S
C351 C349 1.407 . S
C351 C350 1.345 . S
C351 H353 0.930 . S
H352 C345 0.930 . S
H353 C351 0.930 . S
H354 C342 0.930 . S
H355 C343 0.931 . S
H356 C349 0.930 . S
H357 C371 0.930 . S
H358 C350 0.930 . S
H359 C377 0.930 . S
H360 C368 0.930 . S
H361 C375 0.931 . S
H362 C339 0.929 . S
H363 C369 0.930 . S
H364 C402 0.930 . S
H365 C346 0.930 . S
H366 C401 0.929 . S
N367 Tb336 2.660 1_554 S
N367 C368 1.305 . S
N367 C372 1.360 . S
C368 H360 0.930 . S
C368 N367 1.305 . S
C368 C371 1.407 . S
C369 H363 0.930 . S
C369 C370 1.410 . S
C369 C371 1.345 . S
C370 C369 1.410 . S
C370 C372 1.417 . S
C370 C402 1.432 . S
C371 H357 0.930 . S
C371 C368 1.407 . S
C371 C369 1.345 . S
C372 N367 1.360 . S
C372 C370 1.417 . S
C372 C376 1.432 1_554 S
H373 C378 0.930 . S
N374 Tb336 2.600 . S
N374 C376 1.359 . S
N374 C377 1.327 . S
C375 H361 0.931 . S
C375 C377 1.392 . S
C375 C378 1.370 . S
C376 C372 1.432 1_556 S
C376 N374 1.359 . S
C376 C379 1.414 . S
C377 H359 0.930 . S
C377 N374 1.327 . S
C377 C375 1.392 . S
C378 H373 0.930 . S
C378 C375 1.370 . S
C378 C379 1.385 . S
C379 C376 1.414 . S
C379 C378 1.385 . S
C379 C401 1.444 . S
O380 Tb336 2.546 . S
O380 C400 1.251 . S
O381 Tb336 2.610 . S
O381 Tb347 2.362 1_556 S
O381 C392 1.283 . S
O382 Tb347 2.421 . S
O382 C399 1.262 . S
O383 Tb336 2.320 1_554 S
O383 C399 1.260 . S
O384 Tb336 2.552 . S
O384 C392 1.243 . S
O385 Tb336 2.413 1_554 S
O385 C400 1.256 1_554 S
O386 Tb347 2.546 . S
O386 C411 1.251 . S
O387 Tb336 2.362 1_554 S
O387 Tb347 2.610 . S
O387 C403 1.283 . S
O388 Tb336 2.421 . S
O388 C410 1.262 . S
O389 Tb347 2.320 1_556 S
O389 C410 1.260 . S
O390 Tb347 2.552 . S
O390 C403 1.243 . S
O391 Tb347 2.413 1_556 S
O391 C411 1.256 1_556 S
C392 O381 1.283 . S
C392 O384 1.243 . S
C393 C395 1.382 1_556 S
C393 C397 1.393 . S
C393 C400 1.500 . S
C394 C395 1.400 . S
C394 C396 1.384 . S
C395 C393 1.382 1_554 S
C395 C394 1.400 . S
C395 H412 0.930 . S
C396 C394 1.384 . S
C396 C398 1.392 1_554 S
C396 H413 0.931 . S
C397 C393 1.393 . S
C397 C398 1.401 . S
C397 H414 0.930 . S
C398 C396 1.392 1_556 S
C398 C397 1.401 . S
C398 H415 0.930 . S
C399 O382 1.262 . S
C399 O383 1.260 . S
C400 Tb336 2.833 . S
C400 O380 1.251 . S
C400 O385 1.256 1_556 S
C400 C393 1.500 . S
C401 H366 0.929 . S
C401 C379 1.444 . S
C401 C402 1.317 1_556 S
C402 H364 0.930 . S
C402 C370 1.432 . S
C402 C401 1.317 1_554 S
C403 O387 1.283 . S
C403 O390 1.243 . S
C404 C405 1.382 1_554 S
C404 C408 1.393 . S
C404 C411 1.500 . S
C405 C404 1.382 1_556 S
C405 C406 1.400 . S
C405 H416 0.930 . S
C406 C405 1.400 . S
C406 C407 1.384 . S
C407 C406 1.384 . S
C407 C409 1.392 1_556 S
C407 H417 0.931 . S
C408 C404 1.393 . S
C408 C409 1.401 . S
C408 H418 0.930 . S
C409 C407 1.392 1_554 S
C409 C408 1.401 . S
C409 H419 0.930 . S
C410 O388 1.262 . S
C410 O389 1.260 . S
C411 Tb347 2.833 . S
C411 O386 1.251 . S
C411 O391 1.256 1_554 S
C411 C404 1.500 . S
H412 C395 0.930 . S
H413 C396 0.931 . S
H414 C397 0.930 . S
H415 C398 0.930 . S
H416 C405 0.930 . S
H417 C407 0.931 . S
H418 C408 0.930 . S
H419 C409 0.930 . S
Tb420 N451 2.660 . S
Tb420 N458 2.600 . S
Tb420 O464 2.546 . S
Tb420 O465 2.610 . S
Tb420 O467 2.320 . S
Tb420 O468 2.552 . S
Tb420 O469 2.413 . S
Tb420 O471 2.362 . S
Tb420 O472 2.421 . S
Tb420 C484 2.833 . S
C421 C424 1.432 . S
C421 C425 1.414 . S
C421 N428 1.359 . S
C422 C424 1.417 . S
C422 C426 1.432 . S
C422 C434 1.410 1_554 S
C423 C425 1.444 . S
C423 C426 1.317 . S
C423 H446 0.929 . S
C424 C421 1.432 . S
C424 C422 1.417 . S
C424 N432 1.360 . S
C425 C421 1.414 . S
C425 C423 1.444 . S
C425 C430 1.385 . S
C426 C422 1.432 . S
C426 C423 1.317 . S
C426 H438 0.930 . S
C427 C429 1.392 . S
C427 C430 1.370 . S
C427 H439 0.931 . S
N428 C421 1.359 . S
N428 C429 1.327 . S
N428 Tb431 2.600 . S
C429 C427 1.392 . S
C429 N428 1.327 . S
C429 H436 0.930 . S
C430 C425 1.385 . S
C430 C427 1.370 . S
C430 H449 0.930 . S
Tb431 N428 2.600 . S
Tb431 N432 2.660 . S
Tb431 O465 2.362 . S
Tb431 O466 2.421 . S
Tb431 O470 2.546 . S
Tb431 O471 2.610 . S
Tb431 O473 2.320 . S
Tb431 O474 2.552 . S
Tb431 O475 2.413 . S
Tb431 C495 2.833 . S
N432 C424 1.360 . S
N432 Tb431 2.660 . S
N432 C433 1.305 1_554 S
C433 N432 1.305 1_556 S
C433 C435 1.407 . S
C433 H440 0.930 . S
C434 C422 1.410 1_556 S
C434 C435 1.345 . S
C434 H442 0.930 . S
C435 C433 1.407 . S
C435 C434 1.345 . S
C435 H437 0.930 . S
H436 C429 0.930 . S
H437 C435 0.930 . S
H438 C426 0.930 . S
H439 C427 0.931 . S
H440 C433 0.930 . S
H441 C455 0.930 . S
H442 C434 0.930 . S
H443 C461 0.930 . S
H444 C452 0.930 . S
H445 C459 0.931 1_556 S
H446 C423 0.929 . S
H447 C453 0.930 . S
H448 C486 0.930 . S
H449 C430 0.930 . S
H450 C485 0.929 . S
N451 Tb420 2.660 . S
N451 C452 1.305 . S
N451 C456 1.360 . S
C452 H444 0.930 . S
C452 N451 1.305 . S
C452 C455 1.407 . S
C453 H447 0.930 . S
C453 C454 1.410 . S
C453 C455 1.345 . S
C454 C453 1.410 . S
C454 C456 1.417 . S
C454 C486 1.432 . S
C455 H441 0.930 . S
C455 C452 1.407 . S
C455 C453 1.345 . S
C456 N451 1.360 . S
C456 C454 1.417 . S
C456 C460 1.432 . S
H457 C462 0.930 . S
N458 Tb420 2.600 . S
N458 C460 1.359 . S
N458 C461 1.327 . S
C459 H445 0.931 1_554 S
C459 C461 1.392 . S
C459 C462 1.370 . S
C460 C456 1.432 . S
C460 N458 1.359 . S
C460 C463 1.414 . S
C461 H443 0.930 . S
C461 N458 1.327 . S
C461 C459 1.392 . S
C462 H457 0.930 . S
C462 C459 1.370 . S
C462 C463 1.385 . S
C463 C460 1.414 . S
C463 C462 1.385 . S
C463 C485 1.444 . S
O464 Tb420 2.546 . S
O464 C484 1.251 . S
O465 Tb420 2.610 . S
O465 Tb431 2.362 . S
O465 C476 1.283 . S
O466 Tb431 2.421 . S
O466 C483 1.262 . S
O467 Tb420 2.320 . S
O467 C483 1.260 . S
O468 Tb420 2.552 . S
O468 C476 1.243 . S
O469 Tb420 2.413 . S
O469 C484 1.256 . S
O470 Tb431 2.546 . S
O470 C495 1.251 . S
O471 Tb420 2.362 . S
O471 Tb431 2.610 . S
O471 C487 1.283 . S
O472 Tb420 2.421 . S
O472 C494 1.262 1_554 S
O473 Tb431 2.320 . S
O473 C494 1.260 1_554 S
O474 Tb431 2.552 . S
O474 C487 1.243 . S
O475 Tb431 2.413 . S
O475 C495 1.256 . S
C476 O465 1.283 . S
C476 O468 1.243 . S
C477 C479 1.382 . S
C477 C481 1.393 . S
C477 C484 1.500 1_455 S
C478 C479 1.400 . S
C478 C480 1.384 . S
C479 C477 1.382 . S
C479 C478 1.400 . S
C479 H496 0.930 . S
C480 C478 1.384 . S
C480 C482 1.392 . S
C480 H497 0.931 . S
C481 C477 1.393 . S
C481 C482 1.401 . S
C481 H498 0.930 . S
C482 C480 1.392 . S
C482 C481 1.401 . S
C482 H499 0.930 . S
C483 O466 1.262 . S
C483 O467 1.260 . S
C484 Tb420 2.833 . S
C484 O464 1.251 . S
C484 O469 1.256 . S
C484 C477 1.500 1_655 S
C485 H450 0.929 . S
C485 C463 1.444 . S
C485 C486 1.317 . S
C486 H448 0.930 . S
C486 C454 1.432 . S
C486 C485 1.317 . S
C487 O471 1.283 . S
C487 O474 1.243 . S
C488 C489 1.382 1_554 S
C488 C492 1.393 . S
C488 C495 1.500 . S
C489 C488 1.382 1_556 S
C489 C490 1.400 . S
C489 H500 0.930 . S
C490 C489 1.400 . S
C490 C491 1.384 . S
C491 C490 1.384 . S
C491 C493 1.392 1_556 S
C491 H501 0.931 . S
C492 C488 1.393 . S
C492 C493 1.401 . S
C492 H502 0.930 . S
C493 C491 1.392 1_554 S
C493 C492 1.401 . S
C493 H503 0.930 . S
C494 O472 1.262 1_556 S
C494 O473 1.260 1_556 S
C495 Tb431 2.833 . S
C495 O470 1.251 . S
C495 O475 1.256 . S
C495 C488 1.500 . S
H496 C479 0.930 . S
H497 C480 0.931 . S
H498 C481 0.930 . S
H499 C482 0.930 . S
H500 C489 0.930 . S
H501 C491 0.931 . S
H502 C492 0.930 . S
H503 C493 0.930 . S
Tb504 N535 2.660 . S
Tb504 N542 2.600 . S
Tb504 O548 2.546 . S
Tb504 O549 2.610 . S
Tb504 O551 2.320 . S
Tb504 O552 2.552 . S
Tb504 O553 2.413 . S
Tb504 O555 2.362 . S
Tb504 O556 2.421 . S
Tb504 C568 2.833 . S
C505 C508 1.432 . S
C505 C509 1.414 . S
C505 N512 1.359 . S
C506 C508 1.417 . S
C506 C510 1.432 . S
C506 C518 1.410 . S
C507 C509 1.444 . S
C507 C510 1.317 . S
C507 H530 0.929 . S
C508 C505 1.432 . S
C508 C506 1.417 . S
C508 N516 1.360 . S
C509 C505 1.414 . S
C509 C507 1.444 . S
C509 C514 1.385 . S
C510 C506 1.432 . S
C510 C507 1.317 . S
C510 H522 0.930 . S
C511 C513 1.392 . S
C511 C514 1.370 . S
C511 H523 0.931 . S
N512 C505 1.359 . S
N512 C513 1.327 . S
N512 Tb515 2.600 . S
C513 C511 1.392 . S
C513 N512 1.327 . S
C513 H520 0.930 . S
C514 C509 1.385 . S
C514 C511 1.370 . S
C514 H533 0.930 . S
Tb515 N512 2.600 . S
Tb515 N516 2.660 . S
Tb515 O549 2.362 . S
Tb515 O550 2.421 . S
Tb515 O554 2.546 . S
Tb515 O555 2.610 . S
Tb515 O557 2.320 . S
Tb515 O558 2.552 . S
Tb515 O559 2.413 . S
Tb515 C579 2.833 . S
N516 C508 1.360 . S
N516 Tb515 2.660 . S
N516 C517 1.305 . S
C517 N516 1.305 . S
C517 C519 1.407 . S
C517 H524 0.930 . S
C518 C506 1.410 . S
C518 C519 1.345 . S
C518 H526 0.930 . S
C519 C517 1.407 . S
C519 C518 1.345 . S
C519 H521 0.930 1_556 S
H520 C513 0.930 . S
H521 C519 0.930 1_554 S
H522 C510 0.930 . S
H523 C511 0.931 . S
H524 C517 0.930 . S
H525 C539 0.930 . S
H526 C518 0.930 . S
H527 C545 0.930 . S
H528 C536 0.930 . S
H529 C543 0.931 . S
H530 C507 0.929 . S
H531 C537 0.930 . S
H532 C570 0.930 . S
H533 C514 0.930 . S
H534 C569 0.929 1_554 S
N535 Tb504 2.660 . S
N535 C536 1.305 . S
N535 C540 1.360 . S
C536 H528 0.930 . S
C536 N535 1.305 . S
C536 C539 1.407 . S
C537 H531 0.930 . S
C537 C538 1.410 . S
C537 C539 1.345 . S
C538 C537 1.410 . S
C538 C540 1.417 . S
C538 C570 1.432 . S
C539 H525 0.930 . S
C539 C536 1.407 . S
C539 C537 1.345 . S
C540 N535 1.360 . S
C540 C538 1.417 . S
C540 C544 1.432 . S
H541 C546 0.930 . S
N542 Tb504 2.600 . S
N542 C544 1.359 . S
N542 C545 1.327 1_556 S
C543 H529 0.931 . S
C543 C545 1.392 . S
C543 C546 1.370 . S
C544 C540 1.432 . S
C544 N542 1.359 . S
C544 C547 1.414 1_556 S
C545 H527 0.930 . S
C545 N542 1.327 1_554 S
C545 C543 1.392 . S
C546 H541 0.930 . S
C546 C543 1.370 . S
C546 C547 1.385 . S
C547 C544 1.414 1_554 S
C547 C546 1.385 . S
C547 C569 1.444 1_554 S
O548 Tb504 2.546 . S
O548 C568 1.251 . S
O549 Tb504 2.610 . S
O549 Tb515 2.362 . S
O549 C560 1.283 . S
O550 Tb515 2.421 . S
O550 C567 1.262 . S
O551 Tb504 2.320 . S
O551 C567 1.260 . S
O552 Tb504 2.552 . S
O552 C560 1.243 . S
O553 Tb504 2.413 . S
O553 C568 1.256 . S
O554 Tb515 2.546 . S
O554 C579 1.251 . S
O555 Tb504 2.362 . S
O555 Tb515 2.610 . S
O555 C571 1.283 . S
O556 Tb504 2.421 . S
O556 C578 1.262 . S
O557 Tb515 2.320 . S
O557 C578 1.260 . S
O558 Tb515 2.552 . S
O558 C571 1.243 . S
O559 Tb515 2.413 . S
O559 C579 1.256 . S
C560 O549 1.283 . S
C560 O552 1.243 . S
C561 C563 1.382 . S
C561 C565 1.393 . S
C561 C568 1.500 . S
C562 C563 1.400 . S
C562 C564 1.384 1_565 S
C563 C561 1.382 . S
C563 C562 1.400 . S
C563 H580 0.930 . S
C564 C562 1.384 1_545 S
C564 C566 1.392 . S
C564 H581 0.931 . S
C565 C561 1.393 . S
C565 C566 1.401 1_565 S
C565 H582 0.930 . S
C566 C564 1.392 . S
C566 C565 1.401 1_545 S
C566 H583 0.930 . S
C567 O550 1.262 . S
C567 O551 1.260 . S
C568 Tb504 2.833 . S
C568 O548 1.251 . S
C568 O553 1.256 . S
C568 C561 1.500 . S
C569 H534 0.929 1_556 S
C569 C547 1.444 1_556 S
C569 C570 1.317 . S
C570 H532 0.930 . S
C570 C538 1.432 . S
C570 C569 1.317 . S
C571 O555 1.283 . S
C571 O558 1.243 . S
C572 C573 1.382 . S
C572 C576 1.393 . S
C572 C579 1.500 . S
C573 C572 1.382 . S
C573 C574 1.400 . S
C573 H584 0.930 . S
C574 C573 1.400 . S
C574 C575 1.384 . S
C575 C574 1.384 . S
C575 C577 1.392 . S
C575 H585 0.931 . S
C576 C572 1.393 . S
C576 C577 1.401 . S
C576 H586 0.930 . S
C577 C575 1.392 . S
C577 C576 1.401 . S
C577 H587 0.930 . S
C578 O556 1.262 . S
C578 O557 1.260 . S
C579 Tb515 2.833 . S
C579 O554 1.251 . S
C579 O559 1.256 . S
C579 C572 1.500 . S
H580 C563 0.930 . S
H581 C564 0.931 . S
H582 C565 0.930 . S
H583 C566 0.930 . S
H584 C573 0.930 . S
H585 C575 0.931 . S
H586 C576 0.930 . S
H587 C577 0.930 . S
Tb588 N619 2.660 1_556 S
Tb588 N626 2.600 . S
Tb588 O632 2.546 . S
Tb588 O633 2.610 . S
Tb588 O635 2.320 1_556 S
Tb588 O636 2.552 . S
Tb588 O637 2.420 . S
Tb588 O639 2.362 . S
Tb588 O640 2.421 . S
Tb588 C652 2.833 . S
C589 C592 1.432 . S
C589 C593 1.414 1_556 S
C589 N596 1.359 1_556 S
C590 C592 1.417 . S
C590 C594 1.432 . S
C590 C602 1.410 . S
C591 C593 1.444 1_556 S
C591 C594 1.317 . S
C591 H614 0.929 . S
C592 C589 1.432 . S
C592 C590 1.417 . S
C592 N600 1.360 . S
C593 C589 1.414 1_554 S
C593 C591 1.444 1_554 S
C593 C598 1.385 . S
C594 C590 1.432 . S
C594 C591 1.317 . S
C594 H606 0.930 . S
C595 C597 1.392 . S
C595 C598 1.370 . S
C595 H607 0.931 . S
N596 C589 1.359 1_554 S
N596 C597 1.327 . S
N596 Tb599 2.600 1_554 S
C597 C595 1.392 . S
C597 N596 1.327 . S
C597 H604 0.930 . S
C598 C593 1.385 . S
C598 C595 1.370 . S
C598 H617 0.930 . S
Tb599 N596 2.600 1_556 S
Tb599 N600 2.660 . S
Tb599 O633 2.362 . S
Tb599 O634 2.421 1_556 S
Tb599 O638 2.546 1_556 S
Tb599 O639 2.610 . S
Tb599 O641 2.320 . S
Tb599 O642 2.552 1_556 S
Tb599 O643 2.413 . S
Tb599 C663 2.833 . S
N600 C592 1.360 . S
N600 Tb599 2.660 . S
N600 C601 1.305 . S
C601 N600 1.305 . S
C601 C603 1.407 . S
C601 H608 0.930 . S
C602 C590 1.410 . S
C602 C603 1.345 . S
C602 H610 0.930 . S
C603 C601 1.407 . S
C603 C602 1.345 . S
C603 H605 0.930 . S
H604 C597 0.930 . S
H605 C603 0.930 . S
H606 C594 0.930 . S
H607 C595 0.931 . S
H608 C601 0.930 . S
H609 C623 0.930 . S
H610 C602 0.930 . S
H611 C629 0.930 . S
H612 C620 0.930 . S
H613 C627 0.931 . S
H614 C591 0.929 . S
H615 C621 0.930 . S
H616 C654 0.930 . S
H617 C598 0.930 . S
H618 C653 0.929 . S
N619 Tb588 2.660 1_554 S
N619 C620 1.305 . S
N619 C624 1.360 . S
C620 H612 0.930 . S
C620 N619 1.305 . S
C620 C623 1.407 . S
C621 H615 0.930 . S
C621 C622 1.410 . S
C621 C623 1.345 . S
C622 C621 1.410 . S
C622 C624 1.417 . S
C622 C654 1.432 . S
C623 H609 0.930 . S
C623 C620 1.407 . S
C623 C621 1.345 . S
C624 N619 1.360 . S
C624 C622 1.417 . S
C624 C628 1.432 1_554 S
H625 C630 0.930 . S
N626 Tb588 2.600 . S
N626 C628 1.359 . S
N626 C629 1.327 . S
C627 H613 0.931 . S
C627 C629 1.392 . S
C627 C630 1.370 . S
C628 C624 1.432 1_556 S
C628 N626 1.359 . S
C628 C631 1.414 . S
C629 H611 0.930 . S
C629 N626 1.327 . S
C629 C627 1.392 . S
C630 H625 0.930 . S
C630 C627 1.370 . S
C630 C631 1.385 . S
C631 C628 1.414 . S
C631 C630 1.385 . S
C631 C653 1.444 . S
O632 Tb588 2.546 . S
O632 C652 1.251 . S
O633 Tb588 2.610 . S
O633 Tb599 2.362 . S
O633 C644 1.283 . S
O634 Tb599 2.421 1_554 S
O634 C651 1.262 . S
O635 Tb588 2.320 1_554 S
O635 C651 1.260 . S
O636 Tb588 2.552 . S
O636 C644 1.243 . S
O637 Tb588 2.420 . S
O637 C652 1.264 . S
O638 Tb599 2.546 1_554 S
O638 C663 1.251 1_554 S
O639 Tb588 2.362 . S
O639 Tb599 2.610 . S
O639 C655 1.283 . S
O640 Tb588 2.421 . S
O640 C662 1.262 . S
O641 Tb599 2.320 . S
O641 C662 1.260 . S
O642 Tb599 2.552 1_554 S
O642 C655 1.243 1_554 S
O643 Tb599 2.413 . S
O643 C663 1.256 . S
C644 O633 1.283 . S
C644 O636 1.243 . S
C645 C647 1.382 . S
C645 C649 1.393 . S
C645 C652 1.500 . S
C646 C647 1.400 . S
C646 C648 1.384 . S
C647 C645 1.382 . S
C647 C646 1.400 . S
C647 H664 0.930 1_556 S
C648 C646 1.384 . S
C648 C650 1.392 . S
C648 H665 0.931 . S
C649 C645 1.393 . S
C649 C650 1.401 . S
C649 H666 0.930 . S
C650 C648 1.392 . S
C650 C649 1.401 . S
C650 H667 0.930 . S
C651 O634 1.262 . S
C651 O635 1.260 . S
C652 Tb588 2.833 . S
C652 O632 1.251 . S
C652 O637 1.264 . S
C652 C645 1.500 . S
C653 H618 0.929 . S
C653 C631 1.444 . S
C653 C654 1.317 1_556 S
C654 H616 0.930 . S
C654 C622 1.432 . S
C654 C653 1.317 1_554 S
C655 O639 1.283 . S
C655 O642 1.243 1_556 S
C656 C657 1.382 . S
C656 C660 1.393 1_556 S
C656 C663 1.500 . S
C657 C656 1.382 . S
C657 C658 1.400 . S
C657 H668 0.930 . S
C658 C657 1.400 . S
C658 C659 1.384 . S
C659 C658 1.384 . S
C659 C661 1.392 1_556 S
C659 H669 0.931 . S
C660 C656 1.393 1_554 S
C660 C661 1.401 . S
C660 H670 0.930 . S
C661 C659 1.392 1_554 S
C661 C660 1.401 . S
C661 H671 0.930 . S
C662 O640 1.262 . S
C662 O641 1.260 . S
C663 Tb599 2.833 . S
C663 O638 1.251 1_556 S
C663 O643 1.256 . S
C663 C656 1.500 . S
H664 C647 0.930 1_554 S
H665 C648 0.931 . S
H666 C649 0.930 . S
H667 C650 0.930 . S
H668 C657 0.930 . S
H669 C659 0.931 . S
H670 C660 0.930 . S
H671 C661 0.930 . S
Tb672 N703 2.660 . S
Tb672 N710 2.600 . S
Tb672 O716 2.546 . S
Tb672 O717 2.610 . S
Tb672 O719 2.320 . S
Tb672 O720 2.552 . S
Tb672 O721 2.413 . S
Tb672 O723 2.362 . S
Tb672 O724 2.421 1_556 S
Tb672 C736 2.833 . S
C673 C676 1.432 1_556 S
C673 C677 1.414 . S
C673 N680 1.359 . S
C674 C676 1.417 . S
C674 C678 1.432 . S
C674 C686 1.410 . S
C675 C677 1.444 . S
C675 C678 1.317 1_556 S
C675 H698 0.929 . S
C676 C673 1.432 1_554 S
C676 C674 1.417 . S
C676 N684 1.360 . S
C677 C673 1.414 . S
C677 C675 1.444 . S
C677 C682 1.385 . S
C678 C674 1.432 . S
C678 C675 1.317 1_554 S
C678 H690 0.930 . S
C679 C681 1.392 . S
C679 C682 1.370 . S
C679 H691 0.931 . S
N680 C673 1.359 . S
N680 C681 1.327 . S
N680 Tb683 2.600 . S
C681 C679 1.392 . S
C681 N680 1.327 . S
C681 H688 0.930 . S
C682 C677 1.385 . S
C682 C679 1.370 . S
C682 H701 0.930 . S
Tb683 N680 2.600 . S
Tb683 N684 2.660 1_556 S
Tb683 O717 2.362 . S
Tb683 O718 2.421 . S
Tb683 O722 2.546 . S
Tb683 O723 2.610 . S
Tb683 O725 2.320 1_556 S
Tb683 O726 2.552 . S
Tb683 O727 2.413 1_556 S
Tb683 C747 2.833 . S
N684 C676 1.360 . S
N684 Tb683 2.660 1_554 S
N684 C685 1.305 . S
C685 N684 1.305 . S
C685 C687 1.407 . S
C685 H692 0.930 . S
C686 C674 1.410 . S
C686 C687 1.345 . S
C686 H694 0.930 . S
C687 C685 1.407 . S
C687 C686 1.345 . S
C687 H689 0.930 . S
H688 C681 0.930 . S
H689 C687 0.930 . S
H690 C678 0.930 . S
H691 C679 0.931 . S
H692 C685 0.930 . S
H693 C707 0.930 . S
H694 C686 0.930 . S
H695 C713 0.930 . S
H696 C704 0.930 . S
H697 C711 0.931 . S
H698 C675 0.929 . S
H699 C705 0.930 . S
H700 C738 0.930 . S
H701 C682 0.930 . S
H702 C737 0.929 . S
N703 Tb672 2.660 . S
N703 C704 1.305 . S
N703 C708 1.360 . S
C704 H696 0.930 . S
C704 N703 1.305 . S
C704 C707 1.407 . S
C705 H699 0.930 . S
C705 C706 1.410 . S
C705 C707 1.345 . S
C706 C705 1.410 . S
C706 C708 1.417 . S
C706 C738 1.432 . S
C707 H693 0.930 . S
C707 C704 1.407 . S
C707 C705 1.345 . S
C708 N703 1.360 . S
C708 C706 1.417 . S
C708 C712 1.432 . S
H709 C714 0.930 . S
N710 Tb672 2.600 . S
N710 C712 1.359 . S
N710 C713 1.327 1_556 S
C711 H697 0.931 . S
C711 C713 1.392 . S
C711 C714 1.370 . S
C712 C708 1.432 . S
C712 N710 1.359 . S
C712 C715 1.414 . S
C713 H695 0.930 . S
C713 N710 1.327 1_554 S
C713 C711 1.392 . S
C714 H709 0.930 . S
C714 C711 1.370 . S
C714 C715 1.385 1_554 S
C715 C712 1.414 . S
C715 C714 1.385 1_556 S
C715 C737 1.444 . S
O716 Tb672 2.546 . S
O716 C736 1.251 . S
O717 Tb672 2.610 . S
O717 Tb683 2.362 . S
O717 C728 1.283 . S
O718 Tb683 2.421 . S
O718 C735 1.262 . S
O719 Tb672 2.320 . S
O719 C735 1.260 . S
O720 Tb672 2.552 . S
O720 C728 1.243 . S
O721 Tb672 2.413 . S
O721 C736 1.256 . S
O722 Tb683 2.546 . S
O722 C747 1.251 . S
O723 Tb672 2.362 . S
O723 Tb683 2.610 . S
O723 C739 1.283 . S
O724 Tb672 2.421 1_554 S
O724 C746 1.262 . S
O725 Tb683 2.320 1_554 S
O725 C746 1.260 . S
O726 Tb683 2.552 . S
O726 C739 1.243 . S
O727 Tb683 2.413 1_554 S
O727 C747 1.256 1_554 S
C728 O717 1.283 . S
C728 O720 1.243 . S
C729 C731 1.382 . S
C729 C733 1.393 . S
C729 C736 1.500 . S
C730 C731 1.400 . S
C730 C732 1.384 . S
C731 C729 1.382 . S
C731 C730 1.400 . S
C731 H748 0.930 . S
C732 C730 1.384 . S
C732 C734 1.392 . S
C732 H749 0.931 . S
C733 C729 1.393 . S
C733 C734 1.401 . S
C733 H750 0.930 . S
C734 C732 1.392 . S
C734 C733 1.401 . S
C734 H751 0.930 . S
C735 O718 1.262 . S
C735 O719 1.260 . S
C736 Tb672 2.833 . S
C736 O716 1.251 . S
C736 O721 1.256 . S
C736 C729 1.500 . S
C737 H702 0.929 . S
C737 C715 1.444 . S
C737 C738 1.317 . S
C738 H700 0.930 . S
C738 C706 1.432 . S
C738 C737 1.317 . S
C739 O723 1.283 . S
C739 O726 1.243 . S
C740 C741 1.382 1_556 S
C740 C744 1.393 . S
C740 C747 1.500 . S
C741 C740 1.382 1_554 S
C741 C742 1.400 . S
C741 H752 0.930 . S
C742 C741 1.400 . S
C742 C743 1.384 . S
C743 C742 1.384 . S
C743 C745 1.392 1_554 S
C743 H753 0.931 . S
C744 C740 1.393 . S
C744 C745 1.401 . S
C744 H754 0.930 . S
C745 C743 1.392 1_556 S
C745 C744 1.401 . S
C745 H755 0.930 . S
C746 O724 1.262 . S
C746 O725 1.260 . S
C747 Tb683 2.833 . S
C747 O722 1.251 . S
C747 O727 1.256 1_556 S
C747 C740 1.500 . S
H748 C731 0.930 . S
H749 C732 0.931 . S
H750 C733 0.930 . S
H751 C734 0.930 . S
H752 C741 0.930 . S
H753 C743 0.931 . S
H754 C744 0.930 . S
H755 C745 0.930 . S
H756 C762 0.930 . S
H757 C766 0.930 . S
H758 C771 0.929 . S
H759 C769 0.929 . S
H760 C764 0.929 . S
H761 C770 0.929 . S
C762 H756 0.930 . S
C762 C763 1.367 . S
C762 C770 1.378 . S
C763 C762 1.367 . S
C763 C771 1.433 . S
C764 H760 0.929 . S
C764 C766 1.378 . S
C764 C768 1.350 . S
C765 C768 1.463 . S
C765 C770 1.350 . S
C765 N773 1.427 . S
C766 H757 0.930 . S
C766 C764 1.378 . S
C766 C767 1.367 . S
C767 C766 1.367 . S
C767 C769 1.433 1_554 S
C768 C764 1.350 . S
C768 C765 1.463 . S
C768 N772 1.427 . S
C769 H759 0.929 . S
C769 C767 1.433 1_556 S
C769 N772 1.384 1_556 S
C770 H761 0.929 . S
C770 C762 1.378 . S
C770 C765 1.350 . S
C771 H758 0.929 . S
C771 C763 1.433 . S
C771 N773 1.384 . S
N772 C768 1.427 . S
N772 C769 1.384 1_554 S
N773 C765 1.427 . S
N773 C771 1.384 . S
H774 C780 0.930 . S
H775 C784 0.930 . S
H776 C789 0.929 . S
H777 C787 0.929 . S
H778 C782 0.929 . S
H779 C788 0.929 1_556 S
C780 H774 0.930 . S
C780 C781 1.367 . S
C780 C788 1.378 . S
C781 C780 1.367 . S
C781 C789 1.433 . S
C782 H778 0.929 . S
C782 C784 1.378 . S
C782 C786 1.350 . S
C783 C786 1.463 . S
C783 C788 1.350 . S
C783 N791 1.427 . S
C784 H775 0.930 . S
C784 C782 1.378 . S
C784 C785 1.367 1_554 S
C785 C784 1.367 1_556 S
C785 C787 1.433 . S
C786 C782 1.350 . S
C786 C783 1.463 . S
C786 N790 1.427 1_554 S
C787 H777 0.929 . S
C787 C785 1.433 . S
C787 N790 1.384 . S
C788 H779 0.929 1_554 S
C788 C780 1.378 . S
C788 C783 1.350 . S
C789 H776 0.929 . S
C789 C781 1.433 . S
C789 N791 1.384 . S
N790 C786 1.427 1_556 S
N790 C787 1.384 . S
N791 C783 1.427 . S
N791 C789 1.384 . S
H792 C798 0.930 . S
H793 C802 0.930 . S
H794 C807 0.929 . S
H795 C805 0.929 . S
H796 C800 0.929 . S
H797 C806 0.929 . S
C798 H792 0.930 . S
C798 C799 1.367 . S
C798 C806 1.378 . S
C799 C798 1.367 . S
C799 C807 1.433 . S
C800 H796 0.929 . S
C800 C802 1.378 . S
C800 C804 1.350 . S
C801 C804 1.463 . S
C801 C806 1.350 . S
C801 N809 1.427 . S
C802 H793 0.930 . S
C802 C800 1.378 . S
C802 C803 1.367 . S
C803 C802 1.367 . S
C803 C805 1.433 . S
C804 C800 1.350 . S
C804 C801 1.463 . S
C804 N808 1.427 . S
C805 H795 0.929 . S
C805 C803 1.433 . S
C805 N808 1.384 . S
C806 H797 0.929 . S
C806 C798 1.378 . S
C806 C801 1.350 . S
C807 H794 0.929 . S
C807 C799 1.433 . S
C807 N809 1.384 . S
N808 C804 1.427 . S
N808 C805 1.384 . S
N809 C801 1.427 . S
N809 C807 1.384 . S
H810 C816 0.930 . S
H811 C820 0.930 . S
H812 C825 0.929 . S
H813 C823 0.929 . S
H814 C818 0.929 . S
H815 C824 0.929 . S
C816 H810 0.930 . S
C816 C817 1.367 . S
C816 C824 1.378 . S
C817 C816 1.367 . S
C817 C825 1.433 1_556 S
C818 H814 0.929 . S
C818 C820 1.378 . S
C818 C822 1.350 . S
C819 C822 1.463 . S
C819 C824 1.350 1_554 S
C819 N827 1.427 . S
C820 H811 0.930 . S
C820 C818 1.378 . S
C820 C821 1.367 . S
C821 C820 1.367 . S
C821 C823 1.433 1_554 S
C822 C818 1.350 . S
C822 C819 1.463 . S
C822 N826 1.427 1_554 S
C823 H813 0.929 . S
C823 C821 1.433 1_556 S
C823 N826 1.384 . S
C824 H815 0.929 . S
C824 C816 1.378 . S
C824 C819 1.350 1_556 S
C825 H812 0.929 . S
C825 C817 1.433 1_554 S
C825 N827 1.384 . S
N826 C822 1.427 1_556 S
N826 C823 1.384 . S
N827 C819 1.427 . S
N827 C825 1.384 . S
H828 C834 0.930 . S
H829 C838 0.930 1_455 S
H830 C843 0.929 . S
H831 C841 0.929 . S
H832 C836 0.929 . S
H833 C842 0.929 . S
C834 H828 0.930 . S
C834 C835 1.367 . S
C834 C842 1.378 . S
C835 C834 1.367 . S
C835 C843 1.433 . S
C836 H832 0.929 . S
C836 C838 1.378 . S
C836 C840 1.350 . S
C837 C840 1.463 . S
C837 C842 1.350 . S
C837 N845 1.427 . S
C838 H829 0.930 1_655 S
C838 C836 1.378 . S
C838 C839 1.363 1_655 S
C839 C838 1.363 1_455 S
C839 C841 1.424 1_455 S
C840 C836 1.350 . S
C840 C837 1.463 . S
C840 N844 1.427 . S
C841 H831 0.929 . S
C841 C839 1.424 1_655 S
C841 N844 1.384 . S
C842 H833 0.929 . S
C842 C834 1.378 . S
C842 C837 1.350 . S
C843 H830 0.929 . S
C843 C835 1.433 . S
C843 N845 1.384 . S
N844 C840 1.427 . S
N844 C841 1.384 . S
N845 C837 1.427 . S
N845 C843 1.384 . S
H846 C852 0.930 . S
H847 C856 0.930 . S
H848 C861 0.929 . S
H849 C859 0.929 . S
H850 C854 0.929 . S
H851 C860 0.929 . S
C852 H846 0.930 . S
C852 C853 1.367 . S
C852 C860 1.378 . S
C853 C852 1.367 . S
C853 C861 1.433 . S
C854 H850 0.929 . S
C854 C856 1.378 . S
C854 C858 1.350 . S
C855 C858 1.463 . S
C855 C860 1.350 . S
C855 N863 1.427 . S
C856 H847 0.930 . S
C856 C854 1.378 . S
C856 C857 1.367 . S
C857 C856 1.367 . S
C857 C859 1.433 . S
C858 C854 1.350 . S
C858 C855 1.463 . S
C858 N862 1.427 . S
C859 H849 0.929 . S
C859 C857 1.433 . S
C859 N862 1.384 . S
C860 H851 0.929 . S
C860 C852 1.378 . S
C860 C855 1.350 . S
C861 H848 0.929 . S
C861 C853 1.433 . S
C861 N863 1.384 . S
N862 C858 1.427 . S
N862 C859 1.384 . S
N863 C855 1.427 . S
N863 C861 1.384 . S
H864 C870 0.930 . S
H865 C874 0.930 . S
H866 C879 0.929 . S
H867 C877 0.929 . S
H868 C872 0.929 . S
H869 C878 0.929 . S
C870 H864 0.930 . S
C870 C871 1.367 . S
C870 C878 1.378 . S
C871 C870 1.367 . S
C871 C879 1.433 . S
C872 H868 0.929 . S
C872 C874 1.378 . S
C872 C876 1.350 . S
C873 C876 1.463 . S
C873 C878 1.350 . S
C873 N881 1.427 . S
C874 H865 0.930 . S
C874 C872 1.378 . S
C874 C875 1.367 . S
C875 C874 1.367 . S
C875 C877 1.433 . S
C876 C872 1.350 . S
C876 C873 1.463 . S
C876 N880 1.427 . S
C877 H867 0.929 . S
C877 C875 1.433 . S
C877 N880 1.384 . S
C878 H869 0.929 . S
C878 C870 1.378 . S
C878 C873 1.350 . S
C879 H866 0.929 . S
C879 C871 1.433 . S
C879 N881 1.384 . S
N880 C876 1.427 . S
N880 C877 1.384 . S
N881 C873 1.427 . S
N881 C879 1.384 . S
H882 C888 0.930 . S
H883 C892 0.930 . S
H884 C897 0.929 . S
H885 C895 0.929 . S
H886 C890 0.929 . S
H887 C896 0.929 . S
C888 H882 0.930 . S
C888 C889 1.367 . S
C888 C896 1.378 . S
C889 C888 1.367 . S
C889 C897 1.433 . S
C890 H886 0.929 . S
C890 C892 1.378 . S
C890 C894 1.350 . S
C891 C894 1.463 . S
C891 C896 1.350 . S
C891 N899 1.427 . S
C892 H883 0.930 . S
C892 C890 1.378 . S
C892 C893 1.367 . S
C893 C892 1.367 . S
C893 C895 1.433 . S
C894 C890 1.350 . S
C894 C891 1.463 . S
C894 N898 1.427 . S
C895 H885 0.929 . S
C895 C893 1.433 . S
C895 N898 1.384 . S
C896 H887 0.929 . S
C896 C888 1.378 . S
C896 C891 1.350 . S
C897 H884 0.929 . S
C897 C889 1.433 . S
C897 N899 1.384 . S
N898 C894 1.427 . S
N898 C895 1.384 . S
N899 C891 1.427 . S
N899 C897 1.384 . S
H900 C906 0.930 . S
H901 C910 0.930 . S
H902 C915 0.929 . S
H903 C913 0.929 . S
H904 C908 0.929 . S
H905 C914 0.900 1_565 S
C906 H900 0.930 . S
C906 C907 1.367 . S
C906 C914 1.378 . S
C907 C906 1.367 . S
C907 C915 1.433 . S
C908 H904 0.929 . S
C908 C910 1.378 . S
C908 C912 1.350 . S
C909 C912 1.463 . S
C909 C914 1.350 . S
C909 N917 1.427 . S
C910 H901 0.930 . S
C910 C908 1.378 . S
C910 C911 1.367 . S
C911 C910 1.367 . S
C911 C913 1.433 1_545 S
C912 C908 1.350 . S
C912 C909 1.463 . S
C912 N916 1.416 1_545 S
C913 H903 0.929 . S
C913 C911 1.433 1_565 S
C913 N916 1.390 . S
C914 H905 0.900 1_545 S
C914 C906 1.378 . S
C914 C909 1.350 . S
C915 H902 0.929 . S
C915 C907 1.433 . S
C915 N917 1.384 . S
N916 C912 1.416 1_565 S
N916 C913 1.390 . S
N917 C909 1.427 . S
N917 C915 1.384 . S
H918 C924 0.930 . S
H919 C928 0.930 . S
H920 C933 0.929 . S
H921 C931 0.929 . S
H922 C926 0.929 . S
H923 C932 0.929 . S
C924 H918 0.930 . S
C924 C925 1.367 . S
C924 C932 1.378 . S
C925 C924 1.367 . S
C925 C933 1.433 . S
C926 H922 0.929 . S
C926 C928 1.378 . S
C926 C930 1.350 . S
C927 C930 1.463 . S
C927 C932 1.350 . S
C927 N935 1.427 . S
C928 H919 0.930 . S
C928 C926 1.378 . S
C928 C929 1.367 . S
C929 C928 1.367 . S
C929 C931 1.433 . S
C930 C926 1.350 . S
C930 C927 1.463 . S
C930 N934 1.427 . S
C931 H921 0.929 . S
C931 C929 1.433 . S
C931 N934 1.384 . S
C932 H923 0.929 . S
C932 C924 1.378 . S
C932 C927 1.350 . S
C933 H920 0.929 . S
C933 C925 1.433 . S
C933 N935 1.384 . S
N934 C930 1.427 . S
N934 C931 1.384 . S
N935 C927 1.427 . S
N935 C933 1.384 . S
H936 C942 0.930 . S
H937 C946 0.930 . S
H938 C951 0.929 . S
H939 C949 0.929 . S
H940 C944 0.929 . S
H941 C950 0.929 . S
C942 H936 0.930 . S
C942 C943 1.367 . S
C942 C950 1.378 . S
C943 C942 1.367 . S
C943 C951 1.433 . S
C944 H940 0.929 . S
C944 C946 1.378 . S
C944 C948 1.350 . S
C945 C948 1.463 1_565 S
C945 C950 1.350 . S
C945 N953 1.427 . S
C946 H937 0.930 . S
C946 C944 1.378 . S
C946 C947 1.367 . S
C947 C946 1.367 . S
C947 C949 1.433 . S
C948 C944 1.350 . S
C948 C945 1.463 1_545 S
C948 N952 1.427 . S
C949 H939 0.929 . S
C949 C947 1.433 . S
C949 N952 1.384 . S
C950 H941 0.929 . S
C950 C942 1.378 . S
C950 C945 1.350 . S
C951 H938 0.929 . S
C951 C943 1.433 . S
C951 N953 1.384 . S
N952 C948 1.427 . S
N952 C949 1.384 . S
N953 C945 1.427 . S
N953 C951 1.384 . S
H954 C960 0.930 . S
H955 C964 0.932 1_556 S
H956 C969 0.929 . S
H957 C967 0.929 . S
H958 C962 0.929 1_556 S
H959 C968 0.929 . S
C960 H954 0.930 . S
C960 C961 1.367 1_455 S
C960 C968 1.378 . S
C961 C960 1.367 1_655 S
C961 C969 1.433 . S
C962 H958 0.929 1_554 S
C962 C964 1.377 . S
C962 C966 1.350 . S
C963 C966 1.463 . S
C963 C968 1.350 . S
C963 N971 1.427 . S
C964 H955 0.932 1_554 S
C964 C962 1.377 . S
C964 C965 1.366 . S
C965 C964 1.366 . S
C965 C967 1.433 . S
C966 C962 1.350 . S
C966 C963 1.463 . S
C966 N970 1.427 . S
C967 H957 0.929 . S
C967 C965 1.433 . S
C967 N970 1.384 . S
C968 H959 0.929 . S
C968 C960 1.378 . S
C968 C963 1.350 . S
C969 H956 0.929 . S
C969 C961 1.433 . S
C969 N971 1.384 1_655 S
N970 C966 1.427 . S
N970 C967 1.384 . S
N971 C963 1.427 . S
N971 C969 1.384 1_455 S
H972 C978 0.930 . S
H973 C982 0.930 1_556 S
H974 C987 0.929 . S
H975 C985 0.929 . S
H976 C980 0.929 . S
H977 C986 0.929 . S
C978 H972 0.930 . S
C978 C979 1.367 1_554 S
C978 C986 1.378 . S
C979 C978 1.367 1_556 S
C979 C987 1.433 . S
C980 H976 0.929 . S
C980 C982 1.378 1_556 S
C980 C984 1.350 1_556 S
C981 C984 1.463 . S
C981 C986 1.350 . S
C981 N989 1.427 1_554 S
C982 H973 0.930 1_554 S
C982 C980 1.378 1_554 S
C982 C983 1.367 . S
C983 C982 1.367 . S
C983 C985 1.433 . S
C984 C980 1.350 1_554 S
C984 C981 1.463 . S
C984 N988 1.427 . S
C985 H975 0.929 . S
C985 C983 1.433 . S
C985 N988 1.384 . S
C986 H977 0.929 . S
C986 C978 1.378 . S
C986 C981 1.350 . S
C987 H974 0.929 . S
C987 C979 1.433 . S
C987 N989 1.384 . S
N988 C984 1.427 . S
N988 C985 1.384 . S
N989 C981 1.427 1_556 S
N989 C987 1.384 . S
H990 C996 0.930 . S
H991 C1000 0.930 . S
H992 C1005 0.929 . S
H993 C1003 0.929 1_554 S
H994 C998 0.929 . S
H995 C1004 0.929 . S
C996 H990 0.930 . S
C996 C997 1.367 . S
C996 C1004 1.378 . S
C997 C996 1.367 . S
C997 C1005 1.433 1_554 S
C998 H994 0.929 . S
C998 C1000 1.378 . S
C998 C1002 1.350 . S
C999 C1002 1.463 . S
C999 C1004 1.350 1_556 S
C999 N1007 1.427 . S
C1000 H991 0.930 . S
C1000 C998 1.378 . S
C1000 C1001 1.367 . S
C1001 C1000 1.367 . S
C1001 C1003 1.433 . S
C1002 C998 1.350 . S
C1002 C999 1.463 . S
C1002 N1006 1.435 . S
C1003 H993 0.929 1_556 S
C1003 C1001 1.433 . S
C1003 N1006 1.383 . S
C1004 H995 0.929 . S
C1004 C996 1.378 . S
C1004 C999 1.350 1_554 S
C1005 H992 0.929 . S
C1005 C997 1.433 1_556 S
C1005 N1007 1.384 . S
N1006 C1002 1.435 . S
N1006 C1003 1.383 . S
N1007 C999 1.427 . S
N1007 C1005 1.384 . S
H1008 C1014 0.930 . S
H1009 C1018 0.930 . S
H1010 C1023 0.929 . S
H1011 C1021 0.929 1_554 S
H1012 C1016 0.929 . S
H1013 C1022 0.929 . S
C1014 H1008 0.930 . S
C1014 C1015 1.367 1_554 S
C1014 C1022 1.378 . S
C1015 C1014 1.367 1_556 S
C1015 C1023 1.433 . S
C1016 H1012 0.929 . S
C1016 C1018 1.378 . S
C1016 C1020 1.350 . S
C1017 C1020 1.463 . S
C1017 C1022 1.350 1_556 S
C1017 N1025 1.427 . S
C1018 H1009 0.930 . S
C1018 C1016 1.378 . S
C1018 C1019 1.367 . S
C1019 C1018 1.367 . S
C1019 C1021 1.433 . S
C1020 C1016 1.350 . S
C1020 C1017 1.463 . S
C1020 N1024 1.427 . S
C1021 H1011 0.929 1_556 S
C1021 C1019 1.433 . S
C1021 N1024 1.384 . S
C1022 H1013 0.929 . S
C1022 C1014 1.378 . S
C1022 C1017 1.350 1_554 S
C1023 H1010 0.929 . S
C1023 C1015 1.433 . S
C1023 N1025 1.384 . S
N1024 C1020 1.427 . S
N1024 C1021 1.384 . S
N1025 C1017 1.427 . S
N1025 C1023 1.384 . S
H1026 C1032 0.930 . S
H1027 C1036 0.930 . S
H1028 C1041 0.929 . S
H1029 C1039 0.929 1_554 S
H1030 C1034 0.929 . S
H1031 C1040 0.929 . S
C1032 H1026 0.930 . S
C1032 C1033 1.367 . S
C1032 C1040 1.378 . S
C1033 C1032 1.367 . S
C1033 C1041 1.433 1_554 S
C1034 H1030 0.929 . S
C1034 C1036 1.378 . S
C1034 C1038 1.350 . S
C1035 C1038 1.463 1_554 S
C1035 C1040 1.350 . S
C1035 N1043 1.427 1_554 S
C1036 H1027 0.930 . S
C1036 C1034 1.378 . S
C1036 C1037 1.367 . S
C1037 C1036 1.367 . S
C1037 C1039 1.433 . S
C1038 C1034 1.350 . S
C1038 C1035 1.463 1_556 S
C1038 N1042 1.427 1_556 S
C1039 H1029 0.929 1_556 S
C1039 C1037 1.433 . S
C1039 N1042 1.384 1_556 S
C1040 H1031 0.929 . S
C1040 C1032 1.378 . S
C1040 C1035 1.350 . S
C1041 H1028 0.929 . S
C1041 C1033 1.433 1_556 S
C1041 N1043 1.384 . S
N1042 C1038 1.427 1_554 S
N1042 C1039 1.384 1_554 S
N1043 C1035 1.427 1_556 S
N1043 C1041 1.384 . S
H1044 C1050 0.930 . S
H1045 C1054 0.930 . S
H1046 C1059 0.929 . S
H1047 C1057 0.929 . S
H1048 C1052 0.929 . S
H1049 C1058 0.929 . S
C1050 H1044 0.930 . S
C1050 C1051 1.367 . S
C1050 C1058 1.378 . S
C1051 C1050 1.367 . S
C1051 C1059 1.433 . S
C1052 H1048 0.929 . S
C1052 C1054 1.378 . S
C1052 C1056 1.350 . S
C1053 C1056 1.463 . S
C1053 C1058 1.350 . S
C1053 N1061 1.427 . S
C1054 H1045 0.930 . S
C1054 C1052 1.378 . S
C1054 C1055 1.367 . S
C1055 C1054 1.367 . S
C1055 C1057 1.433 . S
C1056 C1052 1.350 . S
C1056 C1053 1.463 . S
C1056 N1060 1.427 . S
C1057 H1047 0.929 . S
C1057 C1055 1.433 . S
C1057 N1060 1.384 . S
C1058 H1049 0.929 . S
C1058 C1050 1.378 . S
C1058 C1053 1.350 . S
C1059 H1046 0.929 . S
C1059 C1051 1.433 . S
C1059 N1061 1.384 . S
N1060 C1056 1.427 . S
N1060 C1057 1.384 . S
N1061 C1053 1.427 . S
N1061 C1059 1.384 . S
H1062 C1068 0.930 . S
H1063 C1072 0.930 1_554 S
H1064 C1077 0.929 . S
H1065 C1075 0.929 . S
H1066 C1070 0.929 . S
H1067 C1076 0.929 . S
C1068 H1062 0.930 . S
C1068 C1069 1.367 . S
C1068 C1076 1.378 . S
C1069 C1068 1.367 . S
C1069 C1077 1.433 . S
C1070 H1066 0.929 . S
C1070 C1072 1.378 . S
C1070 C1074 1.350 . S
C1071 C1074 1.463 . S
C1071 C1076 1.350 . S
C1071 N1079 1.427 . S
C1072 H1063 0.930 1_556 S
C1072 C1070 1.378 . S
C1072 C1073 1.367 . S
C1073 C1072 1.367 . S
C1073 C1075 1.433 . S
C1074 C1070 1.350 . S
C1074 C1071 1.463 . S
C1074 N1078 1.427 . S
C1075 H1065 0.929 . S
C1075 C1073 1.433 . S
C1075 N1078 1.384 . S
C1076 H1067 0.929 . S
C1076 C1068 1.378 . S
C1076 C1071 1.350 . S
C1077 H1064 0.929 . S
C1077 C1069 1.433 . S
C1077 N1079 1.384 . S
N1078 C1074 1.427 . S
N1078 C1075 1.384 . S
N1079 C1071 1.427 . S
N1079 C1077 1.384 . S
H1080 C1086 0.930 . S
H1081 C1090 0.930 . S
H1082 C1095 0.929 . S
H1083 C1093 0.929 . S
H1084 C1088 0.929 . S
H1085 C1094 0.929 . S
C1086 H1080 0.930 . S
C1086 C1087 1.367 . S
C1086 C1094 1.378 . S
C1087 C1086 1.367 . S
C1087 C1095 1.433 . S
C1088 H1084 0.929 . S
C1088 C1090 1.378 . S
C1088 C1092 1.350 . S
C1089 C1092 1.463 . S
C1089 C1094 1.350 . S
C1089 N1097 1.427 . S
C1090 H1081 0.930 . S
C1090 C1088 1.378 . S
C1090 C1091 1.367 . S
C1091 C1090 1.367 . S
C1091 C1093 1.433 . S
C1092 C1088 1.350 . S
C1092 C1089 1.463 . S
C1092 N1096 1.427 . S
C1093 H1083 0.929 . S
C1093 C1091 1.433 . S
C1093 N1096 1.384 . S
C1094 H1085 0.929 . S
C1094 C1086 1.378 . S
C1094 C1089 1.350 . S
C1095 H1082 0.929 . S
C1095 C1087 1.433 . S
C1095 N1097 1.384 . S
N1096 C1092 1.427 . S
N1096 C1093 1.384 . S
N1097 C1089 1.427 . S
N1097 C1095 1.384 . S
H1098 C1104 0.930 . S
H1099 C1108 0.930 . S
H1100 C1113 0.929 . S
H1101 C1111 0.929 . S
H1102 C1106 0.929 . S
H1103 C1112 0.929 . S
C1104 H1098 0.930 . S
C1104 C1105 1.367 . S
C1104 C1112 1.378 . S
C1105 C1104 1.367 . S
C1105 C1113 1.433 . S
C1106 H1102 0.929 . S
C1106 C1108 1.378 . S
C1106 C1110 1.350 . S
C1107 C1110 1.463 . S
C1107 C1112 1.350 . S
C1107 N1115 1.427 . S
C1108 H1099 0.930 . S
C1108 C1106 1.378 . S
C1108 C1109 1.367 . S
C1109 C1108 1.367 . S
C1109 C1111 1.433 . S
C1110 C1106 1.350 . S
C1110 C1107 1.463 . S
C1110 N1114 1.427 . S
C1111 H1101 0.929 . S
C1111 C1109 1.433 . S
C1111 N1114 1.384 . S
C1112 H1103 0.929 . S
C1112 C1104 1.378 . S
C1112 C1107 1.350 . S
C1113 H1100 0.929 . S
C1113 C1105 1.433 . S
C1113 N1115 1.384 . S
N1114 C1110 1.427 . S
N1114 C1111 1.384 . S
N1115 C1107 1.427 . S
N1115 C1113 1.384 . S
H1116 C1122 0.930 . S
H1117 C1126 0.930 . S
H1118 C1131 0.929 . S
H1119 C1129 0.929 1_565 S
H1120 C1124 0.929 . S
H1121 C1130 0.929 . S
C1122 H1116 0.930 . S
C1122 C1123 1.368 1_565 S
C1122 C1130 1.378 . S
C1123 C1122 1.368 1_545 S
C1123 C1131 1.433 . S
C1124 H1120 0.929 . S
C1124 C1126 1.378 . S
C1124 C1128 1.350 . S
C1125 C1128 1.463 . S
C1125 C1130 1.350 1_545 S
C1125 N1133 1.427 . S
C1126 H1117 0.930 . S
C1126 C1124 1.378 . S
C1126 C1127 1.367 . S
C1127 C1126 1.367 . S
C1127 C1129 1.433 . S
C1128 C1124 1.350 . S
C1128 C1125 1.463 . S
C1128 N1132 1.415 . S
C1129 H1119 0.929 1_545 S
C1129 C1127 1.433 . S
C1129 N1132 1.397 . S
C1130 H1121 0.929 . S
C1130 C1122 1.378 . S
C1130 C1125 1.350 1_565 S
C1131 H1118 0.929 . S
C1131 C1123 1.433 . S
C1131 N1133 1.384 . S
N1132 C1128 1.415 . S
N1132 C1129 1.397 . S
N1133 C1125 1.427 . S
N1133 C1131 1.384 . S
H1134 C1140 0.930 . S
H1135 C1144 0.930 . S
H1136 C1149 0.929 . S
H1137 C1147 0.929 . S
H1138 C1142 0.929 . S
H1139 C1148 0.929 . S
C1140 H1134 0.930 . S
C1140 C1141 1.367 . S
C1140 C1148 1.378 . S
C1141 C1140 1.367 . S
C1141 C1149 1.433 . S
C1142 H1138 0.929 . S
C1142 C1144 1.378 . S
C1142 C1146 1.350 . S
C1143 C1146 1.463 . S
C1143 C1148 1.350 . S
C1143 N1151 1.427 . S
C1144 H1135 0.930 . S
C1144 C1142 1.378 . S
C1144 C1145 1.367 . S
C1145 C1144 1.367 . S
C1145 C1147 1.433 . S
C1146 C1142 1.350 . S
C1146 C1143 1.463 . S
C1146 N1150 1.427 . S
C1147 H1137 0.929 . S
C1147 C1145 1.433 . S
C1147 N1150 1.384 . S
C1148 H1139 0.929 . S
C1148 C1140 1.378 . S
C1148 C1143 1.350 . S
C1149 H1136 0.929 . S
C1149 C1141 1.433 . S
C1149 N1151 1.384 . S
N1150 C1146 1.427 . S
N1150 C1147 1.384 . S
N1151 C1143 1.427 . S
N1151 C1149 1.384 . S
H1152 C1158 0.930 . S
H1153 C1162 0.930 . S
H1154 C1167 0.929 . S
H1155 C1165 0.929 . S
H1156 C1160 0.929 . S
H1157 C1166 0.929 . S
C1158 H1152 0.930 . S
C1158 C1159 1.367 . S
C1158 C1166 1.378 . S
C1159 C1158 1.367 . S
C1159 C1167 1.433 . S
C1160 H1156 0.929 . S
C1160 C1162 1.378 . S
C1160 C1164 1.350 . S
C1161 C1164 1.463 . S
C1161 C1166 1.350 . S
C1161 N1169 1.427 . S
C1162 H1153 0.930 . S
C1162 C1160 1.378 . S
C1162 C1163 1.367 . S
C1163 C1162 1.367 . S
C1163 C1165 1.433 . S
C1164 C1160 1.350 . S
C1164 C1161 1.463 . S
C1164 N1168 1.427 . S
C1165 H1155 0.929 . S
C1165 C1163 1.433 . S
C1165 N1168 1.384 . S
C1166 H1157 0.929 . S
C1166 C1158 1.378 . S
C1166 C1161 1.350 . S
C1167 H1154 0.929 . S
C1167 C1159 1.433 . S
C1167 N1169 1.384 . S
N1168 C1164 1.427 . S
N1168 C1165 1.384 . S
N1169 C1161 1.427 . S
N1169 C1167 1.384 . S
H1170 C1176 0.930 . S
H1171 C1180 0.930 . S
H1172 C1185 0.929 . S
H1173 C1183 0.929 . S
H1174 C1178 0.929 . S
H1175 C1184 0.929 . S
C1176 H1170 0.930 . S
C1176 C1177 1.367 . S
C1176 C1184 1.378 . S
C1177 C1176 1.367 . S
C1177 C1185 1.433 . S
C1178 H1174 0.929 . S
C1178 C1180 1.378 . S
C1178 C1182 1.350 . S
C1179 C1182 1.463 . S
C1179 C1184 1.350 . S
C1179 N1187 1.427 . S
C1180 H1171 0.930 . S
C1180 C1178 1.378 . S
C1180 C1181 1.367 . S
C1181 C1180 1.367 . S
C1181 C1183 1.433 . S
C1182 C1178 1.350 . S
C1182 C1179 1.463 . S
C1182 N1186 1.427 . S
C1183 H1173 0.929 . S
C1183 C1181 1.433 . S
C1183 N1186 1.384 . S
C1184 H1175 0.929 . S
C1184 C1176 1.378 . S
C1184 C1179 1.350 . S
C1185 H1172 0.929 . S
C1185 C1177 1.433 . S
C1185 N1187 1.384 . S
N1186 C1182 1.427 . S
N1186 C1183 1.384 . S
N1187 C1179 1.427 . S
N1187 C1185 1.384 . S
H1188 C1194 0.930 . S
H1189 C1198 0.930 . S
H1190 C1203 0.929 . S
H1191 C1201 0.929 . S
H1192 C1196 0.929 . S
H1193 C1202 0.929 . S
C1194 H1188 0.930 . S
C1194 C1195 1.367 . S
C1194 C1202 1.378 . S
C1195 C1194 1.367 . S
C1195 C1203 1.433 . S
C1196 H1192 0.929 . S
C1196 C1198 1.378 . S
C1196 C1200 1.350 . S
C1197 C1200 1.463 . S
C1197 C1202 1.350 . S
C1197 N1205 1.427 . S
C1198 H1189 0.930 . S
C1198 C1196 1.378 . S
C1198 C1199 1.367 . S
C1199 C1198 1.367 . S
C1199 C1201 1.433 . S
C1200 C1196 1.350 . S
C1200 C1197 1.463 . S
C1200 N1204 1.427 . S
C1201 H1191 0.929 . S
C1201 C1199 1.433 . S
C1201 N1204 1.384 . S
C1202 H1193 0.929 . S
C1202 C1194 1.378 . S
C1202 C1197 1.350 . S
C1203 H1190 0.929 . S
C1203 C1195 1.433 . S
C1203 N1205 1.384 . S
N1204 C1200 1.427 . S
N1204 C1201 1.384 . S
N1205 C1197 1.427 . S
N1205 C1203 1.384 . S
H1206 C1212 0.930 . S
H1207 C1216 0.930 . S
H1208 C1221 0.929 . S
H1209 C1219 0.929 . S
H1210 C1214 0.929 . S
H1211 C1220 0.929 . S
C1212 H1206 0.930 . S
C1212 C1213 1.367 . S
C1212 C1220 1.378 . S
C1213 C1212 1.367 . S
C1213 C1221 1.433 . S
C1214 H1210 0.929 . S
C1214 C1216 1.378 . S
C1214 C1218 1.350 . S
C1215 C1218 1.463 . S
C1215 C1220 1.350 . S
C1215 N1223 1.427 . S
C1216 H1207 0.930 . S
C1216 C1214 1.378 . S
C1216 C1217 1.367 . S
C1217 C1216 1.367 . S
C1217 C1219 1.433 . S
C1218 C1214 1.350 . S
C1218 C1215 1.463 . S
C1218 N1222 1.427 . S
C1219 H1209 0.929 . S
C1219 C1217 1.433 . S
C1219 N1222 1.384 . S
C1220 H1211 0.929 . S
C1220 C1212 1.378 . S
C1220 C1215 1.350 . S
C1221 H1208 0.929 . S
C1221 C1213 1.433 . S
C1221 N1223 1.384 . S
N1222 C1218 1.427 . S
N1222 C1219 1.384 . S
N1223 C1215 1.427 . S
N1223 C1221 1.384 . S
H1224 C1230 0.930 . S
H1225 C1234 0.930 . S
H1226 C1239 0.929 . S
H1227 C1237 0.929 . S
H1228 C1232 0.929 . S
H1229 C1238 0.929 . S
C1230 H1224 0.930 . S
C1230 C1231 1.367 . S
C1230 C1238 1.378 . S
C1231 C1230 1.367 . S
C1231 C1239 1.433 . S
C1232 H1228 0.929 . S
C1232 C1234 1.378 . S
C1232 C1236 1.350 . S
C1233 C1236 1.463 . S
C1233 C1238 1.350 . S
C1233 N1241 1.427 . S
C1234 H1225 0.930 . S
C1234 C1232 1.378 . S
C1234 C1235 1.367 . S
C1235 C1234 1.367 . S
C1235 C1237 1.433 . S
C1236 C1232 1.350 . S
C1236 C1233 1.463 . S
C1236 N1240 1.427 . S
C1237 H1227 0.929 . S
C1237 C1235 1.433 . S
C1237 N1240 1.384 . S
C1238 H1229 0.929 . S
C1238 C1230 1.378 . S
C1238 C1233 1.350 . S
C1239 H1226 0.929 . S
C1239 C1231 1.433 . S
C1239 N1241 1.384 . S
N1240 C1236 1.427 . S
N1240 C1237 1.384 . S
N1241 C1233 1.427 . S
N1241 C1239 1.384 . S
C763 C58 1.228 . S
C767 C646 1.322 1_554 S
C781 C140 2.195 . S
C785 C728 2.097 . S
C799 C226 1.322 . S
C803 C560 1.480 . S
C817 C392 2.271 . S
C821 C224 2.321 . S
C835 C476 2.248 . S
C839 C56 2.213 . S
C853 C142 2.004 . S
C857 C308 2.157 . S
C871 C644 1.555 . S
C875 C478 1.547 . S
C889 C730 1.552 . S
C893 C310 1.649 . S
C907 C394 2.210 . S
C911 C562 2.337 1_545 S
C925 C238 1.401 . S
C929 C67 1.664 . S
C943 C154 1.095 . S
C947 C70 1.232 . S
C961 C151 2.946 . S
C965 C235 3.092 . S
C979 C322 1.654 1_556 S
C983 C487 2.107 . S
C997 C319 2.080 . S
C1001 C406 1.786 . S
C1015 C403 2.041 1_556 S
C1019 C490 1.541 . S
C1033 C742 1.801 . S
C1037 C571 2.316 . S
C1051 C658 0.753 . S
C1055 C574 0.793 . S
C1069 C739 2.056 . S
C1073 C655 1.951 . S
C1087 C63 1.286 1_556 S
C1091 C74 1.286 . S
C1105 C158 1.248 1_556 S
C1109 C147 1.248 . S
C1123 C231 1.290 1_545 S
C1127 C242 1.291 . S
C1141 C315 1.345 . S
C1145 C326 1.345 . S
C1159 C399 1.243 . S
C1163 C410 1.243 . S
C1177 C483 1.327 . S
C1181 C494 1.327 . S
C1195 C567 1.289 . S
C1199 C578 1.289 1_554 S
C1213 C651 1.259 . S
C1217 C662 1.259 . S
C1231 C735 1.266 . S
C1235 C746 1.266 . S
