# Generated by pormake.
# Topology umy, (4)-cn, num edge types: 1
# Building blocks:
#     Node 0, Type 0, BuildingBlock: QUQFOY_clean_sbu_3, # of connection points: 4
#     Node 1, Type 0, BuildingBlock: QUQFOY_clean_sbu_3, # of connection points: 4
#     Node 2, Type 0, BuildingBlock: QUQFOY_clean_sbu_3, # of connection points: 4
#     Node 3, Type 0, BuildingBlock: QUQFOY_clean_sbu_3, # of connection points: 4
#     Node 4, Type 0, BuildingBlock: QUQFOY_clean_sbu_3, # of connection points: 4
#     Node 5, Type 0, BuildingBlock: QUQFOY_clean_sbu_3, # of connection points: 4
#     Node 6, Type 0, BuildingBlock: QUQFOY_clean_sbu_3, # of connection points: 4
#     Node 7, Type 0, BuildingBlock: QUQFOY_clean_sbu_3, # of connection points: 4
#     Node 8, Type 0, BuildingBlock: QUQFOY_clean_sbu_3, # of connection points: 4
#     Node 9, Type 0, BuildingBlock: QUQFOY_clean_sbu_3, # of connection points: 4
#     Node 10, Type 0, BuildingBlock: QUQFOY_clean_sbu_3, # of connection points: 4
#     Node 11, Type 0, BuildingBlock: QUQFOY_clean_sbu_3, # of connection points: 4
#     Edge 12, Type (0, 0), BuildingBlock: OJICUG_clean_linker_0, # of connection points: 2
#     Edge 13, Type (0, 0), BuildingBlock: OJICUG_clean_linker_0, # of connection points: 2
#     Edge 14, Type (0, 0), BuildingBlock: OJICUG_clean_linker_0, # of connection points: 2
#     Edge 15, Type (0, 0), BuildingBlock: OJICUG_clean_linker_0, # of connection points: 2
#     Edge 16, Type (0, 0), BuildingBlock: OJICUG_clean_linker_0, # of connection points: 2
#     Edge 17, Type (0, 0), BuildingBlock: OJICUG_clean_linker_0, # of connection points: 2
#     Edge 18, Type (0, 0), BuildingBlock: OJICUG_clean_linker_0, # of connection points: 2
#     Edge 19, Type (0, 0), BuildingBlock: OJICUG_clean_linker_0, # of connection points: 2
#     Edge 20, Type (0, 0), BuildingBlock: OJICUG_clean_linker_0, # of connection points: 2
#     Edge 21, Type (0, 0), BuildingBlock: OJICUG_clean_linker_0, # of connection points: 2
#     Edge 22, Type (0, 0), BuildingBlock: OJICUG_clean_linker_0, # of connection points: 2
#     Edge 23, Type (0, 0), BuildingBlock: OJICUG_clean_linker_0, # of connection points: 2
#     Edge 24, Type (0, 0), BuildingBlock: OJICUG_clean_linker_0, # of connection points: 2
#     Edge 25, Type (0, 0), BuildingBlock: OJICUG_clean_linker_0, # of connection points: 2
#     Edge 26, Type (0, 0), BuildingBlock: OJICUG_clean_linker_0, # of connection points: 2
#     Edge 27, Type (0, 0), BuildingBlock: OJICUG_clean_linker_0, # of connection points: 2
#     Edge 28, Type (0, 0), BuildingBlock: OJICUG_clean_linker_0, # of connection points: 2
#     Edge 29, Type (0, 0), BuildingBlock: OJICUG_clean_linker_0, # of connection points: 2
#     Edge 30, Type (0, 0), BuildingBlock: OJICUG_clean_linker_0, # of connection points: 2
#     Edge 31, Type (0, 0), BuildingBlock: OJICUG_clean_linker_0, # of connection points: 2
#     Edge 32, Type (0, 0), BuildingBlock: OJICUG_clean_linker_0, # of connection points: 2
#     Edge 33, Type (0, 0), BuildingBlock: OJICUG_clean_linker_0, # of connection points: 2
#     Edge 34, Type (0, 0), BuildingBlock: OJICUG_clean_linker_0, # of connection points: 2
#     Edge 35, Type (0, 0), BuildingBlock: OJICUG_clean_linker_0, # of connection points: 2
# Relax obj value: 0.101
# Max RMSD: 0.074
# Mean RMSD: 0.074
data_MOF--net-umy--node1-QUQFOY_clean_sbu_3--edge1-OJICUG_clean_linker_0
_symmetry_space_group_name_H-M    P1
_symmetry_Int_Tables_number       1
_symmetry_cell_setting            triclinic
loop_
_symmetry_equiv_pos_as_xyz
'x, y, z'
_cell_length_a     29.628288
_cell_length_b     29.406049
_cell_length_c     38.665261
_cell_angle_alpha  89.877865
_cell_angle_beta   90.162781
_cell_angle_gamma 120.42429
loop_
_atom_site_label
_atom_site_type_symbol
_atom_site_fract_x
_atom_site_fract_y
_atom_site_fract_z
_atom_type_partial_charge
C0 C 0.9485 0.2228 0.12901 0.0
O1 O 0.96322 0.19274 0.11615 0.0
Cd2 Cd 0.05237 0.22608 0.10222 0.0
O3 O -0.01997 0.27232 0.13117 0.0
Cd4 Cd 0.06952 0.33999 0.11418 0.0
C5 C 0.10557 0.29106 0.17984 0.0
O6 O 0.0701 0.29557 0.06239 0.0
O7 O 0.1452 0.36028 0.07815 0.0
O8 O 0.02545 0.38538 0.09466 0.0
C9 C 0.1178 0.32658 0.05529 0.0
O10 O 0.09156 0.25131 0.16024 0.0
C11 C 0.06287 0.43095 0.10232 0.0
O12 O 0.1026 0.33057 0.16954 0.0
O13 O 0.10262 0.43397 0.11713 0.0
C14 C 0.70066 0.95964 0.29338 0.0
O15 O 0.74851 0.97985 0.2851 0.0
Cd16 Cd 0.80278 0.06913 0.26763 0.0
O17 O 0.67765 0.98617 0.29101 0.0
Cd18 Cd 0.69948 0.07465 0.27186 0.0
C19 C 0.78061 0.12176 0.34012 0.0
O20 O 0.75173 0.07865 0.22364 0.0
O21 O 0.75957 0.15301 0.23787 0.0
O22 O 0.61196 0.03134 0.24799 0.0
C23 C 0.76934 0.12663 0.21638 0.0
O24 O 0.81413 0.11807 0.32163 0.0
C25 C 0.60391 0.06845 0.25612 0.0
O26 O 0.73453 0.10571 0.32911 0.0
O27 O 0.6397 0.10728 0.27269 0.0
C28 C 0.73577 0.71969 0.45045 0.0
O29 O 0.7632 0.76573 0.43794 0.0
Cd30 Cd 0.72689 0.81931 0.42462 0.0
O31 O 0.68624 0.69816 0.45285 0.0
Cd32 Cd 0.61471 0.71399 0.43738 0.0
C33 C 0.66151 0.80259 0.50227 0.0
O34 O 0.65589 0.76411 0.38742 0.0
O35 O 0.58874 0.76861 0.40353 0.0
O36 O 0.56777 0.63032 0.40839 0.0
C37 C 0.62447 0.78027 0.3813 0.0
O38 O 0.70053 0.83071 0.48273 0.0
C39 C 0.52782 0.61217 0.42771 0.0
O40 O 0.62401 0.75836 0.49206 0.0
O41 O 0.52841 0.6413 0.45213 0.0
C42 C 0.01709 0.76765 0.61136 0.0
O43 O -0.00092 0.79592 0.60011 0.0
Cd44 Cd 0.90858 0.75702 0.58641 0.0
O45 O -0.01163 0.71767 0.61233 0.0
Cd46 Cd 0.90103 0.64612 0.59645 0.0
C47 C 0.85726 0.68758 0.66245 0.0
O48 O 0.89142 0.68777 0.54652 0.0
O49 O 0.82031 0.61884 0.56359 0.0
O50 O 0.93633 0.59933 0.56651 0.0
C51 C 0.84371 0.65453 0.54093 0.0
O52 O 0.86879 0.72789 0.6439 0.0
C53 C 0.91489 0.55934 0.58618 0.0
O54 O 0.86446 0.6511 0.65131 0.0
O55 O 0.88733 0.55996 0.61106 0.0
C56 C 0.24548 0.02081 0.78844 0.0
O57 O 0.20041 0.00448 0.77548 0.0
Cd58 Cd 0.14593 0.91643 0.75709 0.0
O59 O 0.26568 -0.00851 0.78897 0.0
Cd60 Cd 0.24563 0.90392 0.76787 0.0
C61 C 0.15671 0.85678 0.83157 0.0
O62 O 0.20157 0.90712 0.71673 0.0
O63 O 0.1927 0.83132 0.72804 0.0
O64 O 0.33667 0.94774 0.75097 0.0
C65 C 0.18542 0.86029 0.70716 0.0
O66 O 0.13005 0.87055 0.81299 0.0
C67 C 0.34221 0.909 0.75914 0.0
O68 O 0.20047 0.86396 0.82114 0.0
O69 O 0.3033 0.86901 0.7726 0.0
C70 C 0.211 0.26456 0.95157 0.0
O71 O 0.18162 0.21948 0.93827 0.0
Cd72 Cd 0.21559 0.16392 0.9248 0.0
O73 O 0.26034 0.28384 0.95309 0.0
Cd74 Cd 0.32826 0.2644 0.93483 0.0
C75 C 0.28283 0.18038 0.00167 0.0
O76 O 0.28545 0.21281 0.88514 0.0
O77 O 0.3491 0.20412 0.90447 0.0
O78 O 0.37714 0.34545 0.90287 0.0
C79 C 0.31549 0.19442 0.8809 0.0
O80 O 0.24272 0.15276 0.98281 0.0
C81 C 0.41829 0.36246 0.921 0.0
O82 O 0.32113 0.22331 0.9905 0.0
O83 O 0.41711 0.33447 0.94644 0.0
C84 C 0.73347 0.02487 0.6939 0.0
O85 O 0.7642 0.01042 0.70588 0.0
Cd86 Cd 0.735 0.92125 0.71976 0.0
O87 O 0.68432 -0.00717 0.69251 0.0
Cd88 Cd 0.61984 0.90248 0.71114 0.0
C89 C 0.6651 0.86502 0.64419 0.0
O90 O 0.66792 0.90197 0.76104 0.0
O91 O 0.60219 0.82648 0.74685 0.0
O92 O 0.57363 0.94463 0.73238 0.0
C93 C 0.6384 0.85372 0.76827 0.0
O94 O 0.70609 0.87989 0.66247 0.0
C95 C 0.52883 0.9071 0.72364 0.0
O96 O 0.62671 0.86832 0.6557 0.0
O97 O 0.52667 0.868 0.70817 0.0
C98 C 0.71539 0.75513 0.85862 0.0
O99 O 0.76105 0.78336 0.87106 0.0
Cd100 Cd 0.81361 0.74528 0.88291 0.0
O101 O 0.69496 0.70536 0.85618 0.0
Cd102 Cd 0.71161 0.63392 0.87105 0.0
C103 C 0.79578 0.68059 0.80472 0.0
O104 O 0.76244 0.6735 0.92145 0.0
O105 O 0.76774 0.60769 0.90169 0.0
O106 O 0.63096 0.58835 0.90268 0.0
C107 C 0.77803 0.64097 0.92569 0.0
O108 O 0.82381 0.7198 0.82431 0.0
C109 C 0.61125 0.54702 0.8843 0.0
O110 O 0.75245 0.6423 0.81522 0.0
O111 O 0.63785 0.54629 0.85881 0.0
C112 C 0.94344 0.70388 0.02243 0.0
O113 O 0.95758 0.74813 0.03643 0.0
Cd114 Cd 0.04621 0.80698 0.05015 0.0
O115 O 0.97497 0.68652 0.02027 0.0
Cd116 Cd 0.06354 0.7099 0.04023 0.0
C117 C 0.09868 0.79246 0.9733 0.0
O118 O 0.06572 0.75809 0.09052 0.0
O119 O 0.14086 0.77174 0.07388 0.0
O120 O 0.022 0.62129 0.063 0.0
C121 C 0.11414 0.77877 0.09653 0.0
O122 O 0.08473 0.8186 -0.00776 0.0
C123 C 0.05953 0.61416 0.05515 0.0
O124 O 0.09608 0.75046 0.98439 0.0
O125 O 0.09785 0.6508 0.03877 0.0
C126 C 0.2093 0.95486 0.18795 0.0
O127 O 0.17975 0.97004 0.20081 0.0
Cd128 Cd 0.21364 0.05854 0.21862 0.0
O129 O 0.25877 0.98548 0.18724 0.0
Cd130 Cd 0.32636 0.07371 0.20702 0.0
C131 C 0.28173 0.1182 0.14344 0.0
O132 O 0.28042 0.07009 0.25875 0.0
O133 O 0.34692 0.14628 0.24682 0.0
O134 O 0.37298 0.02926 0.22343 0.0
C135 C 0.31166 0.11698 0.26818 0.0
O136 O 0.24148 0.10355 0.16231 0.0
C137 C 0.41757 0.06785 0.21549 0.0
O138 O 0.31938 0.11253 0.15366 0.0
O139 O 0.41919 0.10821 0.20228 0.0
C140 C 0.24317 0.20489 0.37132 0.0
O141 O 0.19692 0.17529 0.38241 0.0
Cd142 Cd 0.14206 0.20961 0.39708 0.0
O143 O 0.26372 0.25481 0.37132 0.0
Cd144 Cd 0.24461 0.32329 0.38909 0.0
C145 C 0.1597 0.28126 0.32216 0.0
O146 O 0.19188 0.2779 0.43799 0.0
O147 O 0.18839 0.34629 0.42173 0.0
O148 O 0.32628 0.37482 0.41987 0.0
C149 C 0.17575 0.30962 0.44367 0.0
O150 O 0.13118 0.24005 0.34005 0.0
C151 C 0.34252 0.41467 0.40023 0.0
O152 O 0.20288 0.31815 0.33399 0.0
O153 O 0.31361 0.41151 0.37497 0.0
C154 C -0.00094 0.24656 0.53097 0.0
O155 O 0.97337 0.19814 0.53933 0.0
Cd156 Cd 0.88373 0.15443 0.55635 0.0
O157 O -0.02188 0.27507 0.53247 0.0
Cd158 Cd 0.89369 0.26495 0.54812 0.0
C159 C 0.83896 0.17975 0.48183 0.0
O160 O 0.88046 0.21273 0.59793 0.0
O161 O 0.81103 0.21229 0.58081 0.0
O162 O 0.93432 0.34914 0.57719 0.0
C163 C 0.83378 0.20045 0.60401 0.0
O164 O 0.83699 0.14409 0.50157 0.0
C165 C 0.91258 0.36776 0.55816 0.0
O166 O 0.86037 0.22737 0.49174 0.0
O167 O 0.88284 0.33881 0.53403 0.0
C168 C 0.01305 0.52026 0.07396 0.0
C169 C 0.06009 0.56694 0.06667 0.0
H170 H -0.02286 0.43999 0.09089 0.0
C171 C 0.10796 0.56912 0.07225 0.0
H172 H -0.02432 0.51783 0.06998 0.0
C173 C 0.10882 0.52529 0.08514 0.0
C174 C 0.0618 0.47831 0.09182 0.0
H175 H 0.14475 0.60496 0.06719 0.0
H176 H 0.14624 0.52778 0.08906 0.0
C177 C 0.01389 0.47597 0.08602 0.0
C178 C 0.55694 0.11551 0.24085 0.0
C179 C 0.55616 0.06778 0.24536 0.0
H180 H 0.5136 0.15277 0.22681 0.0
C181 C 0.51004 0.0199 0.23864 0.0
H182 H 0.5923 0.15295 0.24553 0.0
C183 C 0.46478 0.01976 0.22843 0.0
C184 C 0.46563 0.06756 0.22394 0.0
H185 H 0.50872 0.98264 0.24188 0.0
H186 H 0.4292 0.98239 0.22408 0.0
C187 C 0.51216 0.11542 0.22981 0.0
C188 C 0.46796 0.54291 0.38677 0.0
C189 C 0.48191 0.5604 0.42097 0.0
H190 H 0.41156 0.48283 0.35337 0.0
C191 C 0.45102 0.52878 0.44838 0.0
H192 H 0.49128 0.56696 0.36527 0.0
C193 C 0.40652 0.48008 0.44161 0.0
C194 C 0.3916 0.46349 0.40735 0.0
H195 H 0.46136 0.54164 0.47493 0.0
H196 H 0.38283 0.45624 0.46306 0.0
C197 C 0.42252 0.4951 0.37997 0.0
C198 C 0.91986 0.48184 0.60647 0.0
C199 C 0.91923 0.51291 0.57915 0.0
H200 H 0.92002 0.41159 0.62092 0.0
C201 C 0.91994 0.49785 0.54485 0.0
H202 H 0.91948 0.49305 0.63309 0.0
C203 C 0.91868 0.45076 0.53792 0.0
C204 C 0.91856 0.41931 0.56523 0.0
H205 H 0.91922 0.52132 0.52344 0.0
H206 H 0.91727 0.43866 0.5113 0.0
C207 C 0.92045 0.43566 0.59952 0.0
C208 C 0.48317 0.95603 0.73811 0.0
C209 C 0.48124 0.90794 0.73246 0.0
H210 H 0.43991 -0.00595 0.75074 0.0
C211 C 0.43375 0.8604 0.73641 0.0
H212 H 0.51951 -0.00682 0.73524 0.0
C213 C 0.38879 0.86087 0.74611 0.0
C214 C 0.39046 0.90893 0.75121 0.0
H215 H 0.43149 0.82283 0.73247 0.0
H216 H 0.3525 0.82365 0.74892 0.0
C217 C 0.43785 0.95654 0.74699 0.0
C218 C 0.50063 0.44377 0.93748 0.0
C219 C 0.46627 0.41112 0.91168 0.0
H220 H 0.57342 0.51379 0.9487 0.0
C221 C 0.47904 0.42403 0.87671 0.0
H222 H 0.49134 0.43437 0.96459 0.0
C223 C 0.52654 0.46832 0.86763 0.0
C224 C 0.56081 0.50107 0.89344 0.0
H225 H 0.45307 0.39898 0.85644 0.0
H226 H 0.53637 0.47713 0.84053 0.0
C227 C 0.54725 0.48903 0.9284 0.0
C228 C 0.19578 0.34689 0.01949 0.0
C229 C 0.14138 0.31832 0.02429 0.0
H230 H 0.26083 0.35305 -0.00829 0.0
C231 C 0.10976 0.27879 0.0005 0.0
H232 H 0.221 0.37823 0.03709 0.0
C233 C 0.13245 0.26453 0.97438 0.0
C234 C 0.18715 0.28947 0.97171 0.0
H235 H 0.06756 0.25686 0.00316 0.0
H236 H 0.10714 0.23157 0.95785 0.0
C237 C 0.21853 0.33263 -0.00667 0.0
C238 C 0.83996 0.20732 0.18739 0.0
C239 C 0.80895 0.15219 0.18915 0.0
H240 H 0.90865 0.27329 0.16641 0.0
C241 C 0.81949 0.12114 0.1668 0.0
H242 H 0.83231 0.2322 0.20407 0.0
C243 C 0.86302 0.14452 0.14525 0.0
C244 C 0.89682 0.19939 0.14569 0.0
H245 H 0.79561 0.07851 0.1672 0.0
H246 H 0.87166 0.11928 0.12968 0.0
C247 C 0.88364 0.23079 0.16579 0.0
C248 C 0.61062 0.84846 0.35243 0.0
C249 C 0.63651 0.81964 0.354 0.0
H250 H 0.61046 0.91567 0.33133 0.0
C251 C 0.67817 0.83228 0.33128 0.0
H252 H 0.57805 0.83915 0.36942 0.0
C253 C 0.69676 0.87591 0.30963 0.0
C254 C 0.67386 0.90755 0.31017 0.0
H255 H 0.69829 0.81011 0.33148 0.0
H256 H 0.73077 0.88635 0.29379 0.0
C257 C 0.62913 0.89214 0.33056 0.0
C258 C 0.73409 0.65082 0.4892 0.0
C259 C 0.76229 0.6947 0.46743 0.0
H260 H 0.73804 0.6034 0.52984 0.0
C261 C 0.81706 0.71929 0.46622 0.0
H262 H 0.69178 0.6307 0.49047 0.0
C263 C 0.84338 0.70373 0.48879 0.0
C264 C 0.81541 0.6633 0.5129 0.0
H265 H 0.83986 0.75268 0.44935 0.0
H266 H 0.88579 0.72534 0.48857 0.0
C267 C 0.76053 0.63524 0.51183 0.0
C268 C 0.08482 0.76144 0.64605 0.0
C269 C 0.06826 0.79276 0.62896 0.0
H270 H 0.13537 0.75849 0.68442 0.0
C271 C 0.09672 0.84767 0.63355 0.0
H272 H 0.06413 0.71904 0.64269 0.0
C273 C 0.13748 0.87016 0.65749 0.0
C274 C 0.15035 0.83809 0.67718 0.0
H275 H 0.08538 0.87293 0.62044 0.0
H276 H 0.15675 0.91227 0.662 0.0
C277 C 0.12553 0.78396 0.67005 0.0
C278 C 0.25017 0.10467 0.80527 0.0
C279 C 0.27123 0.07139 0.80709 0.0
H280 H 0.2482 0.17013 0.82714 0.0
C281 C 0.31251 0.08357 0.83024 0.0
H282 H 0.21883 0.09677 0.78735 0.0
C283 C 0.32926 0.12568 0.85322 0.0
C284 C 0.30499 0.15609 0.85325 0.0
H285 H 0.32975 0.05879 0.83208 0.0
H286 H 0.35918 0.13258 0.87209 0.0
C287 C 0.26691 0.14664 0.82813 0.0
C288 C 0.71464 0.83586 0.83964 0.0
C289 C 0.68924 0.78065 0.84177 0.0
H290 H 0.71812 0.90239 0.81465 0.0
C291 C 0.64232 0.75008 0.82336 0.0
H292 H 0.75054 0.86055 0.85377 0.0
C293 C 0.62388 0.77409 0.80081 0.0
C294 C 0.65199 0.829 0.79639 0.0
H295 H 0.62147 0.70741 0.82474 0.0
H296 H 0.58921 0.74943 0.78553 0.0
C297 C 0.69616 0.85984 0.81712 0.0
C298 C 0.81902 0.68173 0.98181 0.0
C299 C 0.81313 0.64765 0.95459 0.0
H300 H 0.8643 0.72519 0.02549 0.0
C301 C 0.84436 0.62436 0.95387 0.0
H302 H 0.79459 0.69934 0.98343 0.0
C303 C 0.88443 0.63915 0.97813 0.0
C304 C 0.89357 0.67735 0.00332 0.0
H305 H 0.8401 0.59742 0.93337 0.0
H306 H 0.91041 0.6235 0.97556 0.0
C307 C 0.8588 0.69637 0.00602 0.0
C308 C 0.13113 0.87067 0.16929 0.0
C309 C 0.18572 0.90393 0.16977 0.0
H310 H 0.0657 0.80447 0.14578 0.0
C311 C 0.21694 0.89113 0.14937 0.0
H312 H 0.10604 0.87908 0.18504 0.0
C313 C 0.19372 0.84838 0.12676 0.0
C314 C 0.13902 0.81782 0.12429 0.0
H315 H 0.25918 0.91575 0.14942 0.0
H316 H 0.21859 0.84095 0.11 0.0
C317 C 0.10798 0.82795 0.14675 0.0
C318 C 0.25925 0.10514 0.3211 0.0
C319 C 0.30148 0.13829 0.29963 0.0
H320 H 0.20824 0.10028 0.36162 0.0
C321 C 0.33074 0.19243 0.30687 0.0
H322 H 0.23667 0.06301 0.31656 0.0
C323 C 0.31466 0.21381 0.3329 0.0
C324 C 0.26896 0.18131 0.35191 0.0
H325 H 0.36411 0.21873 0.29113 0.0
H326 H 0.33586 0.25621 0.33631 0.0
C327 C 0.24313 0.12647 0.34708 0.0
C328 C 0.11596 0.3316 0.47518 0.0
C329 C 0.13671 0.29844 0.47069 0.0
H330 H 0.05638 0.34158 0.49857 0.0
C331 C 0.11688 0.25207 0.49042 0.0
H332 H 0.13105 0.36796 0.46064 0.0
C333 C 0.0741 0.23685 0.51209 0.0
C334 C 0.05063 0.26791 0.5145 0.0
H335 H 0.13266 0.22611 0.48784 0.0
H336 H 0.05786 0.19947 0.52554 0.0
C337 C 0.07334 0.31654 0.49703 0.0
C338 C 0.8339 0.15643 0.65856 0.0
C339 C 0.80528 0.16349 0.63223 0.0
H340 H 0.83319 0.10717 0.69936 0.0
C341 C 0.75078 0.1302 0.63082 0.0
H342 H 0.87589 0.1823 0.66064 0.0
C343 C 0.72616 0.08698 0.65315 0.0
C344 C 0.7559 0.07676 0.67701 0.0
H345 H 0.72782 0.13516 0.61092 0.0
H346 H 0.68465 0.05957 0.64991 0.0
C347 C 0.80944 0.11343 0.68076 0.0
C348 C 0.11341 0.23783 0.26732 0.0
C349 C 0.14478 0.28429 0.28611 0.0
H350 H 0.07767 0.20366 0.21876 0.0
C351 C 0.16408 0.33325 0.2695 0.0
H352 H 0.09846 0.19952 0.2793 0.0
C353 C 0.15162 0.33565 0.23486 0.0
C354 C 0.12081 0.2891 0.21598 0.0
H355 H 0.18851 0.36968 0.28335 0.0
H356 H 0.16642 0.37387 0.22279 0.0
C357 C 0.10203 0.2402 0.23253 0.0
C358 C 0.85451 0.19908 0.41901 0.0
C359 C 0.82166 0.16698 0.4457 0.0
H360 H 0.86767 0.209 0.36422 0.0
C361 C 0.77417 0.1215 0.43742 0.0
H362 H 0.89161 0.23412 0.42491 0.0
C363 C 0.75975 0.10828 0.40283 0.0
C364 C 0.79357 0.13929 0.37617 0.0
H365 H 0.74843 0.0962 0.45766 0.0
H366 H 0.72315 0.07268 0.3969 0.0
C367 C 0.84102 0.18477 0.38445 0.0
C368 C 0.6159 0.8154 0.59128 0.0
C369 C 0.66379 0.84774 0.60818 0.0
H370 H 0.5776 0.77529 0.54444 0.0
C371 C 0.71066 0.86584 0.58978 0.0
H372 H 0.57917 0.80103 0.60482 0.0
C373 C 0.7097 0.85234 0.55509 0.0
C374 C 0.6619 0.81948 0.53827 0.0
H375 H 0.74813 0.89129 0.60202 0.0
H376 H 0.74652 0.86685 0.54162 0.0
C377 C 0.61499 0.80082 0.55675 0.0
C378 C 0.80959 0.63659 0.71531 0.0
C379 C 0.8396 0.68524 0.6984 0.0
H380 H 0.77155 0.59689 0.7623 0.0
C381 C 0.85538 0.73207 0.71681 0.0
H382 H 0.79705 0.59989 0.70172 0.0
C383 C 0.84214 0.73037 0.75159 0.0
C384 C 0.81179 0.68178 0.76846 0.0
H385 H 0.879 0.77014 0.70455 0.0
H386 H 0.85499 0.76717 0.76512 0.0
C387 C 0.79515 0.63486 0.74993 0.0
C388 C 0.10748 0.85183 0.88505 0.0
C389 C 0.13952 0.83744 0.86712 0.0
H390 H 0.07065 0.85001 0.93294 0.0
C391 C 0.15819 0.8081 0.88439 0.0
H392 H 0.09297 0.87494 0.87254 0.0
C393 C 0.14494 0.79331 0.91895 0.0
C394 C 0.11388 0.80879 0.93706 0.0
H395 H 0.18312 0.79663 0.87121 0.0
H396 H 0.15958 0.77044 0.93161 0.0
C397 C 0.09526 0.83813 0.91976 0.0
C398 C 0.23523 0.12058 0.09018 0.0
C399 C 0.28246 0.13682 0.10784 0.0
H400 H 0.19842 0.12052 0.04248 0.0
C401 C 0.33004 0.16747 0.09029 0.0
H402 H 0.19795 0.09644 0.10291 0.0
C403 C 0.33032 0.18178 0.05574 0.0
C404 C 0.28301 0.16452 0.0379 0.0
H405 H 0.36703 0.18036 0.10327 0.0
H406 H 0.36751 0.20571 0.04286 0.0
C407 C 0.23549 0.13381 0.05545 0.0
loop_
_geom_bond_atom_site_label_1
_geom_bond_atom_site_label_2
_geom_bond_distance
_geom_bond_site_symmetry_2
_ccdc_geom_bond_type
C0 O1 1.306 . S
C0 O3 1.160 . S
O1 C0 1.306 . S
O1 Cd2 2.228 1_655 S
Cd2 O1 2.228 1_455 S
Cd2 O6 2.273 . S
Cd2 O10 2.277 . S
O3 C0 1.160 . S
O3 Cd4 2.203 1_655 S
Cd4 O3 2.203 1_455 S
Cd4 O6 2.411 . S
Cd4 O7 2.333 . S
Cd4 O8 2.352 . S
Cd4 O12 2.277 . S
Cd4 O13 2.356 . S
C5 O10 1.209 . S
C5 O12 1.226 . S
O6 Cd2 2.273 . S
O6 Cd4 2.411 . S
O6 C9 1.320 . S
O7 Cd4 2.333 . S
O7 C9 1.214 . S
O8 Cd4 2.352 . S
O8 C11 1.258 . S
C9 O6 1.320 . S
C9 O7 1.214 . S
O10 Cd2 2.277 . S
O10 C5 1.209 . S
C11 O8 1.258 . S
C11 O13 1.282 . S
O12 Cd4 2.277 . S
O12 C5 1.226 . S
O13 Cd4 2.356 . S
O13 C11 1.282 . S
C14 O15 1.306 . S
C14 O17 1.160 . S
O15 C14 1.306 . S
O15 Cd16 2.228 1_565 S
Cd16 O15 2.228 1_545 S
Cd16 O20 2.273 . S
Cd16 O24 2.277 . S
O17 C14 1.160 . S
O17 Cd18 2.203 1_565 S
Cd18 O17 2.203 1_545 S
Cd18 O20 2.411 . S
Cd18 O21 2.333 . S
Cd18 O22 2.352 . S
Cd18 O26 2.277 . S
Cd18 O27 2.356 . S
C19 O24 1.209 . S
C19 O26 1.226 . S
O20 Cd16 2.273 . S
O20 Cd18 2.411 . S
O20 C23 1.320 . S
O21 Cd18 2.333 . S
O21 C23 1.214 . S
O22 Cd18 2.352 . S
O22 C25 1.258 . S
C23 O20 1.320 . S
C23 O21 1.214 . S
O24 Cd16 2.277 . S
O24 C19 1.209 . S
C25 O22 1.258 . S
C25 O27 1.282 . S
O26 Cd18 2.277 . S
O26 C19 1.226 . S
O27 Cd18 2.356 . S
O27 C25 1.282 . S
C28 O29 1.306 . S
C28 O31 1.160 . S
O29 C28 1.306 . S
O29 Cd30 2.228 . S
Cd30 O29 2.228 . S
Cd30 O34 2.273 . S
Cd30 O38 2.277 . S
O31 C28 1.160 . S
O31 Cd32 2.203 . S
Cd32 O31 2.203 . S
Cd32 O34 2.411 . S
Cd32 O35 2.333 . S
Cd32 O36 2.352 . S
Cd32 O40 2.277 . S
Cd32 O41 2.356 . S
C33 O38 1.209 . S
C33 O40 1.226 . S
O34 Cd30 2.273 . S
O34 Cd32 2.411 . S
O34 C37 1.320 . S
O35 Cd32 2.333 . S
O35 C37 1.214 . S
O36 Cd32 2.352 . S
O36 C39 1.258 . S
C37 O34 1.320 . S
C37 O35 1.214 . S
O38 Cd30 2.277 . S
O38 C33 1.209 . S
C39 O36 1.258 . S
C39 O41 1.282 . S
O40 Cd32 2.277 . S
O40 C33 1.226 . S
O41 Cd32 2.356 . S
O41 C39 1.282 . S
C42 O43 1.306 . S
C42 O45 1.160 . S
O43 C42 1.306 . S
O43 Cd44 2.228 1_455 S
Cd44 O43 2.228 1_655 S
Cd44 O48 2.273 . S
Cd44 O52 2.277 . S
O45 C42 1.160 . S
O45 Cd46 2.203 1_455 S
Cd46 O45 2.203 1_655 S
Cd46 O48 2.411 . S
Cd46 O49 2.333 . S
Cd46 O50 2.352 . S
Cd46 O54 2.277 . S
Cd46 O55 2.356 . S
C47 O52 1.209 . S
C47 O54 1.226 . S
O48 Cd44 2.273 . S
O48 Cd46 2.411 . S
O48 C51 1.320 . S
O49 Cd46 2.333 . S
O49 C51 1.214 . S
O50 Cd46 2.352 . S
O50 C53 1.258 . S
C51 O48 1.320 . S
C51 O49 1.214 . S
O52 Cd44 2.277 . S
O52 C47 1.209 . S
C53 O50 1.258 . S
C53 O55 1.282 . S
O54 Cd46 2.277 . S
O54 C47 1.226 . S
O55 Cd46 2.356 . S
O55 C53 1.282 . S
C56 O57 1.306 . S
C56 O59 1.160 . S
O57 C56 1.306 . S
O57 Cd58 2.228 1_545 S
Cd58 O57 2.228 1_565 S
Cd58 O62 2.273 . S
Cd58 O66 2.277 . S
O59 C56 1.160 . S
O59 Cd60 2.203 1_545 S
Cd60 O59 2.203 1_565 S
Cd60 O62 2.411 . S
Cd60 O63 2.333 . S
Cd60 O64 2.352 . S
Cd60 O68 2.277 . S
Cd60 O69 2.356 . S
C61 O66 1.209 . S
C61 O68 1.226 . S
O62 Cd58 2.273 . S
O62 Cd60 2.411 . S
O62 C65 1.320 . S
O63 Cd60 2.333 . S
O63 C65 1.214 . S
O64 Cd60 2.352 . S
O64 C67 1.258 . S
C65 O62 1.320 . S
C65 O63 1.214 . S
O66 Cd58 2.277 . S
O66 C61 1.209 . S
C67 O64 1.258 . S
C67 O69 1.282 . S
O68 Cd60 2.277 . S
O68 C61 1.226 . S
O69 Cd60 2.356 . S
O69 C67 1.282 . S
C70 O71 1.306 . S
C70 O73 1.160 . S
O71 C70 1.306 . S
O71 Cd72 2.228 . S
Cd72 O71 2.228 . S
Cd72 O76 2.273 . S
Cd72 O80 2.277 1_556 S
O73 C70 1.160 . S
O73 Cd74 2.203 . S
Cd74 O73 2.203 . S
Cd74 O76 2.411 . S
Cd74 O77 2.333 . S
Cd74 O78 2.352 . S
Cd74 O82 2.277 1_556 S
Cd74 O83 2.356 . S
C75 O80 1.209 . S
C75 O82 1.226 . S
O76 Cd72 2.273 . S
O76 Cd74 2.411 . S
O76 C79 1.320 . S
O77 Cd74 2.333 . S
O77 C79 1.214 . S
O78 Cd74 2.352 . S
O78 C81 1.258 . S
C79 O76 1.320 . S
C79 O77 1.214 . S
O80 Cd72 2.277 1_554 S
O80 C75 1.209 . S
C81 O78 1.258 . S
C81 O83 1.282 . S
O82 Cd74 2.277 1_554 S
O82 C75 1.226 . S
O83 Cd74 2.356 . S
O83 C81 1.282 . S
C84 O85 1.306 . S
C84 O87 1.160 . S
O85 C84 1.306 . S
O85 Cd86 2.228 1_545 S
Cd86 O85 2.228 1_565 S
Cd86 O90 2.273 . S
Cd86 O94 2.277 . S
O87 C84 1.160 . S
O87 Cd88 2.203 1_545 S
Cd88 O87 2.203 1_565 S
Cd88 O90 2.411 . S
Cd88 O91 2.333 . S
Cd88 O92 2.352 . S
Cd88 O96 2.277 . S
Cd88 O97 2.356 . S
C89 O94 1.209 . S
C89 O96 1.226 . S
O90 Cd86 2.273 . S
O90 Cd88 2.411 . S
O90 C93 1.320 . S
O91 Cd88 2.333 . S
O91 C93 1.214 . S
O92 Cd88 2.352 . S
O92 C95 1.258 . S
C93 O90 1.320 . S
C93 O91 1.214 . S
O94 Cd86 2.277 . S
O94 C89 1.209 . S
C95 O92 1.258 . S
C95 O97 1.282 . S
O96 Cd88 2.277 . S
O96 C89 1.226 . S
O97 Cd88 2.356 . S
O97 C95 1.282 . S
C98 O99 1.306 . S
C98 O101 1.160 . S
O99 C98 1.306 . S
O99 Cd100 2.228 . S
Cd100 O99 2.228 . S
Cd100 O104 2.273 . S
Cd100 O108 2.277 . S
O101 C98 1.160 . S
O101 Cd102 2.203 . S
Cd102 O101 2.203 . S
Cd102 O104 2.411 . S
Cd102 O105 2.333 . S
Cd102 O106 2.352 . S
Cd102 O110 2.277 . S
Cd102 O111 2.356 . S
C103 O108 1.209 . S
C103 O110 1.226 . S
O104 Cd100 2.273 . S
O104 Cd102 2.411 . S
O104 C107 1.320 . S
O105 Cd102 2.333 . S
O105 C107 1.214 . S
O106 Cd102 2.352 . S
O106 C109 1.258 . S
C107 O104 1.320 . S
C107 O105 1.214 . S
O108 Cd100 2.277 . S
O108 C103 1.209 . S
C109 O106 1.258 . S
C109 O111 1.282 . S
O110 Cd102 2.277 . S
O110 C103 1.226 . S
O111 Cd102 2.356 . S
O111 C109 1.282 . S
C112 O113 1.306 . S
C112 O115 1.160 . S
O113 C112 1.306 . S
O113 Cd114 2.228 1_655 S
Cd114 O113 2.228 1_455 S
Cd114 O118 2.273 . S
Cd114 O122 2.277 1_554 S
O115 C112 1.160 . S
O115 Cd116 2.203 1_655 S
Cd116 O115 2.203 1_455 S
Cd116 O118 2.411 . S
Cd116 O119 2.333 . S
Cd116 O120 2.352 . S
Cd116 O124 2.277 1_554 S
Cd116 O125 2.356 . S
C117 O122 1.209 . S
C117 O124 1.226 . S
O118 Cd114 2.273 . S
O118 Cd116 2.411 . S
O118 C121 1.320 . S
O119 Cd116 2.333 . S
O119 C121 1.214 . S
O120 Cd116 2.352 . S
O120 C123 1.258 . S
C121 O118 1.320 . S
C121 O119 1.214 . S
O122 Cd114 2.277 1_556 S
O122 C117 1.209 . S
C123 O120 1.258 . S
C123 O125 1.282 . S
O124 Cd116 2.277 1_556 S
O124 C117 1.226 . S
O125 Cd116 2.356 . S
O125 C123 1.282 . S
C126 O127 1.306 . S
C126 O129 1.160 . S
O127 C126 1.306 . S
O127 Cd128 2.228 1_565 S
Cd128 O127 2.228 1_545 S
Cd128 O132 2.273 . S
Cd128 O136 2.277 . S
O129 C126 1.160 . S
O129 Cd130 2.203 1_565 S
Cd130 O129 2.203 1_545 S
Cd130 O132 2.411 . S
Cd130 O133 2.333 . S
Cd130 O134 2.352 . S
Cd130 O138 2.277 . S
Cd130 O139 2.356 . S
C131 O136 1.209 . S
C131 O138 1.226 . S
O132 Cd128 2.273 . S
O132 Cd130 2.411 . S
O132 C135 1.320 . S
O133 Cd130 2.333 . S
O133 C135 1.214 . S
O134 Cd130 2.352 . S
O134 C137 1.258 . S
C135 O132 1.320 . S
C135 O133 1.214 . S
O136 Cd128 2.277 . S
O136 C131 1.209 . S
C137 O134 1.258 . S
C137 O139 1.282 . S
O138 Cd130 2.277 . S
O138 C131 1.226 . S
O139 Cd130 2.356 . S
O139 C137 1.282 . S
C140 O141 1.306 . S
C140 O143 1.160 . S
O141 C140 1.306 . S
O141 Cd142 2.228 . S
Cd142 O141 2.228 . S
Cd142 O146 2.273 . S
Cd142 O150 2.277 . S
O143 C140 1.160 . S
O143 Cd144 2.203 . S
Cd144 O143 2.203 . S
Cd144 O146 2.411 . S
Cd144 O147 2.333 . S
Cd144 O148 2.352 . S
Cd144 O152 2.277 . S
Cd144 O153 2.356 . S
C145 O150 1.209 . S
C145 O152 1.226 . S
O146 Cd142 2.273 . S
O146 Cd144 2.411 . S
O146 C149 1.320 . S
O147 Cd144 2.333 . S
O147 C149 1.214 . S
O148 Cd144 2.352 . S
O148 C151 1.258 . S
C149 O146 1.320 . S
C149 O147 1.214 . S
O150 Cd142 2.277 . S
O150 C145 1.209 . S
C151 O148 1.258 . S
C151 O153 1.282 . S
O152 Cd144 2.277 . S
O152 C145 1.226 . S
O153 Cd144 2.356 . S
O153 C151 1.282 . S
C154 O155 1.306 . S
C154 O157 1.160 . S
O155 C154 1.306 . S
O155 Cd156 2.228 1_455 S
Cd156 O155 2.228 1_655 S
Cd156 O160 2.273 . S
Cd156 O164 2.277 . S
O157 C154 1.160 . S
O157 Cd158 2.203 1_455 S
Cd158 O157 2.203 1_655 S
Cd158 O160 2.411 . S
Cd158 O161 2.333 . S
Cd158 O162 2.352 . S
Cd158 O166 2.277 . S
Cd158 O167 2.356 . S
C159 O164 1.209 . S
C159 O166 1.226 . S
O160 Cd156 2.273 . S
O160 Cd158 2.411 . S
O160 C163 1.320 . S
O161 Cd158 2.333 . S
O161 C163 1.214 . S
O162 Cd158 2.352 . S
O162 C165 1.258 . S
C163 O160 1.320 . S
C163 O161 1.214 . S
O164 Cd156 2.277 . S
O164 C159 1.209 . S
C165 O162 1.258 . S
C165 O167 1.282 . S
O166 Cd158 2.277 . S
O166 C159 1.226 . S
O167 Cd158 2.356 . S
O167 C165 1.282 . S
C168 C169 1.387 1_655 S
C168 H172 0.950 . S
C168 C177 1.390 . S
C169 C168 1.387 1_455 S
C169 C171 1.387 . S
H170 C177 0.950 . S
C171 C169 1.387 . S
C171 C173 1.390 . S
C171 H175 0.950 . S
H172 C168 0.950 . S
C173 C171 1.390 . S
C173 C174 1.387 . S
C173 H176 0.950 . S
C174 C173 1.387 . S
C174 C177 1.387 1_455 S
H175 C171 0.950 . S
H176 C173 0.950 . S
C177 C168 1.390 . S
C177 H170 0.950 . S
C177 C174 1.387 1_655 S
C178 C179 1.387 . S
C178 H182 0.950 . S
C178 C187 1.390 . S
C179 C178 1.387 . S
C179 C181 1.387 1_545 S
H180 C187 0.950 . S
C181 C179 1.387 1_565 S
C181 C183 1.390 . S
C181 H185 0.950 . S
H182 C178 0.950 . S
C183 C181 1.390 . S
C183 C184 1.387 1_565 S
C183 H186 0.950 . S
C184 C183 1.387 1_545 S
C184 C187 1.387 . S
H185 C181 0.950 . S
H186 C183 0.950 . S
C187 C178 1.390 . S
C187 H180 0.950 . S
C187 C184 1.387 . S
C188 C189 1.387 . S
C188 H192 0.950 . S
C188 C197 1.390 . S
C189 C188 1.387 . S
C189 C191 1.387 . S
H190 C197 0.950 . S
C191 C189 1.387 . S
C191 C193 1.390 . S
C191 H195 0.950 . S
H192 C188 0.950 . S
C193 C191 1.390 . S
C193 C194 1.387 . S
C193 H196 0.950 . S
C194 C193 1.387 . S
C194 C197 1.387 . S
H195 C191 0.950 . S
H196 C193 0.950 . S
C197 C188 1.390 . S
C197 H190 0.950 . S
C197 C194 1.387 . S
C198 C199 1.387 . S
C198 H202 0.950 . S
C198 C207 1.390 . S
C199 C198 1.387 . S
C199 C201 1.387 . S
H200 C207 0.950 . S
C201 C199 1.387 . S
C201 C203 1.390 . S
C201 H205 0.950 . S
H202 C198 0.950 . S
C203 C201 1.390 . S
C203 C204 1.387 . S
C203 H206 0.950 . S
C204 C203 1.387 . S
C204 C207 1.387 . S
H205 C201 0.950 . S
H206 C203 0.950 . S
C207 C198 1.390 . S
C207 H200 0.950 . S
C207 C204 1.387 . S
C208 C209 1.387 1_545 S
C208 H212 0.950 . S
C208 C217 1.390 . S
C209 C208 1.387 1_565 S
C209 C211 1.387 . S
H210 C217 0.950 . S
C211 C209 1.387 . S
C211 C213 1.390 . S
C211 H215 0.950 . S
H212 C208 0.950 . S
C213 C211 1.390 . S
C213 C214 1.387 . S
C213 H216 0.950 . S
C214 C213 1.387 . S
C214 C217 1.387 1_565 S
H215 C211 0.950 . S
H216 C213 0.950 . S
C217 C208 1.390 . S
C217 H210 0.950 . S
C217 C214 1.387 1_545 S
C218 C219 1.387 . S
C218 H222 0.950 . S
C218 C227 1.390 . S
C219 C218 1.387 . S
C219 C221 1.387 . S
H220 C227 0.950 . S
C221 C219 1.387 . S
C221 C223 1.390 . S
C221 H225 0.950 . S
H222 C218 0.950 . S
C223 C221 1.390 . S
C223 C224 1.387 . S
C223 H226 0.950 . S
C224 C223 1.387 . S
C224 C227 1.387 . S
H225 C221 0.950 . S
H226 C223 0.950 . S
C227 C218 1.390 . S
C227 H220 0.950 . S
C227 C224 1.387 . S
C228 C229 1.387 . S
C228 H232 0.950 . S
C228 C237 1.390 . S
C229 C228 1.387 . S
C229 C231 1.387 . S
H230 C237 0.950 . S
C231 C229 1.387 . S
C231 C233 1.390 . S
C231 H235 0.950 . S
H232 C228 0.950 . S
C233 C231 1.390 . S
C233 C234 1.387 . S
C233 H236 0.950 . S
C234 C233 1.387 . S
C234 C237 1.387 . S
H235 C231 0.950 . S
H236 C233 0.950 . S
C237 C228 1.390 . S
C237 H230 0.950 . S
C237 C234 1.387 . S
C238 C239 1.387 . S
C238 H242 0.950 . S
C238 C247 1.390 . S
C239 C238 1.387 . S
C239 C241 1.387 . S
H240 C247 0.950 . S
C241 C239 1.387 . S
C241 C243 1.390 . S
C241 H245 0.950 . S
H242 C238 0.950 . S
C243 C241 1.390 . S
C243 C244 1.387 . S
C243 H246 0.950 . S
C244 C243 1.387 . S
C244 C247 1.387 . S
H245 C241 0.950 . S
H246 C243 0.950 . S
C247 C238 1.390 . S
C247 H240 0.950 . S
C247 C244 1.387 . S
C248 C249 1.387 . S
C248 H252 0.950 . S
C248 C257 1.390 . S
C249 C248 1.387 . S
C249 C251 1.387 . S
H250 C257 0.950 . S
C251 C249 1.387 . S
C251 C253 1.390 . S
C251 H255 0.950 . S
H252 C248 0.950 . S
C253 C251 1.390 . S
C253 C254 1.387 . S
C253 H256 0.950 . S
C254 C253 1.387 . S
C254 C257 1.387 . S
H255 C251 0.950 . S
H256 C253 0.950 . S
C257 C248 1.390 . S
C257 H250 0.950 . S
C257 C254 1.387 . S
C258 C259 1.387 . S
C258 H262 0.950 . S
C258 C267 1.390 . S
C259 C258 1.387 . S
C259 C261 1.387 . S
H260 C267 0.950 . S
C261 C259 1.387 . S
C261 C263 1.390 . S
C261 H265 0.950 . S
H262 C258 0.950 . S
C263 C261 1.390 . S
C263 C264 1.387 . S
C263 H266 0.950 . S
C264 C263 1.387 . S
C264 C267 1.387 . S
H265 C261 0.950 . S
H266 C263 0.950 . S
C267 C258 1.390 . S
C267 H260 0.950 . S
C267 C264 1.387 . S
C268 C269 1.387 . S
C268 H272 0.950 . S
C268 C277 1.390 . S
C269 C268 1.387 . S
C269 C271 1.387 . S
H270 C277 0.950 . S
C271 C269 1.387 . S
C271 C273 1.390 . S
C271 H275 0.950 . S
H272 C268 0.950 . S
C273 C271 1.390 . S
C273 C274 1.387 . S
C273 H276 0.950 . S
C274 C273 1.387 . S
C274 C277 1.387 . S
H275 C271 0.950 . S
H276 C273 0.950 . S
C277 C268 1.390 . S
C277 H270 0.950 . S
C277 C274 1.387 . S
C278 C279 1.387 . S
C278 H282 0.950 . S
C278 C287 1.390 . S
C279 C278 1.387 . S
C279 C281 1.387 . S
H280 C287 0.950 . S
C281 C279 1.387 . S
C281 C283 1.390 . S
C281 H285 0.950 . S
H282 C278 0.950 . S
C283 C281 1.390 . S
C283 C284 1.387 . S
C283 H286 0.950 . S
C284 C283 1.387 . S
C284 C287 1.387 . S
H285 C281 0.950 . S
H286 C283 0.950 . S
C287 C278 1.390 . S
C287 H280 0.950 . S
C287 C284 1.387 . S
C288 C289 1.387 . S
C288 H292 0.950 . S
C288 C297 1.390 . S
C289 C288 1.387 . S
C289 C291 1.387 . S
H290 C297 0.950 . S
C291 C289 1.387 . S
C291 C293 1.390 . S
C291 H295 0.950 . S
H292 C288 0.950 . S
C293 C291 1.390 . S
C293 C294 1.387 . S
C293 H296 0.950 . S
C294 C293 1.387 . S
C294 C297 1.387 . S
H295 C291 0.950 . S
H296 C293 0.950 . S
C297 C288 1.390 . S
C297 H290 0.950 . S
C297 C294 1.387 . S
C298 C299 1.387 . S
C298 H302 0.950 . S
C298 C307 1.390 . S
C299 C298 1.387 . S
C299 C301 1.387 . S
H300 C307 0.950 . S
C301 C299 1.387 . S
C301 C303 1.390 . S
C301 H305 0.950 . S
H302 C298 0.950 . S
C303 C301 1.390 . S
C303 C304 1.387 . S
C303 H306 0.950 . S
C304 C303 1.387 . S
C304 C307 1.387 . S
H305 C301 0.950 . S
H306 C303 0.950 . S
C307 C298 1.390 . S
C307 H300 0.950 . S
C307 C304 1.387 . S
C308 C309 1.387 . S
C308 H312 0.950 . S
C308 C317 1.390 . S
C309 C308 1.387 . S
C309 C311 1.387 . S
H310 C317 0.950 . S
C311 C309 1.387 . S
C311 C313 1.390 . S
C311 H315 0.950 . S
H312 C308 0.950 . S
C313 C311 1.390 . S
C313 C314 1.387 . S
C313 H316 0.950 . S
C314 C313 1.387 . S
C314 C317 1.387 . S
H315 C311 0.950 . S
H316 C313 0.950 . S
C317 C308 1.390 . S
C317 H310 0.950 . S
C317 C314 1.387 . S
C318 C319 1.387 . S
C318 H322 0.950 . S
C318 C327 1.390 . S
C319 C318 1.387 . S
C319 C321 1.387 . S
H320 C327 0.950 . S
C321 C319 1.387 . S
C321 C323 1.390 . S
C321 H325 0.950 . S
H322 C318 0.950 . S
C323 C321 1.390 . S
C323 C324 1.387 . S
C323 H326 0.950 . S
C324 C323 1.387 . S
C324 C327 1.387 . S
H325 C321 0.950 . S
H326 C323 0.950 . S
C327 C318 1.390 . S
C327 H320 0.950 . S
C327 C324 1.387 . S
C328 C329 1.387 . S
C328 H332 0.950 . S
C328 C337 1.390 . S
C329 C328 1.387 . S
C329 C331 1.387 . S
H330 C337 0.950 . S
C331 C329 1.387 . S
C331 C333 1.390 . S
C331 H335 0.950 . S
H332 C328 0.950 . S
C333 C331 1.390 . S
C333 C334 1.387 . S
C333 H336 0.950 . S
C334 C333 1.387 . S
C334 C337 1.387 . S
H335 C331 0.950 . S
H336 C333 0.950 . S
C337 C328 1.390 . S
C337 H330 0.950 . S
C337 C334 1.387 . S
C338 C339 1.387 . S
C338 H342 0.950 . S
C338 C347 1.390 . S
C339 C338 1.387 . S
C339 C341 1.387 . S
H340 C347 0.950 . S
C341 C339 1.387 . S
C341 C343 1.390 . S
C341 H345 0.950 . S
H342 C338 0.950 . S
C343 C341 1.390 . S
C343 C344 1.387 . S
C343 H346 0.950 . S
C344 C343 1.387 . S
C344 C347 1.387 . S
H345 C341 0.950 . S
H346 C343 0.950 . S
C347 C338 1.390 . S
C347 H340 0.950 . S
C347 C344 1.387 . S
C348 C349 1.387 . S
C348 H352 0.950 . S
C348 C357 1.390 . S
C349 C348 1.387 . S
C349 C351 1.387 . S
H350 C357 0.950 . S
C351 C349 1.387 . S
C351 C353 1.390 . S
C351 H355 0.950 . S
H352 C348 0.950 . S
C353 C351 1.390 . S
C353 C354 1.387 . S
C353 H356 0.950 . S
C354 C353 1.387 . S
C354 C357 1.387 . S
H355 C351 0.950 . S
H356 C353 0.950 . S
C357 C348 1.390 . S
C357 H350 0.950 . S
C357 C354 1.387 . S
C358 C359 1.387 . S
C358 H362 0.950 . S
C358 C367 1.390 . S
C359 C358 1.387 . S
C359 C361 1.387 . S
H360 C367 0.950 . S
C361 C359 1.387 . S
C361 C363 1.390 . S
C361 H365 0.950 . S
H362 C358 0.950 . S
C363 C361 1.390 . S
C363 C364 1.387 . S
C363 H366 0.950 . S
C364 C363 1.387 . S
C364 C367 1.387 . S
H365 C361 0.950 . S
H366 C363 0.950 . S
C367 C358 1.390 . S
C367 H360 0.950 . S
C367 C364 1.387 . S
C368 C369 1.387 . S
C368 H372 0.950 . S
C368 C377 1.390 . S
C369 C368 1.387 . S
C369 C371 1.387 . S
H370 C377 0.950 . S
C371 C369 1.387 . S
C371 C373 1.390 . S
C371 H375 0.950 . S
H372 C368 0.950 . S
C373 C371 1.390 . S
C373 C374 1.387 . S
C373 H376 0.950 . S
C374 C373 1.387 . S
C374 C377 1.387 . S
H375 C371 0.950 . S
H376 C373 0.950 . S
C377 C368 1.390 . S
C377 H370 0.950 . S
C377 C374 1.387 . S
C378 C379 1.387 . S
C378 H382 0.950 . S
C378 C387 1.390 . S
C379 C378 1.387 . S
C379 C381 1.387 . S
H380 C387 0.950 . S
C381 C379 1.387 . S
C381 C383 1.390 . S
C381 H385 0.950 . S
H382 C378 0.950 . S
C383 C381 1.390 . S
C383 C384 1.387 . S
C383 H386 0.950 . S
C384 C383 1.387 . S
C384 C387 1.387 . S
H385 C381 0.950 . S
H386 C383 0.950 . S
C387 C378 1.390 . S
C387 H380 0.950 . S
C387 C384 1.387 . S
C388 C389 1.387 . S
C388 H392 0.950 . S
C388 C397 1.390 . S
C389 C388 1.387 . S
C389 C391 1.387 . S
H390 C397 0.950 . S
C391 C389 1.387 . S
C391 C393 1.390 . S
C391 H395 0.950 . S
H392 C388 0.950 . S
C393 C391 1.390 . S
C393 C394 1.387 . S
C393 H396 0.950 . S
C394 C393 1.387 . S
C394 C397 1.387 . S
H395 C391 0.950 . S
H396 C393 0.950 . S
C397 C388 1.390 . S
C397 H390 0.950 . S
C397 C394 1.387 . S
C398 C399 1.387 . S
C398 H402 0.950 . S
C398 C407 1.390 . S
C399 C398 1.387 . S
C399 C401 1.387 . S
H400 C407 0.950 . S
C401 C399 1.387 . S
C401 C403 1.390 . S
C401 H405 0.950 . S
H402 C398 0.950 . S
C403 C401 1.390 . S
C403 C404 1.387 . S
C403 H406 0.950 . S
C404 C403 1.387 . S
C404 C407 1.387 . S
H405 C401 0.950 . S
H406 C403 0.950 . S
C407 C398 1.390 . S
C407 H400 0.950 . S
C407 C404 1.387 . S
C169 C123 1.455 . S
C174 C11 1.454 . S
C179 C25 1.453 . S
C184 C137 1.453 . S
C189 C39 1.453 . S
C194 C151 1.455 . S
C199 C53 1.455 . S
C204 C165 1.453 . S
C209 C95 1.455 . S
C214 C67 1.455 . S
C219 C81 1.455 . S
C224 C109 1.453 . S
C229 C9 1.546 . S
C234 C70 1.511 1_554 S
C239 C23 1.544 . S
C244 C0 1.511 . S
C249 C37 1.546 . S
C254 C14 1.511 . S
C259 C28 1.511 . S
C264 C51 1.546 . S
C269 C42 1.510 . S
C274 C65 1.544 . S
C279 C56 1.513 . S
C284 C79 1.546 . S
C289 C98 1.512 . S
C294 C93 1.545 . S
C299 C107 1.545 . S
C304 C112 1.513 1_556 S
C309 C126 1.513 . S
C314 C121 1.545 . S
C319 C135 1.545 . S
C324 C140 1.512 . S
C329 C149 1.546 . S
C334 C154 1.511 . S
C339 C163 1.546 . S
C344 C84 1.513 . S
C349 C145 1.345 . S
C354 C5 1.345 . S
C359 C159 1.346 . S
C364 C19 1.345 . S
C369 C89 1.346 . S
C374 C33 1.346 . S
C379 C47 1.346 . S
C384 C103 1.346 . S
C389 C61 1.346 . S
C394 C117 1.345 . S
C399 C131 1.346 . S
C404 C75 1.345 . S
