# Generated by pormake.
# Topology unr, (4)-cn, num edge types: 1
# Building blocks:
#     Node 0, Type 0, BuildingBlock: GALJAG_clean_sbu_0, # of connection points: 4
#     Node 1, Type 0, BuildingBlock: GALJAG_clean_sbu_0, # of connection points: 4
#     Node 2, Type 0, BuildingBlock: GALJAG_clean_sbu_0, # of connection points: 4
#     Node 3, Type 0, BuildingBlock: GALJAG_clean_sbu_0, # of connection points: 4
#     Node 4, Type 0, BuildingBlock: GALJAG_clean_sbu_0, # of connection points: 4
#     Node 5, Type 0, BuildingBlock: GALJAG_clean_sbu_0, # of connection points: 4
#     Node 6, Type 0, BuildingBlock: GALJAG_clean_sbu_0, # of connection points: 4
#     Node 7, Type 0, BuildingBlock: GALJAG_clean_sbu_0, # of connection points: 4
#     Node 8, Type 0, BuildingBlock: GALJAG_clean_sbu_0, # of connection points: 4
#     Node 9, Type 0, BuildingBlock: GALJAG_clean_sbu_0, # of connection points: 4
#     Node 10, Type 0, BuildingBlock: GALJAG_clean_sbu_0, # of connection points: 4
#     Node 11, Type 0, BuildingBlock: GALJAG_clean_sbu_0, # of connection points: 4
#     Node 12, Type 0, BuildingBlock: GALJAG_clean_sbu_0, # of connection points: 4
#     Node 13, Type 0, BuildingBlock: GALJAG_clean_sbu_0, # of connection points: 4
#     Node 14, Type 0, BuildingBlock: GALJAG_clean_sbu_0, # of connection points: 4
#     Node 15, Type 0, BuildingBlock: GALJAG_clean_sbu_0, # of connection points: 4
#     Node 16, Type 0, BuildingBlock: GALJAG_clean_sbu_0, # of connection points: 4
#     Node 17, Type 0, BuildingBlock: GALJAG_clean_sbu_0, # of connection points: 4
#     Node 18, Type 0, BuildingBlock: GALJAG_clean_sbu_0, # of connection points: 4
#     Node 19, Type 0, BuildingBlock: GALJAG_clean_sbu_0, # of connection points: 4
#     Node 20, Type 0, BuildingBlock: GALJAG_clean_sbu_0, # of connection points: 4
#     Node 21, Type 0, BuildingBlock: GALJAG_clean_sbu_0, # of connection points: 4
#     Node 22, Type 0, BuildingBlock: GALJAG_clean_sbu_0, # of connection points: 4
#     Node 23, Type 0, BuildingBlock: GALJAG_clean_sbu_0, # of connection points: 4
#     Node 24, Type 0, BuildingBlock: GALJAG_clean_sbu_0, # of connection points: 4
#     Node 25, Type 0, BuildingBlock: GALJAG_clean_sbu_0, # of connection points: 4
#     Node 26, Type 0, BuildingBlock: GALJAG_clean_sbu_0, # of connection points: 4
#     Node 27, Type 0, BuildingBlock: GALJAG_clean_sbu_0, # of connection points: 4
#     Node 28, Type 0, BuildingBlock: GALJAG_clean_sbu_0, # of connection points: 4
#     Node 29, Type 0, BuildingBlock: GALJAG_clean_sbu_0, # of connection points: 4
#     Node 30, Type 0, BuildingBlock: GALJAG_clean_sbu_0, # of connection points: 4
#     Node 31, Type 0, BuildingBlock: GALJAG_clean_sbu_0, # of connection points: 4
#     Node 32, Type 0, BuildingBlock: GALJAG_clean_sbu_0, # of connection points: 4
#     Node 33, Type 0, BuildingBlock: GALJAG_clean_sbu_0, # of connection points: 4
#     Node 34, Type 0, BuildingBlock: GALJAG_clean_sbu_0, # of connection points: 4
#     Node 35, Type 0, BuildingBlock: GALJAG_clean_sbu_0, # of connection points: 4
#     Edge 36, Type (0, 0), BuildingBlock: XIVTED_clean_linker_0, # of connection points: 2
#     Edge 37, Type (0, 0), BuildingBlock: XIVTED_clean_linker_0, # of connection points: 2
#     Edge 38, Type (0, 0), BuildingBlock: XIVTED_clean_linker_0, # of connection points: 2
#     Edge 39, Type (0, 0), BuildingBlock: XIVTED_clean_linker_0, # of connection points: 2
#     Edge 40, Type (0, 0), BuildingBlock: XIVTED_clean_linker_0, # of connection points: 2
#     Edge 41, Type (0, 0), BuildingBlock: XIVTED_clean_linker_0, # of connection points: 2
#     Edge 42, Type (0, 0), BuildingBlock: XIVTED_clean_linker_0, # of connection points: 2
#     Edge 43, Type (0, 0), BuildingBlock: XIVTED_clean_linker_0, # of connection points: 2
#     Edge 44, Type (0, 0), BuildingBlock: XIVTED_clean_linker_0, # of connection points: 2
#     Edge 45, Type (0, 0), BuildingBlock: XIVTED_clean_linker_0, # of connection points: 2
#     Edge 46, Type (0, 0), BuildingBlock: XIVTED_clean_linker_0, # of connection points: 2
#     Edge 47, Type (0, 0), BuildingBlock: XIVTED_clean_linker_0, # of connection points: 2
#     Edge 48, Type (0, 0), BuildingBlock: XIVTED_clean_linker_0, # of connection points: 2
#     Edge 49, Type (0, 0), BuildingBlock: XIVTED_clean_linker_0, # of connection points: 2
#     Edge 50, Type (0, 0), BuildingBlock: XIVTED_clean_linker_0, # of connection points: 2
#     Edge 51, Type (0, 0), BuildingBlock: XIVTED_clean_linker_0, # of connection points: 2
#     Edge 52, Type (0, 0), BuildingBlock: XIVTED_clean_linker_0, # of connection points: 2
#     Edge 53, Type (0, 0), BuildingBlock: XIVTED_clean_linker_0, # of connection points: 2
#     Edge 54, Type (0, 0), BuildingBlock: XIVTED_clean_linker_0, # of connection points: 2
#     Edge 55, Type (0, 0), BuildingBlock: XIVTED_clean_linker_0, # of connection points: 2
#     Edge 56, Type (0, 0), BuildingBlock: XIVTED_clean_linker_0, # of connection points: 2
#     Edge 57, Type (0, 0), BuildingBlock: XIVTED_clean_linker_0, # of connection points: 2
#     Edge 58, Type (0, 0), BuildingBlock: XIVTED_clean_linker_0, # of connection points: 2
#     Edge 59, Type (0, 0), BuildingBlock: XIVTED_clean_linker_0, # of connection points: 2
#     Edge 60, Type (0, 0), BuildingBlock: XIVTED_clean_linker_0, # of connection points: 2
#     Edge 61, Type (0, 0), BuildingBlock: XIVTED_clean_linker_0, # of connection points: 2
#     Edge 62, Type (0, 0), BuildingBlock: XIVTED_clean_linker_0, # of connection points: 2
#     Edge 63, Type (0, 0), BuildingBlock: XIVTED_clean_linker_0, # of connection points: 2
#     Edge 64, Type (0, 0), BuildingBlock: XIVTED_clean_linker_0, # of connection points: 2
#     Edge 65, Type (0, 0), BuildingBlock: XIVTED_clean_linker_0, # of connection points: 2
#     Edge 66, Type (0, 0), BuildingBlock: XIVTED_clean_linker_0, # of connection points: 2
#     Edge 67, Type (0, 0), BuildingBlock: XIVTED_clean_linker_0, # of connection points: 2
#     Edge 68, Type (0, 0), BuildingBlock: XIVTED_clean_linker_0, # of connection points: 2
#     Edge 69, Type (0, 0), BuildingBlock: XIVTED_clean_linker_0, # of connection points: 2
#     Edge 70, Type (0, 0), BuildingBlock: XIVTED_clean_linker_0, # of connection points: 2
#     Edge 71, Type (0, 0), BuildingBlock: XIVTED_clean_linker_0, # of connection points: 2
#     Edge 72, Type (0, 0), BuildingBlock: XIVTED_clean_linker_0, # of connection points: 2
#     Edge 73, Type (0, 0), BuildingBlock: XIVTED_clean_linker_0, # of connection points: 2
#     Edge 74, Type (0, 0), BuildingBlock: XIVTED_clean_linker_0, # of connection points: 2
#     Edge 75, Type (0, 0), BuildingBlock: XIVTED_clean_linker_0, # of connection points: 2
#     Edge 76, Type (0, 0), BuildingBlock: XIVTED_clean_linker_0, # of connection points: 2
#     Edge 77, Type (0, 0), BuildingBlock: XIVTED_clean_linker_0, # of connection points: 2
#     Edge 78, Type (0, 0), BuildingBlock: XIVTED_clean_linker_0, # of connection points: 2
#     Edge 79, Type (0, 0), BuildingBlock: XIVTED_clean_linker_0, # of connection points: 2
#     Edge 80, Type (0, 0), BuildingBlock: XIVTED_clean_linker_0, # of connection points: 2
#     Edge 81, Type (0, 0), BuildingBlock: XIVTED_clean_linker_0, # of connection points: 2
#     Edge 82, Type (0, 0), BuildingBlock: XIVTED_clean_linker_0, # of connection points: 2
#     Edge 83, Type (0, 0), BuildingBlock: XIVTED_clean_linker_0, # of connection points: 2
#     Edge 84, Type (0, 0), BuildingBlock: XIVTED_clean_linker_0, # of connection points: 2
#     Edge 85, Type (0, 0), BuildingBlock: XIVTED_clean_linker_0, # of connection points: 2
#     Edge 86, Type (0, 0), BuildingBlock: XIVTED_clean_linker_0, # of connection points: 2
#     Edge 87, Type (0, 0), BuildingBlock: XIVTED_clean_linker_0, # of connection points: 2
#     Edge 88, Type (0, 0), BuildingBlock: XIVTED_clean_linker_0, # of connection points: 2
#     Edge 89, Type (0, 0), BuildingBlock: XIVTED_clean_linker_0, # of connection points: 2
#     Edge 90, Type (0, 0), BuildingBlock: XIVTED_clean_linker_0, # of connection points: 2
#     Edge 91, Type (0, 0), BuildingBlock: XIVTED_clean_linker_0, # of connection points: 2
#     Edge 92, Type (0, 0), BuildingBlock: XIVTED_clean_linker_0, # of connection points: 2
#     Edge 93, Type (0, 0), BuildingBlock: XIVTED_clean_linker_0, # of connection points: 2
#     Edge 94, Type (0, 0), BuildingBlock: XIVTED_clean_linker_0, # of connection points: 2
#     Edge 95, Type (0, 0), BuildingBlock: XIVTED_clean_linker_0, # of connection points: 2
#     Edge 96, Type (0, 0), BuildingBlock: XIVTED_clean_linker_0, # of connection points: 2
#     Edge 97, Type (0, 0), BuildingBlock: XIVTED_clean_linker_0, # of connection points: 2
#     Edge 98, Type (0, 0), BuildingBlock: XIVTED_clean_linker_0, # of connection points: 2
#     Edge 99, Type (0, 0), BuildingBlock: XIVTED_clean_linker_0, # of connection points: 2
#     Edge 100, Type (0, 0), BuildingBlock: XIVTED_clean_linker_0, # of connection points: 2
#     Edge 101, Type (0, 0), BuildingBlock: XIVTED_clean_linker_0, # of connection points: 2
#     Edge 102, Type (0, 0), BuildingBlock: XIVTED_clean_linker_0, # of connection points: 2
#     Edge 103, Type (0, 0), BuildingBlock: XIVTED_clean_linker_0, # of connection points: 2
#     Edge 104, Type (0, 0), BuildingBlock: XIVTED_clean_linker_0, # of connection points: 2
#     Edge 105, Type (0, 0), BuildingBlock: XIVTED_clean_linker_0, # of connection points: 2
#     Edge 106, Type (0, 0), BuildingBlock: XIVTED_clean_linker_0, # of connection points: 2
#     Edge 107, Type (0, 0), BuildingBlock: XIVTED_clean_linker_0, # of connection points: 2
# Relax obj value: 0.387
# Max RMSD: 0.141
# Mean RMSD: 0.140
data_MOF--net-unr--node1-GALJAG_clean_sbu_0--edge1-XIVTED_clean_linker_0
_symmetry_space_group_name_H-M    P1
_symmetry_Int_Tables_number       1
_symmetry_cell_setting            triclinic
loop_
_symmetry_equiv_pos_as_xyz
'x, y, z'
_cell_length_a     50.102055
_cell_length_b     50.087664
_cell_length_c     77.71925
_cell_angle_alpha  89.982135
_cell_angle_beta   90.019603
_cell_angle_gamma 119.99687
loop_
_atom_site_label
_atom_site_type_symbol
_atom_site_fract_x
_atom_site_fract_y
_atom_site_fract_z
_atom_type_partial_charge
In0 In 0.15713 0.04805 0.18508 0.0
O1 O 0.2067 0.07792 0.17607 0.0
O2 O 0.19644 0.0389 0.19132 0.0
C3 C 0.13425 0.07652 0.16538 0.0
C4 C 0.15067 0.06592 0.21677 0.0
C5 C 0.11836 0.98864 0.17671 0.0
O6 O 0.14412 0.05998 0.15896 0.0
O7 O 0.13668 0.07922 0.18148 0.0
O8 O 0.12509 -0.00249 0.19212 0.0
O9 O 0.1319 0.00953 0.16562 0.0
C10 C 0.21673 0.06251 0.18368 0.0
O11 O 0.13273 0.03903 0.21118 0.0
O12 O 0.17171 0.08331 0.20646 0.0
In13 In 0.89516 0.06221 0.1676 0.0
O14 O 0.87479 0.08475 0.18378 0.0
O15 O 0.89624 0.10725 0.16038 0.0
C16 C 0.84579 0.01819 0.1503 0.0
C17 C 0.9057 0.04401 0.19846 0.0
C18 C 0.94874 0.07754 0.15179 0.0
O19 O 0.87182 0.03401 0.14332 0.0
O20 O 0.84435 0.0265 0.16539 0.0
O21 O 0.94195 0.09753 0.1565 0.0
O22 O 0.92833 0.05001 0.1548 0.0
C23 C 0.88297 0.10772 0.17412 0.0
O24 O 0.88792 0.02514 0.18737 0.0
O25 O 0.91898 0.07175 0.1937 0.0
In26 In 0.86263 0.82583 0.19562 0.0
O27 O 0.90264 0.86832 0.20818 0.0
O28 O 0.86317 0.84117 0.22339 0.0
C29 C 0.82514 0.84025 0.17817 0.0
C30 C 0.83121 0.76798 0.20814 0.0
C31 C 0.91015 0.83362 0.17575 0.0
O32 O 0.83131 0.84638 0.19393 0.0
O33 O 0.8374 0.82622 0.17124 0.0
O34 O 0.89858 0.85089 0.17489 0.0
O35 O 0.89646 0.8111 0.18591 0.0
C36 C 0.89038 0.86351 0.22283 0.0
O37 O 0.85907 0.78641 0.21155 0.0
O38 O 0.81925 0.77806 0.19755 0.0
In39 In 0.1468 0.16955 0.36432 0.0
O40 O 0.12641 0.12854 0.34574 0.0
O41 O 0.14947 0.17365 0.33516 0.0
C42 C 0.09032 0.15872 0.37344 0.0
C43 C 0.18255 0.23109 0.36817 0.0
C44 C 0.17305 0.1393 0.37898 0.0
O45 O 0.10199 0.16919 0.35887 0.0
O46 O 0.10715 0.15366 0.38345 0.0
O47 O 0.14827 0.13701 0.38436 0.0
O48 O 0.18582 0.15878 0.36712 0.0
C49 C 0.13565 0.14503 0.33238 0.0
O50 O 0.1858 0.21639 0.35601 0.0
O51 O 0.16264 0.21446 0.37916 0.0
In52 In 0.84704 0.97488 0.35471 0.0
O53 O 0.86645 0.96642 0.32977 0.0
O54 O 0.85942 0.00481 0.33081 0.0
C55 C 0.87026 0.94093 0.36796 0.0
C56 C 0.78496 0.94623 0.35678 0.0
C57 C 0.87591 0.0291 0.37157 0.0
O58 O 0.88464 0.96995 0.36793 0.0
O59 O 0.8441 0.92859 0.36088 0.0
O60 O 0.86786 0.00367 0.37889 0.0
O61 O 0.86706 0.02674 0.35616 0.0
C62 C 0.8683 0.98949 0.3221 0.0
O63 O 0.80202 0.96104 0.36925 0.0
O64 O 0.79919 0.94648 0.34342 0.0
In65 In 0.05668 0.88229 0.34718 0.0
O66 O 0.04994 0.90821 0.32465 0.0
O67 O 0.01394 0.86294 0.33047 0.0
C68 C 0.10698 0.9339 0.35807 0.0
C69 C 0.07814 0.8438 0.33967 0.0
C70 C 0.01304 0.87177 0.37067 0.0
O71 O 0.09727 0.93048 0.34276 0.0
O72 O 0.09174 0.91093 0.36776 0.0
O73 O 0.03712 0.89756 0.36875 0.0
O74 O 0.01171 0.85044 0.36139 0.0
C75 C 0.02305 0.88664 0.32128 0.0
O76 O 0.06791 0.8446 0.35436 0.0
O77 O 0.07718 0.86203 0.32888 0.0
In78 In 0.80797 0.89651 0.82422 0.0
O79 O 0.8468 0.90352 0.80602 0.0
O80 O 0.80115 0.87059 0.79886 0.0
C81 C 0.84758 0.95668 0.8293 0.0
C82 C 0.75039 0.88762 0.82032 0.0
C83 C 0.81649 0.86476 0.84973 0.0
O84 O 0.83431 0.94609 0.81505 0.0
O85 O 0.84035 0.93692 0.84113 0.0
O86 O 0.81339 0.88783 0.8527 0.0
O87 O 0.81322 0.85676 0.83416 0.0
C88 C 0.8294 0.88381 0.79517 0.0
O89 O 0.75549 0.86575 0.82286 0.0
O90 O 0.774 0.9139 0.82083 0.0
In91 In 0.05402 0.90437 0.84683 0.0
O92 O 0.04403 0.91467 0.81958 0.0
O93 O 0.04992 0.94622 0.83938 0.0
C94 C 0.00016 0.8745 0.86417 0.0
C95 C 0.06756 0.86059 0.83838 0.0
C96 C 0.10943 0.95138 0.85614 0.0
O97 O 0.02462 0.89475 0.8713 0.0
O98 O 0.00329 0.86908 0.84872 0.0
O99 O 0.08589 0.94203 0.86564 0.0
O100 O 0.10535 0.9348 0.8431 0.0
C101 C 0.04579 0.93989 0.8236 0.0
O102 O 0.07055 0.87061 0.85363 0.0
O103 O 0.05728 0.87227 0.82774 0.0
In104 In 0.103 0.14596 0.79255 0.0
O105 O 0.0694 0.10386 0.7771 0.0
O106 O 0.09996 0.144 0.76306 0.0
C107 C 0.13973 0.12834 0.80835 0.0
C108 C 0.1328 0.2078 0.78992 0.0
C109 C 0.05097 0.12658 0.81089 0.0
O110 O 0.13099 0.12135 0.79296 0.0
O111 O 0.13095 0.14521 0.81549 0.0
O112 O 0.07209 0.12133 0.81548 0.0
O113 O 0.05656 0.14237 0.79733 0.0
C114 C 0.0776 0.11673 0.76263 0.0
O115 O 0.10806 0.19248 0.79815 0.0
O116 O 0.14323 0.19199 0.78315 0.0
In117 In 0.92926 0.81084 0.66322 0.0
O118 O 0.92994 0.84591 0.68236 0.0
O119 O 0.89866 0.79859 0.68706 0.0
C120 C 0.98933 0.85326 0.66037 0.0
C121 C 0.92068 0.75324 0.66576 0.0
C122 C 0.89965 0.8201 0.63688 0.0
O123 O 0.97743 0.83942 0.67431 0.0
O124 O 0.97109 0.84495 0.64772 0.0
O125 O 0.92356 0.81814 0.63459 0.0
O126 O 0.89021 0.81605 0.6522 0.0
C127 C 0.90913 0.82606 0.69189 0.0
O128 O 0.90039 0.75877 0.66012 0.0
O129 O 0.94607 0.77685 0.66913 0.0
In130 In 0.15336 0.11416 0.6995 0.0
O131 O 0.10831 0.0796 0.71238 0.0
O132 O 0.14548 0.10923 0.7286 0.0
C133 C 0.13438 0.14703 0.68092 0.0
C134 C 0.21368 0.1494 0.70697 0.0
C135 C 0.14281 0.06329 0.68202 0.0
O136 O 0.12654 0.13955 0.6964 0.0
O137 O 0.15268 0.13885 0.67504 0.0
O138 O 0.13756 0.08339 0.67563 0.0
O139 O 0.15442 0.06953 0.69689 0.0
C140 C 0.11834 0.08684 0.72752 0.0
O141 O 0.20223 0.12296 0.70042 0.0
O142 O 0.19492 0.1589 0.70925 0.0
In143 In 0.91201 0.0482 0.63211 0.0
O144 O 0.91705 0.04241 0.66098 0.0
O145 O 0.95218 0.04597 0.64432 0.0
C146 C 0.89009 -0.00634 0.61577 0.0
C147 C 0.86339 0.05685 0.63363 0.0
C148 C 0.9593 0.10418 0.62399 0.0
O149 O 0.91028 0.01861 0.60905 0.0
O150 O 0.88083 -0.00347 0.63034 0.0
O151 O 0.95215 0.08063 0.61485 0.0
O152 O 0.94055 0.09975 0.63598 0.0
C153 C 0.94289 0.044 0.65955 0.0
O154 O 0.87885 0.06152 0.61997 0.0
O155 O 0.87238 0.04764 0.64629 0.0
In156 In 0.81038 0.47206 0.50032 0.0
O157 O 0.85379 0.51433 0.4892 0.0
O158 O 0.85907 0.48614 0.50766 0.0
C159 C 0.76517 0.47904 0.48556 0.0
C160 C 0.79615 0.47255 0.5336 0.0
C161 C 0.79877 0.41673 0.48859 0.0
O162 O 0.77642 0.4642 0.47861 0.0
O163 O 0.77857 0.49262 0.49921 0.0
O164 O 0.79678 0.42183 0.50434 0.0
O165 O 0.80726 0.43975 0.47882 0.0
C166 C 0.87198 0.50969 0.49829 0.0
O167 O 0.78822 0.44774 0.52556 0.0
O168 O 0.81095 0.49682 0.5248 0.0
In169 In 0.48891 0.32375 0.5137 0.0
O170 O 0.47016 0.35069 0.52734 0.0
O171 O 0.45328 0.335 0.50217 0.0
C172 C 0.46884 0.27416 0.49289 0.0
C173 C 0.49304 0.30613 0.54593 0.0
C174 C 0.5457 0.36533 0.50223 0.0
O175 O 0.48087 0.30132 0.48718 0.0
O176 O 0.46498 0.27196 0.50897 0.0
O177 O 0.52708 0.37322 0.5079 0.0
O178 O 0.536 0.33679 0.50276 0.0
C179 C 0.4529 0.34963 0.51531 0.0
O180 O 0.51647 0.32511 0.5375 0.0
O181 O 0.46783 0.29564 0.53795 0.0
In182 In 0.61157 0.15088 0.46809 0.0
O183 O 0.62321 0.11256 0.46501 0.0
O184 O 0.59173 0.11346 0.44724 0.0
C185 C 0.66783 0.19985 0.46131 0.0
C186 C 0.60881 0.15052 0.50277 0.0
C187 C 0.56276 0.15826 0.46153 0.0
O188 O 0.64425 0.19413 0.45266 0.0
O189 O 0.66328 0.17989 0.47253 0.0
O190 O 0.56213 0.13966 0.4727 0.0
O191 O 0.58776 0.17249 0.45329 0.0
C192 C 0.60551 0.09976 0.45246 0.0
O193 O 0.6177 0.17466 0.49395 0.0
O194 O 0.60052 0.12633 0.49408 0.0
In195 In 0.80386 0.48382 0.69471 0.0
O196 O 0.779 0.45704 0.67056 0.0
O197 O 0.8056 0.50583 0.66875 0.0
C198 C 0.75037 0.47001 0.71006 0.0
C199 C 0.84867 0.54114 0.70362 0.0
C200 C 0.818 0.43875 0.69889 0.0
O201 O 0.75751 0.48147 0.69516 0.0
O202 O 0.77049 0.46583 0.71741 0.0
O203 O 0.80302 0.44426 0.70998 0.0
O204 O 0.82787 0.45754 0.68656 0.0
C205 C 0.78888 0.4806 0.66113 0.0
O206 O 0.85367 0.52396 0.69394 0.0
O207 O 0.82198 0.52833 0.70991 0.0
In208 In 0.49326 0.27314 0.7078 0.0
O209 O 0.46936 0.26397 0.68176 0.0
O210 O 0.51827 0.28666 0.68189 0.0
C211 C 0.50959 0.22974 0.71233 0.0
C212 C 0.43817 0.25803 0.72184 0.0
C213 C 0.53582 0.32842 0.72037 0.0
O214 O 0.48953 0.22693 0.70156 0.0
O215 O 0.52108 0.25422 0.72106 0.0
O216 O 0.52718 0.30362 0.72849 0.0
O217 O 0.52214 0.32535 0.70626 0.0
C218 C 0.49392 0.276 0.67307 0.0
O219 O 0.45392 0.28246 0.71342 0.0
O220 O 0.45085 0.24198 0.72384 0.0
In221 In 0.68581 0.16419 0.65806 0.0
O222 O 0.67328 0.1847 0.6354 0.0
O223 O 0.65912 0.13682 0.63469 0.0
C224 C 0.72662 0.22224 0.66787 0.0
C225 C 0.71864 0.1353 0.65398 0.0
C226 C 0.63754 0.14719 0.67976 0.0
O227 O 0.71544 0.21576 0.65288 0.0
O228 O 0.71723 0.19948 0.67788 0.0
O229 O 0.66509 0.16082 0.68483 0.0
O230 O 0.6343 0.14057 0.66401 0.0
C231 C 0.65979 0.15954 0.62717 0.0
O232 O 0.69622 0.12524 0.6643 0.0
O233 O 0.72446 0.15969 0.6463 0.0
In234 In 0.50211 0.18921 0.20414 0.0
O235 O 0.51788 0.21168 0.17776 0.0
O236 O 0.48862 0.16284 0.17906 0.0
C237 C 0.52396 0.2441 0.21982 0.0
C238 C 0.44076 0.15854 0.2092 0.0
C239 C 0.54474 0.17404 0.21343 0.0
O240 O 0.51868 0.24062 0.20384 0.0
O241 O 0.51839 0.21995 0.22784 0.0
O242 O 0.5256 0.17367 0.22414 0.0
O243 O 0.54131 0.18064 0.19829 0.0
C244 C 0.50356 0.18638 0.1697 0.0
O245 O 0.45643 0.14523 0.21075 0.0
O246 O 0.45633 0.18696 0.20612 0.0
In247 In 0.82445 0.31186 0.20575 0.0
O248 O 0.86707 0.30722 0.20158 0.0
O249 O 0.83222 0.27509 0.21808 0.0
C250 C 0.84562 0.36545 0.22325 0.0
C251 C 0.82175 0.32206 0.17188 0.0
C252 C 0.76523 0.2703 0.21297 0.0
O253 O 0.83669 0.34008 0.23076 0.0
O254 O 0.84522 0.36386 0.2071 0.0
O255 O 0.78015 0.26639 0.20112 0.0
O256 O 0.78003 0.29543 0.22104 0.0
C257 C 0.85726 0.2831 0.21046 0.0
O258 O 0.8007 0.31831 0.18222 0.0
O259 O 0.84401 0.32092 0.17867 0.0
In260 In 0.71374 0.50218 0.24298 0.0
O261 O 0.70122 0.53932 0.24839 0.0
O262 O 0.74495 0.54778 0.2566 0.0
C263 C 0.66003 0.45521 0.25486 0.0
C264 C 0.70685 0.49846 0.20845 0.0
C265 C 0.76152 0.49273 0.24786 0.0
O266 O 0.68583 0.46032 0.26038 0.0
O267 O 0.66147 0.4751 0.24443 0.0
O268 O 0.75726 0.50323 0.234 0.0
O269 O 0.74181 0.48735 0.25949 0.0
C270 C 0.72693 0.55824 0.25475 0.0
O271 O 0.69891 0.4751 0.2178 0.0
O272 O 0.7193 0.52376 0.21643 0.0
In273 In 0.50152 0.16493 0.00719 0.0
O274 O 0.48466 0.13146 0.9847 0.0
O275 O 0.45916 0.1169 0.00786 0.0
C276 C 0.48614 0.20854 1.00087 0.0
C277 C 0.50874 0.16999 0.04154 0.0
C278 C 0.55691 0.17336 0.99768 0.0
O279 O 0.50825 0.20797 0.99357 0.0
O280 O 0.47014 0.18565 0.0104 0.0
O281 O 0.54342 0.15905 0.0112 0.0
O282 O 0.54259 0.1836 0.98909 0.0
C283 C 0.46304 0.10982 0.9929 0.0
O284 O 0.4912 0.14473 0.03412 0.0
O285 O 0.52334 0.1927 0.03157 0.0
In286 In 0.81181 0.35216 0.00995 0.0
O287 O 0.85976 0.35906 0.00538 0.0
O288 O 0.84343 0.38057 0.98818 0.0
C289 C 0.77273 0.29593 0.99667 0.0
C290 C 0.8143 0.34661 0.04428 0.0
C291 C 0.79425 0.39492 0.00938 0.0
O292 O 0.78098 0.32062 0.98859 0.0
O293 O 0.78524 0.29952 0.01117 0.0
O294 O 0.81918 0.39987 0.01617 0.0
O295 O 0.77809 0.36835 0.00305 0.0
C296 C 0.86529 0.37651 0.99257 0.0
O297 O 0.79057 0.34349 0.03673 0.0
O298 O 0.83668 0.35237 0.03449 0.0
In299 In 0.61924 0.47426 0.05326 0.0
O300 O 0.62324 0.45315 0.07825 0.0
O301 O 0.63914 0.5015 0.07788 0.0
C302 C 0.579 0.41775 0.0408 0.0
C303 C 0.59015 0.50639 0.04794 0.0
C304 C 0.67285 0.48844 0.03751 0.0
O305 O 0.57982 0.42427 0.05653 0.0
O306 O 0.59882 0.43927 0.03167 0.0
O307 O 0.64921 0.48377 0.0293 0.0
O308 O 0.66983 0.48731 0.0536 0.0
C309 C 0.63545 0.47837 0.08643 0.0
O310 O 0.57979 0.48315 0.05757 0.0
O311 O 0.61634 0.51472 0.04161 0.0
In312 In 0.48768 0.82177 0.77679 0.0
O313 O 0.53731 0.86254 0.77714 0.0
O314 O 0.53 0.81916 0.76899 0.0
C315 C 0.4571 0.84166 0.75654 0.0
C316 C 0.47269 0.82671 0.80949 0.0
C317 C 0.4626 0.76027 0.7743 0.0
O318 O 0.46844 0.82597 0.75076 0.0
O319 O 0.46379 0.84958 0.772 0.0
O320 O 0.47815 0.77547 0.78718 0.0
O321 O 0.45979 0.77615 0.76257 0.0
C322 C 0.54921 0.84662 0.77272 0.0
O323 O 0.45458 0.80541 0.79956 0.0
O324 O 0.49842 0.8455 0.80297 0.0
In325 In 0.19155 0.70996 0.78353 0.0
O326 O 0.15859 0.72863 0.77914 0.0
O327 O 0.17967 0.73486 0.80369 0.0
C328 C 0.15741 0.6602 0.76361 0.0
C329 C 0.20218 0.68429 0.8115 0.0
C330 C 0.24445 0.74786 0.76676 0.0
O331 O 0.18326 0.68213 0.75894 0.0
O332 O 0.14732 0.66541 0.77733 0.0
O333 O 0.23742 0.7212 0.77174 0.0
O334 O 0.22494 0.75591 0.77037 0.0
C335 C 0.16151 0.7389 0.7943 0.0
O336 O 0.21798 0.71282 0.80847 0.0
O337 O 0.18188 0.66921 0.80042 0.0
In338 In 0.25208 0.49585 0.79683 0.0
O339 O 0.25425 0.45512 0.78495 0.0
O340 O 0.21202 0.44733 0.79595 0.0
C341 C 0.30687 0.54367 0.78751 0.0
C342 C 0.26508 0.4946 0.83035 0.0
C343 C 0.21262 0.51232 0.78359 0.0
O344 O 0.29221 0.52079 0.77765 0.0
O345 O 0.29381 0.54223 0.80159 0.0
O346 O 0.21231 0.50565 0.7993 0.0
O347 O 0.23286 0.51083 0.77469 0.0
C348 C 0.22646 0.43604 0.7885 0.0
O349 O 0.24912 0.50618 0.82516 0.0
O350 O 0.27339 0.48274 0.8187 0.0
In351 In 0.41287 0.84192 0.96625 0.0
O352 O 0.44752 0.89341 0.96992 0.0
O353 O 0.40222 0.87577 0.97948 0.0
C354 C 0.44363 0.81568 0.98057 0.0
C355 C 0.41923 0.83969 0.93203 0.0
C356 C 0.35177 0.80776 0.97125 0.0
O357 O 0.4252 0.82078 0.98902 0.0
O358 O 0.44777 0.8254 0.96536 0.0
O359 O 0.36318 0.82415 0.95798 0.0
O360 O 0.37117 0.80798 0.9817 0.0
C361 C 0.42828 0.89899 0.97708 0.0
O362 O 0.40169 0.81606 0.94079 0.0
O363 O 0.43297 0.8645 0.94049 0.0
In364 In 0.13942 0.57539 0.95847 0.0
O365 O 0.08853 0.55061 0.95063 0.0
O366 O 0.09996 0.54544 0.9762 0.0
C367 C 0.1546 0.63133 0.97107 0.0
C368 C 0.16435 0.59027 0.92675 0.0
C369 C 0.16575 0.54417 0.97131 0.0
O370 O 0.13967 0.62121 0.95724 0.0
O371 O 0.16003 0.6125 0.97884 0.0
O372 O 0.15074 0.53643 0.95741 0.0
O373 O 0.16816 0.56796 0.97828 0.0
C374 C 0.07919 0.53801 0.9651 0.0
O375 O 0.13748 0.5681 0.92947 0.0
O376 O 0.179 0.60428 0.94009 0.0
In377 In 0.38939 0.55161 0.97823 0.0
O378 O 0.43465 0.55118 0.97648 0.0
O379 O 0.40539 0.52894 0.99777 0.0
C380 C 0.33338 0.51808 0.99248 0.0
C381 C 0.36862 0.54185 0.9455 0.0
C382 C 0.41754 0.61251 0.98502 0.0
O383 O 0.35264 0.54495 0.99744 0.0
O384 O 0.34305 0.50739 0.98089 0.0
O385 O 0.42284 0.60195 0.97151 0.0
O386 O 0.39802 0.59238 0.99499 0.0
C387 C 0.43075 0.53706 0.99049 0.0
O388 O 0.36768 0.56149 0.95525 0.0
O389 O 0.38126 0.52779 0.95202 0.0
In390 In 0.15766 0.62692 0.49332 0.0
O391 O 0.18909 0.62436 0.47297 0.0
O392 O 0.14076 0.59789 0.46884 0.0
C393 C 0.19814 0.68803 0.49524 0.0
C394 C 0.10043 0.61806 0.49849 0.0
C395 C 0.17231 0.59341 0.51452 0.0
O396 O 0.18927 0.67078 0.50829 0.0
O397 O 0.18544 0.67473 0.48135 0.0
O398 O 0.18234 0.62182 0.51666 0.0
O399 O 0.15385 0.58161 0.50209 0.0
C400 C 0.16741 0.60565 0.46342 0.0
O401 O 0.11408 0.61046 0.50936 0.0
O402 O 0.11598 0.63101 0.48524 0.0
In403 In 0.38545 0.55888 0.51626 0.0
O404 O 0.3804 0.51496 0.50492 0.0
O405 O 0.39377 0.52452 0.53123 0.0
C406 C 0.43994 0.60697 0.52579 0.0
C407 C 0.3897 0.58961 0.48697 0.0
C408 C 0.32947 0.54325 0.52887 0.0
O409 O 0.41516 0.59986 0.53366 0.0
O410 O 0.43752 0.58733 0.51483 0.0
O411 O 0.33343 0.53496 0.51422 0.0
O412 O 0.35383 0.5587 0.53753 0.0
C413 C 0.38775 0.50656 0.51856 0.0
O414 O 0.39242 0.56586 0.48719 0.0
O415 O 0.38274 0.5964 0.50124 0.0
In416 In 0.45374 0.81659 0.45495 0.0
O417 O 0.47376 0.86008 0.43839 0.0
O418 O 0.50013 0.86032 0.4597 0.0
C419 C 0.40867 0.82035 0.47212 0.0
C420 C 0.42141 0.77726 0.42929 0.0
C421 C 0.47994 0.78903 0.47236 0.0
O422 O 0.42242 0.8072 0.47819 0.0
O423 O 0.41858 0.83287 0.45769 0.0
O424 O 0.47141 0.8062 0.47942 0.0
O425 O 0.47609 0.78633 0.45623 0.0
C426 C 0.49796 0.87495 0.44712 0.0
O427 O 0.44831 0.79976 0.42707 0.0
O428 O 0.41169 0.77385 0.44453 0.0
In429 In 0.21279 0.48843 0.32913 0.0
O430 O 0.19266 0.44444 0.34502 0.0
O431 O 0.22215 0.44867 0.32442 0.0
C432 C 0.18015 0.48694 0.30104 0.0
C433 C 0.20187 0.51205 0.35773 0.0
C434 C 0.26916 0.53607 0.32205 0.0
O435 O 0.20545 0.48734 0.30005 0.0
O436 O 0.16988 0.4838 0.31616 0.0
O437 O 0.26539 0.51149 0.32885 0.0
O438 O 0.24465 0.5365 0.31906 0.0
C439 C 0.20628 0.43292 0.33702 0.0
O440 O 0.2279 0.51512 0.35439 0.0
O441 O 0.18121 0.49677 0.34675 0.0
In442 In 0.49439 0.77712 0.36221 0.0
O443 O 0.47699 0.76771 0.39012 0.0
O444 O 0.48897 0.73699 0.37812 0.0
C445 C 0.47758 0.8172 0.35073 0.0
C446 C 0.55607 0.81115 0.36206 0.0
C447 C 0.45699 0.73045 0.34147 0.0
O448 O 0.47122 0.80608 0.36579 0.0
O449 O 0.49371 0.80927 0.34199 0.0
O450 O 0.44867 0.74709 0.34932 0.0
O451 O 0.48473 0.73749 0.34384 0.0
C452 C 0.4784 0.74326 0.39125 0.0
O453 O 0.54109 0.79195 0.35036 0.0
O454 O 0.53991 0.81291 0.37397 0.0
In455 In 0.24503 0.72662 0.3102 0.0
O456 O 0.2164 0.74702 0.30024 0.0
O457 O 0.20995 0.73125 0.32627 0.0
C458 C 0.29577 0.78179 0.30506 0.0
C459 C 0.27298 0.7108 0.33466 0.0
C460 C 0.21397 0.67559 0.29073 0.0
O461 O 0.28712 0.76006 0.29427 0.0
O462 O 0.27736 0.77622 0.31739 0.0
O463 O 0.23796 0.69911 0.28525 0.0
O464 O 0.206 0.67811 0.30574 0.0
C465 C 0.20247 0.74347 0.31438 0.0
O466 O 0.24986 0.71371 0.33787 0.0
O467 O 0.28062 0.71398 0.31904 0.0
H468 H 0.10156 0.05223 0.1358 0.0
H469 H 0.00221 0.13273 0.15472 0.0
H470 H 0.12476 0.12399 0.17331 0.0
H471 H 0.96558 0.04026 0.13525 0.0
H472 H 0.05446 0.14122 0.15098 0.0
H473 H 0.05995 0.06018 0.12518 0.0
C474 C 0.09861 0.07042 0.14137 0.0
C475 C 0.11609 0.08711 0.15564 0.0
C476 C 0.03496 0.11938 0.1471 0.0
C477 C 0.06882 0.0962 0.14366 0.0
C478 C 0.00519 0.11454 0.14918 0.0
C479 C 0.97966 0.08552 0.14565 0.0
C480 C 0.03904 0.09509 0.14132 0.0
C481 C 0.98473 0.06278 0.13844 0.0
C482 C 0.0748 0.07481 0.13538 0.0
C483 C 0.11136 0.11032 0.16245 0.0
N484 N 0.01389 0.06789 0.13675 0.0
N485 N 0.08782 0.11389 0.15657 0.0
H486 H 0.85181 0.98566 0.12371 0.0
H487 H 0.78477 0.85749 0.18993 0.0
H488 H 0.789 0.97872 0.16367 0.0
H489 H 0.83014 0.85316 0.14378 0.0
H490 H 0.77114 0.89211 0.17537 0.0
H491 H 0.82904 0.92984 0.12426 0.0
C492 C 0.83228 0.9723 0.13208 0.0
C493 C 0.8233 0.98689 0.1443 0.0
C494 C 0.78336 0.88302 0.16819 0.0
C495 C 0.79786 0.92321 0.1454 0.0
C496 C 0.79117 0.86326 0.17655 0.0
C497 C 0.80935 0.85327 0.16818 0.0
C498 C 0.79485 0.89376 0.15157 0.0
C499 C 0.81657 0.8609 0.15078 0.0
C500 C 0.81939 0.9403 0.1325 0.0
C501 C 0.79745 0.9684 0.15451 0.0
N502 N 0.81016 0.88152 0.14319 0.0
N503 N 0.78635 0.93755 0.15531 0.0
H504 H 0.08901 0.9695 0.14581 0.0
H505 H 0.95179 0.81823 0.18784 0.0
H506 H 0.09003 0.93747 0.19722 0.0
H507 H 0.94003 0.87378 0.14949 0.0
H508 H 0.00768 0.84899 0.18389 0.0
H509 H 0.04022 0.92205 0.14039 0.0
C510 C 0.07941 0.95211 0.1558 0.0
C511 C 0.09319 0.95761 0.17212 0.0
C512 C -0.00724 0.85374 0.17596 0.0
C513 C 0.0377 0.90343 0.16593 0.0
C514 C 0.96088 0.83607 0.17808 0.0
C515 C 0.94141 0.84395 0.1692 0.0
C516 C 0.005 0.87909 0.16474 0.0
C517 C 0.95437 0.86732 0.15677 0.0
C518 C 0.05158 0.92512 0.15269 0.0
C519 C 0.07985 0.9343 0.18456 0.0
N520 N 0.98546 0.88446 0.1551 0.0
N521 N 0.05257 0.90834 0.18129 0.0
H522 H 0.21268 0.12731 0.361 0.0
H523 H 0.11798 0.95306 0.39153 0.0
H524 H 0.14982 0.09496 0.404 0.0
H525 H 0.14961 0.98349 0.33976 0.0
H526 H 0.14844 0.0065 0.40145 0.0
H527 H 0.20922 0.07695 0.35942 0.0
C528 C 0.19913 0.11005 0.37057 0.0
C529 C 0.18076 0.11494 0.38234 0.0
C530 C 0.14937 0.00129 0.38801 0.0
C531 C 0.17659 0.05743 0.38047 0.0
C532 C 0.13208 0.97085 0.38234 0.0
C533 C 0.13082 0.96406 0.36474 0.0
C534 C 0.16567 0.02489 0.37601 0.0
C535 C 0.14955 0.9879 0.35339 0.0
C536 C 0.19701 0.08125 0.36956 0.0
C537 C 0.16382 0.09186 0.39449 0.0
N538 N 0.16589 0.01737 0.35918 0.0
N539 N 0.16156 0.06378 0.393 0.0
H540 H 0.90742 0.03884 0.40182 0.0
H541 H 0.05166 0.17171 0.35517 0.0
H542 H 0.90272 0.08589 0.35642 0.0
H543 H 0.05646 0.12697 0.40155 0.0
H544 H -0.00345 0.15042 0.35992 0.0
H545 H 0.9598 0.08087 0.40692 0.0
C546 C 0.91699 0.05854 0.39326 0.0
C547 C 0.90111 0.05844 0.37836 0.0
C548 C 0.00969 0.14567 0.36925 0.0
C549 C 0.96125 0.10615 0.38385 0.0
C550 C 0.04116 0.15776 0.3665 0.0
C551 C 0.05843 0.15045 0.37777 0.0
C552 C -0.0047 0.12572 0.38322 0.0
C553 C 0.04383 0.13273 0.3924 0.0
C554 C 0.94705 0.08246 0.3961 0.0
C555 C 0.91447 0.08471 0.36784 0.0
N556 N 0.01296 0.12044 0.39452 0.0
N557 N 0.94411 0.10714 0.37051 0.0
H558 H 0.91692 0.96071 0.39105 0.0
H559 H 0.95235 0.83035 0.36451 0.0
H560 H 0.85485 0.88121 0.361 0.0
H561 H 0.01201 0.90946 0.39549 0.0
H562 H 0.90987 0.83995 0.37017 0.0
H563 H 0.94504 0.93474 0.39938 0.0
C564 C 0.90903 0.93757 0.38636 0.0
C565 C 0.88404 0.9233 0.37501 0.0
C566 C 0.93199 0.85465 0.37618 0.0
C567 C 0.91639 0.89354 0.38426 0.0
C568 C 0.95618 0.84898 0.3731 0.0
C569 C 0.98584 0.86964 0.37922 0.0
C570 C 0.93775 0.88117 0.38538 0.0
C571 C -0.01042 0.89338 0.39025 0.0
C572 C 0.92501 0.92266 0.39118 0.0
C573 C 0.87433 0.89312 0.36959 0.0
N574 N 0.96599 0.89893 0.39266 0.0
N575 N 0.89098 0.87944 0.37396 0.0
H576 H 0.81689 0.8106 0.84874 0.0
H577 H 0.98175 0.89992 0.88945 0.0
H578 H 0.85134 0.89467 0.87791 0.0
H579 H 0.94826 0.8212 0.85583 0.0
H580 H 0.92843 0.88715 0.8948 0.0
H581 H 0.85699 0.80257 0.86123 0.0
C582 C 0.83225 0.82681 0.85826 0.0
C583 C 0.83141 0.85377 0.86194 0.0
C584 C 0.93269 0.87211 0.88668 0.0
C585 C 0.87809 0.84543 0.87575 0.0
C586 C 0.96312 0.87931 0.8837 0.0
C587 C 0.96929 0.86199 0.87184 0.0
C588 C 0.90854 0.8475 0.87769 0.0
C589 C 0.94441 0.83552 0.86476 0.0
C590 C 0.85532 0.82235 0.86532 0.0
C591 C 0.85156 0.87382 0.87452 0.0
N592 N 0.91516 0.82942 0.86753 0.0
N593 N 0.87477 0.86978 0.88057 0.0
H594 H 0.14909 0.12995 0.84305 0.0
H595 H 0.1597 0.97853 0.83508 0.0
H596 H 0.16172 0.0919 0.796 0.0
H597 H 0.11567 -0.00143 0.87678 0.0
H598 H 0.18406 0.0323 0.82605 0.0
H599 H 0.15933 0.09435 0.85949 0.0
C600 C 0.15495 0.11476 0.83618 0.0
C601 C 0.15386 0.11332 0.81814 0.0
C602 C 0.16994 0.02517 0.83755 0.0
C603 C 0.16562 0.07275 0.83685 0.0
C604 C 0.1562 -0.0055 0.84282 0.0
C605 C 0.13461 0.98382 0.85628 0.0
C606 C 0.16206 0.04513 0.84587 0.0
C607 C 0.13149 0.00567 0.86603 0.0
C608 C 0.16076 0.09446 0.84558 0.0
C609 C 0.16182 0.09339 0.8099 0.0
N610 N 0.14428 0.03519 0.86031 0.0
N611 N 0.16684 0.07347 0.81933 0.0
H612 H 0.86206 0.00499 0.80776 0.0
H613 H 0.03279 0.09089 0.83988 0.0
H614 H 0.89061 0.98104 0.85489 0.0
H615 H -0.00081 0.12657 0.80004 0.0
H616 H 0.97971 0.05606 0.84886 0.0
H617 H 0.90982 0.05456 0.80772 0.0
C618 C 0.87816 0.01046 0.81828 0.0
C619 C 0.87275 0.98875 0.83116 0.0
C620 C 0.98393 0.07198 0.8384 0.0
C621 C 0.92767 0.0451 0.83106 0.0
C622 C 0.01425 0.09188 0.83328 0.0
C623 C 0.02027 0.11112 0.81897 0.0
C624 C 0.95957 0.07105 0.82894 0.0
C625 C -0.00451 0.11173 0.81098 0.0
C626 C 0.90543 0.03879 0.81829 0.0
C627 C 0.89413 -0.00293 0.84461 0.0
N628 N 0.96615 0.09147 0.81584 0.0
N629 N 0.92102 0.02436 0.84401 0.0
H630 H 0.92232 0.97865 0.59305 0.0
H631 H 0.84321 0.81552 0.63592 0.0
H632 H 0.83911 0.93897 0.62333 0.0
H633 H 0.9301 0.85596 0.60911 0.0
H634 H 0.83151 0.85178 0.62161 0.0
H635 H 0.91578 0.92713 0.58935 0.0
C636 C 0.90211 0.95895 0.59841 0.0
C637 C 0.88167 0.96302 0.60892 0.0
C638 C 0.8528 0.85227 0.61846 0.0
C639 C 0.87424 0.90434 0.60494 0.0
C640 C 0.8594 0.83143 0.62658 0.0
C641 C 0.888 0.83339 0.62403 0.0
C642 C 0.87537 0.87572 0.60811 0.0
C643 C 0.90797 0.85408 0.61163 0.0
C644 C 0.89844 0.92956 0.59637 0.0
C645 C 0.8558 0.93682 0.61549 0.0
N646 N 0.90171 0.87515 0.60451 0.0
N647 N 0.85315 0.90867 0.61369 0.0
H648 H 0.11311 0.0423 0.6512 0.0
H649 H 0.03488 0.8719 0.68442 0.0
H650 H 0.14557 0.01432 0.69528 0.0
H651 H 0.01453 0.89647 0.63491 0.0
H652 H 0.08162 0.92224 0.68597 0.0
H653 H 0.08354 0.98845 0.64213 0.0
C654 C 0.11459 0.0249 0.65874 0.0
C655 C 0.13125 0.03264 0.6742 0.0
C656 C 0.06732 0.91646 0.67458 0.0
C657 C 0.09714 0.97103 0.6641 0.0
C658 C 0.04062 0.8877 0.67371 0.0
C659 C 0.0206 0.8803 0.65967 0.0
C660 C 0.07366 0.93818 0.66148 0.0
C661 C 0.02924 0.90144 0.64606 0.0
C662 C 0.09767 -0.00587 0.65358 0.0
C663 C 0.1326 0.00927 0.68341 0.0
N664 N 0.05481 0.92973 0.64747 0.0
N665 N 0.11523 0.97942 0.67841 0.0
H666 H 0.00938 0.1129 0.60526 0.0
H667 H 0.09726 0.16989 0.69061 0.0
H668 H 0.98247 0.15391 0.64551 0.0
H669 H 0.13602 0.15109 0.64583 0.0
H670 H 0.06199 0.17685 0.67201 0.0
H671 H 0.06203 0.14009 0.61618 0.0
C672 C 0.01477 0.12863 0.61597 0.0
C673 C -0.00872 0.13017 0.62492 0.0
C674 C 0.07872 0.17201 0.66615 0.0
C675 C 0.05119 0.16055 0.63784 0.0
C676 C 0.09885 0.16798 0.67681 0.0
C677 C 0.11902 0.15915 0.66977 0.0
C678 C 0.07833 0.16646 0.64838 0.0
C679 C 0.12042 0.15738 0.65181 0.0
C680 C 0.04488 0.14401 0.62232 0.0
C681 C -0.00027 0.15129 0.63854 0.0
N682 N 0.09976 0.16018 0.64175 0.0
N683 N 0.0288 0.16484 0.64497 0.0
H684 H 0.57893 0.42776 0.50754 0.0
H685 H 0.72671 0.44121 0.4605 0.0
H686 H 0.5823 0.35332 0.48165 0.0
H687 H 0.73224 0.50242 0.50117 0.0
H688 H 0.67075 0.41827 0.4603 0.0
H689 H 0.63212 0.4631 0.49821 0.0
C690 C 0.59074 0.41898 0.49972 0.0
C691 C 0.57653 0.38755 0.49559 0.0
C692 C 0.68429 0.43724 0.46897 0.0
C693 C 0.63672 0.42771 0.48466 0.0
C694 C 0.71627 0.45055 0.46899 0.0
C695 C 0.73405 0.47323 0.48117 0.0
C696 C 0.67012 0.44676 0.48117 0.0
C697 C 0.7193 0.48461 0.49177 0.0
C698 C 0.62097 0.43911 0.49439 0.0
C699 C 0.59266 0.37731 0.48535 0.0
N700 N 0.68804 0.47079 0.49179 0.0
N701 N 0.62195 0.39731 0.48031 0.0
H702 H 0.44399 0.21372 0.50218 0.0
H703 H 0.56013 0.19998 0.43986 0.0
H704 H 0.49112 0.27676 0.46045 0.0
H705 H 0.5095 0.1348 0.48015 0.0
H706 H 0.52523 0.22063 0.44227 0.0
H707 H 0.4566 0.17696 0.48931 0.0
C708 C 0.45621 0.21945 0.49002 0.0
C709 C 0.46719 0.24862 0.48259 0.0
C710 C 0.52132 0.20137 0.45034 0.0
C711 C 0.48246 0.20705 0.46803 0.0
C712 C 0.54125 0.18957 0.44896 0.0
C713 C 0.53811 0.16613 0.4601 0.0
C714 C 0.49834 0.18988 0.4631 0.0
C715 C 0.51306 0.15326 0.47151 0.0
C716 C 0.46357 0.19851 0.48271 0.0
C717 C 0.48262 0.2547 0.46676 0.0
N718 N 0.49451 0.16571 0.47295 0.0
N719 N 0.4905 0.23442 0.46023 0.0
H720 H 0.71736 0.22049 0.48274 0.0
H721 H 0.78421 0.39627 0.45546 0.0
H722 H 0.68257 0.24869 0.4398 0.0
H723 H 0.78986 0.36619 0.50667 0.0
H724 H 0.75987 0.34264 0.4456 0.0
H725 H 0.75741 0.27413 0.48706 0.0
C726 C 0.71863 0.23784 0.47393 0.0
C727 C 0.69629 0.23023 0.46107 0.0
C728 C 0.76694 0.34792 0.45891 0.0
C729 C 0.7419 0.29157 0.46605 0.0
C730 C 0.78089 0.37846 0.46454 0.0
C731 C 0.78867 0.38553 0.48195 0.0
C732 C 0.76116 0.32446 0.47075 0.0
C733 C 0.78387 0.36163 0.49318 0.0
C734 C 0.74138 0.26847 0.47648 0.0
C735 C 0.69915 0.25365 0.44999 0.0
N736 N 0.77022 0.33211 0.48741 0.0
N737 N 0.72129 0.28341 0.45288 0.0
H738 H 0.79239 0.39094 0.72193 0.0
H739 H 0.75986 0.27288 0.64773 0.0
H740 H 0.83956 0.41777 0.6731 0.0
H741 H 0.74149 0.24396 0.70078 0.0
H742 H 0.79148 0.32625 0.65726 0.0
H743 H 0.77706 0.33728 0.71565 0.0
C744 C 0.8003 0.38568 0.71013 0.0
C745 C 0.81682 0.40874 0.69789 0.0
C746 C 0.78092 0.30821 0.66684 0.0
C747 C 0.79872 0.34749 0.69044 0.0
C748 C 0.76272 0.27779 0.66139 0.0
C749 C 0.74786 0.25411 0.67349 0.0
C750 C 0.78374 0.31506 0.68451 0.0
C751 C 0.7525 0.26164 0.69104 0.0
C752 C 0.79142 0.35502 0.7065 0.0
C753 C 0.8265 0.40065 0.68281 0.0
N754 N 0.76964 0.29157 0.69605 0.0
N755 N 0.8167 0.37059 0.67933 0.0
H756 H 0.55782 0.38492 0.70549 0.0
H757 H 0.72533 0.4357 0.7392 0.0
H758 H 0.57739 0.33793 0.74579 0.0
H759 H 0.70485 0.479 0.69722 0.0
H760 H 0.67085 0.40899 0.74731 0.0
H761 H 0.61008 0.4285 0.70818 0.0
C762 C 0.57291 0.38411 0.7152 0.0
C763 C 0.56359 0.35753 0.72514 0.0
C764 C 0.67837 0.42482 0.73654 0.0
C765 C 0.62359 0.40695 0.72804 0.0
C766 C 0.70947 0.44008 0.73192 0.0
C767 C 0.71939 0.45896 0.71728 0.0
C768 C 0.65717 0.42841 0.72636 0.0
C769 C 0.69801 0.46412 0.7084 0.0
C770 C 0.6028 0.40896 0.71671 0.0
C771 C 0.58387 0.35783 0.73768 0.0
N772 N 0.66781 0.44851 0.71291 0.0
N773 N 0.61321 0.38188 0.73851 0.0
H774 H 0.57637 0.11872 0.67168 0.0
H775 H 0.55551 0.23289 0.73281 0.0
H776 H 0.64135 0.17347 0.71116 0.0
H777 H 0.49056 0.17725 0.69351 0.0
H778 H 0.58081 0.20216 0.72995 0.0
H779 H 0.53842 0.12961 0.68454 0.0
C780 C 0.58237 0.13236 0.68334 0.0
C781 C 0.61224 0.14579 0.69015 0.0
C782 C 0.56068 0.19628 0.72217 0.0
C783 C 0.56923 0.159 0.7047 0.0
C784 C 0.54623 0.21383 0.7238 0.0
C785 C 0.52133 0.20799 0.71311 0.0
C786 C 0.55027 0.17294 0.70966 0.0
C787 C 0.51003 0.18285 0.7018 0.0
C788 C 0.56073 0.13871 0.69065 0.0
C789 C 0.61868 0.16302 0.70536 0.0
N790 N 0.52491 0.16658 0.70016 0.0
N791 N 0.59758 0.16974 0.71191 0.0
H792 H 0.72782 0.21661 0.19597 0.0
H793 H 0.57693 0.19388 0.24353 0.0
H794 H 0.72852 0.27276 0.23826 0.0
H795 H 0.57759 0.15585 0.19389 0.0
H796 H 0.63161 0.20999 0.24698 0.0
H797 H 0.67248 0.18259 0.20014 0.0
C798 C 0.71638 0.22158 0.20626 0.0
C799 C 0.73261 0.24786 0.21657 0.0
C800 C 0.61953 0.19734 0.23556 0.0
C801 C 0.66939 0.209 0.22145 0.0
C802 C 0.58827 0.18782 0.23368 0.0
C803 C 0.57302 0.17391 0.21831 0.0
C804 C 0.63529 0.19265 0.22199 0.0
C805 C 0.58875 0.16686 0.20585 0.0
C806 C 0.68482 0.20212 0.20866 0.0
C807 C 0.71673 0.253 0.22985 0.0
N808 N 0.61919 0.17673 0.20784 0.0
N809 N 0.68589 0.23394 0.23179 0.0
H810 H 0.872 0.42401 0.2108 0.0
H811 H 0.76783 0.45781 0.27295 0.0
H812 H 0.82607 0.36927 0.25555 0.0
H813 H 0.80956 0.50752 0.22612 0.0
H814 H 0.80106 0.43495 0.27169 0.0
H815 H 0.86277 0.46448 0.22146 0.0
C816 C 0.86073 0.42091 0.22313 0.0
C817 C 0.84913 0.39303 0.23212 0.0
C818 C 0.80341 0.45138 0.2619 0.0
C819 C 0.83762 0.43875 0.24414 0.0
C820 C 0.78448 0.46445 0.26263 0.0
C821 C 0.78549 0.48399 0.2494 0.0
C822 C 0.82335 0.4579 0.24782 0.0
C823 C 0.80761 0.49204 0.2364 0.0
C824 C 0.85531 0.44395 0.22918 0.0
C825 C 0.83503 0.39031 0.24811 0.0
N826 N 0.82531 0.47859 0.23579 0.0
N827 N 0.82892 0.41257 0.25342 0.0
H828 H 0.52651 0.29622 0.20738 0.0
H829 H 0.65217 0.40498 0.27312 0.0
H830 H 0.55046 0.26052 0.25165 0.0
H831 H 0.60422 0.43598 0.23977 0.0
H832 H 0.61168 0.3517 0.26806 0.0
H833 H 0.55191 0.34726 0.22063 0.0
C834 C 0.53692 0.29912 0.21997 0.0
C835 C 0.53678 0.2743 0.22835 0.0
C836 C 0.6096 0.3702 0.2622 0.0
C837 C 0.56605 0.3326 0.24356 0.0
C838 C 0.63264 0.40064 0.26517 0.0
C839 C 0.63185 0.42486 0.25656 0.0
C840 C 0.58601 0.3641 0.25037 0.0
C841 C 0.60597 0.41795 0.24645 0.0
C842 C 0.55123 0.3282 0.22759 0.0
C843 C 0.55029 0.27918 0.24472 0.0
N844 N 0.58445 0.38815 0.2433 0.0
N845 N 0.56487 0.30793 0.25168 0.0
H846 H 0.53347 0.36701 0.05738 0.0
H847 H 0.51246 0.25799 0.97929 0.0
H848 H 0.57427 0.39977 0.00738 0.0
H849 H 0.45995 0.22549 0.02623 0.0
H850 H 0.52723 0.31068 0.98727 0.0
H851 H 0.50001 0.31595 0.04494 0.0
C852 C 0.53519 0.3635 0.04377 0.0
C853 C 0.55702 0.38742 0.03345 0.0
C854 C 0.51184 0.29202 0.99566 0.0
C855 C 0.51886 0.3293 0.01912 0.0
C856 C 0.5032 0.26189 0.99102 0.0
C857 C 0.48546 0.2375 0.00228 0.0
C858 C 0.50317 0.29773 0.01184 0.0
C859 C 0.47393 0.24374 0.01726 0.0
C860 C 0.51597 0.33443 0.03664 0.0
C861 C 0.55807 0.38181 0.01585 0.0
N862 N 0.48369 0.27338 0.02186 0.0
N863 N 0.53955 0.35325 0.0093 0.0
H864 H 0.74492 0.24141 0.0143 0.0
H865 H 0.58922 0.20114 0.96851 0.0
H866 H 0.7383 0.28405 0.96748 0.0
H867 H 0.59554 0.1606 0.01623 0.0
H868 H 0.64386 0.22006 0.9634 0.0
H869 H 0.69178 0.20013 0.01029 0.0
C870 C 0.73258 0.24159 0.00289 0.0
C871 C 0.7456 0.26664 0.99149 0.0
C872 C 0.63322 0.20655 0.97485 0.0
C873 C 0.68474 0.21997 0.98702 0.0
C874 C 0.60204 0.19583 0.97779 0.0
C875 C 0.58814 0.18004 0.99304 0.0
C876 C 0.65065 0.20181 0.98738 0.0
C877 C 0.60559 0.17324 0.00447 0.0
C878 C 0.70216 0.21809 1.00065 0.0
C879 C 0.72881 0.2655 0.9768 0.0
N880 N 0.63614 0.18472 1.00157 0.0
N881 N 0.69894 0.24296 0.9752 0.0
H882 H 0.81791 0.448 0.02822 0.0
H883 H 0.67708 0.47282 0.00438 0.0
H884 H 0.74704 0.3936 0.99123 0.0
H885 H 0.72809 0.5029 0.05196 0.0
H886 H 0.71418 0.45856 0.9937 0.0
H887 H 0.79586 0.48175 0.03133 0.0
C888 C 0.79802 0.44347 0.02055 0.0
C889 C 0.78385 0.41769 0.00971 0.0
C890 C 0.71763 0.46897 0.00632 0.0
C891 C 0.75885 0.4562 0.01307 0.0
C892 C 0.69662 0.47731 0.01237 0.0
C893 C 0.69924 0.48842 0.02921 0.0
C894 C 0.74138 0.47195 0.01717 0.0
C895 C 0.725 0.4939 0.039 0.0
C896 C 0.7855 0.46272 0.02233 0.0
C897 C 0.7583 0.41296 0.99996 0.0
N898 N 0.74486 0.48512 0.03294 0.0
N899 N 0.74641 0.43187 0.002 0.0
H900 H 0.27764 0.81102 0.76673 0.0
H901 H 0.42315 0.80707 0.7292 0.0
H902 H 0.27837 0.73073 0.74736 0.0
H903 H 0.42889 0.87402 0.76614 0.0
H904 H 0.36869 0.79019 0.72489 0.0
H905 H 0.3309 0.84331 0.7565 0.0
C906 C 0.28876 0.80033 0.75996 0.0
C907 C 0.27401 0.7682 0.75816 0.0
C908 C 0.38215 0.80928 0.73351 0.0
C909 C 0.33423 0.80476 0.74625 0.0
C910 C 0.41334 0.81917 0.73585 0.0
C911 C 0.43026 0.8413 0.74846 0.0
C912 C 0.36802 0.82176 0.74379 0.0
C913 C 0.4164 0.85633 0.75659 0.0
C914 C 0.31904 0.81871 0.75413 0.0
C915 C 0.28926 0.7554 0.74927 0.0
N916 N 0.3858 0.84572 0.75447 0.0
N917 N 0.31864 0.77369 0.74378 0.0
H918 H 0.17893 0.64112 0.73667 0.0
H919 H 0.16468 0.51409 0.79934 0.0
H920 H 0.11427 0.60656 0.77878 0.0
H921 H 0.21469 0.5353 0.75144 0.0
H922 H 0.13698 0.53934 0.78866 0.0
H923 H 0.18137 0.59374 0.73718 0.0
C924 C 0.16423 0.62302 0.74556 0.0
C925 C 0.14734 0.6283 0.75815 0.0
C926 C 0.15356 0.53796 0.78031 0.0
C927 C 0.15086 0.57455 0.75925 0.0
C928 C 0.1695 0.52369 0.78647 0.0
C929 C 0.1925 0.52326 0.77641 0.0
C930 C 0.16108 0.55239 0.7641 0.0
C931 C 0.1975 0.5356 0.75973 0.0
C932 C 0.16588 0.59603 0.74599 0.0
C933 C 0.12834 0.60383 0.76915 0.0
N934 N 0.18238 0.55021 0.75423 0.0
N935 N 0.13146 0.57844 0.76988 0.0
H936 H 0.32753 0.5697 0.75569 0.0
H937 H 0.46505 0.72174 0.79818 0.0
H938 H 0.35234 0.58029 0.80941 0.0
H939 H 0.42427 0.72163 0.74923 0.0
H940 H 0.43334 0.66569 0.79916 0.0
H941 H 0.37216 0.62115 0.7501 0.0
C942 C 0.34284 0.58255 0.76618 0.0
C943 C 0.33625 0.57114 0.78304 0.0
C944 C 0.43159 0.67789 0.78809 0.0
C945 C 0.38684 0.62936 0.77683 0.0
C946 C 0.44969 0.70987 0.78752 0.0
C947 C 0.44683 0.72633 0.77375 0.0
C948 C 0.41038 0.66225 0.77483 0.0
C949 C 0.42685 0.70977 0.76019 0.0
C950 C 0.36809 0.61186 0.76303 0.0
C951 C 0.35652 0.58856 0.79626 0.0
N952 N 0.40902 0.67857 0.76117 0.0
N953 N 0.38077 0.61689 0.79289 0.0
H954 H 0.40775 0.64036 0.01257 0.0
H955 H 0.48328 0.80147 0.96447 0.0
H956 H 0.45862 0.6604 0.965 0.0
H957 H 0.42544 0.77943 0.00939 0.0
H958 H 0.48661 0.75507 0.96921 0.0
H959 H 0.42511 0.69518 0.01583 0.0
C960 C 0.42292 0.65638 0.00293 0.0
C961 C 0.43128 0.64581 0.98831 0.0
C962 C 0.47372 0.76069 0.97826 0.0
C963 C 0.45115 0.70849 0.99194 0.0
C964 C 0.47197 0.78729 0.97562 0.0
C965 C 0.45347 0.79387 0.98633 0.0
C966 C 0.45659 0.74042 0.99161 0.0
C967 C 0.4396 0.77494 1.00068 0.0
C968 C 0.43286 0.68767 0.00481 0.0
C969 C 0.45126 0.66755 0.97633 0.0
N970 N 0.44088 0.74865 0.00269 0.0
N971 N 0.46017 0.69782 0.97828 0.0
H972 H 0.16591 0.67998 0.95032 0.0
H973 H 0.32231 0.77616 1.00025 0.0
H974 H 0.18411 0.65783 1.00103 0.0
H975 H 0.30523 0.79792 0.94915 0.0
H976 H 0.26712 0.74128 0.0039 0.0
H977 H 0.21033 0.73178 0.95327 0.0
C978 C 0.17852 0.6864 0.96235 0.0
C979 C 0.172 0.6644 0.97526 0.0
C980 C 0.27532 0.75399 0.99196 0.0
C981 C 0.22315 0.72312 0.97852 0.0
C982 C 0.30686 0.77376 0.98984 0.0
C983 C 0.31833 0.78928 0.97422 0.0
C984 C 0.25516 0.74936 0.97825 0.0
C985 C 0.29732 0.78588 0.96129 0.0
C986 C 0.2041 0.7159 0.96397 0.0
C987 C 0.1889 0.67396 0.99061 0.0
N988 N 0.26675 0.76584 0.96348 0.0
N989 N 0.21423 0.7024 0.99165 0.0
H990 H 0.17029 0.4965 0.95713 0.0
H991 H 0.30732 0.53222 0.01914 0.0
H992 H 0.19445 0.55411 0.00229 0.0
H993 H 0.28453 0.47413 0.9743 0.0
H994 H 0.25573 0.52563 0.01865 0.0
H995 H 0.20172 0.47518 0.96784 0.0
C996 C 0.18185 0.5043 0.96942 0.0
C997 C 0.18061 0.52773 0.9786 0.0
C998 C 0.26164 0.51359 0.00917 0.0
C999 C 0.21641 0.50353 0.99093 0.0
C1000 C 0.29105 0.5172 0.00954 0.0
C1001 C 0.30041 0.50453 0.99641 0.0
C1002 C 0.2419 0.49785 0.99533 0.0
C1003 C 0.27836 0.48485 0.98445 0.0
C1004 C 0.19966 0.49204 0.97557 0.0
C1005 C 0.19549 0.53664 0.99458 0.0
N1006 N 0.25036 0.4829 0.98384 0.0
N1007 N 0.21319 0.52491 1.0001 0.0
H1008 H 0.16057 0.53461 0.50901 0.0
H1009 H 0.31785 0.57369 0.55441 0.0
H1010 H 0.21469 0.61483 0.54056 0.0
H1011 H 0.27323 0.50567 0.5145 0.0
H1012 H 0.2713 0.5777 0.55716 0.0
H1013 H 0.19222 0.51306 0.51882 0.0
C1014 C 0.17861 0.54734 0.51835 0.0
C1015 C 0.18554 0.57687 0.52367 0.0
C1016 C 0.27145 0.56136 0.5481 0.0
C1017 C 0.22201 0.55256 0.53476 0.0
C1018 C 0.29795 0.55895 0.54658 0.0
C1019 C 0.29956 0.53984 0.53393 0.0
C1020 C 0.24653 0.5445 0.5369 0.0
C1021 C 0.2731 0.52115 0.52419 0.0
C1022 C 0.19674 0.53507 0.5239 0.0
C1023 C 0.20895 0.59221 0.5359 0.0
N1024 N 0.24784 0.52432 0.52567 0.0
N1025 N 0.22677 0.58014 0.54079 0.0
H1026 H 0.48777 0.63137 0.50295 0.0
H1027 H 0.48545 0.7883 0.50725 0.0
H1028 H 0.44737 0.65692 0.54421 0.0
H1029 H 0.49608 0.74726 0.46083 0.0
H1030 H 0.49109 0.75033 0.52423 0.0
H1031 H 0.51149 0.68389 0.49185 0.0
C1032 C 0.48493 0.64832 0.51013 0.0
C1033 C 0.46467 0.63949 0.52421 0.0
C1034 C 0.49288 0.75009 0.51035 0.0
C1035 C 0.4915 0.69944 0.51144 0.0
C1036 C 0.48965 0.77172 0.50063 0.0
C1037 C 0.48967 0.7705 0.48258 0.0
C1038 C 0.49618 0.72711 0.50196 0.0
C1039 C 0.49549 0.74873 0.47471 0.0
C1040 C 0.49826 0.67825 0.50365 0.0
C1041 C 0.46224 0.66257 0.53309 0.0
N1042 N 0.49803 0.72756 0.48445 0.0
N1043 N 0.47481 0.69136 0.52629 0.0
H1044 H 0.36612 0.83179 0.45702 0.0
H1045 H 0.23787 0.7164 0.52196 0.0
H1046 H 0.38431 0.79701 0.50371 0.0
H1047 H 0.22115 0.73019 0.46913 0.0
H1048 H 0.28986 0.76092 0.51972 0.0
H1049 H 0.31239 0.81011 0.46596 0.0
C1050 C 0.35905 0.82042 0.4694 0.0
C1051 C 0.37946 0.81554 0.47948 0.0
C1052 C 0.27453 0.75466 0.50876 0.0
C1053 C 0.31815 0.79057 0.48966 0.0
C1054 C 0.2448 0.72934 0.51004 0.0
C1055 C 0.22548 0.71921 0.49557 0.0
C1056 C 0.28486 0.76989 0.49292 0.0
C1057 C 0.23556 0.73693 0.4805 0.0
C1058 C 0.32835 0.80793 0.47444 0.0
C1059 C 0.36913 0.80079 0.49542 0.0
N1060 N 0.26479 0.76111 0.47946 0.0
N1061 N 0.33903 0.78833 0.4999 0.0
H1062 H 0.15471 0.62949 0.2944 0.0
H1063 H 0.21048 0.51518 0.27132 0.0
H1064 H 0.23843 0.65364 0.26685 0.0
H1065 H 0.1287 0.49277 0.30048 0.0
H1066 H 0.20906 0.5591 0.25885 0.0
H1067 H 0.13427 0.57573 0.28627 0.0
C1068 C 0.16848 0.62352 0.28624 0.0
C1069 C 0.1986 0.64576 0.28168 0.0
C1070 C 0.19075 0.54397 0.2675 0.0
C1071 C 0.17581 0.58417 0.27277 0.0
C1072 C 0.19136 0.51861 0.27452 0.0
C1073 C 0.1705 0.50121 0.28759 0.0
C1074 C 0.16921 0.5518 0.27369 0.0
C1075 C 0.14591 0.50633 0.29091 0.0
C1076 C 0.15681 0.5928 0.28158 0.0
C1077 C 0.21526 0.63701 0.27086 0.0
N1078 N 0.14652 0.53182 0.28447 0.0
N1079 N 0.204 0.60667 0.26718 0.0
H1080 H 0.28185 0.59001 0.30679 0.0
H1081 H 0.4582 0.67711 0.33587 0.0
H1082 H 0.32584 0.54408 0.33057 0.0
H1083 H 0.40433 0.72101 0.3263 0.0
H1084 H 0.41474 0.62803 0.32583 0.0
H1085 H 0.33152 0.63753 0.3057 0.0
C1086 C 0.30207 0.58984 0.31159 0.0
C1087 C 0.29971 0.5633 0.31911 0.0
C1088 C 0.41277 0.64859 0.3256 0.0
C1089 C 0.35654 0.61759 0.31795 0.0
C1090 C 0.43755 0.67655 0.3312 0.0
C1091 C 0.43453 0.70287 0.33206 0.0
C1092 C 0.38514 0.64731 0.3207 0.0
C1093 C 0.40735 0.70106 0.32599 0.0
C1094 C 0.33041 0.61696 0.31095 0.0
C1095 C 0.32668 0.56422 0.32489 0.0
N1096 N 0.38359 0.67367 0.32072 0.0
N1097 N 0.35402 0.59114 0.32442 0.0
H1098 H 0.3204 0.82793 0.32887 0.0
H1099 H 0.47965 0.83335 0.31701 0.0
H1100 H 0.34505 0.79206 0.28498 0.0
H1101 H 0.43813 0.83335 0.36565 0.0
H1102 H 0.44144 0.84185 0.30227 0.0
H1103 H 0.37405 0.85392 0.33829 0.0
C1104 C 0.3373 0.82649 0.32082 0.0
C1105 C 0.32811 0.80692 0.30643 0.0
C1106 C 0.44134 0.84096 0.3162 0.0
C1107 C 0.38932 0.83642 0.31723 0.0
C1108 C 0.46316 0.83618 0.32465 0.0
C1109 C 0.46153 0.83186 0.34256 0.0
C1110 C 0.41792 0.8416 0.32575 0.0
C1111 C 0.43987 0.83603 0.3518 0.0
C1112 C 0.36789 0.84123 0.32629 0.0
C1113 C 0.35105 0.80637 0.29637 0.0
N1114 N 0.41849 0.84008 0.34325 0.0
N1115 N 0.38056 0.82022 0.30221 0.0
H1116 H 0.10788 0.08421 0.3228 0.0
H1117 H 0.18067 0.12482 0.22866 0.0
H1118 H 0.15853 0.17665 0.30247 0.0
H1119 H 0.11163 0.03249 0.24315 0.0
H1120 H 0.17403 0.14357 0.25633 0.0
H1121 H 0.10931 0.06403 0.29425 0.0
C1122 C 0.11899 0.10022 0.31229 0.0
C1123 C 0.13323 0.13215 0.315 0.0
C1124 C 0.16022 0.11921 0.25348 0.0
C1125 C 0.13529 0.10933 0.2825 0.0
C1126 C 0.16412 0.10845 0.23771 0.0
C1127 C 0.14674 0.07703 0.23364 0.0
C1128 C 0.13898 0.09839 0.26542 0.0
C1129 C 0.12552 0.0569 0.24581 0.0
C1130 C 0.11983 0.0887 0.29603 0.0
C1131 C 0.14733 0.15187 0.30097 0.0
N1132 N 0.12233 0.0679 0.26124 0.0
N1133 N 0.14823 0.14016 0.28538 0.0
H1134 H 0.88072 0.98577 0.21198 0.0
H1135 H 0.8896 0.04521 0.30681 0.0
H1136 H 0.93359 0.08199 0.22575 0.0
H1137 H 0.87185 0.95301 0.29689 0.0
H1138 H 0.90456 0.05851 0.27678 0.0
H1139 H 0.87658 0.97223 0.2426 0.0
C1140 C 0.89189 0.00399 0.22142 0.0
C1141 C 0.9073 0.03505 0.21636 0.0
C1142 C 0.89772 0.03545 0.28118 0.0
C1143 C 0.90217 0.01979 0.25125 0.0
C1144 C 0.88903 0.02781 0.29829 0.0
C1145 C 0.87935 -0.00206 0.30427 0.0
C1146 C 0.89613 0.01289 0.26984 0.0
C1147 C 0.8792 0.97631 0.29274 0.0
C1148 C 0.88951 -0.00375 0.23886 0.0
C1149 C 0.92137 0.05776 0.22908 0.0
N1150 N 0.88705 0.98408 0.27596 0.0
N1151 N 0.91805 0.0497 0.24595 0.0
H1152 H 0.96102 0.85081 0.31842 0.0
H1153 H 0.95132 0.9078 0.22522 0.0
H1154 H 0.03942 0.92762 0.29439 0.0
H1155 H 0.87146 0.84985 0.2562 0.0
H1156 H 0.98381 0.9194 0.25079 0.0
H1157 H 0.9278 0.85267 0.29615 0.0
C1158 C 0.97123 0.86813 0.30842 0.0
C1159 C 0.00305 0.88884 0.30809 0.0
C1160 C 0.95911 0.9047 0.25207 0.0
C1161 C 0.96509 0.89112 0.28246 0.0
C1162 C 0.94051 0.8982 0.23749 0.0
C1163 C 0.90869 0.87746 0.23855 0.0
C1164 C 0.94576 0.89005 0.26771 0.0
C1165 C 0.89592 0.86572 0.25476 0.0
C1166 C 0.9522 0.86935 0.29577 0.0
C1167 C 0.015 0.9111 0.295 0.0
N1168 N 0.91457 0.87171 0.26863 0.0
N1169 N -0.00396 0.91139 0.28253 0.0
H1170 H 0.85766 0.78876 0.71065 0.0
H1171 H 0.88752 0.9154 0.7818 0.0
H1172 H 0.93373 0.88211 0.70782 0.0
H1173 H 0.79841 0.83485 0.77346 0.0
H1174 H 0.9072 0.9016 0.7565 0.0
H1175 H 0.83792 0.80311 0.73567 0.0
C1176 C 0.87025 0.81225 0.71534 0.0
C1177 C 0.89735 0.83431 0.70718 0.0
C1178 C 0.88331 0.88703 0.76018 0.0
C1179 C 0.87501 0.85081 0.73578 0.0
C1180 C 0.8721 0.89484 0.77461 0.0
C1181 C 0.8413 0.87623 0.77968 0.0
C1182 C 0.86369 0.86018 0.75092 0.0
C1183 C 0.82229 0.84987 0.76994 0.0
C1184 C 0.8589 0.82045 0.72955 0.0
C1185 C 0.91271 0.86444 0.71373 0.0
N1186 N 0.83385 0.8425 0.75607 0.0
N1187 N 0.9014 0.87179 0.72772 0.0
H1188 H 0.07067 0.00187 0.82778 0.0
H1189 H 0.06304 0.03323 0.72761 0.0
H1190 H 0.0275 0.92954 0.78994 0.0
H1191 H 0.13497 0.09725 0.76141 0.0
H1192 H 0.03874 -0.00149 0.75203 0.0
H1193 H 0.08304 0.0402 0.80504 0.0
C1194 C 0.0631 -0.00597 0.81475 0.0
C1195 C 0.04817 0.96251 0.81066 0.0
C1196 C 0.05963 0.02035 0.75411 0.0
C1197 C 0.0622 0.00612 0.78473 0.0
C1198 C 0.07349 0.04017 0.74022 0.0
C1199 C 0.10123 0.06799 0.7425 0.0
C1200 C 0.07354 0.02851 0.77039 0.0
C1201 C 0.11369 0.07592 0.75911 0.0
C1202 C 0.07035 0.01591 0.8018 0.0
C1203 C 0.03918 0.95362 0.79358 0.0
N1204 N 0.09984 0.05617 0.77244 0.0
N1205 N 0.04648 0.97536 0.78119 0.0
H1206 H 0.92583 0.02923 0.69319 0.0
H1207 H 0.0932 0.13636 0.7293 0.0
H1208 H 0.00527 0.06916 0.65981 0.0
H1209 H 0.02216 0.06387 0.76 0.0
H1210 H 0.06123 0.11368 0.70362 0.0
H1211 H 0.96026 0.04294 0.7181 0.0
C1212 C 0.95048 0.04046 0.69111 0.0
C1213 C 0.96275 0.04804 0.67447 0.0
C1214 C 0.05285 0.10261 0.71597 0.0
C1215 C 0.00217 0.06441 0.70279 0.0
C1216 C 0.07099 0.11559 0.7306 0.0
C1217 C 0.0602 0.10204 0.74678 0.0
C1218 C 0.02347 0.07642 0.71764 0.0
C1219 C 0.0313 0.07509 0.74777 0.0
C1220 C 0.9701 0.04825 0.7053 0.0
C1221 C -0.00512 0.06272 0.67245 0.0
N1222 N 0.01374 0.06338 0.73343 0.0
N1223 N 0.01354 0.07089 0.68647 0.0
H1224 H 0.81057 0.52316 0.55314 0.0
H1225 H 0.75811 0.42873 0.64141 0.0
H1226 H 0.76742 0.42408 0.55601 0.0
H1227 H 0.8079 0.52806 0.63827 0.0
H1228 H 0.75493 0.42612 0.60999 0.0
H1229 H 0.80358 0.52488 0.58409 0.0
C1230 C 0.79943 0.50173 0.56028 0.0
C1231 C 0.78982 0.47345 0.55205 0.0
C1232 C 0.7663 0.44848 0.61618 0.0
C1233 C 0.78183 0.47524 0.58751 0.0
C1234 C 0.76804 0.44998 0.6341 0.0
C1235 C 0.78353 0.47866 0.64241 0.0
C1236 C 0.78018 0.47586 0.60653 0.0
C1237 C 0.79593 0.50547 0.63236 0.0
C1238 C 0.79544 0.50272 0.57796 0.0
C1239 C 0.77534 0.44638 0.5619 0.0
N1240 N 0.79418 0.50341 0.61493 0.0
N1241 N 0.77198 0.44796 0.57916 0.0
H1242 H 0.54404 0.32737 0.56657 0.0
H1243 H 0.44433 0.25128 0.6515 0.0
H1244 H 0.44528 0.26778 0.56673 0.0
H1245 H 0.54368 0.30468 0.65152 0.0
H1246 H 0.44464 0.25575 0.62022 0.0
H1247 H 0.54496 0.31778 0.59742 0.0
C1248 C 0.5226 0.31206 0.57307 0.0
C1249 C 0.49452 0.29848 0.56412 0.0
C1250 C 0.46641 0.2664 0.62703 0.0
C1251 C 0.49535 0.2876 0.59937 0.0
C1252 C 0.46623 0.26389 0.6449 0.0
C1253 C 0.49402 0.27776 0.65411 0.0
C1254 C 0.49458 0.28307 0.61827 0.0
C1255 C 0.52173 0.29371 0.6449 0.0
C1256 C 0.52313 0.30663 0.59067 0.0
C1257 C 0.46744 0.27882 0.57315 0.0
N1258 N 0.52132 0.29608 0.62748 0.0
N1259 N 0.46851 0.27415 0.59028 0.0
H1260 H 0.62709 0.20005 0.52406 0.0
H1261 H 0.62892 0.10774 0.60752 0.0
H1262 H 0.59465 0.10238 0.52457 0.0
H1263 H 0.66169 0.20548 0.60718 0.0
H1264 H 0.61149 0.10446 0.57786 0.0
H1265 H 0.63499 0.20161 0.55516 0.0
C1266 C 0.62132 0.17886 0.53076 0.0
C1267 C 0.61043 0.15108 0.52173 0.0
C1268 C 0.62228 0.12661 0.58429 0.0
C1269 C 0.61964 0.15273 0.55727 0.0
C1270 C 0.63224 0.12849 0.60123 0.0
C1271 C 0.64699 0.15698 0.60976 0.0
C1272 C 0.62723 0.15344 0.57577 0.0
C1273 C 0.65055 0.18308 0.60104 0.0
C1274 C 0.62589 0.17977 0.5485 0.0
C1275 C 0.60324 0.12432 0.53103 0.0
N1276 N 0.64095 0.18073 0.58446 0.0
N1277 N 0.60821 0.12586 0.54828 0.0
H1278 H 0.54154 0.22238 0.06072 0.0
H1279 H 0.47497 0.13446 0.15012 0.0
H1280 H 0.47989 0.1243 0.06528 0.0
H1281 H 0.53538 0.2329 0.14645 0.0
H1282 H 0.47786 0.13046 0.11901 0.0
H1283 H 0.5414 0.22685 0.0921 0.0
C1284 C 0.52816 0.20178 0.06834 0.0
C1285 C 0.51064 0.17293 0.06043 0.0
C1286 C 0.49051 0.15297 0.12497 0.0
C1287 C 0.51022 0.17788 0.09622 0.0
C1288 C 0.48883 0.15527 0.14274 0.0
C1289 C 0.50491 0.18407 0.15085 0.0
C1290 C 0.50842 0.17967 0.11518 0.0
C1291 C 0.52256 0.21025 0.14067 0.0
C1292 C 0.52801 0.20435 0.08623 0.0
C1293 C 0.49368 0.14699 0.07087 0.0
N1294 N 0.52384 0.20744 0.12333 0.0
N1295 N 0.49382 0.1501 0.08821 0.0
H1296 H 0.86217 0.35084 0.06321 0.0
H1297 H 0.77532 0.3229 0.15367 0.0
H1298 H 0.76993 0.33599 0.06815 0.0
H1299 H 0.86513 0.33198 0.1477 0.0
H1300 H 0.77345 0.32962 0.12254 0.0
H1301 H 0.86425 0.34586 0.09436 0.0
C1302 C 0.84235 0.34654 0.07087 0.0
C1303 C 0.81581 0.34375 0.0631 0.0
C1304 C 0.79358 0.33019 0.12806 0.0
C1305 C 0.81801 0.33806 0.09879 0.0
C1306 C 0.79466 0.3264 0.14581 0.0
C1307 C 0.8204 0.32685 0.15324 0.0
C1308 C 0.81844 0.3345 0.11771 0.0
C1309 C 0.84482 0.33143 0.14249 0.0
C1310 C 0.84353 0.34369 0.08866 0.0
C1311 C 0.79081 0.33822 0.07364 0.0
N1312 N 0.84322 0.33505 0.12528 0.0
N1313 N 0.79251 0.33554 0.09096 0.0
H1314 H 0.71883 0.54529 0.18615 0.0
H1315 H 0.63029 0.43218 0.10736 0.0
H1316 H 0.67814 0.44642 0.18871 0.0
H1317 H 0.66551 0.53036 0.10612 0.0
H1318 H 0.64984 0.43714 0.1367 0.0
H1319 H 0.70244 0.5406 0.15615 0.0
C1320 C 0.70669 0.52261 0.18034 0.0
C1321 C 0.69974 0.49618 0.18992 0.0
C1322 C 0.65328 0.4576 0.13002 0.0
C1323 C 0.68067 0.4906 0.15567 0.0
C1324 C 0.64207 0.45477 0.11329 0.0
C1325 C 0.64622 0.4809 0.10434 0.0
C1326 C 0.66882 0.48678 0.13783 0.0
C1327 C 0.66173 0.50961 0.1126 0.0
C1328 C 0.69722 0.51993 0.16324 0.0
C1329 C 0.68393 0.46738 0.18177 0.0
N1330 N 0.67248 0.51179 0.12888 0.0
N1331 N 0.6748 0.46533 0.16513 0.0
H1332 H 0.38994 0.79008 0.91056 0.0
H1333 H 0.50504 0.87371 0.83216 0.0
H1334 H 0.46164 0.88563 0.91158 0.0
H1335 H 0.42142 0.78585 0.82734 0.0
H1336 H 0.49083 0.87758 0.86177 0.0
H1337 H 0.4021 0.78719 0.88037 0.0
C1338 C 0.4081 0.81049 0.90438 0.0
C1339 C 0.42483 0.83813 0.91355 0.0
C1340 C 0.47553 0.85751 0.85422 0.0
C1341 C 0.43906 0.83493 0.87915 0.0
C1342 C 0.48369 0.85525 0.83735 0.0
C1343 C 0.46437 0.82942 0.82733 0.0
C1344 C 0.448 0.83363 0.86115 0.0
C1345 C 0.43694 0.80617 0.83465 0.0
C1346 C 0.41503 0.80884 0.88717 0.0
C1347 C 0.44815 0.86388 0.90496 0.0
N1348 N 0.42962 0.80877 0.85115 0.0
N1349 N 0.45471 0.86161 0.88826 0.0
H1350 H 0.14057 0.56061 0.89635 0.0
H1351 H 0.23685 0.71208 0.84034 0.0
H1352 H 0.21465 0.64495 0.91737 0.0
H1353 H 0.17228 0.62316 0.8191 0.0
H1354 H 0.2334 0.68726 0.86812 0.0
H1355 H 0.15586 0.58202 0.86747 0.0
C1356 C 0.16034 0.5835 0.89485 0.0
C1357 C 0.1762 0.60115 0.90924 0.0
C1358 C 0.22036 0.67315 0.8573 0.0
C1359 C 0.19359 0.62609 0.87625 0.0
C1360 C 0.22238 0.6873 0.84145 0.0
C1361 C 0.2045 0.66969 0.8275 0.0
C1362 C 0.20019 0.64125 0.85914 0.0
C1363 C 0.18616 0.63768 0.82959 0.0
C1364 C 0.16909 0.59576 0.87836 0.0
C1365 C 0.20174 0.63063 0.90658 0.0
N1366 N 0.1842 0.62457 0.84516 0.0
N1367 N 0.20938 0.64238 0.8904 0.0
H1368 H 0.25748 0.52624 0.8568 0.0
H1369 H 0.36703 0.50054 0.92178 0.0
H1370 H 0.29934 0.47145 0.84437 0.0
H1371 H 0.33549 0.56533 0.93057 0.0
H1372 H 0.33942 0.48648 0.89426 0.0
H1373 H 0.28194 0.5368 0.88514 0.0
C1374 C 0.27151 0.51612 0.86012 0.0
C1375 C 0.27648 0.49803 0.84821 0.0
C1376 C 0.33862 0.50383 0.9022 0.0
C1377 C 0.30483 0.51028 0.88052 0.0
C1378 C 0.35445 0.51192 0.91787 0.0
C1379 C 0.35369 0.53425 0.92841 0.0
C1380 C 0.32175 0.51803 0.89712 0.0
C1381 C 0.33685 0.54812 0.92279 0.0
C1382 C 0.28564 0.52231 0.87626 0.0
C1383 C 0.29496 0.48559 0.85316 0.0
N1384 N 0.32152 0.53975 0.90756 0.0
N1385 N 0.30858 0.49205 0.86891 0.0
H1386 H 0.22252 0.61662 0.45025 0.0
H1387 H 0.14726 0.50616 0.36864 0.0
H1388 H 0.12465 0.56572 0.44046 0.0
H1389 H 0.24368 0.54916 0.38183 0.0
H1390 H 0.13867 0.52953 0.39415 0.0
H1391 H 0.23097 0.59414 0.42437 0.0
C1392 C 0.20281 0.60078 0.44261 0.0
C1393 C 0.17284 0.59299 0.4475 0.0
C1394 C 0.1617 0.53383 0.39147 0.0
C1395 C 0.18231 0.5671 0.41789 0.0
C1396 C 0.16661 0.5205 0.37692 0.0
C1397 C 0.19621 0.5257 0.37316 0.0
C1398 C 0.18661 0.5526 0.40229 0.0
C1399 C 0.22046 0.54449 0.38429 0.0
C1400 C 0.20764 0.58789 0.42786 0.0
C1401 C 0.14814 0.57233 0.43715 0.0
N1402 N 0.21514 0.55729 0.39834 0.0
N1403 N 0.15342 0.56008 0.42282 0.0
H1404 H 0.45979 0.7525 0.4228 0.0
H1405 H 0.40606 0.58075 0.45487 0.0
H1406 H 0.46892 0.68499 0.39297 0.0
H1407 H 0.39511 0.64661 0.48538 0.0
H1408 H 0.42756 0.61853 0.43165 0.0
H1409 H 0.43543 0.71436 0.4459 0.0
C1410 C 0.45657 0.72966 0.42113 0.0
C1411 C 0.46605 0.7218 0.40594 0.0
C1412 C 0.42025 0.62469 0.44337 0.0
C1413 C 0.43852 0.67814 0.43216 0.0
C1414 C 0.4078 0.60303 0.45658 0.0
C1415 C 0.3987 0.61052 0.47203 0.0
C1416 C 0.42383 0.65416 0.44565 0.0
C1417 C 0.40167 0.63983 0.47362 0.0
C1418 C 0.44275 0.70791 0.43428 0.0
C1419 C 0.46197 0.69207 0.40448 0.0
N1420 N 0.41416 0.66067 0.46062 0.0
N1421 N 0.44845 0.67134 0.41739 0.0
H1422 H 0.43441 0.78377 0.39484 0.0
H1423 H 0.25988 0.69843 0.36891 0.0
H1424 H 0.3622 0.72951 0.43112 0.0
H1425 H 0.33183 0.72167 0.33149 0.0
H1426 H 0.2967 0.70678 0.39186 0.0
H1427 H 0.39791 0.75875 0.37124 0.0
C1428 C 0.41109 0.76602 0.39781 0.0
C1429 C 0.40131 0.75877 0.41494 0.0
C1430 C 0.3043 0.70946 0.37861 0.0
C1431 C 0.35914 0.73078 0.38811 0.0
C1432 C 0.28327 0.70468 0.36552 0.0
C1433 C 0.29288 0.7096 0.34831 0.0
C1434 C 0.33529 0.7199 0.37446 0.0
C1435 C 0.32347 0.7177 0.34461 0.0
C1436 C 0.39019 0.75184 0.38435 0.0
C1437 C 0.37066 0.73596 0.41809 0.0
N1438 N 0.34376 0.72319 0.3576 0.0
N1439 N 0.35052 0.72317 0.40482 0.0
H1440 H 0.26427 0.11747 0.173 0.0
H1441 H 0.39995 0.09599 0.21064 0.0
H1442 H 0.24456 0.03371 0.19938 0.0
H1443 H 0.40462 0.18394 0.20469 0.0
H1444 H 0.34456 0.07017 0.20376 0.0
H1445 H 0.31858 0.13943 0.18024 0.0
C1446 C 0.27145 0.10353 0.18011 0.0
C1447 C 0.24992 0.07382 0.18569 0.0
C1448 C 0.35781 0.09511 0.20416 0.0
C1449 C 0.31196 0.09893 0.1942 0.0
C1450 C 0.38925 0.1098 0.20818 0.0
C1451 C 0.40686 0.14212 0.20815 0.0
C1452 C 0.34434 0.11299 0.19986 0.0
C1453 C 0.39199 0.15898 0.20477 0.0
C1454 C 0.3024 0.11617 0.18438 0.0
C1455 C 0.26051 0.05677 0.19489 0.0
N1456 N 0.36172 0.14423 0.20057 0.0
N1457 N 0.2909 0.06963 0.19893 0.0
H1458 H 0.85229 0.11084 0.20209 0.0
H1459 H 0.90105 0.28739 0.18786 0.0
H1460 H 0.90791 0.16508 0.15932 0.0
H1461 H 0.83953 0.22959 0.22786 0.0
H1462 H 0.90985 0.24534 0.17949 0.0
H1463 H 0.85149 0.15584 0.21314 0.0
C1464 C 0.86415 0.13223 0.19493 0.0
C1465 C 0.88005 0.13423 0.17971 0.0
C1466 C 0.89481 0.24204 0.19027 0.0
C1467 C 0.8796 0.1861 0.19245 0.0
C1468 C 0.89005 0.26615 0.19518 0.0
C1469 C 0.86928 0.2618 0.20847 0.0
C1470 C 0.87869 0.21353 0.19873 0.0
C1471 C 0.85555 0.23381 0.21747 0.0
C1472 C 0.86385 0.158 0.20132 0.0
C1473 C 0.89516 0.16255 0.17103 0.0
N1474 N 0.86021 0.2106 0.21229 0.0
N1475 N 0.89459 0.18747 0.17754 0.0
H1476 H 0.76956 0.72578 0.20566 0.0
H1477 H 0.78272 0.60439 0.26594 0.0
H1478 H 0.85309 0.74296 0.23132 0.0
H1479 H 0.69744 0.58799 0.2429 0.0
H1480 H 0.8068 0.65828 0.25719 0.0
H1481 H 0.74118 0.67736 0.22167 0.0
C1482 C 0.78191 0.71929 0.21461 0.0
C1483 C 0.81374 0.73815 0.21703 0.0
C1484 C 0.78264 0.64307 0.25432 0.0
C1485 C 0.7815 0.68322 0.23553 0.0
C1486 C 0.76881 0.61235 0.25948 0.0
C1487 C 0.73823 0.59162 0.25486 0.0
C1488 C 0.76582 0.65294 0.24432 0.0
C1489 C 0.72121 0.60317 0.24656 0.0
C1490 C 0.76569 0.69183 0.22385 0.0
C1491 C 0.82859 0.72892 0.22894 0.0
N1492 N 0.73544 0.63296 0.24121 0.0
N1493 N 0.81239 0.70205 0.23767 0.0
H1494 H 0.17679 0.39799 0.36509 0.0
H1495 H 0.22437 0.2713 0.3451 0.0
H1496 H 0.23496 0.40409 0.32257 0.0
H1497 H 0.16867 0.26694 0.38853 0.0
H1498 H 0.23428 0.32324 0.33887 0.0
H1499 H 0.17753 0.35235 0.3754 0.0
C1500 C 0.18963 0.38962 0.35788 0.0
C1501 C 0.20559 0.40461 0.34286 0.0
C1502 C 0.22031 0.31115 0.34994 0.0
C1503 C 0.20683 0.35259 0.35468 0.0
C1504 C 0.21484 0.28159 0.35358 0.0
C1505 C 0.19534 0.26468 0.36722 0.0
C1506 C 0.20596 0.32374 0.35993 0.0
C1507 C 0.18368 0.27911 0.37782 0.0
C1508 C 0.19023 0.36369 0.36384 0.0
C1509 C 0.22212 0.39302 0.33413 0.0
N1510 N 0.18876 0.30766 0.37378 0.0
N1511 N 0.22219 0.36757 0.34012 0.0
H1512 H 0.59492 0.81416 0.33667 0.0
H1513 H 0.74799 0.94066 0.38417 0.0
H1514 H 0.59377 0.8529 0.3861 0.0
H1515 H 0.74513 0.91072 0.33176 0.0
H1516 H 0.69179 0.90781 0.38578 0.0
H1517 H 0.65064 0.84804 0.33541 0.0
C1518 C 0.60646 0.82977 0.34729 0.0
C1519 C 0.5898 0.83079 0.3615 0.0
C1520 C 0.70352 0.90859 0.37392 0.0
C1521 C 0.65352 0.86972 0.36014 0.0
C1522 C 0.7355 0.92732 0.37299 0.0
C1523 C 0.75113 0.92832 0.35783 0.0
C1524 C 0.68723 0.89067 0.35961 0.0
C1525 C 0.73395 0.9106 0.34373 0.0
C1526 C 0.63824 0.84919 0.34655 0.0
C1527 C 0.60586 0.85145 0.37489 0.0
N1528 N 0.70298 0.89243 0.34498 0.0
N1529 N 0.63688 0.87013 0.3739 0.0
H1530 H 0.08675 0.80541 0.36115 0.0
H1531 H 0.18346 0.77164 0.29126 0.0
H1532 H 0.10097 0.83866 0.30882 0.0
H1533 H 0.17109 0.73973 0.34382 0.0
H1534 H 0.1493 0.79241 0.29678 0.0
H1535 H 0.11357 0.77712 0.35441 0.0
C1536 C 0.09529 0.80653 0.34821 0.0
C1537 C 0.09187 0.82454 0.33556 0.0
C1538 C 0.1539 0.78069 0.30709 0.0
C1539 C 0.12263 0.79247 0.32777 0.0
C1540 C 0.17337 0.76883 0.30393 0.0
C1541 C 0.18024 0.75417 0.31714 0.0
C1542 C 0.1413 0.77793 0.32359 0.0
C1543 C 0.16649 0.75105 0.33329 0.0
C1544 C 0.11062 0.79044 0.34437 0.0
C1545 C 0.10329 0.82517 0.319 0.0
N1546 N 0.14782 0.76301 0.3361 0.0
N1547 N 0.11832 0.80953 0.31561 0.0
H1548 H 0.73302 0.93096 0.81596 0.0
H1549 H 0.57808 0.8137 0.76688 0.0
H1550 H 0.70017 0.83367 0.81039 0.0
H1551 H 0.59422 0.90131 0.78626 0.0
H1552 H 0.62783 0.82472 0.77841 0.0
H1553 H 0.68579 0.92349 0.80212 0.0
C1554 C 0.71568 0.90798 0.81203 0.0
C1555 C 0.72039 0.88284 0.81437 0.0
C1556 C 0.62065 0.84169 0.77999 0.0
C1557 C 0.66696 0.87437 0.79817 0.0
C1558 C 0.59241 0.83559 0.77324 0.0
C1559 C 0.58191 0.85653 0.77575 0.0
C1560 C 0.63861 0.86899 0.78925 0.0
C1561 C 0.60144 0.88452 0.78408 0.0
C1562 C 0.68889 0.90379 0.80405 0.0
C1563 C 0.69736 0.85362 0.80893 0.0
N1564 N 0.62882 0.88985 0.7907 0.0
N1565 N 0.67173 0.85023 0.80096 0.0
H1566 H 0.12261 0.75285 0.77669 0.0
H1567 H 0.09654 0.83661 0.85754 0.0
H1568 H 0.16294 0.75998 0.82676 0.0
H1569 H 0.06157 0.83529 0.8066 0.0
H1570 H 0.11711 0.80436 0.84713 0.0
H1571 H 0.09648 0.77945 0.78795 0.0
C1572 C 0.1259 0.75996 0.79005 0.0
C1573 C 0.14507 0.75439 0.80078 0.0
C1574 C 0.10476 0.81097 0.83826 0.0
C1575 C 0.11529 0.78466 0.81377 0.0
C1576 C 0.09294 0.82927 0.84422 0.0
C1577 C 0.07751 0.83874 0.83289 0.0
C1578 C 0.1011 0.80212 0.82086 0.0
C1579 C 0.07348 0.82861 0.81575 0.0
C1580 C 0.11099 0.77511 0.79648 0.0
C1581 C 0.14847 0.76397 0.81801 0.0
N1582 N 0.08534 0.81099 0.81023 0.0
N1583 N 0.13379 0.77869 0.82396 0.0
H1584 H 0.16627 0.39299 0.79252 0.0
H1585 H 0.18885 0.24806 0.7754 0.0
H1586 H 0.254 0.40322 0.77787 0.0
H1587 H 0.10951 0.24388 0.79987 0.0
H1588 H 0.21172 0.30421 0.77253 0.0
H1589 H 0.14327 0.33735 0.79088 0.0
C1590 C 0.18066 0.38348 0.78882 0.0
C1591 C 0.21214 0.40266 0.78551 0.0
C1592 C 0.18929 0.29089 0.77849 0.0
C1593 C 0.186 0.33883 0.78378 0.0
C1594 C 0.17629 0.25896 0.78014 0.0
C1595 C 0.14738 0.24144 0.78798 0.0
C1596 C 0.17303 0.30508 0.78458 0.0
C1597 C 0.13195 0.25653 0.79385 0.0
C1598 C 0.16753 0.35167 0.78794 0.0
C1599 C 0.22964 0.38912 0.78061 0.0
N1600 N 0.14496 0.28743 0.79202 0.0
N1601 N 0.21636 0.35788 0.78003 0.0
H1602 H 0.90439 0.57606 0.68749 0.0
H1603 H 0.86406 0.70388 0.67126 0.0
H1604 H 0.8364 0.58317 0.71818 0.0
H1605 H 0.9608 0.73233 0.67293 0.0
H1606 H 0.85203 0.65458 0.68398 0.0
H1607 H 0.92634 0.63045 0.67926 0.0
C1608 C 0.89472 0.58928 0.69294 0.0
C1609 C 0.86821 0.57498 0.70329 0.0
C1610 C 0.87589 0.67162 0.68152 0.0
C1611 C 0.89242 0.63627 0.69351 0.0
C1612 C 0.88274 0.69954 0.67405 0.0
C1613 C 0.91345 0.72211 0.67103 0.0
C1614 C 0.89982 0.66593 0.68566 0.0
C1615 C 0.93681 0.7154 0.67507 0.0
C1616 C 0.90714 0.62016 0.68815 0.0
C1617 C 0.85659 0.59313 0.70999 0.0
N1618 N 0.92951 0.68765 0.6821 0.0
N1619 N 0.86824 0.62263 0.7046 0.0
H1620 H 0.40417 0.28636 0.71664 0.0
H1621 H 0.25179 0.12659 0.71262 0.0
H1622 H 0.39754 0.20229 0.73567 0.0
H1623 H 0.24894 0.21126 0.71393 0.0
H1624 H 0.30571 0.15492 0.72121 0.0
H1625 H 0.34782 0.26109 0.71665 0.0
C1626 C 0.39088 0.26285 0.72122 0.0
C1627 C 0.40544 0.24617 0.72588 0.0
C1628 C 0.29329 0.16734 0.71979 0.0
C1629 C 0.34132 0.21714 0.72559 0.0
C1630 C 0.2626 0.15123 0.71472 0.0
C1631 C 0.24611 0.16674 0.7124 0.0
C1632 C 0.30784 0.19934 0.72223 0.0
C1633 C 0.26105 0.19857 0.71551 0.0
C1634 C 0.35876 0.24845 0.72119 0.0
C1635 C 0.38721 0.21585 0.73178 0.0
N1636 N 0.29134 0.214 0.72005 0.0
N1637 N 0.35606 0.2021 0.73114 0.0
H1638 H 0.71885 0.08815 0.67203 0.0
H1639 H 0.84492 0.08479 0.61005 0.0
H1640 H 0.75901 0.14738 0.62793 0.0
H1641 H 0.82443 0.04441 0.66081 0.0
H1642 H 0.80618 0.10029 0.61416 0.0
H1643 H 0.75086 0.06473 0.66603 0.0
C1644 C 0.73426 0.09608 0.66107 0.0
C1645 C 0.73656 0.11988 0.65055 0.0
C1646 C 0.81003 0.08785 0.62436 0.0
C1647 C 0.77273 0.09319 0.64353 0.0
C1648 C 0.83203 0.07892 0.62199 0.0
C1649 C 0.83804 0.06359 0.63518 0.0
C1650 C 0.79387 0.08128 0.64 0.0
C1651 C 0.82065 0.05645 0.65038 0.0
C1652 C 0.75248 0.08278 0.65766 0.0
C1653 C 0.75676 0.12929 0.63647 0.0
N1654 N 0.79942 0.06551 0.65242 0.0
N1655 N 0.77406 0.11595 0.63339 0.0
H1656 H 0.0625 0.58964 0.52573 0.0
H1657 H 0.90884 0.55706 0.47617 0.0
H1658 H 0.06382 0.62545 0.47502 0.0
H1659 H 0.91159 0.50917 0.52172 0.0
H1660 H 0.96539 0.58915 0.47741 0.0
H1661 H 0.00679 0.56778 0.52666 0.0
C1662 C 0.05108 0.59324 0.51487 0.0
C1663 C 0.06769 0.60904 0.5002 0.0
C1664 C 0.95347 0.5717 0.48715 0.0
C1665 C 0.00385 0.58371 0.50105 0.0
C1666 C 0.92132 0.55344 0.48644 0.0
C1667 C 0.90565 0.53026 0.49874 0.0
C1668 C 0.96976 0.56682 0.50037 0.0
C1669 C 0.92277 0.52654 0.51184 0.0
C1670 C 0.01925 0.58065 0.51537 0.0
C1671 C 0.05177 0.61321 0.48654 0.0
N1672 N 0.95383 0.54455 0.51228 0.0
N1673 N 0.0206 0.60029 0.48721 0.0
H1674 H 0.42164 0.36012 0.4896 0.0
H1675 H 0.40376 0.48361 0.54613 0.0
H1676 H 0.44603 0.37805 0.54331 0.0
H1677 H 0.37903 0.46661 0.49242 0.0
H1678 H 0.41345 0.4404 0.54612 0.0
H1679 H 0.39977 0.39428 0.4911 0.0
C1680 C 0.42199 0.3709 0.50174 0.0
C1681 C 0.43595 0.36659 0.51629 0.0
C1682 C 0.40564 0.44593 0.53436 0.0
C1683 C 0.41131 0.4057 0.5181 0.0
C1684 C 0.40012 0.47059 0.53438 0.0
C1685 C 0.3909 0.47885 0.51922 0.0
C1686 C 0.4021 0.42954 0.51904 0.0
C1687 C 0.38635 0.46112 0.50437 0.0
C1688 C 0.40961 0.39044 0.5026 0.0
C1689 C 0.43578 0.38102 0.53172 0.0
N1690 N 0.39228 0.43746 0.50461 0.0
N1691 N 0.42393 0.40013 0.53218 0.0
H1692 H 0.56455 0.06508 0.42729 0.0
H1693 H 0.55244 0.91145 0.46372 0.0
H1694 H 0.62785 0.06348 0.46438 0.0
H1695 H 0.49422 0.91301 0.42327 0.0
H1696 H 0.58534 0.96724 0.46092 0.0
H1697 H 0.54391 0.01006 0.42213 0.0
C1698 C 0.57454 0.05328 0.43408 0.0
C1699 C 0.59758 0.0687 0.44648 0.0
C1700 C 0.56563 0.95537 0.45248 0.0
C1701 C 0.57378 0.00573 0.44087 0.0
C1702 C 0.54683 0.92351 0.45409 0.0
C1703 C 0.52034 0.90772 0.44389 0.0
C1704 C 0.55766 0.97156 0.44071 0.0
C1705 C 0.51428 0.92439 0.43152 0.0
C1706 C 0.56269 0.02184 0.43117 0.0
C1707 C 0.60981 0.05237 0.45485 0.0
N1708 N 0.53254 0.95549 0.43044 0.0
N1709 N 0.59741 0.02165 0.4521 0.0
H1710 H 0.41806 0.0584 0.00893 0.0
H1711 H 0.47488 0.95307 0.96431 0.0
H1712 H 0.47953 0.08789 0.96526 0.0
H1713 H 0.39325 0.91561 0.99596 0.0
H1714 H 0.47891 0.00375 0.96602 0.0
H1715 H 0.40814 0.00585 0.0047 0.0
C1716 C 0.4288 0.05364 0.99817 0.0
C1717 C 0.44987 0.07751 0.98754 0.0
C1718 C 0.46014 0.98442 0.9726 0.0
C1719 C 0.43946 0.01792 0.98299 0.0
C1720 C 0.45811 0.95566 0.97182 0.0
C1721 C 0.43377 0.93028 0.98004 0.0
C1722 C 0.43784 0.98775 0.98181 0.0
C1723 C 0.41239 0.9347 0.98945 0.0
C1724 C 0.42336 0.02373 0.99586 0.0
C1725 C 0.46323 0.07015 0.97381 0.0
N1726 N 0.41494 0.96294 0.9901 0.0
N1727 N 0.45824 0.04106 0.97213 0.0
H1728 H 0.88242 0.41435 0.96454 0.0
H1729 H 0.0571 0.50256 0.99369 0.0
H1730 H 0.91871 0.38145 0.00446 0.0
H1731 H 0.029 0.51809 0.94391 0.0
H1732 H 0.00525 0.45966 0.99836 0.0
H1733 H 0.93511 0.45277 0.95646 0.0
C1734 C 0.90151 0.41484 0.97137 0.0
C1735 C 0.89632 0.39498 0.98529 0.0
C1736 C 0.01039 0.47236 0.98638 0.0
C1737 C 0.95626 0.43906 0.97639 0.0
C1738 C 0.0399 0.49706 0.98378 0.0
C1739 C 0.04723 0.51389 0.96841 0.0
C1740 C 0.98793 0.46462 0.9736 0.0
C1741 C 0.02415 0.50567 0.95596 0.0
C1742 C 0.9315 0.4368 0.96679 0.0
C1743 C 0.92174 0.39646 0.9937 0.0
N1744 N -0.00464 0.48158 0.95886 0.0
N1745 N 0.95067 0.4185 0.98928 0.0
H1746 H 0.48941 0.55752 0.97896 0.0
H1747 H 0.53595 0.49561 0.06188 0.0
H1748 H 0.42785 0.50948 0.02115 0.0
H1749 H 0.5988 0.54343 0.02017 0.0
H1750 H 0.49783 0.50541 0.04834 0.0
H1751 H 0.5309 0.55541 0.99441 0.0
C1752 C 0.48458 0.5463 0.9914 0.0
C1753 C 0.45518 0.5335 0.99877 0.0
C1754 C 0.52008 0.51413 0.04222 0.0
C1755 C 0.50247 0.53147 0.01659 0.0
C1756 C 0.54193 0.50874 0.05003 0.0
C1757 C 0.5704 0.51851 0.04203 0.0
C1758 C 0.52667 0.52916 0.02623 0.0
C1759 C 0.57705 0.53548 0.02672 0.0
C1760 C 0.5083 0.54533 1.00027 0.0
C1761 C 0.45017 0.5195 0.01497 0.0
N1762 N 0.55512 0.53991 0.01916 0.0
N1763 N 0.4736 0.51886 0.02333 0.0
loop_
_geom_bond_atom_site_label_1
_geom_bond_atom_site_label_2
_geom_bond_distance
_geom_bond_site_symmetry_2
_ccdc_geom_bond_type
In0 O1 2.294 . S
In0 O2 2.326 . S
In0 O6 2.266 . S
In0 O7 2.326 . S
In0 O8 2.266 . S
In0 O9 2.326 . S
In0 O11 2.294 . S
In0 O12 2.326 . S
O1 In0 2.294 . S
O1 C10 1.240 . S
O2 In0 2.326 . S
O2 C10 1.252 . S
C3 O6 1.252 . S
C3 O7 1.260 . S
C4 O11 1.240 . S
C4 O12 1.252 . S
C5 O8 1.252 . S
C5 O9 1.260 . S
O6 In0 2.266 . S
O6 C3 1.252 . S
O7 In0 2.326 . S
O7 C3 1.260 . S
O8 In0 2.266 . S
O8 C5 1.252 . S
O9 In0 2.326 . S
O9 C5 1.260 . S
C10 O1 1.240 . S
C10 O2 1.252 . S
O11 In0 2.294 . S
O11 C4 1.240 . S
O12 In0 2.326 . S
O12 C4 1.252 . S
In13 O14 2.294 . S
In13 O15 2.326 . S
In13 O19 2.266 1_545 S
In13 O20 2.326 1_545 S
In13 O21 2.266 . S
In13 O22 2.326 . S
In13 O24 2.294 . S
In13 O25 2.326 . S
O14 In13 2.294 . S
O14 C23 1.240 . S
O15 In13 2.326 . S
O15 C23 1.252 . S
C16 O19 1.252 . S
C16 O20 1.260 . S
C17 O24 1.240 . S
C17 O25 1.252 . S
C18 O21 1.252 . S
C18 O22 1.260 . S
O19 In13 2.266 1_565 S
O19 C16 1.252 . S
O20 In13 2.326 1_565 S
O20 C16 1.260 . S
O21 In13 2.266 . S
O21 C18 1.252 . S
O22 In13 2.326 . S
O22 C18 1.260 . S
C23 O14 1.240 . S
C23 O15 1.252 . S
O24 In13 2.294 . S
O24 C17 1.240 . S
O25 In13 2.326 . S
O25 C17 1.252 . S
In26 O27 2.294 . S
In26 O28 2.326 . S
In26 O32 2.266 . S
In26 O33 2.326 . S
In26 O34 2.266 1_655 S
In26 O35 2.326 1_655 S
In26 O37 2.294 . S
In26 O38 2.326 . S
O27 In26 2.294 . S
O27 C36 1.240 . S
O28 In26 2.326 . S
O28 C36 1.252 . S
C29 O32 1.252 . S
C29 O33 1.260 . S
C30 O37 1.240 . S
C30 O38 1.252 . S
C31 O34 1.252 . S
C31 O35 1.260 . S
O32 In26 2.266 . S
O32 C29 1.252 . S
O33 In26 2.326 . S
O33 C29 1.260 . S
O34 In26 2.266 1_455 S
O34 C31 1.252 . S
O35 In26 2.326 1_455 S
O35 C31 1.260 . S
C36 O27 1.240 . S
C36 O28 1.252 . S
O37 In26 2.294 . S
O37 C30 1.240 . S
O38 In26 2.326 . S
O38 C30 1.252 . S
In39 O40 2.294 . S
In39 O41 2.326 . S
In39 O45 2.266 . S
In39 O46 2.326 . S
In39 O47 2.266 . S
In39 O48 2.326 . S
In39 O50 2.294 . S
In39 O51 2.326 . S
O40 In39 2.294 . S
O40 C49 1.240 . S
O41 In39 2.326 . S
O41 C49 1.252 . S
C42 O45 1.252 . S
C42 O46 1.260 . S
C43 O50 1.240 . S
C43 O51 1.252 . S
C44 O47 1.252 . S
C44 O48 1.260 . S
O45 In39 2.266 . S
O45 C42 1.252 . S
O46 In39 2.326 . S
O46 C42 1.260 . S
O47 In39 2.266 . S
O47 C44 1.252 . S
O48 In39 2.326 . S
O48 C44 1.260 . S
C49 O40 1.240 . S
C49 O41 1.252 . S
O50 In39 2.294 . S
O50 C43 1.240 . S
O51 In39 2.326 . S
O51 C43 1.252 . S
In52 O53 2.294 . S
In52 O54 2.326 . S
In52 O58 2.266 . S
In52 O59 2.326 . S
In52 O60 2.266 1_565 S
In52 O61 2.326 1_565 S
In52 O63 2.294 . S
In52 O64 2.326 . S
O53 In52 2.294 . S
O53 C62 1.240 . S
O54 In52 2.326 . S
O54 C62 1.252 . S
C55 O58 1.252 . S
C55 O59 1.260 . S
C56 O63 1.240 . S
C56 O64 1.252 . S
C57 O60 1.252 . S
C57 O61 1.260 . S
O58 In52 2.266 . S
O58 C55 1.252 . S
O59 In52 2.326 . S
O59 C55 1.260 . S
O60 In52 2.266 1_545 S
O60 C57 1.252 . S
O61 In52 2.326 1_545 S
O61 C57 1.260 . S
C62 O53 1.240 . S
C62 O54 1.252 . S
O63 In52 2.294 . S
O63 C56 1.240 . S
O64 In52 2.326 . S
O64 C56 1.252 . S
In65 O66 2.294 . S
In65 O67 2.326 . S
In65 O71 2.266 . S
In65 O72 2.326 . S
In65 O73 2.266 1_455 S
In65 O74 2.326 1_455 S
In65 O76 2.294 . S
In65 O77 2.326 . S
O66 In65 2.294 . S
O66 C75 1.240 . S
O67 In65 2.326 . S
O67 C75 1.252 . S
C68 O71 1.252 . S
C68 O72 1.260 . S
C69 O76 1.240 . S
C69 O77 1.252 . S
C70 O73 1.252 . S
C70 O74 1.260 . S
O71 In65 2.266 . S
O71 C68 1.252 . S
O72 In65 2.326 . S
O72 C68 1.260 . S
O73 In65 2.266 1_655 S
O73 C70 1.252 . S
O74 In65 2.326 1_655 S
O74 C70 1.260 . S
C75 O66 1.240 . S
C75 O67 1.252 . S
O76 In65 2.294 . S
O76 C69 1.240 . S
O77 In65 2.326 . S
O77 C69 1.252 . S
In78 O79 2.294 . S
In78 O80 2.326 . S
In78 O84 2.266 . S
In78 O85 2.326 . S
In78 O86 2.266 . S
In78 O87 2.326 . S
In78 O89 2.294 . S
In78 O90 2.326 . S
O79 In78 2.294 . S
O79 C88 1.240 . S
O80 In78 2.326 . S
O80 C88 1.252 . S
C81 O84 1.252 . S
C81 O85 1.260 . S
C82 O89 1.240 . S
C82 O90 1.252 . S
C83 O86 1.252 . S
C83 O87 1.260 . S
O84 In78 2.266 . S
O84 C81 1.252 . S
O85 In78 2.326 . S
O85 C81 1.260 . S
O86 In78 2.266 . S
O86 C83 1.252 . S
O87 In78 2.326 . S
O87 C83 1.260 . S
C88 O79 1.240 . S
C88 O80 1.252 . S
O89 In78 2.294 . S
O89 C82 1.240 . S
O90 In78 2.326 . S
O90 C82 1.252 . S
In91 O92 2.294 . S
In91 O93 2.326 . S
In91 O97 2.266 . S
In91 O98 2.326 . S
In91 O99 2.266 1_565 S
In91 O100 2.326 1_565 S
In91 O102 2.294 . S
In91 O103 2.326 . S
O92 In91 2.294 . S
O92 C101 1.240 . S
O93 In91 2.326 . S
O93 C101 1.252 . S
C94 O97 1.252 . S
C94 O98 1.260 . S
C95 O102 1.240 . S
C95 O103 1.252 . S
C96 O99 1.252 . S
C96 O100 1.260 . S
O97 In91 2.266 . S
O97 C94 1.252 . S
O98 In91 2.326 . S
O98 C94 1.260 . S
O99 In91 2.266 1_545 S
O99 C96 1.252 . S
O100 In91 2.326 1_545 S
O100 C96 1.260 . S
C101 O92 1.240 . S
C101 O93 1.252 . S
O102 In91 2.294 . S
O102 C95 1.240 . S
O103 In91 2.326 . S
O103 C95 1.252 . S
In104 O105 2.294 . S
In104 O106 2.326 . S
In104 O110 2.266 . S
In104 O111 2.326 . S
In104 O112 2.266 1_455 S
In104 O113 2.326 1_455 S
In104 O115 2.294 . S
In104 O116 2.326 . S
O105 In104 2.294 . S
O105 C114 1.240 . S
O106 In104 2.326 . S
O106 C114 1.252 . S
C107 O110 1.252 . S
C107 O111 1.260 . S
C108 O115 1.240 . S
C108 O116 1.252 . S
C109 O112 1.252 . S
C109 O113 1.260 . S
O110 In104 2.266 . S
O110 C107 1.252 . S
O111 In104 2.326 . S
O111 C107 1.260 . S
O112 In104 2.266 1_655 S
O112 C109 1.252 . S
O113 In104 2.326 1_655 S
O113 C109 1.260 . S
C114 O105 1.240 . S
C114 O106 1.252 . S
O115 In104 2.294 . S
O115 C108 1.240 . S
O116 In104 2.326 . S
O116 C108 1.252 . S
In117 O118 2.294 . S
In117 O119 2.326 . S
In117 O123 2.266 . S
In117 O124 2.326 . S
In117 O125 2.266 . S
In117 O126 2.326 . S
In117 O128 2.294 . S
In117 O129 2.326 . S
O118 In117 2.294 . S
O118 C127 1.240 . S
O119 In117 2.326 . S
O119 C127 1.252 . S
C120 O123 1.252 . S
C120 O124 1.260 . S
C121 O128 1.240 . S
C121 O129 1.252 . S
C122 O125 1.252 . S
C122 O126 1.260 . S
O123 In117 2.266 . S
O123 C120 1.252 . S
O124 In117 2.326 . S
O124 C120 1.260 . S
O125 In117 2.266 . S
O125 C122 1.252 . S
O126 In117 2.326 . S
O126 C122 1.260 . S
C127 O118 1.240 . S
C127 O119 1.252 . S
O128 In117 2.294 . S
O128 C121 1.240 . S
O129 In117 2.326 . S
O129 C121 1.252 . S
In130 O131 2.294 . S
In130 O132 2.326 . S
In130 O136 2.266 . S
In130 O137 2.326 . S
In130 O138 2.266 1_545 S
In130 O139 2.326 1_545 S
In130 O141 2.294 . S
In130 O142 2.326 . S
O131 In130 2.294 . S
O131 C140 1.240 . S
O132 In130 2.326 . S
O132 C140 1.252 . S
C133 O136 1.252 . S
C133 O137 1.260 . S
C134 O141 1.240 . S
C134 O142 1.252 . S
C135 O138 1.252 . S
C135 O139 1.260 . S
O136 In130 2.266 . S
O136 C133 1.252 . S
O137 In130 2.326 . S
O137 C133 1.260 . S
O138 In130 2.266 1_565 S
O138 C135 1.252 . S
O139 In130 2.326 1_565 S
O139 C135 1.260 . S
C140 O131 1.240 . S
C140 O132 1.252 . S
O141 In130 2.294 . S
O141 C134 1.240 . S
O142 In130 2.326 . S
O142 C134 1.252 . S
In143 O144 2.294 . S
In143 O145 2.326 . S
In143 O149 2.266 . S
In143 O150 2.326 . S
In143 O151 2.266 1_655 S
In143 O152 2.326 1_655 S
In143 O154 2.294 . S
In143 O155 2.326 . S
O144 In143 2.294 . S
O144 C153 1.240 . S
O145 In143 2.326 . S
O145 C153 1.252 . S
C146 O149 1.252 . S
C146 O150 1.260 . S
C147 O154 1.240 . S
C147 O155 1.252 . S
C148 O151 1.252 . S
C148 O152 1.260 . S
O149 In143 2.266 . S
O149 C146 1.252 . S
O150 In143 2.326 . S
O150 C146 1.260 . S
O151 In143 2.266 1_455 S
O151 C148 1.252 . S
O152 In143 2.326 1_455 S
O152 C148 1.260 . S
C153 O144 1.240 . S
C153 O145 1.252 . S
O154 In143 2.294 . S
O154 C147 1.240 . S
O155 In143 2.326 . S
O155 C147 1.252 . S
In156 O157 2.294 . S
In156 O158 2.326 . S
In156 O162 2.266 . S
In156 O163 2.326 . S
In156 O164 2.266 . S
In156 O165 2.326 . S
In156 O167 2.294 . S
In156 O168 2.326 . S
O157 In156 2.294 . S
O157 C166 1.240 . S
O158 In156 2.326 . S
O158 C166 1.252 . S
C159 O162 1.252 . S
C159 O163 1.260 . S
C160 O167 1.240 . S
C160 O168 1.252 . S
C161 O164 1.252 . S
C161 O165 1.260 . S
O162 In156 2.266 . S
O162 C159 1.252 . S
O163 In156 2.326 . S
O163 C159 1.260 . S
O164 In156 2.266 . S
O164 C161 1.252 . S
O165 In156 2.326 . S
O165 C161 1.260 . S
C166 O157 1.240 . S
C166 O158 1.252 . S
O167 In156 2.294 . S
O167 C160 1.240 . S
O168 In156 2.326 . S
O168 C160 1.252 . S
In169 O170 2.294 . S
In169 O171 2.326 . S
In169 O175 2.266 . S
In169 O176 2.326 . S
In169 O177 2.266 . S
In169 O178 2.326 . S
In169 O180 2.294 . S
In169 O181 2.326 . S
O170 In169 2.294 . S
O170 C179 1.240 . S
O171 In169 2.326 . S
O171 C179 1.252 . S
C172 O175 1.252 . S
C172 O176 1.260 . S
C173 O180 1.240 . S
C173 O181 1.252 . S
C174 O177 1.252 . S
C174 O178 1.260 . S
O175 In169 2.266 . S
O175 C172 1.252 . S
O176 In169 2.326 . S
O176 C172 1.260 . S
O177 In169 2.266 . S
O177 C174 1.252 . S
O178 In169 2.326 . S
O178 C174 1.260 . S
C179 O170 1.240 . S
C179 O171 1.252 . S
O180 In169 2.294 . S
O180 C173 1.240 . S
O181 In169 2.326 . S
O181 C173 1.252 . S
In182 O183 2.294 . S
In182 O184 2.326 . S
In182 O188 2.266 . S
In182 O189 2.326 . S
In182 O190 2.266 . S
In182 O191 2.326 . S
In182 O193 2.294 . S
In182 O194 2.326 . S
O183 In182 2.294 . S
O183 C192 1.240 . S
O184 In182 2.326 . S
O184 C192 1.252 . S
C185 O188 1.252 . S
C185 O189 1.260 . S
C186 O193 1.240 . S
C186 O194 1.252 . S
C187 O190 1.252 . S
C187 O191 1.260 . S
O188 In182 2.266 . S
O188 C185 1.252 . S
O189 In182 2.326 . S
O189 C185 1.260 . S
O190 In182 2.266 . S
O190 C187 1.252 . S
O191 In182 2.326 . S
O191 C187 1.260 . S
C192 O183 1.240 . S
C192 O184 1.252 . S
O193 In182 2.294 . S
O193 C186 1.240 . S
O194 In182 2.326 . S
O194 C186 1.252 . S
In195 O196 2.294 . S
In195 O197 2.326 . S
In195 O201 2.266 . S
In195 O202 2.326 . S
In195 O203 2.266 . S
In195 O204 2.326 . S
In195 O206 2.294 . S
In195 O207 2.326 . S
O196 In195 2.294 . S
O196 C205 1.240 . S
O197 In195 2.326 . S
O197 C205 1.252 . S
C198 O201 1.252 . S
C198 O202 1.260 . S
C199 O206 1.240 . S
C199 O207 1.252 . S
C200 O203 1.252 . S
C200 O204 1.260 . S
O201 In195 2.266 . S
O201 C198 1.252 . S
O202 In195 2.326 . S
O202 C198 1.260 . S
O203 In195 2.266 . S
O203 C200 1.252 . S
O204 In195 2.326 . S
O204 C200 1.260 . S
C205 O196 1.240 . S
C205 O197 1.252 . S
O206 In195 2.294 . S
O206 C199 1.240 . S
O207 In195 2.326 . S
O207 C199 1.252 . S
In208 O209 2.294 . S
In208 O210 2.326 . S
In208 O214 2.266 . S
In208 O215 2.326 . S
In208 O216 2.266 . S
In208 O217 2.326 . S
In208 O219 2.294 . S
In208 O220 2.326 . S
O209 In208 2.294 . S
O209 C218 1.240 . S
O210 In208 2.326 . S
O210 C218 1.252 . S
C211 O214 1.252 . S
C211 O215 1.260 . S
C212 O219 1.240 . S
C212 O220 1.252 . S
C213 O216 1.252 . S
C213 O217 1.260 . S
O214 In208 2.266 . S
O214 C211 1.252 . S
O215 In208 2.326 . S
O215 C211 1.260 . S
O216 In208 2.266 . S
O216 C213 1.252 . S
O217 In208 2.326 . S
O217 C213 1.260 . S
C218 O209 1.240 . S
C218 O210 1.252 . S
O219 In208 2.294 . S
O219 C212 1.240 . S
O220 In208 2.326 . S
O220 C212 1.252 . S
In221 O222 2.294 . S
In221 O223 2.326 . S
In221 O227 2.266 . S
In221 O228 2.326 . S
In221 O229 2.266 . S
In221 O230 2.326 . S
In221 O232 2.294 . S
In221 O233 2.326 . S
O222 In221 2.294 . S
O222 C231 1.240 . S
O223 In221 2.326 . S
O223 C231 1.252 . S
C224 O227 1.252 . S
C224 O228 1.260 . S
C225 O232 1.240 . S
C225 O233 1.252 . S
C226 O229 1.252 . S
C226 O230 1.260 . S
O227 In221 2.266 . S
O227 C224 1.252 . S
O228 In221 2.326 . S
O228 C224 1.260 . S
O229 In221 2.266 . S
O229 C226 1.252 . S
O230 In221 2.326 . S
O230 C226 1.260 . S
C231 O222 1.240 . S
C231 O223 1.252 . S
O232 In221 2.294 . S
O232 C225 1.240 . S
O233 In221 2.326 . S
O233 C225 1.252 . S
In234 O235 2.294 . S
In234 O236 2.326 . S
In234 O240 2.266 . S
In234 O241 2.326 . S
In234 O242 2.266 . S
In234 O243 2.326 . S
In234 O245 2.294 . S
In234 O246 2.326 . S
O235 In234 2.294 . S
O235 C244 1.240 . S
O236 In234 2.326 . S
O236 C244 1.252 . S
C237 O240 1.252 . S
C237 O241 1.260 . S
C238 O245 1.240 . S
C238 O246 1.252 . S
C239 O242 1.252 . S
C239 O243 1.260 . S
O240 In234 2.266 . S
O240 C237 1.252 . S
O241 In234 2.326 . S
O241 C237 1.260 . S
O242 In234 2.266 . S
O242 C239 1.252 . S
O243 In234 2.326 . S
O243 C239 1.260 . S
C244 O235 1.240 . S
C244 O236 1.252 . S
O245 In234 2.294 . S
O245 C238 1.240 . S
O246 In234 2.326 . S
O246 C238 1.252 . S
In247 O248 2.294 . S
In247 O249 2.326 . S
In247 O253 2.266 . S
In247 O254 2.326 . S
In247 O255 2.266 . S
In247 O256 2.326 . S
In247 O258 2.294 . S
In247 O259 2.326 . S
O248 In247 2.294 . S
O248 C257 1.240 . S
O249 In247 2.326 . S
O249 C257 1.252 . S
C250 O253 1.252 . S
C250 O254 1.260 . S
C251 O258 1.240 . S
C251 O259 1.252 . S
C252 O255 1.252 . S
C252 O256 1.260 . S
O253 In247 2.266 . S
O253 C250 1.252 . S
O254 In247 2.326 . S
O254 C250 1.260 . S
O255 In247 2.266 . S
O255 C252 1.252 . S
O256 In247 2.326 . S
O256 C252 1.260 . S
C257 O248 1.240 . S
C257 O249 1.252 . S
O258 In247 2.294 . S
O258 C251 1.240 . S
O259 In247 2.326 . S
O259 C251 1.252 . S
In260 O261 2.294 . S
In260 O262 2.326 . S
In260 O266 2.266 . S
In260 O267 2.326 . S
In260 O268 2.266 . S
In260 O269 2.326 . S
In260 O271 2.294 . S
In260 O272 2.326 . S
O261 In260 2.294 . S
O261 C270 1.240 . S
O262 In260 2.326 . S
O262 C270 1.252 . S
C263 O266 1.252 . S
C263 O267 1.260 . S
C264 O271 1.240 . S
C264 O272 1.252 . S
C265 O268 1.252 . S
C265 O269 1.260 . S
O266 In260 2.266 . S
O266 C263 1.252 . S
O267 In260 2.326 . S
O267 C263 1.260 . S
O268 In260 2.266 . S
O268 C265 1.252 . S
O269 In260 2.326 . S
O269 C265 1.260 . S
C270 O261 1.240 . S
C270 O262 1.252 . S
O271 In260 2.294 . S
O271 C264 1.240 . S
O272 In260 2.326 . S
O272 C264 1.252 . S
In273 O274 2.293 1_554 S
In273 O275 2.327 . S
In273 O279 2.265 1_554 S
In273 O280 2.326 . S
In273 O281 2.267 . S
In273 O282 2.324 1_554 S
In273 O284 2.296 . S
In273 O285 2.328 . S
O274 In273 2.293 1_556 S
O274 C283 1.240 . S
O275 In273 2.327 . S
O275 C283 1.252 1_554 S
C276 O279 1.252 . S
C276 O280 1.260 1_556 S
C277 O284 1.240 . S
C277 O285 1.252 . S
C278 O281 1.252 1_556 S
C278 O282 1.260 . S
O279 In273 2.265 1_556 S
O279 C276 1.252 . S
O280 In273 2.326 . S
O280 C276 1.260 1_554 S
O281 In273 2.267 . S
O281 C278 1.252 1_554 S
O282 In273 2.324 1_556 S
O282 C278 1.260 . S
C283 O274 1.240 . S
C283 O275 1.252 1_556 S
O284 In273 2.296 . S
O284 C277 1.240 . S
O285 In273 2.328 . S
O285 C277 1.252 . S
In286 O287 2.293 1_554 S
In286 O288 2.327 . S
In286 O292 2.265 1_554 S
In286 O293 2.326 . S
In286 O294 2.267 . S
In286 O295 2.324 1_554 S
In286 O297 2.296 . S
In286 O298 2.328 . S
O287 In286 2.293 1_556 S
O287 C296 1.240 . S
O288 In286 2.327 . S
O288 C296 1.252 1_554 S
C289 O292 1.252 . S
C289 O293 1.260 1_556 S
C290 O297 1.240 . S
C290 O298 1.252 . S
C291 O294 1.252 1_556 S
C291 O295 1.260 . S
O292 In286 2.265 1_556 S
O292 C289 1.252 . S
O293 In286 2.326 . S
O293 C289 1.260 1_554 S
O294 In286 2.267 . S
O294 C291 1.252 1_554 S
O295 In286 2.324 1_556 S
O295 C291 1.260 . S
C296 O287 1.240 . S
C296 O288 1.252 1_556 S
O297 In286 2.296 . S
O297 C290 1.240 . S
O298 In286 2.328 . S
O298 C290 1.252 . S
In299 O300 2.296 . S
In299 O301 2.328 . S
In299 O305 2.267 . S
In299 O306 2.324 1_554 S
In299 O307 2.265 1_554 S
In299 O308 2.326 . S
In299 O310 2.293 1_554 S
In299 O311 2.327 . S
O300 In299 2.296 . S
O300 C309 1.240 . S
O301 In299 2.328 . S
O301 C309 1.252 . S
C302 O305 1.252 1_556 S
C302 O306 1.260 . S
C303 O310 1.240 . S
C303 O311 1.252 1_556 S
C304 O307 1.252 . S
C304 O308 1.260 1_556 S
O305 In299 2.267 . S
O305 C302 1.252 1_554 S
O306 In299 2.324 1_556 S
O306 C302 1.260 . S
O307 In299 2.265 1_556 S
O307 C304 1.252 . S
O308 In299 2.326 . S
O308 C304 1.260 1_554 S
C309 O300 1.240 . S
C309 O301 1.252 . S
O310 In299 2.293 1_556 S
O310 C303 1.240 . S
O311 In299 2.327 . S
O311 C303 1.252 1_554 S
In312 O313 2.294 . S
In312 O314 2.326 . S
In312 O318 2.266 . S
In312 O319 2.326 . S
In312 O320 2.266 . S
In312 O321 2.326 . S
In312 O323 2.294 . S
In312 O324 2.326 . S
O313 In312 2.294 . S
O313 C322 1.240 . S
O314 In312 2.326 . S
O314 C322 1.252 . S
C315 O318 1.252 . S
C315 O319 1.260 . S
C316 O323 1.240 . S
C316 O324 1.252 . S
C317 O320 1.252 . S
C317 O321 1.260 . S
O318 In312 2.266 . S
O318 C315 1.252 . S
O319 In312 2.326 . S
O319 C315 1.260 . S
O320 In312 2.266 . S
O320 C317 1.252 . S
O321 In312 2.326 . S
O321 C317 1.260 . S
C322 O313 1.240 . S
C322 O314 1.252 . S
O323 In312 2.294 . S
O323 C316 1.240 . S
O324 In312 2.326 . S
O324 C316 1.252 . S
In325 O326 2.294 . S
In325 O327 2.326 . S
In325 O331 2.266 . S
In325 O332 2.326 . S
In325 O333 2.266 . S
In325 O334 2.326 . S
In325 O336 2.294 . S
In325 O337 2.326 . S
O326 In325 2.294 . S
O326 C335 1.240 . S
O327 In325 2.326 . S
O327 C335 1.252 . S
C328 O331 1.252 . S
C328 O332 1.260 . S
C329 O336 1.240 . S
C329 O337 1.252 . S
C330 O333 1.252 . S
C330 O334 1.260 . S
O331 In325 2.266 . S
O331 C328 1.252 . S
O332 In325 2.326 . S
O332 C328 1.260 . S
O333 In325 2.266 . S
O333 C330 1.252 . S
O334 In325 2.326 . S
O334 C330 1.260 . S
C335 O326 1.240 . S
C335 O327 1.252 . S
O336 In325 2.294 . S
O336 C329 1.240 . S
O337 In325 2.326 . S
O337 C329 1.252 . S
In338 O339 2.294 . S
In338 O340 2.326 . S
In338 O344 2.266 . S
In338 O345 2.326 . S
In338 O346 2.266 . S
In338 O347 2.326 . S
In338 O349 2.294 . S
In338 O350 2.326 . S
O339 In338 2.294 . S
O339 C348 1.240 . S
O340 In338 2.326 . S
O340 C348 1.252 . S
C341 O344 1.252 . S
C341 O345 1.260 . S
C342 O349 1.240 . S
C342 O350 1.252 . S
C343 O346 1.252 . S
C343 O347 1.260 . S
O344 In338 2.266 . S
O344 C341 1.252 . S
O345 In338 2.326 . S
O345 C341 1.260 . S
O346 In338 2.266 . S
O346 C343 1.252 . S
O347 In338 2.326 . S
O347 C343 1.260 . S
C348 O339 1.240 . S
C348 O340 1.252 . S
O349 In338 2.294 . S
O349 C342 1.240 . S
O350 In338 2.326 . S
O350 C342 1.252 . S
In351 O352 2.293 1_556 S
In351 O353 2.327 . S
In351 O357 2.265 1_556 S
In351 O358 2.326 . S
In351 O359 2.267 . S
In351 O360 2.324 1_556 S
In351 O362 2.296 . S
In351 O363 2.328 . S
O352 In351 2.293 1_554 S
O352 C361 1.240 . S
O353 In351 2.327 . S
O353 C361 1.252 1_556 S
C354 O357 1.252 . S
C354 O358 1.260 1_554 S
C355 O362 1.240 . S
C355 O363 1.252 . S
C356 O359 1.252 1_554 S
C356 O360 1.260 . S
O357 In351 2.265 1_554 S
O357 C354 1.252 . S
O358 In351 2.326 . S
O358 C354 1.260 1_556 S
O359 In351 2.267 . S
O359 C356 1.252 1_556 S
O360 In351 2.324 1_554 S
O360 C356 1.260 . S
C361 O352 1.240 . S
C361 O353 1.252 1_554 S
O362 In351 2.296 . S
O362 C355 1.240 . S
O363 In351 2.328 . S
O363 C355 1.252 . S
In364 O365 2.293 1_556 S
In364 O366 2.327 . S
In364 O370 2.265 1_556 S
In364 O371 2.326 . S
In364 O372 2.267 . S
In364 O373 2.324 1_556 S
In364 O375 2.296 . S
In364 O376 2.328 . S
O365 In364 2.293 1_554 S
O365 C374 1.240 . S
O366 In364 2.327 . S
O366 C374 1.252 1_556 S
C367 O370 1.252 . S
C367 O371 1.260 1_554 S
C368 O375 1.240 . S
C368 O376 1.252 . S
C369 O372 1.252 1_554 S
C369 O373 1.260 . S
O370 In364 2.265 1_554 S
O370 C367 1.252 . S
O371 In364 2.326 . S
O371 C367 1.260 1_556 S
O372 In364 2.267 . S
O372 C369 1.252 1_556 S
O373 In364 2.324 1_554 S
O373 C369 1.260 . S
C374 O365 1.240 . S
C374 O366 1.252 1_554 S
O375 In364 2.296 . S
O375 C368 1.240 . S
O376 In364 2.328 . S
O376 C368 1.252 . S
In377 O378 2.293 1_556 S
In377 O379 2.327 . S
In377 O383 2.265 1_556 S
In377 O384 2.326 . S
In377 O385 2.267 . S
In377 O386 2.324 1_556 S
In377 O388 2.296 . S
In377 O389 2.328 . S
O378 In377 2.293 1_554 S
O378 C387 1.240 . S
O379 In377 2.327 . S
O379 C387 1.252 1_556 S
C380 O383 1.252 . S
C380 O384 1.260 1_554 S
C381 O388 1.240 . S
C381 O389 1.252 . S
C382 O385 1.252 1_554 S
C382 O386 1.260 . S
O383 In377 2.265 1_554 S
O383 C380 1.252 . S
O384 In377 2.326 . S
O384 C380 1.260 1_556 S
O385 In377 2.267 . S
O385 C382 1.252 1_556 S
O386 In377 2.324 1_554 S
O386 C382 1.260 . S
C387 O378 1.240 . S
C387 O379 1.252 1_554 S
O388 In377 2.296 . S
O388 C381 1.240 . S
O389 In377 2.328 . S
O389 C381 1.252 . S
In390 O391 2.294 . S
In390 O392 2.326 . S
In390 O396 2.266 . S
In390 O397 2.326 . S
In390 O398 2.266 . S
In390 O399 2.326 . S
In390 O401 2.294 . S
In390 O402 2.326 . S
O391 In390 2.294 . S
O391 C400 1.240 . S
O392 In390 2.326 . S
O392 C400 1.252 . S
C393 O396 1.252 . S
C393 O397 1.260 . S
C394 O401 1.240 . S
C394 O402 1.252 . S
C395 O398 1.252 . S
C395 O399 1.260 . S
O396 In390 2.266 . S
O396 C393 1.252 . S
O397 In390 2.326 . S
O397 C393 1.260 . S
O398 In390 2.266 . S
O398 C395 1.252 . S
O399 In390 2.326 . S
O399 C395 1.260 . S
C400 O391 1.240 . S
C400 O392 1.252 . S
O401 In390 2.294 . S
O401 C394 1.240 . S
O402 In390 2.326 . S
O402 C394 1.252 . S
In403 O404 2.294 . S
In403 O405 2.326 . S
In403 O409 2.266 . S
In403 O410 2.326 . S
In403 O411 2.266 . S
In403 O412 2.326 . S
In403 O414 2.294 . S
In403 O415 2.326 . S
O404 In403 2.294 . S
O404 C413 1.240 . S
O405 In403 2.326 . S
O405 C413 1.252 . S
C406 O409 1.252 . S
C406 O410 1.260 . S
C407 O414 1.240 . S
C407 O415 1.252 . S
C408 O411 1.252 . S
C408 O412 1.260 . S
O409 In403 2.266 . S
O409 C406 1.252 . S
O410 In403 2.326 . S
O410 C406 1.260 . S
O411 In403 2.266 . S
O411 C408 1.252 . S
O412 In403 2.326 . S
O412 C408 1.260 . S
C413 O404 1.240 . S
C413 O405 1.252 . S
O414 In403 2.294 . S
O414 C407 1.240 . S
O415 In403 2.326 . S
O415 C407 1.252 . S
In416 O417 2.294 . S
In416 O418 2.326 . S
In416 O422 2.266 . S
In416 O423 2.326 . S
In416 O424 2.266 . S
In416 O425 2.326 . S
In416 O427 2.294 . S
In416 O428 2.326 . S
O417 In416 2.294 . S
O417 C426 1.240 . S
O418 In416 2.326 . S
O418 C426 1.252 . S
C419 O422 1.252 . S
C419 O423 1.260 . S
C420 O427 1.240 . S
C420 O428 1.252 . S
C421 O424 1.252 . S
C421 O425 1.260 . S
O422 In416 2.266 . S
O422 C419 1.252 . S
O423 In416 2.326 . S
O423 C419 1.260 . S
O424 In416 2.266 . S
O424 C421 1.252 . S
O425 In416 2.326 . S
O425 C421 1.260 . S
C426 O417 1.240 . S
C426 O418 1.252 . S
O427 In416 2.294 . S
O427 C420 1.240 . S
O428 In416 2.326 . S
O428 C420 1.252 . S
In429 O430 2.294 . S
In429 O431 2.326 . S
In429 O435 2.266 . S
In429 O436 2.326 . S
In429 O437 2.266 . S
In429 O438 2.326 . S
In429 O440 2.294 . S
In429 O441 2.326 . S
O430 In429 2.294 . S
O430 C439 1.240 . S
O431 In429 2.326 . S
O431 C439 1.252 . S
C432 O435 1.252 . S
C432 O436 1.260 . S
C433 O440 1.240 . S
C433 O441 1.252 . S
C434 O437 1.252 . S
C434 O438 1.260 . S
O435 In429 2.266 . S
O435 C432 1.252 . S
O436 In429 2.326 . S
O436 C432 1.260 . S
O437 In429 2.266 . S
O437 C434 1.252 . S
O438 In429 2.326 . S
O438 C434 1.260 . S
C439 O430 1.240 . S
C439 O431 1.252 . S
O440 In429 2.294 . S
O440 C433 1.240 . S
O441 In429 2.326 . S
O441 C433 1.252 . S
In442 O443 2.294 . S
In442 O444 2.326 . S
In442 O448 2.266 . S
In442 O449 2.326 . S
In442 O450 2.266 . S
In442 O451 2.326 . S
In442 O453 2.294 . S
In442 O454 2.326 . S
O443 In442 2.294 . S
O443 C452 1.240 . S
O444 In442 2.326 . S
O444 C452 1.252 . S
C445 O448 1.252 . S
C445 O449 1.260 . S
C446 O453 1.240 . S
C446 O454 1.252 . S
C447 O450 1.252 . S
C447 O451 1.260 . S
O448 In442 2.266 . S
O448 C445 1.252 . S
O449 In442 2.326 . S
O449 C445 1.260 . S
O450 In442 2.266 . S
O450 C447 1.252 . S
O451 In442 2.326 . S
O451 C447 1.260 . S
C452 O443 1.240 . S
C452 O444 1.252 . S
O453 In442 2.294 . S
O453 C446 1.240 . S
O454 In442 2.326 . S
O454 C446 1.252 . S
In455 O456 2.294 . S
In455 O457 2.326 . S
In455 O461 2.266 . S
In455 O462 2.326 . S
In455 O463 2.266 . S
In455 O464 2.326 . S
In455 O466 2.294 . S
In455 O467 2.326 . S
O456 In455 2.294 . S
O456 C465 1.240 . S
O457 In455 2.326 . S
O457 C465 1.252 . S
C458 O461 1.252 . S
C458 O462 1.260 . S
C459 O466 1.240 . S
C459 O467 1.252 . S
C460 O463 1.252 . S
C460 O464 1.260 . S
O461 In455 2.266 . S
O461 C458 1.252 . S
O462 In455 2.326 . S
O462 C458 1.260 . S
O463 In455 2.266 . S
O463 C460 1.252 . S
O464 In455 2.326 . S
O464 C460 1.260 . S
C465 O456 1.240 . S
C465 O457 1.252 . S
O466 In455 2.294 . S
O466 C459 1.240 . S
O467 In455 2.326 . S
O467 C459 1.252 . S
H468 C474 0.930 . S
H469 C478 0.930 . S
H470 C483 0.929 . S
H471 C481 0.929 . S
H472 C476 0.929 1_455 S
H473 C482 0.929 . S
C474 H468 0.930 . S
C474 C475 1.367 . S
C474 C482 1.378 . S
C475 C474 1.367 . S
C475 C483 1.433 . S
C476 H472 0.929 1_655 S
C476 C478 1.378 . S
C476 C480 1.350 1_655 S
C477 C480 1.463 . S
C477 C482 1.350 . S
C477 N485 1.427 . S
C478 H469 0.930 . S
C478 C476 1.378 . S
C478 C479 1.367 . S
C479 C478 1.367 . S
C479 C481 1.433 . S
C480 C476 1.350 1_455 S
C480 C477 1.463 . S
C480 N484 1.427 1_455 S
C481 H471 0.929 . S
C481 C479 1.433 . S
C481 N484 1.384 . S
C482 H473 0.929 . S
C482 C474 1.378 . S
C482 C477 1.350 . S
C483 H470 0.929 . S
C483 C475 1.433 . S
C483 N485 1.384 . S
N484 C480 1.427 1_655 S
N484 C481 1.384 . S
N485 C477 1.427 . S
N485 C483 1.384 . S
H486 C492 0.930 . S
H487 C496 0.930 . S
H488 C501 0.929 . S
H489 C499 0.929 . S
H490 C494 0.929 . S
H491 C500 0.929 . S
C492 H486 0.930 . S
C492 C493 1.367 . S
C492 C500 1.378 . S
C493 C492 1.367 . S
C493 C501 1.433 . S
C494 H490 0.929 . S
C494 C496 1.378 . S
C494 C498 1.350 . S
C495 C498 1.463 . S
C495 C500 1.350 . S
C495 N503 1.427 . S
C496 H487 0.930 . S
C496 C494 1.378 . S
C496 C497 1.367 . S
C497 C496 1.367 . S
C497 C499 1.433 . S
C498 C494 1.350 . S
C498 C495 1.463 . S
C498 N502 1.427 . S
C499 H489 0.929 . S
C499 C497 1.433 . S
C499 N502 1.384 . S
C500 H491 0.929 . S
C500 C492 1.378 . S
C500 C495 1.350 . S
C501 H488 0.929 . S
C501 C493 1.433 . S
C501 N503 1.384 . S
N502 C498 1.427 . S
N502 C499 1.384 . S
N503 C495 1.427 . S
N503 C501 1.384 . S
H504 C510 0.930 . S
H505 C514 0.930 . S
H506 C519 0.929 . S
H507 C517 0.929 . S
H508 C512 0.929 . S
H509 C518 0.929 . S
C510 H504 0.930 . S
C510 C511 1.367 . S
C510 C518 1.378 . S
C511 C510 1.367 . S
C511 C519 1.433 . S
C512 H508 0.929 . S
C512 C514 1.378 . S
C512 C516 1.350 . S
C513 C516 1.463 . S
C513 C518 1.350 1_565 S
C513 N521 1.427 1_565 S
C514 H505 0.930 . S
C514 C512 1.378 . S
C514 C515 1.367 . S
C515 C514 1.367 . S
C515 C517 1.433 . S
C516 C512 1.350 . S
C516 C513 1.463 . S
C516 N520 1.427 . S
C517 H507 0.929 . S
C517 C515 1.433 . S
C517 N520 1.384 . S
C518 H509 0.929 . S
C518 C510 1.378 . S
C518 C513 1.350 1_545 S
C519 H506 0.929 . S
C519 C511 1.433 . S
C519 N521 1.384 . S
N520 C516 1.427 . S
N520 C517 1.384 . S
N521 C513 1.427 1_545 S
N521 C519 1.384 . S
H522 C528 0.930 . S
H523 C532 0.930 . S
H524 C537 0.929 . S
H525 C535 0.929 . S
H526 C530 0.929 . S
H527 C536 0.929 . S
C528 H522 0.930 . S
C528 C529 1.367 . S
C528 C536 1.378 . S
C529 C528 1.367 . S
C529 C537 1.433 . S
C530 H526 0.929 . S
C530 C532 1.378 . S
C530 C534 1.350 1_565 S
C531 C534 1.463 . S
C531 C536 1.350 . S
C531 N539 1.427 . S
C532 H523 0.930 . S
C532 C530 1.378 . S
C532 C533 1.367 . S
C533 C532 1.367 . S
C533 C535 1.433 . S
C534 C530 1.350 1_545 S
C534 C531 1.463 . S
C534 N538 1.427 1_545 S
C535 H525 0.929 . S
C535 C533 1.433 . S
C535 N538 1.384 . S
C536 H527 0.929 . S
C536 C528 1.378 . S
C536 C531 1.350 . S
C537 H524 0.929 . S
C537 C529 1.433 . S
C537 N539 1.384 . S
N538 C534 1.427 1_565 S
N538 C535 1.384 . S
N539 C531 1.427 . S
N539 C537 1.384 . S
H540 C546 0.930 . S
H541 C550 0.930 . S
H542 C555 0.929 . S
H543 C553 0.929 . S
H544 C548 0.930 . S
H545 C554 0.929 . S
C546 H540 0.930 . S
C546 C547 1.367 . S
C546 C554 1.378 . S
C547 C546 1.367 . S
C547 C555 1.433 . S
C548 H544 0.930 . S
C548 C550 1.378 . S
C548 C552 1.350 1_455 S
C549 C552 1.463 . S
C549 C554 1.350 . S
C549 N557 1.427 . S
C550 H541 0.930 . S
C550 C548 1.378 . S
C550 C551 1.367 . S
C551 C550 1.367 . S
C551 C553 1.433 . S
C552 C548 1.350 1_655 S
C552 C549 1.463 . S
C552 N556 1.427 1_655 S
C553 H543 0.929 . S
C553 C551 1.433 . S
C553 N556 1.384 . S
C554 H545 0.929 . S
C554 C546 1.378 . S
C554 C549 1.350 . S
C555 H542 0.929 . S
C555 C547 1.433 . S
C555 N557 1.384 . S
N556 C552 1.427 1_455 S
N556 C553 1.384 . S
N557 C549 1.427 . S
N557 C555 1.384 . S
H558 C564 0.930 . S
H559 C568 0.930 . S
H560 C573 0.929 . S
H561 C571 0.929 . S
H562 C566 0.929 . S
H563 C572 0.929 . S
C564 H558 0.930 . S
C564 C565 1.367 . S
C564 C572 1.378 . S
C565 C564 1.367 . S
C565 C573 1.433 . S
C566 H562 0.929 . S
C566 C568 1.378 . S
C566 C570 1.350 . S
C567 C570 1.463 . S
C567 C572 1.350 . S
C567 N575 1.427 . S
C568 H559 0.930 . S
C568 C566 1.378 . S
C568 C569 1.367 . S
C569 C568 1.367 . S
C569 C571 1.433 . S
C570 C566 1.350 . S
C570 C567 1.463 . S
C570 N574 1.427 . S
C571 H561 0.929 . S
C571 C569 1.433 . S
C571 N574 1.384 . S
C572 H563 0.929 . S
C572 C564 1.378 . S
C572 C567 1.350 . S
C573 H560 0.929 . S
C573 C565 1.433 . S
C573 N575 1.384 . S
N574 C570 1.427 . S
N574 C571 1.384 . S
N575 C567 1.427 . S
N575 C573 1.384 . S
H576 C582 0.930 . S
H577 C586 0.930 . S
H578 C591 0.929 . S
H579 C589 0.929 . S
H580 C584 0.929 . S
H581 C590 0.929 . S
C582 H576 0.930 . S
C582 C583 1.367 . S
C582 C590 1.378 . S
C583 C582 1.367 . S
C583 C591 1.433 . S
C584 H580 0.929 . S
C584 C586 1.378 . S
C584 C588 1.350 1_455 S
C585 C588 1.463 . S
C585 C590 1.350 . S
C585 N593 1.427 . S
C586 H577 0.930 . S
C586 C584 1.378 . S
C586 C587 1.367 . S
C587 C586 1.367 . S
C587 C589 1.433 . S
C588 C584 1.350 1_655 S
C588 C585 1.463 . S
C588 N592 1.427 1_655 S
C589 H579 0.929 . S
C589 C587 1.433 . S
C589 N592 1.384 . S
C590 H581 0.929 . S
C590 C582 1.378 . S
C590 C585 1.350 . S
C591 H578 0.929 . S
C591 C583 1.433 . S
C591 N593 1.384 . S
N592 C588 1.427 1_455 S
N592 C589 1.384 . S
N593 C585 1.427 . S
N593 C591 1.384 . S
H594 C600 0.930 . S
H595 C604 0.930 . S
H596 C609 0.929 . S
H597 C607 0.929 . S
H598 C602 0.929 . S
H599 C608 0.929 . S
C600 H594 0.930 . S
C600 C601 1.367 . S
C600 C608 1.378 . S
C601 C600 1.367 . S
C601 C609 1.433 . S
C602 H598 0.929 . S
C602 C604 1.378 . S
C602 C606 1.350 . S
C603 C606 1.463 . S
C603 C608 1.350 . S
C603 N611 1.427 . S
C604 H595 0.930 . S
C604 C602 1.378 . S
C604 C605 1.367 . S
C605 C604 1.367 . S
C605 C607 1.433 . S
C606 C602 1.350 . S
C606 C603 1.463 . S
C606 N610 1.427 . S
C607 H597 0.929 . S
C607 C605 1.433 . S
C607 N610 1.384 . S
C608 H599 0.929 . S
C608 C600 1.378 . S
C608 C603 1.350 . S
C609 H596 0.929 . S
C609 C601 1.433 . S
C609 N611 1.384 . S
N610 C606 1.427 . S
N610 C607 1.384 . S
N611 C603 1.427 . S
N611 C609 1.384 . S
H612 C618 0.930 . S
H613 C622 0.930 . S
H614 C627 0.929 . S
H615 C625 0.929 . S
H616 C620 0.929 . S
H617 C626 0.929 1_545 S
C618 H612 0.930 . S
C618 C619 1.367 . S
C618 C626 1.378 . S
C619 C618 1.367 . S
C619 C627 1.433 . S
C620 H616 0.929 . S
C620 C622 1.378 . S
C620 C624 1.350 . S
C621 C624 1.463 . S
C621 C626 1.350 1_545 S
C621 N629 1.427 1_545 S
C622 H613 0.930 . S
C622 C620 1.378 . S
C622 C623 1.367 . S
C623 C622 1.367 . S
C623 C625 1.433 . S
C624 C620 1.350 . S
C624 C621 1.463 . S
C624 N628 1.427 . S
C625 H615 0.929 . S
C625 C623 1.433 . S
C625 N628 1.384 . S
C626 H617 0.929 1_565 S
C626 C618 1.378 . S
C626 C621 1.350 1_565 S
C627 H614 0.929 . S
C627 C619 1.433 . S
C627 N629 1.384 . S
N628 C624 1.427 . S
N628 C625 1.384 . S
N629 C621 1.427 1_565 S
N629 C627 1.384 . S
H630 C636 0.930 . S
H631 C640 0.930 . S
H632 C645 0.929 . S
H633 C643 0.929 . S
H634 C638 0.929 . S
H635 C644 0.955 . S
C636 H630 0.930 . S
C636 C637 1.367 . S
C636 C644 1.378 . S
C637 C636 1.367 . S
C637 C645 1.433 . S
C638 H634 0.929 . S
C638 C640 1.378 . S
C638 C642 1.350 . S
C639 C642 1.463 . S
C639 C644 1.350 1_565 S
C639 N647 1.427 1_565 S
C640 H631 0.930 . S
C640 C638 1.378 . S
C640 C641 1.367 . S
C641 C640 1.367 . S
C641 C643 1.433 . S
C642 C638 1.350 . S
C642 C639 1.463 . S
C642 N646 1.427 . S
C643 H633 0.929 . S
C643 C641 1.433 . S
C643 N646 1.384 . S
C644 H635 0.955 . S
C644 C636 1.378 . S
C644 C639 1.350 1_545 S
C645 H632 0.929 . S
C645 C637 1.433 . S
C645 N647 1.384 . S
N646 C642 1.427 . S
N646 C643 1.384 . S
N647 C639 1.427 1_545 S
N647 C645 1.384 . S
H648 C654 0.930 . S
H649 C658 0.930 . S
H650 C663 0.929 . S
H651 C661 0.929 . S
H652 C656 0.915 1_455 S
H653 C662 0.929 . S
C654 H648 0.930 . S
C654 C655 1.367 . S
C654 C662 1.378 . S
C655 C654 1.367 . S
C655 C663 1.433 . S
C656 H652 0.915 1_655 S
C656 C658 1.378 . S
C656 C660 1.350 1_655 S
C657 C660 1.463 . S
C657 C662 1.350 . S
C657 N665 1.427 . S
C658 H649 0.930 . S
C658 C656 1.378 . S
C658 C659 1.367 . S
C659 C658 1.367 . S
C659 C661 1.433 . S
C660 C656 1.350 1_455 S
C660 C657 1.463 . S
C660 N664 1.427 1_455 S
C661 H651 0.929 . S
C661 C659 1.433 . S
C661 N664 1.384 . S
C662 H653 0.929 . S
C662 C654 1.378 . S
C662 C657 1.350 . S
C663 H650 0.929 . S
C663 C655 1.433 . S
C663 N665 1.384 . S
N664 C660 1.427 1_655 S
N664 C661 1.384 . S
N665 C657 1.427 . S
N665 C663 1.384 . S
H666 C672 0.930 . S
H667 C676 0.930 . S
H668 C681 0.929 . S
H669 C679 0.929 . S
H670 C674 0.929 . S
H671 C680 0.929 . S
C672 H666 0.930 . S
C672 C673 1.367 . S
C672 C680 1.378 . S
C673 C672 1.367 . S
C673 C681 1.433 . S
C674 H670 0.929 . S
C674 C676 1.378 . S
C674 C678 1.350 . S
C675 C678 1.463 . S
C675 C680 1.350 . S
C675 N683 1.427 . S
C676 H667 0.930 . S
C676 C674 1.378 . S
C676 C677 1.367 . S
C677 C676 1.367 . S
C677 C679 1.433 . S
C678 C674 1.350 . S
C678 C675 1.463 . S
C678 N682 1.427 . S
C679 H669 0.929 . S
C679 C677 1.433 . S
C679 N682 1.384 . S
C680 H671 0.929 . S
C680 C672 1.378 . S
C680 C675 1.350 . S
C681 H668 0.929 . S
C681 C673 1.433 . S
C681 N683 1.384 . S
N682 C678 1.427 . S
N682 C679 1.384 . S
N683 C675 1.427 . S
N683 C681 1.384 . S
H684 C690 0.930 . S
H685 C694 0.930 . S
H686 C699 0.929 . S
H687 C697 0.929 . S
H688 C692 0.929 . S
H689 C698 0.929 . S
C690 H684 0.930 . S
C690 C691 1.367 . S
C690 C698 1.378 . S
C691 C690 1.367 . S
C691 C699 1.433 . S
C692 H688 0.929 . S
C692 C694 1.378 . S
C692 C696 1.350 . S
C693 C696 1.463 . S
C693 C698 1.350 . S
C693 N701 1.427 . S
C694 H685 0.930 . S
C694 C692 1.378 . S
C694 C695 1.367 . S
C695 C694 1.367 . S
C695 C697 1.433 . S
C696 C692 1.350 . S
C696 C693 1.463 . S
C696 N700 1.427 . S
C697 H687 0.929 . S
C697 C695 1.433 . S
C697 N700 1.384 . S
C698 H689 0.929 . S
C698 C690 1.378 . S
C698 C693 1.350 . S
C699 H686 0.929 . S
C699 C691 1.433 . S
C699 N701 1.384 . S
N700 C696 1.427 . S
N700 C697 1.384 . S
N701 C693 1.427 . S
N701 C699 1.384 . S
H702 C708 0.930 . S
H703 C712 0.930 . S
H704 C717 0.929 . S
H705 C715 0.929 . S
H706 C710 0.929 . S
H707 C716 0.929 . S
C708 H702 0.930 . S
C708 C709 1.367 . S
C708 C716 1.378 . S
C709 C708 1.367 . S
C709 C717 1.433 . S
C710 H706 0.929 . S
C710 C712 1.378 . S
C710 C714 1.350 . S
C711 C714 1.463 . S
C711 C716 1.350 . S
C711 N719 1.427 . S
C712 H703 0.930 . S
C712 C710 1.378 . S
C712 C713 1.367 . S
C713 C712 1.367 . S
C713 C715 1.433 . S
C714 C710 1.350 . S
C714 C711 1.463 . S
C714 N718 1.427 . S
C715 H705 0.929 . S
C715 C713 1.433 . S
C715 N718 1.384 . S
C716 H707 0.929 . S
C716 C708 1.378 . S
C716 C711 1.350 . S
C717 H704 0.929 . S
C717 C709 1.433 . S
C717 N719 1.384 . S
N718 C714 1.427 . S
N718 C715 1.384 . S
N719 C711 1.427 . S
N719 C717 1.384 . S
H720 C726 0.930 . S
H721 C730 0.930 . S
H722 C735 0.929 . S
H723 C733 0.929 . S
H724 C728 0.929 . S
H725 C734 0.929 . S
C726 H720 0.930 . S
C726 C727 1.367 . S
C726 C734 1.378 . S
C727 C726 1.367 . S
C727 C735 1.433 . S
C728 H724 0.929 . S
C728 C730 1.378 . S
C728 C732 1.350 . S
C729 C732 1.463 . S
C729 C734 1.350 . S
C729 N737 1.427 . S
C730 H721 0.930 . S
C730 C728 1.378 . S
C730 C731 1.367 . S
C731 C730 1.367 . S
C731 C733 1.433 . S
C732 C728 1.350 . S
C732 C729 1.463 . S
C732 N736 1.427 . S
C733 H723 0.929 . S
C733 C731 1.433 . S
C733 N736 1.384 . S
C734 H725 0.929 . S
C734 C726 1.378 . S
C734 C729 1.350 . S
C735 H722 0.929 . S
C735 C727 1.433 . S
C735 N737 1.384 . S
N736 C732 1.427 . S
N736 C733 1.384 . S
N737 C729 1.427 . S
N737 C735 1.384 . S
H738 C744 0.930 . S
H739 C748 0.930 . S
H740 C753 0.929 . S
H741 C751 0.929 . S
H742 C746 0.929 . S
H743 C752 0.929 . S
C744 H738 0.930 . S
C744 C745 1.367 . S
C744 C752 1.378 . S
C745 C744 1.367 . S
C745 C753 1.433 . S
C746 H742 0.929 . S
C746 C748 1.378 . S
C746 C750 1.350 . S
C747 C750 1.463 . S
C747 C752 1.350 . S
C747 N755 1.427 . S
C748 H739 0.930 . S
C748 C746 1.378 . S
C748 C749 1.367 . S
C749 C748 1.367 . S
C749 C751 1.433 . S
C750 C746 1.350 . S
C750 C747 1.463 . S
C750 N754 1.427 . S
C751 H741 0.929 . S
C751 C749 1.433 . S
C751 N754 1.384 . S
C752 H743 0.929 . S
C752 C744 1.378 . S
C752 C747 1.350 . S
C753 H740 0.929 . S
C753 C745 1.433 . S
C753 N755 1.384 . S
N754 C750 1.427 . S
N754 C751 1.384 . S
N755 C747 1.427 . S
N755 C753 1.384 . S
H756 C762 0.930 . S
H757 C766 0.930 . S
H758 C771 0.929 . S
H759 C769 0.929 . S
H760 C764 0.929 . S
H761 C770 0.929 . S
C762 H756 0.930 . S
C762 C763 1.367 . S
C762 C770 1.378 . S
C763 C762 1.367 . S
C763 C771 1.433 . S
C764 H760 0.929 . S
C764 C766 1.378 . S
C764 C768 1.350 . S
C765 C768 1.463 . S
C765 C770 1.350 . S
C765 N773 1.427 . S
C766 H757 0.930 . S
C766 C764 1.378 . S
C766 C767 1.367 . S
C767 C766 1.367 . S
C767 C769 1.433 . S
C768 C764 1.350 . S
C768 C765 1.463 . S
C768 N772 1.427 . S
C769 H759 0.929 . S
C769 C767 1.433 . S
C769 N772 1.384 . S
C770 H761 0.929 . S
C770 C762 1.378 . S
C770 C765 1.350 . S
C771 H758 0.929 . S
C771 C763 1.433 . S
C771 N773 1.384 . S
N772 C768 1.427 . S
N772 C769 1.384 . S
N773 C765 1.427 . S
N773 C771 1.384 . S
H774 C780 0.930 . S
H775 C784 0.930 . S
H776 C789 0.929 . S
H777 C787 0.929 . S
H778 C782 0.929 . S
H779 C788 0.929 . S
C780 H774 0.930 . S
C780 C781 1.367 . S
C780 C788 1.378 . S
C781 C780 1.367 . S
C781 C789 1.433 . S
C782 H778 0.929 . S
C782 C784 1.378 . S
C782 C786 1.350 . S
C783 C786 1.463 . S
C783 C788 1.350 . S
C783 N791 1.427 . S
C784 H775 0.930 . S
C784 C782 1.378 . S
C784 C785 1.367 . S
C785 C784 1.367 . S
C785 C787 1.433 . S
C786 C782 1.350 . S
C786 C783 1.463 . S
C786 N790 1.427 . S
C787 H777 0.929 . S
C787 C785 1.433 . S
C787 N790 1.384 . S
C788 H779 0.929 . S
C788 C780 1.378 . S
C788 C783 1.350 . S
C789 H776 0.929 . S
C789 C781 1.433 . S
C789 N791 1.384 . S
N790 C786 1.427 . S
N790 C787 1.384 . S
N791 C783 1.427 . S
N791 C789 1.384 . S
H792 C798 0.930 . S
H793 C802 0.930 . S
H794 C807 0.929 . S
H795 C805 0.929 . S
H796 C800 0.929 . S
H797 C806 0.929 . S
C798 H792 0.930 . S
C798 C799 1.367 . S
C798 C806 1.378 . S
C799 C798 1.367 . S
C799 C807 1.433 . S
C800 H796 0.929 . S
C800 C802 1.378 . S
C800 C804 1.350 . S
C801 C804 1.463 . S
C801 C806 1.350 . S
C801 N809 1.427 . S
C802 H793 0.930 . S
C802 C800 1.378 . S
C802 C803 1.367 . S
C803 C802 1.367 . S
C803 C805 1.433 . S
C804 C800 1.350 . S
C804 C801 1.463 . S
C804 N808 1.427 . S
C805 H795 0.929 . S
C805 C803 1.433 . S
C805 N808 1.384 . S
C806 H797 0.929 . S
C806 C798 1.378 . S
C806 C801 1.350 . S
C807 H794 0.929 . S
C807 C799 1.433 . S
C807 N809 1.384 . S
N808 C804 1.427 . S
N808 C805 1.384 . S
N809 C801 1.427 . S
N809 C807 1.384 . S
H810 C816 0.930 . S
H811 C820 0.930 . S
H812 C825 0.929 . S
H813 C823 0.929 . S
H814 C818 0.929 . S
H815 C824 0.929 . S
C816 H810 0.930 . S
C816 C817 1.367 . S
C816 C824 1.378 . S
C817 C816 1.367 . S
C817 C825 1.433 . S
C818 H814 0.929 . S
C818 C820 1.378 . S
C818 C822 1.350 . S
C819 C822 1.463 . S
C819 C824 1.350 . S
C819 N827 1.427 . S
C820 H811 0.930 . S
C820 C818 1.378 . S
C820 C821 1.367 . S
C821 C820 1.367 . S
C821 C823 1.433 . S
C822 C818 1.350 . S
C822 C819 1.463 . S
C822 N826 1.427 . S
C823 H813 0.929 . S
C823 C821 1.433 . S
C823 N826 1.384 . S
C824 H815 0.929 . S
C824 C816 1.378 . S
C824 C819 1.350 . S
C825 H812 0.929 . S
C825 C817 1.433 . S
C825 N827 1.384 . S
N826 C822 1.427 . S
N826 C823 1.384 . S
N827 C819 1.427 . S
N827 C825 1.384 . S
H828 C834 0.930 . S
H829 C838 0.930 . S
H830 C843 0.929 . S
H831 C841 0.929 . S
H832 C836 0.929 . S
H833 C842 0.929 . S
C834 H828 0.930 . S
C834 C835 1.367 . S
C834 C842 1.378 . S
C835 C834 1.367 . S
C835 C843 1.433 . S
C836 H832 0.929 . S
C836 C838 1.378 . S
C836 C840 1.350 . S
C837 C840 1.463 . S
C837 C842 1.350 . S
C837 N845 1.427 . S
C838 H829 0.930 . S
C838 C836 1.378 . S
C838 C839 1.367 . S
C839 C838 1.367 . S
C839 C841 1.433 . S
C840 C836 1.350 . S
C840 C837 1.463 . S
C840 N844 1.427 . S
C841 H831 0.929 . S
C841 C839 1.433 . S
C841 N844 1.384 . S
C842 H833 0.929 . S
C842 C834 1.378 . S
C842 C837 1.350 . S
C843 H830 0.929 . S
C843 C835 1.433 . S
C843 N845 1.384 . S
N844 C840 1.427 . S
N844 C841 1.384 . S
N845 C837 1.427 . S
N845 C843 1.384 . S
H846 C852 0.930 1_554 S
H847 C856 0.930 . S
H848 C861 0.929 . S
H849 C859 0.895 1_554 S
H850 C854 0.929 . S
H851 C860 0.929 1_554 S
C852 H846 0.930 1_556 S
C852 C853 1.367 . S
C852 C860 1.378 . S
C853 C852 1.367 . S
C853 C861 1.433 . S
C854 H850 0.929 . S
C854 C856 1.378 . S
C854 C858 1.350 . S
C855 C858 1.463 . S
C855 C860 1.350 . S
C855 N863 1.427 . S
C856 H847 0.930 . S
C856 C854 1.378 . S
C856 C857 1.367 . S
C857 C856 1.367 . S
C857 C859 1.433 . S
C858 C854 1.350 . S
C858 C855 1.463 . S
C858 N862 1.427 . S
C859 H849 0.895 1_556 S
C859 C857 1.433 . S
C859 N862 1.384 . S
C860 H851 0.929 1_556 S
C860 C852 1.378 . S
C860 C855 1.350 . S
C861 H848 0.929 . S
C861 C853 1.433 . S
C861 N863 1.384 . S
N862 C858 1.427 . S
N862 C859 1.384 . S
N863 C855 1.427 . S
N863 C861 1.384 . S
H864 C870 0.930 1_554 S
H865 C874 0.930 . S
H866 C879 0.929 . S
H867 C877 0.914 1_554 S
H868 C872 0.929 . S
H869 C878 0.929 1_554 S
C870 H864 0.930 1_556 S
C870 C871 1.367 . S
C870 C878 1.378 . S
C871 C870 1.367 . S
C871 C879 1.433 . S
C872 H868 0.929 . S
C872 C874 1.378 . S
C872 C876 1.350 . S
C873 C876 1.463 . S
C873 C878 1.350 . S
C873 N881 1.427 . S
C874 H865 0.930 . S
C874 C872 1.378 . S
C874 C875 1.367 . S
C875 C874 1.367 . S
C875 C877 1.448 . S
C876 C872 1.350 . S
C876 C873 1.463 . S
C876 N880 1.468 . S
C877 H867 0.914 1_556 S
C877 C875 1.448 . S
C877 N880 1.383 . S
C878 H869 0.929 1_556 S
C878 C870 1.378 . S
C878 C873 1.350 . S
C879 H866 0.929 . S
C879 C871 1.433 . S
C879 N881 1.384 . S
N880 C876 1.468 . S
N880 C877 1.383 . S
N881 C873 1.427 . S
N881 C879 1.384 . S
H882 C888 0.897 1_554 S
H883 C892 0.930 . S
H884 C897 0.929 . S
H885 C895 0.929 1_554 S
H886 C890 0.929 . S
H887 C896 0.909 1_554 S
C888 H882 0.897 1_556 S
C888 C889 1.367 . S
C888 C896 1.378 . S
C889 C888 1.367 . S
C889 C897 1.433 . S
C890 H886 0.929 . S
C890 C892 1.378 . S
C890 C894 1.350 . S
C891 C894 1.463 . S
C891 C896 1.350 . S
C891 N899 1.427 . S
C892 H883 0.930 . S
C892 C890 1.378 . S
C892 C893 1.367 . S
C893 C892 1.367 . S
C893 C895 1.433 . S
C894 C890 1.350 . S
C894 C891 1.463 . S
C894 N898 1.427 . S
C895 H885 0.929 1_556 S
C895 C893 1.433 . S
C895 N898 1.384 . S
C896 H887 0.909 1_556 S
C896 C888 1.378 . S
C896 C891 1.350 . S
C897 H884 0.929 . S
C897 C889 1.433 . S
C897 N899 1.384 . S
N898 C894 1.427 . S
N898 C895 1.384 . S
N899 C891 1.427 . S
N899 C897 1.384 . S
H900 C906 0.930 . S
H901 C910 0.930 . S
H902 C915 0.929 . S
H903 C913 0.929 . S
H904 C908 0.929 . S
H905 C914 0.929 . S
C906 H900 0.930 . S
C906 C907 1.367 . S
C906 C914 1.378 . S
C907 C906 1.367 . S
C907 C915 1.433 . S
C908 H904 0.929 . S
C908 C910 1.378 . S
C908 C912 1.350 . S
C909 C912 1.463 . S
C909 C914 1.350 . S
C909 N917 1.427 . S
C910 H901 0.930 . S
C910 C908 1.378 . S
C910 C911 1.367 . S
C911 C910 1.367 . S
C911 C913 1.433 . S
C912 C908 1.350 . S
C912 C909 1.463 . S
C912 N916 1.427 . S
C913 H903 0.929 . S
C913 C911 1.433 . S
C913 N916 1.384 . S
C914 H905 0.929 . S
C914 C906 1.378 . S
C914 C909 1.350 . S
C915 H902 0.929 . S
C915 C907 1.433 . S
C915 N917 1.384 . S
N916 C912 1.427 . S
N916 C913 1.384 . S
N917 C909 1.427 . S
N917 C915 1.384 . S
H918 C924 0.930 . S
H919 C928 0.930 . S
H920 C933 0.929 . S
H921 C931 0.929 . S
H922 C926 0.929 . S
H923 C932 0.929 . S
C924 H918 0.930 . S
C924 C925 1.367 . S
C924 C932 1.378 . S
C925 C924 1.367 . S
C925 C933 1.433 . S
C926 H922 0.929 . S
C926 C928 1.378 . S
C926 C930 1.350 . S
C927 C930 1.463 . S
C927 C932 1.350 . S
C927 N935 1.427 . S
C928 H919 0.930 . S
C928 C926 1.378 . S
C928 C929 1.367 . S
C929 C928 1.367 . S
C929 C931 1.433 . S
C930 C926 1.350 . S
C930 C927 1.463 . S
C930 N934 1.427 . S
C931 H921 0.929 . S
C931 C929 1.433 . S
C931 N934 1.384 . S
C932 H923 0.929 . S
C932 C924 1.378 . S
C932 C927 1.350 . S
C933 H920 0.929 . S
C933 C925 1.433 . S
C933 N935 1.384 . S
N934 C930 1.427 . S
N934 C931 1.384 . S
N935 C927 1.427 . S
N935 C933 1.384 . S
H936 C942 0.930 . S
H937 C946 0.930 . S
H938 C951 0.929 . S
H939 C949 0.929 . S
H940 C944 0.929 . S
H941 C950 0.929 . S
C942 H936 0.930 . S
C942 C943 1.367 . S
C942 C950 1.378 . S
C943 C942 1.367 . S
C943 C951 1.433 . S
C944 H940 0.929 . S
C944 C946 1.378 . S
C944 C948 1.350 . S
C945 C948 1.463 . S
C945 C950 1.350 . S
C945 N953 1.427 . S
C946 H937 0.930 . S
C946 C944 1.378 . S
C946 C947 1.367 . S
C947 C946 1.367 . S
C947 C949 1.433 . S
C948 C944 1.350 . S
C948 C945 1.463 . S
C948 N952 1.427 . S
C949 H939 0.929 . S
C949 C947 1.433 . S
C949 N952 1.384 . S
C950 H941 0.929 . S
C950 C942 1.378 . S
C950 C945 1.350 . S
C951 H938 0.929 . S
C951 C943 1.433 . S
C951 N953 1.384 . S
N952 C948 1.427 . S
N952 C949 1.384 . S
N953 C945 1.427 . S
N953 C951 1.384 . S
H954 C960 0.930 . S
H955 C964 0.930 1_556 S
H956 C969 0.925 1_556 S
H957 C967 0.929 . S
H958 C962 0.929 1_556 S
H959 C968 0.929 . S
C960 H954 0.930 . S
C960 C961 1.367 . S
C960 C968 1.378 . S
C961 C960 1.367 . S
C961 C969 1.438 . S
C962 H958 0.929 1_554 S
C962 C964 1.378 . S
C962 C966 1.350 . S
C963 C966 1.463 . S
C963 C968 1.350 . S
C963 N971 1.458 . S
C964 H955 0.930 1_554 S
C964 C962 1.378 . S
C964 C965 1.367 . S
C965 C964 1.367 . S
C965 C967 1.433 . S
C966 C962 1.350 . S
C966 C963 1.463 . S
C966 N970 1.427 . S
C967 H957 0.929 . S
C967 C965 1.433 . S
C967 N970 1.384 . S
C968 H959 0.929 . S
C968 C960 1.378 . S
C968 C963 1.350 . S
C969 H956 0.925 1_554 S
C969 C961 1.438 . S
C969 N971 1.383 . S
N970 C966 1.427 . S
N970 C967 1.384 . S
N971 C963 1.458 . S
N971 C969 1.383 . S
H972 C978 0.930 . S
H973 C982 0.930 . S
H974 C987 0.929 . S
H975 C985 0.929 . S
H976 C980 0.929 . S
H977 C986 0.929 . S
C978 H972 0.930 . S
C978 C979 1.367 . S
C978 C986 1.378 . S
C979 C978 1.367 . S
C979 C987 1.433 . S
C980 H976 0.929 . S
C980 C982 1.378 . S
C980 C984 1.350 . S
C981 C984 1.463 . S
C981 C986 1.350 . S
C981 N989 1.427 . S
C982 H973 0.930 . S
C982 C980 1.378 . S
C982 C983 1.367 . S
C983 C982 1.367 . S
C983 C985 1.433 . S
C984 C980 1.350 . S
C984 C981 1.463 . S
C984 N988 1.427 . S
C985 H975 0.929 . S
C985 C983 1.433 . S
C985 N988 1.384 . S
C986 H977 0.929 . S
C986 C978 1.378 . S
C986 C981 1.350 . S
C987 H974 0.929 . S
C987 C979 1.433 . S
C987 N989 1.384 . S
N988 C984 1.427 . S
N988 C985 1.384 . S
N989 C981 1.427 . S
N989 C987 1.384 . S
H990 C996 0.955 . S
H991 C1000 0.930 . S
H992 C1005 0.929 . S
H993 C1003 0.929 1_556 S
H994 C998 0.929 . S
H995 C1004 0.939 . S
C996 H990 0.955 . S
C996 C997 1.343 1_556 S
C996 C1004 1.378 . S
C997 C996 1.343 1_554 S
C997 C1005 1.433 . S
C998 H994 0.929 . S
C998 C1000 1.378 . S
C998 C1002 1.350 . S
C999 C1002 1.463 . S
C999 C1004 1.339 1_554 S
C999 N1007 1.427 . S
C1000 H991 0.930 . S
C1000 C998 1.378 . S
C1000 C1001 1.367 . S
C1001 C1000 1.367 . S
C1001 C1003 1.434 . S
C1002 C998 1.350 . S
C1002 C999 1.463 . S
C1002 N1006 1.427 . S
C1003 H993 0.929 1_554 S
C1003 C1001 1.434 . S
C1003 N1006 1.384 . S
C1004 H995 0.939 . S
C1004 C996 1.378 . S
C1004 C999 1.339 1_556 S
C1005 H992 0.929 . S
C1005 C997 1.433 . S
C1005 N1007 1.384 . S
N1006 C1002 1.427 . S
N1006 C1003 1.384 . S
N1007 C999 1.427 . S
N1007 C1005 1.384 . S
H1008 C1014 0.930 . S
H1009 C1018 0.930 . S
H1010 C1023 0.929 . S
H1011 C1021 0.929 . S
H1012 C1016 0.929 . S
H1013 C1022 0.929 . S
C1014 H1008 0.930 . S
C1014 C1015 1.367 . S
C1014 C1022 1.378 . S
C1015 C1014 1.367 . S
C1015 C1023 1.433 . S
C1016 H1012 0.929 . S
C1016 C1018 1.378 . S
C1016 C1020 1.350 . S
C1017 C1020 1.463 . S
C1017 C1022 1.350 . S
C1017 N1025 1.427 . S
C1018 H1009 0.930 . S
C1018 C1016 1.378 . S
C1018 C1019 1.367 . S
C1019 C1018 1.367 . S
C1019 C1021 1.433 . S
C1020 C1016 1.350 . S
C1020 C1017 1.463 . S
C1020 N1024 1.427 . S
C1021 H1011 0.929 . S
C1021 C1019 1.433 . S
C1021 N1024 1.384 . S
C1022 H1013 0.929 . S
C1022 C1014 1.378 . S
C1022 C1017 1.350 . S
C1023 H1010 0.929 . S
C1023 C1015 1.433 . S
C1023 N1025 1.384 . S
N1024 C1020 1.427 . S
N1024 C1021 1.384 . S
N1025 C1017 1.427 . S
N1025 C1023 1.384 . S
H1026 C1032 0.930 . S
H1027 C1036 0.930 . S
H1028 C1041 0.929 . S
H1029 C1039 0.929 . S
H1030 C1034 0.929 . S
H1031 C1040 0.929 . S
C1032 H1026 0.930 . S
C1032 C1033 1.367 . S
C1032 C1040 1.378 . S
C1033 C1032 1.367 . S
C1033 C1041 1.433 . S
C1034 H1030 0.929 . S
C1034 C1036 1.378 . S
C1034 C1038 1.350 . S
C1035 C1038 1.463 . S
C1035 C1040 1.350 . S
C1035 N1043 1.427 . S
C1036 H1027 0.930 . S
C1036 C1034 1.378 . S
C1036 C1037 1.367 . S
C1037 C1036 1.367 . S
C1037 C1039 1.433 . S
C1038 C1034 1.350 . S
C1038 C1035 1.463 . S
C1038 N1042 1.427 . S
C1039 H1029 0.929 . S
C1039 C1037 1.433 . S
C1039 N1042 1.384 . S
C1040 H1031 0.929 . S
C1040 C1032 1.378 . S
C1040 C1035 1.350 . S
C1041 H1028 0.929 . S
C1041 C1033 1.433 . S
C1041 N1043 1.384 . S
N1042 C1038 1.427 . S
N1042 C1039 1.384 . S
N1043 C1035 1.427 . S
N1043 C1041 1.384 . S
H1044 C1050 0.930 . S
H1045 C1054 0.930 . S
H1046 C1059 0.929 . S
H1047 C1057 0.929 . S
H1048 C1052 0.929 . S
H1049 C1058 0.929 . S
C1050 H1044 0.930 . S
C1050 C1051 1.367 . S
C1050 C1058 1.378 . S
C1051 C1050 1.367 . S
C1051 C1059 1.433 . S
C1052 H1048 0.929 . S
C1052 C1054 1.378 . S
C1052 C1056 1.350 . S
C1053 C1056 1.463 . S
C1053 C1058 1.350 . S
C1053 N1061 1.427 . S
C1054 H1045 0.930 . S
C1054 C1052 1.378 . S
C1054 C1055 1.367 . S
C1055 C1054 1.367 . S
C1055 C1057 1.433 . S
C1056 C1052 1.350 . S
C1056 C1053 1.463 . S
C1056 N1060 1.427 . S
C1057 H1047 0.929 . S
C1057 C1055 1.433 . S
C1057 N1060 1.384 . S
C1058 H1049 0.929 . S
C1058 C1050 1.378 . S
C1058 C1053 1.350 . S
C1059 H1046 0.929 . S
C1059 C1051 1.433 . S
C1059 N1061 1.384 . S
N1060 C1056 1.427 . S
N1060 C1057 1.384 . S
N1061 C1053 1.427 . S
N1061 C1059 1.384 . S
H1062 C1068 0.930 . S
H1063 C1072 0.930 . S
H1064 C1077 0.929 . S
H1065 C1075 0.929 . S
H1066 C1070 0.929 . S
H1067 C1076 0.929 . S
C1068 H1062 0.930 . S
C1068 C1069 1.367 . S
C1068 C1076 1.378 . S
C1069 C1068 1.367 . S
C1069 C1077 1.433 . S
C1070 H1066 0.929 . S
C1070 C1072 1.378 . S
C1070 C1074 1.350 . S
C1071 C1074 1.463 . S
C1071 C1076 1.350 . S
C1071 N1079 1.427 . S
C1072 H1063 0.930 . S
C1072 C1070 1.378 . S
C1072 C1073 1.367 . S
C1073 C1072 1.367 . S
C1073 C1075 1.433 . S
C1074 C1070 1.350 . S
C1074 C1071 1.463 . S
C1074 N1078 1.427 . S
C1075 H1065 0.929 . S
C1075 C1073 1.433 . S
C1075 N1078 1.384 . S
C1076 H1067 0.929 . S
C1076 C1068 1.378 . S
C1076 C1071 1.350 . S
C1077 H1064 0.929 . S
C1077 C1069 1.433 . S
C1077 N1079 1.384 . S
N1078 C1074 1.427 . S
N1078 C1075 1.384 . S
N1079 C1071 1.427 . S
N1079 C1077 1.384 . S
H1080 C1086 0.930 . S
H1081 C1090 0.930 . S
H1082 C1095 0.929 . S
H1083 C1093 0.929 . S
H1084 C1088 0.929 . S
H1085 C1094 0.929 . S
C1086 H1080 0.930 . S
C1086 C1087 1.367 . S
C1086 C1094 1.378 . S
C1087 C1086 1.367 . S
C1087 C1095 1.433 . S
C1088 H1084 0.929 . S
C1088 C1090 1.378 . S
C1088 C1092 1.350 . S
C1089 C1092 1.463 . S
C1089 C1094 1.350 . S
C1089 N1097 1.427 . S
C1090 H1081 0.930 . S
C1090 C1088 1.378 . S
C1090 C1091 1.367 . S
C1091 C1090 1.367 . S
C1091 C1093 1.433 . S
C1092 C1088 1.350 . S
C1092 C1089 1.463 . S
C1092 N1096 1.427 . S
C1093 H1083 0.929 . S
C1093 C1091 1.433 . S
C1093 N1096 1.384 . S
C1094 H1085 0.929 . S
C1094 C1086 1.378 . S
C1094 C1089 1.350 . S
C1095 H1082 0.929 . S
C1095 C1087 1.433 . S
C1095 N1097 1.384 . S
N1096 C1092 1.427 . S
N1096 C1093 1.384 . S
N1097 C1089 1.427 . S
N1097 C1095 1.384 . S
H1098 C1104 0.930 . S
H1099 C1108 0.930 . S
H1100 C1113 0.929 . S
H1101 C1111 0.929 . S
H1102 C1106 0.929 . S
H1103 C1112 0.929 . S
C1104 H1098 0.930 . S
C1104 C1105 1.367 . S
C1104 C1112 1.378 . S
C1105 C1104 1.367 . S
C1105 C1113 1.433 . S
C1106 H1102 0.929 . S
C1106 C1108 1.378 . S
C1106 C1110 1.350 . S
C1107 C1110 1.463 . S
C1107 C1112 1.350 . S
C1107 N1115 1.427 . S
C1108 H1099 0.930 . S
C1108 C1106 1.378 . S
C1108 C1109 1.367 . S
C1109 C1108 1.367 . S
C1109 C1111 1.433 . S
C1110 C1106 1.350 . S
C1110 C1107 1.463 . S
C1110 N1114 1.427 . S
C1111 H1101 0.929 . S
C1111 C1109 1.433 . S
C1111 N1114 1.384 . S
C1112 H1103 0.929 . S
C1112 C1104 1.378 . S
C1112 C1107 1.350 . S
C1113 H1100 0.929 . S
C1113 C1105 1.433 . S
C1113 N1115 1.384 . S
N1114 C1110 1.427 . S
N1114 C1111 1.384 . S
N1115 C1107 1.427 . S
N1115 C1113 1.384 . S
H1116 C1122 0.930 . S
H1117 C1126 0.930 . S
H1118 C1131 0.929 . S
H1119 C1129 0.929 . S
H1120 C1124 0.929 . S
H1121 C1130 0.929 . S
C1122 H1116 0.930 . S
C1122 C1123 1.367 . S
C1122 C1130 1.378 . S
C1123 C1122 1.367 . S
C1123 C1131 1.433 . S
C1124 H1120 0.929 . S
C1124 C1126 1.378 . S
C1124 C1128 1.350 . S
C1125 C1128 1.463 . S
C1125 C1130 1.350 . S
C1125 N1133 1.427 . S
C1126 H1117 0.930 . S
C1126 C1124 1.378 . S
C1126 C1127 1.367 . S
C1127 C1126 1.367 . S
C1127 C1129 1.433 . S
C1128 C1124 1.350 . S
C1128 C1125 1.463 . S
C1128 N1132 1.427 . S
C1129 H1119 0.929 . S
C1129 C1127 1.433 . S
C1129 N1132 1.384 . S
C1130 H1121 0.929 . S
C1130 C1122 1.378 . S
C1130 C1125 1.350 . S
C1131 H1118 0.929 . S
C1131 C1123 1.433 . S
C1131 N1133 1.384 . S
N1132 C1128 1.427 . S
N1132 C1129 1.384 . S
N1133 C1125 1.427 . S
N1133 C1131 1.384 . S
H1134 C1140 0.930 . S
H1135 C1144 0.930 . S
H1136 C1149 0.929 . S
H1137 C1147 0.929 . S
H1138 C1142 0.929 . S
H1139 C1148 0.929 . S
C1140 H1134 0.930 . S
C1140 C1141 1.367 1_565 S
C1140 C1148 1.378 . S
C1141 C1140 1.367 1_545 S
C1141 C1149 1.433 . S
C1142 H1138 0.929 . S
C1142 C1144 1.378 . S
C1142 C1146 1.350 . S
C1143 C1146 1.463 . S
C1143 C1148 1.350 1_545 S
C1143 N1151 1.427 . S
C1144 H1135 0.930 . S
C1144 C1142 1.378 . S
C1144 C1145 1.367 1_545 S
C1145 C1144 1.367 1_565 S
C1145 C1147 1.433 . S
C1146 C1142 1.350 . S
C1146 C1143 1.463 . S
C1146 N1150 1.427 1_545 S
C1147 H1137 0.929 . S
C1147 C1145 1.433 . S
C1147 N1150 1.384 . S
C1148 H1139 0.929 . S
C1148 C1140 1.378 . S
C1148 C1143 1.350 1_565 S
C1149 H1136 0.929 . S
C1149 C1141 1.433 . S
C1149 N1151 1.384 . S
N1150 C1146 1.427 1_565 S
N1150 C1147 1.384 . S
N1151 C1143 1.427 . S
N1151 C1149 1.384 . S
H1152 C1158 0.930 . S
H1153 C1162 0.930 . S
H1154 C1167 0.929 . S
H1155 C1165 0.929 . S
H1156 C1160 0.929 . S
H1157 C1166 0.929 . S
C1158 H1152 0.930 . S
C1158 C1159 1.367 1_655 S
C1158 C1166 1.378 . S
C1159 C1158 1.367 1_455 S
C1159 C1167 1.433 . S
C1160 H1156 0.929 . S
C1160 C1162 1.378 . S
C1160 C1164 1.350 1_455 S
C1161 C1164 1.465 . S
C1161 C1166 1.345 . S
C1161 N1169 1.431 1_655 S
C1162 H1153 0.930 . S
C1162 C1160 1.378 . S
C1162 C1163 1.367 1_455 S
C1163 C1162 1.367 1_655 S
C1163 C1165 1.433 . S
C1164 C1160 1.350 1_655 S
C1164 C1161 1.465 . S
C1164 N1168 1.427 . S
C1165 H1155 0.929 . S
C1165 C1163 1.433 . S
C1165 N1168 1.384 . S
C1166 H1157 0.929 . S
C1166 C1158 1.378 . S
C1166 C1161 1.345 . S
C1167 H1154 0.929 . S
C1167 C1159 1.433 . S
C1167 N1169 1.384 . S
N1168 C1164 1.427 . S
N1168 C1165 1.384 . S
N1169 C1161 1.431 1_455 S
N1169 C1167 1.384 . S
H1170 C1176 0.930 . S
H1171 C1180 0.930 . S
H1172 C1185 0.929 . S
H1173 C1183 0.929 . S
H1174 C1178 0.929 . S
H1175 C1184 0.929 . S
C1176 H1170 0.930 . S
C1176 C1177 1.367 . S
C1176 C1184 1.378 . S
C1177 C1176 1.367 . S
C1177 C1185 1.433 . S
C1178 H1174 0.929 . S
C1178 C1180 1.378 . S
C1178 C1182 1.350 . S
C1179 C1182 1.463 . S
C1179 C1184 1.350 . S
C1179 N1187 1.427 . S
C1180 H1171 0.930 . S
C1180 C1178 1.378 . S
C1180 C1181 1.367 . S
C1181 C1180 1.367 . S
C1181 C1183 1.433 . S
C1182 C1178 1.350 . S
C1182 C1179 1.463 . S
C1182 N1186 1.427 . S
C1183 H1173 0.929 . S
C1183 C1181 1.433 . S
C1183 N1186 1.384 . S
C1184 H1175 0.929 . S
C1184 C1176 1.378 . S
C1184 C1179 1.350 . S
C1185 H1172 0.929 . S
C1185 C1177 1.433 . S
C1185 N1187 1.384 . S
N1186 C1182 1.427 . S
N1186 C1183 1.384 . S
N1187 C1179 1.427 . S
N1187 C1185 1.384 . S
H1188 C1194 0.930 . S
H1189 C1198 0.930 . S
H1190 C1203 0.929 . S
H1191 C1201 0.929 . S
H1192 C1196 0.929 . S
H1193 C1202 0.929 . S
C1194 H1188 0.930 . S
C1194 C1195 1.367 1_545 S
C1194 C1202 1.378 . S
C1195 C1194 1.367 1_565 S
C1195 C1203 1.433 . S
C1196 H1192 0.929 . S
C1196 C1198 1.378 . S
C1196 C1200 1.358 . S
C1197 C1200 1.466 . S
C1197 C1202 1.350 1_565 S
C1197 N1205 1.427 . S
C1198 H1189 0.930 . S
C1198 C1196 1.378 . S
C1198 C1199 1.367 1_565 S
C1199 C1198 1.367 1_545 S
C1199 C1201 1.433 . S
C1200 C1196 1.358 . S
C1200 C1197 1.466 . S
C1200 N1204 1.418 1_565 S
C1201 H1191 0.929 . S
C1201 C1199 1.433 . S
C1201 N1204 1.384 . S
C1202 H1193 0.929 . S
C1202 C1194 1.378 . S
C1202 C1197 1.350 1_545 S
C1203 H1190 0.929 . S
C1203 C1195 1.433 . S
C1203 N1205 1.384 . S
N1204 C1200 1.418 1_545 S
N1204 C1201 1.384 . S
N1205 C1197 1.427 . S
N1205 C1203 1.384 . S
H1206 C1212 0.930 . S
H1207 C1216 0.919 1_655 S
H1208 C1221 0.929 . S
H1209 C1219 0.929 . S
H1210 C1214 0.947 . S
H1211 C1220 0.929 . S
C1212 H1206 0.930 . S
C1212 C1213 1.367 1_455 S
C1212 C1220 1.378 . S
C1213 C1212 1.367 1_655 S
C1213 C1221 1.433 . S
C1214 H1210 0.947 . S
C1214 C1216 1.376 1_655 S
C1214 C1218 1.334 1_655 S
C1215 C1218 1.463 . S
C1215 C1220 1.360 . S
C1215 N1223 1.415 1_455 S
C1216 H1207 0.919 1_455 S
C1216 C1214 1.376 1_455 S
C1216 C1217 1.367 . S
C1217 C1216 1.367 . S
C1217 C1219 1.433 . S
C1218 C1214 1.334 1_455 S
C1218 C1215 1.463 . S
C1218 N1222 1.427 . S
C1219 H1209 0.929 . S
C1219 C1217 1.433 . S
C1219 N1222 1.384 . S
C1220 H1211 0.929 . S
C1220 C1212 1.378 . S
C1220 C1215 1.360 . S
C1221 H1208 0.929 . S
C1221 C1213 1.433 . S
C1221 N1223 1.384 . S
N1222 C1218 1.427 . S
N1222 C1219 1.384 . S
N1223 C1215 1.415 1_655 S
N1223 C1221 1.384 . S
H1224 C1230 0.930 . S
H1225 C1234 0.930 . S
H1226 C1239 0.929 . S
H1227 C1237 0.929 . S
H1228 C1232 0.929 . S
H1229 C1238 0.929 . S
C1230 H1224 0.930 . S
C1230 C1231 1.367 . S
C1230 C1238 1.378 . S
C1231 C1230 1.367 . S
C1231 C1239 1.433 . S
C1232 H1228 0.929 . S
C1232 C1234 1.378 . S
C1232 C1236 1.350 . S
C1233 C1236 1.463 . S
C1233 C1238 1.350 . S
C1233 N1241 1.427 . S
C1234 H1225 0.930 . S
C1234 C1232 1.378 . S
C1234 C1235 1.367 . S
C1235 C1234 1.367 . S
C1235 C1237 1.433 . S
C1236 C1232 1.350 . S
C1236 C1233 1.463 . S
C1236 N1240 1.427 . S
C1237 H1227 0.929 . S
C1237 C1235 1.433 . S
C1237 N1240 1.384 . S
C1238 H1229 0.929 . S
C1238 C1230 1.378 . S
C1238 C1233 1.350 . S
C1239 H1226 0.929 . S
C1239 C1231 1.433 . S
C1239 N1241 1.384 . S
N1240 C1236 1.427 . S
N1240 C1237 1.384 . S
N1241 C1233 1.427 . S
N1241 C1239 1.384 . S
H1242 C1248 0.930 . S
H1243 C1252 0.930 . S
H1244 C1257 0.929 . S
H1245 C1255 0.929 . S
H1246 C1250 0.929 . S
H1247 C1256 0.929 . S
C1248 H1242 0.930 . S
C1248 C1249 1.367 . S
C1248 C1256 1.378 . S
C1249 C1248 1.367 . S
C1249 C1257 1.433 . S
C1250 H1246 0.929 . S
C1250 C1252 1.378 . S
C1250 C1254 1.350 . S
C1251 C1254 1.463 . S
C1251 C1256 1.350 . S
C1251 N1259 1.427 . S
C1252 H1243 0.930 . S
C1252 C1250 1.378 . S
C1252 C1253 1.367 . S
C1253 C1252 1.367 . S
C1253 C1255 1.433 . S
C1254 C1250 1.350 . S
C1254 C1251 1.463 . S
C1254 N1258 1.427 . S
C1255 H1245 0.929 . S
C1255 C1253 1.433 . S
C1255 N1258 1.384 . S
C1256 H1247 0.929 . S
C1256 C1248 1.378 . S
C1256 C1251 1.350 . S
C1257 H1244 0.929 . S
C1257 C1249 1.433 . S
C1257 N1259 1.384 . S
N1258 C1254 1.427 . S
N1258 C1255 1.384 . S
N1259 C1251 1.427 . S
N1259 C1257 1.384 . S
H1260 C1266 0.930 . S
H1261 C1270 0.930 . S
H1262 C1275 0.929 . S
H1263 C1273 0.929 . S
H1264 C1268 0.929 . S
H1265 C1274 0.929 . S
C1266 H1260 0.930 . S
C1266 C1267 1.367 . S
C1266 C1274 1.378 . S
C1267 C1266 1.367 . S
C1267 C1275 1.433 . S
C1268 H1264 0.929 . S
C1268 C1270 1.378 . S
C1268 C1272 1.350 . S
C1269 C1272 1.463 . S
C1269 C1274 1.350 . S
C1269 N1277 1.427 . S
C1270 H1261 0.930 . S
C1270 C1268 1.378 . S
C1270 C1271 1.367 . S
C1271 C1270 1.367 . S
C1271 C1273 1.433 . S
C1272 C1268 1.350 . S
C1272 C1269 1.463 . S
C1272 N1276 1.427 . S
C1273 H1263 0.929 . S
C1273 C1271 1.433 . S
C1273 N1276 1.384 . S
C1274 H1265 0.929 . S
C1274 C1266 1.378 . S
C1274 C1269 1.350 . S
C1275 H1262 0.929 . S
C1275 C1267 1.433 . S
C1275 N1277 1.384 . S
N1276 C1272 1.427 . S
N1276 C1273 1.384 . S
N1277 C1269 1.427 . S
N1277 C1275 1.384 . S
H1278 C1284 0.930 . S
H1279 C1288 0.930 . S
H1280 C1293 0.929 . S
H1281 C1291 0.929 . S
H1282 C1286 0.929 . S
H1283 C1292 0.929 . S
C1284 H1278 0.930 . S
C1284 C1285 1.367 . S
C1284 C1292 1.378 . S
C1285 C1284 1.367 . S
C1285 C1293 1.433 . S
C1286 H1282 0.929 . S
C1286 C1288 1.378 . S
C1286 C1290 1.350 . S
C1287 C1290 1.463 . S
C1287 C1292 1.350 . S
C1287 N1295 1.427 . S
C1288 H1279 0.930 . S
C1288 C1286 1.378 . S
C1288 C1289 1.367 . S
C1289 C1288 1.367 . S
C1289 C1291 1.433 . S
C1290 C1286 1.350 . S
C1290 C1287 1.463 . S
C1290 N1294 1.427 . S
C1291 H1281 0.929 . S
C1291 C1289 1.433 . S
C1291 N1294 1.384 . S
C1292 H1283 0.929 . S
C1292 C1284 1.378 . S
C1292 C1287 1.350 . S
C1293 H1280 0.929 . S
C1293 C1285 1.433 . S
C1293 N1295 1.384 . S
N1294 C1290 1.427 . S
N1294 C1291 1.384 . S
N1295 C1287 1.427 . S
N1295 C1293 1.384 . S
H1296 C1302 0.930 . S
H1297 C1306 0.930 . S
H1298 C1311 0.929 . S
H1299 C1309 0.929 . S
H1300 C1304 0.929 . S
H1301 C1310 0.929 . S
C1302 H1296 0.930 . S
C1302 C1303 1.367 . S
C1302 C1310 1.378 . S
C1303 C1302 1.367 . S
C1303 C1311 1.433 . S
C1304 H1300 0.929 . S
C1304 C1306 1.378 . S
C1304 C1308 1.350 . S
C1305 C1308 1.463 . S
C1305 C1310 1.350 . S
C1305 N1313 1.427 . S
C1306 H1297 0.930 . S
C1306 C1304 1.378 . S
C1306 C1307 1.367 . S
C1307 C1306 1.367 . S
C1307 C1309 1.433 . S
C1308 C1304 1.350 . S
C1308 C1305 1.463 . S
C1308 N1312 1.427 . S
C1309 H1299 0.929 . S
C1309 C1307 1.433 . S
C1309 N1312 1.384 . S
C1310 H1301 0.929 . S
C1310 C1302 1.378 . S
C1310 C1305 1.350 . S
C1311 H1298 0.929 . S
C1311 C1303 1.433 . S
C1311 N1313 1.384 . S
N1312 C1308 1.427 . S
N1312 C1309 1.384 . S
N1313 C1305 1.427 . S
N1313 C1311 1.384 . S
H1314 C1320 0.930 . S
H1315 C1324 0.930 . S
H1316 C1329 0.929 . S
H1317 C1327 0.929 . S
H1318 C1322 0.929 . S
H1319 C1328 0.929 . S
C1320 H1314 0.930 . S
C1320 C1321 1.367 . S
C1320 C1328 1.378 . S
C1321 C1320 1.367 . S
C1321 C1329 1.433 . S
C1322 H1318 0.929 . S
C1322 C1324 1.378 . S
C1322 C1326 1.350 . S
C1323 C1326 1.463 . S
C1323 C1328 1.350 . S
C1323 N1331 1.427 . S
C1324 H1315 0.930 . S
C1324 C1322 1.378 . S
C1324 C1325 1.367 . S
C1325 C1324 1.367 . S
C1325 C1327 1.433 . S
C1326 C1322 1.350 . S
C1326 C1323 1.463 . S
C1326 N1330 1.427 . S
C1327 H1317 0.929 . S
C1327 C1325 1.433 . S
C1327 N1330 1.384 . S
C1328 H1319 0.929 . S
C1328 C1320 1.378 . S
C1328 C1323 1.350 . S
C1329 H1316 0.929 . S
C1329 C1321 1.433 . S
C1329 N1331 1.384 . S
N1330 C1326 1.427 . S
N1330 C1327 1.384 . S
N1331 C1323 1.427 . S
N1331 C1329 1.384 . S
H1332 C1338 0.930 . S
H1333 C1342 0.930 . S
H1334 C1347 0.929 . S
H1335 C1345 0.929 . S
H1336 C1340 0.929 . S
H1337 C1346 0.929 . S
C1338 H1332 0.930 . S
C1338 C1339 1.367 . S
C1338 C1346 1.378 . S
C1339 C1338 1.367 . S
C1339 C1347 1.433 . S
C1340 H1336 0.929 . S
C1340 C1342 1.378 . S
C1340 C1344 1.350 . S
C1341 C1344 1.463 . S
C1341 C1346 1.350 . S
C1341 N1349 1.427 . S
C1342 H1333 0.930 . S
C1342 C1340 1.378 . S
C1342 C1343 1.367 . S
C1343 C1342 1.367 . S
C1343 C1345 1.433 . S
C1344 C1340 1.350 . S
C1344 C1341 1.463 . S
C1344 N1348 1.427 . S
C1345 H1335 0.929 . S
C1345 C1343 1.433 . S
C1345 N1348 1.384 . S
C1346 H1337 0.929 . S
C1346 C1338 1.378 . S
C1346 C1341 1.350 . S
C1347 H1334 0.929 . S
C1347 C1339 1.433 . S
C1347 N1349 1.384 . S
N1348 C1344 1.427 . S
N1348 C1345 1.384 . S
N1349 C1341 1.427 . S
N1349 C1347 1.384 . S
H1350 C1356 0.930 . S
H1351 C1360 0.930 . S
H1352 C1365 0.929 . S
H1353 C1363 0.929 . S
H1354 C1358 0.929 . S
H1355 C1364 0.929 . S
C1356 H1350 0.930 . S
C1356 C1357 1.367 . S
C1356 C1364 1.378 . S
C1357 C1356 1.367 . S
C1357 C1365 1.433 . S
C1358 H1354 0.929 . S
C1358 C1360 1.378 . S
C1358 C1362 1.350 . S
C1359 C1362 1.463 . S
C1359 C1364 1.350 . S
C1359 N1367 1.427 . S
C1360 H1351 0.930 . S
C1360 C1358 1.378 . S
C1360 C1361 1.367 . S
C1361 C1360 1.367 . S
C1361 C1363 1.433 . S
C1362 C1358 1.350 . S
C1362 C1359 1.463 . S
C1362 N1366 1.427 . S
C1363 H1353 0.929 . S
C1363 C1361 1.433 . S
C1363 N1366 1.384 . S
C1364 H1355 0.929 . S
C1364 C1356 1.378 . S
C1364 C1359 1.350 . S
C1365 H1352 0.929 . S
C1365 C1357 1.433 . S
C1365 N1367 1.384 . S
N1366 C1362 1.427 . S
N1366 C1363 1.384 . S
N1367 C1359 1.427 . S
N1367 C1365 1.384 . S
H1368 C1374 0.930 . S
H1369 C1378 0.930 . S
H1370 C1383 0.929 . S
H1371 C1381 0.929 . S
H1372 C1376 0.929 . S
H1373 C1382 0.929 . S
C1374 H1368 0.930 . S
C1374 C1375 1.367 . S
C1374 C1382 1.378 . S
C1375 C1374 1.367 . S
C1375 C1383 1.433 . S
C1376 H1372 0.929 . S
C1376 C1378 1.378 . S
C1376 C1380 1.350 . S
C1377 C1380 1.463 . S
C1377 C1382 1.350 . S
C1377 N1385 1.427 . S
C1378 H1369 0.930 . S
C1378 C1376 1.378 . S
C1378 C1379 1.367 . S
C1379 C1378 1.367 . S
C1379 C1381 1.433 . S
C1380 C1376 1.350 . S
C1380 C1377 1.463 . S
C1380 N1384 1.427 . S
C1381 H1371 0.929 . S
C1381 C1379 1.433 . S
C1381 N1384 1.384 . S
C1382 H1373 0.929 . S
C1382 C1374 1.378 . S
C1382 C1377 1.350 . S
C1383 H1370 0.929 . S
C1383 C1375 1.433 . S
C1383 N1385 1.384 . S
N1384 C1380 1.427 . S
N1384 C1381 1.384 . S
N1385 C1377 1.427 . S
N1385 C1383 1.384 . S
H1386 C1392 0.930 . S
H1387 C1396 0.930 . S
H1388 C1401 0.929 . S
H1389 C1399 0.929 . S
H1390 C1394 0.929 . S
H1391 C1400 0.929 . S
C1392 H1386 0.930 . S
C1392 C1393 1.367 . S
C1392 C1400 1.378 . S
C1393 C1392 1.367 . S
C1393 C1401 1.433 . S
C1394 H1390 0.929 . S
C1394 C1396 1.378 . S
C1394 C1398 1.350 . S
C1395 C1398 1.463 . S
C1395 C1400 1.350 . S
C1395 N1403 1.427 . S
C1396 H1387 0.930 . S
C1396 C1394 1.378 . S
C1396 C1397 1.367 . S
C1397 C1396 1.367 . S
C1397 C1399 1.433 . S
C1398 C1394 1.350 . S
C1398 C1395 1.463 . S
C1398 N1402 1.427 . S
C1399 H1389 0.929 . S
C1399 C1397 1.433 . S
C1399 N1402 1.384 . S
C1400 H1391 0.929 . S
C1400 C1392 1.378 . S
C1400 C1395 1.350 . S
C1401 H1388 0.929 . S
C1401 C1393 1.433 . S
C1401 N1403 1.384 . S
N1402 C1398 1.427 . S
N1402 C1399 1.384 . S
N1403 C1395 1.427 . S
N1403 C1401 1.384 . S
H1404 C1410 0.930 . S
H1405 C1414 0.930 . S
H1406 C1419 0.929 . S
H1407 C1417 0.929 . S
H1408 C1412 0.929 . S
H1409 C1418 0.929 . S
C1410 H1404 0.930 . S
C1410 C1411 1.367 . S
C1410 C1418 1.378 . S
C1411 C1410 1.367 . S
C1411 C1419 1.433 . S
C1412 H1408 0.929 . S
C1412 C1414 1.378 . S
C1412 C1416 1.350 . S
C1413 C1416 1.463 . S
C1413 C1418 1.350 . S
C1413 N1421 1.427 . S
C1414 H1405 0.930 . S
C1414 C1412 1.378 . S
C1414 C1415 1.367 . S
C1415 C1414 1.367 . S
C1415 C1417 1.433 . S
C1416 C1412 1.350 . S
C1416 C1413 1.463 . S
C1416 N1420 1.427 . S
C1417 H1407 0.929 . S
C1417 C1415 1.433 . S
C1417 N1420 1.384 . S
C1418 H1409 0.929 . S
C1418 C1410 1.378 . S
C1418 C1413 1.350 . S
C1419 H1406 0.929 . S
C1419 C1411 1.433 . S
C1419 N1421 1.384 . S
N1420 C1416 1.427 . S
N1420 C1417 1.384 . S
N1421 C1413 1.427 . S
N1421 C1419 1.384 . S
H1422 C1428 0.930 . S
H1423 C1432 0.930 . S
H1424 C1437 0.929 . S
H1425 C1435 0.929 . S
H1426 C1430 0.929 . S
H1427 C1436 0.929 . S
C1428 H1422 0.930 . S
C1428 C1429 1.367 . S
C1428 C1436 1.378 . S
C1429 C1428 1.367 . S
C1429 C1437 1.433 . S
C1430 H1426 0.929 . S
C1430 C1432 1.378 . S
C1430 C1434 1.350 . S
C1431 C1434 1.463 . S
C1431 C1436 1.350 . S
C1431 N1439 1.427 . S
C1432 H1423 0.930 . S
C1432 C1430 1.378 . S
C1432 C1433 1.367 . S
C1433 C1432 1.367 . S
C1433 C1435 1.433 . S
C1434 C1430 1.350 . S
C1434 C1431 1.463 . S
C1434 N1438 1.427 . S
C1435 H1425 0.929 . S
C1435 C1433 1.433 . S
C1435 N1438 1.384 . S
C1436 H1427 0.929 . S
C1436 C1428 1.378 . S
C1436 C1431 1.350 . S
C1437 H1424 0.929 . S
C1437 C1429 1.433 . S
C1437 N1439 1.384 . S
N1438 C1434 1.427 . S
N1438 C1435 1.384 . S
N1439 C1431 1.427 . S
N1439 C1437 1.384 . S
H1440 C1446 0.930 . S
H1441 C1450 0.930 . S
H1442 C1455 0.929 . S
H1443 C1453 0.929 . S
H1444 C1448 0.929 . S
H1445 C1454 0.929 . S
C1446 H1440 0.930 . S
C1446 C1447 1.367 . S
C1446 C1454 1.378 . S
C1447 C1446 1.367 . S
C1447 C1455 1.433 . S
C1448 H1444 0.929 . S
C1448 C1450 1.378 . S
C1448 C1452 1.350 . S
C1449 C1452 1.463 . S
C1449 C1454 1.350 . S
C1449 N1457 1.427 . S
C1450 H1441 0.930 . S
C1450 C1448 1.378 . S
C1450 C1451 1.367 . S
C1451 C1450 1.367 . S
C1451 C1453 1.433 . S
C1452 C1448 1.350 . S
C1452 C1449 1.463 . S
C1452 N1456 1.427 . S
C1453 H1443 0.929 . S
C1453 C1451 1.433 . S
C1453 N1456 1.384 . S
C1454 H1445 0.929 . S
C1454 C1446 1.378 . S
C1454 C1449 1.350 . S
C1455 H1442 0.929 . S
C1455 C1447 1.433 . S
C1455 N1457 1.384 . S
N1456 C1452 1.427 . S
N1456 C1453 1.384 . S
N1457 C1449 1.427 . S
N1457 C1455 1.384 . S
H1458 C1464 0.930 . S
H1459 C1468 0.930 . S
H1460 C1473 0.929 . S
H1461 C1471 0.929 . S
H1462 C1466 0.929 . S
H1463 C1472 0.929 . S
C1464 H1458 0.930 . S
C1464 C1465 1.367 . S
C1464 C1472 1.378 . S
C1465 C1464 1.367 . S
C1465 C1473 1.433 . S
C1466 H1462 0.929 . S
C1466 C1468 1.378 . S
C1466 C1470 1.350 . S
C1467 C1470 1.463 . S
C1467 C1472 1.350 . S
C1467 N1475 1.427 . S
C1468 H1459 0.930 . S
C1468 C1466 1.378 . S
C1468 C1469 1.367 . S
C1469 C1468 1.367 . S
C1469 C1471 1.433 . S
C1470 C1466 1.350 . S
C1470 C1467 1.463 . S
C1470 N1474 1.427 . S
C1471 H1461 0.929 . S
C1471 C1469 1.433 . S
C1471 N1474 1.384 . S
C1472 H1463 0.929 . S
C1472 C1464 1.378 . S
C1472 C1467 1.350 . S
C1473 H1460 0.929 . S
C1473 C1465 1.433 . S
C1473 N1475 1.384 . S
N1474 C1470 1.427 . S
N1474 C1471 1.384 . S
N1475 C1467 1.427 . S
N1475 C1473 1.384 . S
H1476 C1482 0.930 . S
H1477 C1486 0.930 . S
H1478 C1491 0.929 . S
H1479 C1489 0.929 . S
H1480 C1484 0.929 . S
H1481 C1490 0.929 . S
C1482 H1476 0.930 . S
C1482 C1483 1.367 . S
C1482 C1490 1.378 . S
C1483 C1482 1.367 . S
C1483 C1491 1.433 . S
C1484 H1480 0.929 . S
C1484 C1486 1.378 . S
C1484 C1488 1.350 . S
C1485 C1488 1.463 . S
C1485 C1490 1.350 . S
C1485 N1493 1.427 . S
C1486 H1477 0.930 . S
C1486 C1484 1.378 . S
C1486 C1487 1.367 . S
C1487 C1486 1.367 . S
C1487 C1489 1.433 . S
C1488 C1484 1.350 . S
C1488 C1485 1.463 . S
C1488 N1492 1.427 . S
C1489 H1479 0.929 . S
C1489 C1487 1.433 . S
C1489 N1492 1.384 . S
C1490 H1481 0.929 . S
C1490 C1482 1.378 . S
C1490 C1485 1.350 . S
C1491 H1478 0.929 . S
C1491 C1483 1.433 . S
C1491 N1493 1.384 . S
N1492 C1488 1.427 . S
N1492 C1489 1.384 . S
N1493 C1485 1.427 . S
N1493 C1491 1.384 . S
H1494 C1500 0.930 . S
H1495 C1504 0.930 . S
H1496 C1509 0.929 . S
H1497 C1507 0.929 . S
H1498 C1502 0.929 . S
H1499 C1508 0.929 . S
C1500 H1494 0.930 . S
C1500 C1501 1.367 . S
C1500 C1508 1.378 . S
C1501 C1500 1.367 . S
C1501 C1509 1.433 . S
C1502 H1498 0.929 . S
C1502 C1504 1.378 . S
C1502 C1506 1.350 . S
C1503 C1506 1.463 . S
C1503 C1508 1.350 . S
C1503 N1511 1.427 . S
C1504 H1495 0.930 . S
C1504 C1502 1.378 . S
C1504 C1505 1.367 . S
C1505 C1504 1.367 . S
C1505 C1507 1.433 . S
C1506 C1502 1.350 . S
C1506 C1503 1.463 . S
C1506 N1510 1.427 . S
C1507 H1497 0.929 . S
C1507 C1505 1.433 . S
C1507 N1510 1.384 . S
C1508 H1499 0.929 . S
C1508 C1500 1.378 . S
C1508 C1503 1.350 . S
C1509 H1496 0.929 . S
C1509 C1501 1.433 . S
C1509 N1511 1.384 . S
N1510 C1506 1.427 . S
N1510 C1507 1.384 . S
N1511 C1503 1.427 . S
N1511 C1509 1.384 . S
H1512 C1518 0.930 . S
H1513 C1522 0.930 . S
H1514 C1527 0.929 . S
H1515 C1525 0.929 . S
H1516 C1520 0.929 . S
H1517 C1526 0.929 . S
C1518 H1512 0.930 . S
C1518 C1519 1.367 . S
C1518 C1526 1.378 . S
C1519 C1518 1.367 . S
C1519 C1527 1.433 . S
C1520 H1516 0.929 . S
C1520 C1522 1.378 . S
C1520 C1524 1.350 . S
C1521 C1524 1.463 . S
C1521 C1526 1.350 . S
C1521 N1529 1.427 . S
C1522 H1513 0.930 . S
C1522 C1520 1.378 . S
C1522 C1523 1.367 . S
C1523 C1522 1.367 . S
C1523 C1525 1.433 . S
C1524 C1520 1.350 . S
C1524 C1521 1.463 . S
C1524 N1528 1.427 . S
C1525 H1515 0.929 . S
C1525 C1523 1.433 . S
C1525 N1528 1.384 . S
C1526 H1517 0.929 . S
C1526 C1518 1.378 . S
C1526 C1521 1.350 . S
C1527 H1514 0.929 . S
C1527 C1519 1.433 . S
C1527 N1529 1.384 . S
N1528 C1524 1.427 . S
N1528 C1525 1.384 . S
N1529 C1521 1.427 . S
N1529 C1527 1.384 . S
H1530 C1536 0.930 . S
H1531 C1540 0.930 . S
H1532 C1545 0.929 . S
H1533 C1543 0.929 . S
H1534 C1538 0.929 . S
H1535 C1544 0.929 . S
C1536 H1530 0.930 . S
C1536 C1537 1.367 . S
C1536 C1544 1.378 . S
C1537 C1536 1.367 . S
C1537 C1545 1.433 . S
C1538 H1534 0.929 . S
C1538 C1540 1.378 . S
C1538 C1542 1.350 . S
C1539 C1542 1.463 . S
C1539 C1544 1.350 . S
C1539 N1547 1.427 . S
C1540 H1531 0.930 . S
C1540 C1538 1.378 . S
C1540 C1541 1.367 . S
C1541 C1540 1.367 . S
C1541 C1543 1.433 . S
C1542 C1538 1.350 . S
C1542 C1539 1.463 . S
C1542 N1546 1.427 . S
C1543 H1533 0.929 . S
C1543 C1541 1.433 . S
C1543 N1546 1.384 . S
C1544 H1535 0.929 . S
C1544 C1536 1.378 . S
C1544 C1539 1.350 . S
C1545 H1532 0.929 . S
C1545 C1537 1.433 . S
C1545 N1547 1.384 . S
N1546 C1542 1.427 . S
N1546 C1543 1.384 . S
N1547 C1539 1.427 . S
N1547 C1545 1.384 . S
H1548 C1554 0.930 . S
H1549 C1558 0.930 . S
H1550 C1563 0.929 . S
H1551 C1561 0.929 . S
H1552 C1556 0.929 . S
H1553 C1562 0.929 . S
C1554 H1548 0.930 . S
C1554 C1555 1.367 . S
C1554 C1562 1.378 . S
C1555 C1554 1.367 . S
C1555 C1563 1.433 . S
C1556 H1552 0.929 . S
C1556 C1558 1.378 . S
C1556 C1560 1.350 . S
C1557 C1560 1.463 . S
C1557 C1562 1.350 . S
C1557 N1565 1.427 . S
C1558 H1549 0.930 . S
C1558 C1556 1.378 . S
C1558 C1559 1.367 . S
C1559 C1558 1.367 . S
C1559 C1561 1.433 . S
C1560 C1556 1.350 . S
C1560 C1557 1.463 . S
C1560 N1564 1.427 . S
C1561 H1551 0.929 . S
C1561 C1559 1.433 . S
C1561 N1564 1.384 . S
C1562 H1553 0.929 . S
C1562 C1554 1.378 . S
C1562 C1557 1.350 . S
C1563 H1550 0.929 . S
C1563 C1555 1.433 . S
C1563 N1565 1.384 . S
N1564 C1560 1.427 . S
N1564 C1561 1.384 . S
N1565 C1557 1.427 . S
N1565 C1563 1.384 . S
H1566 C1572 0.930 . S
H1567 C1576 0.930 . S
H1568 C1581 0.929 . S
H1569 C1579 0.929 . S
H1570 C1574 0.929 . S
H1571 C1580 0.929 . S
C1572 H1566 0.930 . S
C1572 C1573 1.367 . S
C1572 C1580 1.378 . S
C1573 C1572 1.367 . S
C1573 C1581 1.433 . S
C1574 H1570 0.929 . S
C1574 C1576 1.378 . S
C1574 C1578 1.350 . S
C1575 C1578 1.463 . S
C1575 C1580 1.350 . S
C1575 N1583 1.427 . S
C1576 H1567 0.930 . S
C1576 C1574 1.378 . S
C1576 C1577 1.367 . S
C1577 C1576 1.367 . S
C1577 C1579 1.433 . S
C1578 C1574 1.350 . S
C1578 C1575 1.463 . S
C1578 N1582 1.427 . S
C1579 H1569 0.929 . S
C1579 C1577 1.433 . S
C1579 N1582 1.384 . S
C1580 H1571 0.929 . S
C1580 C1572 1.378 . S
C1580 C1575 1.350 . S
C1581 H1568 0.929 . S
C1581 C1573 1.433 . S
C1581 N1583 1.384 . S
N1582 C1578 1.427 . S
N1582 C1579 1.384 . S
N1583 C1575 1.427 . S
N1583 C1581 1.384 . S
H1584 C1590 0.930 . S
H1585 C1594 0.930 . S
H1586 C1599 0.929 . S
H1587 C1597 0.929 . S
H1588 C1592 0.929 . S
H1589 C1598 0.929 . S
C1590 H1584 0.930 . S
C1590 C1591 1.367 . S
C1590 C1598 1.378 . S
C1591 C1590 1.367 . S
C1591 C1599 1.433 . S
C1592 H1588 0.929 . S
C1592 C1594 1.378 . S
C1592 C1596 1.350 . S
C1593 C1596 1.463 . S
C1593 C1598 1.350 . S
C1593 N1601 1.427 . S
C1594 H1585 0.930 . S
C1594 C1592 1.378 . S
C1594 C1595 1.367 . S
C1595 C1594 1.367 . S
C1595 C1597 1.433 . S
C1596 C1592 1.350 . S
C1596 C1593 1.463 . S
C1596 N1600 1.427 . S
C1597 H1587 0.929 . S
C1597 C1595 1.433 . S
C1597 N1600 1.384 . S
C1598 H1589 0.929 . S
C1598 C1590 1.378 . S
C1598 C1593 1.350 . S
C1599 H1586 0.929 . S
C1599 C1591 1.433 . S
C1599 N1601 1.384 . S
N1600 C1596 1.427 . S
N1600 C1597 1.384 . S
N1601 C1593 1.427 . S
N1601 C1599 1.384 . S
H1602 C1608 0.930 . S
H1603 C1612 0.930 . S
H1604 C1617 0.929 . S
H1605 C1615 0.929 . S
H1606 C1610 0.929 . S
H1607 C1616 0.929 . S
C1608 H1602 0.930 . S
C1608 C1609 1.367 . S
C1608 C1616 1.378 . S
C1609 C1608 1.367 . S
C1609 C1617 1.433 . S
C1610 H1606 0.929 . S
C1610 C1612 1.378 . S
C1610 C1614 1.350 . S
C1611 C1614 1.463 . S
C1611 C1616 1.350 . S
C1611 N1619 1.427 . S
C1612 H1603 0.930 . S
C1612 C1610 1.378 . S
C1612 C1613 1.367 . S
C1613 C1612 1.367 . S
C1613 C1615 1.433 . S
C1614 C1610 1.350 . S
C1614 C1611 1.463 . S
C1614 N1618 1.427 . S
C1615 H1605 0.929 . S
C1615 C1613 1.433 . S
C1615 N1618 1.384 . S
C1616 H1607 0.929 . S
C1616 C1608 1.378 . S
C1616 C1611 1.350 . S
C1617 H1604 0.929 . S
C1617 C1609 1.433 . S
C1617 N1619 1.384 . S
N1618 C1614 1.427 . S
N1618 C1615 1.384 . S
N1619 C1611 1.427 . S
N1619 C1617 1.384 . S
H1620 C1626 0.930 . S
H1621 C1630 0.930 . S
H1622 C1635 0.929 . S
H1623 C1633 0.929 . S
H1624 C1628 0.929 . S
H1625 C1634 0.929 . S
C1626 H1620 0.930 . S
C1626 C1627 1.367 . S
C1626 C1634 1.378 . S
C1627 C1626 1.367 . S
C1627 C1635 1.433 . S
C1628 H1624 0.929 . S
C1628 C1630 1.378 . S
C1628 C1632 1.350 . S
C1629 C1632 1.463 . S
C1629 C1634 1.350 . S
C1629 N1637 1.427 . S
C1630 H1621 0.930 . S
C1630 C1628 1.378 . S
C1630 C1631 1.367 . S
C1631 C1630 1.367 . S
C1631 C1633 1.433 . S
C1632 C1628 1.350 . S
C1632 C1629 1.463 . S
C1632 N1636 1.427 . S
C1633 H1623 0.929 . S
C1633 C1631 1.433 . S
C1633 N1636 1.384 . S
C1634 H1625 0.929 . S
C1634 C1626 1.378 . S
C1634 C1629 1.350 . S
C1635 H1622 0.929 . S
C1635 C1627 1.433 . S
C1635 N1637 1.384 . S
N1636 C1632 1.427 . S
N1636 C1633 1.384 . S
N1637 C1629 1.427 . S
N1637 C1635 1.384 . S
H1638 C1644 0.930 . S
H1639 C1648 0.930 . S
H1640 C1653 0.929 . S
H1641 C1651 0.929 . S
H1642 C1646 0.929 . S
H1643 C1652 0.929 . S
C1644 H1638 0.930 . S
C1644 C1645 1.367 . S
C1644 C1652 1.378 . S
C1645 C1644 1.367 . S
C1645 C1653 1.433 . S
C1646 H1642 0.929 . S
C1646 C1648 1.378 . S
C1646 C1650 1.350 . S
C1647 C1650 1.463 . S
C1647 C1652 1.350 . S
C1647 N1655 1.427 . S
C1648 H1639 0.930 . S
C1648 C1646 1.378 . S
C1648 C1649 1.367 . S
C1649 C1648 1.367 . S
C1649 C1651 1.433 . S
C1650 C1646 1.350 . S
C1650 C1647 1.463 . S
C1650 N1654 1.427 . S
C1651 H1641 0.929 . S
C1651 C1649 1.433 . S
C1651 N1654 1.384 . S
C1652 H1643 0.929 . S
C1652 C1644 1.378 . S
C1652 C1647 1.350 . S
C1653 H1640 0.929 . S
C1653 C1645 1.433 . S
C1653 N1655 1.384 . S
N1654 C1650 1.427 . S
N1654 C1651 1.384 . S
N1655 C1647 1.427 . S
N1655 C1653 1.384 . S
H1656 C1662 0.930 . S
H1657 C1666 0.930 . S
H1658 C1671 0.929 . S
H1659 C1669 0.929 . S
H1660 C1664 0.929 1_455 S
H1661 C1670 0.929 1_655 S
C1662 H1656 0.930 . S
C1662 C1663 1.367 . S
C1662 C1670 1.378 . S
C1663 C1662 1.367 . S
C1663 C1671 1.433 . S
C1664 H1660 0.929 1_655 S
C1664 C1666 1.378 . S
C1664 C1668 1.350 . S
C1665 C1668 1.463 1_455 S
C1665 C1670 1.350 . S
C1665 N1673 1.427 . S
C1666 H1657 0.930 . S
C1666 C1664 1.378 . S
C1666 C1667 1.367 . S
C1667 C1666 1.367 . S
C1667 C1669 1.433 . S
C1668 C1664 1.350 . S
C1668 C1665 1.463 1_655 S
C1668 N1672 1.427 . S
C1669 H1659 0.929 . S
C1669 C1667 1.433 . S
C1669 N1672 1.384 . S
C1670 H1661 0.929 1_455 S
C1670 C1662 1.378 . S
C1670 C1665 1.350 . S
C1671 H1658 0.929 . S
C1671 C1663 1.433 . S
C1671 N1673 1.384 . S
N1672 C1668 1.427 . S
N1672 C1669 1.384 . S
N1673 C1665 1.427 . S
N1673 C1671 1.384 . S
H1674 C1680 0.930 . S
H1675 C1684 0.930 . S
H1676 C1689 0.929 . S
H1677 C1687 0.929 . S
H1678 C1682 0.929 . S
H1679 C1688 0.929 . S
C1680 H1674 0.930 . S
C1680 C1681 1.367 . S
C1680 C1688 1.378 . S
C1681 C1680 1.367 . S
C1681 C1689 1.433 . S
C1682 H1678 0.929 . S
C1682 C1684 1.378 . S
C1682 C1686 1.350 . S
C1683 C1686 1.463 . S
C1683 C1688 1.350 . S
C1683 N1691 1.427 . S
C1684 H1675 0.930 . S
C1684 C1682 1.378 . S
C1684 C1685 1.367 . S
C1685 C1684 1.367 . S
C1685 C1687 1.433 . S
C1686 C1682 1.350 . S
C1686 C1683 1.463 . S
C1686 N1690 1.427 . S
C1687 H1677 0.929 . S
C1687 C1685 1.433 . S
C1687 N1690 1.384 . S
C1688 H1679 0.929 . S
C1688 C1680 1.378 . S
C1688 C1683 1.350 . S
C1689 H1676 0.929 . S
C1689 C1681 1.433 . S
C1689 N1691 1.384 . S
N1690 C1686 1.427 . S
N1690 C1687 1.384 . S
N1691 C1683 1.427 . S
N1691 C1689 1.384 . S
H1692 C1698 0.930 . S
H1693 C1702 0.930 . S
H1694 C1707 0.929 . S
H1695 C1705 0.929 . S
H1696 C1700 0.929 1_545 S
H1697 C1706 0.929 1_565 S
C1698 H1692 0.930 . S
C1698 C1699 1.367 . S
C1698 C1706 1.378 . S
C1699 C1698 1.367 . S
C1699 C1707 1.433 . S
C1700 H1696 0.929 1_565 S
C1700 C1702 1.378 . S
C1700 C1704 1.350 . S
C1701 C1704 1.463 1_545 S
C1701 C1706 1.350 . S
C1701 N1709 1.427 . S
C1702 H1693 0.930 . S
C1702 C1700 1.378 . S
C1702 C1703 1.367 . S
C1703 C1702 1.367 . S
C1703 C1705 1.433 . S
C1704 C1700 1.350 . S
C1704 C1701 1.463 1_565 S
C1704 N1708 1.427 . S
C1705 H1695 0.929 . S
C1705 C1703 1.433 . S
C1705 N1708 1.384 . S
C1706 H1697 0.929 1_545 S
C1706 C1698 1.378 . S
C1706 C1701 1.350 . S
C1707 H1694 0.929 . S
C1707 C1699 1.433 . S
C1707 N1709 1.384 . S
N1708 C1704 1.427 . S
N1708 C1705 1.384 . S
N1709 C1701 1.427 . S
N1709 C1707 1.384 . S
H1710 C1716 0.930 . S
H1711 C1720 0.930 . S
H1712 C1725 0.929 . S
H1713 C1723 0.929 . S
H1714 C1718 0.929 . S
H1715 C1724 0.929 . S
C1716 H1710 0.930 . S
C1716 C1717 1.367 1_554 S
C1716 C1724 1.378 . S
C1717 C1716 1.367 1_556 S
C1717 C1725 1.433 . S
C1718 H1714 0.929 . S
C1718 C1720 1.378 . S
C1718 C1722 1.350 1_556 S
C1719 C1722 1.456 1_546 S
C1719 C1724 1.307 1_556 S
C1719 N1727 1.484 . S
C1720 H1711 0.930 . S
C1720 C1718 1.378 . S
C1720 C1721 1.367 1_556 S
C1721 C1720 1.367 1_554 S
C1721 C1723 1.433 . S
C1722 C1718 1.350 1_554 S
C1722 C1719 1.456 1_564 S
C1722 N1726 1.427 . S
C1723 H1713 0.929 . S
C1723 C1721 1.433 . S
C1723 N1726 1.384 . S
C1724 H1715 0.929 . S
C1724 C1716 1.378 . S
C1724 C1719 1.307 1_554 S
C1725 H1712 0.929 . S
C1725 C1717 1.433 . S
C1725 N1727 1.384 . S
N1726 C1722 1.427 . S
N1726 C1723 1.384 . S
N1727 C1719 1.484 . S
N1727 C1725 1.384 . S
H1728 C1734 0.930 . S
H1729 C1738 0.930 . S
H1730 C1743 0.929 . S
H1731 C1741 0.929 . S
H1732 C1736 0.929 . S
H1733 C1742 0.929 . S
C1734 H1728 0.930 . S
C1734 C1735 1.367 . S
C1734 C1742 1.378 . S
C1735 C1734 1.367 . S
C1735 C1743 1.433 1_556 S
C1736 H1732 0.929 . S
C1736 C1738 1.378 . S
C1736 C1740 1.350 . S
C1737 C1740 1.463 1_656 S
C1737 C1742 1.350 . S
C1737 N1745 1.427 1_556 S
C1738 H1729 0.930 . S
C1738 C1736 1.378 . S
C1738 C1739 1.367 . S
C1739 C1738 1.367 . S
C1739 C1741 1.433 1_554 S
C1740 C1736 1.350 . S
C1740 C1737 1.463 1_454 S
C1740 N1744 1.427 1_554 S
C1741 H1731 0.929 . S
C1741 C1739 1.433 1_556 S
C1741 N1744 1.384 . S
C1742 H1733 0.929 . S
C1742 C1734 1.378 . S
C1742 C1737 1.350 . S
C1743 H1730 0.929 . S
C1743 C1735 1.433 1_554 S
C1743 N1745 1.384 . S
N1744 C1740 1.427 1_556 S
N1744 C1741 1.384 . S
N1745 C1737 1.427 1_554 S
N1745 C1743 1.384 . S
H1746 C1752 0.930 . S
H1747 C1756 0.930 . S
H1748 C1761 0.929 . S
H1749 C1759 0.929 . S
H1750 C1754 0.920 1_554 S
H1751 C1760 0.929 1_556 S
C1752 H1746 0.930 . S
C1752 C1753 1.367 . S
C1752 C1760 1.378 . S
C1753 C1752 1.367 . S
C1753 C1761 1.433 . S
C1754 H1750 0.920 1_556 S
C1754 C1756 1.378 . S
C1754 C1758 1.350 . S
C1755 C1758 1.463 1_554 S
C1755 C1760 1.350 . S
C1755 N1763 1.427 . S
C1756 H1747 0.930 . S
C1756 C1754 1.378 . S
C1756 C1757 1.367 . S
C1757 C1756 1.367 . S
C1757 C1759 1.433 . S
C1758 C1754 1.350 . S
C1758 C1755 1.463 1_556 S
C1758 N1762 1.427 . S
C1759 H1749 0.929 . S
C1759 C1757 1.433 . S
C1759 N1762 1.384 . S
C1760 H1751 0.929 1_554 S
C1760 C1752 1.378 . S
C1760 C1755 1.350 . S
C1761 H1748 0.929 . S
C1761 C1753 1.433 . S
C1761 N1763 1.384 . S
N1762 C1758 1.427 . S
N1762 C1759 1.384 . S
N1763 C1755 1.427 . S
N1763 C1761 1.384 . S
C475 C3 1.329 . S
C479 C18 1.425 . S
C493 C16 1.346 . S
C497 C29 1.421 . S
C511 C5 1.428 . S
C515 C31 1.336 . S
C529 C44 1.341 . S
C533 C68 1.440 . S
C547 C57 1.354 . S
C551 C42 1.433 . S
C565 C55 1.434 . S
C569 C70 1.355 . S
C583 C83 1.344 . S
C587 C94 1.424 . S
C601 C107 1.429 . S
C605 C96 1.330 . S
C619 C81 1.421 . S
C623 C109 1.344 . S
C637 C146 1.433 . S
C641 C122 1.355 . S
C655 C135 1.343 . S
C659 C120 1.435 . S
C673 C148 1.348 . S
C677 C133 1.433 . S
C691 C174 1.430 . S
C695 C159 1.345 . S
C709 C172 1.336 . S
C713 C187 1.437 . S
C727 C185 1.338 . S
C731 C161 1.437 . S
C745 C200 1.347 . S
C749 C224 1.429 . S
C763 C213 1.342 . S
C767 C198 1.436 . S
C781 C226 1.341 . S
C785 C211 1.436 . S
C799 C252 1.465 . S
C803 C239 1.378 . S
C817 C250 1.364 . S
C821 C265 1.473 . S
C835 C237 1.466 . S
C839 C263 1.374 . S
C853 C302 1.332 . S
C857 C276 1.256 . S
C871 C289 1.249 . S
C875 C278 1.338 . S
C889 C291 1.332 . S
C893 C304 1.256 . S
C907 C330 1.472 . S
C911 C315 1.362 . S
C925 C328 1.381 . S
C929 C343 1.465 . S
C943 C341 1.377 . S
C947 C317 1.466 . S
C961 C382 1.338 . S
C965 C354 1.249 . S
C979 C367 1.266 . S
C983 C356 1.335 . S
C997 C369 1.330 . S
C1001 C380 1.262 . S
C1015 C395 1.332 . S
C1019 C408 1.437 . S
C1033 C406 1.352 . S
C1037 C421 1.432 . S
C1051 C419 1.351 . S
C1055 C393 1.432 . S
C1069 C460 1.436 . S
C1073 C432 1.331 . S
C1087 C434 1.435 . S
C1091 C447 1.342 . S
C1105 C458 1.348 . S
C1109 C445 1.433 . S
C1123 C49 1.733 . S
C1127 C4 1.740 . S
C1141 C17 1.738 . S
C1145 C62 1.743 . S
C1159 C75 1.742 . S
C1163 C36 1.735 . S
C1177 C127 1.739 . S
C1181 C88 1.733 . S
C1195 C101 1.743 . S
C1199 C140 1.737 . S
C1213 C153 1.735 . S
C1217 C114 1.743 . S
C1231 C160 1.739 . S
C1235 C205 1.736 . S
C1249 C173 1.732 . S
C1253 C218 1.736 . S
C1267 C186 1.734 . S
C1271 C231 1.740 . S
C1285 C277 1.760 . S
C1289 C244 1.759 . S
C1303 C290 1.764 . S
C1307 C251 1.756 . S
C1321 C264 1.767 . S
C1325 C309 1.746 . S
C1339 C355 1.754 . S
C1343 C316 1.760 . S
C1357 C368 1.759 . S
C1361 C329 1.753 . S
C1375 C342 1.762 . S
C1379 C381 1.756 . S
C1393 C400 1.731 . S
C1397 C433 1.739 . S
C1411 C452 1.733 . S
C1415 C407 1.736 . S
C1429 C420 1.735 . S
C1433 C459 1.731 . S
C1447 C10 1.835 . S
C1451 C238 1.830 . S
C1465 C23 1.837 . S
C1469 C257 1.831 . S
C1483 C30 1.836 . S
C1487 C270 1.830 . S
C1501 C439 1.812 . S
C1505 C43 1.811 . S
C1519 C446 1.809 . S
C1523 C56 1.808 . S
C1537 C69 1.820 . S
C1541 C465 1.821 . S
C1555 C82 1.831 . S
C1559 C322 1.826 . S
C1573 C335 1.832 . S
C1577 C95 1.837 . S
C1591 C348 1.822 . S
C1595 C108 1.828 . S
C1609 C199 1.822 . S
C1613 C121 1.821 . S
C1627 C212 1.808 . S
C1631 C134 1.807 . S
C1645 C225 1.814 . S
C1649 C147 1.813 . S
C1663 C394 1.812 . S
C1667 C166 1.812 . S
C1681 C179 1.816 . S
C1685 C413 1.816 . S
C1699 C192 1.815 . S
C1703 C426 1.815 . S
C1717 C283 1.679 . S
C1721 C361 1.679 . S
C1735 C296 1.692 . S
C1739 C374 1.693 . S
C1753 C387 1.693 . S
C1757 C303 1.694 . S
