# Generated by pormake.
# Topology snl, (6)-cn, num edge types: 1
# Building blocks:
#     Node 0, Type 0, BuildingBlock: MIFKUJ_clean_sbu_0, # of connection points: 6
#     Node 1, Type 0, BuildingBlock: MIFKUJ_clean_sbu_0, # of connection points: 6
#     Node 2, Type 0, BuildingBlock: MIFKUJ_clean_sbu_0, # of connection points: 6
#     Node 3, Type 0, BuildingBlock: MIFKUJ_clean_sbu_0, # of connection points: 6
#     Node 4, Type 0, BuildingBlock: MIFKUJ_clean_sbu_0, # of connection points: 6
#     Node 5, Type 0, BuildingBlock: MIFKUJ_clean_sbu_0, # of connection points: 6
#     Node 6, Type 0, BuildingBlock: MIFKUJ_clean_sbu_0, # of connection points: 6
#     Node 7, Type 0, BuildingBlock: MIFKUJ_clean_sbu_0, # of connection points: 6
#     Node 8, Type 0, BuildingBlock: MIFKUJ_clean_sbu_0, # of connection points: 6
#     Node 9, Type 0, BuildingBlock: MIFKUJ_clean_sbu_0, # of connection points: 6
#     Node 10, Type 0, BuildingBlock: MIFKUJ_clean_sbu_0, # of connection points: 6
#     Node 11, Type 0, BuildingBlock: MIFKUJ_clean_sbu_0, # of connection points: 6
#     Node 12, Type 0, BuildingBlock: MIFKUJ_clean_sbu_0, # of connection points: 6
#     Node 13, Type 0, BuildingBlock: MIFKUJ_clean_sbu_0, # of connection points: 6
#     Node 14, Type 0, BuildingBlock: MIFKUJ_clean_sbu_0, # of connection points: 6
#     Node 15, Type 0, BuildingBlock: MIFKUJ_clean_sbu_0, # of connection points: 6
#     Edge 16, Type (0, 0), BuildingBlock: ZUJKAS_clean_linker_0, # of connection points: 2
#     Edge 17, Type (0, 0), BuildingBlock: ZUJKAS_clean_linker_0, # of connection points: 2
#     Edge 18, Type (0, 0), BuildingBlock: ZUJKAS_clean_linker_0, # of connection points: 2
#     Edge 19, Type (0, 0), BuildingBlock: ZUJKAS_clean_linker_0, # of connection points: 2
#     Edge 20, Type (0, 0), BuildingBlock: ZUJKAS_clean_linker_0, # of connection points: 2
#     Edge 21, Type (0, 0), BuildingBlock: ZUJKAS_clean_linker_0, # of connection points: 2
#     Edge 22, Type (0, 0), BuildingBlock: ZUJKAS_clean_linker_0, # of connection points: 2
#     Edge 23, Type (0, 0), BuildingBlock: ZUJKAS_clean_linker_0, # of connection points: 2
#     Edge 24, Type (0, 0), BuildingBlock: ZUJKAS_clean_linker_0, # of connection points: 2
#     Edge 25, Type (0, 0), BuildingBlock: ZUJKAS_clean_linker_0, # of connection points: 2
#     Edge 26, Type (0, 0), BuildingBlock: ZUJKAS_clean_linker_0, # of connection points: 2
#     Edge 27, Type (0, 0), BuildingBlock: ZUJKAS_clean_linker_0, # of connection points: 2
#     Edge 28, Type (0, 0), BuildingBlock: ZUJKAS_clean_linker_0, # of connection points: 2
#     Edge 29, Type (0, 0), BuildingBlock: ZUJKAS_clean_linker_0, # of connection points: 2
#     Edge 30, Type (0, 0), BuildingBlock: ZUJKAS_clean_linker_0, # of connection points: 2
#     Edge 31, Type (0, 0), BuildingBlock: ZUJKAS_clean_linker_0, # of connection points: 2
#     Edge 32, Type (0, 0), BuildingBlock: ZUJKAS_clean_linker_0, # of connection points: 2
#     Edge 33, Type (0, 0), BuildingBlock: ZUJKAS_clean_linker_0, # of connection points: 2
#     Edge 34, Type (0, 0), BuildingBlock: ZUJKAS_clean_linker_0, # of connection points: 2
#     Edge 35, Type (0, 0), BuildingBlock: ZUJKAS_clean_linker_0, # of connection points: 2
#     Edge 36, Type (0, 0), BuildingBlock: ZUJKAS_clean_linker_0, # of connection points: 2
#     Edge 37, Type (0, 0), BuildingBlock: ZUJKAS_clean_linker_0, # of connection points: 2
#     Edge 38, Type (0, 0), BuildingBlock: ZUJKAS_clean_linker_0, # of connection points: 2
#     Edge 39, Type (0, 0), BuildingBlock: ZUJKAS_clean_linker_0, # of connection points: 2
#     Edge 40, Type (0, 0), BuildingBlock: ZUJKAS_clean_linker_0, # of connection points: 2
#     Edge 41, Type (0, 0), BuildingBlock: ZUJKAS_clean_linker_0, # of connection points: 2
#     Edge 42, Type (0, 0), BuildingBlock: ZUJKAS_clean_linker_0, # of connection points: 2
#     Edge 43, Type (0, 0), BuildingBlock: ZUJKAS_clean_linker_0, # of connection points: 2
#     Edge 44, Type (0, 0), BuildingBlock: ZUJKAS_clean_linker_0, # of connection points: 2
#     Edge 45, Type (0, 0), BuildingBlock: ZUJKAS_clean_linker_0, # of connection points: 2
#     Edge 46, Type (0, 0), BuildingBlock: ZUJKAS_clean_linker_0, # of connection points: 2
#     Edge 47, Type (0, 0), BuildingBlock: ZUJKAS_clean_linker_0, # of connection points: 2
#     Edge 48, Type (0, 0), BuildingBlock: ZUJKAS_clean_linker_0, # of connection points: 2
#     Edge 49, Type (0, 0), BuildingBlock: ZUJKAS_clean_linker_0, # of connection points: 2
#     Edge 50, Type (0, 0), BuildingBlock: ZUJKAS_clean_linker_0, # of connection points: 2
#     Edge 51, Type (0, 0), BuildingBlock: ZUJKAS_clean_linker_0, # of connection points: 2
#     Edge 52, Type (0, 0), BuildingBlock: ZUJKAS_clean_linker_0, # of connection points: 2
#     Edge 53, Type (0, 0), BuildingBlock: ZUJKAS_clean_linker_0, # of connection points: 2
#     Edge 54, Type (0, 0), BuildingBlock: ZUJKAS_clean_linker_0, # of connection points: 2
#     Edge 55, Type (0, 0), BuildingBlock: ZUJKAS_clean_linker_0, # of connection points: 2
#     Edge 56, Type (0, 0), BuildingBlock: ZUJKAS_clean_linker_0, # of connection points: 2
#     Edge 57, Type (0, 0), BuildingBlock: ZUJKAS_clean_linker_0, # of connection points: 2
#     Edge 58, Type (0, 0), BuildingBlock: ZUJKAS_clean_linker_0, # of connection points: 2
#     Edge 59, Type (0, 0), BuildingBlock: ZUJKAS_clean_linker_0, # of connection points: 2
#     Edge 60, Type (0, 0), BuildingBlock: ZUJKAS_clean_linker_0, # of connection points: 2
#     Edge 61, Type (0, 0), BuildingBlock: ZUJKAS_clean_linker_0, # of connection points: 2
#     Edge 62, Type (0, 0), BuildingBlock: ZUJKAS_clean_linker_0, # of connection points: 2
#     Edge 63, Type (0, 0), BuildingBlock: ZUJKAS_clean_linker_0, # of connection points: 2
# Relax obj value: 0.122
# Max RMSD: 0.178
# Mean RMSD: 0.161
data_MOF--net-snl--node1-MIFKUJ_clean_sbu_0--edge1-ZUJKAS_clean_linker_0
_symmetry_space_group_name_H-M    P1
_symmetry_Int_Tables_number       1
_symmetry_cell_setting            triclinic
loop_
_symmetry_equiv_pos_as_xyz
'x, y, z'
_cell_length_a     78.54955
_cell_length_b     80.13695
_cell_length_c     23.058526
_cell_angle_alpha  88.987782
_cell_angle_beta   90.925732
_cell_angle_gamma 90.069023
loop_
_atom_site_label
_atom_site_type_symbol
_atom_site_fract_x
_atom_site_fract_y
_atom_site_fract_z
_atom_type_partial_charge
Zn0 Zn 0.13372 0.6214 0.23856 0.0
Zn1 Zn 0.11817 0.62583 0.09022 0.0
C2 C 0.16768 0.60819 0.25899 0.0
O3 O 0.15927 0.5953 0.2799 0.0
C4 C 0.08541 0.62231 0.14885 0.0
O5 O 0.09306 0.63044 0.19078 0.0
O6 O 0.12766 0.61899 0.3221 0.0
O7 O 0.12748 0.64502 0.21442 0.0
O8 O 0.12142 0.64874 0.12083 0.0
C9 C 0.13362 0.6297 0.35696 0.0
O10 O 0.1431 0.64192 0.33661 0.0
O11 O 0.15941 0.62046 0.23714 0.0
C12 C 0.11555 0.61552 0.97341 0.0
O13 O 0.10973 0.60194 0.99906 0.0
O14 O 0.12013 0.62777 0.00418 0.0
O15 O 0.13533 0.6086 0.11535 0.0
O16 O 0.12404 0.60123 0.19796 0.0
O17 O 0.09384 0.61842 0.10444 0.0
C18 C 0.12397 0.65452 0.17114 0.0
C19 C 0.12946 0.59732 0.14853 0.0
Zn20 Zn 0.62026 0.89143 0.45121 0.0
Zn21 Zn 0.61744 0.8584 0.3081 0.0
C22 C 0.62966 0.92314 0.49847 0.0
O23 O 0.6405 0.91349 0.52718 0.0
C24 C 0.61012 0.82341 0.29604 0.0
O25 O 0.59905 0.82944 0.25785 0.0
O26 O 0.622 0.88154 0.53317 0.0
O27 O 0.59742 0.88465 0.41557 0.0
O28 O 0.59584 0.86697 0.34204 0.0
C29 C 0.61059 0.88571 0.56878 0.0
O30 O 0.59799 0.89523 0.54993 0.0
O31 O 0.6195 0.91657 0.46183 0.0
C32 C 0.62647 0.85587 0.18666 0.0
O33 O 0.63934 0.84736 0.20911 0.0
O34 O 0.61547 0.86184 0.22049 0.0
O35 O 0.63899 0.86965 0.33388 0.0
O36 O 0.64209 0.8869 0.40775 0.0
O37 O 0.61944 0.83351 0.32441 0.0
C38 C 0.58881 0.87623 0.37897 0.0
C39 C 0.6482 0.87899 0.36541 0.0
Zn40 Zn 0.3661 0.38332 0.69219 0.0
Zn41 Zn 0.38262 0.37706 0.54579 0.0
C42 C 0.33291 0.39245 0.72647 0.0
O43 O 0.34213 0.40418 0.75076 0.0
C44 C 0.41612 0.36242 0.55011 0.0
O45 O 0.40915 0.35267 0.51111 0.0
O46 O 0.37403 0.38589 0.77505 0.0
O47 O 0.37561 0.36085 0.66821 0.0
O48 O 0.36698 0.35926 0.57716 0.0
C49 C 0.36966 0.3743 0.81013 0.0
O50 O 0.36092 0.3616 0.79004 0.0
O51 O 0.34036 0.3815 0.69662 0.0
C52 C 0.3912 0.38433 0.42794 0.0
O53 O 0.40041 0.39593 0.45306 0.0
O54 O 0.38245 0.37445 0.45925 0.0
O55 O 0.37687 0.40101 0.55721 0.0
O56 O 0.3707 0.40518 0.64933 0.0
O57 O 0.40696 0.37342 0.57356 0.0
C58 C 0.37054 0.35222 0.62553 0.0
C59 C 0.37361 0.41073 0.59841 0.0
Zn60 Zn 0.87158 0.12372 0.94162 0.0
Zn61 Zn 0.87616 0.13036 0.8009 0.0
C62 C 0.8593 0.0906 0.96409 0.0
O63 O 0.84603 0.09922 0.98027 0.0
C64 C 0.88612 0.16483 0.80043 0.0
O65 O 0.89738 0.1589 0.76466 0.0
O66 O 0.86947 0.12977 0.02595 0.0
O67 O 0.89508 0.13207 0.91775 0.0
O68 O 0.89683 0.11905 0.83486 0.0
C69 C 0.88078 0.12417 0.06125 0.0
O70 O 0.89335 0.1153 0.04101 0.0
O71 O 0.87201 0.09838 0.94325 0.0
C72 C 0.86749 0.13692 0.68095 0.0
O73 O 0.85446 0.14435 0.70447 0.0
O74 O 0.87866 0.13001 0.71387 0.0
O75 O 0.8537 0.11961 0.81619 0.0
O76 O 0.84954 0.13125 0.90071 0.0
O77 O 0.87558 0.15477 0.82374 0.0
C78 C 0.90398 0.12497 0.87971 0.0
C79 C 0.84366 0.12509 0.85394 0.0
Zn80 Zn 0.12446 0.39616 0.91609 0.0
Zn81 Zn 0.12086 0.36755 0.76748 0.0
C82 C 0.13575 0.42792 0.95638 0.0
O83 O 0.14985 0.41947 0.96629 0.0
C84 C 0.11006 0.33369 0.79059 0.0
O85 O 0.09478 0.34028 0.78616 0.0
O86 O 0.12681 0.38507 0.99531 0.0
O87 O 0.10142 0.39015 0.88172 0.0
O88 O 0.09893 0.37545 0.80133 0.0
C89 C 0.11531 0.38862 0.03133 0.0
O90 O 0.10254 0.3981 0.01368 0.0
O91 O 0.12306 0.42061 0.93322 0.0
C92 C 0.13011 0.36363 0.64873 0.0
O93 O 0.14292 0.35563 0.67378 0.0
O94 O 0.11883 0.37006 0.68035 0.0
O95 O 0.14299 0.37804 0.79166 0.0
O96 O 0.1462 0.3931 0.87097 0.0
O97 O 0.12303 0.34302 0.78484 0.0
C98 C 0.09232 0.3833 0.8427 0.0
C99 C 0.15224 0.38657 0.8258 0.0
Zn100 Zn 0.86047 0.88838 0.20933 0.0
Zn101 Zn 0.89017 0.88489 0.06182 0.0
C102 C 0.82345 0.89205 0.19601 0.0
O103 O 0.82696 0.89777 0.14381 0.0
C104 C 0.92496 0.87454 0.0778 0.0
O105 O 0.9186 0.86025 0.06066 0.0
O106 O 0.87233 0.89044 0.28773 0.0
O107 O 0.8659 0.86565 0.1761 0.0
O108 O 0.88132 0.86344 0.09664 0.0
C109 C 0.86893 0.87891 0.3245 0.0
O110 O 0.85936 0.86637 0.30773 0.0
O111 O 0.83556 0.88738 0.22972 0.0
C112 C 0.89492 0.89376 0.94105 0.0
O113 O 0.90297 0.90649 0.964 0.0
O114 O 0.88835 0.88281 0.9745 0.0
O115 O 0.87883 0.90641 0.08188 0.0
O116 O 0.86339 0.90969 0.16075 0.0
O117 O 0.91509 0.88699 0.08239 0.0
C118 C 0.87286 0.85685 0.13764 0.0
C119 C 0.86992 0.91547 0.11433 0.0
Zn120 Zn 0.37726 0.61975 0.43881 0.0
Zn121 Zn 0.38105 0.62217 0.30065 0.0
C122 C 0.36624 0.58712 0.47014 0.0
O123 O 0.35486 0.59618 0.49634 0.0
C124 C 0.39223 0.65636 0.30601 0.0
O125 O 0.40608 0.6498 0.28483 0.0
O126 O 0.37531 0.62575 0.52363 0.0
O127 O 0.40061 0.62794 0.41386 0.0
O128 O 0.40248 0.61254 0.33615 0.0
C129 C 0.38638 0.61969 0.55896 0.0
O130 O 0.39876 0.61061 0.53847 0.0
O131 O 0.37742 0.59447 0.43957 0.0
C132 C 0.37201 0.62774 0.18047 0.0
O133 O 0.35936 0.63573 0.20413 0.0
O134 O 0.38307 0.62063 0.2134 0.0
O135 O 0.35898 0.61121 0.32185 0.0
O136 O 0.35544 0.62728 0.39712 0.0
O137 O 0.37971 0.64687 0.3177 0.0
C138 C 0.40961 0.62006 0.37805 0.0
C139 C 0.34916 0.61871 0.35596 0.0
Zn140 Zn 0.62988 0.12674 0.69876 0.0
Zn141 Zn 0.62625 0.13118 0.5595 0.0
C142 C 0.66332 0.11625 0.73071 0.0
O143 O 0.65422 0.10466 0.75677 0.0
C144 C 0.59129 0.14173 0.56834 0.0
O145 O 0.5975 0.15554 0.54552 0.0
O146 O 0.6237 0.12454 0.78368 0.0
O147 O 0.62124 0.14966 0.67238 0.0
O148 O 0.63633 0.15205 0.59307 0.0
C149 C 0.62959 0.13554 0.81778 0.0
O150 O 0.63866 0.14786 0.79597 0.0
O151 O 0.65568 0.12731 0.69979 0.0
C152 C 0.61995 0.12261 0.44066 0.0
O153 O 0.61223 0.10997 0.46611 0.0
O154 O 0.62712 0.13357 0.47202 0.0
O155 O 0.6374 0.10935 0.58014 0.0
O156 O 0.6223 0.10537 0.65883 0.0
O157 O 0.60129 0.12957 0.57941 0.0
C158 C 0.62893 0.15876 0.63532 0.0
C159 C 0.62997 0.09952 0.61539 0.0
Zn160 Zn 0.87595 0.37175 0.92904 0.0
Zn161 Zn 0.87223 0.37578 0.79042 0.0
C162 C 0.9117 0.36406 0.92046 0.0
O163 O 0.90672 0.35006 0.94547 0.0
C164 C 0.83809 0.3861 0.76647 0.0
O165 O 0.84636 0.39941 0.74832 0.0
O166 O 0.87538 0.36964 0.01673 0.0
O167 O 0.8629 0.39249 0.90725 0.0
O168 O 0.87887 0.39738 0.83136 0.0
C169 C 0.88138 0.3813 0.04778 0.0
O170 O 0.8878 0.39458 0.02198 0.0
O171 O 0.90068 0.37523 0.90809 0.0
C172 C 0.87272 0.36754 0.67091 0.0
O173 O 0.86429 0.35473 0.69234 0.0
O174 O 0.87813 0.37865 0.70542 0.0
O175 O 0.88183 0.35308 0.81592 0.0
O176 O 0.86755 0.35002 0.89685 0.0
O177 O 0.8465 0.37404 0.7893 0.0
C178 C 0.87025 0.40279 0.87343 0.0
C179 C 0.87496 0.34365 0.85395 0.0
Zn180 Zn 0.37973 0.13973 0.71305 0.0
Zn181 Zn 0.37615 0.123 0.56491 0.0
C182 C 0.38203 0.1747 0.7115 0.0
O183 O 0.39413 0.17034 0.74873 0.0
C184 C 0.36449 0.09152 0.51998 0.0
O185 O 0.35421 0.1014 0.48981 0.0
O186 O 0.38143 0.13963 0.79993 0.0
O187 O 0.36145 0.12287 0.69496 0.0
O188 O 0.35473 0.13063 0.60552 0.0
C189 C 0.36908 0.14433 0.8305 0.0
O190 O 0.35494 0.1494 0.80457 0.0
O191 O 0.3733 0.16328 0.68739 0.0
C192 C 0.38645 0.12776 0.44869 0.0
O193 O 0.3989 0.1182 0.46846 0.0
O194 O 0.37492 0.13216 0.48328 0.0
O195 O 0.40014 0.12751 0.59489 0.0
O196 O 0.40325 0.13518 0.68624 0.0
O197 O 0.37471 0.09789 0.55681 0.0
C198 C 0.35027 0.12624 0.65628 0.0
C199 C 0.40957 0.1313 0.63805 0.0
Zn200 Zn 0.62733 0.61747 0.43076 0.0
Zn201 Zn 0.63086 0.61286 0.29247 0.0
C202 C 0.59241 0.62698 0.43201 0.0
O203 O 0.59911 0.63862 0.46475 0.0
C204 C 0.66465 0.60311 0.2675 0.0
O205 O 0.65593 0.59118 0.24229 0.0
O206 O 0.62886 0.61986 0.51803 0.0
O207 O 0.63845 0.59564 0.41374 0.0
O208 O 0.62376 0.59119 0.33331 0.0
C209 C 0.62201 0.60877 0.55027 0.0
O210 O 0.61432 0.59607 0.52584 0.0
O211 O 0.60219 0.61617 0.4104 0.0
C212 C 0.63066 0.62208 0.1728 0.0
O213 O 0.63904 0.6347 0.19512 0.0
O214 O 0.62513 0.6107 0.20679 0.0
O215 O 0.62131 0.63539 0.31553 0.0
O216 O 0.63693 0.63839 0.39473 0.0
O217 O 0.65664 0.61413 0.29524 0.0
C218 C 0.63142 0.5856 0.3787 0.0
C219 C 0.62881 0.64481 0.35179 0.0
Zn220 Zn 0.13379 0.86527 0.252 0.0
Zn221 Zn 0.13875 0.89369 0.1002 0.0
C222 C 0.12232 0.83166 0.2567 0.0
O223 O 0.11049 0.83853 0.28807 0.0
C224 C 0.149 0.92437 0.04521 0.0
O225 O 0.16003 0.91444 0.02102 0.0
O226 O 0.13214 0.86768 0.33877 0.0
O227 O 0.15634 0.87466 0.22836 0.0
O228 O 0.1603 0.88948 0.14743 0.0
C229 C 0.14298 0.86057 0.37249 0.0
O230 O 0.15529 0.85184 0.34995 0.0
O231 O 0.13402 0.8408 0.23584 0.0
C232 C 0.1288 0.88648 0.98489 0.0
O233 O 0.11648 0.8965 1.00005 0.0
O234 O 0.14022 0.88252 0.0224 0.0
O235 O 0.11566 0.8888 0.13394 0.0
O236 O 0.11228 0.87437 0.21602 0.0
O237 O 0.13865 0.91829 0.08177 0.0
C238 C 0.16598 0.88269 0.19409 0.0
C239 C 0.10617 0.88255 0.17286 0.0
Zn240 Zn 0.8733 0.64267 0.19799 0.0
Zn241 Zn 0.87108 0.6098 0.05471 0.0
C242 C 0.8803 0.6778 0.21004 0.0
O243 O 0.89061 0.67189 0.25085 0.0
C244 C 0.86061 0.57713 0.01659 0.0
O245 O 0.84694 0.58553 1.00025 0.0
O246 O 0.87495 0.63954 0.28576 0.0
O247 O 0.85173 0.6313 0.17211 0.0
O248 O 0.84915 0.61387 0.09842 0.0
C249 C 0.8637 0.64527 0.31922 0.0
O250 O 0.85066 0.65342 0.29636 0.0
O251 O 0.87153 0.66759 0.1802 0.0
C252 C 0.88027 0.61547 0.93684 0.0
O253 O 0.89282 0.60578 0.95506 0.0
O254 O 0.8691 0.6198 0.97305 0.0
O255 O 0.89373 0.61665 0.09133 0.0
O256 O 0.89517 0.63383 0.16614 0.0
O257 O 0.87265 0.58479 0.04245 0.0
C258 C 0.84277 0.62176 0.14037 0.0
C259 C 0.9023 0.62473 0.12895 0.0
Zn260 Zn 0.12148 0.12685 0.94566 0.0
Zn261 Zn 0.13732 0.12405 0.79881 0.0
C262 C 0.0862 0.13068 0.94593 0.0
O263 O 0.0917 0.14287 0.97873 0.0
C264 C 0.17173 0.11105 0.78588 0.0
O265 O 0.16377 0.09698 0.77515 0.0
O266 O 0.122 0.1282 0.03239 0.0
O267 O 0.13816 0.10883 0.9274 0.0
O268 O 0.12887 0.10309 0.83955 0.0
C269 C 0.11835 0.11542 0.06313 0.0
O270 O 0.11439 0.10141 0.03737 0.0
O271 O 0.0971 0.12111 0.92338 0.0
C272 C 0.13799 0.13112 0.67801 0.0
O273 O 0.14973 0.14163 0.69594 0.0
O274 O 0.13033 0.12209 0.71515 0.0
O275 O 0.13073 0.14731 0.82223 0.0
O276 O 0.12608 0.14983 0.91631 0.0
O277 O 0.1631 0.1238 0.79912 0.0
C278 C 0.1344 0.09824 0.88908 0.0
C279 C 0.12792 0.15623 0.8661 0.0
Zn280 Zn 0.62726 0.37232 0.67631 0.0
Zn281 Zn 0.63115 0.37572 0.53775 0.0
C282 C 0.61888 0.33762 0.68189 0.0
O283 O 0.60714 0.3436 0.71571 0.0
C284 C 0.64074 0.40887 0.50622 0.0
O285 O 0.65239 0.40024 0.47961 0.0
O286 O 0.62534 0.37369 0.76365 0.0
O287 O 0.64885 0.38417 0.65553 0.0
O288 O 0.65325 0.36872 0.57934 0.0
C289 C 0.63689 0.36734 0.79642 0.0
O290 O 0.65002 0.36015 0.77261 0.0
O291 O 0.62927 0.34771 0.65806 0.0
C292 C 0.62188 0.37534 0.41776 0.0
O293 O 0.60897 0.38362 0.43859 0.0
O294 O 0.63337 0.36993 0.45281 0.0
O295 O 0.60815 0.36639 0.56254 0.0
O296 O 0.60544 0.38113 0.6415 0.0
O297 O 0.62996 0.40107 0.53725 0.0
C298 C 0.65907 0.37696 0.62204 0.0
C299 C 0.59873 0.37335 0.59943 0.0
Zn300 Zn 0.38017 0.8686 0.2597 0.0
Zn301 Zn 0.37523 0.88233 0.40376 0.0
C302 C 0.37167 0.83428 0.28603 0.0
O303 O 0.35655 0.83943 0.26836 0.0
C304 C 0.37171 0.91792 0.37235 0.0
O305 O 0.36165 0.91256 0.33062 0.0
O306 O 0.383 0.8683 0.17321 0.0
O307 O 0.35591 0.87498 0.27174 0.0
O308 O 0.35209 0.87849 0.36576 0.0
C309 C 0.3754 0.87902 0.14085 0.0
O310 O 0.3661 0.89056 0.16477 0.0
O311 O 0.3839 0.8447 0.28779 0.0
C312 C 0.38631 0.87802 0.51995 0.0
O313 O 0.4004 0.88346 0.49614 0.0
O314 O 0.3732 0.87589 0.48789 0.0
O315 O 0.39677 0.87111 0.37643 0.0
O316 O 0.39858 0.88356 0.2914 0.0
O317 O 0.37917 0.90736 0.40581 0.0
C318 C 0.34619 0.87717 0.31434 0.0
C319 C 0.40563 0.87859 0.33843 0.0
H320 H 0.128 0.64132 0.9078 0.0
H321 H 0.12961 0.64321 0.80225 0.0
H322 H 0.10693 0.59436 0.78883 0.0
H323 H 0.10551 0.59221 0.89466 0.0
H324 H 0.1354 0.59867 0.72053 0.0
H325 H 0.09031 0.65133 0.68755 0.0
H326 H 0.10722 0.65567 0.73838 0.0
H327 H 0.09195 0.6396 0.75498 0.0
C328 C 0.12329 0.63099 0.88246 0.0
C329 C 0.11654 0.61664 0.90957 0.0
C330 C 0.12412 0.63214 0.82214 0.0
C331 C 0.11808 0.61906 0.78783 0.0
C332 C 0.11153 0.60464 0.81467 0.0
H333 H 0.1166 0.60471 0.41388 0.0
H334 H 0.11222 0.60173 0.51837 0.0
C335 C 0.11073 0.60344 0.87508 0.0
C336 C 0.11915 0.62024 0.72396 0.0
H337 H 0.10702 0.64407 0.60632 0.0
C338 C 0.12907 0.60849 0.69542 0.0
C339 C 0.11085 0.63307 0.6915 0.0
C340 C 0.09935 0.64554 0.71955 0.0
C341 C 0.13135 0.60952 0.63528 0.0
C342 C 0.12331 0.62253 0.60305 0.0
C343 C 0.1132 0.63415 0.63142 0.0
C344 C 0.12554 0.62449 0.53989 0.0
C345 C 0.14271 0.597 0.60684 0.0
C346 C 0.13413 0.63848 0.5176 0.0
C347 C 0.13664 0.64025 0.45801 0.0
C348 C 0.13047 0.6281 0.41976 0.0
C349 C 0.12156 0.61425 0.44224 0.0
C350 C 0.11911 0.61248 0.50187 0.0
H351 H 0.15061 0.58989 0.63911 0.0
H352 H 0.13472 0.58797 0.58262 0.0
H353 H 0.15126 0.60331 0.57542 0.0
H354 H 0.1391 0.64791 0.54643 0.0
H355 H 0.14349 0.65108 0.44205 0.0
H356 H 0.60114 0.87221 0.12512 0.0
H357 H 0.59858 0.87614 0.01976 0.0
H358 H 0.64561 0.84943 0.99822 0.0
H359 H 0.64816 0.84525 0.10325 0.0
H360 H 0.62066 0.89224 0.94464 0.0
H361 H 0.61361 0.82572 0.88575 0.0
H362 H 0.61135 0.83279 0.95912 0.0
H363 H 0.63217 0.83004 0.92945 0.0
C364 C 0.61091 0.8671 0.09799 0.0
C365 C 0.62482 0.85834 0.12275 0.0
C366 C 0.60942 0.86936 0.03773 0.0
C367 C 0.62175 0.86285 1.00092 0.0
C368 C 0.63573 0.85424 0.02554 0.0
H369 H 0.63617 0.86821 0.6256 0.0
H370 H 0.63909 0.86253 0.73024 0.0
C371 C 0.63722 0.85196 0.08575 0.0
C372 C 0.62025 0.86552 0.93697 0.0
H373 H 0.61727 0.84516 0.80802 0.0
C374 C 0.61984 0.88195 0.91481 0.0
C375 C 0.61927 0.85208 0.89796 0.0
C376 C 0.61896 0.83416 0.91915 0.0
C377 C 0.61868 0.88531 0.85484 0.0
C378 C 0.6176 0.87188 0.81586 0.0
C379 C 0.61813 0.85544 0.83791 0.0
C380 C 0.61554 0.8747 0.75218 0.0
C381 C 0.61892 0.90323 0.83366 0.0
C382 C 0.60115 0.88306 0.72959 0.0
C383 C 0.59943 0.88629 0.67 0.0
C384 C 0.61205 0.88117 0.63147 0.0
C385 C 0.62624 0.87236 0.65399 0.0
C386 C 0.62794 0.86911 0.71379 0.0
H387 H 0.62434 0.91167 0.86695 0.0
H388 H 0.62646 0.90461 0.79351 0.0
H389 H 0.6057 0.90734 0.82366 0.0
H390 H 0.59124 0.88717 0.75818 0.0
H391 H 0.58828 0.89301 0.65427 0.0
H392 H 0.37457 0.36103 0.36287 0.0
H393 H 0.37275 0.35967 0.25715 0.0
H394 H 0.40412 0.4037 0.24253 0.0
H395 H 0.40626 0.40503 0.34827 0.0
H396 H 0.35933 0.38371 0.18211 0.0
H397 H 0.42715 0.37161 0.13288 0.0
H398 H 0.41873 0.3691 0.2049 0.0
H399 H 0.42366 0.38956 0.1767 0.0
C400 C 0.38121 0.37036 0.33722 0.0
C401 C 0.39059 0.38313 0.36399 0.0
C402 C 0.38015 0.36955 0.27681 0.0
C403 C 0.38848 0.38145 0.24203 0.0
C404 C 0.3979 0.39419 0.26856 0.0
H405 H 0.3873 0.39882 0.86705 0.0
H406 H 0.39222 0.40102 0.97196 0.0
C407 C 0.39901 0.39498 0.32902 0.0
C408 C 0.38655 0.38096 0.17808 0.0
H409 H 0.4086 0.37709 0.05254 0.0
C410 C 0.37009 0.38222 0.15379 0.0
C411 C 0.40064 0.37912 0.14128 0.0
C412 C 0.41854 0.37712 0.16514 0.0
C413 C 0.36734 0.38171 0.09364 0.0
C414 C 0.38139 0.37967 0.05691 0.0
C415 C 0.39788 0.37865 0.08099 0.0
C416 C 0.37908 0.37806 0.99349 0.0
C417 C 0.34942 0.3835 0.06974 0.0
C418 C 0.37037 0.36426 0.97108 0.0
C419 C 0.36757 0.36294 0.91142 0.0
C420 C 0.37346 0.37541 0.873 0.0
C421 C 0.38255 0.38905 0.89551 0.0
C422 C 0.38539 0.39032 0.95534 0.0
H423 H 0.34073 0.38896 0.10189 0.0
H424 H 0.34917 0.39147 0.02985 0.0
H425 H 0.34444 0.371 0.05826 0.0
H426 H 0.36563 0.35454 0.99986 0.0
H427 H 0.36061 0.35223 0.89556 0.0
H428 H 0.84548 0.14986 0.59869 0.0
H429 H 0.84758 0.14831 0.49316 0.0
H430 H 0.89496 0.12152 0.51275 0.0
H431 H 0.89289 0.12283 0.61829 0.0
H432 H 0.87325 0.16011 0.41939 0.0
H433 H 0.86635 0.0913 0.40777 0.0
H434 H 0.86125 0.10278 0.47186 0.0
H435 H 0.88304 0.09805 0.45607 0.0
C436 C 0.85635 0.14361 0.58062 0.0
C437 C 0.86896 0.13636 0.61699 0.0
C438 C 0.85753 0.14276 0.52027 0.0
C439 C 0.87128 0.13458 0.49515 0.0
C440 C 0.88406 0.1276 0.53126 0.0
H441 H 0.90293 0.11371 0.14677 0.0
H442 H 0.90045 0.11717 0.25131 0.0
C443 C 0.88289 0.12843 0.5916 0.0
C444 C 0.87233 0.13341 0.43115 0.0
H445 H 0.87408 0.10556 0.32103 0.0
C446 C 0.87334 0.1482 0.39777 0.0
C447 C 0.8724 0.11785 0.40311 0.0
C448 C 0.87055 0.10158 0.4364 0.0
C449 C 0.87486 0.14782 0.33715 0.0
C450 C 0.8751 0.13225 0.30921 0.0
C451 C 0.87395 0.11748 0.34258 0.0
C452 C 0.87678 0.13091 0.24544 0.0
C453 C 0.87664 0.16406 0.30369 0.0
C454 C 0.86426 0.13747 0.20735 0.0
C455 C 0.86564 0.13554 0.14737 0.0
C456 C 0.87953 0.12691 0.12447 0.0
C457 C 0.89208 0.12044 0.16284 0.0
C458 C 0.89068 0.12238 0.22267 0.0
H459 H 0.88036 0.17449 0.33239 0.0
H460 H 0.88627 0.16297 0.26922 0.0
H461 H 0.86425 0.16728 0.2826 0.0
H462 H 0.85326 0.14382 0.22405 0.0
H463 H 0.85572 0.14059 0.11907 0.0
H464 H 0.09301 0.39486 0.11774 0.0
H465 H 0.09643 0.38852 0.22114 0.0
H466 H 0.14432 0.36436 0.18935 0.0
H467 H 0.14114 0.3709 0.08546 0.0
H468 H 0.10022 0.35831 0.28126 0.0
H469 H 0.15706 0.39884 0.31166 0.0
H470 H 0.14383 0.39984 0.24697 0.0
H471 H 0.15901 0.38325 0.25713 0.0
C472 C 0.10426 0.38814 0.13253 0.0
C473 C 0.11688 0.3835 0.0933 0.0
C474 C 0.10618 0.38451 0.19174 0.0
C475 C 0.12076 0.37623 0.2131 0.0
C476 C 0.13313 0.37108 0.17393 0.0
H477 H 0.1527 0.3523 0.56944 0.0
H478 H 0.15046 0.35436 0.4636 0.0
C479 C 0.13124 0.37472 0.11453 0.0
C480 C 0.12297 0.37326 0.27651 0.0
H481 H 0.14785 0.38345 0.39355 0.0
C482 C 0.11066 0.36376 0.30582 0.0
C483 C 0.13659 0.38041 0.30846 0.0
C484 C 0.14982 0.39128 0.2797 0.0
C485 C 0.1116 0.36122 0.36621 0.0
C486 C 0.12506 0.36859 0.39822 0.0
C487 C 0.13754 0.37783 0.36885 0.0
C488 C 0.12623 0.36717 0.46239 0.0
C489 C 0.09825 0.35056 0.39519 0.0
C490 C 0.11346 0.37389 0.49683 0.0
C491 C 0.1147 0.37277 0.55736 0.0
C492 C 0.1288 0.36496 0.5846 0.0
C493 C 0.14165 0.35836 0.54991 0.0
C494 C 0.1404 0.35952 0.4894 0.0
H495 H 0.09161 0.34235 0.36375 0.0
H496 H 0.10398 0.34266 0.43041 0.0
H497 H 0.08859 0.35876 0.41462 0.0
H498 H 0.10258 0.38015 0.47688 0.0
H499 H 0.10462 0.37805 0.58274 0.0
H500 H 0.87973 0.86876 0.87918 0.0
H501 H 0.87711 0.86658 0.7737 0.0
H502 H 0.90371 0.91334 0.75256 0.0
H503 H 0.90661 0.91552 0.85789 0.0
H504 H 0.86099 0.88837 0.69635 0.0
H505 H 0.92952 0.88298 0.64438 0.0
H506 H 0.92169 0.88023 0.71711 0.0
H507 H 0.92433 0.90084 0.68657 0.0
C508 C 0.88512 0.87854 0.85214 0.0
C509 C 0.89344 0.89229 0.87707 0.0
C510 C 0.88361 0.87728 0.79182 0.0
C511 C 0.89045 0.88966 0.75516 0.0
C512 C 0.89868 0.90344 0.77989 0.0
H513 H 0.88597 0.90458 0.37812 0.0
H514 H 0.89172 0.90751 0.48245 0.0
C515 C 0.90022 0.90471 0.84021 0.0
C516 C 0.88833 0.88846 0.69119 0.0
H517 H 0.91024 0.88615 0.56459 0.0
C518 C 0.87177 0.88783 0.66759 0.0
C519 C 0.9024 0.88786 0.65363 0.0
C520 C 0.9205 0.88786 0.67659 0.0
C521 C 0.86887 0.8867 0.60754 0.0
C522 C 0.88292 0.88592 0.57005 0.0
C523 C 0.8995 0.88676 0.59345 0.0
C524 C 0.88055 0.88375 0.50662 0.0
C525 C 0.85076 0.88655 0.58462 0.0
C526 C 0.87284 0.86922 0.48557 0.0
C527 C 0.86958 0.8675 0.42625 0.0
C528 C 0.87401 0.88025 0.38654 0.0
C529 C 0.88235 0.89454 0.4075 0.0
C530 C 0.88564 0.89624 0.46707 0.0
H531 H 0.84172 0.89148 0.61667 0.0
H532 H 0.84954 0.89408 0.54385 0.0
H533 H 0.84699 0.87353 0.57504 0.0
H534 H 0.86911 0.85929 0.51522 0.0
H535 H 0.86326 0.85627 0.41172 0.0
H536 H 0.40785 0.60788 0.64446 0.0
H537 H 0.40485 0.61016 0.74926 0.0
H538 H 0.35885 0.63879 0.72275 0.0
H539 H 0.36161 0.63637 0.61751 0.0
H540 H 0.40353 0.63828 0.81823 0.0
H541 H 0.34383 0.60134 0.8337 0.0
H542 H 0.35678 0.60157 0.76973 0.0
H543 H 0.34283 0.61875 0.78362 0.0
C544 C 0.39708 0.61469 0.66076 0.0
C545 C 0.38491 0.62187 0.62248 0.0
C546 C 0.3954 0.61598 0.72078 0.0
C547 C 0.3815 0.62441 0.74391 0.0
C548 C 0.36951 0.63193 0.70589 0.0
H549 H 0.3504 0.64155 0.09876 0.0
H550 H 0.35295 0.6412 0.99323 0.0
C551 C 0.37116 0.63063 0.64572 0.0
C552 C 0.37968 0.62533 0.80784 0.0
H553 H 0.35389 0.61391 0.91976 0.0
C554 C 0.39269 0.63294 0.84046 0.0
C555 C 0.36552 0.61835 0.83679 0.0
C556 C 0.3515 0.6094 0.80436 0.0
C557 C 0.39185 0.63392 0.90115 0.0
C558 C 0.37776 0.62683 0.93013 0.0
C559 C 0.36468 0.61933 0.89748 0.0
C560 C 0.37636 0.62701 0.99431 0.0
C561 C 0.40592 0.64279 0.93361 0.0
C562 C 0.38856 0.61895 0.03007 0.0
C563 C 0.38716 0.61913 0.09051 0.0
C564 C 0.37346 0.6273 0.1164 0.0
C565 C 0.36115 0.63518 0.08037 0.0
C566 C 0.36256 0.63499 0.01998 0.0
H567 H 0.41327 0.65122 0.90454 0.0
H568 H 0.40074 0.65023 0.96946 0.0
H569 H 0.41485 0.63341 0.95268 0.0
H570 H 0.39913 0.61242 0.0112 0.0
H571 H 0.39682 0.61286 0.1169 0.0
H572 H 0.64106 0.15686 0.90081 0.0
H573 H 0.63827 0.15411 0.00585 0.0
H574 H 0.60968 0.10861 0.9844 0.0
H575 H 0.61262 0.11112 0.87894 0.0
H576 H 0.60924 0.15259 0.07352 0.0
H577 H 0.64754 0.09461 0.09925 0.0
H578 H 0.64746 0.10716 0.03347 0.0
H579 H 0.63001 0.09331 0.04852 0.0
C580 C 0.63416 0.14625 0.91828 0.0
C581 C 0.62715 0.13415 0.88137 0.0
C582 C 0.63257 0.14471 0.97842 0.0
C583 C 0.624 0.13103 0.00307 0.0
C584 C 0.61665 0.1191 0.9664 0.0
H585 H 0.60604 0.10115 0.36204 0.0
H586 H 0.60638 0.10344 0.25617 0.0
C587 C 0.61825 0.12061 0.90609 0.0
C588 C 0.62278 0.12937 0.06717 0.0
H589 H 0.63431 0.10456 0.18327 0.0
C590 C 0.61473 0.1421 0.09755 0.0
C591 C 0.62995 0.11567 0.09845 0.0
C592 C 0.63936 0.10196 0.06846 0.0
C593 C 0.61351 0.14143 0.15829 0.0
C594 C 0.62082 0.1278 0.1896 0.0
C595 C 0.62873 0.115 0.15919 0.0
C596 C 0.62049 0.12663 0.25396 0.0
C597 C 0.60418 0.15518 0.18831 0.0
C598 C 0.62848 0.13882 0.28797 0.0
C599 C 0.62831 0.13756 0.3486 0.0
C600 C 0.62021 0.12402 0.3764 0.0
C601 C 0.61235 0.11176 0.34213 0.0
C602 C 0.61254 0.11304 0.28156 0.0
H603 H 0.59555 0.16215 0.15789 0.0
H604 H 0.59657 0.15012 0.2248 0.0
H605 H 0.61358 0.16416 0.20616 0.0
H606 H 0.63501 0.14924 0.26762 0.0
H607 H 0.63456 0.14717 0.37362 0.0
H608 H 0.8932 0.40404 0.12592 0.0
H609 H 0.8931 0.40184 0.23184 0.0
H610 H 0.86887 0.35365 0.22145 0.0
H611 H 0.86912 0.35563 0.11544 0.0
H612 H 0.86567 0.3984 0.30541 0.0
H613 H 0.90925 0.34426 0.33079 0.0
H614 H 0.90705 0.35604 0.26363 0.0
H615 H 0.89141 0.34061 0.28304 0.0
C616 C 0.88791 0.39292 0.14608 0.0
C617 C 0.88124 0.37997 0.11208 0.0
C618 C 0.88786 0.3917 0.20669 0.0
C619 C 0.88123 0.37747 0.23463 0.0
C620 C 0.8744 0.36459 0.20087 0.0
H621 H 0.86283 0.34565 0.58743 0.0
H622 H 0.8655 0.34875 0.48245 0.0
C623 C 0.87445 0.36579 0.14022 0.0
C624 C 0.88106 0.37632 0.29905 0.0
H625 H 0.89465 0.35252 0.41517 0.0
C626 C 0.87211 0.38844 0.32948 0.0
C627 C 0.88949 0.36334 0.33039 0.0
C628 C 0.89998 0.3504 0.30042 0.0
C629 C 0.87095 0.38767 0.39025 0.0
C630 C 0.87921 0.37457 0.42153 0.0
C631 C 0.88832 0.36255 0.39114 0.0
C632 C 0.87805 0.37276 0.48562 0.0
C633 C 0.86045 0.40058 0.4203 0.0
C634 C 0.88449 0.38511 0.52251 0.0
C635 C 0.88298 0.38339 0.58281 0.0
C636 C 0.87506 0.36923 0.6073 0.0
C637 C 0.86895 0.35674 0.57016 0.0
C638 C 0.87048 0.35847 0.51004 0.0
H639 H 0.85181 0.40739 0.3895 0.0
H640 H 0.8527 0.39472 0.45499 0.0
H641 H 0.86908 0.40984 0.44068 0.0
H642 H 0.89068 0.3961 0.50467 0.0
H643 H 0.88789 0.3932 0.61013 0.0
H644 H 0.40927 0.1208 0.36454 0.0
H645 H 0.40599 0.12568 0.2601 0.0
H646 H 0.3571 0.14854 0.28633 0.0
H647 H 0.36036 0.14394 0.39108 0.0
H648 H 0.38008 0.11257 0.19162 0.0
H649 H 0.38032 0.18185 0.17666 0.0
H650 H 0.38771 0.1705 0.24056 0.0
H651 H 0.36528 0.17312 0.22667 0.0
C652 C 0.39791 0.12707 0.34824 0.0
C653 C 0.38507 0.13198 0.38611 0.0
C654 C 0.39606 0.12984 0.28854 0.0
C655 C 0.38139 0.13761 0.26558 0.0
C656 C 0.36867 0.14281 0.30328 0.0
H657 H 0.34537 0.15381 0.90929 0.0
H658 H 0.3479 0.15232 0.01535 0.0
C659 C 0.37053 0.14009 0.3631 0.0
C660 C 0.37895 0.1392 0.20194 0.0
H661 H 0.37343 0.16739 0.09041 0.0
C662 C 0.37869 0.12456 0.16946 0.0
C663 C 0.377 0.15486 0.17331 0.0
C664 C 0.37773 0.17101 0.20592 0.0
C665 C 0.37649 0.12513 0.10903 0.0
C666 C 0.37476 0.14077 0.08032 0.0
C667 C 0.37478 0.15542 0.11274 0.0
C668 C 0.37338 0.14213 0.01641 0.0
C669 C 0.37587 0.10897 0.07641 0.0
C670 C 0.387 0.13714 0.9822 0.0
C671 C 0.38562 0.13797 0.92181 0.0
C672 C 0.3706 0.14387 0.89451 0.0
C673 C 0.35708 0.14915 0.92898 0.0
C674 C 0.3585 0.14834 0.98951 0.0
H675 H 0.37314 0.09813 0.10555 0.0
H676 H 0.36601 0.10949 0.04135 0.0
H677 H 0.38838 0.10683 0.05617 0.0
H678 H 0.39869 0.13256 0.00227 0.0
H679 H 0.39631 0.1339 0.89659 0.0
H680 H 0.61564 0.59691 0.11067 0.0
H681 H 0.61379 0.59449 0.00485 0.0
H682 H 0.63914 0.64194 0.98482 0.0
H683 H 0.64119 0.64441 0.09006 0.0
H684 H 0.59853 0.61614 0.92023 0.0
H685 H 0.66817 0.6105 0.88848 0.0
H686 H 0.65853 0.60788 0.95861 0.0
H687 H 0.66203 0.62845 0.92871 0.0
C688 C 0.62079 0.60685 0.08374 0.0
C689 C 0.62867 0.6208 0.10891 0.0
C690 C 0.61972 0.60544 0.02329 0.0
C691 C 0.6266 0.61789 0.98699 0.0
C692 C 0.63407 0.63201 0.01199 0.0
H693 H 0.63607 0.63376 0.6153 0.0
H694 H 0.63659 0.63595 0.72113 0.0
C695 C 0.63515 0.63344 0.07226 0.0
C696 C 0.62593 0.61622 0.92295 0.0
H697 H 0.651 0.61413 0.80356 0.0
C698 C 0.60999 0.61559 0.89468 0.0
C699 C 0.6409 0.61556 0.88973 0.0
C700 C 0.65839 0.61548 0.91785 0.0
C701 C 0.60861 0.6147 0.83395 0.0
C702 C 0.6236 0.6141 0.80072 0.0
C703 C 0.63953 0.61465 0.82905 0.0
C704 C 0.62305 0.61281 0.73651 0.0
C705 C 0.59114 0.61482 0.8058 0.0
C706 C 0.61545 0.59897 0.71001 0.0
C707 C 0.61512 0.59769 0.64959 0.0
C708 C 0.62249 0.61017 0.61437 0.0
C709 C 0.63025 0.62394 0.64108 0.0
C710 C 0.63057 0.62522 0.70156 0.0
H711 H 0.58136 0.61975 0.83525 0.0
H712 H 0.591 0.62247 0.76517 0.0
H713 H 0.58749 0.60186 0.79472 0.0
H714 H 0.60991 0.58906 0.73611 0.0
H715 H 0.60913 0.58686 0.63055 0.0
H716 H 0.1648 0.84805 0.45607 0.0
H717 H 0.16253 0.85027 0.56139 0.0
H718 H 0.11618 0.87857 0.53874 0.0
H719 H 0.11824 0.87632 0.43344 0.0
H720 H 0.16139 0.8796 0.6274 0.0
H721 H 0.10303 0.8414 0.65517 0.0
H722 H 0.11552 0.84101 0.59014 0.0
H723 H 0.10098 0.85788 0.60171 0.0
C724 C 0.15407 0.85469 0.47344 0.0
C725 C 0.14166 0.86196 0.43629 0.0
C726 C 0.15281 0.85595 0.53365 0.0
C727 C 0.13906 0.86436 0.55788 0.0
C728 C 0.12672 0.87173 0.52096 0.0
H729 H 0.10686 0.89378 0.89508 0.0
H730 H 0.11004 0.88729 0.79282 0.0
C731 C 0.12798 0.87053 0.46076 0.0
C732 C 0.13787 0.86588 0.6217 0.0
H733 H 0.11235 0.85696 0.73671 0.0
C734 C 0.15076 0.87452 0.65149 0.0
C735 C 0.12399 0.85923 0.65289 0.0
C736 C 0.11015 0.84922 0.62353 0.0
C737 C 0.14985 0.87721 0.7114 0.0
C738 C 0.13583 0.87077 0.74249 0.0
C739 C 0.12309 0.86188 0.71281 0.0
C740 C 0.13372 0.87385 0.80526 0.0
C741 C 0.16357 0.88745 0.74045 0.0
C742 C 0.14579 0.86812 0.84653 0.0
C743 C 0.14404 0.87185 0.90524 0.0
C744 C 0.13012 0.8813 0.92371 0.0
C745 C 0.11778 0.88653 0.88243 0.0
C746 C 0.11955 0.88282 0.82387 0.0
H747 H 0.17119 0.89466 0.70845 0.0
H748 H 0.15799 0.8963 0.77141 0.0
H749 H 0.17235 0.87901 0.76509 0.0
H750 H 0.15664 0.86087 0.83326 0.0
H751 H 0.15373 0.86756 0.93594 0.0
H752 H 0.85462 0.63316 0.88109 0.0
H753 H 0.85139 0.63889 0.77656 0.0
H754 H 0.89902 0.61405 0.74674 0.0
H755 H 0.90228 0.60815 0.8505 0.0
H756 H 0.87285 0.65616 0.6979 0.0
H757 H 0.86561 0.58967 0.63915 0.0
H758 H 0.8638 0.59671 0.71273 0.0
H759 H 0.88443 0.59393 0.68162 0.0
C760 C 0.86444 0.62897 0.8523 0.0
C761 C 0.87865 0.62008 0.87425 0.0
C762 C 0.86257 0.63225 0.79257 0.0
C763 C 0.8748 0.62661 0.75369 0.0
C764 C 0.88923 0.61819 0.77571 0.0
H765 H 0.88914 0.62926 0.38123 0.0
H766 H 0.89161 0.6254 0.4866 0.0
C767 C 0.89111 0.61492 0.83522 0.0
C768 C 0.87255 0.62944 0.69007 0.0
H769 H 0.86934 0.60908 0.56132 0.0
C770 C 0.87196 0.64588 0.66802 0.0
C771 C 0.8714 0.61601 0.6511 0.0
C772 C 0.87118 0.59809 0.67224 0.0
C773 C 0.87071 0.64925 0.60799 0.0
C774 C 0.86973 0.6358 0.569 0.0
C775 C 0.87017 0.61938 0.59114 0.0
C776 C 0.86828 0.63847 0.50505 0.0
C777 C 0.87094 0.66716 0.58675 0.0
C778 C 0.85424 0.64693 0.48021 0.0
C779 C 0.85279 0.64917 0.41996 0.0
C780 C 0.8653 0.64289 0.38317 0.0
C781 C 0.87929 0.6343 0.40818 0.0
C782 C 0.88072 0.63207 0.46846 0.0
H783 H 0.87616 0.67565 0.62023 0.0
H784 H 0.87863 0.66856 0.54697 0.0
H785 H 0.85773 0.67119 0.57605 0.0
H786 H 0.84429 0.65167 0.50739 0.0
H787 H 0.8418 0.65576 0.40227 0.0
H788 H 0.11282 0.11264 0.62642 0.0
H789 H 0.10778 0.10883 0.5223 0.0
H790 H 0.14998 0.14143 0.48412 0.0
H791 H 0.15511 0.1454 0.58783 0.0
H792 H 0.10241 0.13575 0.43107 0.0
H793 H 0.15918 0.09564 0.40025 0.0
H794 H 0.14972 0.0985 0.47031 0.0
H795 H 0.1628 0.1146 0.43924 0.0
C796 C 0.121 0.11904 0.59586 0.0
C797 C 0.13441 0.12927 0.61534 0.0
C798 C 0.11808 0.11686 0.53652 0.0
C799 C 0.12863 0.12472 0.49589 0.0
C800 C 0.14184 0.13514 0.51506 0.0
H801 H 0.12216 0.14321 0.12897 0.0
H802 H 0.12324 0.14466 0.23476 0.0
C803 C 0.1447 0.13742 0.57428 0.0
C804 C 0.12595 0.12203 0.43327 0.0
H805 H 0.14447 0.10506 0.31522 0.0
C806 C 0.11151 0.12896 0.40567 0.0
C807 C 0.1378 0.113 0.40072 0.0
C808 C 0.15321 0.10487 0.42899 0.0
C809 C 0.10888 0.12753 0.34562 0.0
C810 C 0.12107 0.11903 0.31273 0.0
C811 C 0.13522 0.11164 0.34068 0.0
C812 C 0.11968 0.11813 0.24891 0.0
C813 C 0.09315 0.13514 0.31771 0.0
C814 C 0.11754 0.1027 0.22204 0.0
C815 C 0.1169 0.10181 0.16157 0.0
C816 C 0.11863 0.11634 0.12708 0.0
C817 C 0.12079 0.13179 0.15429 0.0
C818 C 0.12131 0.13266 0.2147 0.0
H819 H 0.08324 0.13775 0.35014 0.0
H820 H 0.09661 0.14711 0.29597 0.0
H821 H 0.0877 0.12677 0.28432 0.0
H822 H 0.11638 0.09134 0.2479 0.0
H823 H 0.11527 0.08972 0.14191 0.0
H824 H 0.64782 0.3607 0.35841 0.0
H825 H 0.65077 0.35899 0.25293 0.0
H826 H 0.6024 0.38367 0.22802 0.0
H827 H 0.59941 0.38559 0.3329 0.0
H828 H 0.62926 0.34405 0.16886 0.0
H829 H 0.63472 0.41236 0.13008 0.0
H830 H 0.63707 0.40288 0.20136 0.0
H831 H 0.61623 0.40622 0.16999 0.0
C832 C 0.63779 0.36573 0.33048 0.0
C833 C 0.62343 0.37338 0.35416 0.0
C834 C 0.6395 0.36475 0.27023 0.0
C835 C 0.62695 0.37148 0.23262 0.0
C836 C 0.61242 0.37872 0.25617 0.0
H837 H 0.61126 0.38073 0.86017 0.0
H838 H 0.60906 0.38119 0.96593 0.0
C839 C 0.61069 0.37972 0.31625 0.0
C840 C 0.62894 0.3709 0.16872 0.0
H841 H 0.63126 0.3956 0.04677 0.0
C842 C 0.62982 0.35531 0.14215 0.0
C843 C 0.62964 0.38561 0.13396 0.0
C844 C 0.62953 0.40273 0.16023 0.0
C845 C 0.63094 0.35402 0.08159 0.0
C846 C 0.6315 0.36875 0.0468 0.0
C847 C 0.63075 0.38433 0.07345 0.0
C848 C 0.63286 0.36828 0.98264 0.0
C849 C 0.63105 0.33692 0.05525 0.0
C850 C 0.64708 0.36106 0.95687 0.0
C851 C 0.64838 0.36078 0.89645 0.0
C852 C 0.63552 0.3678 0.86051 0.0
C853 C 0.62138 0.37518 0.88649 0.0
C854 C 0.62009 0.37546 0.94695 0.0
H855 H 0.62616 0.32722 0.08573 0.0
H856 H 0.62324 0.33672 0.0147 0.0
H857 H 0.64431 0.33357 0.04441 0.0
H858 H 0.65726 0.35577 0.98352 0.0
H859 H 0.6595 0.35508 0.87798 0.0
H860 H 0.35876 0.89845 0.05966 0.0
H861 H 0.36029 0.89678 0.95416 0.0
H862 H 0.3964 0.85644 0.97191 0.0
H863 H 0.39473 0.8578 0.07753 0.0
H864 H 0.38794 0.90106 0.88468 0.0
H865 H 0.36098 0.8375 0.85982 0.0
H866 H 0.35946 0.84895 0.92626 0.0
H867 H 0.37888 0.83839 0.90907 0.0
C868 C 0.367 0.88918 0.04119 0.0
C869 C 0.37658 0.87822 0.077 0.0
C870 C 0.36784 0.88824 0.98088 0.0
C871 C 0.37824 0.87631 0.95524 0.0
C872 C 0.38799 0.86548 0.99081 0.0
H873 H 0.4123 0.88056 0.59932 0.0
H874 H 0.41041 0.87938 0.70496 0.0
C875 C 0.38711 0.86636 0.05117 0.0
C876 C 0.37926 0.8756 0.89126 0.0
H877 H 0.37304 0.85008 0.77575 0.0
C878 C 0.38464 0.88993 0.86083 0.0
C879 C 0.37475 0.86113 0.86026 0.0
C880 C 0.36803 0.84566 0.89038 0.0
C881 C 0.38585 0.89011 0.80022 0.0
C882 C 0.38189 0.87547 0.76939 0.0
C883 C 0.37626 0.86121 0.79967 0.0
C884 C 0.38325 0.87486 0.70552 0.0
C885 C 0.39105 0.90609 0.76968 0.0
C886 C 0.36872 0.87201 0.67092 0.0
C887 C 0.36977 0.87253 0.61045 0.0
C888 C 0.38539 0.8759 0.58366 0.0
C889 C 0.40004 0.8781 0.61857 0.0
C890 C 0.39898 0.87752 0.67895 0.0
H891 H 0.38934 0.91712 0.79753 0.0
H892 H 0.40472 0.90536 0.75853 0.0
H893 H 0.38357 0.90806 0.72887 0.0
H894 H 0.35648 0.86983 0.6907 0.0
H895 H 0.35826 0.87073 0.58479 0.0
H896 H 0.11935 0.67899 0.08801 0.0
H897 H 0.11905 0.70916 0.10162 0.0
H898 H 0.12621 0.70161 0.28603 0.0
H899 H 0.12682 0.67144 0.27295 0.0
H900 H 0.09758 0.72851 0.16642 0.0
H901 H 0.16451 0.73398 0.24466 0.0
H902 H 0.15637 0.71545 0.2105 0.0
H903 H 0.15207 0.71924 0.28548 0.0
C904 C 0.12089 0.68372 0.13154 0.0
C905 C 0.12325 0.67278 0.17937 0.0
C906 C 0.12069 0.70097 0.13915 0.0
C907 C 0.12289 0.7076 0.19466 0.0
C908 C 0.12487 0.69674 0.24266 0.0
H909 H 0.10031 0.80839 0.30046 0.0
H910 H 0.10022 0.77834 0.28396 0.0
C911 C 0.12513 0.67949 0.23512 0.0
C912 C 0.12294 0.72588 0.20231 0.0
H913 H 0.1472 0.75812 0.25208 0.0
C914 C 0.10844 0.73501 0.18497 0.0
C915 C 0.13722 0.73433 0.22574 0.0
C916 C 0.1535 0.72529 0.24217 0.0
C917 C 0.10772 0.75237 0.19136 0.0
C918 C 0.12178 0.76073 0.21672 0.0
C919 C 0.13638 0.75164 0.23315 0.0
C920 C 0.12168 0.77894 0.22624 0.0
C921 C 0.09205 0.76163 0.17003 0.0
C922 C 0.13403 0.78916 0.20035 0.0
C923 C 0.13422 0.80631 0.21011 0.0
C924 C 0.12208 0.81353 0.24611 0.0
C925 C 0.10977 0.80323 0.27219 0.0
C926 C 0.10963 0.78607 0.26255 0.0
H927 H 0.08461 0.75426 0.13805 0.0
H928 H 0.08372 0.76407 0.20734 0.0
H929 H 0.09549 0.77381 0.14965 0.0
H930 H 0.14349 0.78386 0.17241 0.0
H931 H 0.14388 0.81389 0.18942 0.0
H932 H 0.56865 0.90087 0.42221 0.0
H933 H 0.53753 0.90257 0.41786 0.0
H934 H 0.53535 0.85494 0.33364 0.0
H935 H 0.56636 0.85354 0.33545 0.0
H936 H 0.51502 0.87571 0.28024 0.0
H937 H 0.50294 0.87974 0.5156 0.0
H938 H 0.51645 0.8962 0.48959 0.0
H939 H 0.52365 0.87489 0.48784 0.0
C940 C 0.56151 0.89072 0.40311 0.0
C941 C 0.56997 0.87707 0.37915 0.0
C942 C 0.5437 0.89165 0.40102 0.0
C943 C 0.53402 0.87875 0.37632 0.0
C944 C 0.54249 0.86505 0.35295 0.0
H945 H 0.42595 0.86084 0.41447 0.0
H946 H 0.45699 0.86151 0.42283 0.0
C947 C 0.56025 0.86426 0.35405 0.0
C948 C 0.51511 0.87968 0.3724 0.0
H949 H 0.47922 0.88451 0.45213 0.0
C950 C 0.5072 0.87758 0.31793 0.0
C951 C 0.50485 0.88192 0.42162 0.0
C952 C 0.51239 0.88314 0.48202 0.0
C953 C 0.48941 0.87755 0.31125 0.0
C954 C 0.47916 0.88039 0.36008 0.0
C955 C 0.48705 0.88253 0.41457 0.0
C956 C 0.46024 0.88051 0.35597 0.0
C957 C 0.48184 0.87389 0.25221 0.0
C958 C 0.45165 0.89119 0.31642 0.0
C959 C 0.43391 0.8906 0.31076 0.0
C960 C 0.42437 0.8796 0.34559 0.0
C961 C 0.43293 0.86941 0.38683 0.0
C962 C 0.45069 0.8698 0.39174 0.0
H963 H 0.49097 0.86712 0.22483 0.0
H964 H 0.47006 0.86629 0.2558 0.0
H965 H 0.47861 0.88583 0.22953 0.0
H966 H 0.45867 0.89996 0.28967 0.0
H967 H 0.42765 0.8988 0.27926 0.0
H968 H 0.38077 0.33274 0.71835 0.0
H969 H 0.38048 0.30231 0.72663 0.0
H970 H 0.3582 0.29935 0.55496 0.0
H971 H 0.35883 0.3298 0.54563 0.0
H972 H 0.35421 0.28027 0.72297 0.0
H973 H 0.39835 0.26819 0.54265 0.0
H974 H 0.39543 0.28872 0.57177 0.0
H975 H 0.37997 0.2803 0.52186 0.0
C976 C 0.37585 0.32564 0.68219 0.0
C977 C 0.36995 0.33374 0.63111 0.0
C978 C 0.37567 0.30823 0.68706 0.0
C979 C 0.36959 0.29851 0.64106 0.0
C980 C 0.36335 0.30655 0.59048 0.0
H981 H 0.36195 0.18882 0.62486 0.0
H982 H 0.35727 0.21875 0.60498 0.0
C983 C 0.36362 0.32398 0.58538 0.0
C984 C 0.36968 0.27999 0.64667 0.0
H985 H 0.38598 0.24458 0.58839 0.0
C986 C 0.36112 0.27248 0.69338 0.0
C987 C 0.37867 0.2698 0.608 0.0
C988 C 0.38876 0.27713 0.55854 0.0
C989 C 0.36147 0.25513 0.70285 0.0
C990 C 0.37066 0.24502 0.66476 0.0
C991 C 0.37885 0.25241 0.61721 0.0
C992 C 0.37311 0.22695 0.67661 0.0
C993 C 0.35219 0.24769 0.7539 0.0
C994 C 0.38365 0.22174 0.72304 0.0
C995 C 0.38646 0.20478 0.73414 0.0
C996 C 0.37871 0.19263 0.69916 0.0
C997 C 0.36806 0.19787 0.65268 0.0
C998 C 0.36539 0.21493 0.64123 0.0
H999 H 0.34287 0.25656 0.77181 0.0
H1000 H 0.3454 0.2361 0.7413 0.0
H1001 H 0.36156 0.24434 0.78872 0.0
H1002 H 0.38985 0.23084 0.75048 0.0
H1003 H 0.39471 0.20121 0.77033 0.0
H1004 H 0.92647 0.10898 0.81033 0.0
H1005 H 0.95743 0.10752 0.82108 0.0
H1006 H 0.95517 0.13771 0.97375 0.0
H1007 H 0.92415 0.1389 0.96421 0.0
H1008 H 0.98073 0.13224 0.81831 0.0
H1009 H 0.98462 0.0995 0.03161 0.0
H1010 H 0.96505 0.10103 0.98981 0.0
H1011 H 0.97209 0.11818 0.03354 0.0
C1012 C 0.93252 0.11523 0.84648 0.0
C1013 C 0.92278 0.12401 0.88657 0.0
C1014 C 0.95025 0.11438 0.85251 0.0
C1015 C 0.95863 0.12225 0.89876 0.0
C1016 C 0.94897 0.13116 0.93856 0.0
H1017 H 0.06058 0.14684 0.99963 0.0
H1018 H 0.02997 0.14338 0.98539 0.0
C1019 C 0.93122 0.13194 0.93278 0.0
C1020 C 0.97752 0.12168 0.90401 0.0
H1021 H 0.01033 0.11214 0.99787 0.0
C1022 C 0.98721 0.12765 0.8573 0.0
C1023 C 0.98598 0.11561 0.95478 0.0
C1024 C 0.97641 0.10806 0.00504 0.0
C1025 C 0.00507 0.1283 0.86086 0.0
C1026 C 0.01346 0.12273 0.9123 0.0
C1027 C 0.00383 0.11643 0.95851 0.0
C1028 C 0.03214 0.1244 0.92049 0.0
C1029 C 0.01486 0.13548 0.81047 0.0
C1030 C 0.04355 0.11474 0.88894 0.0
C1031 C 0.06118 0.11663 0.89715 0.0
C1032 C 0.06763 0.12827 0.93686 0.0
C1033 C 0.05609 0.13781 0.96849 0.0
C1034 C 0.03856 0.13584 0.96056 0.0
H1035 H 0.00635 0.14141 0.77713 0.0
H1036 H 0.0242 0.1449 0.82583 0.0
H1037 H 0.02207 0.12535 0.78971 0.0
H1038 H 0.03881 0.10572 0.85818 0.0
H1039 H 0.06972 0.10906 0.87224 0.0
H1040 H 0.1395 0.31567 0.78709 0.0
H1041 H 0.14283 0.28549 0.79918 0.0
H1042 H 0.08898 0.28051 0.82906 0.0
H1043 H 0.08544 0.31065 0.81572 0.0
H1044 H 0.13614 0.26496 0.89148 0.0
H1045 H 0.09651 0.24736 0.70084 0.0
H1046 H 0.10356 0.26849 0.7126 0.0
H1047 H 0.08555 0.26026 0.75094 0.0
C1048 C 0.12835 0.30816 0.79618 0.0
C1049 C 0.11218 0.31553 0.80002 0.0
C1050 C 0.13029 0.29092 0.80309 0.0
C1051 C 0.11611 0.28075 0.81397 0.0
C1052 C 0.10002 0.2881 0.81925 0.0
H1053 H 0.11792 0.17894 0.9458 0.0
H1054 H 0.11557 0.20914 0.93292 0.0
C1055 C 0.09804 0.30534 0.81196 0.0
C1056 C 0.11825 0.26247 0.8204 0.0
H1057 H 0.10506 0.22531 0.76522 0.0
C1058 C 0.1294 0.25627 0.86376 0.0
C1059 C 0.10964 0.2512 0.78355 0.0
C1060 C 0.09827 0.25714 0.73398 0.0
C1061 C 0.13197 0.23907 0.87196 0.0
C1062 C 0.12284 0.2278 0.83661 0.0
C1063 C 0.11191 0.234 0.7926 0.0
C1064 C 0.12442 0.2095 0.84452 0.0
C1065 C 0.14464 0.23317 0.91773 0.0
C1066 C 0.12974 0.19964 0.79852 0.0
C1067 C 0.13092 0.18233 0.80546 0.0
C1068 C 0.12679 0.17457 0.85861 0.0
C1069 C 0.12137 0.18451 0.90449 0.0
C1070 C 0.1201 0.2018 0.89735 0.0
H1071 H 0.15392 0.24311 0.92899 0.0
H1072 H 0.13775 0.22963 0.95774 0.0
H1073 H 0.15176 0.22208 0.90313 0.0
H1074 H 0.13303 0.20536 0.75726 0.0
H1075 H 0.13511 0.17505 0.76923 0.0
H1076 H 0.08182 0.86774 0.24001 0.0
H1077 H 0.05105 0.86795 0.22401 0.0
H1078 H 0.05702 0.90051 0.07482 0.0
H1079 H 0.08793 0.90013 0.08967 0.0
H1080 H 0.02756 0.89319 0.22048 0.0
H1081 H 0.02999 0.86181 0.00799 0.0
H1082 H 0.04823 0.86308 0.05627 0.0
H1083 H 0.04217 0.88075 0.01149 0.0
C1084 C 0.07664 0.87503 0.20389 0.0
C1085 C 0.08741 0.88382 0.16582 0.0
C1086 C 0.05901 0.87513 0.19485 0.0
C1087 C 0.05176 0.88399 0.14763 0.0
C1088 C 0.06238 0.89327 0.11076 0.0
H1089 H 0.94275 0.90299 0.10299 0.0
H1090 H 0.97341 0.90579 0.12041 0.0
C1091 C 0.08005 0.89312 0.11955 0.0
C1092 C 0.03311 0.88323 0.13678 0.0
H1093 H 0.00297 0.87107 0.03781 0.0
C1094 C 0.02217 0.88839 0.18052 0.0
C1095 C 0.02612 0.87671 0.08495 0.0
C1096 C 0.03721 0.87012 0.03766 0.0
C1097 C 0.0044 0.88725 0.17379 0.0
C1098 C 0.99741 0.88109 0.12142 0.0
C1099 C 0.00836 0.87591 0.07775 0.0
C1100 C 0.97877 0.87948 0.11151 0.0
C1101 C 0.99332 0.89223 0.22346 0.0
C1102 C 0.97165 0.86383 0.09941 0.0
C1103 C 0.95416 0.86221 0.08885 0.0
C1104 C 0.94344 0.87624 0.09011 0.0
C1105 C 0.95062 0.89192 0.10217 0.0
C1106 C 0.96814 0.89353 0.11245 0.0
H1107 H 1.00057 0.89239 0.26521 0.0
H1108 H 0.98827 0.90497 0.21486 0.0
H1109 H 0.98235 0.88358 0.22818 0.0
H1110 H 0.97963 0.85283 0.09827 0.0
H1111 H 0.94906 0.84996 0.07964 0.0
H1112 H 0.36372 0.67482 0.3272 0.0
H1113 H 0.36144 0.70525 0.33088 0.0
H1114 H 0.41555 0.7097 0.30565 0.0
H1115 H 0.41786 0.67936 0.30026 0.0
H1116 H 0.37563 0.72853 0.40138 0.0
H1117 H 0.39718 0.73918 0.17578 0.0
H1118 H 0.39177 0.71873 0.20372 0.0
H1119 H 0.41223 0.72775 0.22021 0.0
C1120 C 0.37514 0.68228 0.32258 0.0
C1121 C 0.39094 0.67468 0.31274 0.0
C1122 C 0.37382 0.69967 0.32472 0.0
C1123 C 0.38826 0.7098 0.31724 0.0
C1124 C 0.40415 0.70219 0.30986 0.0
H1125 H 0.40215 0.81801 0.30205 0.0
H1126 H 0.40672 0.7879 0.31493 0.0
C1127 C 0.40546 0.68482 0.30715 0.0
C1128 C 0.38664 0.72829 0.31644 0.0
H1129 H 0.39367 0.7632 0.23284 0.0
C1130 C 0.37956 0.7361 0.3645 0.0
C1131 C 0.39172 0.73819 0.2682 0.0
C1132 C 0.39849 0.73055 0.21382 0.0
C1133 C 0.37755 0.75352 0.36576 0.0
C1134 C 0.38267 0.76336 0.31765 0.0
C1135 C 0.38989 0.7556 0.26987 0.0
C1136 C 0.37992 0.78166 0.31461 0.0
C1137 C 0.37005 0.76132 0.41864 0.0
C1138 C 0.36335 0.78809 0.3103 0.0
C1139 C 0.36069 0.80524 0.30253 0.0
C1140 C 0.37458 0.8163 0.29902 0.0
C1141 C 0.39118 0.80985 0.30478 0.0
C1142 C 0.39382 0.79265 0.31205 0.0
H1143 H 0.37031 0.75261 0.45669 0.0
H1144 H 0.37705 0.77288 0.43011 0.0
H1145 H 0.3566 0.76475 0.40913 0.0
H1146 H 0.35246 0.7798 0.31134 0.0
H1147 H 0.34774 0.80978 0.29825 0.0
H1148 H 0.57328 0.11333 0.59388 0.0
H1149 H 0.54246 0.11059 0.60505 0.0
H1150 H 0.53673 0.16372 0.57879 0.0
H1151 H 0.56742 0.16649 0.56582 0.0
H1152 H 0.52081 0.12315 0.68116 0.0
H1153 H 0.50315 0.14645 0.46092 0.0
H1154 H 0.52479 0.14135 0.48162 0.0
H1155 H 0.51582 0.16117 0.50033 0.0
C1156 C 0.56545 0.12443 0.59046 0.0
C1157 C 0.57278 0.14011 0.57838 0.0
C1158 C 0.54783 0.12284 0.59684 0.0
C1159 C 0.53721 0.13689 0.59146 0.0
C1160 C 0.54458 0.15263 0.58137 0.0
H1161 H 0.43347 0.1445 0.71176 0.0
H1162 H 0.46431 0.14514 0.70054 0.0
C1163 C 0.56216 0.15421 0.57438 0.0
C1164 C 0.51846 0.13511 0.59705 0.0
H1165 H 0.48058 0.14398 0.52853 0.0
C1166 C 0.51201 0.12761 0.64763 0.0
C1167 C 0.50697 0.14064 0.55284 0.0
C1168 C 0.51302 0.14769 0.49563 0.0
C1169 C 0.49441 0.12584 0.65582 0.0
C1170 C 0.48291 0.13217 0.61292 0.0
C1171 C 0.48937 0.13931 0.56176 0.0
C1172 C 0.46413 0.13158 0.62015 0.0
C1173 C 0.48836 0.11695 0.70994 0.0
C1174 C 0.45365 0.12422 0.57778 0.0
C1175 C 0.43595 0.12408 0.58356 0.0
C1176 C 0.42835 0.13126 0.63198 0.0
C1177 C 0.43889 0.13866 0.67427 0.0
C1178 C 0.45656 0.13895 0.66813 0.0
H1179 H 0.49828 0.10843 0.72836 0.0
H1180 H 0.48548 0.12631 0.74329 0.0
H1181 H 0.47665 0.10959 0.70114 0.0
H1182 H 0.45919 0.11854 0.54019 0.0
H1183 H 0.42824 0.11827 0.55017 0.0
H1184 H 0.90468 0.18949 0.74801 0.0
H1185 H 0.90244 0.21961 0.7605 0.0
H1186 H 0.8632 0.21186 0.88673 0.0
H1187 H 0.86533 0.18157 0.87452 0.0
H1188 H 0.8718 0.23934 0.74252 0.0
H1189 H 0.89835 0.24358 0.9669 0.0
H1190 H 0.90195 0.22575 0.92185 0.0
H1191 H 0.88175 0.22843 0.95573 0.0
C1192 C 0.89564 0.19413 0.77881 0.0
C1193 C 0.88519 0.18307 0.81035 0.0
C1194 C 0.89437 0.21137 0.78577 0.0
C1195 C 0.88276 0.21797 0.82484 0.0
C1196 C 0.8724 0.20701 0.85688 0.0
H1197 H 0.8596 0.31993 0.92235 0.0
H1198 H 0.86105 0.2896 0.91418 0.0
C1199 C 0.8736 0.18972 0.84969 0.0
C1200 C 0.88116 0.23635 0.83029 0.0
H1201 H 0.8878 0.26847 0.92347 0.0
C1202 C 0.87531 0.24574 0.78204 0.0
C1203 C 0.88566 0.24462 0.88197 0.0
C1204 C 0.8924 0.23516 0.93459 0.0
C1205 C 0.87366 0.26318 0.78421 0.0
C1206 C 0.87845 0.27154 0.8356 0.0
C1207 C 0.88418 0.2621 0.88403 0.0
C1208 C 0.8776 0.29004 0.84006 0.0
C1209 C 0.86644 0.27241 0.73179 0.0
C1210 C 0.88658 0.30046 0.80156 0.0
C1211 C 0.88567 0.31784 0.8058 0.0
C1212 C 0.87594 0.3252 0.84921 0.0
C1213 C 0.86719 0.31472 0.8883 0.0
C1214 C 0.86802 0.29735 0.88377 0.0
H1215 H 0.85882 0.26403 0.70357 0.0
H1216 H 0.85825 0.28296 0.74471 0.0
H1217 H 0.87706 0.27751 0.7057 0.0
H1218 H 0.89442 0.29514 0.7684 0.0
H1219 H 0.89269 0.3255 0.77529 0.0
H1220 H 0.59383 0.79877 0.23622 0.0
H1221 H 0.59745 0.7686 0.24769 0.0
H1222 H 0.63452 0.77623 0.38457 0.0
H1223 H 0.63096 0.80651 0.37362 0.0
H1224 H 0.62833 0.75008 0.23693 0.0
H1225 H 0.60037 0.74247 0.45576 0.0
H1226 H 0.59687 0.76086 0.41078 0.0
H1227 H 0.61673 0.75807 0.44939 0.0
C1228 C 0.60269 0.79407 0.26906 0.0
C1229 C 0.61207 0.80509 0.30416 0.0
C1230 C 0.60476 0.77681 0.27544 0.0
C1231 C 0.61611 0.77017 0.31736 0.0
C1232 C 0.62549 0.78109 0.35255 0.0
H1233 H 0.64377 0.66858 0.41979 0.0
H1234 H 0.64122 0.69891 0.40999 0.0
C1235 C 0.62349 0.79839 0.34605 0.0
C1236 C 0.6184 0.75182 0.32306 0.0
H1237 H 0.61291 0.71858 0.41563 0.0
C1238 C 0.62493 0.74317 0.27593 0.0
C1239 C 0.61402 0.74286 0.37407 0.0
C1240 C 0.60647 0.75146 0.42533 0.0
C1241 C 0.6274 0.7258 0.27865 0.0
C1242 C 0.62283 0.71679 0.32945 0.0
C1243 C 0.61639 0.72548 0.37671 0.0
C1244 C 0.62456 0.69834 0.33442 0.0
C1245 C 0.63521 0.71735 0.22755 0.0
C1246 C 0.61591 0.68789 0.29551 0.0
C1247 C 0.61741 0.67053 0.30078 0.0
C1248 C 0.62744 0.66323 0.34552 0.0
C1249 C 0.63597 0.67374 0.38474 0.0
C1250 C 0.63451 0.6911 0.37927 0.0
H1251 H 0.64239 0.72632 0.19995 0.0
H1252 H 0.64396 0.70717 0.24201 0.0
H1253 H 0.62494 0.71185 0.20033 0.0
H1254 H 0.60784 0.69315 0.26139 0.0
H1255 H 0.61057 0.66283 0.27007 0.0
H1256 H 0.86141 0.69456 0.12624 0.0
H1257 H 0.85932 0.72483 0.11031 0.0
H1258 H 0.89325 0.73269 0.25616 0.0
H1259 H 0.89566 0.70258 0.27172 0.0
H1260 H 0.84802 0.7496 0.18174 0.0
H1261 H 0.91582 0.76002 0.12907 0.0
H1262 H 0.90638 0.73949 0.13165 0.0
H1263 H 0.91303 0.74948 0.19755 0.0
C1264 C 0.86849 0.70273 0.15475 0.0
C1265 C 0.87883 0.69611 0.19996 0.0
C1266 C 0.86726 0.72004 0.14566 0.0
C1267 C 0.87636 0.73104 0.18141 0.0
C1268 C 0.88643 0.72446 0.22714 0.0
H1269 H 0.85986 0.8375 0.22612 0.0
H1270 H 0.85988 0.80703 0.23502 0.0
C1271 C 0.88772 0.7072 0.23613 0.0
C1272 C 0.87522 0.74942 0.17152 0.0
H1273 H 0.89935 0.78425 0.14714 0.0
C1274 C 0.85922 0.75718 0.17382 0.0
C1275 C 0.8898 0.75929 0.1604 0.0
C1276 C 0.9072 0.75164 0.15391 0.0
C1277 C 0.85748 0.77457 0.16661 0.0
C1278 C 0.87217 0.78452 0.15792 0.0
C1279 C 0.8881 0.77669 0.1544 0.0
C1280 C 0.87138 0.80303 0.15171 0.0
C1281 C 0.83988 0.78208 0.16748 0.0
C1282 C 0.87811 0.81101 0.10245 0.0
C1283 C 0.87831 0.82842 0.09752 0.0
C1284 C 0.87179 0.83833 0.14184 0.0
C1285 C 0.86487 0.8303 0.19093 0.0
C1286 C 0.86478 0.81285 0.19595 0.0
H1287 H 0.8299 0.77266 0.1576 0.0
H1288 H 0.83747 0.78692 0.21138 0.0
H1289 H 0.83863 0.7926 0.13571 0.0
H1290 H 0.88334 0.80373 0.06782 0.0
H1291 H 0.88374 0.83412 0.05908 0.0
H1292 H 0.64552 0.18185 0.56776 0.0
H1293 H 0.64487 0.21225 0.5751 0.0
H1294 H 0.61054 0.20794 0.71867 0.0
H1295 H 0.61142 0.17754 0.71258 0.0
H1296 H 0.61838 0.23383 0.56342 0.0
H1297 H 0.64662 0.23852 0.78428 0.0
H1298 H 0.64706 0.21946 0.7438 0.0
H1299 H 0.62821 0.22527 0.78189 0.0
C1300 C 0.6379 0.18735 0.60117 0.0
C1301 C 0.6286 0.17722 0.63983 0.0
C1302 C 0.63753 0.20475 0.60524 0.0
C1303 C 0.62789 0.2124 0.64806 0.0
C1304 C 0.61842 0.20233 0.68622 0.0
H1305 H 0.60054 0.31298 0.7352 0.0
H1306 H 0.60319 0.28284 0.72429 0.0
C1307 C 0.61886 0.18493 0.68243 0.0
C1308 C 0.62737 0.23091 0.65175 0.0
H1309 H 0.63389 0.26325 0.74425 0.0
C1310 C 0.62191 0.24027 0.6028 0.0
C1311 C 0.63205 0.23934 0.70309 0.0
C1312 C 0.63898 0.23015 0.75606 0.0
C1313 C 0.62053 0.25775 0.60435 0.0
C1314 C 0.62486 0.26609 0.65604 0.0
C1315 C 0.63051 0.25679 0.70474 0.0
C1316 C 0.62318 0.28445 0.66108 0.0
C1317 C 0.61402 0.26714 0.55124 0.0
C1318 C 0.63362 0.29538 0.62926 0.0
C1319 C 0.63218 0.31269 0.63553 0.0
C1320 C 0.62027 0.31934 0.67373 0.0
C1321 C 0.60981 0.30831 0.70528 0.0
C1322 C 0.61132 0.29106 0.69922 0.0
H1323 H 0.60823 0.25867 0.51875 0.0
H1324 H 0.6044 0.27655 0.56333 0.0
H1325 H 0.62476 0.27385 0.53057 0.0
H1326 H 0.64301 0.29052 0.60014 0.0
H1327 H 0.64046 0.32082 0.61072 0.0
H1328 H 0.92713 0.39319 0.88571 0.0
H1329 H 0.95753 0.39808 0.8709 0.0
H1330 H 0.96799 0.34643 0.91341 0.0
H1331 H 0.93772 0.34155 0.92978 0.0
H1332 H 0.98966 0.36684 0.96906 0.0
H1333 H 0.9864 0.38498 0.73591 0.0
H1334 H 0.97325 0.39753 0.78072 0.0
H1335 H 0.96864 0.37567 0.77317 0.0
C1336 C 0.93589 0.38284 0.8915 0.0
C1337 C 0.92999 0.36696 0.90882 0.0
C1338 C 0.95327 0.38564 0.88269 0.0
C1339 C 0.96505 0.37257 0.89018 0.0
C1340 C 0.95915 0.35671 0.90723 0.0
H1341 H 0.06889 0.36685 0.77549 0.0
H1342 H 0.03816 0.36524 0.78818 0.0
C1343 C 0.94182 0.35393 0.91649 0.0
C1344 C 0.98358 0.37544 0.8822 0.0
H1345 H 0.01312 0.38836 0.78384 0.0
C1346 C 0.99479 0.37155 0.92855 0.0
C1347 C 0.99029 0.38142 0.82913 0.0
C1348 C 0.97906 0.385 0.77669 0.0
C1349 C 0.01248 0.3734 0.92333 0.0
C1350 C 0.01918 0.37975 0.87072 0.0
C1351 C 0.00797 0.38367 0.82437 0.0
C1352 C 0.03781 0.38157 0.86187 0.0
C1353 C 0.02385 0.36803 0.97365 0.0
C1354 C 0.04785 0.3916 0.89826 0.0
C1355 C 0.06551 0.39245 0.89147 0.0
C1356 C 0.07347 0.38344 0.8476 0.0
C1357 C 0.06326 0.37392 0.80987 0.0
C1358 C 0.04564 0.37299 0.817 0.0
H1359 H 0.01715 0.35948 0.00417 0.0
H1360 H 0.03543 0.36163 0.95829 0.0
H1361 H 0.0279 0.37919 0.99808 0.0
H1362 H 0.04204 0.39868 0.93227 0.0
H1363 H 0.07293 0.40003 0.921 0.0
H1364 H 0.43255 0.60298 0.31353 0.0
H1365 H 0.4636 0.60338 0.32228 0.0
H1366 H 0.46048 0.63832 0.46183 0.0
H1367 H 0.42941 0.63771 0.45435 0.0
H1368 H 0.4858 0.62914 0.30887 0.0
H1369 H 0.49156 0.60304 0.53251 0.0
H1370 H 0.47188 0.60247 0.49112 0.0
H1371 H 0.47825 0.6212 0.52755 0.0
C1372 C 0.43844 0.61069 0.34636 0.0
C1373 C 0.42846 0.62024 0.3835 0.0
C1374 C 0.45621 0.61091 0.35123 0.0
C1375 C 0.46438 0.62065 0.39334 0.0
C1376 C 0.45446 0.63037 0.42998 0.0
H1377 H 0.56821 0.64628 0.48149 0.0
H1378 H 0.53731 0.64442 0.4694 0.0
C1379 C 0.43668 0.63009 0.42539 0.0
C1380 C 0.48327 0.62099 0.39783 0.0
H1381 H 0.51675 0.61473 0.49217 0.0
C1382 C 0.49258 0.62586 0.34881 0.0
C1383 C 0.49211 0.61664 0.44993 0.0
C1384 C 0.48296 0.61038 0.5031 0.0
C1385 C 0.51043 0.62693 0.35093 0.0
C1386 C 0.51921 0.6229 0.40331 0.0
C1387 C 0.50995 0.61787 0.45214 0.0
C1388 C 0.53799 0.62416 0.40881 0.0
C1389 C 0.51979 0.63275 0.29765 0.0
C1390 C 0.54861 0.61333 0.37879 0.0
C1391 C 0.56633 0.6143 0.38575 0.0
C1392 C 0.57371 0.62615 0.42284 0.0
C1393 C 0.56298 0.63704 0.45247 0.0
C1394 C 0.54531 0.63599 0.44573 0.0
H1395 H 0.51105 0.63831 0.26425 0.0
H1396 H 0.52965 0.64212 0.30923 0.0
H1397 H 0.52632 0.62196 0.27834 0.0
H1398 H 0.54319 0.60397 0.35062 0.0
H1399 H 0.57423 0.60571 0.36242 0.0
H1400 H 0.43968 0.34306 0.49712 0.0
H1401 H 0.47065 0.34394 0.50919 0.0
H1402 H 0.46588 0.3815 0.63944 0.0
H1403 H 0.43485 0.38073 0.62778 0.0
H1404 H 0.49098 0.37341 0.49159 0.0
H1405 H 0.49898 0.34651 0.71417 0.0
H1406 H 0.47984 0.34361 0.671 0.0
H1407 H 0.48366 0.36308 0.70627 0.0
C1408 C 0.44517 0.35137 0.52893 0.0
C1409 C 0.43476 0.36184 0.56149 0.0
C1410 C 0.46289 0.35187 0.53564 0.0
C1411 C 0.47055 0.36269 0.57547 0.0
C1412 C 0.46021 0.37289 0.60904 0.0
H1413 H 0.57486 0.38801 0.66712 0.0
H1414 H 0.5439 0.38545 0.65979 0.0
C1415 C 0.44247 0.37246 0.60216 0.0
C1416 C 0.48938 0.364 0.57932 0.0
H1417 H 0.52357 0.35797 0.6706 0.0
C1418 C 0.49814 0.36996 0.5306 0.0
C1419 C 0.49863 0.35959 0.63038 0.0
C1420 C 0.48987 0.35271 0.6834 0.0
C1421 C 0.51592 0.37191 0.53184 0.0
C1422 C 0.52523 0.36739 0.58279 0.0
C1423 C 0.51643 0.36141 0.63154 0.0
C1424 C 0.54408 0.36891 0.58664 0.0
C1425 C 0.52448 0.37925 0.47907 0.0
C1426 C 0.55452 0.36034 0.54828 0.0
C1427 C 0.57225 0.36188 0.55205 0.0
C1428 C 0.57992 0.37186 0.59477 0.0
C1429 C 0.56941 0.38025 0.63359 0.0
C1430 C 0.55169 0.37878 0.62957 0.0
H1431 H 0.51535 0.38632 0.45074 0.0
H1432 H 0.53506 0.38772 0.49166 0.0
H1433 H 0.52982 0.369 0.45325 0.0
H1434 H 0.54897 0.35234 0.51567 0.0
H1435 H 0.57995 0.35513 0.52177 0.0
H1436 H 0.06306 0.63244 0.23082 0.0
H1437 H 0.03198 0.63084 0.22689 0.0
H1438 H 0.03421 0.60507 0.06467 0.0
H1439 H 0.06534 0.60653 0.06822 0.0
H1440 H 0.01177 0.64509 0.13445 0.0
H1441 H 1.00021 0.57696 0.16157 0.0
H1442 H 0.02012 0.58665 0.18231 0.0
H1443 H 0.01534 0.58291 0.10726 0.0
C1444 C 0.05698 0.62619 0.19471 0.0
C1445 C 0.06672 0.61964 0.14977 0.0
C1446 C 0.0392 0.62532 0.19251 0.0
C1447 C 0.03079 0.61775 0.14571 0.0
C1448 C 0.04045 0.61076 0.10161 0.0
H1449 H 0.92286 0.60842 0.0529 0.0
H1450 H 0.95401 0.60678 0.05499 0.0
C1451 C 0.05825 0.61167 0.10364 0.0
C1452 C 0.01193 0.61827 0.14114 0.0
H1453 H 0.97623 0.59388 0.13928 0.0
C1454 C 0.00398 0.6339 0.13567 0.0
C1455 C 0.00184 0.60365 0.14206 0.0
C1456 C 0.00974 0.58657 0.14904 0.0
C1457 C 0.9862 0.63533 0.13092 0.0
C1458 C 0.97605 0.62073 0.1331 0.0
C1459 C 0.98402 0.60506 0.13776 0.0
C1460 C 0.95715 0.62154 0.1321 0.0
C1461 C 0.97849 0.65246 0.12259 0.0
C1462 C 0.94856 0.63016 0.17524 0.0
C1463 C 0.9308 0.6312 0.17405 0.0
C1464 C 0.92119 0.62347 0.12998 0.0
C1465 C 0.92983 0.61456 0.08737 0.0
C1466 C 0.94764 0.61359 0.08852 0.0
H1467 H 0.98784 0.66153 0.10473 0.0
H1468 H 0.96721 0.65213 0.09297 0.0
H1469 H 0.97436 0.6571 0.16517 0.0
H1470 H 0.9556 0.63605 0.21008 0.0
H1471 H 0.92463 0.63803 0.20793 0.0
H1472 H 0.14321 0.58455 0.05092 0.0
H1473 H 0.14262 0.55568 0.01935 0.0
H1474 H 0.11341 0.54164 0.16937 0.0
H1475 H 0.11433 0.57052 0.20226 0.0
H1476 H 0.13907 0.52018 0.15251 0.0
H1477 H 0.10377 0.53055 0.94539 0.0
H1478 H 0.12244 0.54338 0.95047 0.0
H1479 H 0.10532 0.54628 1.00029 0.0
C1480 C 0.13658 0.57536 0.07715 0.0
C1481 C 0.12877 0.57984 0.12906 0.0
C1482 C 0.13615 0.55887 0.05875 0.0
C1483 C 0.12768 0.54657 0.09136 0.0
C1484 C 0.11992 0.55097 0.14334 0.0
H1485 H 0.107 0.44702 0.9607 0.0
H1486 H 0.10453 0.47551 0.99581 0.0
C1487 C 0.12045 0.56747 0.16206 0.0
C1488 C 0.12755 0.529 0.07231 0.0
H1489 H 0.11807 0.5043 0.95707 0.0
C1490 C 0.13434 0.51668 0.10998 0.0
C1491 C 0.12113 0.5244 0.01716 0.0
C1492 C 0.11259 0.53682 0.97626 0.0
C1493 C 0.13534 0.49995 0.09337 0.0
C1494 C 0.1298 0.49552 0.03698 0.0
C1495 C 0.12254 0.50775 0.99996 0.0
C1496 C 0.1314 0.47827 0.01552 0.0
C1497 C 0.14213 0.48718 0.13671 0.0
C1498 C 0.14738 0.47047 0.01394 0.0
C1499 C 0.14882 0.45415 0.99433 0.0
C1500 C 0.13433 0.44541 0.97503 0.0
C1501 C 0.1184 0.45341 0.97523 0.0
C1502 C 0.11696 0.46968 0.99534 0.0
H1503 H 0.14086 0.4915 0.18197 0.0
H1504 H 0.13539 0.47506 0.1325 0.0
H1505 H 0.15587 0.48512 0.12892 0.0
H1506 H 0.15876 0.47703 0.02777 0.0
H1507 H 0.16129 0.44839 0.99423 0.0
H1508 H 0.67281 0.89716 0.42269 0.0
H1509 H 0.70292 0.89998 0.39806 0.0
H1510 H 0.69507 0.86795 0.2517 0.0
H1511 H 0.66518 0.86484 0.27619 0.0
H1512 H 0.72365 0.85956 0.31707 0.0
H1513 H 0.72262 0.92743 0.26327 0.0
H1514 H 0.71495 0.92191 0.33405 0.0
H1515 H 0.70343 0.91522 0.27064 0.0
C1516 C 0.67748 0.89073 0.38521 0.0
C1517 C 0.66651 0.8808 0.35139 0.0
C1518 C 0.69468 0.89244 0.37102 0.0
C1519 C 0.70118 0.88435 0.32258 0.0
C1520 C 0.69031 0.87434 0.28916 0.0
H1521 H 0.79445 0.90067 0.13516 0.0
H1522 H 0.76501 0.89879 0.16792 0.0
C1523 C 0.67319 0.8726 0.30329 0.0
C1524 C 0.71936 0.88599 0.30683 0.0
H1525 H 0.74943 0.91399 0.26192 0.0
C1526 C 0.72931 0.87147 0.30517 0.0
C1527 C 0.72664 0.90151 0.29063 0.0
C1528 C 0.71636 0.91741 0.28915 0.0
C1529 C 0.74634 0.87203 0.28774 0.0
C1530 C 0.75371 0.88758 0.27246 0.0
C1531 C 0.74377 0.90211 0.27405 0.0
C1532 C 0.77161 0.88895 0.25332 0.0
C1533 C 0.75616 0.85591 0.28436 0.0
C1534 C 0.78509 0.88424 0.29073 0.0
C1535 C 0.80192 0.88524 0.27211 0.0
C1536 C 0.8056 0.89109 0.21577 0.0
C1537 C 0.79207 0.89605 0.17871 0.0
C1538 C 0.77524 0.89502 0.19739 0.0
H1539 H 0.74758 0.84488 0.2835 0.0
H1540 H 0.76418 0.85581 0.24513 0.0
H1541 H 0.76467 0.85461 0.32305 0.0
H1542 H 0.7826 0.87982 0.33444 0.0
H1543 H 0.81203 0.88143 0.30195 0.0
H1544 H 0.38544 0.42734 0.50272 0.0
H1545 H 0.38471 0.45728 0.48184 0.0
H1546 H 0.35959 0.4654 0.6439 0.0
H1547 H 0.36074 0.43544 0.66605 0.0
H1548 H 0.35829 0.47778 0.46664 0.0
H1549 H 0.39725 0.49922 0.65363 0.0
H1550 H 0.39579 0.47753 0.63448 0.0
H1551 H 0.37914 0.48708 0.67511 0.0
C1552 C 0.37984 0.43548 0.53421 0.0
C1553 C 0.37322 0.42897 0.58628 0.0
C1554 C 0.37943 0.45262 0.52213 0.0
C1555 C 0.37235 0.46366 0.56166 0.0
C1556 C 0.36554 0.4572 0.61341 0.0
H1557 H 0.34736 0.56871 0.54622 0.0
H1558 H 0.34897 0.53869 0.56635 0.0
C1559 C 0.36611 0.44004 0.62587 0.0
C1560 C 0.37165 0.48183 0.54757 0.0
H1561 H 0.38277 0.52028 0.59779 0.0
C1562 C 0.36375 0.48704 0.49517 0.0
C1563 C 0.37884 0.49395 0.58467 0.0
C1564 C 0.38838 0.48918 0.63981 0.0
C1565 C 0.36261 0.50402 0.47944 0.0
C1566 C 0.36952 0.51608 0.51701 0.0
C1567 C 0.37745 0.51094 0.56924 0.0
C1568 C 0.36839 0.53415 0.50323 0.0
C1569 C 0.35379 0.50906 0.42324 0.0
C1570 C 0.3788 0.54148 0.46097 0.0
C1571 C 0.37801 0.55869 0.44949 0.0
C1572 C 0.36671 0.5688 0.47995 0.0
C1573 C 0.35616 0.5613 0.52177 0.0
C1574 C 0.35708 0.54416 0.53351 0.0
H1575 H 0.34739 0.49834 0.40209 0.0
H1576 H 0.34419 0.51889 0.43107 0.0
H1577 H 0.36329 0.51437 0.39291 0.0
H1578 H 0.38768 0.53392 0.4374 0.0
H1579 H 0.38631 0.56408 0.4171 0.0
H1580 H 0.8177 0.13076 0.92961 0.0
H1581 H 0.78699 0.12911 0.90958 0.0
H1582 H 0.79686 0.11696 0.73181 0.0
H1583 H 0.82742 0.11821 0.75159 0.0
H1584 H 0.76656 0.14668 0.83316 0.0
H1585 H 0.76517 0.07957 0.77971 0.0
H1586 H 0.78341 0.08929 0.81366 0.0
H1587 H 0.77991 0.09129 0.73651 0.0
C1588 C 0.81332 0.12769 0.88631 0.0
C1589 C 0.82503 0.12446 0.84238 0.0
C1590 C 0.79577 0.12676 0.87491 0.0
C1591 C 0.78962 0.12259 0.81946 0.0
C1592 C 0.80129 0.11976 0.7753 0.0
H1593 H 0.68636 0.13816 0.68316 0.0
H1594 H 0.71696 0.1399 0.70444 0.0
C1595 C 0.81879 0.12056 0.78668 0.0
C1596 C 0.77102 0.12139 0.80736 0.0
H1597 H 0.74016 0.0952 0.75597 0.0
C1598 C 0.76076 0.13541 0.81656 0.0
C1599 C 0.76341 0.1066 0.78642 0.0
C1600 C 0.77351 0.09078 0.77904 0.0
C1601 C 0.74316 0.13513 0.80438 0.0
C1602 C 0.7357 0.12055 0.78117 0.0
C1603 C 0.74592 0.10645 0.77297 0.0
C1604 C 0.71721 0.11941 0.76693 0.0
C1605 C 0.7327 0.15033 0.8176 0.0
C1606 C 0.70726 0.10696 0.79334 0.0
C1607 C 0.68985 0.10579 0.7807 0.0
C1608 C 0.68197 0.11706 0.74126 0.0
C1609 C 0.692 0.12935 0.71397 0.0
C1610 C 0.70948 0.13045 0.72647 0.0
H1611 H 0.7393 0.15849 0.84933 0.0
H1612 H 0.73053 0.15774 0.77705 0.0
H1613 H 0.72011 0.14674 0.83518 0.0
H1614 H 0.71295 0.09825 0.82444 0.0
H1615 H 0.68254 0.09617 0.80253 0.0
H1616 H 0.88862 0.55692 0.03056 0.0
H1617 H 0.89138 0.52764 0.00339 0.0
H1618 H 0.83896 0.52737 0.94489 0.0
H1619 H 0.8362 0.55666 0.97063 0.0
H1620 H 0.87507 0.49994 0.04068 0.0
H1621 H 0.86244 0.50899 0.80537 0.0
H1622 H 0.86656 0.5262 0.85306 0.0
H1623 H 0.84566 0.51702 0.8487 0.0
C1624 C 0.87768 0.55063 0.01184 0.0
C1625 C 0.86222 0.55919 0.00245 0.0
C1626 C 0.87928 0.53389 0.99627 0.0
C1627 C 0.86548 0.52537 0.97094 0.0
C1628 C 0.84993 0.53378 0.96281 0.0
H1629 H 0.85149 0.41834 0.9554 0.0
H1630 H 0.85098 0.44797 0.97792 0.0
C1631 C 0.84834 0.55052 0.97802 0.0
C1632 C 0.8672 0.50757 0.95436 0.0
H1633 H 0.8617 0.48088 0.84153 0.0
C1634 C 0.87225 0.49579 0.99704 0.0
C1635 C 0.86384 0.50216 0.89714 0.0
C1636 C 0.8595 0.51428 0.84829 0.0
C1637 C 0.87354 0.47874 0.98454 0.0
C1638 C 0.86929 0.47322 0.9281 0.0
C1639 C 0.86474 0.48505 0.88498 0.0
C1640 C 0.86933 0.45522 0.91313 0.0
C1641 C 0.87967 0.46684 0.03185 0.0
C1642 C 0.8793 0.44944 0.8676 0.0
C1643 C 0.87945 0.43247 0.854 0.0
C1644 C 0.8696 0.42092 0.88566 0.0
C1645 C 0.85936 0.42682 0.93041 0.0
C1646 C 0.85914 0.44378 0.94371 0.0
H1647 H 0.88723 0.47341 0.06562 0.0
H1648 H 0.86851 0.46106 0.05322 0.0
H1649 H 0.8876 0.45674 0.01406 0.0
H1650 H 0.88716 0.45805 0.84306 0.0
H1651 H 0.88746 0.42837 0.81921 0.0
H1652 H 0.19101 0.13949 0.78189 0.0
H1653 H 0.22127 0.142 0.76033 0.0
H1654 H 0.22504 0.08844 0.75028 0.0
H1655 H 0.19463 0.08585 0.7701 0.0
H1656 H 0.24945 0.13099 0.81457 0.0
H1657 H 0.245 0.10257 0.59756 0.0
H1658 H 0.22644 0.10833 0.63759 0.0
H1659 H 0.23732 0.08903 0.65415 0.0
C1660 C 0.19827 0.12823 0.77526 0.0
C1661 C 0.19036 0.11247 0.77728 0.0
C1662 C 0.21559 0.12968 0.76287 0.0
C1663 C 0.22539 0.11544 0.75241 0.0
C1664 C 0.21766 0.09965 0.7565 0.0
H1665 H 0.33628 0.11331 0.75535 0.0
H1666 H 0.30617 0.11081 0.77854 0.0
C1667 C 0.20029 0.09818 0.76832 0.0
C1668 C 0.24368 0.11716 0.73747 0.0
H1669 H 0.2729 0.10729 0.63541 0.0
C1670 C 0.25456 0.12585 0.7753 0.0
C1671 C 0.25032 0.11073 0.68567 0.0
C1672 C 0.23914 0.1023 0.6411 0.0
C1673 C 0.27191 0.12808 0.76326 0.0
C1674 C 0.2787 0.12102 0.71272 0.0
C1675 C 0.26777 0.11254 0.67447 0.0
C1676 C 0.29707 0.12239 0.69839 0.0
C1677 C 0.28267 0.13832 0.80421 0.0
C1678 C 0.30204 0.1292 0.64469 0.0
C1679 C 0.31929 0.13038 0.63081 0.0
C1680 C 0.33194 0.12481 0.67042 0.0
C1681 C 0.32691 0.11786 0.72396 0.0
C1682 C 0.30966 0.11653 0.73754 0.0
H1683 H 0.27474 0.14691 0.82969 0.0
H1684 H 0.28944 0.12984 0.83533 0.0
H1685 H 0.29229 0.1458 0.78041 0.0
H1686 H 0.29256 0.13372 0.61361 0.0
H1687 H 0.32269 0.13578 0.58919 0.0
H1688 H 0.62259 0.55965 0.30783 0.0
H1689 H 0.62355 0.52973 0.33138 0.0
H1690 H 0.64163 0.54057 0.50429 0.0
H1691 H 0.64115 0.57036 0.48072 0.0
H1692 H 0.65974 0.51617 0.45908 0.0
H1693 H 0.59114 0.50222 0.42751 0.0
H1694 H 0.60064 0.51155 0.36454 0.0
H1695 H 0.59925 0.52327 0.43014 0.0
C1696 C 0.6267 0.55566 0.35093 0.0
C1697 C 0.63178 0.56742 0.39235 0.0
C1698 C 0.62713 0.53854 0.36449 0.0
C1699 C 0.63238 0.53287 0.41999 0.0
C1700 C 0.63747 0.54461 0.46126 0.0
H1701 H 0.61935 0.43117 0.55758 0.0
H1702 H 0.61748 0.46137 0.53918 0.0
C1703 C 0.6372 0.56167 0.44763 0.0
C1704 C 0.63319 0.51472 0.43479 0.0
H1705 H 0.60964 0.47883 0.43986 0.0
C1706 C 0.64875 0.50804 0.45509 0.0
C1707 C 0.6188 0.50411 0.43056 0.0
C1708 C 0.60147 0.51066 0.41258 0.0
C1709 C 0.6504 0.49106 0.47031 0.0
C1710 C 0.63621 0.48031 0.46368 0.0
C1711 C 0.62056 0.48703 0.44444 0.0
C1712 C 0.63745 0.46203 0.47555 0.0
C1713 C 0.66729 0.4849 0.4943 0.0
C1714 C 0.64915 0.45233 0.44557 0.0
C1715 C 0.65035 0.43516 0.45635 0.0
C1716 C 0.63969 0.42721 0.49681 0.0
C1717 C 0.62781 0.4369 0.52637 0.0
C1718 C 0.62669 0.45415 0.51577 0.0
H1719 H 0.67489 0.49521 0.51335 0.0
H1720 H 0.66553 0.47504 0.52811 0.0
H1721 H 0.67476 0.47958 0.45863 0.0
H1722 H 0.65728 0.45801 0.41325 0.0
H1723 H 0.65951 0.42808 0.43227 0.0
H1724 H 0.32902 0.87185 0.21231 0.0
H1725 H 0.29846 0.87404 0.1931 0.0
H1726 H 0.29047 0.88733 0.37095 0.0
H1727 H 0.32115 0.88525 0.39081 0.0
H1728 H 0.27214 0.85581 0.24982 0.0
H1729 H 0.26548 0.9244 0.27361 0.0
H1730 H 0.28578 0.91445 0.26267 0.0
H1731 H 0.27615 0.91359 0.33274 0.0
C1732 C 0.32082 0.8753 0.24745 0.0
C1733 C 0.32758 0.87841 0.30316 0.0
C1734 C 0.30334 0.87653 0.23632 0.0
C1735 C 0.29226 0.88103 0.2804 0.0
C1736 C 0.29888 0.88409 0.33612 0.0
H1737 H 0.18291 0.86807 0.28632 0.0
H1738 H 0.21347 0.86814 0.30696 0.0
C1739 C 0.31639 0.88279 0.34744 0.0
C1740 C 0.27371 0.88201 0.26818 0.0
H1741 H 0.24 0.9089 0.26088 0.0
C1742 C 0.2651 0.8674 0.25223 0.0
C1743 C 0.26465 0.89721 0.27068 0.0
C1744 C 0.27345 0.91337 0.28537 0.0
C1745 C 0.24757 0.86754 0.23951 0.0
C1746 C 0.23842 0.88265 0.24336 0.0
C1747 C 0.24706 0.89732 0.25841 0.0
C1748 C 0.21983 0.88336 0.23205 0.0
C1749 C 0.239 0.85155 0.22137 0.0
C1750 C 0.21326 0.89228 0.18381 0.0
C1751 C 0.19574 0.89228 0.17172 0.0
C1752 C 0.18448 0.88345 0.20799 0.0
C1753 C 0.19115 0.87493 0.25721 0.0
C1754 C 0.20864 0.87489 0.26906 0.0
H1755 H 0.24836 0.84201 0.20817 0.0
H1756 H 0.23172 0.84634 0.25837 0.0
H1757 H 0.22991 0.85391 0.18476 0.0
H1758 H 0.22172 0.89895 0.1549 0.0
H1759 H 0.19105 0.89903 0.13363 0.0
H1760 H 0.61085 0.9474 0.44136 0.0
H1761 H 0.61068 0.97743 0.46002 0.0
H1762 H 0.64685 0.96989 0.60069 0.0
H1763 H 0.64739 0.94005 0.58163 0.0
H1764 H 0.60202 0.99471 0.55655 0.0
H1765 H 0.66979 0.00621 0.50607 0.0
H1766 H 0.65907 0.98703 0.48803 0.0
H1767 H 0.667 0.99025 0.56064 0.0
C1768 C 0.61883 0.95215 0.47609 0.0
C1769 C 0.62926 0.94132 0.50962 0.0
C1770 C 0.61869 0.96932 0.48678 0.0
C1771 C 0.62899 0.97598 0.53108 0.0
C1772 C 0.63913 0.96513 0.56533 0.0
H1773 H 0.61863 0.07407 0.68625 0.0
H1774 H 0.61803 0.04417 0.666 0.0
C1775 C 0.63935 0.94803 0.55451 0.0
C1776 C 0.62902 0.99422 0.54207 0.0
H1777 H 0.65514 0.0282 0.5521 0.0
C1778 C 0.61362 0.00206 0.55532 0.0
C1779 C 0.64412 0.00387 0.53971 0.0
C1780 C 0.6609 0.99646 0.52227 0.0
C1781 C 0.61295 0.0192 0.56726 0.0
C1782 C 0.62816 0.02869 0.56713 0.0
C1783 C 0.64351 0.0209 0.55292 0.0
C1784 C 0.62845 0.04683 0.57996 0.0
C1785 C 0.59589 0.02701 0.57873 0.0
C1786 C 0.63497 0.05826 0.53915 0.0
C1787 C 0.63555 0.0753 0.55091 0.0
C1788 C 0.62961 0.08134 0.60384 0.0
C1789 C 0.62319 0.06987 0.64491 0.0
C1790 C 0.62272 0.05277 0.63321 0.0
H1791 H 0.58523 0.01934 0.56146 0.0
H1792 H 0.59425 0.02804 0.62623 0.0
H1793 H 0.59499 0.03973 0.55899 0.0
H1794 H 0.63952 0.05399 0.49787 0.0
H1795 H 0.64053 0.08376 0.51817 0.0
H1796 H 0.17634 0.40505 0.88412 0.0
H1797 H 0.20688 0.40682 0.8651 0.0
H1798 H 0.2006 0.37303 0.72284 0.0
H1799 H 0.17015 0.37147 0.74051 0.0
H1800 H 0.23067 0.3821 0.86833 0.0
H1801 H 0.22738 0.41022 0.6472 0.0
H1802 H 0.20925 0.40948 0.69425 0.0
H1803 H 0.2151 0.39142 0.65376 0.0
C1804 C 0.18142 0.39812 0.84843 0.0
C1805 C 0.17071 0.38819 0.81368 0.0
C1806 C 0.1989 0.39913 0.83767 0.0
C1807 C 0.20601 0.39028 0.7919 0.0
C1808 C 0.19537 0.38032 0.75741 0.0
H1809 H 0.30925 0.37174 0.67593 0.0
H1810 H 0.27844 0.37103 0.69238 0.0
C1811 C 0.17792 0.37937 0.76788 0.0
C1812 C 0.22465 0.3909 0.78162 0.0
H1813 H 0.25432 0.39927 0.67813 0.0
C1814 C 0.23583 0.38597 0.82687 0.0
C1815 C 0.23141 0.39593 0.72745 0.0
C1816 C 0.22017 0.40222 0.67807 0.0
C1817 C 0.25353 0.38564 0.8191 0.0
C1818 C 0.26024 0.39048 0.7648 0.0
C1819 C 0.2491 0.39544 0.71957 0.0
C1820 C 0.27883 0.3909 0.75467 0.0
C1821 C 0.26495 0.37985 0.86871 0.0
C1822 C 0.28917 0.40244 0.78368 0.0
C1823 C 0.30669 0.40295 0.77417 0.0
C1824 C 0.31425 0.3919 0.73545 0.0
C1825 C 0.30383 0.38039 0.70612 0.0
C1826 C 0.28625 0.37997 0.71542 0.0
H1827 H 0.25771 0.37321 0.9031 0.0
H1828 H 0.27505 0.37145 0.85306 0.0
H1829 H 0.27124 0.39085 0.88836 0.0
H1830 H 0.28366 0.41113 0.81354 0.0
H1831 H 0.3143 0.41199 0.79746 0.0
H1832 H 0.87898 0.93119 0.01312 0.0
H1833 H 0.87647 0.96077 0.98739 0.0
H1834 H 0.85331 0.97014 0.15183 0.0
H1835 H 0.85578 0.94045 0.17831 0.0
H1836 H 0.84644 0.98132 0.9811 0.0
H1837 H 0.89421 0.00333 0.14324 0.0
H1838 H 0.89268 0.98178 0.12219 0.0
H1839 H 0.87751 0.99024 0.17105 0.0
C1840 C 0.87333 0.93949 0.044 0.0
C1841 C 0.86768 0.9334 0.09806 0.0
C1842 C 0.87189 0.95641 0.02907 0.0
C1843 C 0.8649 0.96768 0.06793 0.0
C1844 C 0.85897 0.96167 0.12152 0.0
H1845 H 0.83337 0.07024 0.99934 0.0
H1846 H 0.83461 0.04037 0.0225 0.0
C1847 C 0.86031 0.94468 0.13645 0.0
C1848 C 0.86392 0.9857 0.05207 0.0
H1849 H 0.87964 0.02404 0.0876 0.0
C1850 C 0.85366 0.99068 0.00443 0.0
C1851 C 0.87353 0.99784 0.08211 0.0
C1852 C 0.88523 0.9931 0.13225 0.0
C1853 C 0.85261 0.00751 0.98644 0.0
C1854 C 0.86201 0.01968 0.01708 0.0
C1855 C 0.87241 0.01468 0.06433 0.0
C1856 C 0.86115 0.03769 1.00095 0.0
C1857 C 0.84167 0.01212 0.93424 0.0
C1858 C 0.8757 0.04615 0.98145 0.0
C1859 C 0.87504 0.06325 0.96795 0.0
C1860 C 0.85984 0.07226 0.97441 0.0
C1861 C 0.84527 0.0637 0.99369 0.0
C1862 C 0.84593 0.0466 0.00679 0.0
H1863 H 0.83835 1.00105 0.908 0.0
H1864 H 0.82966 0.01781 0.94898 0.0
H1865 H 0.84823 0.02142 0.90614 0.0
H1866 H 0.8876 0.03951 0.97685 0.0
H1867 H 0.88651 0.06947 0.95355 0.0
H1868 H 0.18948 0.58352 0.2967 0.0
H1869 H 0.22028 0.58551 0.3123 0.0
H1870 H 0.21919 0.63685 0.25302 0.0
H1871 H 0.18847 0.63485 0.23595 0.0
H1872 H 0.24568 0.62022 0.20844 0.0
H1873 H 0.24376 0.60868 0.44594 0.0
H1874 H 0.23401 0.59231 0.40491 0.0
H1875 H 0.22485 0.61289 0.40272 0.0
C1876 C 0.19579 0.59522 0.28679 0.0
C1877 C 0.18648 0.60905 0.26538 0.0
C1878 C 0.2134 0.59638 0.29618 0.0
C1879 C 0.22201 0.61144 0.2851 0.0
C1880 C 0.21281 0.62513 0.26229 0.0
H1881 H 0.32417 0.63563 0.41241 0.0
H1882 H 0.29338 0.63439 0.39431 0.0
C1883 C 0.19523 0.62396 0.25251 0.0
C1884 C 0.24061 0.61293 0.29681 0.0
H1885 H 0.27114 0.60858 0.40324 0.0
C1886 C 0.25124 0.61773 0.25108 0.0
C1887 C 0.24784 0.60998 0.35272 0.0
C1888 C 0.23701 0.60584 0.40453 0.0
C1889 C 0.26892 0.61935 0.25941 0.0
C1890 C 0.27623 0.61568 0.31471 0.0
C1891 C 0.26556 0.61121 0.36072 0.0
C1892 C 0.29491 0.61639 0.3257 0.0
C1893 C 0.27953 0.62526 0.20907 0.0
C1894 C 0.30599 0.60649 0.29386 0.0
C1895 C 0.32357 0.60725 0.3038 0.0
C1896 C 0.33046 0.61778 0.34642 0.0
C1897 C 0.31931 0.62742 0.37918 0.0
C1898 C 0.3017 0.62672 0.36891 0.0
H1899 H 0.27173 0.6322 0.17606 0.0
H1900 H 0.29009 0.63347 0.22382 0.0
H1901 H 0.28512 0.61429 0.18771 0.0
H1902 H 0.30104 0.59809 0.26139 0.0
H1903 H 0.33175 0.59953 0.27812 0.0
H1904 H 0.35478 0.94352 0.31666 0.0
H1905 H 0.35468 0.97301 0.34222 0.0
H1906 H 0.39061 0.9628 0.48161 0.0
H1907 H 0.39089 0.93329 0.45625 0.0
H1908 H 0.3451 0.98543 0.45172 0.0
H1909 H 0.41126 0.00368 0.39678 0.0
H1910 H 0.40126 0.98505 0.36929 0.0
H1911 H 0.40937 0.9854 0.44253 0.0
C1912 C 0.36285 0.94756 0.35228 0.0
C1913 C 0.37285 0.93602 0.38439 0.0
C1914 C 0.36274 0.96442 0.3669 0.0
C1915 C 0.37273 0.97012 0.4135 0.0
C1916 C 0.383 0.95872 0.44491 0.0
H1917 H 0.38452 0.0675 0.57282 0.0
H1918 H 0.3861 0.03784 0.54947 0.0
C1919 C 0.38309 0.94183 0.43046 0.0
C1920 C 0.37164 0.9878 0.43119 0.0
H1921 H 0.39481 0.02363 0.44559 0.0
C1922 C 0.35595 0.99381 0.45021 0.0
C1923 C 0.38584 0.99865 0.42963 0.0
C1924 C 0.40288 0.99297 0.40804 0.0
C1925 C 0.35409 0.01035 0.4682 0.0
C1926 C 0.36824 0.02129 0.46592 0.0
C1927 C 0.38398 0.01523 0.44735 0.0
C1928 C 0.36687 0.03916 0.48131 0.0
C1929 C 0.33708 0.01586 0.49052 0.0
C1930 C 0.35559 0.04977 0.45061 0.0
C1931 C 0.35459 0.06669 0.46401 0.0
C1932 C 0.36498 0.0734 0.50808 0.0
C1933 C 0.37628 0.06273 0.53881 0.0
C1934 C 0.37724 0.04579 0.52542 0.0
H1935 H 0.3293 0.00506 0.50537 0.0
H1936 H 0.33868 0.0246 0.52705 0.0
H1937 H 0.3299 0.02238 0.45505 0.0
H1938 H 0.34773 0.04503 0.41554 0.0
H1939 H 0.34585 0.07454 0.43913 0.0
H1940 H 0.81965 0.60015 0.09134 0.0
H1941 H 0.78945 0.59693 0.11437 0.0
H1942 H 0.79413 0.63541 0.24193 0.0
H1943 H 0.82419 0.63879 0.21938 0.0
H1944 H 0.77518 0.58913 0.22776 0.0
H1945 H 0.75304 0.65022 0.13719 0.0
H1946 H 0.77307 0.64097 0.1177 0.0
H1947 H 0.77107 0.65112 0.18607 0.0
C1948 C 0.81425 0.60799 0.12411 0.0
C1949 C 0.82439 0.61977 0.15333 0.0
C1950 C 0.797 0.6061 0.13727 0.0
C1951 C 0.78953 0.61607 0.17935 0.0
C1952 C 0.79958 0.62777 0.20868 0.0
H1953 H 0.68691 0.62614 0.31263 0.0
H1954 H 0.71746 0.62874 0.29427 0.0
C1955 C 0.81682 0.62962 0.19584 0.0
C1956 C 0.77129 0.61402 0.19365 0.0
H1957 H 0.73308 0.63434 0.19064 0.0
C1958 C 0.76593 0.59897 0.21944 0.0
C1959 C 0.75932 0.62694 0.18316 0.0
C1960 C 0.76431 0.6432 0.15409 0.0
C1961 C 0.74894 0.59656 0.23587 0.0
C1962 C 0.7369 0.60943 0.22493 0.0
C1963 C 0.7423 0.6245 0.19919 0.0
C1964 C 0.71856 0.60737 0.23833 0.0
C1965 C 0.74415 0.5804 0.266 0.0
C1966 C 0.709 0.59455 0.21287 0.0
C1967 C 0.69161 0.59298 0.22356 0.0
C1968 C 0.68332 0.60432 0.25942 0.0
C1969 C 0.6929 0.61716 0.285 0.0
C1970 C 0.71036 0.61868 0.27444 0.0
H1971 H 0.75541 0.57422 0.28669 0.0
H1972 H 0.73448 0.58247 0.29971 0.0
H1973 H 0.7387 0.57173 0.2336 0.0
H1974 H 0.71493 0.58593 0.18371 0.0
H1975 H 0.68461 0.58303 0.2027 0.0
H1976 H 0.12981 0.07197 0.81589 0.0
H1977 H 0.13286 0.04221 0.83937 0.0
H1978 H 0.14627 0.05399 0.01609 0.0
H1979 H 0.14358 0.08371 0.99293 0.0
H1980 H 0.16747 0.03044 0.96963 0.0
H1981 H 0.09949 0.01388 0.93314 0.0
H1982 H 0.10939 0.02412 0.87251 0.0
H1983 H 0.10668 0.03519 0.93885 0.0
C1984 C 0.13337 0.06823 0.85979 0.0
C1985 C 0.13633 0.08022 0.90263 0.0
C1986 C 0.13503 0.05122 0.87317 0.0
C1987 C 0.13953 0.04591 0.92968 0.0
C1988 C 0.14272 0.05784 0.97227 0.0
H1989 H 0.12848 0.94838 0.08948 0.0
H1990 H 0.12685 0.97783 0.06058 0.0
C1991 C 0.14114 0.07482 0.95893 0.0
C1992 C 0.14107 0.02793 0.94469 0.0
H1993 H 0.11854 0.99154 0.95292 0.0
C1994 C 0.15679 0.02191 0.96594 0.0
C1995 C 0.12705 0.01691 0.94044 0.0
C1996 C 0.10965 0.02283 0.92051 0.0
C1997 C 0.15888 0.00514 0.98302 0.0
C1998 C 0.14495 0.99405 0.9777 0.0
C1999 C 0.12922 1.00007 0.95654 0.0
C2000 C 0.14626 0.97624 0.99538 0.0
C2001 C 0.17586 0.99955 0.00798 0.0
C2002 C 0.15765 0.96558 0.96803 0.0
C2003 C 0.15868 0.94875 0.98464 0.0
C2004 C 0.14822 0.94226 0.02857 0.0
C2005 C 0.13675 0.95298 0.05561 0.0
C2006 C 0.13577 0.9698 0.03908 0.0
H2007 H 0.1837 0.01027 0.02262 0.0
H2008 H 0.17415 0.99078 0.04526 0.0
H2009 H 0.18302 0.99298 0.97416 0.0
H2010 H 0.16561 0.97023 0.93339 0.0
H2011 H 0.16756 0.9408 0.96263 0.0
H2012 H 0.67537 0.39489 0.70589 0.0
H2013 H 0.70577 0.39567 0.72902 0.0
H2014 H 0.71531 0.36096 0.5925 0.0
H2015 H 0.68484 0.36038 0.56806 0.0
H2016 H 0.72681 0.37069 0.76538 0.0
H2017 H 0.7493 0.3977 0.55693 0.0
H2018 H 0.72711 0.39737 0.57601 0.0
H2019 H 0.73708 0.3789 0.54935 0.0
C2020 C 0.68391 0.3875 0.68038 0.0
C2021 C 0.67764 0.37764 0.63484 0.0
C2022 C 0.70131 0.38793 0.69382 0.0
C2023 C 0.71287 0.37854 0.66211 0.0
C2024 C 0.70668 0.36859 0.6168 0.0
H2025 H 0.81772 0.35849 0.77966 0.0
H2026 H 0.78737 0.35604 0.75524 0.0
C2027 C 0.68924 0.36821 0.60306 0.0
C2028 C 0.73132 0.37899 0.67762 0.0
H2029 H 0.77051 0.38882 0.62475 0.0
C2030 C 0.73638 0.37465 0.73463 0.0
C2031 C 0.74377 0.38434 0.63767 0.0
C2032 C 0.73907 0.39 0.57673 0.0
C2033 C 0.75352 0.37552 0.75281 0.0
C2034 C 0.76601 0.38053 0.71253 0.0
C2035 C 0.76095 0.38486 0.65551 0.0
C2036 C 0.78434 0.38195 0.72897 0.0
C2037 C 0.75798 0.37152 0.81542 0.0
C2038 C 0.79283 0.39724 0.72151 0.0
C2039 C 0.81018 0.39864 0.73486 0.0
C2040 C 0.81946 0.38475 0.75599 0.0
C2041 C 0.81091 0.36946 0.76403 0.0
C2042 C 0.79354 0.36806 0.75028 0.0
H2043 H 0.74668 0.37231 0.8436 0.0
H2044 H 0.76299 0.3586 0.81893 0.0
H2045 H 0.76793 0.38014 0.83209 0.0
H2046 H 0.78601 0.40813 0.7051 0.0
H2047 H 0.81636 0.41059 0.72811 0.0
loop_
_geom_bond_atom_site_label_1
_geom_bond_atom_site_label_2
_geom_bond_distance
_geom_bond_site_symmetry_2
_ccdc_geom_bond_type
Zn0 O6 1.969 . S
Zn0 O7 1.965 . S
Zn0 O11 2.024 . S
Zn0 O16 1.969 . S
Zn1 O8 1.969 . S
Zn1 O14 1.969 . S
Zn1 O15 1.965 . S
Zn1 O17 2.024 . S
C2 O3 1.229 . S
C2 O11 1.058 . S
O3 C2 1.229 . S
C4 O5 1.229 . S
C4 O17 1.058 . S
O5 C4 1.229 . S
O6 Zn0 1.969 . S
O6 C9 1.267 . S
O7 Zn0 1.965 . S
O7 C18 1.260 . S
O8 Zn1 1.969 . S
O8 C18 1.258 . S
C9 O6 1.267 . S
C9 O10 1.228 . S
O10 C9 1.228 . S
O11 Zn0 2.024 . S
O11 C2 1.058 . S
C12 O13 1.231 . S
C12 O14 1.267 1_556 S
O13 C12 1.231 . S
O14 Zn1 1.969 . S
O14 C12 1.267 1_554 S
O15 Zn1 1.965 . S
O15 C19 1.260 . S
O16 Zn0 1.969 . S
O16 C19 1.258 . S
O17 Zn1 2.024 . S
O17 C4 1.058 . S
C18 O7 1.260 . S
C18 O8 1.258 . S
C19 O15 1.260 . S
C19 O16 1.258 . S
Zn20 O26 1.969 . S
Zn20 O27 1.965 . S
Zn20 O31 2.024 . S
Zn20 O36 1.969 . S
Zn21 O28 1.969 . S
Zn21 O34 1.969 . S
Zn21 O35 1.965 . S
Zn21 O37 2.024 . S
C22 O23 1.229 . S
C22 O31 1.058 . S
O23 C22 1.229 . S
C24 O25 1.229 . S
C24 O37 1.058 . S
O25 C24 1.229 . S
O26 Zn20 1.969 . S
O26 C29 1.267 . S
O27 Zn20 1.965 . S
O27 C38 1.260 . S
O28 Zn21 1.969 . S
O28 C38 1.258 . S
C29 O26 1.267 . S
C29 O30 1.228 . S
O30 C29 1.228 . S
O31 Zn20 2.024 . S
O31 C22 1.058 . S
C32 O33 1.228 . S
C32 O34 1.267 . S
O33 C32 1.228 . S
O34 Zn21 1.969 . S
O34 C32 1.267 . S
O35 Zn21 1.965 . S
O35 C39 1.260 . S
O36 Zn20 1.969 . S
O36 C39 1.258 . S
O37 Zn21 2.024 . S
O37 C24 1.058 . S
C38 O27 1.260 . S
C38 O28 1.258 . S
C39 O35 1.260 . S
C39 O36 1.258 . S
Zn40 O46 1.969 . S
Zn40 O47 1.965 . S
Zn40 O51 2.024 . S
Zn40 O56 1.969 . S
Zn41 O48 1.969 . S
Zn41 O54 1.969 . S
Zn41 O55 1.965 . S
Zn41 O57 2.024 . S
C42 O43 1.229 . S
C42 O51 1.058 . S
O43 C42 1.229 . S
C44 O45 1.229 . S
C44 O57 1.058 . S
O45 C44 1.229 . S
O46 Zn40 1.969 . S
O46 C49 1.267 . S
O47 Zn40 1.965 . S
O47 C58 1.260 . S
O48 Zn41 1.969 . S
O48 C58 1.258 . S
C49 O46 1.267 . S
C49 O50 1.228 . S
O50 C49 1.228 . S
O51 Zn40 2.024 . S
O51 C42 1.058 . S
C52 O53 1.228 . S
C52 O54 1.267 . S
O53 C52 1.228 . S
O54 Zn41 1.969 . S
O54 C52 1.267 . S
O55 Zn41 1.965 . S
O55 C59 1.260 . S
O56 Zn40 1.969 . S
O56 C59 1.258 . S
O57 Zn41 2.024 . S
O57 C44 1.058 . S
C58 O47 1.260 . S
C58 O48 1.258 . S
C59 O55 1.260 . S
C59 O56 1.258 . S
Zn60 O66 1.969 . S
Zn60 O67 1.965 1_554 S
Zn60 O71 2.024 1_554 S
Zn60 O76 1.969 1_554 S
Zn61 O68 1.969 . S
Zn61 O74 1.969 . S
Zn61 O75 1.965 . S
Zn61 O77 2.024 . S
C62 O63 1.229 . S
C62 O71 1.058 1_554 S
O63 C62 1.229 . S
C64 O65 1.229 . S
C64 O77 1.058 . S
O65 C64 1.229 . S
O66 Zn60 1.969 . S
O66 C69 1.267 . S
O67 Zn60 1.965 1_556 S
O67 C78 1.260 . S
O68 Zn61 1.969 . S
O68 C78 1.258 . S
C69 O66 1.267 . S
C69 O70 1.228 . S
O70 C69 1.228 . S
O71 Zn60 2.024 1_556 S
O71 C62 1.058 1_556 S
C72 O73 1.228 . S
C72 O74 1.267 . S
O73 C72 1.228 . S
O74 Zn61 1.969 . S
O74 C72 1.267 . S
O75 Zn61 1.965 . S
O75 C79 1.260 . S
O76 Zn60 1.969 1_556 S
O76 C79 1.258 . S
O77 Zn61 2.024 . S
O77 C64 1.058 . S
C78 O67 1.260 . S
C78 O68 1.258 . S
C79 O75 1.260 . S
C79 O76 1.258 . S
Zn80 O86 1.969 . S
Zn80 O87 1.965 1_554 S
Zn80 O91 2.024 1_554 S
Zn80 O96 1.969 1_554 S
Zn81 O88 1.969 . S
Zn81 O94 1.969 . S
Zn81 O95 1.965 . S
Zn81 O97 2.024 . S
C82 O83 1.229 . S
C82 O91 1.058 1_554 S
O83 C82 1.229 . S
C84 O85 1.229 . S
C84 O97 1.058 . S
O85 C84 1.229 . S
O86 Zn80 1.969 . S
O86 C89 1.267 . S
O87 Zn80 1.965 1_556 S
O87 C98 1.260 . S
O88 Zn81 1.969 . S
O88 C98 1.258 . S
C89 O86 1.267 . S
C89 O90 1.228 . S
O90 C89 1.228 . S
O91 Zn80 2.024 1_556 S
O91 C82 1.058 1_556 S
C92 O93 1.228 . S
C92 O94 1.267 . S
O93 C92 1.228 . S
O94 Zn81 1.969 . S
O94 C92 1.267 . S
O95 Zn81 1.965 . S
O95 C99 1.260 . S
O96 Zn80 1.969 1_556 S
O96 C99 1.258 . S
O97 Zn81 2.024 . S
O97 C84 1.058 . S
C98 O87 1.260 . S
C98 O88 1.258 . S
C99 O95 1.260 . S
C99 O96 1.258 . S
Zn100 O106 1.969 . S
Zn100 O107 1.965 . S
Zn100 O111 2.024 . S
Zn100 O116 1.969 . S
Zn101 O108 1.969 . S
Zn101 O114 1.969 . S
Zn101 O115 1.965 . S
Zn101 O117 2.024 . S
C102 O103 1.229 . S
C102 O111 1.058 . S
O103 C102 1.229 . S
C104 O105 1.229 . S
C104 O117 1.058 . S
O105 C104 1.229 . S
O106 Zn100 1.969 . S
O106 C109 1.267 . S
O107 Zn100 1.965 . S
O107 C118 1.260 . S
O108 Zn101 1.969 . S
O108 C118 1.258 . S
C109 O106 1.267 . S
C109 O110 1.228 . S
O110 C109 1.228 . S
O111 Zn100 2.024 . S
O111 C102 1.058 . S
C112 O113 1.228 1_556 S
C112 O114 1.267 1_556 S
O113 C112 1.228 1_554 S
O114 Zn101 1.969 . S
O114 C112 1.267 1_554 S
O115 Zn101 1.965 . S
O115 C119 1.260 . S
O116 Zn100 1.969 . S
O116 C119 1.258 . S
O117 Zn101 2.024 . S
O117 C104 1.058 . S
C118 O107 1.260 . S
C118 O108 1.258 . S
C119 O115 1.260 . S
C119 O116 1.258 . S
Zn120 O126 1.969 . S
Zn120 O127 1.965 . S
Zn120 O131 2.024 . S
Zn120 O136 1.969 . S
Zn121 O128 1.969 . S
Zn121 O134 1.969 . S
Zn121 O135 1.965 . S
Zn121 O137 2.024 . S
C122 O123 1.229 . S
C122 O131 1.058 . S
O123 C122 1.229 . S
C124 O125 1.229 . S
C124 O137 1.058 . S
O125 C124 1.229 . S
O126 Zn120 1.969 . S
O126 C129 1.267 . S
O127 Zn120 1.965 . S
O127 C138 1.260 . S
O128 Zn121 1.969 . S
O128 C138 1.258 . S
C129 O126 1.267 . S
C129 O130 1.228 . S
O130 C129 1.228 . S
O131 Zn120 2.024 . S
O131 C122 1.058 . S
C132 O133 1.228 . S
C132 O134 1.267 . S
O133 C132 1.228 . S
O134 Zn121 1.969 . S
O134 C132 1.267 . S
O135 Zn121 1.965 . S
O135 C139 1.260 . S
O136 Zn120 1.969 . S
O136 C139 1.258 . S
O137 Zn121 2.024 . S
O137 C124 1.058 . S
C138 O127 1.260 . S
C138 O128 1.258 . S
C139 O135 1.260 . S
C139 O136 1.258 . S
Zn140 O146 1.969 . S
Zn140 O147 1.965 . S
Zn140 O151 2.024 . S
Zn140 O156 1.969 . S
Zn141 O148 1.969 . S
Zn141 O154 1.969 . S
Zn141 O155 1.965 . S
Zn141 O157 2.024 . S
C142 O143 1.229 . S
C142 O151 1.058 . S
O143 C142 1.229 . S
C144 O145 1.229 . S
C144 O157 1.058 . S
O145 C144 1.229 . S
O146 Zn140 1.969 . S
O146 C149 1.267 . S
O147 Zn140 1.965 . S
O147 C158 1.260 . S
O148 Zn141 1.969 . S
O148 C158 1.258 . S
C149 O146 1.267 . S
C149 O150 1.228 . S
O150 C149 1.228 . S
O151 Zn140 2.024 . S
O151 C142 1.058 . S
C152 O153 1.228 . S
C152 O154 1.267 . S
O153 C152 1.228 . S
O154 Zn141 1.969 . S
O154 C152 1.267 . S
O155 Zn141 1.965 . S
O155 C159 1.260 . S
O156 Zn140 1.969 . S
O156 C159 1.258 . S
O157 Zn141 2.024 . S
O157 C144 1.058 . S
C158 O147 1.260 . S
C158 O148 1.258 . S
C159 O155 1.260 . S
C159 O156 1.258 . S
Zn160 O166 1.969 . S
Zn160 O167 1.965 . S
Zn160 O171 2.024 . S
Zn160 O176 1.969 . S
Zn161 O168 1.969 . S
Zn161 O174 1.969 . S
Zn161 O175 1.965 . S
Zn161 O177 2.024 . S
C162 O163 1.229 . S
C162 O171 1.058 . S
O163 C162 1.229 . S
C164 O165 1.229 . S
C164 O177 1.058 . S
O165 C164 1.229 . S
O166 Zn160 1.969 . S
O166 C169 1.267 1_556 S
O167 Zn160 1.965 . S
O167 C178 1.260 . S
O168 Zn161 1.969 . S
O168 C178 1.258 . S
C169 O166 1.267 1_554 S
C169 O170 1.228 . S
O170 C169 1.228 . S
O171 Zn160 2.024 . S
O171 C162 1.058 . S
C172 O173 1.228 . S
C172 O174 1.267 . S
O173 C172 1.228 . S
O174 Zn161 1.969 . S
O174 C172 1.267 . S
O175 Zn161 1.965 . S
O175 C179 1.260 . S
O176 Zn160 1.969 . S
O176 C179 1.258 . S
O177 Zn161 2.024 . S
O177 C164 1.058 . S
C178 O167 1.260 . S
C178 O168 1.258 . S
C179 O175 1.260 . S
C179 O176 1.258 . S
Zn180 O186 1.969 . S
Zn180 O187 1.965 . S
Zn180 O191 2.024 . S
Zn180 O196 1.969 . S
Zn181 O188 1.969 . S
Zn181 O194 1.969 . S
Zn181 O195 1.965 . S
Zn181 O197 2.024 . S
C182 O183 1.229 . S
C182 O191 1.058 . S
O183 C182 1.229 . S
C184 O185 1.229 . S
C184 O197 1.058 . S
O185 C184 1.229 . S
O186 Zn180 1.969 . S
O186 C189 1.267 . S
O187 Zn180 1.965 . S
O187 C198 1.260 . S
O188 Zn181 1.969 . S
O188 C198 1.258 . S
C189 O186 1.267 . S
C189 O190 1.228 . S
O190 C189 1.228 . S
O191 Zn180 2.024 . S
O191 C182 1.058 . S
C192 O193 1.228 . S
C192 O194 1.267 . S
O193 C192 1.228 . S
O194 Zn181 1.969 . S
O194 C192 1.267 . S
O195 Zn181 1.965 . S
O195 C199 1.260 . S
O196 Zn180 1.969 . S
O196 C199 1.258 . S
O197 Zn181 2.024 . S
O197 C184 1.058 . S
C198 O187 1.260 . S
C198 O188 1.258 . S
C199 O195 1.260 . S
C199 O196 1.258 . S
Zn200 O206 1.969 . S
Zn200 O207 1.965 . S
Zn200 O211 2.024 . S
Zn200 O216 1.969 . S
Zn201 O208 1.969 . S
Zn201 O214 1.969 . S
Zn201 O215 1.965 . S
Zn201 O217 2.024 . S
C202 O203 1.229 . S
C202 O211 1.058 . S
O203 C202 1.229 . S
C204 O205 1.229 . S
C204 O217 1.058 . S
O205 C204 1.229 . S
O206 Zn200 1.969 . S
O206 C209 1.267 . S
O207 Zn200 1.965 . S
O207 C218 1.260 . S
O208 Zn201 1.969 . S
O208 C218 1.258 . S
C209 O206 1.267 . S
C209 O210 1.228 . S
O210 C209 1.228 . S
O211 Zn200 2.024 . S
O211 C202 1.058 . S
C212 O213 1.228 . S
C212 O214 1.267 . S
O213 C212 1.228 . S
O214 Zn201 1.969 . S
O214 C212 1.267 . S
O215 Zn201 1.965 . S
O215 C219 1.260 . S
O216 Zn200 1.969 . S
O216 C219 1.258 . S
O217 Zn201 2.024 . S
O217 C204 1.058 . S
C218 O207 1.260 . S
C218 O208 1.258 . S
C219 O215 1.260 . S
C219 O216 1.258 . S
Zn220 O226 1.969 . S
Zn220 O227 1.965 . S
Zn220 O231 2.024 . S
Zn220 O236 1.969 . S
Zn221 O228 1.969 . S
Zn221 O234 1.969 1_554 S
Zn221 O235 1.965 . S
Zn221 O237 2.024 . S
C222 O223 1.229 . S
C222 O231 1.058 . S
O223 C222 1.229 . S
C224 O225 1.229 1_554 S
C224 O237 1.058 . S
O225 C224 1.229 1_556 S
O226 Zn220 1.969 . S
O226 C229 1.267 . S
O227 Zn220 1.965 . S
O227 C238 1.260 . S
O228 Zn221 1.969 . S
O228 C238 1.258 . S
C229 O226 1.267 . S
C229 O230 1.228 . S
O230 C229 1.228 . S
O231 Zn220 2.024 . S
O231 C222 1.058 . S
C232 O233 1.228 . S
C232 O234 1.267 . S
O233 C232 1.228 . S
O234 Zn221 1.969 1_556 S
O234 C232 1.267 . S
O235 Zn221 1.965 . S
O235 C239 1.260 . S
O236 Zn220 1.969 . S
O236 C239 1.258 . S
O237 Zn221 2.024 . S
O237 C224 1.058 . S
C238 O227 1.260 . S
C238 O228 1.258 . S
C239 O235 1.260 . S
C239 O236 1.258 . S
Zn240 O246 1.969 . S
Zn240 O247 1.965 . S
Zn240 O251 2.024 . S
Zn240 O256 1.969 . S
Zn241 O248 1.969 1_556 S
Zn241 O254 1.969 . S
Zn241 O255 1.965 1_556 S
Zn241 O257 2.024 1_556 S
C242 O243 1.229 . S
C242 O251 1.058 . S
O243 C242 1.229 . S
C244 O245 1.229 . S
C244 O257 1.058 1_556 S
O245 C244 1.229 . S
O246 Zn240 1.969 . S
O246 C249 1.267 . S
O247 Zn240 1.965 . S
O247 C258 1.260 . S
O248 Zn241 1.969 1_554 S
O248 C258 1.258 . S
C249 O246 1.267 . S
C249 O250 1.228 . S
O250 C249 1.228 . S
O251 Zn240 2.024 . S
O251 C242 1.058 . S
C252 O253 1.228 . S
C252 O254 1.267 . S
O253 C252 1.228 . S
O254 Zn241 1.969 . S
O254 C252 1.267 . S
O255 Zn241 1.965 1_554 S
O255 C259 1.260 . S
O256 Zn240 1.969 . S
O256 C259 1.258 . S
O257 Zn241 2.024 1_554 S
O257 C244 1.058 1_554 S
C258 O247 1.260 . S
C258 O248 1.258 . S
C259 O255 1.260 . S
C259 O256 1.258 . S
Zn260 O266 1.969 . S
Zn260 O267 1.965 . S
Zn260 O271 2.024 . S
Zn260 O276 1.969 . S
Zn261 O268 1.969 . S
Zn261 O274 1.969 . S
Zn261 O275 1.965 . S
Zn261 O277 2.024 . S
C262 O263 1.229 . S
C262 O271 1.058 . S
O263 C262 1.229 . S
C264 O265 1.229 . S
C264 O277 1.058 . S
O265 C264 1.229 . S
O266 Zn260 1.969 . S
O266 C269 1.267 1_556 S
O267 Zn260 1.965 . S
O267 C278 1.260 . S
O268 Zn261 1.969 . S
O268 C278 1.258 . S
C269 O266 1.267 1_554 S
C269 O270 1.228 . S
O270 C269 1.228 . S
O271 Zn260 2.024 . S
O271 C262 1.058 . S
C272 O273 1.228 . S
C272 O274 1.267 . S
O273 C272 1.228 . S
O274 Zn261 1.969 . S
O274 C272 1.267 . S
O275 Zn261 1.965 . S
O275 C279 1.260 . S
O276 Zn260 1.969 . S
O276 C279 1.258 . S
O277 Zn261 2.024 . S
O277 C264 1.058 . S
C278 O267 1.260 . S
C278 O268 1.258 . S
C279 O275 1.260 . S
C279 O276 1.258 . S
Zn280 O286 1.969 . S
Zn280 O287 1.965 . S
Zn280 O291 2.024 . S
Zn280 O296 1.969 . S
Zn281 O288 1.969 . S
Zn281 O294 1.969 . S
Zn281 O295 1.965 . S
Zn281 O297 2.024 . S
C282 O283 1.229 . S
C282 O291 1.058 . S
O283 C282 1.229 . S
C284 O285 1.229 . S
C284 O297 1.058 . S
O285 C284 1.229 . S
O286 Zn280 1.969 . S
O286 C289 1.267 . S
O287 Zn280 1.965 . S
O287 C298 1.260 . S
O288 Zn281 1.969 . S
O288 C298 1.258 . S
C289 O286 1.267 . S
C289 O290 1.228 . S
O290 C289 1.228 . S
O291 Zn280 2.024 . S
O291 C282 1.058 . S
C292 O293 1.228 . S
C292 O294 1.267 . S
O293 C292 1.228 . S
O294 Zn281 1.969 . S
O294 C292 1.267 . S
O295 Zn281 1.965 . S
O295 C299 1.260 . S
O296 Zn280 1.969 . S
O296 C299 1.258 . S
O297 Zn281 2.024 . S
O297 C284 1.058 . S
C298 O287 1.260 . S
C298 O288 1.258 . S
C299 O295 1.260 . S
C299 O296 1.258 . S
Zn300 O306 1.969 . S
Zn300 O307 1.965 . S
Zn300 O311 2.024 . S
Zn300 O316 1.969 . S
Zn301 O308 1.969 . S
Zn301 O314 1.969 . S
Zn301 O315 1.965 . S
Zn301 O317 2.024 . S
C302 O303 1.229 . S
C302 O311 1.058 . S
O303 C302 1.229 . S
C304 O305 1.229 . S
C304 O317 1.058 . S
O305 C304 1.229 . S
O306 Zn300 1.969 . S
O306 C309 1.267 . S
O307 Zn300 1.965 . S
O307 C318 1.260 . S
O308 Zn301 1.969 . S
O308 C318 1.258 . S
C309 O306 1.267 . S
C309 O310 1.228 . S
O310 C309 1.228 . S
O311 Zn300 2.024 . S
O311 C302 1.058 . S
C312 O313 1.228 . S
C312 O314 1.267 . S
O313 C312 1.228 . S
O314 Zn301 1.969 . S
O314 C312 1.267 . S
O315 Zn301 1.965 . S
O315 C319 1.260 . S
O316 Zn300 1.969 . S
O316 C319 1.258 . S
O317 Zn301 2.024 . S
O317 C304 1.058 . S
C318 O307 1.260 . S
C318 O308 1.258 . S
C319 O315 1.260 . S
C319 O316 1.258 . S
H320 C328 0.929 . S
H321 C330 0.930 . S
H322 C332 0.930 . S
H323 C335 0.929 . S
H324 C338 0.930 . S
H325 C340 0.960 . S
H326 C340 0.960 . S
H327 C340 0.960 . S
C328 H320 0.929 . S
C328 C329 1.377 . S
C328 C330 1.384 . S
C329 C328 1.377 . S
C329 C335 1.390 . S
C330 H321 0.930 . S
C330 C328 1.384 . S
C330 C331 1.372 . S
C331 C330 1.372 . S
C331 C332 1.400 . S
C331 C336 1.490 . S
C332 H322 0.930 . S
C332 C331 1.400 . S
C332 C335 1.386 . S
H333 C349 0.930 . S
H334 C350 0.931 . S
C335 H323 0.929 . S
C335 C329 1.390 . S
C335 C332 1.386 . S
C336 C331 1.490 . S
C336 C338 1.395 . S
C336 C339 1.403 . S
H337 C343 0.930 . S
C338 H324 0.930 . S
C338 C336 1.395 . S
C338 C341 1.403 . S
C339 C336 1.403 . S
C339 C340 1.524 . S
C339 C343 1.400 . S
C340 H325 0.960 . S
C340 H326 0.960 . S
C340 H327 0.960 . S
C340 C339 1.524 . S
C341 C338 1.403 . S
C341 C342 1.392 . S
C341 C345 1.495 . S
C342 C341 1.392 . S
C342 C343 1.385 . S
C342 C344 1.478 . S
C343 H337 0.930 . S
C343 C339 1.400 . S
C343 C342 1.385 . S
C344 C342 1.478 . S
C344 C346 1.381 . S
C344 C350 1.383 . S
C345 C341 1.495 . S
C345 H351 0.959 . S
C345 H352 0.961 . S
C345 H353 0.960 . S
C346 C344 1.381 . S
C346 C347 1.394 . S
C346 H354 0.930 . S
C347 C346 1.394 . S
C347 C348 1.383 . S
C347 H355 0.929 . S
C348 C347 1.383 . S
C348 C349 1.377 . S
C349 H333 0.930 . S
C349 C348 1.377 . S
C349 C350 1.379 . S
C350 H334 0.931 . S
C350 C344 1.383 . S
C350 C349 1.379 . S
H351 C345 0.959 . S
H352 C345 0.961 . S
H353 C345 0.960 . S
H354 C346 0.930 . S
H355 C347 0.929 . S
H356 C364 0.929 . S
H357 C366 0.930 . S
H358 C368 0.930 . S
H359 C371 0.929 . S
H360 C374 0.930 . S
H361 C376 0.960 . S
H362 C376 0.960 . S
H363 C376 0.960 . S
C364 H356 0.929 . S
C364 C365 1.377 . S
C364 C366 1.384 . S
C365 C364 1.377 . S
C365 C371 1.390 . S
C366 H357 0.930 . S
C366 C364 1.384 . S
C366 C367 1.372 . S
C367 C366 1.372 . S
C367 C368 1.400 . S
C367 C372 1.490 1_554 S
C368 H358 0.930 . S
C368 C367 1.400 . S
C368 C371 1.386 . S
H369 C385 0.930 . S
H370 C386 0.931 . S
C371 H359 0.929 . S
C371 C365 1.390 . S
C371 C368 1.386 . S
C372 C367 1.490 1_556 S
C372 C374 1.395 . S
C372 C375 1.403 . S
H373 C379 0.930 . S
C374 H360 0.930 . S
C374 C372 1.395 . S
C374 C377 1.403 . S
C375 C372 1.403 . S
C375 C376 1.524 . S
C375 C379 1.400 . S
C376 H361 0.960 . S
C376 H362 0.960 . S
C376 H363 0.960 . S
C376 C375 1.524 . S
C377 C374 1.403 . S
C377 C378 1.392 . S
C377 C381 1.495 . S
C378 C377 1.392 . S
C378 C379 1.385 . S
C378 C380 1.478 . S
C379 H373 0.930 . S
C379 C375 1.400 . S
C379 C378 1.385 . S
C380 C378 1.478 . S
C380 C382 1.381 . S
C380 C386 1.383 . S
C381 C377 1.495 . S
C381 H387 0.959 . S
C381 H388 0.961 . S
C381 H389 0.960 . S
C382 C380 1.381 . S
C382 C383 1.394 . S
C382 H390 0.930 . S
C383 C382 1.394 . S
C383 C384 1.383 . S
C383 H391 0.929 . S
C384 C383 1.383 . S
C384 C385 1.377 . S
C385 H369 0.930 . S
C385 C384 1.377 . S
C385 C386 1.379 . S
C386 H370 0.931 . S
C386 C380 1.383 . S
C386 C385 1.379 . S
H387 C381 0.959 . S
H388 C381 0.961 . S
H389 C381 0.960 . S
H390 C382 0.930 . S
H391 C383 0.929 . S
H392 C400 0.929 . S
H393 C402 0.930 . S
H394 C404 0.930 . S
H395 C407 0.929 . S
H396 C410 0.930 . S
H397 C412 0.960 . S
H398 C412 0.960 . S
H399 C412 0.960 . S
C400 H392 0.929 . S
C400 C401 1.377 . S
C400 C402 1.384 . S
C401 C400 1.377 . S
C401 C407 1.390 . S
C402 H393 0.930 . S
C402 C400 1.384 . S
C402 C403 1.372 . S
C403 C402 1.372 . S
C403 C404 1.400 . S
C403 C408 1.490 . S
C404 H394 0.930 . S
C404 C403 1.400 . S
C404 C407 1.386 . S
H405 C421 0.930 . S
H406 C422 0.931 . S
C407 H395 0.929 . S
C407 C401 1.390 . S
C407 C404 1.386 . S
C408 C403 1.490 . S
C408 C410 1.395 . S
C408 C411 1.403 . S
H409 C415 0.930 . S
C410 H396 0.930 . S
C410 C408 1.395 . S
C410 C413 1.403 . S
C411 C408 1.403 . S
C411 C412 1.524 . S
C411 C415 1.400 . S
C412 H397 0.960 . S
C412 H398 0.960 . S
C412 H399 0.960 . S
C412 C411 1.524 . S
C413 C410 1.403 . S
C413 C414 1.392 . S
C413 C417 1.495 . S
C414 C413 1.392 . S
C414 C415 1.385 . S
C414 C416 1.478 . S
C415 H409 0.930 . S
C415 C411 1.400 . S
C415 C414 1.385 . S
C416 C414 1.478 . S
C416 C418 1.381 . S
C416 C422 1.383 . S
C417 C413 1.495 . S
C417 H423 0.959 . S
C417 H424 0.961 . S
C417 H425 0.960 . S
C418 C416 1.381 . S
C418 C419 1.394 1_554 S
C418 H426 0.930 . S
C419 C418 1.394 1_556 S
C419 C420 1.383 . S
C419 H427 0.929 . S
C420 C419 1.383 . S
C420 C421 1.377 . S
C421 H405 0.930 . S
C421 C420 1.377 . S
C421 C422 1.379 1_556 S
C422 H406 0.931 . S
C422 C416 1.383 . S
C422 C421 1.379 1_554 S
H423 C417 0.959 . S
H424 C417 0.961 . S
H425 C417 0.960 . S
H426 C418 0.930 . S
H427 C419 0.929 . S
H428 C436 0.929 . S
H429 C438 0.930 . S
H430 C440 0.930 . S
H431 C443 0.929 . S
H432 C446 0.930 . S
H433 C448 0.960 . S
H434 C448 0.960 . S
H435 C448 0.960 . S
C436 H428 0.929 . S
C436 C437 1.377 . S
C436 C438 1.384 . S
C437 C436 1.377 . S
C437 C443 1.390 . S
C438 H429 0.930 . S
C438 C436 1.384 . S
C438 C439 1.372 . S
C439 C438 1.372 . S
C439 C440 1.400 . S
C439 C444 1.490 . S
C440 H430 0.930 . S
C440 C439 1.400 . S
C440 C443 1.386 . S
H441 C457 0.930 . S
H442 C458 0.931 . S
C443 H431 0.929 . S
C443 C437 1.390 . S
C443 C440 1.386 . S
C444 C439 1.490 . S
C444 C446 1.395 . S
C444 C447 1.403 . S
H445 C451 0.930 . S
C446 H432 0.930 . S
C446 C444 1.395 . S
C446 C449 1.403 . S
C447 C444 1.403 . S
C447 C448 1.524 . S
C447 C451 1.400 . S
C448 H433 0.960 . S
C448 H434 0.960 . S
C448 H435 0.960 . S
C448 C447 1.524 . S
C449 C446 1.403 . S
C449 C450 1.392 . S
C449 C453 1.495 . S
C450 C449 1.392 . S
C450 C451 1.385 . S
C450 C452 1.478 . S
C451 H445 0.930 . S
C451 C447 1.400 . S
C451 C450 1.385 . S
C452 C450 1.478 . S
C452 C454 1.381 . S
C452 C458 1.383 . S
C453 C449 1.495 . S
C453 H459 0.959 . S
C453 H460 0.961 . S
C453 H461 0.960 . S
C454 C452 1.381 . S
C454 C455 1.394 . S
C454 H462 0.930 . S
C455 C454 1.394 . S
C455 C456 1.383 . S
C455 H463 0.929 . S
C456 C455 1.383 . S
C456 C457 1.377 . S
C457 H441 0.930 . S
C457 C456 1.377 . S
C457 C458 1.379 . S
C458 H442 0.931 . S
C458 C452 1.383 . S
C458 C457 1.379 . S
H459 C453 0.959 . S
H460 C453 0.961 . S
H461 C453 0.960 . S
H462 C454 0.930 . S
H463 C455 0.929 . S
H464 C472 0.929 . S
H465 C474 0.930 . S
H466 C476 0.930 . S
H467 C479 0.929 . S
H468 C482 0.930 . S
H469 C484 0.960 . S
H470 C484 0.960 . S
H471 C484 0.960 . S
C472 H464 0.929 . S
C472 C473 1.377 . S
C472 C474 1.384 . S
C473 C472 1.377 . S
C473 C479 1.390 . S
C474 H465 0.930 . S
C474 C472 1.384 . S
C474 C475 1.372 . S
C475 C474 1.372 . S
C475 C476 1.400 . S
C475 C480 1.490 . S
C476 H466 0.930 . S
C476 C475 1.400 . S
C476 C479 1.386 . S
H477 C493 0.930 . S
H478 C494 0.931 . S
C479 H467 0.929 . S
C479 C473 1.390 . S
C479 C476 1.386 . S
C480 C475 1.490 . S
C480 C482 1.395 . S
C480 C483 1.403 . S
H481 C487 0.930 . S
C482 H468 0.930 . S
C482 C480 1.395 . S
C482 C485 1.403 . S
C483 C480 1.403 . S
C483 C484 1.524 . S
C483 C487 1.400 . S
C484 H469 0.960 . S
C484 H470 0.960 . S
C484 H471 0.960 . S
C484 C483 1.524 . S
C485 C482 1.403 . S
C485 C486 1.392 . S
C485 C489 1.495 . S
C486 C485 1.392 . S
C486 C487 1.385 . S
C486 C488 1.478 . S
C487 H481 0.930 . S
C487 C483 1.400 . S
C487 C486 1.385 . S
C488 C486 1.478 . S
C488 C490 1.381 . S
C488 C494 1.383 . S
C489 C485 1.495 . S
C489 H495 0.959 . S
C489 H496 0.961 . S
C489 H497 0.960 . S
C490 C488 1.381 . S
C490 C491 1.394 . S
C490 H498 0.930 . S
C491 C490 1.394 . S
C491 C492 1.383 . S
C491 H499 0.929 . S
C492 C491 1.383 . S
C492 C493 1.377 . S
C493 H477 0.930 . S
C493 C492 1.377 . S
C493 C494 1.379 . S
C494 H478 0.931 . S
C494 C488 1.383 . S
C494 C493 1.379 . S
H495 C489 0.959 . S
H496 C489 0.961 . S
H497 C489 0.960 . S
H498 C490 0.930 . S
H499 C491 0.929 . S
H500 C508 0.929 . S
H501 C510 0.930 . S
H502 C512 0.930 . S
H503 C515 0.929 . S
H504 C518 0.930 . S
H505 C520 0.960 . S
H506 C520 0.960 . S
H507 C520 0.960 . S
C508 H500 0.929 . S
C508 C509 1.377 . S
C508 C510 1.384 . S
C509 C508 1.377 . S
C509 C515 1.390 . S
C510 H501 0.930 . S
C510 C508 1.384 . S
C510 C511 1.372 . S
C511 C510 1.372 . S
C511 C512 1.400 . S
C511 C516 1.490 . S
C512 H502 0.930 . S
C512 C511 1.400 . S
C512 C515 1.386 . S
H513 C529 0.930 . S
H514 C530 0.931 . S
C515 H503 0.929 . S
C515 C509 1.390 . S
C515 C512 1.386 . S
C516 C511 1.490 . S
C516 C518 1.395 . S
C516 C519 1.403 . S
H517 C523 0.930 . S
C518 H504 0.930 . S
C518 C516 1.395 . S
C518 C521 1.403 . S
C519 C516 1.403 . S
C519 C520 1.524 . S
C519 C523 1.400 . S
C520 H505 0.960 . S
C520 H506 0.960 . S
C520 H507 0.960 . S
C520 C519 1.524 . S
C521 C518 1.403 . S
C521 C522 1.392 . S
C521 C525 1.495 . S
C522 C521 1.392 . S
C522 C523 1.385 . S
C522 C524 1.478 . S
C523 H517 0.930 . S
C523 C519 1.400 . S
C523 C522 1.385 . S
C524 C522 1.478 . S
C524 C526 1.381 . S
C524 C530 1.383 . S
C525 C521 1.495 . S
C525 H531 0.959 . S
C525 H532 0.961 . S
C525 H533 0.960 . S
C526 C524 1.381 . S
C526 C527 1.394 . S
C526 H534 0.930 . S
C527 C526 1.394 . S
C527 C528 1.383 . S
C527 H535 0.929 . S
C528 C527 1.383 . S
C528 C529 1.377 . S
C529 H513 0.930 . S
C529 C528 1.377 . S
C529 C530 1.379 . S
C530 H514 0.931 . S
C530 C524 1.383 . S
C530 C529 1.379 . S
H531 C525 0.959 . S
H532 C525 0.961 . S
H533 C525 0.960 . S
H534 C526 0.930 . S
H535 C527 0.929 . S
H536 C544 0.929 . S
H537 C546 0.930 . S
H538 C548 0.930 . S
H539 C551 0.929 . S
H540 C554 0.930 . S
H541 C556 0.960 . S
H542 C556 0.960 . S
H543 C556 0.960 . S
C544 H536 0.929 . S
C544 C545 1.377 . S
C544 C546 1.384 . S
C545 C544 1.377 . S
C545 C551 1.390 . S
C546 H537 0.930 . S
C546 C544 1.384 . S
C546 C547 1.372 . S
C547 C546 1.372 . S
C547 C548 1.400 . S
C547 C552 1.490 . S
C548 H538 0.930 . S
C548 C547 1.400 . S
C548 C551 1.386 . S
H549 C565 0.930 . S
H550 C566 0.931 . S
C551 H539 0.929 . S
C551 C545 1.390 . S
C551 C548 1.386 . S
C552 C547 1.490 . S
C552 C554 1.395 . S
C552 C555 1.403 . S
H553 C559 0.930 . S
C554 H540 0.930 . S
C554 C552 1.395 . S
C554 C557 1.403 . S
C555 C552 1.403 . S
C555 C556 1.524 . S
C555 C559 1.400 . S
C556 H541 0.960 . S
C556 H542 0.960 . S
C556 H543 0.960 . S
C556 C555 1.524 . S
C557 C554 1.403 . S
C557 C558 1.392 . S
C557 C561 1.495 . S
C558 C557 1.392 . S
C558 C559 1.385 . S
C558 C560 1.478 1_556 S
C559 H553 0.930 . S
C559 C555 1.400 . S
C559 C558 1.385 . S
C560 C558 1.478 1_554 S
C560 C562 1.381 . S
C560 C566 1.383 . S
C561 C557 1.495 . S
C561 H567 0.959 . S
C561 H568 0.961 . S
C561 H569 0.960 . S
C562 C560 1.381 . S
C562 C563 1.394 . S
C562 H570 0.930 . S
C563 C562 1.394 . S
C563 C564 1.383 . S
C563 H571 0.929 . S
C564 C563 1.383 . S
C564 C565 1.377 . S
C565 H549 0.930 . S
C565 C564 1.377 . S
C565 C566 1.379 . S
C566 H550 0.931 . S
C566 C560 1.383 . S
C566 C565 1.379 . S
H567 C561 0.959 . S
H568 C561 0.961 . S
H569 C561 0.960 . S
H570 C562 0.930 . S
H571 C563 0.929 . S
H572 C580 0.929 . S
H573 C582 0.930 . S
H574 C584 0.930 . S
H575 C587 0.929 . S
H576 C590 0.930 . S
H577 C592 0.960 . S
H578 C592 0.960 . S
H579 C592 0.960 . S
C580 H572 0.929 . S
C580 C581 1.377 . S
C580 C582 1.384 1_556 S
C581 C580 1.377 . S
C581 C587 1.390 . S
C582 H573 0.930 . S
C582 C580 1.384 1_554 S
C582 C583 1.372 . S
C583 C582 1.372 . S
C583 C584 1.400 . S
C583 C588 1.490 . S
C584 H574 0.930 . S
C584 C583 1.400 . S
C584 C587 1.386 1_554 S
H585 C601 0.930 . S
H586 C602 0.931 . S
C587 H575 0.929 . S
C587 C581 1.390 . S
C587 C584 1.386 1_556 S
C588 C583 1.490 . S
C588 C590 1.395 . S
C588 C591 1.403 . S
H589 C595 0.930 . S
C590 H576 0.930 . S
C590 C588 1.395 . S
C590 C593 1.403 . S
C591 C588 1.403 . S
C591 C592 1.524 . S
C591 C595 1.400 . S
C592 H577 0.960 . S
C592 H578 0.960 . S
C592 H579 0.960 . S
C592 C591 1.524 . S
C593 C590 1.403 . S
C593 C594 1.392 . S
C593 C597 1.495 . S
C594 C593 1.392 . S
C594 C595 1.385 . S
C594 C596 1.478 . S
C595 H589 0.930 . S
C595 C591 1.400 . S
C595 C594 1.385 . S
C596 C594 1.478 . S
C596 C598 1.381 . S
C596 C602 1.383 . S
C597 C593 1.495 . S
C597 H603 0.959 . S
C597 H604 0.961 . S
C597 H605 0.960 . S
C598 C596 1.381 . S
C598 C599 1.394 . S
C598 H606 0.930 . S
C599 C598 1.394 . S
C599 C600 1.383 . S
C599 H607 0.929 . S
C600 C599 1.383 . S
C600 C601 1.377 . S
C601 H585 0.930 . S
C601 C600 1.377 . S
C601 C602 1.379 . S
C602 H586 0.931 . S
C602 C596 1.383 . S
C602 C601 1.379 . S
H603 C597 0.959 . S
H604 C597 0.961 . S
H605 C597 0.960 . S
H606 C598 0.930 . S
H607 C599 0.929 . S
H608 C616 0.929 . S
H609 C618 0.930 . S
H610 C620 0.930 . S
H611 C623 0.929 . S
H612 C626 0.930 . S
H613 C628 0.960 . S
H614 C628 0.960 . S
H615 C628 0.960 . S
C616 H608 0.929 . S
C616 C617 1.377 . S
C616 C618 1.384 . S
C617 C616 1.377 . S
C617 C623 1.390 . S
C618 H609 0.930 . S
C618 C616 1.384 . S
C618 C619 1.372 . S
C619 C618 1.372 . S
C619 C620 1.400 . S
C619 C624 1.490 . S
C620 H610 0.930 . S
C620 C619 1.400 . S
C620 C623 1.386 . S
H621 C637 0.930 . S
H622 C638 0.931 . S
C623 H611 0.929 . S
C623 C617 1.390 . S
C623 C620 1.386 . S
C624 C619 1.490 . S
C624 C626 1.395 . S
C624 C627 1.403 . S
H625 C631 0.930 . S
C626 H612 0.930 . S
C626 C624 1.395 . S
C626 C629 1.403 . S
C627 C624 1.403 . S
C627 C628 1.524 . S
C627 C631 1.400 . S
C628 H613 0.960 . S
C628 H614 0.960 . S
C628 H615 0.960 . S
C628 C627 1.524 . S
C629 C626 1.403 . S
C629 C630 1.392 . S
C629 C633 1.495 . S
C630 C629 1.392 . S
C630 C631 1.385 . S
C630 C632 1.478 . S
C631 H625 0.930 . S
C631 C627 1.400 . S
C631 C630 1.385 . S
C632 C630 1.478 . S
C632 C634 1.381 . S
C632 C638 1.383 . S
C633 C629 1.495 . S
C633 H639 0.959 . S
C633 H640 0.961 . S
C633 H641 0.960 . S
C634 C632 1.381 . S
C634 C635 1.394 . S
C634 H642 0.930 . S
C635 C634 1.394 . S
C635 C636 1.383 . S
C635 H643 0.929 . S
C636 C635 1.383 . S
C636 C637 1.377 . S
C637 H621 0.930 . S
C637 C636 1.377 . S
C637 C638 1.379 . S
C638 H622 0.931 . S
C638 C632 1.383 . S
C638 C637 1.379 . S
H639 C633 0.959 . S
H640 C633 0.961 . S
H641 C633 0.960 . S
H642 C634 0.930 . S
H643 C635 0.929 . S
H644 C652 0.929 . S
H645 C654 0.930 . S
H646 C656 0.930 . S
H647 C659 0.929 . S
H648 C662 0.930 . S
H649 C664 0.960 . S
H650 C664 0.960 . S
H651 C664 0.960 . S
C652 H644 0.929 . S
C652 C653 1.377 . S
C652 C654 1.384 . S
C653 C652 1.377 . S
C653 C659 1.390 . S
C654 H645 0.930 . S
C654 C652 1.384 . S
C654 C655 1.372 . S
C655 C654 1.372 . S
C655 C656 1.400 . S
C655 C660 1.490 . S
C656 H646 0.930 . S
C656 C655 1.400 . S
C656 C659 1.386 . S
H657 C673 0.930 . S
H658 C674 0.931 . S
C659 H647 0.929 . S
C659 C653 1.390 . S
C659 C656 1.386 . S
C660 C655 1.490 . S
C660 C662 1.395 . S
C660 C663 1.403 . S
H661 C667 0.930 . S
C662 H648 0.930 . S
C662 C660 1.395 . S
C662 C665 1.403 . S
C663 C660 1.403 . S
C663 C664 1.524 . S
C663 C667 1.400 . S
C664 H649 0.960 . S
C664 H650 0.960 . S
C664 H651 0.960 . S
C664 C663 1.524 . S
C665 C662 1.403 . S
C665 C666 1.392 . S
C665 C669 1.495 . S
C666 C665 1.392 . S
C666 C667 1.385 . S
C666 C668 1.478 1_554 S
C667 H661 0.930 . S
C667 C663 1.400 . S
C667 C666 1.385 . S
C668 C666 1.478 1_556 S
C668 C670 1.381 . S
C668 C674 1.383 . S
C669 C665 1.495 . S
C669 H675 0.959 . S
C669 H676 0.961 . S
C669 H677 0.960 . S
C670 C668 1.381 . S
C670 C671 1.394 . S
C670 H678 0.930 . S
C671 C670 1.394 . S
C671 C672 1.383 . S
C671 H679 0.929 . S
C672 C671 1.383 . S
C672 C673 1.377 . S
C673 H657 0.930 . S
C673 C672 1.377 . S
C673 C674 1.379 . S
C674 H658 0.931 . S
C674 C668 1.383 . S
C674 C673 1.379 . S
H675 C669 0.959 . S
H676 C669 0.961 . S
H677 C669 0.960 . S
H678 C670 0.930 . S
H679 C671 0.929 . S
H680 C688 0.929 . S
H681 C690 0.930 . S
H682 C692 0.930 . S
H683 C695 0.929 . S
H684 C698 0.930 . S
H685 C700 0.960 . S
H686 C700 0.960 . S
H687 C700 0.960 . S
C688 H680 0.929 . S
C688 C689 1.377 . S
C688 C690 1.384 1_554 S
C689 C688 1.377 . S
C689 C695 1.390 . S
C690 H681 0.930 . S
C690 C688 1.384 1_556 S
C690 C691 1.372 . S
C691 C690 1.372 . S
C691 C692 1.400 . S
C691 C696 1.490 . S
C692 H682 0.930 . S
C692 C691 1.400 . S
C692 C695 1.386 1_556 S
H693 C709 0.930 . S
H694 C710 0.931 . S
C695 H683 0.929 . S
C695 C689 1.390 . S
C695 C692 1.386 1_554 S
C696 C691 1.490 . S
C696 C698 1.395 . S
C696 C699 1.403 . S
H697 C703 0.930 . S
C698 H684 0.930 . S
C698 C696 1.395 . S
C698 C701 1.403 . S
C699 C696 1.403 . S
C699 C700 1.524 . S
C699 C703 1.400 . S
C700 H685 0.960 . S
C700 H686 0.960 . S
C700 H687 0.960 . S
C700 C699 1.524 . S
C701 C698 1.403 . S
C701 C702 1.392 . S
C701 C705 1.495 . S
C702 C701 1.392 . S
C702 C703 1.385 . S
C702 C704 1.478 . S
C703 H697 0.930 . S
C703 C699 1.400 . S
C703 C702 1.385 . S
C704 C702 1.478 . S
C704 C706 1.381 . S
C704 C710 1.383 . S
C705 C701 1.495 . S
C705 H711 0.959 . S
C705 H712 0.961 . S
C705 H713 0.960 . S
C706 C704 1.381 . S
C706 C707 1.394 . S
C706 H714 0.930 . S
C707 C706 1.394 . S
C707 C708 1.383 . S
C707 H715 0.929 . S
C708 C707 1.383 . S
C708 C709 1.377 . S
C709 H693 0.930 . S
C709 C708 1.377 . S
C709 C710 1.379 . S
C710 H694 0.931 . S
C710 C704 1.383 . S
C710 C709 1.379 . S
H711 C705 0.959 . S
H712 C705 0.961 . S
H713 C705 0.960 . S
H714 C706 0.930 . S
H715 C707 0.929 . S
H716 C724 0.929 . S
H717 C726 0.930 . S
H718 C728 0.930 . S
H719 C731 0.929 . S
H720 C734 0.930 . S
H721 C736 0.960 . S
H722 C736 0.960 . S
H723 C736 0.960 . S
C724 H716 0.929 . S
C724 C725 1.377 . S
C724 C726 1.384 . S
C725 C724 1.377 . S
C725 C731 1.390 . S
C726 H717 0.930 . S
C726 C724 1.384 . S
C726 C727 1.372 . S
C727 C726 1.372 . S
C727 C728 1.400 . S
C727 C732 1.490 . S
C728 H718 0.930 . S
C728 C727 1.400 . S
C728 C731 1.386 . S
H729 C745 0.930 . S
H730 C746 0.931 . S
C731 H719 0.929 . S
C731 C725 1.390 . S
C731 C728 1.386 . S
C732 C727 1.490 . S
C732 C734 1.395 . S
C732 C735 1.403 . S
H733 C739 0.930 . S
C734 H720 0.930 . S
C734 C732 1.395 . S
C734 C737 1.403 . S
C735 C732 1.403 . S
C735 C736 1.524 . S
C735 C739 1.400 . S
C736 H721 0.960 . S
C736 H722 0.960 . S
C736 H723 0.960 . S
C736 C735 1.524 . S
C737 C734 1.403 . S
C737 C738 1.392 . S
C737 C741 1.495 . S
C738 C737 1.392 . S
C738 C739 1.385 . S
C738 C740 1.478 . S
C739 H733 0.930 . S
C739 C735 1.400 . S
C739 C738 1.385 . S
C740 C738 1.478 . S
C740 C742 1.381 . S
C740 C746 1.383 . S
C741 C737 1.495 . S
C741 H747 0.959 . S
C741 H748 0.961 . S
C741 H749 0.960 . S
C742 C740 1.381 . S
C742 C743 1.394 . S
C742 H750 0.930 . S
C743 C742 1.394 . S
C743 C744 1.383 . S
C743 H751 0.929 . S
C744 C743 1.383 . S
C744 C745 1.377 . S
C745 H729 0.930 . S
C745 C744 1.377 . S
C745 C746 1.379 . S
C746 H730 0.931 . S
C746 C740 1.383 . S
C746 C745 1.379 . S
H747 C741 0.959 . S
H748 C741 0.961 . S
H749 C741 0.960 . S
H750 C742 0.930 . S
H751 C743 0.929 . S
H752 C760 0.929 . S
H753 C762 0.930 . S
H754 C764 0.930 . S
H755 C767 0.929 . S
H756 C770 0.930 . S
H757 C772 0.960 . S
H758 C772 0.960 . S
H759 C772 0.960 . S
C760 H752 0.929 . S
C760 C761 1.377 . S
C760 C762 1.384 . S
C761 C760 1.377 . S
C761 C767 1.390 . S
C762 H753 0.930 . S
C762 C760 1.384 . S
C762 C763 1.372 . S
C763 C762 1.372 . S
C763 C764 1.400 . S
C763 C768 1.490 . S
C764 H754 0.930 . S
C764 C763 1.400 . S
C764 C767 1.386 . S
H765 C781 0.930 . S
H766 C782 0.931 . S
C767 H755 0.929 . S
C767 C761 1.390 . S
C767 C764 1.386 . S
C768 C763 1.490 . S
C768 C770 1.395 . S
C768 C771 1.403 . S
H769 C775 0.930 . S
C770 H756 0.930 . S
C770 C768 1.395 . S
C770 C773 1.403 . S
C771 C768 1.403 . S
C771 C772 1.524 . S
C771 C775 1.400 . S
C772 H757 0.960 . S
C772 H758 0.960 . S
C772 H759 0.960 . S
C772 C771 1.524 . S
C773 C770 1.403 . S
C773 C774 1.392 . S
C773 C777 1.495 . S
C774 C773 1.392 . S
C774 C775 1.385 . S
C774 C776 1.478 . S
C775 H769 0.930 . S
C775 C771 1.400 . S
C775 C774 1.385 . S
C776 C774 1.478 . S
C776 C778 1.381 . S
C776 C782 1.383 . S
C777 C773 1.495 . S
C777 H783 0.959 . S
C777 H784 0.961 . S
C777 H785 0.960 . S
C778 C776 1.381 . S
C778 C779 1.394 . S
C778 H786 0.930 . S
C779 C778 1.394 . S
C779 C780 1.383 . S
C779 H787 0.929 . S
C780 C779 1.383 . S
C780 C781 1.377 . S
C781 H765 0.930 . S
C781 C780 1.377 . S
C781 C782 1.379 . S
C782 H766 0.931 . S
C782 C776 1.383 . S
C782 C781 1.379 . S
H783 C777 0.959 . S
H784 C777 0.961 . S
H785 C777 0.960 . S
H786 C778 0.930 . S
H787 C779 0.929 . S
H788 C796 0.929 . S
H789 C798 0.930 . S
H790 C800 0.930 . S
H791 C803 0.929 . S
H792 C806 0.930 . S
H793 C808 0.960 . S
H794 C808 0.960 . S
H795 C808 0.960 . S
C796 H788 0.929 . S
C796 C797 1.377 . S
C796 C798 1.384 . S
C797 C796 1.377 . S
C797 C803 1.390 . S
C798 H789 0.930 . S
C798 C796 1.384 . S
C798 C799 1.372 . S
C799 C798 1.372 . S
C799 C800 1.400 . S
C799 C804 1.490 . S
C800 H790 0.930 . S
C800 C799 1.400 . S
C800 C803 1.386 . S
H801 C817 0.930 . S
H802 C818 0.931 . S
C803 H791 0.929 . S
C803 C797 1.390 . S
C803 C800 1.386 . S
C804 C799 1.490 . S
C804 C806 1.395 . S
C804 C807 1.403 . S
H805 C811 0.930 . S
C806 H792 0.930 . S
C806 C804 1.395 . S
C806 C809 1.403 . S
C807 C804 1.403 . S
C807 C808 1.524 . S
C807 C811 1.400 . S
C808 H793 0.960 . S
C808 H794 0.960 . S
C808 H795 0.960 . S
C808 C807 1.524 . S
C809 C806 1.403 . S
C809 C810 1.392 . S
C809 C813 1.495 . S
C810 C809 1.392 . S
C810 C811 1.385 . S
C810 C812 1.478 . S
C811 H805 0.930 . S
C811 C807 1.400 . S
C811 C810 1.385 . S
C812 C810 1.478 . S
C812 C814 1.381 . S
C812 C818 1.383 . S
C813 C809 1.495 . S
C813 H819 0.959 . S
C813 H820 0.961 . S
C813 H821 0.960 . S
C814 C812 1.381 . S
C814 C815 1.394 . S
C814 H822 0.930 . S
C815 C814 1.394 . S
C815 C816 1.383 . S
C815 H823 0.929 . S
C816 C815 1.383 . S
C816 C817 1.377 . S
C817 H801 0.930 . S
C817 C816 1.377 . S
C817 C818 1.379 . S
C818 H802 0.931 . S
C818 C812 1.383 . S
C818 C817 1.379 . S
H819 C813 0.959 . S
H820 C813 0.961 . S
H821 C813 0.960 . S
H822 C814 0.930 . S
H823 C815 0.929 . S
H824 C832 0.929 . S
H825 C834 0.930 . S
H826 C836 0.930 . S
H827 C839 0.929 . S
H828 C842 0.930 . S
H829 C844 0.960 . S
H830 C844 0.960 . S
H831 C844 0.960 . S
C832 H824 0.929 . S
C832 C833 1.377 . S
C832 C834 1.384 . S
C833 C832 1.377 . S
C833 C839 1.390 . S
C834 H825 0.930 . S
C834 C832 1.384 . S
C834 C835 1.372 . S
C835 C834 1.372 . S
C835 C836 1.400 . S
C835 C840 1.490 . S
C836 H826 0.930 . S
C836 C835 1.400 . S
C836 C839 1.386 . S
H837 C853 0.930 . S
H838 C854 0.931 . S
C839 H827 0.929 . S
C839 C833 1.390 . S
C839 C836 1.386 . S
C840 C835 1.490 . S
C840 C842 1.395 . S
C840 C843 1.403 . S
H841 C847 0.930 . S
C842 H828 0.930 . S
C842 C840 1.395 . S
C842 C845 1.403 . S
C843 C840 1.403 . S
C843 C844 1.524 . S
C843 C847 1.400 . S
C844 H829 0.960 . S
C844 H830 0.960 . S
C844 H831 0.960 . S
C844 C843 1.524 . S
C845 C842 1.403 . S
C845 C846 1.392 . S
C845 C849 1.495 . S
C846 C845 1.392 . S
C846 C847 1.385 . S
C846 C848 1.478 1_554 S
C847 H841 0.930 . S
C847 C843 1.400 . S
C847 C846 1.385 . S
C848 C846 1.478 1_556 S
C848 C850 1.381 . S
C848 C854 1.383 . S
C849 C845 1.495 . S
C849 H855 0.959 . S
C849 H856 0.961 . S
C849 H857 0.960 . S
C850 C848 1.381 . S
C850 C851 1.394 . S
C850 H858 0.930 . S
C851 C850 1.394 . S
C851 C852 1.383 . S
C851 H859 0.929 . S
C852 C851 1.383 . S
C852 C853 1.377 . S
C853 H837 0.930 . S
C853 C852 1.377 . S
C853 C854 1.379 . S
C854 H838 0.931 . S
C854 C848 1.383 . S
C854 C853 1.379 . S
H855 C849 0.959 . S
H856 C849 0.961 . S
H857 C849 0.960 . S
H858 C850 0.930 . S
H859 C851 0.929 . S
H860 C868 0.929 . S
H861 C870 0.930 . S
H862 C872 0.930 . S
H863 C875 0.929 . S
H864 C878 0.930 . S
H865 C880 0.960 . S
H866 C880 0.960 . S
H867 C880 0.960 . S
C868 H860 0.929 . S
C868 C869 1.377 . S
C868 C870 1.384 1_554 S
C869 C868 1.377 . S
C869 C875 1.390 . S
C870 H861 0.930 . S
C870 C868 1.384 1_556 S
C870 C871 1.372 . S
C871 C870 1.372 . S
C871 C872 1.400 . S
C871 C876 1.490 . S
C872 H862 0.930 . S
C872 C871 1.400 . S
C872 C875 1.386 1_556 S
H873 C889 0.930 . S
H874 C890 0.931 . S
C875 H863 0.929 . S
C875 C869 1.390 . S
C875 C872 1.386 1_554 S
C876 C871 1.490 . S
C876 C878 1.395 . S
C876 C879 1.403 . S
H877 C883 0.930 . S
C878 H864 0.930 . S
C878 C876 1.395 . S
C878 C881 1.403 . S
C879 C876 1.403 . S
C879 C880 1.524 . S
C879 C883 1.400 . S
C880 H865 0.960 . S
C880 H866 0.960 . S
C880 H867 0.960 . S
C880 C879 1.524 . S
C881 C878 1.403 . S
C881 C882 1.392 . S
C881 C885 1.495 . S
C882 C881 1.392 . S
C882 C883 1.385 . S
C882 C884 1.478 . S
C883 H877 0.930 . S
C883 C879 1.400 . S
C883 C882 1.385 . S
C884 C882 1.478 . S
C884 C886 1.381 . S
C884 C890 1.383 . S
C885 C881 1.495 . S
C885 H891 0.959 . S
C885 H892 0.961 . S
C885 H893 0.960 . S
C886 C884 1.381 . S
C886 C887 1.394 . S
C886 H894 0.930 . S
C887 C886 1.394 . S
C887 C888 1.383 . S
C887 H895 0.929 . S
C888 C887 1.383 . S
C888 C889 1.377 . S
C889 H873 0.930 . S
C889 C888 1.377 . S
C889 C890 1.379 . S
C890 H874 0.931 . S
C890 C884 1.383 . S
C890 C889 1.379 . S
H891 C885 0.959 . S
H892 C885 0.961 . S
H893 C885 0.960 . S
H894 C886 0.930 . S
H895 C887 0.929 . S
H896 C904 0.929 . S
H897 C906 0.930 . S
H898 C908 0.930 . S
H899 C911 0.929 . S
H900 C914 0.930 . S
H901 C916 0.960 . S
H902 C916 0.960 . S
H903 C916 0.960 . S
C904 H896 0.929 . S
C904 C905 1.377 . S
C904 C906 1.384 . S
C905 C904 1.377 . S
C905 C911 1.390 . S
C906 H897 0.930 . S
C906 C904 1.384 . S
C906 C907 1.372 . S
C907 C906 1.372 . S
C907 C908 1.400 . S
C907 C912 1.490 . S
C908 H898 0.930 . S
C908 C907 1.400 . S
C908 C911 1.386 . S
H909 C925 0.930 . S
H910 C926 0.931 . S
C911 H899 0.929 . S
C911 C905 1.390 . S
C911 C908 1.386 . S
C912 C907 1.490 . S
C912 C914 1.395 . S
C912 C915 1.403 . S
H913 C919 0.930 . S
C914 H900 0.930 . S
C914 C912 1.395 . S
C914 C917 1.403 . S
C915 C912 1.403 . S
C915 C916 1.524 . S
C915 C919 1.400 . S
C916 H901 0.960 . S
C916 H902 0.960 . S
C916 H903 0.960 . S
C916 C915 1.524 . S
C917 C914 1.403 . S
C917 C918 1.392 . S
C917 C921 1.495 . S
C918 C917 1.392 . S
C918 C919 1.385 . S
C918 C920 1.478 . S
C919 H913 0.930 . S
C919 C915 1.400 . S
C919 C918 1.385 . S
C920 C918 1.478 . S
C920 C922 1.381 . S
C920 C926 1.383 . S
C921 C917 1.495 . S
C921 H927 0.959 . S
C921 H928 0.961 . S
C921 H929 0.960 . S
C922 C920 1.381 . S
C922 C923 1.394 . S
C922 H930 0.930 . S
C923 C922 1.394 . S
C923 C924 1.383 . S
C923 H931 0.929 . S
C924 C923 1.383 . S
C924 C925 1.377 . S
C925 H909 0.930 . S
C925 C924 1.377 . S
C925 C926 1.379 . S
C926 H910 0.931 . S
C926 C920 1.383 . S
C926 C925 1.379 . S
H927 C921 0.959 . S
H928 C921 0.961 . S
H929 C921 0.960 . S
H930 C922 0.930 . S
H931 C923 0.929 . S
H932 C940 0.929 . S
H933 C942 0.930 . S
H934 C944 0.930 . S
H935 C947 0.929 . S
H936 C950 0.930 . S
H937 C952 0.960 . S
H938 C952 0.960 . S
H939 C952 0.960 . S
C940 H932 0.929 . S
C940 C941 1.377 . S
C940 C942 1.384 . S
C941 C940 1.377 . S
C941 C947 1.390 . S
C942 H933 0.930 . S
C942 C940 1.384 . S
C942 C943 1.372 . S
C943 C942 1.372 . S
C943 C944 1.400 . S
C943 C948 1.490 . S
C944 H934 0.930 . S
C944 C943 1.400 . S
C944 C947 1.386 . S
H945 C961 0.930 . S
H946 C962 0.931 . S
C947 H935 0.929 . S
C947 C941 1.390 . S
C947 C944 1.386 . S
C948 C943 1.490 . S
C948 C950 1.395 . S
C948 C951 1.403 . S
H949 C955 0.930 . S
C950 H936 0.930 . S
C950 C948 1.395 . S
C950 C953 1.403 . S
C951 C948 1.403 . S
C951 C952 1.524 . S
C951 C955 1.400 . S
C952 H937 0.960 . S
C952 H938 0.960 . S
C952 H939 0.960 . S
C952 C951 1.524 . S
C953 C950 1.403 . S
C953 C954 1.392 . S
C953 C957 1.495 . S
C954 C953 1.392 . S
C954 C955 1.385 . S
C954 C956 1.478 . S
C955 H949 0.930 . S
C955 C951 1.400 . S
C955 C954 1.385 . S
C956 C954 1.478 . S
C956 C958 1.381 . S
C956 C962 1.383 . S
C957 C953 1.495 . S
C957 H963 0.959 . S
C957 H964 0.961 . S
C957 H965 0.960 . S
C958 C956 1.381 . S
C958 C959 1.394 . S
C958 H966 0.930 . S
C959 C958 1.394 . S
C959 C960 1.383 . S
C959 H967 0.929 . S
C960 C959 1.383 . S
C960 C961 1.377 . S
C961 H945 0.930 . S
C961 C960 1.377 . S
C961 C962 1.379 . S
C962 H946 0.931 . S
C962 C956 1.383 . S
C962 C961 1.379 . S
H963 C957 0.959 . S
H964 C957 0.961 . S
H965 C957 0.960 . S
H966 C958 0.930 . S
H967 C959 0.929 . S
H968 C976 0.929 . S
H969 C978 0.930 . S
H970 C980 0.930 . S
H971 C983 0.929 . S
H972 C986 0.930 . S
H973 C988 0.960 . S
H974 C988 0.960 . S
H975 C988 0.960 . S
C976 H968 0.929 . S
C976 C977 1.377 . S
C976 C978 1.384 . S
C977 C976 1.377 . S
C977 C983 1.390 . S
C978 H969 0.930 . S
C978 C976 1.384 . S
C978 C979 1.372 . S
C979 C978 1.372 . S
C979 C980 1.400 . S
C979 C984 1.490 . S
C980 H970 0.930 . S
C980 C979 1.400 . S
C980 C983 1.386 . S
H981 C997 0.930 . S
H982 C998 0.931 . S
C983 H971 0.929 . S
C983 C977 1.390 . S
C983 C980 1.386 . S
C984 C979 1.490 . S
C984 C986 1.395 . S
C984 C987 1.403 . S
H985 C991 0.930 . S
C986 H972 0.930 . S
C986 C984 1.395 . S
C986 C989 1.403 . S
C987 C984 1.403 . S
C987 C988 1.524 . S
C987 C991 1.400 . S
C988 H973 0.960 . S
C988 H974 0.960 . S
C988 H975 0.960 . S
C988 C987 1.524 . S
C989 C986 1.403 . S
C989 C990 1.392 . S
C989 C993 1.495 . S
C990 C989 1.392 . S
C990 C991 1.385 . S
C990 C992 1.478 . S
C991 H985 0.930 . S
C991 C987 1.400 . S
C991 C990 1.385 . S
C992 C990 1.478 . S
C992 C994 1.381 . S
C992 C998 1.383 . S
C993 C989 1.495 . S
C993 H999 0.959 . S
C993 H1000 0.961 . S
C993 H1001 0.960 . S
C994 C992 1.381 . S
C994 C995 1.394 . S
C994 H1002 0.930 . S
C995 C994 1.394 . S
C995 C996 1.383 . S
C995 H1003 0.929 . S
C996 C995 1.383 . S
C996 C997 1.377 . S
C997 H981 0.930 . S
C997 C996 1.377 . S
C997 C998 1.379 . S
C998 H982 0.931 . S
C998 C992 1.383 . S
C998 C997 1.379 . S
H999 C993 0.959 . S
H1000 C993 0.961 . S
H1001 C993 0.960 . S
H1002 C994 0.930 . S
H1003 C995 0.929 . S
H1004 C1012 0.929 . S
H1005 C1014 0.930 . S
H1006 C1016 0.930 . S
H1007 C1019 0.929 . S
H1008 C1022 0.930 . S
H1009 C1024 0.960 . S
H1010 C1024 0.960 . S
H1011 C1024 0.960 . S
C1012 H1004 0.929 . S
C1012 C1013 1.377 . S
C1012 C1014 1.384 . S
C1013 C1012 1.377 . S
C1013 C1019 1.390 . S
C1014 H1005 0.930 . S
C1014 C1012 1.384 . S
C1014 C1015 1.372 . S
C1015 C1014 1.372 . S
C1015 C1016 1.400 . S
C1015 C1020 1.490 . S
C1016 H1006 0.930 . S
C1016 C1015 1.400 . S
C1016 C1019 1.386 . S
H1017 C1033 0.930 . S
H1018 C1034 0.931 . S
C1019 H1007 0.929 . S
C1019 C1013 1.390 . S
C1019 C1016 1.386 . S
C1020 C1015 1.490 . S
C1020 C1022 1.395 . S
C1020 C1023 1.403 . S
H1021 C1027 0.915 1_455 S
C1022 H1008 0.930 . S
C1022 C1020 1.395 . S
C1022 C1025 1.403 . S
C1023 C1020 1.403 . S
C1023 C1024 1.524 1_556 S
C1023 C1027 1.425 . S
C1024 H1009 0.960 . S
C1024 H1010 0.960 . S
C1024 H1011 0.960 . S
C1024 C1023 1.524 1_554 S
C1025 C1022 1.403 . S
C1025 C1026 1.392 1_655 S
C1025 C1029 1.495 1_655 S
C1026 C1025 1.392 1_455 S
C1026 C1027 1.375 1_455 S
C1026 C1028 1.478 . S
C1027 H1021 0.915 1_655 S
C1027 C1023 1.425 . S
C1027 C1026 1.375 1_655 S
C1028 C1026 1.478 . S
C1028 C1030 1.381 . S
C1028 C1034 1.383 . S
C1029 C1025 1.495 1_455 S
C1029 H1035 0.959 1_455 S
C1029 H1036 0.961 . S
C1029 H1037 0.960 . S
C1030 C1028 1.381 . S
C1030 C1031 1.394 . S
C1030 H1038 0.930 . S
C1031 C1030 1.394 . S
C1031 C1032 1.383 . S
C1031 H1039 0.929 . S
C1032 C1031 1.383 . S
C1032 C1033 1.377 . S
C1033 H1017 0.930 . S
C1033 C1032 1.377 . S
C1033 C1034 1.379 . S
C1034 H1018 0.931 . S
C1034 C1028 1.383 . S
C1034 C1033 1.379 . S
H1035 C1029 0.959 1_655 S
H1036 C1029 0.961 . S
H1037 C1029 0.960 . S
H1038 C1030 0.930 . S
H1039 C1031 0.929 . S
H1040 C1048 0.929 . S
H1041 C1050 0.930 . S
H1042 C1052 0.930 . S
H1043 C1055 0.929 . S
H1044 C1058 0.930 . S
H1045 C1060 0.960 . S
H1046 C1060 0.960 . S
H1047 C1060 0.960 . S
C1048 H1040 0.929 . S
C1048 C1049 1.377 . S
C1048 C1050 1.384 . S
C1049 C1048 1.377 . S
C1049 C1055 1.390 . S
C1050 H1041 0.930 . S
C1050 C1048 1.384 . S
C1050 C1051 1.372 . S
C1051 C1050 1.372 . S
C1051 C1052 1.400 . S
C1051 C1056 1.490 . S
C1052 H1042 0.930 . S
C1052 C1051 1.400 . S
C1052 C1055 1.386 . S
H1053 C1069 0.930 . S
H1054 C1070 0.931 . S
C1055 H1043 0.929 . S
C1055 C1049 1.390 . S
C1055 C1052 1.386 . S
C1056 C1051 1.490 . S
C1056 C1058 1.395 . S
C1056 C1059 1.403 . S
H1057 C1063 0.930 . S
C1058 H1044 0.930 . S
C1058 C1056 1.395 . S
C1058 C1061 1.403 . S
C1059 C1056 1.403 . S
C1059 C1060 1.524 . S
C1059 C1063 1.400 . S
C1060 H1045 0.960 . S
C1060 H1046 0.960 . S
C1060 H1047 0.960 . S
C1060 C1059 1.524 . S
C1061 C1058 1.403 . S
C1061 C1062 1.392 . S
C1061 C1065 1.495 . S
C1062 C1061 1.392 . S
C1062 C1063 1.385 . S
C1062 C1064 1.478 . S
C1063 H1057 0.930 . S
C1063 C1059 1.400 . S
C1063 C1062 1.385 . S
C1064 C1062 1.478 . S
C1064 C1066 1.381 . S
C1064 C1070 1.383 . S
C1065 C1061 1.495 . S
C1065 H1071 0.959 . S
C1065 H1072 0.961 . S
C1065 H1073 0.960 . S
C1066 C1064 1.381 . S
C1066 C1067 1.394 . S
C1066 H1074 0.930 . S
C1067 C1066 1.394 . S
C1067 C1068 1.383 . S
C1067 H1075 0.929 . S
C1068 C1067 1.383 . S
C1068 C1069 1.377 . S
C1069 H1053 0.930 . S
C1069 C1068 1.377 . S
C1069 C1070 1.379 . S
C1070 H1054 0.931 . S
C1070 C1064 1.383 . S
C1070 C1069 1.379 . S
H1071 C1065 0.959 . S
H1072 C1065 0.961 . S
H1073 C1065 0.960 . S
H1074 C1066 0.930 . S
H1075 C1067 0.929 . S
H1076 C1084 0.929 . S
H1077 C1086 0.930 . S
H1078 C1088 0.930 . S
H1079 C1091 0.929 . S
H1080 C1094 0.930 . S
H1081 C1096 0.960 1_556 S
H1082 C1096 0.960 1_556 S
H1083 C1096 0.960 . S
C1084 H1076 0.929 . S
C1084 C1085 1.377 . S
C1084 C1086 1.384 . S
C1085 C1084 1.377 . S
C1085 C1091 1.390 . S
C1086 H1077 0.930 . S
C1086 C1084 1.384 . S
C1086 C1087 1.372 . S
C1087 C1086 1.372 . S
C1087 C1088 1.400 . S
C1087 C1092 1.490 . S
C1088 H1078 0.930 . S
C1088 C1087 1.400 . S
C1088 C1091 1.386 . S
H1089 C1105 0.930 . S
H1090 C1106 0.931 . S
C1091 H1079 0.929 . S
C1091 C1085 1.390 . S
C1091 C1088 1.386 . S
C1092 C1087 1.490 . S
C1092 C1094 1.395 . S
C1092 C1095 1.403 . S
H1093 C1099 0.930 1_655 S
C1094 H1080 0.930 . S
C1094 C1092 1.395 . S
C1094 C1097 1.403 . S
C1095 C1092 1.403 . S
C1095 C1096 1.524 . S
C1095 C1099 1.400 . S
C1096 H1081 0.960 1_554 S
C1096 H1082 0.960 1_554 S
C1096 H1083 0.960 . S
C1096 C1095 1.524 . S
C1097 C1094 1.403 . S
C1097 C1098 1.392 1_455 S
C1097 C1101 1.495 . S
C1098 C1097 1.392 1_655 S
C1098 C1099 1.385 1_655 S
C1098 C1100 1.478 . S
C1099 H1093 0.930 1_455 S
C1099 C1095 1.400 . S
C1099 C1098 1.385 1_455 S
C1100 C1098 1.478 . S
C1100 C1102 1.381 . S
C1100 C1106 1.383 . S
C1101 C1097 1.495 . S
C1101 H1107 0.959 . S
C1101 H1108 0.961 1_455 S
C1101 H1109 0.960 1_455 S
C1102 C1100 1.381 . S
C1102 C1103 1.394 . S
C1102 H1110 0.930 . S
C1103 C1102 1.394 . S
C1103 C1104 1.383 . S
C1103 H1111 0.929 . S
C1104 C1103 1.383 . S
C1104 C1105 1.377 . S
C1105 H1089 0.930 . S
C1105 C1104 1.377 . S
C1105 C1106 1.379 . S
C1106 H1090 0.931 . S
C1106 C1100 1.383 . S
C1106 C1105 1.379 . S
H1107 C1101 0.959 . S
H1108 C1101 0.961 1_655 S
H1109 C1101 0.960 1_655 S
H1110 C1102 0.930 . S
H1111 C1103 0.929 . S
H1112 C1120 0.929 . S
H1113 C1122 0.930 . S
H1114 C1124 0.930 . S
H1115 C1127 0.929 . S
H1116 C1130 0.930 . S
H1117 C1132 0.960 . S
H1118 C1132 0.960 . S
H1119 C1132 0.960 . S
C1120 H1112 0.929 . S
C1120 C1121 1.377 . S
C1120 C1122 1.384 . S
C1121 C1120 1.377 . S
C1121 C1127 1.390 . S
C1122 H1113 0.930 . S
C1122 C1120 1.384 . S
C1122 C1123 1.372 . S
C1123 C1122 1.372 . S
C1123 C1124 1.400 . S
C1123 C1128 1.490 . S
C1124 H1114 0.930 . S
C1124 C1123 1.400 . S
C1124 C1127 1.386 . S
H1125 C1141 0.930 . S
H1126 C1142 0.931 . S
C1127 H1115 0.929 . S
C1127 C1121 1.390 . S
C1127 C1124 1.386 . S
C1128 C1123 1.490 . S
C1128 C1130 1.395 . S
C1128 C1131 1.403 . S
H1129 C1135 0.930 . S
C1130 H1116 0.930 . S
C1130 C1128 1.395 . S
C1130 C1133 1.403 . S
C1131 C1128 1.403 . S
C1131 C1132 1.524 . S
C1131 C1135 1.400 . S
C1132 H1117 0.960 . S
C1132 H1118 0.960 . S
C1132 H1119 0.960 . S
C1132 C1131 1.524 . S
C1133 C1130 1.403 . S
C1133 C1134 1.392 . S
C1133 C1137 1.495 . S
C1134 C1133 1.392 . S
C1134 C1135 1.385 . S
C1134 C1136 1.478 . S
C1135 H1129 0.930 . S
C1135 C1131 1.400 . S
C1135 C1134 1.385 . S
C1136 C1134 1.478 . S
C1136 C1138 1.381 . S
C1136 C1142 1.383 . S
C1137 C1133 1.495 . S
C1137 H1143 0.959 . S
C1137 H1144 0.961 . S
C1137 H1145 0.960 . S
C1138 C1136 1.381 . S
C1138 C1139 1.394 . S
C1138 H1146 0.930 . S
C1139 C1138 1.394 . S
C1139 C1140 1.383 . S
C1139 H1147 0.929 . S
C1140 C1139 1.383 . S
C1140 C1141 1.377 . S
C1141 H1125 0.930 . S
C1141 C1140 1.377 . S
C1141 C1142 1.379 . S
C1142 H1126 0.931 . S
C1142 C1136 1.383 . S
C1142 C1141 1.379 . S
H1143 C1137 0.959 . S
H1144 C1137 0.961 . S
H1145 C1137 0.960 . S
H1146 C1138 0.930 . S
H1147 C1139 0.929 . S
H1148 C1156 0.929 . S
H1149 C1158 0.930 . S
H1150 C1160 0.930 . S
H1151 C1163 0.929 . S
H1152 C1166 0.930 . S
H1153 C1168 0.960 . S
H1154 C1168 0.960 . S
H1155 C1168 0.960 . S
C1156 H1148 0.929 . S
C1156 C1157 1.377 . S
C1156 C1158 1.384 . S
C1157 C1156 1.377 . S
C1157 C1163 1.390 . S
C1158 H1149 0.930 . S
C1158 C1156 1.384 . S
C1158 C1159 1.372 . S
C1159 C1158 1.372 . S
C1159 C1160 1.400 . S
C1159 C1164 1.490 . S
C1160 H1150 0.930 . S
C1160 C1159 1.400 . S
C1160 C1163 1.386 . S
H1161 C1177 0.930 . S
H1162 C1178 0.931 . S
C1163 H1151 0.929 . S
C1163 C1157 1.390 . S
C1163 C1160 1.386 . S
C1164 C1159 1.490 . S
C1164 C1166 1.395 . S
C1164 C1167 1.403 . S
H1165 C1171 0.930 . S
C1166 H1152 0.930 . S
C1166 C1164 1.395 . S
C1166 C1169 1.403 . S
C1167 C1164 1.403 . S
C1167 C1168 1.524 . S
C1167 C1171 1.400 . S
C1168 H1153 0.960 . S
C1168 H1154 0.960 . S
C1168 H1155 0.960 . S
C1168 C1167 1.524 . S
C1169 C1166 1.403 . S
C1169 C1170 1.392 . S
C1169 C1173 1.495 . S
C1170 C1169 1.392 . S
C1170 C1171 1.385 . S
C1170 C1172 1.478 . S
C1171 H1165 0.930 . S
C1171 C1167 1.400 . S
C1171 C1170 1.385 . S
C1172 C1170 1.478 . S
C1172 C1174 1.381 . S
C1172 C1178 1.383 . S
C1173 C1169 1.495 . S
C1173 H1179 0.959 . S
C1173 H1180 0.961 . S
C1173 H1181 0.960 . S
C1174 C1172 1.381 . S
C1174 C1175 1.394 . S
C1174 H1182 0.930 . S
C1175 C1174 1.394 . S
C1175 C1176 1.383 . S
C1175 H1183 0.929 . S
C1176 C1175 1.383 . S
C1176 C1177 1.377 . S
C1177 H1161 0.930 . S
C1177 C1176 1.377 . S
C1177 C1178 1.379 . S
C1178 H1162 0.931 . S
C1178 C1172 1.383 . S
C1178 C1177 1.379 . S
H1179 C1173 0.959 . S
H1180 C1173 0.961 . S
H1181 C1173 0.960 . S
H1182 C1174 0.930 . S
H1183 C1175 0.929 . S
H1184 C1192 0.929 . S
H1185 C1194 0.930 . S
H1186 C1196 0.930 . S
H1187 C1199 0.929 . S
H1188 C1202 0.930 . S
H1189 C1204 0.960 . S
H1190 C1204 0.960 . S
H1191 C1204 0.960 . S
C1192 H1184 0.929 . S
C1192 C1193 1.377 . S
C1192 C1194 1.384 . S
C1193 C1192 1.377 . S
C1193 C1199 1.390 . S
C1194 H1185 0.930 . S
C1194 C1192 1.384 . S
C1194 C1195 1.372 . S
C1195 C1194 1.372 . S
C1195 C1196 1.400 . S
C1195 C1200 1.490 . S
C1196 H1186 0.930 . S
C1196 C1195 1.400 . S
C1196 C1199 1.386 . S
H1197 C1213 0.930 . S
H1198 C1214 0.931 . S
C1199 H1187 0.929 . S
C1199 C1193 1.390 . S
C1199 C1196 1.386 . S
C1200 C1195 1.490 . S
C1200 C1202 1.395 . S
C1200 C1203 1.403 . S
H1201 C1207 0.930 . S
C1202 H1188 0.930 . S
C1202 C1200 1.395 . S
C1202 C1205 1.403 . S
C1203 C1200 1.403 . S
C1203 C1204 1.524 . S
C1203 C1207 1.400 . S
C1204 H1189 0.960 . S
C1204 H1190 0.960 . S
C1204 H1191 0.960 . S
C1204 C1203 1.524 . S
C1205 C1202 1.403 . S
C1205 C1206 1.392 . S
C1205 C1209 1.495 . S
C1206 C1205 1.392 . S
C1206 C1207 1.385 . S
C1206 C1208 1.478 . S
C1207 H1201 0.930 . S
C1207 C1203 1.400 . S
C1207 C1206 1.385 . S
C1208 C1206 1.478 . S
C1208 C1210 1.381 . S
C1208 C1214 1.383 . S
C1209 C1205 1.495 . S
C1209 H1215 0.959 . S
C1209 H1216 0.961 . S
C1209 H1217 0.960 . S
C1210 C1208 1.381 . S
C1210 C1211 1.394 . S
C1210 H1218 0.930 . S
C1211 C1210 1.394 . S
C1211 C1212 1.383 . S
C1211 H1219 0.929 . S
C1212 C1211 1.383 . S
C1212 C1213 1.377 . S
C1213 H1197 0.930 . S
C1213 C1212 1.377 . S
C1213 C1214 1.379 . S
C1214 H1198 0.931 . S
C1214 C1208 1.383 . S
C1214 C1213 1.379 . S
H1215 C1209 0.959 . S
H1216 C1209 0.961 . S
H1217 C1209 0.960 . S
H1218 C1210 0.930 . S
H1219 C1211 0.929 . S
H1220 C1228 0.929 . S
H1221 C1230 0.930 . S
H1222 C1232 0.930 . S
H1223 C1235 0.929 . S
H1224 C1238 0.930 . S
H1225 C1240 0.960 . S
H1226 C1240 0.960 . S
H1227 C1240 0.960 . S
C1228 H1220 0.929 . S
C1228 C1229 1.377 . S
C1228 C1230 1.384 . S
C1229 C1228 1.377 . S
C1229 C1235 1.390 . S
C1230 H1221 0.930 . S
C1230 C1228 1.384 . S
C1230 C1231 1.372 . S
C1231 C1230 1.372 . S
C1231 C1232 1.400 . S
C1231 C1236 1.490 . S
C1232 H1222 0.930 . S
C1232 C1231 1.400 . S
C1232 C1235 1.386 . S
H1233 C1249 0.930 . S
H1234 C1250 0.931 . S
C1235 H1223 0.929 . S
C1235 C1229 1.390 . S
C1235 C1232 1.386 . S
C1236 C1231 1.490 . S
C1236 C1238 1.395 . S
C1236 C1239 1.403 . S
H1237 C1243 0.930 . S
C1238 H1224 0.930 . S
C1238 C1236 1.395 . S
C1238 C1241 1.403 . S
C1239 C1236 1.403 . S
C1239 C1240 1.524 . S
C1239 C1243 1.400 . S
C1240 H1225 0.960 . S
C1240 H1226 0.960 . S
C1240 H1227 0.960 . S
C1240 C1239 1.524 . S
C1241 C1238 1.403 . S
C1241 C1242 1.392 . S
C1241 C1245 1.495 . S
C1242 C1241 1.392 . S
C1242 C1243 1.385 . S
C1242 C1244 1.478 . S
C1243 H1237 0.930 . S
C1243 C1239 1.400 . S
C1243 C1242 1.385 . S
C1244 C1242 1.478 . S
C1244 C1246 1.381 . S
C1244 C1250 1.383 . S
C1245 C1241 1.495 . S
C1245 H1251 0.959 . S
C1245 H1252 0.961 . S
C1245 H1253 0.960 . S
C1246 C1244 1.381 . S
C1246 C1247 1.394 . S
C1246 H1254 0.930 . S
C1247 C1246 1.394 . S
C1247 C1248 1.383 . S
C1247 H1255 0.929 . S
C1248 C1247 1.383 . S
C1248 C1249 1.377 . S
C1249 H1233 0.930 . S
C1249 C1248 1.377 . S
C1249 C1250 1.379 . S
C1250 H1234 0.931 . S
C1250 C1244 1.383 . S
C1250 C1249 1.379 . S
H1251 C1245 0.959 . S
H1252 C1245 0.961 . S
H1253 C1245 0.960 . S
H1254 C1246 0.930 . S
H1255 C1247 0.929 . S
H1256 C1264 0.929 . S
H1257 C1266 0.930 . S
H1258 C1268 0.930 . S
H1259 C1271 0.929 . S
H1260 C1274 0.930 . S
H1261 C1276 0.960 . S
H1262 C1276 0.960 . S
H1263 C1276 0.960 . S
C1264 H1256 0.929 . S
C1264 C1265 1.377 . S
C1264 C1266 1.384 . S
C1265 C1264 1.377 . S
C1265 C1271 1.390 . S
C1266 H1257 0.930 . S
C1266 C1264 1.384 . S
C1266 C1267 1.372 . S
C1267 C1266 1.372 . S
C1267 C1268 1.400 . S
C1267 C1272 1.490 . S
C1268 H1258 0.930 . S
C1268 C1267 1.400 . S
C1268 C1271 1.386 . S
H1269 C1285 0.930 . S
H1270 C1286 0.931 . S
C1271 H1259 0.929 . S
C1271 C1265 1.390 . S
C1271 C1268 1.386 . S
C1272 C1267 1.490 . S
C1272 C1274 1.395 . S
C1272 C1275 1.403 . S
H1273 C1279 0.930 . S
C1274 H1260 0.930 . S
C1274 C1272 1.395 . S
C1274 C1277 1.403 . S
C1275 C1272 1.403 . S
C1275 C1276 1.524 . S
C1275 C1279 1.400 . S
C1276 H1261 0.960 . S
C1276 H1262 0.960 . S
C1276 H1263 0.960 . S
C1276 C1275 1.524 . S
C1277 C1274 1.403 . S
C1277 C1278 1.392 . S
C1277 C1281 1.495 . S
C1278 C1277 1.392 . S
C1278 C1279 1.385 . S
C1278 C1280 1.478 . S
C1279 H1273 0.930 . S
C1279 C1275 1.400 . S
C1279 C1278 1.385 . S
C1280 C1278 1.478 . S
C1280 C1282 1.381 . S
C1280 C1286 1.383 . S
C1281 C1277 1.495 . S
C1281 H1287 0.959 . S
C1281 H1288 0.961 . S
C1281 H1289 0.960 . S
C1282 C1280 1.381 . S
C1282 C1283 1.394 . S
C1282 H1290 0.930 . S
C1283 C1282 1.394 . S
C1283 C1284 1.383 . S
C1283 H1291 0.929 . S
C1284 C1283 1.383 . S
C1284 C1285 1.377 . S
C1285 H1269 0.930 . S
C1285 C1284 1.377 . S
C1285 C1286 1.379 . S
C1286 H1270 0.931 . S
C1286 C1280 1.383 . S
C1286 C1285 1.379 . S
H1287 C1281 0.959 . S
H1288 C1281 0.961 . S
H1289 C1281 0.960 . S
H1290 C1282 0.930 . S
H1291 C1283 0.929 . S
H1292 C1300 0.929 . S
H1293 C1302 0.930 . S
H1294 C1304 0.930 . S
H1295 C1307 0.929 . S
H1296 C1310 0.930 . S
H1297 C1312 0.960 . S
H1298 C1312 0.960 . S
H1299 C1312 0.960 . S
C1300 H1292 0.929 . S
C1300 C1301 1.377 . S
C1300 C1302 1.384 . S
C1301 C1300 1.377 . S
C1301 C1307 1.390 . S
C1302 H1293 0.930 . S
C1302 C1300 1.384 . S
C1302 C1303 1.372 . S
C1303 C1302 1.372 . S
C1303 C1304 1.400 . S
C1303 C1308 1.490 . S
C1304 H1294 0.930 . S
C1304 C1303 1.400 . S
C1304 C1307 1.386 . S
H1305 C1321 0.930 . S
H1306 C1322 0.931 . S
C1307 H1295 0.929 . S
C1307 C1301 1.390 . S
C1307 C1304 1.386 . S
C1308 C1303 1.490 . S
C1308 C1310 1.395 . S
C1308 C1311 1.403 . S
H1309 C1315 0.930 . S
C1310 H1296 0.930 . S
C1310 C1308 1.395 . S
C1310 C1313 1.403 . S
C1311 C1308 1.403 . S
C1311 C1312 1.524 . S
C1311 C1315 1.400 . S
C1312 H1297 0.960 . S
C1312 H1298 0.960 . S
C1312 H1299 0.960 . S
C1312 C1311 1.524 . S
C1313 C1310 1.403 . S
C1313 C1314 1.392 . S
C1313 C1317 1.495 . S
C1314 C1313 1.392 . S
C1314 C1315 1.385 . S
C1314 C1316 1.478 . S
C1315 H1309 0.930 . S
C1315 C1311 1.400 . S
C1315 C1314 1.385 . S
C1316 C1314 1.478 . S
C1316 C1318 1.381 . S
C1316 C1322 1.383 . S
C1317 C1313 1.495 . S
C1317 H1323 0.959 . S
C1317 H1324 0.961 . S
C1317 H1325 0.960 . S
C1318 C1316 1.381 . S
C1318 C1319 1.394 . S
C1318 H1326 0.930 . S
C1319 C1318 1.394 . S
C1319 C1320 1.383 . S
C1319 H1327 0.929 . S
C1320 C1319 1.383 . S
C1320 C1321 1.377 . S
C1321 H1305 0.930 . S
C1321 C1320 1.377 . S
C1321 C1322 1.379 . S
C1322 H1306 0.931 . S
C1322 C1316 1.383 . S
C1322 C1321 1.379 . S
H1323 C1317 0.959 . S
H1324 C1317 0.961 . S
H1325 C1317 0.960 . S
H1326 C1318 0.930 . S
H1327 C1319 0.929 . S
H1328 C1336 0.929 . S
H1329 C1338 0.930 . S
H1330 C1340 0.930 . S
H1331 C1343 0.929 . S
H1332 C1346 0.930 1_655 S
H1333 C1348 0.961 1_455 S
H1334 C1348 0.959 . S
H1335 C1348 0.959 . S
C1336 H1328 0.929 . S
C1336 C1337 1.377 . S
C1336 C1338 1.384 . S
C1337 C1336 1.377 . S
C1337 C1343 1.390 . S
C1338 H1329 0.930 . S
C1338 C1336 1.384 . S
C1338 C1339 1.372 . S
C1339 C1338 1.372 . S
C1339 C1340 1.400 . S
C1339 C1344 1.490 . S
C1340 H1330 0.930 . S
C1340 C1339 1.400 . S
C1340 C1343 1.386 . S
H1341 C1357 0.930 . S
H1342 C1358 0.931 . S
C1343 H1331 0.929 . S
C1343 C1337 1.390 . S
C1343 C1340 1.386 . S
C1344 C1339 1.490 . S
C1344 C1346 1.395 1_655 S
C1344 C1347 1.403 1_655 S
H1345 C1351 0.930 . S
C1346 H1332 0.930 1_455 S
C1346 C1344 1.395 1_455 S
C1346 C1349 1.403 . S
C1347 C1344 1.403 1_455 S
C1347 C1348 1.524 1_455 S
C1347 C1351 1.400 . S
C1348 H1333 0.961 1_655 S
C1348 H1334 0.959 . S
C1348 H1335 0.959 . S
C1348 C1347 1.524 1_655 S
C1349 C1346 1.403 . S
C1349 C1350 1.392 . S
C1349 C1353 1.495 1_556 S
C1350 C1349 1.392 . S
C1350 C1351 1.385 . S
C1350 C1352 1.478 . S
C1351 H1345 0.930 . S
C1351 C1347 1.400 . S
C1351 C1350 1.385 . S
C1352 C1350 1.478 . S
C1352 C1354 1.381 . S
C1352 C1358 1.383 . S
C1353 C1349 1.495 1_554 S
C1353 H1359 0.959 . S
C1353 H1360 0.961 . S
C1353 H1361 0.960 . S
C1354 C1352 1.381 . S
C1354 C1355 1.394 . S
C1354 H1362 0.930 1_556 S
C1355 C1354 1.394 . S
C1355 C1356 1.383 . S
C1355 H1363 0.929 1_556 S
C1356 C1355 1.383 . S
C1356 C1357 1.377 . S
C1357 H1341 0.930 . S
C1357 C1356 1.377 . S
C1357 C1358 1.379 . S
C1358 H1342 0.931 . S
C1358 C1352 1.383 . S
C1358 C1357 1.379 . S
H1359 C1353 0.959 . S
H1360 C1353 0.961 . S
H1361 C1353 0.960 . S
H1362 C1354 0.930 1_554 S
H1363 C1355 0.929 1_554 S
H1364 C1372 0.929 . S
H1365 C1374 0.930 . S
H1366 C1376 0.930 . S
H1367 C1379 0.929 . S
H1368 C1382 0.930 . S
H1369 C1384 0.960 . S
H1370 C1384 0.960 . S
H1371 C1384 0.960 . S
C1372 H1364 0.929 . S
C1372 C1373 1.377 . S
C1372 C1374 1.384 . S
C1373 C1372 1.377 . S
C1373 C1379 1.390 . S
C1374 H1365 0.930 . S
C1374 C1372 1.384 . S
C1374 C1375 1.372 . S
C1375 C1374 1.372 . S
C1375 C1376 1.400 . S
C1375 C1380 1.490 . S
C1376 H1366 0.930 . S
C1376 C1375 1.400 . S
C1376 C1379 1.386 . S
H1377 C1393 0.930 . S
H1378 C1394 0.931 . S
C1379 H1367 0.929 . S
C1379 C1373 1.390 . S
C1379 C1376 1.386 . S
C1380 C1375 1.490 . S
C1380 C1382 1.395 . S
C1380 C1383 1.403 . S
H1381 C1387 0.930 . S
C1382 H1368 0.930 . S
C1382 C1380 1.395 . S
C1382 C1385 1.403 . S
C1383 C1380 1.403 . S
C1383 C1384 1.524 . S
C1383 C1387 1.400 . S
C1384 H1369 0.960 . S
C1384 H1370 0.960 . S
C1384 H1371 0.960 . S
C1384 C1383 1.524 . S
C1385 C1382 1.403 . S
C1385 C1386 1.392 . S
C1385 C1389 1.495 . S
C1386 C1385 1.392 . S
C1386 C1387 1.385 . S
C1386 C1388 1.478 . S
C1387 H1381 0.930 . S
C1387 C1383 1.400 . S
C1387 C1386 1.385 . S
C1388 C1386 1.478 . S
C1388 C1390 1.381 . S
C1388 C1394 1.383 . S
C1389 C1385 1.495 . S
C1389 H1395 0.959 . S
C1389 H1396 0.961 . S
C1389 H1397 0.960 . S
C1390 C1388 1.381 . S
C1390 C1391 1.394 . S
C1390 H1398 0.930 . S
C1391 C1390 1.394 . S
C1391 C1392 1.383 . S
C1391 H1399 0.929 . S
C1392 C1391 1.383 . S
C1392 C1393 1.377 . S
C1393 H1377 0.930 . S
C1393 C1392 1.377 . S
C1393 C1394 1.379 . S
C1394 H1378 0.931 . S
C1394 C1388 1.383 . S
C1394 C1393 1.379 . S
H1395 C1389 0.959 . S
H1396 C1389 0.961 . S
H1397 C1389 0.960 . S
H1398 C1390 0.930 . S
H1399 C1391 0.929 . S
H1400 C1408 0.929 . S
H1401 C1410 0.930 . S
H1402 C1412 0.930 . S
H1403 C1415 0.929 . S
H1404 C1418 0.930 . S
H1405 C1420 0.960 . S
H1406 C1420 0.960 . S
H1407 C1420 0.960 . S
C1408 H1400 0.929 . S
C1408 C1409 1.377 . S
C1408 C1410 1.384 . S
C1409 C1408 1.377 . S
C1409 C1415 1.390 . S
C1410 H1401 0.930 . S
C1410 C1408 1.384 . S
C1410 C1411 1.372 . S
C1411 C1410 1.372 . S
C1411 C1412 1.400 . S
C1411 C1416 1.490 . S
C1412 H1402 0.930 . S
C1412 C1411 1.400 . S
C1412 C1415 1.386 . S
H1413 C1429 0.930 . S
H1414 C1430 0.931 . S
C1415 H1403 0.929 . S
C1415 C1409 1.390 . S
C1415 C1412 1.386 . S
C1416 C1411 1.490 . S
C1416 C1418 1.395 . S
C1416 C1419 1.403 . S
H1417 C1423 0.930 . S
C1418 H1404 0.930 . S
C1418 C1416 1.395 . S
C1418 C1421 1.403 . S
C1419 C1416 1.403 . S
C1419 C1420 1.524 . S
C1419 C1423 1.400 . S
C1420 H1405 0.960 . S
C1420 H1406 0.960 . S
C1420 H1407 0.960 . S
C1420 C1419 1.524 . S
C1421 C1418 1.403 . S
C1421 C1422 1.392 . S
C1421 C1425 1.495 . S
C1422 C1421 1.392 . S
C1422 C1423 1.385 . S
C1422 C1424 1.478 . S
C1423 H1417 0.930 . S
C1423 C1419 1.400 . S
C1423 C1422 1.385 . S
C1424 C1422 1.478 . S
C1424 C1426 1.381 . S
C1424 C1430 1.383 . S
C1425 C1421 1.495 . S
C1425 H1431 0.959 . S
C1425 H1432 0.961 . S
C1425 H1433 0.960 . S
C1426 C1424 1.381 . S
C1426 C1427 1.394 . S
C1426 H1434 0.930 . S
C1427 C1426 1.394 . S
C1427 C1428 1.383 . S
C1427 H1435 0.929 . S
C1428 C1427 1.383 . S
C1428 C1429 1.377 . S
C1429 H1413 0.930 . S
C1429 C1428 1.377 . S
C1429 C1430 1.379 . S
C1430 H1414 0.931 . S
C1430 C1424 1.383 . S
C1430 C1429 1.379 . S
H1431 C1425 0.959 . S
H1432 C1425 0.961 . S
H1433 C1425 0.960 . S
H1434 C1426 0.930 . S
H1435 C1427 0.929 . S
H1436 C1444 0.929 . S
H1437 C1446 0.930 . S
H1438 C1448 0.930 . S
H1439 C1451 0.929 . S
H1440 C1454 0.930 1_455 S
H1441 C1456 0.960 1_655 S
H1442 C1456 0.960 . S
H1443 C1456 0.960 . S
C1444 H1436 0.929 . S
C1444 C1445 1.377 . S
C1444 C1446 1.384 . S
C1445 C1444 1.377 . S
C1445 C1451 1.390 . S
C1446 H1437 0.930 . S
C1446 C1444 1.384 . S
C1446 C1447 1.372 . S
C1447 C1446 1.372 . S
C1447 C1448 1.400 . S
C1447 C1452 1.490 . S
C1448 H1438 0.930 . S
C1448 C1447 1.400 . S
C1448 C1451 1.386 . S
H1449 C1465 0.930 1_556 S
H1450 C1466 0.931 1_556 S
C1451 H1439 0.929 . S
C1451 C1445 1.390 . S
C1451 C1448 1.386 . S
C1452 C1447 1.490 . S
C1452 C1454 1.395 1_455 S
C1452 C1455 1.403 1_455 S
H1453 C1459 0.930 . S
C1454 H1440 0.930 1_655 S
C1454 C1452 1.395 1_655 S
C1454 C1457 1.403 . S
C1455 C1452 1.403 1_655 S
C1455 C1456 1.524 1_655 S
C1455 C1459 1.400 . S
C1456 H1441 0.960 1_455 S
C1456 H1442 0.960 . S
C1456 H1443 0.960 . S
C1456 C1455 1.524 1_455 S
C1457 C1454 1.403 . S
C1457 C1458 1.392 . S
C1457 C1461 1.495 . S
C1458 C1457 1.392 . S
C1458 C1459 1.385 . S
C1458 C1460 1.478 . S
C1459 H1453 0.930 . S
C1459 C1455 1.400 . S
C1459 C1458 1.385 . S
C1460 C1458 1.478 . S
C1460 C1462 1.381 . S
C1460 C1466 1.383 . S
C1461 C1457 1.495 . S
C1461 H1467 0.959 . S
C1461 H1468 0.961 . S
C1461 H1469 0.960 . S
C1462 C1460 1.381 . S
C1462 C1463 1.394 . S
C1462 H1470 0.930 . S
C1463 C1462 1.394 . S
C1463 C1464 1.383 . S
C1463 H1471 0.929 . S
C1464 C1463 1.383 . S
C1464 C1465 1.377 . S
C1465 H1449 0.930 1_554 S
C1465 C1464 1.377 . S
C1465 C1466 1.379 . S
C1466 H1450 0.931 1_554 S
C1466 C1460 1.383 . S
C1466 C1465 1.379 . S
H1467 C1461 0.959 . S
H1468 C1461 0.961 . S
H1469 C1461 0.960 . S
H1470 C1462 0.930 . S
H1471 C1463 0.929 . S
H1472 C1480 0.929 . S
H1473 C1482 0.930 . S
H1474 C1484 0.930 . S
H1475 C1487 0.929 . S
H1476 C1490 0.930 . S
H1477 C1492 0.960 . S
H1478 C1492 0.960 . S
H1479 C1492 0.960 . S
C1480 H1472 0.929 . S
C1480 C1481 1.377 . S
C1480 C1482 1.384 . S
C1481 C1480 1.377 . S
C1481 C1487 1.390 . S
C1482 H1473 0.930 . S
C1482 C1480 1.384 . S
C1482 C1483 1.372 . S
C1483 C1482 1.372 . S
C1483 C1484 1.400 . S
C1483 C1488 1.490 . S
C1484 H1474 0.930 . S
C1484 C1483 1.400 . S
C1484 C1487 1.386 . S
H1485 C1501 0.930 . S
H1486 C1502 0.931 . S
C1487 H1475 0.929 . S
C1487 C1481 1.390 . S
C1487 C1484 1.386 . S
C1488 C1483 1.490 . S
C1488 C1490 1.395 . S
C1488 C1491 1.403 . S
H1489 C1495 0.930 . S
C1490 H1476 0.930 . S
C1490 C1488 1.395 . S
C1490 C1493 1.403 . S
C1491 C1488 1.403 . S
C1491 C1492 1.524 . S
C1491 C1495 1.400 . S
C1492 H1477 0.960 . S
C1492 H1478 0.960 . S
C1492 H1479 0.960 . S
C1492 C1491 1.524 . S
C1493 C1490 1.403 . S
C1493 C1494 1.392 . S
C1493 C1497 1.495 . S
C1494 C1493 1.392 . S
C1494 C1495 1.385 . S
C1494 C1496 1.478 . S
C1495 H1489 0.930 . S
C1495 C1491 1.400 . S
C1495 C1494 1.385 . S
C1496 C1494 1.478 . S
C1496 C1498 1.381 . S
C1496 C1502 1.383 . S
C1497 C1493 1.495 . S
C1497 H1503 0.959 . S
C1497 H1504 0.961 . S
C1497 H1505 0.960 . S
C1498 C1496 1.381 . S
C1498 C1499 1.394 1_554 S
C1498 H1506 0.925 1_554 S
C1499 C1498 1.394 1_556 S
C1499 C1500 1.383 1_556 S
C1499 H1507 0.929 . S
C1500 C1499 1.383 1_554 S
C1500 C1501 1.377 . S
C1501 H1485 0.930 . S
C1501 C1500 1.377 . S
C1501 C1502 1.379 . S
C1502 H1486 0.931 . S
C1502 C1496 1.383 . S
C1502 C1501 1.379 . S
H1503 C1497 0.959 . S
H1504 C1497 0.961 . S
H1505 C1497 0.960 . S
H1506 C1498 0.925 1_556 S
H1507 C1499 0.929 . S
H1508 C1516 0.929 . S
H1509 C1518 0.930 . S
H1510 C1520 0.930 . S
H1511 C1523 0.929 . S
H1512 C1526 0.930 . S
H1513 C1528 0.960 . S
H1514 C1528 0.960 . S
H1515 C1528 0.960 . S
C1516 H1508 0.929 . S
C1516 C1517 1.377 . S
C1516 C1518 1.384 . S
C1517 C1516 1.377 . S
C1517 C1523 1.390 . S
C1518 H1509 0.930 . S
C1518 C1516 1.384 . S
C1518 C1519 1.372 . S
C1519 C1518 1.372 . S
C1519 C1520 1.400 . S
C1519 C1524 1.490 . S
C1520 H1510 0.930 . S
C1520 C1519 1.400 . S
C1520 C1523 1.386 . S
H1521 C1537 0.930 . S
H1522 C1538 0.931 . S
C1523 H1511 0.929 . S
C1523 C1517 1.390 . S
C1523 C1520 1.386 . S
C1524 C1519 1.490 . S
C1524 C1526 1.395 . S
C1524 C1527 1.403 . S
H1525 C1531 0.930 . S
C1526 H1512 0.930 . S
C1526 C1524 1.395 . S
C1526 C1529 1.403 . S
C1527 C1524 1.403 . S
C1527 C1528 1.524 . S
C1527 C1531 1.400 . S
C1528 H1513 0.960 . S
C1528 H1514 0.960 . S
C1528 H1515 0.960 . S
C1528 C1527 1.524 . S
C1529 C1526 1.403 . S
C1529 C1530 1.392 . S
C1529 C1533 1.495 . S
C1530 C1529 1.392 . S
C1530 C1531 1.385 . S
C1530 C1532 1.478 . S
C1531 H1525 0.930 . S
C1531 C1527 1.400 . S
C1531 C1530 1.385 . S
C1532 C1530 1.478 . S
C1532 C1534 1.381 . S
C1532 C1538 1.383 . S
C1533 C1529 1.495 . S
C1533 H1539 0.959 . S
C1533 H1540 0.961 . S
C1533 H1541 0.960 . S
C1534 C1532 1.381 . S
C1534 C1535 1.394 . S
C1534 H1542 0.930 . S
C1535 C1534 1.394 . S
C1535 C1536 1.383 . S
C1535 H1543 0.929 . S
C1536 C1535 1.383 . S
C1536 C1537 1.377 . S
C1537 H1521 0.930 . S
C1537 C1536 1.377 . S
C1537 C1538 1.379 . S
C1538 H1522 0.931 . S
C1538 C1532 1.383 . S
C1538 C1537 1.379 . S
H1539 C1533 0.959 . S
H1540 C1533 0.961 . S
H1541 C1533 0.960 . S
H1542 C1534 0.930 . S
H1543 C1535 0.929 . S
H1544 C1552 0.929 . S
H1545 C1554 0.930 . S
H1546 C1556 0.930 . S
H1547 C1559 0.929 . S
H1548 C1562 0.930 . S
H1549 C1564 0.960 . S
H1550 C1564 0.960 . S
H1551 C1564 0.960 . S
C1552 H1544 0.929 . S
C1552 C1553 1.377 . S
C1552 C1554 1.384 . S
C1553 C1552 1.377 . S
C1553 C1559 1.390 . S
C1554 H1545 0.930 . S
C1554 C1552 1.384 . S
C1554 C1555 1.372 . S
C1555 C1554 1.372 . S
C1555 C1556 1.400 . S
C1555 C1560 1.490 . S
C1556 H1546 0.930 . S
C1556 C1555 1.400 . S
C1556 C1559 1.386 . S
H1557 C1573 0.930 . S
H1558 C1574 0.931 . S
C1559 H1547 0.929 . S
C1559 C1553 1.390 . S
C1559 C1556 1.386 . S
C1560 C1555 1.490 . S
C1560 C1562 1.395 . S
C1560 C1563 1.403 . S
H1561 C1567 0.930 . S
C1562 H1548 0.930 . S
C1562 C1560 1.395 . S
C1562 C1565 1.403 . S
C1563 C1560 1.403 . S
C1563 C1564 1.524 . S
C1563 C1567 1.400 . S
C1564 H1549 0.960 . S
C1564 H1550 0.960 . S
C1564 H1551 0.960 . S
C1564 C1563 1.524 . S
C1565 C1562 1.403 . S
C1565 C1566 1.392 . S
C1565 C1569 1.495 . S
C1566 C1565 1.392 . S
C1566 C1567 1.385 . S
C1566 C1568 1.478 . S
C1567 H1561 0.930 . S
C1567 C1563 1.400 . S
C1567 C1566 1.385 . S
C1568 C1566 1.478 . S
C1568 C1570 1.381 . S
C1568 C1574 1.383 . S
C1569 C1565 1.495 . S
C1569 H1575 0.959 . S
C1569 H1576 0.961 . S
C1569 H1577 0.960 . S
C1570 C1568 1.381 . S
C1570 C1571 1.394 . S
C1570 H1578 0.930 . S
C1571 C1570 1.394 . S
C1571 C1572 1.383 . S
C1571 H1579 0.929 . S
C1572 C1571 1.383 . S
C1572 C1573 1.377 . S
C1573 H1557 0.930 . S
C1573 C1572 1.377 . S
C1573 C1574 1.379 . S
C1574 H1558 0.931 . S
C1574 C1568 1.383 . S
C1574 C1573 1.379 . S
H1575 C1569 0.959 . S
H1576 C1569 0.961 . S
H1577 C1569 0.960 . S
H1578 C1570 0.930 . S
H1579 C1571 0.929 . S
H1580 C1588 0.929 . S
H1581 C1590 0.930 . S
H1582 C1592 0.930 . S
H1583 C1595 0.929 . S
H1584 C1598 0.930 . S
H1585 C1600 0.960 . S
H1586 C1600 0.960 . S
H1587 C1600 0.960 . S
C1588 H1580 0.929 . S
C1588 C1589 1.377 . S
C1588 C1590 1.384 . S
C1589 C1588 1.377 . S
C1589 C1595 1.390 . S
C1590 H1581 0.930 . S
C1590 C1588 1.384 . S
C1590 C1591 1.372 . S
C1591 C1590 1.372 . S
C1591 C1592 1.400 . S
C1591 C1596 1.490 . S
C1592 H1582 0.930 . S
C1592 C1591 1.400 . S
C1592 C1595 1.386 . S
H1593 C1609 0.930 . S
H1594 C1610 0.931 . S
C1595 H1583 0.929 . S
C1595 C1589 1.390 . S
C1595 C1592 1.386 . S
C1596 C1591 1.490 . S
C1596 C1598 1.395 . S
C1596 C1599 1.403 . S
H1597 C1603 0.930 . S
C1598 H1584 0.930 . S
C1598 C1596 1.395 . S
C1598 C1601 1.403 . S
C1599 C1596 1.403 . S
C1599 C1600 1.524 . S
C1599 C1603 1.400 . S
C1600 H1585 0.960 . S
C1600 H1586 0.960 . S
C1600 H1587 0.960 . S
C1600 C1599 1.524 . S
C1601 C1598 1.403 . S
C1601 C1602 1.392 . S
C1601 C1605 1.495 . S
C1602 C1601 1.392 . S
C1602 C1603 1.385 . S
C1602 C1604 1.478 . S
C1603 H1597 0.930 . S
C1603 C1599 1.400 . S
C1603 C1602 1.385 . S
C1604 C1602 1.478 . S
C1604 C1606 1.381 . S
C1604 C1610 1.383 . S
C1605 C1601 1.495 . S
C1605 H1611 0.959 . S
C1605 H1612 0.961 . S
C1605 H1613 0.960 . S
C1606 C1604 1.381 . S
C1606 C1607 1.394 . S
C1606 H1614 0.930 . S
C1607 C1606 1.394 . S
C1607 C1608 1.383 . S
C1607 H1615 0.929 . S
C1608 C1607 1.383 . S
C1608 C1609 1.377 . S
C1609 H1593 0.930 . S
C1609 C1608 1.377 . S
C1609 C1610 1.379 . S
C1610 H1594 0.931 . S
C1610 C1604 1.383 . S
C1610 C1609 1.379 . S
H1611 C1605 0.959 . S
H1612 C1605 0.961 . S
H1613 C1605 0.960 . S
H1614 C1606 0.930 . S
H1615 C1607 0.929 . S
H1616 C1624 0.929 . S
H1617 C1626 0.930 . S
H1618 C1628 0.930 . S
H1619 C1631 0.923 1_554 S
H1620 C1634 0.930 . S
H1621 C1636 0.960 . S
H1622 C1636 0.960 . S
H1623 C1636 0.960 . S
C1624 H1616 0.929 . S
C1624 C1625 1.377 . S
C1624 C1626 1.384 . S
C1625 C1624 1.377 . S
C1625 C1631 1.391 . S
C1626 H1617 0.930 . S
C1626 C1624 1.384 . S
C1626 C1627 1.372 . S
C1627 C1626 1.372 . S
C1627 C1628 1.400 . S
C1627 C1632 1.490 . S
C1628 H1618 0.930 . S
C1628 C1627 1.400 . S
C1628 C1631 1.391 . S
H1629 C1645 0.930 . S
H1630 C1646 0.931 . S
C1631 H1619 0.923 1_556 S
C1631 C1625 1.391 . S
C1631 C1628 1.391 . S
C1632 C1627 1.490 . S
C1632 C1634 1.395 . S
C1632 C1635 1.403 . S
H1633 C1639 0.930 . S
C1634 H1620 0.930 . S
C1634 C1632 1.395 . S
C1634 C1637 1.403 . S
C1635 C1632 1.403 . S
C1635 C1636 1.524 . S
C1635 C1639 1.400 . S
C1636 H1621 0.960 . S
C1636 H1622 0.960 . S
C1636 H1623 0.960 . S
C1636 C1635 1.524 . S
C1637 C1634 1.403 . S
C1637 C1638 1.392 . S
C1637 C1641 1.495 . S
C1638 C1637 1.392 . S
C1638 C1639 1.385 . S
C1638 C1640 1.478 . S
C1639 H1633 0.930 . S
C1639 C1635 1.400 . S
C1639 C1638 1.385 . S
C1640 C1638 1.478 . S
C1640 C1642 1.381 . S
C1640 C1646 1.383 . S
C1641 C1637 1.495 . S
C1641 H1647 0.959 1_556 S
C1641 H1648 0.961 1_556 S
C1641 H1649 0.960 . S
C1642 C1640 1.381 . S
C1642 C1643 1.394 . S
C1642 H1650 0.930 . S
C1643 C1642 1.394 . S
C1643 C1644 1.383 . S
C1643 H1651 0.929 . S
C1644 C1643 1.383 . S
C1644 C1645 1.377 . S
C1645 H1629 0.930 . S
C1645 C1644 1.377 . S
C1645 C1646 1.379 . S
C1646 H1630 0.931 . S
C1646 C1640 1.383 . S
C1646 C1645 1.379 . S
H1647 C1641 0.959 1_554 S
H1648 C1641 0.961 1_554 S
H1649 C1641 0.960 . S
H1650 C1642 0.930 . S
H1651 C1643 0.929 . S
H1652 C1660 0.929 . S
H1653 C1662 0.930 . S
H1654 C1664 0.930 . S
H1655 C1667 0.929 . S
H1656 C1670 0.930 . S
H1657 C1672 0.960 . S
H1658 C1672 0.960 . S
H1659 C1672 0.960 . S
C1660 H1652 0.929 . S
C1660 C1661 1.377 . S
C1660 C1662 1.384 . S
C1661 C1660 1.377 . S
C1661 C1667 1.390 . S
C1662 H1653 0.930 . S
C1662 C1660 1.384 . S
C1662 C1663 1.372 . S
C1663 C1662 1.372 . S
C1663 C1664 1.400 . S
C1663 C1668 1.490 . S
C1664 H1654 0.930 . S
C1664 C1663 1.400 . S
C1664 C1667 1.386 . S
H1665 C1681 0.930 . S
H1666 C1682 0.931 . S
C1667 H1655 0.929 . S
C1667 C1661 1.390 . S
C1667 C1664 1.386 . S
C1668 C1663 1.490 . S
C1668 C1670 1.395 . S
C1668 C1671 1.403 . S
H1669 C1675 0.930 . S
C1670 H1656 0.930 . S
C1670 C1668 1.395 . S
C1670 C1673 1.403 . S
C1671 C1668 1.403 . S
C1671 C1672 1.524 . S
C1671 C1675 1.400 . S
C1672 H1657 0.960 . S
C1672 H1658 0.960 . S
C1672 H1659 0.960 . S
C1672 C1671 1.524 . S
C1673 C1670 1.403 . S
C1673 C1674 1.392 . S
C1673 C1677 1.495 . S
C1674 C1673 1.392 . S
C1674 C1675 1.385 . S
C1674 C1676 1.478 . S
C1675 H1669 0.930 . S
C1675 C1671 1.400 . S
C1675 C1674 1.385 . S
C1676 C1674 1.478 . S
C1676 C1678 1.381 . S
C1676 C1682 1.383 . S
C1677 C1673 1.495 . S
C1677 H1683 0.959 . S
C1677 H1684 0.961 . S
C1677 H1685 0.960 . S
C1678 C1676 1.381 . S
C1678 C1679 1.394 . S
C1678 H1686 0.930 . S
C1679 C1678 1.394 . S
C1679 C1680 1.383 . S
C1679 H1687 0.929 . S
C1680 C1679 1.383 . S
C1680 C1681 1.377 . S
C1681 H1665 0.930 . S
C1681 C1680 1.377 . S
C1681 C1682 1.379 . S
C1682 H1666 0.931 . S
C1682 C1676 1.383 . S
C1682 C1681 1.379 . S
H1683 C1677 0.959 . S
H1684 C1677 0.961 . S
H1685 C1677 0.960 . S
H1686 C1678 0.930 . S
H1687 C1679 0.929 . S
H1688 C1696 0.929 . S
H1689 C1698 0.930 . S
H1690 C1700 0.930 . S
H1691 C1703 0.929 . S
H1692 C1706 0.930 . S
H1693 C1708 0.960 . S
H1694 C1708 0.960 . S
H1695 C1708 0.960 . S
C1696 H1688 0.929 . S
C1696 C1697 1.377 . S
C1696 C1698 1.384 . S
C1697 C1696 1.377 . S
C1697 C1703 1.390 . S
C1698 H1689 0.930 . S
C1698 C1696 1.384 . S
C1698 C1699 1.372 . S
C1699 C1698 1.372 . S
C1699 C1700 1.400 . S
C1699 C1704 1.490 . S
C1700 H1690 0.930 . S
C1700 C1699 1.400 . S
C1700 C1703 1.386 . S
H1701 C1717 0.930 . S
H1702 C1718 0.931 . S
C1703 H1691 0.929 . S
C1703 C1697 1.390 . S
C1703 C1700 1.386 . S
C1704 C1699 1.490 . S
C1704 C1706 1.395 . S
C1704 C1707 1.403 . S
H1705 C1711 0.930 . S
C1706 H1692 0.930 . S
C1706 C1704 1.395 . S
C1706 C1709 1.403 . S
C1707 C1704 1.403 . S
C1707 C1708 1.524 . S
C1707 C1711 1.400 . S
C1708 H1693 0.960 . S
C1708 H1694 0.960 . S
C1708 H1695 0.960 . S
C1708 C1707 1.524 . S
C1709 C1706 1.403 . S
C1709 C1710 1.392 . S
C1709 C1713 1.495 . S
C1710 C1709 1.392 . S
C1710 C1711 1.385 . S
C1710 C1712 1.478 . S
C1711 H1705 0.930 . S
C1711 C1707 1.400 . S
C1711 C1710 1.385 . S
C1712 C1710 1.478 . S
C1712 C1714 1.381 . S
C1712 C1718 1.383 . S
C1713 C1709 1.495 . S
C1713 H1719 0.959 . S
C1713 H1720 0.961 . S
C1713 H1721 0.960 . S
C1714 C1712 1.381 . S
C1714 C1715 1.394 . S
C1714 H1722 0.930 . S
C1715 C1714 1.394 . S
C1715 C1716 1.383 . S
C1715 H1723 0.929 . S
C1716 C1715 1.383 . S
C1716 C1717 1.377 . S
C1717 H1701 0.930 . S
C1717 C1716 1.377 . S
C1717 C1718 1.379 . S
C1718 H1702 0.931 . S
C1718 C1712 1.383 . S
C1718 C1717 1.379 . S
H1719 C1713 0.959 . S
H1720 C1713 0.961 . S
H1721 C1713 0.960 . S
H1722 C1714 0.930 . S
H1723 C1715 0.929 . S
H1724 C1732 0.929 . S
H1725 C1734 0.930 . S
H1726 C1736 0.930 . S
H1727 C1739 0.929 . S
H1728 C1742 0.930 . S
H1729 C1744 0.960 . S
H1730 C1744 0.960 . S
H1731 C1744 0.960 . S
C1732 H1724 0.929 . S
C1732 C1733 1.377 . S
C1732 C1734 1.384 . S
C1733 C1732 1.377 . S
C1733 C1739 1.390 . S
C1734 H1725 0.930 . S
C1734 C1732 1.384 . S
C1734 C1735 1.372 . S
C1735 C1734 1.372 . S
C1735 C1736 1.400 . S
C1735 C1740 1.490 . S
C1736 H1726 0.930 . S
C1736 C1735 1.400 . S
C1736 C1739 1.386 . S
H1737 C1753 0.930 . S
H1738 C1754 0.931 . S
C1739 H1727 0.929 . S
C1739 C1733 1.390 . S
C1739 C1736 1.386 . S
C1740 C1735 1.490 . S
C1740 C1742 1.395 . S
C1740 C1743 1.403 . S
H1741 C1747 0.930 . S
C1742 H1728 0.930 . S
C1742 C1740 1.395 . S
C1742 C1745 1.403 . S
C1743 C1740 1.403 . S
C1743 C1744 1.524 . S
C1743 C1747 1.400 . S
C1744 H1729 0.960 . S
C1744 H1730 0.960 . S
C1744 H1731 0.960 . S
C1744 C1743 1.524 . S
C1745 C1742 1.403 . S
C1745 C1746 1.392 . S
C1745 C1749 1.495 . S
C1746 C1745 1.392 . S
C1746 C1747 1.385 . S
C1746 C1748 1.478 . S
C1747 H1741 0.930 . S
C1747 C1743 1.400 . S
C1747 C1746 1.385 . S
C1748 C1746 1.478 . S
C1748 C1750 1.381 . S
C1748 C1754 1.383 . S
C1749 C1745 1.495 . S
C1749 H1755 0.959 . S
C1749 H1756 0.961 . S
C1749 H1757 0.960 . S
C1750 C1748 1.381 . S
C1750 C1751 1.394 . S
C1750 H1758 0.930 . S
C1751 C1750 1.394 . S
C1751 C1752 1.383 . S
C1751 H1759 0.929 . S
C1752 C1751 1.383 . S
C1752 C1753 1.377 . S
C1753 H1737 0.930 . S
C1753 C1752 1.377 . S
C1753 C1754 1.379 . S
C1754 H1738 0.931 . S
C1754 C1748 1.383 . S
C1754 C1753 1.379 . S
H1755 C1749 0.959 . S
H1756 C1749 0.961 . S
H1757 C1749 0.960 . S
H1758 C1750 0.930 . S
H1759 C1751 0.929 . S
H1760 C1768 0.929 . S
H1761 C1770 0.930 . S
H1762 C1772 0.930 . S
H1763 C1775 0.929 . S
H1764 C1778 0.930 . S
H1765 C1780 0.960 . S
H1766 C1780 0.960 . S
H1767 C1780 0.960 . S
C1768 H1760 0.929 . S
C1768 C1769 1.377 . S
C1768 C1770 1.384 . S
C1769 C1768 1.377 . S
C1769 C1775 1.390 . S
C1770 H1761 0.930 . S
C1770 C1768 1.384 . S
C1770 C1771 1.372 . S
C1771 C1770 1.372 . S
C1771 C1772 1.400 . S
C1771 C1776 1.490 . S
C1772 H1762 0.930 . S
C1772 C1771 1.400 . S
C1772 C1775 1.386 . S
H1773 C1789 0.930 . S
H1774 C1790 0.931 . S
C1775 H1763 0.929 . S
C1775 C1769 1.390 . S
C1775 C1772 1.386 . S
C1776 C1771 1.490 . S
C1776 C1778 1.395 1_565 S
C1776 C1779 1.403 . S
H1777 C1783 0.930 . S
C1778 H1764 0.930 . S
C1778 C1776 1.395 1_545 S
C1778 C1781 1.403 . S
C1779 C1776 1.403 . S
C1779 C1780 1.524 . S
C1779 C1783 1.400 1_565 S
C1780 H1765 0.960 . S
C1780 H1766 0.960 . S
C1780 H1767 0.960 . S
C1780 C1779 1.524 . S
C1781 C1778 1.403 . S
C1781 C1782 1.392 . S
C1781 C1785 1.495 . S
C1782 C1781 1.392 . S
C1782 C1783 1.385 . S
C1782 C1784 1.478 . S
C1783 H1777 0.930 . S
C1783 C1779 1.400 1_545 S
C1783 C1782 1.385 . S
C1784 C1782 1.478 . S
C1784 C1786 1.381 . S
C1784 C1790 1.383 . S
C1785 C1781 1.495 . S
C1785 H1791 0.959 . S
C1785 H1792 0.961 . S
C1785 H1793 0.960 . S
C1786 C1784 1.381 . S
C1786 C1787 1.394 . S
C1786 H1794 0.930 . S
C1787 C1786 1.394 . S
C1787 C1788 1.383 . S
C1787 H1795 0.929 . S
C1788 C1787 1.383 . S
C1788 C1789 1.377 . S
C1789 H1773 0.930 . S
C1789 C1788 1.377 . S
C1789 C1790 1.379 . S
C1790 H1774 0.931 . S
C1790 C1784 1.383 . S
C1790 C1789 1.379 . S
H1791 C1785 0.959 . S
H1792 C1785 0.961 . S
H1793 C1785 0.960 . S
H1794 C1786 0.930 . S
H1795 C1787 0.929 . S
H1796 C1804 0.929 . S
H1797 C1806 0.930 . S
H1798 C1808 0.930 . S
H1799 C1811 0.929 . S
H1800 C1814 0.930 . S
H1801 C1816 0.960 . S
H1802 C1816 0.960 . S
H1803 C1816 0.960 . S
C1804 H1796 0.929 . S
C1804 C1805 1.377 . S
C1804 C1806 1.384 . S
C1805 C1804 1.377 . S
C1805 C1811 1.390 . S
C1806 H1797 0.930 . S
C1806 C1804 1.384 . S
C1806 C1807 1.372 . S
C1807 C1806 1.372 . S
C1807 C1808 1.400 . S
C1807 C1812 1.490 . S
C1808 H1798 0.930 . S
C1808 C1807 1.400 . S
C1808 C1811 1.386 . S
H1809 C1825 0.930 . S
H1810 C1826 0.931 . S
C1811 H1799 0.929 . S
C1811 C1805 1.390 . S
C1811 C1808 1.386 . S
C1812 C1807 1.490 . S
C1812 C1814 1.395 . S
C1812 C1815 1.403 . S
H1813 C1819 0.930 . S
C1814 H1800 0.930 . S
C1814 C1812 1.395 . S
C1814 C1817 1.403 . S
C1815 C1812 1.403 . S
C1815 C1816 1.524 . S
C1815 C1819 1.400 . S
C1816 H1801 0.960 . S
C1816 H1802 0.960 . S
C1816 H1803 0.960 . S
C1816 C1815 1.524 . S
C1817 C1814 1.403 . S
C1817 C1818 1.392 . S
C1817 C1821 1.495 . S
C1818 C1817 1.392 . S
C1818 C1819 1.385 . S
C1818 C1820 1.478 . S
C1819 H1813 0.930 . S
C1819 C1815 1.400 . S
C1819 C1818 1.385 . S
C1820 C1818 1.478 . S
C1820 C1822 1.381 . S
C1820 C1826 1.383 . S
C1821 C1817 1.495 . S
C1821 H1827 0.959 . S
C1821 H1828 0.961 . S
C1821 H1829 0.960 . S
C1822 C1820 1.381 . S
C1822 C1823 1.394 . S
C1822 H1830 0.930 . S
C1823 C1822 1.394 . S
C1823 C1824 1.383 . S
C1823 H1831 0.929 . S
C1824 C1823 1.383 . S
C1824 C1825 1.377 . S
C1825 H1809 0.930 . S
C1825 C1824 1.377 . S
C1825 C1826 1.379 . S
C1826 H1810 0.931 . S
C1826 C1820 1.383 . S
C1826 C1825 1.379 . S
H1827 C1821 0.959 . S
H1828 C1821 0.961 . S
H1829 C1821 0.960 . S
H1830 C1822 0.930 . S
H1831 C1823 0.929 . S
H1832 C1840 0.929 . S
H1833 C1842 0.930 . S
H1834 C1844 0.930 . S
H1835 C1847 0.929 . S
H1836 C1850 0.930 . S
H1837 C1852 0.960 . S
H1838 C1852 0.960 . S
H1839 C1852 0.960 . S
C1840 H1832 0.929 . S
C1840 C1841 1.377 . S
C1840 C1842 1.384 . S
C1841 C1840 1.377 . S
C1841 C1847 1.390 . S
C1842 H1833 0.930 . S
C1842 C1840 1.384 . S
C1842 C1843 1.372 . S
C1843 C1842 1.372 . S
C1843 C1844 1.400 . S
C1843 C1848 1.490 . S
C1844 H1834 0.930 . S
C1844 C1843 1.400 . S
C1844 C1847 1.386 . S
H1845 C1861 0.930 . S
H1846 C1862 0.931 . S
C1847 H1835 0.929 . S
C1847 C1841 1.390 . S
C1847 C1844 1.386 . S
C1848 C1843 1.490 . S
C1848 C1850 1.395 . S
C1848 C1851 1.403 . S
H1849 C1855 0.930 . S
C1850 H1836 0.930 . S
C1850 C1848 1.395 . S
C1850 C1853 1.403 . S
C1851 C1848 1.403 . S
C1851 C1852 1.524 . S
C1851 C1855 1.400 1_565 S
C1852 H1837 0.960 . S
C1852 H1838 0.960 . S
C1852 H1839 0.960 . S
C1852 C1851 1.524 . S
C1853 C1850 1.403 . S
C1853 C1854 1.392 1_565 S
C1853 C1857 1.504 1_554 S
C1854 C1853 1.392 1_545 S
C1854 C1855 1.385 . S
C1854 C1856 1.478 . S
C1855 H1849 0.930 . S
C1855 C1851 1.400 1_545 S
C1855 C1854 1.385 . S
C1856 C1854 1.478 . S
C1856 C1858 1.381 1_554 S
C1856 C1862 1.383 . S
C1857 C1853 1.504 1_556 S
C1857 H1863 0.995 . S
C1857 H1864 0.934 1_565 S
C1857 H1865 0.944 1_565 S
C1858 C1856 1.381 1_556 S
C1858 C1859 1.394 . S
C1858 H1866 0.930 . S
C1859 C1858 1.394 . S
C1859 C1860 1.383 1_556 S
C1859 H1867 0.929 . S
C1860 C1859 1.383 1_554 S
C1860 C1861 1.377 . S
C1861 H1845 0.930 . S
C1861 C1860 1.377 . S
C1861 C1862 1.379 . S
C1862 H1846 0.931 . S
C1862 C1856 1.383 . S
C1862 C1861 1.379 . S
H1863 C1857 0.995 . S
H1864 C1857 0.934 1_545 S
H1865 C1857 0.944 1_545 S
H1866 C1858 0.930 . S
H1867 C1859 0.929 . S
H1868 C1876 0.929 . S
H1869 C1878 0.930 . S
H1870 C1880 0.930 . S
H1871 C1883 0.929 . S
H1872 C1886 0.930 . S
H1873 C1888 0.960 . S
H1874 C1888 0.960 . S
H1875 C1888 0.960 . S
C1876 H1868 0.929 . S
C1876 C1877 1.377 . S
C1876 C1878 1.384 . S
C1877 C1876 1.377 . S
C1877 C1883 1.390 . S
C1878 H1869 0.930 . S
C1878 C1876 1.384 . S
C1878 C1879 1.372 . S
C1879 C1878 1.372 . S
C1879 C1880 1.400 . S
C1879 C1884 1.490 . S
C1880 H1870 0.930 . S
C1880 C1879 1.400 . S
C1880 C1883 1.386 . S
H1881 C1897 0.930 . S
H1882 C1898 0.931 . S
C1883 H1871 0.929 . S
C1883 C1877 1.390 . S
C1883 C1880 1.386 . S
C1884 C1879 1.490 . S
C1884 C1886 1.395 . S
C1884 C1887 1.403 . S
H1885 C1891 0.930 . S
C1886 H1872 0.930 . S
C1886 C1884 1.395 . S
C1886 C1889 1.403 . S
C1887 C1884 1.403 . S
C1887 C1888 1.524 . S
C1887 C1891 1.400 . S
C1888 H1873 0.960 . S
C1888 H1874 0.960 . S
C1888 H1875 0.960 . S
C1888 C1887 1.524 . S
C1889 C1886 1.403 . S
C1889 C1890 1.392 . S
C1889 C1893 1.495 . S
C1890 C1889 1.392 . S
C1890 C1891 1.385 . S
C1890 C1892 1.478 . S
C1891 H1885 0.930 . S
C1891 C1887 1.400 . S
C1891 C1890 1.385 . S
C1892 C1890 1.478 . S
C1892 C1894 1.381 . S
C1892 C1898 1.383 . S
C1893 C1889 1.495 . S
C1893 H1899 0.959 . S
C1893 H1900 0.961 . S
C1893 H1901 0.960 . S
C1894 C1892 1.381 . S
C1894 C1895 1.394 . S
C1894 H1902 0.930 . S
C1895 C1894 1.394 . S
C1895 C1896 1.383 . S
C1895 H1903 0.929 . S
C1896 C1895 1.383 . S
C1896 C1897 1.377 . S
C1897 H1881 0.930 . S
C1897 C1896 1.377 . S
C1897 C1898 1.379 . S
C1898 H1882 0.931 . S
C1898 C1892 1.383 . S
C1898 C1897 1.379 . S
H1899 C1893 0.959 . S
H1900 C1893 0.961 . S
H1901 C1893 0.960 . S
H1902 C1894 0.930 . S
H1903 C1895 0.929 . S
H1904 C1912 0.929 . S
H1905 C1914 0.930 . S
H1906 C1916 0.930 . S
H1907 C1919 0.929 . S
H1908 C1922 0.967 . S
H1909 C1924 0.961 1_545 S
H1910 C1924 0.960 . S
H1911 C1924 0.960 . S
C1912 H1904 0.929 . S
C1912 C1913 1.377 . S
C1912 C1914 1.384 . S
C1913 C1912 1.377 . S
C1913 C1919 1.390 . S
C1914 H1905 0.930 . S
C1914 C1912 1.384 . S
C1914 C1915 1.372 . S
C1915 C1914 1.372 . S
C1915 C1916 1.400 . S
C1915 C1920 1.490 . S
C1916 H1906 0.930 . S
C1916 C1915 1.400 . S
C1916 C1919 1.386 . S
H1917 C1933 0.930 . S
H1918 C1934 0.931 . S
C1919 H1907 0.929 . S
C1919 C1913 1.390 . S
C1919 C1916 1.386 . S
C1920 C1915 1.490 . S
C1920 C1922 1.428 . S
C1920 C1923 1.415 . S
H1921 C1927 0.930 . S
C1922 H1908 0.967 . S
C1922 C1920 1.428 . S
C1922 C1925 1.338 1_565 S
C1923 C1920 1.415 . S
C1923 C1924 1.534 . S
C1923 C1927 1.377 1_565 S
C1924 H1909 0.961 1_565 S
C1924 H1910 0.960 . S
C1924 H1911 0.960 . S
C1924 C1923 1.534 . S
C1925 C1922 1.338 1_545 S
C1925 C1926 1.392 . S
C1925 C1929 1.495 . S
C1926 C1925 1.392 . S
C1926 C1927 1.385 . S
C1926 C1928 1.478 . S
C1927 H1921 0.930 . S
C1927 C1923 1.377 1_545 S
C1927 C1926 1.385 . S
C1928 C1926 1.478 . S
C1928 C1930 1.381 . S
C1928 C1934 1.383 . S
C1929 C1925 1.495 . S
C1929 H1935 0.959 . S
C1929 H1936 0.961 . S
C1929 H1937 0.960 . S
C1930 C1928 1.381 . S
C1930 C1931 1.394 . S
C1930 H1938 0.930 . S
C1931 C1930 1.394 . S
C1931 C1932 1.383 . S
C1931 H1939 0.929 . S
C1932 C1931 1.383 . S
C1932 C1933 1.377 . S
C1933 H1917 0.930 . S
C1933 C1932 1.377 . S
C1933 C1934 1.379 . S
C1934 H1918 0.931 . S
C1934 C1928 1.383 . S
C1934 C1933 1.379 . S
H1935 C1929 0.959 . S
H1936 C1929 0.961 . S
H1937 C1929 0.960 . S
H1938 C1930 0.930 . S
H1939 C1931 0.929 . S
H1940 C1948 0.929 . S
H1941 C1950 0.930 . S
H1942 C1952 0.930 . S
H1943 C1955 0.929 . S
H1944 C1958 0.930 . S
H1945 C1960 0.960 . S
H1946 C1960 0.960 . S
H1947 C1960 0.960 . S
C1948 H1940 0.929 . S
C1948 C1949 1.377 . S
C1948 C1950 1.384 . S
C1949 C1948 1.377 . S
C1949 C1955 1.390 . S
C1950 H1941 0.930 . S
C1950 C1948 1.384 . S
C1950 C1951 1.372 . S
C1951 C1950 1.372 . S
C1951 C1952 1.400 . S
C1951 C1956 1.490 . S
C1952 H1942 0.930 . S
C1952 C1951 1.400 . S
C1952 C1955 1.386 . S
H1953 C1969 0.930 . S
H1954 C1970 0.931 . S
C1955 H1943 0.929 . S
C1955 C1949 1.390 . S
C1955 C1952 1.386 . S
C1956 C1951 1.490 . S
C1956 C1958 1.395 . S
C1956 C1959 1.403 . S
H1957 C1963 0.930 . S
C1958 H1944 0.930 . S
C1958 C1956 1.395 . S
C1958 C1961 1.403 . S
C1959 C1956 1.403 . S
C1959 C1960 1.524 . S
C1959 C1963 1.400 . S
C1960 H1945 0.960 . S
C1960 H1946 0.960 . S
C1960 H1947 0.960 . S
C1960 C1959 1.524 . S
C1961 C1958 1.403 . S
C1961 C1962 1.392 . S
C1961 C1965 1.495 . S
C1962 C1961 1.392 . S
C1962 C1963 1.385 . S
C1962 C1964 1.478 . S
C1963 H1957 0.930 . S
C1963 C1959 1.400 . S
C1963 C1962 1.385 . S
C1964 C1962 1.478 . S
C1964 C1966 1.381 . S
C1964 C1970 1.383 . S
C1965 C1961 1.495 . S
C1965 H1971 0.959 . S
C1965 H1972 0.961 . S
C1965 H1973 0.960 . S
C1966 C1964 1.381 . S
C1966 C1967 1.394 . S
C1966 H1974 0.930 . S
C1967 C1966 1.394 . S
C1967 C1968 1.383 . S
C1967 H1975 0.929 . S
C1968 C1967 1.383 . S
C1968 C1969 1.377 . S
C1969 H1953 0.930 . S
C1969 C1968 1.377 . S
C1969 C1970 1.379 . S
C1970 H1954 0.931 . S
C1970 C1964 1.383 . S
C1970 C1969 1.379 . S
H1971 C1965 0.959 . S
H1972 C1965 0.961 . S
H1973 C1965 0.960 . S
H1974 C1966 0.930 . S
H1975 C1967 0.929 . S
H1976 C1984 0.929 . S
H1977 C1986 0.930 . S
H1978 C1988 0.930 . S
H1979 C1991 0.929 . S
H1980 C1994 0.930 . S
H1981 C1996 0.960 . S
H1982 C1996 0.960 . S
H1983 C1996 0.960 . S
C1984 H1976 0.929 . S
C1984 C1985 1.377 . S
C1984 C1986 1.384 . S
C1985 C1984 1.377 . S
C1985 C1991 1.390 . S
C1986 H1977 0.930 . S
C1986 C1984 1.384 . S
C1986 C1987 1.372 . S
C1987 C1986 1.372 . S
C1987 C1988 1.400 . S
C1987 C1992 1.490 . S
C1988 H1978 0.930 . S
C1988 C1987 1.400 . S
C1988 C1991 1.386 . S
H1989 C2005 0.930 . S
H1990 C2006 0.931 . S
C1991 H1979 0.929 . S
C1991 C1985 1.390 . S
C1991 C1988 1.386 . S
C1992 C1987 1.490 . S
C1992 C1994 1.395 . S
C1992 C1995 1.403 . S
H1993 C1999 0.930 . S
C1994 H1980 0.930 . S
C1994 C1992 1.395 . S
C1994 C1997 1.403 . S
C1995 C1992 1.403 . S
C1995 C1996 1.524 . S
C1995 C1999 1.400 1_545 S
C1996 H1981 0.960 . S
C1996 H1982 0.960 . S
C1996 H1983 0.960 . S
C1996 C1995 1.524 . S
C1997 C1994 1.403 . S
C1997 C1998 1.392 1_545 S
C1997 C2001 1.485 1_546 S
C1998 C1997 1.392 1_565 S
C1998 C1999 1.385 . S
C1998 C2000 1.478 . S
C1999 H1993 0.930 . S
C1999 C1995 1.400 1_565 S
C1999 C1998 1.385 . S
C2000 C1998 1.478 . S
C2000 C2002 1.381 . S
C2000 C2006 1.383 1_556 S
C2001 C1997 1.485 1_564 S
C2001 H2007 0.925 1_565 S
C2001 H2008 0.974 . S
C2001 H2009 0.994 1_554 S
C2002 C2000 1.381 . S
C2002 C2003 1.394 . S
C2002 H2010 0.930 . S
C2003 C2002 1.394 . S
C2003 C2004 1.383 1_556 S
C2003 H2011 0.929 . S
C2004 C2003 1.383 1_554 S
C2004 C2005 1.377 . S
C2005 H1989 0.930 . S
C2005 C2004 1.377 . S
C2005 C2006 1.379 . S
C2006 H1990 0.931 . S
C2006 C2000 1.383 1_554 S
C2006 C2005 1.379 . S
H2007 C2001 0.925 1_545 S
H2008 C2001 0.974 . S
H2009 C2001 0.994 1_556 S
H2010 C2002 0.930 . S
H2011 C2003 0.929 . S
H2012 C2020 0.929 . S
H2013 C2022 0.930 . S
H2014 C2024 0.930 . S
H2015 C2027 0.929 . S
H2016 C2030 0.930 . S
H2017 C2032 0.960 . S
H2018 C2032 0.960 . S
H2019 C2032 0.960 . S
C2020 H2012 0.929 . S
C2020 C2021 1.377 . S
C2020 C2022 1.384 . S
C2021 C2020 1.377 . S
C2021 C2027 1.390 . S
C2022 H2013 0.930 . S
C2022 C2020 1.384 . S
C2022 C2023 1.372 . S
C2023 C2022 1.372 . S
C2023 C2024 1.400 . S
C2023 C2028 1.490 . S
C2024 H2014 0.930 . S
C2024 C2023 1.400 . S
C2024 C2027 1.386 . S
H2025 C2041 0.930 . S
H2026 C2042 0.931 . S
C2027 H2015 0.929 . S
C2027 C2021 1.390 . S
C2027 C2024 1.386 . S
C2028 C2023 1.490 . S
C2028 C2030 1.395 . S
C2028 C2031 1.403 . S
H2029 C2035 0.930 . S
C2030 H2016 0.930 . S
C2030 C2028 1.395 . S
C2030 C2033 1.403 . S
C2031 C2028 1.403 . S
C2031 C2032 1.524 . S
C2031 C2035 1.400 . S
C2032 H2017 0.960 . S
C2032 H2018 0.960 . S
C2032 H2019 0.960 . S
C2032 C2031 1.524 . S
C2033 C2030 1.403 . S
C2033 C2034 1.392 . S
C2033 C2037 1.495 . S
C2034 C2033 1.392 . S
C2034 C2035 1.385 . S
C2034 C2036 1.478 . S
C2035 H2029 0.930 . S
C2035 C2031 1.400 . S
C2035 C2034 1.385 . S
C2036 C2034 1.478 . S
C2036 C2038 1.381 . S
C2036 C2042 1.383 . S
C2037 C2033 1.495 . S
C2037 H2043 0.959 . S
C2037 H2044 0.961 . S
C2037 H2045 0.960 . S
C2038 C2036 1.381 . S
C2038 C2039 1.394 . S
C2038 H2046 0.930 . S
C2039 C2038 1.394 . S
C2039 C2040 1.383 . S
C2039 H2047 0.929 . S
C2040 C2039 1.383 . S
C2040 C2041 1.377 . S
C2041 H2025 0.930 . S
C2041 C2040 1.377 . S
C2041 C2042 1.379 . S
C2042 H2026 0.931 . S
C2042 C2036 1.383 . S
C2042 C2041 1.379 . S
H2043 C2037 0.959 . S
H2044 C2037 0.961 . S
H2045 C2037 0.960 . S
H2046 C2038 0.930 . S
H2047 C2039 0.929 . S
C329 C12 1.592 . S
C348 C9 1.590 . S
C365 C32 1.562 . S
C384 C29 1.548 . S
C401 C52 1.559 . S
C420 C49 1.546 . S
C437 C72 1.592 . S
C456 C69 1.598 . S
C473 C89 1.570 . S
C492 C92 1.560 . S
C509 C112 1.601 . S
C528 C109 1.589 . S
C545 C129 1.586 . S
C564 C132 1.590 . S
C581 C149 1.592 . S
C600 C152 1.598 . S
C617 C169 1.578 . S
C636 C172 1.574 . S
C653 C192 1.559 . S
C672 C189 1.566 . S
C689 C212 1.575 . S
C708 C209 1.565 . S
C725 C229 1.602 . S
C744 C232 1.594 . S
C761 C252 1.567 . S
C780 C249 1.553 . S
C797 C272 1.581 . S
C816 C269 1.574 . S
C833 C292 1.587 . S
C852 C289 1.574 . S
C869 C309 1.607 . S
C888 C312 1.599 . S
C905 C18 1.807 . S
C924 C222 1.786 . S
C941 C38 2.006 . S
C960 C319 2.010 . S
C977 C58 1.435 . S
C996 C182 1.420 . S
C1013 C78 1.568 . S
C1032 C262 1.572 . S
C1049 C84 1.681 . S
C1068 C279 1.695 . S
C1085 C239 1.805 . S
C1104 C104 1.803 . S
C1121 C124 1.372 . S
C1140 C302 1.414 . S
C1157 C144 1.484 . S
C1176 C199 1.499 . S
C1193 C64 1.727 . S
C1212 C179 1.751 . S
C1229 C24 1.828 . S
C1248 C219 1.834 . S
C1265 C242 1.714 . S
C1284 C118 1.725 . S
C1301 C158 1.708 . S
C1320 C282 1.713 . S
C1337 C162 1.537 . S
C1356 C98 1.547 . S
C1373 C138 1.449 . S
C1392 C202 1.452 . S
C1409 C44 1.544 . S
C1428 C299 1.573 . S
C1445 C4 1.576 . S
C1464 C259 1.566 . S
C1481 C19 1.622 . S
C1500 C82 1.533 . S
C1517 C39 1.769 . S
C1536 C102 1.713 . S
C1553 C59 1.363 . S
C1572 C122 1.326 . S
C1589 C79 1.524 . S
C1608 C142 1.431 . S
C1625 C244 1.631 . S
C1644 C178 1.706 . S
C1661 C264 1.387 . S
C1680 C198 1.450 . S
C1697 C218 1.642 . S
C1716 C284 1.564 . S
C1733 C318 1.938 . S
C1752 C238 1.940 . S
C1769 C22 1.746 . S
C1788 C159 1.839 . S
C1805 C99 1.557 . S
C1824 C42 1.459 . S
C1841 C119 1.628 . S
C1860 C62 1.577 . S
C1877 C2 1.303 . S
C1896 C139 1.358 . S
C1913 C304 1.200 . S
C1932 C184 1.192 . S
C1949 C258 1.540 . S
C1968 C204 1.469 . S
C1985 C278 1.696 . S
C2004 C224 1.634 . S
C2021 C298 1.472 . S
C2040 C164 1.446 . S
