# Generated by pormake.
# Topology uoi, (4)-cn, num edge types: 1
# Building blocks:
#     Node 0, Type 0, BuildingBlock: TATPOV_clean_sbu_0, # of connection points: 4
#     Node 1, Type 0, BuildingBlock: TATPOV_clean_sbu_0, # of connection points: 4
#     Node 2, Type 0, BuildingBlock: TATPOV_clean_sbu_0, # of connection points: 4
#     Node 3, Type 0, BuildingBlock: TATPOV_clean_sbu_0, # of connection points: 4
#     Node 4, Type 0, BuildingBlock: TATPOV_clean_sbu_0, # of connection points: 4
#     Node 5, Type 0, BuildingBlock: TATPOV_clean_sbu_0, # of connection points: 4
#     Node 6, Type 0, BuildingBlock: TATPOV_clean_sbu_0, # of connection points: 4
#     Node 7, Type 0, BuildingBlock: TATPOV_clean_sbu_0, # of connection points: 4
#     Node 8, Type 0, BuildingBlock: TATPOV_clean_sbu_0, # of connection points: 4
#     Node 9, Type 0, BuildingBlock: TATPOV_clean_sbu_0, # of connection points: 4
#     Node 10, Type 0, BuildingBlock: TATPOV_clean_sbu_0, # of connection points: 4
#     Node 11, Type 0, BuildingBlock: TATPOV_clean_sbu_0, # of connection points: 4
#     Node 12, Type 0, BuildingBlock: TATPOV_clean_sbu_0, # of connection points: 4
#     Node 13, Type 0, BuildingBlock: TATPOV_clean_sbu_0, # of connection points: 4
#     Node 14, Type 0, BuildingBlock: TATPOV_clean_sbu_0, # of connection points: 4
#     Node 15, Type 0, BuildingBlock: TATPOV_clean_sbu_0, # of connection points: 4
#     Node 16, Type 0, BuildingBlock: TATPOV_clean_sbu_0, # of connection points: 4
#     Node 17, Type 0, BuildingBlock: TATPOV_clean_sbu_0, # of connection points: 4
#     Node 18, Type 0, BuildingBlock: TATPOV_clean_sbu_0, # of connection points: 4
#     Node 19, Type 0, BuildingBlock: TATPOV_clean_sbu_0, # of connection points: 4
#     Node 20, Type 0, BuildingBlock: TATPOV_clean_sbu_0, # of connection points: 4
#     Node 21, Type 0, BuildingBlock: TATPOV_clean_sbu_0, # of connection points: 4
#     Node 22, Type 0, BuildingBlock: TATPOV_clean_sbu_0, # of connection points: 4
#     Node 23, Type 0, BuildingBlock: TATPOV_clean_sbu_0, # of connection points: 4
#     Node 24, Type 0, BuildingBlock: TATPOV_clean_sbu_0, # of connection points: 4
#     Node 25, Type 0, BuildingBlock: TATPOV_clean_sbu_0, # of connection points: 4
#     Node 26, Type 0, BuildingBlock: TATPOV_clean_sbu_0, # of connection points: 4
#     Node 27, Type 0, BuildingBlock: TATPOV_clean_sbu_0, # of connection points: 4
#     Node 28, Type 0, BuildingBlock: TATPOV_clean_sbu_0, # of connection points: 4
#     Node 29, Type 0, BuildingBlock: TATPOV_clean_sbu_0, # of connection points: 4
#     Node 30, Type 0, BuildingBlock: TATPOV_clean_sbu_0, # of connection points: 4
#     Node 31, Type 0, BuildingBlock: TATPOV_clean_sbu_0, # of connection points: 4
#     Edge 32, Type (0, 0), BuildingBlock: CIFDUS_clean_linker_0, # of connection points: 2
#     Edge 33, Type (0, 0), BuildingBlock: CIFDUS_clean_linker_0, # of connection points: 2
#     Edge 34, Type (0, 0), BuildingBlock: CIFDUS_clean_linker_0, # of connection points: 2
#     Edge 35, Type (0, 0), BuildingBlock: CIFDUS_clean_linker_0, # of connection points: 2
#     Edge 36, Type (0, 0), BuildingBlock: CIFDUS_clean_linker_0, # of connection points: 2
#     Edge 37, Type (0, 0), BuildingBlock: CIFDUS_clean_linker_0, # of connection points: 2
#     Edge 38, Type (0, 0), BuildingBlock: CIFDUS_clean_linker_0, # of connection points: 2
#     Edge 39, Type (0, 0), BuildingBlock: CIFDUS_clean_linker_0, # of connection points: 2
#     Edge 40, Type (0, 0), BuildingBlock: CIFDUS_clean_linker_0, # of connection points: 2
#     Edge 41, Type (0, 0), BuildingBlock: CIFDUS_clean_linker_0, # of connection points: 2
#     Edge 42, Type (0, 0), BuildingBlock: CIFDUS_clean_linker_0, # of connection points: 2
#     Edge 43, Type (0, 0), BuildingBlock: CIFDUS_clean_linker_0, # of connection points: 2
#     Edge 44, Type (0, 0), BuildingBlock: CIFDUS_clean_linker_0, # of connection points: 2
#     Edge 45, Type (0, 0), BuildingBlock: CIFDUS_clean_linker_0, # of connection points: 2
#     Edge 46, Type (0, 0), BuildingBlock: CIFDUS_clean_linker_0, # of connection points: 2
#     Edge 47, Type (0, 0), BuildingBlock: CIFDUS_clean_linker_0, # of connection points: 2
#     Edge 48, Type (0, 0), BuildingBlock: CIFDUS_clean_linker_0, # of connection points: 2
#     Edge 49, Type (0, 0), BuildingBlock: CIFDUS_clean_linker_0, # of connection points: 2
#     Edge 50, Type (0, 0), BuildingBlock: CIFDUS_clean_linker_0, # of connection points: 2
#     Edge 51, Type (0, 0), BuildingBlock: CIFDUS_clean_linker_0, # of connection points: 2
#     Edge 52, Type (0, 0), BuildingBlock: CIFDUS_clean_linker_0, # of connection points: 2
#     Edge 53, Type (0, 0), BuildingBlock: CIFDUS_clean_linker_0, # of connection points: 2
#     Edge 54, Type (0, 0), BuildingBlock: CIFDUS_clean_linker_0, # of connection points: 2
#     Edge 55, Type (0, 0), BuildingBlock: CIFDUS_clean_linker_0, # of connection points: 2
#     Edge 56, Type (0, 0), BuildingBlock: CIFDUS_clean_linker_0, # of connection points: 2
#     Edge 57, Type (0, 0), BuildingBlock: CIFDUS_clean_linker_0, # of connection points: 2
#     Edge 58, Type (0, 0), BuildingBlock: CIFDUS_clean_linker_0, # of connection points: 2
#     Edge 59, Type (0, 0), BuildingBlock: CIFDUS_clean_linker_0, # of connection points: 2
#     Edge 60, Type (0, 0), BuildingBlock: CIFDUS_clean_linker_0, # of connection points: 2
#     Edge 61, Type (0, 0), BuildingBlock: CIFDUS_clean_linker_0, # of connection points: 2
#     Edge 62, Type (0, 0), BuildingBlock: CIFDUS_clean_linker_0, # of connection points: 2
#     Edge 63, Type (0, 0), BuildingBlock: CIFDUS_clean_linker_0, # of connection points: 2
#     Edge 64, Type (0, 0), BuildingBlock: CIFDUS_clean_linker_0, # of connection points: 2
#     Edge 65, Type (0, 0), BuildingBlock: CIFDUS_clean_linker_0, # of connection points: 2
#     Edge 66, Type (0, 0), BuildingBlock: CIFDUS_clean_linker_0, # of connection points: 2
#     Edge 67, Type (0, 0), BuildingBlock: CIFDUS_clean_linker_0, # of connection points: 2
#     Edge 68, Type (0, 0), BuildingBlock: CIFDUS_clean_linker_0, # of connection points: 2
#     Edge 69, Type (0, 0), BuildingBlock: CIFDUS_clean_linker_0, # of connection points: 2
#     Edge 70, Type (0, 0), BuildingBlock: CIFDUS_clean_linker_0, # of connection points: 2
#     Edge 71, Type (0, 0), BuildingBlock: CIFDUS_clean_linker_0, # of connection points: 2
#     Edge 72, Type (0, 0), BuildingBlock: CIFDUS_clean_linker_0, # of connection points: 2
#     Edge 73, Type (0, 0), BuildingBlock: CIFDUS_clean_linker_0, # of connection points: 2
#     Edge 74, Type (0, 0), BuildingBlock: CIFDUS_clean_linker_0, # of connection points: 2
#     Edge 75, Type (0, 0), BuildingBlock: CIFDUS_clean_linker_0, # of connection points: 2
#     Edge 76, Type (0, 0), BuildingBlock: CIFDUS_clean_linker_0, # of connection points: 2
#     Edge 77, Type (0, 0), BuildingBlock: CIFDUS_clean_linker_0, # of connection points: 2
#     Edge 78, Type (0, 0), BuildingBlock: CIFDUS_clean_linker_0, # of connection points: 2
#     Edge 79, Type (0, 0), BuildingBlock: CIFDUS_clean_linker_0, # of connection points: 2
#     Edge 80, Type (0, 0), BuildingBlock: CIFDUS_clean_linker_0, # of connection points: 2
#     Edge 81, Type (0, 0), BuildingBlock: CIFDUS_clean_linker_0, # of connection points: 2
#     Edge 82, Type (0, 0), BuildingBlock: CIFDUS_clean_linker_0, # of connection points: 2
#     Edge 83, Type (0, 0), BuildingBlock: CIFDUS_clean_linker_0, # of connection points: 2
#     Edge 84, Type (0, 0), BuildingBlock: CIFDUS_clean_linker_0, # of connection points: 2
#     Edge 85, Type (0, 0), BuildingBlock: CIFDUS_clean_linker_0, # of connection points: 2
#     Edge 86, Type (0, 0), BuildingBlock: CIFDUS_clean_linker_0, # of connection points: 2
#     Edge 87, Type (0, 0), BuildingBlock: CIFDUS_clean_linker_0, # of connection points: 2
#     Edge 88, Type (0, 0), BuildingBlock: CIFDUS_clean_linker_0, # of connection points: 2
#     Edge 89, Type (0, 0), BuildingBlock: CIFDUS_clean_linker_0, # of connection points: 2
#     Edge 90, Type (0, 0), BuildingBlock: CIFDUS_clean_linker_0, # of connection points: 2
#     Edge 91, Type (0, 0), BuildingBlock: CIFDUS_clean_linker_0, # of connection points: 2
#     Edge 92, Type (0, 0), BuildingBlock: CIFDUS_clean_linker_0, # of connection points: 2
#     Edge 93, Type (0, 0), BuildingBlock: CIFDUS_clean_linker_0, # of connection points: 2
#     Edge 94, Type (0, 0), BuildingBlock: CIFDUS_clean_linker_0, # of connection points: 2
#     Edge 95, Type (0, 0), BuildingBlock: CIFDUS_clean_linker_0, # of connection points: 2
# Relax obj value: 0.271
# Max RMSD: 0.240
# Mean RMSD: 0.222
data_MOF--net-uoi--node1-TATPOV_clean_sbu_0--edge1-CIFDUS_clean_linker_0
_symmetry_space_group_name_H-M    P1
_symmetry_Int_Tables_number       1
_symmetry_cell_setting            triclinic
loop_
_symmetry_equiv_pos_as_xyz
'x, y, z'
_cell_length_a     72.589667
_cell_length_b     71.688684
_cell_length_c     17.382074
_cell_angle_alpha  90.131977
_cell_angle_beta   90.484649
_cell_angle_gamma 90.179235
loop_
_atom_site_label
_atom_site_type_symbol
_atom_site_fract_x
_atom_site_fract_y
_atom_site_fract_z
_atom_type_partial_charge
Zn0 Zn 0.22111 0.17177 0.17855 0.0
Zn1 Zn 0.18857 0.16814 0.21123 0.0
O2 O 0.20516 0.15254 0.2876 0.0
O3 O 0.23315 0.15208 0.24147 0.0
O4 O 0.16419 0.15398 0.20144 0.0
O5 O 0.22175 0.17165 0.06372 0.0
O6 O 0.19302 0.17553 0.09707 0.0
C7 C 0.22195 0.14728 0.29306 0.0
C8 C 0.20156 0.20335 0.26258 0.0
O9 O 0.18693 0.19341 0.26312 0.0
O10 O 0.21611 0.19702 0.23167 0.0
C11 C 0.16614 0.13952 0.15949 0.0
O12 O 0.18272 0.13562 0.13435 0.0
C13 C 0.20546 0.17615 0.04579 0.0
Zn14 Zn 0.05003 0.96124 0.42157 0.0
Zn15 Zn 0.0617 0.9305 0.45324 0.0
O16 O 0.07496 0.95086 0.52318 0.0
O17 O 0.06712 0.97821 0.47766 0.0
O18 O 0.07978 0.90895 0.44347 0.0
O19 O 0.04797 0.96144 0.30752 0.0
O20 O 0.05095 0.93221 0.3411 0.0
C21 C 0.07594 0.96868 0.52648 0.0
C22 C 0.02589 0.93538 0.51429 0.0
O23 O 0.03907 0.92366 0.51398 0.0
O24 O 0.02769 0.95096 0.48025 0.0
C25 C 0.07589 0.8918 0.45299 0.0
O26 O 0.05933 0.88716 0.47628 0.0
C27 C 0.04655 0.94435 0.29066 0.0
Zn28 Zn 0.26638 0.79372 0.65148 0.0
Zn29 Zn 0.29799 0.80602 0.68353 0.0
O30 O 0.27867 0.82081 0.74946 0.0
O31 O 0.25125 0.81211 0.70904 0.0
O32 O 0.32056 0.82299 0.678 0.0
O33 O 0.26706 0.79303 0.5369 0.0
O34 O 0.29592 0.79746 0.56941 0.0
C35 C 0.26112 0.82186 0.75394 0.0
C36 C 0.29139 0.76878 0.74298 0.0
O37 O 0.30315 0.78207 0.74227 0.0
O38 O 0.27591 0.77071 0.70923 0.0
C39 C 0.31784 0.83698 0.63424 0.0
O40 O 0.30138 0.8391 0.60347 0.0
C41 C 0.28386 0.79318 0.51862 0.0
Zn42 Zn 0.43744 0.01533 0.9098 0.0
Zn43 Zn 0.42502 0.04706 0.93616 0.0
O44 O 0.41047 0.02754 0.00416 0.0
O45 O 0.41972 -0.00019 0.96781 0.0
O46 O 0.40843 0.06996 0.92973 0.0
O47 O 0.43773 0.0148 0.79563 0.0
O48 O 0.43347 0.04439 0.82171 0.0
C49 C 0.40974 0.00977 0.01048 0.0
C50 C 0.46176 0.04148 -0.00093 0.0
O51 O 0.44847 0.05305 -0.00406 0.0
O52 O 0.46016 0.0256 0.96693 0.0
C53 C 0.3918 0.06677 0.90966 0.0
O54 O 0.38653 0.04938 0.89967 0.0
C55 C 0.4375 0.03157 0.77368 0.0
Zn56 Zn 0.22385 0.79817 0.28211 0.0
Zn57 Zn 0.19198 0.81023 0.25711 0.0
O58 O 0.21033 0.82424 0.1832 0.0
O59 O 0.23819 0.81576 0.21781 0.0
O60 O 0.16948 0.82719 0.26274 0.0
O61 O 0.22537 0.79918 0.39635 0.0
O62 O 0.19597 0.80318 0.37259 0.0
C63 C 0.22778 0.82513 0.17415 0.0
C64 C 0.19742 0.77241 0.20119 0.0
O65 O 0.18582 0.78574 0.20348 0.0
O66 O 0.21337 0.77453 0.23079 0.0
C67 C 0.15641 0.82408 0.30955 0.0
O68 O 0.15655 0.80856 0.34961 0.0
C69 C 0.20899 0.7997 0.42009 0.0
Zn70 Zn 0.43369 0.96756 0.53185 0.0
Zn71 Zn 0.42128 0.93596 0.50473 0.0
O72 O 0.40746 0.95548 0.43358 0.0
O73 O 0.41647 0.98326 0.47157 0.0
O74 O 0.40386 0.9136 0.51089 0.0
O75 O 0.43389 0.96858 0.64595 0.0
O76 O 0.42977 0.93897 0.61962 0.0
C77 C 0.40684 0.97325 0.42684 0.0
C78 C 0.45802 0.94109 0.44547 0.0
O79 O 0.44469 0.92947 0.44754 0.0
O80 O 0.45639 0.95701 0.47709 0.0
C81 C 0.4074 0.89971 0.55419 0.0
O82 O 0.42345 0.89901 0.58959 0.0
C83 C 0.43372 0.95182 0.66793 0.0
Zn84 Zn 0.2642 0.18417 0.81235 0.0
Zn85 Zn 0.29489 0.17123 0.77682 0.0
O86 O 0.27413 0.15681 0.71574 0.0
O87 O 0.24746 0.16612 0.7596 0.0
O88 O 0.31645 0.15313 0.77867 0.0
O89 O 0.26646 0.18558 0.92648 0.0
O90 O 0.29483 0.18068 0.89013 0.0
C91 C 0.25653 0.15604 0.71389 0.0
C92 C 0.28863 0.20807 0.71434 0.0
O93 O 0.30012 0.19462 0.71471 0.0
O94 O 0.27355 0.20657 0.75056 0.0
C95 C 0.33284 0.15738 0.79878 0.0
O96 O 0.33701 0.17494 0.81212 0.0
C97 C 0.28348 0.18547 0.94209 0.0
Zn98 Zn 0.04653 0.01742 0.03855 0.0
Zn99 Zn 0.05765 0.04822 0.00402 0.0
O100 O 0.07155 0.02739 0.94041 0.0
O101 O 0.06434 0.00023 -0.01062 0.0
O102 O 0.0759 0.06987 0.01331 0.0
O103 O 0.04319 0.01834 0.15191 0.0
O104 O 0.04583 0.04725 0.11358 0.0
C105 C 0.0731 0.00961 0.94023 0.0
C106 C 0.02272 0.04175 0.93553 0.0
O107 O 0.0355 0.05401 0.93716 0.0
O108 O 0.0247 0.02657 0.97242 0.0
C109 C 0.07292 0.08403 0.05584 0.0
O110 O 0.05674 0.08581 0.08833 0.0
C111 C 0.04117 0.03554 0.1651 0.0
Zn112 Zn 0.76661 0.79832 0.78911 0.0
Zn113 Zn 0.7999 0.80694 0.77667 0.0
O114 O 0.78444 0.82318 0.69877 0.0
O115 O 0.75527 0.81767 0.72196 0.0
O116 O 0.82383 0.82105 0.79753 0.0
O117 O 0.76324 0.79814 0.90284 0.0
O118 O 0.79314 0.79884 0.88781 0.0
C119 C 0.76742 0.82597 0.68309 0.0
C120 C 0.79165 0.77054 0.71336 0.0
O121 O 0.80455 0.78255 0.7209 0.0
O122 O 0.7756 0.77416 0.73802 0.0
C123 C 0.83175 0.83248 0.75271 0.0
O124 O 0.82498 0.83501 0.68318 0.0
C125 C 0.77923 0.79625 0.93082 0.0
Zn126 Zn 0.9521 -0.00168 0.50776 0.0
Zn127 Zn 0.92275 0.04403 0.49999 0.0
O128 O 0.90732 0.02593 0.43062 0.0
O129 O 0.92856 0.00543 0.45275 0.0
O130 O 0.90441 0.06402 0.53228 0.0
O131 O 0.95085 0.00622 0.61851 0.0
O132 O 0.93531 0.03315 0.60209 0.0
C133 C 0.91384 0.00981 0.41823 0.0
C134 C 0.95419 0.0379 0.43176 0.0
O135 O 0.94466 0.05276 0.43235 0.0
O136 O 0.94706 0.02399 0.46472 0.0
C137 C 0.90542 0.08114 0.55158 0.0
O138 O 0.92143 0.08974 0.55072 0.0
C139 C 0.94406 0.02137 0.64471 0.0
Zn140 Zn 0.71996 0.18791 0.29777 0.0
Zn141 Zn 0.68884 0.17442 0.26882 0.0
O142 O 0.70841 0.16039 0.20002 0.0
O143 O 0.73554 0.17075 0.23722 0.0
O144 O 0.66645 0.15712 0.27146 0.0
O145 O 0.72043 0.18731 0.41193 0.0
O146 O 0.69135 0.18215 0.38467 0.0
C147 C 0.72598 0.16038 0.19364 0.0
C148 C 0.69371 0.21227 0.21136 0.0
O149 O 0.68261 0.19843 0.21223 0.0
O150 O 0.70939 0.21098 0.24395 0.0
C151 C 0.65241 0.16118 0.31165 0.0
O152 O 0.65181 0.17754 0.34577 0.0
C153 C 0.70392 0.18627 0.43359 0.0
Zn154 Zn 0.54287 0.96365 0.02474 0.0
Zn155 Zn 0.5529 0.93082 0.00849 0.0
O156 O 0.568 0.94799 0.93344 0.0
O157 O 0.56099 0.97704 0.95951 0.0
O158 O 0.56905 0.90798 0.02496 0.0
O159 O 0.54276 0.9666 0.13864 0.0
O160 O 0.54416 0.9364 0.12039 0.0
C161 C 0.56989 0.96542 0.91986 0.0
C162 C 0.51668 0.93693 0.94562 0.0
O163 O 0.52925 0.9246 0.95076 0.0
O164 O 0.51945 0.95319 0.97288 0.0
C165 C 0.5681 0.89225 -0.00876 0.0
O166 O 0.55549 0.88956 0.93765 0.0
C167 C 0.54119 0.95026 0.16471 0.0
Zn168 Zn 0.76357 0.18823 0.67017 0.0
Zn169 Zn 0.79606 0.17716 0.69687 0.0
O170 O 0.77846 0.16136 0.76824 0.0
O171 O 0.75046 0.16971 0.73438 0.0
O172 O 0.82076 0.16371 0.69529 0.0
O173 O 0.76285 0.18664 0.55605 0.0
O174 O 0.79232 0.18322 0.58024 0.0
C175 C 0.76099 0.16008 0.77661 0.0
C176 C 0.78804 0.21516 0.75112 0.0
O177 O 0.79996 0.20215 0.74987 0.0
O178 O 0.77227 0.21261 0.72055 0.0
C179 C 0.82118 0.14672 0.67399 0.0
O180 O 0.80552 0.1381 0.65956 0.0
C181 C 0.77924 0.18623 0.5324 0.0
Zn182 Zn 0.54665 0.02036 0.42462 0.0
Zn183 Zn 0.55667 0.05302 0.4422 0.0
O184 O 0.57102 0.03572 0.52018 0.0
O185 O 0.56423 0.00668 0.49192 0.0
O186 O 0.57325 0.0758 0.42803 0.0
O187 O 0.54684 0.01715 0.31099 0.0
O188 O 0.54799 0.04737 0.32933 0.0
C189 C 0.57277 0.01828 0.53383 0.0
C190 C 0.52031 0.04704 0.50082 0.0
O191 O 0.53294 0.05941 0.49698 0.0
O192 O 0.5231 0.03078 0.47382 0.0
C193 C 0.5873 0.07246 0.3868 0.0
O194 O 0.58964 0.05538 0.36111 0.0
C195 C 0.54519 0.03346 0.28473 0.0
Zn196 Zn 0.71549 0.79989 0.18277 0.0
Zn197 Zn 0.68272 0.80985 0.20102 0.0
O198 O 0.70003 0.82483 0.27679 0.0
O199 O 0.72873 0.8184 0.24898 0.0
O200 O 0.65953 0.82578 0.19259 0.0
O201 O 0.71741 0.80004 0.06847 0.0
O202 O 0.6877 0.802 0.08745 0.0
C203 C 0.71727 0.82698 0.29023 0.0
C204 C 0.68991 0.77296 0.2608 0.0
O205 O 0.6775 0.78547 0.25551 0.0
O206 O 0.70589 0.77601 0.23412 0.0
C207 C 0.64743 0.82327 0.14 0.0
O208 O 0.64906 0.80893 0.09336 0.0
C209 C 0.70114 0.79897 0.04245 0.0
Zn210 Zn 0.93317 0.96327 0.90409 0.0
Zn211 Zn 0.92958 0.93055 0.93935 0.0
O212 O 0.91372 0.9477 0.01147 0.0
O213 O 0.9131 0.97575 0.96167 0.0
O214 O 0.91537 0.90624 0.92562 0.0
O215 O 0.934 0.96347 0.78935 0.0
O216 O 0.93825 0.9347 0.82704 0.0
C217 C 0.9082 0.96462 0.01388 0.0
C218 C 0.96378 0.94347 -0.00503 0.0
O219 O 0.95396 0.92866 -0.00414 0.0
O220 O 0.95769 0.95807 0.96183 0.0
C221 C 0.90497 0.89766 0.9723 0.0
O222 O 0.90385 0.90354 0.04374 0.0
C223 C 0.9391 0.94703 0.77451 0.0
Zn224 Zn 0.71361 0.68741 0.68666 0.0
Zn225 Zn 0.68049 0.67816 0.69852 0.0
O226 O 0.69615 0.66196 0.77573 0.0
O227 O 0.72523 0.66816 0.75355 0.0
O228 O 0.6571 0.66335 0.67585 0.0
O229 O 0.71701 0.68766 0.57294 0.0
O230 O 0.68712 0.68652 0.58767 0.0
C231 C 0.71321 0.65945 0.79155 0.0
C232 C 0.68794 0.71466 0.76241 0.0
O233 O 0.67526 0.70239 0.75491 0.0
O234 O 0.70405 0.71134 0.73775 0.0
C235 C 0.64793 0.65304 0.72112 0.0
O236 O 0.65276 0.6522 0.79404 0.0
C237 C 0.70101 0.68932 0.54481 0.0
Zn238 Zn 0.54444 0.46274 0.9294 0.0
Zn239 Zn 0.55437 0.42985 0.95425 0.0
O240 O 0.56973 0.44805 0.02437 0.0
O241 O 0.56338 0.47678 -0.00938 0.0
O242 O 0.57036 0.40675 0.94361 0.0
O243 O 0.54304 0.46323 0.8146 0.0
O244 O 0.54543 0.43354 0.84168 0.0
C245 C 0.57206 0.4656 0.03367 0.0
C246 C 0.51845 0.43763 0.01578 0.0
O247 O 0.53073 0.42495 0.0125 0.0
O248 O 0.5214 0.45349 -0.01444 0.0
C249 C 0.56758 0.39039 0.96916 0.0
O250 O 0.55295 0.38709 0.01109 0.0
C251 C 0.54172 0.44639 0.7935 0.0
Zn252 Zn 0.76558 0.29644 0.18071 0.0
Zn253 Zn 0.79873 0.30679 0.19745 0.0
O254 O 0.78256 0.32221 0.27432 0.0
O255 O 0.75372 0.31472 0.25091 0.0
O256 O 0.82298 0.3211 0.1912 0.0
O257 O 0.7629 0.29824 0.06688 0.0
O258 O 0.7928 0.30028 0.08291 0.0
C259 C 0.76545 0.32387 0.28977 0.0
C260 C 0.79132 0.26903 0.25257 0.0
O261 O 0.80347 0.28187 0.2491 0.0
O262 O 0.77517 0.2719 0.22651 0.0
C263 C 0.8252 0.33269 0.13651 0.0
O264 O 0.81173 0.33505 0.08651 0.0
C265 C 0.77888 0.29775 0.03883 0.0
Zn266 Zn 0.93505 0.51487 0.41143 0.0
Zn267 Zn 0.92235 0.54688 0.43051 0.0
O268 O 0.90782 0.52869 0.50379 0.0
O269 O 0.91727 0.50056 0.474 0.0
O270 O 0.9057 0.56924 0.41306 0.0
O271 O 0.93512 0.51234 0.29759 0.0
O272 O 0.93059 0.54213 0.3175 0.0
C273 C 0.90724 0.51104 0.51427 0.0
C274 C 0.95921 0.54274 0.4934 0.0
O275 O 0.94578 0.55411 0.48824 0.0
O276 O 0.95771 0.52643 0.46505 0.0
C277 C 0.89967 0.5815 0.45933 0.0
O278 O 0.90455 0.58082 0.53223 0.0
C279 C 0.93458 0.52878 0.27204 0.0
Zn280 Zn 0.71411 0.29642 0.78695 0.0
Zn281 Zn 0.68135 0.30627 0.76889 0.0
O282 O 0.69826 0.32123 0.69293 0.0
O283 O 0.72706 0.31453 0.71945 0.0
O284 O 0.65837 0.3224 0.7773 0.0
O285 O 0.7167 0.29735 0.90095 0.0
O286 O 0.68685 0.29869 0.88275 0.0
C287 C 0.71542 0.32326 0.67899 0.0
C288 C 0.68805 0.26916 0.71103 0.0
O289 O 0.67576 0.2818 0.71466 0.0
O290 O 0.70411 0.27224 0.73809 0.0
C291 C 0.64618 0.32009 0.82877 0.0
O292 O 0.64744 0.30567 0.87498 0.0
C293 C 0.70062 0.2961 0.92749 0.0
Zn294 Zn 0.94083 0.46932 0.02952 0.0
Zn295 Zn 0.92688 0.43769 0.00019 0.0
O296 O 0.91268 0.45799 0.93549 0.0
O297 O 0.92345 0.48534 0.97108 0.0
O298 O 0.9093 0.4154 -0.00334 0.0
O299 O 0.94038 0.4688 0.1436 0.0
O300 O 0.93446 0.43953 0.11627 0.0
C301 C 0.91263 0.47577 0.92948 0.0
C302 C 0.96421 0.44282 0.94099 0.0
O303 O 0.95045 0.43171 0.94225 0.0
O304 O 0.96324 0.45861 0.97406 0.0
C305 C 0.90813 0.40325 0.04989 0.0
O306 O 0.91986 0.40391 0.10779 0.0
C307 C 0.93884 0.45209 0.16523 0.0
Zn308 Zn 0.76401 0.68516 0.29037 0.0
Zn309 Zn 0.79687 0.67541 0.27471 0.0
O310 O 0.7802 0.65982 0.19841 0.0
O311 O 0.75138 0.66629 0.22395 0.0
O312 O 0.82027 0.66033 0.29172 0.0
O313 O 0.76153 0.68528 0.40454 0.0
O314 O 0.79129 0.68365 0.38685 0.0
C315 C 0.76302 0.65759 0.184 0.0
C316 C 0.78972 0.71208 0.21287 0.0
O317 O 0.80217 0.69963 0.21914 0.0
O318 O 0.77367 0.709 0.23885 0.0
C319 C 0.82609 0.64739 0.24811 0.0
O320 O 0.81746 0.64407 0.18274 0.0
C321 C 0.77772 0.68663 0.43117 0.0
Zn322 Zn 0.54615 0.51786 0.52599 0.0
Zn323 Zn 0.55489 0.55135 0.51351 0.0
O324 O 0.57049 0.53565 0.43506 0.0
O325 O 0.56511 0.50615 0.45965 0.0
O326 O 0.5695 0.57508 0.53586 0.0
O327 O 0.54572 0.51403 0.63952 0.0
O328 O 0.54665 0.54432 0.62417 0.0
C329 C 0.57318 0.5184 0.41999 0.0
C330 C 0.51894 0.54375 0.4496 0.0
O331 O 0.5309 0.55671 0.45749 0.0
O332 O 0.52243 0.52742 0.47411 0.0
C333 C 0.58066 0.5834 0.49144 0.0
O334 O 0.58255 0.57736 0.42054 0.0
C335 C 0.54391 0.53021 0.66719 0.0
Zn336 Zn 0.26799 0.30114 0.30716 0.0
Zn337 Zn 0.30101 0.30328 0.28374 0.0
O338 O 0.28616 0.31859 0.20078 0.0
O339 O 0.25732 0.32024 0.23636 0.0
O340 O 0.32537 0.31685 0.30309 0.0
O341 O 0.26521 0.30159 0.42188 0.0
O342 O 0.294 0.29568 0.39497 0.0
C343 C 0.26968 0.32416 0.18817 0.0
C344 C 0.28834 0.26827 0.23384 0.0
O345 O 0.3032 0.27785 0.23423 0.0
O346 O 0.27358 0.27531 0.26021 0.0
C347 C 0.33408 0.32738 0.25704 0.0
O348 O 0.32823 0.32891 0.18561 0.0
C349 C 0.28083 0.29565 0.44301 0.0
Zn350 Zn 0.43416 0.51649 0.0261 0.0
Zn351 Zn 0.42485 0.54984 0.00914 0.0
O352 O 0.40892 0.53316 0.93399 0.0
O353 O 0.41522 0.50395 0.96046 0.0
O354 O 0.4102 0.57376 0.02287 0.0
O355 O 0.43444 0.51408 0.14027 0.0
O356 O 0.43287 0.54425 0.12208 0.0
C357 C 0.40653 0.51576 0.92047 0.0
C358 C 0.46096 0.54194 0.94758 0.0
O359 O 0.44885 0.55471 0.95338 0.0
O360 O 0.45776 0.52576 0.9742 0.0
C361 C 0.41005 0.58798 -0.02073 0.0
O362 O 0.42025 0.58798 0.91719 0.0
C363 C 0.4358 0.53045 0.16667 0.0
Zn364 Zn 0.2203 0.68967 0.77427 0.0
Zn365 Zn 0.18709 0.67961 0.75544 0.0
O366 O 0.20401 0.66448 0.68092 0.0
O367 O 0.2329 0.67132 0.70595 0.0
O368 O 0.16371 0.66384 0.75602 0.0
O369 O 0.22198 0.68837 0.88868 0.0
O370 O 0.19213 0.68639 0.87055 0.0
C371 C 0.22111 0.66241 0.66642 0.0
C372 C 0.19467 0.717 0.69934 0.0
O373 O 0.1823 0.70436 0.70274 0.0
O374 O 0.21072 0.71393 0.72614 0.0
C375 C 0.1529 0.66186 0.8128 0.0
O376 O 0.15577 0.67172 0.87558 0.0
C377 C 0.20588 0.68908 0.91546 0.0
Zn378 Zn 0.04708 0.46365 0.51958 0.0
Zn379 Zn 0.05757 0.43105 0.49995 0.0
O380 O 0.07119 0.44905 0.42325 0.0
O381 O 0.06403 0.47789 0.45202 0.0
O382 O 0.07441 0.40831 0.50472 0.0
O383 O 0.04823 0.46618 0.63347 0.0
O384 O 0.04985 0.43603 0.61408 0.0
C385 C 0.07263 0.46654 0.40999 0.0
C386 C 0.02067 0.43668 0.44357 0.0
O387 O 0.03354 0.42463 0.4462 0.0
O388 O 0.02332 0.45292 0.47123 0.0
C389 C 0.07635 0.39782 0.56333 0.0
O390 O 0.06601 0.40065 0.62384 0.0
C391 C 0.04714 0.44978 0.65931 0.0
Zn392 Zn 0.26708 0.67812 0.14765 0.0
Zn393 Zn 0.30055 0.67619 0.17837 0.0
O394 O 0.28491 0.66118 0.25756 0.0
O395 O 0.25617 0.65914 0.21898 0.0
O396 O 0.32524 0.66254 0.17612 0.0
O397 O 0.26623 0.67652 0.03218 0.0
O398 O 0.29491 0.68219 0.06406 0.0
C399 C 0.26846 0.65545 0.26858 0.0
C400 C 0.2866 0.71145 0.22226 0.0
O401 O 0.3015 0.70204 0.225 0.0
O402 O 0.27204 0.70422 0.1935 0.0
C403 C 0.33592 0.66309 0.11831 0.0
O404 O 0.33221 0.67471 0.06201 0.0
C405 C 0.28218 0.68181 0.01318 0.0
Zn406 Zn 0.04376 0.52111 0.91541 0.0
Zn407 Zn 0.05253 0.55445 0.9383 0.0
O408 O 0.06802 0.53729 0.0121 0.0
O409 O 0.06218 0.50815 -0.01814 0.0
O410 O 0.06684 0.57891 0.93625 0.0
O411 O 0.04465 0.51983 0.80101 0.0
O412 O 0.04497 0.54992 0.82345 0.0
C413 C 0.0705 0.51988 0.02403 0.0
C414 C 0.01613 0.54547 -0.00602 0.0
O415 O 0.02827 0.55834 -0.00784 0.0
O416 O 0.01955 0.52957 0.96494 0.0
C417 C 0.07838 0.58131 0.88232 0.0
O418 O 0.08028 0.56809 0.83052 0.0
C419 C 0.04279 0.53631 0.77676 0.0
Zn420 Zn 0.21599 0.28924 0.69225 0.0
Zn421 Zn 0.1833 0.29923 0.71675 0.0
O422 O 0.20115 0.31537 0.78533 0.0
O423 O 0.22955 0.30846 0.75435 0.0
O424 O 0.15938 0.31404 0.7126 0.0
O425 O 0.21606 0.2884 0.5774 0.0
O426 O 0.18669 0.29039 0.60363 0.0
C427 C 0.21849 0.3176 0.79554 0.0
C428 C 0.19185 0.26261 0.77791 0.0
O429 O 0.17942 0.27513 0.77528 0.0
O430 O 0.20741 0.26553 0.74716 0.0
C431 C 0.15696 0.32503 0.65588 0.0
O432 O 0.16986 0.32622 0.60356 0.0
C433 C 0.19945 0.28689 0.55579 0.0
Zn434 Zn 0.42756 0.46617 0.4152 0.0
Zn435 Zn 0.42496 0.43238 0.44437 0.0
O436 O 0.40852 0.44792 0.51982 0.0
O437 O 0.40774 0.47695 0.4807 0.0
O438 O 0.4126 0.40696 0.43068 0.0
O439 O 0.42757 0.46711 0.29985 0.0
O440 O 0.43215 0.43799 0.33183 0.0
C441 C 0.40296 0.46469 0.52881 0.0
C442 C 0.45931 0.44683 0.49791 0.0
O443 O 0.44994 0.43172 0.49746 0.0
O444 O 0.45263 0.46153 0.46786 0.0
C445 C 0.40078 0.39954 0.47484 0.0
O446 O 0.39713 0.40757 0.54097 0.0
C447 C 0.43257 0.45084 0.28138 0.0
H448 H 0.27132 0.14034 0.58492 0.0
H449 H 0.21937 0.15198 0.69381 0.0
H450 H 0.20317 0.14648 0.57257 0.0
H451 H 0.20451 0.14481 0.43146 0.0
H452 H 0.25658 0.13407 0.32199 0.0
H453 H 0.27175 0.13231 0.4473 0.0
C454 C 0.25641 0.14109 0.58285 0.0
C455 C 0.24667 0.14699 0.64826 0.0
C456 C 0.24714 0.13834 0.51219 0.0
C457 C 0.2273 0.14774 0.64428 0.0
C458 C 0.21799 0.14469 0.57467 0.0
C459 C 0.21905 0.14145 0.43493 0.0
C460 C 0.22942 0.14 0.36705 0.0
C461 C 0.22786 0.14095 0.50742 0.0
C462 C 0.24825 0.13553 0.37308 0.0
C463 C 0.25701 0.13464 0.44491 0.0
H464 H 0.08336 0.9539 0.66823 0.0
H465 H 0.08464 0.00554 0.54134 0.0
H466 H 0.08739 0.02312 0.66111 0.0
H467 H 0.08323 0.02406 0.80134 0.0
H468 H 0.08074 0.97245 0.92815 0.0
H469 H 0.08506 0.95479 0.80973 0.0
C470 C 0.0849 0.96895 0.66656 0.0
C471 C 0.0835 0.97836 0.5957 0.0
C472 C 0.08594 0.97908 0.7361 0.0
C473 C 0.08548 -0.00209 0.59497 0.0
C474 C 0.08693 0.00802 0.66364 0.0
C475 C 0.08424 0.00898 0.80356 0.0
C476 C 0.08133 -0.00036 0.87365 0.0
C477 C 0.08623 -0.00119 0.73464 0.0
C478 C 0.08271 0.98006 0.87505 0.0
C479 C 0.08508 0.96989 0.80711 0.0
H480 H 0.21056 0.83246 0.03729 0.0
H481 H 0.26351 0.83531 0.15138 0.0
H482 H 0.27875 0.8385 0.02764 0.0
H483 H 0.27745 0.83367 0.88768 0.0
H484 H 0.22458 0.82921 0.77368 0.0
H485 H 0.20902 0.83389 0.89589 0.0
C486 C 0.22537 0.83448 0.03532 0.0
C487 C 0.23588 0.83332 0.10359 0.0
C488 C 0.23415 0.83567 0.96348 0.0
C489 C 0.25508 0.83593 0.09971 0.0
C490 C 0.26384 0.83763 0.02879 0.0
C491 C 0.26253 0.83437 0.88903 0.0
C492 C 0.25224 0.83071 0.82159 0.0
C493 C 0.25361 0.83648 0.96017 0.0
C494 C 0.23289 0.83173 0.82473 0.0
C495 C 0.22394 0.83429 0.89486 0.0
H496 H 0.39918 0.02585 0.14574 0.0
H497 H 0.40089 0.97303 0.02669 0.0
H498 H 0.39609 0.95656 0.14741 0.0
H499 H 0.39823 0.95705 0.28873 0.0
H500 H 0.39797 0.00987 0.40808 0.0
H501 H 0.39492 0.0263 0.28605 0.0
C502 C 0.39783 0.01078 0.14573 0.0
C503 C 0.40076 0.00071 0.07732 0.0
C504 C 0.39563 0.00131 0.21604 0.0
C505 C 0.39894 0.98115 0.07861 0.0
C506 C 0.3963 0.97168 0.14786 0.0
C507 C 0.3968 0.97211 0.28831 0.0
C508 C 0.39867 0.9822 0.35752 0.0
C509 C 0.39565 0.98157 0.21745 0.0
C510 C 0.39681 0.00174 0.35564 0.0
C511 C 0.39518 0.01119 0.28568 0.0
H512 H 0.7526 0.83515 0.33343 0.0
H513 H 0.69658 0.83713 0.41432 0.0
H514 H 0.70771 0.84098 0.54617 0.0
H515 H 0.73303 0.83701 0.63939 0.0
H516 H 0.78901 0.83383 0.55881 0.0
H517 H 0.77823 0.83771 0.42647 0.0
C518 C 0.7428 0.83699 0.37957 0.0
C519 C 0.72376 0.83543 0.36389 0.0
C520 C 0.7493 0.83872 0.45577 0.0
C521 C 0.7113 0.83812 0.42442 0.0
C522 C 0.71766 0.84016 0.50018 0.0
C523 C 0.74295 0.83775 0.59315 0.0
C524 C 0.76178 0.83472 0.60911 0.0
C525 C 0.7366 0.83946 0.51681 0.0
C526 C 0.77443 0.836 0.54849 0.0
C527 C 0.76825 0.83802 0.47247 0.0
H528 H 0.89455 0.01883 0.2876 0.0
H529 H 0.91855 0.97254 0.4104 0.0
H530 H 0.91524 0.95277 0.29715 0.0
H531 H 0.91097 0.95037 0.15788 0.0
H532 H 0.88913 -0.00285 0.03145 0.0
H533 H 0.88554 0.01465 0.15117 0.0
C534 C 0.89842 0.00424 0.29019 0.0
C535 C 0.90689 -0.00279 0.35706 0.0
C536 C 0.89703 -0.00698 0.22366 0.0
C537 C 0.91207 0.97832 0.35939 0.0
C538 C 0.91026 0.96699 0.29448 0.0
C539 C 0.90479 0.96413 0.15667 0.0
C540 C 0.9005 0.97249 0.08568 0.0
C541 C 0.90354 0.97442 0.22534 0.0
C542 C 0.89267 -0.00958 0.08532 0.0
C543 C 0.89075 0.00051 0.15377 0.0
H544 H 0.77781 0.15195 0.91365 0.0
H545 H 0.72544 0.14884 0.7952 0.0
H546 H 0.70968 0.14471 0.91727 0.0
H547 H 0.71025 0.14899 0.05783 0.0
H548 H 0.76257 0.15335 0.17618 0.0
H549 H 0.77874 0.14955 0.0549 0.0
C550 C 0.76304 0.14963 0.91424 0.0
C551 C 0.75282 0.15105 0.84533 0.0
C552 C 0.75393 0.14786 -0.0148 0.0
C553 C 0.73365 0.14805 0.84743 0.0
C554 C 0.72457 0.14581 0.91743 0.0
C555 C 0.72518 0.14841 0.05754 0.0
C556 C 0.73514 0.15183 0.12601 0.0
C557 C 0.73447 0.14676 -0.01306 0.0
C558 C 0.75452 0.15102 0.12427 0.0
C559 C 0.76382 0.14896 0.05469 0.0
H560 H 0.5796 0.00097 0.88231 0.0
H561 H 0.57935 0.94465 0.79405 0.0
H562 H 0.5841 0.95641 0.66407 0.0
H563 H 0.5817 0.98271 0.57395 0.0
H564 H 0.58089 0.03903 0.6621 0.0
H565 H 0.58364 0.02724 0.79324 0.0
C566 C 0.58114 -0.00878 0.83499 0.0
C567 C 0.57872 0.97196 0.8479 0.0
C568 C 0.58342 -0.00189 0.75995 0.0
C569 C 0.58103 0.95953 0.78601 0.0
C570 C 0.58358 0.96627 0.71134 0.0
C571 C 0.5827 -0.00755 0.62167 0.0
C572 C 0.58068 0.01172 0.60808 0.0
C573 C 0.5838 0.98555 0.69726 0.0
C574 C 0.58228 0.02413 0.67059 0.0
C575 C 0.58367 0.01738 0.74588 0.0
H576 H 0.74774 0.64872 0.83459 0.0
H577 H 0.69167 0.65057 0.91473 0.0
H578 H 0.70241 0.64611 0.04678 0.0
H579 H 0.72793 0.64866 0.14026 0.0
H580 H 0.78404 0.64804 0.06006 0.0
H581 H 0.77307 0.64458 0.92776 0.0
C582 C 0.73781 0.64756 0.88062 0.0
C583 C 0.71895 0.6504 0.86474 0.0
C584 C 0.74413 0.6455 0.95685 0.0
C585 C 0.70627 0.64857 0.92504 0.0
C586 C 0.71243 0.6462 0.00089 0.0
C587 C 0.73779 0.64718 0.09414 0.0
C588 C 0.75679 0.64905 0.11017 0.0
C589 C 0.73137 0.6457 0.01776 0.0
C590 C 0.76935 0.6468 0.04968 0.0
C591 C 0.76307 0.645 0.97368 0.0
H592 H 0.58485 0.48376 0.37912 0.0
H593 H 0.57933 0.53986 0.29267 0.0
H594 H 0.58227 0.52837 0.16108 0.0
H595 H 0.57954 0.50186 0.0714 0.0
H596 H 0.58396 0.44569 0.15855 0.0
H597 H 0.58871 0.45777 0.28838 0.0
C598 C 0.58489 0.49356 0.33166 0.0
C599 C 0.58147 0.5126 0.34585 0.0
C600 C 0.58606 0.48679 0.25587 0.0
C601 C 0.58183 0.52512 0.28369 0.0
C602 C 0.58331 0.51852 0.20814 0.0
C603 C 0.5821 0.49225 0.11837 0.0
C604 C 0.58094 0.47286 0.10519 0.0
C605 C 0.58438 0.49929 0.19351 0.0
C606 C 0.58458 0.46066 0.16674 0.0
C607 C 0.58716 0.46757 0.24138 0.0
H608 H 0.73069 0.33363 0.33108 0.0
H609 H 0.78677 0.33265 0.41533 0.0
H610 H 0.7759 0.33619 0.54698 0.0
H611 H 0.75041 0.33266 0.63827 0.0
H612 H 0.69433 0.33262 0.55384 0.0
H613 H 0.70526 0.33682 0.42269 0.0
C614 C 0.74058 0.33479 0.378 0.0
C615 C 0.7595 0.33246 0.36331 0.0
C616 C 0.7342 0.33634 0.45392 0.0
C617 C 0.77213 0.33428 0.42472 0.0
C618 C 0.7659 0.33611 0.50033 0.0
C619 C 0.74054 0.33414 0.5915 0.0
C620 C 0.72158 0.33189 0.6059 0.0
C621 C 0.74695 0.3361 0.51578 0.0
C622 C 0.70899 0.33414 0.54466 0.0
C623 C 0.71525 0.33637 0.46933 0.0
H624 H 0.89925 0.45992 0.79737 0.0
H625 H 0.90561 0.51289 0.91301 0.0
H626 H 0.89999 0.52926 0.79238 0.0
H627 H 0.90043 0.52823 0.65096 0.0
H628 H 0.89596 0.47517 0.53481 0.0
H629 H 0.89315 0.45928 0.65807 0.0
C630 C 0.89874 0.47504 0.79678 0.0
C631 C 0.90324 0.48513 0.86393 0.0
C632 C 0.89611 0.48441 0.72644 0.0
C633 C 0.90247 0.50475 0.86196 0.0
C634 C 0.89935 0.51415 0.79276 0.0
C635 C 0.89807 0.51329 0.65246 0.0
C636 C 0.89872 0.50288 0.5838 0.0
C637 C 0.89721 0.50412 0.72393 0.0
C638 C 0.89571 0.4835 0.58691 0.0
C639 C 0.89426 0.47436 0.65752 0.0
H640 H 0.25432 0.32442 0.83558 0.0
H641 H 0.19867 0.33153 0.91602 0.0
H642 H 0.21028 0.33796 0.04549 0.0
H643 H 0.2356 0.33532 0.13955 0.0
H644 H 0.29112 0.32693 0.05974 0.0
H645 H 0.28021 0.3277 0.92672 0.0
C646 C 0.24473 0.3279 0.88086 0.0
C647 C 0.2256 0.32709 0.86606 0.0
C648 C 0.25147 0.33111 0.9559 0.0
C649 C 0.21344 0.33188 0.92549 0.0
C650 C 0.22007 0.33542 -6e-05 0.0
C651 C 0.24542 0.3342 0.09313 0.0
C652 C 0.26413 0.33067 0.11007 0.0
C653 C 0.23898 0.33413 0.01652 0.0
C654 C 0.27664 0.3295 0.04885 0.0
C655 C 0.27038 0.32978 0.97249 0.0
H656 H 0.39315 0.49984 0.57306 0.0
H657 H 0.39635 0.44318 0.6557 0.0
H658 H 0.39391 0.45427 0.78789 0.0
H659 H 0.39747 0.48019 0.87942 0.0
H660 H 0.39586 0.5369 0.79685 0.0
H661 H 0.39065 0.52563 0.66585 0.0
C662 C 0.39275 0.48983 0.61972 0.0
C663 C 0.39536 0.4707 0.60416 0.0
C664 C 0.39192 0.49636 0.69605 0.0
C665 C 0.39457 0.45798 0.66561 0.0
C666 C 0.39332 0.46434 0.74153 0.0
C667 C 0.39544 0.49013 0.83317 0.0
C668 C 0.39745 0.50938 0.848 0.0
C669 C 0.39301 0.48353 0.75748 0.0
C670 C 0.39452 0.52202 0.78737 0.0
C671 C 0.3917 0.51556 0.7121 0.0
H672 H 0.234 0.64634 0.31878 0.0
H673 H 0.29064 0.6505 0.3949 0.0
H674 H 0.28084 0.6496 0.52855 0.0
H675 H 0.25604 0.65393 0.62215 0.0
H676 H 0.19936 0.65074 0.54609 0.0
H677 H 0.20936 0.64458 0.41485 0.0
C678 C 0.24426 0.64649 0.36446 0.0
C679 C 0.26302 0.64892 0.3464 0.0
C680 C 0.2385 0.64644 0.44161 0.0
C681 C 0.27609 0.64886 0.40669 0.0
C682 C 0.27049 0.64848 0.48343 0.0
C683 C 0.24585 0.65138 0.57733 0.0
C684 C 0.22697 0.6532 0.59394 0.0
C685 C 0.25169 0.64826 0.50143 0.0
C686 C 0.21398 0.64958 0.53517 0.0
C687 C 0.2197 0.64619 0.45974 0.0
H688 H 0.08106 0.50234 0.37115 0.0
H689 H 0.08108 0.4461 0.28198 0.0
H690 H 0.08416 0.45806 0.1514 0.0
H691 H 0.08031 0.48438 0.0622 0.0
H692 H 0.07936 0.5406 0.15151 0.0
H693 H 0.08361 0.52876 0.28185 0.0
C694 C 0.08228 0.49267 0.3234 0.0
C695 C 0.08044 0.47335 0.33642 0.0
C696 C 0.08362 0.49966 0.2481 0.0
C697 C 0.08233 0.46103 0.27389 0.0
C698 C 0.08393 0.46788 0.19891 0.0
C699 C 0.08159 0.4941 0.10989 0.0
C700 C 0.07911 0.51334 0.097 0.0
C701 C 0.0836 0.48716 0.18513 0.0
C702 C 0.08108 0.52572 0.15947 0.0
C703 C 0.08335 0.51894 0.23435 0.0
H704 H 0.10952 0.08033 0.02571 0.0
H705 H 0.07056 0.11716 0.1338 0.0
H706 H 0.09572 0.13757 0.17629 0.0
H707 H 0.1291 0.14468 0.18534 0.0
H708 H 0.16767 0.10718 0.0782 0.0
H709 H 0.14247 0.08744 0.03367 0.0
C710 C 0.10648 0.09291 0.05794 0.0
C711 C 0.08812 0.09718 0.0762 0.0
C712 C 0.12103 0.10446 0.08321 0.0
C713 C 0.08454 0.11349 0.11871 0.0
C714 C 0.09894 0.12517 0.14332 0.0
C715 C 0.13197 0.13217 0.1525 0.0
C716 C 0.15034 0.12749 0.1355 0.0
C717 C 0.1173 0.12073 0.12655 0.0
C718 C 0.15374 0.11121 0.09242 0.0
C719 C 0.1393 0.09986 0.06663 0.0
H720 H 0.12555 0.82077 0.39678 0.0
H721 H 0.15569 0.86022 0.25864 0.0
H722 H 0.13385 0.88471 0.29252 0.0
H723 H 0.10642 0.89513 0.36328 0.0
H724 H 0.07577 0.85536 0.49774 0.0
H725 H 0.09763 0.8309 0.46383 0.0
C726 C 0.12732 0.8347 0.37367 0.0
C727 C 0.14231 0.83859 0.32523 0.0
C728 C 0.11467 0.84874 0.39327 0.0
C729 C 0.14428 0.85675 0.29576 0.0
C730 C 0.13182 0.87081 0.31543 0.0
C731 C 0.10457 0.88113 0.38551 0.0
C732 C 0.08952 0.87714 0.43356 0.0
C733 C 0.11704 0.86701 0.36462 0.0
C734 C 0.08722 0.85885 0.46084 0.0
C735 C 0.09972 0.84483 0.44139 0.0
H736 H 0.37094 0.90058 0.51502 0.0
H737 H 0.41139 0.86707 0.63374 0.0
H738 H 0.38746 0.8448 0.67011 0.0
H739 H 0.35475 0.83503 0.6703 0.0
H740 H 0.31454 0.86904 0.55222 0.0
H741 H 0.33856 0.89081 0.51436 0.0
C742 C 0.37458 0.88833 0.5483 0.0
C743 C 0.393 0.88554 0.57132 0.0
C744 C 0.36071 0.87567 0.56991 0.0
C745 C 0.39736 0.86962 0.61505 0.0
C746 C 0.38365 0.85687 0.63613 0.0
C747 C 0.35124 0.84724 0.63657 0.0
C748 C 0.33279 0.85033 0.61445 0.0
C749 C 0.36522 0.85981 0.61444 0.0
C750 C 0.32857 0.86622 0.57027 0.0
C751 C 0.34233 0.87873 0.54833 0.0
H752 H 0.32601 0.1206 0.82423 0.0
H753 H 0.37028 0.16076 0.81358 0.0
H754 H 0.39248 0.13656 0.84908 0.0
H755 H 0.3993 0.10382 0.88431 0.0
H756 H 0.35459 0.06411 0.89607 0.0
H757 H 0.33267 0.0883 0.86033 0.0
C758 C 0.34054 0.12405 0.82902 0.0
C759 C 0.34646 0.14247 0.81578 0.0
C760 C 0.35317 0.11015 0.85067 0.0
C761 C 0.36533 0.1467 0.82335 0.0
C762 C 0.37804 0.13287 0.84388 0.0
C763 C 0.38475 0.10051 0.87959 0.0
C764 C 0.37865 0.08212 0.89286 0.0
C765 C 0.37212 0.11454 0.8582 0.0
C766 C 0.35973 0.07809 0.88593 0.0
C767 C 0.34714 0.09192 0.86531 0.0
H768 H 0.896 0.88992 0.82316 0.0
H769 H 0.8852 0.87227 0.05567 0.0
H770 H 0.86249 0.84966 0.00786 0.0
H771 H 0.84441 0.83619 0.90055 0.0
H772 H 0.85424 0.85516 0.66892 0.0
H773 H 0.8786 0.87591 0.71593 0.0
C774 C 0.88886 0.88099 0.86346 0.0
C775 C 0.89236 0.88281 0.94305 0.0
C776 C 0.87551 0.86832 0.8357 0.0
C777 C 0.88278 0.87121 -0.00577 0.0
C778 C 0.86976 0.85829 0.96689 0.0
C779 C 0.852 0.84472 0.86017 0.0
C780 C 0.84744 0.84407 0.78114 0.0
C781 C 0.86581 0.85691 0.88782 0.0
C782 C 0.85738 0.85536 0.72995 0.0
C783 C 0.87133 0.86726 0.75682 0.0
H784 H 0.82646 0.10991 0.64503 0.0
H785 H 0.85588 0.16204 0.66741 0.0
H786 H 0.8846 0.1465 0.63228 0.0
H787 H 0.90123 0.11808 0.591 0.0
H788 H 0.87118 0.0662 0.56931 0.0
H789 H 0.843 0.08167 0.60839 0.0
C790 C 0.83915 0.1179 0.64266 0.0
C791 C 0.83894 0.13714 0.65873 0.0
C792 C 0.85558 0.1089 0.62213 0.0
C793 C 0.8556 0.1472 0.65567 0.0
C794 C 0.87204 0.13832 0.63522 0.0
C795 C 0.88853 0.11016 0.5949 0.0
C796 C 0.88842 0.09098 0.57652 0.0
C797 C 0.87218 0.11918 0.61761 0.0
C798 C 0.87177 0.08098 0.58236 0.0
C799 C 0.85558 0.08981 0.60493 0.0
H800 H 0.58611 0.10998 0.41967 0.0
H801 H 0.61903 0.0682 0.30656 0.0
H802 H 0.64145 0.09183 0.27054 0.0
H803 H 0.65225 0.12427 0.27253 0.0
H804 H 0.61979 0.16625 0.38631 0.0
H805 H 0.59676 0.14278 0.4197 0.0
C806 C 0.59819 0.10605 0.3872 0.0
C807 C 0.60082 0.08726 0.36619 0.0
C808 C 0.61117 0.1198 0.36629 0.0
C809 C 0.61657 0.0825 0.32378 0.0
C810 C 0.62946 0.09603 0.30293 0.0
C811 C 0.64007 0.12835 0.30405 0.0
C812 C 0.63781 0.14706 0.32668 0.0
C813 C 0.62694 0.11472 0.32392 0.0
C814 C 0.62195 0.15198 0.36802 0.0
C815 C 0.60875 0.13853 0.38739 0.0
H816 H 0.59392 0.89238 0.10656 0.0
H817 H 0.57188 0.85807 0.923 0.0
H818 H 0.59388 0.83354 0.95489 0.0
H819 H 0.61995 0.8221 0.03225 0.0
H820 H 0.64199 0.8563 0.21608 0.0
H821 H 0.61934 0.88047 0.18697 0.0
C822 C 0.59389 0.87953 0.0735 0.0
C823 C 0.58126 0.87718 0.01208 0.0
C824 C 0.60658 0.86541 0.09228 0.0
C825 C 0.58141 0.86035 0.97038 0.0
C826 C 0.59401 0.84627 -0.0114 0.0
C827 C 0.61975 0.83478 0.06639 0.0
C828 C 0.63274 0.83733 0.12625 0.0
C829 C 0.60673 0.84869 0.0491 0.0
C830 C 0.63219 0.85389 0.16977 0.0
C831 C 0.61926 0.86778 0.15298 0.0
H832 H 0.58559 0.59405 0.64115 0.0
H833 H 0.60313 0.60674 0.41039 0.0
H834 H 0.62462 0.63014 0.46077 0.0
H835 H 0.63958 0.6459 0.57054 0.0
H836 H 0.62297 0.63229 0.80162 0.0
H837 H 0.59995 0.61046 0.75082 0.0
C838 C 0.59398 0.60205 0.6017 0.0
C839 C 0.59271 0.59858 0.52193 0.0
C840 C 0.60656 0.61529 0.63119 0.0
C841 C 0.60381 0.60904 0.47196 0.0
C842 C 0.61614 0.62244 0.50077 0.0
C843 C 0.63082 0.63831 0.60991 0.0
C844 C 0.63306 0.64077 0.68997 0.0
C845 C 0.6178 0.62552 0.58032 0.0
C846 C 0.62162 0.63067 0.73986 0.0
C847 C 0.60844 0.61816 0.71081 0.0
H848 H 0.59515 0.39094 0.86355 0.0
H849 H 0.5692 0.35539 0.03116 0.0
H850 H 0.59074 0.33037 0.0007 0.0
H851 H 0.6174 0.31877 0.92861 0.0
H852 H 0.64296 0.35417 0.75928 0.0
H853 H 0.62104 0.37893 0.78793 0.0
C854 C 0.5942 0.37773 0.89357 0.0
C855 C 0.58061 0.37514 0.95006 0.0
C856 C 0.60654 0.36332 0.87526 0.0
C857 C 0.57951 0.35783 -0.01238 0.0
C858 C 0.59184 0.34349 0.9702 0.0
C859 C 0.61813 0.33186 0.89756 0.0
C860 C 0.63189 0.33456 0.84194 0.0
C861 C 0.60546 0.34609 0.91436 0.0
C862 C 0.63253 0.35162 0.80223 0.0
C863 C 0.62002 0.36586 0.8188 0.0
H864 H 0.83466 0.35619 0.02063 0.0
H865 H 0.85462 0.33406 0.2364 0.0
H866 H 0.88242 0.35322 0.22662 0.0
H867 H 0.90051 0.37715 0.15924 0.0
H868 H 0.88034 0.39929 0.94372 0.0
H869 H 0.85326 0.37911 0.95087 0.0
C870 C 0.84509 0.35549 0.06555 0.0
C871 C 0.84245 0.34375 0.12946 0.0
C872 C 0.86104 0.36656 0.05958 0.0
C873 C 0.85623 0.34298 0.18669 0.0
C874 C 0.87215 0.35396 0.18115 0.0
C875 C 0.89028 0.37748 0.11344 0.0
C876 C 0.8925 0.38981 0.0511 0.0
C877 C 0.87463 0.36591 0.11816 0.0
C878 C 0.87905 0.38998 -0.00762 0.0
C879 C 0.8635 0.37847 -0.00348 0.0
H880 H 0.84209 0.64572 0.39086 0.0
H881 H 0.844 0.62082 0.16469 0.0
H882 H 0.86726 0.59876 0.20944 0.0
H883 H 0.88616 0.58569 0.31363 0.0
H884 H 0.88386 0.60998 0.54083 0.0
H885 H 0.86169 0.63309 0.49469 0.0
C886 C 0.84771 0.63559 0.35109 0.0
C887 C 0.84125 0.63497 0.27437 0.0
C888 C 0.86095 0.62273 0.37752 0.0
C889 C 0.84865 0.62164 0.22398 0.0
C890 C 0.86195 0.60897 0.24958 0.0
C891 C 0.88089 0.59607 0.35318 0.0
C892 C 0.88669 0.59601 0.43082 0.0
C893 C 0.86805 0.60925 0.3264 0.0
C894 C 0.87966 0.60962 0.48091 0.0
C895 C 0.86696 0.62286 0.45453 0.0
H896 H 0.39656 0.38688 0.32747 0.0
H897 H 0.37898 0.37646 0.56001 0.0
H898 H 0.35789 0.35218 0.51373 0.0
H899 H 0.34291 0.33537 0.40653 0.0
H900 H 0.35918 0.34712 0.17335 0.0
H901 H 0.38233 0.36927 0.22058 0.0
C902 C 0.38831 0.37913 0.36822 0.0
C903 C 0.38941 0.38352 0.44727 0.0
C904 C 0.37586 0.36547 0.34096 0.0
C905 C 0.37842 0.37343 0.49895 0.0
C906 C 0.36633 0.35954 0.47247 0.0
C907 C 0.35167 0.34259 0.36598 0.0
C908 C 0.34926 0.33953 0.28633 0.0
C909 C 0.36469 0.35566 0.39349 0.0
C910 C 0.36066 0.34919 0.23483 0.0
C911 C 0.37391 0.3619 0.26184 0.0
H912 H 0.38898 0.59332 0.1071 0.0
H913 H 0.40409 0.61916 0.89244 0.0
H914 H 0.38345 0.64516 0.91906 0.0
H915 H 0.36009 0.6599 3e-05 0.0
H916 H 0.34478 0.63413 0.21451 0.0
H917 H 0.36667 0.60893 0.19147 0.0
C918 C 0.38783 0.60466 0.06618 0.0
C919 C 0.39803 0.60415 -0.00252 0.0
C920 C 0.37591 0.61963 0.08185 0.0
C921 C 0.3964 0.61908 0.94558 0.0
C922 C 0.38458 0.63399 0.96076 0.0
C923 C 0.36164 0.64889 0.04225 0.0
C924 C 0.3507 0.64895 0.10885 0.0
C925 C 0.37413 0.63433 0.0283 0.0
C926 C 0.35299 0.63452 0.16279 0.0
C927 C 0.36546 0.62003 0.14948 0.0
H928 H 0.12725 0.65403 0.92248 0.0
H929 H 0.14631 0.63617 0.69952 0.0
H930 H 0.12463 0.61015 0.7008 0.0
H931 H 0.1013 0.5916 0.76717 0.0
H932 H 0.08189 0.60925 -0.0103 0.0
H933 H 0.1026 0.63622 -0.01369 0.0
C934 C 0.12657 0.64454 0.87386 0.0
C935 C 0.1385 0.64707 0.81114 0.0
C936 C 0.11406 0.62949 0.87497 0.0
C937 C 0.13734 0.63463 0.74859 0.0
C938 C 0.12496 0.61967 0.74932 0.0
C939 C 0.10151 0.60136 0.81493 0.0
C940 C 0.09012 0.59829 0.87887 0.0
C941 C 0.11343 0.61683 0.81257 0.0
C942 C 0.09052 0.61122 0.93983 0.0
C943 C 0.10239 0.62665 0.93797 0.0
H944 H 0.14674 0.34673 0.53498 0.0
H945 H 0.12937 0.3297 0.76112 0.0
H946 H 0.1025 0.35009 0.75107 0.0
H947 H 0.08456 0.37365 0.67988 0.0
H948 H 0.10212 0.39047 0.45357 0.0
H949 H 0.12821 0.36918 0.4619 0.0
C950 C 0.13707 0.34741 0.58213 0.0
C951 C 0.14018 0.33675 0.64896 0.0
C952 C 0.12166 0.35915 0.57593 0.0
C953 C 0.12738 0.33775 0.70909 0.0
C954 C 0.112 0.34944 0.70339 0.0
C955 C 0.09401 0.37258 0.63209 0.0
C956 C 0.09135 0.38375 0.56626 0.0
C957 C 0.10909 0.36033 0.63733 0.0
C958 C 0.10376 0.38209 0.50494 0.0
C959 C 0.11875 0.36994 0.50971 0.0
H960 H 0.17626 0.19834 0.01288 0.0
H961 H 0.22737 0.17821 0.91882 0.0
H962 H 0.22628 0.20238 0.82018 0.0
H963 H 0.21353 0.23196 0.77495 0.0
H964 H 0.16356 0.25342 0.87453 0.0
H965 H 0.16143 0.22587 0.95674 0.0
C966 C 0.1869 0.19887 0.9695 0.0
C967 C 0.20203 0.18664 0.97391 0.0
C968 C 0.18658 0.21329 0.91506 0.0
C969 C 0.21567 0.18754 0.91713 0.0
C970 C 0.21512 0.20146 0.86109 0.0
C971 C 0.20204 0.23055 0.814 0.0
C972 C 0.18891 0.24491 0.81973 0.0
C973 C 0.20111 0.2149 0.86193 0.0
C974 C 0.17394 0.24267 0.86955 0.0
C975 C 0.17274 0.22693 0.91662 0.0
H976 H 0.98149 0.91665 0.08104 0.0
H977 H 0.98734 0.97294 -0.00413 0.0
H978 H 0.01552 0.97695 0.06982 0.0
H979 H 0.03634 0.96618 0.17069 0.0
H980 H 0.03079 0.91032 0.25963 0.0
H981 H 0.00522 0.90431 0.17058 0.0
C982 C 0.98906 0.92968 0.07797 0.0
C983 C 0.98201 0.94456 0.03404 0.0
C984 C 0.00543 0.93203 0.12123 0.0
C985 C -0.00783 0.9613 0.03006 0.0
C986 C 0.0084 0.96365 0.07225 0.0
C987 C 0.02986 0.95251 0.16935 0.0
C988 C 0.03533 0.93885 0.22258 0.0
C989 C 0.01485 0.94933 0.11971 0.0
C990 C 0.02687 0.92115 0.21941 0.0
C991 C 0.01207 0.91776 0.16905 0.0
H992 H 0.3131 0.73115 0.30183 0.0
H993 H 0.25684 0.73437 0.21968 0.0
H994 H 0.25214 0.76271 0.29333 0.0
H995 H 0.26225 0.78348 0.3968 0.0
H996 H 0.31817 0.78039 0.48186 0.0
H997 H 0.32486 0.7557 0.38953 0.0
C998 C 0.29994 0.73824 0.29898 0.0
C999 C 0.28525 0.73031 0.25686 0.0
C1000 C 0.2972 0.75462 0.34214 0.0
C1001 C 0.26834 0.73988 0.25285 0.0
C1002 C 0.26559 0.75617 0.2949 0.0
C1003 C 0.27606 0.7778 0.39368 0.0
C1004 C 0.28952 0.78349 0.44736 0.0
C1005 C 0.27968 0.76323 0.34209 0.0
C1006 C 0.30744 0.77618 0.44167 0.0
C1007 C 0.31125 0.76187 0.38939 0.0
H1008 H 0.48921 0.02629 0.49327 0.0
H1009 H 0.51219 0.07556 0.60073 0.0
H1010 H 0.48552 0.07743 0.68573 0.0
H1011 H 0.45871 0.0618 0.74361 0.0
H1012 H 0.43766 0.01098 0.64211 0.0
H1013 H 0.46027 0.01323 0.53931 0.0
C1014 C 0.48828 0.03764 0.53446 0.0
C1015 C 0.50285 0.05056 0.54175 0.0
C1016 C 0.47322 0.03831 0.58425 0.0
C1017 C 0.50124 0.06536 0.59436 0.0
C1018 C 0.48602 0.06638 0.64318 0.0
C1019 C 0.45863 0.05162 0.69735 0.0
C1020 C 0.44658 0.0362 0.70045 0.0
C1021 C 0.47231 0.0525 0.64064 0.0
C1022 C 0.44681 0.02295 0.64083 0.0
C1023 C 0.45985 0.02414 0.58253 0.0
H1024 H 0.21606 0.74799 0.70247 0.0
H1025 H 0.16561 0.72599 0.60464 0.0
H1026 H 0.1634 0.75299 0.51935 0.0
H1027 H 0.17884 0.77949 0.45742 0.0
H1028 H 0.23051 0.79984 0.5492 0.0
H1029 H 0.229 0.77711 0.65351 0.0
C1030 C 0.2044 0.74922 0.66338 0.0
C1031 C 0.19123 0.73479 0.65868 0.0
C1032 C 0.20349 0.76449 0.61335 0.0
C1033 C 0.17603 0.7368 0.60884 0.0
C1034 C 0.1748 0.75221 0.55989 0.0
C1035 C 0.18941 0.77943 0.50191 0.0
C1036 C 0.20491 0.79114 0.49523 0.0
C1037 C 0.18885 0.76573 0.55948 0.0
C1038 C 0.21857 0.79081 0.5529 0.0
C1039 C 0.21776 0.77773 0.61211 0.0
H1040 H 0.45492 0.92173 0.69926 0.0
H1041 H 0.43395 0.97244 0.79946 0.0
H1042 H 0.45664 0.97035 0.90354 0.0
H1043 H 0.4856 0.95747 0.95119 0.0
H1044 H 0.50855 0.90838 0.84502 0.0
H1045 H 0.4818 0.9063 0.75851 0.0
C1046 C 0.45488 0.93192 0.74549 0.0
C1047 C 0.44284 0.94727 0.74168 0.0
C1048 C 0.46861 0.93115 0.8029 0.0
C1049 C 0.44309 0.96052 0.80128 0.0
C1050 C 0.45618 0.95942 0.86032 0.0
C1051 C 0.48466 0.94613 0.90991 0.0
C1052 C 0.49923 0.93332 0.90342 0.0
C1053 C 0.46956 0.94535 0.85932 0.0
C1054 C 0.4976 0.9185 0.85073 0.0
C1055 C 0.48234 0.91737 0.80109 0.0
H1056 H 0.26392 0.19463 0.06862 0.0
H1057 H 0.31782 0.20018 0.96836 0.0
H1058 H 0.32525 0.22552 0.05751 0.0
H1059 H 0.31419 0.24976 0.14773 0.0
H1060 H 0.25989 0.24395 0.24463 0.0
H1061 H 0.25498 0.21521 0.17335 0.0
C1062 C 0.2775 0.201 0.06774 0.0
C1063 C 0.29012 0.19575 0.01096 0.0
C1064 C 0.28149 0.21591 0.11751 0.0
C1065 C 0.30776 0.20399 0.01127 0.0
C1066 C 0.31196 0.21868 0.06168 0.0
C1067 C 0.30145 0.24201 0.15431 0.0
C1068 C 0.28727 0.24931 0.19993 0.0
C1069 C 0.29858 0.22538 0.11243 0.0
C1070 C 0.27092 0.23892 0.20859 0.0
C1071 C 0.26807 0.22241 0.168 0.0
H1072 H 0.02914 0.01444 0.28371 0.0
H1073 H 0.02524 0.06975 0.18773 0.0
H1074 H -0.00154 0.07621 0.26759 0.0
H1075 H 0.97333 0.0643 0.35016 0.0
H1076 H 0.97753 0.00847 0.44123 0.0
H1077 H 0.00673 0.00414 0.37784 0.0
C1078 C 0.02275 0.02809 0.28157 0.0
C1079 C 0.02905 0.04144 0.22889 0.0
C1080 C 0.00703 0.03151 0.32566 0.0
C1081 C 0.02067 0.05914 0.22758 0.0
C1082 C 0.00519 0.06279 0.27265 0.0
C1083 C 0.98078 0.05131 0.35688 0.0
C1084 C 0.97297 0.03664 0.39937 0.0
C1085 C -0.00225 0.04878 0.31945 0.0
C1086 C 0.98292 0.01994 0.40805 0.0
C1087 C -0.00024 0.01742 0.37189 0.0
H1088 H 0.80837 0.7754 0.97714 0.0
H1089 H 0.75468 0.79408 0.04838 0.0
H1090 H 0.75448 0.77074 0.15049 0.0
H1091 H 0.76723 0.74208 0.20454 0.0
H1092 H 0.81982 0.72173 0.12683 0.0
H1093 H 0.82287 0.7488 0.04243 0.0
C1094 C 0.79688 0.77478 0.01654 0.0
C1095 C 0.78147 0.78637 0.00487 0.0
C1096 C 0.79651 0.76075 0.07279 0.0
C1097 C 0.76664 0.78526 0.05604 0.0
C1098 C 0.76647 0.77181 0.11398 0.0
C1099 C 0.7795 0.74364 0.16993 0.0
C1100 C 0.79313 0.7297 0.17095 0.0
C1101 C 0.78094 0.75896 0.12042 0.0
C1102 C 0.80905 0.73215 0.12666 0.0
C1103 C 0.81078 0.74761 0.07827 0.0
H1104 H -0.00773 0.02003 0.93686 0.0
H1105 H 0.01529 0.0687 0.82724 0.0
H1106 H 0.98933 0.06918 0.73628 0.0
H1107 H 0.96316 0.05259 0.67567 0.0
H1108 H 0.94271 0.00202 0.77807 0.0
H1109 H 0.96429 0.00569 0.88576 0.0
C1110 C -0.00846 0.03094 0.8938 0.0
C1111 C 0.00588 0.04413 0.88798 0.0
C1112 C 0.97692 0.03081 0.84079 0.0
C1113 C 0.00452 0.0583 0.83255 0.0
C1114 C 0.98969 0.05855 0.7805 0.0
C1115 C 0.96289 0.04291 0.72357 0.0
C1116 C 0.95121 0.02723 0.72013 0.0
C1117 C 0.97616 0.0445 0.78251 0.0
C1118 C 0.95136 0.01435 0.78072 0.0
C1119 C 0.96389 0.01631 0.84149 0.0
H1120 H 0.70876 0.23793 0.71777 0.0
H1121 H 0.65973 0.26044 0.61144 0.0
H1122 H 0.65796 0.23342 0.52531 0.0
H1123 H 0.67366 0.20672 0.46562 0.0
H1124 H 0.72417 0.18612 0.56592 0.0
H1125 H 0.72182 0.20879 0.67044 0.0
C1126 C 0.69749 0.23681 0.67663 0.0
C1127 C 0.68462 0.25137 0.66986 0.0
C1128 C 0.69687 0.22155 0.62616 0.0
C1129 C 0.66991 0.24951 0.61734 0.0
C1130 C 0.66894 0.23409 0.56789 0.0
C1131 C 0.68375 0.20672 0.51202 0.0
C1132 C 0.69915 0.19487 0.50797 0.0
C1133 C 0.68279 0.22044 0.5697 0.0
C1134 C 0.71225 0.19516 0.56786 0.0
C1135 C 0.71099 0.20823 0.62714 0.0
H1136 H 0.48923 0.96182 0.44288 0.0
H1137 H 0.46506 0.9114 0.34987 0.0
H1138 H 0.49133 0.90779 0.26379 0.0
H1139 H 0.51858 0.9216 0.20227 0.0
H1140 H 0.54089 0.9735 0.28881 0.0
H1141 H 0.51815 0.97366 0.39155 0.0
C1142 C 0.48977 0.94987 0.40455 0.0
C1143 C 0.47502 0.93706 0.40194 0.0
C1144 C 0.50463 0.94817 0.35411 0.0
C1145 C 0.47614 0.92155 0.35266 0.0
C1146 C 0.49114 0.91951 0.3033 0.0
C1147 C 0.51886 0.93262 0.24519 0.0
C1148 C 0.53139 0.94755 0.238 0.0
C1149 C 0.50515 0.93308 0.30178 0.0
C1150 C 0.5314 0.96186 0.29328 0.0
C1151 C 0.51829 0.96204 0.35155 0.0
H1152 H 0.77048 0.23759 0.25017 0.0
H1153 H 0.8208 0.26052 0.34548 0.0
H1154 H 0.8238 0.23354 0.43038 0.0
H1155 H 0.80904 0.20679 0.49322 0.0
H1156 H 0.75758 0.18535 0.4037 0.0
H1157 H 0.75836 0.20808 0.29928 0.0
C1158 C 0.78229 0.23656 0.28859 0.0
C1159 C 0.79518 0.25126 0.29276 0.0
C1160 C 0.78369 0.22126 0.33835 0.0
C1161 C 0.81058 0.24951 0.34172 0.0
C1162 C 0.81227 0.2341 0.39045 0.0
C1163 C 0.79837 0.2066 0.44913 0.0
C1164 C 0.78312 0.19458 0.45662 0.0
C1165 C 0.7985 0.22031 0.39149 0.0
C1166 C 0.76934 0.1946 0.3994 0.0
C1167 C 0.76971 0.2077 0.34016 0.0
H1168 H 0.49297 0.02093 0.00432 0.0
H1169 H 0.46876 0.07126 0.09479 0.0
H1170 H 0.49511 0.07525 0.18212 0.0
H1171 H 0.52248 0.06184 0.2452 0.0
H1172 H 0.54493 0.01007 0.16102 0.0
H1173 H 0.52203 0.00948 0.05729 0.0
C1174 C 0.49351 0.03293 0.0424 0.0
C1175 C 0.47874 0.04561 0.04391 0.0
C1176 C 0.50844 0.03487 0.09348 0.0
C1177 C 0.47986 0.06121 0.09288 0.0
C1178 C 0.49491 0.06347 0.14292 0.0
C1179 C 0.52276 0.05077 0.20258 0.0
C1180 C 0.53537 0.036 0.21074 0.0
C1181 C 0.50897 0.05005 0.14541 0.0
C1182 C 0.53538 0.0216 0.15581 0.0
C1183 C 0.52218 0.02117 0.09698 0.0
H1184 H 0.67139 0.77819 0.00064 0.0
H1185 H 0.72431 0.79712 0.92017 0.0
H1186 H 0.72345 0.77376 0.81776 0.0
H1187 H 0.71026 0.74493 0.76613 0.0
H1188 H 0.65852 0.72425 0.85262 0.0
H1189 H 0.65621 0.75146 0.93734 0.0
C1190 C 0.68244 0.77764 0.95909 0.0
C1191 C 0.69797 0.78931 0.96824 0.0
C1192 C 0.68224 0.76358 0.90261 0.0
C1193 C 0.71225 0.78827 0.9144 0.0
C1194 C 0.71183 0.7748 0.8563 0.0
C1195 C 0.69832 0.74646 0.80273 0.0
C1196 C 0.68474 0.73238 0.80413 0.0
C1197 C 0.69733 0.76185 0.85233 0.0
C1198 C 0.66924 0.73478 0.85088 0.0
C1199 C 0.66795 0.75032 0.89948 0.0
H1200 H -0.00577 0.95497 0.50447 0.0
H1201 H 0.01882 0.90774 0.61935 0.0
H1202 H -0.00825 0.90504 0.70178 0.0
H1203 H 0.96342 0.91894 0.75238 0.0
H1204 H 0.94029 0.96761 0.64264 0.0
H1205 H 0.96436 0.96659 0.54541 0.0
C1206 C -0.00636 0.94392 0.54696 0.0
C1207 C 0.00868 0.93177 0.55677 0.0
C1208 C 0.97829 0.94273 0.59491 0.0
C1209 C 0.0075 0.91736 0.6111 0.0
C1210 C -0.00795 0.91585 0.6583 0.0
C1211 C 0.96331 0.92902 0.70595 0.0
C1212 C 0.95016 0.94345 0.70509 0.0
C1213 C 0.97765 0.92884 0.65228 0.0
C1214 C 0.9503 0.95644 0.64477 0.0
C1215 C 0.96414 0.95596 0.58957 0.0
H1216 H 0.71251 0.74304 0.26923 0.0
H1217 H 0.65987 0.76326 0.34712 0.0
H1218 H 0.65702 0.73631 0.43229 0.0
H1219 H 0.67173 0.70993 0.49833 0.0
H1220 H 0.72544 0.69142 0.42697 0.0
H1221 H 0.72545 0.71456 0.32401 0.0
C1222 C 0.70026 0.74147 0.30401 0.0
C1223 C 0.68657 0.75535 0.30284 0.0
C1224 C 0.69895 0.72624 0.35403 0.0
C1225 C 0.67069 0.75289 0.3474 0.0
C1226 C 0.66908 0.7375 0.39625 0.0
C1227 C 0.68318 0.71055 0.45873 0.0
C1228 C 0.69867 0.69908 0.47057 0.0
C1229 C 0.68343 0.72445 0.40197 0.0
C1230 C 0.71344 0.70016 0.41916 0.0
C1231 C 0.7135 0.71349 0.36073 0.0
H1232 H 0.47881 0.4194 0.57269 0.0
H1233 H 0.4812 0.47755 0.50835 0.0
H1234 H 0.5092 0.48169 0.58347 0.0
H1235 H 0.53054 0.47014 0.68109 0.0
H1236 H 0.52844 0.41225 0.74822 0.0
H1237 H 0.50337 0.40663 0.65664 0.0
C1238 C 0.4856 0.43289 0.57431 0.0
C1239 C 0.4776 0.44818 0.5362 0.0
C1240 C 0.50186 0.43529 0.6181 0.0
C1241 C 0.48678 0.46554 0.53806 0.0
C1242 C 0.50289 0.46797 0.58095 0.0
C1243 C 0.52497 0.45616 0.67431 0.0
C1244 C 0.53117 0.44176 0.72258 0.0
C1245 C 0.51022 0.45312 0.62314 0.0
C1246 C 0.52389 0.42368 0.71222 0.0
C1247 C 0.50937 0.42047 0.66036 0.0
H1248 H 0.80809 0.27769 -0.00995 0.0
H1249 H 0.75448 0.29725 0.91874 0.0
H1250 H 0.75386 0.27446 0.81402 0.0
H1251 H 0.76599 0.24559 0.75914 0.0
H1252 H 0.81848 0.22438 0.83764 0.0
H1253 H 0.82217 0.25128 0.92294 0.0
C1254 C 0.79656 0.27743 0.94993 0.0
C1255 C 0.78124 0.28901 0.96253 0.0
C1256 C 0.79591 0.26366 0.89241 0.0
C1257 C 0.76636 0.2884 0.91038 0.0
C1258 C 0.76594 0.27525 0.85101 0.0
C1259 C 0.77839 0.24696 0.794 0.0
C1260 C 0.79177 0.23278 0.79313 0.0
C1261 C 0.78021 0.26221 0.84416 0.0
C1262 C 0.80786 0.23496 0.83783 0.0
C1263 C 0.80997 0.25034 0.8867 0.0
H1264 H 0.95371 0.55973 0.23301 0.0
H1265 H 0.9359 0.50619 0.14612 0.0
H1266 H 0.95846 0.50812 0.04288 0.0
H1267 H 0.98662 0.52228 -0.00672 0.0
H1268 H 0.0061 0.57468 0.08662 0.0
H1269 H 0.97936 0.57609 0.17098 0.0
C1270 C 0.95432 0.5488 0.18984 0.0
C1271 C 0.94333 0.53271 0.19751 0.0
C1272 C 0.96791 0.54964 0.13299 0.0
C1273 C 0.94436 0.5186 0.14159 0.0
C1274 C 0.95734 0.51965 0.08301 0.0
C1275 C 0.98491 0.53417 0.03123 0.0
C1276 C -0.00145 0.54816 0.03487 0.0
C1277 C 0.96979 0.53464 0.08075 0.0
C1278 C -0.00408 0.56363 0.0833 0.0
C1279 C 0.98065 0.56441 0.13168 0.0
H1280 H 0.67254 0.2733 0.96803 0.0
H1281 H 0.72377 0.29671 0.05157 0.0
H1282 H 0.72464 0.2738 0.15536 0.0
H1283 H 0.71367 0.24425 0.20763 0.0
H1284 H 0.66388 0.21903 0.11726 0.0
H1285 H 0.65952 0.24562 0.0311 0.0
C1286 C 0.68355 0.27381 0.01059 0.0
C1287 C 0.69812 0.28664 0.00209 0.0
C1288 C 0.68443 0.25999 0.06768 0.0
C1289 C 0.71242 0.28696 0.05701 0.0
C1290 C 0.713 0.27375 0.11585 0.0
C1291 C 0.7017 0.24463 0.1699 0.0
C1292 C 0.68929 0.22948 0.16796 0.0
C1293 C 0.69955 0.25969 0.11935 0.0
C1294 C 0.67374 0.2304 0.11945 0.0
C1295 C 0.67126 0.2456 0.07007 0.0
H1296 H 0.95927 0.42157 0.19691 0.0
H1297 H 0.93799 0.47196 0.29845 0.0
H1298 H 0.96024 0.46948 0.40405 0.0
H1299 H 0.98929 0.45671 0.4515 0.0
H1300 H 0.01264 0.40809 0.34322 0.0
H1301 H 0.98593 0.40597 0.25675 0.0
C1302 C 0.95902 0.43156 0.24386 0.0
C1303 C 0.94709 0.44698 0.23997 0.0
C1304 C 0.97256 0.43061 0.30198 0.0
C1305 C 0.94707 0.46 0.30043 0.0
C1306 C 0.95992 0.45868 0.36029 0.0
C1307 C 0.98841 0.44543 0.40988 0.0
C1308 C 0.00312 0.43282 0.4026 0.0
C1309 C 0.97335 0.44466 0.35912 0.0
C1310 C 0.00159 0.41808 0.3495 0.0
C1311 C 0.98635 0.41692 0.29984 0.0
H1312 H 0.80763 0.70691 0.47503 0.0
H1313 H 0.75401 0.68906 0.55145 0.0
H1314 H 0.7549 0.71239 0.65406 0.0
H1315 H 0.76855 0.74086 0.70724 0.0
H1316 H 0.82114 0.76034 0.62492 0.0
H1317 H 0.82313 0.73321 0.53974 0.0
C1318 C 0.7964 0.7077 0.51568 0.0
C1319 C 0.78067 0.69638 0.50531 0.0
C1320 C 0.79668 0.7217 0.57236 0.0
C1321 C 0.76619 0.69769 0.55808 0.0
C1322 C 0.76664 0.71113 0.61632 0.0
C1323 C 0.78059 0.73909 0.67145 0.0
C1324 C 0.79453 0.7528 0.67137 0.0
C1325 C 0.78142 0.72374 0.62157 0.0
C1326 C 0.81016 0.75008 0.62564 0.0
C1327 C 0.81127 0.73459 0.57677 0.0
H1328 H 0.52372 0.55997 0.71264 0.0
H1329 H 0.54119 0.50516 0.78453 0.0
H1330 H 0.51816 0.50527 0.88607 0.0
H1331 H 0.49017 0.51865 0.93965 0.0
H1332 H 0.47091 0.57231 0.86109 0.0
H1333 H 0.49766 0.57501 0.77708 0.0
C1334 C 0.52289 0.54829 0.75203 0.0
C1335 C 0.53409 0.53251 0.74077 0.0
C1336 C 0.50903 0.54809 0.80791 0.0
C1337 C 0.53272 0.51744 0.7919 0.0
C1338 C 0.51944 0.51743 0.84952 0.0
C1339 C 0.49189 0.53108 0.90492 0.0
C1340 C 0.47836 0.54512 0.90564 0.0
C1341 C 0.50701 0.53231 0.85562 0.0
C1342 C 0.48101 0.56123 0.86116 0.0
C1343 C 0.4963 0.56275 0.813 0.0
H1344 H 0.2672 0.23897 0.70881 0.0
H1345 H 0.31773 0.21607 0.61987 0.0
H1346 H 0.32139 0.24339 0.53722 0.0
H1347 H 0.30835 0.27168 0.48001 0.0
H1348 H 0.25666 0.29323 0.56276 0.0
H1349 H 0.25561 0.26868 0.65986 0.0
C1350 C 0.27914 0.23997 0.67193 0.0
C1351 C 0.29206 0.22532 0.66979 0.0
C1352 C 0.28097 0.25551 0.62376 0.0
C1353 C 0.30751 0.22703 0.62222 0.0
C1354 C 0.3096 0.24266 0.57498 0.0
C1355 C 0.29707 0.27135 0.52051 0.0
C1356 C 0.28253 0.28426 0.51373 0.0
C1357 C 0.29617 0.25673 0.57392 0.0
C1358 C 0.26801 0.28349 0.56658 0.0
C1359 C 0.26733 0.26935 0.62168 0.0
H1360 H 0.48945 0.52061 0.44354 0.0
H1361 H 0.50899 0.5738 0.3609 0.0
H1362 H 0.48211 0.57609 0.27552 0.0
H1363 H 0.45596 0.56062 0.21069 0.0
H1364 H 0.43818 0.50628 0.28719 0.0
H1365 H 0.46125 0.50701 0.39018 0.0
C1366 C 0.48775 0.53285 0.40764 0.0
C1367 C 0.5014 0.54686 0.40752 0.0
C1368 C 0.47255 0.53384 0.35763 0.0
C1369 C 0.49878 0.56275 0.36164 0.0
C1370 C 0.48343 0.56404 0.31267 0.0
C1371 C 0.45671 0.54921 0.25145 0.0
C1372 C 0.44544 0.53335 0.24104 0.0
C1373 C 0.47059 0.54935 0.30827 0.0
C1374 C 0.44672 0.51861 0.29391 0.0
C1375 C 0.46002 0.51895 0.35235 0.0
H1376 H 0.21834 0.74118 0.19618 0.0
H1377 H 0.16726 0.76424 0.11066 0.0
H1378 H 0.16336 0.73744 0.02465 0.0
H1379 H 0.17707 0.71042 0.95954 0.0
H1380 H 0.22946 0.68917 0.0383 0.0
H1381 H 0.23 0.71202 0.14271 0.0
C1382 C 0.20618 0.74026 0.15962 0.0
C1383 C 0.19327 0.7549 0.15887 0.0
C1384 C 0.20429 0.72509 0.10909 0.0
C1385 C 0.1775 0.75328 0.11191 0.0
C1386 C 0.17528 0.73796 0.06258 0.0
C1387 C 0.18828 0.71034 0.00121 0.0
C1388 C 0.20327 0.69817 -0.00901 0.0
C1389 C 0.18893 0.72415 0.0587 0.0
C1390 C 0.21779 0.6984 0.04494 0.0
C1391 C 0.21819 0.71159 0.10416 0.0
H1392 H 0.02388 0.42165 0.69626 0.0
H1393 H 0.04829 0.47228 0.78562 0.0
H1394 H 0.0257 0.47297 0.88892 0.0
H1395 H -0.00373 0.46225 0.93946 0.0
H1396 H 0.97003 0.41322 0.84352 0.0
H1397 H -0.00385 0.40876 0.75732 0.0
C1398 C 0.02466 0.43245 0.74 0.0
C1399 C 0.03773 0.44692 0.7334 0.0
C1400 C 0.01101 0.43329 0.79679 0.0
C1401 C 0.03839 0.46099 0.7897 0.0
C1402 C 0.02536 0.46148 0.84824 0.0
C1403 C -0.00369 0.45042 0.90046 0.0
C1404 C 0.98104 0.43827 0.89703 0.0
C1405 C 0.01112 0.44822 0.85001 0.0
C1406 C 0.98152 0.42287 0.8469 0.0
C1407 C -0.00356 0.42034 0.79751 0.0
H1408 H 0.31036 0.70523 -0.02146 0.0
H1409 H 0.25928 0.68308 0.88734 0.0
H1410 H 0.25881 0.70739 0.78903 0.0
H1411 H 0.27039 0.73741 0.74268 0.0
H1412 H 0.32039 0.76075 0.83958 0.0
H1413 H 0.32383 0.73337 0.9221 0.0
C1414 C 0.29937 0.70535 0.93589 0.0
C1415 C 0.2847 0.69248 0.94105 0.0
C1416 C 0.29882 0.71982 0.88166 0.0
C1417 C 0.27062 0.6929 0.88513 0.0
C1418 C 0.27029 0.7069 0.82929 0.0
C1419 C 0.28218 0.73647 0.78121 0.0
C1420 C 0.29496 0.7513 0.78587 0.0
C1421 C 0.28388 0.72088 0.82934 0.0
C1422 C 0.31027 0.74965 0.8353 0.0
C1423 C 0.31223 0.73399 0.88253 0.0
H1424 H -0.00866 0.5237 0.49474 0.0
H1425 H 0.96535 0.57257 0.58992 0.0
H1426 H -0.00833 0.57719 0.67692 0.0
H1427 H 0.01944 0.56434 0.7392 0.0
H1428 H 0.04373 0.51396 0.64996 0.0
H1429 H 0.02094 0.51321 0.54586 0.0
C1430 C -0.0085 0.53554 0.53373 0.0
C1431 C 0.97623 0.54758 0.53682 0.0
C1432 C 0.00642 0.53783 0.58459 0.0
C1433 C 0.97685 0.56301 0.58677 0.0
C1434 C -0.00812 0.56562 0.63668 0.0
C1435 C 0.02015 0.55358 0.69538 0.0
C1436 C 0.03323 0.53918 0.70236 0.0
C1437 C 0.00643 0.55272 0.63794 0.0
C1438 C 0.03381 0.52518 0.64575 0.0
C1439 C 0.02067 0.52465 0.58671 0.0
H1440 H 0.22318 0.27592 0.44479 0.0
H1441 H 0.16595 0.27297 0.50908 0.0
H1442 H 0.16092 0.24744 0.41809 0.0
H1443 H 0.17403 0.2227 0.33553 0.0
H1444 H 0.23155 0.22581 0.27526 0.0
H1445 H 0.23511 0.25432 0.34922 0.0
C1446 C 0.20947 0.27006 0.43752 0.0
C1447 C 0.19509 0.27616 0.48484 0.0
C1448 C 0.20678 0.25502 0.38688 0.0
C1449 C 0.17736 0.2685 0.47382 0.0
C1450 C 0.17449 0.25372 0.42233 0.0
C1451 C 0.18726 0.22976 0.33781 0.0
C1452 C 0.20255 0.22186 0.30083 0.0
C1453 C 0.18931 0.24628 0.38117 0.0
C1454 C 0.21955 0.23137 0.30368 0.0
C1455 C 0.22164 0.24776 0.34601 0.0
H1456 H 0.45448 0.42136 0.24742 0.0
H1457 H 0.43563 0.47415 0.15769 0.0
H1458 H 0.45971 0.47339 0.06056 0.0
H1459 H 0.48863 0.4602 0.01481 0.0
H1460 H 0.50892 0.40857 0.11035 0.0
H1461 H 0.48163 0.40638 0.19165 0.0
C1462 C 0.45528 0.43248 0.20536 0.0
C1463 C 0.44335 0.44792 0.2104 0.0
C1464 C 0.46966 0.43233 0.15184 0.0
C1465 C 0.44466 0.46217 0.15537 0.0
C1466 C 0.45854 0.46181 0.10022 0.0
C1467 C 0.48704 0.44833 0.05281 0.0
C1468 C 0.50098 0.43472 0.05751 0.0
C1469 C 0.47156 0.44738 0.10023 0.0
C1470 C 0.49849 0.41931 0.10608 0.0
C1471 C 0.4829 0.41807 0.15264 0.0
loop_
_geom_bond_atom_site_label_1
_geom_bond_atom_site_label_2
_geom_bond_distance
_geom_bond_site_symmetry_2
_ccdc_geom_bond_type
Zn0 O3 2.031 . S
Zn0 O5 2.049 . S
Zn0 O10 2.067 . S
Zn1 O2 1.962 . S
Zn1 O4 1.986 . S
Zn1 O6 1.996 . S
Zn1 O9 1.943 . S
O2 Zn1 1.962 . S
O2 C7 1.254 . S
O3 Zn0 2.031 . S
O3 C7 1.269 . S
O4 Zn1 1.986 . S
O4 C11 1.262 . S
O5 Zn0 2.049 . S
O5 C13 1.260 . S
O6 Zn1 1.996 . S
O6 C13 1.257 . S
C7 O2 1.254 . S
C7 O3 1.269 . S
C8 O9 1.249 . S
C8 O10 1.270 . S
O9 Zn1 1.943 . S
O9 C8 1.249 . S
O10 Zn0 2.067 . S
O10 C8 1.270 . S
C11 O4 1.262 . S
C11 O12 1.232 . S
O12 C11 1.232 . S
C13 O5 1.260 . S
C13 O6 1.257 . S
Zn14 O17 2.031 . S
Zn14 O19 2.049 . S
Zn14 O24 2.067 . S
Zn15 O16 1.962 . S
Zn15 O18 1.986 . S
Zn15 O20 1.996 . S
Zn15 O23 1.943 . S
O16 Zn15 1.962 . S
O16 C21 1.254 . S
O17 Zn14 2.031 . S
O17 C21 1.269 . S
O18 Zn15 1.986 . S
O18 C25 1.262 . S
O19 Zn14 2.049 . S
O19 C27 1.260 . S
O20 Zn15 1.996 . S
O20 C27 1.257 . S
C21 O16 1.254 . S
C21 O17 1.269 . S
C22 O23 1.249 . S
C22 O24 1.270 . S
O23 Zn15 1.943 . S
O23 C22 1.249 . S
O24 Zn14 2.067 . S
O24 C22 1.270 . S
C25 O18 1.262 . S
C25 O26 1.232 . S
O26 C25 1.232 . S
C27 O19 1.260 . S
C27 O20 1.257 . S
Zn28 O31 2.031 . S
Zn28 O33 2.049 . S
Zn28 O38 2.067 . S
Zn29 O30 1.962 . S
Zn29 O32 1.986 . S
Zn29 O34 1.996 . S
Zn29 O37 1.943 . S
O30 Zn29 1.962 . S
O30 C35 1.254 . S
O31 Zn28 2.031 . S
O31 C35 1.269 . S
O32 Zn29 1.986 . S
O32 C39 1.262 . S
O33 Zn28 2.049 . S
O33 C41 1.260 . S
O34 Zn29 1.996 . S
O34 C41 1.257 . S
C35 O30 1.254 . S
C35 O31 1.269 . S
C36 O37 1.249 . S
C36 O38 1.270 . S
O37 Zn29 1.943 . S
O37 C36 1.249 . S
O38 Zn28 2.067 . S
O38 C36 1.270 . S
C39 O32 1.262 . S
C39 O40 1.232 . S
O40 C39 1.232 . S
C41 O33 1.260 . S
C41 O34 1.257 . S
Zn42 O45 2.031 1_556 S
Zn42 O47 2.049 . S
Zn42 O52 2.067 1_556 S
Zn43 O44 1.962 1_556 S
Zn43 O46 1.986 . S
Zn43 O48 1.996 . S
Zn43 O51 1.943 1_556 S
O44 Zn43 1.962 1_554 S
O44 C49 1.254 . S
O45 Zn42 2.031 1_554 S
O45 C49 1.269 . S
O46 Zn43 1.986 . S
O46 C53 1.262 . S
O47 Zn42 2.049 . S
O47 C55 1.260 . S
O48 Zn43 1.996 . S
O48 C55 1.257 . S
C49 O44 1.254 . S
C49 O45 1.269 . S
C50 O51 1.249 . S
C50 O52 1.270 . S
O51 Zn43 1.943 1_554 S
O51 C50 1.249 . S
O52 Zn42 2.067 1_554 S
O52 C50 1.270 . S
C53 O46 1.262 . S
C53 O54 1.232 1_556 S
O54 C53 1.232 1_554 S
C55 O47 1.260 . S
C55 O48 1.257 . S
Zn56 O59 2.031 . S
Zn56 O61 2.049 . S
Zn56 O66 2.067 . S
Zn57 O58 1.962 . S
Zn57 O60 1.986 . S
Zn57 O62 1.996 . S
Zn57 O65 1.943 . S
O58 Zn57 1.962 . S
O58 C63 1.254 . S
O59 Zn56 2.031 . S
O59 C63 1.269 . S
O60 Zn57 1.986 . S
O60 C67 1.262 . S
O61 Zn56 2.049 . S
O61 C69 1.260 . S
O62 Zn57 1.996 . S
O62 C69 1.257 . S
C63 O58 1.254 . S
C63 O59 1.269 . S
C64 O65 1.249 . S
C64 O66 1.270 . S
O65 Zn57 1.943 . S
O65 C64 1.249 . S
O66 Zn56 2.067 . S
O66 C64 1.270 . S
C67 O60 1.262 . S
C67 O68 1.232 . S
O68 C67 1.232 . S
C69 O61 1.260 . S
C69 O62 1.257 . S
Zn70 O73 2.031 . S
Zn70 O75 2.049 . S
Zn70 O80 2.067 . S
Zn71 O72 1.962 . S
Zn71 O74 1.986 . S
Zn71 O76 1.996 . S
Zn71 O79 1.943 . S
O72 Zn71 1.962 . S
O72 C77 1.254 . S
O73 Zn70 2.031 . S
O73 C77 1.269 . S
O74 Zn71 1.986 . S
O74 C81 1.262 . S
O75 Zn70 2.049 . S
O75 C83 1.260 . S
O76 Zn71 1.996 . S
O76 C83 1.257 . S
C77 O72 1.254 . S
C77 O73 1.269 . S
C78 O79 1.249 . S
C78 O80 1.270 . S
O79 Zn71 1.943 . S
O79 C78 1.249 . S
O80 Zn70 2.067 . S
O80 C78 1.270 . S
C81 O74 1.262 . S
C81 O82 1.232 . S
O82 C81 1.232 . S
C83 O75 1.260 . S
C83 O76 1.257 . S
Zn84 O87 2.031 . S
Zn84 O89 2.049 . S
Zn84 O94 2.067 . S
Zn85 O86 1.962 . S
Zn85 O88 1.986 . S
Zn85 O90 1.996 . S
Zn85 O93 1.943 . S
O86 Zn85 1.962 . S
O86 C91 1.254 . S
O87 Zn84 2.031 . S
O87 C91 1.269 . S
O88 Zn85 1.986 . S
O88 C95 1.262 . S
O89 Zn84 2.049 . S
O89 C97 1.260 . S
O90 Zn85 1.996 . S
O90 C97 1.257 . S
C91 O86 1.254 . S
C91 O87 1.269 . S
C92 O93 1.249 . S
C92 O94 1.270 . S
O93 Zn85 1.943 . S
O93 C92 1.249 . S
O94 Zn84 2.067 . S
O94 C92 1.270 . S
C95 O88 1.262 . S
C95 O96 1.232 . S
O96 C95 1.232 . S
C97 O89 1.260 . S
C97 O90 1.257 . S
Zn98 O101 2.031 1_554 S
Zn98 O103 2.049 . S
Zn98 O108 2.067 1_554 S
Zn99 O100 1.962 1_554 S
Zn99 O102 1.986 . S
Zn99 O104 1.996 . S
Zn99 O107 1.943 1_554 S
O100 Zn99 1.962 1_556 S
O100 C105 1.254 . S
O101 Zn98 2.031 1_556 S
O101 C105 1.269 . S
O102 Zn99 1.986 . S
O102 C109 1.262 . S
O103 Zn98 2.049 . S
O103 C111 1.260 . S
O104 Zn99 1.996 . S
O104 C111 1.257 . S
C105 O100 1.254 . S
C105 O101 1.269 . S
C106 O107 1.249 . S
C106 O108 1.270 . S
O107 Zn99 1.943 1_556 S
O107 C106 1.249 . S
O108 Zn98 2.067 1_556 S
O108 C106 1.270 . S
C109 O102 1.262 . S
C109 O110 1.232 1_554 S
O110 C109 1.232 1_556 S
C111 O103 1.260 . S
C111 O104 1.257 . S
Zn112 O115 2.031 . S
Zn112 O117 2.049 . S
Zn112 O122 2.067 . S
Zn113 O114 1.962 . S
Zn113 O116 1.986 . S
Zn113 O118 1.996 . S
Zn113 O121 1.943 . S
O114 Zn113 1.962 . S
O114 C119 1.254 . S
O115 Zn112 2.031 . S
O115 C119 1.269 . S
O116 Zn113 1.986 . S
O116 C123 1.262 . S
O117 Zn112 2.049 . S
O117 C125 1.260 . S
O118 Zn113 1.996 . S
O118 C125 1.257 . S
C119 O114 1.254 . S
C119 O115 1.269 . S
C120 O121 1.249 . S
C120 O122 1.270 . S
O121 Zn113 1.943 . S
O121 C120 1.249 . S
O122 Zn112 2.067 . S
O122 C120 1.270 . S
C123 O116 1.262 . S
C123 O124 1.232 . S
O124 C123 1.232 . S
C125 O117 1.260 . S
C125 O118 1.257 . S
Zn126 O129 2.031 . S
Zn126 O131 2.049 . S
Zn126 O136 2.067 . S
Zn127 O128 1.962 . S
Zn127 O130 1.986 . S
Zn127 O132 1.996 . S
Zn127 O135 1.943 . S
O128 Zn127 1.962 . S
O128 C133 1.254 . S
O129 Zn126 2.031 . S
O129 C133 1.269 . S
O130 Zn127 1.986 . S
O130 C137 1.262 . S
O131 Zn126 2.049 . S
O131 C139 1.260 . S
O132 Zn127 1.996 . S
O132 C139 1.257 . S
C133 O128 1.254 . S
C133 O129 1.269 . S
C134 O135 1.249 . S
C134 O136 1.270 . S
O135 Zn127 1.943 . S
O135 C134 1.249 . S
O136 Zn126 2.067 . S
O136 C134 1.270 . S
C137 O130 1.262 . S
C137 O138 1.232 . S
O138 C137 1.232 . S
C139 O131 1.260 . S
C139 O132 1.257 . S
Zn140 O143 2.031 . S
Zn140 O145 2.049 . S
Zn140 O150 2.067 . S
Zn141 O142 1.962 . S
Zn141 O144 1.986 . S
Zn141 O146 1.996 . S
Zn141 O149 1.943 . S
O142 Zn141 1.962 . S
O142 C147 1.254 . S
O143 Zn140 2.031 . S
O143 C147 1.269 . S
O144 Zn141 1.986 . S
O144 C151 1.262 . S
O145 Zn140 2.049 . S
O145 C153 1.260 . S
O146 Zn141 1.996 . S
O146 C153 1.257 . S
C147 O142 1.254 . S
C147 O143 1.269 . S
C148 O149 1.249 . S
C148 O150 1.270 . S
O149 Zn141 1.943 . S
O149 C148 1.249 . S
O150 Zn140 2.067 . S
O150 C148 1.270 . S
C151 O144 1.262 . S
C151 O152 1.232 . S
O152 C151 1.232 . S
C153 O145 1.260 . S
C153 O146 1.257 . S
Zn154 O157 2.031 1_554 S
Zn154 O159 2.049 . S
Zn154 O164 2.067 1_554 S
Zn155 O156 1.962 1_554 S
Zn155 O158 1.986 . S
Zn155 O160 1.996 . S
Zn155 O163 1.943 1_554 S
O156 Zn155 1.962 1_556 S
O156 C161 1.254 . S
O157 Zn154 2.031 1_556 S
O157 C161 1.269 . S
O158 Zn155 1.986 . S
O158 C165 1.262 . S
O159 Zn154 2.049 . S
O159 C167 1.260 . S
O160 Zn155 1.996 . S
O160 C167 1.257 . S
C161 O156 1.254 . S
C161 O157 1.269 . S
C162 O163 1.249 . S
C162 O164 1.270 . S
O163 Zn155 1.943 1_556 S
O163 C162 1.249 . S
O164 Zn154 2.067 1_556 S
O164 C162 1.270 . S
C165 O158 1.262 . S
C165 O166 1.232 1_554 S
O166 C165 1.232 1_556 S
C167 O159 1.260 . S
C167 O160 1.257 . S
Zn168 O171 2.031 . S
Zn168 O173 2.049 . S
Zn168 O178 2.067 . S
Zn169 O170 1.962 . S
Zn169 O172 1.986 . S
Zn169 O174 1.996 . S
Zn169 O177 1.943 . S
O170 Zn169 1.962 . S
O170 C175 1.254 . S
O171 Zn168 2.031 . S
O171 C175 1.269 . S
O172 Zn169 1.986 . S
O172 C179 1.262 . S
O173 Zn168 2.049 . S
O173 C181 1.260 . S
O174 Zn169 1.996 . S
O174 C181 1.257 . S
C175 O170 1.254 . S
C175 O171 1.269 . S
C176 O177 1.249 . S
C176 O178 1.270 . S
O177 Zn169 1.943 . S
O177 C176 1.249 . S
O178 Zn168 2.067 . S
O178 C176 1.270 . S
C179 O172 1.262 . S
C179 O180 1.232 . S
O180 C179 1.232 . S
C181 O173 1.260 . S
C181 O174 1.257 . S
Zn182 O185 2.031 . S
Zn182 O187 2.049 . S
Zn182 O192 2.067 . S
Zn183 O184 1.962 . S
Zn183 O186 1.986 . S
Zn183 O188 1.996 . S
Zn183 O191 1.943 . S
O184 Zn183 1.962 . S
O184 C189 1.254 . S
O185 Zn182 2.031 . S
O185 C189 1.269 . S
O186 Zn183 1.986 . S
O186 C193 1.262 . S
O187 Zn182 2.049 . S
O187 C195 1.260 . S
O188 Zn183 1.996 . S
O188 C195 1.257 . S
C189 O184 1.254 . S
C189 O185 1.269 . S
C190 O191 1.249 . S
C190 O192 1.270 . S
O191 Zn183 1.943 . S
O191 C190 1.249 . S
O192 Zn182 2.067 . S
O192 C190 1.270 . S
C193 O186 1.262 . S
C193 O194 1.232 . S
O194 C193 1.232 . S
C195 O187 1.260 . S
C195 O188 1.257 . S
Zn196 O199 2.031 . S
Zn196 O201 2.049 . S
Zn196 O206 2.067 . S
Zn197 O198 1.962 . S
Zn197 O200 1.986 . S
Zn197 O202 1.996 . S
Zn197 O205 1.943 . S
O198 Zn197 1.962 . S
O198 C203 1.254 . S
O199 Zn196 2.031 . S
O199 C203 1.269 . S
O200 Zn197 1.986 . S
O200 C207 1.262 . S
O201 Zn196 2.049 . S
O201 C209 1.260 . S
O202 Zn197 1.996 . S
O202 C209 1.257 . S
C203 O198 1.254 . S
C203 O199 1.269 . S
C204 O205 1.249 . S
C204 O206 1.270 . S
O205 Zn197 1.943 . S
O205 C204 1.249 . S
O206 Zn196 2.067 . S
O206 C204 1.270 . S
C207 O200 1.262 . S
C207 O208 1.232 . S
O208 C207 1.232 . S
C209 O201 1.260 . S
C209 O202 1.257 . S
Zn210 O213 2.031 1_556 S
Zn210 O215 2.049 . S
Zn210 O220 2.067 1_556 S
Zn211 O212 1.962 1_556 S
Zn211 O214 1.986 . S
Zn211 O216 1.996 . S
Zn211 O219 1.943 1_556 S
O212 Zn211 1.962 1_554 S
O212 C217 1.254 . S
O213 Zn210 2.031 1_554 S
O213 C217 1.269 . S
O214 Zn211 1.986 . S
O214 C221 1.262 . S
O215 Zn210 2.049 . S
O215 C223 1.260 . S
O216 Zn211 1.996 . S
O216 C223 1.257 . S
C217 O212 1.254 . S
C217 O213 1.269 . S
C218 O219 1.249 . S
C218 O220 1.270 . S
O219 Zn211 1.943 1_554 S
O219 C218 1.249 . S
O220 Zn210 2.067 1_554 S
O220 C218 1.270 . S
C221 O214 1.262 . S
C221 O222 1.232 1_556 S
O222 C221 1.232 1_554 S
C223 O215 1.260 . S
C223 O216 1.257 . S
Zn224 O227 2.031 . S
Zn224 O229 2.049 . S
Zn224 O234 2.067 . S
Zn225 O226 1.962 . S
Zn225 O228 1.986 . S
Zn225 O230 1.996 . S
Zn225 O233 1.943 . S
O226 Zn225 1.962 . S
O226 C231 1.254 . S
O227 Zn224 2.031 . S
O227 C231 1.269 . S
O228 Zn225 1.986 . S
O228 C235 1.262 . S
O229 Zn224 2.049 . S
O229 C237 1.260 . S
O230 Zn225 1.996 . S
O230 C237 1.257 . S
C231 O226 1.254 . S
C231 O227 1.269 . S
C232 O233 1.249 . S
C232 O234 1.270 . S
O233 Zn225 1.943 . S
O233 C232 1.249 . S
O234 Zn224 2.067 . S
O234 C232 1.270 . S
C235 O228 1.262 . S
C235 O236 1.232 . S
O236 C235 1.232 . S
C237 O229 1.260 . S
C237 O230 1.257 . S
Zn238 O241 2.031 1_556 S
Zn238 O243 2.049 . S
Zn238 O248 2.067 1_556 S
Zn239 O240 1.962 1_556 S
Zn239 O242 1.986 . S
Zn239 O244 1.996 . S
Zn239 O247 1.943 1_556 S
O240 Zn239 1.962 1_554 S
O240 C245 1.254 . S
O241 Zn238 2.031 1_554 S
O241 C245 1.269 . S
O242 Zn239 1.986 . S
O242 C249 1.262 . S
O243 Zn238 2.049 . S
O243 C251 1.260 . S
O244 Zn239 1.996 . S
O244 C251 1.257 . S
C245 O240 1.254 . S
C245 O241 1.269 . S
C246 O247 1.249 . S
C246 O248 1.270 . S
O247 Zn239 1.943 1_554 S
O247 C246 1.249 . S
O248 Zn238 2.067 1_554 S
O248 C246 1.270 . S
C249 O242 1.262 . S
C249 O250 1.232 1_556 S
O250 C249 1.232 1_554 S
C251 O243 1.260 . S
C251 O244 1.257 . S
Zn252 O255 2.031 . S
Zn252 O257 2.049 . S
Zn252 O262 2.067 . S
Zn253 O254 1.962 . S
Zn253 O256 1.986 . S
Zn253 O258 1.996 . S
Zn253 O261 1.943 . S
O254 Zn253 1.962 . S
O254 C259 1.254 . S
O255 Zn252 2.031 . S
O255 C259 1.269 . S
O256 Zn253 1.986 . S
O256 C263 1.262 . S
O257 Zn252 2.049 . S
O257 C265 1.260 . S
O258 Zn253 1.996 . S
O258 C265 1.257 . S
C259 O254 1.254 . S
C259 O255 1.269 . S
C260 O261 1.249 . S
C260 O262 1.270 . S
O261 Zn253 1.943 . S
O261 C260 1.249 . S
O262 Zn252 2.067 . S
O262 C260 1.270 . S
C263 O256 1.262 . S
C263 O264 1.232 . S
O264 C263 1.232 . S
C265 O257 1.260 . S
C265 O258 1.257 . S
Zn266 O269 2.031 . S
Zn266 O271 2.049 . S
Zn266 O276 2.067 . S
Zn267 O268 1.962 . S
Zn267 O270 1.986 . S
Zn267 O272 1.996 . S
Zn267 O275 1.943 . S
O268 Zn267 1.962 . S
O268 C273 1.254 . S
O269 Zn266 2.031 . S
O269 C273 1.269 . S
O270 Zn267 1.986 . S
O270 C277 1.262 . S
O271 Zn266 2.049 . S
O271 C279 1.260 . S
O272 Zn267 1.996 . S
O272 C279 1.257 . S
C273 O268 1.254 . S
C273 O269 1.269 . S
C274 O275 1.249 . S
C274 O276 1.270 . S
O275 Zn267 1.943 . S
O275 C274 1.249 . S
O276 Zn266 2.067 . S
O276 C274 1.270 . S
C277 O270 1.262 . S
C277 O278 1.232 . S
O278 C277 1.232 . S
C279 O271 1.260 . S
C279 O272 1.257 . S
Zn280 O283 2.031 . S
Zn280 O285 2.049 . S
Zn280 O290 2.067 . S
Zn281 O282 1.962 . S
Zn281 O284 1.986 . S
Zn281 O286 1.996 . S
Zn281 O289 1.943 . S
O282 Zn281 1.962 . S
O282 C287 1.254 . S
O283 Zn280 2.031 . S
O283 C287 1.269 . S
O284 Zn281 1.986 . S
O284 C291 1.262 . S
O285 Zn280 2.049 . S
O285 C293 1.260 . S
O286 Zn281 1.996 . S
O286 C293 1.257 . S
C287 O282 1.254 . S
C287 O283 1.269 . S
C288 O289 1.249 . S
C288 O290 1.270 . S
O289 Zn281 1.943 . S
O289 C288 1.249 . S
O290 Zn280 2.067 . S
O290 C288 1.270 . S
C291 O284 1.262 . S
C291 O292 1.232 . S
O292 C291 1.232 . S
C293 O285 1.260 . S
C293 O286 1.257 . S
Zn294 O297 2.031 1_554 S
Zn294 O299 2.049 . S
Zn294 O304 2.067 1_554 S
Zn295 O296 1.962 1_554 S
Zn295 O298 1.986 . S
Zn295 O300 1.996 . S
Zn295 O303 1.943 1_554 S
O296 Zn295 1.962 1_556 S
O296 C301 1.254 . S
O297 Zn294 2.031 1_556 S
O297 C301 1.269 . S
O298 Zn295 1.986 . S
O298 C305 1.262 . S
O299 Zn294 2.049 . S
O299 C307 1.260 . S
O300 Zn295 1.996 . S
O300 C307 1.257 . S
C301 O296 1.254 . S
C301 O297 1.269 . S
C302 O303 1.249 . S
C302 O304 1.270 . S
O303 Zn295 1.943 1_556 S
O303 C302 1.249 . S
O304 Zn294 2.067 1_556 S
O304 C302 1.270 . S
C305 O298 1.262 . S
C305 O306 1.232 1_554 S
O306 C305 1.232 1_556 S
C307 O299 1.260 . S
C307 O300 1.257 . S
Zn308 O311 2.031 . S
Zn308 O313 2.049 . S
Zn308 O318 2.067 . S
Zn309 O310 1.962 . S
Zn309 O312 1.986 . S
Zn309 O314 1.996 . S
Zn309 O317 1.943 . S
O310 Zn309 1.962 . S
O310 C315 1.254 . S
O311 Zn308 2.031 . S
O311 C315 1.269 . S
O312 Zn309 1.986 . S
O312 C319 1.262 . S
O313 Zn308 2.049 . S
O313 C321 1.260 . S
O314 Zn309 1.996 . S
O314 C321 1.257 . S
C315 O310 1.254 . S
C315 O311 1.269 . S
C316 O317 1.249 . S
C316 O318 1.270 . S
O317 Zn309 1.943 . S
O317 C316 1.249 . S
O318 Zn308 2.067 . S
O318 C316 1.270 . S
C319 O312 1.262 . S
C319 O320 1.232 . S
O320 C319 1.232 . S
C321 O313 1.260 . S
C321 O314 1.257 . S
Zn322 O325 2.031 . S
Zn322 O327 2.049 . S
Zn322 O332 2.067 . S
Zn323 O324 1.962 . S
Zn323 O326 1.986 . S
Zn323 O328 1.996 . S
Zn323 O331 1.943 . S
O324 Zn323 1.962 . S
O324 C329 1.254 . S
O325 Zn322 2.031 . S
O325 C329 1.269 . S
O326 Zn323 1.986 . S
O326 C333 1.262 . S
O327 Zn322 2.049 . S
O327 C335 1.260 . S
O328 Zn323 1.996 . S
O328 C335 1.257 . S
C329 O324 1.254 . S
C329 O325 1.269 . S
C330 O331 1.249 . S
C330 O332 1.270 . S
O331 Zn323 1.943 . S
O331 C330 1.249 . S
O332 Zn322 2.067 . S
O332 C330 1.270 . S
C333 O326 1.262 . S
C333 O334 1.232 . S
O334 C333 1.232 . S
C335 O327 1.260 . S
C335 O328 1.257 . S
Zn336 O339 2.031 . S
Zn336 O341 2.049 . S
Zn336 O346 2.067 . S
Zn337 O338 1.962 . S
Zn337 O340 1.986 . S
Zn337 O342 1.996 . S
Zn337 O345 1.943 . S
O338 Zn337 1.962 . S
O338 C343 1.254 . S
O339 Zn336 2.031 . S
O339 C343 1.269 . S
O340 Zn337 1.986 . S
O340 C347 1.262 . S
O341 Zn336 2.049 . S
O341 C349 1.260 . S
O342 Zn337 1.996 . S
O342 C349 1.257 . S
C343 O338 1.254 . S
C343 O339 1.269 . S
C344 O345 1.249 . S
C344 O346 1.270 . S
O345 Zn337 1.943 . S
O345 C344 1.249 . S
O346 Zn336 2.067 . S
O346 C344 1.270 . S
C347 O340 1.262 . S
C347 O348 1.232 . S
O348 C347 1.232 . S
C349 O341 1.260 . S
C349 O342 1.257 . S
Zn350 O353 2.031 1_554 S
Zn350 O355 2.049 . S
Zn350 O360 2.067 1_554 S
Zn351 O352 1.962 1_554 S
Zn351 O354 1.986 . S
Zn351 O356 1.996 . S
Zn351 O359 1.943 1_554 S
O352 Zn351 1.962 1_556 S
O352 C357 1.254 . S
O353 Zn350 2.031 1_556 S
O353 C357 1.269 . S
O354 Zn351 1.986 . S
O354 C361 1.262 . S
O355 Zn350 2.049 . S
O355 C363 1.260 . S
O356 Zn351 1.996 . S
O356 C363 1.257 . S
C357 O352 1.254 . S
C357 O353 1.269 . S
C358 O359 1.249 . S
C358 O360 1.270 . S
O359 Zn351 1.943 1_556 S
O359 C358 1.249 . S
O360 Zn350 2.067 1_556 S
O360 C358 1.270 . S
C361 O354 1.262 . S
C361 O362 1.232 1_554 S
O362 C361 1.232 1_556 S
C363 O355 1.260 . S
C363 O356 1.257 . S
Zn364 O367 2.031 . S
Zn364 O369 2.049 . S
Zn364 O374 2.067 . S
Zn365 O366 1.962 . S
Zn365 O368 1.986 . S
Zn365 O370 1.996 . S
Zn365 O373 1.943 . S
O366 Zn365 1.962 . S
O366 C371 1.254 . S
O367 Zn364 2.031 . S
O367 C371 1.269 . S
O368 Zn365 1.986 . S
O368 C375 1.262 . S
O369 Zn364 2.049 . S
O369 C377 1.260 . S
O370 Zn365 1.996 . S
O370 C377 1.257 . S
C371 O366 1.254 . S
C371 O367 1.269 . S
C372 O373 1.249 . S
C372 O374 1.270 . S
O373 Zn365 1.943 . S
O373 C372 1.249 . S
O374 Zn364 2.067 . S
O374 C372 1.270 . S
C375 O368 1.262 . S
C375 O376 1.232 . S
O376 C375 1.232 . S
C377 O369 1.260 . S
C377 O370 1.257 . S
Zn378 O381 2.031 . S
Zn378 O383 2.049 . S
Zn378 O388 2.067 . S
Zn379 O380 1.962 . S
Zn379 O382 1.986 . S
Zn379 O384 1.996 . S
Zn379 O387 1.943 . S
O380 Zn379 1.962 . S
O380 C385 1.254 . S
O381 Zn378 2.031 . S
O381 C385 1.269 . S
O382 Zn379 1.986 . S
O382 C389 1.262 . S
O383 Zn378 2.049 . S
O383 C391 1.260 . S
O384 Zn379 1.996 . S
O384 C391 1.257 . S
C385 O380 1.254 . S
C385 O381 1.269 . S
C386 O387 1.249 . S
C386 O388 1.270 . S
O387 Zn379 1.943 . S
O387 C386 1.249 . S
O388 Zn378 2.067 . S
O388 C386 1.270 . S
C389 O382 1.262 . S
C389 O390 1.232 . S
O390 C389 1.232 . S
C391 O383 1.260 . S
C391 O384 1.257 . S
Zn392 O395 2.031 . S
Zn392 O397 2.049 . S
Zn392 O402 2.067 . S
Zn393 O394 1.962 . S
Zn393 O396 1.986 . S
Zn393 O398 1.996 . S
Zn393 O401 1.943 . S
O394 Zn393 1.962 . S
O394 C399 1.254 . S
O395 Zn392 2.031 . S
O395 C399 1.269 . S
O396 Zn393 1.986 . S
O396 C403 1.262 . S
O397 Zn392 2.049 . S
O397 C405 1.260 . S
O398 Zn393 1.996 . S
O398 C405 1.257 . S
C399 O394 1.254 . S
C399 O395 1.269 . S
C400 O401 1.249 . S
C400 O402 1.270 . S
O401 Zn393 1.943 . S
O401 C400 1.249 . S
O402 Zn392 2.067 . S
O402 C400 1.270 . S
C403 O396 1.262 . S
C403 O404 1.232 . S
O404 C403 1.232 . S
C405 O397 1.260 . S
C405 O398 1.257 . S
Zn406 O409 2.031 1_556 S
Zn406 O411 2.049 . S
Zn406 O416 2.067 1_556 S
Zn407 O408 1.962 1_556 S
Zn407 O410 1.986 . S
Zn407 O412 1.996 . S
Zn407 O415 1.943 1_556 S
O408 Zn407 1.962 1_554 S
O408 C413 1.254 . S
O409 Zn406 2.031 1_554 S
O409 C413 1.269 . S
O410 Zn407 1.986 . S
O410 C417 1.262 . S
O411 Zn406 2.049 . S
O411 C419 1.260 . S
O412 Zn407 1.996 . S
O412 C419 1.257 . S
C413 O408 1.254 . S
C413 O409 1.269 . S
C414 O415 1.249 . S
C414 O416 1.270 . S
O415 Zn407 1.943 1_554 S
O415 C414 1.249 . S
O416 Zn406 2.067 1_554 S
O416 C414 1.270 . S
C417 O410 1.262 . S
C417 O418 1.232 1_556 S
O418 C417 1.232 1_554 S
C419 O411 1.260 . S
C419 O412 1.257 . S
Zn420 O423 2.031 . S
Zn420 O425 2.049 . S
Zn420 O430 2.067 . S
Zn421 O422 1.962 . S
Zn421 O424 1.986 . S
Zn421 O426 1.996 . S
Zn421 O429 1.943 . S
O422 Zn421 1.962 . S
O422 C427 1.254 . S
O423 Zn420 2.031 . S
O423 C427 1.269 . S
O424 Zn421 1.986 . S
O424 C431 1.262 . S
O425 Zn420 2.049 . S
O425 C433 1.260 . S
O426 Zn421 1.996 . S
O426 C433 1.257 . S
C427 O422 1.254 . S
C427 O423 1.269 . S
C428 O429 1.249 . S
C428 O430 1.270 . S
O429 Zn421 1.943 . S
O429 C428 1.249 . S
O430 Zn420 2.067 . S
O430 C428 1.270 . S
C431 O424 1.262 . S
C431 O432 1.232 . S
O432 C431 1.232 . S
C433 O425 1.260 . S
C433 O426 1.257 . S
Zn434 O437 2.031 . S
Zn434 O439 2.049 . S
Zn434 O444 2.067 . S
Zn435 O436 1.962 . S
Zn435 O438 1.986 . S
Zn435 O440 1.996 . S
Zn435 O443 1.943 . S
O436 Zn435 1.962 . S
O436 C441 1.254 . S
O437 Zn434 2.031 . S
O437 C441 1.269 . S
O438 Zn435 1.986 . S
O438 C445 1.262 . S
O439 Zn434 2.049 . S
O439 C447 1.260 . S
O440 Zn435 1.996 . S
O440 C447 1.257 . S
C441 O436 1.254 . S
C441 O437 1.269 . S
C442 O443 1.249 . S
C442 O444 1.270 . S
O443 Zn435 1.943 . S
O443 C442 1.249 . S
O444 Zn434 2.067 . S
O444 C442 1.270 . S
C445 O438 1.262 . S
C445 O446 1.232 . S
O446 C445 1.232 . S
C447 O439 1.260 . S
C447 O440 1.257 . S
H448 C454 0.930 . S
H449 C457 0.930 . S
H450 C458 0.930 . S
H451 C459 0.930 . S
H452 C462 0.930 . S
H453 C463 0.930 . S
C454 H448 0.930 . S
C454 C455 1.355 . S
C454 C456 1.415 . S
C455 C454 1.355 . S
C455 C457 1.419 . S
C456 C454 1.415 . S
C456 C461 1.425 . S
C456 C463 1.409 . S
C457 H449 0.930 . S
C457 C455 1.419 . S
C457 C458 1.362 . S
C458 H450 0.930 . S
C458 C457 1.362 . S
C458 C461 1.409 . S
C459 H451 0.930 . S
C459 C460 1.355 . S
C459 C461 1.415 . S
C460 C459 1.355 . S
C460 C462 1.419 . S
C461 C456 1.425 . S
C461 C458 1.409 . S
C461 C459 1.415 . S
C462 H452 0.930 . S
C462 C460 1.419 . S
C462 C463 1.362 . S
C463 H453 0.930 . S
C463 C456 1.409 . S
C463 C462 1.362 . S
H464 C470 0.930 . S
H465 C473 0.948 . S
H466 C474 0.930 . S
H467 C475 0.930 . S
H468 C478 0.947 . S
H469 C479 0.930 . S
C470 H464 0.930 . S
C470 C471 1.355 . S
C470 C472 1.415 . S
C471 C470 1.355 . S
C471 C473 1.362 1_565 S
C472 C470 1.415 . S
C472 C477 1.425 1_565 S
C472 C479 1.409 . S
C473 H465 0.948 . S
C473 C471 1.362 1_545 S
C473 C474 1.405 . S
C474 H466 0.930 . S
C474 C473 1.405 . S
C474 C477 1.409 . S
C475 H467 0.930 . S
C475 C476 1.355 . S
C475 C477 1.415 . S
C476 C475 1.355 . S
C476 C478 1.364 1_545 S
C477 C472 1.425 1_545 S
C477 C474 1.409 . S
C477 C475 1.415 . S
C478 H468 0.947 . S
C478 C476 1.364 1_565 S
C478 C479 1.403 . S
C479 H469 0.930 . S
C479 C472 1.409 . S
C479 C478 1.403 . S
H480 C486 0.930 . S
H481 C489 0.930 . S
H482 C490 0.930 . S
H483 C491 0.930 . S
H484 C494 0.930 . S
H485 C495 0.930 . S
C486 H480 0.930 . S
C486 C487 1.355 . S
C486 C488 1.415 1_554 S
C487 C486 1.355 . S
C487 C489 1.419 . S
C488 C486 1.415 1_556 S
C488 C493 1.425 1_556 S
C488 C495 1.408 . S
C489 H481 0.930 . S
C489 C487 1.419 . S
C489 C490 1.362 . S
C490 H482 0.930 . S
C490 C489 1.362 . S
C490 C493 1.408 . S
C491 H483 0.930 . S
C491 C492 1.355 . S
C491 C493 1.416 1_556 S
C492 C491 1.355 . S
C492 C494 1.419 . S
C493 C488 1.425 1_554 S
C493 C490 1.408 . S
C493 C491 1.416 1_554 S
C494 H484 0.930 . S
C494 C492 1.419 . S
C494 C495 1.362 . S
C495 H485 0.930 . S
C495 C488 1.408 . S
C495 C494 1.362 . S
H496 C502 0.930 . S
H497 C505 0.930 . S
H498 C506 0.930 . S
H499 C507 0.930 . S
H500 C510 0.930 . S
H501 C511 0.930 . S
C502 H496 0.930 . S
C502 C503 1.355 . S
C502 C504 1.415 . S
C503 C502 1.355 . S
C503 C505 1.419 1_545 S
C504 C502 1.415 . S
C504 C509 1.425 1_545 S
C504 C511 1.409 . S
C505 H497 0.930 . S
C505 C503 1.419 1_565 S
C505 C506 1.362 . S
C506 H498 0.930 . S
C506 C505 1.362 . S
C506 C509 1.409 . S
C507 H499 0.930 . S
C507 C508 1.355 . S
C507 C509 1.415 . S
C508 C507 1.355 . S
C508 C510 1.419 1_565 S
C509 C504 1.425 1_565 S
C509 C506 1.409 . S
C509 C507 1.415 . S
C510 H500 0.930 . S
C510 C508 1.419 1_545 S
C510 C511 1.362 . S
C511 H501 0.930 . S
C511 C504 1.409 . S
C511 C510 1.362 . S
H512 C518 0.930 . S
H513 C521 0.930 . S
H514 C522 0.930 . S
H515 C523 0.930 . S
H516 C526 0.930 . S
H517 C527 0.930 . S
C518 H512 0.930 . S
C518 C519 1.355 . S
C518 C520 1.415 . S
C519 C518 1.355 . S
C519 C521 1.419 . S
C520 C518 1.415 . S
C520 C525 1.425 . S
C520 C527 1.409 . S
C521 H513 0.930 . S
C521 C519 1.419 . S
C521 C522 1.362 . S
C522 H514 0.930 . S
C522 C521 1.362 . S
C522 C525 1.409 . S
C523 H515 0.930 . S
C523 C524 1.355 . S
C523 C525 1.415 . S
C524 C523 1.355 . S
C524 C526 1.419 . S
C525 C520 1.425 . S
C525 C522 1.409 . S
C525 C523 1.415 . S
C526 H516 0.930 . S
C526 C524 1.419 . S
C526 C527 1.362 . S
C527 H517 0.930 . S
C527 C520 1.409 . S
C527 C526 1.362 . S
H528 C534 0.930 . S
H529 C537 0.930 . S
H530 C538 0.930 . S
H531 C539 0.930 . S
H532 C542 0.930 . S
H533 C543 0.930 . S
C534 H528 0.930 . S
C534 C535 1.355 . S
C534 C536 1.415 . S
C535 C534 1.355 . S
C535 C537 1.419 . S
C536 C534 1.415 . S
C536 C541 1.425 1_545 S
C536 C543 1.409 . S
C537 H529 0.930 . S
C537 C535 1.419 . S
C537 C538 1.362 1_545 S
C538 H530 0.930 . S
C538 C537 1.362 1_565 S
C538 C541 1.409 . S
C539 H531 0.930 . S
C539 C540 1.355 . S
C539 C541 1.415 . S
C540 C539 1.355 . S
C540 C542 1.419 . S
C541 C536 1.425 1_565 S
C541 C538 1.409 . S
C541 C539 1.415 . S
C542 H532 0.930 . S
C542 C540 1.419 . S
C542 C543 1.362 1_565 S
C543 H533 0.930 . S
C543 C536 1.409 . S
C543 C542 1.362 1_545 S
H544 C550 0.930 . S
H545 C553 0.930 . S
H546 C554 0.930 . S
H547 C555 0.930 . S
H548 C558 0.930 . S
H549 C559 0.930 . S
C550 H544 0.930 . S
C550 C551 1.355 . S
C550 C552 1.415 . S
C551 C550 1.355 . S
C551 C553 1.419 . S
C552 C550 1.415 . S
C552 C557 1.425 1_556 S
C552 C559 1.409 1_556 S
C553 H545 0.930 . S
C553 C551 1.419 . S
C553 C554 1.362 . S
C554 H546 0.930 . S
C554 C553 1.362 . S
C554 C557 1.409 1_556 S
C555 H547 0.930 . S
C555 C556 1.355 . S
C555 C557 1.415 . S
C556 C555 1.355 . S
C556 C558 1.419 . S
C557 C552 1.425 1_554 S
C557 C554 1.409 1_554 S
C557 C555 1.415 . S
C558 H548 0.930 . S
C558 C556 1.419 . S
C558 C559 1.362 . S
C559 H549 0.930 . S
C559 C552 1.409 1_554 S
C559 C558 1.362 . S
H560 C566 0.942 . S
H561 C569 0.930 . S
H562 C570 0.930 . S
H563 C571 0.942 . S
H564 C574 0.930 . S
H565 C575 0.930 . S
C566 H560 0.942 . S
C566 C567 1.355 . S
C566 C568 1.415 1_565 S
C567 C566 1.355 . S
C567 C569 1.419 . S
C568 C566 1.415 1_545 S
C568 C573 1.425 1_545 S
C568 C575 1.409 . S
C569 H561 0.930 . S
C569 C567 1.419 . S
C569 C570 1.362 . S
C570 H562 0.930 . S
C570 C569 1.362 . S
C570 C573 1.409 . S
C571 H563 0.942 . S
C571 C572 1.355 . S
C571 C573 1.415 1_545 S
C572 C571 1.355 . S
C572 C574 1.419 . S
C573 C568 1.425 1_565 S
C573 C570 1.409 . S
C573 C571 1.415 1_565 S
C574 H564 0.930 . S
C574 C572 1.419 . S
C574 C575 1.362 . S
C575 H565 0.930 . S
C575 C568 1.409 . S
C575 C574 1.362 . S
H576 C582 0.930 . S
H577 C585 0.930 . S
H578 C586 0.930 1_554 S
H579 C587 0.930 . S
H580 C590 0.930 . S
H581 C591 0.930 1_556 S
C582 H576 0.930 . S
C582 C583 1.355 . S
C582 C584 1.415 . S
C583 C582 1.355 . S
C583 C585 1.419 . S
C584 C582 1.415 . S
C584 C589 1.425 1_556 S
C584 C591 1.409 1_556 S
C585 H577 0.930 . S
C585 C583 1.419 . S
C585 C586 1.362 . S
C586 H578 0.930 1_556 S
C586 C585 1.362 . S
C586 C589 1.409 1_556 S
C587 H579 0.930 . S
C587 C588 1.355 . S
C587 C589 1.415 . S
C588 C587 1.355 . S
C588 C590 1.419 . S
C589 C584 1.425 1_554 S
C589 C586 1.409 1_554 S
C589 C587 1.415 . S
C590 H580 0.930 . S
C590 C588 1.419 . S
C590 C591 1.362 . S
C591 H581 0.930 1_554 S
C591 C584 1.409 1_554 S
C591 C590 1.362 . S
H592 C598 0.930 . S
H593 C601 0.930 . S
H594 C602 0.930 . S
H595 C603 0.930 . S
H596 C606 0.930 . S
H597 C607 0.930 . S
C598 H592 0.930 . S
C598 C599 1.355 . S
C598 C600 1.415 . S
C599 C598 1.355 . S
C599 C601 1.419 . S
C600 C598 1.415 . S
C600 C605 1.425 . S
C600 C607 1.409 . S
C601 H593 0.930 . S
C601 C599 1.419 . S
C601 C602 1.362 . S
C602 H594 0.930 . S
C602 C601 1.362 . S
C602 C605 1.409 . S
C603 H595 0.930 . S
C603 C604 1.355 . S
C603 C605 1.415 . S
C604 C603 1.355 . S
C604 C606 1.419 . S
C605 C600 1.425 . S
C605 C602 1.409 . S
C605 C603 1.415 . S
C606 H596 0.930 . S
C606 C604 1.419 . S
C606 C607 1.362 . S
C607 H597 0.930 . S
C607 C600 1.409 . S
C607 C606 1.362 . S
H608 C614 0.930 . S
H609 C617 0.930 . S
H610 C618 0.930 . S
H611 C619 0.930 . S
H612 C622 0.930 . S
H613 C623 0.930 . S
C614 H608 0.930 . S
C614 C615 1.355 . S
C614 C616 1.415 . S
C615 C614 1.355 . S
C615 C617 1.419 . S
C616 C614 1.415 . S
C616 C621 1.425 . S
C616 C623 1.409 . S
C617 H609 0.930 . S
C617 C615 1.419 . S
C617 C618 1.362 . S
C618 H610 0.930 . S
C618 C617 1.362 . S
C618 C621 1.409 . S
C619 H611 0.930 . S
C619 C620 1.355 . S
C619 C621 1.415 . S
C620 C619 1.355 . S
C620 C622 1.419 . S
C621 C616 1.425 . S
C621 C618 1.409 . S
C621 C619 1.415 . S
C622 H612 0.930 . S
C622 C620 1.419 . S
C622 C623 1.362 . S
C623 H613 0.930 . S
C623 C616 1.409 . S
C623 C622 1.362 . S
H624 C630 0.930 . S
H625 C633 0.930 . S
H626 C634 0.930 . S
H627 C635 0.930 . S
H628 C638 0.930 . S
H629 C639 0.930 . S
C630 H624 0.930 . S
C630 C631 1.355 . S
C630 C632 1.415 . S
C631 C630 1.355 . S
C631 C633 1.419 . S
C632 C630 1.415 . S
C632 C637 1.425 . S
C632 C639 1.409 . S
C633 H625 0.930 . S
C633 C631 1.419 . S
C633 C634 1.362 . S
C634 H626 0.930 . S
C634 C633 1.362 . S
C634 C637 1.409 . S
C635 H627 0.930 . S
C635 C636 1.355 . S
C635 C637 1.415 . S
C636 C635 1.355 . S
C636 C638 1.419 . S
C637 C632 1.425 . S
C637 C634 1.409 . S
C637 C635 1.415 . S
C638 H628 0.930 . S
C638 C636 1.419 . S
C638 C639 1.362 . S
C639 H629 0.930 . S
C639 C632 1.409 . S
C639 C638 1.362 . S
H640 C646 0.930 . S
H641 C649 0.930 . S
H642 C650 0.930 . S
H643 C651 0.930 . S
H644 C654 0.930 . S
H645 C655 0.930 . S
C646 H640 0.930 . S
C646 C647 1.355 . S
C646 C648 1.415 . S
C647 C646 1.355 . S
C647 C649 1.419 . S
C648 C646 1.415 . S
C648 C653 1.425 1_556 S
C648 C655 1.409 1_556 S
C649 H641 0.930 . S
C649 C647 1.419 . S
C649 C650 1.362 . S
C650 H642 0.930 . S
C650 C649 1.362 . S
C650 C653 1.409 1_556 S
C651 H643 0.930 . S
C651 C652 1.355 . S
C651 C653 1.415 . S
C652 C651 1.355 . S
C652 C654 1.419 . S
C653 C648 1.425 1_554 S
C653 C650 1.409 1_554 S
C653 C651 1.415 . S
C654 H644 0.930 . S
C654 C652 1.419 . S
C654 C655 1.362 . S
C655 H645 0.930 . S
C655 C648 1.409 1_554 S
C655 C654 1.362 . S
H656 C662 0.930 . S
H657 C665 0.930 . S
H658 C666 0.930 . S
H659 C667 0.930 . S
H660 C670 0.930 . S
H661 C671 0.930 . S
C662 H656 0.930 . S
C662 C663 1.355 . S
C662 C664 1.415 . S
C663 C662 1.355 . S
C663 C665 1.419 . S
C664 C662 1.415 . S
C664 C669 1.425 . S
C664 C671 1.409 . S
C665 H657 0.930 . S
C665 C663 1.419 . S
C665 C666 1.362 . S
C666 H658 0.930 . S
C666 C665 1.362 . S
C666 C669 1.409 . S
C667 H659 0.930 . S
C667 C668 1.355 . S
C667 C669 1.415 . S
C668 C667 1.355 . S
C668 C670 1.419 . S
C669 C664 1.425 . S
C669 C666 1.409 . S
C669 C667 1.415 . S
C670 H660 0.930 . S
C670 C668 1.419 . S
C670 C671 1.362 . S
C671 H661 0.930 . S
C671 C664 1.409 . S
C671 C670 1.362 . S
H672 C678 0.930 . S
H673 C681 0.930 . S
H674 C682 0.930 . S
H675 C683 0.930 . S
H676 C686 0.930 . S
H677 C687 0.930 . S
C678 H672 0.930 . S
C678 C679 1.355 . S
C678 C680 1.415 . S
C679 C678 1.355 . S
C679 C681 1.419 . S
C680 C678 1.415 . S
C680 C685 1.425 . S
C680 C687 1.409 . S
C681 H673 0.930 . S
C681 C679 1.419 . S
C681 C682 1.362 . S
C682 H674 0.930 . S
C682 C681 1.362 . S
C682 C685 1.409 . S
C683 H675 0.930 . S
C683 C684 1.355 . S
C683 C685 1.415 . S
C684 C683 1.355 . S
C684 C686 1.419 . S
C685 C680 1.425 . S
C685 C682 1.409 . S
C685 C683 1.415 . S
C686 H676 0.930 . S
C686 C684 1.419 . S
C686 C687 1.362 . S
C687 H677 0.930 . S
C687 C680 1.409 . S
C687 C686 1.362 . S
H688 C694 0.930 . S
H689 C697 0.930 . S
H690 C698 0.930 . S
H691 C699 0.930 . S
H692 C702 0.930 . S
H693 C703 0.930 . S
C694 H688 0.930 . S
C694 C695 1.355 . S
C694 C696 1.415 . S
C695 C694 1.355 . S
C695 C697 1.419 . S
C696 C694 1.415 . S
C696 C701 1.425 . S
C696 C703 1.409 . S
C697 H689 0.930 . S
C697 C695 1.419 . S
C697 C698 1.362 . S
C698 H690 0.930 . S
C698 C697 1.362 . S
C698 C701 1.409 . S
C699 H691 0.930 . S
C699 C700 1.355 . S
C699 C701 1.415 . S
C700 C699 1.355 . S
C700 C702 1.419 . S
C701 C696 1.425 . S
C701 C698 1.409 . S
C701 C699 1.415 . S
C702 H692 0.930 . S
C702 C700 1.419 . S
C702 C703 1.362 . S
C703 H693 0.930 . S
C703 C696 1.409 . S
C703 C702 1.362 . S
H704 C710 0.930 . S
H705 C713 0.930 . S
H706 C714 0.930 . S
H707 C715 0.930 . S
H708 C718 0.930 . S
H709 C719 0.930 . S
C710 H704 0.930 . S
C710 C711 1.355 . S
C710 C712 1.415 . S
C711 C710 1.355 . S
C711 C713 1.419 . S
C712 C710 1.415 . S
C712 C717 1.425 . S
C712 C719 1.409 . S
C713 H705 0.930 . S
C713 C711 1.419 . S
C713 C714 1.362 . S
C714 H706 0.930 . S
C714 C713 1.362 . S
C714 C717 1.409 . S
C715 H707 0.930 . S
C715 C716 1.355 . S
C715 C717 1.415 . S
C716 C715 1.355 . S
C716 C718 1.419 . S
C717 C712 1.425 . S
C717 C714 1.409 . S
C717 C715 1.415 . S
C718 H708 0.930 . S
C718 C716 1.419 . S
C718 C719 1.362 . S
C719 H709 0.930 . S
C719 C712 1.409 . S
C719 C718 1.362 . S
H720 C726 0.930 . S
H721 C729 0.930 . S
H722 C730 0.930 . S
H723 C731 0.930 . S
H724 C734 0.930 . S
H725 C735 0.930 . S
C726 H720 0.930 . S
C726 C727 1.355 . S
C726 C728 1.415 . S
C727 C726 1.355 . S
C727 C729 1.419 . S
C728 C726 1.415 . S
C728 C733 1.425 . S
C728 C735 1.409 . S
C729 H721 0.930 . S
C729 C727 1.419 . S
C729 C730 1.362 . S
C730 H722 0.930 . S
C730 C729 1.362 . S
C730 C733 1.409 . S
C731 H723 0.930 . S
C731 C732 1.355 . S
C731 C733 1.415 . S
C732 C731 1.355 . S
C732 C734 1.419 . S
C733 C728 1.425 . S
C733 C730 1.409 . S
C733 C731 1.415 . S
C734 H724 0.930 . S
C734 C732 1.419 . S
C734 C735 1.362 . S
C735 H725 0.930 . S
C735 C728 1.409 . S
C735 C734 1.362 . S
H736 C742 0.930 . S
H737 C745 0.930 . S
H738 C746 0.930 . S
H739 C747 0.930 . S
H740 C750 0.930 . S
H741 C751 0.930 . S
C742 H736 0.930 . S
C742 C743 1.355 . S
C742 C744 1.415 . S
C743 C742 1.355 . S
C743 C745 1.419 . S
C744 C742 1.415 . S
C744 C749 1.425 . S
C744 C751 1.409 . S
C745 H737 0.930 . S
C745 C743 1.419 . S
C745 C746 1.362 . S
C746 H738 0.930 . S
C746 C745 1.362 . S
C746 C749 1.409 . S
C747 H739 0.930 . S
C747 C748 1.355 . S
C747 C749 1.415 . S
C748 C747 1.355 . S
C748 C750 1.419 . S
C749 C744 1.425 . S
C749 C746 1.409 . S
C749 C747 1.415 . S
C750 H740 0.930 . S
C750 C748 1.419 . S
C750 C751 1.362 . S
C751 H741 0.930 . S
C751 C744 1.409 . S
C751 C750 1.362 . S
H752 C758 0.930 . S
H753 C761 0.930 . S
H754 C762 0.930 . S
H755 C763 0.930 . S
H756 C766 0.930 . S
H757 C767 0.930 . S
C758 H752 0.930 . S
C758 C759 1.355 . S
C758 C760 1.415 . S
C759 C758 1.355 . S
C759 C761 1.419 . S
C760 C758 1.415 . S
C760 C765 1.425 . S
C760 C767 1.409 1_556 S
C761 H753 0.930 . S
C761 C759 1.419 . S
C761 C762 1.362 . S
C762 H754 0.930 . S
C762 C761 1.362 . S
C762 C765 1.409 . S
C763 H755 0.930 . S
C763 C764 1.355 . S
C763 C765 1.415 . S
C764 C763 1.355 . S
C764 C766 1.419 1_556 S
C765 C760 1.425 . S
C765 C762 1.409 . S
C765 C763 1.415 . S
C766 H756 0.930 . S
C766 C764 1.419 1_554 S
C766 C767 1.362 . S
C767 H757 0.930 . S
C767 C760 1.409 1_554 S
C767 C766 1.362 . S
H768 C774 0.930 . S
H769 C777 0.930 1_554 S
H770 C778 0.930 . S
H771 C779 0.930 . S
H772 C782 0.930 . S
H773 C783 0.930 . S
C774 H768 0.930 . S
C774 C775 1.355 . S
C774 C776 1.415 . S
C775 C774 1.355 . S
C775 C777 1.419 . S
C776 C774 1.415 . S
C776 C781 1.425 . S
C776 C783 1.409 . S
C777 H769 0.930 1_556 S
C777 C775 1.419 . S
C777 C778 1.362 . S
C778 H770 0.930 . S
C778 C777 1.362 . S
C778 C781 1.409 . S
C779 H771 0.930 . S
C779 C780 1.355 . S
C779 C781 1.415 . S
C780 C779 1.355 . S
C780 C782 1.419 . S
C781 C776 1.425 . S
C781 C778 1.409 . S
C781 C779 1.415 . S
C782 H772 0.930 . S
C782 C780 1.419 . S
C782 C783 1.362 . S
C783 H773 0.930 . S
C783 C776 1.409 . S
C783 C782 1.362 . S
H784 C790 0.930 . S
H785 C793 0.930 . S
H786 C794 0.930 . S
H787 C795 0.930 . S
H788 C798 0.930 . S
H789 C799 0.930 . S
C790 H784 0.930 . S
C790 C791 1.355 . S
C790 C792 1.415 . S
C791 C790 1.355 . S
C791 C793 1.419 . S
C792 C790 1.415 . S
C792 C797 1.425 . S
C792 C799 1.409 . S
C793 H785 0.930 . S
C793 C791 1.419 . S
C793 C794 1.362 . S
C794 H786 0.930 . S
C794 C793 1.362 . S
C794 C797 1.409 . S
C795 H787 0.930 . S
C795 C796 1.355 . S
C795 C797 1.415 . S
C796 C795 1.355 . S
C796 C798 1.419 . S
C797 C792 1.425 . S
C797 C794 1.409 . S
C797 C795 1.415 . S
C798 H788 0.930 . S
C798 C796 1.419 . S
C798 C799 1.362 . S
C799 H789 0.930 . S
C799 C792 1.409 . S
C799 C798 1.362 . S
H800 C806 0.930 . S
H801 C809 0.930 . S
H802 C810 0.930 . S
H803 C811 0.930 . S
H804 C814 0.930 . S
H805 C815 0.930 . S
C806 H800 0.930 . S
C806 C807 1.355 . S
C806 C808 1.415 . S
C807 C806 1.355 . S
C807 C809 1.419 . S
C808 C806 1.415 . S
C808 C813 1.425 . S
C808 C815 1.409 . S
C809 H801 0.930 . S
C809 C807 1.419 . S
C809 C810 1.362 . S
C810 H802 0.930 . S
C810 C809 1.362 . S
C810 C813 1.409 . S
C811 H803 0.930 . S
C811 C812 1.355 . S
C811 C813 1.415 . S
C812 C811 1.355 . S
C812 C814 1.419 . S
C813 C808 1.425 . S
C813 C810 1.409 . S
C813 C811 1.415 . S
C814 H804 0.930 . S
C814 C812 1.419 . S
C814 C815 1.362 . S
C815 H805 0.930 . S
C815 C808 1.409 . S
C815 C814 1.362 . S
H816 C822 0.930 . S
H817 C825 0.930 . S
H818 C826 0.930 . S
H819 C827 0.930 . S
H820 C830 0.930 . S
H821 C831 0.930 . S
C822 H816 0.930 . S
C822 C823 1.355 . S
C822 C824 1.415 . S
C823 C822 1.355 . S
C823 C825 1.419 . S
C824 C822 1.415 . S
C824 C829 1.425 . S
C824 C831 1.409 . S
C825 H817 0.930 . S
C825 C823 1.419 . S
C825 C826 1.362 . S
C826 H818 0.930 . S
C826 C825 1.362 . S
C826 C829 1.409 . S
C827 H819 0.930 . S
C827 C828 1.355 . S
C827 C829 1.415 . S
C828 C827 1.355 . S
C828 C830 1.419 . S
C829 C824 1.425 . S
C829 C826 1.409 . S
C829 C827 1.415 . S
C830 H820 0.930 . S
C830 C828 1.419 . S
C830 C831 1.362 . S
C831 H821 0.930 . S
C831 C824 1.409 . S
C831 C830 1.362 . S
H832 C838 0.930 . S
H833 C841 0.930 . S
H834 C842 0.930 . S
H835 C843 0.930 . S
H836 C846 0.930 . S
H837 C847 0.930 . S
C838 H832 0.930 . S
C838 C839 1.355 . S
C838 C840 1.415 . S
C839 C838 1.355 . S
C839 C841 1.419 . S
C840 C838 1.415 . S
C840 C845 1.425 . S
C840 C847 1.409 . S
C841 H833 0.930 . S
C841 C839 1.419 . S
C841 C842 1.362 . S
C842 H834 0.930 . S
C842 C841 1.362 . S
C842 C845 1.409 . S
C843 H835 0.930 . S
C843 C844 1.355 . S
C843 C845 1.415 . S
C844 C843 1.355 . S
C844 C846 1.419 . S
C845 C840 1.425 . S
C845 C842 1.409 . S
C845 C843 1.415 . S
C846 H836 0.930 . S
C846 C844 1.419 . S
C846 C847 1.362 . S
C847 H837 0.930 . S
C847 C840 1.409 . S
C847 C846 1.362 . S
H848 C854 0.930 . S
H849 C857 0.930 . S
H850 C858 0.930 . S
H851 C859 0.930 . S
H852 C862 0.930 . S
H853 C863 0.930 . S
C854 H848 0.930 . S
C854 C855 1.355 . S
C854 C856 1.415 . S
C855 C854 1.355 . S
C855 C857 1.419 . S
C856 C854 1.415 . S
C856 C861 1.425 . S
C856 C863 1.409 . S
C857 H849 0.930 . S
C857 C855 1.419 . S
C857 C858 1.362 . S
C858 H850 0.930 . S
C858 C857 1.362 . S
C858 C861 1.409 . S
C859 H851 0.930 . S
C859 C860 1.355 . S
C859 C861 1.415 . S
C860 C859 1.355 . S
C860 C862 1.419 . S
C861 C856 1.425 . S
C861 C858 1.409 . S
C861 C859 1.415 . S
C862 H852 0.930 . S
C862 C860 1.419 . S
C862 C863 1.362 . S
C863 H853 0.930 . S
C863 C856 1.409 . S
C863 C862 1.362 . S
H864 C870 0.930 . S
H865 C873 0.930 . S
H866 C874 0.930 . S
H867 C875 0.930 . S
H868 C878 0.930 . S
H869 C879 0.930 . S
C870 H864 0.930 . S
C870 C871 1.355 . S
C870 C872 1.415 . S
C871 C870 1.355 . S
C871 C873 1.419 . S
C872 C870 1.415 . S
C872 C877 1.425 . S
C872 C879 1.409 . S
C873 H865 0.930 . S
C873 C871 1.419 . S
C873 C874 1.362 . S
C874 H866 0.930 . S
C874 C873 1.362 . S
C874 C877 1.409 . S
C875 H867 0.930 . S
C875 C876 1.355 . S
C875 C877 1.415 . S
C876 C875 1.355 . S
C876 C878 1.419 . S
C877 C872 1.425 . S
C877 C874 1.409 . S
C877 C875 1.415 . S
C878 H868 0.930 . S
C878 C876 1.419 . S
C878 C879 1.362 . S
C879 H869 0.930 . S
C879 C872 1.409 . S
C879 C878 1.362 . S
H880 C886 0.930 . S
H881 C889 0.930 . S
H882 C890 0.930 . S
H883 C891 0.930 . S
H884 C894 0.930 . S
H885 C895 0.930 . S
C886 H880 0.930 . S
C886 C887 1.355 . S
C886 C888 1.415 . S
C887 C886 1.355 . S
C887 C889 1.419 . S
C888 C886 1.415 . S
C888 C893 1.425 . S
C888 C895 1.409 . S
C889 H881 0.930 . S
C889 C887 1.419 . S
C889 C890 1.362 . S
C890 H882 0.930 . S
C890 C889 1.362 . S
C890 C893 1.409 . S
C891 H883 0.930 . S
C891 C892 1.355 . S
C891 C893 1.415 . S
C892 C891 1.355 . S
C892 C894 1.419 . S
C893 C888 1.425 . S
C893 C890 1.409 . S
C893 C891 1.415 . S
C894 H884 0.930 . S
C894 C892 1.419 . S
C894 C895 1.362 . S
C895 H885 0.930 . S
C895 C888 1.409 . S
C895 C894 1.362 . S
H896 C902 0.930 . S
H897 C905 0.930 . S
H898 C906 0.930 . S
H899 C907 0.930 . S
H900 C910 0.930 . S
H901 C911 0.930 . S
C902 H896 0.930 . S
C902 C903 1.355 . S
C902 C904 1.415 . S
C903 C902 1.355 . S
C903 C905 1.419 . S
C904 C902 1.415 . S
C904 C909 1.425 . S
C904 C911 1.409 . S
C905 H897 0.930 . S
C905 C903 1.419 . S
C905 C906 1.362 . S
C906 H898 0.930 . S
C906 C905 1.362 . S
C906 C909 1.409 . S
C907 H899 0.930 . S
C907 C908 1.355 . S
C907 C909 1.415 . S
C908 C907 1.355 . S
C908 C910 1.419 . S
C909 C904 1.425 . S
C909 C906 1.409 . S
C909 C907 1.415 . S
C910 H900 0.930 . S
C910 C908 1.419 . S
C910 C911 1.362 . S
C911 H901 0.930 . S
C911 C904 1.409 . S
C911 C910 1.362 . S
H912 C918 0.930 . S
H913 C921 0.930 . S
H914 C922 0.930 . S
H915 C923 0.930 . S
H916 C926 0.930 . S
H917 C927 0.930 . S
C918 H912 0.930 . S
C918 C919 1.355 . S
C918 C920 1.415 . S
C919 C918 1.355 . S
C919 C921 1.419 . S
C920 C918 1.415 . S
C920 C925 1.425 . S
C920 C927 1.409 . S
C921 H913 0.930 . S
C921 C919 1.419 . S
C921 C922 1.362 . S
C922 H914 0.930 . S
C922 C921 1.362 . S
C922 C925 1.409 . S
C923 H915 0.930 . S
C923 C924 1.355 . S
C923 C925 1.415 . S
C924 C923 1.355 . S
C924 C926 1.419 . S
C925 C920 1.425 . S
C925 C922 1.409 . S
C925 C923 1.415 . S
C926 H916 0.930 . S
C926 C924 1.419 . S
C926 C927 1.362 . S
C927 H917 0.930 . S
C927 C920 1.409 . S
C927 C926 1.362 . S
H928 C934 0.930 . S
H929 C937 0.930 . S
H930 C938 0.930 . S
H931 C939 0.930 1_554 S
H932 C942 0.930 . S
H933 C943 0.930 . S
C934 H928 0.930 . S
C934 C935 1.355 . S
C934 C936 1.415 . S
C935 C934 1.355 . S
C935 C937 1.419 . S
C936 C934 1.415 . S
C936 C941 1.425 . S
C936 C943 1.409 . S
C937 H929 0.930 . S
C937 C935 1.419 . S
C937 C938 1.362 . S
C938 H930 0.930 . S
C938 C937 1.362 . S
C938 C941 1.409 . S
C939 H931 0.930 1_556 S
C939 C940 1.355 . S
C939 C941 1.415 . S
C940 C939 1.355 . S
C940 C942 1.419 . S
C941 C936 1.425 . S
C941 C938 1.409 . S
C941 C939 1.415 . S
C942 H932 0.930 . S
C942 C940 1.419 . S
C942 C943 1.362 . S
C943 H933 0.930 . S
C943 C936 1.409 . S
C943 C942 1.362 . S
H944 C950 0.930 . S
H945 C953 0.930 . S
H946 C954 0.930 . S
H947 C955 0.930 . S
H948 C958 0.930 . S
H949 C959 0.930 . S
C950 H944 0.930 . S
C950 C951 1.355 . S
C950 C952 1.415 . S
C951 C950 1.355 . S
C951 C953 1.419 . S
C952 C950 1.415 . S
C952 C957 1.425 . S
C952 C959 1.409 . S
C953 H945 0.930 . S
C953 C951 1.419 . S
C953 C954 1.362 . S
C954 H946 0.930 . S
C954 C953 1.362 . S
C954 C957 1.409 . S
C955 H947 0.930 . S
C955 C956 1.355 . S
C955 C957 1.415 . S
C956 C955 1.355 . S
C956 C958 1.419 . S
C957 C952 1.425 . S
C957 C954 1.409 . S
C957 C955 1.415 . S
C958 H948 0.930 . S
C958 C956 1.419 . S
C958 C959 1.362 . S
C959 H949 0.930 . S
C959 C952 1.409 . S
C959 C958 1.362 . S
H960 C966 0.930 . S
H961 C969 0.930 . S
H962 C970 0.930 . S
H963 C971 0.930 . S
H964 C974 0.930 . S
H965 C975 0.930 1_554 S
C966 H960 0.930 . S
C966 C967 1.355 . S
C966 C968 1.415 1_554 S
C967 C966 1.355 . S
C967 C969 1.419 1_554 S
C968 C966 1.415 1_556 S
C968 C973 1.425 . S
C968 C975 1.409 . S
C969 H961 0.930 . S
C969 C967 1.419 1_556 S
C969 C970 1.362 . S
C970 H962 0.930 . S
C970 C969 1.362 . S
C970 C973 1.409 . S
C971 H963 0.930 . S
C971 C972 1.355 . S
C971 C973 1.415 . S
C972 C971 1.355 . S
C972 C974 1.419 . S
C973 C968 1.425 . S
C973 C970 1.409 . S
C973 C971 1.415 . S
C974 H964 0.930 . S
C974 C972 1.419 . S
C974 C975 1.362 . S
C975 H965 0.930 1_556 S
C975 C968 1.409 . S
C975 C974 1.362 . S
H976 C982 0.930 . S
H977 C985 0.930 . S
H978 C986 0.930 . S
H979 C987 0.930 . S
H980 C990 0.930 . S
H981 C991 0.930 . S
C982 H976 0.930 . S
C982 C983 1.355 . S
C982 C984 1.415 . S
C983 C982 1.355 . S
C983 C985 1.419 . S
C984 C982 1.415 . S
C984 C989 1.425 1_655 S
C984 C991 1.409 . S
C985 H977 0.930 . S
C985 C983 1.419 . S
C985 C986 1.362 1_655 S
C986 H978 0.930 . S
C986 C985 1.362 1_455 S
C986 C989 1.409 . S
C987 H979 0.930 . S
C987 C988 1.355 . S
C987 C989 1.415 . S
C988 C987 1.355 . S
C988 C990 1.419 . S
C989 C984 1.425 1_455 S
C989 C986 1.409 . S
C989 C987 1.415 . S
C990 H980 0.930 . S
C990 C988 1.419 . S
C990 C991 1.362 1_455 S
C991 H981 0.930 . S
C991 C984 1.409 . S
C991 C990 1.362 1_655 S
H992 C998 0.930 . S
H993 C1001 0.930 . S
H994 C1002 0.930 . S
H995 C1003 0.930 . S
H996 C1006 0.930 . S
H997 C1007 0.930 . S
C998 H992 0.930 . S
C998 C999 1.355 . S
C998 C1000 1.415 . S
C999 C998 1.355 . S
C999 C1001 1.419 . S
C1000 C998 1.415 . S
C1000 C1005 1.425 . S
C1000 C1007 1.409 . S
C1001 H993 0.930 . S
C1001 C999 1.419 . S
C1001 C1002 1.362 . S
C1002 H994 0.930 . S
C1002 C1001 1.362 . S
C1002 C1005 1.409 . S
C1003 H995 0.930 . S
C1003 C1004 1.355 . S
C1003 C1005 1.415 . S
C1004 C1003 1.355 . S
C1004 C1006 1.419 . S
C1005 C1000 1.425 . S
C1005 C1002 1.409 . S
C1005 C1003 1.415 . S
C1006 H996 0.930 . S
C1006 C1004 1.419 . S
C1006 C1007 1.362 . S
C1007 H997 0.930 . S
C1007 C1000 1.409 . S
C1007 C1006 1.362 . S
H1008 C1014 0.930 . S
H1009 C1017 0.930 . S
H1010 C1018 0.930 . S
H1011 C1019 0.930 . S
H1012 C1022 0.930 . S
H1013 C1023 0.930 . S
C1014 H1008 0.930 . S
C1014 C1015 1.355 . S
C1014 C1016 1.415 . S
C1015 C1014 1.355 . S
C1015 C1017 1.419 . S
C1016 C1014 1.415 . S
C1016 C1021 1.425 . S
C1016 C1023 1.409 . S
C1017 H1009 0.930 . S
C1017 C1015 1.419 . S
C1017 C1018 1.362 . S
C1018 H1010 0.930 . S
C1018 C1017 1.362 . S
C1018 C1021 1.409 . S
C1019 H1011 0.930 . S
C1019 C1020 1.355 . S
C1019 C1021 1.415 . S
C1020 C1019 1.355 . S
C1020 C1022 1.419 . S
C1021 C1016 1.425 . S
C1021 C1018 1.409 . S
C1021 C1019 1.415 . S
C1022 H1012 0.930 . S
C1022 C1020 1.419 . S
C1022 C1023 1.362 . S
C1023 H1013 0.930 . S
C1023 C1016 1.409 . S
C1023 C1022 1.362 . S
H1024 C1030 0.930 . S
H1025 C1033 0.930 . S
H1026 C1034 0.930 . S
H1027 C1035 0.930 . S
H1028 C1038 0.930 . S
H1029 C1039 0.930 . S
C1030 H1024 0.930 . S
C1030 C1031 1.355 . S
C1030 C1032 1.415 . S
C1031 C1030 1.355 . S
C1031 C1033 1.419 . S
C1032 C1030 1.415 . S
C1032 C1037 1.425 . S
C1032 C1039 1.409 . S
C1033 H1025 0.930 . S
C1033 C1031 1.419 . S
C1033 C1034 1.362 . S
C1034 H1026 0.930 . S
C1034 C1033 1.362 . S
C1034 C1037 1.409 . S
C1035 H1027 0.930 . S
C1035 C1036 1.355 . S
C1035 C1037 1.415 . S
C1036 C1035 1.355 . S
C1036 C1038 1.419 . S
C1037 C1032 1.425 . S
C1037 C1034 1.409 . S
C1037 C1035 1.415 . S
C1038 H1028 0.930 . S
C1038 C1036 1.419 . S
C1038 C1039 1.362 . S
C1039 H1029 0.930 . S
C1039 C1032 1.409 . S
C1039 C1038 1.362 . S
H1040 C1046 0.930 . S
H1041 C1049 0.930 . S
H1042 C1050 0.930 . S
H1043 C1051 0.930 . S
H1044 C1054 0.930 . S
H1045 C1055 0.930 . S
C1046 H1040 0.930 . S
C1046 C1047 1.355 . S
C1046 C1048 1.415 . S
C1047 C1046 1.355 . S
C1047 C1049 1.419 . S
C1048 C1046 1.415 . S
C1048 C1053 1.425 . S
C1048 C1055 1.409 . S
C1049 H1041 0.930 . S
C1049 C1047 1.419 . S
C1049 C1050 1.362 . S
C1050 H1042 0.930 . S
C1050 C1049 1.362 . S
C1050 C1053 1.409 . S
C1051 H1043 0.930 . S
C1051 C1052 1.355 . S
C1051 C1053 1.415 . S
C1052 C1051 1.355 . S
C1052 C1054 1.419 . S
C1053 C1048 1.425 . S
C1053 C1050 1.409 . S
C1053 C1051 1.415 . S
C1054 H1044 0.930 . S
C1054 C1052 1.419 . S
C1054 C1055 1.362 . S
C1055 H1045 0.930 . S
C1055 C1048 1.409 . S
C1055 C1054 1.362 . S
H1056 C1062 0.930 . S
H1057 C1065 0.930 . S
H1058 C1066 0.930 . S
H1059 C1067 0.930 . S
H1060 C1070 0.930 . S
H1061 C1071 0.930 . S
C1062 H1056 0.930 . S
C1062 C1063 1.355 1_554 S
C1062 C1064 1.415 . S
C1063 C1062 1.355 1_556 S
C1063 C1065 1.419 . S
C1064 C1062 1.415 . S
C1064 C1069 1.425 . S
C1064 C1071 1.409 . S
C1065 H1057 0.930 . S
C1065 C1063 1.419 . S
C1065 C1066 1.362 . S
C1066 H1058 0.930 . S
C1066 C1065 1.362 . S
C1066 C1069 1.409 1_556 S
C1067 H1059 0.930 . S
C1067 C1068 1.355 . S
C1067 C1069 1.415 . S
C1068 C1067 1.355 . S
C1068 C1070 1.419 . S
C1069 C1064 1.425 . S
C1069 C1066 1.409 1_554 S
C1069 C1067 1.415 . S
C1070 H1060 0.930 . S
C1070 C1068 1.419 . S
C1070 C1071 1.362 . S
C1071 H1061 0.930 . S
C1071 C1064 1.409 . S
C1071 C1070 1.362 . S
H1072 C1078 0.930 . S
H1073 C1081 0.930 . S
H1074 C1082 0.930 . S
H1075 C1083 0.930 . S
H1076 C1086 0.930 . S
H1077 C1087 0.930 . S
C1078 H1072 0.930 . S
C1078 C1079 1.355 . S
C1078 C1080 1.415 . S
C1079 C1078 1.355 . S
C1079 C1081 1.419 . S
C1080 C1078 1.415 . S
C1080 C1085 1.425 1_455 S
C1080 C1087 1.409 . S
C1081 H1073 0.930 . S
C1081 C1079 1.419 . S
C1081 C1082 1.362 1_455 S
C1082 H1074 0.930 . S
C1082 C1081 1.362 1_655 S
C1082 C1085 1.409 . S
C1083 H1075 0.930 . S
C1083 C1084 1.355 . S
C1083 C1085 1.415 . S
C1084 C1083 1.355 . S
C1084 C1086 1.419 . S
C1085 C1080 1.425 1_655 S
C1085 C1082 1.409 . S
C1085 C1083 1.415 . S
C1086 H1076 0.930 . S
C1086 C1084 1.419 . S
C1086 C1087 1.362 1_655 S
C1087 H1077 0.930 . S
C1087 C1080 1.409 . S
C1087 C1086 1.362 1_455 S
H1088 C1094 0.930 . S
H1089 C1097 0.930 . S
H1090 C1098 0.930 . S
H1091 C1099 0.930 . S
H1092 C1102 0.930 . S
H1093 C1103 0.930 . S
C1094 H1088 0.930 . S
C1094 C1095 1.355 1_554 S
C1094 C1096 1.415 . S
C1095 C1094 1.355 1_556 S
C1095 C1097 1.419 . S
C1096 C1094 1.415 . S
C1096 C1101 1.425 . S
C1096 C1103 1.409 . S
C1097 H1089 0.930 . S
C1097 C1095 1.419 . S
C1097 C1098 1.362 . S
C1098 H1090 0.930 . S
C1098 C1097 1.362 . S
C1098 C1101 1.409 1_556 S
C1099 H1091 0.930 . S
C1099 C1100 1.355 . S
C1099 C1101 1.415 . S
C1100 C1099 1.355 . S
C1100 C1102 1.419 . S
C1101 C1096 1.425 . S
C1101 C1098 1.409 1_554 S
C1101 C1099 1.415 . S
C1102 H1092 0.930 . S
C1102 C1100 1.419 . S
C1102 C1103 1.362 . S
C1103 H1093 0.930 . S
C1103 C1096 1.409 . S
C1103 C1102 1.362 . S
H1104 C1110 0.930 . S
H1105 C1113 0.930 . S
H1106 C1114 0.930 . S
H1107 C1115 0.930 . S
H1108 C1118 0.930 . S
H1109 C1119 0.930 . S
C1110 H1104 0.930 . S
C1110 C1111 1.355 . S
C1110 C1112 1.415 1_455 S
C1111 C1110 1.355 . S
C1111 C1113 1.419 . S
C1112 C1110 1.415 1_655 S
C1112 C1117 1.418 1_655 S
C1112 C1119 1.409 . S
C1113 H1105 0.930 . S
C1113 C1111 1.419 . S
C1113 C1114 1.362 . S
C1114 H1106 0.930 . S
C1114 C1113 1.362 . S
C1114 C1117 1.464 . S
C1115 H1107 0.930 . S
C1115 C1116 1.355 . S
C1115 C1117 1.369 1_655 S
C1116 C1115 1.355 . S
C1116 C1118 1.419 . S
C1117 C1112 1.418 1_455 S
C1117 C1114 1.464 . S
C1117 C1115 1.369 1_455 S
C1118 H1108 0.930 . S
C1118 C1116 1.419 . S
C1118 C1119 1.362 . S
C1119 H1109 0.930 . S
C1119 C1112 1.409 . S
C1119 C1118 1.362 . S
H1120 C1126 0.930 . S
H1121 C1129 0.930 . S
H1122 C1130 0.930 . S
H1123 C1131 0.930 . S
H1124 C1134 0.930 . S
H1125 C1135 0.930 . S
C1126 H1120 0.930 . S
C1126 C1127 1.355 . S
C1126 C1128 1.415 . S
C1127 C1126 1.355 . S
C1127 C1129 1.419 . S
C1128 C1126 1.415 . S
C1128 C1133 1.425 . S
C1128 C1135 1.409 . S
C1129 H1121 0.930 . S
C1129 C1127 1.419 . S
C1129 C1130 1.362 . S
C1130 H1122 0.930 . S
C1130 C1129 1.362 . S
C1130 C1133 1.409 . S
C1131 H1123 0.930 . S
C1131 C1132 1.355 . S
C1131 C1133 1.415 . S
C1132 C1131 1.355 . S
C1132 C1134 1.419 . S
C1133 C1128 1.425 . S
C1133 C1130 1.409 . S
C1133 C1131 1.415 . S
C1134 H1124 0.930 . S
C1134 C1132 1.419 . S
C1134 C1135 1.362 . S
C1135 H1125 0.930 . S
C1135 C1128 1.409 . S
C1135 C1134 1.362 . S
H1136 C1142 0.930 . S
H1137 C1145 0.930 . S
H1138 C1146 0.930 . S
H1139 C1147 0.930 . S
H1140 C1150 0.930 . S
H1141 C1151 0.930 . S
C1142 H1136 0.930 . S
C1142 C1143 1.355 . S
C1142 C1144 1.415 . S
C1143 C1142 1.355 . S
C1143 C1145 1.419 . S
C1144 C1142 1.415 . S
C1144 C1149 1.425 . S
C1144 C1151 1.409 . S
C1145 H1137 0.930 . S
C1145 C1143 1.419 . S
C1145 C1146 1.362 . S
C1146 H1138 0.930 . S
C1146 C1145 1.362 . S
C1146 C1149 1.409 . S
C1147 H1139 0.930 . S
C1147 C1148 1.355 . S
C1147 C1149 1.415 . S
C1148 C1147 1.355 . S
C1148 C1150 1.419 . S
C1149 C1144 1.425 . S
C1149 C1146 1.409 . S
C1149 C1147 1.415 . S
C1150 H1140 0.930 . S
C1150 C1148 1.419 . S
C1150 C1151 1.362 . S
C1151 H1141 0.930 . S
C1151 C1144 1.409 . S
C1151 C1150 1.362 . S
H1152 C1158 0.930 . S
H1153 C1161 0.930 . S
H1154 C1162 0.930 . S
H1155 C1163 0.930 . S
H1156 C1166 0.930 . S
H1157 C1167 0.930 . S
C1158 H1152 0.930 . S
C1158 C1159 1.355 . S
C1158 C1160 1.415 . S
C1159 C1158 1.355 . S
C1159 C1161 1.419 . S
C1160 C1158 1.415 . S
C1160 C1165 1.425 . S
C1160 C1167 1.409 . S
C1161 H1153 0.930 . S
C1161 C1159 1.419 . S
C1161 C1162 1.362 . S
C1162 H1154 0.930 . S
C1162 C1161 1.362 . S
C1162 C1165 1.409 . S
C1163 H1155 0.930 . S
C1163 C1164 1.355 . S
C1163 C1165 1.415 . S
C1164 C1163 1.355 . S
C1164 C1166 1.419 . S
C1165 C1160 1.425 . S
C1165 C1162 1.409 . S
C1165 C1163 1.415 . S
C1166 H1156 0.930 . S
C1166 C1164 1.419 . S
C1166 C1167 1.362 . S
C1167 H1157 0.930 . S
C1167 C1160 1.409 . S
C1167 C1166 1.362 . S
H1168 C1174 0.930 . S
H1169 C1177 0.930 . S
H1170 C1178 0.930 . S
H1171 C1179 0.930 . S
H1172 C1182 0.930 . S
H1173 C1183 0.930 . S
C1174 H1168 0.930 . S
C1174 C1175 1.355 . S
C1174 C1176 1.415 . S
C1175 C1174 1.355 . S
C1175 C1177 1.419 . S
C1176 C1174 1.415 . S
C1176 C1181 1.425 . S
C1176 C1183 1.409 . S
C1177 H1169 0.930 . S
C1177 C1175 1.419 . S
C1177 C1178 1.362 . S
C1178 H1170 0.930 . S
C1178 C1177 1.362 . S
C1178 C1181 1.409 . S
C1179 H1171 0.930 . S
C1179 C1180 1.355 . S
C1179 C1181 1.415 . S
C1180 C1179 1.355 . S
C1180 C1182 1.419 . S
C1181 C1176 1.425 . S
C1181 C1178 1.409 . S
C1181 C1179 1.415 . S
C1182 H1172 0.930 . S
C1182 C1180 1.419 . S
C1182 C1183 1.362 . S
C1183 H1173 0.930 . S
C1183 C1176 1.409 . S
C1183 C1182 1.362 . S
H1184 C1190 0.930 . S
H1185 C1193 0.930 . S
H1186 C1194 0.930 . S
H1187 C1195 0.930 . S
H1188 C1198 0.930 . S
H1189 C1199 0.930 . S
C1190 H1184 0.930 . S
C1190 C1191 1.355 1_556 S
C1190 C1192 1.415 . S
C1191 C1190 1.355 1_554 S
C1191 C1193 1.419 . S
C1192 C1190 1.415 . S
C1192 C1197 1.425 . S
C1192 C1199 1.409 . S
C1193 H1185 0.930 . S
C1193 C1191 1.419 . S
C1193 C1194 1.362 . S
C1194 H1186 0.930 . S
C1194 C1193 1.362 . S
C1194 C1197 1.409 1_554 S
C1195 H1187 0.930 . S
C1195 C1196 1.355 . S
C1195 C1197 1.415 . S
C1196 C1195 1.355 . S
C1196 C1198 1.419 . S
C1197 C1192 1.425 . S
C1197 C1194 1.409 1_556 S
C1197 C1195 1.415 . S
C1198 H1188 0.930 . S
C1198 C1196 1.419 . S
C1198 C1199 1.362 . S
C1199 H1189 0.930 . S
C1199 C1192 1.409 . S
C1199 C1198 1.362 . S
H1200 C1206 0.930 . S
H1201 C1209 0.930 . S
H1202 C1210 0.930 . S
H1203 C1211 0.930 . S
H1204 C1214 0.930 . S
H1205 C1215 0.930 . S
C1206 H1200 0.930 . S
C1206 C1207 1.355 . S
C1206 C1208 1.452 . S
C1207 C1206 1.355 . S
C1207 C1209 1.419 . S
C1208 C1206 1.452 . S
C1208 C1213 1.420 1_455 S
C1208 C1215 1.379 1_455 S
C1209 H1201 0.930 . S
C1209 C1207 1.419 . S
C1209 C1210 1.362 . S
C1210 H1202 0.930 . S
C1210 C1209 1.362 . S
C1210 C1213 1.409 1_455 S
C1211 H1203 0.930 . S
C1211 C1212 1.355 . S
C1211 C1213 1.415 . S
C1212 C1211 1.355 . S
C1212 C1214 1.419 . S
C1213 C1208 1.420 1_655 S
C1213 C1210 1.409 1_655 S
C1213 C1211 1.415 . S
C1214 H1204 0.930 . S
C1214 C1212 1.419 . S
C1214 C1215 1.362 . S
C1215 H1205 0.930 . S
C1215 C1208 1.379 1_655 S
C1215 C1214 1.362 . S
H1216 C1222 0.930 . S
H1217 C1225 0.930 . S
H1218 C1226 0.930 . S
H1219 C1227 0.930 . S
H1220 C1230 0.930 . S
H1221 C1231 0.930 . S
C1222 H1216 0.930 . S
C1222 C1223 1.355 . S
C1222 C1224 1.415 . S
C1223 C1222 1.355 . S
C1223 C1225 1.419 . S
C1224 C1222 1.415 . S
C1224 C1229 1.425 . S
C1224 C1231 1.409 . S
C1225 H1217 0.930 . S
C1225 C1223 1.419 . S
C1225 C1226 1.362 . S
C1226 H1218 0.930 . S
C1226 C1225 1.362 . S
C1226 C1229 1.409 . S
C1227 H1219 0.930 . S
C1227 C1228 1.355 . S
C1227 C1229 1.415 . S
C1228 C1227 1.355 . S
C1228 C1230 1.419 . S
C1229 C1224 1.425 . S
C1229 C1226 1.409 . S
C1229 C1227 1.415 . S
C1230 H1220 0.930 . S
C1230 C1228 1.419 . S
C1230 C1231 1.362 . S
C1231 H1221 0.930 . S
C1231 C1224 1.409 . S
C1231 C1230 1.362 . S
H1232 C1238 0.930 . S
H1233 C1241 0.930 . S
H1234 C1242 0.930 . S
H1235 C1243 0.930 . S
H1236 C1246 0.930 . S
H1237 C1247 0.930 . S
C1238 H1232 0.930 . S
C1238 C1239 1.355 . S
C1238 C1240 1.415 . S
C1239 C1238 1.355 . S
C1239 C1241 1.419 . S
C1240 C1238 1.415 . S
C1240 C1245 1.425 . S
C1240 C1247 1.409 . S
C1241 H1233 0.930 . S
C1241 C1239 1.419 . S
C1241 C1242 1.362 . S
C1242 H1234 0.930 . S
C1242 C1241 1.362 . S
C1242 C1245 1.409 . S
C1243 H1235 0.930 . S
C1243 C1244 1.355 . S
C1243 C1245 1.415 . S
C1244 C1243 1.355 . S
C1244 C1246 1.419 . S
C1245 C1240 1.425 . S
C1245 C1242 1.409 . S
C1245 C1243 1.415 . S
C1246 H1236 0.930 . S
C1246 C1244 1.419 . S
C1246 C1247 1.362 . S
C1247 H1237 0.930 . S
C1247 C1240 1.409 . S
C1247 C1246 1.362 . S
H1248 C1254 0.930 . S
H1249 C1257 0.930 . S
H1250 C1258 0.930 . S
H1251 C1259 0.930 . S
H1252 C1262 0.930 . S
H1253 C1263 0.930 1_554 S
C1254 H1248 0.930 . S
C1254 C1255 1.355 . S
C1254 C1256 1.415 1_554 S
C1255 C1254 1.355 . S
C1255 C1257 1.419 1_554 S
C1256 C1254 1.415 1_556 S
C1256 C1261 1.425 . S
C1256 C1263 1.409 . S
C1257 H1249 0.930 . S
C1257 C1255 1.419 1_556 S
C1257 C1258 1.362 . S
C1258 H1250 0.930 . S
C1258 C1257 1.362 . S
C1258 C1261 1.409 . S
C1259 H1251 0.930 . S
C1259 C1260 1.355 . S
C1259 C1261 1.415 . S
C1260 C1259 1.355 . S
C1260 C1262 1.419 . S
C1261 C1256 1.425 . S
C1261 C1258 1.409 . S
C1261 C1259 1.415 . S
C1262 H1252 0.930 . S
C1262 C1260 1.419 . S
C1262 C1263 1.362 . S
C1263 H1253 0.930 1_556 S
C1263 C1256 1.409 . S
C1263 C1262 1.362 . S
H1264 C1270 0.930 . S
H1265 C1273 0.930 . S
H1266 C1274 0.930 1_455 S
H1267 C1275 0.930 . S
H1268 C1278 0.930 . S
H1269 C1279 0.930 1_655 S
C1270 H1264 0.930 . S
C1270 C1271 1.355 . S
C1270 C1272 1.415 . S
C1271 C1270 1.355 . S
C1271 C1273 1.419 . S
C1272 C1270 1.415 . S
C1272 C1277 1.425 1_655 S
C1272 C1279 1.409 1_655 S
C1273 H1265 0.930 . S
C1273 C1271 1.419 . S
C1273 C1274 1.362 . S
C1274 H1266 0.930 1_655 S
C1274 C1273 1.362 . S
C1274 C1277 1.409 1_655 S
C1275 H1267 0.930 . S
C1275 C1276 1.355 . S
C1275 C1277 1.415 . S
C1276 C1275 1.355 . S
C1276 C1278 1.419 . S
C1277 C1272 1.425 1_455 S
C1277 C1274 1.409 1_455 S
C1277 C1275 1.415 . S
C1278 H1268 0.930 . S
C1278 C1276 1.419 . S
C1278 C1279 1.362 . S
C1279 H1269 0.930 1_455 S
C1279 C1272 1.409 1_455 S
C1279 C1278 1.362 . S
H1280 C1286 0.930 . S
H1281 C1289 0.930 . S
H1282 C1290 0.930 . S
H1283 C1291 0.930 . S
H1284 C1294 0.930 . S
H1285 C1295 0.930 1_556 S
C1286 H1280 0.930 . S
C1286 C1287 1.355 . S
C1286 C1288 1.415 1_556 S
C1287 C1286 1.355 . S
C1287 C1289 1.419 1_556 S
C1288 C1286 1.415 1_554 S
C1288 C1293 1.425 . S
C1288 C1295 1.409 . S
C1289 H1281 0.930 . S
C1289 C1287 1.419 1_554 S
C1289 C1290 1.362 . S
C1290 H1282 0.930 . S
C1290 C1289 1.362 . S
C1290 C1293 1.409 . S
C1291 H1283 0.930 . S
C1291 C1292 1.355 . S
C1291 C1293 1.415 . S
C1292 C1291 1.355 . S
C1292 C1294 1.419 . S
C1293 C1288 1.425 . S
C1293 C1290 1.409 . S
C1293 C1291 1.415 . S
C1294 H1284 0.930 . S
C1294 C1292 1.419 . S
C1294 C1295 1.362 . S
C1295 H1285 0.930 1_554 S
C1295 C1288 1.409 . S
C1295 C1294 1.362 . S
H1296 C1302 0.930 . S
H1297 C1305 0.930 . S
H1298 C1306 0.930 . S
H1299 C1307 0.930 . S
H1300 C1310 0.930 . S
H1301 C1311 0.930 . S
C1302 H1296 0.930 . S
C1302 C1303 1.355 . S
C1302 C1304 1.415 1_655 S
C1303 C1302 1.355 . S
C1303 C1305 1.419 . S
C1304 C1302 1.415 1_455 S
C1304 C1309 1.425 1_455 S
C1304 C1311 1.409 . S
C1305 H1297 0.930 . S
C1305 C1303 1.419 . S
C1305 C1306 1.362 . S
C1306 H1298 0.930 . S
C1306 C1305 1.362 . S
C1306 C1309 1.409 . S
C1307 H1299 0.930 . S
C1307 C1308 1.355 . S
C1307 C1309 1.415 1_455 S
C1308 C1307 1.355 . S
C1308 C1310 1.419 . S
C1309 C1304 1.425 1_655 S
C1309 C1306 1.409 . S
C1309 C1307 1.415 1_655 S
C1310 H1300 0.930 . S
C1310 C1308 1.419 . S
C1310 C1311 1.362 . S
C1311 H1301 0.930 . S
C1311 C1304 1.409 . S
C1311 C1310 1.362 . S
H1312 C1318 0.930 . S
H1313 C1321 0.930 . S
H1314 C1322 0.930 . S
H1315 C1323 0.930 . S
H1316 C1326 0.930 . S
H1317 C1327 0.930 . S
C1318 H1312 0.930 . S
C1318 C1319 1.355 . S
C1318 C1320 1.415 . S
C1319 C1318 1.355 . S
C1319 C1321 1.419 . S
C1320 C1318 1.415 . S
C1320 C1325 1.425 . S
C1320 C1327 1.409 . S
C1321 H1313 0.930 . S
C1321 C1319 1.419 . S
C1321 C1322 1.362 . S
C1322 H1314 0.930 . S
C1322 C1321 1.362 . S
C1322 C1325 1.409 . S
C1323 H1315 0.930 . S
C1323 C1324 1.355 . S
C1323 C1325 1.415 . S
C1324 C1323 1.355 . S
C1324 C1326 1.419 . S
C1325 C1320 1.425 . S
C1325 C1322 1.409 . S
C1325 C1323 1.415 . S
C1326 H1316 0.930 . S
C1326 C1324 1.419 . S
C1326 C1327 1.362 . S
C1327 H1317 0.930 . S
C1327 C1320 1.409 . S
C1327 C1326 1.362 . S
H1328 C1334 0.930 . S
H1329 C1337 0.930 . S
H1330 C1338 0.930 . S
H1331 C1339 0.930 . S
H1332 C1342 0.930 . S
H1333 C1343 0.930 . S
C1334 H1328 0.930 . S
C1334 C1335 1.355 . S
C1334 C1336 1.415 . S
C1335 C1334 1.355 . S
C1335 C1337 1.419 . S
C1336 C1334 1.415 . S
C1336 C1341 1.425 . S
C1336 C1343 1.409 . S
C1337 H1329 0.930 . S
C1337 C1335 1.419 . S
C1337 C1338 1.362 . S
C1338 H1330 0.930 . S
C1338 C1337 1.362 . S
C1338 C1341 1.409 . S
C1339 H1331 0.930 . S
C1339 C1340 1.355 . S
C1339 C1341 1.415 . S
C1340 C1339 1.355 . S
C1340 C1342 1.419 . S
C1341 C1336 1.425 . S
C1341 C1338 1.409 . S
C1341 C1339 1.415 . S
C1342 H1332 0.930 . S
C1342 C1340 1.419 . S
C1342 C1343 1.362 . S
C1343 H1333 0.930 . S
C1343 C1336 1.409 . S
C1343 C1342 1.362 . S
H1344 C1350 0.930 . S
H1345 C1353 0.930 . S
H1346 C1354 0.930 . S
H1347 C1355 0.930 . S
H1348 C1358 0.930 . S
H1349 C1359 0.930 . S
C1350 H1344 0.930 . S
C1350 C1351 1.355 . S
C1350 C1352 1.415 . S
C1351 C1350 1.355 . S
C1351 C1353 1.419 . S
C1352 C1350 1.415 . S
C1352 C1357 1.425 . S
C1352 C1359 1.409 . S
C1353 H1345 0.930 . S
C1353 C1351 1.419 . S
C1353 C1354 1.362 . S
C1354 H1346 0.930 . S
C1354 C1353 1.362 . S
C1354 C1357 1.409 . S
C1355 H1347 0.930 . S
C1355 C1356 1.355 . S
C1355 C1357 1.415 . S
C1356 C1355 1.355 . S
C1356 C1358 1.419 . S
C1357 C1352 1.425 . S
C1357 C1354 1.409 . S
C1357 C1355 1.415 . S
C1358 H1348 0.930 . S
C1358 C1356 1.419 . S
C1358 C1359 1.362 . S
C1359 H1349 0.930 . S
C1359 C1352 1.409 . S
C1359 C1358 1.362 . S
H1360 C1366 0.930 . S
H1361 C1369 0.930 . S
H1362 C1370 0.930 . S
H1363 C1371 0.930 . S
H1364 C1374 0.930 . S
H1365 C1375 0.930 . S
C1366 H1360 0.930 . S
C1366 C1367 1.355 . S
C1366 C1368 1.415 . S
C1367 C1366 1.355 . S
C1367 C1369 1.419 . S
C1368 C1366 1.415 . S
C1368 C1373 1.425 . S
C1368 C1375 1.409 . S
C1369 H1361 0.930 . S
C1369 C1367 1.419 . S
C1369 C1370 1.362 . S
C1370 H1362 0.930 . S
C1370 C1369 1.362 . S
C1370 C1373 1.409 . S
C1371 H1363 0.930 . S
C1371 C1372 1.355 . S
C1371 C1373 1.415 . S
C1372 C1371 1.355 . S
C1372 C1374 1.419 . S
C1373 C1368 1.425 . S
C1373 C1370 1.409 . S
C1373 C1371 1.415 . S
C1374 H1364 0.930 . S
C1374 C1372 1.419 . S
C1374 C1375 1.362 . S
C1375 H1365 0.930 . S
C1375 C1368 1.409 . S
C1375 C1374 1.362 . S
H1376 C1382 0.930 . S
H1377 C1385 0.930 . S
H1378 C1386 0.930 . S
H1379 C1387 0.930 . S
H1380 C1390 0.930 . S
H1381 C1391 0.930 . S
C1382 H1376 0.930 . S
C1382 C1383 1.355 . S
C1382 C1384 1.415 . S
C1383 C1382 1.355 . S
C1383 C1385 1.419 . S
C1384 C1382 1.415 . S
C1384 C1389 1.425 . S
C1384 C1391 1.409 1_554 S
C1385 H1377 0.930 . S
C1385 C1383 1.419 . S
C1385 C1386 1.362 . S
C1386 H1378 0.930 . S
C1386 C1385 1.362 . S
C1386 C1389 1.409 . S
C1387 H1379 0.930 . S
C1387 C1388 1.355 1_554 S
C1387 C1389 1.415 . S
C1388 C1387 1.355 1_556 S
C1388 C1390 1.419 . S
C1389 C1384 1.425 . S
C1389 C1386 1.409 . S
C1389 C1387 1.415 . S
C1390 H1380 0.930 . S
C1390 C1388 1.419 . S
C1390 C1391 1.362 . S
C1391 H1381 0.930 . S
C1391 C1384 1.409 1_556 S
C1391 C1390 1.362 . S
H1392 C1398 0.930 . S
H1393 C1401 0.930 . S
H1394 C1402 0.930 . S
H1395 C1403 0.930 . S
H1396 C1406 0.930 . S
H1397 C1407 0.930 . S
C1398 H1392 0.930 . S
C1398 C1399 1.355 . S
C1398 C1400 1.415 1_455 S
C1399 C1398 1.355 . S
C1399 C1401 1.419 . S
C1400 C1398 1.415 1_655 S
C1400 C1405 1.425 1_655 S
C1400 C1407 1.409 . S
C1401 H1393 0.930 . S
C1401 C1399 1.419 . S
C1401 C1402 1.362 . S
C1402 H1394 0.930 . S
C1402 C1401 1.362 . S
C1402 C1405 1.409 . S
C1403 H1395 0.930 . S
C1403 C1404 1.355 . S
C1403 C1405 1.415 1_655 S
C1404 C1403 1.355 . S
C1404 C1406 1.419 . S
C1405 C1400 1.425 1_455 S
C1405 C1402 1.409 . S
C1405 C1403 1.415 1_455 S
C1406 H1396 0.930 . S
C1406 C1404 1.419 . S
C1406 C1407 1.362 . S
C1407 H1397 0.930 . S
C1407 C1400 1.409 . S
C1407 C1406 1.362 . S
H1408 C1414 0.930 . S
H1409 C1417 0.930 . S
H1410 C1418 0.930 . S
H1411 C1419 0.930 . S
H1412 C1422 0.930 . S
H1413 C1423 0.930 . S
C1414 H1408 0.930 . S
C1414 C1415 1.355 1_556 S
C1414 C1416 1.415 . S
C1415 C1414 1.355 1_554 S
C1415 C1417 1.419 . S
C1416 C1414 1.415 . S
C1416 C1421 1.425 . S
C1416 C1423 1.409 . S
C1417 H1409 0.930 . S
C1417 C1415 1.419 . S
C1417 C1418 1.362 1_554 S
C1418 H1410 0.930 . S
C1418 C1417 1.362 1_556 S
C1418 C1421 1.409 . S
C1419 H1411 0.930 . S
C1419 C1420 1.355 . S
C1419 C1421 1.415 . S
C1420 C1419 1.355 . S
C1420 C1422 1.419 . S
C1421 C1416 1.425 . S
C1421 C1418 1.409 . S
C1421 C1419 1.415 . S
C1422 H1412 0.930 . S
C1422 C1420 1.419 . S
C1422 C1423 1.362 . S
C1423 H1413 0.930 . S
C1423 C1416 1.409 . S
C1423 C1422 1.362 . S
H1424 C1430 0.930 . S
H1425 C1433 0.930 . S
H1426 C1434 0.900 1_455 S
H1427 C1435 0.930 . S
H1428 C1438 0.930 . S
H1429 C1439 0.930 1_655 S
C1430 H1424 0.930 . S
C1430 C1431 1.355 . S
C1430 C1432 1.415 . S
C1431 C1430 1.355 . S
C1431 C1433 1.419 . S
C1432 C1430 1.415 . S
C1432 C1437 1.425 1_655 S
C1432 C1439 1.409 1_655 S
C1433 H1425 0.930 . S
C1433 C1431 1.419 . S
C1433 C1434 1.415 . S
C1434 H1426 0.900 1_655 S
C1434 C1433 1.415 . S
C1434 C1437 1.389 1_655 S
C1435 H1427 0.930 . S
C1435 C1436 1.355 . S
C1435 C1437 1.415 . S
C1436 C1435 1.355 . S
C1436 C1438 1.419 . S
C1437 C1432 1.425 1_455 S
C1437 C1434 1.389 1_455 S
C1437 C1435 1.415 . S
C1438 H1428 0.930 . S
C1438 C1436 1.419 . S
C1438 C1439 1.362 . S
C1439 H1429 0.930 1_455 S
C1439 C1432 1.409 1_455 S
C1439 C1438 1.362 . S
H1440 C1446 0.930 . S
H1441 C1449 0.930 . S
H1442 C1450 0.930 . S
H1443 C1451 0.930 . S
H1444 C1454 0.930 . S
H1445 C1455 0.930 . S
C1446 H1440 0.930 . S
C1446 C1447 1.355 . S
C1446 C1448 1.415 . S
C1447 C1446 1.355 . S
C1447 C1449 1.419 . S
C1448 C1446 1.415 . S
C1448 C1453 1.425 . S
C1448 C1455 1.409 . S
C1449 H1441 0.930 . S
C1449 C1447 1.419 . S
C1449 C1450 1.362 . S
C1450 H1442 0.930 . S
C1450 C1449 1.362 . S
C1450 C1453 1.409 . S
C1451 H1443 0.930 . S
C1451 C1452 1.355 . S
C1451 C1453 1.415 . S
C1452 C1451 1.355 . S
C1452 C1454 1.419 . S
C1453 C1448 1.425 . S
C1453 C1450 1.409 . S
C1453 C1451 1.415 . S
C1454 H1444 0.930 . S
C1454 C1452 1.419 . S
C1454 C1455 1.362 . S
C1455 H1445 0.930 . S
C1455 C1448 1.409 . S
C1455 C1454 1.362 . S
H1456 C1462 0.930 . S
H1457 C1465 0.930 . S
H1458 C1466 0.930 . S
H1459 C1467 0.930 . S
H1460 C1470 0.930 . S
H1461 C1471 0.930 . S
C1462 H1456 0.930 . S
C1462 C1463 1.355 . S
C1462 C1464 1.415 . S
C1463 C1462 1.355 . S
C1463 C1465 1.419 . S
C1464 C1462 1.415 . S
C1464 C1469 1.425 . S
C1464 C1471 1.409 . S
C1465 H1457 0.930 . S
C1465 C1463 1.419 . S
C1465 C1466 1.362 . S
C1466 H1458 0.930 . S
C1466 C1465 1.362 . S
C1466 C1469 1.409 . S
C1467 H1459 0.930 . S
C1467 C1468 1.355 . S
C1467 C1469 1.415 . S
C1468 C1467 1.355 . S
C1468 C1470 1.419 . S
C1469 C1464 1.425 . S
C1469 C1466 1.409 . S
C1469 C1467 1.415 . S
C1470 H1460 0.930 . S
C1470 C1468 1.419 . S
C1470 C1471 1.362 . S
C1471 H1461 0.930 . S
C1471 C1464 1.409 . S
C1471 C1470 1.362 . S
C455 C91 1.542 . S
C460 C7 1.554 . S
C471 C21 1.456 . S
C476 C105 1.488 . S
C487 C63 1.547 . S
C492 C35 1.549 . S
C503 C49 1.468 . S
C508 C77 1.481 . S
C519 C203 1.476 . S
C524 C119 1.505 . S
C535 C133 1.461 . S
C540 C217 1.486 . S
C551 C175 1.539 . S
C556 C147 1.474 . S
C567 C161 1.442 . S
C572 C189 1.414 . S
C583 C231 1.512 . S
C588 C315 1.473 . S
C599 C329 1.447 . S
C604 C245 1.412 . S
C615 C259 1.488 . S
C620 C287 1.488 . S
C631 C301 1.415 . S
C636 C273 1.480 . S
C647 C427 1.532 . S
C652 C343 1.472 . S
C663 C441 1.413 . S
C668 C357 1.477 . S
C679 C399 1.495 . S
C684 C371 1.482 . S
C695 C385 1.415 . S
C700 C413 1.480 . S
C711 C109 1.287 . S
C716 C11 1.277 . S
C727 C67 1.277 . S
C732 C25 1.288 . S
C743 C81 1.288 . S
C748 C39 1.277 . S
C759 C95 1.287 . S
C764 C53 1.277 . S
C775 C221 1.289 . S
C780 C123 1.284 . S
C791 C179 1.278 . S
C796 C137 1.263 . S
C807 C193 1.271 . S
C812 C151 1.285 . S
C823 C165 1.289 . S
C828 C207 1.279 . S
C839 C333 1.280 . S
C844 C235 1.287 . S
C855 C249 1.284 . S
C860 C291 1.276 . S
C871 C263 1.278 . S
C876 C305 1.263 . S
C887 C319 1.287 . S
C892 C277 1.279 . S
C903 C445 1.284 . S
C908 C347 1.287 . S
C919 C361 1.289 . S
C924 C403 1.279 . S
C935 C375 1.273 . S
C940 C417 1.274 . S
C951 C431 1.280 . S
C956 C389 1.263 . S
C967 C13 1.152 . S
C972 C428 1.071 . S
C983 C218 0.943 . S
C988 C27 0.913 . S
C999 C400 0.998 . S
C1004 C41 1.063 . S
C1015 C190 1.045 . S
C1020 C55 0.971 . S
C1031 C372 1.010 . S
C1036 C69 1.034 . S
C1047 C83 1.067 . S
C1052 C162 0.995 . S
C1063 C97 1.020 . S
C1068 C344 1.038 . S
C1079 C111 0.921 . S
C1084 C134 0.926 . S
C1095 C125 1.029 . S
C1100 C316 1.014 . S
C1111 C106 1.048 . S
C1116 C139 1.055 . S
C1127 C288 1.023 . S
C1132 C153 1.121 . S
C1143 C78 1.019 . S
C1148 C167 0.942 . S
C1159 C260 1.114 . S
C1164 C181 1.050 . S
C1175 C50 1.051 . S
C1180 C195 0.978 . S
C1191 C209 1.032 . S
C1196 C232 1.011 . S
C1207 C22 0.907 . S
C1212 C223 1.002 . S
C1223 C204 1.124 . S
C1228 C237 1.060 . S
C1239 C442 0.917 . S
C1244 C251 0.928 . S
C1255 C265 1.156 . S
C1260 C176 1.085 . S
C1271 C279 0.980 . S
C1276 C414 1.049 . S
C1287 C293 1.148 . S
C1292 C148 1.060 . S
C1303 C307 1.069 . S
C1308 C386 1.009 . S
C1319 C321 1.132 . S
C1324 C120 1.035 . S
C1335 C335 0.919 . S
C1340 C358 0.982 . S
C1351 C92 1.032 . S
C1356 C349 1.129 . S
C1367 C330 1.044 . S
C1372 C363 0.969 . S
C1383 C64 1.068 . S
C1388 C377 1.023 . S
C1399 C391 1.066 . S
C1404 C302 1.029 . S
C1415 C405 1.125 . S
C1420 C36 1.027 . S
C1431 C274 1.047 . S
C1436 C419 0.973 . S
C1447 C433 1.025 . S
C1452 C8 1.021 . S
C1463 C447 1.049 . S
C1468 C246 1.053 . S
