# Generated by pormake.
# Topology wlb, (5)-cn, num edge types: 1
# Building blocks:
#     Node 0, Type 0, BuildingBlock: XOMCOT_clean_sbu_1, # of connection points: 5
#     Node 1, Type 0, BuildingBlock: XOMCOT_clean_sbu_1, # of connection points: 5
#     Node 2, Type 0, BuildingBlock: XOMCOT_clean_sbu_1, # of connection points: 5
#     Node 3, Type 0, BuildingBlock: XOMCOT_clean_sbu_1, # of connection points: 5
#     Node 4, Type 0, BuildingBlock: XOMCOT_clean_sbu_1, # of connection points: 5
#     Node 5, Type 0, BuildingBlock: XOMCOT_clean_sbu_1, # of connection points: 5
#     Node 6, Type 0, BuildingBlock: XOMCOT_clean_sbu_1, # of connection points: 5
#     Node 7, Type 0, BuildingBlock: XOMCOT_clean_sbu_1, # of connection points: 5
#     Node 8, Type 0, BuildingBlock: XOMCOT_clean_sbu_1, # of connection points: 5
#     Node 9, Type 0, BuildingBlock: XOMCOT_clean_sbu_1, # of connection points: 5
#     Node 10, Type 0, BuildingBlock: XOMCOT_clean_sbu_1, # of connection points: 5
#     Node 11, Type 0, BuildingBlock: XOMCOT_clean_sbu_1, # of connection points: 5
#     Node 12, Type 0, BuildingBlock: XOMCOT_clean_sbu_1, # of connection points: 5
#     Node 13, Type 0, BuildingBlock: XOMCOT_clean_sbu_1, # of connection points: 5
#     Node 14, Type 0, BuildingBlock: XOMCOT_clean_sbu_1, # of connection points: 5
#     Node 15, Type 0, BuildingBlock: XOMCOT_clean_sbu_1, # of connection points: 5
#     Node 16, Type 0, BuildingBlock: XOMCOT_clean_sbu_1, # of connection points: 5
#     Node 17, Type 0, BuildingBlock: XOMCOT_clean_sbu_1, # of connection points: 5
#     Edge 18, Type (0, 0), BuildingBlock: MIFKUJ_clean_linker_0, # of connection points: 2
#     Edge 19, Type (0, 0), BuildingBlock: MIFKUJ_clean_linker_0, # of connection points: 2
#     Edge 20, Type (0, 0), BuildingBlock: MIFKUJ_clean_linker_0, # of connection points: 2
#     Edge 21, Type (0, 0), BuildingBlock: MIFKUJ_clean_linker_0, # of connection points: 2
#     Edge 22, Type (0, 0), BuildingBlock: MIFKUJ_clean_linker_0, # of connection points: 2
#     Edge 23, Type (0, 0), BuildingBlock: MIFKUJ_clean_linker_0, # of connection points: 2
#     Edge 24, Type (0, 0), BuildingBlock: MIFKUJ_clean_linker_0, # of connection points: 2
#     Edge 25, Type (0, 0), BuildingBlock: MIFKUJ_clean_linker_0, # of connection points: 2
#     Edge 26, Type (0, 0), BuildingBlock: MIFKUJ_clean_linker_0, # of connection points: 2
#     Edge 27, Type (0, 0), BuildingBlock: MIFKUJ_clean_linker_0, # of connection points: 2
#     Edge 28, Type (0, 0), BuildingBlock: MIFKUJ_clean_linker_0, # of connection points: 2
#     Edge 29, Type (0, 0), BuildingBlock: MIFKUJ_clean_linker_0, # of connection points: 2
#     Edge 30, Type (0, 0), BuildingBlock: MIFKUJ_clean_linker_0, # of connection points: 2
#     Edge 31, Type (0, 0), BuildingBlock: MIFKUJ_clean_linker_0, # of connection points: 2
#     Edge 32, Type (0, 0), BuildingBlock: MIFKUJ_clean_linker_0, # of connection points: 2
#     Edge 33, Type (0, 0), BuildingBlock: MIFKUJ_clean_linker_0, # of connection points: 2
#     Edge 34, Type (0, 0), BuildingBlock: MIFKUJ_clean_linker_0, # of connection points: 2
#     Edge 35, Type (0, 0), BuildingBlock: MIFKUJ_clean_linker_0, # of connection points: 2
#     Edge 36, Type (0, 0), BuildingBlock: MIFKUJ_clean_linker_0, # of connection points: 2
#     Edge 37, Type (0, 0), BuildingBlock: MIFKUJ_clean_linker_0, # of connection points: 2
#     Edge 38, Type (0, 0), BuildingBlock: MIFKUJ_clean_linker_0, # of connection points: 2
#     Edge 39, Type (0, 0), BuildingBlock: MIFKUJ_clean_linker_0, # of connection points: 2
#     Edge 40, Type (0, 0), BuildingBlock: MIFKUJ_clean_linker_0, # of connection points: 2
#     Edge 41, Type (0, 0), BuildingBlock: MIFKUJ_clean_linker_0, # of connection points: 2
#     Edge 42, Type (0, 0), BuildingBlock: MIFKUJ_clean_linker_0, # of connection points: 2
#     Edge 43, Type (0, 0), BuildingBlock: MIFKUJ_clean_linker_0, # of connection points: 2
#     Edge 44, Type (0, 0), BuildingBlock: MIFKUJ_clean_linker_0, # of connection points: 2
#     Edge 45, Type (0, 0), BuildingBlock: MIFKUJ_clean_linker_0, # of connection points: 2
#     Edge 46, Type (0, 0), BuildingBlock: MIFKUJ_clean_linker_0, # of connection points: 2
#     Edge 47, Type (0, 0), BuildingBlock: MIFKUJ_clean_linker_0, # of connection points: 2
#     Edge 48, Type (0, 0), BuildingBlock: MIFKUJ_clean_linker_0, # of connection points: 2
#     Edge 49, Type (0, 0), BuildingBlock: MIFKUJ_clean_linker_0, # of connection points: 2
#     Edge 50, Type (0, 0), BuildingBlock: MIFKUJ_clean_linker_0, # of connection points: 2
#     Edge 51, Type (0, 0), BuildingBlock: MIFKUJ_clean_linker_0, # of connection points: 2
#     Edge 52, Type (0, 0), BuildingBlock: MIFKUJ_clean_linker_0, # of connection points: 2
#     Edge 53, Type (0, 0), BuildingBlock: MIFKUJ_clean_linker_0, # of connection points: 2
#     Edge 54, Type (0, 0), BuildingBlock: MIFKUJ_clean_linker_0, # of connection points: 2
#     Edge 55, Type (0, 0), BuildingBlock: MIFKUJ_clean_linker_0, # of connection points: 2
#     Edge 56, Type (0, 0), BuildingBlock: MIFKUJ_clean_linker_0, # of connection points: 2
#     Edge 57, Type (0, 0), BuildingBlock: MIFKUJ_clean_linker_0, # of connection points: 2
#     Edge 58, Type (0, 0), BuildingBlock: MIFKUJ_clean_linker_0, # of connection points: 2
#     Edge 59, Type (0, 0), BuildingBlock: MIFKUJ_clean_linker_0, # of connection points: 2
#     Edge 60, Type (0, 0), BuildingBlock: MIFKUJ_clean_linker_0, # of connection points: 2
#     Edge 61, Type (0, 0), BuildingBlock: MIFKUJ_clean_linker_0, # of connection points: 2
#     Edge 62, Type (0, 0), BuildingBlock: MIFKUJ_clean_linker_0, # of connection points: 2
# Relax obj value: 0.324
# Max RMSD: 0.210
# Mean RMSD: 0.210
data_MOF--net-wlb--node1-XOMCOT_clean_sbu_1--edge1-MIFKUJ_clean_linker_0
_symmetry_space_group_name_H-M    P1
_symmetry_Int_Tables_number       1
_symmetry_cell_setting            triclinic
loop_
_symmetry_equiv_pos_as_xyz
'x, y, z'
_cell_length_a     66.202582
_cell_length_b     66.245254
_cell_length_c     50.259112
_cell_angle_alpha  89.999552
_cell_angle_beta   89.988139
_cell_angle_gamma 119.9712
loop_
_atom_site_label
_atom_site_type_symbol
_atom_site_fract_x
_atom_site_fract_y
_atom_site_fract_z
_atom_type_partial_charge
C0 C 0.08747 0.18722 0.20318 0.0
C1 C 0.09846 0.17435 0.20569 0.0
N2 N 0.08923 0.16004 0.22677 0.0
N3 N 0.07139 0.18105 0.22257 0.0
C4 C 0.07294 0.16455 0.23673 0.0
H5 H 0.09091 0.20021 0.18812 0.0
Co6 Co 0.0523 0.19385 0.22747 0.0
C7 C 0.00816 0.15624 0.25031 0.0
O8 O 0.99699 0.16492 0.23736 0.0
N9 N 0.03362 0.20773 0.23297 0.0
C10 C 0.0154 0.223 0.25539 0.0
C11 C 0.02785 0.21163 0.25749 0.0
C12 C 0.02457 0.21724 0.21629 0.0
N13 N 0.01328 0.22653 0.22942 0.0
O14 O 0.07003 0.21021 0.25815 0.0
H15 H 0.03242 0.20648 0.27593 0.0
H16 H 0.02603 0.21741 0.19494 0.0
O17 O 0.03046 0.16642 0.24878 0.0
C18 C 0.08696 0.22973 0.25054 0.0
O19 O 0.09034 0.23363 0.22483 0.0
N20 N 0.03694 0.17953 0.19561 0.0
C21 C 0.02255 0.16286 0.1441 0.0
C22 C 0.01562 0.14744 0.16568 0.0
C23 C 0.02358 0.15607 0.19123 0.0
C24 C 0.04451 0.19457 0.17464 0.0
C25 C 0.03727 0.18669 0.14878 0.0
H26 H 0.01991 0.14368 0.20697 0.0
H27 H 0.05673 0.21284 0.17801 0.0
H28 H 0.06268 0.15628 0.25428 0.0
H29 H 0.11188 0.17514 0.19269 0.0
H30 H 0.00886 0.22863 0.27182 0.0
H31 H 0.00508 0.12881 0.16266 0.0
H32 H 0.04337 0.19912 0.13256 0.0
C33 C 0.81519 0.89036 0.20964 0.0
C34 C 0.8283 0.91413 0.21289 0.0
N35 N 0.84428 0.91862 0.232 0.0
N36 N 0.82284 0.87992 0.22662 0.0
C37 C 0.84049 0.89757 0.2401 0.0
H38 H 0.80115 0.88123 0.19555 0.0
Co39 Co 0.8107 0.84791 0.22901 0.0
C40 C 0.84916 0.84119 0.24801 0.0
O41 O 0.84086 0.82257 0.23287 0.0
N42 N 0.79745 0.81511 0.23213 0.0
C43 C 0.78277 0.78083 0.25286 0.0
C44 C 0.79472 0.80456 0.256 0.0
C45 C 0.78673 0.79712 0.21478 0.0
N46 N 0.77778 0.77618 0.2269 0.0
O47 O 0.79414 0.84704 0.26068 0.0
H48 H 0.80093 0.81362 0.27474 0.0
H49 H 0.7846 0.79895 0.19384 0.0
O50 O 0.8385 0.85287 0.24917 0.0
C51 C 0.77366 0.84198 0.25348 0.0
O52 O 0.76942 0.84132 0.22785 0.0
N53 N 0.82518 0.84907 0.19637 0.0
C54 C 0.84218 0.85223 0.14501 0.0
C55 C 0.85761 0.86257 0.16625 0.0
C56 C 0.84873 0.8611 0.19186 0.0
C57 C 0.81013 0.8408 0.17543 0.0
C58 C 0.8182 0.8415 0.14965 0.0
H59 H 0.86084 0.87039 0.2077 0.0
H60 H 0.79169 0.8339 0.17875 0.0
H61 H 0.85023 0.89513 0.25576 0.0
H62 H 0.8266 0.92712 0.2016 0.0
H63 H 0.77816 0.76799 0.26846 0.0
H64 H 0.87629 0.87184 0.16302 0.0
H65 H 0.80587 0.8342 0.13338 0.0
C66 C 0.1168 0.90937 0.21254 0.0
C67 C 0.09341 0.89713 0.21887 0.0
N68 N 0.08773 0.91174 0.23111 0.0
N69 N 0.1259 0.93156 0.22088 0.0
C70 C 0.10781 0.93236 0.23226 0.0
H71 H 0.12624 0.90283 0.20127 0.0
Co72 Co 0.15551 0.9563 0.2127 0.0
C73 C 0.16036 0.99278 0.24988 0.0
O74 O 0.18099 0.99659 0.25735 0.0
N75 N 0.1851 0.98144 0.20396 0.0
C76 C 0.21229 0.01646 0.18998 0.0
C77 C 0.18918 0.0027 0.19627 0.0
C78 C 0.20607 0.98268 0.20188 0.0
N79 N 0.22293 0.00384 0.19343 0.0
O80 O 0.16801 0.94968 0.24381 0.0
H81 H 0.17606 0.00784 0.19498 0.0
H82 H 0.20888 0.96822 0.20558 0.0
O83 O 0.1488 0.97742 0.23231 0.0
C84 C 0.175 0.93545 0.23791 0.0
O85 O 0.17228 0.92776 0.21331 0.0
N86 N 0.14366 0.96112 0.18126 0.0
C87 C 0.12965 0.9657 0.13037 0.0
C88 C 0.12053 0.9708 0.15302 0.0
C89 C 0.12784 0.96847 0.17846 0.0
C90 C 0.1521 0.95542 0.15962 0.0
C91 C 0.14564 0.9579 0.13406 0.0
H92 H 0.12071 0.97241 0.19574 0.0
H93 H 0.16434 0.94926 0.16233 0.0
H94 H 0.10902 0.948 0.24034 0.0
H95 H 0.08132 0.87925 0.21346 0.0
H96 H 0.22059 0.03439 0.18337 0.0
H97 H 0.10773 0.97631 0.15107 0.0
H98 H 0.15353 0.95411 0.11734 0.0
C99 C 0.1944 0.09016 0.79115 0.0
C100 C 0.18137 0.10099 0.78847 0.0
N101 N 0.16278 0.08756 0.77299 0.0
N102 N 0.18419 0.07003 0.77739 0.0
C103 C 0.16498 0.06895 0.76648 0.0
H104 H 0.21014 0.09635 0.8028 0.0
Co105 Co 0.1955 0.0493 0.77646 0.0
C106 C 0.15721 0.00457 0.75699 0.0
O107 O 0.16408 0.99443 0.77438 0.0
N108 N 0.20799 0.02888 0.77485 0.0
C109 C 0.22198 0.00818 0.7552 0.0
C110 C 0.21066 0.0205 0.75134 0.0
C111 C 0.21816 0.0214 0.79276 0.0
N112 N 0.22672 0.00877 0.78126 0.0
O113 O 0.21357 0.06465 0.74533 0.0
H114 H 0.20487 0.02337 0.73231 0.0
H115 H 0.22021 0.02565 0.81363 0.0
O116 O 0.16828 0.02688 0.75504 0.0
C117 C 0.2345 0.0784 0.75281 0.0
O118 O 0.23873 0.0811 0.77851 0.0
N119 N 0.17953 0.03628 0.80854 0.0
C120 C 0.16007 0.02267 0.85908 0.0
C121 C 0.1458 0.01897 0.83697 0.0
C122 C 0.15589 0.02604 0.81179 0.0
C123 C 0.19361 0.04196 0.83029 0.0
C124 C 0.18427 0.03455 0.85565 0.0
H125 H 0.14466 0.02394 0.79519 0.0
H126 H 0.21227 0.05273 0.82798 0.0
H127 H 0.15281 0.05484 0.75401 0.0
H128 H 0.18496 0.11716 0.79783 0.0
H129 H 0.22638 0.99945 0.73999 0.0
H130 H 0.1271 0.01083 0.83921 0.0
H131 H 0.19584 0.03868 0.87256 0.0
C132 C 0.90005 0.10809 0.77564 0.0
C133 C 0.8883 0.08487 0.76858 0.0
N134 N 0.90362 0.07713 0.76877 0.0
N135 N 0.92273 0.11499 0.77991 0.0
C136 C 0.92423 0.09566 0.77561 0.0
H137 H 0.8923 0.11897 0.77791 0.0
Co138 Co 0.94694 0.14403 0.79087 0.0
C139 C 0.98616 0.15024 0.75641 0.0
O140 O 0.99123 0.17147 0.74986 0.0
N141 N 0.97155 0.17312 0.80234 0.0
C142 C 0.00583 0.20001 0.81858 0.0
C143 C 0.99236 0.17703 0.81159 0.0
C144 C 0.9728 0.19412 0.80424 0.0
N145 N 0.99354 0.21082 0.81388 0.0
O146 O 0.94193 0.15836 0.76018 0.0
H147 H 0.99758 0.16401 0.81309 0.0
H148 H 0.95898 0.19733 0.79842 0.0
O149 O 0.96898 0.1381 0.77178 0.0
C150 C 0.92753 0.16518 0.76601 0.0
O151 O 0.91919 0.16168 0.79038 0.0
N152 N 0.9502 0.13041 0.82185 0.0
C153 C 0.95519 0.117 0.87277 0.0
C154 C 0.96536 0.11241 0.85081 0.0
C155 C 0.96268 0.11928 0.82538 0.0
C156 C 0.93915 0.13383 0.8427 0.0
C157 C 0.94144 0.12732 0.86838 0.0
H158 H 0.97136 0.11634 0.8089 0.0
H159 H 0.92929 0.14261 0.83944 0.0
H160 H 0.94017 0.09505 0.77751 0.0
H161 H 0.86984 0.07436 0.76442 0.0
H162 H 0.02326 0.20803 0.82676 0.0
H163 H 0.97577 0.10416 0.85343 0.0
H164 H 0.93352 0.13147 0.88477 0.0
C165 C 0.89707 0.80328 0.78658 0.0
C166 C 0.92024 0.81512 0.77938 0.0
N167 N 0.9237 0.83248 0.76268 0.0
N168 N 0.88592 0.81304 0.77438 0.0
C169 C 0.90257 0.83064 0.75978 0.0
H170 H 0.88907 0.78918 0.80082 0.0
Co171 Co 0.85524 0.80588 0.78071 0.0
C172 C 0.85398 0.84184 0.74717 0.0
O173 O 0.83698 0.82583 0.73272 0.0
N174 N 0.8247 0.79915 0.78722 0.0
C175 C 0.79528 0.80399 0.79974 0.0
C176 C 0.81888 0.81482 0.79601 0.0
C177 C 0.80426 0.77878 0.78593 0.0
N178 N 0.78602 0.78127 0.79359 0.0
O179 O 0.84594 0.79108 0.74674 0.0
H180 H 0.8311 0.83301 0.79987 0.0
H181 H 0.80289 0.76239 0.78022 0.0
O182 O 0.86238 0.83583 0.76641 0.0
C183 C 0.84395 0.77095 0.74765 0.0
O184 O 0.849 0.76406 0.76992 0.0
N185 N 0.86376 0.81822 0.81482 0.0
C186 C 0.87289 0.83091 0.86821 0.0
C187 C 0.88404 0.84754 0.848 0.0
C188 C 0.87932 0.84078 0.82128 0.0
C189 C 0.85333 0.80177 0.83408 0.0
C190 C 0.85741 0.80775 0.86084 0.0
H191 H 0.88831 0.85355 0.8059 0.0
H192 H 0.84145 0.78388 0.82853 0.0
H193 H 0.8995 0.8424 0.74783 0.0
H194 H 0.93373 0.81203 0.78709 0.0
H195 H 0.78569 0.81232 0.80647 0.0
H196 H 0.89643 0.86552 0.85276 0.0
H197 H 0.8481 0.79434 0.8756 0.0
C198 C 0.75467 0.52752 0.54598 0.0
C199 C 0.76371 0.51309 0.55012 0.0
N200 N 0.74995 0.49644 0.56765 0.0
N201 N 0.73529 0.5201 0.56084 0.0
C202 C 0.73285 0.50114 0.57387 0.0
H203 H 0.76153 0.54228 0.53262 0.0
Co204 Co 0.71638 0.53352 0.5604 0.0
C205 C 0.66858 0.49442 0.56783 0.0
O206 O 0.66166 0.50404 0.54979 0.0
N207 N 0.69742 0.54752 0.56068 0.0
C208 C 0.67234 0.55746 0.57725 0.0
C209 C 0.68474 0.54642 0.58234 0.0
C210 C 0.69282 0.5601 0.54287 0.0
N211 N 0.67742 0.56602 0.55242 0.0
O212 O 0.72609 0.54536 0.5957 0.0
H213 H 0.6841 0.53757 0.60068 0.0
H214 H 0.69997 0.56453 0.52308 0.0
O215 O 0.69016 0.50438 0.57424 0.0
C216 C 0.74616 0.56359 0.59665 0.0
O217 O 0.75923 0.56991 0.5752 0.0
N218 N 0.70879 0.52367 0.52484 0.0
C219 C 0.70292 0.51396 0.47046 0.0
C220 C 0.69391 0.49582 0.48917 0.0
C221 C 0.69747 0.50103 0.51632 0.0
C222 C 0.71948 0.54128 0.50685 0.0
C223 C 0.71628 0.53692 0.4796 0.0
H224 H 0.69151 0.48682 0.53029 0.0
H225 H 0.73067 0.55891 0.51378 0.0
H226 H 0.71888 0.49099 0.5877 0.0
H227 H 0.77893 0.51443 0.54042 0.0
H228 H 0.66043 0.55903 0.59073 0.0
H229 H 0.6841 0.47777 0.48294 0.0
H230 H 0.72451 0.55138 0.4658 0.0
C231 C 0.46388 0.22862 0.54979 0.0
C232 C 0.47491 0.25198 0.55588 0.0
N233 N 0.49602 0.25822 0.56626 0.0
N234 N 0.47779 0.21999 0.55651 0.0
C235 C 0.49724 0.23847 0.56643 0.0
H236 H 0.44706 0.2188 0.5403 0.0
Co237 Co 0.47187 0.18972 0.55005 0.0
C238 C 0.50684 0.1875 0.58578 0.0
O239 O 0.49109 0.16821 0.59736 0.0
N240 N 0.46616 0.15941 0.54312 0.0
C241 C 0.47175 0.13018 0.53152 0.0
C242 C 0.48227 0.1538 0.53539 0.0
C243 C 0.44588 0.13884 0.54345 0.0
N244 N 0.44882 0.12073 0.53664 0.0
O245 O 0.45391 0.17921 0.58242 0.0
H246 H 0.50059 0.16614 0.5325 0.0
H247 H 0.42924 0.13705 0.54863 0.0
O248 O 0.50066 0.19692 0.56788 0.0
C249 C 0.43299 0.17359 0.57643 0.0
O250 O 0.42845 0.17576 0.55147 0.0
N251 N 0.48707 0.19952 0.51747 0.0
C252 C 0.50314 0.20914 0.46531 0.0
C253 C 0.51892 0.21574 0.48657 0.0
C254 C 0.51052 0.21099 0.51268 0.0
C255 C 0.47159 0.19359 0.49712 0.0
C256 C 0.47922 0.19825 0.47086 0.0
H257 H 0.52287 0.21618 0.52877 0.0
H258 H 0.4531 0.18468 0.50139 0.0
H259 H 0.51247 0.23778 0.57259 0.0
H260 H 0.46796 0.26347 0.55249 0.0
H261 H 0.48032 0.12082 0.52485 0.0
H262 H 0.53753 0.22436 0.48302 0.0
H263 H 0.46646 0.19264 0.455 0.0
C264 C 0.77677 0.24393 0.5566 0.0
C265 C 0.75292 0.23271 0.55948 0.0
N266 N 0.74673 0.24875 0.56514 0.0
N267 N 0.78566 0.26694 0.56066 0.0
C268 C 0.76688 0.26938 0.56555 0.0
H269 H 0.78697 0.23577 0.55195 0.0
Co270 Co 0.81741 0.28894 0.55997 0.0
C271 C 0.82119 0.33346 0.57723 0.0
O272 O 0.8382 0.34422 0.55995 0.0
N273 N 0.84989 0.31072 0.55986 0.0
C274 C 0.88489 0.33479 0.57689 0.0
C275 C 0.86153 0.3218 0.58217 0.0
C276 C 0.86691 0.31688 0.54135 0.0
N277 N 0.88842 0.33164 0.5512 0.0
O278 O 0.82192 0.27631 0.59247 0.0
H279 H 0.85347 0.3204 0.60133 0.0
H280 H 0.86383 0.31002 0.52139 0.0
O281 O 0.81124 0.31126 0.57957 0.0
C282 C 0.83023 0.26321 0.58618 0.0
O283 O 0.83253 0.26014 0.56075 0.0
N284 N 0.81307 0.29916 0.52668 0.0
C285 C 0.80687 0.30785 0.47388 0.0
C286 C 0.79921 0.31642 0.49473 0.0
C287 C 0.80187 0.3113 0.52106 0.0
C288 C 0.81935 0.28965 0.50656 0.0
C289 C 0.81671 0.29399 0.48004 0.0
H290 H 0.79432 0.31665 0.53659 0.0
H291 H 0.82648 0.27851 0.51121 0.0
H292 H 0.76788 0.28585 0.56968 0.0
H293 H 0.74105 0.21418 0.55733 0.0
H294 H 0.89817 0.34566 0.5911 0.0
H295 H 0.79075 0.32649 0.49067 0.0
H296 H 0.82257 0.28678 0.4645 0.0
C297 C 0.87321 0.42864 0.12031 0.0
C298 C 0.85965 0.43896 0.11885 0.0
N299 N 0.83816 0.42285 0.11063 0.0
N300 N 0.86044 0.40616 0.11287 0.0
C301 C 0.83909 0.40309 0.1073 0.0
H302 H 0.89124 0.43698 0.12652 0.0
Co303 Co 0.87162 0.3854 0.11167 0.0
C304 C 0.8327 0.34068 0.09241 0.0
O305 O 0.83983 0.32999 0.1087 0.0
N306 N 0.88377 0.36489 0.10995 0.0
C307 C 0.89732 0.34359 0.09103 0.0
C308 C 0.88624 0.35607 0.08668 0.0
C309 C 0.8938 0.35758 0.1282 0.0
N310 N 0.90213 0.34458 0.11714 0.0
O311 O 0.88847 0.39987 0.07961 0.0
H312 H 0.8804 0.35866 0.06755 0.0
H313 H 0.89579 0.36223 0.14899 0.0
O314 O 0.84382 0.36299 0.09139 0.0
C315 C 0.90978 0.41326 0.08599 0.0
O316 O 0.91514 0.41599 0.11142 0.0
N317 N 0.85716 0.37337 0.14462 0.0
C318 C 0.84206 0.36357 0.19735 0.0
C319 C 0.82598 0.35473 0.17634 0.0
C320 C 0.83384 0.36034 0.15006 0.0
C321 C 0.87279 0.38287 0.16488 0.0
C322 C 0.86572 0.37795 0.19132 0.0
H323 H 0.821 0.35487 0.13445 0.0
H324 H 0.89098 0.3946 0.16038 0.0
H325 H 0.82452 0.38677 0.10078 0.0
H326 H 0.86513 0.45686 0.12384 0.0
H327 H 0.90145 0.33442 0.07611 0.0
H328 H 0.80745 0.34428 0.18024 0.0
H329 H 0.87872 0.38535 0.20691 0.0
C330 C 0.58082 0.43469 0.12866 0.0
C331 C 0.57076 0.41097 0.12547 0.0
N332 N 0.58184 0.40686 0.10552 0.0
N333 N 0.59822 0.44551 0.11087 0.0
C334 C 0.59832 0.42811 0.09693 0.0
H335 H 0.57591 0.44351 0.14317 0.0
Co336 Co 0.61715 0.47761 0.10759 0.0
C337 C 0.66283 0.48537 0.08719 0.0
O338 O 0.67352 0.50597 0.09853 0.0
N339 N 0.63581 0.51041 0.10376 0.0
C340 C 0.65509 0.54493 0.08355 0.0
C341 C 0.64229 0.52127 0.0799 0.0
C342 C 0.64476 0.52812 0.12162 0.0
N343 N 0.65666 0.54923 0.10984 0.0
O344 O 0.60148 0.47694 0.07524 0.0
H345 H 0.63827 0.51252 0.06085 0.0
H346 H 0.64308 0.52587 0.14288 0.0
O347 O 0.64059 0.47284 0.08866 0.0
C348 C 0.58441 0.47991 0.08126 0.0
O349 O 0.57957 0.48005 0.1066 0.0
N350 N 0.63036 0.47801 0.14083 0.0
C351 C 0.64328 0.47741 0.19358 0.0
C352 C 0.65199 0.46959 0.17299 0.0
C353 C 0.64493 0.46958 0.14676 0.0
C354 C 0.62073 0.48435 0.16077 0.0
C355 C 0.62729 0.48467 0.18716 0.0
H356 H 0.65059 0.46198 0.13168 0.0
H357 H 0.60802 0.48951 0.15599 0.0
H358 H 0.61002 0.43093 0.08054 0.0
H359 H 0.5567 0.39779 0.13733 0.0
H360 H 0.66247 0.55793 0.068 0.0
H361 H 0.66359 0.46288 0.1772 0.0
H362 H 0.61997 0.49074 0.20234 0.0
C363 C 0.57384 0.14849 0.13214 0.0
C364 C 0.59734 0.16323 0.12835 0.0
N365 N 0.60014 0.1768 0.10711 0.0
N366 N 0.56191 0.15273 0.11337 0.0
C367 C 0.57841 0.17001 0.09832 0.0
H368 H 0.56591 0.13551 0.14763 0.0
Co369 Co 0.5297 0.13703 0.11012 0.0
C370 C 0.51791 0.17163 0.08889 0.0
O371 O 0.49876 0.16167 0.10325 0.0
N372 N 0.49685 0.12027 0.10619 0.0
C373 C 0.46271 0.10341 0.08498 0.0
C374 C 0.48644 0.11608 0.08206 0.0
C375 C 0.47882 0.10933 0.12347 0.0
N376 N 0.45793 0.09919 0.11104 0.0
O377 O 0.53173 0.12176 0.07893 0.0
H378 H 0.49555 0.12235 0.06336 0.0
H379 H 0.48062 0.1091 0.14476 0.0
O380 O 0.53162 0.16319 0.08914 0.0
C381 C 0.53198 0.10324 0.08514 0.0
O382 O 0.53443 0.09965 0.11036 0.0
N383 N 0.52819 0.15065 0.14234 0.0
C384 C 0.52921 0.16724 0.19359 0.0
C385 C 0.53663 0.18245 0.17182 0.0
C386 C 0.53666 0.17394 0.14642 0.0
C387 C 0.52214 0.13592 0.16353 0.0
C388 C 0.52218 0.14374 0.1893 0.0
H389 H 0.54448 0.18635 0.13048 0.0
H390 H 0.51756 0.11798 0.16038 0.0
H391 H 0.57465 0.17717 0.08094 0.0
H392 H 0.61126 0.16416 0.14052 0.0
H393 H 0.44995 0.09785 0.06915 0.0
H394 H 0.54321 0.20093 0.17455 0.0
H395 H 0.51681 0.13153 0.20571 0.0
C396 C 0.42066 0.86167 0.88214 0.0
C397 C 0.43192 0.84902 0.88363 0.0
N398 N 0.41888 0.82986 0.89847 0.0
N399 N 0.40058 0.85063 0.89595 0.0
C400 C 0.39994 0.83127 0.9057 0.0
H401 H 0.4266 0.87785 0.87148 0.0
Co402 Co 0.38013 0.86209 0.8989 0.0
C403 C 0.33488 0.82313 0.91678 0.0
O404 O 0.32476 0.83159 0.90151 0.0
N405 N 0.35999 0.87473 0.90236 0.0
C406 C 0.33887 0.8878 0.92277 0.0
C407 C 0.35183 0.87708 0.92615 0.0
C408 C 0.35186 0.88455 0.88483 0.0
N409 N 0.33882 0.89249 0.89673 0.0
O410 O 0.39515 0.87763 0.93133 0.0
H411 H 0.35511 0.87132 0.94496 0.0
H412 H 0.35525 0.88589 0.86376 0.0
O413 O 0.35721 0.83354 0.91797 0.0
C414 C 0.40874 0.8989 0.92506 0.0
O415 O 0.41076 0.90468 0.89977 0.0
N416 N 0.36777 0.84897 0.86557 0.0
C417 C 0.35684 0.83537 0.81259 0.0
C418 C 0.34871 0.81869 0.83298 0.0
C419 C 0.35494 0.82581 0.85936 0.0
C420 C 0.37681 0.86517 0.84583 0.0
C421 C 0.37128 0.85886 0.81927 0.0
H422 H 0.35009 0.81258 0.87441 0.0
H423 H 0.38854 0.88324 0.85082 0.0
H424 H 0.38607 0.81859 0.91807 0.0
H425 H 0.44824 0.85338 0.87403 0.0
H426 H 0.33057 0.89223 0.93846 0.0
H427 H 0.33832 0.80028 0.82847 0.0
H428 H 0.37822 0.87228 0.80412 0.0
C429 C 0.13745 0.56329 0.86652 0.0
C430 C 0.14873 0.58633 0.87421 0.0
N431 N 0.16486 0.58953 0.89267 0.0
N432 N 0.1464 0.55202 0.88007 0.0
C433 C 0.16282 0.56838 0.89606 0.0
H434 H 0.12433 0.55547 0.85116 0.0
Co435 Co 0.13971 0.52153 0.87424 0.0
C436 C 0.1741 0.51875 0.90958 0.0
O437 O 0.15793 0.49957 0.92093 0.0
N438 N 0.13331 0.49094 0.86811 0.0
C439 C 0.13863 0.46165 0.85629 0.0
C440 C 0.14917 0.48528 0.85955 0.0
C441 C 0.11311 0.47034 0.86967 0.0
N442 N 0.11591 0.45213 0.86274 0.0
O443 O 0.12262 0.51212 0.90688 0.0
H444 H 0.16729 0.49763 0.85553 0.0
H445 H 0.09668 0.4687 0.87565 0.0
O446 O 0.16856 0.52852 0.89145 0.0
C447 C 0.10201 0.50792 0.90178 0.0
O448 O 0.0972 0.51101 0.87725 0.0
N449 N 0.15437 0.53037 0.84131 0.0
C450 C 0.17005 0.53763 0.78893 0.0
C451 C 0.18595 0.54739 0.81007 0.0
C452 C 0.1777 0.54365 0.83631 0.0
C453 C 0.1387 0.52182 0.82105 0.0
C454 C 0.14613 0.5252 0.79473 0.0
H455 H 0.19006 0.55107 0.85243 0.0
H456 H 0.12026 0.51184 0.82549 0.0
H457 H 0.17355 0.56506 0.90952 0.0
H458 H 0.14614 0.5999 0.86577 0.0
H459 H 0.14705 0.45235 0.84892 0.0
H460 H 0.20455 0.55725 0.80644 0.0
H461 H 0.1332 0.51796 0.77906 0.0
C462 C 0.43983 0.57048 0.87332 0.0
C463 C 0.41615 0.55975 0.87751 0.0
N464 N 0.41125 0.57547 0.88822 0.0
N465 N 0.44985 0.5928 0.88145 0.0
C466 C 0.43199 0.59535 0.89036 0.0
H467 H 0.44916 0.56256 0.8647 0.0
Co468 Co 0.48168 0.6136 0.87953 0.0
C469 C 0.48921 0.65982 0.8963 0.0
O470 O 0.50591 0.66904 0.87844 0.0
N471 N 0.51443 0.63392 0.87798 0.0
C472 C 0.5505 0.65664 0.89319 0.0
C473 C 0.52735 0.64442 0.89985 0.0
C474 C 0.53042 0.63957 0.85833 0.0
N475 N 0.55244 0.65358 0.86707 0.0
O476 O 0.48624 0.60052 0.91165 0.0
H477 H 0.52032 0.64318 0.9196 0.0
H478 H 0.52632 0.63358 0.83805 0.0
O479 O 0.47787 0.63759 0.89948 0.0
C480 C 0.49361 0.58675 0.90485 0.0
O481 O 0.4953 0.58353 0.87932 0.0
N482 N 0.47683 0.62411 0.84665 0.0
C483 C 0.46886 0.63387 0.79498 0.0
C484 C 0.46203 0.64208 0.81692 0.0
C485 C 0.46553 0.63641 0.84264 0.0
C486 C 0.48208 0.6147 0.82551 0.0
C487 C 0.47862 0.61965 0.79949 0.0
H488 H 0.45846 0.64138 0.85903 0.0
H489 H 0.48896 0.60316 0.82892 0.0
H490 H 0.43407 0.61136 0.8984 0.0
H491 H 0.40349 0.54193 0.87251 0.0
H492 H 0.56487 0.66659 0.90667 0.0
H493 H 0.45346 0.65223 0.81421 0.0
H494 H 0.48371 0.61256 0.78308 0.0
C495 C 0.53955 0.76387 0.42728 0.0
C496 C 0.52815 0.77585 0.42094 0.0
N497 N 0.5051 0.76119 0.42363 0.0
N498 N 0.5237 0.74165 0.4336 0.0
C499 C 0.50289 0.74071 0.43135 0.0
H500 H 0.55821 0.77108 0.42708 0.0
Co501 Co 0.52799 0.71655 0.44237 0.0
C502 C 0.49656 0.68149 0.40292 0.0
O503 O 0.51297 0.67727 0.39481 0.0
N504 N 0.53175 0.69098 0.45138 0.0
C505 C 0.52366 0.65509 0.46193 0.0
C506 C 0.51439 0.66883 0.45521 0.0
C507 C 0.55145 0.69023 0.45646 0.0
N508 N 0.54703 0.66855 0.46278 0.0
O509 O 0.54883 0.72371 0.41257 0.0
H510 H 0.49601 0.66282 0.45317 0.0
H511 H 0.56872 0.70529 0.4561 0.0
O512 O 0.50101 0.69668 0.4209 0.0
C513 C 0.56975 0.73723 0.42025 0.0
O514 O 0.57318 0.74418 0.44519 0.0
N515 N 0.50969 0.71086 0.47277 0.0
C516 C 0.48993 0.70151 0.52338 0.0
C517 C 0.47616 0.69058 0.50091 0.0
C518 C 0.48637 0.69557 0.47564 0.0
C519 C 0.52302 0.72251 0.49415 0.0
C520 C 0.51351 0.71816 0.51966 0.0
H521 H 0.47564 0.68635 0.45875 0.0
H522 H 0.54146 0.73449 0.49144 0.0
H523 H 0.48629 0.72513 0.43477 0.0
H524 H 0.53617 0.79398 0.41515 0.0
H525 H 0.51383 0.63652 0.46556 0.0
H526 H 0.45784 0.67778 0.50293 0.0
H527 H 0.52486 0.72679 0.53643 0.0
C528 C 0.24456 0.77137 0.45755 0.0
C529 C 0.23549 0.74824 0.45127 0.0
N530 N 0.25028 0.7463 0.4344 0.0
N531 N 0.265 0.78401 0.44478 0.0
C532 C 0.26804 0.76831 0.43076 0.0
H533 H 0.23691 0.77856 0.47083 0.0
Co534 Co 0.28356 0.81609 0.44774 0.0
C535 C 0.33177 0.82601 0.44007 0.0
O536 O 0.33786 0.84147 0.45925 0.0
N537 N 0.30196 0.84901 0.44993 0.0
C538 C 0.32596 0.88526 0.43578 0.0
C539 C 0.31513 0.86208 0.42924 0.0
C540 C 0.30448 0.86495 0.46853 0.0
N541 N 0.31913 0.88693 0.46038 0.0
O542 O 0.27368 0.81997 0.41338 0.0
H543 H 0.31691 0.85512 0.41048 0.0
H544 H 0.296 0.86092 0.48767 0.0
O545 O 0.31039 0.81457 0.43269 0.0
C546 C 0.25644 0.82323 0.41688 0.0
O547 O 0.24788 0.82062 0.44104 0.0
N548 N 0.29107 0.81184 0.48267 0.0
C549 C 0.2977 0.80558 0.53613 0.0
C550 C 0.30706 0.79796 0.51612 0.0
C551 C 0.30286 0.80053 0.48945 0.0
C552 C 0.28007 0.8173 0.50187 0.0
C553 C 0.28348 0.81474 0.52877 0.0
H554 H 0.30881 0.79306 0.47444 0.0
H555 H 0.26844 0.82361 0.49623 0.0
H556 H 0.28285 0.77289 0.41798 0.0
H557 H 0.21948 0.73393 0.45904 0.0
H558 H 0.33785 0.89979 0.42347 0.0
H559 H 0.31719 0.78973 0.52107 0.0
H560 H 0.27536 0.82023 0.54363 0.0
C561 C 0.2296 0.47792 0.4525 0.0
C562 C 0.25349 0.49072 0.44996 0.0
N563 N 0.25871 0.50697 0.43097 0.0
N564 N 0.2198 0.48605 0.4352 0.0
C565 C 0.23797 0.50361 0.42223 0.0
H566 H 0.21994 0.46387 0.46641 0.0
Co567 Co 0.18794 0.47492 0.43214 0.0
C568 C 0.18332 0.51403 0.4111 0.0
O569 O 0.16515 0.50711 0.42679 0.0
N570 N 0.15526 0.46272 0.42841 0.0
C571 C 0.12156 0.45008 0.40705 0.0
C572 C 0.14532 0.46112 0.40443 0.0
C573 C 0.13686 0.45183 0.44523 0.0
N574 N 0.11612 0.44409 0.43275 0.0
O575 O 0.18675 0.45712 0.40152 0.0
H576 H 0.15483 0.46756 0.38598 0.0
H577 H 0.13838 0.44877 0.46598 0.0
O578 O 0.19413 0.50248 0.4105 0.0
C579 C 0.17979 0.43656 0.41019 0.0
O580 O 0.17704 0.43304 0.43601 0.0
N581 N 0.18939 0.4905 0.46399 0.0
C582 C 0.19511 0.50889 0.51522 0.0
C583 C 0.20464 0.52365 0.49318 0.0
C584 C 0.20214 0.51409 0.46779 0.0
C585 C 0.18104 0.47597 0.48537 0.0
C586 C 0.18326 0.48474 0.51106 0.0
H587 H 0.21149 0.52571 0.4516 0.0
H588 H 0.17336 0.4574 0.48255 0.0
H589 H 0.23612 0.51368 0.40654 0.0
H590 H 0.26605 0.48868 0.46173 0.0
H591 H 0.10935 0.44681 0.3911 0.0
H592 H 0.21483 0.54237 0.49567 0.0
H593 H 0.17602 0.47268 0.52756 0.0
H594 H 0.93574 0.3378 0.09593 0.0
H595 H 0.95434 0.31787 0.11644 0.0
H596 H 0.91451 0.30778 0.18812 0.0
H597 H 0.89587 0.32797 0.1676 0.0
H598 H 0.95895 0.31996 0.19949 0.0
H599 H 0.89853 0.26331 0.14407 0.0
H600 H 0.87596 0.24769 0.10272 0.0
H601 H 0.93672 0.25484 0.06322 0.0
H602 H 0.95976 0.27083 0.10425 0.0
H603 H 0.97901 0.23178 0.25226 0.0
H604 H 0.96041 0.2526 0.23417 0.0
H605 H 0.00203 0.26826 0.16304 0.0
H606 H 0.02116 0.24788 0.18119 0.0
H607 H 0.95554 0.25243 0.15248 0.0
H608 H 0.01591 0.30969 0.20844 0.0
H609 H 0.03791 0.32483 0.25023 0.0
H610 H 0.97617 0.31554 0.28936 0.0
H611 H 0.95371 0.30002 0.24788 0.0
C612 C 0.93086 0.33126 0.11602 0.0
C613 C 0.91412 0.33417 0.13004 0.0
C614 C 0.94152 0.31989 0.12773 0.0
C615 C 0.93546 0.3109 0.15361 0.0
C616 C 0.91935 0.31448 0.16807 0.0
C617 C 0.90876 0.32605 0.15638 0.0
C618 C 0.94578 0.29751 0.16525 0.0
C619 C 0.9579 0.30498 0.18942 0.0
C620 C 0.94475 0.27819 0.15186 0.0
C621 C 0.93092 0.26847 0.12718 0.0
C622 C 0.90712 0.26172 0.12651 0.0
C623 C 0.89424 0.25277 0.10314 0.0
C624 C 0.90491 0.25032 0.08034 0.0
C625 C 0.92848 0.25677 0.08089 0.0
C626 C 0.94146 0.26576 0.10421 0.0
C627 C 0.98446 0.23984 0.2329 0.0
C628 C 0.00176 0.23823 0.2183 0.0
C629 C 0.97372 0.25168 0.22255 0.0
C630 C 0.98002 0.26217 0.1974 0.0
C631 C 0.99693 0.26027 0.18252 0.0
C632 C 0.00777 0.2485 0.1929 0.0
C633 C 0.96886 0.27501 0.18656 0.0
C634 C 0.95653 0.26738 0.16255 0.0
C635 C 0.96958 0.29407 0.20018 0.0
C636 C 0.98308 0.30347 0.22512 0.0
C637 C 0.00698 0.31069 0.22602 0.0
C638 C 0.01954 0.31938 0.24964 0.0
C639 C 0.00843 0.32109 0.27246 0.0
C640 C 0.98474 0.31417 0.27168 0.0
C641 C 0.97209 0.30545 0.24811 0.0
H642 H 0.01819 0.32782 0.29073 0.0
H643 H 0.8949 0.24339 0.06226 0.0
H644 H 0.69404 0.58832 0.09086 0.0
H645 H 0.71409 0.62662 0.11182 0.0
H646 H 0.66742 0.5997 0.17896 0.0
H647 H 0.64677 0.56136 0.15768 0.0
H648 H 0.67357 0.64149 0.163 0.0
H649 H 0.72228 0.60992 0.18484 0.0
H650 H 0.74544 0.59078 0.17644 0.0
H651 H 0.79108 0.64706 0.12506 0.0
H652 H 0.768 0.6664 0.13288 0.0
H653 H 0.74276 0.73721 0.24906 0.0
H654 H 0.72162 0.69838 0.22921 0.0
H655 H 0.76271 0.72469 0.15773 0.0
H656 H 0.78394 0.76371 0.17759 0.0
H657 H 0.7592 0.68288 0.17724 0.0
H658 H 0.70921 0.71392 0.15585 0.0
H659 H 0.68586 0.73261 0.16567 0.0
H660 H 0.64263 0.67667 0.21872 0.0
H661 H 0.66593 0.65776 0.20946 0.0
C662 C 0.68789 0.59054 0.10998 0.0
C663 C 0.66877 0.57174 0.12257 0.0
C664 C 0.69952 0.61241 0.12207 0.0
C665 C 0.6924 0.61596 0.14708 0.0
C666 C 0.67324 0.59731 0.15968 0.0
C667 C 0.66159 0.57536 0.1476 0.0
C668 C 0.70486 0.63926 0.15982 0.0
C669 C 0.69223 0.65039 0.16649 0.0
C670 C 0.72928 0.65103 0.16397 0.0
C671 C 0.74327 0.6395 0.15925 0.0
C672 C 0.73714 0.61813 0.17158 0.0
C673 C 0.75028 0.60726 0.16696 0.0
C674 C 0.76968 0.61767 0.15017 0.0
C675 C 0.77603 0.639 0.13803 0.0
C676 C 0.76294 0.64994 0.14258 0.0
C677 C 0.74729 0.73472 0.22915 0.0
C678 C 0.76498 0.75348 0.21487 0.0
C679 C 0.73514 0.71257 0.21778 0.0
C680 C 0.74057 0.70872 0.19199 0.0
C681 C 0.75827 0.72736 0.17767 0.0
C682 C 0.77025 0.74962 0.18893 0.0
C683 C 0.72793 0.68511 0.18016 0.0
C684 C 0.74053 0.67393 0.17375 0.0
C685 C 0.70348 0.67322 0.17651 0.0
C686 C 0.68942 0.68452 0.18212 0.0
C687 C 0.69484 0.70569 0.16977 0.0
C688 C 0.68159 0.7163 0.17519 0.0
C689 C 0.66277 0.70582 0.19278 0.0
C690 C 0.65719 0.68473 0.20505 0.0
C691 C 0.6704 0.67405 0.19971 0.0
H692 H 0.65248 0.71402 0.19686 0.0
H693 H 0.77983 0.60923 0.14661 0.0
H694 H 0.42015 0.1007 0.09396 0.0
H695 H 0.38155 0.08213 0.11438 0.0
H696 H 0.40511 0.05315 0.17563 0.0
H697 H 0.44414 0.07195 0.15516 0.0
H698 H 0.35892 0.02101 0.15046 0.0
H699 H 0.40011 0.09404 0.19551 0.0
H700 H 0.42584 0.13658 0.19893 0.0
H701 H 0.37788 0.14732 0.15189 0.0
H702 H 0.35203 0.10482 0.14781 0.0
H703 H 0.24967 0.98829 0.21681 0.0
H704 H 0.29113 0.00234 0.20848 0.0
H705 H 0.2922 0.05044 0.14985 0.0
H706 H 0.25109 0.03652 0.15794 0.0
H707 H 0.32865 0.0717 0.18266 0.0
H708 H 0.29069 0.99964 0.1323 0.0
H709 H 0.26507 0.95724 0.12686 0.0
H710 H 0.30675 0.94472 0.1826 0.0
H711 H 0.33245 0.98709 0.18862 0.0
C712 C 0.4171 0.09022 0.11162 0.0
C713 C 0.43514 0.08777 0.123 0.0
C714 C 0.39508 0.07972 0.12334 0.0
C715 C 0.39058 0.06639 0.14654 0.0
C716 C 0.40834 0.06342 0.15773 0.0
C717 C 0.43058 0.07426 0.14617 0.0
C718 C 0.36729 0.05619 0.15907 0.0
C719 C 0.35238 0.03198 0.15812 0.0
C720 C 0.35881 0.07061 0.16866 0.0
C721 C 0.37421 0.09622 0.17121 0.0
C722 C 0.39513 0.10546 0.18571 0.0
C723 C 0.40973 0.12958 0.1878 0.0
C724 C 0.40352 0.14465 0.1756 0.0
C725 C 0.38267 0.13563 0.16132 0.0
C726 C 0.36803 0.11152 0.15914 0.0
C727 C 0.25873 0.00171 0.20199 0.0
C728 C 0.24709 0.01139 0.18817 0.0
C729 C 0.28241 0.00975 0.19729 0.0
C730 C 0.29477 0.02746 0.17855 0.0
C731 C 0.2831 0.03693 0.1646 0.0
C732 C 0.25956 0.02898 0.16931 0.0
C733 C 0.31991 0.03651 0.17327 0.0
C734 C 0.33523 0.06059 0.17559 0.0
C735 C 0.32868 0.02194 0.16485 0.0
C736 C 0.3133 0.99651 0.16117 0.0
C737 C 0.29427 0.98784 0.14356 0.0
C738 C 0.27976 0.96382 0.14034 0.0
C739 C 0.28423 0.94829 0.15445 0.0
C740 C 0.30328 0.95677 0.17174 0.0
C741 C 0.31782 0.98078 0.17505 0.0
H742 H 0.27298 0.9297 0.15193 0.0
H743 H 0.41484 0.16331 0.17724 0.0
H744 H 0.26164 0.00405 0.76013 0.0
H745 H 0.28113 0.98479 0.78021 0.0
H746 H 0.23897 0.97056 0.85078 0.0
H747 H 0.21969 0.99031 0.8308 0.0
H748 H 0.2823 0.98347 0.86414 0.0
H749 H 0.22693 0.92807 0.80299 0.0
H750 H 0.20724 0.91385 0.75976 0.0
H751 H 0.27163 0.92653 0.72449 0.0
H752 H 0.29179 0.94113 0.76744 0.0
H753 H 0.30179 0.895 0.91589 0.0
H754 H 0.28364 0.91572 0.89639 0.0
H755 H 0.33116 0.9364 0.83004 0.0
H756 H 0.34987 0.91611 0.8497 0.0
H757 H 0.28524 0.92011 0.81473 0.0
H758 H 0.34016 0.97509 0.87716 0.0
H759 H 0.35882 0.98822 0.92107 0.0
H760 H 0.29364 0.97479 0.95476 0.0
H761 H 0.2745 0.96125 0.91111 0.0
C762 C 0.25648 0.99676 0.77989 0.0
C763 C 0.23896 0.99845 0.7938 0.0
C764 C 0.26761 0.98572 0.79135 0.0
C765 C 0.26118 0.97576 0.81679 0.0
C766 C 0.24416 0.97802 0.83107 0.0
C767 C 0.23318 0.98933 0.81969 0.0
C768 C 0.27214 0.96286 0.82832 0.0
C769 C 0.28265 0.9694 0.85348 0.0
C770 C 0.27301 0.94477 0.81421 0.0
C771 C 0.26091 0.9359 0.78838 0.0
C772 C 0.23693 0.92798 0.78597 0.0
C773 C 0.22568 0.91983 0.76152 0.0
C774 C 0.23819 0.91934 0.73938 0.0
C775 C 0.26197 0.92694 0.74165 0.0
C776 C 0.27331 0.93514 0.76605 0.0
C777 C 0.30863 0.90413 0.8973 0.0
C778 C 0.32751 0.904 0.88454 0.0
C779 C 0.29813 0.91591 0.88613 0.0
C780 C 0.30623 0.92783 0.86194 0.0
C781 C 0.32467 0.92732 0.84877 0.0
C782 C 0.33528 0.91561 0.86 0.0
C783 C 0.29538 0.94077 0.85045 0.0
C784 C 0.28488 0.9342 0.82533 0.0
C785 C 0.29434 0.95867 0.86468 0.0
C786 C 0.30585 0.96695 0.89092 0.0
C787 C 0.32976 0.97476 0.89398 0.0
C788 C 0.34043 0.98231 0.91881 0.0
C789 C 0.32741 0.98229 0.94071 0.0
C790 C 0.3037 0.97477 0.93779 0.0
C791 C 0.29294 0.96718 0.913 0.0
H792 H 0.3357 0.98814 0.95992 0.0
H793 H 0.22945 0.91302 0.72047 0.0
H794 H 0.06863 0.43273 0.85787 0.0
H795 H 0.04028 0.39137 0.85022 0.0
H796 H 0.09547 0.37497 0.85556 0.0
H797 H 0.12351 0.4156 0.86427 0.0
H798 H 0.0668 0.36156 0.80586 0.0
H799 H 0.06248 0.3597 0.90299 0.0
H800 H 0.05323 0.36988 0.94673 0.0
H801 H 0.98205 0.34276 0.92273 0.0
H802 H 0.991 0.33285 0.87859 0.0
H803 H 0.03816 0.24643 0.81423 0.0
H804 H 0.05168 0.28745 0.82168 0.0
H805 H 0.98058 0.27247 0.82887 0.0
H806 H 0.96679 0.23088 0.82234 0.0
H807 H 0.00835 0.3028 0.8673 0.0
H808 H 0.01046 0.29871 0.77338 0.0
H809 H 0.01874 0.28752 0.72966 0.0
H810 H 0.09213 0.32574 0.74616 0.0
H811 H 0.08435 0.33691 0.79013 0.0
C812 C 0.07467 0.42028 0.85794 0.0
C813 C 0.09855 0.4277 0.86108 0.0
C814 C 0.05844 0.39667 0.85349 0.0
C815 C 0.06592 0.38027 0.85201 0.0
C816 C 0.08944 0.38746 0.85633 0.0
C817 C 0.10551 0.4108 0.86109 0.0
C818 C 0.05003 0.35584 0.84399 0.0
C819 C 0.05394 0.34868 0.81922 0.0
C820 C 0.03265 0.33932 0.86105 0.0
C821 C 0.02751 0.34589 0.88732 0.0
C822 C 0.04495 0.35624 0.90686 0.0
C823 C 0.03973 0.36185 0.93179 0.0
C824 C 0.01707 0.35696 0.93751 0.0
C825 C 0.99959 0.34649 0.91829 0.0
C826 C 0.00474 0.34094 0.8933 0.0
C827 C 0.02531 0.25169 0.81763 0.0
C828 C 1.00135 0.23524 0.81774 0.0
C829 C 0.03308 0.27527 0.82158 0.0
C830 C 0.01713 0.2831 0.82545 0.0
C831 C 0.99318 0.26681 0.82576 0.0
C832 C 0.98534 0.24307 0.82182 0.0
C833 C 0.02595 0.30833 0.82963 0.0
C834 C 0.02069 0.3157 0.85356 0.0
C835 C 0.04198 0.32517 0.81168 0.0
C836 C 0.04679 0.31859 0.78514 0.0
C837 C 0.02836 0.30463 0.76776 0.0
C838 C 0.03296 0.2983 0.74292 0.0
C839 C 0.05592 0.3059 0.73515 0.0
C840 C 0.07435 0.31988 0.7522 0.0
C841 C 0.06986 0.32626 0.77707 0.0
H842 H 0.05943 0.30097 0.71592 0.0
H843 H 0.01306 0.36133 0.95681 0.0
H844 H 0.59081 0.69532 0.8749 0.0
H845 H 0.62792 0.7114 0.85152 0.0
H846 H 0.60009 0.65025 0.80177 0.0
H847 H 0.5626 0.63384 0.82554 0.0
H848 H 0.64509 0.66401 0.82256 0.0
H849 H 0.60878 0.6975 0.77287 0.0
H850 H 0.58564 0.71673 0.76506 0.0
H851 H 0.6367 0.77751 0.80676 0.0
H852 H 0.65998 0.75852 0.81521 0.0
H853 H 0.76214 0.74094 0.76512 0.0
H854 H 0.71988 0.71317 0.7673 0.0
H855 H 0.71308 0.75441 0.82927 0.0
H856 H 0.7547 0.78154 0.82767 0.0
H857 H 0.68198 0.74437 0.78645 0.0
H858 H 0.71195 0.70541 0.8445 0.0
H859 H 0.73423 0.68535 0.85309 0.0
H860 H 0.69453 0.6344 0.79339 0.0
H861 H 0.67221 0.65437 0.78422 0.0
C862 C 0.59256 0.68526 0.85902 0.0
C863 C 0.57383 0.66331 0.85209 0.0
C864 C 0.61372 0.69453 0.84553 0.0
C865 C 0.6167 0.6821 0.82476 0.0
C866 C 0.59808 0.66014 0.81768 0.0
C867 C 0.57669 0.65089 0.8311 0.0
C868 C 0.63967 0.69234 0.81128 0.0
C869 C 0.653 0.68131 0.81392 0.0
C870 C 0.64994 0.71485 0.7999 0.0
C871 C 0.63612 0.72653 0.79472 0.0
C872 C 0.61502 0.71492 0.78052 0.0
C873 C 0.60188 0.72579 0.77596 0.0
C874 C 0.60969 0.74833 0.78542 0.0
C875 C 0.63068 0.76006 0.79942 0.0
C876 C 0.64389 0.74926 0.80405 0.0
C877 C 0.75161 0.74386 0.7794 0.0
C878 C 0.76173 0.76372 0.79588 0.0
C879 C 0.72752 0.72806 0.78054 0.0
C880 C 0.71336 0.73196 0.7982 0.0
C881 C 0.72363 0.75129 0.81518 0.0
C882 C 0.74747 0.76687 0.81415 0.0
C883 C 0.6877 0.71661 0.79922 0.0
C884 C 0.67385 0.72672 0.79414 0.0
C885 C 0.677 0.69327 0.80814 0.0
C886 C 0.69062 0.68152 0.81346 0.0
C887 C 0.70814 0.69006 0.83303 0.0
C888 C 0.72071 0.67866 0.83807 0.0
C889 C 0.71578 0.6586 0.82381 0.0
C890 C 0.69829 0.64991 0.80446 0.0
C891 C 0.68569 0.66127 0.79932 0.0
H892 H 0.72555 0.64981 0.82772 0.0
H893 H 0.59948 0.75671 0.78188 0.0
H894 H 0.69898 0.60285 0.51896 0.0
H895 H 0.68137 0.62384 0.49747 0.0
H896 H 0.61515 0.57616 0.53333 0.0
H897 H 0.63267 0.55552 0.55491 0.0
H898 H 0.6129 0.58512 0.478 0.0
H899 H 0.64582 0.62568 0.56147 0.0
H900 H 0.67807 0.64752 0.59302 0.0
H901 H 0.7145 0.70056 0.53416 0.0
H902 H 0.68257 0.67881 0.50211 0.0
H903 H 0.53876 0.63018 0.49081 0.0
H904 H 0.56577 0.61613 0.49924 0.0
H905 H 0.62033 0.67582 0.45859 0.0
H906 H 0.59308 0.68985 0.44927 0.0
H907 H 0.63453 0.66492 0.50759 0.0
H908 H 0.59834 0.62766 0.42668 0.0
H909 H 0.56597 0.60596 0.39526 0.0
H910 H 0.53625 0.54704 0.44792 0.0
H911 H 0.56825 0.56852 0.47988 0.0
C912 C 0.68065 0.59685 0.52198 0.0
C913 C 0.66716 0.57772 0.53867 0.0
C914 C 0.67066 0.60883 0.50984 0.0
C915 C 0.647 0.60153 0.5139 0.0
C916 C 0.63343 0.58203 0.52994 0.0
C917 C 0.64346 0.57037 0.54239 0.0
C918 C 0.63615 0.61436 0.50227 0.0
C919 C 0.61762 0.60258 0.4844 0.0
C920 C 0.64286 0.63739 0.51003 0.0
C921 C 0.66199 0.65047 0.52929 0.0
C922 C 0.66082 0.64188 0.55517 0.0
C923 C 0.67901 0.65426 0.57316 0.0
C924 C 0.69837 0.67537 0.56557 0.0
C925 C 0.69953 0.68417 0.53999 0.0
C926 C 0.68139 0.67183 0.52191 0.0
C927 C 0.55637 0.64029 0.48332 0.0
C928 C 0.56356 0.66104 0.46902 0.0
C929 C 0.57185 0.63225 0.4883 0.0
C930 C 0.59493 0.64477 0.47921 0.0
C931 C 0.60253 0.66587 0.46568 0.0
C932 C 0.58694 0.6739 0.46048 0.0
C933 C 0.61075 0.63536 0.48397 0.0
C934 C 0.63017 0.64772 0.50058 0.0
C935 C 0.60495 0.61287 0.47494 0.0
C936 C 0.58565 0.59978 0.45577 0.0
C937 C 0.58481 0.61014 0.43167 0.0
C938 C 0.56654 0.59787 0.41374 0.0
C939 C 0.54905 0.57515 0.41961 0.0
C940 C 0.54982 0.56464 0.4434 0.0
C941 C 0.56804 0.57685 0.46142 0.0
H942 H 0.53492 0.56567 0.4057 0.0
H943 H 0.71243 0.68494 0.57953 0.0
H944 H 0.29399 0.90699 0.47445 0.0
H945 H 0.30936 0.94594 0.49458 0.0
H946 H 0.37776 0.95311 0.49865 0.0
H947 H 0.36241 0.91456 0.47811 0.0
H948 H 0.3646 0.96903 0.54527 0.0
H949 H 0.36569 0.97525 0.44807 0.0
H950 H 0.34678 0.96633 0.404 0.0
H951 H 0.30297 0.99348 0.429 0.0
H952 H 0.3214 0.00224 0.4734 0.0
H953 H 0.45536 0.08365 0.54106 0.0
H954 H 0.42652 0.04281 0.53477 0.0
H955 H 0.37316 0.0611 0.5224 0.0
H956 H 0.40231 0.10237 0.52761 0.0
H957 H 0.37 0.03129 0.48571 0.0
H958 H 0.37364 0.03252 0.57937 0.0
H959 H 0.39141 0.04151 0.62401 0.0
H960 H 0.42357 1.00031 0.60815 0.0
H961 H 0.40627 0.99129 0.56325 0.0
C962 C 0.31216 0.91685 0.48022 0.0
C963 C 0.32714 0.90806 0.47507 0.0
C964 C 0.32092 0.93899 0.49157 0.0
C965 C 0.34469 0.95234 0.4981 0.0
C966 C 0.35936 0.94302 0.49392 0.0
C967 C 0.35069 0.92114 0.4822 0.0
C968 C 0.35499 0.97674 0.50734 0.0
C969 C 0.3658 0.9827 0.53235 0.0
C970 C 0.35573 0.99438 0.4908 0.0
C971 C 0.34473 0.98916 0.46412 0.0
C972 C 0.35189 0.97914 0.44424 0.0
C973 C 0.34131 0.97417 0.41918 0.0
C974 C 0.32372 0.97938 0.41369 0.0
C975 C 0.31664 0.98951 0.43327 0.0
C976 C 0.32713 0.99446 0.45838 0.0
C977 C 0.43754 0.0791 0.53692 0.0
C978 C 0.43126 0.09641 0.53467 0.0
C979 C 0.42094 0.05563 0.5337 0.0
C980 C 0.39755 0.04879 0.52849 0.0
C981 C 0.39108 0.06595 0.52657 0.0
C982 C 0.40775 0.08954 0.52973 0.0
C983 C 0.38045 0.02383 0.5234 0.0
C984 C 0.36835 0.0177 0.4991 0.0
C985 C 0.37825 0.00601 0.54079 0.0
C986 C 0.38872 0.01132 0.56784 0.0
C987 C 0.38463 0.02549 0.58531 0.0
C988 C 0.3946 0.03058 0.61069 0.0
C989 C 0.40864 0.02152 0.6189 0.0
C990 C 0.41269 0.00731 0.60176 0.0
C991 C 0.40276 0.00217 0.57636 0.0
H992 H 0.41635 0.02549 0.63855 0.0
H993 H 0.31553 0.9755 0.3943 0.0
H994 H 0.10385 0.44153 0.48501 0.0
H995 H 0.06452 0.42058 0.50363 0.0
H996 H 0.03608 0.39765 0.42511 0.0
H997 H 0.07516 0.41777 0.40636 0.0
H998 H 0.01263 0.41557 0.45438 0.0
H999 H 0.03861 0.36002 0.46488 0.0
H1000 H 0.06555 0.34665 0.47946 0.0
H1001 H 0.05719 0.36117 0.56071 0.0
H1002 H 0.03046 0.37496 0.54656 0.0
H1003 H 0.89679 0.33577 0.49767 0.0
H1004 H 0.93474 0.35292 0.47563 0.0
H1005 H 0.96878 0.36789 0.55212 0.0
H1006 H 0.93123 0.34965 0.57411 0.0
H1007 H 0.98906 0.35281 0.52144 0.0
H1008 H 0.96421 0.40935 0.51195 0.0
H1009 H 0.93842 0.42435 0.49815 0.0
H1010 H 0.94598 0.41052 0.41639 0.0
H1011 H 0.97129 0.39481 0.42976 0.0
C1012 C 0.08934 0.43183 0.47166 0.0
C1013 C 0.09292 0.43152 0.44407 0.0
C1014 C 0.06681 0.41993 0.48236 0.0
C1015 C 0.04739 0.40754 0.46573 0.0
C1016 C 0.05082 0.40722 0.43828 0.0
C1017 C 0.07329 0.41889 0.42758 0.0
C1018 C 0.02344 0.39498 0.47691 0.0
C1019 C 0.00731 0.40162 0.46879 0.0
C1020 C 0.01673 0.37713 0.49606 0.0
C1021 C 0.0327 0.36873 0.50463 0.0
C1022 C 0.04266 0.36054 0.48583 0.0
C1023 C 0.05787 0.35286 0.49402 0.0
C1024 C 0.06313 0.35312 0.52099 0.0
C1025 C 0.05313 0.36101 0.53983 0.0
C1026 C 0.03793 0.36874 0.53174 0.0
C1027 C 0.91229 0.34244 0.50983 0.0
C1028 C 0.91073 0.34143 0.5378 0.0
C1029 C 0.93406 0.35251 0.49716 0.0
C1030 C 0.95474 0.36209 0.51219 0.0
C1031 C 0.95316 0.36074 0.54002 0.0
C1032 C 0.93151 0.35048 0.55263 0.0
C1033 C 0.97813 0.37357 0.49926 0.0
C1034 C 0.99422 0.3667 0.50698 0.0
C1035 C 0.98485 0.3914 0.47994 0.0
C1036 C 0.9694 0.40059 0.47191 0.0
C1037 C 0.96014 0.40923 0.49106 0.0
C1038 C 0.94561 0.41787 0.48331 0.0
C1039 C 0.94045 0.41826 0.45642 0.0
C1040 C 0.94988 0.41008 0.43722 0.0
C1041 C 0.96427 0.40126 0.44488 0.0
H1042 H 0.92922 0.42498 0.45045 0.0
H1043 H 0.0749 0.34716 0.5273 0.0
H1044 H 0.19263 0.43525 0.35818 0.0
H1045 H 0.18008 0.4003 0.33057 0.0
H1046 H 0.13617 0.35739 0.39465 0.0
H1047 H 0.14932 0.39171 0.4223 0.0
H1048 H 0.15668 0.33712 0.37536 0.0
H1049 H 0.11524 0.37261 0.33682 0.0
H1050 H 0.11125 0.40402 0.31561 0.0
H1051 H 0.15325 0.40509 0.24989 0.0
H1052 H 0.15772 0.37387 0.27089 0.0
H1053 H 0.07709 0.23381 0.30285 0.0
H1054 H 0.09597 0.2692 0.33027 0.0
H1055 H 0.14514 0.30544 0.26716 0.0
H1056 H 0.12651 0.27041 0.23984 0.0
H1057 H 0.12445 0.32957 0.28455 0.0
H1058 H 0.16259 0.29091 0.32339 0.0
H1059 H 0.16415 0.25836 0.34517 0.0
H1060 H 0.1251 0.26201 0.41138 0.0
H1061 H 0.12304 0.2944 0.38983 0.0
C1062 C 0.1803 0.41832 0.36623 0.0
C1063 C 0.17209 0.41621 0.39243 0.0
C1064 C 0.17305 0.39836 0.35046 0.0
C1065 C 0.15703 0.3761 0.36044 0.0
C1066 C 0.14869 0.37422 0.38649 0.0
C1067 C 0.15621 0.39395 0.4023 0.0
C1068 C 0.1488 0.35455 0.34422 0.0
C1069 C 0.14943 0.33546 0.35559 0.0
C1070 C 0.13972 0.35236 0.31821 0.0
C1071 C 0.13703 0.3711 0.30557 0.0
C1072 C 0.12376 0.37967 0.31794 0.0
C1073 C 0.12139 0.39742 0.30594 0.0
C1074 C 0.13205 0.4066 0.28146 0.0
C1075 C 0.14504 0.398 0.26888 0.0
C1076 C 0.14749 0.38027 0.28081 0.0
C1077 C 0.09224 0.24917 0.2951 0.0
C1078 C 0.10024 0.24932 0.26915 0.0
C1079 C 0.10298 0.2694 0.31073 0.0
C1080 C 0.12192 0.29001 0.30068 0.0
C1081 C 0.13047 0.28982 0.27524 0.0
C1082 C 0.11982 0.26971 0.25969 0.0
C1083 C 0.13205 0.31218 0.31589 0.0
C1084 C 0.1318 0.33135 0.30428 0.0
C1085 C 0.14114 0.31432 0.34183 0.0
C1086 C 0.14249 0.29495 0.35488 0.0
C1087 C 0.15419 0.28466 0.3425 0.0
C1088 C 0.15519 0.26626 0.35482 0.0
C1089 C 0.14469 0.25809 0.37961 0.0
C1090 C 0.13321 0.26834 0.39217 0.0
C1091 C 0.13214 0.28674 0.37992 0.0
H1092 H 0.14548 0.24384 0.38912 0.0
H1093 H 0.13019 0.42033 0.2722 0.0
H1094 H 0.61499 0.75679 0.435 0.0
H1095 H 0.64945 0.7736 0.40688 0.0
H1096 H 0.60599 0.7539 0.33691 0.0
H1097 H 0.57094 0.73648 0.36528 0.0
H1098 H 0.64326 0.74689 0.3305 0.0
H1099 H 0.63196 0.80941 0.35933 0.0
H1100 H 0.62532 0.83338 0.39182 0.0
H1101 H 0.68973 0.85094 0.4309 0.0
H1102 H 0.69658 0.82678 0.39886 0.0
H1103 H 0.72818 0.82588 0.24136 0.0
H1104 H 0.69453 0.80735 0.27068 0.0
H1105 H 0.73969 0.81912 0.33774 0.0
H1106 H 0.77392 0.83754 0.30816 0.0
H1107 H 0.70219 0.82998 0.34592 0.0
H1108 H 0.71383 0.7681 0.31589 0.0
H1109 H 0.72053 0.74473 0.28272 0.0
H1110 H 0.65534 0.72639 0.24509 0.0
H1111 H 0.64847 0.75006 0.27778 0.0
C1112 C 0.61263 0.75591 0.41362 0.0
C1113 C 0.59019 0.74557 0.40236 0.0
C1114 C 0.63243 0.7656 0.39756 0.0
C1115 C 0.63037 0.76551 0.3698 0.0
C1116 C 0.60798 0.75432 0.35833 0.0
C1117 C 0.58799 0.7444 0.37451 0.0
C1118 C 0.65175 0.77773 0.35313 0.0
C1119 C 0.65597 0.76513 0.33361 0.0
C1120 C 0.66867 0.80143 0.35763 0.0
C1121 C 0.66468 0.81611 0.37683 0.0
C1122 C 0.64462 0.81824 0.37497 0.0
C1123 C 0.64083 0.83188 0.39329 0.0
C1124 C 0.65706 0.84363 0.41345 0.0
C1125 C 0.67715 0.84181 0.41529 0.0
C1126 C 0.68101 0.82816 0.39704 0.0
C1127 C 0.73115 0.82476 0.26237 0.0
C1128 C 0.75383 0.83316 0.27239 0.0
C1129 C 0.71179 0.81404 0.27908 0.0
C1130 C 0.71459 0.81161 0.30628 0.0
C1131 C 0.7372 0.82077 0.31672 0.0
C1132 C 0.75671 0.83131 0.29984 0.0
C1133 C 0.69365 0.79913 0.3234 0.0
C1134 C 0.68949 0.81171 0.34291 0.0
C1135 C 0.67677 0.77548 0.3188 0.0
C1136 C 0.68076 0.7611 0.29913 0.0
C1137 C 0.70104 0.7593 0.30037 0.0
C1138 C 0.70487 0.74597 0.28163 0.0
C1139 C 0.68845 0.73417 0.26165 0.0
C1140 C 0.66812 0.73561 0.26047 0.0
C1141 C 0.66423 0.74898 0.27912 0.0
H1142 H 0.69146 0.72385 0.24717 0.0
H1143 H 0.6541 0.85419 0.42762 0.0
H1144 H 0.20705 0.92282 0.22667 0.0
H1145 H 0.2241 0.90658 0.25672 0.0
H1146 H 0.18696 0.91466 0.32262 0.0
H1147 H 0.1703 0.93183 0.29244 0.0
H1148 H 0.2298 0.92336 0.33802 0.0
H1149 H 0.16543 0.86229 0.29046 0.0
H1150 H 0.14237 0.84183 0.25076 0.0
H1151 H 0.19941 0.83491 0.22095 0.0
H1152 H 0.22293 0.85563 0.26032 0.0
H1153 H 0.22275 0.83493 0.42163 0.0
H1154 H 0.21245 0.85617 0.39014 0.0
H1155 H 0.26156 0.8566 0.33349 0.0
H1156 H 0.27247 0.83547 0.36538 0.0
H1157 H 0.21524 0.84471 0.31275 0.0
H1158 H 0.27826 0.9033 0.36393 0.0
H1159 H 0.29886 0.92104 0.40584 0.0
H1160 H 0.24242 0.931 0.43072 0.0
H1161 H 0.22116 0.91276 0.38924 0.0
C1162 C 0.20265 0.92136 0.24762 0.0
C1163 C 0.18704 0.92822 0.25718 0.0
C1164 C 0.21241 0.91203 0.26477 0.0
C1165 C 0.20635 0.9088 0.29181 0.0
C1166 C 0.19175 0.91683 0.30178 0.0
C1167 C 0.18222 0.92659 0.28457 0.0
C1168 C 0.21419 0.89575 0.30906 0.0
C1169 C 0.22644 0.9061 0.33261 0.0
C1170 C 0.21018 0.87334 0.3018 0.0
C1171 C 0.19601 0.86071 0.2782 0.0
C1172 C 0.17311 0.85655 0.27535 0.0
C1173 C 0.15995 0.84488 0.25292 0.0
C1174 C 0.16944 0.83712 0.23332 0.0
C1175 C 0.19209 0.84096 0.23614 0.0
C1176 C 0.20534 0.85264 0.25851 0.0
C1177 C 0.23132 0.83932 0.40243 0.0
C1178 C 0.24855 0.83357 0.39607 0.0
C1179 C 0.22543 0.85156 0.38449 0.0
C1180 C 0.23647 0.85822 0.3597 0.0
C1181 C 0.25295 0.85169 0.35266 0.0
C1182 C 0.25911 0.83959 0.37083 0.0
C1183 C 0.23079 0.87231 0.34157 0.0
C1184 C 0.21884 0.8621 0.31795 0.0
C1185 C 0.23489 0.89469 0.34893 0.0
C1186 C 0.24799 0.90643 0.37353 0.0
C1187 C 0.27013 0.90909 0.37841 0.0
C1188 C 0.28193 0.91923 0.40211 0.0
C1189 C 0.2719 0.92703 0.42098 0.0
C1190 C 0.25013 0.92487 0.41611 0.0
C1191 C 0.23819 0.91464 0.3925 0.0
H1192 H 0.28105 0.93483 0.43933 0.0
H1193 H 0.15923 0.8281 0.21596 0.0
H1194 H 0.4339 0.16655 0.6307 0.0
H1195 H 0.40041 0.15013 0.66139 0.0
H1196 H 0.35454 0.1413 0.59595 0.0
H1197 H 0.38743 0.15784 0.56572 0.0
H1198 H 0.34406 0.15908 0.63597 0.0
H1199 H 0.3575 0.09516 0.62309 0.0
H1200 H 0.38024 0.07494 0.62282 0.0
H1201 H 0.39161 0.08598 0.70698 0.0
H1202 H 0.3692 0.10659 0.70767 0.0
H1203 H 0.23393 0.08002 0.69786 0.0
H1204 H 0.26786 0.09594 0.66783 0.0
H1205 H 0.31381 0.11466 0.73547 0.0
H1206 H 0.28047 0.09933 0.76533 0.0
H1207 H 0.32417 0.09166 0.69496 0.0
H1208 H 0.3095 0.15579 0.70603 0.0
H1209 H 0.28532 0.17447 0.70444 0.0
H1210 H 0.27445 0.16055 0.62066 0.0
H1211 H 0.29831 0.14147 0.62183 0.0
C1212 C 0.41666 0.1611 0.62296 0.0
C1213 C 0.41342 0.1636 0.59577 0.0
C1214 C 0.39752 0.15164 0.64046 0.0
C1215 C 0.37487 0.14438 0.63096 0.0
C1216 C 0.37177 0.14687 0.60384 0.0
C1217 C 0.39072 0.15632 0.58653 0.0
C1218 C 0.3542 0.13437 0.64893 0.0
C1219 C 0.33964 0.14418 0.64864 0.0
C1220 C 0.34842 0.11505 0.66569 0.0
C1221 C 0.3619 0.10267 0.66537 0.0
C1222 C 0.36502 0.09346 0.6415 0.0
C1223 C 0.37782 0.08189 0.64128 0.0
C1224 C 0.38743 0.07924 0.66486 0.0
C1225 C 0.3842 0.08809 0.68872 0.0
C1226 C 0.37144 0.09972 0.68904 0.0
C1227 C 0.25128 0.08766 0.70627 0.0
C1228 C 0.25445 0.08852 0.73399 0.0
C1229 C 0.27062 0.09669 0.68913 0.0
C1230 C 0.29336 0.10645 0.69947 0.0
C1231 C 0.29646 0.10714 0.72706 0.0
C1232 C 0.27729 0.09848 0.74411 0.0
C1233 C 0.31412 0.11633 0.68179 0.0
C1234 C 0.32867 0.10654 0.68222 0.0
C1235 C 0.31973 0.13544 0.66482 0.0
C1236 C 0.30547 0.14698 0.66408 0.0
C1237 C 0.30178 0.15653 0.68732 0.0
C1238 C 0.28817 0.16723 0.68648 0.0
C1239 C 0.27829 0.16864 0.66248 0.0
C1240 C 0.28207 0.15941 0.63924 0.0
C1241 C 0.29565 0.14866 0.63998 0.0
H1242 H 0.26776 0.17693 0.66187 0.0
H1243 H 0.39733 0.07027 0.66466 0.0
H1244 H 0.84944 0.23622 0.57611 0.0
H1245 H 0.86642 0.22094 0.6072 0.0
H1246 H 0.84884 0.25151 0.67257 0.0
H1247 H 0.8321 0.26766 0.64103 0.0
H1248 H 0.89246 0.25843 0.67803 0.0
H1249 H 0.81757 0.19258 0.66072 0.0
H1250 H 0.78469 0.16421 0.63333 0.0
H1251 H 0.82894 0.14186 0.59704 0.0
H1252 H 0.8622 0.17033 0.62394 0.0
H1253 H 0.90763 0.19127 0.77751 0.0
H1254 H 0.89266 0.20907 0.74684 0.0
H1255 H 0.91542 0.18436 0.6803 0.0
H1256 H 0.93062 0.16627 0.71123 0.0
H1257 H 0.8692 0.17466 0.67605 0.0
H1258 H 0.94404 0.24056 0.69503 0.0
H1259 H 0.97588 0.26795 0.72421 0.0
H1260 H 0.93057 0.28956 0.7592 0.0
H1261 H 0.89825 0.26192 0.73058 0.0
C1262 C 0.84898 0.23969 0.59709 0.0
C1263 C 0.83923 0.25309 0.60607 0.0
C1264 C 0.85868 0.2308 0.61491 0.0
C1265 C 0.85861 0.23471 0.6423 0.0
C1266 C 0.84898 0.24817 0.6515 0.0
C1267 C 0.83931 0.25727 0.63351 0.0
C1268 C 0.86898 0.22489 0.66094 0.0
C1269 C 0.8871 0.24005 0.67791 0.0
C1270 C 0.86242 0.20098 0.66035 0.0
C1271 C 0.84243 0.18374 0.6442 0.0
C1272 C 0.82034 0.18173 0.64676 0.0
C1273 C 0.80162 0.16561 0.63134 0.0
C1274 C 0.80474 0.15127 0.61342 0.0
C1275 C 0.82656 0.15299 0.61092 0.0
C1276 C 0.84534 0.1691 0.62627 0.0
C1277 C 0.90964 0.18969 0.75635 0.0
C1278 C 0.92025 0.17727 0.74677 0.0
C1279 C 0.90115 0.20001 0.73884 0.0
C1280 C 0.90303 0.19818 0.7113 0.0
C1281 C 0.91385 0.18601 0.70153 0.0
C1282 C 0.92261 0.17579 0.71916 0.0
C1283 C 0.89272 0.2082 0.69297 0.0
C1284 C 0.87456 0.19304 0.67611 0.0
C1285 C 0.89912 0.23204 0.69386 0.0
C1286 C 0.91864 0.249 0.71079 0.0
C1287 C 0.94079 0.25102 0.70908 0.0
C1288 C 0.95895 0.26662 0.72551 0.0
C1289 C 0.95526 0.28047 0.74359 0.0
C1290 C 0.9334 0.2788 0.74521 0.0
C1291 C 0.91515 0.26317 0.72887 0.0
H1292 H 0.96934 0.29253 0.7563 0.0
H1293 H 0.79023 0.1388 0.6015 0.0
H1294 H 0.80438 0.75865 0.719 0.0
H1295 H 0.78394 0.72406 0.69021 0.0
H1296 H 0.84104 0.71073 0.69919 0.0
H1297 H 0.86106 0.74471 0.72824 0.0
H1298 H 0.82095 0.70306 0.64592 0.0
H1299 H 0.79821 0.68541 0.74039 0.0
H1300 H 0.78221 0.69353 0.78072 0.0
H1301 H 0.71886 0.67566 0.739 0.0
H1302 H 0.73467 0.6678 0.69824 0.0
H1303 H 0.78876 0.58986 0.61873 0.0
H1304 H 0.802 0.62557 0.64449 0.0
H1305 H 0.73174 0.61379 0.64601 0.0
H1306 H 0.71826 0.57725 0.62156 0.0
H1307 H 0.75314 0.63625 0.68944 0.0
H1308 H 0.77073 0.64842 0.59772 0.0
H1309 H 0.78532 0.64412 0.55417 0.0
H1310 H 0.85484 0.67542 0.58554 0.0
H1311 H 0.84061 0.67958 0.62943 0.0
C1312 C 0.81281 0.74872 0.71401 0.0
C1313 C 0.8343 0.75428 0.72555 0.0
C1314 C 0.80109 0.72893 0.6978 0.0
C1315 C 0.81097 0.71482 0.69275 0.0
C1316 C 0.83318 0.72142 0.7028 0.0
C1317 C 0.8446 0.74081 0.71933 0.0
C1318 C 0.79762 0.69193 0.67937 0.0
C1319 C 0.80615 0.68842 0.65537 0.0
C1320 C 0.77777 0.67311 0.6913 0.0
C1321 C 0.76769 0.67622 0.71624 0.0
C1322 C 0.78087 0.68321 0.73983 0.0
C1323 C 0.77186 0.68781 0.76273 0.0
C1324 C 0.74959 0.68524 0.76236 0.0
C1325 C 0.73614 0.67772 0.7392 0.0
C1326 C 0.74511 0.67317 0.71621 0.0
C1327 C 0.77603 0.59447 0.62545 0.0
C1328 C 0.75253 0.58085 0.61816 0.0
C1329 C 0.78362 0.61502 0.63987 0.0
C1330 C 0.76802 0.62286 0.64632 0.0
C1331 C 0.74416 0.60827 0.64103 0.0
C1332 C 0.73644 0.58731 0.62716 0.0
C1333 C 0.77711 0.64705 0.65635 0.0
C1334 C 0.76773 0.65085 0.67966 0.0
C1335 C 0.79582 0.66638 0.64336 0.0
C1336 C 0.80457 0.66416 0.61692 0.0
C1337 C 0.78911 0.65427 0.59538 0.0
C1338 C 0.79732 0.65186 0.57063 0.0
C1339 C 0.82099 0.65946 0.5671 0.0
C1340 C 0.83651 0.66953 0.58831 0.0
C1341 C 0.82839 0.67194 0.61312 0.0
H1342 H 0.8273 0.65757 0.54793 0.0
H1343 H 0.7428 0.68914 0.77998 0.0
H1344 H 0.95613 0.43447 0.09601 0.0
H1345 H 0.98814 0.44954 0.06458 0.0
H1346 H 0.93956 0.4299 -0.00067 0.0
H1347 H 0.90687 0.41376 0.03112 0.0
H1348 H 0.97304 0.41984 0.98797 0.0
H1349 H 0.97232 0.48733 0.02003 0.0
H1350 H 0.97142 0.51401 0.0536 0.0
H1351 H 0.03636 0.52547 0.08593 0.0
H1352 H 0.03749 0.4986 0.05277 0.0
H1353 H 0.05615 0.49228 0.8929 0.0
H1354 H 0.02422 0.47588 0.92465 0.0
H1355 H 0.07224 0.48516 0.98775 0.0
H1356 H 0.10476 0.50176 0.95572 0.0
H1357 H 0.03936 0.50029 -0.00015 0.0
H1358 H 0.04025 0.4336 0.96422 0.0
H1359 H 0.04171 0.41016 0.927 0.0
H1360 H 0.97561 0.39868 0.89873 0.0
H1361 H 0.97411 0.42276 0.93527 0.0
C1362 C 0.95208 0.4334 0.075 0.0
C1363 C 0.92887 0.42313 0.0661 0.0
C1364 C 0.97052 0.44212 0.057 0.0
C1365 C 0.96637 0.44133 0.02957 0.0
C1366 C 0.9432 0.43083 0.02044 0.0
C1367 C 0.92456 0.42175 0.03858 0.0
C1368 C 0.98644 0.45153 0.01078 0.0
C1369 C 0.98737 0.43753 0.99036 0.0
C1370 C 0.00543 0.4745 0.01416 0.0
C1371 C 0.00488 0.49079 0.03405 0.0
C1372 C 0.98633 0.49541 0.03441 0.0
C1373 C 0.98579 0.51059 0.05335 0.0
C1374 C 0.00379 0.52139 0.07193 0.0
C1375 C 0.02241 0.51708 0.07155 0.0
C1376 C 0.02302 0.5019 0.05266 0.0
C1377 C 0.06009 0.49092 0.91351 0.0
C1378 C 0.08306 0.49831 0.92178 0.0
C1379 C 0.04172 0.48144 0.93162 0.0
C1380 C 0.04583 0.4791 0.95845 0.0
C1381 C 0.06875 0.48678 0.96704 0.0
C1382 C 0.08726 0.49618 0.94876 0.0
C1383 C 0.02594 0.46859 0.97728 0.0
C1384 C 0.02504 0.48256 0.99762 0.0
C1385 C 0.00692 0.44574 0.97359 0.0
C1386 C 0.00718 0.43022 0.95239 0.0
C1387 C 0.02608 0.42621 0.94999 0.0
C1388 C 0.02694 0.41285 0.92897 0.0
C1389 C 0.0088 0.403 0.91046 0.0
C1390 C 0.98968 0.40638 0.91305 0.0
C1391 C 0.98883 0.41992 0.9339 0.0
H1392 H 0.00955 0.39273 0.89415 0.0
H1393 H 0.00334 0.53313 0.08658 0.0
H1394 H 0.48371 0.57838 0.9585 0.0
H1395 H 0.49743 0.55867 0.98894 0.0
H1396 H 0.53757 0.55227 0.92517 0.0
H1397 H 0.52333 0.57086 0.89486 0.0
H1398 H 0.51734 0.5136 0.94964 0.0
H1399 H 0.5621 0.59345 0.97785 0.0
H1400 H 0.56834 0.63128 0.99411 0.0
H1401 H 0.52938 0.59836 0.06489 0.0
H1402 H 0.52264 0.56027 0.04888 0.0
H1403 H 0.59523 0.49094 0.02824 0.0
H1404 H 0.57821 0.50761 0.998 0.0
H1405 H 0.53041 0.50224 0.05959 0.0
H1406 H 0.54701 0.48554 0.08961 0.0
H1407 H 0.55351 0.54599 0.03721 0.0
H1408 H 0.51069 0.46598 0.00811 0.0
H1409 H 0.50649 0.42913 0.99119 0.0
H1410 H 0.54486 0.46416 0.92086 0.0
H1411 H 0.54956 0.50131 0.93754 0.0
C1412 C 0.4955 0.57278 0.95112 0.0
C1413 C 0.5023 0.57604 0.92427 0.0
C1414 C 0.50342 0.5616 0.96851 0.0
C1415 C 0.51869 0.55402 0.95943 0.0
C1416 C 0.52568 0.55768 0.9327 0.0
C1417 C 0.51752 0.56842 0.91536 0.0
C1418 C 0.5273 0.54195 0.97731 0.0
C1419 C 0.52549 0.52089 0.96865 0.0
C1420 C 0.53761 0.5511 0.00236 0.0
C1421 C 0.54164 0.57398 0.01203 0.0
C1422 C 0.55471 0.59426 0.99679 0.0
C1423 C 0.55836 0.61575 0.00597 0.0
C1424 C 0.5492 0.61721 0.03048 0.0
C1425 C 0.53642 0.59719 0.04589 0.0
C1426 C 0.53269 0.57565 0.03678 0.0
C1427 C 0.58082 0.49291 0.03513 0.0
C1428 C 0.57254 0.48695 0.06136 0.0
C1429 C 0.57115 0.50251 0.01789 0.0
C1430 C 0.5531 0.50628 0.02662 0.0
C1431 C 0.54442 0.49966 0.05249 0.0
C1432 C 0.55391 0.49 0.06959 0.0
C1433 C 0.54371 0.5179 0.00934 0.0
C1434 C 0.54535 0.53879 0.01817 0.0
C1435 C 0.53356 0.50879 0.98429 0.0
C1436 C 0.53067 0.48646 0.9742 0.0
C1437 C 0.5184 0.46586 0.98914 0.0
C1438 C 0.51589 0.44492 0.97957 0.0
C1439 C 0.52546 0.44432 0.955 0.0
C1440 C 0.53749 0.46466 0.93991 0.0
C1441 C 0.54006 0.48566 0.9494 0.0
H1442 H 0.5235 0.42809 0.94762 0.0
H1443 H 0.55205 0.63387 0.03756 0.0
H1444 H 0.51102 0.09785 0.03647 0.0
H1445 H 0.49083 0.06179 0.01057 0.0
H1446 H 0.51404 0.02786 0.06593 0.0
H1447 H 0.53449 0.06381 0.09162 0.0
H1448 H 0.51404 0.01326 0.01626 0.0
H1449 H 0.46126 0.02231 0.0727 0.0
H1450 H 0.44196 0.04256 0.09198 0.0
H1451 H 0.41387 0.04377 0.0154 0.0
H1452 H 0.43343 0.02398 0.99551 0.0
H1453 H 0.42595 0.89794 0.97477 0.0
H1454 H 0.44725 0.93143 0.00502 0.0
H1455 H 0.4365 0.97528 0.95018 0.0
H1456 H 0.41583 0.94241 0.92009 0.0
H1457 H 0.42922 0.98245 0.00388 0.0
H1458 H 0.48587 0.97624 0.94781 0.0
H1459 H 0.50534 0.95571 0.9298 0.0
H1460 H 0.52524 0.9478 0.00874 0.0
H1461 H 0.50557 0.96801 0.02725 0.0
C1462 C 0.51232 0.0829 0.04274 0.0
C1463 C 0.52413 0.0836 0.06625 0.0
C1464 C 0.50061 0.06224 0.02805 0.0
C1465 C 0.50048 0.04198 0.03669 0.0
C1466 C 0.51373 0.0432 0.05901 0.0
C1467 C 0.5254 0.06379 0.07368 0.0
C1468 C 0.48535 0.01919 0.02361 0.0
C1469 C 0.49544 0.00639 0.01388 0.0
C1470 C 0.46104 0.01015 0.02061 0.0
C1471 C 0.449 0.02183 0.03255 0.0
C1472 C 0.45112 0.02705 0.05991 0.0
C1473 C 0.44013 0.03843 0.07096 0.0
C1474 C 0.42671 0.04445 0.05492 0.0
C1475 C 0.42428 0.0391 0.0278 0.0
C1476 C 0.43532 0.0278 0.01662 0.0
C1477 C 0.42797 0.91469 0.96946 0.0
C1478 C 0.41952 0.91769 0.94503 0.0
C1479 C 0.44013 0.93377 0.98664 0.0
C1480 C 0.44352 0.95585 0.97972 0.0
C1481 C 0.43408 0.95844 0.95591 0.0
C1482 C 0.42241 0.93965 0.93866 0.0
C1483 C 0.45801 0.97681 0.99614 0.0
C1484 C 0.44777 0.98925 0.00655 0.0
C1485 C 0.48211 0.98538 5e-05 0.0
C1486 C 0.49401 0.97336 0.98893 0.0
C1487 C 0.49422 0.96993 0.96134 0.0
C1488 C 0.50532 0.95839 0.95104 0.0
C1489 C 0.51645 0.95038 0.96812 0.0
C1490 C 0.51656 0.95396 0.99554 0.0
C1491 C 0.50545 0.96546 0.00594 0.0
H1492 H 0.52505 0.94146 0.96011 0.0
H1493 H 0.41816 0.05321 0.06353 0.0
H1494 H 0.97884 0.13212 0.12599 0.0
H1495 H 0.96705 0.11926 0.08005 0.0
H1496 H 0.03871 0.16051 0.05469 0.0
H1497 H 0.05037 0.17386 0.10039 0.0
H1498 H 0.01254 0.16795 0.02308 0.0
H1499 H 0.0092 0.09924 0.05851 0.0
H1500 H 0.99734 0.06657 0.08983 0.0
H1501 H 0.92548 0.04047 0.06963 0.0
H1502 H 0.93689 0.07319 0.03845 0.0
H1503 H 0.99777 0.12776 0.89242 0.0
H1504 H 0.00868 0.12947 0.93912 0.0
H1505 H 0.93685 0.10131 0.96236 0.0
H1506 H 0.92568 0.09924 0.91551 0.0
H1507 H 0.96301 0.08572 0.99455 0.0
H1508 H 0.9673 0.15628 0.96097 0.0
H1509 H 0.97988 0.18848 0.92882 0.0
H1510 H 0.05158 0.21069 0.94566 0.0
H1511 H 0.0394 0.17833 0.97759 0.0
C1512 C 0.99204 0.13824 0.11059 0.0
C1513 C 0.01547 0.15408 0.11664 0.0
C1514 C 0.98534 0.13081 0.08439 0.0
C1515 C 0.00203 0.13874 0.06391 0.0
C1516 C 0.0255 0.15421 0.07011 0.0
C1517 C 0.03215 0.16187 0.09619 0.0
C1518 C 0.99498 0.13204 0.03579 0.0
C1519 C 0.00205 0.14992 0.01688 0.0
C1520 C 0.98081 0.10855 0.02767 0.0
C1521 C 0.97389 0.0888 0.04632 0.0
C1522 C 0.99085 0.08664 0.06089 0.0
C1523 C 0.98421 0.06809 0.0786 0.0
C1524 C 0.96066 0.05149 0.08177 0.0
C1525 C 0.94371 0.05336 0.06718 0.0
C1526 C 0.95026 0.07189 0.04946 0.0
C1527 C 0.98416 0.12121 0.90736 0.0
C1528 C 0.96089 0.1136 0.90034 0.0
C1529 C 0.99045 0.1223 0.93404 0.0
C1530 C 0.97359 0.11579 0.95411 0.0
C1531 C 0.95009 0.10644 0.94711 0.0
C1532 C 0.94379 0.10545 0.9204 0.0
C1533 C 0.98086 0.1216 0.98218 0.0
C1534 C 0.97369 0.10366 0.00096 0.0
C1535 C 0.99509 0.14502 0.99026 0.0
C1536 C 0.00244 0.16475 0.97146 0.0
C1537 C 0.98574 0.16793 0.95767 0.0
C1538 C 0.9928 0.18622 0.93951 0.0
C1539 C 0.01652 0.20159 0.93515 0.0
C1540 C 0.03322 0.19875 0.94903 0.0
C1541 C 0.02625 0.18044 0.96717 0.0
H1542 H 0.02195 0.21574 0.92107 0.0
H1543 H 0.95556 0.03714 0.09549 0.0
H1544 H 0.87769 0.87048 0.89195 0.0
H1545 H 0.87842 0.87819 0.93976 0.0
H1546 H 0.87615 0.81336 0.95698 0.0
H1547 H 0.87644 0.80594 0.90949 0.0
H1548 H 0.83875 0.81996 0.97931 0.0
H1549 H 0.92277 0.85787 0.97121 0.0
H1550 H 0.96094 0.88658 0.95256 0.0
H1551 H 0.95035 0.94244 0.97819 0.0
H1552 H 0.91194 0.91402 0.99667 0.0
H1553 H 0.84092 0.81661 0.11746 0.0
H1554 H 0.85154 0.81662 0.07077 0.0
H1555 H 0.87197 0.88938 0.06448 0.0
H1556 H 0.86229 0.88952 0.11169 0.0
H1557 H 0.90043 0.88129 0.03564 0.0
H1558 H 0.81801 0.84622 0.04338 0.0
H1559 H 0.77878 0.81937 0.06105 0.0
H1560 H 0.78419 0.76074 0.0341 0.0
H1561 H 0.82362 0.78724 0.01662 0.0
C1562 C 0.87802 0.85818 0.90588 0.0
C1563 C 0.87662 0.83739 0.89686 0.0
C1564 C 0.87834 0.86258 0.93317 0.0
C1565 C 0.87717 0.84624 0.95177 0.0
C1566 C 0.87691 0.82608 0.94286 0.0
C1567 C 0.87689 0.82181 0.9157 0.0
C1568 C 0.87388 0.84886 0.98038 0.0
C1569 C 0.85231 0.83318 0.99175 0.0
C1570 C 0.89129 0.86673 0.99616 0.0
C1571 C 0.91436 0.88381 0.98504 0.0
C1572 C 0.92846 0.87626 0.97262 0.0
C1573 C 0.95017 0.89249 0.96214 0.0
C1574 C 0.95803 0.91632 0.96411 0.0
C1575 C 0.94422 0.92398 0.97663 0.0
C1576 C 0.92249 0.90782 0.98713 0.0
C1577 C 0.84804 0.83264 0.10611 0.0
C1578 C 0.85079 0.85304 0.11783 0.0
C1579 C 0.85397 0.83264 0.07948 0.0
C1580 C 0.86205 0.85288 0.06393 0.0
C1581 C 0.8657 0.87356 0.07603 0.0
C1582 C 0.86014 0.87365 0.10288 0.0
C1583 C 0.8654 0.85197 0.03483 0.0
C1584 C 0.88684 0.86806 0.02327 0.0
C1585 C 0.84766 0.83474 0.01861 0.0
C1586 C 0.82386 0.81872 0.0289 0.0
C1587 C 0.8109 0.8276 0.04138 0.0
C1588 C 0.78862 0.81244 0.05134 0.0
C1589 C 0.77902 0.78837 0.04875 0.0
C1590 C 0.79166 0.7794 0.03612 0.0
C1591 C 0.81397 0.79448 0.02616 0.0
H1592 H 0.76177 0.77666 0.05648 0.0
H1593 H 0.97485 0.92886 0.95599 0.0
H1594 H 0.13348 0.03598 0.88726 0.0
H1595 H 0.11968 0.02531 0.93341 0.0
H1596 H 0.14989 0.98084 0.93663 0.0
H1597 H 0.16434 0.99205 0.89096 0.0
H1598 H 0.09984 0.96257 0.95898 0.0
H1599 H 0.18132 0.0272 0.96119 0.0
H1600 H 0.21182 0.06702 0.94905 0.0
H1601 H 0.17181 0.09477 0.98457 0.0
H1602 H 0.1409 0.05502 0.99654 0.0
H1603 H 0.12315 0.93873 0.08639 0.0
H1604 H 0.11979 0.94784 0.04045 0.0
H1605 H 0.11698 0.00866 0.06577 0.0
H1606 H 0.12221 1.00057 0.11196 0.0
H1607 H 0.14594 0.02095 0.0283 0.0
H1608 H 0.06878 0.95894 0.03538 0.0
H1609 H 0.03619 0.92008 0.04705 0.0
H1610 H 0.06307 0.88817 0.99426 0.0
H1611 H 0.09603 0.9268 0.98255 0.0
C1612 C 0.13689 0.02375 0.89783 0.0
C1613 C 0.14998 0.01484 0.88582 0.0
C1614 C 0.12902 0.01767 0.92404 0.0
C1615 C 0.13373 0.00225 0.93825 0.0
C1616 C 0.14599 0.99265 0.92586 0.0
C1617 C 0.15431 0.99912 0.89993 0.0
C1618 C 0.1276 0.99741 0.96671 0.0
C1619 C 0.10983 0.97522 0.97428 0.0
C1620 C 0.14003 0.01433 0.9864 0.0
C1621 C 0.1587 0.03817 0.97943 0.0
C1622 C 0.17894 0.04178 0.96617 0.0
C1623 C 0.19631 0.06433 0.95937 0.0
C1624 C 0.19372 0.08341 0.96595 0.0
C1625 C 0.17377 0.07997 0.97943 0.0
C1626 C 0.15633 0.05745 0.98622 0.0
C1627 C 0.12181 0.95407 0.08229 0.0
C1628 C 0.1234 0.96914 0.10293 0.0
C1629 C 0.11943 0.95904 0.05591 0.0
C1630 C 0.11785 0.97884 0.04947 0.0
C1631 C 0.11814 0.99327 0.07017 0.0
C1632 C 0.12092 0.98849 0.09663 0.0
C1633 C 0.11849 0.9856 0.02108 0.0
C1634 C 0.13534 0.00826 0.01333 0.0
C1635 C 0.10478 0.96918 0.00125 0.0
C1636 C 0.08497 0.94582 0.00818 0.0
C1637 C 0.06784 0.94364 0.02638 0.0
C1638 C 0.04928 0.92164 0.03299 0.0
C1639 C 0.04757 0.90167 0.02142 0.0
C1640 C 0.06441 0.90366 0.00319 0.0
C1641 C 0.08302 0.92561 0.99652 0.0
H1642 H 0.03319 0.88465 0.02657 0.0
H1643 H 0.20719 0.10086 0.96069 0.0
H1644 H 0.61592 0.46506 0.2381 0.0
H1645 H 0.62836 0.4694 0.28443 0.0
H1646 H 0.69916 0.49393 0.25912 0.0
H1647 H 0.68697 0.49054 0.21257 0.0
H1648 H 0.64786 0.45149 0.31519 0.0
H1649 H 0.73575 0.53635 0.30231 0.0
H1650 H 0.75458 0.56973 0.27144 0.0
H1651 H 0.68769 0.56092 0.25085 0.0
H1652 H 0.66853 0.52772 0.28184 0.0
H1653 H 0.70519 0.48022 0.44113 0.0
H1654 H 0.69749 0.47233 0.39348 0.0
H1655 H 0.68287 0.52876 0.38715 0.0
H1656 H 0.69081 0.53686 0.43456 0.0
H1657 H 0.70811 0.52985 0.34635 0.0
H1658 H 0.63899 0.47106 0.39056 0.0
H1659 H 0.61686 0.43861 0.42179 0.0
H1660 H 0.64031 0.39717 0.38083 0.0
H1661 H 0.66283 0.42951 0.34955 0.0
C1662 C 0.63417 0.47148 0.24235 0.0
C1663 C 0.65052 0.47782 0.22164 0.0
C1664 C 0.6412 0.47369 0.26886 0.0
C1665 C 0.66472 0.48225 0.27525 0.0
C1666 C 0.68096 0.48757 0.25464 0.0
C1667 C 0.67394 0.48546 0.22805 0.0
C1668 C 0.67224 0.48675 0.30348 0.0
C1669 C 0.66118 0.46857 0.32198 0.0
C1670 C 0.68935 0.50913 0.31241 0.0
C1671 C 0.70072 0.52939 0.29415 0.0
C1672 C 0.72509 0.5416 0.29126 0.0
C1673 C 0.73581 0.56048 0.27374 0.0
C1674 C 0.72233 0.56738 0.25912 0.0
C1675 C 0.69811 0.55551 0.26211 0.0
C1676 C 0.68731 0.53665 0.27963 0.0
C1677 C 0.70025 0.49086 0.42956 0.0
C1678 C 0.69854 0.50912 0.44158 0.0
C1679 C 0.6959 0.48638 0.40234 0.0
C1680 C 0.68942 0.49984 0.38677 0.0
C1681 C 0.68797 0.51822 0.39871 0.0
C1682 C 0.6925 0.52283 0.42582 0.0
C1683 C 0.68363 0.49461 0.35814 0.0
C1684 C 0.69505 0.51267 0.33954 0.0
C1685 C 0.66641 0.47227 0.34921 0.0
C1686 C 0.65279 0.45278 0.36791 0.0
C1687 C 0.63956 0.45508 0.38834 0.0
C1688 C 0.62693 0.4367 0.40603 0.0
C1689 C 0.62723 0.41586 0.40334 0.0
C1690 C 0.64012 0.41333 0.38291 0.0
C1691 C 0.65281 0.43167 0.36519 0.0
H1692 H 0.61744 0.40166 0.41706 0.0
H1693 H 0.73066 0.58196 0.24552 0.0
H1694 H 0.48982 0.22642 0.42382 0.0
H1695 H 0.49834 0.22553 0.3766 0.0
H1696 H 0.54238 0.19688 0.39645 0.0
H1697 H 0.53421 0.19813 0.44374 0.0
H1698 H 0.5601 0.22628 0.35499 0.0
H1699 H 0.4858 0.16149 0.37963 0.0
H1700 H 0.44622 0.14242 0.39877 0.0
H1701 H 0.42584 0.17745 0.34213 0.0
H1702 H 0.46545 0.19703 0.3229 0.0
H1703 H 0.54752 0.15945 0.2384 0.0
H1704 H 0.54688 0.17281 0.28369 0.0
H1705 H 0.51093 0.20787 0.25536 0.0
H1706 H 0.51163 0.19463 0.20993 0.0
H1707 H 0.48991 0.17839 0.29976 0.0
H1708 H 0.56482 0.24015 0.27246 0.0
H1709 H 0.6044 0.25718 0.25367 0.0
H1710 H 0.62353 0.22514 0.31545 0.0
H1711 H 0.58393 0.20761 0.3344 0.0
C1712 C 0.50159 0.22027 0.41809 0.0
C1713 C 0.51116 0.2121 0.43735 0.0
C1714 C 0.50644 0.21976 0.39116 0.0
C1715 C 0.5206 0.21068 0.383 0.0
C1716 C 0.53136 0.2039 0.40232 0.0
C1717 C 0.5267 0.20464 0.42931 0.0
C1718 C 0.52257 0.20638 0.35444 0.0
C1719 C 0.54478 0.2157 0.34294 0.0
C1720 C 0.50253 0.19279 0.33864 0.0
C1721 C 0.47866 0.18092 0.35003 0.0
C1722 C 0.47293 0.16526 0.37139 0.0
C1723 C 0.45049 0.15435 0.38224 0.0
C1724 C 0.43355 0.15878 0.37172 0.0
C1725 C 0.439 0.17408 0.35028 0.0
C1726 C 0.46144 0.18508 0.3394 0.0
C1727 C 0.53953 0.17005 0.24186 0.0
C1728 C 0.52954 0.17596 0.22077 0.0
C1729 C 0.53934 0.17781 0.26764 0.0
C1730 C 0.529 0.19144 0.27275 0.0
C1731 C 0.51909 0.19745 0.25172 0.0
C1732 C 0.51956 0.18996 0.22586 0.0
C1733 C 0.52741 0.19827 0.30034 0.0
C1734 C 0.50523 0.18926 0.3117 0.0
C1735 C 0.54747 0.21184 0.31603 0.0
C1736 C 0.57132 0.22239 0.30471 0.0
C1737 C 0.5774 0.23655 0.28191 0.0
C1738 C 0.59985 0.24634 0.27125 0.0
C1739 C 0.61646 0.2422 0.28332 0.0
C1740 C 0.61065 0.22831 0.30611 0.0
C1741 C 0.5882 0.21847 0.31683 0.0
H1742 H 0.63384 0.2498 0.27505 0.0
H1743 H 0.41618 0.15031 0.38014 0.0
H1744 H 0.8114 0.32134 0.21924 0.0
H1745 H 0.80139 0.31242 0.26633 0.0
H1746 H 0.84527 0.38514 0.28587 0.0
H1747 H 0.85558 0.39403 0.23896 0.0
H1748 H 0.85438 0.35971 0.3179 0.0
H1749 H 0.78454 0.35735 0.28796 0.0
H1750 H 0.74993 0.34506 0.25962 0.0
H1751 H 0.72315 0.274 0.28373 0.0
H1752 H 0.75778 0.28581 0.31194 0.0
H1753 H 0.82035 0.35056 0.45256 0.0
H1754 H 0.82187 0.36042 0.40529 0.0
H1755 H 0.79093 0.28774 0.38468 0.0
H1756 H 0.78951 0.27779 0.4319 0.0
H1757 H 0.77407 0.31384 0.35395 0.0
H1758 H 0.84508 0.31587 0.38044 0.0
H1759 H 0.87902 0.32777 0.4098 0.0
H1760 H 0.90302 0.3997 0.39226 0.0
H1761 H 0.86896 0.38819 0.36304 0.0
C1762 C 0.81862 0.33544 0.23357 0.0
C1763 C 0.83438 0.35835 0.22547 0.0
C1764 C 0.81287 0.33035 0.26047 0.0
C1765 C 0.82247 0.34814 0.27968 0.0
C1766 C 0.83773 0.37111 0.27147 0.0
C1767 C 0.84364 0.37616 0.24467 0.0
C1768 C 0.8177 0.34271 0.30847 0.0
C1769 C 0.83679 0.35004 0.32575 0.0
C1770 C 0.79476 0.3296 0.31876 0.0
C1771 C 0.77388 0.32244 0.30188 0.0
C1772 C 0.77137 0.33907 0.28706 0.0
C1773 C 0.75173 0.3322 0.27105 0.0
C1774 C 0.73438 0.30876 0.26983 0.0
C1775 C 0.73662 0.29215 0.28467 0.0
C1776 C 0.75624 0.29892 0.3007 0.0
C1777 C 0.81344 0.33667 0.43797 0.0
C1778 C 0.80499 0.31345 0.44579 0.0
C1779 C 0.81436 0.34231 0.41103 0.0
C1780 C 0.80661 0.32479 0.39158 0.0
C1781 C 0.79694 0.30147 0.39944 0.0
C1782 C 0.7963 0.29585 0.42634 0.0
C1783 C 0.81071 0.33101 0.36303 0.0
C1784 C 0.79158 0.32372 0.34592 0.0
C1785 C 0.83357 0.34418 0.35281 0.0
C1786 C 0.85436 0.35118 0.3698 0.0
C1787 C 0.85751 0.33423 0.38298 0.0
C1788 C 0.87677 0.3409 0.39956 0.0
C1789 C 0.89312 0.36447 0.40295 0.0
C1790 C 0.89031 0.38144 0.38964 0.0
C1791 C 0.87104 0.37485 0.37304 0.0
H1792 H 0.90796 0.36955 0.41585 0.0
H1793 H 0.71919 0.30347 0.25742 0.0
H1794 H 0.31396 0.80537 0.79178 0.0
H1795 H 0.30358 0.79673 0.74473 0.0
H1796 H 0.37574 0.84109 0.72291 0.0
H1797 H 0.38607 0.85004 0.7698 0.0
H1798 H 0.34946 0.85127 0.69392 0.0
H1799 H 0.34792 0.7807 0.71819 0.0
H1800 H 0.33652 0.74518 0.74449 0.0
H1801 H 0.26473 0.71897 0.72383 0.0
H1802 H 0.27566 0.7545 0.69769 0.0
H1803 H 0.34023 0.8198 0.5582 0.0
H1804 H 0.34966 0.82123 0.60554 0.0
H1805 H 0.27676 0.7903 0.62533 0.0
H1806 H 0.2672 0.78895 0.57794 0.0
H1807 H 0.30283 0.77229 0.65485 0.0
H1808 H 0.30545 0.84423 0.63142 0.0
H1809 H 0.3179 0.87957 0.60436 0.0
H1810 H 0.3895 0.90288 0.62321 0.0
H1811 H 0.37748 0.86746 0.65004 0.0
C1812 C 0.32761 0.81298 0.77693 0.0
C1813 C 0.35078 0.82848 0.78439 0.0
C1814 C 0.32169 0.80802 0.75007 0.0
C1815 C 0.33891 0.81817 0.73026 0.0
C1816 C 0.36215 0.83315 0.73781 0.0
C1817 C 0.36803 0.83827 0.76458 0.0
C1818 C 0.33261 0.81434 0.70163 0.0
C1819 C 0.33958 0.83397 0.68537 0.0
C1820 C 0.31923 0.79178 0.69052 0.0
C1821 C 0.31259 0.77038 0.7062 0.0
C1822 C 0.32968 0.76745 0.71943 0.0
C1823 C 0.32331 0.7473 0.73428 0.0
C1824 C 0.29991 0.72986 0.73589 0.0
C1825 C 0.28285 0.73251 0.7226 0.0
C1826 C 0.28912 0.75265 0.70774 0.0
C1827 C 0.32619 0.81297 0.57263 0.0
C1828 C 0.30301 0.80438 0.56449 0.0
C1829 C 0.3316 0.81386 0.5996 0.0
C1830 C 0.31389 0.80597 0.61882 0.0
C1831 C 0.29062 0.79644 0.61072 0.0
C1832 C 0.28523 0.79584 0.58374 0.0
C1833 C 0.3199 0.80918 0.64741 0.0
C1834 C 0.3128 0.78951 0.66357 0.0
C1835 C 0.33333 0.83168 0.65846 0.0
C1836 C 0.34058 0.85307 0.64249 0.0
C1837 C 0.32386 0.85679 0.62959 0.0
C1838 C 0.33084 0.87685 0.61433 0.0
C1839 C 0.35448 0.89343 0.612 0.0
C1840 C 0.37119 0.89001 0.62499 0.0
C1841 C 0.36431 0.86994 0.64024 0.0
H1842 H 0.35984 0.90896 0.60019 0.0
H1843 H 0.29502 0.71427 0.74739 0.0
H1844 H 0.19035 0.54557 0.53208 0.0
H1845 H 0.19321 0.55974 0.57776 0.0
H1846 H 0.20933 0.50775 0.60552 0.0
H1847 H 0.20701 0.49392 0.56001 0.0
H1848 H 0.16591 0.53557 0.61836 0.0
H1849 H 0.24337 0.52678 0.66014 0.0
H1850 H 0.28139 0.53291 0.64475 0.0
H1851 H 0.28501 0.5819 0.58632 0.0
H1852 H 0.24718 0.57635 0.60161 0.0
H1853 H 0.15297 0.50372 0.75111 0.0
H1854 H 0.16316 0.50739 0.70411 0.0
H1855 H 0.21571 0.57928 0.71609 0.0
H1856 H 0.2052 0.57591 0.76347 0.0
H1857 H 0.22965 0.55284 0.68236 0.0
H1858 H 0.16925 0.57186 0.68953 0.0
H1859 H 0.1316 0.56662 0.70507 0.0
H1860 H 0.09541 0.50084 0.6646 0.0
H1861 H 0.13288 0.50551 0.64917 0.0
C1862 C 0.1949 0.53746 0.54789 0.0
C1863 C 0.19825 0.51851 0.54252 0.0
C1864 C 0.19646 0.54551 0.57395 0.0
C1865 C 0.20168 0.53494 0.595 0.0
C1866 C 0.20564 0.51642 0.58955 0.0
C1867 C 0.204 0.50832 0.56357 0.0
C1868 C 0.20087 0.54163 0.62295 0.0
C1869 C 0.17998 0.53966 0.63225 0.0
C1870 C 0.21938 0.54734 0.64102 0.0
C1871 C 0.24233 0.55103 0.63195 0.0
C1872 C 0.25233 0.53898 0.64412 0.0
C1873 C 0.27385 0.54232 0.63539 0.0
C1874 C 0.28559 0.55774 0.61454 0.0
C1875 C 0.27586 0.5699 0.60242 0.0
C1876 C 0.25437 0.56664 0.61109 0.0
C1877 C 0.16662 0.52039 0.74381 0.0
C1878 C 0.17797 0.53966 0.76093 0.0
C1879 C 0.1725 0.5224 0.71697 0.0
C1880 C 0.18991 0.54368 0.70663 0.0
C1881 C 0.20214 0.56273 0.72378 0.0
C1882 C 0.19616 0.56076 0.75078 0.0
C1883 C 0.19442 0.54582 0.67767 0.0
C1884 C 0.21587 0.54932 0.66826 0.0
C1885 C 0.17654 0.54176 0.65938 0.0
C1886 C 0.1539 0.539 0.66829 0.0
C1887 C 0.15327 0.55621 0.68407 0.0
C1888 C 0.13196 0.55335 0.69285 0.0
C1889 C 0.11112 0.5334 0.68585 0.0
C1890 C 0.11156 0.51629 0.67 0.0
C1891 C 0.13284 0.51905 0.6612 0.0
H1892 H 0.09464 0.53121 0.69267 0.0
H1893 H 0.30223 0.56029 0.60779 0.0
H1894 H 0.4504 0.60457 0.75252 0.0
H1895 H 0.44811 0.615 0.70639 0.0
H1896 H 0.47833 0.68718 0.72919 0.0
H1897 H 0.48016 0.67671 0.77552 0.0
H1898 H 0.44543 0.67646 0.69244 0.0
H1899 H 0.51184 0.66629 0.70238 0.0
H1900 H 0.53266 0.64555 0.71502 0.0
H1901 H 0.491 0.59063 0.6601 0.0
H1902 H 0.4697 0.6109 0.64741 0.0
H1903 H 0.4969 0.72889 0.56718 0.0
H1904 H 0.48708 0.71598 0.61339 0.0
H1905 H 0.45257 0.64432 0.58756 0.0
H1906 H 0.46268 0.65707 0.54143 0.0
H1907 H 0.48544 0.65366 0.62547 0.0
H1908 H 0.42124 0.66706 0.61316 0.0
H1909 H 0.40234 0.68968 0.60067 0.0
H1910 H 0.44239 0.74106 0.65981 0.0
H1911 H 0.46179 0.71891 0.67242 0.0
C1912 C 0.45644 0.62264 0.74768 0.0
C1913 C 0.46572 0.63988 0.76749 0.0
C1914 C 0.45511 0.62858 0.72135 0.0
C1915 C 0.46347 0.65194 0.71425 0.0
C1916 C 0.47182 0.66906 0.7342 0.0
C1917 C 0.47289 0.66307 0.76063 0.0
C1918 C 0.46474 0.65865 0.68586 0.0
C1919 C 0.45434 0.67166 0.67781 0.0
C1920 C 0.47612 0.65213 0.66671 0.0
C1921 C 0.48902 0.63999 0.67415 0.0
C1922 C 0.50701 0.64971 0.69314 0.0
C1923 C 0.51891 0.63805 0.7003 0.0
C1924 C 0.51311 0.61676 0.68843 0.0
C1925 C 0.49545 0.60711 0.66931 0.0
C1926 C 0.48346 0.61868 0.66211 0.0
C1927 C 0.48692 0.71039 0.57134 0.0
C1928 C 0.48065 0.694 0.55068 0.0
C1929 C 0.48118 0.70304 0.59771 0.0
C1930 C 0.46906 0.67918 0.60388 0.0
C1931 C 0.46189 0.66281 0.5832 0.0
C1932 C 0.46752 0.67013 0.55683 0.0
C1933 C 0.46601 0.67135 0.63196 0.0
C1934 C 0.47627 0.65825 0.64 0.0
C1935 C 0.4548 0.67809 0.65107 0.0
C1936 C 0.44312 0.69141 0.64358 0.0
C1937 C 0.42617 0.68328 0.62336 0.0
C1938 C 0.41533 0.696 0.61628 0.0
C1939 C 0.4212 0.71682 0.6294 0.0
C1940 C 0.43788 0.72493 0.64966 0.0
C1941 C 0.44878 0.71229 0.6568 0.0
H1942 H 0.4128 0.72664 0.62389 0.0
H1943 H 0.52235 0.60776 0.69399 0.0
H1944 H 0.1168 0.98229 0.2654 0.0
H1945 H 0.10241 0.00951 0.27196 0.0
H1946 H 0.17128 0.06716 0.25555 0.0
H1947 H 0.18595 0.03996 0.25093 0.0
H1948 H 0.15209 0.08091 0.28974 0.0
H1949 H 0.12512 0.04003 0.20476 0.0
H1950 H 0.10534 0.00419 0.17794 0.0
H1951 H 0.04237 0.98154 0.22275 0.0
H1952 H 0.06177 0.01752 0.2496 0.0
H1953 H 0.13135 0.16291 0.22402 0.0
H1954 H 0.14089 0.13313 0.23713 0.0
H1955 H 0.07012 0.0888 0.26369 0.0
H1956 H 0.06041 0.11855 0.25028 0.0
H1957 H 0.08562 0.06593 0.23125 0.0
H1958 H 0.11223 0.11316 0.30902 0.0
H1959 H 0.13339 0.14962 0.33465 0.0
H1960 H 0.19842 0.16095 0.30275 0.0
H1961 H 0.17763 0.12472 0.2766 0.0
C1962 C 0.12889 0.00081 0.26372 0.0
C1963 C 0.15241 0.00911 0.25754 0.0
C1964 C 0.12065 0.01637 0.26726 0.0
C1965 C 0.13556 0.04041 0.26339 0.0
C1966 C 0.15936 0.04873 0.25855 0.0
C1967 C 0.16775 0.0332 0.25589 0.0
C1968 C 0.12625 0.05675 0.26238 0.0
C1969 C 0.13764 0.07767 0.27684 0.0
C1970 C 0.10694 0.05235 0.24616 0.0
C1971 C 0.09491 0.03132 0.22924 0.0
C1972 C 0.10702 0.02742 0.20878 0.0
C1973 C 0.09587 0.00707 0.19359 0.0
C1974 C 0.07261 0.99048 0.19867 0.0
C1975 C 0.06036 0.99438 0.21877 0.0
C1976 C 0.07139 0.01481 0.2339 0.0
C1977 C 0.11784 0.14686 0.23271 0.0
C1978 C 0.09513 0.14306 0.23606 0.0
C1979 C 0.12336 0.12994 0.24042 0.0
C1980 C 0.10627 0.10884 0.25162 0.0
C1981 C 0.0836 0.10503 0.25524 0.0
C1982 C 0.07811 0.12207 0.24772 0.0
C1983 C 0.11193 0.09034 0.25797 0.0
C1984 C 0.09983 0.06901 0.24449 0.0
C1985 C 0.13072 0.09451 0.27488 0.0
C1986 C 0.14333 0.11627 0.29071 0.0
C1987 C 0.13103 0.1235 0.30731 0.0
C1988 C 0.14296 0.14412 0.32196 0.0
C1989 C 0.16723 0.15761 0.3203 0.0
C1990 C 0.17962 0.15049 0.30402 0.0
C1991 C 0.16777 0.12989 0.2893 0.0
H1992 H 0.17643 0.17358 0.33165 0.0
H1993 H 0.0641 0.97463 0.18703 0.0
H1994 H 0.96161 0.1319 0.26007 0.0
H1995 H 0.93742 0.09018 0.26677 0.0
H1996 H 0.99888 0.08334 0.26959 0.0
H1997 H 0.02331 0.12533 0.26207 0.0
H1998 H 0.96921 0.05322 0.23602 0.0
H1999 H 0.96268 0.07143 0.32512 0.0
H2000 H 0.95704 0.092 0.36272 0.0
H2001 H 0.88709 0.06908 0.33672 0.0
H2002 H 0.8924 0.04865 0.29872 0.0
H2003 H 0.88776 0.93059 0.24895 0.0
H2004 H 0.91897 0.96966 0.26146 0.0
H2005 H 0.87281 0.99689 0.24738 0.0
H2006 H 0.84161 0.95794 0.23503 0.0
H2007 H 0.89944 0.01425 0.29413 0.0
H2008 H 0.91065 0.00245 0.20055 0.0
H2009 H 0.91705 0.98162 0.16377 0.0
H2010 H 0.97982 0.99196 0.20124 0.0
H2011 H 0.97364 0.01267 0.23839 0.0
C2012 C 0.97009 0.12167 0.2627 0.0
C2013 C 0.99443 0.13201 0.26037 0.0
C2014 C 0.95618 0.09772 0.26672 0.0
C2015 C 0.96625 0.08349 0.26888 0.0
C2016 C 0.99068 0.09393 0.26802 0.0
C2017 C 0.00466 0.118 0.26392 0.0
C2018 C 0.95098 0.05767 0.26906 0.0
C2019 C 0.95432 0.04463 0.24926 0.0
C2020 C 0.93136 0.04634 0.2861 0.0
C2021 C 0.928 0.05858 0.30896 0.0
C2022 C 0.94614 0.0709 0.3273 0.0
C2023 C 0.94299 0.08252 0.34871 0.0
C2024 C 0.92173 0.08187 0.35209 0.0
C2025 C 0.90355 0.06956 0.33408 0.0
C2026 C 0.90661 0.05792 0.31262 0.0
C2027 C 0.88419 0.94486 0.2489 0.0
C2028 C 0.86226 0.94124 0.24089 0.0
C2029 C 0.90206 0.96717 0.25591 0.0
C2030 C 0.89824 0.9862 0.25522 0.0
C2031 C 0.87614 0.98246 0.24806 0.0
C2032 C 0.85838 0.96025 0.2408 0.0
C2033 C 0.91739 0.01026 0.26067 0.0
C2034 C 0.9147 0.02286 0.28145 0.0
C2035 C 0.93775 0.02113 0.24479 0.0
C2036 C 0.94154 0.00885 0.22237 0.0
C2037 C 0.92572 1.00013 0.20103 0.0
C2038 C 0.92933 0.98838 0.1801 0.0
C2039 C 0.94879 0.9854 0.18021 0.0
C2040 C 0.96473 0.99425 0.2012 0.0
C2041 C 0.9612 0.00601 0.22218 0.0
H2042 H 0.95155 0.97629 0.164 0.0
H2043 H 0.91933 0.09087 0.36868 0.0
H2044 H 0.87211 0.81781 0.25878 0.0
H2045 H 0.91396 0.83426 0.26461 0.0
H2046 H 0.92336 0.90356 0.26412 0.0
H2047 H 0.88132 0.8871 0.25797 0.0
H2048 H 0.95091 0.89929 0.2282 0.0
H2049 H 0.93554 0.88226 0.32011 0.0
H2050 H 0.91568 0.85878 0.35976 0.0
H2051 H 0.93685 0.80931 0.33845 0.0
H2052 H 0.95656 0.83231 0.29844 0.0
H2053 H 0.07298 0.94334 0.23666 0.0
H2054 H 0.03389 0.93535 0.24771 0.0
H2055 H 0.01036 0.86184 0.25207 0.0
H2056 H 0.04979 0.86978 0.24226 0.0
H2057 H 0.99151 0.87383 0.2911 0.0
H2058 H 0.00241 0.88845 0.1965 0.0
H2059 H 0.02135 0.91134 0.15617 0.0
H2060 H 0.0075 0.96499 0.18219 0.0
H2061 H 0.98893 0.94266 0.22298 0.0
C2062 C 0.88298 0.83653 0.26063 0.0
C2063 C 0.87337 0.85114 0.25787 0.0
C2064 C 0.90695 0.84594 0.26407 0.0
C2065 C 0.92186 0.87017 0.26488 0.0
C2066 C 0.91218 0.88481 0.26361 0.0
C2067 C 0.8881 0.87536 0.26033 0.0
C2068 C 0.94755 0.87993 0.26396 0.0
C2069 C 0.95993 0.89421 0.24235 0.0
C2070 C 0.95921 0.87287 0.28205 0.0
C2071 C 0.94743 0.85897 0.30616 0.0
C2072 C 0.93583 0.86629 0.32376 0.0
C2073 C 0.92462 0.85307 0.34633 0.0
C2074 C 0.92497 0.83255 0.3516 0.0
C2075 C 0.93659 0.82522 0.33434 0.0
C2076 C 0.94782 0.83836 0.31173 0.0
C2077 C 0.05971 0.92548 0.24044 0.0
C2078 C 0.0647 0.90717 0.2385 0.0
C2079 C 0.0372 0.92092 0.24649 0.0
C2080 C 0.01905 0.89795 0.25037 0.0
C2081 C 0.02405 0.87971 0.24908 0.0
C2082 C 0.04659 0.88426 0.2432 0.0
C2083 C 0.99469 0.89272 0.25501 0.0
C2084 C 0.98258 0.87928 0.27726 0.0
C2085 C 0.98325 0.90051 0.23746 0.0
C2086 C 0.99455 0.91401 0.21298 0.0
C2087 C 0.00362 0.90524 0.19376 0.0
C2088 C 0.01426 0.91811 0.1708 0.0
C2089 C 0.01568 0.93963 0.16665 0.0
C2090 C 0.00641 0.94832 0.18544 0.0
C2091 C 0.99587 0.93559 0.20851 0.0
H2092 H 0.02393 0.94957 0.14886 0.0
H2093 H 0.91628 0.82234 0.36908 0.0
H2094 H 0.9767 0.10519 0.75272 0.0
H2095 H 0.00461 0.09145 0.74848 0.0
H2096 H 0.06102 0.16261 0.74412 0.0
H2097 H 0.03299 0.17635 0.74699 0.0
H2098 H 0.07107 0.13771 0.71339 0.0
H2099 H 0.04489 0.12852 0.8052 0.0
H2100 H 0.01517 0.11429 0.84061 0.0
H2101 H 0.98948 0.04375 0.81485 0.0
H2102 H 0.01935 0.05766 0.77945 0.0
H2103 H 0.16549 0.12947 0.7671 0.0
H2104 H 0.13353 0.13687 0.758 0.0
H2105 H 0.08546 0.06289 0.75399 0.0
H2106 H 0.11743 0.05537 0.76354 0.0
H2107 H 0.06875 0.08496 0.78491 0.0
H2108 H 0.10089 0.09526 0.69775 0.0
H2109 H 0.13186 0.11072 0.66372 0.0
H2110 H 0.14715 0.18041 0.68114 0.0
H2111 H 0.11648 0.16541 0.71556 0.0
C2112 C 0.99503 0.11789 0.75046 0.0
C2113 C 0.00266 0.14187 0.75037 0.0
C2114 C 0.01103 0.11001 0.74823 0.0
C2115 C 0.0351 0.12596 0.74673 0.0
C2116 C 0.04261 0.1499 0.74536 0.0
C2117 C 0.02655 0.15776 0.747 0.0
C2118 C 0.05254 0.11792 0.74799 0.0
C2119 C 0.07064 0.12633 0.72916 0.0
C2120 C 0.05178 0.10253 0.76809 0.0
C2121 C 0.03415 0.09411 0.78961 0.0
C2122 C 0.03286 0.10998 0.8071 0.0
C2123 C 0.01601 0.10197 0.82717 0.0
C2124 C 1.00033 0.07812 0.82991 0.0
C2125 C 1.00161 0.06222 0.8127 0.0
C2126 C 0.01856 0.07014 0.79271 0.0
C2127 C 0.14814 0.11476 0.76426 0.0
C2128 C 0.14405 0.09183 0.76608 0.0
C2129 C 0.12989 0.11902 0.7588 0.0
C2130 C 0.10708 0.10046 0.75502 0.0
C2131 C 0.10292 0.07751 0.75668 0.0
C2132 C 0.12124 0.07323 0.76196 0.0
C2133 C 0.08754 0.10516 0.75066 0.0
C2134 C 0.06904 0.09612 0.76893 0.0
C2135 C 0.08809 0.12011 0.73017 0.0
C2136 C 0.10648 0.12921 0.70939 0.0
C2137 C 0.11097 0.1139 0.69447 0.0
C2138 C 0.12845 0.12258 0.67509 0.0
C2139 C 0.14149 0.14653 0.67031 0.0
C2140 C 0.13704 0.16185 0.68487 0.0
C2141 C 0.11959 0.15327 0.7043 0.0
H2142 H 0.15503 0.15321 0.65529 0.0
H2143 H 0.98724 0.07195 0.84542 0.0
H2144 H 0.92441 0.05563 0.79239 0.0
H2145 H 0.91693 0.0162 0.78399 0.0
H2146 H 0.86513 0.00635 0.72537 0.0
H2147 H 0.87224 0.04577 0.73429 0.0
H2148 H 0.84966 0.96925 0.75599 0.0
H2149 H 0.92146 0.01717 0.70844 0.0
H2150 H 0.96205 0.04938 0.70436 0.0
H2151 H 0.98372 0.01781 0.76406 0.0
H2152 H 0.94323 0.98563 0.76883 0.0
H2153 H 0.83542 0.86121 0.71386 0.0
H2154 H 0.84546 0.90209 0.71184 0.0
H2155 H 0.89922 0.91965 0.77062 0.0
H2156 H 0.88994 0.87919 0.77198 0.0
H2157 H 0.91367 0.95329 0.73546 0.0
H2158 H 0.84422 0.90922 0.78756 0.0
H2159 H 0.80409 0.87753 0.79619 0.0
H2160 H 0.77872 0.90225 0.73267 0.0
H2161 H 0.8188 0.9339 0.7234 0.0
C2162 C 0.91157 0.04513 0.77756 0.0
C2163 C 0.89902 0.05381 0.76383 0.0
C2164 C 0.90734 0.02261 0.77271 0.0
C2165 C 0.89082 0.00846 0.75361 0.0
C2166 C 0.87805 0.01699 0.74009 0.0
C2167 C 0.88207 0.03946 0.74522 0.0
C2168 C 0.88645 0.98453 0.74833 0.0
C2169 C 0.86359 0.96581 0.75094 0.0
C2170 C 0.90475 0.97998 0.74252 0.0
C2171 C 0.92925 0.99902 0.73908 0.0
C2172 C 0.93487 0.01714 0.72077 0.0
C2173 C 0.95786 0.03541 0.71835 0.0
C2174 C 0.97545 0.03566 0.73397 0.0
C2175 C 0.97009 0.01761 0.75198 0.0
C2176 C 0.94712 0.99933 0.75452 0.0
C2177 C 0.8496 0.87383 0.72607 0.0
C2178 C 0.86156 0.86682 0.74349 0.0
C2179 C 0.85525 0.89719 0.72499 0.0
C2180 C 0.87276 0.91388 0.74152 0.0
C2181 C 0.88554 0.9071 0.75781 0.0
C2182 C 0.88005 0.88385 0.75873 0.0
C2183 C 0.8769 0.93805 0.74321 0.0
C2184 C 0.8997 0.95679 0.74003 0.0
C2185 C 0.85864 0.94266 0.74893 0.0
C2186 C 0.83453 0.92375 0.75458 0.0
C2187 C 0.8301 0.90779 0.77531 0.0
C2188 C 0.80737 0.88985 0.78033 0.0
C2189 C 0.78887 0.88783 0.76494 0.0
C2190 C 0.79307 0.9038 0.74454 0.0
C2191 C 0.81579 0.92174 0.73939 0.0
H2192 H 0.77128 0.87393 0.76886 0.0
H2193 H 0.99324 0.04982 0.73208 0.0
H2194 H 0.12588 0.01757 0.73965 0.0
H2195 H 0.08477 0.9913 0.72887 0.0
H2196 H 0.09535 0.93233 0.73556 0.0
H2197 H 0.13632 0.95841 0.7462 0.0
H2198 H 0.06308 0.92544 0.69658 0.0
H2199 H 0.07641 0.94705 0.79067 0.0
H2200 H 0.09217 0.97576 0.82707 0.0
H2201 H 0.05404 0.00804 0.79812 0.0
H2202 H 0.03774 0.97915 0.76172 0.0
H2203 H 0.96273 0.83028 0.75252 0.0
H2204 H 1.00115 0.86262 0.74051 0.0
H2205 H 0.97336 0.90924 0.73926 0.0
H2206 H 0.93506 0.87711 0.75187 0.0
H2207 H 0.0123 0.92671 0.76844 0.0
H2208 H 0.99003 0.8949 0.68155 0.0
H2209 H 0.97466 0.86434 0.64709 0.0
H2210 H 0.0304 0.85044 0.66218 0.0
H2211 H 0.04593 0.88068 0.69703 0.0
C2212 C 0.11965 0.99912 0.73801 0.0
C2213 C 0.13427 0.99004 0.74413 0.0
C2214 C 0.09609 0.98409 0.73197 0.0
C2215 C 0.08692 0.95982 0.73183 0.0
C2216 C 0.10201 0.95096 0.73559 0.0
C2217 C 0.12542 0.96591 0.74179 0.0
C2218 C 0.06137 0.94345 0.73139 0.0
C2219 C 0.05189 0.92571 0.71218 0.0
C2220 C 0.04671 0.94403 0.75148 0.0
C2221 C 0.05605 0.96114 0.77346 0.0
C2222 C 0.07144 0.96031 0.79209 0.0
C2223 C 0.08046 0.9766 0.81271 0.0
C2224 C 0.07428 0.99387 0.81481 0.0
C2225 C 0.05885 0.9947 0.79644 0.0
C2226 C 0.04963 0.9783 0.77589 0.0
C2227 C 0.96477 0.84738 0.74952 0.0
C2228 C 0.9458 0.85106 0.75318 0.0
C2229 C 0.98669 0.86582 0.74238 0.0
C2230 C 0.9901 0.88835 0.7387 0.0
C2231 C 0.9711 0.89199 0.74182 0.0
C2232 C 0.94916 0.87354 0.74885 0.0
C2233 C 0.0139 0.90832 0.73383 0.0
C2234 C 0.02314 0.92671 0.75225 0.0
C2235 C 0.02829 0.90818 0.71304 0.0
C2236 C 0.01907 0.88999 0.69204 0.0
C2237 C 0.99892 0.88521 0.67767 0.0
C2238 C 0.9902 0.86796 0.65804 0.0
C2239 C 1.00153 0.85543 0.65248 0.0
C2240 C 0.02164 0.86016 0.66651 0.0
C2241 C 0.03044 0.87738 0.68618 0.0
H2242 H 0.99474 0.84208 0.63727 0.0
H2243 H 0.08137 0.00654 0.83074 0.0
H2244 H 0.7779 0.31682 0.60053 0.0
H2245 H 0.75913 0.33967 0.61163 0.0
H2246 H 0.82264 0.40291 0.59191 0.0
H2247 H 0.84136 0.38042 0.581 0.0
H2248 H 0.80102 0.4093 0.63429 0.0
H2249 H 0.77854 0.37204 0.54559 0.0
H2250 H 0.75985 0.33667 0.51769 0.0
H2251 H 0.69538 0.31276 0.55983 0.0
H2252 H 0.71383 0.34787 0.58821 0.0
H2253 H 0.79046 0.49624 0.57248 0.0
H2254 H 0.79566 0.4638 0.5856 0.0
H2255 H 0.72152 0.42087 0.59787 0.0
H2256 H 0.71608 0.45336 0.58376 0.0
H2257 H 0.73828 0.39721 0.57119 0.0
H2258 H 0.75781 0.43935 0.65147 0.0
H2259 H 0.77589 0.47358 0.68106 0.0
H2260 H 0.84398 0.4869 0.65826 0.0
H2261 H 0.82635 0.45297 0.6282 0.0
C2262 C 0.78797 0.33561 0.59906 0.0
C2263 C 0.81098 0.34676 0.58931 0.0
C2264 C 0.7772 0.34864 0.60537 0.0
C2265 C 0.78935 0.37299 0.60214 0.0
C2266 C 0.81286 0.38416 0.59447 0.0
C2267 C 0.82352 0.37123 0.58809 0.0
C2268 C 0.77755 0.38703 0.60395 0.0
C2269 C 0.78721 0.40663 0.62063 0.0
C2270 C 0.75884 0.383 0.58693 0.0
C2271 C 0.7476 0.36243 0.56916 0.0
C2272 C 0.76039 0.35921 0.54891 0.0
C2273 C 0.74985 0.33921 0.53304 0.0
C2274 C 0.72645 0.32246 0.53702 0.0
C2275 C 0.71351 0.32573 0.55679 0.0
C2276 C 0.724 0.34567 0.57277 0.0
C2277 C 0.77521 0.47993 0.57789 0.0
C2278 C 0.75287 0.47744 0.57701 0.0
C2279 C 0.77823 0.46142 0.58572 0.0
C2280 C 0.75903 0.43995 0.59318 0.0
C2281 C 0.73662 0.43732 0.59242 0.0
C2282 C 0.73356 0.45595 0.58455 0.0
C2283 C 0.76277 0.42028 0.60045 0.0
C2284 C 0.75156 0.39961 0.58552 0.0
C2285 C 0.77992 0.42319 0.61932 0.0
C2286 C 0.79072 0.4436 0.6375 0.0
C2287 C 0.77665 0.44965 0.65264 0.0
C2288 C 0.78682 0.469 0.66951 0.0
C2289 C 0.81107 0.48241 0.67153 0.0
C2290 C 0.8252 0.47648 0.6567 0.0
C2291 C 0.81511 0.45715 0.63977 0.0
H2292 H 0.81891 0.4974 0.6846 0.0
H2293 H 0.71834 0.30696 0.52476 0.0
H2294 H 0.67688 0.46595 0.60061 0.0
H2295 H 0.64953 0.42509 0.61179 0.0
H2296 H 0.59567 0.4283 0.56683 0.0
H2297 H 0.62241 0.46888 0.55629 0.0
H2298 H 0.57796 0.40408 0.61078 0.0
H2299 H 0.63202 0.40766 0.54126 0.0
H2300 H 0.67149 0.41891 0.52519 0.0
H2301 H 0.67914 0.3793 0.58801 0.0
H2302 H 0.63982 0.36811 0.6047 0.0
H2303 H 0.50054 0.29945 0.55021 0.0
H2304 H 0.53161 0.33836 0.56148 0.0
H2305 H 0.56478 0.30924 0.60943 0.0
H2306 H 0.53337 0.26996 0.59868 0.0
H2307 H 0.59606 0.34453 0.5769 0.0
H2308 H 0.53904 0.33439 0.64053 0.0
H2309 H 0.4999 0.32334 0.65746 0.0
H2310 H 0.49808 0.375 0.60753 0.0
H2311 H 0.53707 0.38615 0.58999 0.0
C2312 C 0.65911 0.458 0.59344 0.0
C2313 C 0.65191 0.47062 0.57732 0.0
C2314 C 0.64353 0.43463 0.59976 0.0
C2315 C 0.62061 0.42351 0.58983 0.0
C2316 C 0.61323 0.43645 0.57474 0.0
C2317 C 0.62864 0.4597 0.56861 0.0
C2318 C 0.60433 0.39816 0.59351 0.0
C2319 C 0.58192 0.39105 0.6034 0.0
C2320 C 0.60978 0.38106 0.58493 0.0
C2321 C 0.63312 0.3873 0.57442 0.0
C2322 C 0.64217 0.40145 0.55172 0.0
C2323 C 0.66451 0.40782 0.5425 0.0
C2324 C 0.67784 0.3999 0.55563 0.0
C2325 C 0.66881 0.38548 0.57791 0.0
C2326 C 0.64651 0.37913 0.58726 0.0
C2327 C 0.51413 0.30113 0.56351 0.0
C2328 C 0.51422 0.28136 0.57357 0.0
C2329 C 0.532 0.3235 0.56989 0.0
C2330 C 0.55038 0.32672 0.58655 0.0
C2331 C 0.55073 0.30714 0.59656 0.0
C2332 C 0.53275 0.28467 0.59028 0.0
C2333 C 0.56936 0.35069 0.59273 0.0
C2334 C 0.59224 0.35748 0.58487 0.0
C2335 C 0.5644 0.36755 0.60325 0.0
C2336 C 0.54097 0.36104 0.61386 0.0
C2337 C 0.53024 0.3433 0.63303 0.0
C2338 C 0.50808 0.33703 0.64275 0.0
C2339 C 0.4965 0.34844 0.63356 0.0
C2340 C 0.50708 0.36618 0.61465 0.0
C2341 C 0.52923 0.37251 0.60484 0.0
H2342 H 0.47934 0.34355 0.64111 0.0
H2343 H 0.69515 0.40488 0.54851 0.0
H2344 H 0.71144 0.21074 0.58843 0.0
H2345 H 0.67157 0.20249 0.5955 0.0
H2346 H 0.68902 0.2686 0.5601 0.0
H2347 H 0.72931 0.27719 0.55367 0.0
H2348 H 0.66106 0.26077 0.60045 0.0
H2349 H 0.65899 0.21631 0.5251 0.0
H2350 H 0.66615 0.18895 0.49905 0.0
H2351 H 0.62457 0.13397 0.55396 0.0
H2352 H 0.61743 0.1611 0.58056 0.0
H2353 H 0.54352 0.22944 0.57012 0.0
H2354 H 0.58477 0.2415 0.57036 0.0
H2355 H 0.56929 0.1779 0.61072 0.0
H2356 H 0.52765 0.16535 0.6099 0.0
H2357 H 0.59641 0.18525 0.56801 0.0
H2358 H 0.59744 0.23231 0.64195 0.0
H2359 H 0.58969 0.26101 0.66401 0.0
H2360 H 0.63267 0.3129 0.60669 0.0
H2361 H 0.64046 0.28443 0.58407 0.0
C2362 C 0.70677 0.22349 0.58208 0.0
C2363 C 0.72344 0.24447 0.57016 0.0
C2364 C 0.68394 0.21877 0.58611 0.0
C2365 C 0.67704 0.23467 0.57779 0.0
C2366 C 0.69384 0.25599 0.56661 0.0
C2367 C 0.71686 0.26089 0.56291 0.0
C2368 C 0.6522 0.22869 0.58031 0.0
C2369 C 0.64694 0.24437 0.5931 0.0
C2370 C 0.63366 0.2072 0.57093 0.0
C2371 C 0.63787 0.1908 0.55497 0.0
C2372 C 0.65152 0.19843 0.53173 0.0
C2373 C 0.65555 0.18296 0.51685 0.0
C2374 C 0.64587 0.15976 0.52489 0.0
C2375 C 0.63209 0.15196 0.54779 0.0
C2376 C 0.62802 0.16737 0.56276 0.0
C2377 C 0.5488 0.21804 0.57929 0.0
C2378 C 0.53214 0.19627 0.58976 0.0
C2379 C 0.57253 0.2251 0.57961 0.0
C2380 C 0.58025 0.2107 0.59068 0.0
C2381 C 0.56377 0.18933 0.60206 0.0
C2382 C 0.53996 0.18223 0.60172 0.0
C2383 C 0.60522 0.21712 0.58856 0.0
C2384 C 0.61051 0.20157 0.57561 0.0
C2385 C 0.62372 0.23891 0.5973 0.0
C2386 C 0.61936 0.25616 0.61118 0.0
C2387 C 0.60513 0.2498 0.63395 0.0
C2388 C 0.60074 0.26603 0.64657 0.0
C2389 C 0.61062 0.28874 0.63671 0.0
C2390 C 0.62501 0.2953 0.61428 0.0
C2391 C 0.62944 0.27913 0.60158 0.0
H2392 H 0.60717 0.30127 0.64648 0.0
H2393 H 0.64901 0.1478 0.51334 0.0
H2394 H 0.7921 0.39055 0.11459 0.0
H2395 H 0.75904 0.39694 0.10777 0.0
H2396 H 0.80665 0.46908 0.08925 0.0
H2397 H 0.83961 0.46291 0.09627 0.0
H2398 H 0.7741 0.46507 0.12339 0.0
H2399 H 0.77471 0.42594 0.04144 0.0
H2400 H 0.77265 0.39289 0.01651 0.0
H2401 H 0.70443 0.34747 0.04834 0.0
H2402 H 0.70634 0.3801 0.07404 0.0
H2403 H 0.70775 0.50774 0.07031 0.0
H2404 H 0.73444 0.49238 0.06999 0.0
H2405 H 0.67755 0.42392 0.089 0.0
H2406 H 0.65057 0.43913 0.08871 0.0
H2407 H 0.71096 0.42164 0.05771 0.0
H2408 H 0.70803 0.45735 0.13836 0.0
H2409 H 0.70812 0.48786 0.16651 0.0
H2410 H 0.77793 0.53633 0.1414 0.0
H2411 H 0.77814 0.5062 0.11271 0.0
C2412 C 0.79549 0.40771 0.10885 0.0
C2413 C 0.81853 0.42625 0.10608 0.0
C2414 C 0.77657 0.41132 0.10494 0.0
C2415 C 0.78031 0.43344 0.09779 0.0
C2416 C 0.80329 0.45188 0.09487 0.0
C2417 C 0.82215 0.44834 0.09897 0.0
C2418 C 0.76054 0.43783 0.09391 0.0
C2419 C 0.76048 0.45573 0.10879 0.0
C2420 C 0.74207 0.4249 0.0758 0.0
C2421 C 0.74078 0.40542 0.05989 0.0
C2422 C 0.75935 0.40887 0.04329 0.0
C2423 C 0.75822 0.39019 0.02906 0.0
C2424 C 0.73848 0.36806 0.03098 0.0
C2425 C 0.71977 0.36459 0.047 0.0
C2426 C 0.72087 0.38316 0.06142 0.0
C2427 C 0.70077 0.48926 0.0736 0.0
C2428 C 0.67711 0.47473 0.07985 0.0
C2429 C 0.71606 0.48051 0.07352 0.0
C2430 C 0.7081 0.45714 0.0802 0.0
C2431 C 0.6841 0.44204 0.08397 0.0
C2432 C 0.66867 0.45077 0.08371 0.0
C2433 C 0.72525 0.44953 0.08636 0.0
C2434 C 0.72464 0.43094 0.07225 0.0
C2435 C 0.7429 0.46144 0.10563 0.0
C2436 C 0.74303 0.47955 0.12321 0.0
C2437 C 0.72336 0.47455 0.1387 0.0
C2438 C 0.72335 0.49177 0.15477 0.0
C2439 C 0.743 0.51403 0.15571 0.0
C2440 C 0.76272 0.51908 0.14063 0.0
C2441 C 0.7628 0.50193 0.12448 0.0
H2442 H 0.74296 0.52734 0.16815 0.0
H2443 H 0.73765 0.35362 0.01997 0.0
H2444 H 0.49292 0.19394 0.08554 0.0
H2445 H 0.50762 0.23509 0.07757 0.0
H2446 H 0.57591 0.24496 0.06082 0.0
H2447 H 0.56134 0.20359 0.06959 0.0
H2448 H 0.57975 0.27594 0.09511 0.0
H2449 H 0.5425 0.25253 0.0117 0.0
H2450 H 0.51146 0.22932 0.97935 0.0
H2451 H 0.46674 0.25072 0.01641 0.0
H2452 H 0.49737 0.27379 0.04925 0.0
H2453 H 0.61292 0.39645 0.08315 0.0
H2454 H 0.60569 0.35787 0.06961 0.0
H2455 H 0.53379 0.32778 0.09365 0.0
H2456 H 0.54077 0.36626 0.10659 0.0
H2457 H 0.53812 0.30946 0.0465 0.0
H2458 H 0.57449 0.32659 0.13454 0.0
H2459 H 0.60639 0.35004 0.16593 0.0
H2460 H 0.65434 0.34079 0.11699 0.0
H2461 H 0.62273 0.31748 0.08515 0.0
C2462 C 0.51097 0.20469 0.07963 0.0
C2463 C 0.52598 0.19542 0.07845 0.0
C2464 C 0.51935 0.2283 0.07487 0.0
C2465 C 0.54288 0.24324 0.06837 0.0
C2466 C 0.55768 0.23382 0.06578 0.0
C2467 C 0.54929 0.2101 0.07067 0.0
C2468 C 0.55222 0.26887 0.06723 0.0
C2469 C 0.571 0.28333 0.08388 0.0
C2470 C 0.54078 0.27865 0.0528 0.0
C2471 C 0.52225 0.26483 0.03304 0.0
C2472 C 0.526 0.25217 0.01308 0.0
C2473 C 0.50847 0.23906 0.99463 0.0
C2474 C 0.48713 0.23853 0.99584 0.0
C2475 C 0.48328 0.25115 0.01549 0.0
C2476 C 0.50074 0.26429 0.034 0.0
C2477 C 0.5955 0.38168 0.08516 0.0
C2478 C 0.57744 0.38442 0.09614 0.0
C2479 C 0.59143 0.35961 0.07757 0.0
C2480 C 0.56924 0.3399 0.08085 0.0
C2481 C 0.55105 0.34273 0.09097 0.0
C2482 C 0.55512 0.36472 0.09861 0.0
C2483 C 0.56496 0.31608 0.07504 0.0
C2484 C 0.54716 0.30205 0.05713 0.0
C2485 C 0.57745 0.30675 0.08806 0.0
C2486 C 0.59633 0.32054 0.10734 0.0
C2487 C 0.59187 0.32969 0.1304 0.0
C2488 C 0.60989 0.34293 0.14828 0.0
C2489 C 0.63239 0.34697 0.14341 0.0
C2490 C 0.63691 0.33769 0.12071 0.0
C2491 C 0.61895 0.32445 0.10275 0.0
H2492 H 0.64632 0.35723 0.15727 0.0
H2493 H 0.47358 0.22836 0.98154 0.0
H2494 H 0.80509 0.35618 0.06911 0.0
H2495 H 0.76362 0.33227 0.05785 0.0
H2496 H 0.76631 0.27015 0.07703 0.0
H2497 H 0.80738 0.29367 0.08789 0.0
H2498 H 0.73748 0.26187 0.03653 0.0
H2499 H 0.75325 0.30146 0.12287 0.0
H2500 H 0.76826 0.3363 0.15144 0.0
H2501 H 0.72334 0.35637 0.11223 0.0
H2502 H 0.7085 0.32192 0.08301 0.0
H2503 H 0.64123 0.17755 0.1061 0.0
H2504 H 0.67867 0.20918 0.09044 0.0
H2505 H 0.64594 0.24903 0.06839 0.0
H2506 H 0.60825 0.21725 0.08422 0.0
H2507 H 0.68636 0.27431 0.09851 0.0
H2508 H 0.66411 0.22911 0.01982 0.0
H2509 H 0.64855 0.19348 0.99259 0.0
H2510 H 0.70451 0.18303 0.01831 0.0
H2511 H 0.72023 0.2184 0.04603 0.0
C2512 C 0.79693 0.33741 0.0704 0.0
C2513 C 0.80939 0.32686 0.08007 0.0
C2514 C 0.77323 0.32377 0.06397 0.0
C2515 C 0.76173 0.29943 0.06714 0.0
C2516 C 0.77471 0.28888 0.07455 0.0
C2517 C 0.79824 0.30241 0.08093 0.0
C2518 C 0.73594 0.28478 0.06583 0.0
C2519 C 0.72626 0.26466 0.04994 0.0
C2520 C 0.72113 0.28876 0.08273 0.0
C2521 C 0.73009 0.30938 0.10042 0.0
C2522 C 0.74677 0.31345 0.12015 0.0
C2523 C 0.75524 0.33311 0.13648 0.0
C2524 C 0.74684 0.3486 0.13358 0.0
C2525 C 0.72995 0.34445 0.11435 0.0
C2526 C 0.72155 0.3249 0.09786 0.0
C2527 C 0.64199 0.193 0.09784 0.0
C2528 C 0.62186 0.19496 0.09643 0.0
C2529 C 0.66333 0.21098 0.08867 0.0
C2530 C 0.66504 0.23136 0.07799 0.0
C2531 C 0.64495 0.23337 0.07638 0.0
C2532 C 0.62346 0.2152 0.0853 0.0
C2533 C 0.68823 0.2509 0.0702 0.0
C2534 C 0.69738 0.27188 0.0844 0.0
C2535 C 0.70258 0.24766 0.05188 0.0
C2536 C 0.69331 0.22641 0.03509 0.0
C2537 C 0.67303 0.21914 0.01981 0.0
C2538 C 0.66419 0.19899 0.00426 0.0
C2539 C 0.67553 0.18599 0.00373 0.0
C2540 C 0.69575 0.19313 0.01872 0.0
C2541 C 0.70467 0.21326 0.03432 0.0
H2542 H 0.66865 0.17039 0.99169 0.0
H2543 H 0.75338 0.36378 0.14627 0.0
H2544 H 0.46158 0.83424 0.90309 0.0
H2545 H 0.47065 0.80308 0.90886 0.0
H2546 H 0.39728 0.75264 0.91329 0.0
H2547 H 0.38803 0.78397 0.90751 0.0
H2548 H 0.42339 0.74256 0.94881 0.0
H2549 H 0.42456 0.75893 0.85614 0.0
H2550 H 0.43525 0.78363 0.81606 0.0
H2551 H 0.50762 0.80675 0.82971 0.0
H2552 H 0.49738 0.78243 0.87012 0.0
H2553 H 0.44476 0.64818 0.91253 0.0
H2554 H 0.43024 0.67531 0.91943 0.0
H2555 H 0.50027 0.73327 0.91172 0.0
H2556 H 0.51472 0.70635 0.90433 0.0
H2557 H 0.47167 0.73664 0.8771 0.0
H2558 H 0.4698 0.72011 0.97094 0.0
H2559 H 0.45821 0.69477 0.01053 0.0
H2560 H 0.38607 0.67045 0.99366 0.0
H2561 H 0.39722 0.69544 0.95374 0.0
C2562 C 0.44734 0.81655 0.9053 0.0
C2563 C 0.42407 0.81159 0.90439 0.0
C2564 C 0.45256 0.79874 0.90872 0.0
C2565 C 0.43465 0.77545 0.91105 0.0
C2566 C 0.41138 0.77047 0.91147 0.0
C2567 C 0.40613 0.78839 0.90816 0.0
C2568 C 0.44046 0.75645 0.91129 0.0
C2569 C 0.43368 0.74102 0.93298 0.0
C2570 C 0.45398 0.75448 0.89071 0.0
C2571 C 0.46021 0.769 0.86629 0.0
C2572 C 0.44277 0.7694 0.8507 0.0
C2573 C 0.44875 0.78332 0.82791 0.0
C2574 C 0.4721 0.79679 0.82037 0.0
C2575 C 0.48953 0.79632 0.83559 0.0
C2576 C 0.48365 0.78246 0.85842 0.0
C2577 C 0.45713 0.66663 0.91305 0.0
C2578 C 0.48086 0.67508 0.90752 0.0
C2579 C 0.4488 0.68218 0.91698 0.0
C2580 C 0.46413 0.70639 0.91581 0.0
C2581 C 0.48805 0.7147 0.91242 0.0
C2582 C 0.4963 0.69926 0.90831 0.0
C2583 C 0.45535 0.72317 0.91508 0.0
C2584 C 0.46139 0.73809 0.89301 0.0
C2585 C 0.44105 0.72446 0.9352 0.0
C2586 C 0.43434 0.70946 0.95919 0.0
C2587 C 0.45145 0.70921 0.97553 0.0
C2588 C 0.44497 0.69494 0.99807 0.0
C2589 C 0.42142 0.68095 0.00456 0.0
C2590 C 0.4043 0.68126 0.98858 0.0
C2591 C 0.4107 0.69549 0.96602 0.0
H2592 H 0.41643 0.66992 0.02202 0.0
H2593 H 0.4767 0.80755 0.80272 0.0
H2594 H 0.28839 0.80109 0.92597 0.0
H2595 H 0.26242 0.75969 0.93318 0.0
H2596 H 0.3216 0.7492 0.93828 0.0
H2597 H 0.34784 0.7909 0.93049 0.0
H2598 H 0.29157 0.72079 0.90292 0.0
H2599 H 0.28489 0.73837 0.99243 0.0
H2600 H 0.27987 0.7593 0.03009 0.0
H2601 H 0.21112 0.73994 0.00265 0.0
H2602 H 0.21582 0.71917 0.96458 0.0
H2603 H 0.20808 0.60025 0.90968 0.0
H2604 H 0.23917 0.63816 0.92468 0.0
H2605 H 0.19383 0.66687 0.91448 0.0
H2606 H 0.16232 0.62873 0.90015 0.0
H2607 H 0.22089 0.68352 0.95979 0.0
H2608 H 0.23183 0.67273 0.86621 0.0
H2609 H 0.23708 0.65192 0.82854 0.0
H2610 H 0.2988 0.65872 0.86512 0.0
H2611 H 0.29373 0.67934 0.90319 0.0
C2612 C 0.29597 0.79011 0.92926 0.0
C2613 C 0.32019 0.79928 0.9274 0.0
C2614 C 0.28106 0.76639 0.93359 0.0
C2615 C 0.28999 0.75124 0.93641 0.0
C2616 C 0.3143 0.76055 0.9362 0.0
C2617 C 0.32931 0.78443 0.9319 0.0
C2618 C 0.27373 0.72563 0.93605 0.0
C2619 C 0.27647 0.71252 0.91589 0.0
C2620 C 0.25376 0.71485 0.95262 0.0
C2621 C 0.25077 0.72728 0.97554 0.0
C2622 C 0.26875 0.7387 0.9943 0.0
C2623 C 0.26596 0.75052 0.01575 0.0
C2624 C 0.2452 0.75097 0.01874 0.0
C2625 C 0.22719 0.73956 0.00031 0.0
C2626 C 0.22989 0.72773 0.97881 0.0
C2627 C 0.20447 0.61443 0.91115 0.0
C2628 C 0.18265 0.61143 0.90355 0.0
C2629 C 0.22238 0.63618 0.91956 0.0
C2630 C 0.21891 0.6554 0.92041 0.0
C2631 C 0.1969 0.65227 0.91393 0.0
C2632 C 0.17897 0.63052 0.90549 0.0
C2633 C 0.23855 0.6791 0.92629 0.0
C2634 C 0.23634 0.69176 0.94736 0.0
C2635 C 0.25908 0.68949 0.91066 0.0
C2636 C 0.26225 0.67732 0.88766 0.0
C2637 C 0.24642 0.66964 0.8663 0.0
C2638 C 0.24938 0.6579 0.84487 0.0
C2639 C 0.26822 0.65393 0.84448 0.0
C2640 C 0.28419 0.66177 0.86548 0.0
C2641 C 0.28129 0.67349 0.88697 0.0
H2642 H 0.27048 0.64484 0.82787 0.0
H2643 H 0.24307 0.76013 0.03536 0.0
H2644 H 0.1941 0.49464 0.93026 0.0
H2645 H 0.23566 0.50723 0.93191 0.0
H2646 H 0.2522 0.57483 0.90183 0.0
H2647 H 0.21071 0.56202 0.89924 0.0
H2648 H 0.27469 0.56003 0.87461 0.0
H2649 H 0.26476 0.56542 0.96771 0.0
H2650 H 0.24696 0.55247 0.01204 0.0
H2651 H 0.263 0.49718 0.01088 0.0
H2652 H 0.28063 0.50959 0.96636 0.0
H2653 H 0.39714 0.60751 0.88738 0.0
H2654 H 0.35786 0.60066 0.8965 0.0
H2655 H 0.33448 0.52844 0.91331 0.0
H2656 H 0.37375 0.53524 0.90455 0.0
H2657 H 0.31683 0.54834 0.94921 0.0
H2658 H 0.32438 0.54264 0.85403 0.0
H2659 H 0.3429 0.55706 0.81027 0.0
H2660 H 0.33185 0.61547 0.81684 0.0
H2661 H 0.31357 0.60156 0.86085 0.0
C2662 C 0.20663 0.51232 0.92448 0.0
C2663 C 0.19913 0.5273 0.91452 0.0
C2664 C 0.23043 0.51955 0.92551 0.0
C2665 C 0.24719 0.54207 0.91713 0.0
C2666 C 0.23968 0.55735 0.90829 0.0
C2667 C 0.21593 0.55002 0.90689 0.0
C2668 C 0.27233 0.54906 0.91546 0.0
C2669 C 0.28396 0.55788 0.89117 0.0
C2670 C 0.28445 0.54588 0.9368 0.0
C2671 C 0.27384 0.53832 0.96357 0.0
C2672 C 0.26433 0.55038 0.9768 0.0
C2673 C 0.2543 0.54316 0.00199 0.0
C2674 C 0.2538 0.52398 0.01424 0.0
C2675 C 0.26338 0.51202 0.00135 0.0
C2676 C 0.27342 0.51915 0.97616 0.0
C2677 C 0.38373 0.59026 0.89339 0.0
C2678 C 0.38852 0.57186 0.89503 0.0
C2679 C 0.36127 0.58634 0.89846 0.0
C2680 C 0.34322 0.56399 0.90537 0.0
C2681 C 0.34814 0.54581 0.90797 0.0
C2682 C 0.37053 0.54967 0.90271 0.0
C2683 C 0.31892 0.55921 0.90847 0.0
C2684 C 0.30749 0.55071 0.9329 0.0
C2685 C 0.30701 0.56292 0.88738 0.0
C2686 C 0.31785 0.5712 0.86085 0.0
C2687 C 0.32608 0.55866 0.84624 0.0
C2688 C 0.3365 0.56672 0.82138 0.0
C2689 C 0.33861 0.58721 0.81082 0.0
C2690 C 0.33024 0.59963 0.82507 0.0
C2691 C 0.31984 0.59166 0.84997 0.0
H2692 H 0.34669 0.59342 0.79156 0.0
H2693 H 0.24603 0.51842 0.03374 0.0
H2694 H 0.37507 0.84105 0.46002 0.0
H2695 H 0.40242 0.82831 0.44846 0.0
H2696 H 0.35538 0.78302 0.38794 0.0
H2697 H 0.32706 0.79512 0.40036 0.0
H2698 H 0.37302 0.76105 0.41291 0.0
H2699 H 0.40667 0.8345 0.37132 0.0
H2700 H 0.42029 0.87639 0.36631 0.0
H2701 H 0.47063 0.89236 0.42836 0.0
H2702 H 0.45711 0.85054 0.43402 0.0
H2703 H 0.50278 0.78853 0.38528 0.0
H2704 H 0.47123 0.79714 0.37812 0.0
H2705 H 0.43468 0.75465 0.44615 0.0
H2706 H 0.46564 0.74523 0.45238 0.0
H2707 H 0.45715 0.8193 0.40441 0.0
H2708 H 0.37737 0.73251 0.44358 0.0
H2709 H 0.36423 0.69049 0.44267 0.0
H2710 H 0.40563 0.7003 0.37296 0.0
H2711 H 0.41875 0.74228 0.37316 0.0
C2712 C 0.37048 0.82855 0.44403 0.0
C2713 C 0.34888 0.81926 0.43096 0.0
C2714 C 0.38629 0.82133 0.43733 0.0
C2715 C 0.38129 0.80507 0.41689 0.0
C2716 C 0.35973 0.79571 0.40366 0.0
C2717 C 0.34362 0.80273 0.41066 0.0
C2718 C 0.39851 0.79759 0.41038 0.0
C2719 C 0.39139 0.77375 0.41078 0.0
C2720 C 0.42242 0.81408 0.40656 0.0
C2721 C 0.43079 0.83933 0.40315 0.0
C2722 C 0.42056 0.84693 0.384 0.0
C2723 C 0.42827 0.87067 0.38104 0.0
C2724 C 0.4463 0.88702 0.39702 0.0
C2725 C 0.45668 0.87967 0.41597 0.0
C2726 C 0.44903 0.85595 0.41903 0.0
C2727 C 0.48789 0.78097 0.39853 0.0
C2728 C 0.48656 0.76619 0.41932 0.0
C2729 C 0.46985 0.78583 0.39444 0.0
C2730 C 0.45029 0.77629 0.41132 0.0
C2731 C 0.44914 0.76168 0.43228 0.0
C2732 C 0.46692 0.75642 0.43599 0.0
C2733 C 0.43186 0.78279 0.40821 0.0
C2734 C 0.43876 0.80649 0.406 0.0
C2735 C 0.40773 0.76608 0.40927 0.0
C2736 C 0.3992 0.74064 0.40853 0.0
C2737 C 0.38352 0.72569 0.42792 0.0
C2738 C 0.3761 0.70187 0.42755 0.0
C2739 C 0.38414 0.69276 0.4078 0.0
C2740 C 0.39948 0.7074 0.38828 0.0
C2741 C 0.40692 0.73121 0.38853 0.0
H2742 H 0.3785 0.67437 0.4076 0.0
H2743 H 0.45224 0.9054 0.3947 0.0
H2744 H 0.16158 0.5388 0.40186 0.0
H2745 H 0.17961 0.58031 0.39332 0.0
H2746 H 0.24688 0.58519 0.38639 0.0
H2747 H 0.22882 0.5434 0.39554 0.0
H2748 H 0.24929 0.61624 0.42035 0.0
H2749 H 0.22185 0.59769 0.33242 0.0
H2750 H 0.19448 0.57693 0.29579 0.0
H2751 H 0.14852 0.60037 0.32425 0.0
H2752 H 0.17542 0.62099 0.3613 0.0
H2753 H 0.28475 0.73801 0.41823 0.0
H2754 H 0.28004 0.70097 0.4021 0.0
H2755 H 0.20542 0.66922 0.41019 0.0
H2756 H 0.20994 0.70615 0.42535 0.0
H2757 H 0.21646 0.65505 0.36523 0.0
H2758 H 0.24113 0.66513 0.45879 0.0
H2759 H 0.26891 0.68529 0.49535 0.0
H2760 H 0.32146 0.67756 0.4541 0.0
H2761 H 0.29406 0.65759 0.41715 0.0
C2762 C 0.18014 0.54853 0.39786 0.0
C2763 C 0.19377 0.53776 0.3996 0.0
C2764 C 0.19045 0.57234 0.39278 0.0
C2765 C 0.21465 0.58598 0.38902 0.0
C2766 C 0.22817 0.57504 0.38916 0.0
C2767 C 0.21779 0.55108 0.39423 0.0
C2768 C 0.22568 0.61183 0.38841 0.0
C2769 C 0.24259 0.62484 0.40772 0.0
C2770 C 0.21696 0.62316 0.37206 0.0
C2771 C 0.20068 0.61086 0.34972 0.0
C2772 C 0.20584 0.59831 0.33098 0.0
C2773 C 0.19041 0.58658 0.31011 0.0
C2774 C 0.16977 0.58732 0.3077 0.0
C2775 C 0.16453 0.59983 0.32613 0.0
C2776 C 0.1799 0.61159 0.34704 0.0
C2777 C 0.26733 0.72324 0.41615 0.0
C2778 C 0.24772 0.72501 0.42337 0.0
C2779 C 0.26468 0.70202 0.40711 0.0
C2780 C 0.24238 0.68221 0.40521 0.0
C2781 C 0.22281 0.68422 0.41151 0.0
C2782 C 0.22543 0.70533 0.42049 0.0
C2783 C 0.23903 0.65895 0.39803 0.0
C2784 C 0.22363 0.64652 0.37723 0.0
C2785 C 0.24927 0.64819 0.41285 0.0
C2786 C 0.26567 0.66019 0.43507 0.0
C2787 C 0.25867 0.66791 0.45744 0.0
C2788 C 0.27434 0.67927 0.47824 0.0
C2789 C 0.29697 0.68279 0.477 0.0
C2790 C 0.30396 0.67489 0.45499 0.0
C2791 C 0.28837 0.66355 0.43412 0.0
H2792 H 0.30906 0.69157 0.49312 0.0
H2793 H 0.15784 0.57822 0.29154 0.0
H2794 H 0.47614 0.63489 0.39347 0.0
H2795 H 0.43451 0.60678 0.39194 0.0
H2796 H 0.41929 0.66296 0.39657 0.0
H2797 H 0.46104 0.69098 0.39992 0.0
H2798 H 0.39285 0.6331 0.42842 0.0
H2799 H 0.40877 0.62608 0.33823 0.0
H2800 H 0.42893 0.62126 0.2996 0.0
H2801 H 0.41223 0.55339 0.32749 0.0
H2802 H 0.39223 0.55791 0.36651 0.0
H2803 H 0.27119 0.55047 0.41371 0.0
H2804 H 0.31052 0.58164 0.40223 0.0
H2805 H 0.33759 0.53577 0.41894 0.0
H2806 H 0.29829 0.50448 0.43022 0.0
H2807 H 0.35573 0.56244 0.37166 0.0
H2808 H 0.34306 0.57437 0.46506 0.0
H2809 H 0.32132 0.5806 0.50096 0.0
H2810 H 0.32989 0.6418 0.46123 0.0
H2811 H 0.35137 0.63568 0.42493 0.0
C2812 C 0.46392 0.64127 0.39349 0.0
C2813 C 0.47182 0.66512 0.39661 0.0
C2814 C 0.44003 0.62516 0.39252 0.0
C2815 C 0.4235 0.6326 0.39376 0.0
C2816 C 0.43153 0.65663 0.39565 0.0
C2817 C 0.45541 0.67268 0.39735 0.0
C2818 C 0.39801 0.61526 0.39543 0.0
C2819 C 0.38474 0.61796 0.41553 0.0
C2820 C 0.38713 0.59526 0.37886 0.0
C2821 C 0.39914 0.59242 0.35542 0.0
C2822 C 0.40953 0.61019 0.33624 0.0
C2823 C 0.42091 0.6075 0.31425 0.0
C2824 C 0.4219 0.58706 0.31112 0.0
C2825 C 0.41146 0.56923 0.32995 0.0
C2826 C 0.40007 0.57183 0.35199 0.0
C2827 C 0.28546 0.54692 0.41459 0.0
C2828 C 0.28164 0.52501 0.42295 0.0
C2829 C 0.30794 0.5648 0.40818 0.0
C2830 C 0.327 0.56106 0.40989 0.0
C2831 C 0.32314 0.53903 0.4175 0.0
C2832 C 0.30072 0.52123 0.42414 0.0
C2833 C 0.35112 0.58029 0.40478 0.0
C2834 C 0.364 0.57786 0.38412 0.0
C2835 C 0.36148 0.60082 0.42031 0.0
C2836 C 0.34872 0.60453 0.44226 0.0
C2837 C 0.3402 0.58908 0.46394 0.0
C2838 C 0.32792 0.59259 0.48436 0.0
C2839 C 0.3242 0.61157 0.48337 0.0
C2840 C 0.33279 0.62711 0.46199 0.0
C2841 C 0.34504 0.62365 0.44151 0.0
H2842 H 0.31469 0.61425 0.49919 0.0
H2843 H 0.43072 0.58501 0.29408 0.0
loop_
_geom_bond_atom_site_label_1
_geom_bond_atom_site_label_2
_geom_bond_distance
_geom_bond_site_symmetry_2
_ccdc_geom_bond_type
C0 C1 1.351 . S
C0 N3 1.368 . S
C0 H5 0.931 . S
C1 C0 1.351 . S
C1 N2 1.373 . S
C1 H29 0.930 . S
N2 C1 1.373 . S
N2 C4 1.340 . S
N3 C0 1.368 . S
N3 C4 1.321 . S
N3 Co6 2.135 . S
C4 N2 1.340 . S
C4 N3 1.321 . S
C4 H28 0.930 . S
H5 C0 0.931 . S
Co6 N3 2.135 . S
Co6 N9 2.121 1_455 S
Co6 O14 2.055 . S
Co6 O17 2.039 1_455 S
Co6 N20 2.140 . S
C7 O8 1.227 . S
C7 O17 1.265 . S
O8 C7 1.227 . S
N9 Co6 2.121 1_655 S
N9 C11 1.375 . S
N9 C12 1.313 . S
C10 C11 1.338 . S
C10 N13 1.377 . S
C10 H30 0.930 . S
C11 N9 1.375 . S
C11 C10 1.338 . S
C11 H15 0.931 . S
C12 N9 1.313 . S
C12 N13 1.344 . S
C12 H16 0.930 1_655 S
N13 C10 1.377 . S
N13 C12 1.344 . S
O14 Co6 2.055 . S
O14 C18 1.253 . S
H15 C11 0.931 . S
H16 C12 0.930 1_455 S
O17 Co6 2.039 1_655 S
O17 C7 1.265 . S
C18 O14 1.253 . S
C18 O19 1.227 . S
O19 C18 1.227 . S
N20 Co6 2.140 . S
N20 C23 1.346 . S
N20 C24 1.345 . S
C21 C22 1.387 . S
C21 C25 1.391 . S
C22 C21 1.387 . S
C22 C23 1.369 . S
C22 H31 0.929 . S
C23 N20 1.346 . S
C23 C22 1.369 . S
C23 H26 0.928 . S
C24 N20 1.345 . S
C24 C25 1.371 . S
C24 H27 0.931 . S
C25 C21 1.391 . S
C25 C24 1.371 . S
C25 H32 0.930 . S
H26 C23 0.928 . S
H27 C24 0.931 . S
H28 C4 0.930 . S
H29 C1 0.930 . S
H30 C10 0.930 . S
H31 C22 0.929 . S
H32 C25 0.930 . S
C33 C34 1.351 . S
C33 N36 1.368 . S
C33 H38 0.931 . S
C34 C33 1.351 . S
C34 N35 1.373 . S
C34 H62 0.930 . S
N35 C34 1.373 . S
N35 C37 1.340 . S
N36 C33 1.368 . S
N36 C37 1.321 . S
N36 Co39 2.135 . S
C37 N35 1.340 . S
C37 N36 1.321 . S
C37 H61 0.930 . S
H38 C33 0.931 . S
Co39 N36 2.135 . S
Co39 N42 2.121 . S
Co39 O47 2.055 . S
Co39 O50 2.039 . S
Co39 N53 2.140 . S
C40 O41 1.227 . S
C40 O50 1.265 . S
O41 C40 1.227 . S
N42 Co39 2.121 . S
N42 C44 1.375 . S
N42 C45 1.313 . S
C43 C44 1.338 . S
C43 N46 1.377 . S
C43 H63 0.930 . S
C44 N42 1.375 . S
C44 C43 1.338 . S
C44 H48 0.931 . S
C45 N42 1.313 . S
C45 N46 1.344 . S
C45 H49 0.930 . S
N46 C43 1.377 . S
N46 C45 1.344 . S
O47 Co39 2.055 . S
O47 C51 1.253 . S
H48 C44 0.931 . S
H49 C45 0.930 . S
O50 Co39 2.039 . S
O50 C40 1.265 . S
C51 O47 1.253 . S
C51 O52 1.227 . S
O52 C51 1.227 . S
N53 Co39 2.140 . S
N53 C56 1.346 . S
N53 C57 1.345 . S
C54 C55 1.387 . S
C54 C58 1.391 . S
C55 C54 1.387 . S
C55 C56 1.369 . S
C55 H64 0.929 . S
C56 N53 1.346 . S
C56 C55 1.369 . S
C56 H59 0.928 . S
C57 N53 1.345 . S
C57 C58 1.371 . S
C57 H60 0.931 . S
C58 C54 1.391 . S
C58 C57 1.371 . S
C58 H65 0.930 . S
H59 C56 0.928 . S
H60 C57 0.931 . S
H61 C37 0.930 . S
H62 C34 0.930 . S
H63 C43 0.930 . S
H64 C55 0.929 . S
H65 C58 0.930 . S
C66 C67 1.351 . S
C66 N69 1.368 . S
C66 H71 0.931 . S
C67 C66 1.351 . S
C67 N68 1.373 . S
C67 H95 0.930 . S
N68 C67 1.373 . S
N68 C70 1.340 . S
N69 C66 1.368 . S
N69 C70 1.321 . S
N69 Co72 2.135 . S
C70 N68 1.340 . S
C70 N69 1.321 . S
C70 H94 0.930 . S
H71 C66 0.931 . S
Co72 N69 2.135 . S
Co72 N75 2.121 1_565 S
Co72 O80 2.055 . S
Co72 O83 2.039 1_565 S
Co72 N86 2.140 . S
C73 O74 1.227 . S
C73 O83 1.265 . S
O74 C73 1.227 . S
N75 Co72 2.121 1_545 S
N75 C77 1.375 . S
N75 C78 1.313 . S
C76 C77 1.338 . S
C76 N79 1.377 . S
C76 H96 0.930 . S
C77 N75 1.375 . S
C77 C76 1.338 . S
C77 H81 0.931 . S
C78 N75 1.313 . S
C78 N79 1.344 . S
C78 H82 0.930 1_545 S
N79 C76 1.377 . S
N79 C78 1.344 . S
O80 Co72 2.055 . S
O80 C84 1.253 . S
H81 C77 0.931 . S
H82 C78 0.930 1_565 S
O83 Co72 2.039 1_545 S
O83 C73 1.265 . S
C84 O80 1.253 . S
C84 O85 1.227 . S
O85 C84 1.227 . S
N86 Co72 2.140 . S
N86 C89 1.346 . S
N86 C90 1.345 . S
C87 C88 1.387 . S
C87 C91 1.391 . S
C88 C87 1.387 . S
C88 C89 1.369 . S
C88 H97 0.929 . S
C89 N86 1.346 . S
C89 C88 1.369 . S
C89 H92 0.928 . S
C90 N86 1.345 . S
C90 C91 1.371 . S
C90 H93 0.931 . S
C91 C87 1.391 . S
C91 C90 1.371 . S
C91 H98 0.930 . S
H92 C89 0.928 . S
H93 C90 0.931 . S
H94 C70 0.930 . S
H95 C67 0.930 . S
H96 C76 0.930 . S
H97 C88 0.929 . S
H98 C91 0.930 . S
C99 C100 1.351 . S
C99 N102 1.368 . S
C99 H104 0.931 . S
C100 C99 1.351 . S
C100 N101 1.373 . S
C100 H128 0.930 . S
N101 C100 1.373 . S
N101 C103 1.340 . S
N102 C99 1.368 . S
N102 C103 1.321 . S
N102 Co105 2.135 . S
C103 N101 1.340 . S
C103 N102 1.321 . S
C103 H127 0.930 . S
H104 C99 0.931 . S
Co105 N102 2.135 . S
Co105 N108 2.121 1_545 S
Co105 O113 2.055 . S
Co105 O116 2.039 1_545 S
Co105 N119 2.140 . S
C106 O107 1.227 . S
C106 O116 1.265 . S
O107 C106 1.227 . S
N108 Co105 2.121 1_565 S
N108 C110 1.375 . S
N108 C111 1.313 . S
C109 C110 1.338 . S
C109 N112 1.377 . S
C109 H129 0.930 . S
C110 N108 1.375 . S
C110 C109 1.338 . S
C110 H114 0.931 . S
C111 N108 1.313 . S
C111 N112 1.344 . S
C111 H115 0.930 1_565 S
N112 C109 1.377 . S
N112 C111 1.344 . S
O113 Co105 2.055 . S
O113 C117 1.253 . S
H114 C110 0.931 . S
H115 C111 0.930 1_545 S
O116 Co105 2.039 1_565 S
O116 C106 1.265 . S
C117 O113 1.253 . S
C117 O118 1.227 . S
O118 C117 1.227 . S
N119 Co105 2.140 . S
N119 C122 1.346 . S
N119 C123 1.345 . S
C120 C121 1.387 . S
C120 C124 1.391 . S
C121 C120 1.387 . S
C121 C122 1.369 . S
C121 H130 0.929 . S
C122 N119 1.346 . S
C122 C121 1.369 . S
C122 H125 0.928 . S
C123 N119 1.345 . S
C123 C124 1.371 . S
C123 H126 0.931 . S
C124 C120 1.391 . S
C124 C123 1.371 . S
C124 H131 0.930 . S
H125 C122 0.928 . S
H126 C123 0.931 . S
H127 C103 0.930 . S
H128 C100 0.930 . S
H129 C109 0.930 . S
H130 C121 0.929 . S
H131 C124 0.930 . S
C132 C133 1.351 . S
C132 N135 1.368 . S
C132 H137 0.931 . S
C133 C132 1.351 . S
C133 N134 1.373 . S
C133 H161 0.930 . S
N134 C133 1.373 . S
N134 C136 1.340 . S
N135 C132 1.368 . S
N135 C136 1.321 . S
N135 Co138 2.135 . S
C136 N134 1.340 . S
C136 N135 1.321 . S
C136 H160 0.930 . S
H137 C132 0.931 . S
Co138 N135 2.135 . S
Co138 N141 2.121 1_655 S
Co138 O146 2.055 . S
Co138 O149 2.039 1_655 S
Co138 N152 2.140 . S
C139 O140 1.227 . S
C139 O149 1.265 . S
O140 C139 1.227 . S
N141 Co138 2.121 1_455 S
N141 C143 1.375 . S
N141 C144 1.313 . S
C142 C143 1.338 . S
C142 N145 1.377 . S
C142 H162 0.930 . S
C143 N141 1.375 . S
C143 C142 1.338 . S
C143 H147 0.931 . S
C144 N141 1.313 . S
C144 N145 1.344 . S
C144 H148 0.930 1_455 S
N145 C142 1.377 . S
N145 C144 1.344 . S
O146 Co138 2.055 . S
O146 C150 1.253 . S
H147 C143 0.931 . S
H148 C144 0.930 1_655 S
O149 Co138 2.039 1_455 S
O149 C139 1.265 . S
C150 O146 1.253 . S
C150 O151 1.227 . S
O151 C150 1.227 . S
N152 Co138 2.140 . S
N152 C155 1.346 . S
N152 C156 1.345 . S
C153 C154 1.387 . S
C153 C157 1.391 . S
C154 C153 1.387 . S
C154 C155 1.369 . S
C154 H163 0.929 . S
C155 N152 1.346 . S
C155 C154 1.369 . S
C155 H158 0.928 . S
C156 N152 1.345 . S
C156 C157 1.371 . S
C156 H159 0.931 . S
C157 C153 1.391 . S
C157 C156 1.371 . S
C157 H164 0.930 . S
H158 C155 0.928 . S
H159 C156 0.931 . S
H160 C136 0.930 . S
H161 C133 0.930 . S
H162 C142 0.930 . S
H163 C154 0.929 . S
H164 C157 0.930 . S
C165 C166 1.351 . S
C165 N168 1.368 . S
C165 H170 0.931 . S
C166 C165 1.351 . S
C166 N167 1.373 . S
C166 H194 0.930 . S
N167 C166 1.373 . S
N167 C169 1.340 . S
N168 C165 1.368 . S
N168 C169 1.321 . S
N168 Co171 2.135 . S
C169 N167 1.340 . S
C169 N168 1.321 . S
C169 H193 0.930 . S
H170 C165 0.931 . S
Co171 N168 2.135 . S
Co171 N174 2.121 . S
Co171 O179 2.055 . S
Co171 O182 2.039 . S
Co171 N185 2.140 . S
C172 O173 1.227 . S
C172 O182 1.265 . S
O173 C172 1.227 . S
N174 Co171 2.121 . S
N174 C176 1.375 . S
N174 C177 1.313 . S
C175 C176 1.338 . S
C175 N178 1.377 . S
C175 H195 0.930 . S
C176 N174 1.375 . S
C176 C175 1.338 . S
C176 H180 0.931 . S
C177 N174 1.313 . S
C177 N178 1.344 . S
C177 H181 0.930 . S
N178 C175 1.377 . S
N178 C177 1.344 . S
O179 Co171 2.055 . S
O179 C183 1.253 . S
H180 C176 0.931 . S
H181 C177 0.930 . S
O182 Co171 2.039 . S
O182 C172 1.265 . S
C183 O179 1.253 . S
C183 O184 1.227 . S
O184 C183 1.227 . S
N185 Co171 2.140 . S
N185 C188 1.346 . S
N185 C189 1.345 . S
C186 C187 1.387 . S
C186 C190 1.391 . S
C187 C186 1.387 . S
C187 C188 1.369 . S
C187 H196 0.929 . S
C188 N185 1.346 . S
C188 C187 1.369 . S
C188 H191 0.928 . S
C189 N185 1.345 . S
C189 C190 1.371 . S
C189 H192 0.931 . S
C190 C186 1.391 . S
C190 C189 1.371 . S
C190 H197 0.930 . S
H191 C188 0.928 . S
H192 C189 0.931 . S
H193 C169 0.930 . S
H194 C166 0.930 . S
H195 C175 0.930 . S
H196 C187 0.929 . S
H197 C190 0.930 . S
C198 C199 1.351 . S
C198 N201 1.368 . S
C198 H203 0.931 . S
C199 C198 1.351 . S
C199 N200 1.373 . S
C199 H227 0.930 . S
N200 C199 1.373 . S
N200 C202 1.340 . S
N201 C198 1.368 . S
N201 C202 1.321 . S
N201 Co204 2.135 . S
C202 N200 1.340 . S
C202 N201 1.321 . S
C202 H226 0.930 . S
H203 C198 0.931 . S
Co204 N201 2.135 . S
Co204 N207 2.121 . S
Co204 O212 2.055 . S
Co204 O215 2.039 . S
Co204 N218 2.140 . S
C205 O206 1.227 . S
C205 O215 1.265 . S
O206 C205 1.227 . S
N207 Co204 2.121 . S
N207 C209 1.375 . S
N207 C210 1.313 . S
C208 C209 1.338 . S
C208 N211 1.377 . S
C208 H228 0.930 . S
C209 N207 1.375 . S
C209 C208 1.338 . S
C209 H213 0.931 . S
C210 N207 1.313 . S
C210 N211 1.344 . S
C210 H214 0.930 . S
N211 C208 1.377 . S
N211 C210 1.344 . S
O212 Co204 2.055 . S
O212 C216 1.253 . S
H213 C209 0.931 . S
H214 C210 0.930 . S
O215 Co204 2.039 . S
O215 C205 1.265 . S
C216 O212 1.253 . S
C216 O217 1.227 . S
O217 C216 1.227 . S
N218 Co204 2.140 . S
N218 C221 1.346 . S
N218 C222 1.345 . S
C219 C220 1.387 . S
C219 C223 1.391 . S
C220 C219 1.387 . S
C220 C221 1.369 . S
C220 H229 0.929 . S
C221 N218 1.346 . S
C221 C220 1.369 . S
C221 H224 0.928 . S
C222 N218 1.345 . S
C222 C223 1.371 . S
C222 H225 0.931 . S
C223 C219 1.391 . S
C223 C222 1.371 . S
C223 H230 0.930 . S
H224 C221 0.928 . S
H225 C222 0.931 . S
H226 C202 0.930 . S
H227 C199 0.930 . S
H228 C208 0.930 . S
H229 C220 0.929 . S
H230 C223 0.930 . S
C231 C232 1.351 . S
C231 N234 1.368 . S
C231 H236 0.931 . S
C232 C231 1.351 . S
C232 N233 1.373 . S
C232 H260 0.930 . S
N233 C232 1.373 . S
N233 C235 1.340 . S
N234 C231 1.368 . S
N234 C235 1.321 . S
N234 Co237 2.135 . S
C235 N233 1.340 . S
C235 N234 1.321 . S
C235 H259 0.930 . S
H236 C231 0.931 . S
Co237 N234 2.135 . S
Co237 N240 2.121 . S
Co237 O245 2.055 . S
Co237 O248 2.039 . S
Co237 N251 2.140 . S
C238 O239 1.227 . S
C238 O248 1.265 . S
O239 C238 1.227 . S
N240 Co237 2.121 . S
N240 C242 1.375 . S
N240 C243 1.313 . S
C241 C242 1.338 . S
C241 N244 1.377 . S
C241 H261 0.930 . S
C242 N240 1.375 . S
C242 C241 1.338 . S
C242 H246 0.931 . S
C243 N240 1.313 . S
C243 N244 1.344 . S
C243 H247 0.930 . S
N244 C241 1.377 . S
N244 C243 1.344 . S
O245 Co237 2.055 . S
O245 C249 1.253 . S
H246 C242 0.931 . S
H247 C243 0.930 . S
O248 Co237 2.039 . S
O248 C238 1.265 . S
C249 O245 1.253 . S
C249 O250 1.227 . S
O250 C249 1.227 . S
N251 Co237 2.140 . S
N251 C254 1.346 . S
N251 C255 1.345 . S
C252 C253 1.387 . S
C252 C256 1.391 . S
C253 C252 1.387 . S
C253 C254 1.369 . S
C253 H262 0.929 . S
C254 N251 1.346 . S
C254 C253 1.369 . S
C254 H257 0.928 . S
C255 N251 1.345 . S
C255 C256 1.371 . S
C255 H258 0.931 . S
C256 C252 1.391 . S
C256 C255 1.371 . S
C256 H263 0.930 . S
H257 C254 0.928 . S
H258 C255 0.931 . S
H259 C235 0.930 . S
H260 C232 0.930 . S
H261 C241 0.930 . S
H262 C253 0.929 . S
H263 C256 0.930 . S
C264 C265 1.351 . S
C264 N267 1.368 . S
C264 H269 0.931 . S
C265 C264 1.351 . S
C265 N266 1.373 . S
C265 H293 0.930 . S
N266 C265 1.373 . S
N266 C268 1.340 . S
N267 C264 1.368 . S
N267 C268 1.321 . S
N267 Co270 2.135 . S
C268 N266 1.340 . S
C268 N267 1.321 . S
C268 H292 0.930 . S
H269 C264 0.931 . S
Co270 N267 2.135 . S
Co270 N273 2.121 . S
Co270 O278 2.055 . S
Co270 O281 2.039 . S
Co270 N284 2.140 . S
C271 O272 1.227 . S
C271 O281 1.265 . S
O272 C271 1.227 . S
N273 Co270 2.121 . S
N273 C275 1.375 . S
N273 C276 1.313 . S
C274 C275 1.338 . S
C274 N277 1.377 . S
C274 H294 0.930 . S
C275 N273 1.375 . S
C275 C274 1.338 . S
C275 H279 0.931 . S
C276 N273 1.313 . S
C276 N277 1.344 . S
C276 H280 0.930 . S
N277 C274 1.377 . S
N277 C276 1.344 . S
O278 Co270 2.055 . S
O278 C282 1.253 . S
H279 C275 0.931 . S
H280 C276 0.930 . S
O281 Co270 2.039 . S
O281 C271 1.265 . S
C282 O278 1.253 . S
C282 O283 1.227 . S
O283 C282 1.227 . S
N284 Co270 2.140 . S
N284 C287 1.346 . S
N284 C288 1.345 . S
C285 C286 1.387 . S
C285 C289 1.391 . S
C286 C285 1.387 . S
C286 C287 1.369 . S
C286 H295 0.929 . S
C287 N284 1.346 . S
C287 C286 1.369 . S
C287 H290 0.928 . S
C288 N284 1.345 . S
C288 C289 1.371 . S
C288 H291 0.931 . S
C289 C285 1.391 . S
C289 C288 1.371 . S
C289 H296 0.930 . S
H290 C287 0.928 . S
H291 C288 0.931 . S
H292 C268 0.930 . S
H293 C265 0.930 . S
H294 C274 0.930 . S
H295 C286 0.929 . S
H296 C289 0.930 . S
C297 C298 1.351 . S
C297 N300 1.368 . S
C297 H302 0.931 . S
C298 C297 1.351 . S
C298 N299 1.373 . S
C298 H326 0.930 . S
N299 C298 1.373 . S
N299 C301 1.340 . S
N300 C297 1.368 . S
N300 C301 1.321 . S
N300 Co303 2.135 . S
C301 N299 1.340 . S
C301 N300 1.321 . S
C301 H325 0.930 . S
H302 C297 0.931 . S
Co303 N300 2.135 . S
Co303 N306 2.121 . S
Co303 O311 2.055 . S
Co303 O314 2.039 . S
Co303 N317 2.140 . S
C304 O305 1.227 . S
C304 O314 1.265 . S
O305 C304 1.227 . S
N306 Co303 2.121 . S
N306 C308 1.375 . S
N306 C309 1.313 . S
C307 C308 1.338 . S
C307 N310 1.377 . S
C307 H327 0.930 . S
C308 N306 1.375 . S
C308 C307 1.338 . S
C308 H312 0.931 . S
C309 N306 1.313 . S
C309 N310 1.344 . S
C309 H313 0.930 . S
N310 C307 1.377 . S
N310 C309 1.344 . S
O311 Co303 2.055 . S
O311 C315 1.253 . S
H312 C308 0.931 . S
H313 C309 0.930 . S
O314 Co303 2.039 . S
O314 C304 1.265 . S
C315 O311 1.253 . S
C315 O316 1.227 . S
O316 C315 1.227 . S
N317 Co303 2.140 . S
N317 C320 1.346 . S
N317 C321 1.345 . S
C318 C319 1.387 . S
C318 C322 1.391 . S
C319 C318 1.387 . S
C319 C320 1.369 . S
C319 H328 0.929 . S
C320 N317 1.346 . S
C320 C319 1.369 . S
C320 H323 0.928 . S
C321 N317 1.345 . S
C321 C322 1.371 . S
C321 H324 0.931 . S
C322 C318 1.391 . S
C322 C321 1.371 . S
C322 H329 0.930 . S
H323 C320 0.928 . S
H324 C321 0.931 . S
H325 C301 0.930 . S
H326 C298 0.930 . S
H327 C307 0.930 . S
H328 C319 0.929 . S
H329 C322 0.930 . S
C330 C331 1.351 . S
C330 N333 1.368 . S
C330 H335 0.931 . S
C331 C330 1.351 . S
C331 N332 1.373 . S
C331 H359 0.930 . S
N332 C331 1.373 . S
N332 C334 1.340 . S
N333 C330 1.368 . S
N333 C334 1.321 . S
N333 Co336 2.135 . S
C334 N332 1.340 . S
C334 N333 1.321 . S
C334 H358 0.930 . S
H335 C330 0.931 . S
Co336 N333 2.135 . S
Co336 N339 2.121 . S
Co336 O344 2.055 . S
Co336 O347 2.039 . S
Co336 N350 2.140 . S
C337 O338 1.227 . S
C337 O347 1.265 . S
O338 C337 1.227 . S
N339 Co336 2.121 . S
N339 C341 1.375 . S
N339 C342 1.313 . S
C340 C341 1.338 . S
C340 N343 1.377 . S
C340 H360 0.930 . S
C341 N339 1.375 . S
C341 C340 1.338 . S
C341 H345 0.931 . S
C342 N339 1.313 . S
C342 N343 1.344 . S
C342 H346 0.930 . S
N343 C340 1.377 . S
N343 C342 1.344 . S
O344 Co336 2.055 . S
O344 C348 1.253 . S
H345 C341 0.931 . S
H346 C342 0.930 . S
O347 Co336 2.039 . S
O347 C337 1.265 . S
C348 O344 1.253 . S
C348 O349 1.227 . S
O349 C348 1.227 . S
N350 Co336 2.140 . S
N350 C353 1.346 . S
N350 C354 1.345 . S
C351 C352 1.387 . S
C351 C355 1.391 . S
C352 C351 1.387 . S
C352 C353 1.369 . S
C352 H361 0.929 . S
C353 N350 1.346 . S
C353 C352 1.369 . S
C353 H356 0.928 . S
C354 N350 1.345 . S
C354 C355 1.371 . S
C354 H357 0.931 . S
C355 C351 1.391 . S
C355 C354 1.371 . S
C355 H362 0.930 . S
H356 C353 0.928 . S
H357 C354 0.931 . S
H358 C334 0.930 . S
H359 C331 0.930 . S
H360 C340 0.930 . S
H361 C352 0.929 . S
H362 C355 0.930 . S
C363 C364 1.351 . S
C363 N366 1.368 . S
C363 H368 0.931 . S
C364 C363 1.351 . S
C364 N365 1.373 . S
C364 H392 0.930 . S
N365 C364 1.373 . S
N365 C367 1.340 . S
N366 C363 1.368 . S
N366 C367 1.321 . S
N366 Co369 2.135 . S
C367 N365 1.340 . S
C367 N366 1.321 . S
C367 H391 0.930 . S
H368 C363 0.931 . S
Co369 N366 2.135 . S
Co369 N372 2.121 . S
Co369 O377 2.055 . S
Co369 O380 2.039 . S
Co369 N383 2.140 . S
C370 O371 1.227 . S
C370 O380 1.265 . S
O371 C370 1.227 . S
N372 Co369 2.121 . S
N372 C374 1.375 . S
N372 C375 1.313 . S
C373 C374 1.338 . S
C373 N376 1.377 . S
C373 H393 0.930 . S
C374 N372 1.375 . S
C374 C373 1.338 . S
C374 H378 0.931 . S
C375 N372 1.313 . S
C375 N376 1.344 . S
C375 H379 0.930 . S
N376 C373 1.377 . S
N376 C375 1.344 . S
O377 Co369 2.055 . S
O377 C381 1.253 . S
H378 C374 0.931 . S
H379 C375 0.930 . S
O380 Co369 2.039 . S
O380 C370 1.265 . S
C381 O377 1.253 . S
C381 O382 1.227 . S
O382 C381 1.227 . S
N383 Co369 2.140 . S
N383 C386 1.346 . S
N383 C387 1.345 . S
C384 C385 1.387 . S
C384 C388 1.391 . S
C385 C384 1.387 . S
C385 C386 1.369 . S
C385 H394 0.929 . S
C386 N383 1.346 . S
C386 C385 1.369 . S
C386 H389 0.928 . S
C387 N383 1.345 . S
C387 C388 1.371 . S
C387 H390 0.931 . S
C388 C384 1.391 . S
C388 C387 1.371 . S
C388 H395 0.930 . S
H389 C386 0.928 . S
H390 C387 0.931 . S
H391 C367 0.930 . S
H392 C364 0.930 . S
H393 C373 0.930 . S
H394 C385 0.929 . S
H395 C388 0.930 . S
C396 C397 1.351 . S
C396 N399 1.368 . S
C396 H401 0.931 . S
C397 C396 1.351 . S
C397 N398 1.373 . S
C397 H425 0.930 . S
N398 C397 1.373 . S
N398 C400 1.340 . S
N399 C396 1.368 . S
N399 C400 1.321 . S
N399 Co402 2.135 . S
C400 N398 1.340 . S
C400 N399 1.321 . S
C400 H424 0.930 . S
H401 C396 0.931 . S
Co402 N399 2.135 . S
Co402 N405 2.121 . S
Co402 O410 2.055 . S
Co402 O413 2.039 . S
Co402 N416 2.140 . S
C403 O404 1.227 . S
C403 O413 1.265 . S
O404 C403 1.227 . S
N405 Co402 2.121 . S
N405 C407 1.375 . S
N405 C408 1.313 . S
C406 C407 1.338 . S
C406 N409 1.377 . S
C406 H426 0.930 . S
C407 N405 1.375 . S
C407 C406 1.338 . S
C407 H411 0.931 . S
C408 N405 1.313 . S
C408 N409 1.344 . S
C408 H412 0.930 . S
N409 C406 1.377 . S
N409 C408 1.344 . S
O410 Co402 2.055 . S
O410 C414 1.253 . S
H411 C407 0.931 . S
H412 C408 0.930 . S
O413 Co402 2.039 . S
O413 C403 1.265 . S
C414 O410 1.253 . S
C414 O415 1.227 . S
O415 C414 1.227 . S
N416 Co402 2.140 . S
N416 C419 1.346 . S
N416 C420 1.345 . S
C417 C418 1.387 . S
C417 C421 1.391 . S
C418 C417 1.387 . S
C418 C419 1.369 . S
C418 H427 0.929 . S
C419 N416 1.346 . S
C419 C418 1.369 . S
C419 H422 0.928 . S
C420 N416 1.345 . S
C420 C421 1.371 . S
C420 H423 0.931 . S
C421 C417 1.391 . S
C421 C420 1.371 . S
C421 H428 0.930 . S
H422 C419 0.928 . S
H423 C420 0.931 . S
H424 C400 0.930 . S
H425 C397 0.930 . S
H426 C406 0.930 . S
H427 C418 0.929 . S
H428 C421 0.930 . S
C429 C430 1.351 . S
C429 N432 1.368 . S
C429 H434 0.931 . S
C430 C429 1.351 . S
C430 N431 1.373 . S
C430 H458 0.930 . S
N431 C430 1.373 . S
N431 C433 1.340 . S
N432 C429 1.368 . S
N432 C433 1.321 . S
N432 Co435 2.135 . S
C433 N431 1.340 . S
C433 N432 1.321 . S
C433 H457 0.930 . S
H434 C429 0.931 . S
Co435 N432 2.135 . S
Co435 N438 2.121 . S
Co435 O443 2.055 . S
Co435 O446 2.039 . S
Co435 N449 2.140 . S
C436 O437 1.227 . S
C436 O446 1.265 . S
O437 C436 1.227 . S
N438 Co435 2.121 . S
N438 C440 1.375 . S
N438 C441 1.313 . S
C439 C440 1.338 . S
C439 N442 1.377 . S
C439 H459 0.930 . S
C440 N438 1.375 . S
C440 C439 1.338 . S
C440 H444 0.931 . S
C441 N438 1.313 . S
C441 N442 1.344 . S
C441 H445 0.930 . S
N442 C439 1.377 . S
N442 C441 1.344 . S
O443 Co435 2.055 . S
O443 C447 1.253 . S
H444 C440 0.931 . S
H445 C441 0.930 . S
O446 Co435 2.039 . S
O446 C436 1.265 . S
C447 O443 1.253 . S
C447 O448 1.227 . S
O448 C447 1.227 . S
N449 Co435 2.140 . S
N449 C452 1.346 . S
N449 C453 1.345 . S
C450 C451 1.387 . S
C450 C454 1.391 . S
C451 C450 1.387 . S
C451 C452 1.369 . S
C451 H460 0.929 . S
C452 N449 1.346 . S
C452 C451 1.369 . S
C452 H455 0.928 . S
C453 N449 1.345 . S
C453 C454 1.371 . S
C453 H456 0.931 . S
C454 C450 1.391 . S
C454 C453 1.371 . S
C454 H461 0.930 . S
H455 C452 0.928 . S
H456 C453 0.931 . S
H457 C433 0.930 . S
H458 C430 0.930 . S
H459 C439 0.930 . S
H460 C451 0.929 . S
H461 C454 0.930 . S
C462 C463 1.351 . S
C462 N465 1.368 . S
C462 H467 0.931 . S
C463 C462 1.351 . S
C463 N464 1.373 . S
C463 H491 0.930 . S
N464 C463 1.373 . S
N464 C466 1.340 . S
N465 C462 1.368 . S
N465 C466 1.321 . S
N465 Co468 2.135 . S
C466 N464 1.340 . S
C466 N465 1.321 . S
C466 H490 0.930 . S
H467 C462 0.931 . S
Co468 N465 2.135 . S
Co468 N471 2.121 . S
Co468 O476 2.055 . S
Co468 O479 2.039 . S
Co468 N482 2.140 . S
C469 O470 1.227 . S
C469 O479 1.265 . S
O470 C469 1.227 . S
N471 Co468 2.121 . S
N471 C473 1.375 . S
N471 C474 1.313 . S
C472 C473 1.338 . S
C472 N475 1.377 . S
C472 H492 0.930 . S
C473 N471 1.375 . S
C473 C472 1.338 . S
C473 H477 0.931 . S
C474 N471 1.313 . S
C474 N475 1.344 . S
C474 H478 0.930 . S
N475 C472 1.377 . S
N475 C474 1.344 . S
O476 Co468 2.055 . S
O476 C480 1.253 . S
H477 C473 0.931 . S
H478 C474 0.930 . S
O479 Co468 2.039 . S
O479 C469 1.265 . S
C480 O476 1.253 . S
C480 O481 1.227 . S
O481 C480 1.227 . S
N482 Co468 2.140 . S
N482 C485 1.346 . S
N482 C486 1.345 . S
C483 C484 1.387 . S
C483 C487 1.391 . S
C484 C483 1.387 . S
C484 C485 1.369 . S
C484 H493 0.929 . S
C485 N482 1.346 . S
C485 C484 1.369 . S
C485 H488 0.928 . S
C486 N482 1.345 . S
C486 C487 1.371 . S
C486 H489 0.931 . S
C487 C483 1.391 . S
C487 C486 1.371 . S
C487 H494 0.930 . S
H488 C485 0.928 . S
H489 C486 0.931 . S
H490 C466 0.930 . S
H491 C463 0.930 . S
H492 C472 0.930 . S
H493 C484 0.929 . S
H494 C487 0.930 . S
C495 C496 1.351 . S
C495 N498 1.368 . S
C495 H500 0.931 . S
C496 C495 1.351 . S
C496 N497 1.373 . S
C496 H524 0.930 . S
N497 C496 1.373 . S
N497 C499 1.340 . S
N498 C495 1.368 . S
N498 C499 1.321 . S
N498 Co501 2.135 . S
C499 N497 1.340 . S
C499 N498 1.321 . S
C499 H523 0.930 . S
H500 C495 0.931 . S
Co501 N498 2.135 . S
Co501 N504 2.121 . S
Co501 O509 2.055 . S
Co501 O512 2.039 . S
Co501 N515 2.140 . S
C502 O503 1.227 . S
C502 O512 1.265 . S
O503 C502 1.227 . S
N504 Co501 2.121 . S
N504 C506 1.375 . S
N504 C507 1.313 . S
C505 C506 1.338 . S
C505 N508 1.377 . S
C505 H525 0.930 . S
C506 N504 1.375 . S
C506 C505 1.338 . S
C506 H510 0.931 . S
C507 N504 1.313 . S
C507 N508 1.344 . S
C507 H511 0.930 . S
N508 C505 1.377 . S
N508 C507 1.344 . S
O509 Co501 2.055 . S
O509 C513 1.253 . S
H510 C506 0.931 . S
H511 C507 0.930 . S
O512 Co501 2.039 . S
O512 C502 1.265 . S
C513 O509 1.253 . S
C513 O514 1.227 . S
O514 C513 1.227 . S
N515 Co501 2.140 . S
N515 C518 1.346 . S
N515 C519 1.345 . S
C516 C517 1.387 . S
C516 C520 1.391 . S
C517 C516 1.387 . S
C517 C518 1.369 . S
C517 H526 0.929 . S
C518 N515 1.346 . S
C518 C517 1.369 . S
C518 H521 0.928 . S
C519 N515 1.345 . S
C519 C520 1.371 . S
C519 H522 0.931 . S
C520 C516 1.391 . S
C520 C519 1.371 . S
C520 H527 0.930 . S
H521 C518 0.928 . S
H522 C519 0.931 . S
H523 C499 0.930 . S
H524 C496 0.930 . S
H525 C505 0.930 . S
H526 C517 0.929 . S
H527 C520 0.930 . S
C528 C529 1.351 . S
C528 N531 1.368 . S
C528 H533 0.931 . S
C529 C528 1.351 . S
C529 N530 1.373 . S
C529 H557 0.930 . S
N530 C529 1.373 . S
N530 C532 1.340 . S
N531 C528 1.368 . S
N531 C532 1.321 . S
N531 Co534 2.135 . S
C532 N530 1.340 . S
C532 N531 1.321 . S
C532 H556 0.930 . S
H533 C528 0.931 . S
Co534 N531 2.135 . S
Co534 N537 2.121 . S
Co534 O542 2.055 . S
Co534 O545 2.039 . S
Co534 N548 2.140 . S
C535 O536 1.227 . S
C535 O545 1.265 . S
O536 C535 1.227 . S
N537 Co534 2.121 . S
N537 C539 1.375 . S
N537 C540 1.313 . S
C538 C539 1.338 . S
C538 N541 1.377 . S
C538 H558 0.930 . S
C539 N537 1.375 . S
C539 C538 1.338 . S
C539 H543 0.931 . S
C540 N537 1.313 . S
C540 N541 1.344 . S
C540 H544 0.930 . S
N541 C538 1.377 . S
N541 C540 1.344 . S
O542 Co534 2.055 . S
O542 C546 1.253 . S
H543 C539 0.931 . S
H544 C540 0.930 . S
O545 Co534 2.039 . S
O545 C535 1.265 . S
C546 O542 1.253 . S
C546 O547 1.227 . S
O547 C546 1.227 . S
N548 Co534 2.140 . S
N548 C551 1.346 . S
N548 C552 1.345 . S
C549 C550 1.387 . S
C549 C553 1.391 . S
C550 C549 1.387 . S
C550 C551 1.369 . S
C550 H559 0.929 . S
C551 N548 1.346 . S
C551 C550 1.369 . S
C551 H554 0.928 . S
C552 N548 1.345 . S
C552 C553 1.371 . S
C552 H555 0.931 . S
C553 C549 1.391 . S
C553 C552 1.371 . S
C553 H560 0.930 . S
H554 C551 0.928 . S
H555 C552 0.931 . S
H556 C532 0.930 . S
H557 C529 0.930 . S
H558 C538 0.930 . S
H559 C550 0.929 . S
H560 C553 0.930 . S
C561 C562 1.351 . S
C561 N564 1.368 . S
C561 H566 0.931 . S
C562 C561 1.351 . S
C562 N563 1.373 . S
C562 H590 0.930 . S
N563 C562 1.373 . S
N563 C565 1.340 . S
N564 C561 1.368 . S
N564 C565 1.321 . S
N564 Co567 2.135 . S
C565 N563 1.340 . S
C565 N564 1.321 . S
C565 H589 0.930 . S
H566 C561 0.931 . S
Co567 N564 2.135 . S
Co567 N570 2.121 . S
Co567 O575 2.055 . S
Co567 O578 2.039 . S
Co567 N581 2.140 . S
C568 O569 1.227 . S
C568 O578 1.265 . S
O569 C568 1.227 . S
N570 Co567 2.121 . S
N570 C572 1.375 . S
N570 C573 1.313 . S
C571 C572 1.338 . S
C571 N574 1.377 . S
C571 H591 0.930 . S
C572 N570 1.375 . S
C572 C571 1.338 . S
C572 H576 0.931 . S
C573 N570 1.313 . S
C573 N574 1.344 . S
C573 H577 0.930 . S
N574 C571 1.377 . S
N574 C573 1.344 . S
O575 Co567 2.055 . S
O575 C579 1.253 . S
H576 C572 0.931 . S
H577 C573 0.930 . S
O578 Co567 2.039 . S
O578 C568 1.265 . S
C579 O575 1.253 . S
C579 O580 1.227 . S
O580 C579 1.227 . S
N581 Co567 2.140 . S
N581 C584 1.346 . S
N581 C585 1.345 . S
C582 C583 1.387 . S
C582 C586 1.391 . S
C583 C582 1.387 . S
C583 C584 1.369 . S
C583 H592 0.929 . S
C584 N581 1.346 . S
C584 C583 1.369 . S
C584 H587 0.928 . S
C585 N581 1.345 . S
C585 C586 1.371 . S
C585 H588 0.931 . S
C586 C582 1.391 . S
C586 C585 1.371 . S
C586 H593 0.930 . S
H587 C584 0.928 . S
H588 C585 0.931 . S
H589 C565 0.930 . S
H590 C562 0.930 . S
H591 C571 0.930 . S
H592 C583 0.929 . S
H593 C586 0.930 . S
H594 C612 0.951 . S
H595 C614 0.951 . S
H596 C616 0.950 . S
H597 C617 0.950 . S
H598 C619 0.950 . S
H599 C622 0.950 . S
H600 C623 0.950 . S
H601 C625 0.950 . S
H602 C626 0.950 . S
H603 C627 0.951 . S
H604 C629 0.951 . S
H605 C631 0.950 . S
H606 C632 0.950 . S
H607 C634 0.950 . S
H608 C637 0.950 . S
H609 C638 0.950 . S
H610 C640 0.950 . S
H611 C641 0.950 . S
C612 H594 0.951 . S
C612 C613 1.366 . S
C612 C614 1.388 . S
C613 C612 1.366 . S
C613 C617 1.385 . S
C614 H595 0.951 . S
C614 C612 1.388 . S
C614 C615 1.366 . S
C615 C614 1.366 . S
C615 C616 1.414 . S
C615 C618 1.499 . S
C616 H596 0.950 . S
C616 C615 1.414 . S
C616 C617 1.374 . S
C617 H597 0.950 . S
C617 C613 1.385 . S
C617 C616 1.374 . S
C618 C615 1.499 . S
C618 C619 1.373 . S
C618 C620 1.389 . S
C619 H598 0.950 . S
C619 C618 1.373 . S
C619 C635 1.377 . S
C620 C618 1.389 . S
C620 C621 1.524 . S
C620 C634 1.377 . S
C621 C620 1.524 . S
C621 C622 1.397 . S
C621 C626 1.363 . S
C622 H599 0.950 . S
C622 C621 1.397 . S
C622 C623 1.334 . S
C623 H600 0.950 . S
C623 C622 1.334 . S
C623 C624 1.287 . S
C624 C623 1.287 . S
C624 C625 1.524 . S
C624 H643 0.913 . S
C625 H601 0.950 . S
C625 C624 1.524 . S
C625 C626 1.415 . S
C626 H602 0.950 . S
C626 C621 1.363 . S
C626 C625 1.415 . S
C627 H603 0.951 . S
C627 C628 1.366 . S
C627 C629 1.388 . S
C628 C627 1.366 . S
C628 C632 1.385 . S
C629 H604 0.951 . S
C629 C627 1.388 . S
C629 C630 1.366 . S
C630 C629 1.366 . S
C630 C631 1.414 . S
C630 C633 1.499 . S
C631 H605 0.950 . S
C631 C630 1.414 . S
C631 C632 1.374 . S
C632 H606 0.950 . S
C632 C628 1.385 . S
C632 C631 1.374 . S
C633 C630 1.499 . S
C633 C634 1.373 . S
C633 C635 1.389 . S
C634 H607 0.950 . S
C634 C620 1.377 . S
C634 C633 1.373 . S
C635 C619 1.377 . S
C635 C633 1.389 . S
C635 C636 1.524 . S
C636 C635 1.524 . S
C636 C637 1.397 . S
C636 C641 1.363 . S
C637 H608 0.950 . S
C637 C636 1.397 . S
C637 C638 1.334 . S
C638 H609 0.950 . S
C638 C637 1.334 . S
C638 C639 1.287 . S
C639 C638 1.287 . S
C639 C640 1.524 . S
C639 H642 0.999 . S
C640 H610 0.950 . S
C640 C639 1.524 . S
C640 C641 1.415 . S
C641 H611 0.950 . S
C641 C636 1.363 . S
C641 C640 1.415 . S
H642 C639 0.999 . S
H643 C624 0.913 . S
H644 C662 0.951 . S
H645 C664 0.951 . S
H646 C666 0.950 . S
H647 C667 0.950 . S
H648 C669 0.950 . S
H649 C672 0.950 . S
H650 C673 0.950 . S
H651 C675 0.950 . S
H652 C676 0.950 . S
H653 C677 0.951 . S
H654 C679 0.951 . S
H655 C681 0.950 . S
H656 C682 0.950 . S
H657 C684 0.950 . S
H658 C687 0.950 . S
H659 C688 0.950 . S
H660 C690 0.950 . S
H661 C691 0.950 . S
C662 H644 0.951 . S
C662 C663 1.366 . S
C662 C664 1.388 . S
C663 C662 1.366 . S
C663 C667 1.385 . S
C664 H645 0.951 . S
C664 C662 1.388 . S
C664 C665 1.366 . S
C665 C664 1.366 . S
C665 C666 1.414 . S
C665 C668 1.499 . S
C666 H646 0.950 . S
C666 C665 1.414 . S
C666 C667 1.374 . S
C667 H647 0.950 . S
C667 C663 1.385 . S
C667 C666 1.374 . S
C668 C665 1.499 . S
C668 C669 1.373 . S
C668 C670 1.389 . S
C669 H648 0.950 . S
C669 C668 1.373 . S
C669 C685 1.377 . S
C670 C668 1.389 . S
C670 C671 1.524 . S
C670 C684 1.377 . S
C671 C670 1.524 . S
C671 C672 1.397 . S
C671 C676 1.363 . S
C672 H649 0.950 . S
C672 C671 1.397 . S
C672 C673 1.334 . S
C673 H650 0.950 . S
C673 C672 1.334 . S
C673 C674 1.287 . S
C674 C673 1.287 . S
C674 C675 1.524 . S
C674 H693 0.913 . S
C675 H651 0.950 . S
C675 C674 1.524 . S
C675 C676 1.415 . S
C676 H652 0.950 . S
C676 C671 1.363 . S
C676 C675 1.415 . S
C677 H653 0.951 . S
C677 C678 1.366 . S
C677 C679 1.388 . S
C678 C677 1.366 . S
C678 C682 1.385 . S
C679 H654 0.951 . S
C679 C677 1.388 . S
C679 C680 1.366 . S
C680 C679 1.366 . S
C680 C681 1.414 . S
C680 C683 1.499 . S
C681 H655 0.950 . S
C681 C680 1.414 . S
C681 C682 1.374 . S
C682 H656 0.950 . S
C682 C678 1.385 . S
C682 C681 1.374 . S
C683 C680 1.499 . S
C683 C684 1.373 . S
C683 C685 1.389 . S
C684 H657 0.950 . S
C684 C670 1.377 . S
C684 C683 1.373 . S
C685 C669 1.377 . S
C685 C683 1.389 . S
C685 C686 1.524 . S
C686 C685 1.524 . S
C686 C687 1.397 . S
C686 C691 1.363 . S
C687 H658 0.950 . S
C687 C686 1.397 . S
C687 C688 1.334 . S
C688 H659 0.950 . S
C688 C687 1.334 . S
C688 C689 1.287 . S
C689 C688 1.287 . S
C689 C690 1.524 . S
C689 H692 0.999 . S
C690 H660 0.950 . S
C690 C689 1.524 . S
C690 C691 1.415 . S
C691 H661 0.950 . S
C691 C686 1.363 . S
C691 C690 1.415 . S
H692 C689 0.999 . S
H693 C674 0.913 . S
H694 C712 0.951 . S
H695 C714 0.951 . S
H696 C716 0.950 . S
H697 C717 0.950 . S
H698 C719 0.950 . S
H699 C722 0.950 . S
H700 C723 0.950 . S
H701 C725 0.950 . S
H702 C726 0.950 . S
H703 C727 0.951 . S
H704 C729 0.951 . S
H705 C731 0.950 . S
H706 C732 0.950 . S
H707 C734 0.950 . S
H708 C737 0.950 . S
H709 C738 0.950 . S
H710 C740 0.950 . S
H711 C741 0.950 . S
C712 H694 0.951 . S
C712 C713 1.366 . S
C712 C714 1.388 . S
C713 C712 1.366 . S
C713 C717 1.385 . S
C714 H695 0.951 . S
C714 C712 1.388 . S
C714 C715 1.366 . S
C715 C714 1.366 . S
C715 C716 1.414 . S
C715 C718 1.499 . S
C716 H696 0.950 . S
C716 C715 1.414 . S
C716 C717 1.374 . S
C717 H697 0.950 . S
C717 C713 1.385 . S
C717 C716 1.374 . S
C718 C715 1.499 . S
C718 C719 1.373 . S
C718 C720 1.389 . S
C719 H698 0.950 . S
C719 C718 1.373 . S
C719 C735 1.377 . S
C720 C718 1.389 . S
C720 C721 1.524 . S
C720 C734 1.377 . S
C721 C720 1.524 . S
C721 C722 1.397 . S
C721 C726 1.363 . S
C722 H699 0.950 . S
C722 C721 1.397 . S
C722 C723 1.334 . S
C723 H700 0.950 . S
C723 C722 1.334 . S
C723 C724 1.287 . S
C724 C723 1.287 . S
C724 C725 1.524 . S
C724 H743 0.913 . S
C725 H701 0.950 . S
C725 C724 1.524 . S
C725 C726 1.415 . S
C726 H702 0.950 . S
C726 C721 1.363 . S
C726 C725 1.415 . S
C727 H703 0.951 . S
C727 C728 1.366 . S
C727 C729 1.388 . S
C728 C727 1.366 . S
C728 C732 1.385 . S
C729 H704 0.951 . S
C729 C727 1.388 . S
C729 C730 1.366 . S
C730 C729 1.366 . S
C730 C731 1.414 . S
C730 C733 1.499 . S
C731 H705 0.950 . S
C731 C730 1.414 . S
C731 C732 1.374 . S
C732 H706 0.950 . S
C732 C728 1.385 . S
C732 C731 1.374 . S
C733 C730 1.499 . S
C733 C734 1.373 . S
C733 C735 1.389 . S
C734 H707 0.950 . S
C734 C720 1.377 . S
C734 C733 1.373 . S
C735 C719 1.377 . S
C735 C733 1.389 . S
C735 C736 1.524 . S
C736 C735 1.524 . S
C736 C737 1.397 . S
C736 C741 1.363 . S
C737 H708 0.950 . S
C737 C736 1.397 . S
C737 C738 1.334 1_545 S
C738 H709 0.950 . S
C738 C737 1.334 1_565 S
C738 C739 1.287 . S
C739 C738 1.287 . S
C739 C740 1.524 . S
C739 H742 0.999 . S
C740 H710 0.950 . S
C740 C739 1.524 . S
C740 C741 1.415 1_565 S
C741 H711 0.950 . S
C741 C736 1.363 . S
C741 C740 1.415 1_545 S
H742 C739 0.999 . S
H743 C724 0.913 . S
H744 C762 0.951 . S
H745 C764 0.951 . S
H746 C766 0.950 . S
H747 C767 0.950 . S
H748 C769 0.950 . S
H749 C772 0.950 . S
H750 C773 0.950 . S
H751 C775 0.950 . S
H752 C776 0.950 . S
H753 C777 0.951 . S
H754 C779 0.951 . S
H755 C781 0.950 . S
H756 C782 0.950 . S
H757 C784 0.950 . S
H758 C787 0.950 . S
H759 C788 0.950 . S
H760 C790 0.950 . S
H761 C791 0.950 . S
C762 H744 0.951 . S
C762 C763 1.366 . S
C762 C764 1.388 . S
C763 C762 1.366 . S
C763 C767 1.385 . S
C764 H745 0.951 . S
C764 C762 1.388 . S
C764 C765 1.366 . S
C765 C764 1.366 . S
C765 C766 1.414 . S
C765 C768 1.499 . S
C766 H746 0.950 . S
C766 C765 1.414 . S
C766 C767 1.374 . S
C767 H747 0.950 . S
C767 C763 1.385 . S
C767 C766 1.374 . S
C768 C765 1.499 . S
C768 C769 1.373 . S
C768 C770 1.389 . S
C769 H748 0.950 . S
C769 C768 1.373 . S
C769 C785 1.377 . S
C770 C768 1.389 . S
C770 C771 1.524 . S
C770 C784 1.377 . S
C771 C770 1.524 . S
C771 C772 1.397 . S
C771 C776 1.363 . S
C772 H749 0.950 . S
C772 C771 1.397 . S
C772 C773 1.334 . S
C773 H750 0.950 . S
C773 C772 1.334 . S
C773 C774 1.287 . S
C774 C773 1.287 . S
C774 C775 1.524 . S
C774 H793 0.913 . S
C775 H751 0.950 . S
C775 C774 1.524 . S
C775 C776 1.415 . S
C776 H752 0.950 . S
C776 C771 1.363 . S
C776 C775 1.415 . S
C777 H753 0.951 . S
C777 C778 1.366 . S
C777 C779 1.388 . S
C778 C777 1.366 . S
C778 C782 1.385 . S
C779 H754 0.951 . S
C779 C777 1.388 . S
C779 C780 1.366 . S
C780 C779 1.366 . S
C780 C781 1.414 . S
C780 C783 1.499 . S
C781 H755 0.950 . S
C781 C780 1.414 . S
C781 C782 1.374 . S
C782 H756 0.950 . S
C782 C778 1.385 . S
C782 C781 1.374 . S
C783 C780 1.499 . S
C783 C784 1.373 . S
C783 C785 1.389 . S
C784 H757 0.950 . S
C784 C770 1.377 . S
C784 C783 1.373 . S
C785 C769 1.377 . S
C785 C783 1.389 . S
C785 C786 1.524 . S
C786 C785 1.524 . S
C786 C787 1.397 . S
C786 C791 1.363 . S
C787 H758 0.950 . S
C787 C786 1.397 . S
C787 C788 1.334 . S
C788 H759 0.950 . S
C788 C787 1.334 . S
C788 C789 1.287 . S
C789 C788 1.287 . S
C789 C790 1.524 . S
C789 H792 0.999 . S
C790 H760 0.950 . S
C790 C789 1.524 . S
C790 C791 1.415 . S
C791 H761 0.950 . S
C791 C786 1.363 . S
C791 C790 1.415 . S
H792 C789 0.999 . S
H793 C774 0.913 . S
H794 C812 0.951 . S
H795 C814 0.951 . S
H796 C816 0.950 . S
H797 C817 0.950 . S
H798 C819 0.950 . S
H799 C822 0.950 . S
H800 C823 0.950 . S
H801 C825 0.950 1_655 S
H802 C826 0.950 . S
H803 C827 0.951 . S
H804 C829 0.951 . S
H805 C831 0.950 . S
H806 C832 0.950 . S
H807 C834 0.950 . S
H808 C837 0.950 . S
H809 C838 0.950 . S
H810 C840 0.950 . S
H811 C841 0.950 . S
C812 H794 0.951 . S
C812 C813 1.366 . S
C812 C814 1.388 . S
C813 C812 1.366 . S
C813 C817 1.385 . S
C814 H795 0.951 . S
C814 C812 1.388 . S
C814 C815 1.366 . S
C815 C814 1.366 . S
C815 C816 1.414 . S
C815 C818 1.499 . S
C816 H796 0.950 . S
C816 C815 1.414 . S
C816 C817 1.374 . S
C817 H797 0.950 . S
C817 C813 1.385 . S
C817 C816 1.374 . S
C818 C815 1.499 . S
C818 C819 1.373 . S
C818 C820 1.389 . S
C819 H798 0.950 . S
C819 C818 1.373 . S
C819 C835 1.377 . S
C820 C818 1.389 . S
C820 C821 1.524 . S
C820 C834 1.377 . S
C821 C820 1.524 . S
C821 C822 1.397 . S
C821 C826 1.363 . S
C822 H799 0.950 . S
C822 C821 1.397 . S
C822 C823 1.334 . S
C823 H800 0.950 . S
C823 C822 1.334 . S
C823 C824 1.287 . S
C824 C823 1.287 . S
C824 C825 1.524 . S
C824 H843 0.913 . S
C825 H801 0.950 1_455 S
C825 C824 1.524 . S
C825 C826 1.415 . S
C826 H802 0.950 . S
C826 C821 1.363 . S
C826 C825 1.415 . S
C827 H803 0.951 . S
C827 C828 1.366 . S
C827 C829 1.388 . S
C828 C827 1.366 . S
C828 C832 1.385 . S
C829 H804 0.951 . S
C829 C827 1.388 . S
C829 C830 1.366 . S
C830 C829 1.366 . S
C830 C831 1.414 . S
C830 C833 1.499 . S
C831 H805 0.950 . S
C831 C830 1.414 . S
C831 C832 1.374 . S
C832 H806 0.950 . S
C832 C828 1.385 . S
C832 C831 1.374 . S
C833 C830 1.499 . S
C833 C834 1.373 . S
C833 C835 1.389 . S
C834 H807 0.950 . S
C834 C820 1.377 . S
C834 C833 1.373 . S
C835 C819 1.377 . S
C835 C833 1.389 . S
C835 C836 1.524 . S
C836 C835 1.524 . S
C836 C837 1.397 . S
C836 C841 1.363 . S
C837 H808 0.950 . S
C837 C836 1.397 . S
C837 C838 1.334 . S
C838 H809 0.950 . S
C838 C837 1.334 . S
C838 C839 1.287 . S
C839 C838 1.287 . S
C839 C840 1.524 . S
C839 H842 0.999 . S
C840 H810 0.950 . S
C840 C839 1.524 . S
C840 C841 1.415 . S
C841 H811 0.950 . S
C841 C836 1.363 . S
C841 C840 1.415 . S
H842 C839 0.999 . S
H843 C824 0.913 . S
H844 C862 0.951 . S
H845 C864 0.951 . S
H846 C866 0.950 . S
H847 C867 0.950 . S
H848 C869 0.950 . S
H849 C872 0.950 . S
H850 C873 0.950 . S
H851 C875 0.950 . S
H852 C876 0.950 . S
H853 C877 0.951 . S
H854 C879 0.951 . S
H855 C881 0.950 . S
H856 C882 0.950 . S
H857 C884 0.950 . S
H858 C887 0.950 . S
H859 C888 0.950 . S
H860 C890 0.950 . S
H861 C891 0.950 . S
C862 H844 0.951 . S
C862 C863 1.366 . S
C862 C864 1.388 . S
C863 C862 1.366 . S
C863 C867 1.385 . S
C864 H845 0.951 . S
C864 C862 1.388 . S
C864 C865 1.366 . S
C865 C864 1.366 . S
C865 C866 1.414 . S
C865 C868 1.499 . S
C866 H846 0.950 . S
C866 C865 1.414 . S
C866 C867 1.374 . S
C867 H847 0.950 . S
C867 C863 1.385 . S
C867 C866 1.374 . S
C868 C865 1.499 . S
C868 C869 1.373 . S
C868 C870 1.389 . S
C869 H848 0.950 . S
C869 C868 1.373 . S
C869 C885 1.377 . S
C870 C868 1.389 . S
C870 C871 1.524 . S
C870 C884 1.377 . S
C871 C870 1.524 . S
C871 C872 1.397 . S
C871 C876 1.363 . S
C872 H849 0.950 . S
C872 C871 1.397 . S
C872 C873 1.334 . S
C873 H850 0.950 . S
C873 C872 1.334 . S
C873 C874 1.287 . S
C874 C873 1.287 . S
C874 C875 1.524 . S
C874 H893 0.913 . S
C875 H851 0.950 . S
C875 C874 1.524 . S
C875 C876 1.415 . S
C876 H852 0.950 . S
C876 C871 1.363 . S
C876 C875 1.415 . S
C877 H853 0.951 . S
C877 C878 1.366 . S
C877 C879 1.388 . S
C878 C877 1.366 . S
C878 C882 1.385 . S
C879 H854 0.951 . S
C879 C877 1.388 . S
C879 C880 1.366 . S
C880 C879 1.366 . S
C880 C881 1.414 . S
C880 C883 1.499 . S
C881 H855 0.950 . S
C881 C880 1.414 . S
C881 C882 1.374 . S
C882 H856 0.950 . S
C882 C878 1.385 . S
C882 C881 1.374 . S
C883 C880 1.499 . S
C883 C884 1.373 . S
C883 C885 1.389 . S
C884 H857 0.950 . S
C884 C870 1.377 . S
C884 C883 1.373 . S
C885 C869 1.377 . S
C885 C883 1.389 . S
C885 C886 1.524 . S
C886 C885 1.524 . S
C886 C887 1.397 . S
C886 C891 1.363 . S
C887 H858 0.950 . S
C887 C886 1.397 . S
C887 C888 1.334 . S
C888 H859 0.950 . S
C888 C887 1.334 . S
C888 C889 1.287 . S
C889 C888 1.287 . S
C889 C890 1.524 . S
C889 H892 0.999 . S
C890 H860 0.950 . S
C890 C889 1.524 . S
C890 C891 1.415 . S
C891 H861 0.950 . S
C891 C886 1.363 . S
C891 C890 1.415 . S
H892 C889 0.999 . S
H893 C874 0.913 . S
H894 C912 0.951 . S
H895 C914 0.951 . S
H896 C916 0.950 . S
H897 C917 0.950 . S
H898 C919 0.950 . S
H899 C922 0.950 . S
H900 C923 0.950 . S
H901 C925 0.950 . S
H902 C926 0.950 . S
H903 C927 0.951 . S
H904 C929 0.951 . S
H905 C931 0.950 . S
H906 C932 0.950 . S
H907 C934 0.950 . S
H908 C937 0.950 . S
H909 C938 0.950 . S
H910 C940 0.950 . S
H911 C941 0.950 . S
C912 H894 0.951 . S
C912 C913 1.366 . S
C912 C914 1.388 . S
C913 C912 1.366 . S
C913 C917 1.385 . S
C914 H895 0.951 . S
C914 C912 1.388 . S
C914 C915 1.366 . S
C915 C914 1.366 . S
C915 C916 1.414 . S
C915 C918 1.499 . S
C916 H896 0.950 . S
C916 C915 1.414 . S
C916 C917 1.374 . S
C917 H897 0.950 . S
C917 C913 1.385 . S
C917 C916 1.374 . S
C918 C915 1.499 . S
C918 C919 1.373 . S
C918 C920 1.389 . S
C919 H898 0.950 . S
C919 C918 1.373 . S
C919 C935 1.377 . S
C920 C918 1.389 . S
C920 C921 1.524 . S
C920 C934 1.377 . S
C921 C920 1.524 . S
C921 C922 1.397 . S
C921 C926 1.363 . S
C922 H899 0.950 . S
C922 C921 1.397 . S
C922 C923 1.334 . S
C923 H900 0.950 . S
C923 C922 1.334 . S
C923 C924 1.287 . S
C924 C923 1.287 . S
C924 C925 1.524 . S
C924 H943 0.913 . S
C925 H901 0.950 . S
C925 C924 1.524 . S
C925 C926 1.415 . S
C926 H902 0.950 . S
C926 C921 1.363 . S
C926 C925 1.415 . S
C927 H903 0.951 . S
C927 C928 1.366 . S
C927 C929 1.388 . S
C928 C927 1.366 . S
C928 C932 1.385 . S
C929 H904 0.951 . S
C929 C927 1.388 . S
C929 C930 1.366 . S
C930 C929 1.366 . S
C930 C931 1.414 . S
C930 C933 1.499 . S
C931 H905 0.950 . S
C931 C930 1.414 . S
C931 C932 1.374 . S
C932 H906 0.950 . S
C932 C928 1.385 . S
C932 C931 1.374 . S
C933 C930 1.499 . S
C933 C934 1.373 . S
C933 C935 1.389 . S
C934 H907 0.950 . S
C934 C920 1.377 . S
C934 C933 1.373 . S
C935 C919 1.377 . S
C935 C933 1.389 . S
C935 C936 1.524 . S
C936 C935 1.524 . S
C936 C937 1.397 . S
C936 C941 1.363 . S
C937 H908 0.950 . S
C937 C936 1.397 . S
C937 C938 1.334 . S
C938 H909 0.950 . S
C938 C937 1.334 . S
C938 C939 1.287 . S
C939 C938 1.287 . S
C939 C940 1.524 . S
C939 H942 0.999 . S
C940 H910 0.950 . S
C940 C939 1.524 . S
C940 C941 1.415 . S
C941 H911 0.950 . S
C941 C936 1.363 . S
C941 C940 1.415 . S
H942 C939 0.999 . S
H943 C924 0.913 . S
H944 C962 0.951 . S
H945 C964 0.951 . S
H946 C966 0.950 . S
H947 C967 0.950 . S
H948 C969 0.950 . S
H949 C972 0.950 . S
H950 C973 0.950 . S
H951 C975 0.950 . S
H952 C976 0.950 . S
H953 C977 0.951 . S
H954 C979 0.951 . S
H955 C981 0.950 . S
H956 C982 0.950 . S
H957 C984 0.950 . S
H958 C987 0.950 . S
H959 C988 0.950 . S
H960 C990 0.950 . S
H961 C991 0.950 . S
C962 H944 0.951 . S
C962 C963 1.366 . S
C962 C964 1.388 . S
C963 C962 1.366 . S
C963 C967 1.385 . S
C964 H945 0.951 . S
C964 C962 1.388 . S
C964 C965 1.366 . S
C965 C964 1.366 . S
C965 C966 1.414 . S
C965 C968 1.499 . S
C966 H946 0.950 . S
C966 C965 1.414 . S
C966 C967 1.374 . S
C967 H947 0.950 . S
C967 C963 1.385 . S
C967 C966 1.374 . S
C968 C965 1.499 . S
C968 C969 1.373 . S
C968 C970 1.389 . S
C969 H948 0.950 . S
C969 C968 1.373 . S
C969 C985 1.377 1_565 S
C970 C968 1.389 . S
C970 C971 1.536 . S
C970 C984 1.377 1_565 S
C971 C970 1.536 . S
C971 C972 1.421 . S
C971 C976 1.327 1_565 S
C972 H949 0.950 . S
C972 C971 1.421 . S
C972 C973 1.334 . S
C973 H950 0.950 . S
C973 C972 1.334 . S
C973 C974 1.287 1_565 S
C974 C973 1.287 1_545 S
C974 C975 1.524 . S
C974 H993 0.913 . S
C975 H951 0.950 . S
C975 C974 1.524 . S
C975 C976 1.415 . S
C976 H952 0.950 . S
C976 C971 1.327 1_545 S
C976 C975 1.415 . S
C977 H953 0.951 . S
C977 C978 1.366 . S
C977 C979 1.388 . S
C978 C977 1.366 . S
C978 C982 1.385 . S
C979 H954 0.951 . S
C979 C977 1.388 . S
C979 C980 1.366 . S
C980 C979 1.366 . S
C980 C981 1.414 . S
C980 C983 1.499 . S
C981 H955 0.950 . S
C981 C980 1.414 . S
C981 C982 1.374 . S
C982 H956 0.950 . S
C982 C978 1.385 . S
C982 C981 1.374 . S
C983 C980 1.499 . S
C983 C984 1.373 . S
C983 C985 1.389 . S
C984 H957 0.950 . S
C984 C970 1.377 1_545 S
C984 C983 1.373 . S
C985 C969 1.377 1_545 S
C985 C983 1.389 . S
C985 C986 1.536 . S
C986 C985 1.536 . S
C986 C987 1.421 . S
C986 C991 1.327 1_545 S
C987 H958 0.950 . S
C987 C986 1.421 . S
C987 C988 1.334 . S
C988 H959 0.950 . S
C988 C987 1.334 . S
C988 C989 1.287 1_545 S
C989 C988 1.287 1_565 S
C989 C990 1.524 . S
C989 H992 0.999 . S
C990 H960 0.950 . S
C990 C989 1.524 . S
C990 C991 1.415 . S
C991 H961 0.950 . S
C991 C986 1.327 1_565 S
C991 C990 1.415 . S
H992 C989 0.999 . S
H993 C974 0.913 . S
H994 C1012 0.951 . S
H995 C1014 0.951 . S
H996 C1016 0.950 . S
H997 C1017 0.950 . S
H998 C1019 0.950 . S
H999 C1022 0.950 . S
H1000 C1023 0.950 . S
H1001 C1025 0.950 . S
H1002 C1026 0.950 . S
H1003 C1027 0.951 . S
H1004 C1029 0.951 . S
H1005 C1031 0.950 . S
H1006 C1032 0.950 . S
H1007 C1034 0.950 . S
H1008 C1037 0.950 . S
H1009 C1038 0.950 . S
H1010 C1040 0.950 . S
H1011 C1041 0.950 . S
C1012 H994 0.951 . S
C1012 C1013 1.366 . S
C1012 C1014 1.388 . S
C1013 C1012 1.366 . S
C1013 C1017 1.385 . S
C1014 H995 0.951 . S
C1014 C1012 1.388 . S
C1014 C1015 1.366 . S
C1015 C1014 1.366 . S
C1015 C1016 1.414 . S
C1015 C1018 1.499 . S
C1016 H996 0.950 . S
C1016 C1015 1.414 . S
C1016 C1017 1.374 . S
C1017 H997 0.950 . S
C1017 C1013 1.385 . S
C1017 C1016 1.374 . S
C1018 C1015 1.499 . S
C1018 C1019 1.373 . S
C1018 C1020 1.389 . S
C1019 H998 0.950 . S
C1019 C1018 1.373 . S
C1019 C1035 1.377 1_455 S
C1020 C1018 1.389 . S
C1020 C1021 1.524 . S
C1020 C1034 1.377 1_455 S
C1021 C1020 1.524 . S
C1021 C1022 1.397 . S
C1021 C1026 1.363 . S
C1022 H999 0.950 . S
C1022 C1021 1.397 . S
C1022 C1023 1.334 . S
C1023 H1000 0.950 . S
C1023 C1022 1.334 . S
C1023 C1024 1.287 . S
C1024 C1023 1.287 . S
C1024 C1025 1.524 . S
C1024 H1043 0.913 . S
C1025 H1001 0.950 . S
C1025 C1024 1.524 . S
C1025 C1026 1.415 . S
C1026 H1002 0.950 . S
C1026 C1021 1.363 . S
C1026 C1025 1.415 . S
C1027 H1003 0.951 . S
C1027 C1028 1.366 . S
C1027 C1029 1.388 . S
C1028 C1027 1.366 . S
C1028 C1032 1.385 . S
C1029 H1004 0.951 . S
C1029 C1027 1.388 . S
C1029 C1030 1.366 . S
C1030 C1029 1.366 . S
C1030 C1031 1.414 . S
C1030 C1033 1.499 . S
C1031 H1005 0.950 . S
C1031 C1030 1.414 . S
C1031 C1032 1.374 . S
C1032 H1006 0.950 . S
C1032 C1028 1.385 . S
C1032 C1031 1.374 . S
C1033 C1030 1.499 . S
C1033 C1034 1.373 . S
C1033 C1035 1.389 . S
C1034 H1007 0.950 . S
C1034 C1020 1.377 1_655 S
C1034 C1033 1.373 . S
C1035 C1019 1.377 1_655 S
C1035 C1033 1.389 . S
C1035 C1036 1.524 . S
C1036 C1035 1.524 . S
C1036 C1037 1.397 . S
C1036 C1041 1.363 . S
C1037 H1008 0.950 . S
C1037 C1036 1.397 . S
C1037 C1038 1.334 . S
C1038 H1009 0.950 . S
C1038 C1037 1.334 . S
C1038 C1039 1.287 . S
C1039 C1038 1.287 . S
C1039 C1040 1.524 . S
C1039 H1042 0.999 . S
C1040 H1010 0.950 . S
C1040 C1039 1.524 . S
C1040 C1041 1.415 . S
C1041 H1011 0.950 . S
C1041 C1036 1.363 . S
C1041 C1040 1.415 . S
H1042 C1039 0.999 . S
H1043 C1024 0.913 . S
H1044 C1062 0.951 . S
H1045 C1064 0.951 . S
H1046 C1066 0.950 . S
H1047 C1067 0.950 . S
H1048 C1069 0.950 . S
H1049 C1072 0.950 . S
H1050 C1073 0.950 . S
H1051 C1075 0.950 . S
H1052 C1076 0.950 . S
H1053 C1077 0.951 . S
H1054 C1079 0.951 . S
H1055 C1081 0.950 . S
H1056 C1082 0.950 . S
H1057 C1084 0.950 . S
H1058 C1087 0.950 . S
H1059 C1088 0.950 . S
H1060 C1090 0.950 . S
H1061 C1091 0.950 . S
C1062 H1044 0.951 . S
C1062 C1063 1.366 . S
C1062 C1064 1.388 . S
C1063 C1062 1.366 . S
C1063 C1067 1.385 . S
C1064 H1045 0.951 . S
C1064 C1062 1.388 . S
C1064 C1065 1.366 . S
C1065 C1064 1.366 . S
C1065 C1066 1.414 . S
C1065 C1068 1.499 . S
C1066 H1046 0.950 . S
C1066 C1065 1.414 . S
C1066 C1067 1.374 . S
C1067 H1047 0.950 . S
C1067 C1063 1.385 . S
C1067 C1066 1.374 . S
C1068 C1065 1.499 . S
C1068 C1069 1.373 . S
C1068 C1070 1.389 . S
C1069 H1048 0.950 . S
C1069 C1068 1.373 . S
C1069 C1085 1.377 . S
C1070 C1068 1.389 . S
C1070 C1071 1.524 . S
C1070 C1084 1.377 . S
C1071 C1070 1.524 . S
C1071 C1072 1.397 . S
C1071 C1076 1.363 . S
C1072 H1049 0.950 . S
C1072 C1071 1.397 . S
C1072 C1073 1.334 . S
C1073 H1050 0.950 . S
C1073 C1072 1.334 . S
C1073 C1074 1.287 . S
C1074 C1073 1.287 . S
C1074 C1075 1.524 . S
C1074 H1093 0.913 . S
C1075 H1051 0.950 . S
C1075 C1074 1.524 . S
C1075 C1076 1.415 . S
C1076 H1052 0.950 . S
C1076 C1071 1.363 . S
C1076 C1075 1.415 . S
C1077 H1053 0.951 . S
C1077 C1078 1.366 . S
C1077 C1079 1.388 . S
C1078 C1077 1.366 . S
C1078 C1082 1.385 . S
C1079 H1054 0.951 . S
C1079 C1077 1.388 . S
C1079 C1080 1.366 . S
C1080 C1079 1.366 . S
C1080 C1081 1.414 . S
C1080 C1083 1.499 . S
C1081 H1055 0.950 . S
C1081 C1080 1.414 . S
C1081 C1082 1.374 . S
C1082 H1056 0.950 . S
C1082 C1078 1.385 . S
C1082 C1081 1.374 . S
C1083 C1080 1.499 . S
C1083 C1084 1.373 . S
C1083 C1085 1.389 . S
C1084 H1057 0.950 . S
C1084 C1070 1.377 . S
C1084 C1083 1.373 . S
C1085 C1069 1.377 . S
C1085 C1083 1.389 . S
C1085 C1086 1.524 . S
C1086 C1085 1.524 . S
C1086 C1087 1.397 . S
C1086 C1091 1.363 . S
C1087 H1058 0.950 . S
C1087 C1086 1.397 . S
C1087 C1088 1.334 . S
C1088 H1059 0.950 . S
C1088 C1087 1.334 . S
C1088 C1089 1.287 . S
C1089 C1088 1.287 . S
C1089 C1090 1.524 . S
C1089 H1092 0.999 . S
C1090 H1060 0.950 . S
C1090 C1089 1.524 . S
C1090 C1091 1.415 . S
C1091 H1061 0.950 . S
C1091 C1086 1.363 . S
C1091 C1090 1.415 . S
H1092 C1089 0.999 . S
H1093 C1074 0.913 . S
H1094 C1112 0.951 . S
H1095 C1114 0.951 . S
H1096 C1116 0.950 . S
H1097 C1117 0.950 . S
H1098 C1119 0.950 . S
H1099 C1122 0.950 . S
H1100 C1123 0.950 . S
H1101 C1125 0.950 . S
H1102 C1126 0.950 . S
H1103 C1127 0.951 . S
H1104 C1129 0.951 . S
H1105 C1131 0.950 . S
H1106 C1132 0.950 . S
H1107 C1134 0.950 . S
H1108 C1137 0.950 . S
H1109 C1138 0.950 . S
H1110 C1140 0.950 . S
H1111 C1141 0.950 . S
C1112 H1094 0.951 . S
C1112 C1113 1.366 . S
C1112 C1114 1.388 . S
C1113 C1112 1.366 . S
C1113 C1117 1.385 . S
C1114 H1095 0.951 . S
C1114 C1112 1.388 . S
C1114 C1115 1.366 . S
C1115 C1114 1.366 . S
C1115 C1116 1.414 . S
C1115 C1118 1.499 . S
C1116 H1096 0.950 . S
C1116 C1115 1.414 . S
C1116 C1117 1.374 . S
C1117 H1097 0.950 . S
C1117 C1113 1.385 . S
C1117 C1116 1.374 . S
C1118 C1115 1.499 . S
C1118 C1119 1.373 . S
C1118 C1120 1.389 . S
C1119 H1098 0.950 . S
C1119 C1118 1.373 . S
C1119 C1135 1.377 . S
C1120 C1118 1.389 . S
C1120 C1121 1.524 . S
C1120 C1134 1.377 . S
C1121 C1120 1.524 . S
C1121 C1122 1.397 . S
C1121 C1126 1.363 . S
C1122 H1099 0.950 . S
C1122 C1121 1.397 . S
C1122 C1123 1.334 . S
C1123 H1100 0.950 . S
C1123 C1122 1.334 . S
C1123 C1124 1.287 . S
C1124 C1123 1.287 . S
C1124 C1125 1.524 . S
C1124 H1143 0.913 . S
C1125 H1101 0.950 . S
C1125 C1124 1.524 . S
C1125 C1126 1.415 . S
C1126 H1102 0.950 . S
C1126 C1121 1.363 . S
C1126 C1125 1.415 . S
C1127 H1103 0.951 . S
C1127 C1128 1.366 . S
C1127 C1129 1.388 . S
C1128 C1127 1.366 . S
C1128 C1132 1.385 . S
C1129 H1104 0.951 . S
C1129 C1127 1.388 . S
C1129 C1130 1.366 . S
C1130 C1129 1.366 . S
C1130 C1131 1.414 . S
C1130 C1133 1.499 . S
C1131 H1105 0.950 . S
C1131 C1130 1.414 . S
C1131 C1132 1.374 . S
C1132 H1106 0.950 . S
C1132 C1128 1.385 . S
C1132 C1131 1.374 . S
C1133 C1130 1.499 . S
C1133 C1134 1.373 . S
C1133 C1135 1.389 . S
C1134 H1107 0.950 . S
C1134 C1120 1.377 . S
C1134 C1133 1.373 . S
C1135 C1119 1.377 . S
C1135 C1133 1.389 . S
C1135 C1136 1.524 . S
C1136 C1135 1.524 . S
C1136 C1137 1.397 . S
C1136 C1141 1.363 . S
C1137 H1108 0.950 . S
C1137 C1136 1.397 . S
C1137 C1138 1.334 . S
C1138 H1109 0.950 . S
C1138 C1137 1.334 . S
C1138 C1139 1.287 . S
C1139 C1138 1.287 . S
C1139 C1140 1.524 . S
C1139 H1142 0.999 . S
C1140 H1110 0.950 . S
C1140 C1139 1.524 . S
C1140 C1141 1.415 . S
C1141 H1111 0.950 . S
C1141 C1136 1.363 . S
C1141 C1140 1.415 . S
H1142 C1139 0.999 . S
H1143 C1124 0.913 . S
H1144 C1162 0.951 . S
H1145 C1164 0.951 . S
H1146 C1166 0.950 . S
H1147 C1167 0.950 . S
H1148 C1169 0.950 . S
H1149 C1172 0.950 . S
H1150 C1173 0.950 . S
H1151 C1175 0.950 . S
H1152 C1176 0.950 . S
H1153 C1177 0.951 . S
H1154 C1179 0.951 . S
H1155 C1181 0.950 . S
H1156 C1182 0.950 . S
H1157 C1184 0.950 . S
H1158 C1187 0.950 . S
H1159 C1188 0.950 . S
H1160 C1190 0.950 . S
H1161 C1191 0.950 . S
C1162 H1144 0.951 . S
C1162 C1163 1.366 . S
C1162 C1164 1.388 . S
C1163 C1162 1.366 . S
C1163 C1167 1.385 . S
C1164 H1145 0.951 . S
C1164 C1162 1.388 . S
C1164 C1165 1.366 . S
C1165 C1164 1.366 . S
C1165 C1166 1.414 . S
C1165 C1168 1.499 . S
C1166 H1146 0.950 . S
C1166 C1165 1.414 . S
C1166 C1167 1.374 . S
C1167 H1147 0.950 . S
C1167 C1163 1.385 . S
C1167 C1166 1.374 . S
C1168 C1165 1.499 . S
C1168 C1169 1.373 . S
C1168 C1170 1.389 . S
C1169 H1148 0.950 . S
C1169 C1168 1.373 . S
C1169 C1185 1.377 . S
C1170 C1168 1.389 . S
C1170 C1171 1.524 . S
C1170 C1184 1.377 . S
C1171 C1170 1.524 . S
C1171 C1172 1.397 . S
C1171 C1176 1.363 . S
C1172 H1149 0.950 . S
C1172 C1171 1.397 . S
C1172 C1173 1.334 . S
C1173 H1150 0.950 . S
C1173 C1172 1.334 . S
C1173 C1174 1.287 . S
C1174 C1173 1.287 . S
C1174 C1175 1.524 . S
C1174 H1193 0.913 . S
C1175 H1151 0.950 . S
C1175 C1174 1.524 . S
C1175 C1176 1.415 . S
C1176 H1152 0.950 . S
C1176 C1171 1.363 . S
C1176 C1175 1.415 . S
C1177 H1153 0.951 . S
C1177 C1178 1.366 . S
C1177 C1179 1.388 . S
C1178 C1177 1.366 . S
C1178 C1182 1.385 . S
C1179 H1154 0.951 . S
C1179 C1177 1.388 . S
C1179 C1180 1.366 . S
C1180 C1179 1.366 . S
C1180 C1181 1.414 . S
C1180 C1183 1.499 . S
C1181 H1155 0.950 . S
C1181 C1180 1.414 . S
C1181 C1182 1.374 . S
C1182 H1156 0.950 . S
C1182 C1178 1.385 . S
C1182 C1181 1.374 . S
C1183 C1180 1.499 . S
C1183 C1184 1.373 . S
C1183 C1185 1.389 . S
C1184 H1157 0.950 . S
C1184 C1170 1.377 . S
C1184 C1183 1.373 . S
C1185 C1169 1.377 . S
C1185 C1183 1.389 . S
C1185 C1186 1.524 . S
C1186 C1185 1.524 . S
C1186 C1187 1.397 . S
C1186 C1191 1.363 . S
C1187 H1158 0.950 . S
C1187 C1186 1.397 . S
C1187 C1188 1.334 . S
C1188 H1159 0.950 . S
C1188 C1187 1.334 . S
C1188 C1189 1.287 . S
C1189 C1188 1.287 . S
C1189 C1190 1.524 . S
C1189 H1192 0.999 . S
C1190 H1160 0.950 . S
C1190 C1189 1.524 . S
C1190 C1191 1.415 . S
C1191 H1161 0.950 . S
C1191 C1186 1.363 . S
C1191 C1190 1.415 . S
H1192 C1189 0.999 . S
H1193 C1174 0.913 . S
H1194 C1212 0.951 . S
H1195 C1214 0.951 . S
H1196 C1216 0.950 . S
H1197 C1217 0.950 . S
H1198 C1219 0.950 . S
H1199 C1222 0.950 . S
H1200 C1223 0.950 . S
H1201 C1225 0.950 . S
H1202 C1226 0.950 . S
H1203 C1227 0.951 . S
H1204 C1229 0.951 . S
H1205 C1231 0.950 . S
H1206 C1232 0.950 . S
H1207 C1234 0.950 . S
H1208 C1237 0.950 . S
H1209 C1238 0.950 . S
H1210 C1240 0.950 . S
H1211 C1241 0.950 . S
C1212 H1194 0.951 . S
C1212 C1213 1.366 . S
C1212 C1214 1.388 . S
C1213 C1212 1.366 . S
C1213 C1217 1.385 . S
C1214 H1195 0.951 . S
C1214 C1212 1.388 . S
C1214 C1215 1.366 . S
C1215 C1214 1.366 . S
C1215 C1216 1.414 . S
C1215 C1218 1.499 . S
C1216 H1196 0.950 . S
C1216 C1215 1.414 . S
C1216 C1217 1.374 . S
C1217 H1197 0.950 . S
C1217 C1213 1.385 . S
C1217 C1216 1.374 . S
C1218 C1215 1.499 . S
C1218 C1219 1.373 . S
C1218 C1220 1.389 . S
C1219 H1198 0.950 . S
C1219 C1218 1.373 . S
C1219 C1235 1.377 . S
C1220 C1218 1.389 . S
C1220 C1221 1.524 . S
C1220 C1234 1.377 . S
C1221 C1220 1.524 . S
C1221 C1222 1.397 . S
C1221 C1226 1.363 . S
C1222 H1199 0.950 . S
C1222 C1221 1.397 . S
C1222 C1223 1.334 . S
C1223 H1200 0.950 . S
C1223 C1222 1.334 . S
C1223 C1224 1.287 . S
C1224 C1223 1.287 . S
C1224 C1225 1.524 . S
C1224 H1243 0.913 . S
C1225 H1201 0.950 . S
C1225 C1224 1.524 . S
C1225 C1226 1.415 . S
C1226 H1202 0.950 . S
C1226 C1221 1.363 . S
C1226 C1225 1.415 . S
C1227 H1203 0.951 . S
C1227 C1228 1.366 . S
C1227 C1229 1.388 . S
C1228 C1227 1.366 . S
C1228 C1232 1.385 . S
C1229 H1204 0.951 . S
C1229 C1227 1.388 . S
C1229 C1230 1.366 . S
C1230 C1229 1.366 . S
C1230 C1231 1.414 . S
C1230 C1233 1.499 . S
C1231 H1205 0.950 . S
C1231 C1230 1.414 . S
C1231 C1232 1.374 . S
C1232 H1206 0.950 . S
C1232 C1228 1.385 . S
C1232 C1231 1.374 . S
C1233 C1230 1.499 . S
C1233 C1234 1.373 . S
C1233 C1235 1.389 . S
C1234 H1207 0.950 . S
C1234 C1220 1.377 . S
C1234 C1233 1.373 . S
C1235 C1219 1.377 . S
C1235 C1233 1.389 . S
C1235 C1236 1.524 . S
C1236 C1235 1.524 . S
C1236 C1237 1.397 . S
C1236 C1241 1.363 . S
C1237 H1208 0.950 . S
C1237 C1236 1.397 . S
C1237 C1238 1.334 . S
C1238 H1209 0.950 . S
C1238 C1237 1.334 . S
C1238 C1239 1.287 . S
C1239 C1238 1.287 . S
C1239 C1240 1.524 . S
C1239 H1242 0.999 . S
C1240 H1210 0.950 . S
C1240 C1239 1.524 . S
C1240 C1241 1.415 . S
C1241 H1211 0.950 . S
C1241 C1236 1.363 . S
C1241 C1240 1.415 . S
H1242 C1239 0.999 . S
H1243 C1224 0.913 . S
H1244 C1262 0.951 . S
H1245 C1264 0.951 . S
H1246 C1266 0.950 . S
H1247 C1267 0.950 . S
H1248 C1269 0.950 . S
H1249 C1272 0.950 . S
H1250 C1273 0.950 . S
H1251 C1275 0.950 . S
H1252 C1276 0.950 . S
H1253 C1277 0.951 . S
H1254 C1279 0.951 . S
H1255 C1281 0.950 . S
H1256 C1282 0.950 . S
H1257 C1284 0.950 . S
H1258 C1287 0.950 . S
H1259 C1288 0.950 . S
H1260 C1290 0.950 . S
H1261 C1291 0.950 . S
C1262 H1244 0.951 . S
C1262 C1263 1.366 . S
C1262 C1264 1.388 . S
C1263 C1262 1.366 . S
C1263 C1267 1.385 . S
C1264 H1245 0.951 . S
C1264 C1262 1.388 . S
C1264 C1265 1.366 . S
C1265 C1264 1.366 . S
C1265 C1266 1.414 . S
C1265 C1268 1.499 . S
C1266 H1246 0.950 . S
C1266 C1265 1.414 . S
C1266 C1267 1.374 . S
C1267 H1247 0.950 . S
C1267 C1263 1.385 . S
C1267 C1266 1.374 . S
C1268 C1265 1.499 . S
C1268 C1269 1.373 . S
C1268 C1270 1.389 . S
C1269 H1248 0.950 . S
C1269 C1268 1.373 . S
C1269 C1285 1.377 . S
C1270 C1268 1.389 . S
C1270 C1271 1.524 . S
C1270 C1284 1.377 . S
C1271 C1270 1.524 . S
C1271 C1272 1.397 . S
C1271 C1276 1.363 . S
C1272 H1249 0.950 . S
C1272 C1271 1.397 . S
C1272 C1273 1.334 . S
C1273 H1250 0.950 . S
C1273 C1272 1.334 . S
C1273 C1274 1.287 . S
C1274 C1273 1.287 . S
C1274 C1275 1.524 . S
C1274 H1293 0.913 . S
C1275 H1251 0.950 . S
C1275 C1274 1.524 . S
C1275 C1276 1.415 . S
C1276 H1252 0.950 . S
C1276 C1271 1.363 . S
C1276 C1275 1.415 . S
C1277 H1253 0.951 . S
C1277 C1278 1.366 . S
C1277 C1279 1.388 . S
C1278 C1277 1.366 . S
C1278 C1282 1.385 . S
C1279 H1254 0.951 . S
C1279 C1277 1.388 . S
C1279 C1280 1.366 . S
C1280 C1279 1.366 . S
C1280 C1281 1.414 . S
C1280 C1283 1.499 . S
C1281 H1255 0.950 . S
C1281 C1280 1.414 . S
C1281 C1282 1.374 . S
C1282 H1256 0.950 . S
C1282 C1278 1.385 . S
C1282 C1281 1.374 . S
C1283 C1280 1.499 . S
C1283 C1284 1.373 . S
C1283 C1285 1.389 . S
C1284 H1257 0.950 . S
C1284 C1270 1.377 . S
C1284 C1283 1.373 . S
C1285 C1269 1.377 . S
C1285 C1283 1.389 . S
C1285 C1286 1.524 . S
C1286 C1285 1.524 . S
C1286 C1287 1.397 . S
C1286 C1291 1.363 . S
C1287 H1258 0.950 . S
C1287 C1286 1.397 . S
C1287 C1288 1.334 . S
C1288 H1259 0.950 . S
C1288 C1287 1.334 . S
C1288 C1289 1.287 . S
C1289 C1288 1.287 . S
C1289 C1290 1.524 . S
C1289 H1292 0.999 . S
C1290 H1260 0.950 . S
C1290 C1289 1.524 . S
C1290 C1291 1.415 . S
C1291 H1261 0.950 . S
C1291 C1286 1.363 . S
C1291 C1290 1.415 . S
H1292 C1289 0.999 . S
H1293 C1274 0.913 . S
H1294 C1312 0.951 . S
H1295 C1314 0.951 . S
H1296 C1316 0.950 . S
H1297 C1317 0.950 . S
H1298 C1319 0.950 . S
H1299 C1322 0.950 . S
H1300 C1323 0.950 . S
H1301 C1325 0.950 . S
H1302 C1326 0.950 . S
H1303 C1327 0.951 . S
H1304 C1329 0.951 . S
H1305 C1331 0.950 . S
H1306 C1332 0.950 . S
H1307 C1334 0.950 . S
H1308 C1337 0.950 . S
H1309 C1338 0.950 . S
H1310 C1340 0.950 . S
H1311 C1341 0.950 . S
C1312 H1294 0.951 . S
C1312 C1313 1.366 . S
C1312 C1314 1.388 . S
C1313 C1312 1.366 . S
C1313 C1317 1.385 . S
C1314 H1295 0.951 . S
C1314 C1312 1.388 . S
C1314 C1315 1.366 . S
C1315 C1314 1.366 . S
C1315 C1316 1.414 . S
C1315 C1318 1.499 . S
C1316 H1296 0.950 . S
C1316 C1315 1.414 . S
C1316 C1317 1.374 . S
C1317 H1297 0.950 . S
C1317 C1313 1.385 . S
C1317 C1316 1.374 . S
C1318 C1315 1.499 . S
C1318 C1319 1.373 . S
C1318 C1320 1.389 . S
C1319 H1298 0.950 . S
C1319 C1318 1.373 . S
C1319 C1335 1.377 . S
C1320 C1318 1.389 . S
C1320 C1321 1.524 . S
C1320 C1334 1.377 . S
C1321 C1320 1.524 . S
C1321 C1322 1.397 . S
C1321 C1326 1.363 . S
C1322 H1299 0.950 . S
C1322 C1321 1.397 . S
C1322 C1323 1.334 . S
C1323 H1300 0.950 . S
C1323 C1322 1.334 . S
C1323 C1324 1.287 . S
C1324 C1323 1.287 . S
C1324 C1325 1.524 . S
C1324 H1343 0.913 . S
C1325 H1301 0.950 . S
C1325 C1324 1.524 . S
C1325 C1326 1.415 . S
C1326 H1302 0.950 . S
C1326 C1321 1.363 . S
C1326 C1325 1.415 . S
C1327 H1303 0.951 . S
C1327 C1328 1.366 . S
C1327 C1329 1.388 . S
C1328 C1327 1.366 . S
C1328 C1332 1.385 . S
C1329 H1304 0.951 . S
C1329 C1327 1.388 . S
C1329 C1330 1.366 . S
C1330 C1329 1.366 . S
C1330 C1331 1.414 . S
C1330 C1333 1.499 . S
C1331 H1305 0.950 . S
C1331 C1330 1.414 . S
C1331 C1332 1.374 . S
C1332 H1306 0.950 . S
C1332 C1328 1.385 . S
C1332 C1331 1.374 . S
C1333 C1330 1.499 . S
C1333 C1334 1.373 . S
C1333 C1335 1.389 . S
C1334 H1307 0.950 . S
C1334 C1320 1.377 . S
C1334 C1333 1.373 . S
C1335 C1319 1.377 . S
C1335 C1333 1.389 . S
C1335 C1336 1.524 . S
C1336 C1335 1.524 . S
C1336 C1337 1.397 . S
C1336 C1341 1.363 . S
C1337 H1308 0.950 . S
C1337 C1336 1.397 . S
C1337 C1338 1.334 . S
C1338 H1309 0.950 . S
C1338 C1337 1.334 . S
C1338 C1339 1.287 . S
C1339 C1338 1.287 . S
C1339 C1340 1.524 . S
C1339 H1342 0.999 . S
C1340 H1310 0.950 . S
C1340 C1339 1.524 . S
C1340 C1341 1.415 . S
C1341 H1311 0.950 . S
C1341 C1336 1.363 . S
C1341 C1340 1.415 . S
H1342 C1339 0.999 . S
H1343 C1324 0.913 . S
H1344 C1362 0.951 . S
H1345 C1364 0.951 . S
H1346 C1366 0.950 . S
H1347 C1367 0.950 . S
H1348 C1369 0.950 . S
H1349 C1372 0.950 . S
H1350 C1373 0.950 . S
H1351 C1375 0.950 . S
H1352 C1376 0.950 . S
H1353 C1377 0.951 . S
H1354 C1379 0.951 . S
H1355 C1381 0.950 . S
H1356 C1382 0.950 . S
H1357 C1384 0.950 . S
H1358 C1387 0.950 . S
H1359 C1388 0.950 . S
H1360 C1390 0.950 . S
H1361 C1391 0.950 . S
C1362 H1344 0.951 . S
C1362 C1363 1.366 . S
C1362 C1364 1.388 . S
C1363 C1362 1.366 . S
C1363 C1367 1.385 . S
C1364 H1345 0.951 . S
C1364 C1362 1.388 . S
C1364 C1365 1.366 . S
C1365 C1364 1.366 . S
C1365 C1366 1.414 . S
C1365 C1368 1.499 . S
C1366 H1346 0.950 . S
C1366 C1365 1.414 . S
C1366 C1367 1.374 . S
C1367 H1347 0.950 . S
C1367 C1363 1.385 . S
C1367 C1366 1.374 . S
C1368 C1365 1.499 . S
C1368 C1369 1.373 1_554 S
C1368 C1370 1.389 1_655 S
C1369 H1348 0.950 . S
C1369 C1368 1.373 1_556 S
C1369 C1385 1.377 . S
C1370 C1368 1.389 1_455 S
C1370 C1371 1.524 . S
C1370 C1384 1.377 . S
C1371 C1370 1.524 . S
C1371 C1372 1.397 1_455 S
C1371 C1376 1.363 . S
C1372 H1349 0.950 . S
C1372 C1371 1.397 1_655 S
C1372 C1373 1.334 . S
C1373 H1350 0.950 . S
C1373 C1372 1.334 . S
C1373 C1374 1.287 1_655 S
C1374 C1373 1.287 1_455 S
C1374 C1375 1.524 . S
C1374 H1393 0.913 . S
C1375 H1351 0.950 . S
C1375 C1374 1.524 . S
C1375 C1376 1.415 . S
C1376 H1352 0.950 . S
C1376 C1371 1.363 . S
C1376 C1375 1.415 . S
C1377 H1353 0.951 . S
C1377 C1378 1.366 . S
C1377 C1379 1.388 . S
C1378 C1377 1.366 . S
C1378 C1382 1.385 . S
C1379 H1354 0.951 . S
C1379 C1377 1.388 . S
C1379 C1380 1.366 . S
C1380 C1379 1.366 . S
C1380 C1381 1.414 . S
C1380 C1383 1.499 . S
C1381 H1355 0.950 . S
C1381 C1380 1.414 . S
C1381 C1382 1.374 . S
C1382 H1356 0.950 . S
C1382 C1378 1.385 . S
C1382 C1381 1.374 . S
C1383 C1380 1.499 . S
C1383 C1384 1.373 1_556 S
C1383 C1385 1.389 1_455 S
C1384 H1357 0.950 . S
C1384 C1370 1.377 . S
C1384 C1383 1.373 1_554 S
C1385 C1369 1.377 . S
C1385 C1383 1.389 1_655 S
C1385 C1386 1.524 . S
C1386 C1385 1.524 . S
C1386 C1387 1.397 1_655 S
C1386 C1391 1.363 . S
C1387 H1358 0.950 . S
C1387 C1386 1.397 1_455 S
C1387 C1388 1.334 . S
C1388 H1359 0.950 . S
C1388 C1387 1.334 . S
C1388 C1389 1.287 1_455 S
C1389 C1388 1.287 1_655 S
C1389 C1390 1.524 . S
C1389 H1392 0.999 . S
C1390 H1360 0.950 . S
C1390 C1389 1.524 . S
C1390 C1391 1.415 . S
C1391 H1361 0.950 . S
C1391 C1386 1.363 . S
C1391 C1390 1.415 . S
H1392 C1389 0.999 . S
H1393 C1374 0.913 . S
H1394 C1412 0.951 . S
H1395 C1414 0.951 . S
H1396 C1416 0.950 . S
H1397 C1417 0.950 . S
H1398 C1419 0.950 . S
H1399 C1422 0.950 1_556 S
H1400 C1423 0.950 . S
H1401 C1425 0.950 . S
H1402 C1426 0.950 . S
H1403 C1427 0.951 . S
H1404 C1429 0.951 . S
H1405 C1431 0.950 . S
H1406 C1432 0.950 . S
H1407 C1434 0.950 . S
H1408 C1437 0.950 1_554 S
H1409 C1438 0.950 . S
H1410 C1440 0.950 . S
H1411 C1441 0.950 . S
C1412 H1394 0.951 . S
C1412 C1413 1.366 . S
C1412 C1414 1.388 . S
C1413 C1412 1.366 . S
C1413 C1417 1.385 . S
C1414 H1395 0.951 . S
C1414 C1412 1.388 . S
C1414 C1415 1.366 . S
C1415 C1414 1.366 . S
C1415 C1416 1.414 . S
C1415 C1418 1.499 . S
C1416 H1396 0.950 . S
C1416 C1415 1.414 . S
C1416 C1417 1.374 . S
C1417 H1397 0.950 . S
C1417 C1413 1.385 . S
C1417 C1416 1.374 . S
C1418 C1415 1.499 . S
C1418 C1419 1.373 . S
C1418 C1420 1.389 1_556 S
C1419 H1398 0.950 . S
C1419 C1418 1.373 . S
C1419 C1435 1.377 . S
C1420 C1418 1.389 1_554 S
C1420 C1421 1.524 . S
C1420 C1434 1.377 . S
C1421 C1420 1.524 . S
C1421 C1422 1.397 . S
C1421 C1426 1.363 . S
C1422 H1399 0.950 1_554 S
C1422 C1421 1.397 . S
C1422 C1423 1.334 . S
C1423 H1400 0.950 . S
C1423 C1422 1.334 . S
C1423 C1424 1.287 . S
C1424 C1423 1.287 . S
C1424 C1425 1.524 . S
C1424 H1443 0.913 . S
C1425 H1401 0.950 . S
C1425 C1424 1.524 . S
C1425 C1426 1.415 . S
C1426 H1402 0.950 . S
C1426 C1421 1.363 . S
C1426 C1425 1.415 . S
C1427 H1403 0.951 . S
C1427 C1428 1.366 . S
C1427 C1429 1.388 . S
C1428 C1427 1.366 . S
C1428 C1432 1.385 . S
C1429 H1404 0.951 . S
C1429 C1427 1.388 . S
C1429 C1430 1.366 . S
C1430 C1429 1.366 . S
C1430 C1431 1.414 . S
C1430 C1433 1.499 . S
C1431 H1405 0.950 . S
C1431 C1430 1.414 . S
C1431 C1432 1.374 . S
C1432 H1406 0.950 . S
C1432 C1428 1.385 . S
C1432 C1431 1.374 . S
C1433 C1430 1.499 . S
C1433 C1434 1.373 . S
C1433 C1435 1.389 1_554 S
C1434 H1407 0.950 . S
C1434 C1420 1.377 . S
C1434 C1433 1.373 . S
C1435 C1419 1.377 . S
C1435 C1433 1.389 1_556 S
C1435 C1436 1.524 . S
C1436 C1435 1.524 . S
C1436 C1437 1.397 . S
C1436 C1441 1.363 . S
C1437 H1408 0.950 1_556 S
C1437 C1436 1.397 . S
C1437 C1438 1.334 . S
C1438 H1409 0.950 . S
C1438 C1437 1.334 . S
C1438 C1439 1.287 . S
C1439 C1438 1.287 . S
C1439 C1440 1.524 . S
C1439 H1442 0.999 . S
C1440 H1410 0.950 . S
C1440 C1439 1.524 . S
C1440 C1441 1.415 . S
C1441 H1411 0.950 . S
C1441 C1436 1.363 . S
C1441 C1440 1.415 . S
H1442 C1439 0.999 . S
H1443 C1424 0.913 . S
H1444 C1462 0.951 . S
H1445 C1464 0.951 . S
H1446 C1466 0.950 . S
H1447 C1467 0.950 . S
H1448 C1469 0.950 . S
H1449 C1472 0.950 . S
H1450 C1473 0.950 . S
H1451 C1475 0.950 1_556 S
H1452 C1476 0.950 . S
H1453 C1477 0.951 . S
H1454 C1479 0.951 . S
H1455 C1481 0.950 . S
H1456 C1482 0.950 . S
H1457 C1484 0.950 . S
H1458 C1487 0.950 . S
H1459 C1488 0.950 . S
H1460 C1490 0.950 1_554 S
H1461 C1491 0.950 . S
C1462 H1444 0.951 . S
C1462 C1463 1.366 . S
C1462 C1464 1.388 . S
C1463 C1462 1.366 . S
C1463 C1467 1.385 . S
C1464 H1445 0.951 . S
C1464 C1462 1.388 . S
C1464 C1465 1.366 . S
C1465 C1464 1.366 . S
C1465 C1466 1.414 . S
C1465 C1468 1.499 . S
C1466 H1446 0.950 . S
C1466 C1465 1.414 . S
C1466 C1467 1.374 . S
C1467 H1447 0.950 . S
C1467 C1463 1.385 . S
C1467 C1466 1.374 . S
C1468 C1465 1.499 . S
C1468 C1469 1.373 . S
C1468 C1470 1.389 . S
C1469 H1448 0.950 . S
C1469 C1468 1.373 . S
C1469 C1485 1.377 1_544 S
C1470 C1468 1.389 . S
C1470 C1471 1.524 . S
C1470 C1484 1.377 1_544 S
C1471 C1470 1.524 . S
C1471 C1472 1.397 . S
C1471 C1476 1.363 1_554 S
C1472 H1449 0.950 . S
C1472 C1471 1.397 . S
C1472 C1473 1.334 . S
C1473 H1450 0.950 . S
C1473 C1472 1.334 . S
C1473 C1474 1.287 . S
C1474 C1473 1.287 . S
C1474 C1475 1.524 . S
C1474 H1493 0.913 . S
C1475 H1451 0.950 1_554 S
C1475 C1474 1.524 . S
C1475 C1476 1.415 1_554 S
C1476 H1452 0.950 . S
C1476 C1471 1.363 1_556 S
C1476 C1475 1.415 1_556 S
C1477 H1453 0.951 . S
C1477 C1478 1.366 . S
C1477 C1479 1.388 . S
C1478 C1477 1.366 . S
C1478 C1482 1.385 . S
C1479 H1454 0.951 . S
C1479 C1477 1.388 . S
C1479 C1480 1.366 . S
C1480 C1479 1.366 . S
C1480 C1481 1.414 . S
C1480 C1483 1.499 . S
C1481 H1455 0.950 . S
C1481 C1480 1.414 . S
C1481 C1482 1.374 . S
C1482 H1456 0.950 . S
C1482 C1478 1.385 . S
C1482 C1481 1.374 . S
C1483 C1480 1.499 . S
C1483 C1484 1.373 . S
C1483 C1485 1.389 . S
C1484 H1457 0.950 . S
C1484 C1470 1.377 1_566 S
C1484 C1483 1.373 . S
C1485 C1469 1.377 1_566 S
C1485 C1483 1.389 . S
C1485 C1486 1.524 . S
C1486 C1485 1.524 . S
C1486 C1487 1.397 . S
C1486 C1491 1.363 1_556 S
C1487 H1458 0.950 . S
C1487 C1486 1.397 . S
C1487 C1488 1.334 . S
C1488 H1459 0.950 . S
C1488 C1487 1.334 . S
C1488 C1489 1.287 . S
C1489 C1488 1.287 . S
C1489 C1490 1.524 . S
C1489 H1492 0.999 . S
C1490 H1460 0.950 1_556 S
C1490 C1489 1.524 . S
C1490 C1491 1.415 1_556 S
C1491 H1461 0.950 . S
C1491 C1486 1.363 1_554 S
C1491 C1490 1.415 1_554 S
H1492 C1489 0.999 . S
H1493 C1474 0.913 . S
H1494 C1512 0.920 1_655 S
H1495 C1514 0.951 1_655 S
H1496 C1516 0.950 . S
H1497 C1517 0.950 . S
H1498 C1519 0.950 . S
H1499 C1522 0.950 1_455 S
H1500 C1523 0.950 . S
H1501 C1525 0.950 . S
H1502 C1526 0.950 . S
H1503 C1527 0.920 1_455 S
H1504 C1529 0.951 1_455 S
H1505 C1531 0.950 . S
H1506 C1532 0.950 . S
H1507 C1534 0.950 . S
H1508 C1537 0.950 1_655 S
H1509 C1538 0.950 . S
H1510 C1540 0.950 . S
H1511 C1541 0.950 . S
C1512 H1494 0.920 1_455 S
C1512 C1513 1.366 . S
C1512 C1514 1.388 . S
C1513 C1512 1.366 . S
C1513 C1517 1.385 . S
C1514 H1495 0.951 1_455 S
C1514 C1512 1.388 . S
C1514 C1515 1.366 . S
C1515 C1514 1.366 . S
C1515 C1516 1.414 . S
C1515 C1518 1.499 . S
C1516 H1496 0.950 . S
C1516 C1515 1.414 . S
C1516 C1517 1.374 . S
C1517 H1497 0.950 . S
C1517 C1513 1.385 . S
C1517 C1516 1.374 . S
C1518 C1515 1.499 . S
C1518 C1519 1.373 . S
C1518 C1520 1.389 1_455 S
C1519 H1498 0.950 . S
C1519 C1518 1.373 . S
C1519 C1535 1.377 1_554 S
C1520 C1518 1.389 1_655 S
C1520 C1521 1.524 . S
C1520 C1534 1.377 1_554 S
C1521 C1520 1.524 . S
C1521 C1522 1.397 . S
C1521 C1526 1.363 . S
C1522 H1499 0.950 1_655 S
C1522 C1521 1.397 . S
C1522 C1523 1.334 . S
C1523 H1500 0.950 . S
C1523 C1522 1.334 . S
C1523 C1524 1.287 . S
C1524 C1523 1.287 . S
C1524 C1525 1.524 . S
C1524 H1543 0.913 . S
C1525 H1501 0.950 . S
C1525 C1524 1.524 . S
C1525 C1526 1.415 . S
C1526 H1502 0.950 . S
C1526 C1521 1.363 . S
C1526 C1525 1.415 . S
C1527 H1503 0.920 1_655 S
C1527 C1528 1.366 . S
C1527 C1529 1.388 . S
C1528 C1527 1.366 . S
C1528 C1532 1.385 . S
C1529 H1504 0.951 1_655 S
C1529 C1527 1.388 . S
C1529 C1530 1.366 . S
C1530 C1529 1.366 . S
C1530 C1531 1.414 . S
C1530 C1533 1.499 . S
C1531 H1505 0.950 . S
C1531 C1530 1.414 . S
C1531 C1532 1.374 . S
C1532 H1506 0.950 . S
C1532 C1528 1.385 . S
C1532 C1531 1.374 . S
C1533 C1530 1.499 . S
C1533 C1534 1.373 . S
C1533 C1535 1.389 1_655 S
C1534 H1507 0.950 . S
C1534 C1520 1.377 1_556 S
C1534 C1533 1.373 . S
C1535 C1519 1.377 1_556 S
C1535 C1533 1.389 1_455 S
C1535 C1536 1.524 . S
C1536 C1535 1.524 . S
C1536 C1537 1.397 . S
C1536 C1541 1.363 . S
C1537 H1508 0.950 1_455 S
C1537 C1536 1.397 . S
C1537 C1538 1.334 . S
C1538 H1509 0.950 . S
C1538 C1537 1.334 . S
C1538 C1539 1.287 . S
C1539 C1538 1.287 . S
C1539 C1540 1.524 . S
C1539 H1542 0.999 . S
C1540 H1510 0.950 . S
C1540 C1539 1.524 . S
C1540 C1541 1.415 . S
C1541 H1511 0.950 . S
C1541 C1536 1.363 . S
C1541 C1540 1.415 . S
H1542 C1539 0.999 . S
H1543 C1524 0.913 . S
H1544 C1562 0.951 . S
H1545 C1564 0.951 . S
H1546 C1566 0.950 . S
H1547 C1567 0.950 . S
H1548 C1569 0.950 . S
H1549 C1572 0.950 . S
H1550 C1573 0.950 . S
H1551 C1575 0.950 . S
H1552 C1576 0.950 . S
H1553 C1577 0.951 . S
H1554 C1579 0.951 . S
H1555 C1581 0.950 . S
H1556 C1582 0.950 . S
H1557 C1584 0.950 . S
H1558 C1587 0.950 . S
H1559 C1588 0.950 . S
H1560 C1590 0.950 . S
H1561 C1591 0.950 . S
C1562 H1544 0.951 . S
C1562 C1563 1.366 . S
C1562 C1564 1.388 . S
C1563 C1562 1.366 . S
C1563 C1567 1.385 . S
C1564 H1545 0.951 . S
C1564 C1562 1.388 . S
C1564 C1565 1.366 . S
C1565 C1564 1.366 . S
C1565 C1566 1.414 . S
C1565 C1568 1.499 . S
C1566 H1546 0.950 . S
C1566 C1565 1.414 . S
C1566 C1567 1.374 . S
C1567 H1547 0.950 . S
C1567 C1563 1.385 . S
C1567 C1566 1.374 . S
C1568 C1565 1.499 . S
C1568 C1569 1.373 . S
C1568 C1570 1.389 . S
C1569 H1548 0.950 . S
C1569 C1568 1.373 . S
C1569 C1585 1.377 1_556 S
C1570 C1568 1.389 . S
C1570 C1571 1.524 . S
C1570 C1584 1.377 1_556 S
C1571 C1570 1.524 . S
C1571 C1572 1.397 . S
C1571 C1576 1.363 . S
C1572 H1549 0.950 . S
C1572 C1571 1.397 . S
C1572 C1573 1.334 . S
C1573 H1550 0.950 . S
C1573 C1572 1.334 . S
C1573 C1574 1.287 . S
C1574 C1573 1.287 . S
C1574 C1575 1.524 . S
C1574 H1593 0.913 . S
C1575 H1551 0.950 . S
C1575 C1574 1.524 . S
C1575 C1576 1.415 . S
C1576 H1552 0.950 . S
C1576 C1571 1.363 . S
C1576 C1575 1.415 . S
C1577 H1553 0.951 . S
C1577 C1578 1.366 . S
C1577 C1579 1.388 . S
C1578 C1577 1.366 . S
C1578 C1582 1.385 . S
C1579 H1554 0.951 . S
C1579 C1577 1.388 . S
C1579 C1580 1.366 . S
C1580 C1579 1.366 . S
C1580 C1581 1.414 . S
C1580 C1583 1.499 . S
C1581 H1555 0.950 . S
C1581 C1580 1.414 . S
C1581 C1582 1.374 . S
C1582 H1556 0.950 . S
C1582 C1578 1.385 . S
C1582 C1581 1.374 . S
C1583 C1580 1.499 . S
C1583 C1584 1.373 . S
C1583 C1585 1.389 . S
C1584 H1557 0.950 . S
C1584 C1570 1.377 1_554 S
C1584 C1583 1.373 . S
C1585 C1569 1.377 1_554 S
C1585 C1583 1.389 . S
C1585 C1586 1.524 . S
C1586 C1585 1.524 . S
C1586 C1587 1.397 . S
C1586 C1591 1.363 . S
C1587 H1558 0.950 . S
C1587 C1586 1.397 . S
C1587 C1588 1.334 . S
C1588 H1559 0.950 . S
C1588 C1587 1.334 . S
C1588 C1589 1.287 . S
C1589 C1588 1.287 . S
C1589 C1590 1.524 . S
C1589 H1592 0.999 . S
C1590 H1560 0.950 . S
C1590 C1589 1.524 . S
C1590 C1591 1.415 . S
C1591 H1561 0.950 . S
C1591 C1586 1.363 . S
C1591 C1590 1.415 . S
H1592 C1589 0.999 . S
H1593 C1574 0.913 . S
H1594 C1612 0.951 . S
H1595 C1614 0.951 . S
H1596 C1616 0.950 1_565 S
H1597 C1617 0.950 . S
H1598 C1619 0.950 . S
H1599 C1622 0.950 . S
H1600 C1623 0.950 . S
H1601 C1625 0.950 . S
H1602 C1626 0.950 . S
H1603 C1627 0.951 . S
H1604 C1629 0.951 . S
H1605 C1631 0.950 1_545 S
H1606 C1632 0.950 . S
H1607 C1634 0.950 . S
H1608 C1637 0.950 . S
H1609 C1638 0.950 . S
H1610 C1640 0.950 . S
H1611 C1641 0.950 . S
C1612 H1594 0.951 . S
C1612 C1613 1.366 . S
C1612 C1614 1.388 . S
C1613 C1612 1.366 . S
C1613 C1617 1.385 . S
C1614 H1595 0.951 . S
C1614 C1612 1.388 . S
C1614 C1615 1.366 . S
C1615 C1614 1.366 . S
C1615 C1616 1.414 . S
C1615 C1618 1.499 . S
C1616 H1596 0.950 1_545 S
C1616 C1615 1.414 . S
C1616 C1617 1.374 . S
C1617 H1597 0.950 . S
C1617 C1613 1.385 . S
C1617 C1616 1.374 . S
C1618 C1615 1.499 . S
C1618 C1619 1.373 1_545 S
C1618 C1620 1.389 . S
C1619 H1598 0.950 . S
C1619 C1618 1.373 1_565 S
C1619 C1635 1.377 1_556 S
C1620 C1618 1.389 . S
C1620 C1621 1.524 . S
C1620 C1634 1.377 1_556 S
C1621 C1620 1.524 . S
C1621 C1622 1.397 . S
C1621 C1626 1.363 1_556 S
C1622 H1599 0.950 . S
C1622 C1621 1.397 . S
C1622 C1623 1.334 . S
C1623 H1600 0.950 . S
C1623 C1622 1.334 . S
C1623 C1624 1.287 . S
C1624 C1623 1.287 . S
C1624 C1625 1.524 1_556 S
C1624 H1643 0.913 . S
C1625 H1601 0.950 . S
C1625 C1624 1.524 1_554 S
C1625 C1626 1.415 . S
C1626 H1602 0.950 . S
C1626 C1621 1.363 1_554 S
C1626 C1625 1.415 . S
C1627 H1603 0.951 . S
C1627 C1628 1.366 . S
C1627 C1629 1.388 . S
C1628 C1627 1.366 . S
C1628 C1632 1.385 . S
C1629 H1604 0.951 . S
C1629 C1627 1.388 . S
C1629 C1630 1.366 . S
C1630 C1629 1.366 . S
C1630 C1631 1.414 . S
C1630 C1633 1.499 . S
C1631 H1605 0.950 1_565 S
C1631 C1630 1.414 . S
C1631 C1632 1.374 . S
C1632 H1606 0.950 . S
C1632 C1628 1.385 . S
C1632 C1631 1.374 . S
C1633 C1630 1.499 . S
C1633 C1634 1.373 1_565 S
C1633 C1635 1.389 . S
C1634 H1607 0.950 . S
C1634 C1620 1.377 1_554 S
C1634 C1633 1.373 1_545 S
C1635 C1619 1.377 1_554 S
C1635 C1633 1.389 . S
C1635 C1636 1.524 . S
C1636 C1635 1.524 . S
C1636 C1637 1.397 . S
C1636 C1641 1.363 1_554 S
C1637 H1608 0.950 . S
C1637 C1636 1.397 . S
C1637 C1638 1.334 . S
C1638 H1609 0.950 . S
C1638 C1637 1.334 . S
C1638 C1639 1.287 . S
C1639 C1638 1.287 . S
C1639 C1640 1.524 1_554 S
C1639 H1642 0.999 . S
C1640 H1610 0.950 . S
C1640 C1639 1.524 1_556 S
C1640 C1641 1.415 . S
C1641 H1611 0.950 . S
C1641 C1636 1.363 1_556 S
C1641 C1640 1.415 . S
H1642 C1639 0.999 . S
H1643 C1624 0.913 . S
H1644 C1662 0.951 . S
H1645 C1664 0.951 . S
H1646 C1666 0.950 . S
H1647 C1667 0.950 . S
H1648 C1669 0.950 . S
H1649 C1672 0.950 . S
H1650 C1673 0.950 . S
H1651 C1675 0.950 . S
H1652 C1676 0.950 . S
H1653 C1677 0.951 . S
H1654 C1679 0.951 . S
H1655 C1681 0.950 . S
H1656 C1682 0.950 . S
H1657 C1684 0.950 . S
H1658 C1687 0.950 . S
H1659 C1688 0.950 . S
H1660 C1690 0.950 . S
H1661 C1691 0.950 . S
C1662 H1644 0.951 . S
C1662 C1663 1.366 . S
C1662 C1664 1.388 . S
C1663 C1662 1.366 . S
C1663 C1667 1.385 . S
C1664 H1645 0.951 . S
C1664 C1662 1.388 . S
C1664 C1665 1.366 . S
C1665 C1664 1.366 . S
C1665 C1666 1.414 . S
C1665 C1668 1.499 . S
C1666 H1646 0.950 . S
C1666 C1665 1.414 . S
C1666 C1667 1.374 . S
C1667 H1647 0.950 . S
C1667 C1663 1.385 . S
C1667 C1666 1.374 . S
C1668 C1665 1.499 . S
C1668 C1669 1.373 . S
C1668 C1670 1.389 . S
C1669 H1648 0.950 . S
C1669 C1668 1.373 . S
C1669 C1685 1.377 . S
C1670 C1668 1.389 . S
C1670 C1671 1.524 . S
C1670 C1684 1.377 . S
C1671 C1670 1.524 . S
C1671 C1672 1.397 . S
C1671 C1676 1.363 . S
C1672 H1649 0.950 . S
C1672 C1671 1.397 . S
C1672 C1673 1.334 . S
C1673 H1650 0.950 . S
C1673 C1672 1.334 . S
C1673 C1674 1.287 . S
C1674 C1673 1.287 . S
C1674 C1675 1.524 . S
C1674 H1693 0.913 . S
C1675 H1651 0.950 . S
C1675 C1674 1.524 . S
C1675 C1676 1.415 . S
C1676 H1652 0.950 . S
C1676 C1671 1.363 . S
C1676 C1675 1.415 . S
C1677 H1653 0.951 . S
C1677 C1678 1.366 . S
C1677 C1679 1.388 . S
C1678 C1677 1.366 . S
C1678 C1682 1.385 . S
C1679 H1654 0.951 . S
C1679 C1677 1.388 . S
C1679 C1680 1.366 . S
C1680 C1679 1.366 . S
C1680 C1681 1.414 . S
C1680 C1683 1.499 . S
C1681 H1655 0.950 . S
C1681 C1680 1.414 . S
C1681 C1682 1.374 . S
C1682 H1656 0.950 . S
C1682 C1678 1.385 . S
C1682 C1681 1.374 . S
C1683 C1680 1.499 . S
C1683 C1684 1.373 . S
C1683 C1685 1.389 . S
C1684 H1657 0.950 . S
C1684 C1670 1.377 . S
C1684 C1683 1.373 . S
C1685 C1669 1.377 . S
C1685 C1683 1.389 . S
C1685 C1686 1.524 . S
C1686 C1685 1.524 . S
C1686 C1687 1.397 . S
C1686 C1691 1.363 . S
C1687 H1658 0.950 . S
C1687 C1686 1.397 . S
C1687 C1688 1.334 . S
C1688 H1659 0.950 . S
C1688 C1687 1.334 . S
C1688 C1689 1.287 . S
C1689 C1688 1.287 . S
C1689 C1690 1.524 . S
C1689 H1692 0.999 . S
C1690 H1660 0.950 . S
C1690 C1689 1.524 . S
C1690 C1691 1.415 . S
C1691 H1661 0.950 . S
C1691 C1686 1.363 . S
C1691 C1690 1.415 . S
H1692 C1689 0.999 . S
H1693 C1674 0.913 . S
H1694 C1712 0.951 . S
H1695 C1714 0.951 . S
H1696 C1716 0.950 . S
H1697 C1717 0.950 . S
H1698 C1719 0.950 . S
H1699 C1722 0.950 . S
H1700 C1723 0.950 . S
H1701 C1725 0.950 . S
H1702 C1726 0.950 . S
H1703 C1727 0.951 . S
H1704 C1729 0.951 . S
H1705 C1731 0.950 . S
H1706 C1732 0.950 . S
H1707 C1734 0.950 . S
H1708 C1737 0.950 . S
H1709 C1738 0.950 . S
H1710 C1740 0.950 . S
H1711 C1741 0.950 . S
C1712 H1694 0.951 . S
C1712 C1713 1.366 . S
C1712 C1714 1.388 . S
C1713 C1712 1.366 . S
C1713 C1717 1.385 . S
C1714 H1695 0.951 . S
C1714 C1712 1.388 . S
C1714 C1715 1.366 . S
C1715 C1714 1.366 . S
C1715 C1716 1.414 . S
C1715 C1718 1.499 . S
C1716 H1696 0.950 . S
C1716 C1715 1.414 . S
C1716 C1717 1.374 . S
C1717 H1697 0.950 . S
C1717 C1713 1.385 . S
C1717 C1716 1.374 . S
C1718 C1715 1.499 . S
C1718 C1719 1.373 . S
C1718 C1720 1.389 . S
C1719 H1698 0.950 . S
C1719 C1718 1.373 . S
C1719 C1735 1.377 . S
C1720 C1718 1.389 . S
C1720 C1721 1.524 . S
C1720 C1734 1.377 . S
C1721 C1720 1.524 . S
C1721 C1722 1.397 . S
C1721 C1726 1.363 . S
C1722 H1699 0.950 . S
C1722 C1721 1.397 . S
C1722 C1723 1.334 . S
C1723 H1700 0.950 . S
C1723 C1722 1.334 . S
C1723 C1724 1.287 . S
C1724 C1723 1.287 . S
C1724 C1725 1.524 . S
C1724 H1743 0.913 . S
C1725 H1701 0.950 . S
C1725 C1724 1.524 . S
C1725 C1726 1.415 . S
C1726 H1702 0.950 . S
C1726 C1721 1.363 . S
C1726 C1725 1.415 . S
C1727 H1703 0.951 . S
C1727 C1728 1.366 . S
C1727 C1729 1.388 . S
C1728 C1727 1.366 . S
C1728 C1732 1.385 . S
C1729 H1704 0.951 . S
C1729 C1727 1.388 . S
C1729 C1730 1.366 . S
C1730 C1729 1.366 . S
C1730 C1731 1.414 . S
C1730 C1733 1.499 . S
C1731 H1705 0.950 . S
C1731 C1730 1.414 . S
C1731 C1732 1.374 . S
C1732 H1706 0.950 . S
C1732 C1728 1.385 . S
C1732 C1731 1.374 . S
C1733 C1730 1.499 . S
C1733 C1734 1.373 . S
C1733 C1735 1.389 . S
C1734 H1707 0.950 . S
C1734 C1720 1.377 . S
C1734 C1733 1.373 . S
C1735 C1719 1.377 . S
C1735 C1733 1.389 . S
C1735 C1736 1.524 . S
C1736 C1735 1.524 . S
C1736 C1737 1.397 . S
C1736 C1741 1.363 . S
C1737 H1708 0.950 . S
C1737 C1736 1.397 . S
C1737 C1738 1.334 . S
C1738 H1709 0.950 . S
C1738 C1737 1.334 . S
C1738 C1739 1.287 . S
C1739 C1738 1.287 . S
C1739 C1740 1.524 . S
C1739 H1742 0.999 . S
C1740 H1710 0.950 . S
C1740 C1739 1.524 . S
C1740 C1741 1.415 . S
C1741 H1711 0.950 . S
C1741 C1736 1.363 . S
C1741 C1740 1.415 . S
H1742 C1739 0.999 . S
H1743 C1724 0.913 . S
H1744 C1762 0.951 . S
H1745 C1764 0.951 . S
H1746 C1766 0.950 . S
H1747 C1767 0.950 . S
H1748 C1769 0.950 . S
H1749 C1772 0.950 . S
H1750 C1773 0.950 . S
H1751 C1775 0.950 . S
H1752 C1776 0.950 . S
H1753 C1777 0.951 . S
H1754 C1779 0.951 . S
H1755 C1781 0.950 . S
H1756 C1782 0.950 . S
H1757 C1784 0.950 . S
H1758 C1787 0.950 . S
H1759 C1788 0.950 . S
H1760 C1790 0.950 . S
H1761 C1791 0.950 . S
C1762 H1744 0.951 . S
C1762 C1763 1.366 . S
C1762 C1764 1.388 . S
C1763 C1762 1.366 . S
C1763 C1767 1.385 . S
C1764 H1745 0.951 . S
C1764 C1762 1.388 . S
C1764 C1765 1.366 . S
C1765 C1764 1.366 . S
C1765 C1766 1.414 . S
C1765 C1768 1.499 . S
C1766 H1746 0.950 . S
C1766 C1765 1.414 . S
C1766 C1767 1.374 . S
C1767 H1747 0.950 . S
C1767 C1763 1.385 . S
C1767 C1766 1.374 . S
C1768 C1765 1.499 . S
C1768 C1769 1.373 . S
C1768 C1770 1.389 . S
C1769 H1748 0.950 . S
C1769 C1768 1.373 . S
C1769 C1785 1.377 . S
C1770 C1768 1.389 . S
C1770 C1771 1.524 . S
C1770 C1784 1.377 . S
C1771 C1770 1.524 . S
C1771 C1772 1.397 . S
C1771 C1776 1.363 . S
C1772 H1749 0.950 . S
C1772 C1771 1.397 . S
C1772 C1773 1.334 . S
C1773 H1750 0.950 . S
C1773 C1772 1.334 . S
C1773 C1774 1.287 . S
C1774 C1773 1.287 . S
C1774 C1775 1.524 . S
C1774 H1793 0.913 . S
C1775 H1751 0.950 . S
C1775 C1774 1.524 . S
C1775 C1776 1.415 . S
C1776 H1752 0.950 . S
C1776 C1771 1.363 . S
C1776 C1775 1.415 . S
C1777 H1753 0.951 . S
C1777 C1778 1.366 . S
C1777 C1779 1.388 . S
C1778 C1777 1.366 . S
C1778 C1782 1.385 . S
C1779 H1754 0.951 . S
C1779 C1777 1.388 . S
C1779 C1780 1.366 . S
C1780 C1779 1.366 . S
C1780 C1781 1.414 . S
C1780 C1783 1.499 . S
C1781 H1755 0.950 . S
C1781 C1780 1.414 . S
C1781 C1782 1.374 . S
C1782 H1756 0.950 . S
C1782 C1778 1.385 . S
C1782 C1781 1.374 . S
C1783 C1780 1.499 . S
C1783 C1784 1.373 . S
C1783 C1785 1.389 . S
C1784 H1757 0.950 . S
C1784 C1770 1.377 . S
C1784 C1783 1.373 . S
C1785 C1769 1.377 . S
C1785 C1783 1.389 . S
C1785 C1786 1.524 . S
C1786 C1785 1.524 . S
C1786 C1787 1.397 . S
C1786 C1791 1.363 . S
C1787 H1758 0.950 . S
C1787 C1786 1.397 . S
C1787 C1788 1.334 . S
C1788 H1759 0.950 . S
C1788 C1787 1.334 . S
C1788 C1789 1.287 . S
C1789 C1788 1.287 . S
C1789 C1790 1.524 . S
C1789 H1792 0.999 . S
C1790 H1760 0.950 . S
C1790 C1789 1.524 . S
C1790 C1791 1.415 . S
C1791 H1761 0.950 . S
C1791 C1786 1.363 . S
C1791 C1790 1.415 . S
H1792 C1789 0.999 . S
H1793 C1774 0.913 . S
H1794 C1812 0.951 . S
H1795 C1814 0.951 . S
H1796 C1816 0.950 . S
H1797 C1817 0.950 . S
H1798 C1819 0.950 . S
H1799 C1822 0.950 . S
H1800 C1823 0.950 . S
H1801 C1825 0.950 . S
H1802 C1826 0.950 . S
H1803 C1827 0.951 . S
H1804 C1829 0.951 . S
H1805 C1831 0.950 . S
H1806 C1832 0.950 . S
H1807 C1834 0.950 . S
H1808 C1837 0.950 . S
H1809 C1838 0.950 . S
H1810 C1840 0.950 . S
H1811 C1841 0.950 . S
C1812 H1794 0.951 . S
C1812 C1813 1.366 . S
C1812 C1814 1.388 . S
C1813 C1812 1.366 . S
C1813 C1817 1.385 . S
C1814 H1795 0.951 . S
C1814 C1812 1.388 . S
C1814 C1815 1.366 . S
C1815 C1814 1.366 . S
C1815 C1816 1.414 . S
C1815 C1818 1.499 . S
C1816 H1796 0.950 . S
C1816 C1815 1.414 . S
C1816 C1817 1.374 . S
C1817 H1797 0.950 . S
C1817 C1813 1.385 . S
C1817 C1816 1.374 . S
C1818 C1815 1.499 . S
C1818 C1819 1.373 . S
C1818 C1820 1.389 . S
C1819 H1798 0.950 . S
C1819 C1818 1.373 . S
C1819 C1835 1.377 . S
C1820 C1818 1.389 . S
C1820 C1821 1.524 . S
C1820 C1834 1.377 . S
C1821 C1820 1.524 . S
C1821 C1822 1.397 . S
C1821 C1826 1.363 . S
C1822 H1799 0.950 . S
C1822 C1821 1.397 . S
C1822 C1823 1.334 . S
C1823 H1800 0.950 . S
C1823 C1822 1.334 . S
C1823 C1824 1.287 . S
C1824 C1823 1.287 . S
C1824 C1825 1.524 . S
C1824 H1843 0.913 . S
C1825 H1801 0.950 . S
C1825 C1824 1.524 . S
C1825 C1826 1.415 . S
C1826 H1802 0.950 . S
C1826 C1821 1.363 . S
C1826 C1825 1.415 . S
C1827 H1803 0.951 . S
C1827 C1828 1.366 . S
C1827 C1829 1.388 . S
C1828 C1827 1.366 . S
C1828 C1832 1.385 . S
C1829 H1804 0.951 . S
C1829 C1827 1.388 . S
C1829 C1830 1.366 . S
C1830 C1829 1.366 . S
C1830 C1831 1.414 . S
C1830 C1833 1.499 . S
C1831 H1805 0.950 . S
C1831 C1830 1.414 . S
C1831 C1832 1.374 . S
C1832 H1806 0.950 . S
C1832 C1828 1.385 . S
C1832 C1831 1.374 . S
C1833 C1830 1.499 . S
C1833 C1834 1.373 . S
C1833 C1835 1.389 . S
C1834 H1807 0.950 . S
C1834 C1820 1.377 . S
C1834 C1833 1.373 . S
C1835 C1819 1.377 . S
C1835 C1833 1.389 . S
C1835 C1836 1.524 . S
C1836 C1835 1.524 . S
C1836 C1837 1.397 . S
C1836 C1841 1.363 . S
C1837 H1808 0.950 . S
C1837 C1836 1.397 . S
C1837 C1838 1.334 . S
C1838 H1809 0.950 . S
C1838 C1837 1.334 . S
C1838 C1839 1.287 . S
C1839 C1838 1.287 . S
C1839 C1840 1.524 . S
C1839 H1842 0.999 . S
C1840 H1810 0.950 . S
C1840 C1839 1.524 . S
C1840 C1841 1.415 . S
C1841 H1811 0.950 . S
C1841 C1836 1.363 . S
C1841 C1840 1.415 . S
H1842 C1839 0.999 . S
H1843 C1824 0.913 . S
H1844 C1862 0.951 . S
H1845 C1864 0.951 . S
H1846 C1866 0.950 . S
H1847 C1867 0.950 . S
H1848 C1869 0.950 . S
H1849 C1872 0.950 . S
H1850 C1873 0.950 . S
H1851 C1875 0.950 . S
H1852 C1876 0.950 . S
H1853 C1877 0.951 . S
H1854 C1879 0.951 . S
H1855 C1881 0.950 . S
H1856 C1882 0.950 . S
H1857 C1884 0.950 . S
H1858 C1887 0.950 . S
H1859 C1888 0.950 . S
H1860 C1890 0.950 . S
H1861 C1891 0.950 . S
C1862 H1844 0.951 . S
C1862 C1863 1.366 . S
C1862 C1864 1.388 . S
C1863 C1862 1.366 . S
C1863 C1867 1.385 . S
C1864 H1845 0.951 . S
C1864 C1862 1.388 . S
C1864 C1865 1.366 . S
C1865 C1864 1.366 . S
C1865 C1866 1.414 . S
C1865 C1868 1.499 . S
C1866 H1846 0.950 . S
C1866 C1865 1.414 . S
C1866 C1867 1.374 . S
C1867 H1847 0.950 . S
C1867 C1863 1.385 . S
C1867 C1866 1.374 . S
C1868 C1865 1.499 . S
C1868 C1869 1.373 . S
C1868 C1870 1.389 . S
C1869 H1848 0.950 . S
C1869 C1868 1.373 . S
C1869 C1885 1.377 . S
C1870 C1868 1.389 . S
C1870 C1871 1.524 . S
C1870 C1884 1.377 . S
C1871 C1870 1.524 . S
C1871 C1872 1.397 . S
C1871 C1876 1.363 . S
C1872 H1849 0.950 . S
C1872 C1871 1.397 . S
C1872 C1873 1.334 . S
C1873 H1850 0.950 . S
C1873 C1872 1.334 . S
C1873 C1874 1.287 . S
C1874 C1873 1.287 . S
C1874 C1875 1.524 . S
C1874 H1893 0.913 . S
C1875 H1851 0.950 . S
C1875 C1874 1.524 . S
C1875 C1876 1.415 . S
C1876 H1852 0.950 . S
C1876 C1871 1.363 . S
C1876 C1875 1.415 . S
C1877 H1853 0.951 . S
C1877 C1878 1.366 . S
C1877 C1879 1.388 . S
C1878 C1877 1.366 . S
C1878 C1882 1.385 . S
C1879 H1854 0.951 . S
C1879 C1877 1.388 . S
C1879 C1880 1.366 . S
C1880 C1879 1.366 . S
C1880 C1881 1.414 . S
C1880 C1883 1.499 . S
C1881 H1855 0.950 . S
C1881 C1880 1.414 . S
C1881 C1882 1.374 . S
C1882 H1856 0.950 . S
C1882 C1878 1.385 . S
C1882 C1881 1.374 . S
C1883 C1880 1.499 . S
C1883 C1884 1.373 . S
C1883 C1885 1.389 . S
C1884 H1857 0.950 . S
C1884 C1870 1.377 . S
C1884 C1883 1.373 . S
C1885 C1869 1.377 . S
C1885 C1883 1.389 . S
C1885 C1886 1.524 . S
C1886 C1885 1.524 . S
C1886 C1887 1.397 . S
C1886 C1891 1.363 . S
C1887 H1858 0.950 . S
C1887 C1886 1.397 . S
C1887 C1888 1.334 . S
C1888 H1859 0.950 . S
C1888 C1887 1.334 . S
C1888 C1889 1.287 . S
C1889 C1888 1.287 . S
C1889 C1890 1.524 . S
C1889 H1892 0.999 . S
C1890 H1860 0.950 . S
C1890 C1889 1.524 . S
C1890 C1891 1.415 . S
C1891 H1861 0.950 . S
C1891 C1886 1.363 . S
C1891 C1890 1.415 . S
H1892 C1889 0.999 . S
H1893 C1874 0.913 . S
H1894 C1912 0.951 . S
H1895 C1914 0.951 . S
H1896 C1916 0.950 . S
H1897 C1917 0.950 . S
H1898 C1919 0.950 . S
H1899 C1922 0.950 . S
H1900 C1923 0.950 . S
H1901 C1925 0.950 . S
H1902 C1926 0.950 . S
H1903 C1927 0.951 . S
H1904 C1929 0.951 . S
H1905 C1931 0.950 . S
H1906 C1932 0.950 . S
H1907 C1934 0.950 . S
H1908 C1937 0.950 . S
H1909 C1938 0.950 . S
H1910 C1940 0.950 . S
H1911 C1941 0.950 . S
C1912 H1894 0.951 . S
C1912 C1913 1.366 . S
C1912 C1914 1.388 . S
C1913 C1912 1.366 . S
C1913 C1917 1.385 . S
C1914 H1895 0.951 . S
C1914 C1912 1.388 . S
C1914 C1915 1.366 . S
C1915 C1914 1.366 . S
C1915 C1916 1.414 . S
C1915 C1918 1.499 . S
C1916 H1896 0.950 . S
C1916 C1915 1.414 . S
C1916 C1917 1.374 . S
C1917 H1897 0.950 . S
C1917 C1913 1.385 . S
C1917 C1916 1.374 . S
C1918 C1915 1.499 . S
C1918 C1919 1.373 . S
C1918 C1920 1.389 . S
C1919 H1898 0.950 . S
C1919 C1918 1.373 . S
C1919 C1935 1.377 . S
C1920 C1918 1.389 . S
C1920 C1921 1.524 . S
C1920 C1934 1.377 . S
C1921 C1920 1.524 . S
C1921 C1922 1.397 . S
C1921 C1926 1.363 . S
C1922 H1899 0.950 . S
C1922 C1921 1.397 . S
C1922 C1923 1.334 . S
C1923 H1900 0.950 . S
C1923 C1922 1.334 . S
C1923 C1924 1.287 . S
C1924 C1923 1.287 . S
C1924 C1925 1.524 . S
C1924 H1943 0.913 . S
C1925 H1901 0.950 . S
C1925 C1924 1.524 . S
C1925 C1926 1.415 . S
C1926 H1902 0.950 . S
C1926 C1921 1.363 . S
C1926 C1925 1.415 . S
C1927 H1903 0.951 . S
C1927 C1928 1.366 . S
C1927 C1929 1.388 . S
C1928 C1927 1.366 . S
C1928 C1932 1.385 . S
C1929 H1904 0.951 . S
C1929 C1927 1.388 . S
C1929 C1930 1.366 . S
C1930 C1929 1.366 . S
C1930 C1931 1.414 . S
C1930 C1933 1.499 . S
C1931 H1905 0.950 . S
C1931 C1930 1.414 . S
C1931 C1932 1.374 . S
C1932 H1906 0.950 . S
C1932 C1928 1.385 . S
C1932 C1931 1.374 . S
C1933 C1930 1.499 . S
C1933 C1934 1.373 . S
C1933 C1935 1.389 . S
C1934 H1907 0.950 . S
C1934 C1920 1.377 . S
C1934 C1933 1.373 . S
C1935 C1919 1.377 . S
C1935 C1933 1.389 . S
C1935 C1936 1.524 . S
C1936 C1935 1.524 . S
C1936 C1937 1.397 . S
C1936 C1941 1.363 . S
C1937 H1908 0.950 . S
C1937 C1936 1.397 . S
C1937 C1938 1.334 . S
C1938 H1909 0.950 . S
C1938 C1937 1.334 . S
C1938 C1939 1.287 . S
C1939 C1938 1.287 . S
C1939 C1940 1.524 . S
C1939 H1942 0.999 . S
C1940 H1910 0.950 . S
C1940 C1939 1.524 . S
C1940 C1941 1.415 . S
C1941 H1911 0.950 . S
C1941 C1936 1.363 . S
C1941 C1940 1.415 . S
H1942 C1939 0.999 . S
H1943 C1924 0.913 . S
H1944 C1962 0.951 . S
H1945 C1964 0.951 . S
H1946 C1966 0.950 . S
H1947 C1967 0.950 . S
H1948 C1969 0.950 . S
H1949 C1972 0.950 . S
H1950 C1973 0.950 . S
H1951 C1975 0.950 1_565 S
H1952 C1976 0.950 . S
H1953 C1977 0.951 . S
H1954 C1979 0.951 . S
H1955 C1981 0.950 . S
H1956 C1982 0.950 . S
H1957 C1984 0.950 . S
H1958 C1987 0.950 . S
H1959 C1988 0.950 . S
H1960 C1990 0.950 . S
H1961 C1991 0.950 . S
C1962 H1944 0.951 . S
C1962 C1963 1.366 . S
C1962 C1964 1.388 . S
C1963 C1962 1.366 . S
C1963 C1967 1.385 . S
C1964 H1945 0.951 . S
C1964 C1962 1.388 . S
C1964 C1965 1.366 . S
C1965 C1964 1.366 . S
C1965 C1966 1.414 . S
C1965 C1968 1.499 . S
C1966 H1946 0.950 . S
C1966 C1965 1.414 . S
C1966 C1967 1.374 . S
C1967 H1947 0.950 . S
C1967 C1963 1.385 . S
C1967 C1966 1.374 . S
C1968 C1965 1.499 . S
C1968 C1969 1.373 . S
C1968 C1970 1.389 . S
C1969 H1948 0.950 . S
C1969 C1968 1.373 . S
C1969 C1985 1.377 . S
C1970 C1968 1.389 . S
C1970 C1971 1.524 . S
C1970 C1984 1.377 . S
C1971 C1970 1.524 . S
C1971 C1972 1.397 . S
C1971 C1976 1.363 . S
C1972 H1949 0.950 . S
C1972 C1971 1.397 . S
C1972 C1973 1.334 . S
C1973 H1950 0.950 . S
C1973 C1972 1.334 . S
C1973 C1974 1.287 . S
C1974 C1973 1.287 . S
C1974 C1975 1.524 . S
C1974 H1993 0.913 1_545 S
C1975 H1951 0.950 1_545 S
C1975 C1974 1.524 . S
C1975 C1976 1.415 . S
C1976 H1952 0.950 . S
C1976 C1971 1.363 . S
C1976 C1975 1.415 . S
C1977 H1953 0.951 . S
C1977 C1978 1.366 . S
C1977 C1979 1.388 . S
C1978 C1977 1.366 . S
C1978 C1982 1.385 . S
C1979 H1954 0.951 . S
C1979 C1977 1.388 . S
C1979 C1980 1.366 . S
C1980 C1979 1.366 . S
C1980 C1981 1.414 . S
C1980 C1983 1.499 . S
C1981 H1955 0.950 . S
C1981 C1980 1.414 . S
C1981 C1982 1.374 . S
C1982 H1956 0.950 . S
C1982 C1978 1.385 . S
C1982 C1981 1.374 . S
C1983 C1980 1.499 . S
C1983 C1984 1.373 . S
C1983 C1985 1.389 . S
C1984 H1957 0.950 . S
C1984 C1970 1.377 . S
C1984 C1983 1.373 . S
C1985 C1969 1.377 . S
C1985 C1983 1.389 . S
C1985 C1986 1.524 . S
C1986 C1985 1.524 . S
C1986 C1987 1.397 . S
C1986 C1991 1.363 . S
C1987 H1958 0.950 . S
C1987 C1986 1.397 . S
C1987 C1988 1.334 . S
C1988 H1959 0.950 . S
C1988 C1987 1.334 . S
C1988 C1989 1.287 . S
C1989 C1988 1.287 . S
C1989 C1990 1.524 . S
C1989 H1992 0.999 . S
C1990 H1960 0.950 . S
C1990 C1989 1.524 . S
C1990 C1991 1.415 . S
C1991 H1961 0.950 . S
C1991 C1986 1.363 . S
C1991 C1990 1.415 . S
H1992 C1989 0.999 . S
H1993 C1974 0.913 1_565 S
H1994 C2012 0.951 . S
H1995 C2014 0.951 . S
H1996 C2016 0.950 . S
H1997 C2017 0.950 . S
H1998 C2019 0.950 . S
H1999 C2022 0.950 . S
H2000 C2023 0.950 . S
H2001 C2025 0.950 . S
H2002 C2026 0.950 . S
H2003 C2027 0.951 . S
H2004 C2029 0.951 . S
H2005 C2031 0.950 . S
H2006 C2032 0.950 . S
H2007 C2034 0.950 . S
H2008 C2037 0.950 . S
H2009 C2038 0.950 . S
H2010 C2040 0.950 . S
H2011 C2041 0.950 . S
C2012 H1994 0.951 . S
C2012 C2013 1.366 . S
C2012 C2014 1.388 . S
C2013 C2012 1.366 . S
C2013 C2017 1.385 . S
C2014 H1995 0.951 . S
C2014 C2012 1.388 . S
C2014 C2015 1.366 . S
C2015 C2014 1.366 . S
C2015 C2016 1.414 . S
C2015 C2018 1.499 . S
C2016 H1996 0.950 . S
C2016 C2015 1.414 . S
C2016 C2017 1.374 . S
C2017 H1997 0.950 . S
C2017 C2013 1.385 . S
C2017 C2016 1.374 . S
C2018 C2015 1.499 . S
C2018 C2019 1.373 . S
C2018 C2020 1.389 . S
C2019 H1998 0.950 . S
C2019 C2018 1.373 . S
C2019 C2035 1.377 . S
C2020 C2018 1.389 . S
C2020 C2021 1.524 . S
C2020 C2034 1.377 . S
C2021 C2020 1.524 . S
C2021 C2022 1.397 . S
C2021 C2026 1.363 . S
C2022 H1999 0.950 . S
C2022 C2021 1.397 . S
C2022 C2023 1.334 . S
C2023 H2000 0.950 . S
C2023 C2022 1.334 . S
C2023 C2024 1.287 . S
C2024 C2023 1.287 . S
C2024 C2025 1.524 . S
C2024 H2043 0.913 . S
C2025 H2001 0.950 . S
C2025 C2024 1.524 . S
C2025 C2026 1.415 . S
C2026 H2002 0.950 . S
C2026 C2021 1.363 . S
C2026 C2025 1.415 . S
C2027 H2003 0.951 . S
C2027 C2028 1.366 . S
C2027 C2029 1.388 . S
C2028 C2027 1.366 . S
C2028 C2032 1.385 . S
C2029 H2004 0.951 . S
C2029 C2027 1.388 . S
C2029 C2030 1.366 . S
C2030 C2029 1.366 . S
C2030 C2031 1.414 . S
C2030 C2033 1.497 1_565 S
C2031 H2005 0.950 . S
C2031 C2030 1.414 . S
C2031 C2032 1.374 . S
C2032 H2006 0.950 . S
C2032 C2028 1.385 . S
C2032 C2031 1.374 . S
C2033 C2030 1.497 1_545 S
C2033 C2034 1.374 . S
C2033 C2035 1.390 . S
C2034 H2007 0.950 . S
C2034 C2020 1.377 . S
C2034 C2033 1.374 . S
C2035 C2019 1.377 . S
C2035 C2033 1.390 . S
C2035 C2036 1.524 . S
C2036 C2035 1.524 . S
C2036 C2037 1.397 1_545 S
C2036 C2041 1.363 . S
C2037 H2008 0.950 . S
C2037 C2036 1.397 1_565 S
C2037 C2038 1.334 . S
C2038 H2009 0.950 . S
C2038 C2037 1.334 . S
C2038 C2039 1.287 . S
C2039 C2038 1.287 . S
C2039 C2040 1.524 1_565 S
C2039 H2042 0.999 . S
C2040 H2010 0.950 . S
C2040 C2039 1.524 1_545 S
C2040 C2041 1.415 . S
C2041 H2011 0.950 . S
C2041 C2036 1.363 . S
C2041 C2040 1.415 . S
H2042 C2039 0.999 . S
H2043 C2024 0.913 . S
H2044 C2062 0.951 . S
H2045 C2064 0.951 . S
H2046 C2066 0.950 . S
H2047 C2067 0.950 . S
H2048 C2069 0.950 . S
H2049 C2072 0.950 . S
H2050 C2073 0.950 . S
H2051 C2075 0.950 . S
H2052 C2076 0.950 . S
H2053 C2077 0.951 . S
H2054 C2079 0.951 . S
H2055 C2081 0.950 . S
H2056 C2082 0.950 . S
H2057 C2084 0.950 . S
H2058 C2087 0.950 . S
H2059 C2088 0.950 . S
H2060 C2090 0.950 . S
H2061 C2091 0.950 . S
C2062 H2044 0.951 . S
C2062 C2063 1.366 . S
C2062 C2064 1.388 . S
C2063 C2062 1.366 . S
C2063 C2067 1.385 . S
C2064 H2045 0.951 . S
C2064 C2062 1.388 . S
C2064 C2065 1.366 . S
C2065 C2064 1.366 . S
C2065 C2066 1.414 . S
C2065 C2068 1.499 . S
C2066 H2046 0.950 . S
C2066 C2065 1.414 . S
C2066 C2067 1.374 . S
C2067 H2047 0.950 . S
C2067 C2063 1.385 . S
C2067 C2066 1.374 . S
C2068 C2065 1.499 . S
C2068 C2069 1.373 . S
C2068 C2070 1.389 . S
C2069 H2048 0.950 . S
C2069 C2068 1.373 . S
C2069 C2085 1.377 . S
C2070 C2068 1.389 . S
C2070 C2071 1.524 . S
C2070 C2084 1.377 . S
C2071 C2070 1.524 . S
C2071 C2072 1.397 . S
C2071 C2076 1.363 . S
C2072 H2049 0.950 . S
C2072 C2071 1.397 . S
C2072 C2073 1.334 . S
C2073 H2050 0.950 . S
C2073 C2072 1.334 . S
C2073 C2074 1.287 . S
C2074 C2073 1.287 . S
C2074 C2075 1.524 . S
C2074 H2093 0.913 . S
C2075 H2051 0.950 . S
C2075 C2074 1.524 . S
C2075 C2076 1.415 . S
C2076 H2052 0.950 . S
C2076 C2071 1.363 . S
C2076 C2075 1.415 . S
C2077 H2053 0.951 . S
C2077 C2078 1.366 . S
C2077 C2079 1.388 . S
C2078 C2077 1.366 . S
C2078 C2082 1.385 . S
C2079 H2054 0.951 . S
C2079 C2077 1.388 . S
C2079 C2080 1.366 . S
C2080 C2079 1.366 . S
C2080 C2081 1.414 . S
C2080 C2083 1.499 1_455 S
C2081 H2055 0.950 . S
C2081 C2080 1.414 . S
C2081 C2082 1.374 . S
C2082 H2056 0.950 . S
C2082 C2078 1.385 . S
C2082 C2081 1.374 . S
C2083 C2080 1.499 1_655 S
C2083 C2084 1.373 . S
C2083 C2085 1.389 . S
C2084 H2057 0.950 . S
C2084 C2070 1.377 . S
C2084 C2083 1.373 . S
C2085 C2069 1.377 . S
C2085 C2083 1.389 . S
C2085 C2086 1.540 . S
C2086 C2085 1.540 . S
C2086 C2087 1.352 1_655 S
C2086 C2091 1.397 . S
C2087 H2058 0.950 . S
C2087 C2086 1.352 1_455 S
C2087 C2088 1.334 . S
C2088 H2059 0.950 . S
C2088 C2087 1.334 . S
C2088 C2089 1.287 . S
C2089 C2088 1.287 . S
C2089 C2090 1.524 . S
C2089 H2092 0.999 . S
C2090 H2060 0.950 . S
C2090 C2089 1.524 . S
C2090 C2091 1.415 1_455 S
C2091 H2061 0.950 . S
C2091 C2086 1.397 . S
C2091 C2090 1.415 1_655 S
H2092 C2089 0.999 . S
H2093 C2074 0.913 . S
H2094 C2112 0.952 . S
H2095 C2114 0.951 . S
H2096 C2116 0.950 . S
H2097 C2117 0.950 . S
H2098 C2119 0.950 . S
H2099 C2122 0.950 . S
H2100 C2123 0.950 . S
H2101 C2125 0.950 . S
H2102 C2126 0.950 . S
H2103 C2127 0.951 . S
H2104 C2129 0.951 . S
H2105 C2131 0.950 . S
H2106 C2132 0.950 . S
H2107 C2134 0.950 . S
H2108 C2137 0.950 . S
H2109 C2138 0.950 . S
H2110 C2140 0.950 . S
H2111 C2141 0.950 . S
C2112 H2094 0.952 . S
C2112 C2113 1.366 . S
C2112 C2114 1.388 . S
C2113 C2112 1.366 . S
C2113 C2117 1.385 . S
C2114 H2095 0.951 . S
C2114 C2112 1.388 . S
C2114 C2115 1.366 . S
C2115 C2114 1.366 . S
C2115 C2116 1.414 . S
C2115 C2118 1.499 . S
C2116 H2096 0.950 . S
C2116 C2115 1.414 . S
C2116 C2117 1.374 . S
C2117 H2097 0.950 . S
C2117 C2113 1.385 . S
C2117 C2116 1.374 . S
C2118 C2115 1.499 . S
C2118 C2119 1.373 . S
C2118 C2120 1.389 . S
C2119 H2098 0.950 . S
C2119 C2118 1.373 . S
C2119 C2135 1.377 . S
C2120 C2118 1.389 . S
C2120 C2121 1.524 . S
C2120 C2134 1.377 . S
C2121 C2120 1.524 . S
C2121 C2122 1.397 . S
C2121 C2126 1.363 . S
C2122 H2099 0.950 . S
C2122 C2121 1.397 . S
C2122 C2123 1.334 . S
C2123 H2100 0.950 . S
C2123 C2122 1.334 . S
C2123 C2124 1.287 . S
C2124 C2123 1.287 . S
C2124 C2125 1.524 . S
C2124 H2143 0.913 . S
C2125 H2101 0.950 . S
C2125 C2124 1.524 . S
C2125 C2126 1.415 . S
C2126 H2102 0.950 . S
C2126 C2121 1.363 . S
C2126 C2125 1.415 . S
C2127 H2103 0.951 . S
C2127 C2128 1.366 . S
C2127 C2129 1.388 . S
C2128 C2127 1.366 . S
C2128 C2132 1.385 . S
C2129 H2104 0.951 . S
C2129 C2127 1.388 . S
C2129 C2130 1.366 . S
C2130 C2129 1.366 . S
C2130 C2131 1.414 . S
C2130 C2133 1.499 . S
C2131 H2105 0.950 . S
C2131 C2130 1.414 . S
C2131 C2132 1.374 . S
C2132 H2106 0.950 . S
C2132 C2128 1.385 . S
C2132 C2131 1.374 . S
C2133 C2130 1.499 . S
C2133 C2134 1.373 . S
C2133 C2135 1.389 . S
C2134 H2107 0.950 . S
C2134 C2120 1.377 . S
C2134 C2133 1.373 . S
C2135 C2119 1.377 . S
C2135 C2133 1.389 . S
C2135 C2136 1.524 . S
C2136 C2135 1.524 . S
C2136 C2137 1.397 . S
C2136 C2141 1.363 . S
C2137 H2108 0.950 . S
C2137 C2136 1.397 . S
C2137 C2138 1.334 . S
C2138 H2109 0.950 . S
C2138 C2137 1.334 . S
C2138 C2139 1.287 . S
C2139 C2138 1.287 . S
C2139 C2140 1.524 . S
C2139 H2142 0.999 . S
C2140 H2110 0.950 . S
C2140 C2139 1.524 . S
C2140 C2141 1.415 . S
C2141 H2111 0.950 . S
C2141 C2136 1.363 . S
C2141 C2140 1.415 . S
H2142 C2139 0.999 . S
H2143 C2124 0.913 . S
H2144 C2162 0.951 . S
H2145 C2164 0.951 . S
H2146 C2166 0.950 . S
H2147 C2167 0.950 . S
H2148 C2169 0.950 . S
H2149 C2172 0.950 . S
H2150 C2173 0.950 . S
H2151 C2175 0.950 . S
H2152 C2176 0.922 1_565 S
H2153 C2177 0.951 . S
H2154 C2179 0.951 . S
H2155 C2181 0.950 . S
H2156 C2182 0.950 . S
H2157 C2184 0.950 . S
H2158 C2187 0.950 . S
H2159 C2188 0.950 . S
H2160 C2190 0.950 . S
H2161 C2191 0.950 . S
C2162 H2144 0.951 . S
C2162 C2163 1.366 . S
C2162 C2164 1.388 . S
C2163 C2162 1.366 . S
C2163 C2167 1.385 . S
C2164 H2145 0.951 . S
C2164 C2162 1.388 . S
C2164 C2165 1.366 . S
C2165 C2164 1.366 . S
C2165 C2166 1.414 . S
C2165 C2168 1.497 . S
C2166 H2146 0.950 . S
C2166 C2165 1.414 . S
C2166 C2167 1.374 . S
C2167 H2147 0.950 . S
C2167 C2163 1.385 . S
C2167 C2166 1.374 . S
C2168 C2165 1.497 . S
C2168 C2169 1.374 1_545 S
C2168 C2170 1.391 1_545 S
C2169 H2148 0.950 . S
C2169 C2168 1.374 1_565 S
C2169 C2185 1.377 . S
C2170 C2168 1.391 1_565 S
C2170 C2171 1.524 1_565 S
C2170 C2184 1.377 . S
C2171 C2170 1.524 1_545 S
C2171 C2172 1.397 . S
C2171 C2176 1.388 . S
C2172 H2149 0.950 . S
C2172 C2171 1.397 . S
C2172 C2173 1.334 . S
C2173 H2150 0.950 . S
C2173 C2172 1.334 . S
C2173 C2174 1.287 . S
C2174 C2173 1.287 . S
C2174 C2175 1.524 . S
C2174 H2193 0.913 . S
C2175 H2151 0.950 . S
C2175 C2174 1.524 . S
C2175 C2176 1.419 . S
C2176 H2152 0.922 1_545 S
C2176 C2171 1.388 . S
C2176 C2175 1.419 . S
C2177 H2153 0.951 . S
C2177 C2178 1.366 . S
C2177 C2179 1.388 . S
C2178 C2177 1.366 . S
C2178 C2182 1.385 . S
C2179 H2154 0.951 . S
C2179 C2177 1.388 . S
C2179 C2180 1.366 . S
C2180 C2179 1.366 . S
C2180 C2181 1.414 . S
C2180 C2183 1.499 . S
C2181 H2155 0.950 . S
C2181 C2180 1.414 . S
C2181 C2182 1.374 . S
C2182 H2156 0.950 . S
C2182 C2178 1.385 . S
C2182 C2181 1.374 . S
C2183 C2180 1.499 . S
C2183 C2184 1.373 . S
C2183 C2185 1.389 . S
C2184 H2157 0.950 . S
C2184 C2170 1.377 . S
C2184 C2183 1.373 . S
C2185 C2169 1.377 . S
C2185 C2183 1.389 . S
C2185 C2186 1.524 . S
C2186 C2185 1.524 . S
C2186 C2187 1.397 . S
C2186 C2191 1.363 . S
C2187 H2158 0.950 . S
C2187 C2186 1.397 . S
C2187 C2188 1.334 . S
C2188 H2159 0.950 . S
C2188 C2187 1.334 . S
C2188 C2189 1.287 . S
C2189 C2188 1.287 . S
C2189 C2190 1.524 . S
C2189 H2192 0.999 . S
C2190 H2160 0.950 . S
C2190 C2189 1.524 . S
C2190 C2191 1.415 . S
C2191 H2161 0.950 . S
C2191 C2186 1.363 . S
C2191 C2190 1.415 . S
H2192 C2189 0.999 . S
H2193 C2174 0.913 . S
H2194 C2212 0.951 . S
H2195 C2214 0.951 . S
H2196 C2216 0.950 . S
H2197 C2217 0.950 . S
H2198 C2219 0.950 . S
H2199 C2222 0.950 . S
H2200 C2223 0.950 . S
H2201 C2225 0.950 . S
H2202 C2226 0.950 . S
H2203 C2227 0.951 . S
H2204 C2229 0.951 . S
H2205 C2231 0.950 . S
H2206 C2232 0.950 . S
H2207 C2234 0.950 . S
H2208 C2237 0.950 . S
H2209 C2238 0.950 . S
H2210 C2240 0.950 1_455 S
H2211 C2241 0.950 . S
C2212 H2194 0.951 . S
C2212 C2213 1.366 . S
C2212 C2214 1.388 . S
C2213 C2212 1.366 . S
C2213 C2217 1.385 . S
C2214 H2195 0.951 . S
C2214 C2212 1.388 . S
C2214 C2215 1.366 . S
C2215 C2214 1.366 . S
C2215 C2216 1.414 . S
C2215 C2218 1.499 . S
C2216 H2196 0.950 . S
C2216 C2215 1.414 . S
C2216 C2217 1.374 . S
C2217 H2197 0.950 . S
C2217 C2213 1.385 . S
C2217 C2216 1.374 . S
C2218 C2215 1.499 . S
C2218 C2219 1.373 . S
C2218 C2220 1.389 . S
C2219 H2198 0.950 . S
C2219 C2218 1.373 . S
C2219 C2235 1.377 . S
C2220 C2218 1.389 . S
C2220 C2221 1.524 . S
C2220 C2234 1.377 . S
C2221 C2220 1.524 . S
C2221 C2222 1.397 . S
C2221 C2226 1.363 . S
C2222 H2199 0.950 . S
C2222 C2221 1.397 . S
C2222 C2223 1.334 . S
C2223 H2200 0.950 . S
C2223 C2222 1.334 . S
C2223 C2224 1.287 . S
C2224 C2223 1.287 . S
C2224 C2225 1.524 . S
C2224 H2243 0.913 . S
C2225 H2201 0.950 . S
C2225 C2224 1.524 . S
C2225 C2226 1.415 . S
C2226 H2202 0.950 . S
C2226 C2221 1.363 . S
C2226 C2225 1.415 . S
C2227 H2203 0.951 . S
C2227 C2228 1.366 . S
C2227 C2229 1.388 . S
C2228 C2227 1.366 . S
C2228 C2232 1.385 . S
C2229 H2204 0.951 . S
C2229 C2227 1.388 . S
C2229 C2230 1.366 . S
C2230 C2229 1.366 . S
C2230 C2231 1.414 . S
C2230 C2233 1.508 . S
C2231 H2205 0.950 . S
C2231 C2230 1.414 . S
C2231 C2232 1.374 . S
C2232 H2206 0.950 . S
C2232 C2228 1.385 . S
C2232 C2231 1.374 . S
C2233 C2230 1.508 . S
C2233 C2234 1.369 1_655 S
C2233 C2235 1.383 1_655 S
C2234 H2207 0.950 . S
C2234 C2220 1.377 . S
C2234 C2233 1.369 1_455 S
C2235 C2219 1.377 . S
C2235 C2233 1.383 1_455 S
C2235 C2236 1.524 . S
C2236 C2235 1.524 . S
C2236 C2237 1.397 1_455 S
C2236 C2241 1.363 . S
C2237 H2208 0.950 . S
C2237 C2236 1.397 1_655 S
C2237 C2238 1.334 . S
C2238 H2209 0.950 . S
C2238 C2237 1.334 . S
C2238 C2239 1.287 . S
C2239 C2238 1.287 . S
C2239 C2240 1.524 . S
C2239 H2242 0.999 . S
C2240 H2210 0.950 1_655 S
C2240 C2239 1.524 . S
C2240 C2241 1.415 1_655 S
C2241 H2211 0.950 . S
C2241 C2236 1.363 . S
C2241 C2240 1.415 1_455 S
H2242 C2239 0.999 . S
H2243 C2224 0.913 . S
H2244 C2262 0.951 . S
H2245 C2264 0.951 . S
H2246 C2266 0.950 . S
H2247 C2267 0.950 . S
H2248 C2269 0.950 . S
H2249 C2272 0.950 . S
H2250 C2273 0.950 . S
H2251 C2275 0.950 . S
H2252 C2276 0.950 . S
H2253 C2277 0.951 . S
H2254 C2279 0.951 . S
H2255 C2281 0.950 . S
H2256 C2282 0.950 . S
H2257 C2284 0.950 . S
H2258 C2287 0.950 . S
H2259 C2288 0.950 . S
H2260 C2290 0.950 . S
H2261 C2291 0.950 . S
C2262 H2244 0.951 . S
C2262 C2263 1.366 . S
C2262 C2264 1.388 . S
C2263 C2262 1.366 . S
C2263 C2267 1.385 . S
C2264 H2245 0.951 . S
C2264 C2262 1.388 . S
C2264 C2265 1.366 . S
C2265 C2264 1.366 . S
C2265 C2266 1.414 . S
C2265 C2268 1.499 . S
C2266 H2246 0.950 . S
C2266 C2265 1.414 . S
C2266 C2267 1.374 . S
C2267 H2247 0.950 . S
C2267 C2263 1.385 . S
C2267 C2266 1.374 . S
C2268 C2265 1.499 . S
C2268 C2269 1.373 . S
C2268 C2270 1.389 . S
C2269 H2248 0.950 . S
C2269 C2268 1.373 . S
C2269 C2285 1.377 . S
C2270 C2268 1.389 . S
C2270 C2271 1.524 . S
C2270 C2284 1.377 . S
C2271 C2270 1.524 . S
C2271 C2272 1.397 . S
C2271 C2276 1.363 . S
C2272 H2249 0.950 . S
C2272 C2271 1.397 . S
C2272 C2273 1.334 . S
C2273 H2250 0.950 . S
C2273 C2272 1.334 . S
C2273 C2274 1.287 . S
C2274 C2273 1.287 . S
C2274 C2275 1.524 . S
C2274 H2293 0.913 . S
C2275 H2251 0.950 . S
C2275 C2274 1.524 . S
C2275 C2276 1.415 . S
C2276 H2252 0.950 . S
C2276 C2271 1.363 . S
C2276 C2275 1.415 . S
C2277 H2253 0.951 . S
C2277 C2278 1.366 . S
C2277 C2279 1.388 . S
C2278 C2277 1.366 . S
C2278 C2282 1.385 . S
C2279 H2254 0.951 . S
C2279 C2277 1.388 . S
C2279 C2280 1.366 . S
C2280 C2279 1.366 . S
C2280 C2281 1.414 . S
C2280 C2283 1.499 . S
C2281 H2255 0.950 . S
C2281 C2280 1.414 . S
C2281 C2282 1.374 . S
C2282 H2256 0.950 . S
C2282 C2278 1.385 . S
C2282 C2281 1.374 . S
C2283 C2280 1.499 . S
C2283 C2284 1.373 . S
C2283 C2285 1.389 . S
C2284 H2257 0.950 . S
C2284 C2270 1.377 . S
C2284 C2283 1.373 . S
C2285 C2269 1.377 . S
C2285 C2283 1.389 . S
C2285 C2286 1.524 . S
C2286 C2285 1.524 . S
C2286 C2287 1.397 . S
C2286 C2291 1.363 . S
C2287 H2258 0.950 . S
C2287 C2286 1.397 . S
C2287 C2288 1.334 . S
C2288 H2259 0.950 . S
C2288 C2287 1.334 . S
C2288 C2289 1.287 . S
C2289 C2288 1.287 . S
C2289 C2290 1.524 . S
C2289 H2292 0.999 . S
C2290 H2260 0.950 . S
C2290 C2289 1.524 . S
C2290 C2291 1.415 . S
C2291 H2261 0.950 . S
C2291 C2286 1.363 . S
C2291 C2290 1.415 . S
H2292 C2289 0.999 . S
H2293 C2274 0.913 . S
H2294 C2312 0.951 . S
H2295 C2314 0.951 . S
H2296 C2316 0.950 . S
H2297 C2317 0.950 . S
H2298 C2319 0.950 . S
H2299 C2322 0.950 . S
H2300 C2323 0.950 . S
H2301 C2325 0.950 . S
H2302 C2326 0.950 . S
H2303 C2327 0.951 . S
H2304 C2329 0.951 . S
H2305 C2331 0.950 . S
H2306 C2332 0.950 . S
H2307 C2334 0.950 . S
H2308 C2337 0.950 . S
H2309 C2338 0.950 . S
H2310 C2340 0.950 . S
H2311 C2341 0.950 . S
C2312 H2294 0.951 . S
C2312 C2313 1.366 . S
C2312 C2314 1.388 . S
C2313 C2312 1.366 . S
C2313 C2317 1.385 . S
C2314 H2295 0.951 . S
C2314 C2312 1.388 . S
C2314 C2315 1.366 . S
C2315 C2314 1.366 . S
C2315 C2316 1.414 . S
C2315 C2318 1.499 . S
C2316 H2296 0.950 . S
C2316 C2315 1.414 . S
C2316 C2317 1.374 . S
C2317 H2297 0.950 . S
C2317 C2313 1.385 . S
C2317 C2316 1.374 . S
C2318 C2315 1.499 . S
C2318 C2319 1.373 . S
C2318 C2320 1.389 . S
C2319 H2298 0.950 . S
C2319 C2318 1.373 . S
C2319 C2335 1.377 . S
C2320 C2318 1.389 . S
C2320 C2321 1.524 . S
C2320 C2334 1.377 . S
C2321 C2320 1.524 . S
C2321 C2322 1.397 . S
C2321 C2326 1.363 . S
C2322 H2299 0.950 . S
C2322 C2321 1.397 . S
C2322 C2323 1.334 . S
C2323 H2300 0.950 . S
C2323 C2322 1.334 . S
C2323 C2324 1.287 . S
C2324 C2323 1.287 . S
C2324 C2325 1.524 . S
C2324 H2343 0.913 . S
C2325 H2301 0.950 . S
C2325 C2324 1.524 . S
C2325 C2326 1.415 . S
C2326 H2302 0.950 . S
C2326 C2321 1.363 . S
C2326 C2325 1.415 . S
C2327 H2303 0.951 . S
C2327 C2328 1.366 . S
C2327 C2329 1.388 . S
C2328 C2327 1.366 . S
C2328 C2332 1.385 . S
C2329 H2304 0.951 . S
C2329 C2327 1.388 . S
C2329 C2330 1.366 . S
C2330 C2329 1.366 . S
C2330 C2331 1.414 . S
C2330 C2333 1.499 . S
C2331 H2305 0.950 . S
C2331 C2330 1.414 . S
C2331 C2332 1.374 . S
C2332 H2306 0.950 . S
C2332 C2328 1.385 . S
C2332 C2331 1.374 . S
C2333 C2330 1.499 . S
C2333 C2334 1.373 . S
C2333 C2335 1.389 . S
C2334 H2307 0.950 . S
C2334 C2320 1.377 . S
C2334 C2333 1.373 . S
C2335 C2319 1.377 . S
C2335 C2333 1.389 . S
C2335 C2336 1.524 . S
C2336 C2335 1.524 . S
C2336 C2337 1.397 . S
C2336 C2341 1.363 . S
C2337 H2308 0.950 . S
C2337 C2336 1.397 . S
C2337 C2338 1.334 . S
C2338 H2309 0.950 . S
C2338 C2337 1.334 . S
C2338 C2339 1.287 . S
C2339 C2338 1.287 . S
C2339 C2340 1.524 . S
C2339 H2342 0.999 . S
C2340 H2310 0.950 . S
C2340 C2339 1.524 . S
C2340 C2341 1.415 . S
C2341 H2311 0.950 . S
C2341 C2336 1.363 . S
C2341 C2340 1.415 . S
H2342 C2339 0.999 . S
H2343 C2324 0.913 . S
H2344 C2362 0.951 . S
H2345 C2364 0.951 . S
H2346 C2366 0.950 . S
H2347 C2367 0.950 . S
H2348 C2369 0.950 . S
H2349 C2372 0.950 . S
H2350 C2373 0.950 . S
H2351 C2375 0.950 . S
H2352 C2376 0.950 . S
H2353 C2377 0.951 . S
H2354 C2379 0.951 . S
H2355 C2381 0.950 . S
H2356 C2382 0.950 . S
H2357 C2384 0.950 . S
H2358 C2387 0.950 . S
H2359 C2388 0.950 . S
H2360 C2390 0.950 . S
H2361 C2391 0.950 . S
C2362 H2344 0.951 . S
C2362 C2363 1.366 . S
C2362 C2364 1.388 . S
C2363 C2362 1.366 . S
C2363 C2367 1.385 . S
C2364 H2345 0.951 . S
C2364 C2362 1.388 . S
C2364 C2365 1.366 . S
C2365 C2364 1.366 . S
C2365 C2366 1.414 . S
C2365 C2368 1.499 . S
C2366 H2346 0.950 . S
C2366 C2365 1.414 . S
C2366 C2367 1.374 . S
C2367 H2347 0.950 . S
C2367 C2363 1.385 . S
C2367 C2366 1.374 . S
C2368 C2365 1.499 . S
C2368 C2369 1.373 . S
C2368 C2370 1.389 . S
C2369 H2348 0.950 . S
C2369 C2368 1.373 . S
C2369 C2385 1.377 . S
C2370 C2368 1.389 . S
C2370 C2371 1.524 . S
C2370 C2384 1.377 . S
C2371 C2370 1.524 . S
C2371 C2372 1.397 . S
C2371 C2376 1.363 . S
C2372 H2349 0.950 . S
C2372 C2371 1.397 . S
C2372 C2373 1.334 . S
C2373 H2350 0.950 . S
C2373 C2372 1.334 . S
C2373 C2374 1.287 . S
C2374 C2373 1.287 . S
C2374 C2375 1.524 . S
C2374 H2393 0.913 . S
C2375 H2351 0.950 . S
C2375 C2374 1.524 . S
C2375 C2376 1.415 . S
C2376 H2352 0.950 . S
C2376 C2371 1.363 . S
C2376 C2375 1.415 . S
C2377 H2353 0.951 . S
C2377 C2378 1.366 . S
C2377 C2379 1.388 . S
C2378 C2377 1.366 . S
C2378 C2382 1.385 . S
C2379 H2354 0.951 . S
C2379 C2377 1.388 . S
C2379 C2380 1.366 . S
C2380 C2379 1.366 . S
C2380 C2381 1.414 . S
C2380 C2383 1.499 . S
C2381 H2355 0.950 . S
C2381 C2380 1.414 . S
C2381 C2382 1.374 . S
C2382 H2356 0.950 . S
C2382 C2378 1.385 . S
C2382 C2381 1.374 . S
C2383 C2380 1.499 . S
C2383 C2384 1.373 . S
C2383 C2385 1.389 . S
C2384 H2357 0.950 . S
C2384 C2370 1.377 . S
C2384 C2383 1.373 . S
C2385 C2369 1.377 . S
C2385 C2383 1.389 . S
C2385 C2386 1.524 . S
C2386 C2385 1.524 . S
C2386 C2387 1.397 . S
C2386 C2391 1.363 . S
C2387 H2358 0.950 . S
C2387 C2386 1.397 . S
C2387 C2388 1.334 . S
C2388 H2359 0.950 . S
C2388 C2387 1.334 . S
C2388 C2389 1.287 . S
C2389 C2388 1.287 . S
C2389 C2390 1.524 . S
C2389 H2392 0.999 . S
C2390 H2360 0.950 . S
C2390 C2389 1.524 . S
C2390 C2391 1.415 . S
C2391 H2361 0.950 . S
C2391 C2386 1.363 . S
C2391 C2390 1.415 . S
H2392 C2389 0.999 . S
H2393 C2374 0.913 . S
H2394 C2412 0.951 . S
H2395 C2414 0.951 . S
H2396 C2416 0.950 . S
H2397 C2417 0.950 . S
H2398 C2419 0.950 . S
H2399 C2422 0.950 . S
H2400 C2423 0.950 . S
H2401 C2425 0.950 . S
H2402 C2426 0.950 . S
H2403 C2427 0.951 . S
H2404 C2429 0.951 . S
H2405 C2431 0.950 . S
H2406 C2432 0.950 . S
H2407 C2434 0.950 . S
H2408 C2437 0.950 . S
H2409 C2438 0.950 . S
H2410 C2440 0.950 . S
H2411 C2441 0.950 . S
C2412 H2394 0.951 . S
C2412 C2413 1.366 . S
C2412 C2414 1.388 . S
C2413 C2412 1.366 . S
C2413 C2417 1.385 . S
C2414 H2395 0.951 . S
C2414 C2412 1.388 . S
C2414 C2415 1.366 . S
C2415 C2414 1.366 . S
C2415 C2416 1.414 . S
C2415 C2418 1.499 . S
C2416 H2396 0.950 . S
C2416 C2415 1.414 . S
C2416 C2417 1.374 . S
C2417 H2397 0.950 . S
C2417 C2413 1.385 . S
C2417 C2416 1.374 . S
C2418 C2415 1.499 . S
C2418 C2419 1.373 . S
C2418 C2420 1.389 . S
C2419 H2398 0.950 . S
C2419 C2418 1.373 . S
C2419 C2435 1.377 . S
C2420 C2418 1.389 . S
C2420 C2421 1.524 . S
C2420 C2434 1.377 . S
C2421 C2420 1.524 . S
C2421 C2422 1.397 . S
C2421 C2426 1.363 . S
C2422 H2399 0.950 . S
C2422 C2421 1.397 . S
C2422 C2423 1.334 . S
C2423 H2400 0.950 . S
C2423 C2422 1.334 . S
C2423 C2424 1.287 . S
C2424 C2423 1.287 . S
C2424 C2425 1.524 . S
C2424 H2443 0.913 . S
C2425 H2401 0.950 . S
C2425 C2424 1.524 . S
C2425 C2426 1.415 . S
C2426 H2402 0.950 . S
C2426 C2421 1.363 . S
C2426 C2425 1.415 . S
C2427 H2403 0.951 . S
C2427 C2428 1.366 . S
C2427 C2429 1.388 . S
C2428 C2427 1.366 . S
C2428 C2432 1.385 . S
C2429 H2404 0.951 . S
C2429 C2427 1.388 . S
C2429 C2430 1.366 . S
C2430 C2429 1.366 . S
C2430 C2431 1.414 . S
C2430 C2433 1.499 . S
C2431 H2405 0.950 . S
C2431 C2430 1.414 . S
C2431 C2432 1.374 . S
C2432 H2406 0.950 . S
C2432 C2428 1.385 . S
C2432 C2431 1.374 . S
C2433 C2430 1.499 . S
C2433 C2434 1.373 . S
C2433 C2435 1.389 . S
C2434 H2407 0.950 . S
C2434 C2420 1.377 . S
C2434 C2433 1.373 . S
C2435 C2419 1.377 . S
C2435 C2433 1.389 . S
C2435 C2436 1.524 . S
C2436 C2435 1.524 . S
C2436 C2437 1.397 . S
C2436 C2441 1.363 . S
C2437 H2408 0.950 . S
C2437 C2436 1.397 . S
C2437 C2438 1.334 . S
C2438 H2409 0.950 . S
C2438 C2437 1.334 . S
C2438 C2439 1.287 . S
C2439 C2438 1.287 . S
C2439 C2440 1.524 . S
C2439 H2442 0.999 . S
C2440 H2410 0.950 . S
C2440 C2439 1.524 . S
C2440 C2441 1.415 . S
C2441 H2411 0.950 . S
C2441 C2436 1.363 . S
C2441 C2440 1.415 . S
H2442 C2439 0.999 . S
H2443 C2424 0.913 . S
H2444 C2462 0.951 . S
H2445 C2464 0.951 . S
H2446 C2466 0.950 . S
H2447 C2467 0.950 . S
H2448 C2469 0.950 . S
H2449 C2472 0.950 . S
H2450 C2473 0.950 . S
H2451 C2475 0.950 . S
H2452 C2476 0.950 . S
H2453 C2477 0.951 . S
H2454 C2479 0.951 . S
H2455 C2481 0.950 . S
H2456 C2482 0.950 . S
H2457 C2484 0.950 . S
H2458 C2487 0.950 . S
H2459 C2488 0.950 . S
H2460 C2490 0.950 . S
H2461 C2491 0.950 . S
C2462 H2444 0.951 . S
C2462 C2463 1.366 . S
C2462 C2464 1.388 . S
C2463 C2462 1.366 . S
C2463 C2467 1.385 . S
C2464 H2445 0.951 . S
C2464 C2462 1.388 . S
C2464 C2465 1.366 . S
C2465 C2464 1.366 . S
C2465 C2466 1.414 . S
C2465 C2468 1.499 . S
C2466 H2446 0.950 . S
C2466 C2465 1.414 . S
C2466 C2467 1.374 . S
C2467 H2447 0.950 . S
C2467 C2463 1.385 . S
C2467 C2466 1.374 . S
C2468 C2465 1.499 . S
C2468 C2469 1.373 . S
C2468 C2470 1.389 . S
C2469 H2448 0.950 . S
C2469 C2468 1.373 . S
C2469 C2485 1.377 . S
C2470 C2468 1.389 . S
C2470 C2471 1.524 . S
C2470 C2484 1.377 . S
C2471 C2470 1.524 . S
C2471 C2472 1.397 . S
C2471 C2476 1.363 . S
C2472 H2449 0.950 . S
C2472 C2471 1.397 . S
C2472 C2473 1.334 . S
C2473 H2450 0.950 . S
C2473 C2472 1.334 . S
C2473 C2474 1.287 . S
C2474 C2473 1.287 . S
C2474 C2475 1.524 . S
C2474 H2493 0.913 1_554 S
C2475 H2451 0.950 . S
C2475 C2474 1.524 . S
C2475 C2476 1.415 . S
C2476 H2452 0.950 . S
C2476 C2471 1.363 . S
C2476 C2475 1.415 . S
C2477 H2453 0.951 . S
C2477 C2478 1.366 . S
C2477 C2479 1.388 . S
C2478 C2477 1.366 . S
C2478 C2482 1.385 . S
C2479 H2454 0.951 . S
C2479 C2477 1.388 . S
C2479 C2480 1.366 . S
C2480 C2479 1.366 . S
C2480 C2481 1.414 . S
C2480 C2483 1.499 . S
C2481 H2455 0.950 . S
C2481 C2480 1.414 . S
C2481 C2482 1.374 . S
C2482 H2456 0.950 . S
C2482 C2478 1.385 . S
C2482 C2481 1.374 . S
C2483 C2480 1.499 . S
C2483 C2484 1.373 . S
C2483 C2485 1.389 . S
C2484 H2457 0.950 . S
C2484 C2470 1.377 . S
C2484 C2483 1.373 . S
C2485 C2469 1.377 . S
C2485 C2483 1.389 . S
C2485 C2486 1.524 . S
C2486 C2485 1.524 . S
C2486 C2487 1.397 . S
C2486 C2491 1.363 . S
C2487 H2458 0.950 . S
C2487 C2486 1.397 . S
C2487 C2488 1.334 . S
C2488 H2459 0.950 . S
C2488 C2487 1.334 . S
C2488 C2489 1.287 . S
C2489 C2488 1.287 . S
C2489 C2490 1.524 . S
C2489 H2492 0.999 . S
C2490 H2460 0.950 . S
C2490 C2489 1.524 . S
C2490 C2491 1.415 . S
C2491 H2461 0.950 . S
C2491 C2486 1.363 . S
C2491 C2490 1.415 . S
H2492 C2489 0.999 . S
H2493 C2474 0.913 1_556 S
H2494 C2512 0.951 . S
H2495 C2514 0.951 . S
H2496 C2516 0.950 . S
H2497 C2517 0.950 . S
H2498 C2519 0.950 . S
H2499 C2522 0.950 . S
H2500 C2523 0.950 . S
H2501 C2525 0.950 . S
H2502 C2526 0.950 . S
H2503 C2527 0.951 . S
H2504 C2529 0.951 . S
H2505 C2531 0.950 . S
H2506 C2532 0.950 . S
H2507 C2534 0.950 . S
H2508 C2537 0.950 . S
H2509 C2538 0.950 . S
H2510 C2540 0.950 . S
H2511 C2541 0.950 . S
C2512 H2494 0.951 . S
C2512 C2513 1.366 . S
C2512 C2514 1.388 . S
C2513 C2512 1.366 . S
C2513 C2517 1.385 . S
C2514 H2495 0.951 . S
C2514 C2512 1.388 . S
C2514 C2515 1.366 . S
C2515 C2514 1.366 . S
C2515 C2516 1.414 . S
C2515 C2518 1.499 . S
C2516 H2496 0.950 . S
C2516 C2515 1.414 . S
C2516 C2517 1.374 . S
C2517 H2497 0.950 . S
C2517 C2513 1.385 . S
C2517 C2516 1.374 . S
C2518 C2515 1.499 . S
C2518 C2519 1.373 . S
C2518 C2520 1.389 . S
C2519 H2498 0.950 . S
C2519 C2518 1.373 . S
C2519 C2535 1.377 . S
C2520 C2518 1.389 . S
C2520 C2521 1.524 . S
C2520 C2534 1.377 . S
C2521 C2520 1.524 . S
C2521 C2522 1.397 . S
C2521 C2526 1.363 . S
C2522 H2499 0.950 . S
C2522 C2521 1.397 . S
C2522 C2523 1.334 . S
C2523 H2500 0.950 . S
C2523 C2522 1.334 . S
C2523 C2524 1.287 . S
C2524 C2523 1.287 . S
C2524 C2525 1.524 . S
C2524 H2543 0.913 . S
C2525 H2501 0.950 . S
C2525 C2524 1.524 . S
C2525 C2526 1.415 . S
C2526 H2502 0.950 . S
C2526 C2521 1.363 . S
C2526 C2525 1.415 . S
C2527 H2503 0.951 . S
C2527 C2528 1.366 . S
C2527 C2529 1.388 . S
C2528 C2527 1.366 . S
C2528 C2532 1.385 . S
C2529 H2504 0.951 . S
C2529 C2527 1.388 . S
C2529 C2530 1.366 . S
C2530 C2529 1.366 . S
C2530 C2531 1.414 . S
C2530 C2533 1.499 . S
C2531 H2505 0.950 . S
C2531 C2530 1.414 . S
C2531 C2532 1.374 . S
C2532 H2506 0.950 . S
C2532 C2528 1.385 . S
C2532 C2531 1.374 . S
C2533 C2530 1.499 . S
C2533 C2534 1.373 . S
C2533 C2535 1.389 . S
C2534 H2507 0.950 . S
C2534 C2520 1.377 . S
C2534 C2533 1.373 . S
C2535 C2519 1.377 . S
C2535 C2533 1.389 . S
C2535 C2536 1.524 . S
C2536 C2535 1.524 . S
C2536 C2537 1.397 . S
C2536 C2541 1.363 . S
C2537 H2508 0.950 . S
C2537 C2536 1.397 . S
C2537 C2538 1.334 . S
C2538 H2509 0.950 . S
C2538 C2537 1.334 . S
C2538 C2539 1.287 . S
C2539 C2538 1.287 . S
C2539 C2540 1.524 . S
C2539 H2542 0.999 . S
C2540 H2510 0.950 . S
C2540 C2539 1.524 . S
C2540 C2541 1.415 . S
C2541 H2511 0.950 . S
C2541 C2536 1.363 . S
C2541 C2540 1.415 . S
H2542 C2539 0.999 . S
H2543 C2524 0.913 . S
H2544 C2562 0.951 . S
H2545 C2564 0.951 . S
H2546 C2566 0.950 . S
H2547 C2567 0.950 . S
H2548 C2569 0.950 . S
H2549 C2572 0.950 . S
H2550 C2573 0.950 . S
H2551 C2575 0.950 . S
H2552 C2576 0.950 . S
H2553 C2577 0.951 . S
H2554 C2579 0.951 . S
H2555 C2581 0.950 . S
H2556 C2582 0.950 . S
H2557 C2584 0.950 . S
H2558 C2587 0.950 . S
H2559 C2588 0.950 . S
H2560 C2590 0.950 . S
H2561 C2591 0.950 . S
C2562 H2544 0.951 . S
C2562 C2563 1.366 . S
C2562 C2564 1.388 . S
C2563 C2562 1.366 . S
C2563 C2567 1.385 . S
C2564 H2545 0.951 . S
C2564 C2562 1.388 . S
C2564 C2565 1.366 . S
C2565 C2564 1.366 . S
C2565 C2566 1.414 . S
C2565 C2568 1.499 . S
C2566 H2546 0.950 . S
C2566 C2565 1.414 . S
C2566 C2567 1.374 . S
C2567 H2547 0.950 . S
C2567 C2563 1.385 . S
C2567 C2566 1.374 . S
C2568 C2565 1.499 . S
C2568 C2569 1.373 . S
C2568 C2570 1.389 . S
C2569 H2548 0.950 . S
C2569 C2568 1.373 . S
C2569 C2585 1.377 . S
C2570 C2568 1.389 . S
C2570 C2571 1.524 . S
C2570 C2584 1.377 . S
C2571 C2570 1.524 . S
C2571 C2572 1.397 . S
C2571 C2576 1.363 . S
C2572 H2549 0.950 . S
C2572 C2571 1.397 . S
C2572 C2573 1.334 . S
C2573 H2550 0.950 . S
C2573 C2572 1.334 . S
C2573 C2574 1.287 . S
C2574 C2573 1.287 . S
C2574 C2575 1.524 . S
C2574 H2593 0.913 . S
C2575 H2551 0.950 . S
C2575 C2574 1.524 . S
C2575 C2576 1.415 . S
C2576 H2552 0.950 . S
C2576 C2571 1.363 . S
C2576 C2575 1.415 . S
C2577 H2553 0.951 . S
C2577 C2578 1.366 . S
C2577 C2579 1.388 . S
C2578 C2577 1.366 . S
C2578 C2582 1.385 . S
C2579 H2554 0.951 . S
C2579 C2577 1.388 . S
C2579 C2580 1.366 . S
C2580 C2579 1.366 . S
C2580 C2581 1.414 . S
C2580 C2583 1.499 . S
C2581 H2555 0.950 . S
C2581 C2580 1.414 . S
C2581 C2582 1.374 . S
C2582 H2556 0.950 . S
C2582 C2578 1.385 . S
C2582 C2581 1.374 . S
C2583 C2580 1.499 . S
C2583 C2584 1.373 . S
C2583 C2585 1.389 . S
C2584 H2557 0.950 . S
C2584 C2570 1.377 . S
C2584 C2583 1.373 . S
C2585 C2569 1.377 . S
C2585 C2583 1.389 . S
C2585 C2586 1.524 . S
C2586 C2585 1.524 . S
C2586 C2587 1.397 . S
C2586 C2591 1.363 . S
C2587 H2558 0.950 . S
C2587 C2586 1.397 . S
C2587 C2588 1.334 . S
C2588 H2559 0.950 . S
C2588 C2587 1.334 . S
C2588 C2589 1.287 . S
C2589 C2588 1.287 . S
C2589 C2590 1.524 . S
C2589 H2592 0.999 1_556 S
C2590 H2560 0.950 . S
C2590 C2589 1.524 . S
C2590 C2591 1.415 . S
C2591 H2561 0.950 . S
C2591 C2586 1.363 . S
C2591 C2590 1.415 . S
H2592 C2589 0.999 1_554 S
H2593 C2574 0.913 . S
H2594 C2612 0.951 . S
H2595 C2614 0.951 . S
H2596 C2616 0.950 . S
H2597 C2617 0.950 . S
H2598 C2619 0.950 . S
H2599 C2622 0.950 . S
H2600 C2623 0.950 . S
H2601 C2625 0.950 1_554 S
H2602 C2626 0.950 . S
H2603 C2627 0.951 . S
H2604 C2629 0.951 . S
H2605 C2631 0.950 . S
H2606 C2632 0.950 . S
H2607 C2634 0.950 . S
H2608 C2637 0.950 . S
H2609 C2638 0.950 . S
H2610 C2640 0.950 . S
H2611 C2641 0.950 . S
C2612 H2594 0.951 . S
C2612 C2613 1.366 . S
C2612 C2614 1.388 . S
C2613 C2612 1.366 . S
C2613 C2617 1.385 . S
C2614 H2595 0.951 . S
C2614 C2612 1.388 . S
C2614 C2615 1.366 . S
C2615 C2614 1.366 . S
C2615 C2616 1.414 . S
C2615 C2618 1.499 . S
C2616 H2596 0.950 . S
C2616 C2615 1.414 . S
C2616 C2617 1.374 . S
C2617 H2597 0.950 . S
C2617 C2613 1.385 . S
C2617 C2616 1.374 . S
C2618 C2615 1.499 . S
C2618 C2619 1.373 . S
C2618 C2620 1.389 . S
C2619 H2598 0.950 . S
C2619 C2618 1.373 . S
C2619 C2635 1.377 . S
C2620 C2618 1.389 . S
C2620 C2621 1.524 . S
C2620 C2634 1.377 . S
C2621 C2620 1.524 . S
C2621 C2622 1.397 . S
C2621 C2626 1.363 . S
C2622 H2599 0.950 . S
C2622 C2621 1.397 . S
C2622 C2623 1.334 . S
C2623 H2600 0.950 . S
C2623 C2622 1.334 . S
C2623 C2624 1.287 . S
C2624 C2623 1.287 . S
C2624 C2625 1.524 . S
C2624 H2643 0.913 1_556 S
C2625 H2601 0.950 1_556 S
C2625 C2624 1.524 . S
C2625 C2626 1.415 . S
C2626 H2602 0.950 . S
C2626 C2621 1.363 . S
C2626 C2625 1.415 . S
C2627 H2603 0.951 . S
C2627 C2628 1.366 . S
C2627 C2629 1.388 . S
C2628 C2627 1.366 . S
C2628 C2632 1.385 . S
C2629 H2604 0.951 . S
C2629 C2627 1.388 . S
C2629 C2630 1.366 . S
C2630 C2629 1.366 . S
C2630 C2631 1.414 . S
C2630 C2633 1.499 . S
C2631 H2605 0.950 . S
C2631 C2630 1.414 . S
C2631 C2632 1.374 . S
C2632 H2606 0.950 . S
C2632 C2628 1.385 . S
C2632 C2631 1.374 . S
C2633 C2630 1.499 . S
C2633 C2634 1.373 . S
C2633 C2635 1.389 . S
C2634 H2607 0.950 . S
C2634 C2620 1.377 . S
C2634 C2633 1.373 . S
C2635 C2619 1.377 . S
C2635 C2633 1.389 . S
C2635 C2636 1.524 . S
C2636 C2635 1.524 . S
C2636 C2637 1.397 . S
C2636 C2641 1.363 . S
C2637 H2608 0.950 . S
C2637 C2636 1.397 . S
C2637 C2638 1.334 . S
C2638 H2609 0.950 . S
C2638 C2637 1.334 . S
C2638 C2639 1.287 . S
C2639 C2638 1.287 . S
C2639 C2640 1.524 . S
C2639 H2642 0.999 . S
C2640 H2610 0.950 . S
C2640 C2639 1.524 . S
C2640 C2641 1.415 . S
C2641 H2611 0.950 . S
C2641 C2636 1.363 . S
C2641 C2640 1.415 . S
H2642 C2639 0.999 . S
H2643 C2624 0.913 1_554 S
H2644 C2662 0.951 . S
H2645 C2664 0.951 . S
H2646 C2666 0.950 . S
H2647 C2667 0.950 . S
H2648 C2669 0.950 . S
H2649 C2672 0.950 . S
H2650 C2673 0.950 . S
H2651 C2675 0.950 1_554 S
H2652 C2676 0.950 . S
H2653 C2677 0.951 . S
H2654 C2679 0.951 . S
H2655 C2681 0.950 . S
H2656 C2682 0.950 . S
H2657 C2684 0.950 . S
H2658 C2687 0.950 . S
H2659 C2688 0.950 . S
H2660 C2690 0.950 . S
H2661 C2691 0.950 . S
C2662 H2644 0.951 . S
C2662 C2663 1.366 . S
C2662 C2664 1.388 . S
C2663 C2662 1.366 . S
C2663 C2667 1.385 . S
C2664 H2645 0.951 . S
C2664 C2662 1.388 . S
C2664 C2665 1.366 . S
C2665 C2664 1.366 . S
C2665 C2666 1.414 . S
C2665 C2668 1.499 . S
C2666 H2646 0.950 . S
C2666 C2665 1.414 . S
C2666 C2667 1.374 . S
C2667 H2647 0.950 . S
C2667 C2663 1.385 . S
C2667 C2666 1.374 . S
C2668 C2665 1.499 . S
C2668 C2669 1.373 . S
C2668 C2670 1.389 . S
C2669 H2648 0.950 . S
C2669 C2668 1.373 . S
C2669 C2685 1.377 . S
C2670 C2668 1.389 . S
C2670 C2671 1.524 . S
C2670 C2684 1.377 . S
C2671 C2670 1.524 . S
C2671 C2672 1.397 . S
C2671 C2676 1.363 . S
C2672 H2649 0.950 . S
C2672 C2671 1.397 . S
C2672 C2673 1.334 . S
C2673 H2650 0.950 . S
C2673 C2672 1.334 . S
C2673 C2674 1.287 . S
C2674 C2673 1.287 . S
C2674 C2675 1.524 . S
C2674 H2693 0.913 1_556 S
C2675 H2651 0.950 1_556 S
C2675 C2674 1.524 . S
C2675 C2676 1.415 . S
C2676 H2652 0.950 . S
C2676 C2671 1.363 . S
C2676 C2675 1.415 . S
C2677 H2653 0.951 . S
C2677 C2678 1.366 . S
C2677 C2679 1.388 . S
C2678 C2677 1.366 . S
C2678 C2682 1.385 . S
C2679 H2654 0.951 . S
C2679 C2677 1.388 . S
C2679 C2680 1.366 . S
C2680 C2679 1.366 . S
C2680 C2681 1.414 . S
C2680 C2683 1.499 . S
C2681 H2655 0.950 . S
C2681 C2680 1.414 . S
C2681 C2682 1.374 . S
C2682 H2656 0.950 . S
C2682 C2678 1.385 . S
C2682 C2681 1.374 . S
C2683 C2680 1.499 . S
C2683 C2684 1.373 . S
C2683 C2685 1.389 . S
C2684 H2657 0.950 . S
C2684 C2670 1.377 . S
C2684 C2683 1.373 . S
C2685 C2669 1.377 . S
C2685 C2683 1.389 . S
C2685 C2686 1.524 . S
C2686 C2685 1.524 . S
C2686 C2687 1.397 . S
C2686 C2691 1.363 . S
C2687 H2658 0.950 . S
C2687 C2686 1.397 . S
C2687 C2688 1.334 . S
C2688 H2659 0.950 . S
C2688 C2687 1.334 . S
C2688 C2689 1.287 . S
C2689 C2688 1.287 . S
C2689 C2690 1.524 . S
C2689 H2692 0.999 . S
C2690 H2660 0.950 . S
C2690 C2689 1.524 . S
C2690 C2691 1.415 . S
C2691 H2661 0.950 . S
C2691 C2686 1.363 . S
C2691 C2690 1.415 . S
H2692 C2689 0.999 . S
H2693 C2674 0.913 1_554 S
H2694 C2712 0.951 . S
H2695 C2714 0.951 . S
H2696 C2716 0.950 . S
H2697 C2717 0.950 . S
H2698 C2719 0.950 . S
H2699 C2722 0.950 . S
H2700 C2723 0.950 . S
H2701 C2725 0.950 . S
H2702 C2726 0.950 . S
H2703 C2727 0.951 . S
H2704 C2729 0.951 . S
H2705 C2731 0.950 . S
H2706 C2732 0.950 . S
H2707 C2734 0.950 . S
H2708 C2737 0.950 . S
H2709 C2738 0.950 . S
H2710 C2740 0.950 . S
H2711 C2741 0.950 . S
C2712 H2694 0.951 . S
C2712 C2713 1.366 . S
C2712 C2714 1.388 . S
C2713 C2712 1.366 . S
C2713 C2717 1.385 . S
C2714 H2695 0.951 . S
C2714 C2712 1.388 . S
C2714 C2715 1.366 . S
C2715 C2714 1.366 . S
C2715 C2716 1.414 . S
C2715 C2718 1.499 . S
C2716 H2696 0.950 . S
C2716 C2715 1.414 . S
C2716 C2717 1.374 . S
C2717 H2697 0.950 . S
C2717 C2713 1.385 . S
C2717 C2716 1.374 . S
C2718 C2715 1.499 . S
C2718 C2719 1.373 . S
C2718 C2720 1.389 . S
C2719 H2698 0.950 . S
C2719 C2718 1.373 . S
C2719 C2735 1.377 . S
C2720 C2718 1.389 . S
C2720 C2721 1.524 . S
C2720 C2734 1.377 . S
C2721 C2720 1.524 . S
C2721 C2722 1.397 . S
C2721 C2726 1.363 . S
C2722 H2699 0.950 . S
C2722 C2721 1.397 . S
C2722 C2723 1.334 . S
C2723 H2700 0.950 . S
C2723 C2722 1.334 . S
C2723 C2724 1.287 . S
C2724 C2723 1.287 . S
C2724 C2725 1.524 . S
C2724 H2743 0.913 . S
C2725 H2701 0.950 . S
C2725 C2724 1.524 . S
C2725 C2726 1.415 . S
C2726 H2702 0.950 . S
C2726 C2721 1.363 . S
C2726 C2725 1.415 . S
C2727 H2703 0.951 . S
C2727 C2728 1.366 . S
C2727 C2729 1.388 . S
C2728 C2727 1.366 . S
C2728 C2732 1.385 . S
C2729 H2704 0.951 . S
C2729 C2727 1.388 . S
C2729 C2730 1.366 . S
C2730 C2729 1.366 . S
C2730 C2731 1.414 . S
C2730 C2733 1.499 . S
C2731 H2705 0.950 . S
C2731 C2730 1.414 . S
C2731 C2732 1.374 . S
C2732 H2706 0.950 . S
C2732 C2728 1.385 . S
C2732 C2731 1.374 . S
C2733 C2730 1.499 . S
C2733 C2734 1.373 . S
C2733 C2735 1.389 . S
C2734 H2707 0.950 . S
C2734 C2720 1.377 . S
C2734 C2733 1.373 . S
C2735 C2719 1.377 . S
C2735 C2733 1.389 . S
C2735 C2736 1.524 . S
C2736 C2735 1.524 . S
C2736 C2737 1.397 . S
C2736 C2741 1.363 . S
C2737 H2708 0.950 . S
C2737 C2736 1.397 . S
C2737 C2738 1.334 . S
C2738 H2709 0.950 . S
C2738 C2737 1.334 . S
C2738 C2739 1.287 . S
C2739 C2738 1.287 . S
C2739 C2740 1.524 . S
C2739 H2742 0.999 . S
C2740 H2710 0.950 . S
C2740 C2739 1.524 . S
C2740 C2741 1.415 . S
C2741 H2711 0.950 . S
C2741 C2736 1.363 . S
C2741 C2740 1.415 . S
H2742 C2739 0.999 . S
H2743 C2724 0.913 . S
H2744 C2762 0.951 . S
H2745 C2764 0.951 . S
H2746 C2766 0.950 . S
H2747 C2767 0.950 . S
H2748 C2769 0.950 . S
H2749 C2772 0.950 . S
H2750 C2773 0.950 . S
H2751 C2775 0.950 . S
H2752 C2776 0.950 . S
H2753 C2777 0.951 . S
H2754 C2779 0.951 . S
H2755 C2781 0.950 . S
H2756 C2782 0.950 . S
H2757 C2784 0.950 . S
H2758 C2787 0.950 . S
H2759 C2788 0.950 . S
H2760 C2790 0.950 . S
H2761 C2791 0.950 . S
C2762 H2744 0.951 . S
C2762 C2763 1.366 . S
C2762 C2764 1.388 . S
C2763 C2762 1.366 . S
C2763 C2767 1.385 . S
C2764 H2745 0.951 . S
C2764 C2762 1.388 . S
C2764 C2765 1.366 . S
C2765 C2764 1.366 . S
C2765 C2766 1.414 . S
C2765 C2768 1.499 . S
C2766 H2746 0.950 . S
C2766 C2765 1.414 . S
C2766 C2767 1.374 . S
C2767 H2747 0.950 . S
C2767 C2763 1.385 . S
C2767 C2766 1.374 . S
C2768 C2765 1.499 . S
C2768 C2769 1.373 . S
C2768 C2770 1.389 . S
C2769 H2748 0.950 . S
C2769 C2768 1.373 . S
C2769 C2785 1.377 . S
C2770 C2768 1.389 . S
C2770 C2771 1.524 . S
C2770 C2784 1.377 . S
C2771 C2770 1.524 . S
C2771 C2772 1.397 . S
C2771 C2776 1.363 . S
C2772 H2749 0.950 . S
C2772 C2771 1.397 . S
C2772 C2773 1.334 . S
C2773 H2750 0.950 . S
C2773 C2772 1.334 . S
C2773 C2774 1.287 . S
C2774 C2773 1.287 . S
C2774 C2775 1.524 . S
C2774 H2793 0.913 . S
C2775 H2751 0.950 . S
C2775 C2774 1.524 . S
C2775 C2776 1.415 . S
C2776 H2752 0.950 . S
C2776 C2771 1.363 . S
C2776 C2775 1.415 . S
C2777 H2753 0.951 . S
C2777 C2778 1.366 . S
C2777 C2779 1.388 . S
C2778 C2777 1.366 . S
C2778 C2782 1.385 . S
C2779 H2754 0.951 . S
C2779 C2777 1.388 . S
C2779 C2780 1.366 . S
C2780 C2779 1.366 . S
C2780 C2781 1.414 . S
C2780 C2783 1.499 . S
C2781 H2755 0.950 . S
C2781 C2780 1.414 . S
C2781 C2782 1.374 . S
C2782 H2756 0.950 . S
C2782 C2778 1.385 . S
C2782 C2781 1.374 . S
C2783 C2780 1.499 . S
C2783 C2784 1.373 . S
C2783 C2785 1.389 . S
C2784 H2757 0.950 . S
C2784 C2770 1.377 . S
C2784 C2783 1.373 . S
C2785 C2769 1.377 . S
C2785 C2783 1.389 . S
C2785 C2786 1.524 . S
C2786 C2785 1.524 . S
C2786 C2787 1.397 . S
C2786 C2791 1.363 . S
C2787 H2758 0.950 . S
C2787 C2786 1.397 . S
C2787 C2788 1.334 . S
C2788 H2759 0.950 . S
C2788 C2787 1.334 . S
C2788 C2789 1.287 . S
C2789 C2788 1.287 . S
C2789 C2790 1.524 . S
C2789 H2792 0.999 . S
C2790 H2760 0.950 . S
C2790 C2789 1.524 . S
C2790 C2791 1.415 . S
C2791 H2761 0.950 . S
C2791 C2786 1.363 . S
C2791 C2790 1.415 . S
H2792 C2789 0.999 . S
H2793 C2774 0.913 . S
H2794 C2812 0.951 . S
H2795 C2814 0.951 . S
H2796 C2816 0.950 . S
H2797 C2817 0.950 . S
H2798 C2819 0.950 . S
H2799 C2822 0.950 . S
H2800 C2823 0.950 . S
H2801 C2825 0.950 . S
H2802 C2826 0.950 . S
H2803 C2827 0.951 . S
H2804 C2829 0.951 . S
H2805 C2831 0.950 . S
H2806 C2832 0.950 . S
H2807 C2834 0.950 . S
H2808 C2837 0.950 . S
H2809 C2838 0.950 . S
H2810 C2840 0.950 . S
H2811 C2841 0.950 . S
C2812 H2794 0.951 . S
C2812 C2813 1.366 . S
C2812 C2814 1.388 . S
C2813 C2812 1.366 . S
C2813 C2817 1.385 . S
C2814 H2795 0.951 . S
C2814 C2812 1.388 . S
C2814 C2815 1.366 . S
C2815 C2814 1.366 . S
C2815 C2816 1.414 . S
C2815 C2818 1.499 . S
C2816 H2796 0.950 . S
C2816 C2815 1.414 . S
C2816 C2817 1.374 . S
C2817 H2797 0.950 . S
C2817 C2813 1.385 . S
C2817 C2816 1.374 . S
C2818 C2815 1.499 . S
C2818 C2819 1.373 . S
C2818 C2820 1.389 . S
C2819 H2798 0.950 . S
C2819 C2818 1.373 . S
C2819 C2835 1.377 . S
C2820 C2818 1.389 . S
C2820 C2821 1.524 . S
C2820 C2834 1.377 . S
C2821 C2820 1.524 . S
C2821 C2822 1.397 . S
C2821 C2826 1.363 . S
C2822 H2799 0.950 . S
C2822 C2821 1.397 . S
C2822 C2823 1.334 . S
C2823 H2800 0.950 . S
C2823 C2822 1.334 . S
C2823 C2824 1.287 . S
C2824 C2823 1.287 . S
C2824 C2825 1.524 . S
C2824 H2843 0.913 . S
C2825 H2801 0.950 . S
C2825 C2824 1.524 . S
C2825 C2826 1.415 . S
C2826 H2802 0.950 . S
C2826 C2821 1.363 . S
C2826 C2825 1.415 . S
C2827 H2803 0.951 . S
C2827 C2828 1.366 . S
C2827 C2829 1.388 . S
C2828 C2827 1.366 . S
C2828 C2832 1.385 . S
C2829 H2804 0.951 . S
C2829 C2827 1.388 . S
C2829 C2830 1.366 . S
C2830 C2829 1.366 . S
C2830 C2831 1.414 . S
C2830 C2833 1.499 . S
C2831 H2805 0.950 . S
C2831 C2830 1.414 . S
C2831 C2832 1.374 . S
C2832 H2806 0.950 . S
C2832 C2828 1.385 . S
C2832 C2831 1.374 . S
C2833 C2830 1.499 . S
C2833 C2834 1.373 . S
C2833 C2835 1.389 . S
C2834 H2807 0.950 . S
C2834 C2820 1.377 . S
C2834 C2833 1.373 . S
C2835 C2819 1.377 . S
C2835 C2833 1.389 . S
C2835 C2836 1.524 . S
C2836 C2835 1.524 . S
C2836 C2837 1.397 . S
C2836 C2841 1.363 . S
C2837 H2808 0.950 . S
C2837 C2836 1.397 . S
C2837 C2838 1.334 . S
C2838 H2809 0.950 . S
C2838 C2837 1.334 . S
C2838 C2839 1.287 . S
C2839 C2838 1.287 . S
C2839 C2840 1.524 . S
C2839 H2842 0.999 . S
C2840 H2810 0.950 . S
C2840 C2839 1.524 . S
C2840 C2841 1.415 . S
C2841 H2811 0.950 . S
C2841 C2836 1.363 . S
C2841 C2840 1.415 . S
H2842 C2839 0.999 . S
H2843 C2824 0.913 . S
C613 N310 0.653 . S
C628 N13 0.652 . S
C663 N343 0.654 . S
C678 N46 0.653 . S
C713 N376 0.655 . S
C728 N79 0.654 . S
C763 N112 0.652 . S
C778 N409 0.652 . S
C813 N442 0.652 . S
C828 N145 0.652 . S
C863 N475 0.655 . S
C878 N178 0.654 . S
C913 N211 0.652 . S
C928 N508 0.652 . S
C963 N541 0.652 . S
C978 N244 0.652 . S
C1013 N574 0.653 . S
C1028 N277 0.654 . S
C1063 C579 1.931 . S
C1078 C18 1.931 . S
C1113 C513 1.931 . S
C1128 C51 1.931 . S
C1163 C84 1.931 . S
C1178 C546 1.931 . S
C1213 C249 1.931 . S
C1228 C117 1.931 . S
C1263 C282 1.931 . S
C1278 C150 1.931 . S
C1313 C183 1.931 . S
C1328 C216 1.931 . S
C1363 C315 1.931 . S
C1378 C447 1.931 . S
C1413 C480 1.931 . S
C1428 C348 1.931 . S
C1463 C381 1.931 . S
C1478 C414 1.931 . S
C1513 C21 1.019 . S
C1528 C153 1.019 . S
C1563 C186 1.018 . S
C1578 C54 1.018 . S
C1613 C120 1.018 . S
C1628 C87 1.018 . S
C1663 C351 1.019 . S
C1678 C219 1.019 . S
C1713 C252 1.019 . S
C1728 C384 1.019 . S
C1763 C318 1.019 . S
C1778 C285 1.018 . S
C1813 C417 1.018 . S
C1828 C549 1.018 . S
C1863 C582 1.018 . S
C1878 C450 1.018 . S
C1913 C483 1.018 . S
C1928 C516 1.018 . S
C1963 C73 0.897 . S
C1978 N2 0.910 . S
C2013 C7 0.895 . S
C2028 N35 0.910 . S
C2063 C40 0.895 . S
C2078 N68 0.910 . S
C2113 C139 0.896 . S
C2128 N101 0.910 . S
C2163 N134 0.910 . S
C2178 C172 0.896 . S
C2213 C106 0.896 . S
C2228 N167 0.910 . S
C2263 C271 0.897 . S
C2278 N200 0.910 . S
C2313 C205 0.897 . S
C2328 N233 0.911 . S
C2363 N266 0.910 . S
C2378 C238 0.895 . S
C2413 N299 0.910 . S
C2428 C337 0.896 . S
C2463 C370 0.895 . S
C2478 N332 0.910 . S
C2513 C304 0.897 . S
C2528 N365 0.911 . S
C2563 N398 0.910 . S
C2578 C469 0.895 . S
C2613 C403 0.895 . S
C2628 N431 0.910 . S
C2663 C436 0.895 . S
C2678 N464 0.910 . S
C2713 C535 0.895 . S
C2728 N497 0.910 . S
C2763 C568 0.895 . S
C2778 N530 0.910 . S
C2813 C502 0.895 . S
C2828 N563 0.910 . S
