# Generated by pormake.
# Topology fnr, (5)-cn, num edge types: 1
# Building blocks:
#     Node 0, Type 0, BuildingBlock: XOMCOT_clean_sbu_1, # of connection points: 5
#     Node 1, Type 0, BuildingBlock: XOMCOT_clean_sbu_1, # of connection points: 5
#     Node 2, Type 0, BuildingBlock: XOMCOT_clean_sbu_1, # of connection points: 5
#     Node 3, Type 0, BuildingBlock: XOMCOT_clean_sbu_1, # of connection points: 5
#     Node 4, Type 0, BuildingBlock: XOMCOT_clean_sbu_1, # of connection points: 5
#     Node 5, Type 0, BuildingBlock: XOMCOT_clean_sbu_1, # of connection points: 5
#     Node 6, Type 0, BuildingBlock: XOMCOT_clean_sbu_1, # of connection points: 5
#     Node 7, Type 0, BuildingBlock: XOMCOT_clean_sbu_1, # of connection points: 5
#     Node 8, Type 0, BuildingBlock: XOMCOT_clean_sbu_1, # of connection points: 5
#     Node 9, Type 0, BuildingBlock: XOMCOT_clean_sbu_1, # of connection points: 5
#     Node 10, Type 0, BuildingBlock: XOMCOT_clean_sbu_1, # of connection points: 5
#     Node 11, Type 0, BuildingBlock: XOMCOT_clean_sbu_1, # of connection points: 5
#     Edge 12, Type (0, 0), BuildingBlock: KIFKEQ_clean_linker_1, # of connection points: 2
#     Edge 13, Type (0, 0), BuildingBlock: KIFKEQ_clean_linker_1, # of connection points: 2
#     Edge 14, Type (0, 0), BuildingBlock: KIFKEQ_clean_linker_1, # of connection points: 2
#     Edge 15, Type (0, 0), BuildingBlock: KIFKEQ_clean_linker_1, # of connection points: 2
#     Edge 16, Type (0, 0), BuildingBlock: KIFKEQ_clean_linker_1, # of connection points: 2
#     Edge 17, Type (0, 0), BuildingBlock: KIFKEQ_clean_linker_1, # of connection points: 2
#     Edge 18, Type (0, 0), BuildingBlock: KIFKEQ_clean_linker_1, # of connection points: 2
#     Edge 19, Type (0, 0), BuildingBlock: KIFKEQ_clean_linker_1, # of connection points: 2
#     Edge 20, Type (0, 0), BuildingBlock: KIFKEQ_clean_linker_1, # of connection points: 2
#     Edge 21, Type (0, 0), BuildingBlock: KIFKEQ_clean_linker_1, # of connection points: 2
#     Edge 22, Type (0, 0), BuildingBlock: KIFKEQ_clean_linker_1, # of connection points: 2
#     Edge 23, Type (0, 0), BuildingBlock: KIFKEQ_clean_linker_1, # of connection points: 2
#     Edge 24, Type (0, 0), BuildingBlock: KIFKEQ_clean_linker_1, # of connection points: 2
#     Edge 25, Type (0, 0), BuildingBlock: KIFKEQ_clean_linker_1, # of connection points: 2
#     Edge 26, Type (0, 0), BuildingBlock: KIFKEQ_clean_linker_1, # of connection points: 2
#     Edge 27, Type (0, 0), BuildingBlock: KIFKEQ_clean_linker_1, # of connection points: 2
#     Edge 28, Type (0, 0), BuildingBlock: KIFKEQ_clean_linker_1, # of connection points: 2
#     Edge 29, Type (0, 0), BuildingBlock: KIFKEQ_clean_linker_1, # of connection points: 2
#     Edge 30, Type (0, 0), BuildingBlock: KIFKEQ_clean_linker_1, # of connection points: 2
#     Edge 31, Type (0, 0), BuildingBlock: KIFKEQ_clean_linker_1, # of connection points: 2
#     Edge 32, Type (0, 0), BuildingBlock: KIFKEQ_clean_linker_1, # of connection points: 2
#     Edge 33, Type (0, 0), BuildingBlock: KIFKEQ_clean_linker_1, # of connection points: 2
#     Edge 34, Type (0, 0), BuildingBlock: KIFKEQ_clean_linker_1, # of connection points: 2
#     Edge 35, Type (0, 0), BuildingBlock: KIFKEQ_clean_linker_1, # of connection points: 2
#     Edge 36, Type (0, 0), BuildingBlock: KIFKEQ_clean_linker_1, # of connection points: 2
#     Edge 37, Type (0, 0), BuildingBlock: KIFKEQ_clean_linker_1, # of connection points: 2
#     Edge 38, Type (0, 0), BuildingBlock: KIFKEQ_clean_linker_1, # of connection points: 2
#     Edge 39, Type (0, 0), BuildingBlock: KIFKEQ_clean_linker_1, # of connection points: 2
#     Edge 40, Type (0, 0), BuildingBlock: KIFKEQ_clean_linker_1, # of connection points: 2
#     Edge 41, Type (0, 0), BuildingBlock: KIFKEQ_clean_linker_1, # of connection points: 2
# Relax obj value: 0.273
# Max RMSD: 0.193
# Mean RMSD: 0.190
data_MOF--net-fnr--node1-XOMCOT_clean_sbu_1--edge1-KIFKEQ_clean_linker_1
_symmetry_space_group_name_H-M    P1
_symmetry_Int_Tables_number       1
_symmetry_cell_setting            triclinic
loop_
_symmetry_equiv_pos_as_xyz
'x, y, z'
_cell_length_a     41.1008
_cell_length_b     41.130464
_cell_length_c     51.869776
_cell_angle_alpha  90.013508
_cell_angle_beta   89.984611
_cell_angle_gamma 120.04509
loop_
_atom_site_label
_atom_site_type_symbol
_atom_site_fract_x
_atom_site_fract_y
_atom_site_fract_z
_atom_type_partial_charge
C0 C 0.4191 0.22994 0.0895 0.0
C1 C 0.39739 0.24563 0.08322 0.0
N2 N 0.3828 0.23346 0.05958 0.0
N3 N 0.41751 0.20719 0.07017 0.0
C4 C 0.39532 0.21013 0.05216 0.0
H5 H 0.43678 0.23649 0.10637 0.0
Co6 Co 0.44866 0.1862 0.06562 0.0
C7 C 0.38481 0.10649 0.05694 0.0
O8 O 0.38669 0.09697 0.08077 0.0
N9 N 0.48073 0.16594 0.05984 0.0
C10 C 0.50537 0.12856 0.05695 0.0
C11 C 0.47453 0.13094 0.06443 0.0
C12 C 0.51583 0.18425 0.04971 0.0
N13 N 0.53136 0.16217 0.04758 0.0
O14 O 0.46367 0.21161 0.03296 0.0
H15 H 0.44978 0.10852 0.07327 0.0
H16 H 0.53038 0.21364 0.04462 0.0
O17 O 0.40676 0.14033 0.04927 0.0
C18 C 0.48818 0.24493 0.03971 0.0
O19 O 0.4977 0.25158 0.06415 0.0
N20 N 0.43808 0.16697 0.09994 0.0
C21 C 0.43508 0.1642 0.15397 0.0
C22 C 0.40246 0.15337 0.13939 0.0
C23 C 0.40464 0.15541 0.11241 0.0
C24 C 0.46967 0.17641 0.11403 0.0
C25 C 0.46861 0.1744 0.14084 0.0
H26 H 0.37991 0.15003 0.10161 0.0
H27 H 0.49679 0.18848 0.10478 0.0
H28 H 0.39046 0.19732 0.03328 0.0
H29 H 0.39492 0.26662 0.09428 0.0
H30 H 0.50837 0.10395 0.05844 0.0
H31 H 0.37606 0.14601 0.14869 0.0
H32 H 0.4945 0.18291 0.15123 0.0
C33 C 0.1828 0.38823 0.60562 0.0
C34 C 0.14545 0.3687 0.59891 0.0
N35 N 0.1429 0.36621 0.57301 0.0
N36 N 0.20416 0.39741 0.58414 0.0
C37 C 0.17893 0.38444 0.56458 0.0
H38 H 0.19357 0.39582 0.62503 0.0
Co39 Co 0.25708 0.42805 0.58247 0.0
C40 C 0.24592 0.35899 0.55158 0.0
O41 O 0.20928 0.33854 0.55394 0.0
N42 N 0.30978 0.45917 0.58047 0.0
C43 C 0.37091 0.47814 0.58023 0.0
C44 C 0.33558 0.44903 0.58602 0.0
C45 C 0.33029 0.49468 0.57141 0.0
N46 N 0.36752 0.50685 0.57087 0.0
O47 O 0.25115 0.45289 0.55288 0.0
H48 H 0.3291 0.42188 0.59345 0.0
H49 H 0.31833 0.51147 0.56524 0.0
O50 O 0.26361 0.39181 0.56155 0.0
C51 C 0.24383 0.47694 0.56286 0.0
O52 O 0.24382 0.47966 0.5881 0.0
N53 N 0.26197 0.40678 0.61326 0.0
C54 C 0.25578 0.38228 0.66407 0.0
C55 C 0.24272 0.35637 0.64366 0.0
C56 C 0.24648 0.36927 0.61821 0.0
C57 C 0.27615 0.43227 0.63283 0.0
C58 C 0.27388 0.42068 0.65832 0.0
H59 H 0.234 0.34897 0.60291 0.0
H60 H 0.28721 0.46176 0.62878 0.0
H61 H 0.187 0.38893 0.54448 0.0
H62 H 0.12207 0.3572 0.61225 0.0
H63 H 0.39693 0.47776 0.58217 0.0
H64 H 0.22828 0.32646 0.64744 0.0
H65 H 0.28374 0.44151 0.67354 0.0
C66 C 0.80453 0.20446 0.09856 0.0
C67 C 0.78682 0.16642 0.09415 0.0
N68 N 0.80064 0.1603 0.07223 0.0
N69 N 0.82988 0.22255 0.07975 0.0
C70 C 0.82684 0.19499 0.06396 0.0
H71 H 0.79809 0.21826 0.11384 0.0
Co72 Co 0.8548 0.27469 0.0743 0.0
C73 C 0.93171 0.28465 0.06344 0.0
O74 O 0.94392 0.29785 0.08659 0.0
N75 N 0.87875 0.32744 0.0678 0.0
C76 C 0.91905 0.38911 0.06485 0.0
C77 C 0.91391 0.35521 0.0736 0.0
C78 C 0.86331 0.34558 0.05553 0.0
N79 N 0.88713 0.38286 0.0533 0.0
O80 O 0.82776 0.26469 0.04243 0.0
H81 H 0.93446 0.35165 0.08418 0.0
H82 H 0.83469 0.33217 0.04884 0.0
O83 O 0.89779 0.27427 0.05673 0.0
C84 C 0.79605 0.2604 0.04943 0.0
O85 O 0.79159 0.26692 0.07361 0.0
N86 N 0.87623 0.28265 0.10784 0.0
C87 C 0.88412 0.28157 0.16134 0.0
C88 C 0.89009 0.2575 0.14546 0.0
C89 C 0.88579 0.25829 0.11881 0.0
C90 C 0.87101 0.30671 0.12316 0.0
C91 C 0.87566 0.30723 0.14986 0.0
H92 H 0.8881 0.23781 0.10707 0.0
H93 H 0.86044 0.32381 0.11501 0.0
H94 H 0.84243 0.2006 0.04614 0.0
H95 H 0.76397 0.14522 0.10551 0.0
H96 H 0.94427 0.4162 0.06693 0.0
H97 H 0.89626 0.23697 0.15369 0.0
H98 H 0.86976 0.32549 0.16156 0.0
C99 C 0.65777 0.79723 0.60377 0.0
C100 C 0.68041 0.78342 0.59582 0.0
N101 N 0.68158 0.7842 0.56992 0.0
N102 N 0.64537 0.80773 0.58301 0.0
C103 C 0.65986 0.79866 0.56259 0.0
H104 H 0.65007 0.79843 0.62352 0.0
Co105 Co 0.6106 0.82516 0.583 0.0
C106 C 0.67755 0.89028 0.55516 0.0
O107 O 0.70277 0.88035 0.55987 0.0
N108 N 0.57603 0.84244 0.58264 0.0
C109 C 0.55363 0.88167 0.58224 0.0
C110 C 0.58467 0.87826 0.58688 0.0
C111 C 0.53935 0.82452 0.57579 0.0
N112 N 0.52502 0.84783 0.57511 0.0
O113 O 0.58757 0.7959 0.55257 0.0
H114 H 0.61226 0.90087 0.59217 0.0
H115 H 0.52353 0.79503 0.57118 0.0
O116 O 0.64385 0.86995 0.56315 0.0
C117 C 0.56676 0.76281 0.56146 0.0
O118 O 0.56588 0.75759 0.5865 0.0
N119 N 0.62968 0.84944 0.61457 0.0
C120 C 0.65131 0.86081 0.66617 0.0
C121 C 0.67732 0.88155 0.64671 0.0
C122 C 0.66588 0.87541 0.62081 0.0
C123 C 0.60361 0.83146 0.63337 0.0
C124 C 0.6137 0.83698 0.65923 0.0
H125 H 0.68677 0.88911 0.60605 0.0
H126 H 0.57521 0.81053 0.62816 0.0
H127 H 0.65452 0.80252 0.54271 0.0
H128 H 0.69388 0.77235 0.6081 0.0
H129 H 0.55279 0.90751 0.58315 0.0
H130 H 0.70664 0.90028 0.65129 0.0
H131 H 0.59249 0.82113 0.67363 0.0
C132 C 0.84257 0.62218 0.08709 0.0
C133 C 0.88008 0.64514 0.08162 0.0
N134 N 0.88325 0.66011 0.05798 0.0
N135 N 0.82184 0.62289 0.0672 0.0
C136 C 0.84736 0.6462 0.04976 0.0
H137 H 0.83118 0.60433 0.10385 0.0
Co138 Co 0.77018 0.58946 0.06254 0.0
C139 C 0.74451 0.64462 0.05088 0.0
O140 O 0.72599 0.63578 0.07269 0.0
N141 N 0.71754 0.55433 0.05704 0.0
C142 C 0.65466 0.52284 0.0585 0.0
C143 C 0.6869 0.5531 0.06785 0.0
C144 C 0.70251 0.52369 0.04139 0.0
N145 N 0.66459 0.50431 0.0419 0.0
O146 O 0.78253 0.57361 0.03105 0.0
H147 H 0.68733 0.57142 0.08285 0.0
H148 H 0.71869 0.51504 0.02988 0.0
O149 O 0.76375 0.62903 0.04447 0.0
C150 C 0.79045 0.54921 0.03958 0.0
O151 O 0.78503 0.54029 0.06415 0.0
N152 N 0.76094 0.60169 0.0958 0.0
C153 C 0.75984 0.61136 0.14915 0.0
C154 C 0.777 0.64256 0.13258 0.0
C155 C 0.77792 0.63713 0.10599 0.0
C156 C 0.74455 0.57123 0.11172 0.0
C157 C 0.74306 0.57537 0.13825 0.0
H158 H 0.79369 0.66129 0.09368 0.0
H159 H 0.73426 0.54338 0.10392 0.0
H160 H 0.83963 0.65116 0.03085 0.0
H161 H 0.90318 0.64843 0.0935 0.0
H162 H 0.6262 0.51391 0.06457 0.0
H163 H 0.79082 0.67091 0.14013 0.0
H164 H 0.73095 0.55045 0.15021 0.0
C165 C 0.23719 0.85975 0.59712 0.0
C166 C 0.24908 0.89438 0.5865 0.0
N167 N 0.24213 0.89009 0.56102 0.0
N168 N 0.22182 0.83308 0.57867 0.0
C169 C 0.22574 0.8526 0.55668 0.0
H170 H 0.2413 0.8548 0.61697 0.0
Co171 Co 0.20696 0.78204 0.58403 0.0
C172 C 0.12762 0.73824 0.56901 0.0
O173 O 0.12255 0.72058 0.59101 0.0
N174 N 0.19349 0.73025 0.58912 0.0
C175 C 0.17578 0.6731 0.60471 0.0
C176 C 0.17962 0.70755 0.61001 0.0
C177 C 0.19739 0.7081 0.57134 0.0
N178 N 0.18714 0.67345 0.58037 0.0
O179 O 0.23638 0.78434 0.55479 0.0
H180 H 0.17176 0.71455 0.6281 0.0
H181 H 0.20747 0.71698 0.55193 0.0
O182 O 0.16064 0.76498 0.56301 0.0
C183 C 0.26877 0.79594 0.56468 0.0
O184 O 0.27332 0.80335 0.58948 0.0
N185 N 0.18325 0.78326 0.61484 0.0
C186 C 0.17019 0.80523 0.66272 0.0
C187 C 0.14908 0.8042 0.64122 0.0
C188 C 0.15646 0.79359 0.61717 0.0
C189 C 0.204 0.78455 0.63573 0.0
C190 C 0.19746 0.79474 0.6599 0.0
H191 H 0.14271 0.79643 0.60029 0.0
H192 H 0.22717 0.77939 0.6333 0.0
H193 H 0.21796 0.83975 0.5378 0.0
H194 H 0.2638 0.92097 0.59656 0.0
H195 H 0.1662 0.64989 0.61809 0.0
H196 H 0.12864 0.81339 0.64273 0.0
H197 H 0.21489 0.79622 0.67604 0.0
C198 C 0.87224 0.57655 0.39854 0.0
C199 C 0.8752 0.54474 0.39939 0.0
N200 N 0.85496 0.52359 0.41957 0.0
N201 N 0.84992 0.57548 0.41791 0.0
C202 C 0.83988 0.54295 0.43048 0.0
H203 H 0.88606 0.59934 0.3849 0.0
Co204 Co 0.83978 0.61363 0.42594 0.0
C205 C 0.75819 0.57338 0.43871 0.0
O206 O 0.75549 0.60033 0.42709 0.0
N207 N 0.83088 0.65352 0.43474 0.0
C208 C 0.83471 0.70955 0.43648 0.0
C209 C 0.84498 0.68733 0.42304 0.0
C210 C 0.81335 0.65676 0.45597 0.0
N211 N 0.81452 0.69015 0.45706 0.0
O212 O 0.86552 0.62103 0.45832 0.0
H213 H 0.86273 0.69639 0.40624 0.0
H214 H 0.80023 0.63517 0.47054 0.0
O215 O 0.79031 0.5754 0.44026 0.0
C216 C 0.899 0.64785 0.45412 0.0
O217 O 0.90704 0.66299 0.43101 0.0
N218 N 0.81948 0.60913 0.39252 0.0
C219 C 0.80249 0.60936 0.34035 0.0
C220 C 0.77787 0.57992 0.35654 0.0
C221 C 0.78747 0.57971 0.38245 0.0
C222 C 0.84458 0.63649 0.37653 0.0
C223 C 0.83642 0.63763 0.35063 0.0
H224 H 0.76983 0.55517 0.39383 0.0
H225 H 0.87199 0.65686 0.38371 0.0
H226 H 0.82297 0.53434 0.44781 0.0
H227 H 0.89121 0.5379 0.38613 0.0
H228 H 0.84137 0.73775 0.43141 0.0
H229 H 0.75224 0.55653 0.34901 0.0
H230 H 0.85681 0.66031 0.33868 0.0
C231 C 0.1442 0.78688 0.91224 0.0
C232 C 0.11112 0.77936 0.92364 0.0
N233 N 0.1159 0.78159 0.94935 0.0
N234 N 0.17055 0.79462 0.9305 0.0
C235 C 0.1522 0.79079 0.95307 0.0
H236 H 0.14785 0.78497 0.89182 0.0
Co237 Co 0.21946 0.8022 0.92435 0.0
C238 C 0.27232 0.87917 0.94144 0.0
O239 O 0.29192 0.8823 0.92064 0.0
N240 N 0.26846 0.80865 0.91874 0.0
C241 C 0.32275 0.81758 0.90269 0.0
C242 C 0.28792 0.81236 0.89677 0.0
C243 C 0.29241 0.81104 0.93773 0.0
N244 N 0.32554 0.81671 0.92842 0.0
O245 O 0.21415 0.77049 0.95299 0.0
H246 H 0.27863 0.81224 0.87739 0.0
H247 H 0.28623 0.81009 0.95809 0.0
O248 O 0.24172 0.84826 0.94584 0.0
C249 C 0.19371 0.73697 0.94474 0.0
O250 O 0.17841 0.73205 0.92178 0.0
N251 N 0.22203 0.82862 0.89405 0.0
C252 C 0.21058 0.85019 0.84558 0.0
C253 C 0.21601 0.87297 0.86711 0.0
C254 C 0.22122 0.86134 0.89147 0.0
C255 C 0.21511 0.80576 0.87329 0.0
C256 C 0.21022 0.81635 0.84885 0.0
H257 H 0.22251 0.87756 0.9082 0.0
H258 H 0.21229 0.77837 0.87597 0.0
H259 H 0.16487 0.7935 0.97182 0.0
H260 H 0.08485 0.77067 0.91372 0.0
H261 H 0.34456 0.82195 0.88908 0.0
H262 H 0.21507 0.8987 0.86522 0.0
H263 H 0.20489 0.7976 0.8327 0.0
C264 C 0.44147 0.30801 0.42763 0.0
C265 C 0.47175 0.34391 0.42809 0.0
N266 N 0.50339 0.34195 0.43059 0.0
N267 N 0.45369 0.28326 0.42972 0.0
C268 C 0.4916 0.30477 0.43151 0.0
H269 H 0.41221 0.30035 0.42641 0.0
Co270 Co 0.42121 0.23134 0.43204 0.0
C271 C 0.47842 0.22158 0.46357 0.0
O272 O 0.46457 0.2201 0.48664 0.0
N273 N 0.38799 0.17921 0.43446 0.0
C274 C 0.34029 0.12257 0.42498 0.0
C275 C 0.36073 0.15931 0.4171 0.0
C276 C 0.38325 0.15395 0.45296 0.0
N277 N 0.35438 0.11904 0.4476 0.0
O278 O 0.40766 0.23886 0.46619 0.0
H279 H 0.3555 0.17103 0.4 0.0
H280 H 0.4003 0.16112 0.47015 0.0
O281 O 0.46246 0.22543 0.44372 0.0
C282 C 0.37486 0.2351 0.46617 0.0
O283 O 0.35449 0.22298 0.44512 0.0
N284 N 0.43202 0.22518 0.39786 0.0
C285 C 0.4366 0.2122 0.3455 0.0
C286 C 0.44872 0.19602 0.36427 0.0
C287 C 0.44608 0.20275 0.39043 0.0
C288 C 0.42017 0.24112 0.37991 0.0
C289 C 0.42246 0.23526 0.35366 0.0
H290 H 0.45392 0.18868 0.40462 0.0
H291 H 0.40755 0.25744 0.38604 0.0
H292 H 0.51025 0.29353 0.43356 0.0
H293 H 0.47037 0.36949 0.42746 0.0
H294 H 0.31603 0.10049 0.41519 0.0
H295 H 0.45978 0.178 0.35883 0.0
H296 H 0.41196 0.24763 0.33992 0.0
C297 C 0.28356 0.40208 0.91965 0.0
C298 C 0.29827 0.38056 0.92832 0.0
N299 N 0.28333 0.36662 0.95161 0.0
N300 N 0.25879 0.40115 0.93713 0.0
C301 C 0.25971 0.37979 0.95665 0.0
H302 H 0.29028 0.41737 0.90164 0.0
Co303 Co 0.23218 0.42708 0.93388 0.0
C304 C 0.15856 0.3612 0.95332 0.0
O305 O 0.14752 0.34683 0.9303 0.0
N306 N 0.20579 0.45378 0.93172 0.0
C307 C 0.15912 0.46652 0.93188 0.0
C308 C 0.1686 0.43933 0.92753 0.0
C309 C 0.21833 0.49014 0.93793 0.0
N310 N 0.19044 0.49842 0.93862 0.0
O311 O 0.25974 0.45742 0.96316 0.0
H312 H 0.14922 0.41058 0.92225 0.0
H313 H 0.24702 0.5099 0.94304 0.0
O314 O 0.19076 0.3908 0.95661 0.0
C315 C 0.29157 0.48169 0.95383 0.0
O316 O 0.29704 0.48133 0.9289 0.0
N317 N 0.21013 0.40073 0.90235 0.0
C318 C 0.20184 0.37526 0.85125 0.0
C319 C 0.19975 0.35217 0.87177 0.0
C320 C 0.2041 0.36543 0.89711 0.0
C321 C 0.21182 0.42322 0.88236 0.0
C322 C 0.20683 0.41074 0.85687 0.0
H323 H 0.20477 0.34794 0.91242 0.0
H324 H 0.22001 0.45224 0.88568 0.0
H325 H 0.24337 0.37394 0.97416 0.0
H326 H 0.319 0.37614 0.91852 0.0
H327 H 0.13122 0.46295 0.93054 0.0
H328 H 0.19644 0.32472 0.86819 0.0
H329 H 0.20988 0.42996 0.84154 0.0
C330 C 0.73567 0.1667 0.40697 0.0
C331 C 0.70151 0.16525 0.40612 0.0
N332 N 0.6994 0.18506 0.42618 0.0
N333 N 0.7553 0.18747 0.42739 0.0
C334 C 0.73246 0.19805 0.43882 0.0
H335 H 0.74546 0.15311 0.39375 0.0
Co336 Co 0.80244 0.19601 0.43826 0.0
C337 C 0.84123 0.27793 0.4474 0.0
O338 O 0.86988 0.28111 0.43405 0.0
N339 N 0.84911 0.20264 0.45035 0.0
C340 C 0.89171 0.18611 0.46003 0.0
C341 C 0.85841 0.17567 0.44761 0.0
C342 C 0.87625 0.22805 0.4662 0.0
N343 N 0.9033 0.21943 0.47162 0.0
O344 O 0.78012 0.16968 0.46986 0.0
H345 H 0.84145 0.14937 0.43762 0.0
H346 H 0.87565 0.25171 0.47453 0.0
O347 O 0.81303 0.2453 0.45203 0.0
C348 C 0.76404 0.13474 0.46424 0.0
O349 O 0.76479 0.12515 0.44018 0.0
N350 N 0.82307 0.21789 0.40547 0.0
C351 C 0.84466 0.23892 0.35398 0.0
C352 C 0.82492 0.25304 0.36773 0.0
C353 C 0.81434 0.24214 0.39336 0.0
C354 C 0.84195 0.20381 0.39222 0.0
C355 C 0.85393 0.21475 0.36696 0.0
H356 H 0.79772 0.25206 0.40313 0.0
H357 H 0.84652 0.18253 0.4005 0.0
H358 H 0.74004 0.21489 0.45615 0.0
H359 H 0.67969 0.14999 0.39202 0.0
H360 H 0.90554 0.16965 0.46102 0.0
H361 H 0.81615 0.27102 0.35854 0.0
H362 H 0.86944 0.20325 0.35753 0.0
C363 C 0.67571 0.89689 0.93048 0.0
C364 C 0.70105 0.92824 0.9436 0.0
N365 N 0.69135 0.92374 0.96861 0.0
N366 N 0.64967 0.8717 0.94693 0.0
C367 C 0.66018 0.88925 0.97021 0.0
H368 H 0.67622 0.89409 0.90987 0.0
Co369 Co 0.60619 0.82454 0.93803 0.0
C370 C 0.62757 0.76689 0.94918 0.0
O371 O 0.6084 0.74837 0.92872 0.0
N372 N 0.56255 0.77791 0.92975 0.0
C373 C 0.51498 0.72882 0.9102 0.0
C374 C 0.54544 0.76409 0.9068 0.0
C375 C 0.54101 0.75039 0.94685 0.0
N376 N 0.51218 0.72027 0.93538 0.0
O377 O 0.58038 0.82545 0.96877 0.0
H378 H 0.55407 0.77797 0.88842 0.0
H379 H 0.54701 0.75194 0.96728 0.0
O380 O 0.62915 0.7979 0.95531 0.0
C381 C 0.56858 0.84857 0.9653 0.0
O382 O 0.58239 0.87211 0.94586 0.0
N383 N 0.62821 0.82577 0.90597 0.0
C384 C 0.65669 0.84209 0.85582 0.0
C385 C 0.67149 0.8276 0.874 0.0
C386 C 0.65729 0.82024 0.89928 0.0
C387 C 0.61428 0.84052 0.88861 0.0
C388 C 0.62759 0.8483 0.86348 0.0
H389 H 0.67096 0.81201 0.91345 0.0
H390 H 0.59265 0.8466 0.89458 0.0
H391 H 0.64481 0.87742 0.9879 0.0
H392 H 0.72377 0.95341 0.93505 0.0
H393 H 0.49614 0.71083 0.89528 0.0
H394 H 0.69459 0.82322 0.86898 0.0
H395 H 0.615 0.85909 0.85015 0.0
H396 H 0.75346 0.19101 0.02884 0.0
H397 H 0.76379 0.30026 0.03473 0.0
H398 H 0.68643 0.16332 0.01923 0.0
H399 H 0.69721 0.27308 0.02576 0.0
H400 H 0.57431 0.21763 0.01363 0.0
H401 H 0.63969 0.2397 1.00209 0.0
H402 H 0.63866 0.15338 0.05015 0.0
H403 H 0.57366 0.13137 0.06143 0.0
C404 C 0.74179 0.20935 0.02658 0.0
C405 C 0.76364 0.24773 0.03224 0.0
C406 C 0.70327 0.19347 0.02161 0.0
C407 C 0.68615 0.2158 0.02235 0.0
C408 C 0.70923 0.25493 0.0249 0.0
C409 C 0.74757 0.27067 0.02991 0.0
C410 C 0.58801 0.20326 0.02159 0.0
C411 C 0.5688 0.17303 0.03877 0.0
C412 C 0.62544 0.21577 0.01485 0.0
C413 C 0.64461 0.19842 0.02518 0.0
C414 C 0.62475 0.16705 0.04136 0.0
C415 C 0.58737 0.1545 0.04802 0.0
H416 H 0.44027 0.54239 0.58606 0.0
H417 H 0.36282 0.55313 0.53542 0.0
H418 H 0.49003 0.60393 0.57295 0.0
H419 H 0.413 0.61501 0.52195 0.0
H420 H 0.49648 0.74162 0.54472 0.0
H421 H 0.44745 0.67635 0.54041 0.0
H422 H 0.53182 0.64295 0.54023 0.0
H423 H 0.58063 0.70848 0.54583 0.0
C424 C 0.434 0.55757 0.57173 0.0
C425 C 0.3974 0.54279 0.56199 0.0
C426 C 0.46271 0.59294 0.56401 0.0
C427 C 0.45577 0.61456 0.54617 0.0
C428 C 0.41935 0.59936 0.53587 0.0
C429 C 0.39051 0.56392 0.5437 0.0
C430 C 0.50466 0.72055 0.54242 0.0
C431 C 0.54229 0.73004 0.54556 0.0
C432 C 0.47645 0.68291 0.5401 0.0
C433 C 0.48552 0.65414 0.54079 0.0
C434 C 0.52372 0.66428 0.54041 0.0
C435 C 0.55182 0.70189 0.54303 0.0
H436 H 0.83838 0.37182 0.01452 0.0
H437 H 0.91683 0.45589 0.06708 0.0
H438 H 0.81885 0.4156 0.99941 0.0
H439 H 0.89706 0.49946 0.05239 0.0
H440 H 0.86281 0.57713 0.02506 0.0
H441 H 0.89205 0.5383 0.02004 0.0
H442 H 0.78182 0.43898 0.01819 0.0
H443 H 0.75324 0.47795 0.02258 0.0
C444 C 0.8516 0.39973 0.02277 0.0
C445 C 0.87876 0.41014 0.04232 0.0
C446 C 0.8405 0.4249 0.01403 0.0
C447 C 0.85612 0.4611 0.02473 0.0
C448 C 0.88475 0.47212 0.04332 0.0
C449 C 0.89601 0.44701 0.05192 0.0
C450 C 0.845 0.54721 0.02187 0.0
C451 C 0.80581 0.5305 0.02379 0.0
C452 C 0.86169 0.52482 0.01959 0.0
C453 C 0.83938 0.48535 0.01938 0.0
C454 C 0.80005 0.46918 0.01817 0.0
C455 C 0.78349 0.49156 0.02044 0.0
H456 H 0.49005 0.8871 0.58669 0.0
H457 H 0.47478 0.78904 0.54554 0.0
H458 H 0.42776 0.87317 0.57385 0.0
H459 H 0.41165 0.77468 0.53305 0.0
H460 H 0.28709 0.74194 0.56004 0.0
H461 H 0.35137 0.7541 0.55605 0.0
H462 H 0.38877 0.86979 0.53696 0.0
H463 H 0.32427 0.85732 0.54132 0.0
C464 C 0.47374 0.86284 0.5746 0.0
C465 C 0.48776 0.83925 0.56726 0.0
C466 C 0.4379 0.85492 0.56708 0.0
C467 C 0.41483 0.82305 0.55211 0.0
C468 C 0.42873 0.79945 0.54459 0.0
C469 C 0.46485 0.80755 0.55197 0.0
C470 C 0.30872 0.7693 0.55339 0.0
C471 C 0.30078 0.79853 0.55048 0.0
C472 C 0.34568 0.77645 0.55139 0.0
C473 C 0.37532 0.81313 0.54674 0.0
C474 C 0.36661 0.84137 0.54101 0.0
C475 C 0.32963 0.83415 0.54301 0.0
H476 H 0.67652 0.44574 0.03745 0.0
H477 H 0.59653 0.48143 0.02072 0.0
H478 H 0.63075 0.38191 0.02509 0.0
H479 H 0.55093 0.41793 0.00667 0.0
H480 H 0.46779 0.29704 0.03553 0.0
H481 H 0.5116 0.36264 0.02715 0.0
H482 H 0.59223 0.33329 0.99794 0.0
H483 H 0.54839 0.26745 0.00803 0.0
C484 C 0.64943 0.44005 0.03027 0.0
C485 C 0.63982 0.46832 0.03039 0.0
C486 C 0.62306 0.40337 0.02293 0.0
C487 C 0.58656 0.39417 0.01506 0.0
C488 C 0.5782 0.42341 0.01326 0.0
C489 C 0.60434 0.4599 0.02118 0.0
C490 C 0.4941 0.30448 0.02599 0.0
C491 C 0.50467 0.27729 0.02226 0.0
C492 C 0.5196 0.34236 0.02129 0.0
C493 C 0.55628 0.35386 0.01254 0.0
C494 C 0.56481 0.32581 0.0055 0.0
C495 C 0.53935 0.28787 0.01062 0.0
H496 H 0.29262 0.54933 0.55094 0.0
H497 H 0.17637 0.46299 0.54479 0.0
H498 H 0.2751 0.59737 0.54656 0.0
H499 H 0.15844 0.51107 0.53973 0.0
H500 H 0.14533 0.59874 0.58932 0.0
H501 H 0.15731 0.55008 0.57377 0.0
H502 H 0.24831 0.6317 0.5266 0.0
H503 H 0.23684 0.68081 0.5429 0.0
C504 C 0.2635 0.54061 0.54702 0.0
C505 C 0.23589 0.50247 0.54787 0.0
C506 C 0.25332 0.56824 0.54467 0.0
C507 C 0.2152 0.5582 0.54337 0.0
C508 C 0.18799 0.51983 0.54121 0.0
C509 C 0.19826 0.49221 0.54359 0.0
C510 C 0.1677 0.60633 0.57548 0.0
C511 C 0.1906 0.64391 0.56784 0.0
C512 C 0.17426 0.57822 0.56619 0.0
C513 C 0.20395 0.58685 0.54895 0.0
C514 C 0.22545 0.62408 0.54006 0.0
C515 C 0.21875 0.65225 0.54932 0.0
H516 H 0.90495 0.5001 0.4113 0.0
H517 H 0.7982 0.46755 0.44732 0.0
H518 H 0.89912 0.44065 0.4233 0.0
H519 H 0.79303 0.40792 0.46051 0.0
H520 H 0.78047 0.28837 0.44484 0.0
H521 H 0.78261 0.34886 0.44212 0.0
H522 H 0.90155 0.40604 0.45894 0.0
H523 H 0.89949 0.34589 0.46053 0.0
C524 C 0.88019 0.4803 0.42187 0.0
C525 C 0.85192 0.48868 0.4281 0.0
C526 C 0.87711 0.44623 0.42919 0.0
C527 C 0.84575 0.41942 0.44317 0.0
C528 C 0.81751 0.42782 0.4497 0.0
C529 C 0.82062 0.46214 0.44232 0.0
C530 C 0.80676 0.31388 0.4487 0.0
C531 C 0.83989 0.31254 0.4527 0.0
C532 C 0.80806 0.34859 0.44708 0.0
C533 C 0.84246 0.38249 0.44967 0.0
C534 C 0.87479 0.38065 0.45603 0.0
C535 C 0.87359 0.34616 0.45724 0.0
H536 H 0.39633 0.87073 0.91904 0.0
H537 H 0.3292 0.77681 0.96892 0.0
H538 H 0.45343 0.87821 0.93864 0.0
H539 H 0.38697 0.78393 0.98882 0.0
H540 H 0.50335 0.78196 0.97337 0.0
H541 H 0.44066 0.77485 0.97204 0.0
H542 H 0.48999 0.89499 0.97921 0.0
H543 H 0.55248 0.90199 0.9798 0.0
C544 C 0.39394 0.852 0.93453 0.0
C545 C 0.35851 0.82319 0.94244 0.0
C546 C 0.42661 0.85643 0.94597 0.0
C547 C 0.42484 0.83183 0.96548 0.0
C548 C 0.38925 0.80338 0.9739 0.0
C549 C 0.35629 0.7994 0.96266 0.0
C550 C 0.5007 0.80661 0.97597 0.0
C551 C 0.53283 0.84257 0.97637 0.0
C552 C 0.46469 0.80258 0.97507 0.0
C553 C 0.46044 0.83448 0.97477 0.0
C554 C 0.49239 0.86993 0.9788 0.0
C555 C 0.5282 0.87393 0.97945 0.0
H556 H 0.74566 0.501 0.4384 0.0
H557 H 0.69045 0.56557 0.45047 0.0
H558 H 0.68434 0.44307 0.43795 0.0
H559 H 0.62967 0.50812 0.45068 0.0
H560 H 0.5302 0.41185 0.41125 0.0
H561 H 0.59244 0.46595 0.4169 0.0
H562 H 0.626 0.39833 0.46073 0.0
H563 H 0.56312 0.34366 0.45494 0.0
C564 C 0.72055 0.50273 0.44173 0.0
C565 C 0.72284 0.53788 0.44424 0.0
C566 C 0.68537 0.46954 0.44139 0.0
C567 C 0.65192 0.47094 0.44365 0.0
C568 C 0.65469 0.50598 0.44809 0.0
C569 C 0.6896 0.53896 0.44823 0.0
C570 C 0.55062 0.40842 0.42228 0.0
C571 C 0.54131 0.37337 0.43288 0.0
C572 C 0.58644 0.43958 0.4256 0.0
C573 C 0.61419 0.43681 0.43971 0.0
C574 C 0.60537 0.40152 0.44974 0.0
C575 C 0.56931 0.37014 0.44637 0.0
H576 H 0.13341 0.66789 0.94826 0.0
H577 H 0.25146 0.73146 0.96662 0.0
H578 H 0.13426 0.6098 0.95316 0.0
H579 H 0.25251 0.67277 0.97227 0.0
H580 H 0.2485 0.569 0.93111 0.0
H581 H 0.25028 0.62771 0.94179 0.0
H582 H 0.14042 0.56471 0.97686 0.0
H583 H 0.13836 0.50631 0.96528 0.0
C584 C 0.15923 0.66927 0.95453 0.0
C585 C 0.19231 0.70406 0.9571 0.0
C586 C 0.15981 0.63587 0.95734 0.0
C587 C 0.19362 0.6364 0.96274 0.0
C588 C 0.22612 0.67132 0.96765 0.0
C589 C 0.22544 0.70494 0.9649 0.0
C590 C 0.22498 0.56785 0.94133 0.0
C591 C 0.19294 0.5331 0.94682 0.0
C592 C 0.22607 0.6015 0.9477 0.0
C593 C 0.19531 0.60111 0.96001 0.0
C594 C 0.16426 0.5662 0.96685 0.0
C595 C 0.16298 0.53267 0.96016 0.0
H596 H 0.51229 0.19648 0.49786 0.0
H597 H 0.5223 0.23998 0.4207 0.0
H598 H 0.56628 0.1879 0.48977 0.0
H599 H 0.57637 0.23265 0.41296 0.0
H600 H 0.64219 0.17542 0.39482 0.0
H601 H 0.5897 0.18401 0.4054 0.0
H602 H 0.63336 0.21853 0.48244 0.0
H603 H 0.68519 0.2079 0.47229 0.0
C604 C 0.52621 0.20458 0.47931 0.0
C605 C 0.51263 0.21849 0.45986 0.0
C606 C 0.55726 0.19981 0.47468 0.0
C607 C 0.57551 0.20909 0.45055 0.0
C608 C 0.56254 0.22419 0.43152 0.0
C609 C 0.53152 0.22863 0.43605 0.0
C610 C 0.64063 0.18438 0.41415 0.0
C611 C 0.66831 0.19083 0.43262 0.0
C612 C 0.61058 0.18985 0.42014 0.0
C613 C 0.60729 0.20235 0.44474 0.0
C614 C 0.63476 0.20865 0.46334 0.0
C615 C 0.66485 0.20296 0.45737 0.0
H616 H 0.35781 0.48726 0.96526 0.0
H617 H 0.29552 0.5454 0.97305 0.0
H618 H 0.41666 0.54669 0.96928 0.0
H619 H 0.35441 0.60518 0.97639 0.0
H620 H 0.47217 0.71048 0.97922 0.0
H621 H 0.41958 0.65075 0.99523 0.0
H622 H 0.43784 0.59211 0.93284 0.0
H623 H 0.48943 0.65127 0.91705 0.0
C624 C 0.35669 0.51255 0.96929 0.0
C625 C 0.32216 0.51173 0.96891 0.0
C626 C 0.3904 0.54669 0.97119 0.0
C627 C 0.39022 0.58075 0.97244 0.0
C628 C 0.35554 0.57946 0.97542 0.0
C629 C 0.3217 0.54512 0.97365 0.0
C630 C 0.46518 0.68459 0.96937 0.0
C631 C 0.4846 0.68533 0.94686 0.0
C632 C 0.43511 0.65052 0.97843 0.0
C633 C 0.42469 0.61662 0.96545 0.0
C634 C 0.44543 0.6175 0.94361 0.0
C635 C 0.47478 0.6514 0.93437 0.0
H636 H 0.41724 0.14481 0.32248 0.0
H637 H 0.45724 0.26159 0.30533 0.0
H638 H 0.41689 0.13181 0.27644 0.0
H639 H 0.45574 0.24841 0.25946 0.0
H640 H 0.38239 0.1185 0.18979 0.0
H641 H 0.38282 0.12925 0.2363 0.0
H642 H 0.48942 0.23189 0.22869 0.0
H643 H 0.48838 0.22199 0.18253 0.0
C644 C 0.42617 0.16774 0.30891 0.0
C645 C 0.43739 0.20428 0.31759 0.0
C646 C 0.4255 0.16018 0.28253 0.0
C647 C 0.43628 0.18905 0.26427 0.0
C648 C 0.44765 0.22559 0.273 0.0
C649 C 0.4482 0.2331 0.2993 0.0
C650 C 0.40583 0.14335 0.19811 0.0
C651 C 0.43545 0.16919 0.18243 0.0
C652 C 0.40625 0.14935 0.22475 0.0
C653 C 0.43613 0.18149 0.2362 0.0
C654 C 0.46578 0.20708 0.2205 0.0
C655 C 0.46541 0.20108 0.19401 0.0
H656 H 0.18697 0.33451 0.68445 0.0
H657 H 0.30374 0.40409 0.70507 0.0
H658 H 0.16999 0.32418 0.73023 0.0
H659 H 0.2869 0.39349 0.75078 0.0
H660 H 0.2463 0.34962 0.83151 0.0
H661 H 0.25742 0.34267 0.786 0.0
H662 H 0.17397 0.37195 0.7642 0.0
H663 H 0.16306 0.37916 0.8097 0.0
C664 C 0.20908 0.34663 0.69878 0.0
C665 C 0.24667 0.37003 0.69129 0.0
C666 C 0.19934 0.341 0.72493 0.0
C667 C 0.2271 0.35814 0.74403 0.0
C668 C 0.26494 0.37966 0.73648 0.0
C669 C 0.27459 0.38581 0.71037 0.0
C670 C 0.22967 0.35363 0.81701 0.0
C671 C 0.2038 0.36492 0.82411 0.0
C672 C 0.23625 0.34993 0.79099 0.0
C673 C 0.21664 0.35685 0.77158 0.0
C674 C 0.18927 0.36611 0.77875 0.0
C675 C 0.18314 0.37041 0.80474 0.0
H676 H 0.86153 0.30339 0.32688 0.0
H677 H 0.84673 0.19236 0.31684 0.0
H678 H 0.87186 0.31427 0.28071 0.0
H679 H 0.86078 0.20467 0.27163 0.0
H680 H 0.84232 0.21675 0.18758 0.0
H681 H 0.83364 0.20789 0.23383 0.0
H682 H 0.91218 0.32615 0.24559 0.0
H683 H 0.91901 0.33506 0.19883 0.0
C684 C 0.86075 0.28138 0.31499 0.0
C685 C 0.85326 0.24697 0.3259 0.0
C686 C 0.86732 0.28789 0.28846 0.0
C687 C 0.86706 0.26034 0.27218 0.0
C688 C 0.86048 0.22637 0.28326 0.0
C689 C 0.85317 0.21959 0.30955 0.0
C690 C 0.85803 0.24074 0.2001 0.0
C691 C 0.88165 0.27649 0.18969 0.0
C692 C 0.85321 0.23571 0.22671 0.0
C693 C 0.87247 0.26621 0.24372 0.0
C694 C 0.89646 0.30205 0.2332 0.0
C695 C 0.9007 0.30718 0.20644 0.0
H696 H 0.671 0.90346 0.82712 0.0
H697 H 0.67357 0.79991 0.82339 0.0
H698 H 0.67941 0.9107 0.78076 0.0
H699 H 0.68416 0.80816 0.77691 0.0
H700 H 0.62999 0.80049 0.69741 0.0
H701 H 0.64232 0.79986 0.74296 0.0
H702 H 0.7139 0.92062 0.74189 0.0
H703 H 0.69985 0.92126 0.69605 0.0
C704 C 0.67418 0.88261 0.8164 0.0
C705 C 0.67054 0.85054 0.82881 0.0
C706 C 0.67955 0.88704 0.78979 0.0
C707 C 0.68177 0.85966 0.77492 0.0
C708 C 0.68164 0.82935 0.78769 0.0
C709 C 0.67599 0.82478 0.81437 0.0
C710 C 0.64834 0.82698 0.70686 0.0
C711 C 0.66312 0.86105 0.69328 0.0
C712 C 0.65601 0.82656 0.73298 0.0
C713 C 0.67901 0.8602 0.74628 0.0
C714 C 0.69561 0.89421 0.73235 0.0
C715 C 0.68779 0.89462 0.70607 0.0
H716 H 0.82005 0.66277 0.17743 0.0
H717 H 0.70695 0.56928 0.18564 0.0
H718 H 0.82828 0.6644 0.2239 0.0
H719 H 0.716 0.56948 0.23205 0.0
H720 H 0.73663 0.59676 0.31826 0.0
H721 H 0.72443 0.60086 0.27253 0.0
H722 H 0.83743 0.62634 0.25426 0.0
H723 H 0.84962 0.62302 0.29974 0.0
C724 C 0.79668 0.64292 0.18914 0.0
C725 C 0.76291 0.61571 0.1777 0.0
C726 C 0.80164 0.64344 0.21582 0.0
C727 C 0.77308 0.61659 0.23173 0.0
C728 C 0.7386 0.59062 0.22044 0.0
C729 C 0.73355 0.59027 0.19377 0.0
C730 C 0.7587 0.60307 0.30437 0.0
C731 C 0.79415 0.60989 0.31257 0.0
C732 C 0.75177 0.60545 0.2782 0.0
C733 C 0.7801 0.61442 0.25968 0.0
C734 C 0.81528 0.62045 0.26797 0.0
C735 C 0.82224 0.61833 0.29406 0.0
H736 H 0.14291 0.83351 0.82594 0.0
H737 H 0.26031 0.88366 0.8068 0.0
H738 H 0.12733 0.83064 0.78007 0.0
H739 H 0.24517 0.88061 0.76107 0.0
H740 H 0.21356 0.87635 0.67972 0.0
H741 H 0.22016 0.89817 0.72436 0.0
H742 H 0.12909 0.78908 0.74684 0.0
H743 H 0.1224 0.76785 0.70211 0.0
C744 C 0.16544 0.84532 0.81189 0.0
C745 C 0.20279 0.85926 0.81968 0.0
C746 C 0.15656 0.84329 0.78567 0.0
C747 C 0.18494 0.85508 0.76687 0.0
C748 C 0.22263 0.87173 0.77498 0.0
C749 C 0.23143 0.87358 0.80115 0.0
C750 C 0.19414 0.85767 0.69416 0.0
C751 C 0.1673 0.82063 0.68769 0.0
C752 C 0.19809 0.86997 0.71969 0.0
C753 C 0.17539 0.8453 0.73922 0.0
C754 C 0.14672 0.80899 0.73227 0.0
C755 C 0.14283 0.79672 0.70671 0.0
H756 H 0.33934 0.94431 0.93934 0.0
H757 H 0.2343 0.89061 0.9811 0.0
H758 H 0.36124 1.0002 0.96551 0.0
H759 H 0.25601 0.94748 0.00714 0.0
H760 H 0.33033 0.03533 0.06873 0.0
H761 H 0.3 0.98151 0.04028 0.0
H762 H 0.35486 0.05342 0.97484 0.0
H763 H 0.38652 0.10754 0.00373 0.0
C764 C 0.32069 0.94449 0.95403 0.0
C765 C 0.28503 0.91278 0.95815 0.0
C766 C 0.33319 0.97689 0.96891 0.0
C767 C 0.31039 0.97876 0.98837 0.0
C768 C 0.27454 0.94705 0.99247 0.0
C769 C 0.26203 0.91439 0.97756 0.0
C770 C 0.33566 0.0399 0.04822 0.0
C771 C 0.36136 0.0758 0.03858 0.0
C772 C 0.31793 1.00889 0.03182 0.0
C773 C 0.32522 1.01279 0.00521 0.0
C774 C 0.34915 0.04915 0.99531 0.0
C775 C 0.36703 0.08032 0.01182 0.0
H776 H 0.32107 0.38243 0.55665 0.0
H777 H 0.21898 0.29635 0.52137 0.0
H778 H 0.35452 0.35133 0.54131 0.0
H779 H 0.25264 0.26636 0.50467 0.0
H780 H 0.3084 0.20025 0.4913 0.0
H781 H 0.27898 0.2301 0.51471 0.0
H782 H 0.3807 0.33766 0.50627 0.0
H783 H 0.41059 0.30682 0.48439 0.0
C784 C 0.30581 0.35709 0.54535 0.0
C785 C 0.2672 0.34183 0.54041 0.0
C786 C 0.3251 0.33921 0.53641 0.0
C787 C 0.30646 0.30584 0.52189 0.0
C788 C 0.26799 0.29124 0.51643 0.0
C789 C 0.24862 0.30875 0.52575 0.0
C790 C 0.32484 0.23003 0.49543 0.0
C791 C 0.36189 0.25114 0.48644 0.0
C792 C 0.30776 0.24742 0.50836 0.0
C793 C 0.32688 0.28668 0.51187 0.0
C794 C 0.36491 0.30743 0.50419 0.0
C795 C 0.38228 0.28976 0.49175 0.0
H796 H 0.95115 0.32308 0.01806 0.0
H797 H 0.97824 0.25627 0.06807 0.0
H798 H 1.00864 0.34142 0.99303 0.0
H799 H 0.03488 0.27345 0.04258 0.0
H800 H 0.10821 0.28909 0.96577 0.0
H801 H 0.05104 0.26683 0.99173 0.0
H802 H 0.0831 0.38144 0.00967 0.0
H803 H 0.141 0.4037 0.98441 0.0
C804 C 0.96867 0.31124 0.02306 0.0
C805 C 0.96003 0.28774 0.04463 0.0
C806 C 1.00177 0.32216 0.00905 0.0
C807 C 0.02629 0.30909 0.01609 0.0
C808 C 1.01647 0.2839 0.03678 0.0
C809 C 0.98397 0.27383 0.05118 0.0
C810 C 0.10357 0.30942 0.97596 0.0
C811 C 0.1293 0.34805 0.9735 0.0
C812 C 0.07077 0.29671 0.99058 0.0
C813 C 0.0625 0.32246 1.00236 0.0
C814 C 0.08874 0.36107 1.00056 0.0
C815 C 0.12209 0.37376 0.98649 0.0
H816 H 0.74886 0.94743 0.54393 0.0
H817 H 0.63233 0.91853 0.54125 0.0
H818 H 0.76738 1.00954 0.52653 0.0
H819 H 0.65091 0.98067 0.52445 0.0
H820 H 0.69784 0.07091 0.45959 0.0
H821 H 0.67597 1.01326 0.48407 0.0
H822 H 0.77055 0.07053 0.53571 0.0
H823 H 0.79256 0.12872 0.51074 0.0
C824 C 0.72718 0.95428 0.53969 0.0
C825 C 0.68906 0.92777 0.54386 0.0
C826 C 0.73786 0.99011 0.53003 0.0
C827 C 0.71067 1.00025 0.5242 0.0
C828 C 0.6726 0.97379 0.52856 0.0
C829 C 0.66195 0.93809 0.53824 0.0
C830 C 0.71328 0.07149 0.47669 0.0
C831 C 0.74662 0.1043 0.48347 0.0
C832 C 0.7008 0.0384 0.49072 0.0
C833 C 0.72164 0.03707 0.51176 0.0
C834 C 0.75407 0.07052 0.51942 0.0
C835 C 0.76636 0.10397 0.50545 0.0
H836 H 0.73292 0.70088 0.06574 0.0
H837 H 0.74349 0.6466 0.99765 0.0
H838 H 0.70983 0.73412 0.03991 0.0
H839 H 0.72109 0.68101 0.97124 0.0
H840 H 0.6249 0.6998 0.94289 0.0
H841 H 0.66108 0.67638 0.96498 0.0
H842 H 0.71872 0.77965 0.00849 0.0
H843 H 0.68151 0.80281 0.98669 0.0
C844 C 0.73122 0.69681 0.04504 0.0
C845 C 0.73971 0.67082 0.03377 0.0
C846 C 0.71812 0.71613 0.03014 0.0
C847 C 0.71301 0.71004 1.00344 0.0
C848 C 0.72399 0.68591 0.99184 0.0
C849 C 0.73733 0.66655 0.00687 0.0
C850 C 0.64533 0.71767 0.95713 0.0
C851 C 0.65 0.75314 0.96314 0.0
C852 C 0.66649 0.70432 0.96962 0.0
C853 C 0.69313 0.72607 0.98849 0.0
C854 C 0.69822 0.76186 0.99427 0.0
C855 C 0.67685 0.77519 0.9818 0.0
H856 H 0.96071 0.71697 0.45562 0.0
H857 H 0.90711 0.61097 0.49594 0.0
H858 H 1.01522 0.73985 0.48349 0.0
H859 H 0.96263 0.63343 0.5236 0.0
H860 H 0.05434 0.69595 0.58303 0.0
H861 H 0.99856 0.67516 0.55689 0.0
H862 H 0.06823 0.7333 0.49116 0.0
H863 H 0.12452 0.75536 0.51788 0.0
C864 C 0.96057 0.6985 0.47056 0.0
C865 C 0.92956 0.66208 0.47356 0.0
C866 C 0.99212 0.71156 0.48642 0.0
C867 C 0.99388 0.68846 0.50564 0.0
C868 C 0.96231 0.65226 0.50916 0.0
C869 C 0.93038 0.63928 0.49336 0.0
C870 C 0.05794 0.70447 0.56299 0.0
C871 C 0.09408 0.72733 0.55254 0.0
C872 C 0.02574 0.69221 0.5479 0.0
C873 C 0.02856 0.70215 0.52177 0.0
C874 C 0.06477 0.72538 0.51131 0.0
C875 C 0.09715 0.73799 0.52656 0.0
H876 H 0.80993 0.14844 0.02166 0.0
H877 H 0.75961 0.0901 0.09285 0.0
H878 H 0.78464 0.08857 0.99957 0.0
H879 H 0.7336 0.03018 0.07038 0.0
H880 H 0.65723 0.93767 0.00865 0.0
H881 H 0.68521 0.99398 0.03595 0.0
H882 H 0.7924 0.03247 0.99883 0.0
H883 H 0.76465 0.97639 0.97195 0.0
C884 C 0.79391 0.12305 0.03278 0.0
C885 C 0.78696 0.12457 0.0592 0.0
C886 C 0.77927 0.08855 0.02001 0.0
C887 C 0.75708 0.05455 0.03321 0.0
C888 C 0.75023 0.05587 0.0596 0.0
C889 C 0.76517 0.09039 0.07246 0.0
C890 C 0.68694 0.95771 0.00684 0.0
C891 C 0.70861 0.95281 0.98791 0.0
C892 C 0.70296 0.99004 0.02237 0.0
C893 C 0.74089 0.01807 0.01919 0.0
C894 C 0.76293 1.01191 1.00134 0.0
C895 C 0.74704 0.9797 0.986 0.0
H896 H 0.74497 0.64856 0.47738 0.0
H897 H 0.84264 0.75949 0.47725 0.0
H898 H 0.71187 0.67114 0.50509 0.0
H899 H 0.80998 0.78194 0.5052 0.0
H900 H 0.74977 0.792 0.57853 0.0
H901 H 0.78234 0.76789 0.55201 0.0
H902 H 0.68936 0.7211 0.49859 0.0
H903 H 0.65698 0.74579 0.52506 0.0
C904 C 0.75948 0.67757 0.48364 0.0
C905 C 0.79633 0.70231 0.47527 0.0
C906 C 0.7405 0.69057 0.49923 0.0
C907 C 0.75836 0.72832 0.50718 0.0
C908 C 0.79559 0.75271 0.49941 0.0
C909 C 0.81423 0.73992 0.48341 0.0
C910 C 0.73636 0.77658 0.56111 0.0
C911 C 0.70096 0.77084 0.55377 0.0
C912 C 0.755 0.76291 0.54593 0.0
C913 C 0.73829 0.74252 0.52333 0.0
C914 C 0.70273 0.73651 0.51603 0.0
C915 C 0.6844 0.75089 0.53098 0.0
H916 H 0.8914 0.66739 0.00579 0.0
H917 H 0.95416 0.7022 0.07707 0.0
H918 H 0.94966 0.70097 0.9816 0.0
H919 H 1.01261 0.73536 0.05269 0.0
H920 H 0.10793 0.74761 0.99584 0.0
H921 H 0.05223 0.72119 0.02367 0.0
H922 H 1.00048 0.76493 0.97249 0.0
H923 H 0.05588 0.79124 0.94496 0.0
C924 C 0.91744 0.68257 0.0164 0.0
C925 C 0.91773 0.68188 0.04352 0.0
C926 C 0.95101 0.70184 1.00246 0.0
C927 C 0.98591 0.72091 0.01519 0.0
C928 C 0.9863 0.7206 0.04227 0.0
C929 C 0.95267 0.70151 0.05624 0.0
C930 C 0.08499 0.75226 0.9909 0.0
C931 C 0.08615 0.77112 0.96801 0.0
C932 C 0.053 0.73703 0.00678 0.0
C933 C 1.02157 0.74036 1.00006 0.0
C934 C 0.02373 0.76102 0.97792 0.0
C935 C 0.05557 0.77621 0.96217 0.0
H936 H 0.24476 0.95613 0.56872 0.0
H937 H 0.26803 0.89352 0.51223 0.0
H938 H 0.27254 1.01091 0.54069 0.0
H939 H 0.29648 0.94873 0.48401 0.0
H940 H 0.31387 0.04669 0.4312 0.0
H941 H 0.28478 0.99016 0.45755 0.0
H942 H 0.33347 0.05762 0.52574 0.0
H943 H 0.36123 0.11433 0.49948 0.0
C944 C 0.25581 0.95411 0.55022 0.0
C945 C 0.25438 0.92054 0.54278 0.0
C946 C 0.27201 0.98563 0.53419 0.0
C947 C 0.28744 0.98463 0.51022 0.0
C948 C 0.28476 0.95056 0.50228 0.0
C949 C 0.26834 0.91882 0.51838 0.0
C950 C 0.31822 0.04959 0.45183 0.0
C951 C 0.33966 0.08534 0.46316 0.0
C952 C 0.30182 0.017 0.46694 0.0
C953 C 0.3064 0.01917 0.49385 0.0
C954 C 0.3287 0.05483 0.50513 0.0
C955 C 0.3451 0.08745 0.49 0.0
H956 H 0.29257 0.37081 1.00341 0.0
H957 H 0.29464 0.3106 0.93605 0.0
H958 H 0.31426 0.33618 0.02982 0.0
H959 H 0.3144 0.27449 0.96229 0.0
H960 H 0.39369 0.25027 0.00883 0.0
H961 H 0.3668 0.28045 0.98316 0.0
H962 H 0.30239 0.28016 0.04923 0.0
H963 H 0.33099 0.2514 0.07508 0.0
C964 C 0.29694 0.34955 0.9944 0.0
C965 C 0.29227 0.34358 0.96769 0.0
C966 C 0.30927 0.32953 0.00951 0.0
C967 C 0.31659 0.30257 0.99828 0.0
C968 C 0.31022 0.29564 0.97165 0.0
C969 C 0.2986 0.31613 0.95655 0.0
C970 C 0.37336 0.25617 0.01771 0.0
C971 C 0.36425 0.24828 0.04391 0.0
C972 C 0.35777 0.27347 1.00299 0.0
C973 C 0.33214 0.28285 0.01395 0.0
C974 C 0.32245 0.2741 0.04011 0.0
C975 C 0.33858 0.25734 0.05494 0.0
H976 H 0.13566 0.34131 0.52352 0.0
H977 H 0.07212 0.34802 0.58764 0.0
H978 H 0.07809 0.30789 0.49853 0.0
H979 H 1.01445 0.31281 0.56322 0.0
H980 H 0.92024 0.2775 0.50487 0.0
H981 H 0.97867 0.31513 0.52808 0.0
H982 H 0.02286 0.24811 0.49613 0.0
H983 H 0.96546 0.21186 0.47181 0.0
C984 C 0.10955 0.33587 0.53233 0.0
C985 C 0.10884 0.34742 0.55776 0.0
C986 C 0.07632 0.31616 0.51807 0.0
C987 C 0.04137 0.30727 0.52885 0.0
C988 C 0.04075 0.31937 0.55411 0.0
C989 C 0.07397 0.33923 0.56831 0.0
C990 C 0.94237 0.27083 0.5025 0.0
C991 C 0.93759 0.24125 0.48631 0.0
C992 C 0.97594 0.29232 0.51612 0.0
C993 C 1.0057 0.2848 0.51406 0.0
C994 C 1.0009 0.2552 0.49797 0.0
C995 C 0.96748 0.23388 0.48426 0.0
loop_
_geom_bond_atom_site_label_1
_geom_bond_atom_site_label_2
_geom_bond_distance
_geom_bond_site_symmetry_2
_ccdc_geom_bond_type
C0 C1 1.351 . S
C0 N3 1.368 . S
C0 H5 0.931 . S
C1 C0 1.351 . S
C1 N2 1.373 . S
C1 H29 0.930 . S
N2 C1 1.373 . S
N2 C4 1.340 . S
N3 C0 1.368 . S
N3 C4 1.321 . S
N3 Co6 2.135 . S
C4 N2 1.340 . S
C4 N3 1.321 . S
C4 H28 0.930 . S
H5 C0 0.931 . S
Co6 N3 2.135 . S
Co6 N9 2.121 . S
Co6 O14 2.055 . S
Co6 O17 2.039 . S
Co6 N20 2.140 . S
C7 O8 1.227 . S
C7 O17 1.265 . S
O8 C7 1.227 . S
N9 Co6 2.121 . S
N9 C11 1.375 . S
N9 C12 1.313 . S
C10 C11 1.338 . S
C10 N13 1.377 . S
C10 H30 0.930 . S
C11 N9 1.375 . S
C11 C10 1.338 . S
C11 H15 0.931 . S
C12 N9 1.313 . S
C12 N13 1.344 . S
C12 H16 0.930 . S
N13 C10 1.377 . S
N13 C12 1.344 . S
O14 Co6 2.055 . S
O14 C18 1.253 . S
H15 C11 0.931 . S
H16 C12 0.930 . S
O17 Co6 2.039 . S
O17 C7 1.265 . S
C18 O14 1.253 . S
C18 O19 1.227 . S
O19 C18 1.227 . S
N20 Co6 2.140 . S
N20 C23 1.346 . S
N20 C24 1.345 . S
C21 C22 1.387 . S
C21 C25 1.391 . S
C22 C21 1.387 . S
C22 C23 1.369 . S
C22 H31 0.929 . S
C23 N20 1.346 . S
C23 C22 1.369 . S
C23 H26 0.928 . S
C24 N20 1.345 . S
C24 C25 1.371 . S
C24 H27 0.931 . S
C25 C21 1.391 . S
C25 C24 1.371 . S
C25 H32 0.930 . S
H26 C23 0.928 . S
H27 C24 0.931 . S
H28 C4 0.930 . S
H29 C1 0.930 . S
H30 C10 0.930 . S
H31 C22 0.929 . S
H32 C25 0.930 . S
C33 C34 1.351 . S
C33 N36 1.368 . S
C33 H38 0.931 . S
C34 C33 1.351 . S
C34 N35 1.373 . S
C34 H62 0.930 . S
N35 C34 1.373 . S
N35 C37 1.340 . S
N36 C33 1.368 . S
N36 C37 1.321 . S
N36 Co39 2.135 . S
C37 N35 1.340 . S
C37 N36 1.321 . S
C37 H61 0.930 . S
H38 C33 0.931 . S
Co39 N36 2.135 . S
Co39 N42 2.121 . S
Co39 O47 2.055 . S
Co39 O50 2.039 . S
Co39 N53 2.140 . S
C40 O41 1.227 . S
C40 O50 1.265 . S
O41 C40 1.227 . S
N42 Co39 2.121 . S
N42 C44 1.375 . S
N42 C45 1.313 . S
C43 C44 1.338 . S
C43 N46 1.377 . S
C43 H63 0.930 . S
C44 N42 1.375 . S
C44 C43 1.338 . S
C44 H48 0.931 . S
C45 N42 1.313 . S
C45 N46 1.344 . S
C45 H49 0.930 . S
N46 C43 1.377 . S
N46 C45 1.344 . S
O47 Co39 2.055 . S
O47 C51 1.253 . S
H48 C44 0.931 . S
H49 C45 0.930 . S
O50 Co39 2.039 . S
O50 C40 1.265 . S
C51 O47 1.253 . S
C51 O52 1.227 . S
O52 C51 1.227 . S
N53 Co39 2.140 . S
N53 C56 1.346 . S
N53 C57 1.345 . S
C54 C55 1.387 . S
C54 C58 1.391 . S
C55 C54 1.387 . S
C55 C56 1.369 . S
C55 H64 0.929 . S
C56 N53 1.346 . S
C56 C55 1.369 . S
C56 H59 0.928 . S
C57 N53 1.345 . S
C57 C58 1.371 . S
C57 H60 0.931 . S
C58 C54 1.391 . S
C58 C57 1.371 . S
C58 H65 0.930 . S
H59 C56 0.928 . S
H60 C57 0.931 . S
H61 C37 0.930 . S
H62 C34 0.930 . S
H63 C43 0.930 . S
H64 C55 0.929 . S
H65 C58 0.930 . S
C66 C67 1.351 . S
C66 N69 1.368 . S
C66 H71 0.931 . S
C67 C66 1.351 . S
C67 N68 1.373 . S
C67 H95 0.930 . S
N68 C67 1.373 . S
N68 C70 1.340 . S
N69 C66 1.368 . S
N69 C70 1.321 . S
N69 Co72 2.135 . S
C70 N68 1.340 . S
C70 N69 1.321 . S
C70 H94 0.930 . S
H71 C66 0.931 . S
Co72 N69 2.135 . S
Co72 N75 2.121 . S
Co72 O80 2.055 . S
Co72 O83 2.039 . S
Co72 N86 2.140 . S
C73 O74 1.227 . S
C73 O83 1.265 . S
O74 C73 1.227 . S
N75 Co72 2.121 . S
N75 C77 1.375 . S
N75 C78 1.313 . S
C76 C77 1.338 . S
C76 N79 1.377 . S
C76 H96 0.930 . S
C77 N75 1.375 . S
C77 C76 1.338 . S
C77 H81 0.931 . S
C78 N75 1.313 . S
C78 N79 1.344 . S
C78 H82 0.930 . S
N79 C76 1.377 . S
N79 C78 1.344 . S
O80 Co72 2.055 . S
O80 C84 1.253 . S
H81 C77 0.931 . S
H82 C78 0.930 . S
O83 Co72 2.039 . S
O83 C73 1.265 . S
C84 O80 1.253 . S
C84 O85 1.227 . S
O85 C84 1.227 . S
N86 Co72 2.140 . S
N86 C89 1.346 . S
N86 C90 1.345 . S
C87 C88 1.387 . S
C87 C91 1.391 . S
C88 C87 1.387 . S
C88 C89 1.369 . S
C88 H97 0.929 . S
C89 N86 1.346 . S
C89 C88 1.369 . S
C89 H92 0.928 . S
C90 N86 1.345 . S
C90 C91 1.371 . S
C90 H93 0.931 . S
C91 C87 1.391 . S
C91 C90 1.371 . S
C91 H98 0.930 . S
H92 C89 0.928 . S
H93 C90 0.931 . S
H94 C70 0.930 . S
H95 C67 0.930 . S
H96 C76 0.930 . S
H97 C88 0.929 . S
H98 C91 0.930 . S
C99 C100 1.351 . S
C99 N102 1.368 . S
C99 H104 0.931 . S
C100 C99 1.351 . S
C100 N101 1.373 . S
C100 H128 0.930 . S
N101 C100 1.373 . S
N101 C103 1.340 . S
N102 C99 1.368 . S
N102 C103 1.321 . S
N102 Co105 2.135 . S
C103 N101 1.340 . S
C103 N102 1.321 . S
C103 H127 0.930 . S
H104 C99 0.931 . S
Co105 N102 2.135 . S
Co105 N108 2.121 . S
Co105 O113 2.055 . S
Co105 O116 2.039 . S
Co105 N119 2.140 . S
C106 O107 1.227 . S
C106 O116 1.265 . S
O107 C106 1.227 . S
N108 Co105 2.121 . S
N108 C110 1.375 . S
N108 C111 1.313 . S
C109 C110 1.338 . S
C109 N112 1.377 . S
C109 H129 0.930 . S
C110 N108 1.375 . S
C110 C109 1.338 . S
C110 H114 0.931 . S
C111 N108 1.313 . S
C111 N112 1.344 . S
C111 H115 0.930 . S
N112 C109 1.377 . S
N112 C111 1.344 . S
O113 Co105 2.055 . S
O113 C117 1.253 . S
H114 C110 0.931 . S
H115 C111 0.930 . S
O116 Co105 2.039 . S
O116 C106 1.265 . S
C117 O113 1.253 . S
C117 O118 1.227 . S
O118 C117 1.227 . S
N119 Co105 2.140 . S
N119 C122 1.346 . S
N119 C123 1.345 . S
C120 C121 1.387 . S
C120 C124 1.391 . S
C121 C120 1.387 . S
C121 C122 1.369 . S
C121 H130 0.929 . S
C122 N119 1.346 . S
C122 C121 1.369 . S
C122 H125 0.928 . S
C123 N119 1.345 . S
C123 C124 1.371 . S
C123 H126 0.931 . S
C124 C120 1.391 . S
C124 C123 1.371 . S
C124 H131 0.930 . S
H125 C122 0.928 . S
H126 C123 0.931 . S
H127 C103 0.930 . S
H128 C100 0.930 . S
H129 C109 0.930 . S
H130 C121 0.929 . S
H131 C124 0.930 . S
C132 C133 1.351 . S
C132 N135 1.368 . S
C132 H137 0.931 . S
C133 C132 1.351 . S
C133 N134 1.373 . S
C133 H161 0.930 . S
N134 C133 1.373 . S
N134 C136 1.340 . S
N135 C132 1.368 . S
N135 C136 1.321 . S
N135 Co138 2.135 . S
C136 N134 1.340 . S
C136 N135 1.321 . S
C136 H160 0.930 . S
H137 C132 0.931 . S
Co138 N135 2.135 . S
Co138 N141 2.121 . S
Co138 O146 2.055 . S
Co138 O149 2.039 . S
Co138 N152 2.140 . S
C139 O140 1.227 . S
C139 O149 1.265 . S
O140 C139 1.227 . S
N141 Co138 2.121 . S
N141 C143 1.375 . S
N141 C144 1.313 . S
C142 C143 1.338 . S
C142 N145 1.377 . S
C142 H162 0.930 . S
C143 N141 1.375 . S
C143 C142 1.338 . S
C143 H147 0.931 . S
C144 N141 1.313 . S
C144 N145 1.344 . S
C144 H148 0.930 . S
N145 C142 1.377 . S
N145 C144 1.344 . S
O146 Co138 2.055 . S
O146 C150 1.253 . S
H147 C143 0.931 . S
H148 C144 0.930 . S
O149 Co138 2.039 . S
O149 C139 1.265 . S
C150 O146 1.253 . S
C150 O151 1.227 . S
O151 C150 1.227 . S
N152 Co138 2.140 . S
N152 C155 1.346 . S
N152 C156 1.345 . S
C153 C154 1.387 . S
C153 C157 1.391 . S
C154 C153 1.387 . S
C154 C155 1.369 . S
C154 H163 0.929 . S
C155 N152 1.346 . S
C155 C154 1.369 . S
C155 H158 0.928 . S
C156 N152 1.345 . S
C156 C157 1.371 . S
C156 H159 0.931 . S
C157 C153 1.391 . S
C157 C156 1.371 . S
C157 H164 0.930 . S
H158 C155 0.928 . S
H159 C156 0.931 . S
H160 C136 0.930 . S
H161 C133 0.930 . S
H162 C142 0.930 . S
H163 C154 0.929 . S
H164 C157 0.930 . S
C165 C166 1.351 . S
C165 N168 1.368 . S
C165 H170 0.931 . S
C166 C165 1.351 . S
C166 N167 1.373 . S
C166 H194 0.930 . S
N167 C166 1.373 . S
N167 C169 1.340 . S
N168 C165 1.368 . S
N168 C169 1.321 . S
N168 Co171 2.135 . S
C169 N167 1.340 . S
C169 N168 1.321 . S
C169 H193 0.930 . S
H170 C165 0.931 . S
Co171 N168 2.135 . S
Co171 N174 2.121 . S
Co171 O179 2.055 . S
Co171 O182 2.039 . S
Co171 N185 2.140 . S
C172 O173 1.227 . S
C172 O182 1.265 . S
O173 C172 1.227 . S
N174 Co171 2.121 . S
N174 C176 1.375 . S
N174 C177 1.313 . S
C175 C176 1.338 . S
C175 N178 1.377 . S
C175 H195 0.930 . S
C176 N174 1.375 . S
C176 C175 1.338 . S
C176 H180 0.931 . S
C177 N174 1.313 . S
C177 N178 1.344 . S
C177 H181 0.930 . S
N178 C175 1.377 . S
N178 C177 1.344 . S
O179 Co171 2.055 . S
O179 C183 1.253 . S
H180 C176 0.931 . S
H181 C177 0.930 . S
O182 Co171 2.039 . S
O182 C172 1.265 . S
C183 O179 1.253 . S
C183 O184 1.227 . S
O184 C183 1.227 . S
N185 Co171 2.140 . S
N185 C188 1.346 . S
N185 C189 1.345 . S
C186 C187 1.387 . S
C186 C190 1.391 . S
C187 C186 1.387 . S
C187 C188 1.369 . S
C187 H196 0.929 . S
C188 N185 1.346 . S
C188 C187 1.369 . S
C188 H191 0.928 . S
C189 N185 1.345 . S
C189 C190 1.371 . S
C189 H192 0.931 . S
C190 C186 1.391 . S
C190 C189 1.371 . S
C190 H197 0.930 . S
H191 C188 0.928 . S
H192 C189 0.931 . S
H193 C169 0.930 . S
H194 C166 0.930 . S
H195 C175 0.930 . S
H196 C187 0.929 . S
H197 C190 0.930 . S
C198 C199 1.351 . S
C198 N201 1.368 . S
C198 H203 0.931 . S
C199 C198 1.351 . S
C199 N200 1.373 . S
C199 H227 0.930 . S
N200 C199 1.373 . S
N200 C202 1.340 . S
N201 C198 1.368 . S
N201 C202 1.321 . S
N201 Co204 2.135 . S
C202 N200 1.340 . S
C202 N201 1.321 . S
C202 H226 0.930 . S
H203 C198 0.931 . S
Co204 N201 2.135 . S
Co204 N207 2.121 . S
Co204 O212 2.055 . S
Co204 O215 2.039 . S
Co204 N218 2.140 . S
C205 O206 1.227 . S
C205 O215 1.265 . S
O206 C205 1.227 . S
N207 Co204 2.121 . S
N207 C209 1.375 . S
N207 C210 1.313 . S
C208 C209 1.338 . S
C208 N211 1.377 . S
C208 H228 0.930 . S
C209 N207 1.375 . S
C209 C208 1.338 . S
C209 H213 0.931 . S
C210 N207 1.313 . S
C210 N211 1.344 . S
C210 H214 0.930 . S
N211 C208 1.377 . S
N211 C210 1.344 . S
O212 Co204 2.055 . S
O212 C216 1.253 . S
H213 C209 0.931 . S
H214 C210 0.930 . S
O215 Co204 2.039 . S
O215 C205 1.265 . S
C216 O212 1.253 . S
C216 O217 1.227 . S
O217 C216 1.227 . S
N218 Co204 2.140 . S
N218 C221 1.346 . S
N218 C222 1.345 . S
C219 C220 1.387 . S
C219 C223 1.391 . S
C220 C219 1.387 . S
C220 C221 1.369 . S
C220 H229 0.929 . S
C221 N218 1.346 . S
C221 C220 1.369 . S
C221 H224 0.928 . S
C222 N218 1.345 . S
C222 C223 1.371 . S
C222 H225 0.931 . S
C223 C219 1.391 . S
C223 C222 1.371 . S
C223 H230 0.930 . S
H224 C221 0.928 . S
H225 C222 0.931 . S
H226 C202 0.930 . S
H227 C199 0.930 . S
H228 C208 0.930 . S
H229 C220 0.929 . S
H230 C223 0.930 . S
C231 C232 1.351 . S
C231 N234 1.368 . S
C231 H236 0.931 . S
C232 C231 1.351 . S
C232 N233 1.373 . S
C232 H260 0.930 . S
N233 C232 1.373 . S
N233 C235 1.340 . S
N234 C231 1.368 . S
N234 C235 1.321 . S
N234 Co237 2.135 . S
C235 N233 1.340 . S
C235 N234 1.321 . S
C235 H259 0.930 . S
H236 C231 0.931 . S
Co237 N234 2.135 . S
Co237 N240 2.121 . S
Co237 O245 2.055 . S
Co237 O248 2.039 . S
Co237 N251 2.140 . S
C238 O239 1.227 . S
C238 O248 1.265 . S
O239 C238 1.227 . S
N240 Co237 2.121 . S
N240 C242 1.375 . S
N240 C243 1.313 . S
C241 C242 1.338 . S
C241 N244 1.377 . S
C241 H261 0.930 . S
C242 N240 1.375 . S
C242 C241 1.338 . S
C242 H246 0.931 . S
C243 N240 1.313 . S
C243 N244 1.344 . S
C243 H247 0.930 . S
N244 C241 1.377 . S
N244 C243 1.344 . S
O245 Co237 2.055 . S
O245 C249 1.253 . S
H246 C242 0.931 . S
H247 C243 0.930 . S
O248 Co237 2.039 . S
O248 C238 1.265 . S
C249 O245 1.253 . S
C249 O250 1.227 . S
O250 C249 1.227 . S
N251 Co237 2.140 . S
N251 C254 1.346 . S
N251 C255 1.345 . S
C252 C253 1.387 . S
C252 C256 1.391 . S
C253 C252 1.387 . S
C253 C254 1.369 . S
C253 H262 0.929 . S
C254 N251 1.346 . S
C254 C253 1.369 . S
C254 H257 0.928 . S
C255 N251 1.345 . S
C255 C256 1.371 . S
C255 H258 0.931 . S
C256 C252 1.391 . S
C256 C255 1.371 . S
C256 H263 0.930 . S
H257 C254 0.928 . S
H258 C255 0.931 . S
H259 C235 0.930 . S
H260 C232 0.930 . S
H261 C241 0.930 . S
H262 C253 0.929 . S
H263 C256 0.930 . S
C264 C265 1.351 . S
C264 N267 1.368 . S
C264 H269 0.931 . S
C265 C264 1.351 . S
C265 N266 1.373 . S
C265 H293 0.930 . S
N266 C265 1.373 . S
N266 C268 1.340 . S
N267 C264 1.368 . S
N267 C268 1.321 . S
N267 Co270 2.135 . S
C268 N266 1.340 . S
C268 N267 1.321 . S
C268 H292 0.930 . S
H269 C264 0.931 . S
Co270 N267 2.135 . S
Co270 N273 2.121 . S
Co270 O278 2.055 . S
Co270 O281 2.039 . S
Co270 N284 2.140 . S
C271 O272 1.227 . S
C271 O281 1.265 . S
O272 C271 1.227 . S
N273 Co270 2.121 . S
N273 C275 1.375 . S
N273 C276 1.313 . S
C274 C275 1.338 . S
C274 N277 1.377 . S
C274 H294 0.930 . S
C275 N273 1.375 . S
C275 C274 1.338 . S
C275 H279 0.931 . S
C276 N273 1.313 . S
C276 N277 1.344 . S
C276 H280 0.930 . S
N277 C274 1.377 . S
N277 C276 1.344 . S
O278 Co270 2.055 . S
O278 C282 1.253 . S
H279 C275 0.931 . S
H280 C276 0.930 . S
O281 Co270 2.039 . S
O281 C271 1.265 . S
C282 O278 1.253 . S
C282 O283 1.227 . S
O283 C282 1.227 . S
N284 Co270 2.140 . S
N284 C287 1.346 . S
N284 C288 1.345 . S
C285 C286 1.387 . S
C285 C289 1.391 . S
C286 C285 1.387 . S
C286 C287 1.369 . S
C286 H295 0.929 . S
C287 N284 1.346 . S
C287 C286 1.369 . S
C287 H290 0.928 . S
C288 N284 1.345 . S
C288 C289 1.371 . S
C288 H291 0.931 . S
C289 C285 1.391 . S
C289 C288 1.371 . S
C289 H296 0.930 . S
H290 C287 0.928 . S
H291 C288 0.931 . S
H292 C268 0.930 . S
H293 C265 0.930 . S
H294 C274 0.930 . S
H295 C286 0.929 . S
H296 C289 0.930 . S
C297 C298 1.351 . S
C297 N300 1.368 . S
C297 H302 0.931 . S
C298 C297 1.351 . S
C298 N299 1.373 . S
C298 H326 0.930 . S
N299 C298 1.373 . S
N299 C301 1.340 . S
N300 C297 1.368 . S
N300 C301 1.321 . S
N300 Co303 2.135 . S
C301 N299 1.340 . S
C301 N300 1.321 . S
C301 H325 0.930 . S
H302 C297 0.931 . S
Co303 N300 2.135 . S
Co303 N306 2.121 . S
Co303 O311 2.055 . S
Co303 O314 2.039 . S
Co303 N317 2.140 . S
C304 O305 1.227 . S
C304 O314 1.265 . S
O305 C304 1.227 . S
N306 Co303 2.121 . S
N306 C308 1.375 . S
N306 C309 1.313 . S
C307 C308 1.338 . S
C307 N310 1.377 . S
C307 H327 0.930 . S
C308 N306 1.375 . S
C308 C307 1.338 . S
C308 H312 0.931 . S
C309 N306 1.313 . S
C309 N310 1.344 . S
C309 H313 0.930 . S
N310 C307 1.377 . S
N310 C309 1.344 . S
O311 Co303 2.055 . S
O311 C315 1.253 . S
H312 C308 0.931 . S
H313 C309 0.930 . S
O314 Co303 2.039 . S
O314 C304 1.265 . S
C315 O311 1.253 . S
C315 O316 1.227 . S
O316 C315 1.227 . S
N317 Co303 2.140 . S
N317 C320 1.346 . S
N317 C321 1.345 . S
C318 C319 1.387 . S
C318 C322 1.391 . S
C319 C318 1.387 . S
C319 C320 1.369 . S
C319 H328 0.929 . S
C320 N317 1.346 . S
C320 C319 1.369 . S
C320 H323 0.928 . S
C321 N317 1.345 . S
C321 C322 1.371 . S
C321 H324 0.931 . S
C322 C318 1.391 . S
C322 C321 1.371 . S
C322 H329 0.930 . S
H323 C320 0.928 . S
H324 C321 0.931 . S
H325 C301 0.930 . S
H326 C298 0.930 . S
H327 C307 0.930 . S
H328 C319 0.929 . S
H329 C322 0.930 . S
C330 C331 1.351 . S
C330 N333 1.368 . S
C330 H335 0.931 . S
C331 C330 1.351 . S
C331 N332 1.373 . S
C331 H359 0.930 . S
N332 C331 1.373 . S
N332 C334 1.340 . S
N333 C330 1.368 . S
N333 C334 1.321 . S
N333 Co336 2.135 . S
C334 N332 1.340 . S
C334 N333 1.321 . S
C334 H358 0.930 . S
H335 C330 0.931 . S
Co336 N333 2.135 . S
Co336 N339 2.121 . S
Co336 O344 2.055 . S
Co336 O347 2.039 . S
Co336 N350 2.140 . S
C337 O338 1.227 . S
C337 O347 1.265 . S
O338 C337 1.227 . S
N339 Co336 2.121 . S
N339 C341 1.375 . S
N339 C342 1.313 . S
C340 C341 1.338 . S
C340 N343 1.377 . S
C340 H360 0.930 . S
C341 N339 1.375 . S
C341 C340 1.338 . S
C341 H345 0.931 . S
C342 N339 1.313 . S
C342 N343 1.344 . S
C342 H346 0.930 . S
N343 C340 1.377 . S
N343 C342 1.344 . S
O344 Co336 2.055 . S
O344 C348 1.253 . S
H345 C341 0.931 . S
H346 C342 0.930 . S
O347 Co336 2.039 . S
O347 C337 1.265 . S
C348 O344 1.253 . S
C348 O349 1.227 . S
O349 C348 1.227 . S
N350 Co336 2.140 . S
N350 C353 1.346 . S
N350 C354 1.345 . S
C351 C352 1.387 . S
C351 C355 1.391 . S
C352 C351 1.387 . S
C352 C353 1.369 . S
C352 H361 0.929 . S
C353 N350 1.346 . S
C353 C352 1.369 . S
C353 H356 0.928 . S
C354 N350 1.345 . S
C354 C355 1.371 . S
C354 H357 0.931 . S
C355 C351 1.391 . S
C355 C354 1.371 . S
C355 H362 0.930 . S
H356 C353 0.928 . S
H357 C354 0.931 . S
H358 C334 0.930 . S
H359 C331 0.930 . S
H360 C340 0.930 . S
H361 C352 0.929 . S
H362 C355 0.930 . S
C363 C364 1.351 . S
C363 N366 1.368 . S
C363 H368 0.931 . S
C364 C363 1.351 . S
C364 N365 1.373 . S
C364 H392 0.930 . S
N365 C364 1.373 . S
N365 C367 1.340 . S
N366 C363 1.368 . S
N366 C367 1.321 . S
N366 Co369 2.135 . S
C367 N365 1.340 . S
C367 N366 1.321 . S
C367 H391 0.930 . S
H368 C363 0.931 . S
Co369 N366 2.135 . S
Co369 N372 2.121 . S
Co369 O377 2.055 . S
Co369 O380 2.039 . S
Co369 N383 2.140 . S
C370 O371 1.227 . S
C370 O380 1.265 . S
O371 C370 1.227 . S
N372 Co369 2.121 . S
N372 C374 1.375 . S
N372 C375 1.313 . S
C373 C374 1.338 . S
C373 N376 1.377 . S
C373 H393 0.930 . S
C374 N372 1.375 . S
C374 C373 1.338 . S
C374 H378 0.931 . S
C375 N372 1.313 . S
C375 N376 1.344 . S
C375 H379 0.930 . S
N376 C373 1.377 . S
N376 C375 1.344 . S
O377 Co369 2.055 . S
O377 C381 1.253 . S
H378 C374 0.931 . S
H379 C375 0.930 . S
O380 Co369 2.039 . S
O380 C370 1.265 . S
C381 O377 1.253 . S
C381 O382 1.227 . S
O382 C381 1.227 . S
N383 Co369 2.140 . S
N383 C386 1.346 . S
N383 C387 1.345 . S
C384 C385 1.387 . S
C384 C388 1.391 . S
C385 C384 1.387 . S
C385 C386 1.369 . S
C385 H394 0.929 . S
C386 N383 1.346 . S
C386 C385 1.369 . S
C386 H389 0.928 . S
C387 N383 1.345 . S
C387 C388 1.371 . S
C387 H390 0.931 . S
C388 C384 1.391 . S
C388 C387 1.371 . S
C388 H395 0.930 . S
H389 C386 0.928 . S
H390 C387 0.931 . S
H391 C367 0.930 . S
H392 C364 0.930 . S
H393 C373 0.930 . S
H394 C385 0.929 . S
H395 C388 0.930 . S
H396 C404 0.950 . S
H397 C409 0.950 . S
H398 C406 0.950 . S
H399 C408 0.950 . S
H400 C410 0.950 . S
H401 C412 0.950 . S
H402 C414 0.950 . S
H403 C415 0.950 . S
C404 H396 0.950 . S
C404 C405 1.386 . S
C404 C406 1.391 . S
C405 C404 1.386 . S
C405 C409 1.393 . S
C406 H398 0.950 . S
C406 C404 1.391 . S
C406 C407 1.400 . S
C407 C406 1.400 . S
C407 C408 1.398 . S
C407 C413 1.491 . S
C408 H399 0.950 . S
C408 C407 1.398 . S
C408 C409 1.391 . S
C409 H397 0.950 . S
C409 C405 1.393 . S
C409 C408 1.391 . S
C410 H400 0.950 . S
C410 C411 1.386 . S
C410 C412 1.391 . S
C411 C410 1.386 . S
C411 C415 1.393 . S
C412 H401 0.950 . S
C412 C410 1.391 . S
C412 C413 1.400 . S
C413 C407 1.491 . S
C413 C412 1.400 . S
C413 C414 1.398 . S
C414 H402 0.950 . S
C414 C413 1.398 . S
C414 C415 1.391 . S
C415 H403 0.950 . S
C415 C411 1.393 . S
C415 C414 1.391 . S
H416 C424 0.950 . S
H417 C429 0.950 . S
H418 C426 0.950 . S
H419 C428 0.950 . S
H420 C430 0.950 . S
H421 C432 0.950 . S
H422 C434 0.950 . S
H423 C435 0.950 . S
C424 H416 0.950 . S
C424 C425 1.386 . S
C424 C426 1.391 . S
C425 C424 1.386 . S
C425 C429 1.393 . S
C426 H418 0.950 . S
C426 C424 1.391 . S
C426 C427 1.400 . S
C427 C426 1.400 . S
C427 C428 1.398 . S
C427 C433 1.491 . S
C428 H419 0.950 . S
C428 C427 1.398 . S
C428 C429 1.391 . S
C429 H417 0.950 . S
C429 C425 1.393 . S
C429 C428 1.391 . S
C430 H420 0.950 . S
C430 C431 1.386 . S
C430 C432 1.391 . S
C431 C430 1.386 . S
C431 C435 1.393 . S
C432 H421 0.950 . S
C432 C430 1.391 . S
C432 C433 1.400 . S
C433 C427 1.491 . S
C433 C432 1.400 . S
C433 C434 1.398 . S
C434 H422 0.950 . S
C434 C433 1.398 . S
C434 C435 1.391 . S
C435 H423 0.950 . S
C435 C431 1.393 . S
C435 C434 1.391 . S
H436 C444 0.950 . S
H437 C449 0.950 . S
H438 C446 0.950 . S
H439 C448 0.950 . S
H440 C450 0.950 . S
H441 C452 0.950 . S
H442 C454 0.950 . S
H443 C455 0.950 . S
C444 H436 0.950 . S
C444 C445 1.386 . S
C444 C446 1.391 . S
C445 C444 1.386 . S
C445 C449 1.393 . S
C446 H438 0.950 . S
C446 C444 1.391 . S
C446 C447 1.400 . S
C447 C446 1.400 . S
C447 C448 1.398 . S
C447 C453 1.491 . S
C448 H439 0.950 . S
C448 C447 1.398 . S
C448 C449 1.391 . S
C449 H437 0.950 . S
C449 C445 1.393 . S
C449 C448 1.391 . S
C450 H440 0.950 . S
C450 C451 1.386 . S
C450 C452 1.391 . S
C451 C450 1.386 . S
C451 C455 1.393 . S
C452 H441 0.950 . S
C452 C450 1.391 . S
C452 C453 1.400 . S
C453 C447 1.491 . S
C453 C452 1.400 . S
C453 C454 1.398 . S
C454 H442 0.950 . S
C454 C453 1.398 . S
C454 C455 1.391 . S
C455 H443 0.950 . S
C455 C451 1.393 . S
C455 C454 1.391 . S
H456 C464 0.950 . S
H457 C469 0.950 . S
H458 C466 0.950 . S
H459 C468 0.950 . S
H460 C470 0.950 . S
H461 C472 0.950 . S
H462 C474 0.950 . S
H463 C475 0.950 . S
C464 H456 0.950 . S
C464 C465 1.386 . S
C464 C466 1.391 . S
C465 C464 1.386 . S
C465 C469 1.393 . S
C466 H458 0.950 . S
C466 C464 1.391 . S
C466 C467 1.400 . S
C467 C466 1.400 . S
C467 C468 1.398 . S
C467 C473 1.491 . S
C468 H459 0.950 . S
C468 C467 1.398 . S
C468 C469 1.391 . S
C469 H457 0.950 . S
C469 C465 1.393 . S
C469 C468 1.391 . S
C470 H460 0.950 . S
C470 C471 1.386 . S
C470 C472 1.391 . S
C471 C470 1.386 . S
C471 C475 1.393 . S
C472 H461 0.950 . S
C472 C470 1.391 . S
C472 C473 1.400 . S
C473 C467 1.491 . S
C473 C472 1.400 . S
C473 C474 1.398 . S
C474 H462 0.950 . S
C474 C473 1.398 . S
C474 C475 1.391 . S
C475 H463 0.950 . S
C475 C471 1.393 . S
C475 C474 1.391 . S
H476 C484 0.950 . S
H477 C489 0.950 . S
H478 C486 0.950 . S
H479 C488 0.950 . S
H480 C490 0.950 . S
H481 C492 0.950 . S
H482 C494 0.950 . S
H483 C495 0.950 . S
C484 H476 0.950 . S
C484 C485 1.386 . S
C484 C486 1.391 . S
C485 C484 1.386 . S
C485 C489 1.393 . S
C486 H478 0.950 . S
C486 C484 1.391 . S
C486 C487 1.400 . S
C487 C486 1.400 . S
C487 C488 1.398 . S
C487 C493 1.491 . S
C488 H479 0.950 . S
C488 C487 1.398 . S
C488 C489 1.391 . S
C489 H477 0.950 . S
C489 C485 1.393 . S
C489 C488 1.391 . S
C490 H480 0.950 . S
C490 C491 1.386 . S
C490 C492 1.391 . S
C491 C490 1.386 . S
C491 C495 1.393 . S
C492 H481 0.950 . S
C492 C490 1.391 . S
C492 C493 1.400 . S
C493 C487 1.491 . S
C493 C492 1.400 . S
C493 C494 1.398 . S
C494 H482 0.950 . S
C494 C493 1.398 . S
C494 C495 1.391 . S
C495 H483 0.950 . S
C495 C491 1.393 . S
C495 C494 1.391 . S
H496 C504 0.950 . S
H497 C509 0.950 . S
H498 C506 0.950 . S
H499 C508 0.950 . S
H500 C510 0.950 . S
H501 C512 0.950 . S
H502 C514 0.950 . S
H503 C515 0.950 . S
C504 H496 0.950 . S
C504 C505 1.386 . S
C504 C506 1.391 . S
C505 C504 1.386 . S
C505 C509 1.393 . S
C506 H498 0.950 . S
C506 C504 1.391 . S
C506 C507 1.400 . S
C507 C506 1.400 . S
C507 C508 1.398 . S
C507 C513 1.491 . S
C508 H499 0.950 . S
C508 C507 1.398 . S
C508 C509 1.391 . S
C509 H497 0.950 . S
C509 C505 1.393 . S
C509 C508 1.391 . S
C510 H500 0.950 . S
C510 C511 1.386 . S
C510 C512 1.391 . S
C511 C510 1.386 . S
C511 C515 1.393 . S
C512 H501 0.950 . S
C512 C510 1.391 . S
C512 C513 1.400 . S
C513 C507 1.491 . S
C513 C512 1.400 . S
C513 C514 1.398 . S
C514 H502 0.950 . S
C514 C513 1.398 . S
C514 C515 1.391 . S
C515 H503 0.950 . S
C515 C511 1.393 . S
C515 C514 1.391 . S
H516 C524 0.950 . S
H517 C529 0.950 . S
H518 C526 0.950 . S
H519 C528 0.950 . S
H520 C530 0.950 . S
H521 C532 0.950 . S
H522 C534 0.950 . S
H523 C535 0.950 . S
C524 H516 0.950 . S
C524 C525 1.386 . S
C524 C526 1.391 . S
C525 C524 1.386 . S
C525 C529 1.393 . S
C526 H518 0.950 . S
C526 C524 1.391 . S
C526 C527 1.400 . S
C527 C526 1.400 . S
C527 C528 1.398 . S
C527 C533 1.491 . S
C528 H519 0.950 . S
C528 C527 1.398 . S
C528 C529 1.391 . S
C529 H517 0.950 . S
C529 C525 1.393 . S
C529 C528 1.391 . S
C530 H520 0.950 . S
C530 C531 1.386 . S
C530 C532 1.391 . S
C531 C530 1.386 . S
C531 C535 1.393 . S
C532 H521 0.950 . S
C532 C530 1.391 . S
C532 C533 1.400 . S
C533 C527 1.491 . S
C533 C532 1.400 . S
C533 C534 1.398 . S
C534 H522 0.950 . S
C534 C533 1.398 . S
C534 C535 1.391 . S
C535 H523 0.950 . S
C535 C531 1.393 . S
C535 C534 1.391 . S
H536 C544 0.950 . S
H537 C549 0.950 . S
H538 C546 0.950 . S
H539 C548 0.950 . S
H540 C550 0.950 . S
H541 C552 0.950 . S
H542 C554 0.950 . S
H543 C555 0.950 . S
C544 H536 0.950 . S
C544 C545 1.386 . S
C544 C546 1.391 . S
C545 C544 1.386 . S
C545 C549 1.393 . S
C546 H538 0.950 . S
C546 C544 1.391 . S
C546 C547 1.400 . S
C547 C546 1.400 . S
C547 C548 1.398 . S
C547 C553 1.491 . S
C548 H539 0.950 . S
C548 C547 1.398 . S
C548 C549 1.391 . S
C549 H537 0.950 . S
C549 C545 1.393 . S
C549 C548 1.391 . S
C550 H540 0.950 . S
C550 C551 1.386 . S
C550 C552 1.391 . S
C551 C550 1.386 . S
C551 C555 1.393 . S
C552 H541 0.950 . S
C552 C550 1.391 . S
C552 C553 1.400 . S
C553 C547 1.491 . S
C553 C552 1.400 . S
C553 C554 1.398 . S
C554 H542 0.950 . S
C554 C553 1.398 . S
C554 C555 1.391 . S
C555 H543 0.950 . S
C555 C551 1.393 . S
C555 C554 1.391 . S
H556 C564 0.950 . S
H557 C569 0.950 . S
H558 C566 0.950 . S
H559 C568 0.950 . S
H560 C570 0.950 . S
H561 C572 0.950 . S
H562 C574 0.950 . S
H563 C575 0.950 . S
C564 H556 0.950 . S
C564 C565 1.386 . S
C564 C566 1.391 . S
C565 C564 1.386 . S
C565 C569 1.393 . S
C566 H558 0.950 . S
C566 C564 1.391 . S
C566 C567 1.400 . S
C567 C566 1.400 . S
C567 C568 1.398 . S
C567 C573 1.491 . S
C568 H559 0.950 . S
C568 C567 1.398 . S
C568 C569 1.391 . S
C569 H557 0.950 . S
C569 C565 1.393 . S
C569 C568 1.391 . S
C570 H560 0.950 . S
C570 C571 1.386 . S
C570 C572 1.391 . S
C571 C570 1.386 . S
C571 C575 1.393 . S
C572 H561 0.950 . S
C572 C570 1.391 . S
C572 C573 1.400 . S
C573 C567 1.491 . S
C573 C572 1.400 . S
C573 C574 1.398 . S
C574 H562 0.950 . S
C574 C573 1.398 . S
C574 C575 1.391 . S
C575 H563 0.950 . S
C575 C571 1.393 . S
C575 C574 1.391 . S
H576 C584 0.950 . S
H577 C589 0.950 . S
H578 C586 0.950 . S
H579 C588 0.950 . S
H580 C590 0.950 . S
H581 C592 0.950 . S
H582 C594 0.950 . S
H583 C595 0.950 . S
C584 H576 0.950 . S
C584 C585 1.386 . S
C584 C586 1.391 . S
C585 C584 1.386 . S
C585 C589 1.393 . S
C586 H578 0.950 . S
C586 C584 1.391 . S
C586 C587 1.400 . S
C587 C586 1.400 . S
C587 C588 1.398 . S
C587 C593 1.491 . S
C588 H579 0.950 . S
C588 C587 1.398 . S
C588 C589 1.391 . S
C589 H577 0.950 . S
C589 C585 1.393 . S
C589 C588 1.391 . S
C590 H580 0.950 . S
C590 C591 1.386 . S
C590 C592 1.391 . S
C591 C590 1.386 . S
C591 C595 1.393 . S
C592 H581 0.950 . S
C592 C590 1.391 . S
C592 C593 1.400 . S
C593 C587 1.491 . S
C593 C592 1.400 . S
C593 C594 1.398 . S
C594 H582 0.950 . S
C594 C593 1.398 . S
C594 C595 1.391 . S
C595 H583 0.950 . S
C595 C591 1.393 . S
C595 C594 1.391 . S
H596 C604 0.950 . S
H597 C609 0.950 . S
H598 C606 0.950 . S
H599 C608 0.950 . S
H600 C610 0.950 . S
H601 C612 0.950 . S
H602 C614 0.950 . S
H603 C615 0.950 . S
C604 H596 0.950 . S
C604 C605 1.386 . S
C604 C606 1.391 . S
C605 C604 1.386 . S
C605 C609 1.393 . S
C606 H598 0.950 . S
C606 C604 1.391 . S
C606 C607 1.400 . S
C607 C606 1.400 . S
C607 C608 1.398 . S
C607 C613 1.491 . S
C608 H599 0.950 . S
C608 C607 1.398 . S
C608 C609 1.391 . S
C609 H597 0.950 . S
C609 C605 1.393 . S
C609 C608 1.391 . S
C610 H600 0.950 . S
C610 C611 1.386 . S
C610 C612 1.391 . S
C611 C610 1.386 . S
C611 C615 1.393 . S
C612 H601 0.950 . S
C612 C610 1.391 . S
C612 C613 1.400 . S
C613 C607 1.491 . S
C613 C612 1.400 . S
C613 C614 1.398 . S
C614 H602 0.950 . S
C614 C613 1.398 . S
C614 C615 1.391 . S
C615 H603 0.950 . S
C615 C611 1.393 . S
C615 C614 1.391 . S
H616 C624 0.950 . S
H617 C629 0.950 . S
H618 C626 0.950 . S
H619 C628 0.950 . S
H620 C630 0.950 . S
H621 C632 0.950 . S
H622 C634 0.950 . S
H623 C635 0.950 . S
C624 H616 0.950 . S
C624 C625 1.386 . S
C624 C626 1.391 . S
C625 C624 1.386 . S
C625 C629 1.393 . S
C626 H618 0.950 . S
C626 C624 1.391 . S
C626 C627 1.400 . S
C627 C626 1.400 . S
C627 C628 1.398 . S
C627 C633 1.491 . S
C628 H619 0.950 . S
C628 C627 1.398 . S
C628 C629 1.391 . S
C629 H617 0.950 . S
C629 C625 1.393 . S
C629 C628 1.391 . S
C630 H620 0.950 . S
C630 C631 1.386 . S
C630 C632 1.391 . S
C631 C630 1.386 . S
C631 C635 1.393 . S
C632 H621 0.950 . S
C632 C630 1.391 . S
C632 C633 1.400 . S
C633 C627 1.491 . S
C633 C632 1.400 . S
C633 C634 1.398 . S
C634 H622 0.950 . S
C634 C633 1.398 . S
C634 C635 1.391 . S
C635 H623 0.950 . S
C635 C631 1.393 . S
C635 C634 1.391 . S
H636 C644 0.950 . S
H637 C649 0.950 . S
H638 C646 0.950 . S
H639 C648 0.950 . S
H640 C650 0.950 . S
H641 C652 0.950 . S
H642 C654 0.950 . S
H643 C655 0.950 . S
C644 H636 0.950 . S
C644 C645 1.386 . S
C644 C646 1.391 . S
C645 C644 1.386 . S
C645 C649 1.393 . S
C646 H638 0.950 . S
C646 C644 1.391 . S
C646 C647 1.400 . S
C647 C646 1.400 . S
C647 C648 1.398 . S
C647 C653 1.491 . S
C648 H639 0.950 . S
C648 C647 1.398 . S
C648 C649 1.391 . S
C649 H637 0.950 . S
C649 C645 1.393 . S
C649 C648 1.391 . S
C650 H640 0.950 . S
C650 C651 1.386 . S
C650 C652 1.391 . S
C651 C650 1.386 . S
C651 C655 1.393 . S
C652 H641 0.950 . S
C652 C650 1.391 . S
C652 C653 1.400 . S
C653 C647 1.491 . S
C653 C652 1.400 . S
C653 C654 1.398 . S
C654 H642 0.950 . S
C654 C653 1.398 . S
C654 C655 1.391 . S
C655 H643 0.950 . S
C655 C651 1.393 . S
C655 C654 1.391 . S
H656 C664 0.950 . S
H657 C669 0.950 . S
H658 C666 0.950 . S
H659 C668 0.950 . S
H660 C670 0.950 . S
H661 C672 0.950 . S
H662 C674 0.950 . S
H663 C675 0.950 . S
C664 H656 0.950 . S
C664 C665 1.386 . S
C664 C666 1.391 . S
C665 C664 1.386 . S
C665 C669 1.393 . S
C666 H658 0.950 . S
C666 C664 1.391 . S
C666 C667 1.400 . S
C667 C666 1.400 . S
C667 C668 1.398 . S
C667 C673 1.491 . S
C668 H659 0.950 . S
C668 C667 1.398 . S
C668 C669 1.391 . S
C669 H657 0.950 . S
C669 C665 1.393 . S
C669 C668 1.391 . S
C670 H660 0.950 . S
C670 C671 1.386 . S
C670 C672 1.391 . S
C671 C670 1.386 . S
C671 C675 1.393 . S
C672 H661 0.950 . S
C672 C670 1.391 . S
C672 C673 1.400 . S
C673 C667 1.491 . S
C673 C672 1.400 . S
C673 C674 1.398 . S
C674 H662 0.950 . S
C674 C673 1.398 . S
C674 C675 1.391 . S
C675 H663 0.950 . S
C675 C671 1.393 . S
C675 C674 1.391 . S
H676 C684 0.950 . S
H677 C689 0.950 . S
H678 C686 0.950 . S
H679 C688 0.950 . S
H680 C690 0.950 . S
H681 C692 0.950 . S
H682 C694 0.950 . S
H683 C695 0.950 . S
C684 H676 0.950 . S
C684 C685 1.386 . S
C684 C686 1.391 . S
C685 C684 1.386 . S
C685 C689 1.393 . S
C686 H678 0.950 . S
C686 C684 1.391 . S
C686 C687 1.400 . S
C687 C686 1.400 . S
C687 C688 1.398 . S
C687 C693 1.491 . S
C688 H679 0.950 . S
C688 C687 1.398 . S
C688 C689 1.391 . S
C689 H677 0.950 . S
C689 C685 1.393 . S
C689 C688 1.391 . S
C690 H680 0.950 . S
C690 C691 1.386 . S
C690 C692 1.391 . S
C691 C690 1.386 . S
C691 C695 1.393 . S
C692 H681 0.950 . S
C692 C690 1.391 . S
C692 C693 1.400 . S
C693 C687 1.491 . S
C693 C692 1.400 . S
C693 C694 1.398 . S
C694 H682 0.950 . S
C694 C693 1.398 . S
C694 C695 1.391 . S
C695 H683 0.950 . S
C695 C691 1.393 . S
C695 C694 1.391 . S
H696 C704 0.950 . S
H697 C709 0.950 . S
H698 C706 0.950 . S
H699 C708 0.950 . S
H700 C710 0.950 . S
H701 C712 0.950 . S
H702 C714 0.950 . S
H703 C715 0.950 . S
C704 H696 0.950 . S
C704 C705 1.386 . S
C704 C706 1.391 . S
C705 C704 1.386 . S
C705 C709 1.393 . S
C706 H698 0.950 . S
C706 C704 1.391 . S
C706 C707 1.400 . S
C707 C706 1.400 . S
C707 C708 1.398 . S
C707 C713 1.491 . S
C708 H699 0.950 . S
C708 C707 1.398 . S
C708 C709 1.391 . S
C709 H697 0.950 . S
C709 C705 1.393 . S
C709 C708 1.391 . S
C710 H700 0.950 . S
C710 C711 1.386 . S
C710 C712 1.391 . S
C711 C710 1.386 . S
C711 C715 1.393 . S
C712 H701 0.950 . S
C712 C710 1.391 . S
C712 C713 1.400 . S
C713 C707 1.491 . S
C713 C712 1.400 . S
C713 C714 1.398 . S
C714 H702 0.950 . S
C714 C713 1.398 . S
C714 C715 1.391 . S
C715 H703 0.950 . S
C715 C711 1.393 . S
C715 C714 1.391 . S
H716 C724 0.950 . S
H717 C729 0.950 . S
H718 C726 0.950 . S
H719 C728 0.950 . S
H720 C730 0.950 . S
H721 C732 0.950 . S
H722 C734 0.950 . S
H723 C735 0.950 . S
C724 H716 0.950 . S
C724 C725 1.386 . S
C724 C726 1.391 . S
C725 C724 1.386 . S
C725 C729 1.393 . S
C726 H718 0.950 . S
C726 C724 1.391 . S
C726 C727 1.400 . S
C727 C726 1.400 . S
C727 C728 1.398 . S
C727 C733 1.491 . S
C728 H719 0.950 . S
C728 C727 1.398 . S
C728 C729 1.391 . S
C729 H717 0.950 . S
C729 C725 1.393 . S
C729 C728 1.391 . S
C730 H720 0.950 . S
C730 C731 1.386 . S
C730 C732 1.391 . S
C731 C730 1.386 . S
C731 C735 1.393 . S
C732 H721 0.950 . S
C732 C730 1.391 . S
C732 C733 1.400 . S
C733 C727 1.491 . S
C733 C732 1.400 . S
C733 C734 1.398 . S
C734 H722 0.950 . S
C734 C733 1.398 . S
C734 C735 1.391 . S
C735 H723 0.950 . S
C735 C731 1.393 . S
C735 C734 1.391 . S
H736 C744 0.950 . S
H737 C749 0.950 . S
H738 C746 0.950 . S
H739 C748 0.950 . S
H740 C750 0.950 . S
H741 C752 0.950 . S
H742 C754 0.950 . S
H743 C755 0.950 . S
C744 H736 0.950 . S
C744 C745 1.386 . S
C744 C746 1.391 . S
C745 C744 1.386 . S
C745 C749 1.393 . S
C746 H738 0.950 . S
C746 C744 1.391 . S
C746 C747 1.400 . S
C747 C746 1.400 . S
C747 C748 1.398 . S
C747 C753 1.491 . S
C748 H739 0.950 . S
C748 C747 1.398 . S
C748 C749 1.391 . S
C749 H737 0.950 . S
C749 C745 1.393 . S
C749 C748 1.391 . S
C750 H740 0.950 . S
C750 C751 1.386 . S
C750 C752 1.391 . S
C751 C750 1.386 . S
C751 C755 1.393 . S
C752 H741 0.950 . S
C752 C750 1.391 . S
C752 C753 1.400 . S
C753 C747 1.491 . S
C753 C752 1.400 . S
C753 C754 1.398 . S
C754 H742 0.950 . S
C754 C753 1.398 . S
C754 C755 1.391 . S
C755 H743 0.950 . S
C755 C751 1.393 . S
C755 C754 1.391 . S
H756 C764 0.950 . S
H757 C769 0.950 1_554 S
H758 C766 0.950 . S
H759 C768 0.950 . S
H760 C770 0.950 . S
H761 C772 0.950 . S
H762 C774 0.950 . S
H763 C775 0.950 1_556 S
C764 H756 0.950 . S
C764 C765 1.386 . S
C764 C766 1.391 . S
C765 C764 1.386 . S
C765 C769 1.393 . S
C766 H758 0.950 . S
C766 C764 1.391 . S
C766 C767 1.400 . S
C767 C766 1.400 . S
C767 C768 1.398 1_556 S
C767 C773 1.491 1_566 S
C768 H759 0.950 . S
C768 C767 1.398 1_554 S
C768 C769 1.391 1_554 S
C769 H757 0.950 1_556 S
C769 C765 1.393 . S
C769 C768 1.391 1_556 S
C770 H760 0.950 . S
C770 C771 1.386 . S
C770 C772 1.391 . S
C771 C770 1.386 . S
C771 C775 1.393 . S
C772 H761 0.950 . S
C772 C770 1.391 . S
C772 C773 1.400 . S
C773 C767 1.491 1_544 S
C773 C772 1.400 . S
C773 C774 1.398 1_554 S
C774 H762 0.950 . S
C774 C773 1.398 1_556 S
C774 C775 1.391 1_556 S
C775 H763 0.950 1_554 S
C775 C771 1.393 . S
C775 C774 1.391 1_554 S
H776 C784 0.950 . S
H777 C789 0.950 . S
H778 C786 0.950 . S
H779 C788 0.950 . S
H780 C790 0.950 . S
H781 C792 0.950 . S
H782 C794 0.950 . S
H783 C795 0.950 . S
C784 H776 0.950 . S
C784 C785 1.386 . S
C784 C786 1.391 . S
C785 C784 1.386 . S
C785 C789 1.393 . S
C786 H778 0.950 . S
C786 C784 1.391 . S
C786 C787 1.400 . S
C787 C786 1.400 . S
C787 C788 1.398 . S
C787 C793 1.491 . S
C788 H779 0.950 . S
C788 C787 1.398 . S
C788 C789 1.391 . S
C789 H777 0.950 . S
C789 C785 1.393 . S
C789 C788 1.391 . S
C790 H780 0.950 . S
C790 C791 1.386 . S
C790 C792 1.391 . S
C791 C790 1.386 . S
C791 C795 1.393 . S
C792 H781 0.950 . S
C792 C790 1.391 . S
C792 C793 1.400 . S
C793 C787 1.491 . S
C793 C792 1.400 . S
C793 C794 1.398 . S
C794 H782 0.950 . S
C794 C793 1.398 . S
C794 C795 1.391 . S
C795 H783 0.950 . S
C795 C791 1.393 . S
C795 C794 1.391 . S
H796 C804 0.950 . S
H797 C809 0.950 . S
H798 C806 0.950 . S
H799 C808 0.950 . S
H800 C810 0.950 . S
H801 C812 0.950 . S
H802 C814 0.950 . S
H803 C815 0.950 . S
C804 H796 0.950 . S
C804 C805 1.386 . S
C804 C806 1.391 . S
C805 C804 1.386 . S
C805 C809 1.393 . S
C806 H798 0.950 . S
C806 C804 1.391 . S
C806 C807 1.400 . S
C807 C806 1.400 . S
C807 C808 1.398 . S
C807 C813 1.491 1_654 S
C808 H799 0.950 . S
C808 C807 1.398 . S
C808 C809 1.391 . S
C809 H797 0.950 . S
C809 C805 1.393 . S
C809 C808 1.391 . S
C810 H800 0.950 . S
C810 C811 1.386 . S
C810 C812 1.391 . S
C811 C810 1.386 . S
C811 C815 1.393 . S
C812 H801 0.950 . S
C812 C810 1.391 . S
C812 C813 1.400 . S
C813 C807 1.491 1_456 S
C813 C812 1.400 . S
C813 C814 1.398 . S
C814 H802 0.950 . S
C814 C813 1.398 . S
C814 C815 1.391 . S
C815 H803 0.950 . S
C815 C811 1.393 . S
C815 C814 1.391 . S
H816 C824 0.950 . S
H817 C829 0.950 . S
H818 C826 0.948 1_545 S
H819 C828 0.950 . S
H820 C830 0.950 . S
H821 C832 0.967 . S
H822 C834 0.950 . S
H823 C835 0.950 . S
C824 H816 0.950 . S
C824 C825 1.386 . S
C824 C826 1.391 . S
C825 C824 1.386 . S
C825 C829 1.393 . S
C826 H818 0.948 1_565 S
C826 C824 1.391 . S
C826 C827 1.400 . S
C827 C826 1.400 . S
C827 C828 1.398 . S
C827 C833 1.491 1_565 S
C828 H819 0.950 . S
C828 C827 1.398 . S
C828 C829 1.391 . S
C829 H817 0.950 . S
C829 C825 1.393 . S
C829 C828 1.391 . S
C830 H820 0.950 . S
C830 C831 1.386 . S
C830 C832 1.391 . S
C831 C830 1.386 . S
C831 C835 1.393 . S
C832 H821 0.967 . S
C832 C830 1.391 . S
C832 C833 1.400 . S
C833 C827 1.491 1_545 S
C833 C832 1.400 . S
C833 C834 1.398 . S
C834 H822 0.950 . S
C834 C833 1.398 . S
C834 C835 1.391 . S
C835 H823 0.950 . S
C835 C831 1.393 . S
C835 C834 1.391 . S
H836 C844 0.950 . S
H837 C849 0.950 . S
H838 C846 0.950 . S
H839 C848 0.950 . S
H840 C850 0.950 . S
H841 C852 0.950 . S
H842 C854 0.950 . S
H843 C855 0.950 . S
C844 H836 0.950 . S
C844 C845 1.386 . S
C844 C846 1.391 . S
C845 C844 1.386 . S
C845 C849 1.393 . S
C846 H838 0.950 . S
C846 C844 1.391 . S
C846 C847 1.400 . S
C847 C846 1.400 . S
C847 C848 1.398 . S
C847 C853 1.491 1_554 S
C848 H839 0.950 . S
C848 C847 1.398 . S
C848 C849 1.391 . S
C849 H837 0.950 . S
C849 C845 1.393 . S
C849 C848 1.391 . S
C850 H840 0.950 . S
C850 C851 1.386 . S
C850 C852 1.391 . S
C851 C850 1.386 . S
C851 C855 1.393 . S
C852 H841 0.950 . S
C852 C850 1.391 . S
C852 C853 1.400 . S
C853 C847 1.491 1_556 S
C853 C852 1.400 . S
C853 C854 1.398 . S
C854 H842 0.950 . S
C854 C853 1.398 . S
C854 C855 1.391 . S
C855 H843 0.950 . S
C855 C851 1.393 . S
C855 C854 1.391 . S
H856 C864 0.950 . S
H857 C869 0.950 . S
H858 C866 0.950 . S
H859 C868 0.950 . S
H860 C870 0.950 . S
H861 C872 0.960 . S
H862 C874 0.950 . S
H863 C875 0.950 . S
C864 H856 0.950 . S
C864 C865 1.386 . S
C864 C866 1.391 . S
C865 C864 1.386 . S
C865 C869 1.393 . S
C866 H858 0.950 . S
C866 C864 1.391 . S
C866 C867 1.400 . S
C867 C866 1.400 . S
C867 C868 1.398 . S
C867 C873 1.491 1_655 S
C868 H859 0.950 . S
C868 C867 1.398 . S
C868 C869 1.391 . S
C869 H857 0.950 . S
C869 C865 1.393 . S
C869 C868 1.391 . S
C870 H860 0.950 . S
C870 C871 1.386 . S
C870 C872 1.391 . S
C871 C870 1.386 . S
C871 C875 1.393 . S
C872 H861 0.960 . S
C872 C870 1.391 . S
C872 C873 1.400 . S
C873 C867 1.491 1_455 S
C873 C872 1.400 . S
C873 C874 1.398 . S
C874 H862 0.950 . S
C874 C873 1.398 . S
C874 C875 1.391 . S
C875 H863 0.950 . S
C875 C871 1.393 . S
C875 C874 1.391 . S
H876 C884 0.950 . S
H877 C889 0.950 . S
H878 C886 0.983 . S
H879 C888 0.924 1_565 S
H880 C890 0.950 . S
H881 C892 0.926 1_554 S
H882 C894 0.950 1_545 S
H883 C895 0.950 . S
C884 H876 0.950 . S
C884 C885 1.386 . S
C884 C886 1.370 1_554 S
C885 C884 1.386 . S
C885 C889 1.393 . S
C886 H878 0.983 . S
C886 C884 1.370 1_556 S
C886 C887 1.389 1_556 S
C887 C886 1.389 1_554 S
C887 C888 1.398 . S
C887 C893 1.491 1_544 S
C888 H879 0.924 1_545 S
C888 C887 1.398 . S
C888 C889 1.391 . S
C889 H877 0.950 . S
C889 C885 1.393 . S
C889 C888 1.391 . S
C890 H880 0.950 . S
C890 C891 1.386 . S
C890 C892 1.407 . S
C891 C890 1.386 . S
C891 C895 1.393 . S
C892 H881 0.926 1_556 S
C892 C890 1.407 . S
C892 C893 1.409 . S
C893 C887 1.491 1_566 S
C893 C892 1.409 . S
C893 C894 1.398 . S
C894 H882 0.950 1_565 S
C894 C893 1.398 . S
C894 C895 1.391 . S
C895 H883 0.950 . S
C895 C891 1.393 . S
C895 C894 1.391 . S
H896 C904 0.950 . S
H897 C909 0.950 . S
H898 C906 0.950 . S
H899 C908 0.950 . S
H900 C910 0.950 . S
H901 C912 0.950 . S
H902 C914 0.950 . S
H903 C915 0.950 . S
C904 H896 0.950 . S
C904 C905 1.386 . S
C904 C906 1.391 . S
C905 C904 1.386 . S
C905 C909 1.393 . S
C906 H898 0.950 . S
C906 C904 1.391 . S
C906 C907 1.400 . S
C907 C906 1.400 . S
C907 C908 1.398 . S
C907 C913 1.491 . S
C908 H899 0.950 . S
C908 C907 1.398 . S
C908 C909 1.391 . S
C909 H897 0.950 . S
C909 C905 1.393 . S
C909 C908 1.391 . S
C910 H900 0.950 . S
C910 C911 1.386 . S
C910 C912 1.391 . S
C911 C910 1.386 . S
C911 C915 1.393 . S
C912 H901 0.950 . S
C912 C910 1.391 . S
C912 C913 1.400 . S
C913 C907 1.491 . S
C913 C912 1.400 . S
C913 C914 1.398 . S
C914 H902 0.950 . S
C914 C913 1.398 . S
C914 C915 1.391 . S
C915 H903 0.950 . S
C915 C911 1.393 . S
C915 C914 1.391 . S
H916 C924 0.950 . S
H917 C929 0.950 . S
H918 C926 0.950 1_556 S
H919 C928 0.950 . S
H920 C930 0.950 . S
H921 C932 0.950 1_554 S
H922 C934 0.950 . S
H923 C935 0.950 . S
C924 H916 0.950 . S
C924 C925 1.386 . S
C924 C926 1.391 . S
C925 C924 1.386 . S
C925 C929 1.393 . S
C926 H918 0.950 1_554 S
C926 C924 1.391 . S
C926 C927 1.400 . S
C927 C926 1.400 . S
C927 C928 1.398 . S
C927 C933 1.491 1_654 S
C928 H919 0.950 . S
C928 C927 1.398 . S
C928 C929 1.391 . S
C929 H917 0.950 . S
C929 C925 1.393 . S
C929 C928 1.391 . S
C930 H920 0.950 . S
C930 C931 1.386 . S
C930 C932 1.391 . S
C931 C930 1.386 . S
C931 C935 1.393 . S
C932 H921 0.950 1_556 S
C932 C930 1.391 . S
C932 C933 1.400 . S
C933 C927 1.491 1_456 S
C933 C932 1.400 . S
C933 C934 1.398 . S
C934 H922 0.950 . S
C934 C933 1.398 . S
C934 C935 1.391 . S
C935 H923 0.950 . S
C935 C931 1.393 . S
C935 C934 1.391 . S
H936 C944 0.950 . S
H937 C949 0.950 . S
H938 C946 0.950 1_545 S
H939 C948 0.950 . S
H940 C950 0.950 . S
H941 C952 0.950 1_565 S
H942 C954 0.950 . S
H943 C955 0.950 . S
C944 H936 0.950 . S
C944 C945 1.386 . S
C944 C946 1.391 . S
C945 C944 1.386 . S
C945 C949 1.393 . S
C946 H938 0.950 1_565 S
C946 C944 1.391 . S
C946 C947 1.400 . S
C947 C946 1.400 . S
C947 C948 1.398 . S
C947 C953 1.491 1_565 S
C948 H939 0.950 . S
C948 C947 1.398 . S
C948 C949 1.391 . S
C949 H937 0.950 . S
C949 C945 1.393 . S
C949 C948 1.391 . S
C950 H940 0.950 . S
C950 C951 1.386 . S
C950 C952 1.391 . S
C951 C950 1.386 . S
C951 C955 1.393 . S
C952 H941 0.950 1_545 S
C952 C950 1.391 . S
C952 C953 1.400 . S
C953 C947 1.491 1_545 S
C953 C952 1.400 . S
C953 C954 1.398 . S
C954 H942 0.950 . S
C954 C953 1.398 . S
C954 C955 1.391 . S
C955 H943 0.950 . S
C955 C951 1.393 . S
C955 C954 1.391 . S
H956 C964 0.950 . S
H957 C969 0.950 . S
H958 C966 0.992 . S
H959 C968 0.950 . S
H960 C970 0.950 . S
H961 C972 0.950 . S
H962 C974 0.950 . S
H963 C975 0.950 . S
C964 H956 0.950 . S
C964 C965 1.386 . S
C964 C966 1.366 1_556 S
C965 C964 1.386 . S
C965 C969 1.393 . S
C966 H958 0.992 . S
C966 C964 1.366 1_554 S
C966 C967 1.385 1_554 S
C967 C966 1.385 1_556 S
C967 C968 1.398 . S
C967 C973 1.491 1_556 S
C968 H959 0.950 . S
C968 C967 1.398 . S
C968 C969 1.391 . S
C969 H957 0.950 . S
C969 C965 1.393 . S
C969 C968 1.391 . S
C970 H960 0.950 . S
C970 C971 1.386 . S
C970 C972 1.391 1_554 S
C971 C970 1.386 . S
C971 C975 1.393 . S
C972 H961 0.950 . S
C972 C970 1.391 1_556 S
C972 C973 1.400 1_556 S
C973 C967 1.491 1_554 S
C973 C972 1.400 1_554 S
C973 C974 1.398 . S
C974 H962 0.950 . S
C974 C973 1.398 . S
C974 C975 1.391 . S
C975 H963 0.950 . S
C975 C971 1.393 . S
C975 C974 1.391 . S
H976 C984 0.950 . S
H977 C989 0.950 . S
H978 C986 0.950 . S
H979 C988 0.955 . S
H980 C990 0.950 . S
H981 C992 0.950 . S
H982 C994 0.950 . S
H983 C995 0.950 . S
C984 H976 0.950 . S
C984 C985 1.386 . S
C984 C986 1.391 . S
C985 C984 1.386 . S
C985 C989 1.393 . S
C986 H978 0.950 . S
C986 C984 1.391 . S
C986 C987 1.400 . S
C987 C986 1.400 . S
C987 C988 1.398 . S
C987 C993 1.491 1_455 S
C988 H979 0.955 . S
C988 C987 1.398 . S
C988 C989 1.391 . S
C989 H977 0.950 . S
C989 C985 1.393 . S
C989 C988 1.391 . S
C990 H980 0.950 . S
C990 C991 1.386 . S
C990 C992 1.391 . S
C991 C990 1.386 . S
C991 C995 1.393 . S
C992 H981 0.950 . S
C992 C990 1.391 . S
C992 C993 1.400 . S
C993 C987 1.491 1_655 S
C993 C992 1.400 . S
C993 C994 1.398 . S
C994 H982 0.950 . S
C994 C993 1.398 . S
C994 C995 1.391 . S
C995 H983 0.950 . S
C995 C991 1.393 . S
C995 C994 1.391 . S
C405 C84 1.446 . S
C411 N13 1.463 . S
C425 N46 1.574 . S
C431 C117 1.557 . S
C445 N79 1.477 . S
C451 C150 1.458 . S
C465 N112 1.573 . S
C471 C183 1.557 . S
C485 N145 1.479 . S
C491 C18 1.464 . S
C505 C51 1.571 . S
C511 N178 1.586 . S
C525 N200 1.549 . S
C531 C337 1.549 . S
C545 N244 1.541 . S
C551 C381 1.523 . S
C565 C205 1.568 . S
C571 N266 1.568 . S
C585 C249 1.520 . S
C591 N310 1.540 . S
C605 C271 1.557 . S
C611 N332 1.558 . S
C625 C315 1.527 . S
C631 N376 1.543 . S
C645 C285 1.370 . S
C651 C21 1.358 . S
C665 C54 1.349 . S
C671 C318 1.335 . S
C685 C351 1.374 . S
C691 C87 1.354 . S
C705 C384 1.347 . S
C711 C120 1.329 . S
C725 C153 1.373 . S
C731 C219 1.368 . S
C745 C252 1.352 . S
C751 C186 1.334 . S
C765 C238 1.361 . S
C771 C7 1.363 . S
C785 C40 1.463 . S
C791 C282 1.462 . S
C805 C73 1.353 . S
C811 C304 1.354 . S
C825 C106 1.465 . S
C831 C348 1.462 . S
C845 C139 1.368 . S
C851 C370 1.368 . S
C865 C216 1.466 . S
C871 C172 1.467 . S
C885 N68 1.347 . S
C891 N365 1.308 . S
C905 N211 1.449 . S
C911 N101 1.423 . S
C925 N134 1.346 . S
C931 N233 1.325 . S
C945 N167 1.411 . S
C951 N277 1.470 . S
C965 N299 1.345 . S
C971 N2 1.312 . S
C985 N35 1.438 . S
C991 N343 1.439 . S
