# Generated by pormake.
# Topology vma, (5)-cn, num edge types: 1
# Building blocks:
#     Node 0, Type 0, BuildingBlock: XOMCOT_clean_sbu_0, # of connection points: 5
#     Node 1, Type 0, BuildingBlock: XOMCOT_clean_sbu_0, # of connection points: 5
#     Node 2, Type 0, BuildingBlock: XOMCOT_clean_sbu_0, # of connection points: 5
#     Node 3, Type 0, BuildingBlock: XOMCOT_clean_sbu_0, # of connection points: 5
#     Node 4, Type 0, BuildingBlock: XOMCOT_clean_sbu_0, # of connection points: 5
#     Node 5, Type 0, BuildingBlock: XOMCOT_clean_sbu_0, # of connection points: 5
#     Node 6, Type 0, BuildingBlock: XOMCOT_clean_sbu_0, # of connection points: 5
#     Node 7, Type 0, BuildingBlock: XOMCOT_clean_sbu_0, # of connection points: 5
#     Edge 8, Type (0, 0), BuildingBlock: AJUNOK_clean_linker_0, # of connection points: 2
#     Edge 9, Type (0, 0), BuildingBlock: AJUNOK_clean_linker_0, # of connection points: 2
#     Edge 10, Type (0, 0), BuildingBlock: AJUNOK_clean_linker_0, # of connection points: 2
#     Edge 11, Type (0, 0), BuildingBlock: AJUNOK_clean_linker_0, # of connection points: 2
#     Edge 12, Type (0, 0), BuildingBlock: AJUNOK_clean_linker_0, # of connection points: 2
#     Edge 13, Type (0, 0), BuildingBlock: AJUNOK_clean_linker_0, # of connection points: 2
#     Edge 14, Type (0, 0), BuildingBlock: AJUNOK_clean_linker_0, # of connection points: 2
#     Edge 15, Type (0, 0), BuildingBlock: AJUNOK_clean_linker_0, # of connection points: 2
#     Edge 16, Type (0, 0), BuildingBlock: AJUNOK_clean_linker_0, # of connection points: 2
#     Edge 17, Type (0, 0), BuildingBlock: AJUNOK_clean_linker_0, # of connection points: 2
#     Edge 18, Type (0, 0), BuildingBlock: AJUNOK_clean_linker_0, # of connection points: 2
#     Edge 19, Type (0, 0), BuildingBlock: AJUNOK_clean_linker_0, # of connection points: 2
#     Edge 20, Type (0, 0), BuildingBlock: AJUNOK_clean_linker_0, # of connection points: 2
#     Edge 21, Type (0, 0), BuildingBlock: AJUNOK_clean_linker_0, # of connection points: 2
#     Edge 22, Type (0, 0), BuildingBlock: AJUNOK_clean_linker_0, # of connection points: 2
#     Edge 23, Type (0, 0), BuildingBlock: AJUNOK_clean_linker_0, # of connection points: 2
#     Edge 24, Type (0, 0), BuildingBlock: AJUNOK_clean_linker_0, # of connection points: 2
#     Edge 25, Type (0, 0), BuildingBlock: AJUNOK_clean_linker_0, # of connection points: 2
#     Edge 26, Type (0, 0), BuildingBlock: AJUNOK_clean_linker_0, # of connection points: 2
#     Edge 27, Type (0, 0), BuildingBlock: AJUNOK_clean_linker_0, # of connection points: 2
# Relax obj value: 0.094
# Max RMSD: 0.191
# Mean RMSD: 0.191
data_MOF--net-vma--node1-XOMCOT_clean_sbu_0--edge1-AJUNOK_clean_linker_0
_symmetry_space_group_name_H-M    P1
_symmetry_Int_Tables_number       1
_symmetry_cell_setting            triclinic
loop_
_symmetry_equiv_pos_as_xyz
'x, y, z'
_cell_length_a     33.635372
_cell_length_b     19.311713
_cell_length_c     29.65534
_cell_angle_alpha  90.073161
_cell_angle_beta   110.26115
_cell_angle_gamma 90.27654
loop_
_atom_site_label
_atom_site_type_symbol
_atom_site_fract_x
_atom_site_fract_y
_atom_site_fract_z
_atom_type_partial_charge
Co0 Co 0.3789 0.12659 0.37547 0.0
C1 C 0.42992 0.07766 0.3153 0.0
C2 C 0.42761 0.18817 0.32202 0.0
C3 C 0.45313 0.17338 0.29615 0.0
N4 N 0.412 0.12876 0.33313 0.0
N5 N 0.45467 0.10428 0.29186 0.0
H6 H 0.42662 1.02297 0.32121 0.0
H7 H 0.4233 0.23898 0.33479 0.0
C8 C 0.31803 0.24048 0.33086 0.0
O9 O 0.28662 0.19957 0.33059 0.0
N10 N 0.34719 0.12981 0.42051 0.0
C11 C 0.34063 0.07866 0.44829 0.0
C12 C 0.31738 0.10399 0.47502 0.0
C13 C 0.33035 0.18668 0.43409 0.0
N14 N 0.31045 0.17197 0.46557 0.0
C15 C 0.31795 1.01849 0.33704 0.0
C16 C 0.2977 0.05371 0.24144 0.0
C17 C 0.28329 0.99035 0.25314 0.0
C18 C 0.29256 0.9741 0.30158 0.0
C19 C 0.3224 0.09767 0.27829 0.0
N20 N 0.33287 0.07934 0.32558 0.0
H21 H 0.32827 1.00055 0.37342 0.0
H22 H 0.33526 0.14444 0.26863 0.0
H23 H 0.35287 0.02668 0.45049 0.0
H24 H 0.33296 0.23859 0.42199 0.0
O25 O 0.40855 0.04489 0.4056 0.0
O26 O 0.4305 0.15228 0.42737 0.0
O27 O 0.3564 0.22071 0.34966 0.0
C28 C 0.43814 0.08582 0.43202 0.0
H29 H 0.47173 0.21033 0.28427 0.0
H30 H 0.30757 0.07499 0.50062 0.0
H31 H 0.29139 0.06779 0.20428 0.0
H32 H 0.28293 0.92481 0.31205 0.0
Co33 Co 0.66973 0.12365 0.1498 0.0
C34 C 0.61169 0.07925 0.20368 0.0
C35 C 0.62041 0.18893 0.20268 0.0
C36 C 0.59173 0.17566 0.22495 0.0
N37 N 0.63493 0.12869 0.19109 0.0
N38 N 0.58642 0.1069 0.22583 0.0
H39 H 0.61038 0.02526 0.19367 0.0
H40 H 0.62736 0.23989 0.19236 0.0
C41 C 0.70965 0.24145 0.21463 0.0
O42 O 0.71184 0.20087 0.25095 0.0
N43 N 0.70248 0.12327 0.10693 0.0
C44 C 0.72373 0.0705 0.09628 0.0
C45 C 0.74663 0.09571 0.06897 0.0
C46 C 0.71234 0.17945 0.08548 0.0
N47 N 0.73942 0.16442 0.06204 0.0
C48 C 0.70772 1.0177 0.21749 0.0
C49 C 0.79123 0.05638 0.23757 0.0
C50 C 0.78214 0.99293 0.2551 0.0
C51 C 0.73978 0.97501 0.24583 0.0
C52 C 0.75783 0.09876 0.20992 0.0
N53 N 0.71652 0.07863 0.19961 0.0
H54 H 0.67589 0.99844 0.20701 0.0
H55 H 0.76521 0.14563 0.19445 0.0
H56 H 0.72413 1.01811 0.10929 0.0
H57 H 0.70041 0.2308 0.08769 0.0
O58 O 0.64064 0.04068 0.12071 0.0
O59 O 0.61893 0.14662 0.09607 0.0
O60 O 0.69346 0.21912 0.17154 0.0
C61 C 0.61192 0.07983 0.09174 0.0
H62 H 0.57375 0.21373 0.23658 0.0
H63 H 0.76849 0.06602 0.05727 0.0
H64 H 0.82368 0.07182 0.24369 0.0
H65 H 0.73133 0.92566 0.25747 0.0
Co66 Co 0.65142 0.92801 0.60741 0.0
C67 C 0.6003 0.96608 0.67195 0.0
C68 C 0.57217 0.88812 0.61886 0.0
C69 C 0.54567 0.89956 0.64403 0.0
N70 N 0.60635 0.93036 0.63531 0.0
N71 N 0.56309 0.94855 0.67729 0.0
H72 H 0.62287 1.00151 0.69569 0.0
H73 H 0.56731 0.84901 0.59136 0.0
C74 C 0.67077 0.81145 0.67837 0.0
O75 O 0.65713 0.84958 0.70659 0.0
N76 N 0.69424 0.9201 0.57748 0.0
C77 C 0.72509 0.96468 0.57749 0.0
C78 C 0.75004 0.93325 0.55488 0.0
C79 C 0.70048 0.86296 0.5544 0.0
N80 N 0.73477 0.86883 0.54051 0.0
C81 C 0.68191 0.04667 0.66545 0.0
C82 C 0.75929 0.99657 0.72385 0.0
C83 C 0.74956 0.06656 0.72818 0.0
C84 C 0.71039 0.09106 0.69781 0.0
C85 C 0.72971 0.95344 0.69 0.0
N86 N 0.69119 0.97864 0.66169 0.0
H87 H 0.65208 0.06793 0.64287 0.0
H88 H 0.7385 0.9009 0.68544 0.0
H89 H 0.72983 1.01561 0.59377 0.0
H90 H 0.67983 0.81824 0.54795 0.0
O91 O 0.62745 1.00769 0.56911 0.0
O92 O 0.60812 0.9002 0.54666 0.0
O93 O 0.67034 0.83481 0.63788 0.0
C94 C 0.60174 0.96634 0.53826 0.0
H95 H 0.51693 0.87085 0.64021 0.0
H96 H 0.7781 0.95566 0.5507 0.0
H97 H 0.78961 0.97567 0.74586 0.0
H98 H 0.70195 0.14509 0.69789 0.0
Co99 Co 0.40365 0.92647 0.89317 0.0
C100 C 0.45934 0.96015 0.8332 0.0
C101 C 0.4799 0.87366 0.88052 0.0
C102 C 0.50756 0.88224 0.85616 0.0
N103 N 0.4495 0.92247 0.86658 0.0
N104 N 0.4946 0.93636 0.82622 0.0
H105 H 0.44126 1.00291 0.81345 0.0
H106 H 0.4813 0.83291 0.90598 0.0
C107 C 0.38046 0.81052 0.82251 0.0
O108 O 0.39145 0.85154 0.79348 0.0
N109 N 0.35948 0.92608 0.92127 0.0
C110 C 0.33578 0.97907 0.92697 0.0
C111 C 0.3057 0.95325 0.94474 0.0
C112 C 0.34394 0.86935 0.9361 0.0
N113 N 0.31054 0.88387 0.94993 0.0
C114 C 0.37694 0.04232 0.83179 0.0
C115 C 0.2976 0.99389 0.77638 0.0
C116 C 0.31 0.06105 0.76891 0.0
C117 C 0.35014 0.08489 0.79692 0.0
C118 C 0.32618 0.95179 0.8113 0.0
N119 N 0.3658 0.97582 0.83775 0.0
H120 H 0.40693 0.0636 0.85443 0.0
H121 H 0.31576 0.90129 0.81842 0.0
H122 H 0.33961 0.03241 0.91808 0.0
H123 H 0.35645 0.81805 0.93589 0.0
O124 O 0.42966 1.00656 0.93043 0.0
O125 O 0.44482 0.89863 0.9546 0.0
O126 O 0.38297 0.83252 0.86406 0.0
C127 C 0.4532 0.96455 0.96243 0.0
H128 H 0.53409 0.84908 0.85862 0.0
H129 H 0.28245 0.9837 0.95348 0.0
H130 H 0.26612 0.97479 0.75617 0.0
H131 H 0.36021 0.13727 0.79304 0.0
Co132 Co 0.90296 0.62467 0.38897 0.0
C133 C 0.95379 0.59751 0.32237 0.0
C134 C 0.98408 0.66566 0.38154 0.0
C135 C 1.01087 0.65632 0.35623 0.0
N136 N 0.94839 0.62777 0.36137 0.0
N137 N 0.99186 0.61364 0.31918 0.0
H138 H 0.93083 0.56567 0.29609 0.0
H139 H 0.99047 0.69862 0.41275 0.0
C140 C 0.88263 0.74765 0.32448 0.0
O141 O 0.89133 0.70949 0.29248 0.0
N142 N 0.85931 0.62605 0.41808 0.0
C143 C 0.83043 0.57696 0.41681 0.0
C144 C 0.80247 0.60361 0.43713 0.0
C145 C 0.849 0.68122 0.4399 0.0
N146 N 0.81425 0.6693 0.45208 0.0
C147 C 0.87246 0.51618 0.32196 0.0
C148 C 0.79093 0.56452 0.27901 0.0
C149 C 0.8006 0.4964 0.27014 0.0
C150 C 0.84222 0.47351 0.29043 0.0
C151 C 0.82297 0.60714 0.30961 0.0
N152 N 0.86301 0.58199 0.33157 0.0
H153 H 0.90329 0.49454 0.34077 0.0
H154 H 0.81458 0.65763 0.31916 0.0
H155 H 0.82859 0.5265 0.4003 0.0
H156 H 0.86642 0.72961 0.44607 0.0
O157 O 0.92575 0.53975 0.42182 0.0
O158 O 0.94519 0.64407 0.452 0.0
O159 O 0.88568 0.72169 0.36515 0.0
C160 C 0.95032 0.57712 0.45664 0.0
H161 H 0.04186 0.67974 0.36402 0.0
H162 H 0.77449 0.57714 0.43838 0.0
H163 H 0.75863 0.58305 0.26479 0.0
H164 H 0.85054 0.42061 0.2854 0.0
Co165 Co 0.15756 0.62558 0.10962 0.0
C166 C 0.10067 0.58782 0.1663 0.0
C167 C 0.14566 0.668 0.1994 0.0
C168 C 0.12169 0.65626 0.22751 0.0
N169 N 0.13329 0.62488 0.161 0.0
N170 N 0.09344 0.60627 0.20687 0.0
H171 H 0.08245 0.54888 0.14131 0.0
H172 H 0.1702 0.70673 0.20704 0.0
C173 C 0.21996 0.74364 0.13994 0.0
O174 O 0.24828 0.70312 0.13229 0.0
N175 N 0.18146 0.6306 0.05781 0.0
C176 C 0.19948 0.58058 0.03954 0.0
C177 C 0.21962 0.6106 0.01111 0.0
C178 C 0.18864 0.68978 0.03707 0.0
N179 N 0.21335 0.67946 0.01014 0.0
C180 C 0.21047 0.50823 0.14134 0.0
C181 C 0.25843 0.5559 0.23161 0.0
C182 C 0.26123 0.48643 0.21984 0.0
C183 C 0.23788 0.46334 0.17376 0.0
C184 C 0.2314 0.60024 0.19719 0.0
N185 N 0.20705 0.57612 0.15256 0.0
H186 H 0.18961 0.48565 0.10857 0.0
H187 H 0.22872 0.65258 0.20803 0.0
H188 H 0.19957 0.52608 0.04675 0.0
H189 H 0.17899 0.74047 0.04475 0.0
O190 O 0.12512 0.54454 0.08066 0.0
O191 O 0.10227 0.65163 0.06363 0.0
O192 O 0.18243 0.72076 0.13262 0.0
C193 C 0.09498 0.58522 0.05646 0.0
H194 H 0.12407 0.68357 0.26028 0.0
H195 H 0.23898 0.58404 0.99408 0.0
H196 H 0.2757 0.57502 0.26746 0.0
H197 H 0.23831 0.4093 0.16399 0.0
Co198 Co 0.16714 0.42095 0.64446 0.0
C199 C 0.10681 0.43905 0.69959 0.0
C200 C 0.16729 0.4009 0.74358 0.0
C201 C 0.14163 0.4036 0.77078 0.0
N202 N 0.1461 0.42408 0.69877 0.0
N203 N 0.10315 0.4262 0.74302 0.0
H204 H 0.0806 0.45593 0.66876 0.0
H205 H 0.19855 0.37917 0.75581 0.0
C206 C 0.23039 0.30535 0.67077 0.0
O207 O 0.25644 0.34521 0.65799 0.0
N208 N 0.18749 0.41439 0.58969 0.0
C209 C 0.20231 0.46542 0.56873 0.0
C210 C 0.22024 0.43664 0.53778 0.0
C211 C 0.19436 0.35548 0.56834 0.0
N212 N 0.21634 0.36706 0.5383 0.0
C213 C 0.21667 0.54481 0.66937 0.0
C214 C 0.28251 0.4996 0.74839 0.0
C215 C 0.28177 0.56889 0.73436 0.0
C216 C 0.24846 0.59095 0.69424 0.0
C217 C 0.25009 0.45414 0.7217 0.0
N218 N 0.21738 0.47652 0.68209 0.0
H219 H 0.19121 0.5659 0.63982 0.0
H220 H 0.25179 0.40168 0.73404 0.0
H221 H 0.20159 0.51996 0.57593 0.0
H222 H 0.18657 0.30457 0.5779 0.0
O223 O 0.13211 0.4979 0.615 0.0
O224 O 0.11086 0.38952 0.60148 0.0
O225 O 0.19437 0.32839 0.66942 0.0
C226 C 0.1022 0.45519 0.59291 0.0
H227 H 0.15082 0.3888 0.80813 0.0
H228 H 0.23635 0.46511 0.51771 0.0
H229 H 0.30779 0.48079 0.77968 0.0
H230 H 0.24627 0.64452 0.68279 0.0
Co231 Co 0.87468 0.42942 0.87528 0.0
C232 C 0.9448 0.43973 0.83346 0.0
C233 C 0.88276 0.44037 0.77971 0.0
C234 C 0.91213 0.44437 0.75706 0.0
N235 N 0.90297 0.43866 0.82779 0.0
N236 N 0.95108 0.4436 0.79076 0.0
H237 H 0.97025 0.43688 0.86775 0.0
H238 H 0.84878 0.43736 0.76197 0.0
C239 C 0.86315 0.28591 0.83588 0.0
O240 O 0.90456 0.28131 0.8489 0.0
N241 N 0.84576 0.41706 0.92137 0.0
C242 C 0.82487 0.4651 0.93717 0.0
C243 C 0.80507 0.43294 0.96531 0.0
C244 C 0.83868 0.35647 0.94045 0.0
N245 N 0.81343 0.36431 0.96729 0.0
C246 C 0.83987 0.55125 0.82663 0.0
C247 C 0.75649 0.50937 0.78462 0.0
C248 C 0.7686 0.57614 0.77518 0.0
C249 C 0.81061 0.59706 0.79782 0.0
C250 C 0.78721 0.46452 0.81477 0.0
N251 N 0.82847 0.48576 0.83461 0.0
H252 H 0.87242 0.56828 0.84156 0.0
H253 H 0.77796 0.41322 0.82194 0.0
H254 H 0.82301 0.51934 0.92766 0.0
H255 H 0.85186 0.30783 0.9345 0.0
O256 O 0.90667 0.50488 0.91235 0.0
O257 O 0.92775 0.39638 0.92357 0.0
O258 O 0.84639 0.34221 0.84262 0.0
C259 C 0.93514 0.4616 0.93614 0.0
H260 H 0.90542 0.44503 0.71862 0.0
H261 H 0.78479 0.45817 0.98169 0.0
H262 H 0.72399 0.49188 0.76839 0.0
H263 H 0.82109 0.64878 0.79298 0.0
C264 C 0.27694 0.33595 0.51223 0.0
C265 C 0.2388 0.31699 0.51915 0.0
C266 C 0.30007 0.28856 0.49506 0.0
C267 C 0.28663 0.21946 0.48449 0.0
H268 H 0.28969 0.38774 0.52088 0.0
H269 H 0.32915 0.30602 0.49069 0.0
S270 S 0.1881 0.14306 0.49336 0.0
N271 N 0.18794 0.22384 0.51157 0.0
N272 N 0.23182 0.13489 0.48043 0.0
C273 C 0.24865 0.19947 0.49108 0.0
C274 C 0.22474 0.24801 0.50811 0.0
C275 C 0.76675 0.28211 0.0541 0.0
C276 C 0.75891 0.21292 0.03819 0.0
C277 C 0.78521 0.33022 0.03147 0.0
C278 C 0.79679 0.31189 0.9916 0.0
H279 H 0.75896 0.29935 0.08473 0.0
H280 H 0.79063 0.3824 0.04569 0.0
S281 S 0.78209 0.13733 0.93474 0.0
N282 N 0.76353 0.12886 0.97918 0.0
N283 N 0.79849 0.21839 0.9372 0.0
C284 C 0.7895 0.24251 0.97556 0.0
C285 C 0.77051 0.19346 0.9986 0.0
C286 C 0.77768 0.83841 0.48972 0.0
C287 C 0.7528 0.81741 0.51709 0.0
C288 C 0.7972 0.79015 0.46854 0.0
C289 C 0.79318 0.71813 0.47383 0.0
H290 H 0.78191 0.8929 0.48412 0.0
H291 H 0.81531 0.80983 0.44743 0.0
S292 S 0.73203 0.63459 0.54235 0.0
N293 N 0.725 0.71827 0.54758 0.0
N294 N 0.76279 0.62842 0.50968 0.0
C295 C 0.76829 0.69619 0.50098 0.0
C296 C 0.74788 0.74541 0.52202 0.0
C297 C 0.30381 0.77229 0.98811 0.0
C298 C 0.28534 0.83425 0.9655 0.0
C299 C 0.28003 0.72202 1.00196 0.0
C300 C 0.23669 0.73143 0.99422 0.0
H301 H 0.33714 0.7626 0.99564 0.0
H302 H 0.29596 0.67578 0.01971 0.0
S303 S 0.172 0.88188 0.93445 0.0
N304 N 0.21994 0.90017 0.93419 0.0
N305 N 0.17587 0.80628 0.96155 0.0
C306 C 0.21768 0.79288 0.97187 0.0
C307 C 0.24178 0.84404 0.95722 0.0
C308 C 0.51198 0.07553 0.20801 0.0
C309 C 0.55405 0.07472 0.24005 0.0
C310 C 0.47785 0.07399 0.22505 0.0
C311 C 0.48476 0.07126 0.27457 0.0
H312 H 0.50566 0.08552 0.17024 0.0
H313 H 0.4462 0.08332 0.19995 0.0
S314 S 0.58868 0.05854 0.37234 0.0
N315 N 0.60057 0.06315 0.32279 0.0
N316 N 0.53638 0.05942 0.3547 0.0
C317 C 0.52641 0.06221 0.30628 0.0
C318 C 0.56113 0.06437 0.28902 0.0
C319 C 0.57388 0.95571 0.76364 0.0
C320 C 0.54774 0.96526 0.71563 0.0
C321 C 0.55649 0.95119 0.80032 0.0
C322 C 0.51243 0.95644 0.79028 0.0
H323 H 0.6074 0.94616 0.77229 0.0
H324 H 0.57739 0.93981 0.83648 0.0
S325 S 0.43148 0.99148 0.67079 0.0
N326 N 0.47667 0.98796 0.66055 0.0
N327 N 0.44379 0.97867 0.72908 0.0
C328 C 0.48652 0.97186 0.74292 0.0
C329 C 0.50427 0.97639 0.7057 0.0
C330 C 0.07518 0.55475 0.27211 0.0
C331 C 0.06167 0.58367 0.22583 0.0
C332 C 0.05002 0.55861 0.30107 0.0
C333 C 1.01032 0.59113 0.28464 0.0
H334 H 0.10721 0.5354 0.28768 0.0
H335 H 0.06305 0.5412 0.33797 0.0
S336 S 0.95852 0.66801 0.16439 0.0
N337 N 1.00461 0.64022 0.16331 0.0
N338 N 0.95685 0.64678 0.21771 0.0
C339 C 0.99468 0.61433 0.2369 0.0
C340 C 1.02049 0.61064 0.20741 0.0
C341 C 0.03411 0.48051 0.73483 0.0
C342 C 0.06544 0.43072 0.7562 0.0
C343 C 0.99728 0.48535 0.74699 0.0
C344 C 0.9905 0.44126 0.78147 0.0
H345 H 0.03813 0.51623 0.7086 0.0
H346 H 0.97384 0.52396 0.72933 0.0
S347 S 0.05994 0.29768 0.84468 0.0
N348 N 0.08487 0.33256 0.81108 0.0
N349 N 1.01664 0.34398 0.83475 0.0
C350 C 1.02124 0.3912 0.80297 0.0
C351 C 0.0584 0.38534 0.79014 0.0
C352 C 0.20976 0.84526 0.18751 0.0
C353 C 0.2328 0.81327 0.16166 0.0
C354 C 0.22501 0.90526 0.21488 0.0
C355 C 0.26322 0.9367 0.21632 0.0
H356 H 0.18076 0.82218 0.18863 0.0
H357 H 0.20761 0.92579 0.23654 0.0
S358 S 0.33215 0.88018 0.14918 0.0
N359 N 0.29345 0.82228 0.13506 0.0
N360 N 0.32168 0.93554 0.18601 0.0
C361 C 0.28486 0.90851 0.18775 0.0
C362 C 0.26974 0.84672 0.1605 0.0
C363 C 0.81589 0.90731 0.32033 0.0
C364 C 0.8152 0.94049 0.27782 0.0
C365 C 0.83975 0.84717 0.3367 0.0
C366 C 0.86343 0.81722 0.31082 0.0
H367 H 0.79622 0.92624 0.33987 0.0
H368 H 0.83771 0.82207 0.36848 0.0
S369 S 0.87541 0.88798 0.19977 0.0
N370 N 0.84269 0.94205 0.21215 0.0
N371 N 0.88768 0.82928 0.2428 0.0
C372 C 0.86498 0.85229 0.2698 0.0
C373 C 0.8409 0.91388 0.25338 0.0
C374 C 0.82271 0.11942 0.7644 0.0
C375 C 0.78009 0.11612 0.76172 0.0
C376 C 0.84987 0.17317 0.78966 0.0
C377 C 0.83528 0.22617 0.81265 0.0
H378 H 0.8347 0.08205 0.7451 0.0
H379 H 0.88203 0.17461 0.78955 0.0
S380 S 0.72793 0.23641 0.82157 0.0
N381 N 0.72628 0.16604 0.78937 0.0
N382 N 0.77616 0.26837 0.8342 0.0
C383 C 0.79327 0.22158 0.81198 0.0
C384 C 0.76606 0.16626 0.7873 0.0
C385 C 0.23146 0.20553 0.72506 0.0
C386 C 0.24408 0.23488 0.68869 0.0
C387 C 0.25004 0.14421 0.74817 0.0
C388 C 0.28132 0.11019 0.73511 0.0
H389 H 0.20926 0.23242 0.73794 0.0
H390 H 0.24218 0.12614 0.77865 0.0
S391 S 0.31934 0.15856 0.63613 0.0
N392 N 0.28524 0.2198 0.63617 0.0
N393 N 0.32019 0.10506 0.67988 0.0
C394 C 0.29145 0.13578 0.69616 0.0
C395 C 0.27278 0.19807 0.67283 0.0
C396 C 0.76803 0.40677 0.20753 0.0
C397 C 0.76767 0.44359 0.24833 0.0
C398 C 0.74683 0.343 0.19502 0.0
C399 C 0.72572 0.31325 0.22377 0.0
H400 H 0.78697 0.42535 0.18696 0.0
H401 H 0.74942 0.31473 0.16461 0.0
S402 S 0.71214 0.39242 0.33146 0.0
N403 N 0.74144 0.44886 0.31489 0.0
N404 N 0.7023 0.3284 0.29204 0.0
C405 C 0.72307 0.35152 0.26295 0.0
C406 C 0.74386 0.41698 0.27504 0.0
C407 C 0.265 0.41298 0.28982 0.0
C408 C 0.28324 0.43436 0.25601 0.0
C409 C 0.2774 0.35093 0.31528 0.0
C410 C 0.30882 0.30913 0.30815 0.0
H411 H 0.23906 0.44196 0.2942 0.0
H412 H 0.26147 0.33452 0.3396 0.0
S413 S 0.36701 0.34401 0.22472 0.0
N414 N 0.33483 0.41062 0.21775 0.0
N415 N 0.3585 0.29445 0.26583 0.0
C416 C 0.32865 0.33184 0.27616 0.0
C417 C 0.31574 0.39446 0.24998 0.0
C418 C 0.33456 0.66098 0.7369 0.0
C419 C 0.31384 0.6206 0.7615 0.0
C420 C 0.35771 0.72024 0.75797 0.0
C421 C 0.36085 0.74199 0.80445 0.0
H422 H 0.33123 0.64829 0.70015 0.0
H423 H 0.37182 0.75065 0.73671 0.0
S424 S 0.31499 0.65021 0.88538 0.0
N425 N 0.2999 0.60325 0.83566 0.0
N426 N 0.34375 0.7143 0.87584 0.0
C427 C 0.34227 0.6995 0.83052 0.0
C428 C 0.3187 0.63888 0.80892 0.0
C429 C 0.6791 0.70519 0.72924 0.0
C430 C 0.69179 0.74482 0.69664 0.0
C431 C 0.70204 0.64655 0.7518 0.0
C432 C 0.73869 0.62617 0.74288 0.0
H433 H 0.65205 0.72092 0.73858 0.0
H434 H 0.69257 0.61971 0.77855 0.0
S435 S 0.78494 0.71143 0.66023 0.0
N436 N 0.74294 0.75839 0.65606 0.0
N437 N 0.78531 0.64783 0.69744 0.0
C438 C 0.75037 0.66332 0.70852 0.0
C439 C 0.72716 0.72281 0.68569 0.0
C440 C 0.48442 0.98564 0.46989 0.0
C441 C 0.48047 0.05694 0.45912 0.0
C442 C 0.52419 0.95508 0.49219 0.0
C443 C 0.56163 0.9946 0.50441 0.0
H444 H 0.45644 0.95312 0.46157 0.0
H445 H 0.52538 0.90084 0.5018 0.0
S446 S 0.56923 0.18127 0.47834 0.0
N447 N 0.51784 0.16469 0.45841 0.0
N448 N 0.59253 0.10756 0.5004 0.0
C449 C 0.55826 0.06527 0.49193 0.0
C450 C 0.51776 0.09642 0.46943 0.0
C451 C 0.53713 0.09186 0.03525 0.0
C452 C 0.57153 0.04912 0.05945 0.0
C453 C 0.49822 0.06358 0.00609 0.0
C454 C 0.49207 0.99138 0.99992 0.0
H455 H 0.54019 0.14765 0.03872 0.0
H456 H 0.47302 0.09893 0.98736 0.0
S457 S 0.5718 0.85648 0.05632 0.0
N458 N 0.5966 0.93036 0.07612 0.0
N459 N 0.52354 0.87775 0.0213 0.0
C460 C 0.52587 0.94794 0.02476 0.0
C461 C 0.56558 0.97667 0.0544 0.0
C462 C 0.03268 0.44409 0.52428 0.0
C463 C 0.06045 0.48299 0.56225 0.0
C464 C 0.99603 0.47427 0.49155 0.0
C465 C 0.98577 0.54441 0.49564 0.0
H466 H 0.0402 0.39105 0.51856 0.0
H467 H 0.97651 0.44294 0.46171 0.0
S468 S 0.04481 0.6653 0.59323 0.0
N469 N 0.07254 0.59314 0.60535 0.0
N470 N 1.00423 0.64929 0.54369 0.0
C471 C 1.01199 0.58245 0.53509 0.0
C472 C 0.04914 0.55187 0.5684 0.0
C473 C 0.05242 0.48717 0.00731 0.0
C474 C 0.05383 0.55493 0.02591 0.0
C475 C 1.01383 0.45511 0.98028 0.0
C476 C 0.97518 0.48945 0.97128 0.0
H477 H 0.08152 0.45892 0.01311 0.0
H478 H 1.01443 0.40426 0.96508 0.0
S479 S 0.96117 0.6637 0.01729 0.0
N480 N 1.01299 0.6526 0.0367 0.0
N481 N 0.94054 0.5928 0.98682 0.0
C482 C 0.97614 0.55614 0.99141 0.0
C483 C 1.0154 0.58885 0.01838 0.0
loop_
_geom_bond_atom_site_label_1
_geom_bond_atom_site_label_2
_geom_bond_distance
_geom_bond_site_symmetry_2
_ccdc_geom_bond_type
Co0 N4 2.148 . S
Co0 N10 2.128 . S
Co0 N20 2.194 . S
Co0 O25 2.351 . S
Co0 O26 2.155 . S
Co0 O27 2.096 . S
C1 N4 1.301 . S
C1 N5 1.328 . S
C1 H6 0.930 . S
C2 C3 1.333 . S
C2 N4 1.317 . S
C2 H7 0.930 . S
C3 C2 1.333 . S
C3 N5 1.350 . S
C3 H29 0.931 . S
N4 Co0 2.148 . S
N4 C1 1.301 . S
N4 C2 1.317 . S
N5 C1 1.328 . S
N5 C3 1.350 . S
H6 C1 0.930 . S
H7 C2 0.930 . S
C8 O9 1.224 . S
C8 O27 1.247 . S
O9 C8 1.224 . S
N10 Co0 2.128 . S
N10 C11 1.355 . S
N10 C13 1.311 . S
C11 N10 1.355 . S
C11 C12 1.363 . S
C11 H23 0.929 . S
C12 C11 1.363 . S
C12 N14 1.375 . S
C12 H30 0.931 . S
C13 N10 1.311 . S
C13 N14 1.347 . S
C13 H24 0.929 . S
N14 C12 1.375 . S
N14 C13 1.347 . S
C15 C18 1.365 . S
C15 N20 1.328 1_565 S
C15 H21 0.929 . S
C16 C17 1.362 . S
C16 C19 1.378 1_565 S
C16 H31 0.929 . S
C17 C16 1.362 . S
C17 C18 1.366 . S
C18 C15 1.365 . S
C18 C17 1.366 . S
C18 H32 0.930 . S
C19 C16 1.378 1_545 S
C19 N20 1.315 . S
C19 H22 0.930 . S
N20 Co0 2.194 . S
N20 C15 1.328 1_545 S
N20 C19 1.315 . S
H21 C15 0.929 . S
H22 C19 0.930 . S
H23 C11 0.929 . S
H24 C13 0.929 . S
O25 Co0 2.351 . S
O25 C28 1.244 . S
O26 Co0 2.155 . S
O26 C28 1.240 . S
O27 Co0 2.096 . S
O27 C8 1.247 . S
C28 O25 1.244 . S
C28 O26 1.240 . S
H29 C3 0.931 . S
H30 C12 0.931 . S
H31 C16 0.929 . S
H32 C18 0.930 . S
Co33 N37 2.148 . S
Co33 N43 2.128 . S
Co33 N53 2.194 . S
Co33 O58 2.351 . S
Co33 O59 2.155 . S
Co33 O60 2.096 . S
C34 N37 1.301 . S
C34 N38 1.328 . S
C34 H39 0.930 . S
C35 C36 1.333 . S
C35 N37 1.317 . S
C35 H40 0.930 . S
C36 C35 1.333 . S
C36 N38 1.350 . S
C36 H62 0.931 . S
N37 Co33 2.148 . S
N37 C34 1.301 . S
N37 C35 1.317 . S
N38 C34 1.328 . S
N38 C36 1.350 . S
H39 C34 0.930 . S
H40 C35 0.930 . S
C41 O42 1.224 . S
C41 O60 1.247 . S
O42 C41 1.224 . S
N43 Co33 2.128 . S
N43 C44 1.355 . S
N43 C46 1.311 . S
C44 N43 1.355 . S
C44 C45 1.363 . S
C44 H56 0.929 . S
C45 C44 1.363 . S
C45 N47 1.375 . S
C45 H63 0.931 . S
C46 N43 1.311 . S
C46 N47 1.347 . S
C46 H57 0.929 . S
N47 C45 1.375 . S
N47 C46 1.347 . S
C48 C51 1.365 . S
C48 N53 1.328 1_565 S
C48 H54 0.929 . S
C49 C50 1.362 . S
C49 C52 1.378 1_565 S
C49 H64 0.929 . S
C50 C49 1.362 . S
C50 C51 1.366 . S
C51 C48 1.365 . S
C51 C50 1.366 . S
C51 H65 0.930 . S
C52 C49 1.378 1_545 S
C52 N53 1.315 . S
C52 H55 0.930 . S
N53 Co33 2.194 . S
N53 C48 1.328 1_545 S
N53 C52 1.315 . S
H54 C48 0.929 . S
H55 C52 0.930 . S
H56 C44 0.929 . S
H57 C46 0.929 . S
O58 Co33 2.351 . S
O58 C61 1.244 . S
O59 Co33 2.155 . S
O59 C61 1.240 . S
O60 Co33 2.096 . S
O60 C41 1.247 . S
C61 O58 1.244 . S
C61 O59 1.240 . S
H62 C36 0.931 . S
H63 C45 0.931 . S
H64 C49 0.929 . S
H65 C51 0.930 . S
Co66 N70 2.148 . S
Co66 N76 2.128 . S
Co66 N86 2.194 . S
Co66 O91 2.351 . S
Co66 O92 2.155 . S
Co66 O93 2.096 . S
C67 N70 1.301 . S
C67 N71 1.328 . S
C67 H72 0.930 . S
C68 C69 1.333 . S
C68 N70 1.317 . S
C68 H73 0.930 . S
C69 C68 1.333 . S
C69 N71 1.350 . S
C69 H95 0.931 . S
N70 Co66 2.148 . S
N70 C67 1.301 . S
N70 C68 1.317 . S
N71 C67 1.328 . S
N71 C69 1.350 . S
H72 C67 0.930 . S
H73 C68 0.930 . S
C74 O75 1.224 . S
C74 O93 1.247 . S
O75 C74 1.224 . S
N76 Co66 2.128 . S
N76 C77 1.355 . S
N76 C79 1.311 . S
C77 N76 1.355 . S
C77 C78 1.363 . S
C77 H89 0.929 . S
C78 C77 1.363 . S
C78 N80 1.375 . S
C78 H96 0.931 . S
C79 N76 1.311 . S
C79 N80 1.347 . S
C79 H90 0.929 . S
N80 C78 1.375 . S
N80 C79 1.347 . S
C81 C84 1.365 . S
C81 N86 1.328 1_545 S
C81 H87 0.929 . S
C82 C83 1.362 . S
C82 C85 1.378 1_545 S
C82 H97 0.929 . S
C83 C82 1.362 . S
C83 C84 1.366 . S
C84 C81 1.365 . S
C84 C83 1.366 . S
C84 H98 0.930 . S
C85 C82 1.378 1_565 S
C85 N86 1.315 . S
C85 H88 0.930 . S
N86 Co66 2.194 . S
N86 C81 1.328 1_565 S
N86 C85 1.315 . S
H87 C81 0.929 . S
H88 C85 0.930 . S
H89 C77 0.929 . S
H90 C79 0.929 . S
O91 Co66 2.351 . S
O91 C94 1.244 . S
O92 Co66 2.155 . S
O92 C94 1.240 . S
O93 Co66 2.096 . S
O93 C74 1.247 . S
C94 O91 1.244 . S
C94 O92 1.240 . S
H95 C69 0.931 . S
H96 C78 0.931 . S
H97 C82 0.929 . S
H98 C84 0.930 . S
Co99 N103 2.148 . S
Co99 N109 2.128 . S
Co99 N119 2.194 . S
Co99 O124 2.351 . S
Co99 O125 2.155 . S
Co99 O126 2.096 . S
C100 N103 1.301 . S
C100 N104 1.328 . S
C100 H105 0.930 . S
C101 C102 1.333 . S
C101 N103 1.317 . S
C101 H106 0.930 . S
C102 C101 1.333 . S
C102 N104 1.350 . S
C102 H128 0.931 . S
N103 Co99 2.148 . S
N103 C100 1.301 . S
N103 C101 1.317 . S
N104 C100 1.328 . S
N104 C102 1.350 . S
H105 C100 0.930 . S
H106 C101 0.930 . S
C107 O108 1.224 . S
C107 O126 1.247 . S
O108 C107 1.224 . S
N109 Co99 2.128 . S
N109 C110 1.355 . S
N109 C112 1.311 . S
C110 N109 1.355 . S
C110 C111 1.363 . S
C110 H122 0.929 . S
C111 C110 1.363 . S
C111 N113 1.375 . S
C111 H129 0.931 . S
C112 N109 1.311 . S
C112 N113 1.347 . S
C112 H123 0.929 . S
N113 C111 1.375 . S
N113 C112 1.347 . S
C114 C117 1.365 . S
C114 N119 1.328 1_545 S
C114 H120 0.929 . S
C115 C116 1.362 . S
C115 C118 1.378 1_545 S
C115 H130 0.929 . S
C116 C115 1.362 . S
C116 C117 1.366 . S
C117 C114 1.365 . S
C117 C116 1.366 . S
C117 H131 0.930 . S
C118 C115 1.378 1_565 S
C118 N119 1.315 . S
C118 H121 0.930 . S
N119 Co99 2.194 . S
N119 C114 1.328 1_565 S
N119 C118 1.315 . S
H120 C114 0.929 . S
H121 C118 0.930 . S
H122 C110 0.929 . S
H123 C112 0.929 . S
O124 Co99 2.351 . S
O124 C127 1.244 . S
O125 Co99 2.155 . S
O125 C127 1.240 . S
O126 Co99 2.096 . S
O126 C107 1.247 . S
C127 O124 1.244 . S
C127 O125 1.240 . S
H128 C102 0.931 . S
H129 C111 0.931 . S
H130 C115 0.929 . S
H131 C117 0.930 . S
Co132 N136 2.148 . S
Co132 N142 2.128 . S
Co132 N152 2.194 . S
Co132 O157 2.351 . S
Co132 O158 2.155 . S
Co132 O159 2.096 . S
C133 N136 1.301 . S
C133 N137 1.328 . S
C133 H138 0.930 . S
C134 C135 1.333 . S
C134 N136 1.317 . S
C134 H139 0.930 . S
C135 C134 1.333 . S
C135 N137 1.350 . S
C135 H161 0.931 . S
N136 Co132 2.148 . S
N136 C133 1.301 . S
N136 C134 1.317 . S
N137 C133 1.328 . S
N137 C135 1.350 . S
H138 C133 0.930 . S
H139 C134 0.930 . S
C140 O141 1.224 . S
C140 O159 1.247 . S
O141 C140 1.224 . S
N142 Co132 2.128 . S
N142 C143 1.355 . S
N142 C145 1.311 . S
C143 N142 1.355 . S
C143 C144 1.363 . S
C143 H155 0.929 . S
C144 C143 1.363 . S
C144 N146 1.375 . S
C144 H162 0.931 . S
C145 N142 1.311 . S
C145 N146 1.347 . S
C145 H156 0.929 . S
N146 C144 1.375 . S
N146 C145 1.347 . S
C147 C150 1.365 . S
C147 N152 1.328 . S
C147 H153 0.929 . S
C148 C149 1.362 . S
C148 C151 1.378 . S
C148 H163 0.929 . S
C149 C148 1.362 . S
C149 C150 1.366 . S
C150 C147 1.365 . S
C150 C149 1.366 . S
C150 H164 0.930 . S
C151 C148 1.378 . S
C151 N152 1.315 . S
C151 H154 0.930 . S
N152 Co132 2.194 . S
N152 C147 1.328 . S
N152 C151 1.315 . S
H153 C147 0.929 . S
H154 C151 0.930 . S
H155 C143 0.929 . S
H156 C145 0.929 . S
O157 Co132 2.351 . S
O157 C160 1.244 . S
O158 Co132 2.155 . S
O158 C160 1.240 . S
O159 Co132 2.096 . S
O159 C140 1.247 . S
C160 O157 1.244 . S
C160 O158 1.240 . S
H161 C135 0.931 . S
H162 C144 0.931 . S
H163 C148 0.929 . S
H164 C150 0.930 . S
Co165 N169 2.148 . S
Co165 N175 2.128 . S
Co165 N185 2.194 . S
Co165 O190 2.351 . S
Co165 O191 2.155 . S
Co165 O192 2.096 . S
C166 N169 1.301 . S
C166 N170 1.328 . S
C166 H171 0.930 . S
C167 C168 1.333 . S
C167 N169 1.317 . S
C167 H172 0.930 . S
C168 C167 1.333 . S
C168 N170 1.350 . S
C168 H194 0.931 . S
N169 Co165 2.148 . S
N169 C166 1.301 . S
N169 C167 1.317 . S
N170 C166 1.328 . S
N170 C168 1.350 . S
H171 C166 0.930 . S
H172 C167 0.930 . S
C173 O174 1.224 . S
C173 O192 1.247 . S
O174 C173 1.224 . S
N175 Co165 2.128 . S
N175 C176 1.355 . S
N175 C178 1.311 . S
C176 N175 1.355 . S
C176 C177 1.363 . S
C176 H188 0.929 . S
C177 C176 1.363 . S
C177 N179 1.375 . S
C177 H195 0.931 . S
C178 N175 1.311 . S
C178 N179 1.347 . S
C178 H189 0.929 . S
N179 C177 1.375 . S
N179 C178 1.347 . S
C180 C183 1.365 . S
C180 N185 1.328 . S
C180 H186 0.929 . S
C181 C182 1.362 . S
C181 C184 1.378 . S
C181 H196 0.929 . S
C182 C181 1.362 . S
C182 C183 1.366 . S
C183 C180 1.365 . S
C183 C182 1.366 . S
C183 H197 0.930 . S
C184 C181 1.378 . S
C184 N185 1.315 . S
C184 H187 0.930 . S
N185 Co165 2.194 . S
N185 C180 1.328 . S
N185 C184 1.315 . S
H186 C180 0.929 . S
H187 C184 0.930 . S
H188 C176 0.929 . S
H189 C178 0.929 . S
O190 Co165 2.351 . S
O190 C193 1.244 . S
O191 Co165 2.155 . S
O191 C193 1.240 . S
O192 Co165 2.096 . S
O192 C173 1.247 . S
C193 O190 1.244 . S
C193 O191 1.240 . S
H194 C168 0.931 . S
H195 C177 0.931 . S
H196 C181 0.929 . S
H197 C183 0.930 . S
Co198 N202 2.148 . S
Co198 N208 2.128 . S
Co198 N218 2.194 . S
Co198 O223 2.351 . S
Co198 O224 2.155 . S
Co198 O225 2.096 . S
C199 N202 1.301 . S
C199 N203 1.328 . S
C199 H204 0.930 . S
C200 C201 1.333 . S
C200 N202 1.317 . S
C200 H205 0.930 . S
C201 C200 1.333 . S
C201 N203 1.350 . S
C201 H227 0.931 . S
N202 Co198 2.148 . S
N202 C199 1.301 . S
N202 C200 1.317 . S
N203 C199 1.328 . S
N203 C201 1.350 . S
H204 C199 0.930 . S
H205 C200 0.930 . S
C206 O207 1.224 . S
C206 O225 1.247 . S
O207 C206 1.224 . S
N208 Co198 2.128 . S
N208 C209 1.355 . S
N208 C211 1.311 . S
C209 N208 1.355 . S
C209 C210 1.363 . S
C209 H221 0.929 . S
C210 C209 1.363 . S
C210 N212 1.375 . S
C210 H228 0.931 . S
C211 N208 1.311 . S
C211 N212 1.347 . S
C211 H222 0.929 . S
N212 C210 1.375 . S
N212 C211 1.347 . S
C213 C216 1.365 . S
C213 N218 1.328 . S
C213 H219 0.929 . S
C214 C215 1.362 . S
C214 C217 1.378 . S
C214 H229 0.929 . S
C215 C214 1.362 . S
C215 C216 1.366 . S
C216 C213 1.365 . S
C216 C215 1.366 . S
C216 H230 0.930 . S
C217 C214 1.378 . S
C217 N218 1.315 . S
C217 H220 0.930 . S
N218 Co198 2.194 . S
N218 C213 1.328 . S
N218 C217 1.315 . S
H219 C213 0.929 . S
H220 C217 0.930 . S
H221 C209 0.929 . S
H222 C211 0.929 . S
O223 Co198 2.351 . S
O223 C226 1.244 . S
O224 Co198 2.155 . S
O224 C226 1.240 . S
O225 Co198 2.096 . S
O225 C206 1.247 . S
C226 O223 1.244 . S
C226 O224 1.240 . S
H227 C201 0.931 . S
H228 C210 0.931 . S
H229 C214 0.929 . S
H230 C216 0.930 . S
Co231 N235 2.148 . S
Co231 N241 2.128 . S
Co231 N251 2.194 . S
Co231 O256 2.351 . S
Co231 O257 2.155 . S
Co231 O258 2.096 . S
C232 N235 1.301 . S
C232 N236 1.328 . S
C232 H237 0.930 . S
C233 C234 1.333 . S
C233 N235 1.317 . S
C233 H238 0.930 . S
C234 C233 1.333 . S
C234 N236 1.350 . S
C234 H260 0.931 . S
N235 Co231 2.148 . S
N235 C232 1.301 . S
N235 C233 1.317 . S
N236 C232 1.328 . S
N236 C234 1.350 . S
H237 C232 0.930 . S
H238 C233 0.930 . S
C239 O240 1.224 . S
C239 O258 1.247 . S
O240 C239 1.224 . S
N241 Co231 2.128 . S
N241 C242 1.355 . S
N241 C244 1.311 . S
C242 N241 1.355 . S
C242 C243 1.363 . S
C242 H254 0.929 . S
C243 C242 1.363 . S
C243 N245 1.375 . S
C243 H261 0.931 . S
C244 N241 1.311 . S
C244 N245 1.347 . S
C244 H255 0.929 . S
N245 C243 1.375 . S
N245 C244 1.347 . S
C246 C249 1.365 . S
C246 N251 1.328 . S
C246 H252 0.929 . S
C247 C248 1.362 . S
C247 C250 1.378 . S
C247 H262 0.929 . S
C248 C247 1.362 . S
C248 C249 1.366 . S
C249 C246 1.365 . S
C249 C248 1.366 . S
C249 H263 0.930 . S
C250 C247 1.378 . S
C250 N251 1.315 . S
C250 H253 0.930 . S
N251 Co231 2.194 . S
N251 C246 1.328 . S
N251 C250 1.315 . S
H252 C246 0.929 . S
H253 C250 0.930 . S
H254 C242 0.929 . S
H255 C244 0.929 . S
O256 Co231 2.351 . S
O256 C259 1.244 . S
O257 Co231 2.155 . S
O257 C259 1.240 . S
O258 Co231 2.096 . S
O258 C239 1.247 . S
C259 O256 1.244 . S
C259 O257 1.240 . S
H260 C234 0.931 . S
H261 C243 0.931 . S
H262 C247 0.929 . S
H263 C249 0.930 . S
C264 C265 1.369 . S
C264 C266 1.419 . S
C264 H268 0.930 . S
C265 C264 1.369 . S
C265 C274 1.429 . S
C266 C264 1.419 . S
C266 C267 1.363 . S
C266 H269 0.929 . S
C267 C266 1.363 . S
C267 C273 1.428 . S
H268 C264 0.930 . S
H269 C266 0.929 . S
S270 N271 1.613 . S
S270 N272 1.610 . S
N271 S270 1.613 . S
N271 C274 1.350 . S
N272 S270 1.610 . S
N272 C273 1.351 . S
C273 C267 1.428 . S
C273 N272 1.351 . S
C273 C274 1.434 . S
C274 C265 1.429 . S
C274 N271 1.350 . S
C274 C273 1.434 . S
C275 C276 1.369 . S
C275 C277 1.419 . S
C275 H279 0.930 . S
C276 C275 1.369 . S
C276 C285 1.429 1_554 S
C277 C275 1.419 . S
C277 C278 1.363 1_554 S
C277 H280 0.929 . S
C278 C277 1.363 1_556 S
C278 C284 1.428 . S
H279 C275 0.930 . S
H280 C277 0.929 . S
S281 N282 1.613 . S
S281 N283 1.610 . S
N282 S281 1.613 . S
N282 C285 1.350 . S
N283 S281 1.610 . S
N283 C284 1.351 . S
C284 C278 1.428 . S
C284 N283 1.351 . S
C284 C285 1.434 . S
C285 C276 1.429 1_556 S
C285 N282 1.350 . S
C285 C284 1.434 . S
C286 C287 1.369 . S
C286 C288 1.419 . S
C286 H290 0.930 . S
C287 C286 1.369 . S
C287 C296 1.429 . S
C288 C286 1.419 . S
C288 C289 1.363 . S
C288 H291 0.929 . S
C289 C288 1.363 . S
C289 C295 1.428 . S
H290 C286 0.930 . S
H291 C288 0.929 . S
S292 N293 1.613 . S
S292 N294 1.610 . S
N293 S292 1.613 . S
N293 C296 1.350 . S
N294 S292 1.610 . S
N294 C295 1.351 . S
C295 C289 1.428 . S
C295 N294 1.351 . S
C295 C296 1.434 . S
C296 C287 1.429 . S
C296 N293 1.350 . S
C296 C295 1.434 . S
C297 C298 1.369 1_554 S
C297 C299 1.419 . S
C297 H301 0.930 . S
C298 C297 1.369 1_556 S
C298 C307 1.429 . S
C299 C297 1.419 . S
C299 C300 1.363 . S
C299 H302 0.929 . S
C300 C299 1.363 . S
C300 C306 1.428 1_554 S
H301 C297 0.930 . S
H302 C299 0.929 . S
S303 N304 1.613 . S
S303 N305 1.610 . S
N304 S303 1.613 . S
N304 C307 1.350 . S
N305 S303 1.610 . S
N305 C306 1.351 . S
C306 C300 1.428 1_556 S
C306 N305 1.351 . S
C306 C307 1.434 . S
C307 C298 1.429 . S
C307 N304 1.350 . S
C307 C306 1.434 . S
C308 C309 1.369 . S
C308 C310 1.419 . S
C308 H312 0.930 . S
C309 C308 1.369 . S
C309 C318 1.429 . S
C310 C308 1.419 . S
C310 C311 1.363 . S
C310 H313 0.929 . S
C311 C310 1.363 . S
C311 C317 1.428 . S
H312 C308 0.930 . S
H313 C310 0.929 . S
S314 N315 1.613 . S
S314 N316 1.610 . S
N315 S314 1.613 . S
N315 C318 1.350 . S
N316 S314 1.610 . S
N316 C317 1.351 . S
C317 C311 1.428 . S
C317 N316 1.351 . S
C317 C318 1.434 . S
C318 C309 1.429 . S
C318 N315 1.350 . S
C318 C317 1.434 . S
C319 C320 1.369 . S
C319 C321 1.419 . S
C319 H323 0.930 . S
C320 C319 1.369 . S
C320 C329 1.429 . S
C321 C319 1.419 . S
C321 C322 1.363 . S
C321 H324 0.929 . S
C322 C321 1.363 . S
C322 C328 1.428 . S
H323 C319 0.930 . S
H324 C321 0.929 . S
S325 N326 1.613 . S
S325 N327 1.610 . S
N326 S325 1.613 . S
N326 C329 1.350 1_545 S
N327 S325 1.610 . S
N327 C328 1.351 1_545 S
C328 C322 1.428 . S
C328 N327 1.351 1_565 S
C328 C329 1.434 . S
C329 C320 1.429 . S
C329 N326 1.350 1_565 S
C329 C328 1.434 . S
C330 C331 1.369 . S
C330 C332 1.419 . S
C330 H334 0.930 . S
C331 C330 1.369 . S
C331 C340 1.429 1_455 S
C332 C330 1.419 . S
C332 C333 1.363 1_455 S
C332 H335 0.929 . S
C333 C332 1.363 1_655 S
C333 C339 1.428 . S
H334 C330 0.930 . S
H335 C332 0.929 . S
S336 N337 1.613 . S
S336 N338 1.610 . S
N337 S336 1.613 . S
N337 C340 1.350 . S
N338 S336 1.610 . S
N338 C339 1.351 . S
C339 C333 1.428 . S
C339 N338 1.351 . S
C339 C340 1.434 . S
C340 C331 1.429 1_655 S
C340 N337 1.350 . S
C340 C339 1.434 . S
C341 C342 1.369 . S
C341 C343 1.419 1_455 S
C341 H345 0.930 . S
C342 C341 1.369 . S
C342 C351 1.429 . S
C343 C341 1.419 1_655 S
C343 C344 1.363 . S
C343 H346 0.929 . S
C344 C343 1.363 . S
C344 C350 1.428 . S
H345 C341 0.930 . S
H346 C343 0.929 . S
S347 N348 1.613 . S
S347 N349 1.610 1_455 S
N348 S347 1.613 . S
N348 C351 1.350 . S
N349 S347 1.610 1_655 S
N349 C350 1.351 . S
C350 C344 1.428 . S
C350 N349 1.351 . S
C350 C351 1.434 1_655 S
C351 C342 1.429 . S
C351 N348 1.350 . S
C351 C350 1.434 1_455 S
C352 C353 1.369 . S
C352 C354 1.419 . S
C352 H356 0.930 . S
C353 C352 1.369 . S
C353 C362 1.429 . S
C354 C352 1.419 . S
C354 C355 1.363 . S
C354 H357 0.929 . S
C355 C354 1.363 . S
C355 C361 1.428 . S
H356 C352 0.930 . S
H357 C354 0.929 . S
S358 N359 1.613 . S
S358 N360 1.610 . S
N359 S358 1.613 . S
N359 C362 1.350 . S
N360 S358 1.610 . S
N360 C361 1.351 . S
C361 C355 1.428 . S
C361 N360 1.351 . S
C361 C362 1.434 . S
C362 C353 1.429 . S
C362 N359 1.350 . S
C362 C361 1.434 . S
C363 C364 1.369 . S
C363 C365 1.419 . S
C363 H367 0.930 . S
C364 C363 1.369 . S
C364 C373 1.429 . S
C365 C363 1.419 . S
C365 C366 1.363 . S
C365 H368 0.929 . S
C366 C365 1.363 . S
C366 C372 1.428 . S
H367 C363 0.930 . S
H368 C365 0.929 . S
S369 N370 1.613 . S
S369 N371 1.610 . S
N370 S369 1.613 . S
N370 C373 1.350 . S
N371 S369 1.610 . S
N371 C372 1.351 . S
C372 C366 1.428 . S
C372 N371 1.351 . S
C372 C373 1.434 . S
C373 C364 1.429 . S
C373 N370 1.350 . S
C373 C372 1.434 . S
C374 C375 1.369 . S
C374 C376 1.419 . S
C374 H378 0.930 . S
C375 C374 1.369 . S
C375 C384 1.429 . S
C376 C374 1.419 . S
C376 C377 1.363 . S
C376 H379 0.929 . S
C377 C376 1.363 . S
C377 C383 1.428 . S
H378 C374 0.930 . S
H379 C376 0.929 . S
S380 N381 1.613 . S
S380 N382 1.610 . S
N381 S380 1.613 . S
N381 C384 1.350 . S
N382 S380 1.610 . S
N382 C383 1.351 . S
C383 C377 1.428 . S
C383 N382 1.351 . S
C383 C384 1.434 . S
C384 C375 1.429 . S
C384 N381 1.350 . S
C384 C383 1.434 . S
C385 C386 1.369 . S
C385 C387 1.419 . S
C385 H389 0.930 . S
C386 C385 1.369 . S
C386 C395 1.429 . S
C387 C385 1.419 . S
C387 C388 1.363 . S
C387 H390 0.929 . S
C388 C387 1.363 . S
C388 C394 1.428 . S
H389 C385 0.930 . S
H390 C387 0.929 . S
S391 N392 1.613 . S
S391 N393 1.610 . S
N392 S391 1.613 . S
N392 C395 1.350 . S
N393 S391 1.610 . S
N393 C394 1.351 . S
C394 C388 1.428 . S
C394 N393 1.351 . S
C394 C395 1.434 . S
C395 C386 1.429 . S
C395 N392 1.350 . S
C395 C394 1.434 . S
C396 C397 1.369 . S
C396 C398 1.419 . S
C396 H400 0.930 . S
C397 C396 1.369 . S
C397 C406 1.429 . S
C398 C396 1.419 . S
C398 C399 1.363 . S
C398 H401 0.929 . S
C399 C398 1.363 . S
C399 C405 1.428 . S
H400 C396 0.930 . S
H401 C398 0.929 . S
S402 N403 1.613 . S
S402 N404 1.610 . S
N403 S402 1.613 . S
N403 C406 1.350 . S
N404 S402 1.610 . S
N404 C405 1.351 . S
C405 C399 1.428 . S
C405 N404 1.351 . S
C405 C406 1.434 . S
C406 C397 1.429 . S
C406 N403 1.350 . S
C406 C405 1.434 . S
C407 C408 1.369 . S
C407 C409 1.419 . S
C407 H411 0.930 . S
C408 C407 1.369 . S
C408 C417 1.429 . S
C409 C407 1.419 . S
C409 C410 1.363 . S
C409 H412 0.929 . S
C410 C409 1.363 . S
C410 C416 1.428 . S
H411 C407 0.930 . S
H412 C409 0.929 . S
S413 N414 1.613 . S
S413 N415 1.610 . S
N414 S413 1.613 . S
N414 C417 1.350 . S
N415 S413 1.610 . S
N415 C416 1.351 . S
C416 C410 1.428 . S
C416 N415 1.351 . S
C416 C417 1.434 . S
C417 C408 1.429 . S
C417 N414 1.350 . S
C417 C416 1.434 . S
C418 C419 1.369 . S
C418 C420 1.419 . S
C418 H422 0.930 . S
C419 C418 1.369 . S
C419 C428 1.429 . S
C420 C418 1.419 . S
C420 C421 1.363 . S
C420 H423 0.929 . S
C421 C420 1.363 . S
C421 C427 1.428 . S
H422 C418 0.930 . S
H423 C420 0.929 . S
S424 N425 1.613 . S
S424 N426 1.610 . S
N425 S424 1.613 . S
N425 C428 1.350 . S
N426 S424 1.610 . S
N426 C427 1.351 . S
C427 C421 1.428 . S
C427 N426 1.351 . S
C427 C428 1.434 . S
C428 C419 1.429 . S
C428 N425 1.350 . S
C428 C427 1.434 . S
C429 C430 1.369 . S
C429 C431 1.419 . S
C429 H433 0.930 . S
C430 C429 1.369 . S
C430 C439 1.429 . S
C431 C429 1.419 . S
C431 C432 1.363 . S
C431 H434 0.929 . S
C432 C431 1.363 . S
C432 C438 1.428 . S
H433 C429 0.930 . S
H434 C431 0.929 . S
S435 N436 1.613 . S
S435 N437 1.610 . S
N436 S435 1.613 . S
N436 C439 1.350 . S
N437 S435 1.610 . S
N437 C438 1.351 . S
C438 C432 1.428 . S
C438 N437 1.351 . S
C438 C439 1.434 . S
C439 C430 1.429 . S
C439 N436 1.350 . S
C439 C438 1.434 . S
C440 C441 1.369 1_565 S
C440 C442 1.419 . S
C440 H444 0.930 . S
C441 C440 1.369 1_545 S
C441 C450 1.429 . S
C442 C440 1.419 . S
C442 C443 1.363 . S
C442 H445 0.929 . S
C443 C442 1.363 . S
C443 C449 1.428 1_565 S
H444 C440 0.930 . S
H445 C442 0.929 . S
S446 N447 1.613 . S
S446 N448 1.610 . S
N447 S446 1.613 . S
N447 C450 1.350 . S
N448 S446 1.610 . S
N448 C449 1.351 . S
C449 C443 1.428 1_545 S
C449 N448 1.351 . S
C449 C450 1.434 . S
C450 C441 1.429 . S
C450 N447 1.350 . S
C450 C449 1.434 . S
C451 C452 1.369 1_556 S
C451 C453 1.419 . S
C451 H455 0.930 . S
C452 C451 1.369 1_554 S
C452 C461 1.429 1_545 S
C453 C451 1.419 . S
C453 C454 1.363 1_545 S
C453 H456 0.929 . S
C454 C453 1.363 1_565 S
C454 C460 1.428 1_556 S
H455 C451 0.930 . S
H456 C453 0.929 . S
S457 N458 1.613 . S
S457 N459 1.610 . S
N458 S457 1.613 . S
N458 C461 1.350 . S
N459 S457 1.610 . S
N459 C460 1.351 . S
C460 C454 1.428 1_554 S
C460 N459 1.351 . S
C460 C461 1.434 . S
C461 C452 1.429 1_565 S
C461 N458 1.350 . S
C461 C460 1.434 . S
C462 C463 1.369 . S
C462 C464 1.419 1_455 S
C462 H466 0.930 . S
C463 C462 1.369 . S
C463 C472 1.429 . S
C464 C462 1.419 1_655 S
C464 C465 1.363 . S
C464 H467 0.929 . S
C465 C464 1.363 . S
C465 C471 1.428 . S
H466 C462 0.930 . S
H467 C464 0.929 . S
S468 N469 1.613 . S
S468 N470 1.610 1_455 S
N469 S468 1.613 . S
N469 C472 1.350 . S
N470 S468 1.610 1_655 S
N470 C471 1.351 . S
C471 C465 1.428 . S
C471 N470 1.351 . S
C471 C472 1.434 1_655 S
C472 C463 1.429 . S
C472 N469 1.350 . S
C472 C471 1.434 1_455 S
C473 C474 1.369 1_556 S
C473 C475 1.419 . S
C473 H477 0.930 . S
C474 C473 1.369 1_554 S
C474 C483 1.429 1_455 S
C475 C473 1.419 . S
C475 C476 1.363 1_455 S
C475 H478 0.929 . S
C476 C475 1.363 1_655 S
C476 C482 1.428 1_556 S
H477 C473 0.930 . S
H478 C475 0.929 . S
S479 N480 1.613 . S
S479 N481 1.610 . S
N480 S479 1.613 . S
N480 C483 1.350 . S
N481 S479 1.610 . S
N481 C482 1.351 . S
C482 C476 1.428 1_554 S
C482 N481 1.351 . S
C482 C483 1.434 . S
C483 C474 1.429 1_655 S
C483 N480 1.350 . S
C483 C482 1.434 . S
C265 N212 1.992 . S
C267 N14 1.996 . S
C276 N47 1.993 . S
C278 N245 1.995 . S
C287 N80 1.996 . S
C289 N146 1.993 . S
C298 N113 1.997 . S
C300 N179 1.992 . S
C309 N38 1.479 . S
C311 N5 1.478 . S
C320 N71 1.481 . S
C322 N104 1.480 . S
C331 N170 1.474 . S
C333 N137 1.475 . S
C342 N203 1.472 . S
C344 N236 1.473 . S
C353 C173 1.215 . S
C355 C17 1.230 . S
C364 C50 1.234 . S
C366 C140 1.216 . S
C375 C83 1.234 . S
C377 C239 1.212 . S
C386 C206 1.217 . S
C388 C116 1.230 . S
C397 C149 1.234 . S
C399 C41 1.216 . S
C408 C182 1.235 . S
C410 C8 1.213 . S
C419 C215 1.232 . S
C421 C107 1.212 . S
C430 C74 1.213 . S
C432 C248 1.231 . S
C441 C28 1.528 . S
C443 C94 1.525 . S
C452 C61 1.522 . S
C454 C127 1.530 . S
C463 C226 1.524 . S
C465 C160 1.529 . S
C474 C193 1.526 . S
C476 C259 1.527 . S
