# Generated by pormake.
# Topology lcy-e, (6)-cn, num edge types: 1
# Building blocks:
#     Node 0, Type 0, BuildingBlock: KUMBOL_clean_sbu_0, # of connection points: 6
#     Node 1, Type 0, BuildingBlock: KUMBOL_clean_sbu_0, # of connection points: 6
#     Node 2, Type 0, BuildingBlock: KUMBOL_clean_sbu_0, # of connection points: 6
#     Node 3, Type 0, BuildingBlock: KUMBOL_clean_sbu_0, # of connection points: 6
#     Node 4, Type 0, BuildingBlock: KUMBOL_clean_sbu_0, # of connection points: 6
#     Node 5, Type 0, BuildingBlock: KUMBOL_clean_sbu_0, # of connection points: 6
#     Node 6, Type 0, BuildingBlock: KUMBOL_clean_sbu_0, # of connection points: 6
#     Node 7, Type 0, BuildingBlock: KUMBOL_clean_sbu_0, # of connection points: 6
#     Node 8, Type 0, BuildingBlock: KUMBOL_clean_sbu_0, # of connection points: 6
#     Node 9, Type 0, BuildingBlock: KUMBOL_clean_sbu_0, # of connection points: 6
#     Node 10, Type 0, BuildingBlock: KUMBOL_clean_sbu_0, # of connection points: 6
#     Node 11, Type 0, BuildingBlock: KUMBOL_clean_sbu_0, # of connection points: 6
#     Edge 12, Type (0, 0), BuildingBlock: ZUJKAS_clean_linker_0, # of connection points: 2
#     Edge 13, Type (0, 0), BuildingBlock: ZUJKAS_clean_linker_0, # of connection points: 2
#     Edge 14, Type (0, 0), BuildingBlock: ZUJKAS_clean_linker_0, # of connection points: 2
#     Edge 15, Type (0, 0), BuildingBlock: ZUJKAS_clean_linker_0, # of connection points: 2
#     Edge 16, Type (0, 0), BuildingBlock: ZUJKAS_clean_linker_0, # of connection points: 2
#     Edge 17, Type (0, 0), BuildingBlock: ZUJKAS_clean_linker_0, # of connection points: 2
#     Edge 18, Type (0, 0), BuildingBlock: ZUJKAS_clean_linker_0, # of connection points: 2
#     Edge 19, Type (0, 0), BuildingBlock: ZUJKAS_clean_linker_0, # of connection points: 2
#     Edge 20, Type (0, 0), BuildingBlock: ZUJKAS_clean_linker_0, # of connection points: 2
#     Edge 21, Type (0, 0), BuildingBlock: ZUJKAS_clean_linker_0, # of connection points: 2
#     Edge 22, Type (0, 0), BuildingBlock: ZUJKAS_clean_linker_0, # of connection points: 2
#     Edge 23, Type (0, 0), BuildingBlock: ZUJKAS_clean_linker_0, # of connection points: 2
#     Edge 24, Type (0, 0), BuildingBlock: ZUJKAS_clean_linker_0, # of connection points: 2
#     Edge 25, Type (0, 0), BuildingBlock: ZUJKAS_clean_linker_0, # of connection points: 2
#     Edge 26, Type (0, 0), BuildingBlock: ZUJKAS_clean_linker_0, # of connection points: 2
#     Edge 27, Type (0, 0), BuildingBlock: ZUJKAS_clean_linker_0, # of connection points: 2
#     Edge 28, Type (0, 0), BuildingBlock: ZUJKAS_clean_linker_0, # of connection points: 2
#     Edge 29, Type (0, 0), BuildingBlock: ZUJKAS_clean_linker_0, # of connection points: 2
#     Edge 30, Type (0, 0), BuildingBlock: ZUJKAS_clean_linker_0, # of connection points: 2
#     Edge 31, Type (0, 0), BuildingBlock: ZUJKAS_clean_linker_0, # of connection points: 2
#     Edge 32, Type (0, 0), BuildingBlock: ZUJKAS_clean_linker_0, # of connection points: 2
#     Edge 33, Type (0, 0), BuildingBlock: ZUJKAS_clean_linker_0, # of connection points: 2
#     Edge 34, Type (0, 0), BuildingBlock: ZUJKAS_clean_linker_0, # of connection points: 2
#     Edge 35, Type (0, 0), BuildingBlock: ZUJKAS_clean_linker_0, # of connection points: 2
#     Edge 36, Type (0, 0), BuildingBlock: ZUJKAS_clean_linker_0, # of connection points: 2
#     Edge 37, Type (0, 0), BuildingBlock: ZUJKAS_clean_linker_0, # of connection points: 2
#     Edge 38, Type (0, 0), BuildingBlock: ZUJKAS_clean_linker_0, # of connection points: 2
#     Edge 39, Type (0, 0), BuildingBlock: ZUJKAS_clean_linker_0, # of connection points: 2
#     Edge 40, Type (0, 0), BuildingBlock: ZUJKAS_clean_linker_0, # of connection points: 2
#     Edge 41, Type (0, 0), BuildingBlock: ZUJKAS_clean_linker_0, # of connection points: 2
#     Edge 42, Type (0, 0), BuildingBlock: ZUJKAS_clean_linker_0, # of connection points: 2
#     Edge 43, Type (0, 0), BuildingBlock: ZUJKAS_clean_linker_0, # of connection points: 2
#     Edge 44, Type (0, 0), BuildingBlock: ZUJKAS_clean_linker_0, # of connection points: 2
#     Edge 45, Type (0, 0), BuildingBlock: ZUJKAS_clean_linker_0, # of connection points: 2
#     Edge 46, Type (0, 0), BuildingBlock: ZUJKAS_clean_linker_0, # of connection points: 2
#     Edge 47, Type (0, 0), BuildingBlock: ZUJKAS_clean_linker_0, # of connection points: 2
# Relax obj value: 0.117
# Max RMSD: 0.279
# Mean RMSD: 0.278
data_MOF--net-lcy-e--node1-KUMBOL_clean_sbu_0--edge1-ZUJKAS_clean_linker_0
_symmetry_space_group_name_H-M    P1
_symmetry_Int_Tables_number       1
_symmetry_cell_setting            triclinic
loop_
_symmetry_equiv_pos_as_xyz
'x, y, z'
_cell_length_a     53.945048
_cell_length_b     53.938445
_cell_length_c     54.147351
_cell_angle_alpha  89.784437
_cell_angle_beta   90.144587
_cell_angle_gamma 90.417365
loop_
_atom_site_label
_atom_site_type_symbol
_atom_site_fract_x
_atom_site_fract_y
_atom_site_fract_z
_atom_type_partial_charge
Gd0 Gd 0.12324 0.25486 0.47353 0.0
Gd1 Gd 0.15071 0.21133 0.51879 0.0
C2 C 0.22068 0.22946 0.56267 0.0
C3 C 0.25078 0.20168 0.54439 0.0
C4 C 0.20814 0.2017 0.52981 0.0
C5 C 0.20246 0.22036 0.54628 0.0
C6 C 0.2323 0.192 0.52878 0.0
C7 C 0.24498 0.22034 0.56134 0.0
C8 C 0.21374 0.24686 0.58043 0.0
C9 C 0.18897 0.25401 0.58208 0.0
N10 N 0.17872 0.22849 0.54732 0.0
C11 C 0.17153 0.24426 0.56553 0.0
H12 H 0.15237 0.24962 0.56715 0.0
C13 C 0.19406 0.1732 0.49964 0.0
N14 N 0.18981 0.19271 0.51506 0.0
C15 C 0.21777 0.16306 0.49786 0.0
C16 C 0.23704 0.17263 0.51235 0.0
H17 H 0.17928 0.16584 0.48829 0.0
H18 H 0.25928 0.22724 0.57366 0.0
H19 H 0.13008 0.21158 0.42922 0.0
H20 H 0.22718 0.25432 0.59337 0.0
H21 H 0.18327 0.26697 0.59615 0.0
H22 H 0.2695 0.19456 0.54382 0.0
H23 H 0.08838 0.29998 0.49561 0.0
H24 H 0.06537 0.21115 0.38397 0.0
H25 H 0.10739 0.1958 0.39337 0.0
H26 H 0.01274 0.27076 0.42236 0.0
H27 H 0.22118 0.14789 0.48533 0.0
H28 H 0.25538 0.16471 0.51095 0.0
H29 H 0.03003 0.23891 0.39511 0.0
H30 H 0.04657 0.31744 0.4898 0.0
N31 N 0.10095 0.23513 0.44139 0.0
C32 C 0.07512 0.21793 0.40014 0.0
C33 C 0.09882 0.20925 0.40536 0.0
C34 C 0.0643 0.23533 0.41578 0.0
C35 C 0.07785 0.24365 0.4365 0.0
C36 C 0.11165 0.21833 0.42591 0.0
N37 N 0.08296 0.27098 0.46968 0.0
C38 C 0.06835 0.26183 0.45147 0.0
C39 C 0.05229 0.30159 0.47908 0.0
C40 C 0.03659 0.29168 0.46109 0.0
C41 C 0.07579 0.2914 0.48264 0.0
C42 C 0.04481 0.27202 0.44653 0.0
H43 H 0.01862 0.29996 0.45792 0.0
O44 O 0.13104 0.29356 0.46495 0.0
O45 O 0.15146 0.24998 0.5033 0.0
O46 O 0.12099 0.23403 0.53677 0.0
O47 O 0.09599 0.25138 0.50566 0.0
O48 O 0.13196 0.28286 0.50271 0.0
O49 O 0.14278 0.2651 0.43977 0.0
O50 O 0.14328 0.17279 0.52875 0.0
O51 O 0.1212 0.21799 0.49106 0.0
O52 O 0.15544 0.23198 0.45802 0.0
O53 O 0.18007 0.22231 0.4918 0.0
O54 O 0.13634 0.18342 0.49051 0.0
O55 O 0.1364 0.20203 0.55513 0.0
C56 C 0.14893 0.27065 0.51413 0.0
C57 C 0.03083 0.26317 0.42648 0.0
C58 C 0.0407 0.24508 0.41095 0.0
C59 C 0.14032 0.2888 0.44331 0.0
C60 C 0.13049 0.30323 0.4222 0.0
C61 C 0.10537 0.30981 0.4214 0.0
C62 C 0.1461 0.31021 0.40247 0.0
C63 C 0.1365 0.32336 0.382 0.0
C64 C 0.09581 0.32273 0.40126 0.0
C65 C 0.11118 0.32945 0.3817 0.0
C66 C 0.10047 0.24499 0.52905 0.0
C67 C 0.11947 0.1972 0.48088 0.0
C68 C 0.13671 0.17814 0.55128 0.0
C69 C 0.1473 0.16266 0.57123 0.0
C70 C 0.17043 0.16877 0.58145 0.0
C71 C 0.13404 0.14199 0.58063 0.0
C72 C 0.14376 0.12788 0.60044 0.0
C73 C 0.18025 0.15475 0.60074 0.0
C74 C 0.16706 0.13453 0.61022 0.0
C75 C 0.17702 0.22559 0.46789 0.0
H76 H 0.09308 0.30517 0.43636 0.0
H77 H 0.16552 0.30521 0.40293 0.0
H78 H 0.0764 0.32769 0.4009 0.0
H79 H 0.1033 0.33988 0.36649 0.0
H80 H 0.18087 0.1845 0.57468 0.0
H81 H 0.11606 0.13727 0.57292 0.0
H82 H 0.19815 0.15963 0.60846 0.0
H83 H 0.17525 0.1239 0.62512 0.0
Gd84 Gd 0.06352 0.8949 0.77672 0.0
Gd85 Gd 0.01532 0.87681 0.73323 0.0
C86 C 0.96546 0.81646 0.76609 0.0
C87 C 0.97435 0.78118 0.73989 0.0
C88 C 0.99481 0.82086 0.73261 0.0
C89 C 0.9827 0.83086 0.75263 0.0
C90 C 0.99001 0.79618 0.7254 0.0
C91 C 0.96205 0.79133 0.76021 0.0
C92 C 0.95119 0.82808 0.78413 0.0
C93 C 0.95382 0.85356 0.78791 0.0
N94 N 0.98588 0.85536 0.75732 0.0
C95 C 0.97116 0.86704 0.77404 0.0
H96 H 0.97288 0.88671 0.77685 0.0
C97 C 0.01644 0.82886 0.69555 0.0
N98 N 1.00901 0.83614 0.71854 0.0
C99 C 0.01265 0.80442 0.68779 0.0
C100 C 0.99983 0.78782 0.70305 0.0
H101 H 0.02624 0.84176 0.68367 0.0
H102 H 0.94916 0.77988 0.77058 0.0
H103 H 0.11175 0.8746 0.73927 0.0
H104 H 0.93737 0.81775 0.79444 0.0
H105 H 0.94245 0.86284 0.80142 0.0
H106 H 0.9707 0.76207 0.73485 0.0
H107 H 0.04366 0.94384 0.81094 0.0
H108 H 0.15112 0.93762 0.7133 0.0
H109 H 0.14433 0.89242 0.71436 0.0
H110 H 0.1132 1.00567 0.75392 0.0
H111 H 0.01947 0.79846 0.67001 0.0
H112 H 0.99659 0.769 0.69686 0.0
H113 H 0.13963 0.97951 0.72835 0.0
H114 H 0.0491 0.98869 0.81224 0.0
N115 N 0.0973 0.90938 0.75194 0.0
C116 C 0.1361 0.92996 0.72424 0.0
C117 C 0.13227 0.90447 0.72474 0.0
C118 C 0.12089 0.94522 0.73828 0.0
C119 C 0.10148 0.93433 0.75226 0.0
C120 C 0.11308 0.89443 0.73894 0.0
N121 N 0.06831 0.93845 0.78044 0.0
C122 C 0.08653 0.94921 0.76674 0.0
C123 C 0.05941 0.97793 0.79898 0.0
C124 C 0.07661 0.98948 0.78362 0.0
C125 C 0.05597 0.9523 0.79764 0.0
C126 C 0.09087 0.97511 0.76773 0.0
H127 H 0.07942 1.00935 0.78486 0.0
O128 O 0.06438 0.90043 0.81649 0.0
O129 O 0.02711 0.87503 0.77309 0.0
O130 O 1.0062 0.91365 0.75014 0.0
O131 O 0.0265 0.91204 0.78772 0.0
O132 O 0.0554 0.85619 0.79027 0.0
O133 O 0.09761 0.88755 0.79729 0.0
O134 O 1.00495 0.88552 0.69525 0.0
O135 O 0.04562 0.90407 0.7407 0.0
O136 O 0.07696 0.86049 0.75719 0.0
O137 O 0.0454 0.84813 0.73004 0.0
O138 O 0.04515 0.88764 0.70616 0.0
O139 O 0.97906 0.89195 0.72465 0.0
C140 C 0.03204 0.85541 0.78518 0.0
C141 C 0.10974 0.98586 0.75343 0.0
C142 C 0.12477 0.97095 0.73885 0.0
C143 C 0.08746 0.8936 0.81822 0.0
C144 C 0.10098 0.89295 0.84207 0.0
C145 C 0.08936 0.9019 0.86341 0.0
C146 C 0.12546 0.88385 0.84382 0.0
C147 C 0.1382 0.88435 0.86661 0.0
C148 C 0.10186 0.90216 0.88597 0.0
C149 C 0.12614 0.89361 0.88756 0.0
C150 C 1.00904 0.92115 0.77308 0.0
C151 C 0.05576 0.90435 0.71964 0.0
C152 C 0.98251 0.8919 0.70089 0.0
C153 C 0.96248 0.88105 0.68575 0.0
C154 C 0.95183 0.85815 0.69225 0.0
C155 C 0.95375 0.89374 0.66473 0.0
C156 C 0.93428 0.8837 0.65037 0.0
C157 C 0.93284 0.84795 0.67795 0.0
C158 C 0.92408 0.86057 0.65719 0.0
C159 C 0.06757 0.84555 0.74013 0.0
H160 H 0.0706 0.9089 0.86268 0.0
H161 H 0.13473 0.87687 0.82756 0.0
H162 H 0.09274 0.90916 0.90227 0.0
H163 H 0.13551 0.89408 0.90528 0.0
H164 H 0.95805 0.84822 0.70844 0.0
H165 H 0.96176 0.91159 0.65988 0.0
H166 H 0.92481 0.8302 0.68303 0.0
H167 H 0.90943 0.85212 0.64633 0.0
Gd168 Gd 0.38117 0.80642 0.02208 0.0
Gd169 Gd 0.39926 0.76102 0.97532 0.0
C170 C 0.45958 0.70869 1.00214 0.0
C171 C 0.49463 0.72099 0.97661 0.0
C172 C 0.4549 0.74142 0.97173 0.0
C173 C 0.44496 0.72681 0.99035 0.0
C174 C 0.47962 0.73814 0.96411 0.0
C175 C 0.48464 0.70633 0.99564 0.0
C176 C 0.44832 0.69293 0.01946 0.0
C177 C 0.42289 0.69481 0.02385 0.0
N178 N 0.42055 0.72915 0.99573 0.0
C179 C 0.40914 0.71293 1.01148 0.0
H180 H 0.38954 0.71432 0.015 0.0
C181 C 0.44747 0.76938 0.93878 0.0
N182 N 0.43981 0.75762 0.95989 0.0
C183 C 0.47191 0.76692 0.93063 0.0
C184 C 0.48818 0.75154 0.94359 0.0
H185 H 0.43488 0.78137 0.92887 0.0
H186 H 0.49624 0.69268 1.00465 0.0
H187 H 0.38492 0.85488 0.98217 0.0
H188 H 0.45892 0.67884 0.02901 0.0
H189 H 0.41389 0.68239 0.03683 0.0
H190 H 0.51377 0.71839 0.97122 0.0
H191 H 0.34842 0.78289 0.07061 0.0
H192 H 0.31495 0.8905 0.97953 0.0
H193 H 0.35849 0.88767 0.96615 0.0
H194 H 0.26569 0.845 0.03728 0.0
H195 H 0.47818 0.77688 0.91439 0.0
H196 H 0.50706 0.74955 0.93715 0.0
H197 H 0.28061 0.87452 1.00611 0.0
H198 H 0.30598 0.7841 0.08686 0.0
N199 N 0.35644 0.83728 1.00348 0.0
C200 C 0.32635 0.87546 0.98629 0.0
C201 C 0.35092 0.87398 0.97876 0.0
C202 C 0.31696 0.85799 1.00302 0.0
C203 C 0.33263 0.83883 1.01146 0.0
C204 C 0.36588 0.85503 0.9879 0.0
N205 N 0.34078 0.80627 0.03957 0.0
C206 C 0.3244 0.8225 0.02957 0.0
C207 C 0.31074 0.79471 0.07052 0.0
C208 C 0.29324 0.80994 0.05937 0.0
C209 C 0.33471 0.79382 0.06095 0.0
C210 C 0.3002 0.8248 0.03932 0.0
H211 H 0.27484 0.81114 0.06724 0.0
O212 O 0.38428 0.81466 0.06132 0.0
O213 O 0.39951 0.76961 0.01606 0.0
O214 O 0.36369 0.74846 0.99267 0.0
O215 O 0.36143 0.76944 0.02998 0.0
O216 O 0.41783 0.79446 0.03783 0.0
O217 O 0.39781 0.84115 0.03424 0.0
O218 O 0.39141 0.75441 0.9363 0.0
O219 O 0.37296 0.79112 0.98479 0.0
O220 O 0.40962 0.82261 0.99548 0.0
O221 O 0.43053 0.78826 0.98076 0.0
O222 O 0.38791 0.79255 0.94995 0.0
O223 O 0.38326 0.72597 0.96315 0.0
C224 C 0.41842 0.77215 0.02982 0.0
C225 C 0.28426 0.84299 0.03 0.0
C226 C 0.29275 0.85979 1.01221 0.0
C227 C 0.3934 0.83688 0.05757 0.0
C228 C 0.38238 0.85767 0.07155 0.0
C229 C 0.35683 0.85814 0.0763 0.0
C230 C 0.39737 0.87767 0.07967 0.0
C231 C 0.38668 0.89808 0.09189 0.0
C232 C 0.34623 0.87821 0.08834 0.0
C233 C 0.36095 0.89807 0.09599 0.0
C234 C 0.35407 0.75156 0.01477 0.0
C235 C 0.37175 0.80242 0.96439 0.0
C236 C 0.38362 0.73177 0.93977 0.0
C237 C 0.39317 0.71268 0.92273 0.0
C238 C 0.41655 0.70231 0.92699 0.0
C239 C 0.37872 0.70414 0.90255 0.0
C240 C 0.38753 0.68497 0.88715 0.0
C241 C 0.42547 0.68374 0.91163 0.0
C242 C 0.41111 0.67506 0.89197 0.0
C243 C 0.42928 0.81216 0.98546 0.0
H244 H 0.34494 0.84307 0.07082 0.0
H245 H 0.41714 0.87752 0.07617 0.0
H246 H 0.32647 0.87833 0.0918 0.0
H247 H 0.35224 0.91332 0.10553 0.0
H248 H 0.42784 0.70838 0.94235 0.0
H249 H 0.36054 0.71192 0.89924 0.0
H250 H 0.44357 0.67588 0.91509 0.0
H251 H 0.41856 0.66059 0.88038 0.0
Gd252 Gd 0.47091 0.12678 0.27176 0.0
Gd253 Gd 0.51699 0.14578 0.22657 0.0
C254 C 0.56407 0.21157 0.25172 0.0
C255 C 0.5531 0.24323 0.22163 0.0
C256 C 0.53442 0.20215 0.21936 0.0
C257 C 0.54753 0.19492 0.24011 0.0
C258 C 0.53786 0.22605 0.20927 0.0
C259 C 0.56612 0.23603 0.24289 0.0
C260 C 0.57896 0.20278 0.27102 0.0
C261 C 0.578 0.17769 0.27742 0.0
N262 N 0.54582 0.17092 0.24751 0.0
C263 C 0.56151 0.16183 0.26509 0.0
H264 H 0.5609 0.14247 0.27008 0.0
C265 C 0.511 0.18955 0.18456 0.0
N266 N 0.52022 0.18496 0.20768 0.0
C267 C 0.5139 0.21299 0.17375 0.0
C268 C 0.52696 0.2315 0.1864 0.0
H269 H 0.50081 0.17525 0.17485 0.0
H270 H 0.57852 0.24918 0.25174 0.0
H271 H 0.42694 0.14566 0.22764 0.0
H272 H 0.59189 0.21499 0.28042 0.0
H273 H 0.58991 0.17054 0.29187 0.0
H274 H 0.55571 0.26181 0.21437 0.0
H275 H 0.49342 0.07729 0.30419 0.0
H276 H 0.37891 0.08508 0.21375 0.0
H277 H 0.39111 0.12868 0.20726 0.0
H278 H 0.41275 0.01855 0.26052 0.0
H279 H 0.50602 0.21678 0.15574 0.0
H280 H 0.52926 0.24961 0.17795 0.0
H281 H 0.3868 0.04455 0.23392 0.0
H282 H 0.48519 0.03329 0.30885 0.0
N283 N 0.43658 0.11237 0.24739 0.0
C284 C 0.39506 0.09247 0.22321 0.0
C285 C 0.40184 0.11707 0.21957 0.0
C286 C 0.40933 0.0776 0.23874 0.0
C287 C 0.43041 0.08802 0.25054 0.0
C288 C 0.42255 0.12675 0.23176 0.0
N289 N 0.46558 0.08331 0.2764 0.0
C290 C 0.44535 0.07314 0.26523 0.0
C291 C 0.47408 0.04413 0.29618 0.0
C292 C 0.4541 0.03327 0.28404 0.0
C293 C 0.47914 0.06931 0.29272 0.0
C294 C 0.43912 0.04783 0.26884 0.0
H295 H 0.44993 0.01382 0.28713 0.0
O296 O 0.47238 0.12064 0.3114 0.0
O297 O 0.50654 0.14763 0.26675 0.0
O298 O 0.53099 0.11195 0.24626 0.0
O299 O 0.50836 0.11059 0.2826 0.0
O300 O 0.47847 0.16558 0.28497 0.0
O301 O 0.43793 0.13348 0.29406 0.0
O302 O 0.52571 0.13397 0.18909 0.0
O303 O 0.48862 0.11714 0.23618 0.0
O304 O 0.45603 0.16123 0.25292 0.0
O305 O 0.48711 0.17507 0.22584 0.0
O306 O 0.48661 0.13232 0.20109 0.0
O307 O 0.55398 0.13321 0.2172 0.0
C308 C 0.50155 0.16709 0.27895 0.0
C309 C 0.41784 0.03784 0.25773 0.0
C310 C 0.40302 0.05266 0.24267 0.0
C311 C 0.44937 0.12715 0.31435 0.0
C312 C 0.43734 0.12717 0.33886 0.0
C313 C 0.4494 0.11607 0.35902 0.0
C314 C 0.41412 0.13848 0.34247 0.0
C315 C 0.40325 0.13895 0.36615 0.0
C316 C 0.43859 0.11619 0.38237 0.0
C317 C 0.41574 0.12752 0.38596 0.0
C318 C 0.52728 0.10349 0.26881 0.0
C319 C 0.47768 0.11549 0.21561 0.0
C320 C 0.54902 0.13029 0.19385 0.0
C321 C 0.567 0.14102 0.1762 0.0
C322 C 0.57657 0.16497 0.17992 0.0
C323 C 0.57505 0.12718 0.1557 0.0
C324 C 0.5928 0.13716 0.1392 0.0
C325 C 0.5937 0.17511 0.16344 0.0
C326 C 0.60179 0.16137 0.14328 0.0
C327 C 0.46509 0.17716 0.23641 0.0
H328 H 0.4672 0.1072 0.35677 0.0
H329 H 0.40481 0.14735 0.32708 0.0
H330 H 0.44797 0.10747 0.39777 0.0
H331 H 0.40772 0.12709 0.40427 0.0
H332 H 0.57099 0.17578 0.19566 0.0
H333 H 0.56796 0.10853 0.15295 0.0
H334 H 0.60086 0.19366 0.16641 0.0
H335 H 0.61507 0.16977 0.13076 0.0
Gd336 Gd 0.65987 0.30465 0.50352 0.0
Gd337 Gd 0.63567 0.25535 0.5457 0.0
C338 C 0.56892 0.2094 0.51988 0.0
C339 C 0.5367 0.22273 0.54803 0.0
C340 C 0.57858 0.23929 0.55171 0.0
C341 C 0.58586 0.22566 0.53153 0.0
C342 C 0.55418 0.23724 0.56083 0.0
C343 C 0.54407 0.20881 0.52755 0.0
C344 C 0.57779 0.19311 0.50198 0.0
C345 C 0.60317 0.19231 0.49719 0.0
N346 N 0.61017 0.22612 0.52519 0.0
C347 C 0.61924 0.20868 0.5094 0.0
H348 H 0.63877 0.20772 0.50542 0.0
C349 C 0.59128 0.26171 0.58698 0.0
N350 N 0.59611 0.25253 0.56398 0.0
C351 C 0.56729 0.26048 0.59667 0.0
C352 C 0.5485 0.24867 0.58326 0.0
H353 H 0.60577 0.27104 0.59728 0.0
H354 H 0.5307 0.19674 0.51855 0.0
H355 H 0.64382 0.3447 0.54892 0.0
H356 H 0.56542 0.18027 0.49267 0.0
H357 H 0.61039 0.17914 0.48406 0.0
H358 H 0.51776 0.22121 0.5545 0.0
H359 H 0.7026 0.2917 0.46084 0.0
H360 H 0.70812 0.3851 0.57139 0.0
H361 H 0.6633 0.37606 0.57512 0.0
H362 H 0.77134 0.35601 0.51707 0.0
H363 H 0.56331 0.26865 0.61444 0.0
H364 H 0.52998 0.24753 0.59089 0.0
H365 H 0.74844 0.37707 0.55006 0.0
H366 H 0.74682 0.30026 0.45252 0.0
N367 N 0.67707 0.33543 0.52982 0.0
C368 C 0.69958 0.37132 0.55952 0.0
C369 C 0.67431 0.36628 0.56166 0.0
C370 C 0.71348 0.35876 0.54186 0.0
C371 C 0.70148 0.34091 0.52691 0.0
C372 C 0.66327 0.34835 0.54654 0.0
N373 N 0.70195 0.31264 0.4941 0.0
C374 C 0.71442 0.32886 0.50868 0.0
C375 C 0.73803 0.30822 0.46856 0.0
C376 C 0.75153 0.32361 0.48438 0.0
C377 C 0.71304 0.30332 0.47344 0.0
C378 C 0.73963 0.33458 0.50445 0.0
H379 H 0.77086 0.32754 0.48049 0.0
O380 O 0.65982 0.31804 0.46551 0.0
O381 O 0.63211 0.27382 0.50828 0.0
O382 O 0.66529 0.23947 0.52149 0.0
O383 O 0.68502 0.27084 0.49847 0.0
O384 O 0.64938 0.27804 0.47392 0.0
O385 O 0.63811 0.33692 0.49281 0.0
O386 O 0.64607 0.24567 0.58345 0.0
O387 O 0.66507 0.28383 0.53867 0.0
O388 O 0.62393 0.31714 0.52202 0.0
O389 O 0.6075 0.28566 0.54713 0.0
O390 O 0.65127 0.28211 0.57405 0.0
O391 O 0.65063 0.21897 0.55432 0.0
C392 C 0.6334 0.26525 0.48635 0.0
C393 C 0.75191 0.35161 0.51984 0.0
C394 C 0.73886 0.36367 0.53855 0.0
C395 C 0.64586 0.33709 0.47006 0.0
C396 C 0.65434 0.36135 0.46007 0.0
C397 C 0.6789 0.36914 0.46395 0.0
C398 C 0.63817 0.37675 0.44629 0.0
C399 C 0.64694 0.39934 0.43603 0.0
C400 C 0.68747 0.39151 0.45412 0.0
C401 C 0.67172 0.40642 0.44015 0.0
C402 C 0.68271 0.24748 0.50626 0.0
C403 C 0.6678 0.2924 0.56018 0.0
C404 C 0.65182 0.22298 0.57802 0.0
C405 C 0.64149 0.20348 0.59433 0.0
C406 C 0.61847 0.19255 0.58883 0.0
C407 C 0.65459 0.1957 0.61557 0.0
C408 C 0.64489 0.17679 0.631 0.0
C409 C 0.60868 0.17408 0.60409 0.0
C410 C 0.62174 0.16621 0.62495 0.0
C411 C 0.60693 0.3081 0.53738 0.0
H412 H 0.69157 0.35786 0.47442 0.0
H413 H 0.61914 0.37099 0.44318 0.0
H414 H 0.70649 0.39726 0.45723 0.0
H415 H 0.67887 0.4237 0.43265 0.0
H416 H 0.60808 0.19825 0.57269 0.0
H417 H 0.67242 0.20407 0.61983 0.0
H418 H 0.59086 0.16581 0.59974 0.0
H419 H 0.6135 0.152 0.63657 0.0
Gd420 Gd 0.01341 0.37683 0.80332 0.0
Gd421 Gd 0.97474 0.40531 0.75326 0.0
C422 C 0.99744 0.47342 0.70822 0.0
C423 C 0.9693 0.50474 0.72367 0.0
C424 C 0.96732 0.46258 0.73961 0.0
C425 C 0.98675 0.45591 0.72449 0.0
C426 C 0.95809 0.48696 0.73911 0.0
C427 C 0.98895 0.49799 0.70826 0.0
C428 C 0.01577 0.46551 0.69185 0.0
C429 C 0.02217 0.44049 0.69125 0.0
N430 N 0.99417 0.43193 0.72463 0.0
C431 C 0.01074 0.42378 0.70752 0.0
H432 H 0.01563 0.40445 0.70663 0.0
C433 C 0.93615 0.44996 0.76771 0.0
N434 N 0.95688 0.44492 0.75421 0.0
C435 C 0.92639 0.47391 0.76796 0.0
C436 C 0.93755 0.49257 0.75378 0.0
H437 H 0.92755 0.43564 0.77882 0.0
H438 H 0.99706 0.51175 0.69602 0.0
H439 H 0.97004 0.38335 0.84708 0.0
H440 H 0.02454 0.47839 0.67913 0.0
H441 H 0.03586 0.43404 0.67823 0.0
H442 H 0.96259 0.52362 0.72314 0.0
H443 H 0.06092 0.34175 0.78618 0.0
H444 H 0.95237 0.31195 0.877 0.0
H445 H 0.94609 0.35734 0.87597 0.0
H446 H 0.01091 0.25868 0.83778 0.0
H447 H 0.9103 0.47797 0.7791 0.0
H448 H 0.92992 0.51109 0.75395 0.0
H449 H 0.9763 0.27508 0.86218 0.0
H450 H 0.07379 0.29785 0.78824 0.0
N451 N 0.98957 0.3531 0.83139 0.0
C452 C 0.96299 0.32331 0.86426 0.0
C453 C 0.95947 0.34892 0.86378 0.0
C454 C 0.98083 0.3128 0.84889 0.0
C455 C 0.99413 0.32844 0.83264 0.0
C456 C 0.97312 0.36363 0.84729 0.0
N457 N 0.02728 0.33552 0.80568 0.0
C458 C 0.01352 0.31927 0.81905 0.0
C459 C 0.05668 0.30356 0.79683 0.0
C460 C 0.04187 0.28627 0.8093 0.0
C461 C 0.04936 0.32836 0.7957 0.0
C462 C 0.02033 0.29415 0.82119 0.0
H463 H 0.04774 0.26713 0.81046 0.0
O464 O 0.05073 0.38207 0.81783 0.0
O465 O 0.0119 0.40378 0.77204 0.0
O466 O 0.99955 0.37577 0.73793 0.0
O467 O 0.01227 0.35013 0.77076 0.0
O468 O 0.04591 0.38776 0.7799 0.0
O469 O 0.01944 0.39524 0.8386 0.0
O470 O 0.9368 0.39611 0.74244 0.0
O471 O 0.97836 0.37645 0.7823 0.0
O472 O 0.98953 0.40946 0.81619 0.0
O473 O 0.98281 0.43448 0.78169 0.0
O474 O 0.94413 0.39192 0.77926 0.0
O475 O 0.96679 0.39021 0.71683 0.0
C476 C 0.03456 0.40298 0.76552 0.0
C477 C 1.00618 0.2781 0.83611 0.0
C478 C 0.9865 0.28745 0.85003 0.0
C479 C 0.04328 0.39152 0.83863 0.0
C480 C 0.05368 0.38043 0.86139 0.0
C481 C 0.05174 0.35477 0.86524 0.0
C482 C 0.06516 0.3953 0.8796 0.0
C483 C 0.07423 0.38446 0.90163 0.0
C484 C 0.06085 0.34398 0.88679 0.0
C485 C 0.07196 0.35865 0.90487 0.0
C486 C 1.00862 0.35482 0.74688 0.0
C487 C 0.95665 0.37503 0.79048 0.0
C488 C 0.94283 0.38922 0.72023 0.0
C489 C 0.92692 0.39834 0.6998 0.0
C490 C 0.9319 0.42149 0.689 0.0
C491 C 0.90676 0.38389 0.69082 0.0
C492 C 0.89209 0.39243 0.67079 0.0
C493 C 0.91737 0.4301 0.66949 0.0
C494 C 0.89775 0.41576 0.66041 0.0
C495 C 0.98417 0.43119 0.80584 0.0
H496 H 0.04319 0.34301 0.85161 0.0
H497 H 0.06661 0.41518 0.87685 0.0
H498 H 0.05927 0.32413 0.88949 0.0
H499 H 0.07904 0.34972 0.92138 0.0
H500 H 0.94709 0.43289 0.6956 0.0
H501 H 0.90284 0.36596 0.69907 0.0
H502 H 0.92137 0.44803 0.6613 0.0
H503 H 0.88674 0.42312 0.64536 0.0
Gd504 Gd 0.86656 0.72693 1.00822 0.0
Gd505 Gd 0.89196 0.77345 0.05191 0.0
C506 C 0.96064 0.81746 0.02775 0.0
C507 C 0.99199 0.80246 0.0563 0.0
C508 C 0.9495 0.78737 0.05909 0.0
C509 C 0.94298 0.80164 0.03896 0.0
C510 C 0.97384 0.78834 0.06862 0.0
C511 C 0.98539 0.81701 0.03585 0.0
C512 C 0.9526 0.83435 1.00984 0.0
C513 C 0.92733 0.8362 1.00469 0.0
N514 N 0.91875 0.80217 0.03222 0.0
C515 C 0.91052 0.82024 0.0165 0.0
H516 H 0.8911 0.82198 1.01219 0.0
C517 C 0.93564 0.76443 0.0937 0.0
N518 N 0.93137 0.77447 0.07084 0.0
C519 C 0.95952 0.76464 0.10382 0.0
C520 C 0.97885 0.77619 0.09095 0.0
H521 H 0.92075 0.75523 0.10354 0.0
H522 H 0.99929 0.82874 0.02721 0.0
H523 H 0.8828 0.6869 0.05429 0.0
H524 H 0.96555 0.84684 1.0008 0.0
H525 H 0.92076 0.84984 0.99156 0.0
H526 H 0.01089 0.80316 0.06311 0.0
H527 H 0.82244 0.74372 0.96799 0.0
H528 H 0.82187 0.63849 0.06848 0.0
H529 H 0.86504 0.65173 0.07653 0.0
H530 H 0.7588 0.66707 0.0134 0.0
H531 H 0.963 0.75587 0.12148 0.0
H532 H 0.9973 0.77649 0.0989 0.0
H533 H 0.78274 0.64385 0.04432 0.0
H534 H 0.77897 0.73363 0.95822 0.0
N535 N 0.85001 0.6948 0.03352 0.0
C536 C 0.82953 0.65429 0.05863 0.0
C537 C 0.8539 0.66165 0.06315 0.0
C538 C 0.81543 0.66722 0.04126 0.0
C539 C 0.82618 0.68785 0.02908 0.0
C540 C 0.86398 0.68177 0.0502 0.0
N541 N 0.8243 0.71935 0.99905 0.0
C542 C 0.81277 0.70082 1.01164 0.0
C543 C 0.78812 0.72445 0.97349 0.0
C544 C 0.77577 0.70602 0.98684 0.0
C545 C 0.81266 0.73041 0.97942 0.0
C546 C 0.78828 0.69347 1.0057 0.0
H547 H 0.75695 0.70097 0.98181 0.0
O548 O 0.8637 0.71376 0.9703 0.0
O549 O 0.89535 0.75652 0.01392 0.0
O550 O 0.86297 0.79156 0.02829 0.0
O551 O 0.84275 0.76184 1.00386 0.0
O552 O 0.87716 0.75491 0.97978 0.0
O553 O 0.88989 0.6969 0.99514 0.0
O554 O 0.88228 0.78263 0.08987 0.0
O555 O 0.86153 0.74625 0.04398 0.0
O556 O 0.90239 0.7127 0.02584 0.0
O557 O 0.91931 0.74236 0.05259 0.0
O558 O 0.87585 0.74582 0.07924 0.0
O559 O 0.87777 0.80987 0.06096 0.0
C560 C 0.89398 0.76631 0.99246 0.0
C561 C 0.77751 0.67306 0.01781 0.0
C562 C 0.79118 0.65977 0.03533 0.0
C563 C 0.87945 0.69582 0.97348 0.0
C564 C 0.87173 0.67077 0.96508 0.0
C565 C 0.8472 0.6627 0.96851 0.0
C566 C 0.88895 0.65444 0.95422 0.0
C567 C 0.88165 0.63011 0.94753 0.0
C568 C 0.83996 0.63875 0.96203 0.0
C569 C 0.85702 0.62253 0.95175 0.0
C570 C 0.84556 0.78478 0.01248 0.0
C571 C 0.85892 0.73663 0.06509 0.0
C572 C 0.87698 0.80553 0.08464 0.0
C573 C 0.88806 0.82462 0.10081 0.0
C574 C 0.9107 0.8359 0.09445 0.0
C575 C 0.87579 0.83203 0.12252 0.0
C576 C 0.88581 0.85111 0.13732 0.0
C577 C 0.92079 0.85456 0.10922 0.0
C578 C 0.90838 0.86227 0.1304 0.0
C579 C 0.91951 0.72051 0.04173 0.0
H580 H 0.83352 0.67488 0.97613 0.0
H581 H 0.90793 0.66048 0.95133 0.0
H582 H 0.82099 0.63277 0.9649 0.0
H583 H 0.8508 0.60411 0.94661 0.0
H584 H 0.92048 0.83046 0.07794 0.0
H585 H 0.8583 0.82342 0.12755 0.0
H586 H 0.93823 0.8632 0.10414 0.0
H587 H 0.91653 0.87686 0.14154 0.0
Gd588 Gd 0.55095 0.61716 0.2559 0.0
Gd589 Gd 0.5032 0.64257 0.29903 0.0
C590 C 0.45722 0.71174 0.28377 0.0
C591 C 0.47432 0.74104 0.31339 0.0
C592 C 0.49027 0.69906 0.31128 0.0
C593 C 0.47403 0.69366 0.29224 0.0
C594 C 0.49031 0.72265 0.3224 0.0
C595 C 0.45782 0.7356 0.29408 0.0
C596 C 0.43974 0.70504 0.26582 0.0
C597 C 0.43859 0.68055 0.25765 0.0
N598 N 0.47358 0.67026 0.28309 0.0
C599 C 0.45539 0.6632 0.26695 0.0
H600 H 0.45397 0.64428 0.26072 0.0
C601 C 0.52006 0.68451 0.3399 0.0
N602 N 0.50545 0.68087 0.31955 0.0
C603 C 0.5208 0.70763 0.35151 0.0
C604 C 0.50605 0.72687 0.34257 0.0
H605 H 0.53159 0.66976 0.34683 0.0
H606 H 0.44518 0.74978 0.2877 0.0
H607 H 0.59601 0.62235 0.29873 0.0
H608 H 0.42658 0.71839 0.25874 0.0
H609 H 0.42471 0.67498 0.24428 0.0
H610 H 0.47419 0.75934 0.32156 0.0
H611 H 0.53229 0.58412 0.20733 0.0
H612 H 0.62754 0.55099 0.31127 0.0
H613 H 0.62569 0.59579 0.32059 0.0
H614 H 0.58775 0.50018 0.25029 0.0
H615 H 0.53277 0.71059 0.36731 0.0
H616 H 0.50663 0.74474 0.35163 0.0
H617 H 0.61283 0.51523 0.2853 0.0
H618 H 0.53475 0.54111 0.1918 0.0
N619 N 0.58036 0.59295 0.27744 0.0
C620 C 0.61441 0.56261 0.30154 0.0
C621 C 0.61344 0.58788 0.30681 0.0
C622 C 0.59896 0.5528 0.28319 0.0
C623 C 0.58212 0.56873 0.27117 0.0
C624 C 0.59647 0.60292 0.2943 0.0
N625 N 0.55359 0.57676 0.23958 0.0
C626 C 0.568 0.56026 0.25172 0.0
C627 C 0.54403 0.54617 0.20881 0.0
C628 C 0.5576 0.52855 0.22199 0.0
C629 C 0.54266 0.57045 0.21764 0.0
C630 C 0.57029 0.53564 0.24343 0.0
H631 H 0.55886 0.5098 0.215 0.0
O632 O 0.56527 0.62317 0.21873 0.0
O633 O 0.51987 0.64332 0.26123 0.0
O634 O 0.48546 0.61523 0.2732 0.0
O635 O 0.51632 0.59215 0.25322 0.0
O636 O 0.52681 0.63186 0.22542 0.0
O637 O 0.58482 0.63867 0.24981 0.0
O638 O 0.49517 0.63042 0.33664 0.0
O639 O 0.53127 0.61315 0.29175 0.0
O640 O 0.56517 0.64846 0.28104 0.0
O641 O 0.53114 0.67259 0.29134 0.0
O642 O 0.53146 0.62811 0.32656 0.0
O643 O 0.46683 0.62762 0.30855 0.0
C644 C 0.51287 0.64557 0.23887 0.0
C645 C 0.58596 0.51926 0.25617 0.0
C646 C 0.60028 0.52784 0.27605 0.0
C647 C 0.58519 0.63484 0.22609 0.0
C648 C 0.60907 0.62624 0.21574 0.0
C649 C 0.61502 0.60102 0.21724 0.0
C650 C 0.62624 0.64296 0.20474 0.0
C651 C 0.64929 0.63435 0.19569 0.0
C652 C 0.63749 0.59243 0.20817 0.0
C653 C 0.65446 0.60886 0.19753 0.0
C654 C 0.49284 0.5963 0.25966 0.0
C655 C 0.54095 0.61121 0.31286 0.0
C656 C 0.47214 0.62477 0.33193 0.0
C657 C 0.45358 0.6334 0.35007 0.0
C658 C 0.44269 0.65678 0.3472 0.0
C659 C 0.44668 0.61835 0.37047 0.0
C660 C 0.42875 0.62661 0.38752 0.0
C661 C 0.42508 0.66499 0.36408 0.0
C662 C 0.41807 0.65002 0.38402 0.0
C663 C 0.55522 0.66975 0.28818 0.0
H664 H 0.60226 0.58789 0.2254 0.0
H665 H 0.62188 0.66251 0.20363 0.0
H666 H 0.64178 0.57289 0.20938 0.0
H667 H 0.67165 0.60149 0.19043 0.0
H668 H 0.44773 0.66866 0.33185 0.0
H669 H 0.45501 0.60028 0.37293 0.0
H670 H 0.41675 0.68304 0.36166 0.0
H671 H 0.40429 0.65676 0.39683 0.0
Gd672 Gd 0.25577 0.46629 0.12023 0.0
Gd673 Gd 0.21453 0.51298 0.14956 0.0
C674 C 0.23768 0.55238 0.22067 0.0
C675 C 0.20746 0.53653 0.25008 0.0
C676 C 0.2059 0.5236 0.20715 0.0
C677 C 0.22664 0.53778 0.20202 0.0
C678 C 0.1955 0.52348 0.231 0.0
C679 C 0.22856 0.55095 0.24492 0.0
C680 C 0.25658 0.56901 0.21407 0.0
C681 C 0.26282 0.5719 0.18922 0.0
N682 N 0.23432 0.53934 0.17824 0.0
C683 C 0.25094 0.55728 0.17139 0.0
H684 H 0.2557 0.55992 0.15221 0.0
C685 C 0.17153 0.50148 0.19113 0.0
N686 N 0.19459 0.51172 0.18815 0.0
C687 C 0.1605 0.50071 0.21448 0.0
C688 C 0.17279 0.51131 0.23463 0.0
H689 H 0.16206 0.49315 0.1756 0.0
H690 H 0.23699 0.56177 0.25956 0.0
H691 H 0.21151 0.42381 0.13476 0.0
H692 H 0.26561 0.58052 0.22782 0.0
H693 H 0.27671 0.58541 0.18375 0.0
H694 H 0.19995 0.53642 0.26862 0.0
H695 H 0.2974 0.4839 0.07833 0.0
H696 H 0.19021 0.38548 0.06924 0.0
H697 H 0.18617 0.39222 0.11418 0.0
H698 H 0.24375 0.41997 1.00744 0.0
H699 H 0.14257 0.49192 0.21692 0.0
H700 H 0.16414 0.51083 0.25267 0.0
H701 H 0.21162 0.39611 0.02949 0.0
H702 H 0.30606 0.4781 0.0339 0.0
N703 N 0.23014 0.43554 0.10195 0.0
C704 C 0.20158 0.39943 0.07823 0.0
C705 C 0.19929 0.40315 0.10358 0.0
C706 C 0.21884 0.41347 0.06485 0.0
C707 C 0.23312 0.43147 0.07743 0.0
C708 C 0.2139 0.42119 0.11523 0.0
N709 N 0.26499 0.46127 0.07802 0.0
C710 C 0.25096 0.44498 0.06501 0.0
C711 C 0.29032 0.46887 0.04232 0.0
C712 C 0.2751 0.45328 0.02831 0.0
C713 C 0.28526 0.47226 0.06739 0.0
C714 C 0.25543 0.44069 0.03972 0.0
H715 H 0.27916 0.45048 1.00894 0.0
O716 O 0.29458 0.45576 0.12033 0.0
O717 O 0.25248 0.49527 0.1495 0.0
O718 O 0.23907 0.531 0.12123 0.0
O719 O 0.2554 0.50052 0.09518 0.0
O720 O 0.28561 0.49335 0.12945 0.0
O721 O 0.26756 0.43253 0.13885 0.0
O722 O 0.17777 0.52346 0.13664 0.0
O723 O 0.22021 0.48609 0.1193 0.0
O724 O 0.23835 0.45111 0.15565 0.0
O725 O 0.21555 0.48142 0.17647 0.0
O726 O 0.1853 0.48666 0.13423 0.0
O727 O 0.20674 0.55108 0.13885 0.0
C728 C 0.27416 0.50459 0.14697 0.0
C729 C 0.24076 0.42338 0.02691 0.0
C730 C 0.22251 0.40975 0.03947 0.0
C731 C 0.29059 0.43498 0.13205 0.0
C732 C 0.30247 0.41267 0.12194 0.0
C733 C 0.30161 0.40775 0.09653 0.0
C734 C 0.31507 0.39623 0.13779 0.0
C735 C 0.32716 0.37527 0.1282 0.0
C736 C 0.31331 0.38693 0.08699 0.0
C737 C 0.32609 0.37084 0.10264 0.0
C738 C 0.25001 0.52391 0.10062 0.0
C739 C 0.19876 0.47712 0.11714 0.0
C740 C 0.18336 0.54682 0.13433 0.0
C741 C 0.1654 0.5644 0.1448 0.0
C742 C 0.16658 0.57062 0.16988 0.0
C743 C 0.14667 0.57473 0.12979 0.0
C744 C 0.12924 0.59137 0.13979 0.0
C745 C 0.14933 0.5868 0.17995 0.0
C746 C 0.13082 0.59706 0.16512 0.0
C747 C 0.22483 0.45893 0.1745 0.0
H748 H 0.29204 0.42001 0.08402 0.0
H749 H 0.31585 0.4 0.15744 0.0
H750 H 0.31254 0.38328 0.06736 0.0
H751 H 0.33493 0.35473 0.09477 0.0
H752 H 0.18081 0.56296 0.1817 0.0
H753 H 0.1459 0.57005 0.11035 0.0
H754 H 0.15026 0.59137 0.19938 0.0
H755 H 0.1175 0.60927 0.17364 0.0
Gd756 Gd 0.72153 0.0215 0.86829 0.0
Gd757 Gd 0.76942 0.06301 0.89602 0.0
C758 C 0.81087 0.04204 0.96656 0.0
C759 C 0.79544 0.07231 0.9958 0.0
C760 C 0.78093 0.07258 0.95326 0.0
C761 C 0.79557 0.05231 0.94806 0.0
C762 C 0.78124 0.08327 0.97698 0.0
C763 C 0.81018 0.05168 0.99062 0.0
C764 C 0.82722 0.02314 0.96007 0.0
C765 C 0.82902 0.01598 0.9354 0.0
N766 N 0.79641 0.044 0.92444 0.0
C767 C 0.81382 0.02712 0.91765 0.0
H768 H 0.81563 0.02165 0.89859 0.0
C769 C 0.75559 0.10484 0.93788 0.0
N770 N 0.76756 0.08283 0.9346 0.0
C771 C 0.75525 0.11605 0.96113 0.0
C772 C 0.76787 0.10506 0.98085 0.0
H773 H 0.74584 0.11338 0.92266 0.0
H774 H 0.82162 0.04388 1.00512 0.0
H775 H 0.68211 0.06736 0.8862 0.0
H776 H 0.83919 0.01466 0.97375 0.0
H777 H 0.84218 1.00195 0.93002 0.0
H778 H 0.79571 0.08007 0.01423 0.0
H779 H 0.73762 0.98301 0.82283 0.0
H780 H 0.63607 0.08635 0.82533 0.0
H781 H 0.64803 0.09118 0.86905 0.0
H782 H 0.66678 0.0366 0.75931 0.0
H783 H 0.74529 0.13318 0.96381 0.0
H784 H 0.76765 0.11385 0.9988 0.0
H785 H 0.64394 0.06678 0.78422 0.0
H786 H 0.72875 0.97635 0.77867 0.0
N787 N 0.69017 0.0481 0.85271 0.0
C788 C 0.65133 0.07566 0.83273 0.0
C789 C 0.65793 0.07834 0.85743 0.0
C790 C 0.66448 0.05926 0.81786 0.0
C791 C 0.68386 0.04537 0.82856 0.0
C792 C 0.67738 0.06439 0.86717 0.0
N793 N 0.7142 0.0145 0.82581 0.0
C794 C 0.69663 0.02841 0.81457 0.0
C795 C 0.71978 0.99126 0.78844 0.0
C796 C 0.70265 1.00626 0.77631 0.0
C797 C 0.72495 0.99531 0.8134 0.0
C798 C 0.69043 0.02476 0.78948 0.0
H799 H 0.69842 1.0029 0.75703 0.0
O800 O 0.70784 0.98372 0.8638 0.0
O801 O 0.75149 0.02503 0.89666 0.0
O802 O 0.78728 0.03889 0.86751 0.0
O803 O 0.75621 0.01905 0.84417 0.0
O804 O 0.74821 0.99149 0.87775 0.0
O805 O 0.69131 1.00747 0.89107 0.0
O806 O 0.77974 0.10015 0.8838 0.0
O807 O 0.74226 0.05687 0.86562 0.0
O808 O 0.70745 0.03845 0.90428 0.0
O809 O 0.73986 0.05881 0.92481 0.0
O810 O 0.74309 0.09188 0.88034 0.0
O811 O 0.80768 0.07184 0.88619 0.0
C812 C 0.7603 1.00325 0.89468 0.0
C813 C 0.6717 0.03905 0.77856 0.0
C814 C 0.65866 0.05618 0.79276 0.0
C815 C 0.68995 0.98628 0.87969 0.0
C816 C 0.6649 0.97846 0.87168 0.0
C817 C 0.65647 0.98412 0.84779 0.0
C818 C 0.64888 0.96595 0.88816 0.0
C819 C 0.62449 0.9597 0.88088 0.0
C820 C 0.63241 0.97799 0.84053 0.0
C821 C 0.61646 0.96597 0.85695 0.0
C822 C 0.77965 0.02566 0.8484 0.0
C823 C 0.73357 0.0783 0.86318 0.0
C824 C 0.80326 0.09525 0.88209 0.0
C825 C 0.82016 0.11354 0.89373 0.0
C826 C 0.82465 0.11238 0.91917 0.0
C827 C 0.83085 0.13305 0.87975 0.0
C828 C 0.84548 0.15168 0.89132 0.0
C829 C 0.83853 0.13077 0.93082 0.0
C830 C 0.84854 0.15037 0.9172 0.0
C831 C 0.71685 0.05037 0.92363 0.0
H832 H 0.66844 0.99325 0.83469 0.0
H833 H 0.65522 0.96146 0.90665 0.0
H834 H 0.62611 0.98252 0.82207 0.0
H835 H 0.59791 0.96119 0.8508 0.0
H836 H 0.81719 0.0974 0.93014 0.0
H837 H 0.82781 0.1335 0.85998 0.0
H838 H 0.84136 0.12995 0.95061 0.0
H839 H 0.85847 0.16464 0.92722 0.0
Gd840 Gd 0.81331 0.01125 0.38119 0.0
Gd841 Gd 0.76535 0.96594 0.3967 0.0
C842 C 0.71646 0.99062 0.46045 0.0
C843 C 0.72635 0.96037 0.49231 0.0
C844 C 0.74611 0.95823 0.45208 0.0
C845 C 0.73339 0.97908 0.44447 0.0
C846 C 0.74199 0.94806 0.47575 0.0
C847 C 0.71366 0.98167 0.48469 0.0
C848 C 0.70195 1.00998 0.45119 0.0
C849 C 0.70362 0.01644 0.42624 0.0
N850 N 0.73584 0.98662 0.42067 0.0
C851 C 0.72049 1.00419 0.41106 0.0
H852 H 0.72163 1.00917 0.39179 0.0
C853 C 0.76973 0.92343 0.44038 0.0
N854 N 0.76072 0.94659 0.43546 0.0
C855 C 0.76628 0.91262 0.46365 0.0
C856 C 0.75274 0.9252 0.48159 0.0
H857 H 0.78029 0.91376 0.42652 0.0
H858 H 0.70094 0.99046 0.49734 0.0
H859 H 0.85511 0.96407 0.39558 0.0
H860 H 0.68874 0.01936 0.46287 0.0
H861 H 0.69196 0.03086 0.41869 0.0
H862 H 0.72321 0.95304 0.51071 0.0
H863 H 0.79155 0.04896 0.33472 0.0
H864 H 0.90474 0.95722 0.33566 0.0
H865 H 0.89119 0.94544 0.37753 0.0
H866 H 0.8729 0.01155 0.2741 0.0
H867 H 0.77406 0.89463 0.46774 0.0
H868 H 0.74997 0.91673 0.49955 0.0
H869 H 0.89837 0.98255 0.29787 0.0
H870 H 0.80039 0.05801 0.29181 0.0
N871 N 0.84689 0.98789 0.36473 0.0
C872 C 0.88856 0.96589 0.34358 0.0
C873 C 0.88101 0.95926 0.36719 0.0
C874 C 0.87494 0.98332 0.33028 0.0
C875 C 0.85376 0.99398 0.34127 0.0
C876 C 0.86026 0.97045 0.37756 0.0
N877 N 0.81915 0.02066 0.33864 0.0
C878 C 0.83941 0.01052 0.32784 0.0
C879 C 0.81126 0.04427 0.30152 0.0
C880 C 0.83144 0.03344 0.29007 0.0
C881 C 0.80576 0.0382 0.32598 0.0
C882 C 0.84608 0.01678 0.30329 0.0
H883 H 0.83597 0.0386 0.27124 0.0
O884 O 0.81649 0.05137 0.37771 0.0
O885 O 0.77657 1.00609 0.39996 0.0
O886 O 0.75388 0.98662 0.36241 0.0
O887 O 0.7764 0.02327 0.36451 0.0
O888 O 0.80414 0.02312 0.41987 0.0
O889 O 0.84575 0.03042 0.39544 0.0
O890 O 0.75573 0.92843 0.38484 0.0
O891 O 0.7953 0.97581 0.37015 0.0
O892 O 0.82732 0.98886 0.41366 0.0
O893 O 0.79384 0.96474 0.4274 0.0
O894 O 0.7953 0.93999 0.38383 0.0
O895 O 0.7289 0.95762 0.38154 0.0
C896 C 0.78089 0.01765 0.41994 0.0
C897 C 0.86743 1.0067 0.29276 0.0
C898 C 0.88193 0.99021 0.3063 0.0
C899 C 0.83861 0.05207 0.38756 0.0
C900 C 0.85787 0.0677 0.37571 0.0
C901 C 0.85479 0.07712 0.35171 0.0
C902 C 0.8796 0.0737 0.38899 0.0
C903 C 0.89822 0.08875 0.37835 0.0
C904 C 0.87318 0.09189 0.341 0.0
C905 C 0.89472 0.0977 0.35415 0.0
C906 C 0.75788 1.00974 0.35547 0.0
C907 C 0.80554 0.95496 0.36819 0.0
C908 C 0.73295 0.93397 0.37937 0.0
C909 C 0.71348 0.91715 0.38901 0.0
C910 C 0.70305 0.9214 0.41231 0.0
C911 C 0.70471 0.89708 0.3747 0.0
C912 C 0.68534 0.88168 0.38352 0.0
C913 C 0.68428 0.90598 0.4213 0.0
C914 C 0.67541 0.88633 0.40704 0.0
C915 C 0.81679 0.97331 0.42955 0.0
H916 H 0.83815 0.07335 0.34125 0.0
H917 H 0.88203 0.06652 0.40756 0.0
H918 H 0.87062 0.0991 0.32249 0.0
H919 H 0.9084 0.10967 0.34551 0.0
H920 H 0.70921 0.93681 0.42346 0.0
H921 H 0.71249 0.89386 0.35656 0.0
H922 H 0.67643 0.90939 0.43934 0.0
H923 H 0.6608 0.87465 0.41449 0.0
Gd924 Gd 0.26119 0.54704 0.6213 0.0
Gd925 Gd 0.30501 0.50246 0.64921 0.0
C926 C 0.29484 0.46194 0.72275 0.0
C927 C 0.32666 0.4811 0.74834 0.0
C928 C 0.32142 0.49396 0.70556 0.0
C929 C 0.30197 0.47737 0.70286 0.0
C930 C 0.33414 0.49589 0.72827 0.0
C931 C 0.30703 0.46416 0.74559 0.0
C932 C 0.27611 0.44428 0.71887 0.0
C933 C 0.26572 0.44171 0.69539 0.0
N934 N 0.29084 0.47544 0.68043 0.0
C935 C 0.27373 0.45719 0.67619 0.0
H936 H 0.26597 0.45461 0.65803 0.0
C937 C 0.34812 0.52369 0.6872 0.0
N938 N 0.32809 0.50806 0.68581 0.0
C939 C 0.36125 0.5263 0.70935 0.0
C940 C 0.35415 0.51245 0.73003 0.0
H941 H 0.35374 0.53457 0.67141 0.0
H942 H 0.30173 0.45256 0.76111 0.0
H943 H 0.30595 0.59076 0.62679 0.0
H944 H 0.27004 0.43213 0.73368 0.0
H945 H 0.25167 0.4277 0.692 0.0
H946 H 0.33612 0.48239 0.76597 0.0
H947 H 0.21612 0.52335 0.58649 0.0
H948 H 0.30879 0.63276 0.56003 0.0
H949 H 0.32349 0.625 0.60258 0.0
H950 H 0.24748 0.59382 0.50882 0.0
H951 H 0.37683 0.539 0.71047 0.0
H952 H 0.36438 0.51451 0.74716 0.0
H953 H 0.28026 0.6211 0.52522 0.0
H954 H 0.19885 0.52819 0.54447 0.0
N955 N 0.28201 0.57792 0.59804 0.0
C956 C 0.30122 0.6173 0.57046 0.0
C957 C 0.30951 0.61302 0.59448 0.0
C958 C 0.28306 0.60177 0.56028 0.0
C959 C 0.27378 0.58194 0.57468 0.0
C960 C 0.29942 0.59342 0.60819 0.0
N961 N 0.24539 0.54938 0.58078 0.0
C962 C 0.25517 0.56687 0.5656 0.0
C963 C 0.21482 0.53906 0.55007 0.0
C964 C 0.22526 0.5564 0.5339 0.0
C965 C 0.22478 0.53624 0.57376 0.0
C966 C 0.24529 0.571 0.54179 0.0
H967 H 0.2172 0.55896 0.51573 0.0
O968 O 0.22283 0.55799 0.62611 0.0
O969 O 0.2664 0.51821 0.65039 0.0
O970 O 0.27836 0.48263 0.62432 0.0
O971 O 0.26158 0.51183 0.59708 0.0
O972 O 0.23155 0.52089 0.63383 0.0
O973 O 0.25224 0.58121 0.64057 0.0
O974 O 0.34195 0.49247 0.63666 0.0
O975 O 0.29727 0.52846 0.61798 0.0
O976 O 0.28431 0.56375 0.6533 0.0
O977 O 0.29746 0.531 0.67802 0.0
O978 O 0.33237 0.52991 0.632 0.0
O979 O 0.31272 0.46484 0.63729 0.0
C980 C 0.24439 0.50922 0.65014 0.0
C981 C 0.25486 0.5903 0.52712 0.0
C982 C 0.2735 0.60584 0.53648 0.0
C983 C 0.22851 0.57909 0.63643 0.0
C984 C 0.21599 0.60134 0.62661 0.0
C985 C 0.21189 0.604 0.60114 0.0
C986 C 0.20807 0.62017 0.64271 0.0
C987 C 0.1964 0.64161 0.63332 0.0
C988 C 0.20051 0.62514 0.59175 0.0
C989 C 0.19283 0.64382 0.60765 0.0
C990 C 0.26643 0.48848 0.60378 0.0
C991 C 0.31819 0.53841 0.61487 0.0
C992 C 0.33619 0.46925 0.63321 0.0
C993 C 0.35407 0.45083 0.64264 0.0
C994 C 0.35165 0.44126 0.66663 0.0
C995 C 0.37369 0.4426 0.62755 0.0
C996 C 0.39051 0.42456 0.63628 0.0
C997 C 0.36833 0.42367 0.67545 0.0
C998 C 0.38753 0.41533 0.66045 0.0
C999 C 0.29296 0.55475 0.67456 0.0
H1000 H 0.21724 0.58968 0.58845 0.0
H1001 H 0.21115 0.61822 0.6624 0.0
H1002 H 0.19744 0.62696 0.57207 0.0
H1003 H 0.1836 0.65981 0.59984 0.0
H1004 H 0.33683 0.4473 0.67852 0.0
H1005 H 0.37557 0.44989 0.60896 0.0
H1006 H 0.36634 0.41644 0.69402 0.0
H1007 H 0.40029 0.4018 0.66792 0.0
H1008 H 0.14428 0.29578 0.55655 0.0
H1009 H 0.1685 0.33229 0.56832 0.0
H1010 H 0.21871 0.31894 0.50799 0.0
H1011 H 0.19548 0.28108 0.49752 0.0
H1012 H 0.24322 0.34028 0.54274 0.0
H1013 H 0.15756 0.39419 0.53094 0.0
H1014 H 0.15353 0.37185 0.55514 0.0
H1015 H 0.1589 0.3616 0.52392 0.0
C1016 C 0.16127 0.29993 0.54666 0.0
C1017 C 0.16835 0.28534 0.5265 0.0
C1018 C 0.17473 0.32122 0.55293 0.0
C1019 C 0.19473 0.32919 0.53828 0.0
C1020 C 0.20311 0.31348 0.51938 0.0
H1021 H 0.24019 0.48703 0.55911 0.0
H1022 H 0.22405 0.4497 0.53805 0.0
C1023 C 0.19007 0.29161 0.51361 0.0
C1024 C 0.20595 0.35434 0.54203 0.0
H1025 H 0.19106 0.41506 0.55219 0.0
C1026 C 0.23177 0.35663 0.54447 0.0
C1027 C 0.19131 0.37611 0.54328 0.0
C1028 C 0.16384 0.37586 0.53786 0.0
C1029 C 0.24309 0.37958 0.54977 0.0
C1030 C 0.22816 0.40075 0.55374 0.0
C1031 C 0.20254 0.39885 0.54963 0.0
C1032 C 0.23838 0.42381 0.56517 0.0
C1033 C 0.27101 0.38078 0.55127 0.0
C1034 C 0.25127 0.42183 0.58751 0.0
C1035 C 0.26052 0.44279 0.59927 0.0
C1036 C 0.25675 0.46679 0.58952 0.0
C1037 C 0.24349 0.46899 0.5672 0.0
C1038 C 0.23429 0.44764 0.55515 0.0
H1039 H 0.27951 0.36734 0.53836 0.0
H1040 H 0.27821 0.39961 0.54688 0.0
H1041 H 0.27701 0.37565 0.57022 0.0
H1042 H 0.25392 0.40393 0.59621 0.0
H1043 H 0.27045 0.43986 0.61639 0.0
H1044 H 0.81913 0.05028 0.82997 0.0
H1045 H 0.85784 0.03218 0.81557 0.0
H1046 H 0.82546 0.95903 0.82186 0.0
H1047 H 0.78623 0.97736 0.83527 0.0
H1048 H 0.88589 1.00322 0.84349 0.0
H1049 H 0.86166 0.9527 0.75755 0.0
H1050 H 0.84115 0.97499 0.77131 0.0
H1051 H 0.84306 0.94405 0.78366 0.0
C1052 C 0.82 0.03041 0.82728 0.0
C1053 C 0.79967 0.01521 0.83335 0.0
C1054 C 0.84219 0.02005 0.81933 0.0
C1055 C 0.84467 0.99422 0.81763 0.0
C1056 C 0.82393 0.97901 0.82252 0.0
H1057 H 0.99109 0.92297 0.82056 0.0
H1058 H 0.95142 0.94067 0.83328 0.0
C1059 C 0.80146 0.98948 0.83007 0.0
C1060 C 0.86956 0.98354 0.81285 0.0
H1061 H 0.90186 0.94611 0.77396 0.0
C1062 C 0.88939 0.99078 0.82822 0.0
C1063 C 0.87415 0.96726 0.793 0.0
C1064 C 0.85395 0.95944 0.77529 0.0
C1065 C 0.9137 0.98267 0.82398 0.0
C1066 C 0.91827 0.96632 0.80419 0.0
C1067 C 0.89836 0.95866 0.78914 0.0
C1068 C 0.94362 0.95776 0.79785 0.0
C1069 C 0.93432 0.99235 0.84026 0.0
C1070 C 0.95268 0.96175 0.7739 0.0
C1071 C 0.97506 0.95136 0.76655 0.0
C1072 C 0.989 0.9368 0.783 0.0
C1073 C 0.98084 0.93417 0.8075 0.0
C1074 C 0.95814 0.94431 0.81479 0.0
H1075 H 0.92886 1.00951 0.85009 0.0
H1076 H 0.93891 0.97814 0.85437 0.0
H1077 H 0.95129 0.99636 0.82933 0.0
H1078 H 0.94198 0.97223 0.76057 0.0
H1079 H 0.98092 0.95382 0.74756 0.0
H1080 H 0.3421 0.7381 0.06267 0.0
H1081 H 0.32207 0.69922 0.07564 0.0
H1082 H 0.3118 0.67894 0.99924 0.0
H1083 H 0.32991 0.71801 0.98633 0.0
H1084 H 0.27405 0.66487 0.02282 0.0
H1085 H 0.35635 0.63418 0.07599 0.0
H1086 H 0.34321 0.66217 0.0878 0.0
H1087 H 0.3566 0.66195 0.05737 0.0
C1088 C 0.33492 0.72566 0.0487 0.0
C1089 C 0.33789 0.73108 0.02347 0.0
C1090 C 0.32392 0.70319 0.05612 0.0
C1091 C 0.3162 0.6857 0.0384 0.0
C1092 C 0.31781 0.69191 0.01331 0.0
H1093 H 0.29302 0.5281 0.07348 0.0
H1094 H 0.30948 0.56639 0.0547 0.0
C1095 C 0.32827 0.71436 1.00595 0.0
C1096 C 0.30672 0.66071 0.04544 0.0
H1097 H 0.32057 0.60825 0.07808 0.0
C1098 C 0.28435 0.6525 0.03482 0.0
C1099 C 0.32043 0.64419 0.06053 0.0
C1100 C 0.3456 0.65093 0.07086 0.0
C1101 C 0.27518 0.62849 0.03902 0.0
C1102 C 0.28805 0.61253 0.05532 0.0
C1103 C 0.31063 0.62051 0.06567 0.0
C1104 C 0.27732 0.58847 0.06352 0.0
C1105 C 0.25198 0.62041 0.02553 0.0
C1106 C 0.25368 0.58803 0.07417 0.0
C1107 C 0.24416 0.56625 0.08426 0.0
C1108 C 0.25824 0.54444 0.08451 0.0
C1109 C 0.28156 0.54447 0.07307 0.0
C1110 C 0.29109 0.56642 0.06267 0.0
H1111 H 0.25029 0.63011 1.00746 0.0
H1112 H 0.2517 0.60012 0.0222 0.0
H1113 H 0.23552 0.62534 0.03669 0.0
H1114 H 0.24294 0.60483 0.07571 0.0
H1115 H 0.22614 0.56682 0.09303 0.0
H1116 H 0.5614 0.07634 0.24446 0.0
H1117 H 0.60048 0.06082 0.26065 0.0
H1118 H 0.57994 0.08423 0.33385 0.0
H1119 H 0.54018 0.09914 0.31782 0.0
H1120 H 0.63553 0.09094 0.28176 0.0
H1121 H 0.60779 0.01544 0.34643 0.0
H1122 H 0.58672 0.02815 0.32382 0.0
H1123 H 0.59334 0.04484 0.35176 0.0
C1124 C 0.5649 0.07768 0.26413 0.0
C1125 C 0.54785 0.08928 0.27982 0.0
C1126 C 0.58732 0.06891 0.27332 0.0
C1127 C 0.59323 0.07155 0.29839 0.0
C1128 C 0.57567 0.08181 0.31445 0.0
H1129 H 0.74693 0.05945 0.35172 0.0
H1130 H 0.70745 0.07683 0.33784 0.0
C1131 C 0.55297 0.09037 0.30526 0.0
C1132 C 0.61845 0.06501 0.30699 0.0
H1133 H 0.65035 0.02575 0.34472 0.0
C1134 C 0.63882 0.07671 0.29557 0.0
C1135 C 0.62262 0.0465 0.32501 0.0
C1136 C 0.60151 0.03282 0.33737 0.0
C1137 C 0.66326 0.06991 0.30119 0.0
C1138 C 0.66742 0.05125 0.31906 0.0
C1139 C 0.64707 0.04005 0.33098 0.0
C1140 C 0.69254 0.04186 0.32477 0.0
C1141 C 0.68432 0.0821 0.28731 0.0
C1142 C 0.69749 0.01662 0.32148 0.0
C1143 C 0.71977 1.00663 0.32971 0.0
C1144 C 0.73761 0.02166 0.34145 0.0
C1145 C 0.73349 0.04732 0.34298 0.0
C1146 C 0.71094 0.05731 0.33498 0.0
H1147 H 0.67776 0.09172 0.27036 0.0
H1148 H 0.69338 0.09608 0.29937 0.0
H1149 H 0.69846 0.06826 0.28201 0.0
H1150 H 0.68366 1.00443 0.31338 0.0
H1151 H 0.72247 0.98683 0.32795 0.0
H1152 H 0.69421 0.23762 0.45786 0.0
H1153 H 0.70982 0.19791 0.44203 0.0
H1154 H 0.7218 0.17257 0.51671 0.0
H1155 H 0.70553 0.21158 0.5324 0.0
H1156 H 0.75227 0.17012 0.44618 0.0
H1157 H 0.67478 0.12001 0.49137 0.0
H1158 H 0.67584 0.15337 0.48899 0.0
H1159 H 0.69283 0.13766 0.51299 0.0
C1160 C 0.70089 0.22382 0.47079 0.0
C1161 C 0.6987 0.22767 0.49635 0.0
C1162 C 0.70955 0.20102 0.46177 0.0
C1163 C 0.71623 0.18184 0.47819 0.0
C1164 C 0.71601 0.18665 0.50365 0.0
H1165 H 0.77657 0.03313 0.46755 0.0
H1166 H 0.75888 0.07256 0.48165 0.0
C1167 C 0.70708 0.20914 0.5126 0.0
C1168 C 0.72257 0.15651 0.46906 0.0
H1169 H 0.70763 0.09498 0.47593 0.0
C1170 C 0.74237 0.15374 0.45253 0.0
C1171 C 0.70953 0.135 0.47714 0.0
C1172 C 0.6869 0.13663 0.49338 0.0
C1173 C 0.75 0.13014 0.44461 0.0
C1174 C 0.73744 0.10866 0.45331 0.0
C1175 C 0.71741 0.1114 0.46949 0.0
C1176 C 0.74499 0.08327 0.44568 0.0
C1177 C 0.77183 0.12825 0.42737 0.0
C1178 C 0.74208 0.07567 0.4211 0.0
C1179 C 0.75191 0.05313 0.41318 0.0
C1180 C 0.76461 0.03745 0.42964 0.0
C1181 C 0.76639 0.04451 0.45455 0.0
C1182 C 0.75647 0.06711 0.46256 0.0
H1183 H 0.78232 0.146 0.42599 0.0
H1184 H 0.78464 0.11347 0.43363 0.0
H1185 H 0.76509 0.12328 0.40864 0.0
H1186 H 0.73306 0.08765 0.40778 0.0
H1187 H 0.75055 0.04857 0.39388 0.0
H1188 H 0.04142 0.45348 0.76191 0.0
H1189 H 0.078 0.47354 0.74291 0.0
H1190 H 0.09907 0.40362 0.71129 0.0
H1191 H 0.06282 0.3838 0.73002 0.0
H1192 H 0.13582 0.42837 0.74491 0.0
H1193 H 0.10125 0.48853 0.6686 0.0
H1194 H 0.08514 0.48874 0.69774 0.0
H1195 H 0.08417 0.46149 0.67896 0.0
C1196 C 0.05317 0.44277 0.74983 0.0
C1197 C 0.04893 0.41718 0.74696 0.0
C1198 C 0.07429 0.45414 0.73926 0.0
C1199 C 0.09151 0.44002 0.72584 0.0
C1200 C 0.08621 0.41491 0.72159 0.0
H1201 H 0.21925 0.46855 0.63681 0.0
H1202 H 0.18318 0.45147 0.65826 0.0
C1203 C 0.06525 0.40366 0.73203 0.0
C1204 C 0.11614 0.45039 0.71814 0.0
H1205 H 0.14446 0.48757 0.67519 0.0
C1206 C 0.1377 0.44155 0.72985 0.0
C1207 C 0.11866 0.46745 0.69842 0.0
C1208 C 0.09618 0.47716 0.685 0.0
C1209 C 0.16161 0.44904 0.72214 0.0
C1210 C 0.16414 0.46574 0.70212 0.0
C1211 C 0.14257 0.47485 0.69063 0.0
C1212 C 0.18889 0.47268 0.69158 0.0
C1213 C 0.18409 0.43843 0.73481 0.0
C1214 C 0.20512 0.48929 0.70367 0.0
C1215 C 0.2262 0.49887 0.69144 0.0
C1216 C 0.23137 0.49189 0.667 0.0
C1217 C 0.21617 0.47378 0.65586 0.0
C1218 C 0.19526 0.4643 0.66797 0.0
H1219 H 0.1791 0.42397 0.74863 0.0
H1220 H 0.19676 0.43027 0.72095 0.0
H1221 H 0.19439 0.45352 0.74433 0.0
H1222 H 0.20056 0.49614 0.72186 0.0
H1223 H 0.23698 0.51344 0.70017 0.0
H1224 H 0.75497 0.99918 0.94512 0.0
H1225 H 0.76953 0.96367 0.97004 0.0
H1226 H 0.81148 0.93748 0.90788 0.0
H1227 H 0.79701 0.97248 0.88318 0.0
H1228 H 0.76629 0.90577 0.93366 0.0
H1229 H 0.84671 0.93663 0.99081 0.0
H1230 H 0.82065 0.95686 0.98554 0.0
H1231 H 0.84124 0.95003 0.96066 0.0
C1232 C 0.76821 0.98646 0.93726 0.0
C1233 C 0.77516 0.9887 0.91235 0.0
C1234 C 0.77629 0.96605 0.95137 0.0
C1235 C 0.79143 0.94785 0.94069 0.0
C1236 C 0.79983 0.95126 0.91647 0.0
H1237 H 0.83215 0.7935 0.96429 0.0
H1238 H 0.81708 0.83286 0.94716 0.0
C1239 C 0.79171 0.97138 0.90244 0.0
C1240 C 0.79611 0.92375 0.95322 0.0
H1241 H 0.83634 0.89408 0.99187 0.0
C1242 C 0.78144 0.90319 0.9466 0.0
C1243 C 0.81589 0.92048 0.96996 0.0
C1244 C 0.83217 0.94206 0.97732 0.0
C1245 C 0.7861 0.87937 0.9562 0.0
C1246 C 0.8064 0.87583 0.97246 0.0
C1247 C 0.82081 0.89661 0.97937 0.0
C1248 C 0.81307 0.8509 0.98263 0.0
C1249 C 0.769 0.85834 0.94902 0.0
C1250 C 0.81575 0.84765 1.00823 0.0
C1251 C 0.8245 0.8253 0.01793 0.0
C1252 C 0.83067 0.80547 1.00234 0.0
C1253 C 0.8269 0.80817 0.9768 0.0
C1254 C 0.81839 0.83077 0.96701 0.0
H1255 H 0.75059 0.86524 0.943 0.0
H1256 H 0.77721 0.84814 0.93331 0.0
H1257 H 0.76627 0.84514 0.96458 0.0
H1258 H 0.81177 0.86274 0.02073 0.0
H1259 H 0.82745 0.82386 0.03769 0.0
H1260 H 0.45254 0.58145 0.28517 0.0
H1261 H 0.41367 0.56505 0.26857 0.0
H1262 H 0.44664 0.56014 0.19637 0.0
H1263 H 0.48591 0.57697 0.21297 0.0
H1264 H 0.39053 0.59298 0.22135 0.0
H1265 H 0.40453 0.49082 0.21713 0.0
H1266 H 0.42 0.50967 0.24009 0.0
H1267 H 0.42945 0.51161 0.20846 0.0
C1268 C 0.45178 0.57629 0.26586 0.0
C1269 C 0.47235 0.5804 0.25038 0.0
C1270 C 0.42949 0.56702 0.25641 0.0
C1271 C 0.42722 0.56152 0.23127 0.0
C1272 C 0.44809 0.5642 0.2159 0.0
H1273 H 0.30332 0.54279 0.13475 0.0
H1274 H 0.33841 0.55883 0.1584 0.0
C1275 C 0.47059 0.57353 0.22542 0.0
C1276 C 0.40242 0.55498 0.2211 0.0
H1277 H 0.36591 0.50605 0.20364 0.0
C1278 C 0.38512 0.57399 0.21743 0.0
C1279 C 0.3953 0.53019 0.21648 0.0
C1280 C 0.41314 0.50923 0.22074 0.0
C1281 C 0.361 0.56887 0.20878 0.0
C1282 C 0.354 0.54408 0.20359 0.0
C1283 C 0.37118 0.52503 0.20779 0.0
C1284 C 0.32997 0.53779 0.19145 0.0
C1285 C 0.34316 0.59002 0.2053 0.0
C1286 C 0.31296 0.52113 0.20237 0.0
C1287 C 0.29245 0.51221 0.18888 0.0
C1288 C 0.28898 0.51965 0.16424 0.0
C1289 C 0.30529 0.53725 0.15392 0.0
C1290 C 0.32542 0.54636 0.16741 0.0
H1291 H 0.34852 0.60631 0.21667 0.0
H1292 H 0.3433 0.59588 0.18563 0.0
H1293 H 0.32395 0.58431 0.21015 0.0
H1294 H 0.31621 0.51415 0.22087 0.0
H1295 H 0.28057 0.4981 0.19697 0.0
H1296 H 0.50831 0.21568 0.29122 0.0
H1297 H 0.52896 0.23201 0.32842 0.0
H1298 H 0.55053 0.1579 0.34885 0.0
H1299 H 0.52989 0.14176 0.31198 0.0
H1300 H 0.52731 0.18463 0.38767 0.0
H1301 H 0.60372 0.2391 0.34448 0.0
H1302 H 0.57318 0.2445 0.3323 0.0
H1303 H 0.58731 0.21476 0.32835 0.0
C1304 C 0.51808 0.20304 0.30333 0.0
C1305 C 0.51816 0.17752 0.29825 0.0
C1306 C 0.52978 0.21233 0.32464 0.0
C1307 C 0.54146 0.19621 0.34147 0.0
C1308 C 0.54174 0.17075 0.33621 0.0
H1309 H 0.64665 0.22939 0.45543 0.0
H1310 H 0.62179 0.21131 0.42237 0.0
C1311 C 0.5302 0.16154 0.31491 0.0
C1312 C 0.55267 0.20559 0.36496 0.0
H1313 H 0.5996 0.24187 0.38767 0.0
C1314 C 0.54304 0.19726 0.3877 0.0
C1315 C 0.57334 0.22186 0.36504 0.0
C1316 C 0.58521 0.23052 0.3413 0.0
C1317 C 0.55358 0.2047 0.41042 0.0
C1318 C 0.57419 0.22106 0.41047 0.0
C1319 C 0.58367 0.22949 0.38771 0.0
C1320 C 0.58753 0.22843 0.4336 0.0
C1321 C 0.5432 0.19434 0.43417 0.0
C1322 C 0.57638 0.24322 0.45186 0.0
C1323 C 0.59067 0.25334 0.47127 0.0
C1324 C 0.61627 0.24879 0.47258 0.0
C1325 C 0.6269 0.23287 0.45512 0.0
C1326 C 0.61272 0.22269 0.43605 0.0
H1327 H 0.52991 0.17887 0.43086 0.0
H1328 H 0.55842 0.18758 0.44622 0.0
H1329 H 0.53339 0.20921 0.44423 0.0
H1330 H 0.55704 0.24823 0.45026 0.0
H1331 H 0.58218 0.26616 0.48401 0.0
H1332 H 0.07525 0.28875 0.53439 0.0
H1333 H 0.05604 0.30377 0.57233 0.0
H1334 H 0.06991 0.23333 0.60748 0.0
H1335 H 0.08845 0.21807 0.56944 0.0
H1336 H 0.02502 0.25301 0.62108 0.0
H1337 H 0.10133 0.32203 0.63044 0.0
H1338 H 0.08388 0.32474 0.60229 0.0
H1339 H 0.10196 0.29742 0.60798 0.0
C1340 C 0.07335 0.27617 0.54981 0.0
C1341 C 0.08334 0.25225 0.5489 0.0
C1342 C 0.06276 0.28491 0.57167 0.0
C1343 C 0.06215 0.26985 0.59291 0.0
C1344 C 0.07039 0.24534 0.5914 0.0
H1345 H 0.05173 0.32841 0.74305 0.0
H1346 H 0.06498 0.30404 0.70723 0.0
C1347 C 0.08094 0.23665 0.56963 0.0
C1348 C 0.05447 0.27989 0.61713 0.0
H1349 H 0.06919 0.32377 0.66015 0.0
C1350 C 0.03467 0.26847 0.62965 0.0
C1351 C 0.06756 0.2996 0.62858 0.0
C1352 C 0.09002 0.31154 0.61679 0.0
C1353 C 0.02714 0.27671 0.653 0.0
C1354 C 0.03949 0.29714 0.66393 0.0
C1355 C 0.05971 0.30813 0.65172 0.0
C1356 C 0.0306 0.30866 0.68705 0.0
C1357 C 1.00612 0.26335 0.66583 0.0
C1358 C 1.00683 0.31894 0.68772 0.0
C1359 C 0.99928 0.33259 0.70811 0.0
C1360 C 0.01533 0.33631 0.72823 0.0
C1361 C 0.03879 0.32525 0.72809 0.0
C1362 C 0.04644 0.3116 0.70752 0.0
H1363 H 1.00415 0.24397 0.65918 0.0
H1364 H 1.0089 0.26302 0.68616 0.0
H1365 H 0.98851 0.27308 0.6618 0.0
H1366 H 0.9945 0.3174 0.67198 0.0
H1367 H 0.98115 0.3411 0.70773 0.0
H1368 H 0.02306 0.80708 0.79789 0.0
H1369 H 1.00211 0.79169 0.83538 0.0
H1370 H 0.98587 0.86684 0.85636 0.0
H1371 H 1.00689 0.88204 0.81931 0.0
H1372 H 1.00813 0.83678 0.89496 0.0
H1373 H 0.92676 0.78981 0.85151 0.0
H1374 H 0.95655 0.78674 0.83694 0.0
H1375 H 0.94173 0.81641 0.83768 0.0
C1376 C 0.01446 0.82019 0.81025 0.0
C1377 C 0.01585 0.84573 0.80521 0.0
C1378 C 1.00258 0.81143 0.8317 0.0
C1379 C 0.99219 0.8281 0.84868 0.0
C1380 C 0.99358 0.85359 0.84357 0.0
H1381 H 0.88417 0.80327 0.9612 0.0
H1382 H 0.91094 0.8195 0.92867 0.0
C1383 C 1.00533 0.86228 0.82216 0.0
C1384 C 0.98045 0.81922 0.87211 0.0
H1385 H 0.92985 0.78812 0.8945 0.0
C1386 C 0.99111 0.82597 0.8949 0.0
C1387 C 0.95811 0.80537 0.87208 0.0
C1388 C 0.94492 0.79911 0.84832 0.0
C1389 C 0.97989 0.8194 0.91756 0.0
C1390 C 0.95753 0.80552 0.91746 0.0
C1391 C 0.94711 0.79856 0.89465 0.0
C1392 C 0.94343 0.79934 0.94045 0.0
C1393 C 0.99148 0.82813 0.94139 0.0
C1394 C 0.95304 0.7835 0.95887 0.0
C1395 C 0.93769 0.77451 0.978 0.0
C1396 C 0.91257 0.78118 0.9788 0.0
C1397 C 0.90356 0.79812 0.96122 0.0
C1398 C 0.91881 0.80725 0.94248 0.0
H1399 H 1.00585 0.84265 0.93821 0.0
H1400 H 0.97715 0.83562 0.95395 0.0
H1401 H 1.00037 0.8122 0.95083 0.0
H1402 H 0.97186 0.77683 0.95758 0.0
H1403 H 0.94489 0.76094 0.9909 0.0
H1404 H 0.51033 0.69613 0.23535 0.0
H1405 H 0.49014 0.71822 0.20102 0.0
H1406 H 0.45384 0.65035 0.17893 0.0
H1407 H 0.47423 0.62842 0.21274 0.0
H1408 H 0.48267 0.67041 0.142 0.0
H1409 H 0.42091 0.7424 0.18054 0.0
H1410 H 0.45179 0.74219 0.19309 0.0
H1411 H 0.43148 0.71623 0.19855 0.0
C1412 C 0.49694 0.68632 0.22399 0.0
C1413 C 0.49339 0.66066 0.22711 0.0
C1414 C 0.48558 0.69889 0.20416 0.0
C1415 C 0.47048 0.68597 0.18716 0.0
C1416 C 0.46539 0.66079 0.19163 0.0
H1417 H 0.38941 0.7432 0.05956 0.0
H1418 H 0.40226 0.72117 0.097 0.0
C1419 C 0.47678 0.64831 0.21124 0.0
C1420 C 0.46265 0.69743 0.16315 0.0
H1421 H 0.42871 0.74427 0.13733 0.0
C1422 C 0.47082 0.68655 0.14104 0.0
C1423 C 0.4471 0.7184 0.16173 0.0
C1424 C 0.43708 0.73043 0.1847 0.0
C1425 C 0.46407 0.69609 0.11773 0.0
C1426 C 0.44887 0.7173 0.1163 0.0
C1427 C 0.44047 0.72808 0.13837 0.0
C1428 C 0.44141 0.72849 0.09208 0.0
C1429 C 0.4729 0.68315 0.09475 0.0
C1430 C 0.45912 0.73944 0.07635 0.0
C1431 C 0.45175 0.75197 0.05477 0.0
C1432 C 0.42658 0.75346 0.04826 0.0
C1433 C 0.40898 0.74174 0.06358 0.0
C1434 C 0.4163 0.7294 0.08522 0.0
H1435 H 0.47984 0.66423 0.09884 0.0
H1436 H 0.45774 0.68176 0.08089 0.0
H1437 H 0.48825 0.69407 0.08637 0.0
H1438 H 0.47857 0.7393 0.08133 0.0
H1439 H 0.46563 0.76146 0.04374 0.0
H1440 H 0.18259 0.34534 0.3839 0.0
H1441 H 0.20553 0.36437 0.34949 0.0
H1442 H 0.1489 0.33966 0.29871 0.0
H1443 H 0.12638 0.32009 0.33272 0.0
H1444 H 0.19623 0.33599 0.27907 0.0
H1445 H 0.18019 0.42917 0.31955 0.0
H1446 H 0.1967 0.40767 0.33882 0.0
H1447 H 0.16484 0.40164 0.33099 0.0
C1448 C 0.17536 0.34349 0.36531 0.0
C1449 C 0.15248 0.33154 0.36108 0.0
C1450 C 0.18835 0.35458 0.34571 0.0
C1451 C 0.17865 0.35391 0.32158 0.0
C1452 C 0.15666 0.3406 0.31716 0.0
H1453 H 0.18237 0.45391 0.20086 0.0
H1454 H 0.1747 0.42774 0.23682 0.0
C1455 C 0.14373 0.32955 0.33666 0.0
C1456 C 0.19008 0.36846 0.30112 0.0
H1457 H 0.19981 0.42785 0.28102 0.0
C1458 C 0.19734 0.35606 0.27957 0.0
C1459 C 0.19122 0.39469 0.30172 0.0
C1460 C 0.18267 0.40918 0.32388 0.0
C1461 C 0.20502 0.36918 0.25837 0.0
C1462 C 0.20579 0.3954 0.25888 0.0
C1463 C 0.19931 0.40774 0.2807 0.0
C1464 C 0.21084 0.4106 0.23644 0.0
C1465 C 0.21105 0.35493 0.23525 0.0
C1466 C 0.23367 0.4096 0.224 0.0
C1467 C 0.23811 0.4248 0.20334 0.0
C1468 C 0.21991 0.44146 0.19509 0.0
C1469 C 0.19701 0.44198 0.20729 0.0
C1470 C 0.19254 0.42681 0.22774 0.0
H1471 H 0.20484 0.33528 0.23645 0.0
H1472 H 0.20224 0.36363 0.21885 0.0
H1473 H 0.23141 0.35517 0.23239 0.0
H1474 H 0.24821 0.39749 0.23055 0.0
H1475 H 0.25598 0.42406 0.1943 0.0
H1476 H 0.96015 0.90808 0.61382 0.0
H1477 H 0.94332 0.92784 0.57649 0.0
H1478 H 0.86922 0.90863 0.59971 0.0
H1479 H 0.88576 0.88945 0.63712 0.0
H1480 H 0.91479 0.90468 0.53964 0.0
H1481 H 0.86281 0.98188 0.58165 0.0
H1482 H 0.88633 0.9649 0.59826 0.0
H1483 H 0.85548 0.95234 0.59525 0.0
C1484 C 0.94025 0.90847 0.61116 0.0
C1485 C 0.9243 0.89712 0.62842 0.0
C1486 C 0.93068 0.91964 0.58977 0.0
C1487 C 0.90499 0.91997 0.58544 0.0
C1488 C 0.88906 0.90899 0.60283 0.0
H1489 H 0.79902 0.95443 0.47303 0.0
H1490 H 0.82233 0.94226 0.50966 0.0
C1491 C 0.89858 0.89778 0.6241 0.0
C1492 C 0.8947 0.93043 0.56216 0.0
H1493 H 0.85208 0.97149 0.53999 0.0
C1494 C 0.90136 0.91954 0.53963 0.0
C1495 C 0.87717 0.94982 0.56219 0.0
C1496 C 0.87019 0.9631 0.58561 0.0
C1497 C 0.89006 0.92669 0.51729 0.0
C1498 C 0.87193 0.94553 0.51745 0.0
C1499 C 0.86588 0.95695 0.53989 0.0
C1500 C 0.85809 0.95281 0.49481 0.0
C1501 C 0.89683 0.91325 0.49389 0.0
C1502 C 0.87035 0.96306 0.47427 0.0
C1503 C 0.85701 0.96973 0.45305 0.0
C1504 C 0.83113 0.96626 0.45195 0.0
C1505 C 0.81894 0.95652 0.4728 0.0
C1506 C 0.83225 0.94984 0.49394 0.0
H1507 H 0.90688 0.89575 0.49776 0.0
H1508 H 0.88 0.90884 0.48284 0.0
H1509 H 0.90905 0.92533 0.48252 0.0
H1510 H 0.89021 0.96608 0.47472 0.0
H1511 H 0.86702 0.97758 0.43754 0.0
H1512 H 0.3032 0.54193 0.72232 0.0
H1513 H 0.3165 0.56833 0.75618 0.0
H1514 H 0.30906 0.63281 0.70962 0.0
H1515 H 0.29615 0.60615 0.67496 0.0
H1516 H 0.35958 0.60168 0.75412 0.0
H1517 H 0.27164 0.65019 0.7761 0.0
H1518 H 0.27199 0.62108 0.75969 0.0
H1519 H 0.28136 0.64908 0.74431 0.0
C1520 C 0.30444 0.56169 0.71902 0.0
C1521 C 0.29895 0.57175 0.69558 0.0
C1522 C 0.31193 0.57683 0.7386 0.0
C1523 C 0.31375 0.6026 0.7356 0.0
C1524 C 0.30759 0.61298 0.71249 0.0
H1525 H 0.36409 0.71 0.84922 0.0
H1526 H 0.3454 0.69194 0.81172 0.0
C1527 C 0.30024 0.5977 0.69266 0.0
C1528 C 0.32342 0.61801 0.75646 0.0
H1529 H 0.30628 0.65911 0.80129 0.0
C1530 C 0.34795 0.61438 0.7643 0.0
C1531 C 0.30836 0.63473 0.7697 0.0
C1532 C 0.2818 0.63906 0.76224 0.0
C1533 C 0.35773 0.62663 0.7851 0.0
C1534 C 0.34238 0.64252 0.79909 0.0
C1535 C 0.31804 0.64683 0.79078 0.0
C1536 C 0.35119 0.65383 0.82283 0.0
C1537 C 0.38456 0.62245 0.79178 0.0
C1538 C 0.35969 0.63855 0.8421 0.0
C1539 C 0.37042 0.64879 0.86334 0.0
C1540 C 0.37264 0.67464 0.86615 0.0
C1541 C 0.36265 0.69003 0.84763 0.0
C1542 C 0.35205 0.67971 0.82615 0.0
H1543 H 0.3955 0.61659 0.77548 0.0
H1544 H 0.3932 0.63947 0.79956 0.0
H1545 H 0.38571 0.60746 0.80582 0.0
H1546 H 0.35859 0.61857 0.84046 0.0
H1547 H 0.37755 0.6364 0.87742 0.0
H1548 H 0.64085 0.13296 0.12423 0.0
H1549 H 0.65668 0.11247 0.08741 0.0
H1550 H 0.5828 0.08758 0.06908 0.0
H1551 H 0.56666 0.1085 0.10593 0.0
H1552 H 0.65312 0.06148 0.07253 0.0
H1553 H 0.60663 0.12531 1.0062 0.0
H1554 H 0.61006 0.13271 0.03853 0.0
H1555 H 0.58748 0.11013 0.02892 0.0
C1556 C 0.62791 0.12318 0.11237 0.0
C1557 C 0.60242 0.12265 0.11789 0.0
C1558 C 0.63702 0.11135 0.09138 0.0
C1559 C 0.62091 0.0988 0.07526 0.0
C1560 C 0.59554 0.09748 0.08105 0.0
H1561 H 0.66603 0.04489 0.92789 0.0
H1562 H 0.64042 0.05304 0.96441 0.0
C1563 C 0.58637 0.10925 0.10223 0.0
C1564 C 0.63098 0.08766 0.05227 0.0
H1565 H 0.63354 0.09573 0.98965 0.0
C1566 C 0.64863 0.06877 0.05437 0.0
C1567 C 0.62497 0.09701 0.02855 0.0
C1568 C 0.60637 0.11751 0.02522 0.0
C1569 C 0.6609 0.05945 0.03353 0.0
C1570 C 0.65595 0.06977 1.00993 0.0
C1571 C 0.63745 0.08787 1.00769 0.0
C1572 C 0.67124 0.06367 0.98786 0.0
C1573 C 0.67919 0.0387 0.03713 0.0
C1574 C 0.69704 0.06706 0.98872 0.0
C1575 C 0.71163 0.06217 0.96808 0.0
C1576 C 0.70089 0.05434 0.9457 0.0
C1577 C 0.675 0.0509 0.94477 0.0
C1578 C 0.66031 0.05563 0.96563 0.0
H1579 H 0.67428 0.02713 0.05345 0.0
H1580 H 0.68008 0.02657 0.02064 0.0
H1581 H 0.69789 0.04672 0.04051 0.0
H1582 H 0.70597 0.07382 1.00534 0.0
H1583 H 0.73142 0.06459 0.9698 0.0
H1584 H 0.66864 0.20456 0.66666 0.0
H1585 H 0.68672 0.18973 0.70574 0.0
H1586 H 0.66925 0.11443 0.68557 0.0
H1587 H 0.65138 0.12895 0.64656 0.0
H1588 H 0.6517 0.14612 0.73895 0.0
H1589 H 0.75005 0.12947 0.71327 0.0
H1590 H 0.73284 0.15492 0.70001 0.0
H1591 H 0.7255 0.12374 0.69124 0.0
C1592 C 0.66907 0.18481 0.67034 0.0
C1593 C 0.65837 0.16797 0.65352 0.0
C1594 C 0.67931 0.17639 0.69271 0.0
C1595 C 0.67929 0.15098 0.69852 0.0
C1596 C 0.66945 0.1341 0.68143 0.0
H1597 H 0.74076 0.06065 0.81638 0.0
H1598 H 0.72666 0.07869 0.77733 0.0
C1599 C 0.65913 0.14247 0.6592 0.0
C1600 C 0.68786 0.14201 0.72308 0.0
H1601 H 0.73791 0.11824 0.75355 0.0
C1602 C 0.67058 0.14015 0.74228 0.0
C1603 C 0.71238 0.13401 0.7272 0.0
C1604 C 0.73145 0.13556 0.70696 0.0
C1605 C 0.67701 0.13012 0.76544 0.0
C1606 C 0.70169 0.1221 0.76981 0.0
C1607 C 0.71902 0.12424 0.75046 0.0
C1608 C 0.70981 0.11093 0.79393 0.0
C1609 C 0.65688 0.12757 0.78455 0.0
C1610 C 0.70542 0.12293 0.81654 0.0
C1611 C 0.71273 0.1121 0.83899 0.0
C1612 C 0.72497 0.0892 0.83938 0.0
C1613 C 0.73051 0.07781 0.81677 0.0
C1614 C 0.7227 0.08834 0.79436 0.0
H1615 H 0.63827 0.1259 0.77585 0.0
H1616 H 0.65985 0.11116 0.79642 0.0
H1617 H 0.65686 0.14434 0.79635 0.0
H1618 H 0.69645 0.14081 0.81689 0.0
H1619 H 0.70887 0.12168 0.85608 0.0
H1620 H 0.21419 0.488 0.07011 0.0
H1621 H 0.19399 0.4764 0.03119 0.0
H1622 H 0.13717 0.4373 0.07189 0.0
H1623 H 0.1573 0.44902 0.11083 0.0
H1624 H 0.18282 0.43085 1.01077 0.0
H1625 H 0.09671 0.48301 0.02793 0.0
H1626 H 0.12447 0.48748 0.04611 0.0
H1627 H 0.10387 0.46188 0.05256 0.0
C1628 C 0.19753 0.47672 0.07073 0.0
C1629 C 0.18753 0.46899 0.09348 0.0
C1630 C 0.18593 0.47021 0.04847 0.0
C1631 C 0.16381 0.45631 0.04857 0.0
C1632 C 0.15392 0.44847 0.07132 0.0
H1633 H 0.06447 0.38235 0.95088 0.0
H1634 H 0.08707 0.40254 0.98448 0.0
C1635 C 0.16549 0.45501 0.09354 0.0
C1636 C 0.15104 0.44989 0.02499 0.0
H1637 H 0.09505 0.45302 0.99547 0.0
C1638 C 0.16372 0.43587 1.00731 0.0
C1639 C 0.12621 0.45683 0.02023 0.0
C1640 C 0.11209 0.47335 0.03758 0.0
C1641 C 0.15181 0.42735 0.98575 0.0
C1642 C 0.12664 0.43342 0.98153 0.0
C1643 C 0.11429 0.44827 0.99875 0.0
C1644 C 0.11219 0.42277 0.96058 0.0
C1645 C 0.16591 0.41101 0.96823 0.0
C1646 C 0.11827 0.42798 0.93584 0.0
C1647 C 0.10524 0.41645 0.91648 0.0
C1648 C 0.08602 0.39944 0.92158 0.0
C1649 C 0.07938 0.39513 0.94635 0.0
C1650 C 0.09225 0.4067 0.96558 0.0
H1651 H 0.1836 0.4044 0.97639 0.0
H1652 H 0.15452 0.39465 0.96287 0.0
H1653 H 0.17032 0.42164 0.9512 0.0
H1654 H 0.13331 0.44067 0.93152 0.0
H1655 H 0.1108 0.4201 0.8976 0.0
H1656 H 0.83204 0.91277 0.36139 0.0
H1657 H 0.84432 0.89389 0.32205 0.0
H1658 H 0.81294 0.95562 0.28242 0.0
H1659 H 0.79986 0.97409 0.32156 0.0
H1660 H 0.80606 0.8854 0.27719 0.0
H1661 H 0.89006 0.94313 0.25942 0.0
H1662 H 0.87779 0.93833 0.29012 0.0
H1663 H 0.86214 0.95855 0.2688 0.0
C1664 C 0.828 0.92241 0.34428 0.0
C1665 C 0.81551 0.9452 0.3446 0.0
C1666 C 0.83492 0.91157 0.32185 0.0
C1667 C 0.82953 0.92334 0.29933 0.0
C1668 C 0.81736 0.94627 0.29959 0.0
H1669 H 0.87126 0.89807 0.14745 0.0
H1670 H 0.85488 0.91408 0.18629 0.0
C1671 C 0.81017 0.95695 0.32199 0.0
C1672 C 0.8363 0.91155 0.2755 0.0
H1673 H 0.87794 0.91535 0.22828 0.0
C1674 C 0.82181 0.89183 0.26646 0.0
C1675 C 0.85672 0.92004 0.26151 0.0
C1676 C 0.87279 0.9411 0.2704 0.0
C1677 C 0.82694 0.88075 0.24349 0.0
C1678 C 0.84756 0.88921 0.2295 0.0
C1679 C 0.86211 0.9088 0.23882 0.0
C1680 C 0.85445 0.87853 0.20503 0.0
C1681 C 0.80974 0.86068 0.23415 0.0
C1682 C 0.8592 0.85306 0.20222 0.0
C1683 C 0.86813 0.84381 0.17975 0.0
C1684 C 0.873 0.85994 0.15988 0.0
C1685 C 0.86769 0.88525 0.1625 0.0
C1686 C 0.8584 0.8944 0.18473 0.0
H1687 H 0.79118 0.86178 0.24291 0.0
H1688 H 0.80739 0.86183 0.2138 0.0
H1689 H 0.81764 0.84231 0.23881 0.0
H1690 H 0.85697 0.84045 0.21767 0.0
H1691 H 0.87238 0.82427 0.17828 0.0
H1692 H 0.36105 0.56428 0.60716 0.0
H1693 H 0.38015 0.57629 0.56775 0.0
H1694 H 0.31869 0.54335 0.52848 0.0
H1695 H 0.29962 0.53127 0.56787 0.0
H1696 H 0.39519 0.54585 0.52822 0.0
H1697 H 0.32322 0.61192 0.49625 0.0
H1698 H 0.32718 0.60337 0.52821 0.0
H1699 H 0.31226 0.58228 0.50713 0.0
C1700 C 0.35148 0.55984 0.59011 0.0
C1701 C 0.32852 0.54729 0.59074 0.0
C1702 C 0.36247 0.56665 0.56755 0.0
C1703 C 0.35083 0.56108 0.54495 0.0
C1704 C 0.32791 0.54841 0.54554 0.0
H1705 H 0.38632 0.59939 0.39164 0.0
H1706 H 0.36889 0.58042 0.42908 0.0
C1707 C 0.31695 0.54151 0.56813 0.0
C1708 C 0.363 0.56806 0.52091 0.0
H1709 H 0.35556 0.60365 0.46896 0.0
C1710 C 0.3865 0.55848 0.51526 0.0
C1711 C 0.35181 0.58444 0.50376 0.0
C1712 C 0.32727 0.59631 0.50904 0.0
C1713 C 0.39884 0.5646 0.49301 0.0
C1714 C 0.38772 0.58132 0.47605 0.0
C1715 C 0.36418 0.59073 0.4817 0.0
C1716 C 0.40007 0.58986 0.4526 0.0
C1717 C 0.4234 0.5526 0.4877 0.0
C1718 C 0.42369 0.6012 0.45291 0.0
C1719 C 0.43382 0.61171 0.43133 0.0
C1720 C 0.42049 0.61132 0.409 0.0
C1721 C 0.39718 0.59954 0.4085 0.0
C1722 C 0.38715 0.58885 0.42998 0.0
H1723 H 0.42534 0.53476 0.49784 0.0
H1724 H 0.42573 0.54907 0.46766 0.0
H1725 H 0.4386 0.56509 0.49391 0.0
H1726 H 0.43385 0.60299 0.47008 0.0
H1727 H 0.45154 0.62123 0.43235 0.0
H1728 H 0.17768 0.21245 0.41867 0.0
H1729 H 0.21383 0.1984 0.39494 0.0
H1730 H 0.26105 0.21279 0.4577 0.0
H1731 H 0.22547 0.22665 0.48129 0.0
H1732 H 0.26185 0.22132 0.38346 0.0
H1733 H 0.27086 0.13843 0.44348 0.0
H1734 H 0.24306 0.15685 0.4424 0.0
H1735 H 0.26926 0.16685 0.46053 0.0
C1736 C 0.19584 0.21292 0.42723 0.0
C1737 C 0.19864 0.22024 0.45199 0.0
C1738 C 0.21644 0.20484 0.41369 0.0
C1739 C 0.24002 0.20404 0.42477 0.0
C1740 C 0.24296 0.21273 0.44897 0.0
H1741 H 0.3907 0.16866 0.40478 0.0
H1742 H 0.34977 0.18452 0.41517 0.0
C1743 C 0.22254 0.22067 0.46243 0.0
C1744 C 0.26164 0.19326 0.41184 0.0
H1745 H 0.3062 0.14913 0.41891 0.0
C1746 C 0.27134 0.20527 0.39087 0.0
C1747 C 0.27389 0.17221 0.42147 0.0
C1748 C 0.26362 0.15767 0.44306 0.0
C1749 C 0.2938 0.19757 0.3802 0.0
C1750 C 0.30667 0.17739 0.39076 0.0
C1751 C 0.29636 0.16474 0.41098 0.0
C1752 C 0.33176 0.17007 0.38249 0.0
C1753 C 0.30429 0.21166 0.35848 0.0
C1754 C 0.33529 0.15699 0.36042 0.0
C1755 C 0.35875 0.14765 0.35448 0.0
C1756 C 0.37897 0.15116 0.37063 0.0
C1757 C 0.37545 0.1652 0.39217 0.0
C1758 C 0.3521 0.17443 0.39807 0.0
H1759 H 0.29286 0.22799 0.35346 0.0
H1760 H 0.32344 0.21803 0.36273 0.0
H1761 H 0.3053 0.19919 0.34226 0.0
H1762 H 0.31974 0.15323 0.34827 0.0
H1763 H 0.3608 0.13681 0.33783 0.0
H1764 H 0.12035 0.08942 0.5762 0.0
H1765 H 0.10277 0.05136 0.59461 0.0
H1766 H 0.11941 0.07907 0.66734 0.0
H1767 H 0.13672 0.11703 0.64923 0.0
H1768 H 0.13901 0.0246 0.64456 0.0
H1769 H 0.03834 0.04597 0.65039 0.0
H1770 H 0.05661 0.05643 0.62437 0.0
H1771 H 0.06138 0.07017 0.65406 0.0
C1772 C 0.11979 0.0876 0.59611 0.0
C1773 C 0.13014 0.10618 0.61123 0.0
C1774 C 0.10985 0.06581 0.6066 0.0
C1775 C 0.10989 0.06239 0.63234 0.0
C1776 C 0.11927 0.08131 0.64745 0.0
H1777 H 0.04633 0.95266 0.73165 0.0
H1778 H 0.06066 0.99014 0.71028 0.0
C1779 C 0.12923 0.10296 0.63704 0.0
C1780 C 0.10181 0.03849 0.64364 0.0
H1781 H 0.05144 1.00793 0.66716 0.0
C1782 C 0.11985 0.0208 0.6494 0.0
C1783 C 0.07689 0.03379 0.65011 0.0
C1784 C 0.05701 0.05248 0.6445 0.0
C1785 C 0.11374 0.9986 0.66179 0.0
C1786 C 0.08869 0.9937 0.66835 0.0
C1787 C 0.07062 0.01149 0.66231 0.0
C1788 C 0.08083 0.97064 0.68186 0.0
C1789 C 0.1345 0.98109 0.66818 0.0
C1790 C 0.08717 0.94695 0.67317 0.0
C1791 C 0.07972 0.92551 0.68597 0.0
C1792 C 0.06543 0.9272 0.70754 0.0
C1793 C 0.05822 0.95078 0.71568 0.0
C1794 C 0.06612 0.97224 0.70322 0.0
H1795 H 0.1524 0.99117 0.67038 0.0
H1796 H 0.1307 0.97065 0.68539 0.0
H1797 H 0.13674 0.96763 0.65291 0.0
H1798 H 0.09765 0.94496 0.65629 0.0
H1799 H 0.08487 0.90754 0.67883 0.0
H1800 H 0.17794 0.9115 0.88135 0.0
H1801 H 0.21897 0.89646 0.8931 0.0
H1802 H 0.19767 0.82242 0.8714 0.0
H1803 H 0.15664 0.83775 0.85888 0.0
H1804 H 0.22493 0.86409 0.92988 0.0
H1805 H 0.26842 0.82605 0.8455 0.0
H1806 H 0.24191 0.84629 0.84434 0.0
H1807 H 0.23796 0.81408 0.85206 0.0
C1808 C 0.18228 0.89215 0.87844 0.0
C1809 C 0.1642 0.87579 0.86917 0.0
C1810 C 0.20571 0.88353 0.88521 0.0
C1811 C 0.21158 0.85828 0.88311 0.0
C1812 C 0.19387 0.84204 0.87277 0.0
H1813 H 0.3244 0.79202 0.97945 0.0
H1814 H 0.2856 0.80431 0.95957 0.0
C1815 C 0.1704 0.85078 0.86568 0.0
C1816 C 0.23491 0.84894 0.89462 0.0
H1817 H 0.28927 0.81859 0.88355 0.0
C1818 C 0.23898 0.85414 0.91968 0.0
C1819 C 0.25333 0.836 0.88138 0.0
C1820 C 0.25038 0.83041 0.85427 0.0
C1821 C 0.2609 0.8472 0.93177 0.0
C1822 C 0.27932 0.83404 0.91877 0.0
C1823 C 0.27522 0.8286 0.89366 0.0
C1824 C 0.30307 0.82629 0.93084 0.0
C1825 C 0.2646 0.85521 0.95808 0.0
C1826 C 0.32605 0.83396 0.92113 0.0
C1827 C 0.34834 0.82675 0.93242 0.0
C1828 C 0.34815 0.81189 0.9538 0.0
C1829 C 0.32518 0.80407 0.96341 0.0
C1830 C 0.30293 0.81111 0.95203 0.0
H1831 H 0.25156 0.87008 0.96351 0.0
H1832 H 0.26157 0.83918 0.97063 0.0
H1833 H 0.28376 0.86218 0.96056 0.0
H1834 H 0.32676 0.84558 0.90478 0.0
H1835 H 0.36577 0.8327 0.92438 0.0
H1836 H 0.44507 0.10955 0.17773 0.0
H1837 H 0.43297 0.0709 0.15712 0.0
H1838 H 0.47916 0.0297 0.2076 0.0
H1839 H 0.4903 0.06819 0.22883 0.0
H1840 H 0.46041 0.03988 0.13222 0.0
H1841 H 0.41931 0.98684 0.21019 0.0
H1842 H 0.4257 0.01959 0.21157 0.0
H1843 H 0.45028 0.99769 0.21615 0.0
C1844 C 0.45214 0.09213 0.18473 0.0
C1845 C 0.46819 0.09183 0.20517 0.0
C1846 C 0.44536 0.07004 0.17287 0.0
C1847 C 0.45483 0.04712 0.18088 0.0
C1848 C 0.47091 0.04686 0.2014 0.0
H1849 H 0.42875 0.89726 0.12051 0.0
H1850 H 0.44928 0.93279 0.14057 0.0
C1851 C 0.47736 0.06894 0.21352 0.0
C1852 C 0.44879 0.02389 0.16689 0.0
H1853 H 0.42447 0.96535 0.17279 0.0
C1854 C 0.45254 0.02363 0.14118 0.0
C1855 C 0.43882 1.00236 0.1784 0.0
C1856 C 0.43309 1.00155 0.20559 0.0
C1857 C 0.44621 1.00283 0.12677 0.0
C1858 C 0.43566 0.98167 0.13826 0.0
C1859 C 0.43269 0.98153 0.16399 0.0
C1860 C 0.42554 0.96037 0.12384 0.0
C1861 C 0.45085 1.00371 0.09932 0.0
C1862 C 0.4056 0.96404 0.10756 0.0
C1863 C 0.39387 0.94385 0.09623 0.0
C1864 C 0.40178 0.91947 0.10088 0.0
C1865 C 0.42242 0.91583 0.11637 0.0
C1866 C 0.43405 0.9361 0.12793 0.0
H1867 H 0.46549 0.0175 0.09455 0.0
H1868 H 0.45642 0.98527 0.09227 0.0
H1869 H 0.43354 1.00925 0.08972 0.0
H1870 H 0.3984 0.98247 0.1044 0.0
H1871 H 0.37804 0.94724 0.08437 0.0
H1872 H 0.8812 0.38399 0.62212 0.0
H1873 H 0.84393 0.36482 0.60446 0.0
H1874 H 0.81705 0.34836 0.67756 0.0
H1875 H 0.85443 0.36779 0.69553 0.0
H1876 H 0.81664 0.30794 0.62794 0.0
H1877 H 0.76869 0.39895 0.62301 0.0
H1878 H 0.80161 0.39738 0.61738 0.0
H1879 H 0.78993 0.39178 0.64784 0.0
C1880 C 0.86747 0.37616 0.63452 0.0
C1881 C 0.87082 0.37766 0.66032 0.0
C1882 C 0.84617 0.36513 0.62435 0.0
C1883 C 0.82758 0.35527 0.63963 0.0
C1884 C 0.83116 0.35582 0.66538 0.0
H1885 H 0.67401 0.31914 0.6022 0.0
H1886 H 0.71279 0.33324 0.6214 0.0
C1887 C 0.85261 0.36683 0.67563 0.0
C1888 C 0.80401 0.34562 0.62853 0.0
H1889 H 0.74788 0.36458 0.60601 0.0
C1890 C 0.80154 0.32026 0.62323 0.0
C1891 C 0.7843 0.36167 0.62237 0.0
C1892 C 0.786 0.38901 0.62789 0.0
C1893 C 0.77989 0.31055 0.612 0.0
C1894 C 0.76026 0.32672 0.60538 0.0
C1895 C 0.7628 0.35209 0.61089 0.0
C1896 C 0.73668 0.31774 0.59345 0.0
C1897 C 0.7781 0.28296 0.60784 0.0
C1898 C 0.73686 0.30434 0.57115 0.0
C1899 C 0.7146 0.29611 0.56024 0.0
C1900 C 0.69158 0.30172 0.57094 0.0
C1901 C 0.69142 0.31491 0.59328 0.0
C1902 C 0.71362 0.323 0.60426 0.0
H1903 H 0.791 0.27263 0.62008 0.0
H1904 H 0.75896 0.27599 0.61111 0.0
H1905 H 0.78318 0.27884 0.58845 0.0
H1906 H 0.75421 0.30043 0.56201 0.0
H1907 H 0.71539 0.28551 0.54332 0.0
H1908 H 0.98141 0.48006 0.7925 0.0
H1909 H 0.96877 0.51515 0.81764 0.0
H1910 H 0.95958 0.46657 0.88043 0.0
H1911 H 0.97251 0.43125 0.85536 0.0
H1912 H 0.92536 0.52308 0.83982 0.0
H1913 H 0.99915 0.5222 0.9111 0.0
H1914 H 1.00119 0.50442 0.88302 0.0
H1915 H 0.98308 0.49307 0.9086 0.0
C1916 C 0.97681 0.47675 0.81169 0.0
C1917 C 0.97787 0.45269 0.82182 0.0
C1918 C 0.96962 0.49694 0.82609 0.0
C1919 C 0.96349 0.49371 0.8511 0.0
C1920 C 0.96477 0.46975 0.86138 0.0
H1921 H 0.89091 0.58237 0.96121 0.0
H1922 H 0.9132 0.55081 0.93784 0.0
C1923 C 0.97205 0.44948 0.84695 0.0
C1924 C 0.95451 0.51521 0.86587 0.0
H1925 H 0.96415 0.54784 0.91922 0.0
C1926 C 0.93404 0.52862 0.85705 0.0
C1927 C 0.9658 0.52258 0.88838 0.0
C1928 C 0.98867 0.50999 0.89824 0.0
C1929 C 0.92417 0.5486 0.87035 0.0
C1930 C 0.93516 0.55567 0.89304 0.0
C1931 C 0.95577 0.54247 0.9018 0.0
C1932 C 0.92449 0.57573 0.90852 0.0
C1933 C 0.90151 0.56154 0.86041 0.0
C1934 C 0.92419 0.60051 0.90032 0.0
C1935 C 0.9116 0.6187 0.91382 0.0
C1936 C 0.89893 0.61234 0.93563 0.0
C1937 C 0.90038 0.58779 0.94439 0.0
C1938 C 0.91313 0.56974 0.93106 0.0
H1939 H 0.89264 0.55108 0.84507 0.0
H1940 H 0.88763 0.56418 0.87526 0.0
H1941 H 0.90693 0.58013 0.85333 0.0
H1942 H 0.93306 0.60563 0.8831 0.0
H1943 H 0.91068 0.6374 0.90653 0.0
H1944 H 0.85334 0.70734 0.10553 0.0
H1945 H 0.81496 0.69447 0.12603 0.0
H1946 H 0.77247 0.73324 0.07062 0.0
H1947 H 0.811 0.7452 0.04952 0.0
H1948 H 0.7814 0.72091 0.14792 0.0
H1949 H 0.73365 0.67091 0.07196 0.0
H1950 H 0.76532 0.68139 0.06991 0.0
H1951 H 0.74044 0.7028 0.06491 0.0
C1952 C 0.83577 0.7127 0.09747 0.0
C1953 C 0.83523 0.72689 0.07566 0.0
C1954 C 0.81376 0.70546 0.10929 0.0
C1955 C 0.79049 0.71256 0.09994 0.0
C1956 C 0.78993 0.72684 0.07806 0.0
H1957 H 0.64286 0.67101 0.16049 0.0
H1958 H 0.67537 0.69408 0.13807 0.0
C1959 C 0.81203 0.73377 0.06597 0.0
C1960 C 0.76725 0.70575 0.11388 0.0
H1961 H 0.71144 0.67525 0.10917 0.0
C1962 C 0.76614 0.71094 0.13932 0.0
C1963 C 0.74679 0.69323 0.10288 0.0
C1964 C 0.74654 0.68656 0.07593 0.0
C1965 C 0.74585 0.70341 0.15398 0.0
C1966 C 0.72608 0.68977 0.14318 0.0
C1967 C 0.72656 0.68558 0.11759 0.0
C1968 C 0.70594 0.67789 0.15831 0.0
C1969 C 0.74584 0.71027 0.18096 0.0
C1970 C 0.71207 0.66124 0.17734 0.0
C1971 C 0.69359 0.64822 0.19018 0.0
C1972 C 0.66833 0.65119 0.18426 0.0
C1973 C 0.66206 0.66843 0.16572 0.0
C1974 C 0.68068 0.68149 0.15276 0.0
H1975 H 0.75665 0.72757 0.18424 0.0
H1976 H 0.72671 0.71289 0.18796 0.0
H1977 H 0.75471 0.69524 0.19179 0.0
H1978 H 0.73129 0.65757 0.18175 0.0
H1979 H 0.69916 0.63523 0.20442 0.0
H1980 H 0.65412 0.41339 0.38832 0.0
H1981 H 0.63314 0.44645 0.36551 0.0
H1982 H 0.5841 0.4576 0.42719 0.0
H1983 H 0.60464 0.42372 0.44975 0.0
H1984 H 0.55969 0.46417 0.38358 0.0
H1985 H 0.64761 0.51776 0.38114 0.0
H1986 H 0.65012 0.48815 0.36648 0.0
H1987 H 0.64411 0.48978 0.39913 0.0
C1988 C 0.63851 0.42255 0.39679 0.0
C1989 C 0.63104 0.41601 0.42082 0.0
C1990 C 0.62669 0.44167 0.38385 0.0
C1991 C 0.60749 0.45519 0.39485 0.0
C1992 C 0.599 0.44768 0.41832 0.0
H1993 H 0.56907 0.60627 0.35417 0.0
H1994 H 0.58366 0.56805 0.37379 0.0
C1995 C 0.61065 0.42824 0.43119 0.0
C1996 C 0.59726 0.4778 0.38239 0.0
H1997 H 0.61427 0.53389 0.35767 0.0
C1998 C 0.57163 0.47944 0.37796 0.0
C1999 C 0.61269 0.49803 0.37533 0.0
C2000 C 0.64011 0.49852 0.38097 0.0
C2001 C 0.56111 0.50047 0.36652 0.0
C2002 C 0.57668 0.52032 0.35877 0.0
C2003 C 0.60227 0.51869 0.36333 0.0
C2004 C 0.56692 0.54344 0.34689 0.0
C2005 C 0.53333 0.50146 0.36351 0.0
C2006 C 0.55257 0.54259 0.32516 0.0
C2007 C 0.54406 0.56452 0.31402 0.0
C2008 C 0.55031 0.5878 0.32398 0.0
C2009 C 0.56433 0.58862 0.34585 0.0
C2010 C 0.5727 0.56675 0.35705 0.0
H2011 H 0.52376 0.48851 0.3764 0.0
H2012 H 0.5263 0.52047 0.36673 0.0
H2013 H 0.52833 0.49594 0.34441 0.0
H2014 H 0.54823 0.52501 0.31654 0.0
H2015 H 0.53282 0.56328 0.29747 0.0
H2016 H 0.37356 0.35692 0.12119 0.0
H2017 H 0.39491 0.32528 0.14564 0.0
H2018 H 0.33342 0.32227 0.19625 0.0
H2019 H 0.31186 0.35412 0.17182 0.0
H2020 H 0.40417 0.32522 0.20364 0.0
H2021 H 0.34615 0.24907 0.16412 0.0
H2022 H 0.35084 0.27796 0.14775 0.0
H2023 H 0.3315 0.27707 0.17458 0.0
C2024 C 0.36463 0.34964 0.13761 0.0
C2025 C 0.34095 0.35786 0.14449 0.0
C2026 C 0.3769 0.33166 0.1516 0.0
C2027 C 0.36566 0.32137 0.17261 0.0
C2028 C 0.34235 0.33 0.18002 0.0
H2029 H 0.41595 0.18569 0.24694 0.0
H2030 H 0.39103 0.2215 0.23488 0.0
C2031 C 0.33013 0.34822 0.16614 0.0
C2032 C 0.37802 0.30079 0.18591 0.0
H2033 H 0.37922 0.23762 0.18986 0.0
C2034 C 0.39861 0.30606 0.20089 0.0
C2035 C 0.37058 0.27588 0.18238 0.0
C2036 C 0.3486 0.26941 0.16631 0.0
C2037 C 0.41227 0.28697 0.21215 0.0
C2038 C 0.40558 0.26192 0.20764 0.0
C2039 C 0.38444 0.25676 0.19328 0.0
C2040 C 0.42102 0.2408 0.21633 0.0
C2041 C 0.43364 0.29393 0.22883 0.0
C2042 C 0.44618 0.23961 0.20997 0.0
C2043 C 0.46049 0.21929 0.21702 0.0
C2044 C 0.44993 0.19925 0.23003 0.0
C2045 C 0.42475 0.20058 0.23668 0.0
C2046 C 0.41043 0.22109 0.22979 0.0
H2047 H 0.43084 0.31245 0.23724 0.0
H2048 H 0.43618 0.28011 0.24386 0.0
H2049 H 0.45092 0.29489 0.21778 0.0
H2050 H 0.45476 0.25426 0.19917 0.0
H2051 H 0.47987 0.2194 0.21228 0.0
H2052 H 0.9677 0.32807 0.7759 0.0
H2053 H 0.94737 0.28938 0.78795 0.0
H2054 H 0.8989 0.33009 0.83627 0.0
H2055 H 0.91794 0.36903 0.82232 0.0
H2056 H 0.94516 0.26472 0.8251 0.0
H2057 H 0.84765 0.28847 0.80807 0.0
H2058 H 0.87259 0.30865 0.79852 0.0
H2059 H 0.86047 0.31018 0.82956 0.0
C2060 C 0.95259 0.32875 0.78897 0.0
C2061 C 0.94468 0.35152 0.79854 0.0
C2062 C 0.94088 0.30655 0.7959 0.0
C2063 C 0.9211 0.30646 0.81283 0.0
C2064 C 0.91332 0.32937 0.82246 0.0
H2065 H 0.88882 0.177 0.90207 0.0
H2066 H 0.9058 0.21343 0.88221 0.0
C2067 C 0.92447 0.35169 0.8148 0.0
C2068 C 0.90963 0.28238 0.82119 0.0
H2069 H 0.85455 0.25413 0.83579 0.0
C2070 C 0.9253 0.26249 0.82716 0.0
C2071 C 0.88362 0.27863 0.82316 0.0
C2072 C 0.86517 0.29755 0.81417 0.0
C2073 C 0.91597 0.23961 0.83572 0.0
C2074 C 0.89015 0.23671 0.83997 0.0
C2075 C 0.87437 0.25625 0.83316 0.0
C2076 C 0.87926 0.21408 0.85214 0.0
C2077 C 0.93408 0.2187 0.83942 0.0
C2078 C 0.85767 0.20254 0.84287 0.0
C2079 C 0.84682 0.1822 0.85521 0.0
C2080 C 0.85744 0.17261 0.87704 0.0
C2081 C 0.87942 0.18392 0.88581 0.0
C2082 C 0.88972 0.20462 0.87397 0.0
H2083 H 0.94982 0.2203 0.82629 0.0
H2084 H 0.94198 0.21974 0.85833 0.0
H2085 H 0.92515 0.20029 0.83684 0.0
H2086 H 0.84899 0.2094 0.82616 0.0
H2087 H 0.82979 0.17447 0.84785 0.0
H2088 H 0.11234 0.63911 0.1413 0.0
H2089 H 0.07724 0.65698 0.11927 0.0
H2090 H 0.06622 0.5883 0.08016 0.0
H2091 H 0.10091 0.56985 0.10298 0.0
H2092 H 0.06753 0.66508 0.0705 0.0
H2093 H 0.99805 0.59927 0.10967 0.0
H2094 H 0.0293 0.60153 0.12144 0.0
H2095 H 0.02312 0.58523 0.09317 0.0
C2096 C 0.10239 0.62766 0.12816 0.0
C2097 C 0.10929 0.60283 0.1243 0.0
C2098 C 0.08239 0.63802 0.11539 0.0
C2099 C 0.06868 0.62391 0.09835 0.0
C2100 C 0.07611 0.59944 0.0936 0.0
H2101 H 0.94352 0.68721 1.01181 0.0
H2102 H 0.97982 0.66174 0.02254 0.0
C2103 C 0.09618 0.58899 0.10647 0.0
C2104 C 0.04638 0.63493 0.08624 0.0
H2105 H 0.9831 0.6302 0.08281 0.0
C2106 C 0.04913 0.65723 0.07292 0.0
C2107 C 0.02224 0.62487 0.08953 0.0
C2108 C 0.01783 0.60153 0.10438 0.0
C2109 C 0.02848 0.6699 0.06335 0.0
C2110 C 1.00444 0.66007 0.06706 0.0
C2111 C 1.00163 0.63752 0.07977 0.0
C2112 C 0.98197 0.67443 0.06034 0.0
C2113 C 0.03227 0.69429 0.05014 0.0
C2114 C 0.97099 0.68963 0.07809 0.0
C2115 C 0.95044 0.70407 0.07203 0.0
C2116 C 0.94038 0.70378 0.04806 0.0
C2117 C 0.95091 0.68793 0.03042 0.0
C2118 C 0.97166 0.67345 0.03649 0.0
H2119 H 0.0522 0.69907 0.04789 0.0
H2120 H 0.0234 0.69358 0.03163 0.0
H2121 H 0.02316 0.7093 0.06069 0.0
H2122 H 0.97849 0.69048 0.09666 0.0
H2123 H 0.94225 0.71529 0.08628 0.0
H2124 H 0.71038 0.84519 0.35872 0.0
H2125 H 0.69248 0.80891 0.33749 0.0
H2126 H 0.61898 0.83499 0.35375 0.0
H2127 H 0.63664 0.87105 0.37479 0.0
H2128 H 0.65868 0.77291 0.3607 0.0
H2129 H 0.61676 0.81836 0.27878 0.0
H2130 H 0.64121 0.83266 0.29676 0.0
H2131 H 0.60978 0.83299 0.30767 0.0
C2132 C 0.69042 0.84335 0.35737 0.0
C2133 C 0.67493 0.86094 0.36849 0.0
C2134 C 0.68022 0.82258 0.34537 0.0
C2135 C 0.65438 0.81933 0.34387 0.0
C2136 C 0.63894 0.83723 0.35439 0.0
H2137 H 0.54161 0.71728 0.29877 0.0
H2138 H 0.56782 0.75187 0.3113 0.0
C2139 C 0.64908 0.85776 0.36656 0.0
C2140 C 0.64326 0.79663 0.33269 0.0
H2141 H 0.60285 0.7773 0.28793 0.0
C2142 C 0.64676 0.77373 0.34456 0.0
C2143 C 0.62761 0.79778 0.31173 0.0
C2144 C 0.62373 0.82172 0.29781 0.0
C2145 C 0.63406 0.7522 0.33681 0.0
C2146 C 0.6179 0.75344 0.31614 0.0
C2147 C 0.61515 0.77624 0.30377 0.0
C2148 C 0.60231 0.7319 0.3081 0.0
C2149 C 0.63709 0.72868 0.35167 0.0
C2150 C 0.61282 0.709 0.30171 0.0
C2151 C 0.59768 0.6888 0.29502 0.0
C2152 C 0.57171 0.69118 0.29428 0.0
C2153 C 0.56141 0.71443 0.29975 0.0
C2154 C 0.57646 0.73442 0.30671 0.0
H2155 H 0.64499 0.7324 0.37028 0.0
H2156 H 0.61906 0.7189 0.35397 0.0
H2157 H 0.64995 0.71615 0.34189 0.0
H2158 H 0.63274 0.70671 0.3019 0.0
H2159 H 0.60633 0.67132 0.29062 0.0
H2160 H 0.58545 0.31188 0.58254 0.0
H2161 H 0.54857 0.33505 0.59402 0.0
H2162 H 0.54381 0.36468 0.52012 0.0
H2163 H 0.58075 0.34085 0.50836 0.0
H2164 H 0.53997 0.38741 0.59151 0.0
H2165 H 0.47383 0.33332 0.53346 0.0
H2166 H 0.5043 0.32199 0.54125 0.0
H2167 H 0.50087 0.34591 0.51841 0.0
C2168 C 0.57637 0.32298 0.5686 0.0
C2169 C 0.58567 0.32399 0.54438 0.0
C2170 C 0.55541 0.33649 0.57527 0.0
C2171 C 0.54311 0.35135 0.55788 0.0
C2172 C 0.55274 0.35304 0.53379 0.0
H2173 H 0.42311 0.45117 0.60713 0.0
H2174 H 0.45965 0.43555 0.5852 0.0
C2175 C 0.57394 0.33958 0.52713 0.0
C2176 C 0.5202 0.36477 0.56532 0.0
H2177 H 0.45712 0.36473 0.55831 0.0
C2178 C 0.52189 0.38271 0.58401 0.0
C2179 C 0.49655 0.35842 0.55576 0.0
C2180 C 0.49354 0.33876 0.53622 0.0
C2181 C 0.50061 0.39411 0.59368 0.0
C2182 C 0.47692 0.38757 0.58432 0.0
C2183 C 0.47526 0.36993 0.56533 0.0
C2184 C 0.45363 0.39718 0.59556 0.0
C2185 C 0.50357 0.41228 0.61463 0.0
C2186 C 0.43757 0.3808 0.60797 0.0
C2187 C 0.41674 0.38965 0.62043 0.0
C2188 C 0.41127 0.41514 0.62069 0.0
C2189 C 0.42673 0.43144 0.60729 0.0
C2190 C 0.44775 0.42256 0.59492 0.0
H2191 H 0.52255 0.412 0.62263 0.0
H2192 H 0.49991 0.43129 0.6077 0.0
H2193 H 0.49002 0.40814 0.62952 0.0
H2194 H 0.44157 0.36115 0.60863 0.0
H2195 H 0.40505 0.37651 0.63022 0.0
H2196 H 0.20101 0.69171 0.62695 0.0
H2197 H 0.18145 0.72445 0.6508 0.0
H2198 H 0.15155 0.66981 0.7011 0.0
H2199 H 0.17062 0.63673 0.67678 0.0
H2200 H 0.11625 0.70186 0.68467 0.0
H2201 H 0.1978 0.75539 0.71687 0.0
H2202 H 0.19841 0.75064 0.68411 0.0
H2203 H 0.20028 0.7244 0.70467 0.0
C2204 C 0.19046 0.68663 0.64322 0.0
C2205 C 0.18728 0.66157 0.64988 0.0
C2206 C 0.1795 0.70543 0.65702 0.0
C2207 C 0.16526 0.69969 0.67796 0.0
C2208 C 0.1626 0.67472 0.68511 0.0
H2209 H 0.10258 0.82042 0.76691 0.0
H2210 H 0.12599 0.78376 0.75423 0.0
C2211 C 0.17364 0.65584 0.67129 0.0
C2212 C 0.15158 0.71963 0.69097 0.0
H2213 H 0.15884 0.77695 0.71683 0.0
C2214 C 0.1256 0.71811 0.69202 0.0
C2215 C 0.16372 0.74073 0.7009 0.0
C2216 C 0.19161 0.7428 0.70183 0.0
C2217 C 0.11142 0.73757 0.70164 0.0
C2218 C 0.1235 0.75939 0.71001 0.0
C2219 C 0.14953 0.76041 0.71008 0.0
C2220 C 0.10944 0.78166 0.71783 0.0
C2221 C 0.08361 0.73456 0.70265 0.0
C2222 C 0.09282 0.79307 0.70142 0.0
C2223 C 0.07946 0.81391 0.70863 0.0
C2224 C 0.08249 0.82396 0.73236 0.0
C2225 C 0.09972 0.81304 0.74854 0.0
C2226 C 0.11306 0.79206 0.74134 0.0
H2227 H 0.07807 0.71468 0.70318 0.0
H2228 H 0.07575 0.74394 0.71905 0.0
H2229 H 0.0753 0.74291 0.68582 0.0
H2230 H 0.09033 0.78598 0.68289 0.0
H2231 H 0.0671 0.82242 0.69541 0.0
H2232 H 0.43038 0.86222 0.976 0.0
H2233 H 0.46579 0.88713 0.96182 0.0
H2234 H 0.51246 0.82263 0.96582 0.0
H2235 H 0.47715 0.79762 0.97942 0.0
H2236 H 0.51043 0.8982 0.98201 0.0
H2237 H 0.52476 0.84466 0.89602 0.0
H2238 H 0.49759 0.84066 0.91499 0.0
H2239 H 0.52622 0.8259 0.92339 0.0
C2240 C 0.44818 0.85336 0.97387 0.0
C2241 C 0.45082 0.82784 0.97838 0.0
C2242 C 0.46843 0.86762 0.96576 0.0
C2243 C 0.4917 0.85665 0.96216 0.0
C2244 C 0.49457 0.83138 0.96767 0.0
H2245 H 0.63265 0.91671 0.9066 0.0
H2246 H 0.60185 0.89173 0.92933 0.0
C2247 C 0.47433 0.8171 0.97552 0.0
C2248 C 0.51292 0.87161 0.95255 0.0
H2249 H 0.55522 0.87501 0.9057 0.0
C2250 C 0.52019 0.89313 0.96531 0.0
C2251 C 0.52573 0.86501 0.93074 0.0
C2252 C 0.51806 0.84295 0.91535 0.0
C2253 C 0.53988 0.90814 0.95689 0.0
C2254 C 0.55257 0.90154 0.93511 0.0
C2255 C 0.54559 0.87988 0.92254 0.0
C2256 C 0.57194 0.91773 0.92398 0.0
C2257 C 0.54703 0.93095 0.97134 0.0
C2258 C 0.56538 0.94068 0.91371 0.0
C2259 C 0.5828 0.95479 0.90063 0.0
C2260 C 0.6072 0.9463 0.89766 0.0
C2261 C 0.61405 0.92379 0.90882 0.0
C2262 C 0.59648 0.90949 0.92167 0.0
H2263 H 0.53952 0.93039 0.99043 0.0
H2264 H 0.56751 0.93303 0.97229 0.0
H2265 H 0.53951 0.94758 0.9619 0.0
H2266 H 0.5465 0.94724 0.915 0.0
H2267 H 0.57704 0.9721 0.89226 0.0
H2268 H 0.94591 0.0913 0.36134 0.0
H2269 H 0.98249 0.10747 0.3828 0.0
H2270 H 0.93924 0.11805 0.44865 0.0
H2271 H 0.90222 0.10235 0.42715 0.0
H2272 H 0.97706 0.16038 0.40944 0.0
H2273 H 0.01185 0.08076 0.46506 0.0
H2274 H 0.99601 0.07583 0.43601 0.0
H2275 H 0.97898 0.08636 0.46224 0.0
C2276 C 0.94413 0.09694 0.38043 0.0
C2277 C 0.92102 0.09576 0.39241 0.0
C2278 C 0.96511 0.10597 0.39271 0.0
C2279 C 0.96355 0.1138 0.4173 0.0
C2280 C 0.94083 0.11181 0.42973 0.0
H2281 H 0.07198 0.21372 0.4872 0.0
H2282 H 0.0335 0.19402 0.47337 0.0
C2283 C 0.91973 0.10279 0.41741 0.0
C2284 C 0.98507 0.12655 0.42878 0.0
H2285 H 0.03588 0.11753 0.46543 0.0
C2286 C 0.98981 0.15116 0.42192 0.0
C2287 C 1.00164 0.11431 0.44485 0.0
C2288 C 0.99708 0.08782 0.4526 0.0
C2289 C 0.01105 0.16379 0.43024 0.0
C2290 C 0.02804 0.15157 0.44605 0.0
C2291 C 0.02298 0.12695 0.45328 0.0
C2292 C 0.05149 0.16373 0.45455 0.0
C2293 C 0.01584 0.18961 0.4208 0.0
C2294 C 0.07456 0.15311 0.44913 0.0
C2295 C 0.09665 0.16431 0.45723 0.0
C2296 C 0.09616 0.18649 0.47073 0.0
C2297 C 0.07307 0.19703 0.47627 0.0
C2298 C 0.05099 0.18575 0.46833 0.0
H2299 H 1.00357 0.19455 0.40504 0.0
H2300 H 0.01271 0.20318 0.43579 0.0
H2301 H 0.03531 0.19115 0.41469 0.0
H2302 H 0.07548 0.1361 0.43862 0.0
H2303 H 0.11416 0.15561 0.45298 0.0
loop_
_geom_bond_atom_site_label_1
_geom_bond_atom_site_label_2
_geom_bond_distance
_geom_bond_site_symmetry_2
_ccdc_geom_bond_type
Gd0 N31 2.661 . S
Gd0 N37 2.601 . S
Gd0 O44 2.545 . S
Gd0 O45 2.606 . S
Gd0 O47 2.429 . S
Gd0 O48 2.545 . S
Gd0 O49 2.412 . S
Gd0 O51 2.362 . S
Gd0 O52 2.324 . S
Gd0 C59 2.828 . S
Gd1 N10 2.661 . S
Gd1 N14 2.601 . S
Gd1 O45 2.362 . S
Gd1 O46 2.324 . S
Gd1 O50 2.545 . S
Gd1 O51 2.606 . S
Gd1 O53 2.429 . S
Gd1 O54 2.545 . S
Gd1 O55 2.412 . S
Gd1 C68 2.828 . S
C2 C5 1.417 . S
C2 C7 1.431 . S
C2 C8 1.412 . S
C3 C6 1.437 . S
C3 C7 1.317 . S
C3 H22 0.929 . S
C4 C5 1.426 . S
C4 C6 1.413 . S
C4 N14 1.359 . S
C5 C2 1.417 . S
C5 C4 1.426 . S
C5 N10 1.350 . S
C6 C3 1.437 . S
C6 C4 1.413 . S
C6 C16 1.391 . S
C7 C2 1.431 . S
C7 C3 1.317 . S
C7 H18 0.930 . S
C8 C2 1.412 . S
C8 C9 1.355 . S
C8 H20 0.930 . S
C9 C8 1.355 . S
C9 C11 1.402 . S
C9 H21 0.930 . S
N10 Gd1 2.661 . S
N10 C5 1.350 . S
N10 C11 1.307 . S
C11 C9 1.402 . S
C11 N10 1.307 . S
C11 H12 0.930 . S
H12 C11 0.930 . S
C13 N14 1.334 . S
C13 C15 1.394 . S
C13 H17 0.930 . S
N14 Gd1 2.601 . S
N14 C4 1.359 . S
N14 C13 1.334 . S
C15 C13 1.394 . S
C15 C16 1.359 . S
C15 H27 0.930 . S
C16 C6 1.391 . S
C16 C15 1.359 . S
C16 H28 0.929 . S
H17 C13 0.930 . S
H18 C7 0.930 . S
H19 C36 0.930 . S
H20 C8 0.930 . S
H21 C9 0.930 . S
H22 C3 0.929 . S
H23 C41 0.930 . S
H24 C32 0.930 . S
H25 C33 0.930 . S
H26 C57 0.929 . S
H27 C15 0.930 . S
H28 C16 0.929 . S
H29 C58 0.930 . S
H30 C39 0.930 . S
N31 Gd0 2.661 . S
N31 C35 1.350 . S
N31 C36 1.307 . S
C32 H24 0.930 . S
C32 C33 1.355 . S
C32 C34 1.412 . S
C33 H25 0.930 . S
C33 C32 1.355 . S
C33 C36 1.402 . S
C34 C32 1.412 . S
C34 C35 1.417 . S
C34 C58 1.431 . S
C35 N31 1.350 . S
C35 C34 1.417 . S
C35 C38 1.426 . S
C36 H19 0.930 . S
C36 N31 1.307 . S
C36 C33 1.402 . S
N37 Gd0 2.601 . S
N37 C38 1.359 . S
N37 C41 1.334 . S
C38 C35 1.426 . S
C38 N37 1.359 . S
C38 C42 1.413 . S
C39 H30 0.930 . S
C39 C40 1.359 . S
C39 C41 1.394 . S
C40 C39 1.359 . S
C40 C42 1.391 . S
C40 H43 0.929 . S
C41 H23 0.930 . S
C41 N37 1.334 . S
C41 C39 1.394 . S
C42 C38 1.413 . S
C42 C40 1.391 . S
C42 C57 1.437 . S
H43 C40 0.929 . S
O44 Gd0 2.545 . S
O44 C59 1.258 . S
O45 Gd0 2.606 . S
O45 Gd1 2.362 . S
O45 C56 1.284 . S
O46 Gd1 2.324 . S
O46 C66 1.254 . S
O47 Gd0 2.429 . S
O47 C66 1.268 . S
O48 Gd0 2.545 . S
O48 C56 1.250 . S
O49 Gd0 2.412 . S
O49 C59 1.252 . S
O50 Gd1 2.545 . S
O50 C68 1.258 . S
O51 Gd0 2.362 . S
O51 Gd1 2.606 . S
O51 C67 1.284 . S
O52 Gd0 2.324 . S
O52 C75 1.254 . S
O53 Gd1 2.429 . S
O53 C75 1.268 . S
O54 Gd1 2.545 . S
O54 C67 1.250 . S
O55 Gd1 2.412 . S
O55 C68 1.252 . S
C56 O45 1.284 . S
C56 O48 1.250 . S
C57 H26 0.929 . S
C57 C42 1.437 . S
C57 C58 1.317 . S
C58 H29 0.930 . S
C58 C34 1.431 . S
C58 C57 1.317 . S
C59 Gd0 2.828 . S
C59 O44 1.258 . S
C59 O49 1.252 . S
C59 C60 1.497 . S
C60 C59 1.497 . S
C60 C61 1.395 . S
C60 C62 1.380 . S
C61 C60 1.395 . S
C61 C64 1.398 . S
C61 H76 0.930 . S
C62 C60 1.380 . S
C62 C63 1.391 . S
C62 H77 0.930 . S
C63 C62 1.391 . S
C63 C65 1.387 . S
C64 C61 1.398 . S
C64 C65 1.380 . S
C64 H78 0.930 . S
C65 C63 1.387 . S
C65 C64 1.380 . S
C65 H79 0.930 . S
C66 O46 1.254 . S
C66 O47 1.268 . S
C67 O51 1.284 . S
C67 O54 1.250 . S
C68 Gd1 2.828 . S
C68 O50 1.258 . S
C68 O55 1.252 . S
C68 C69 1.497 . S
C69 C68 1.497 . S
C69 C70 1.395 . S
C69 C71 1.380 . S
C70 C69 1.395 . S
C70 C73 1.398 . S
C70 H80 0.930 . S
C71 C69 1.380 . S
C71 C72 1.391 . S
C71 H81 0.930 . S
C72 C71 1.391 . S
C72 C74 1.387 . S
C73 C70 1.398 . S
C73 C74 1.380 . S
C73 H82 0.930 . S
C74 C72 1.387 . S
C74 C73 1.380 . S
C74 H83 0.930 . S
C75 O52 1.254 . S
C75 O53 1.268 . S
H76 C61 0.930 . S
H77 C62 0.930 . S
H78 C64 0.930 . S
H79 C65 0.930 . S
H80 C70 0.930 . S
H81 C71 0.930 . S
H82 C73 0.930 . S
H83 C74 0.930 . S
Gd84 N115 2.661 . S
Gd84 N121 2.601 . S
Gd84 O128 2.545 . S
Gd84 O129 2.606 . S
Gd84 O131 2.429 . S
Gd84 O132 2.545 . S
Gd84 O133 2.412 . S
Gd84 O135 2.362 . S
Gd84 O136 2.324 . S
Gd84 C143 2.828 . S
Gd85 N94 2.661 . S
Gd85 N98 2.601 . S
Gd85 O129 2.362 1_655 S
Gd85 O130 2.324 . S
Gd85 O134 2.545 . S
Gd85 O135 2.606 1_655 S
Gd85 O137 2.429 1_655 S
Gd85 O138 2.545 1_655 S
Gd85 O139 2.412 . S
Gd85 C152 2.828 . S
C86 C89 1.417 . S
C86 C91 1.431 . S
C86 C92 1.412 . S
C87 C90 1.437 . S
C87 C91 1.317 . S
C87 H106 0.929 . S
C88 C89 1.426 . S
C88 C90 1.413 . S
C88 N98 1.359 . S
C89 C86 1.417 . S
C89 C88 1.426 . S
C89 N94 1.350 . S
C90 C87 1.437 . S
C90 C88 1.413 . S
C90 C100 1.391 . S
C91 C86 1.431 . S
C91 C87 1.317 . S
C91 H102 0.930 . S
C92 C86 1.412 . S
C92 C93 1.355 . S
C92 H104 0.930 . S
C93 C92 1.355 . S
C93 C95 1.402 . S
C93 H105 0.930 . S
N94 Gd85 2.661 . S
N94 C89 1.350 . S
N94 C95 1.307 . S
C95 C93 1.402 . S
C95 N94 1.307 . S
C95 H96 0.930 . S
H96 C95 0.930 . S
C97 N98 1.334 . S
C97 C99 1.394 . S
C97 H101 0.930 1_655 S
N98 Gd85 2.601 . S
N98 C88 1.359 . S
N98 C97 1.334 . S
C99 C97 1.394 . S
C99 C100 1.359 . S
C99 H111 0.930 . S
C100 C90 1.391 . S
C100 C99 1.359 . S
C100 H112 0.929 . S
H101 C97 0.930 1_455 S
H102 C91 0.930 . S
H103 C120 0.930 . S
H104 C92 0.930 . S
H105 C93 0.930 . S
H106 C87 0.929 . S
H107 C125 0.930 . S
H108 C116 0.930 . S
H109 C117 0.930 . S
H110 C141 0.929 . S
H111 C99 0.930 . S
H112 C100 0.929 . S
H113 C142 0.930 . S
H114 C123 0.930 . S
N115 Gd84 2.661 . S
N115 C119 1.350 . S
N115 C120 1.307 . S
C116 H108 0.930 . S
C116 C117 1.355 . S
C116 C118 1.412 . S
C117 H109 0.930 . S
C117 C116 1.355 . S
C117 C120 1.402 . S
C118 C116 1.412 . S
C118 C119 1.417 . S
C118 C142 1.431 . S
C119 N115 1.350 . S
C119 C118 1.417 . S
C119 C122 1.426 . S
C120 H103 0.930 . S
C120 N115 1.307 . S
C120 C117 1.402 . S
N121 Gd84 2.601 . S
N121 C122 1.359 . S
N121 C125 1.334 . S
C122 C119 1.426 . S
C122 N121 1.359 . S
C122 C126 1.413 . S
C123 H114 0.930 . S
C123 C124 1.359 . S
C123 C125 1.394 . S
C124 C123 1.359 . S
C124 C126 1.391 . S
C124 H127 0.929 . S
C125 H107 0.930 . S
C125 N121 1.334 . S
C125 C123 1.394 . S
C126 C122 1.413 . S
C126 C124 1.391 . S
C126 C141 1.437 . S
H127 C124 0.929 . S
O128 Gd84 2.545 . S
O128 C143 1.258 . S
O129 Gd84 2.606 . S
O129 Gd85 2.362 1_455 S
O129 C140 1.284 . S
O130 Gd85 2.324 . S
O130 C150 1.254 . S
O131 Gd84 2.429 . S
O131 C150 1.268 1_455 S
O132 Gd84 2.545 . S
O132 C140 1.250 . S
O133 Gd84 2.412 . S
O133 C143 1.252 . S
O134 Gd85 2.545 . S
O134 C152 1.258 . S
O135 Gd84 2.362 . S
O135 Gd85 2.606 1_455 S
O135 C151 1.284 . S
O136 Gd84 2.324 . S
O136 C159 1.254 . S
O137 Gd85 2.429 1_455 S
O137 C159 1.268 . S
O138 Gd85 2.545 1_455 S
O138 C151 1.250 . S
O139 Gd85 2.412 . S
O139 C152 1.252 . S
C140 O129 1.284 . S
C140 O132 1.250 . S
C141 H110 0.929 . S
C141 C126 1.437 . S
C141 C142 1.317 . S
C142 H113 0.930 . S
C142 C118 1.431 . S
C142 C141 1.317 . S
C143 Gd84 2.828 . S
C143 O128 1.258 . S
C143 O133 1.252 . S
C143 C144 1.497 . S
C144 C143 1.497 . S
C144 C145 1.395 . S
C144 C146 1.380 . S
C145 C144 1.395 . S
C145 C148 1.398 . S
C145 H160 0.930 . S
C146 C144 1.380 . S
C146 C147 1.391 . S
C146 H161 0.930 . S
C147 C146 1.391 . S
C147 C149 1.387 . S
C148 C145 1.398 . S
C148 C149 1.380 . S
C148 H162 0.930 . S
C149 C147 1.387 . S
C149 C148 1.380 . S
C149 H163 0.930 . S
C150 O130 1.254 . S
C150 O131 1.268 1_655 S
C151 O135 1.284 . S
C151 O138 1.250 . S
C152 Gd85 2.828 . S
C152 O134 1.258 . S
C152 O139 1.252 . S
C152 C153 1.497 . S
C153 C152 1.497 . S
C153 C154 1.395 . S
C153 C155 1.380 . S
C154 C153 1.395 . S
C154 C157 1.398 . S
C154 H164 0.930 . S
C155 C153 1.380 . S
C155 C156 1.391 . S
C155 H165 0.930 . S
C156 C155 1.391 . S
C156 C158 1.387 . S
C157 C154 1.398 . S
C157 C158 1.380 . S
C157 H166 0.930 . S
C158 C156 1.387 . S
C158 C157 1.380 . S
C158 H167 0.930 . S
C159 O136 1.254 . S
C159 O137 1.268 . S
H160 C145 0.930 . S
H161 C146 0.930 . S
H162 C148 0.930 . S
H163 C149 0.930 . S
H164 C154 0.930 . S
H165 C155 0.930 . S
H166 C157 0.930 . S
H167 C158 0.930 . S
Gd168 N199 2.661 1_554 S
Gd168 N205 2.601 . S
Gd168 O212 2.545 . S
Gd168 O213 2.605 1_554 S
Gd168 O215 2.429 . S
Gd168 O216 2.545 . S
Gd168 O217 2.412 . S
Gd168 O219 2.362 1_554 S
Gd168 O220 2.324 1_554 S
Gd168 C227 2.828 . S
Gd169 N178 2.661 . S
Gd169 N182 2.601 . S
Gd169 O213 2.367 . S
Gd169 O214 2.324 . S
Gd169 O218 2.545 . S
Gd169 O219 2.606 . S
Gd169 O221 2.429 . S
Gd169 O222 2.545 . S
Gd169 O223 2.412 . S
Gd169 C236 2.828 . S
C170 C173 1.417 . S
C170 C175 1.431 . S
C170 C176 1.412 1_556 S
C171 C174 1.437 . S
C171 C175 1.317 . S
C171 H190 0.929 . S
C172 C173 1.426 . S
C172 C174 1.413 . S
C172 N182 1.359 . S
C173 C170 1.417 . S
C173 C172 1.426 . S
C173 N178 1.350 . S
C174 C171 1.437 . S
C174 C172 1.413 . S
C174 C184 1.391 . S
C175 C170 1.431 . S
C175 C171 1.317 . S
C175 H186 0.930 . S
C176 C170 1.412 1_554 S
C176 C177 1.355 . S
C176 H188 0.930 . S
C177 C176 1.355 . S
C177 C179 1.402 . S
C177 H189 0.930 . S
N178 Gd169 2.661 . S
N178 C173 1.350 . S
N178 C179 1.307 1_556 S
C179 C177 1.402 . S
C179 N178 1.307 1_554 S
C179 H180 0.930 . S
H180 C179 0.930 . S
C181 N182 1.334 . S
C181 C183 1.394 . S
C181 H185 0.930 . S
N182 Gd169 2.601 . S
N182 C172 1.359 . S
N182 C181 1.334 . S
C183 C181 1.394 . S
C183 C184 1.359 . S
C183 H195 0.930 . S
C184 C174 1.391 . S
C184 C183 1.359 . S
C184 H196 0.929 . S
H185 C181 0.930 . S
H186 C175 0.930 . S
H187 C204 0.930 . S
H188 C176 0.930 . S
H189 C177 0.930 . S
H190 C171 0.929 . S
H191 C209 0.930 . S
H192 C200 0.930 . S
H193 C201 0.930 . S
H194 C225 0.929 . S
H195 C183 0.930 . S
H196 C184 0.929 . S
H197 C226 0.930 . S
H198 C207 0.930 . S
N199 Gd168 2.661 1_556 S
N199 C203 1.350 . S
N199 C204 1.307 . S
C200 H192 0.930 . S
C200 C201 1.355 . S
C200 C202 1.412 . S
C201 H193 0.930 . S
C201 C200 1.355 . S
C201 C204 1.402 . S
C202 C200 1.412 . S
C202 C203 1.417 . S
C202 C226 1.431 . S
C203 N199 1.350 . S
C203 C202 1.417 . S
C203 C206 1.426 1_556 S
C204 H187 0.930 . S
C204 N199 1.307 . S
C204 C201 1.402 . S
N205 Gd168 2.601 . S
N205 C206 1.359 . S
N205 C209 1.334 . S
C206 C203 1.426 1_554 S
C206 N205 1.359 . S
C206 C210 1.413 . S
C207 H198 0.930 . S
C207 C208 1.359 . S
C207 C209 1.394 . S
C208 C207 1.359 . S
C208 C210 1.391 . S
C208 H211 0.929 . S
C209 H191 0.930 . S
C209 N205 1.334 . S
C209 C207 1.394 . S
C210 C206 1.413 . S
C210 C208 1.391 . S
C210 C225 1.437 . S
H211 C208 0.929 . S
O212 Gd168 2.545 . S
O212 C227 1.258 . S
O213 Gd168 2.605 1_556 S
O213 Gd169 2.367 . S
O213 C224 1.280 1_556 S
O214 Gd169 2.324 . S
O214 C234 1.228 1_556 S
O215 Gd168 2.429 . S
O215 C234 1.295 . S
O216 Gd168 2.545 . S
O216 C224 1.250 . S
O217 Gd168 2.412 . S
O217 C227 1.252 . S
O218 Gd169 2.545 . S
O218 C236 1.258 . S
O219 Gd168 2.362 1_556 S
O219 Gd169 2.606 . S
O219 C235 1.284 . S
O220 Gd168 2.324 1_556 S
O220 C243 1.254 . S
O221 Gd169 2.429 . S
O221 C243 1.268 . S
O222 Gd169 2.545 . S
O222 C235 1.250 . S
O223 Gd169 2.412 . S
O223 C236 1.252 . S
C224 O213 1.280 1_554 S
C224 O216 1.250 . S
C225 H194 0.929 . S
C225 C210 1.437 . S
C225 C226 1.317 1_554 S
C226 H197 0.930 . S
C226 C202 1.431 . S
C226 C225 1.317 1_556 S
C227 Gd168 2.828 . S
C227 O212 1.258 . S
C227 O217 1.252 . S
C227 C228 1.497 . S
C228 C227 1.497 . S
C228 C229 1.395 . S
C228 C230 1.380 . S
C229 C228 1.395 . S
C229 C232 1.398 . S
C229 H244 0.930 . S
C230 C228 1.380 . S
C230 C231 1.391 . S
C230 H245 0.930 . S
C231 C230 1.391 . S
C231 C233 1.387 . S
C232 C229 1.398 . S
C232 C233 1.380 . S
C232 H246 0.930 . S
C233 C231 1.387 . S
C233 C232 1.380 . S
C233 H247 0.930 . S
C234 O214 1.228 1_554 S
C234 O215 1.295 . S
C235 O219 1.284 . S
C235 O222 1.250 . S
C236 Gd169 2.828 . S
C236 O218 1.258 . S
C236 O223 1.252 . S
C236 C237 1.497 . S
C237 C236 1.497 . S
C237 C238 1.395 . S
C237 C239 1.380 . S
C238 C237 1.395 . S
C238 C241 1.398 . S
C238 H248 0.930 . S
C239 C237 1.380 . S
C239 C240 1.391 . S
C239 H249 0.930 . S
C240 C239 1.391 . S
C240 C242 1.387 . S
C241 C238 1.398 . S
C241 C242 1.380 . S
C241 H250 0.930 . S
C242 C240 1.387 . S
C242 C241 1.380 . S
C242 H251 0.930 . S
C243 O220 1.254 . S
C243 O221 1.268 . S
H244 C229 0.930 . S
H245 C230 0.930 . S
H246 C232 0.930 . S
H247 C233 0.930 . S
H248 C238 0.930 . S
H249 C239 0.930 . S
H250 C241 0.930 . S
H251 C242 0.930 . S
Gd252 N283 2.661 . S
Gd252 N289 2.601 . S
Gd252 O296 2.545 . S
Gd252 O297 2.606 . S
Gd252 O299 2.429 . S
Gd252 O300 2.545 . S
Gd252 O301 2.412 . S
Gd252 O303 2.362 . S
Gd252 O304 2.324 . S
Gd252 C311 2.828 . S
Gd253 N262 2.661 . S
Gd253 N266 2.601 . S
Gd253 O297 2.362 . S
Gd253 O298 2.324 . S
Gd253 O302 2.545 . S
Gd253 O303 2.606 . S
Gd253 O305 2.429 . S
Gd253 O306 2.545 . S
Gd253 O307 2.412 . S
Gd253 C320 2.828 . S
C254 C257 1.417 . S
C254 C259 1.431 . S
C254 C260 1.412 . S
C255 C258 1.437 . S
C255 C259 1.317 . S
C255 H274 0.929 . S
C256 C257 1.426 . S
C256 C258 1.413 . S
C256 N266 1.359 . S
C257 C254 1.417 . S
C257 C256 1.426 . S
C257 N262 1.350 . S
C258 C255 1.437 . S
C258 C256 1.413 . S
C258 C268 1.391 . S
C259 C254 1.431 . S
C259 C255 1.317 . S
C259 H270 0.930 . S
C260 C254 1.412 . S
C260 C261 1.355 . S
C260 H272 0.930 . S
C261 C260 1.355 . S
C261 C263 1.402 . S
C261 H273 0.930 . S
N262 Gd253 2.661 . S
N262 C257 1.350 . S
N262 C263 1.307 . S
C263 C261 1.402 . S
C263 N262 1.307 . S
C263 H264 0.930 . S
H264 C263 0.930 . S
C265 N266 1.334 . S
C265 C267 1.394 . S
C265 H269 0.930 . S
N266 Gd253 2.601 . S
N266 C256 1.359 . S
N266 C265 1.334 . S
C267 C265 1.394 . S
C267 C268 1.359 . S
C267 H279 0.930 . S
C268 C258 1.391 . S
C268 C267 1.359 . S
C268 H280 0.929 . S
H269 C265 0.930 . S
H270 C259 0.930 . S
H271 C288 0.930 . S
H272 C260 0.930 . S
H273 C261 0.930 . S
H274 C255 0.929 . S
H275 C293 0.930 . S
H276 C284 0.930 . S
H277 C285 0.930 . S
H278 C309 0.929 . S
H279 C267 0.930 . S
H280 C268 0.929 . S
H281 C310 0.930 . S
H282 C291 0.930 . S
N283 Gd252 2.661 . S
N283 C287 1.350 . S
N283 C288 1.307 . S
C284 H276 0.930 . S
C284 C285 1.355 . S
C284 C286 1.412 . S
C285 H277 0.930 . S
C285 C284 1.355 . S
C285 C288 1.402 . S
C286 C284 1.412 . S
C286 C287 1.417 . S
C286 C310 1.431 . S
C287 N283 1.350 . S
C287 C286 1.417 . S
C287 C290 1.426 . S
C288 H271 0.930 . S
C288 N283 1.307 . S
C288 C285 1.402 . S
N289 Gd252 2.601 . S
N289 C290 1.359 . S
N289 C293 1.334 . S
C290 C287 1.426 . S
C290 N289 1.359 . S
C290 C294 1.413 . S
C291 H282 0.930 . S
C291 C292 1.359 . S
C291 C293 1.394 . S
C292 C291 1.359 . S
C292 C294 1.391 . S
C292 H295 0.929 . S
C293 H275 0.930 . S
C293 N289 1.334 . S
C293 C291 1.394 . S
C294 C290 1.413 . S
C294 C292 1.391 . S
C294 C309 1.437 . S
H295 C292 0.929 . S
O296 Gd252 2.545 . S
O296 C311 1.258 . S
O297 Gd252 2.606 . S
O297 Gd253 2.362 . S
O297 C308 1.284 . S
O298 Gd253 2.324 . S
O298 C318 1.254 . S
O299 Gd252 2.429 . S
O299 C318 1.268 . S
O300 Gd252 2.545 . S
O300 C308 1.250 . S
O301 Gd252 2.412 . S
O301 C311 1.252 . S
O302 Gd253 2.545 . S
O302 C320 1.258 . S
O303 Gd252 2.362 . S
O303 Gd253 2.606 . S
O303 C319 1.284 . S
O304 Gd252 2.324 . S
O304 C327 1.254 . S
O305 Gd253 2.429 . S
O305 C327 1.268 . S
O306 Gd253 2.545 . S
O306 C319 1.250 . S
O307 Gd253 2.412 . S
O307 C320 1.252 . S
C308 O297 1.284 . S
C308 O300 1.250 . S
C309 H278 0.929 . S
C309 C294 1.437 . S
C309 C310 1.317 . S
C310 H281 0.930 . S
C310 C286 1.431 . S
C310 C309 1.317 . S
C311 Gd252 2.828 . S
C311 O296 1.258 . S
C311 O301 1.252 . S
C311 C312 1.497 . S
C312 C311 1.497 . S
C312 C313 1.395 . S
C312 C314 1.380 . S
C313 C312 1.395 . S
C313 C316 1.398 . S
C313 H328 0.930 . S
C314 C312 1.380 . S
C314 C315 1.391 . S
C314 H329 0.930 . S
C315 C314 1.391 . S
C315 C317 1.387 . S
C316 C313 1.398 . S
C316 C317 1.380 . S
C316 H330 0.930 . S
C317 C315 1.387 . S
C317 C316 1.380 . S
C317 H331 0.930 . S
C318 O298 1.254 . S
C318 O299 1.268 . S
C319 O303 1.284 . S
C319 O306 1.250 . S
C320 Gd253 2.828 . S
C320 O302 1.258 . S
C320 O307 1.252 . S
C320 C321 1.497 . S
C321 C320 1.497 . S
C321 C322 1.395 . S
C321 C323 1.380 . S
C322 C321 1.395 . S
C322 C325 1.398 . S
C322 H332 0.930 . S
C323 C321 1.380 . S
C323 C324 1.391 . S
C323 H333 0.930 . S
C324 C323 1.391 . S
C324 C326 1.387 . S
C325 C322 1.398 . S
C325 C326 1.380 . S
C325 H334 0.930 . S
C326 C324 1.387 . S
C326 C325 1.380 . S
C326 H335 0.930 . S
C327 O304 1.254 . S
C327 O305 1.268 . S
H328 C313 0.930 . S
H329 C314 0.930 . S
H330 C316 0.930 . S
H331 C317 0.930 . S
H332 C322 0.930 . S
H333 C323 0.930 . S
H334 C325 0.930 . S
H335 C326 0.930 . S
Gd336 N367 2.661 . S
Gd336 N373 2.601 . S
Gd336 O380 2.545 . S
Gd336 O381 2.606 . S
Gd336 O383 2.429 . S
Gd336 O384 2.545 . S
Gd336 O385 2.412 . S
Gd336 O387 2.362 . S
Gd336 O388 2.324 . S
Gd336 C395 2.828 . S
Gd337 N346 2.661 . S
Gd337 N350 2.601 . S
Gd337 O381 2.362 . S
Gd337 O382 2.324 . S
Gd337 O386 2.545 . S
Gd337 O387 2.606 . S
Gd337 O389 2.429 . S
Gd337 O390 2.545 . S
Gd337 O391 2.412 . S
Gd337 C404 2.828 . S
C338 C341 1.417 . S
C338 C343 1.431 . S
C338 C344 1.412 . S
C339 C342 1.437 . S
C339 C343 1.317 . S
C339 H358 0.929 . S
C340 C341 1.426 . S
C340 C342 1.413 . S
C340 N350 1.359 . S
C341 C338 1.417 . S
C341 C340 1.426 . S
C341 N346 1.350 . S
C342 C339 1.437 . S
C342 C340 1.413 . S
C342 C352 1.391 . S
C343 C338 1.431 . S
C343 C339 1.317 . S
C343 H354 0.930 . S
C344 C338 1.412 . S
C344 C345 1.355 . S
C344 H356 0.930 . S
C345 C344 1.355 . S
C345 C347 1.402 . S
C345 H357 0.930 . S
N346 Gd337 2.661 . S
N346 C341 1.350 . S
N346 C347 1.307 . S
C347 C345 1.402 . S
C347 N346 1.307 . S
C347 H348 0.930 . S
H348 C347 0.930 . S
C349 N350 1.334 . S
C349 C351 1.394 . S
C349 H353 0.930 . S
N350 Gd337 2.601 . S
N350 C340 1.359 . S
N350 C349 1.334 . S
C351 C349 1.394 . S
C351 C352 1.359 . S
C351 H363 0.930 . S
C352 C342 1.391 . S
C352 C351 1.359 . S
C352 H364 0.929 . S
H353 C349 0.930 . S
H354 C343 0.930 . S
H355 C372 0.930 . S
H356 C344 0.930 . S
H357 C345 0.930 . S
H358 C339 0.929 . S
H359 C377 0.930 . S
H360 C368 0.930 . S
H361 C369 0.930 . S
H362 C393 0.929 . S
H363 C351 0.930 . S
H364 C352 0.929 . S
H365 C394 0.930 . S
H366 C375 0.930 . S
N367 Gd336 2.661 . S
N367 C371 1.350 . S
N367 C372 1.307 . S
C368 H360 0.930 . S
C368 C369 1.355 . S
C368 C370 1.412 . S
C369 H361 0.930 . S
C369 C368 1.355 . S
C369 C372 1.402 . S
C370 C368 1.412 . S
C370 C371 1.417 . S
C370 C394 1.431 . S
C371 N367 1.350 . S
C371 C370 1.417 . S
C371 C374 1.426 . S
C372 H355 0.930 . S
C372 N367 1.307 . S
C372 C369 1.402 . S
N373 Gd336 2.601 . S
N373 C374 1.359 . S
N373 C377 1.334 . S
C374 C371 1.426 . S
C374 N373 1.359 . S
C374 C378 1.413 . S
C375 H366 0.930 . S
C375 C376 1.359 . S
C375 C377 1.394 . S
C376 C375 1.359 . S
C376 C378 1.391 . S
C376 H379 0.929 . S
C377 H359 0.930 . S
C377 N373 1.334 . S
C377 C375 1.394 . S
C378 C374 1.413 . S
C378 C376 1.391 . S
C378 C393 1.437 . S
H379 C376 0.929 . S
O380 Gd336 2.545 . S
O380 C395 1.258 . S
O381 Gd336 2.606 . S
O381 Gd337 2.362 . S
O381 C392 1.284 . S
O382 Gd337 2.324 . S
O382 C402 1.254 . S
O383 Gd336 2.429 . S
O383 C402 1.268 . S
O384 Gd336 2.545 . S
O384 C392 1.250 . S
O385 Gd336 2.412 . S
O385 C395 1.252 . S
O386 Gd337 2.545 . S
O386 C404 1.258 . S
O387 Gd336 2.362 . S
O387 Gd337 2.606 . S
O387 C403 1.284 . S
O388 Gd336 2.324 . S
O388 C411 1.254 . S
O389 Gd337 2.429 . S
O389 C411 1.268 . S
O390 Gd337 2.545 . S
O390 C403 1.250 . S
O391 Gd337 2.412 . S
O391 C404 1.252 . S
C392 O381 1.284 . S
C392 O384 1.250 . S
C393 H362 0.929 . S
C393 C378 1.437 . S
C393 C394 1.317 . S
C394 H365 0.930 . S
C394 C370 1.431 . S
C394 C393 1.317 . S
C395 Gd336 2.828 . S
C395 O380 1.258 . S
C395 O385 1.252 . S
C395 C396 1.497 . S
C396 C395 1.497 . S
C396 C397 1.395 . S
C396 C398 1.380 . S
C397 C396 1.395 . S
C397 C400 1.398 . S
C397 H412 0.930 . S
C398 C396 1.380 . S
C398 C399 1.391 . S
C398 H413 0.930 . S
C399 C398 1.391 . S
C399 C401 1.387 . S
C400 C397 1.398 . S
C400 C401 1.380 . S
C400 H414 0.930 . S
C401 C399 1.387 . S
C401 C400 1.380 . S
C401 H415 0.930 . S
C402 O382 1.254 . S
C402 O383 1.268 . S
C403 O387 1.284 . S
C403 O390 1.250 . S
C404 Gd337 2.828 . S
C404 O386 1.258 . S
C404 O391 1.252 . S
C404 C405 1.497 . S
C405 C404 1.497 . S
C405 C406 1.395 . S
C405 C407 1.380 . S
C406 C405 1.395 . S
C406 C409 1.398 . S
C406 H416 0.930 . S
C407 C405 1.380 . S
C407 C408 1.391 . S
C407 H417 0.930 . S
C408 C407 1.391 . S
C408 C410 1.387 . S
C409 C406 1.398 . S
C409 C410 1.380 . S
C409 H418 0.930 . S
C410 C408 1.387 . S
C410 C409 1.380 . S
C410 H419 0.930 . S
C411 O388 1.254 . S
C411 O389 1.268 . S
H412 C397 0.930 . S
H413 C398 0.930 . S
H414 C400 0.930 . S
H415 C401 0.930 . S
H416 C406 0.930 . S
H417 C407 0.930 . S
H418 C409 0.930 . S
H419 C410 0.930 . S
Gd420 N451 2.661 1_455 S
Gd420 N457 2.601 . S
Gd420 O464 2.545 . S
Gd420 O465 2.607 . S
Gd420 O467 2.429 . S
Gd420 O468 2.545 . S
Gd420 O469 2.412 . S
Gd420 O471 2.362 1_455 S
Gd420 O472 2.324 1_455 S
Gd420 C479 2.828 . S
Gd421 N430 2.661 . S
Gd421 N434 2.601 . S
Gd421 O465 2.359 1_655 S
Gd421 O466 2.324 . S
Gd421 O470 2.545 . S
Gd421 O471 2.606 . S
Gd421 O473 2.429 . S
Gd421 O474 2.545 . S
Gd421 O475 2.412 . S
Gd421 C488 2.828 . S
C422 C425 1.417 . S
C422 C427 1.431 . S
C422 C428 1.412 1_655 S
C423 C426 1.437 . S
C423 C427 1.317 . S
C423 H442 0.929 . S
C424 C425 1.426 . S
C424 C426 1.413 . S
C424 N434 1.359 . S
C425 C422 1.417 . S
C425 C424 1.426 . S
C425 N430 1.350 . S
C426 C423 1.437 . S
C426 C424 1.413 . S
C426 C436 1.391 . S
C427 C422 1.431 . S
C427 C423 1.317 . S
C427 H438 0.930 . S
C428 C422 1.412 1_455 S
C428 C429 1.355 . S
C428 H440 0.930 . S
C429 C428 1.355 . S
C429 C431 1.402 . S
C429 H441 0.930 . S
N430 Gd421 2.661 . S
N430 C425 1.350 . S
N430 C431 1.307 1_655 S
C431 C429 1.402 . S
C431 N430 1.307 1_455 S
C431 H432 0.930 . S
H432 C431 0.930 . S
C433 N434 1.334 . S
C433 C435 1.394 . S
C433 H437 0.930 . S
N434 Gd421 2.601 . S
N434 C424 1.359 . S
N434 C433 1.334 . S
C435 C433 1.394 . S
C435 C436 1.359 . S
C435 H447 0.930 . S
C436 C426 1.391 . S
C436 C435 1.359 . S
C436 H448 0.929 . S
H437 C433 0.930 . S
H438 C427 0.930 . S
H439 C456 0.930 . S
H440 C428 0.930 . S
H441 C429 0.930 . S
H442 C423 0.929 . S
H443 C461 0.930 . S
H444 C452 0.930 . S
H445 C453 0.930 . S
H446 C477 0.929 . S
H447 C435 0.930 . S
H448 C436 0.929 . S
H449 C478 0.930 . S
H450 C459 0.930 . S
N451 Gd420 2.661 1_655 S
N451 C455 1.350 . S
N451 C456 1.307 . S
C452 H444 0.930 . S
C452 C453 1.355 . S
C452 C454 1.412 . S
C453 H445 0.930 . S
C453 C452 1.355 . S
C453 C456 1.402 . S
C454 C452 1.412 . S
C454 C455 1.417 . S
C454 C478 1.431 . S
C455 N451 1.350 . S
C455 C454 1.417 . S
C455 C458 1.426 1_655 S
C456 H439 0.930 . S
C456 N451 1.307 . S
C456 C453 1.402 . S
N457 Gd420 2.601 . S
N457 C458 1.359 . S
N457 C461 1.334 . S
C458 C455 1.426 1_455 S
C458 N457 1.359 . S
C458 C462 1.413 . S
C459 H450 0.930 . S
C459 C460 1.359 . S
C459 C461 1.394 . S
C460 C459 1.359 . S
C460 C462 1.391 . S
C460 H463 0.929 . S
C461 H443 0.930 . S
C461 N457 1.334 . S
C461 C459 1.394 . S
C462 C458 1.413 . S
C462 C460 1.391 . S
C462 C477 1.437 . S
H463 C460 0.929 . S
O464 Gd420 2.545 . S
O464 C479 1.258 . S
O465 Gd420 2.607 . S
O465 Gd421 2.359 1_455 S
O465 C476 1.287 . S
O466 Gd421 2.324 . S
O466 C486 1.254 1_655 S
O467 Gd420 2.429 . S
O467 C486 1.268 . S
O468 Gd420 2.545 . S
O468 C476 1.250 . S
O469 Gd420 2.412 . S
O469 C479 1.252 . S
O470 Gd421 2.545 . S
O470 C488 1.258 . S
O471 Gd420 2.362 1_655 S
O471 Gd421 2.606 . S
O471 C487 1.284 . S
O472 Gd420 2.324 1_655 S
O472 C495 1.254 . S
O473 Gd421 2.429 . S
O473 C495 1.268 . S
O474 Gd421 2.545 . S
O474 C487 1.250 . S
O475 Gd421 2.412 . S
O475 C488 1.252 . S
C476 O465 1.287 . S
C476 O468 1.250 . S
C477 H446 0.929 . S
C477 C462 1.437 . S
C477 C478 1.317 1_455 S
C478 H449 0.930 . S
C478 C454 1.431 . S
C478 C477 1.317 1_655 S
C479 Gd420 2.828 . S
C479 O464 1.258 . S
C479 O469 1.252 . S
C479 C480 1.497 . S
C480 C479 1.497 . S
C480 C481 1.395 . S
C480 C482 1.380 . S
C481 C480 1.395 . S
C481 C484 1.398 . S
C481 H496 0.930 . S
C482 C480 1.380 . S
C482 C483 1.391 . S
C482 H497 0.930 . S
C483 C482 1.391 . S
C483 C485 1.387 . S
C484 C481 1.398 . S
C484 C485 1.380 . S
C484 H498 0.930 . S
C485 C483 1.387 . S
C485 C484 1.380 . S
C485 H499 0.930 . S
C486 O466 1.254 1_455 S
C486 O467 1.268 . S
C487 O471 1.284 . S
C487 O474 1.250 . S
C488 Gd421 2.828 . S
C488 O470 1.258 . S
C488 O475 1.252 . S
C488 C489 1.497 . S
C489 C488 1.497 . S
C489 C490 1.395 . S
C489 C491 1.380 . S
C490 C489 1.395 . S
C490 C493 1.398 . S
C490 H500 0.930 . S
C491 C489 1.380 . S
C491 C492 1.391 . S
C491 H501 0.930 . S
C492 C491 1.391 . S
C492 C494 1.387 . S
C493 C490 1.398 . S
C493 C494 1.380 . S
C493 H502 0.930 . S
C494 C492 1.387 . S
C494 C493 1.380 . S
C494 H503 0.930 . S
C495 O472 1.254 . S
C495 O473 1.268 . S
H496 C481 0.930 . S
H497 C482 0.930 . S
H498 C484 0.930 . S
H499 C485 0.930 . S
H500 C490 0.930 . S
H501 C491 0.930 . S
H502 C493 0.930 . S
H503 C494 0.930 . S
Gd504 N535 2.661 1_556 S
Gd504 N541 2.601 . S
Gd504 O548 2.545 . S
Gd504 O549 2.606 1_556 S
Gd504 O551 2.429 . S
Gd504 O552 2.545 . S
Gd504 O553 2.412 . S
Gd504 O555 2.362 1_556 S
Gd504 O556 2.324 1_556 S
Gd504 C563 2.828 . S
Gd505 N514 2.661 . S
Gd505 N518 2.601 . S
Gd505 O549 2.362 . S
Gd505 O550 2.324 . S
Gd505 O554 2.545 . S
Gd505 O555 2.606 . S
Gd505 O557 2.429 . S
Gd505 O558 2.545 . S
Gd505 O559 2.412 . S
Gd505 C572 2.828 . S
C506 C509 1.417 . S
C506 C511 1.431 . S
C506 C512 1.412 1_554 S
C507 C510 1.437 . S
C507 C511 1.317 . S
C507 H526 0.929 . S
C508 C509 1.426 . S
C508 C510 1.413 . S
C508 N518 1.359 . S
C509 C506 1.417 . S
C509 C508 1.426 . S
C509 N514 1.350 . S
C510 C507 1.437 . S
C510 C508 1.413 . S
C510 C520 1.391 . S
C511 C506 1.431 . S
C511 C507 1.317 . S
C511 H522 0.930 . S
C512 C506 1.412 1_556 S
C512 C513 1.355 . S
C512 H524 0.930 . S
C513 C512 1.355 . S
C513 C515 1.402 . S
C513 H525 0.930 . S
N514 Gd505 2.661 . S
N514 C509 1.350 . S
N514 C515 1.307 1_554 S
C515 C513 1.402 . S
C515 N514 1.307 1_556 S
C515 H516 0.930 . S
H516 C515 0.930 . S
C517 N518 1.334 . S
C517 C519 1.394 . S
C517 H521 0.930 . S
N518 Gd505 2.601 . S
N518 C508 1.359 . S
N518 C517 1.334 . S
C519 C517 1.394 . S
C519 C520 1.359 . S
C519 H531 0.930 . S
C520 C510 1.391 . S
C520 C519 1.359 . S
C520 H532 0.929 . S
H521 C517 0.930 . S
H522 C511 0.930 . S
H523 C540 0.930 . S
H524 C512 0.930 . S
H525 C513 0.930 . S
H526 C507 0.929 . S
H527 C545 0.930 . S
H528 C536 0.930 . S
H529 C537 0.930 . S
H530 C561 0.929 1_556 S
H531 C519 0.930 . S
H532 C520 0.929 . S
H533 C562 0.930 . S
H534 C543 0.930 . S
N535 Gd504 2.661 1_554 S
N535 C539 1.350 . S
N535 C540 1.307 . S
C536 H528 0.930 . S
C536 C537 1.355 . S
C536 C538 1.412 . S
C537 H529 0.930 . S
C537 C536 1.355 . S
C537 C540 1.402 . S
C538 C536 1.412 . S
C538 C539 1.417 . S
C538 C562 1.431 . S
C539 N535 1.350 . S
C539 C538 1.417 . S
C539 C542 1.426 1_554 S
C540 H523 0.930 . S
C540 N535 1.307 . S
C540 C537 1.402 . S
N541 Gd504 2.601 . S
N541 C542 1.359 . S
N541 C545 1.334 . S
C542 C539 1.426 1_556 S
C542 N541 1.359 . S
C542 C546 1.413 . S
C543 H534 0.930 . S
C543 C544 1.359 . S
C543 C545 1.394 . S
C544 C543 1.359 . S
C544 C546 1.391 . S
C544 H547 0.929 . S
C545 H527 0.930 . S
C545 N541 1.334 . S
C545 C543 1.394 . S
C546 C542 1.413 . S
C546 C544 1.391 . S
C546 C561 1.437 1_556 S
H547 C544 0.929 . S
O548 Gd504 2.545 . S
O548 C563 1.258 . S
O549 Gd504 2.606 1_554 S
O549 Gd505 2.362 . S
O549 C560 1.284 1_554 S
O550 Gd505 2.324 . S
O550 C570 1.254 . S
O551 Gd504 2.429 . S
O551 C570 1.268 1_556 S
O552 Gd504 2.545 . S
O552 C560 1.250 . S
O553 Gd504 2.412 . S
O553 C563 1.252 . S
O554 Gd505 2.545 . S
O554 C572 1.258 . S
O555 Gd504 2.362 1_554 S
O555 Gd505 2.606 . S
O555 C571 1.284 . S
O556 Gd504 2.324 1_554 S
O556 C579 1.254 . S
O557 Gd505 2.429 . S
O557 C579 1.268 . S
O558 Gd505 2.545 . S
O558 C571 1.250 . S
O559 Gd505 2.412 . S
O559 C572 1.252 . S
C560 O549 1.284 1_556 S
C560 O552 1.250 . S
C561 H530 0.929 1_554 S
C561 C546 1.437 1_554 S
C561 C562 1.317 . S
C562 H533 0.930 . S
C562 C538 1.431 . S
C562 C561 1.317 . S
C563 Gd504 2.828 . S
C563 O548 1.258 . S
C563 O553 1.252 . S
C563 C564 1.497 . S
C564 C563 1.497 . S
C564 C565 1.395 . S
C564 C566 1.380 . S
C565 C564 1.395 . S
C565 C568 1.398 . S
C565 H580 0.930 . S
C566 C564 1.380 . S
C566 C567 1.391 . S
C566 H581 0.930 . S
C567 C566 1.391 . S
C567 C569 1.387 . S
C568 C565 1.398 . S
C568 C569 1.380 . S
C568 H582 0.930 . S
C569 C567 1.387 . S
C569 C568 1.380 . S
C569 H583 0.930 . S
C570 O550 1.254 . S
C570 O551 1.268 1_554 S
C571 O555 1.284 . S
C571 O558 1.250 . S
C572 Gd505 2.828 . S
C572 O554 1.258 . S
C572 O559 1.252 . S
C572 C573 1.497 . S
C573 C572 1.497 . S
C573 C574 1.395 . S
C573 C575 1.380 . S
C574 C573 1.395 . S
C574 C577 1.398 . S
C574 H584 0.930 . S
C575 C573 1.380 . S
C575 C576 1.391 . S
C575 H585 0.930 . S
C576 C575 1.391 . S
C576 C578 1.387 . S
C577 C574 1.398 . S
C577 C578 1.380 . S
C577 H586 0.930 . S
C578 C576 1.387 . S
C578 C577 1.380 . S
C578 H587 0.930 . S
C579 O556 1.254 . S
C579 O557 1.268 . S
H580 C565 0.930 . S
H581 C566 0.930 . S
H582 C568 0.930 . S
H583 C569 0.930 . S
H584 C574 0.930 . S
H585 C575 0.930 . S
H586 C577 0.930 . S
H587 C578 0.930 . S
Gd588 N619 2.661 . S
Gd588 N625 2.601 . S
Gd588 O632 2.545 . S
Gd588 O633 2.606 . S
Gd588 O635 2.429 . S
Gd588 O636 2.545 . S
Gd588 O637 2.412 . S
Gd588 O639 2.362 . S
Gd588 O640 2.324 . S
Gd588 C647 2.828 . S
Gd589 N598 2.661 . S
Gd589 N602 2.601 . S
Gd589 O633 2.362 . S
Gd589 O634 2.324 . S
Gd589 O638 2.545 . S
Gd589 O639 2.606 . S
Gd589 O641 2.429 . S
Gd589 O642 2.545 . S
Gd589 O643 2.412 . S
Gd589 C656 2.828 . S
C590 C593 1.417 . S
C590 C595 1.431 . S
C590 C596 1.412 . S
C591 C594 1.437 . S
C591 C595 1.317 . S
C591 H610 0.929 . S
C592 C593 1.426 . S
C592 C594 1.413 . S
C592 N602 1.359 . S
C593 C590 1.417 . S
C593 C592 1.426 . S
C593 N598 1.350 . S
C594 C591 1.437 . S
C594 C592 1.413 . S
C594 C604 1.391 . S
C595 C590 1.431 . S
C595 C591 1.317 . S
C595 H606 0.930 . S
C596 C590 1.412 . S
C596 C597 1.355 . S
C596 H608 0.930 . S
C597 C596 1.355 . S
C597 C599 1.402 . S
C597 H609 0.930 . S
N598 Gd589 2.661 . S
N598 C593 1.350 . S
N598 C599 1.307 . S
C599 C597 1.402 . S
C599 N598 1.307 . S
C599 H600 0.930 . S
H600 C599 0.930 . S
C601 N602 1.334 . S
C601 C603 1.394 . S
C601 H605 0.930 . S
N602 Gd589 2.601 . S
N602 C592 1.359 . S
N602 C601 1.334 . S
C603 C601 1.394 . S
C603 C604 1.359 . S
C603 H615 0.930 . S
C604 C594 1.391 . S
C604 C603 1.359 . S
C604 H616 0.929 . S
H605 C601 0.930 . S
H606 C595 0.930 . S
H607 C624 0.930 . S
H608 C596 0.930 . S
H609 C597 0.930 . S
H610 C591 0.929 . S
H611 C629 0.930 . S
H612 C620 0.930 . S
H613 C621 0.930 . S
H614 C645 0.929 . S
H615 C603 0.930 . S
H616 C604 0.929 . S
H617 C646 0.930 . S
H618 C627 0.930 . S
N619 Gd588 2.661 . S
N619 C623 1.350 . S
N619 C624 1.307 . S
C620 H612 0.930 . S
C620 C621 1.355 . S
C620 C622 1.412 . S
C621 H613 0.930 . S
C621 C620 1.355 . S
C621 C624 1.402 . S
C622 C620 1.412 . S
C622 C623 1.417 . S
C622 C646 1.431 . S
C623 N619 1.350 . S
C623 C622 1.417 . S
C623 C626 1.426 . S
C624 H607 0.930 . S
C624 N619 1.307 . S
C624 C621 1.402 . S
N625 Gd588 2.601 . S
N625 C626 1.359 . S
N625 C629 1.334 . S
C626 C623 1.426 . S
C626 N625 1.359 . S
C626 C630 1.413 . S
C627 H618 0.930 . S
C627 C628 1.359 . S
C627 C629 1.394 . S
C628 C627 1.359 . S
C628 C630 1.391 . S
C628 H631 0.929 . S
C629 H611 0.930 . S
C629 N625 1.334 . S
C629 C627 1.394 . S
C630 C626 1.413 . S
C630 C628 1.391 . S
C630 C645 1.437 . S
H631 C628 0.929 . S
O632 Gd588 2.545 . S
O632 C647 1.258 . S
O633 Gd588 2.606 . S
O633 Gd589 2.362 . S
O633 C644 1.284 . S
O634 Gd589 2.324 . S
O634 C654 1.254 . S
O635 Gd588 2.429 . S
O635 C654 1.268 . S
O636 Gd588 2.545 . S
O636 C644 1.250 . S
O637 Gd588 2.412 . S
O637 C647 1.252 . S
O638 Gd589 2.545 . S
O638 C656 1.258 . S
O639 Gd588 2.362 . S
O639 Gd589 2.606 . S
O639 C655 1.284 . S
O640 Gd588 2.324 . S
O640 C663 1.254 . S
O641 Gd589 2.429 . S
O641 C663 1.268 . S
O642 Gd589 2.545 . S
O642 C655 1.250 . S
O643 Gd589 2.412 . S
O643 C656 1.252 . S
C644 O633 1.284 . S
C644 O636 1.250 . S
C645 H614 0.929 . S
C645 C630 1.437 . S
C645 C646 1.317 . S
C646 H617 0.930 . S
C646 C622 1.431 . S
C646 C645 1.317 . S
C647 Gd588 2.828 . S
C647 O632 1.258 . S
C647 O637 1.252 . S
C647 C648 1.497 . S
C648 C647 1.497 . S
C648 C649 1.395 . S
C648 C650 1.380 . S
C649 C648 1.395 . S
C649 C652 1.398 . S
C649 H664 0.930 . S
C650 C648 1.380 . S
C650 C651 1.391 . S
C650 H665 0.930 . S
C651 C650 1.391 . S
C651 C653 1.387 . S
C652 C649 1.398 . S
C652 C653 1.380 . S
C652 H666 0.930 . S
C653 C651 1.387 . S
C653 C652 1.380 . S
C653 H667 0.930 . S
C654 O634 1.254 . S
C654 O635 1.268 . S
C655 O639 1.284 . S
C655 O642 1.250 . S
C656 Gd589 2.828 . S
C656 O638 1.258 . S
C656 O643 1.252 . S
C656 C657 1.497 . S
C657 C656 1.497 . S
C657 C658 1.395 . S
C657 C659 1.380 . S
C658 C657 1.395 . S
C658 C661 1.398 . S
C658 H668 0.930 . S
C659 C657 1.380 . S
C659 C660 1.391 . S
C659 H669 0.930 . S
C660 C659 1.391 . S
C660 C662 1.387 . S
C661 C658 1.398 . S
C661 C662 1.380 . S
C661 H670 0.930 . S
C662 C660 1.387 . S
C662 C661 1.380 . S
C662 H671 0.930 . S
C663 O640 1.254 . S
C663 O641 1.268 . S
H664 C649 0.930 . S
H665 C650 0.930 . S
H666 C652 0.930 . S
H667 C653 0.930 . S
H668 C658 0.930 . S
H669 C659 0.930 . S
H670 C661 0.930 . S
H671 C662 0.930 . S
Gd672 N703 2.661 . S
Gd672 N709 2.601 . S
Gd672 O716 2.545 . S
Gd672 O717 2.606 . S
Gd672 O719 2.429 . S
Gd672 O720 2.545 . S
Gd672 O721 2.412 . S
Gd672 O723 2.362 . S
Gd672 O724 2.324 . S
Gd672 C731 2.828 . S
Gd673 N682 2.661 . S
Gd673 N686 2.601 . S
Gd673 O717 2.362 . S
Gd673 O718 2.324 . S
Gd673 O722 2.545 . S
Gd673 O723 2.606 . S
Gd673 O725 2.429 . S
Gd673 O726 2.545 . S
Gd673 O727 2.412 . S
Gd673 C740 2.828 . S
C674 C677 1.417 . S
C674 C679 1.431 . S
C674 C680 1.412 . S
C675 C678 1.437 . S
C675 C679 1.317 . S
C675 H694 0.929 . S
C676 C677 1.426 . S
C676 C678 1.413 . S
C676 N686 1.359 . S
C677 C674 1.417 . S
C677 C676 1.426 . S
C677 N682 1.350 . S
C678 C675 1.437 . S
C678 C676 1.413 . S
C678 C688 1.391 . S
C679 C674 1.431 . S
C679 C675 1.317 . S
C679 H690 0.930 . S
C680 C674 1.412 . S
C680 C681 1.355 . S
C680 H692 0.930 . S
C681 C680 1.355 . S
C681 C683 1.402 . S
C681 H693 0.930 . S
N682 Gd673 2.661 . S
N682 C677 1.350 . S
N682 C683 1.307 . S
C683 C681 1.402 . S
C683 N682 1.307 . S
C683 H684 0.930 . S
H684 C683 0.930 . S
C685 N686 1.334 . S
C685 C687 1.394 . S
C685 H689 0.930 . S
N686 Gd673 2.601 . S
N686 C676 1.359 . S
N686 C685 1.334 . S
C687 C685 1.394 . S
C687 C688 1.359 . S
C687 H699 0.930 . S
C688 C678 1.391 . S
C688 C687 1.359 . S
C688 H700 0.929 . S
H689 C685 0.930 . S
H690 C679 0.930 . S
H691 C708 0.930 . S
H692 C680 0.930 . S
H693 C681 0.930 . S
H694 C675 0.929 . S
H695 C713 0.930 . S
H696 C704 0.930 . S
H697 C705 0.930 . S
H698 C729 0.929 . S
H699 C687 0.930 . S
H700 C688 0.929 . S
H701 C730 0.930 . S
H702 C711 0.930 . S
N703 Gd672 2.661 . S
N703 C707 1.350 . S
N703 C708 1.307 . S
C704 H696 0.930 . S
C704 C705 1.355 . S
C704 C706 1.412 . S
C705 H697 0.930 . S
C705 C704 1.355 . S
C705 C708 1.402 . S
C706 C704 1.412 . S
C706 C707 1.417 . S
C706 C730 1.431 . S
C707 N703 1.350 . S
C707 C706 1.417 . S
C707 C710 1.426 . S
C708 H691 0.930 . S
C708 N703 1.307 . S
C708 C705 1.402 . S
N709 Gd672 2.601 . S
N709 C710 1.359 . S
N709 C713 1.334 . S
C710 C707 1.426 . S
C710 N709 1.359 . S
C710 C714 1.413 . S
C711 H702 0.930 . S
C711 C712 1.359 . S
C711 C713 1.394 . S
C712 C711 1.359 . S
C712 C714 1.391 . S
C712 H715 0.929 . S
C713 H695 0.930 . S
C713 N709 1.334 . S
C713 C711 1.394 . S
C714 C710 1.413 . S
C714 C712 1.391 . S
C714 C729 1.437 . S
H715 C712 0.929 . S
O716 Gd672 2.545 . S
O716 C731 1.258 . S
O717 Gd672 2.606 . S
O717 Gd673 2.362 . S
O717 C728 1.284 . S
O718 Gd673 2.324 . S
O718 C738 1.254 . S
O719 Gd672 2.429 . S
O719 C738 1.268 . S
O720 Gd672 2.545 . S
O720 C728 1.250 . S
O721 Gd672 2.412 . S
O721 C731 1.252 . S
O722 Gd673 2.545 . S
O722 C740 1.258 . S
O723 Gd672 2.362 . S
O723 Gd673 2.606 . S
O723 C739 1.284 . S
O724 Gd672 2.324 . S
O724 C747 1.254 . S
O725 Gd673 2.429 . S
O725 C747 1.268 . S
O726 Gd673 2.545 . S
O726 C739 1.250 . S
O727 Gd673 2.412 . S
O727 C740 1.252 . S
C728 O717 1.284 . S
C728 O720 1.250 . S
C729 H698 0.929 . S
C729 C714 1.437 . S
C729 C730 1.317 . S
C730 H701 0.930 . S
C730 C706 1.431 . S
C730 C729 1.317 . S
C731 Gd672 2.828 . S
C731 O716 1.258 . S
C731 O721 1.252 . S
C731 C732 1.497 . S
C732 C731 1.497 . S
C732 C733 1.395 . S
C732 C734 1.380 . S
C733 C732 1.395 . S
C733 C736 1.398 . S
C733 H748 0.930 . S
C734 C732 1.380 . S
C734 C735 1.391 . S
C734 H749 0.930 . S
C735 C734 1.391 . S
C735 C737 1.387 . S
C736 C733 1.398 . S
C736 C737 1.380 . S
C736 H750 0.930 . S
C737 C735 1.387 . S
C737 C736 1.380 . S
C737 H751 0.930 . S
C738 O718 1.254 . S
C738 O719 1.268 . S
C739 O723 1.284 . S
C739 O726 1.250 . S
C740 Gd673 2.828 . S
C740 O722 1.258 . S
C740 O727 1.252 . S
C740 C741 1.497 . S
C741 C740 1.497 . S
C741 C742 1.395 . S
C741 C743 1.380 . S
C742 C741 1.395 . S
C742 C745 1.398 . S
C742 H752 0.930 . S
C743 C741 1.380 . S
C743 C744 1.391 . S
C743 H753 0.930 . S
C744 C743 1.391 . S
C744 C746 1.387 . S
C745 C742 1.398 . S
C745 C746 1.380 . S
C745 H754 0.930 . S
C746 C744 1.387 . S
C746 C745 1.380 . S
C746 H755 0.930 . S
C747 O724 1.254 . S
C747 O725 1.268 . S
H748 C733 0.930 . S
H749 C734 0.930 . S
H750 C736 0.930 . S
H751 C737 0.930 . S
H752 C742 0.930 . S
H753 C743 0.930 . S
H754 C745 0.930 . S
H755 C746 0.930 . S
Gd756 N787 2.661 1_565 S
Gd756 N793 2.601 . S
Gd756 O800 2.545 . S
Gd756 O801 2.606 1_565 S
Gd756 O803 2.429 . S
Gd756 O804 2.545 . S
Gd756 O805 2.412 . S
Gd756 O807 2.362 1_565 S
Gd756 O808 2.324 1_565 S
Gd756 C815 2.828 . S
Gd757 N766 2.661 . S
Gd757 N770 2.601 . S
Gd757 O801 2.362 . S
Gd757 O802 2.324 . S
Gd757 O806 2.545 . S
Gd757 O807 2.606 . S
Gd757 O809 2.429 . S
Gd757 O810 2.545 . S
Gd757 O811 2.412 . S
Gd757 C824 2.828 . S
C758 C761 1.417 . S
C758 C763 1.431 . S
C758 C764 1.412 1_545 S
C759 C762 1.437 . S
C759 C763 1.317 . S
C759 H778 0.929 . S
C760 C761 1.426 . S
C760 C762 1.413 . S
C760 N770 1.359 . S
C761 C758 1.417 . S
C761 C760 1.426 . S
C761 N766 1.350 . S
C762 C759 1.437 . S
C762 C760 1.413 . S
C762 C772 1.391 . S
C763 C758 1.431 . S
C763 C759 1.317 . S
C763 H774 0.930 . S
C764 C758 1.412 1_565 S
C764 C765 1.355 . S
C764 H776 0.930 . S
C765 C764 1.355 . S
C765 C767 1.402 1_565 S
C765 H777 0.930 . S
N766 Gd757 2.661 . S
N766 C761 1.350 . S
N766 C767 1.307 . S
C767 C765 1.402 1_545 S
C767 N766 1.307 . S
C767 H768 0.930 1_545 S
H768 C767 0.930 1_565 S
C769 N770 1.334 . S
C769 C771 1.394 . S
C769 H773 0.930 . S
N770 Gd757 2.601 . S
N770 C760 1.359 . S
N770 C769 1.334 . S
C771 C769 1.394 . S
C771 C772 1.359 . S
C771 H783 0.930 . S
C772 C762 1.391 . S
C772 C771 1.359 . S
C772 H784 0.929 . S
H773 C769 0.930 . S
H774 C763 0.930 . S
H775 C792 0.930 . S
H776 C764 0.930 . S
H777 C765 0.930 . S
H778 C759 0.929 . S
H779 C797 0.930 . S
H780 C788 0.930 . S
H781 C789 0.930 . S
H782 C813 0.929 1_565 S
H783 C771 0.930 . S
H784 C772 0.929 . S
H785 C814 0.930 . S
H786 C795 0.930 . S
N787 Gd756 2.661 1_545 S
N787 C791 1.350 . S
N787 C792 1.307 . S
C788 H780 0.930 . S
C788 C789 1.355 . S
C788 C790 1.412 . S
C789 H781 0.930 . S
C789 C788 1.355 . S
C789 C792 1.402 . S
C790 C788 1.412 . S
C790 C791 1.417 . S
C790 C814 1.431 . S
C791 N787 1.350 . S
C791 C790 1.417 . S
C791 C794 1.426 1_545 S
C792 H775 0.930 . S
C792 N787 1.307 . S
C792 C789 1.402 . S
N793 Gd756 2.601 . S
N793 C794 1.359 . S
N793 C797 1.334 . S
C794 C791 1.426 1_565 S
C794 N793 1.359 . S
C794 C798 1.413 . S
C795 H786 0.930 . S
C795 C796 1.359 . S
C795 C797 1.394 . S
C796 C795 1.359 . S
C796 C798 1.391 . S
C796 H799 0.929 . S
C797 H779 0.930 . S
C797 N793 1.334 . S
C797 C795 1.394 . S
C798 C794 1.413 . S
C798 C796 1.391 . S
C798 C813 1.437 1_565 S
H799 C796 0.929 . S
O800 Gd756 2.545 . S
O800 C815 1.258 . S
O801 Gd756 2.606 1_545 S
O801 Gd757 2.362 . S
O801 C812 1.284 1_545 S
O802 Gd757 2.324 . S
O802 C822 1.254 . S
O803 Gd756 2.429 . S
O803 C822 1.268 1_565 S
O804 Gd756 2.545 . S
O804 C812 1.250 . S
O805 Gd756 2.412 . S
O805 C815 1.252 . S
O806 Gd757 2.545 . S
O806 C824 1.258 . S
O807 Gd756 2.362 1_545 S
O807 Gd757 2.606 . S
O807 C823 1.284 . S
O808 Gd756 2.324 1_545 S
O808 C831 1.254 . S
O809 Gd757 2.429 . S
O809 C831 1.268 . S
O810 Gd757 2.545 . S
O810 C823 1.250 . S
O811 Gd757 2.412 . S
O811 C824 1.252 . S
C812 O801 1.284 1_565 S
C812 O804 1.250 . S
C813 H782 0.929 1_545 S
C813 C798 1.437 1_545 S
C813 C814 1.317 . S
C814 H785 0.930 . S
C814 C790 1.431 . S
C814 C813 1.317 . S
C815 Gd756 2.828 . S
C815 O800 1.258 . S
C815 O805 1.252 . S
C815 C816 1.497 . S
C816 C815 1.497 . S
C816 C817 1.395 . S
C816 C818 1.380 . S
C817 C816 1.395 . S
C817 C820 1.398 . S
C817 H832 0.930 . S
C818 C816 1.380 . S
C818 C819 1.391 . S
C818 H833 0.930 . S
C819 C818 1.391 . S
C819 C821 1.387 . S
C820 C817 1.398 . S
C820 C821 1.380 . S
C820 H834 0.930 . S
C821 C819 1.387 . S
C821 C820 1.380 . S
C821 H835 0.930 . S
C822 O802 1.254 . S
C822 O803 1.268 1_545 S
C823 O807 1.284 . S
C823 O810 1.250 . S
C824 Gd757 2.828 . S
C824 O806 1.258 . S
C824 O811 1.252 . S
C824 C825 1.497 . S
C825 C824 1.497 . S
C825 C826 1.395 . S
C825 C827 1.380 . S
C826 C825 1.395 . S
C826 C829 1.398 . S
C826 H836 0.930 . S
C827 C825 1.380 . S
C827 C828 1.391 . S
C827 H837 0.930 . S
C828 C827 1.391 . S
C828 C830 1.387 . S
C829 C826 1.398 . S
C829 C830 1.380 . S
C829 H838 0.930 . S
C830 C828 1.387 . S
C830 C829 1.380 . S
C830 H839 0.930 . S
C831 O808 1.254 . S
C831 O809 1.268 . S
H832 C817 0.930 . S
H833 C818 0.930 . S
H834 C820 0.930 . S
H835 C821 0.930 . S
H836 C826 0.930 . S
H837 C827 0.930 . S
H838 C829 0.930 . S
H839 C830 0.930 . S
Gd840 N871 2.661 1_545 S
Gd840 N877 2.601 . S
Gd840 O884 2.545 . S
Gd840 O885 2.606 1_545 S
Gd840 O887 2.429 . S
Gd840 O888 2.545 . S
Gd840 O889 2.412 . S
Gd840 O891 2.362 1_545 S
Gd840 O892 2.324 1_545 S
Gd840 C899 2.828 . S
Gd841 N850 2.661 . S
Gd841 N854 2.601 . S
Gd841 O885 2.362 . S
Gd841 O886 2.324 . S
Gd841 O890 2.545 . S
Gd841 O891 2.606 . S
Gd841 O893 2.429 . S
Gd841 O894 2.545 . S
Gd841 O895 2.412 . S
Gd841 C908 2.828 . S
C842 C845 1.417 . S
C842 C847 1.431 . S
C842 C848 1.412 1_565 S
C843 C846 1.437 . S
C843 C847 1.317 . S
C843 H862 0.929 . S
C844 C845 1.426 . S
C844 C846 1.413 . S
C844 N854 1.359 . S
C845 C842 1.417 . S
C845 C844 1.426 . S
C845 N850 1.350 . S
C846 C843 1.437 . S
C846 C844 1.413 . S
C846 C856 1.391 . S
C847 C842 1.431 . S
C847 C843 1.317 . S
C847 H858 0.930 . S
C848 C842 1.412 1_545 S
C848 C849 1.355 . S
C848 H860 0.930 . S
C849 C848 1.355 . S
C849 C851 1.402 . S
C849 H861 0.930 . S
N850 Gd841 2.661 . S
N850 C845 1.350 . S
N850 C851 1.307 1_565 S
C851 C849 1.402 . S
C851 N850 1.307 1_545 S
C851 H852 0.930 . S
H852 C851 0.930 . S
C853 N854 1.334 . S
C853 C855 1.394 . S
C853 H857 0.930 . S
N854 Gd841 2.601 . S
N854 C844 1.359 . S
N854 C853 1.334 . S
C855 C853 1.394 . S
C855 C856 1.359 . S
C855 H867 0.930 . S
C856 C846 1.391 . S
C856 C855 1.359 . S
C856 H868 0.929 . S
H857 C853 0.930 . S
H858 C847 0.930 . S
H859 C876 0.930 . S
H860 C848 0.930 . S
H861 C849 0.930 . S
H862 C843 0.929 . S
H863 C881 0.930 . S
H864 C872 0.930 . S
H865 C873 0.930 . S
H866 C897 0.931 . S
H867 C855 0.930 . S
H868 C856 0.929 . S
H869 C898 0.930 . S
H870 C879 0.930 . S
N871 Gd840 2.661 1_565 S
N871 C875 1.350 . S
N871 C876 1.307 . S
C872 H864 0.930 . S
C872 C873 1.355 . S
C872 C874 1.412 . S
C873 H865 0.930 . S
C873 C872 1.355 . S
C873 C876 1.402 . S
C874 C872 1.412 . S
C874 C875 1.417 . S
C874 C898 1.431 . S
C875 N871 1.350 . S
C875 C874 1.417 . S
C875 C878 1.426 1_565 S
C876 H859 0.930 . S
C876 N871 1.307 . S
C876 C873 1.402 . S
N877 Gd840 2.601 . S
N877 C878 1.359 . S
N877 C881 1.334 . S
C878 C875 1.426 1_545 S
C878 N877 1.359 . S
C878 C882 1.413 . S
C879 H870 0.930 . S
C879 C880 1.359 . S
C879 C881 1.394 . S
C880 C879 1.359 . S
C880 C882 1.391 . S
C880 H883 0.929 . S
C881 H863 0.930 . S
C881 N877 1.334 . S
C881 C879 1.394 . S
C882 C878 1.413 . S
C882 C880 1.391 . S
C882 C897 1.441 . S
H883 C880 0.929 . S
O884 Gd840 2.545 . S
O884 C899 1.258 . S
O885 Gd840 2.606 1_565 S
O885 Gd841 2.362 . S
O885 C896 1.284 1_565 S
O886 Gd841 2.324 . S
O886 C906 1.273 . S
O887 Gd840 2.429 . S
O887 C906 1.248 1_545 S
O888 Gd840 2.545 . S
O888 C896 1.250 . S
O889 Gd840 2.412 . S
O889 C899 1.252 . S
O890 Gd841 2.545 . S
O890 C908 1.258 . S
O891 Gd840 2.362 1_565 S
O891 Gd841 2.606 . S
O891 C907 1.284 . S
O892 Gd840 2.324 1_565 S
O892 C915 1.254 . S
O893 Gd841 2.429 . S
O893 C915 1.268 . S
O894 Gd841 2.545 . S
O894 C907 1.250 . S
O895 Gd841 2.412 . S
O895 C908 1.252 . S
C896 O885 1.284 1_545 S
C896 O888 1.250 . S
C897 H866 0.931 . S
C897 C882 1.441 . S
C897 C898 1.311 1_545 S
C898 H869 0.930 . S
C898 C874 1.431 . S
C898 C897 1.311 1_565 S
C899 Gd840 2.828 . S
C899 O884 1.258 . S
C899 O889 1.252 . S
C899 C900 1.497 . S
C900 C899 1.497 . S
C900 C901 1.395 . S
C900 C902 1.380 . S
C901 C900 1.395 . S
C901 C904 1.398 . S
C901 H916 0.930 . S
C902 C900 1.380 . S
C902 C903 1.391 . S
C902 H917 0.930 . S
C903 C902 1.391 . S
C903 C905 1.387 . S
C904 C901 1.398 . S
C904 C905 1.380 . S
C904 H918 0.930 . S
C905 C903 1.387 . S
C905 C904 1.380 . S
C905 H919 0.930 . S
C906 O886 1.273 . S
C906 O887 1.248 1_565 S
C907 O891 1.284 . S
C907 O894 1.250 . S
C908 Gd841 2.828 . S
C908 O890 1.258 . S
C908 O895 1.252 . S
C908 C909 1.497 . S
C909 C908 1.497 . S
C909 C910 1.395 . S
C909 C911 1.380 . S
C910 C909 1.395 . S
C910 C913 1.398 . S
C910 H920 0.930 . S
C911 C909 1.380 . S
C911 C912 1.391 . S
C911 H921 0.930 . S
C912 C911 1.391 . S
C912 C914 1.387 . S
C913 C910 1.398 . S
C913 C914 1.380 . S
C913 H922 0.930 . S
C914 C912 1.387 . S
C914 C913 1.380 . S
C914 H923 0.930 . S
C915 O892 1.254 . S
C915 O893 1.268 . S
H916 C901 0.930 . S
H917 C902 0.930 . S
H918 C904 0.930 . S
H919 C905 0.930 . S
H920 C910 0.930 . S
H921 C911 0.930 . S
H922 C913 0.930 . S
H923 C914 0.930 . S
Gd924 N955 2.661 . S
Gd924 N961 2.601 . S
Gd924 O968 2.545 . S
Gd924 O969 2.606 . S
Gd924 O971 2.429 . S
Gd924 O972 2.545 . S
Gd924 O973 2.412 . S
Gd924 O975 2.362 . S
Gd924 O976 2.324 . S
Gd924 C983 2.828 . S
Gd925 N934 2.661 . S
Gd925 N938 2.601 . S
Gd925 O969 2.362 . S
Gd925 O970 2.324 . S
Gd925 O974 2.545 . S
Gd925 O975 2.606 . S
Gd925 O977 2.429 . S
Gd925 O978 2.545 . S
Gd925 O979 2.412 . S
Gd925 C992 2.828 . S
C926 C929 1.417 . S
C926 C931 1.431 . S
C926 C932 1.412 . S
C927 C930 1.437 . S
C927 C931 1.317 . S
C927 H946 0.929 . S
C928 C929 1.426 . S
C928 C930 1.413 . S
C928 N938 1.359 . S
C929 C926 1.417 . S
C929 C928 1.426 . S
C929 N934 1.350 . S
C930 C927 1.437 . S
C930 C928 1.413 . S
C930 C940 1.391 . S
C931 C926 1.431 . S
C931 C927 1.317 . S
C931 H942 0.930 . S
C932 C926 1.412 . S
C932 C933 1.355 . S
C932 H944 0.930 . S
C933 C932 1.355 . S
C933 C935 1.402 . S
C933 H945 0.930 . S
N934 Gd925 2.661 . S
N934 C929 1.350 . S
N934 C935 1.307 . S
C935 C933 1.402 . S
C935 N934 1.307 . S
C935 H936 0.930 . S
H936 C935 0.930 . S
C937 N938 1.334 . S
C937 C939 1.394 . S
C937 H941 0.930 . S
N938 Gd925 2.601 . S
N938 C928 1.359 . S
N938 C937 1.334 . S
C939 C937 1.394 . S
C939 C940 1.359 . S
C939 H951 0.930 . S
C940 C930 1.391 . S
C940 C939 1.359 . S
C940 H952 0.929 . S
H941 C937 0.930 . S
H942 C931 0.930 . S
H943 C960 0.930 . S
H944 C932 0.930 . S
H945 C933 0.930 . S
H946 C927 0.929 . S
H947 C965 0.930 . S
H948 C956 0.930 . S
H949 C957 0.930 . S
H950 C981 0.929 . S
H951 C939 0.930 . S
H952 C940 0.929 . S
H953 C982 0.930 . S
H954 C963 0.930 . S
N955 Gd924 2.661 . S
N955 C959 1.350 . S
N955 C960 1.307 . S
C956 H948 0.930 . S
C956 C957 1.355 . S
C956 C958 1.412 . S
C957 H949 0.930 . S
C957 C956 1.355 . S
C957 C960 1.402 . S
C958 C956 1.412 . S
C958 C959 1.417 . S
C958 C982 1.431 . S
C959 N955 1.350 . S
C959 C958 1.417 . S
C959 C962 1.426 . S
C960 H943 0.930 . S
C960 N955 1.307 . S
C960 C957 1.402 . S
N961 Gd924 2.601 . S
N961 C962 1.359 . S
N961 C965 1.334 . S
C962 C959 1.426 . S
C962 N961 1.359 . S
C962 C966 1.413 . S
C963 H954 0.930 . S
C963 C964 1.359 . S
C963 C965 1.394 . S
C964 C963 1.359 . S
C964 C966 1.391 . S
C964 H967 0.929 . S
C965 H947 0.930 . S
C965 N961 1.334 . S
C965 C963 1.394 . S
C966 C962 1.413 . S
C966 C964 1.391 . S
C966 C981 1.437 . S
H967 C964 0.929 . S
O968 Gd924 2.545 . S
O968 C983 1.258 . S
O969 Gd924 2.606 . S
O969 Gd925 2.362 . S
O969 C980 1.284 . S
O970 Gd925 2.324 . S
O970 C990 1.254 . S
O971 Gd924 2.429 . S
O971 C990 1.268 . S
O972 Gd924 2.545 . S
O972 C980 1.250 . S
O973 Gd924 2.412 . S
O973 C983 1.252 . S
O974 Gd925 2.545 . S
O974 C992 1.258 . S
O975 Gd924 2.362 . S
O975 Gd925 2.606 . S
O975 C991 1.284 . S
O976 Gd924 2.324 . S
O976 C999 1.254 . S
O977 Gd925 2.429 . S
O977 C999 1.268 . S
O978 Gd925 2.545 . S
O978 C991 1.250 . S
O979 Gd925 2.412 . S
O979 C992 1.252 . S
C980 O969 1.284 . S
C980 O972 1.250 . S
C981 H950 0.929 . S
C981 C966 1.437 . S
C981 C982 1.317 . S
C982 H953 0.930 . S
C982 C958 1.431 . S
C982 C981 1.317 . S
C983 Gd924 2.828 . S
C983 O968 1.258 . S
C983 O973 1.252 . S
C983 C984 1.497 . S
C984 C983 1.497 . S
C984 C985 1.395 . S
C984 C986 1.380 . S
C985 C984 1.395 . S
C985 C988 1.398 . S
C985 H1000 0.930 . S
C986 C984 1.380 . S
C986 C987 1.391 . S
C986 H1001 0.930 . S
C987 C986 1.391 . S
C987 C989 1.387 . S
C988 C985 1.398 . S
C988 C989 1.380 . S
C988 H1002 0.930 . S
C989 C987 1.387 . S
C989 C988 1.380 . S
C989 H1003 0.930 . S
C990 O970 1.254 . S
C990 O971 1.268 . S
C991 O975 1.284 . S
C991 O978 1.250 . S
C992 Gd925 2.828 . S
C992 O974 1.258 . S
C992 O979 1.252 . S
C992 C993 1.497 . S
C993 C992 1.497 . S
C993 C994 1.395 . S
C993 C995 1.380 . S
C994 C993 1.395 . S
C994 C997 1.398 . S
C994 H1004 0.930 . S
C995 C993 1.380 . S
C995 C996 1.391 . S
C995 H1005 0.930 . S
C996 C995 1.391 . S
C996 C998 1.387 . S
C997 C994 1.398 . S
C997 C998 1.380 . S
C997 H1006 0.930 . S
C998 C996 1.387 . S
C998 C997 1.380 . S
C998 H1007 0.930 . S
C999 O976 1.254 . S
C999 O977 1.268 . S
H1000 C985 0.930 . S
H1001 C986 0.930 . S
H1002 C988 0.930 . S
H1003 C989 0.930 . S
H1004 C994 0.930 . S
H1005 C995 0.930 . S
H1006 C997 0.930 . S
H1007 C998 0.930 . S
H1008 C1016 0.929 . S
H1009 C1018 0.930 . S
H1010 C1020 0.930 . S
H1011 C1023 0.929 . S
H1012 C1026 0.930 . S
H1013 C1028 0.960 . S
H1014 C1028 0.960 . S
H1015 C1028 0.960 . S
C1016 H1008 0.929 . S
C1016 C1017 1.377 . S
C1016 C1018 1.384 . S
C1017 C1016 1.377 . S
C1017 C1023 1.390 . S
C1018 H1009 0.930 . S
C1018 C1016 1.384 . S
C1018 C1019 1.372 . S
C1019 C1018 1.372 . S
C1019 C1020 1.400 . S
C1019 C1024 1.490 . S
C1020 H1010 0.930 . S
C1020 C1019 1.400 . S
C1020 C1023 1.386 . S
H1021 C1037 0.930 . S
H1022 C1038 0.931 . S
C1023 H1011 0.929 . S
C1023 C1017 1.390 . S
C1023 C1020 1.386 . S
C1024 C1019 1.490 . S
C1024 C1026 1.395 . S
C1024 C1027 1.403 . S
H1025 C1031 0.930 . S
C1026 H1012 0.930 . S
C1026 C1024 1.395 . S
C1026 C1029 1.403 . S
C1027 C1024 1.403 . S
C1027 C1028 1.524 . S
C1027 C1031 1.400 . S
C1028 H1013 0.960 . S
C1028 H1014 0.960 . S
C1028 H1015 0.960 . S
C1028 C1027 1.524 . S
C1029 C1026 1.403 . S
C1029 C1030 1.392 . S
C1029 C1033 1.495 . S
C1030 C1029 1.392 . S
C1030 C1031 1.385 . S
C1030 C1032 1.478 . S
C1031 H1025 0.930 . S
C1031 C1027 1.400 . S
C1031 C1030 1.385 . S
C1032 C1030 1.478 . S
C1032 C1034 1.381 . S
C1032 C1038 1.383 . S
C1033 C1029 1.495 . S
C1033 H1039 0.959 . S
C1033 H1040 0.961 . S
C1033 H1041 0.960 . S
C1034 C1032 1.381 . S
C1034 C1035 1.394 . S
C1034 H1042 0.930 . S
C1035 C1034 1.394 . S
C1035 C1036 1.383 . S
C1035 H1043 0.929 . S
C1036 C1035 1.383 . S
C1036 C1037 1.377 . S
C1037 H1021 0.930 . S
C1037 C1036 1.377 . S
C1037 C1038 1.379 . S
C1038 H1022 0.931 . S
C1038 C1032 1.383 . S
C1038 C1037 1.379 . S
H1039 C1033 0.959 . S
H1040 C1033 0.961 . S
H1041 C1033 0.960 . S
H1042 C1034 0.930 . S
H1043 C1035 0.929 . S
H1044 C1052 0.929 . S
H1045 C1054 0.930 . S
H1046 C1056 0.930 . S
H1047 C1059 0.929 . S
H1048 C1062 0.930 . S
H1049 C1064 0.960 . S
H1050 C1064 0.960 . S
H1051 C1064 0.960 . S
C1052 H1044 0.929 . S
C1052 C1053 1.349 1_545 S
C1052 C1054 1.384 . S
C1053 C1052 1.349 1_565 S
C1053 C1059 1.436 . S
C1054 H1045 0.930 . S
C1054 C1052 1.384 . S
C1054 C1055 1.372 1_545 S
C1055 C1054 1.372 1_565 S
C1055 C1056 1.400 . S
C1055 C1060 1.490 . S
C1056 H1046 0.930 . S
C1056 C1055 1.400 . S
C1056 C1059 1.386 . S
H1057 C1073 0.930 . S
H1058 C1074 0.931 . S
C1059 H1047 0.929 . S
C1059 C1053 1.436 . S
C1059 C1056 1.386 . S
C1060 C1055 1.490 . S
C1060 C1062 1.395 . S
C1060 C1063 1.403 . S
H1061 C1067 0.930 . S
C1062 H1048 0.930 . S
C1062 C1060 1.395 . S
C1062 C1065 1.403 . S
C1063 C1060 1.403 . S
C1063 C1064 1.524 . S
C1063 C1067 1.400 . S
C1064 H1049 0.960 . S
C1064 H1050 0.960 . S
C1064 H1051 0.960 . S
C1064 C1063 1.524 . S
C1065 C1062 1.403 . S
C1065 C1066 1.392 . S
C1065 C1069 1.495 . S
C1066 C1065 1.392 . S
C1066 C1067 1.385 . S
C1066 C1068 1.478 . S
C1067 H1061 0.930 . S
C1067 C1063 1.400 . S
C1067 C1066 1.385 . S
C1068 C1066 1.478 . S
C1068 C1070 1.381 . S
C1068 C1074 1.383 . S
C1069 C1065 1.495 . S
C1069 H1075 0.959 . S
C1069 H1076 0.961 . S
C1069 H1077 0.960 . S
C1070 C1068 1.381 . S
C1070 C1071 1.394 . S
C1070 H1078 0.930 . S
C1071 C1070 1.394 . S
C1071 C1072 1.383 . S
C1071 H1079 0.929 . S
C1072 C1071 1.383 . S
C1072 C1073 1.377 . S
C1073 H1057 0.930 . S
C1073 C1072 1.377 . S
C1073 C1074 1.379 . S
C1074 H1058 0.931 . S
C1074 C1068 1.383 . S
C1074 C1073 1.379 . S
H1075 C1069 0.959 . S
H1076 C1069 0.961 . S
H1077 C1069 0.960 . S
H1078 C1070 0.930 . S
H1079 C1071 0.929 . S
H1080 C1088 0.929 . S
H1081 C1090 0.930 . S
H1082 C1092 0.930 . S
H1083 C1095 0.929 . S
H1084 C1098 0.930 . S
H1085 C1100 0.960 . S
H1086 C1100 0.960 . S
H1087 C1100 0.960 . S
C1088 H1080 0.929 . S
C1088 C1089 1.377 . S
C1088 C1090 1.384 . S
C1089 C1088 1.377 . S
C1089 C1095 1.390 . S
C1090 H1081 0.930 . S
C1090 C1088 1.384 . S
C1090 C1091 1.372 . S
C1091 C1090 1.372 . S
C1091 C1092 1.400 . S
C1091 C1096 1.490 . S
C1092 H1082 0.930 . S
C1092 C1091 1.400 . S
C1092 C1095 1.386 . S
H1093 C1109 0.930 . S
H1094 C1110 0.931 . S
C1095 H1083 0.929 . S
C1095 C1089 1.390 . S
C1095 C1092 1.386 . S
C1096 C1091 1.490 . S
C1096 C1098 1.395 . S
C1096 C1099 1.403 . S
H1097 C1103 0.930 . S
C1098 H1084 0.930 . S
C1098 C1096 1.395 . S
C1098 C1101 1.403 . S
C1099 C1096 1.403 . S
C1099 C1100 1.524 . S
C1099 C1103 1.400 . S
C1100 H1085 0.960 . S
C1100 H1086 0.960 . S
C1100 H1087 0.960 . S
C1100 C1099 1.524 . S
C1101 C1098 1.403 . S
C1101 C1102 1.392 . S
C1101 C1105 1.495 . S
C1102 C1101 1.392 . S
C1102 C1103 1.385 . S
C1102 C1104 1.478 . S
C1103 H1097 0.930 . S
C1103 C1099 1.400 . S
C1103 C1102 1.385 . S
C1104 C1102 1.478 . S
C1104 C1106 1.381 . S
C1104 C1110 1.383 . S
C1105 C1101 1.495 . S
C1105 H1111 0.959 1_554 S
C1105 H1112 0.961 . S
C1105 H1113 0.960 . S
C1106 C1104 1.381 . S
C1106 C1107 1.394 . S
C1106 H1114 0.930 . S
C1107 C1106 1.394 . S
C1107 C1108 1.383 . S
C1107 H1115 0.929 . S
C1108 C1107 1.383 . S
C1108 C1109 1.377 . S
C1109 H1093 0.930 . S
C1109 C1108 1.377 . S
C1109 C1110 1.379 . S
C1110 H1094 0.931 . S
C1110 C1104 1.383 . S
C1110 C1109 1.379 . S
H1111 C1105 0.959 1_556 S
H1112 C1105 0.961 . S
H1113 C1105 0.960 . S
H1114 C1106 0.930 . S
H1115 C1107 0.929 . S
H1116 C1124 0.929 . S
H1117 C1126 0.930 . S
H1118 C1128 0.930 . S
H1119 C1131 0.929 . S
H1120 C1134 0.930 . S
H1121 C1136 0.960 . S
H1122 C1136 0.960 . S
H1123 C1136 0.960 . S
C1124 H1116 0.929 . S
C1124 C1125 1.377 . S
C1124 C1126 1.384 . S
C1125 C1124 1.377 . S
C1125 C1131 1.390 . S
C1126 H1117 0.930 . S
C1126 C1124 1.384 . S
C1126 C1127 1.372 . S
C1127 C1126 1.372 . S
C1127 C1128 1.400 . S
C1127 C1132 1.490 . S
C1128 H1118 0.930 . S
C1128 C1127 1.400 . S
C1128 C1131 1.386 . S
H1129 C1145 0.930 . S
H1130 C1146 0.931 . S
C1131 H1119 0.929 . S
C1131 C1125 1.390 . S
C1131 C1128 1.386 . S
C1132 C1127 1.490 . S
C1132 C1134 1.395 . S
C1132 C1135 1.403 . S
H1133 C1139 0.930 . S
C1134 H1120 0.930 . S
C1134 C1132 1.395 . S
C1134 C1137 1.403 . S
C1135 C1132 1.403 . S
C1135 C1136 1.524 . S
C1135 C1139 1.400 . S
C1136 H1121 0.960 . S
C1136 H1122 0.960 . S
C1136 H1123 0.960 . S
C1136 C1135 1.524 . S
C1137 C1134 1.403 . S
C1137 C1138 1.392 . S
C1137 C1141 1.495 . S
C1138 C1137 1.392 . S
C1138 C1139 1.385 . S
C1138 C1140 1.478 . S
C1139 H1133 0.930 . S
C1139 C1135 1.400 . S
C1139 C1138 1.385 . S
C1140 C1138 1.478 . S
C1140 C1142 1.381 . S
C1140 C1146 1.383 . S
C1141 C1137 1.495 . S
C1141 H1147 0.959 . S
C1141 H1148 0.961 . S
C1141 H1149 0.960 . S
C1142 C1140 1.381 . S
C1142 C1143 1.394 1_545 S
C1142 H1150 0.930 1_545 S
C1143 C1142 1.394 1_565 S
C1143 C1144 1.383 1_565 S
C1143 H1151 0.929 . S
C1144 C1143 1.383 1_545 S
C1144 C1145 1.377 . S
C1145 H1129 0.930 . S
C1145 C1144 1.377 . S
C1145 C1146 1.379 . S
C1146 H1130 0.931 . S
C1146 C1140 1.383 . S
C1146 C1145 1.379 . S
H1147 C1141 0.959 . S
H1148 C1141 0.961 . S
H1149 C1141 0.960 . S
H1150 C1142 0.930 1_565 S
H1151 C1143 0.929 . S
H1152 C1160 0.929 . S
H1153 C1162 0.930 . S
H1154 C1164 0.930 . S
H1155 C1167 0.929 . S
H1156 C1170 0.930 . S
H1157 C1172 0.960 . S
H1158 C1172 0.960 . S
H1159 C1172 0.960 . S
C1160 H1152 0.929 . S
C1160 C1161 1.377 . S
C1160 C1162 1.384 . S
C1161 C1160 1.377 . S
C1161 C1167 1.390 . S
C1162 H1153 0.930 . S
C1162 C1160 1.384 . S
C1162 C1163 1.372 . S
C1163 C1162 1.372 . S
C1163 C1164 1.400 . S
C1163 C1168 1.490 . S
C1164 H1154 0.930 . S
C1164 C1163 1.400 . S
C1164 C1167 1.386 . S
H1165 C1181 0.930 . S
H1166 C1182 0.931 . S
C1167 H1155 0.929 . S
C1167 C1161 1.390 . S
C1167 C1164 1.386 . S
C1168 C1163 1.490 . S
C1168 C1170 1.395 . S
C1168 C1171 1.403 . S
H1169 C1175 0.930 . S
C1170 H1156 0.930 . S
C1170 C1168 1.395 . S
C1170 C1173 1.403 . S
C1171 C1168 1.403 . S
C1171 C1172 1.524 . S
C1171 C1175 1.400 . S
C1172 H1157 0.960 . S
C1172 H1158 0.960 . S
C1172 H1159 0.960 . S
C1172 C1171 1.524 . S
C1173 C1170 1.403 . S
C1173 C1174 1.392 . S
C1173 C1177 1.495 . S
C1174 C1173 1.392 . S
C1174 C1175 1.385 . S
C1174 C1176 1.478 . S
C1175 H1169 0.930 . S
C1175 C1171 1.400 . S
C1175 C1174 1.385 . S
C1176 C1174 1.478 . S
C1176 C1178 1.381 . S
C1176 C1182 1.383 . S
C1177 C1173 1.495 . S
C1177 H1183 0.959 . S
C1177 H1184 0.961 . S
C1177 H1185 0.960 . S
C1178 C1176 1.381 . S
C1178 C1179 1.394 . S
C1178 H1186 0.930 . S
C1179 C1178 1.394 . S
C1179 C1180 1.383 . S
C1179 H1187 0.929 . S
C1180 C1179 1.383 . S
C1180 C1181 1.377 . S
C1181 H1165 0.930 . S
C1181 C1180 1.377 . S
C1181 C1182 1.379 . S
C1182 H1166 0.931 . S
C1182 C1176 1.383 . S
C1182 C1181 1.379 . S
H1183 C1177 0.959 . S
H1184 C1177 0.961 . S
H1185 C1177 0.960 . S
H1186 C1178 0.930 . S
H1187 C1179 0.929 . S
H1188 C1196 0.929 . S
H1189 C1198 0.930 . S
H1190 C1200 0.930 . S
H1191 C1203 0.929 . S
H1192 C1206 0.930 . S
H1193 C1208 0.960 . S
H1194 C1208 0.960 . S
H1195 C1208 0.960 . S
C1196 H1188 0.929 . S
C1196 C1197 1.377 . S
C1196 C1198 1.384 . S
C1197 C1196 1.377 . S
C1197 C1203 1.390 . S
C1198 H1189 0.930 . S
C1198 C1196 1.384 . S
C1198 C1199 1.372 . S
C1199 C1198 1.372 . S
C1199 C1200 1.400 . S
C1199 C1204 1.490 . S
C1200 H1190 0.930 . S
C1200 C1199 1.400 . S
C1200 C1203 1.386 . S
H1201 C1217 0.930 . S
H1202 C1218 0.931 . S
C1203 H1191 0.929 . S
C1203 C1197 1.390 . S
C1203 C1200 1.386 . S
C1204 C1199 1.490 . S
C1204 C1206 1.395 . S
C1204 C1207 1.403 . S
H1205 C1211 0.930 . S
C1206 H1192 0.930 . S
C1206 C1204 1.395 . S
C1206 C1209 1.403 . S
C1207 C1204 1.403 . S
C1207 C1208 1.524 . S
C1207 C1211 1.400 . S
C1208 H1193 0.960 . S
C1208 H1194 0.960 . S
C1208 H1195 0.960 . S
C1208 C1207 1.524 . S
C1209 C1206 1.403 . S
C1209 C1210 1.392 . S
C1209 C1213 1.495 . S
C1210 C1209 1.392 . S
C1210 C1211 1.385 . S
C1210 C1212 1.478 . S
C1211 H1205 0.930 . S
C1211 C1207 1.400 . S
C1211 C1210 1.385 . S
C1212 C1210 1.478 . S
C1212 C1214 1.381 . S
C1212 C1218 1.383 . S
C1213 C1209 1.495 . S
C1213 H1219 0.959 . S
C1213 H1220 0.961 . S
C1213 H1221 0.960 . S
C1214 C1212 1.381 . S
C1214 C1215 1.394 . S
C1214 H1222 0.930 . S
C1215 C1214 1.394 . S
C1215 C1216 1.383 . S
C1215 H1223 0.929 . S
C1216 C1215 1.383 . S
C1216 C1217 1.377 . S
C1217 H1201 0.930 . S
C1217 C1216 1.377 . S
C1217 C1218 1.379 . S
C1218 H1202 0.931 . S
C1218 C1212 1.383 . S
C1218 C1217 1.379 . S
H1219 C1213 0.959 . S
H1220 C1213 0.961 . S
H1221 C1213 0.960 . S
H1222 C1214 0.930 . S
H1223 C1215 0.929 . S
H1224 C1232 0.929 . S
H1225 C1234 0.930 . S
H1226 C1236 0.930 . S
H1227 C1239 0.929 . S
H1228 C1242 0.930 . S
H1229 C1244 0.960 . S
H1230 C1244 0.960 . S
H1231 C1244 0.960 . S
C1232 H1224 0.929 . S
C1232 C1233 1.377 . S
C1232 C1234 1.384 . S
C1233 C1232 1.377 . S
C1233 C1239 1.390 . S
C1234 H1225 0.930 . S
C1234 C1232 1.384 . S
C1234 C1235 1.372 . S
C1235 C1234 1.372 . S
C1235 C1236 1.400 . S
C1235 C1240 1.490 . S
C1236 H1226 0.930 . S
C1236 C1235 1.400 . S
C1236 C1239 1.386 . S
H1237 C1253 0.930 . S
H1238 C1254 0.931 . S
C1239 H1227 0.929 . S
C1239 C1233 1.390 . S
C1239 C1236 1.386 . S
C1240 C1235 1.490 . S
C1240 C1242 1.395 . S
C1240 C1243 1.403 . S
H1241 C1247 0.930 . S
C1242 H1228 0.930 . S
C1242 C1240 1.395 . S
C1242 C1245 1.403 . S
C1243 C1240 1.403 . S
C1243 C1244 1.524 . S
C1243 C1247 1.400 . S
C1244 H1229 0.960 . S
C1244 H1230 0.960 . S
C1244 H1231 0.960 . S
C1244 C1243 1.524 . S
C1245 C1242 1.403 . S
C1245 C1246 1.392 . S
C1245 C1249 1.495 . S
C1246 C1245 1.392 . S
C1246 C1247 1.385 . S
C1246 C1248 1.478 . S
C1247 H1241 0.930 . S
C1247 C1243 1.400 . S
C1247 C1246 1.385 . S
C1248 C1246 1.478 . S
C1248 C1250 1.381 . S
C1248 C1254 1.383 . S
C1249 C1245 1.495 . S
C1249 H1255 0.959 . S
C1249 H1256 0.961 . S
C1249 H1257 0.960 . S
C1250 C1248 1.381 . S
C1250 C1251 1.394 . S
C1250 H1258 0.930 . S
C1251 C1250 1.394 . S
C1251 C1252 1.383 . S
C1251 H1259 0.929 1_556 S
C1252 C1251 1.383 . S
C1252 C1253 1.377 . S
C1253 H1237 0.930 . S
C1253 C1252 1.377 . S
C1253 C1254 1.379 . S
C1254 H1238 0.931 . S
C1254 C1248 1.383 . S
C1254 C1253 1.379 . S
H1255 C1249 0.959 . S
H1256 C1249 0.961 . S
H1257 C1249 0.960 . S
H1258 C1250 0.930 . S
H1259 C1251 0.929 1_554 S
H1260 C1268 0.929 . S
H1261 C1270 0.930 . S
H1262 C1272 0.930 . S
H1263 C1275 0.929 . S
H1264 C1278 0.930 . S
H1265 C1280 0.960 . S
H1266 C1280 0.960 . S
H1267 C1280 0.960 . S
C1268 H1260 0.929 . S
C1268 C1269 1.377 . S
C1268 C1270 1.384 . S
C1269 C1268 1.377 . S
C1269 C1275 1.390 . S
C1270 H1261 0.930 . S
C1270 C1268 1.384 . S
C1270 C1271 1.372 . S
C1271 C1270 1.372 . S
C1271 C1272 1.400 . S
C1271 C1276 1.490 . S
C1272 H1262 0.930 . S
C1272 C1271 1.400 . S
C1272 C1275 1.386 . S
H1273 C1289 0.930 . S
H1274 C1290 0.931 . S
C1275 H1263 0.929 . S
C1275 C1269 1.390 . S
C1275 C1272 1.386 . S
C1276 C1271 1.490 . S
C1276 C1278 1.395 . S
C1276 C1279 1.403 . S
H1277 C1283 0.930 . S
C1278 H1264 0.930 . S
C1278 C1276 1.395 . S
C1278 C1281 1.403 . S
C1279 C1276 1.403 . S
C1279 C1280 1.524 . S
C1279 C1283 1.400 . S
C1280 H1265 0.960 . S
C1280 H1266 0.960 . S
C1280 H1267 0.960 . S
C1280 C1279 1.524 . S
C1281 C1278 1.403 . S
C1281 C1282 1.392 . S
C1281 C1285 1.495 . S
C1282 C1281 1.392 . S
C1282 C1283 1.385 . S
C1282 C1284 1.478 . S
C1283 H1277 0.930 . S
C1283 C1279 1.400 . S
C1283 C1282 1.385 . S
C1284 C1282 1.478 . S
C1284 C1286 1.381 . S
C1284 C1290 1.383 . S
C1285 C1281 1.495 . S
C1285 H1291 0.959 . S
C1285 H1292 0.961 . S
C1285 H1293 0.960 . S
C1286 C1284 1.381 . S
C1286 C1287 1.394 . S
C1286 H1294 0.930 . S
C1287 C1286 1.394 . S
C1287 C1288 1.383 . S
C1287 H1295 0.929 . S
C1288 C1287 1.383 . S
C1288 C1289 1.377 . S
C1289 H1273 0.930 . S
C1289 C1288 1.377 . S
C1289 C1290 1.379 . S
C1290 H1274 0.931 . S
C1290 C1284 1.383 . S
C1290 C1289 1.379 . S
H1291 C1285 0.959 . S
H1292 C1285 0.961 . S
H1293 C1285 0.960 . S
H1294 C1286 0.930 . S
H1295 C1287 0.929 . S
H1296 C1304 0.929 . S
H1297 C1306 0.930 . S
H1298 C1308 0.930 . S
H1299 C1311 0.929 . S
H1300 C1314 0.930 . S
H1301 C1316 0.960 . S
H1302 C1316 0.960 . S
H1303 C1316 0.960 . S
C1304 H1296 0.929 . S
C1304 C1305 1.377 . S
C1304 C1306 1.384 . S
C1305 C1304 1.377 . S
C1305 C1311 1.390 . S
C1306 H1297 0.930 . S
C1306 C1304 1.384 . S
C1306 C1307 1.372 . S
C1307 C1306 1.372 . S
C1307 C1308 1.400 . S
C1307 C1312 1.490 . S
C1308 H1298 0.930 . S
C1308 C1307 1.400 . S
C1308 C1311 1.386 . S
H1309 C1325 0.930 . S
H1310 C1326 0.931 . S
C1311 H1299 0.929 . S
C1311 C1305 1.390 . S
C1311 C1308 1.386 . S
C1312 C1307 1.490 . S
C1312 C1314 1.395 . S
C1312 C1315 1.403 . S
H1313 C1319 0.930 . S
C1314 H1300 0.930 . S
C1314 C1312 1.395 . S
C1314 C1317 1.403 . S
C1315 C1312 1.403 . S
C1315 C1316 1.524 . S
C1315 C1319 1.400 . S
C1316 H1301 0.960 . S
C1316 H1302 0.960 . S
C1316 H1303 0.960 . S
C1316 C1315 1.524 . S
C1317 C1314 1.403 . S
C1317 C1318 1.392 . S
C1317 C1321 1.495 . S
C1318 C1317 1.392 . S
C1318 C1319 1.385 . S
C1318 C1320 1.478 . S
C1319 H1313 0.930 . S
C1319 C1315 1.400 . S
C1319 C1318 1.385 . S
C1320 C1318 1.478 . S
C1320 C1322 1.381 . S
C1320 C1326 1.383 . S
C1321 C1317 1.495 . S
C1321 H1327 0.959 . S
C1321 H1328 0.961 . S
C1321 H1329 0.960 . S
C1322 C1320 1.381 . S
C1322 C1323 1.394 . S
C1322 H1330 0.930 . S
C1323 C1322 1.394 . S
C1323 C1324 1.383 . S
C1323 H1331 0.929 . S
C1324 C1323 1.383 . S
C1324 C1325 1.377 . S
C1325 H1309 0.930 . S
C1325 C1324 1.377 . S
C1325 C1326 1.379 . S
C1326 H1310 0.931 . S
C1326 C1320 1.383 . S
C1326 C1325 1.379 . S
H1327 C1321 0.959 . S
H1328 C1321 0.961 . S
H1329 C1321 0.960 . S
H1330 C1322 0.930 . S
H1331 C1323 0.929 . S
H1332 C1340 0.929 . S
H1333 C1342 0.930 . S
H1334 C1344 0.930 . S
H1335 C1347 0.929 . S
H1336 C1350 0.930 . S
H1337 C1352 0.960 . S
H1338 C1352 0.960 . S
H1339 C1352 0.960 . S
C1340 H1332 0.929 . S
C1340 C1341 1.377 . S
C1340 C1342 1.384 . S
C1341 C1340 1.377 . S
C1341 C1347 1.390 . S
C1342 H1333 0.930 . S
C1342 C1340 1.384 . S
C1342 C1343 1.372 . S
C1343 C1342 1.372 . S
C1343 C1344 1.400 . S
C1343 C1348 1.490 . S
C1344 H1334 0.930 . S
C1344 C1343 1.400 . S
C1344 C1347 1.386 . S
H1345 C1361 0.930 . S
H1346 C1362 0.931 . S
C1347 H1335 0.929 . S
C1347 C1341 1.390 . S
C1347 C1344 1.386 . S
C1348 C1343 1.490 . S
C1348 C1350 1.395 . S
C1348 C1351 1.403 . S
H1349 C1355 0.930 . S
C1350 H1336 0.930 . S
C1350 C1348 1.395 . S
C1350 C1353 1.403 . S
C1351 C1348 1.403 . S
C1351 C1352 1.524 . S
C1351 C1355 1.400 . S
C1352 H1337 0.960 . S
C1352 H1338 0.960 . S
C1352 H1339 0.960 . S
C1352 C1351 1.524 . S
C1353 C1350 1.403 . S
C1353 C1354 1.392 . S
C1353 C1357 1.495 1_455 S
C1354 C1353 1.392 . S
C1354 C1355 1.385 . S
C1354 C1356 1.478 . S
C1355 H1349 0.930 . S
C1355 C1351 1.400 . S
C1355 C1354 1.385 . S
C1356 C1354 1.478 . S
C1356 C1358 1.381 1_455 S
C1356 C1362 1.383 . S
C1357 C1353 1.495 1_655 S
C1357 H1363 0.959 . S
C1357 H1364 0.956 1_655 S
C1357 H1365 0.960 . S
C1358 C1356 1.381 1_655 S
C1358 C1359 1.394 . S
C1358 H1366 0.930 . S
C1359 C1358 1.394 . S
C1359 C1360 1.383 1_655 S
C1359 H1367 0.929 . S
C1360 C1359 1.383 1_455 S
C1360 C1361 1.377 . S
C1361 H1345 0.930 . S
C1361 C1360 1.377 . S
C1361 C1362 1.379 . S
C1362 H1346 0.931 . S
C1362 C1356 1.383 . S
C1362 C1361 1.379 . S
H1363 C1357 0.959 . S
H1364 C1357 0.956 1_455 S
H1365 C1357 0.960 . S
H1366 C1358 0.930 . S
H1367 C1359 0.929 . S
H1368 C1376 0.929 . S
H1369 C1378 0.926 1_455 S
H1370 C1380 0.930 . S
H1371 C1383 0.929 . S
H1372 C1386 0.930 1_455 S
H1373 C1388 0.960 . S
H1374 C1388 0.960 . S
H1375 C1388 0.960 . S
C1376 H1368 0.929 . S
C1376 C1377 1.378 . S
C1376 C1378 1.384 1_455 S
C1377 C1376 1.378 . S
C1377 C1383 1.388 1_455 S
C1378 H1369 0.926 1_655 S
C1378 C1376 1.384 1_655 S
C1378 C1379 1.372 . S
C1379 C1378 1.372 . S
C1379 C1380 1.400 . S
C1379 C1384 1.490 . S
C1380 H1370 0.930 . S
C1380 C1379 1.400 . S
C1380 C1383 1.386 . S
H1381 C1397 0.930 . S
H1382 C1398 0.931 . S
C1383 H1371 0.929 . S
C1383 C1377 1.388 1_655 S
C1383 C1380 1.386 . S
C1384 C1379 1.490 . S
C1384 C1386 1.395 . S
C1384 C1387 1.403 . S
H1385 C1391 0.930 . S
C1386 H1372 0.930 1_655 S
C1386 C1384 1.395 . S
C1386 C1389 1.403 . S
C1387 C1384 1.403 . S
C1387 C1388 1.524 . S
C1387 C1391 1.400 . S
C1388 H1373 0.960 . S
C1388 H1374 0.960 . S
C1388 H1375 0.960 . S
C1388 C1387 1.524 . S
C1389 C1386 1.403 . S
C1389 C1390 1.392 . S
C1389 C1393 1.495 1_655 S
C1390 C1389 1.392 . S
C1390 C1391 1.385 . S
C1390 C1392 1.478 . S
C1391 H1385 0.930 . S
C1391 C1387 1.400 . S
C1391 C1390 1.385 . S
C1392 C1390 1.478 . S
C1392 C1394 1.381 . S
C1392 C1398 1.383 . S
C1393 C1389 1.495 1_455 S
C1393 H1399 0.959 . S
C1393 H1400 0.958 1_455 S
C1393 H1401 0.955 1_455 S
C1394 C1392 1.381 . S
C1394 C1395 1.394 . S
C1394 H1402 0.930 . S
C1395 C1394 1.394 . S
C1395 C1396 1.383 . S
C1395 H1403 0.929 . S
C1396 C1395 1.383 . S
C1396 C1397 1.377 . S
C1397 H1381 0.930 . S
C1397 C1396 1.377 . S
C1397 C1398 1.379 . S
C1398 H1382 0.931 . S
C1398 C1392 1.383 . S
C1398 C1397 1.379 . S
H1399 C1393 0.959 . S
H1400 C1393 0.958 1_655 S
H1401 C1393 0.955 1_655 S
H1402 C1394 0.930 . S
H1403 C1395 0.929 . S
H1404 C1412 0.929 . S
H1405 C1414 0.930 . S
H1406 C1416 0.930 . S
H1407 C1419 0.929 . S
H1408 C1422 0.930 . S
H1409 C1424 0.960 . S
H1410 C1424 0.960 . S
H1411 C1424 0.960 . S
C1412 H1404 0.929 . S
C1412 C1413 1.377 . S
C1412 C1414 1.384 . S
C1413 C1412 1.377 . S
C1413 C1419 1.390 . S
C1414 H1405 0.930 . S
C1414 C1412 1.384 . S
C1414 C1415 1.372 . S
C1415 C1414 1.372 . S
C1415 C1416 1.400 . S
C1415 C1420 1.490 . S
C1416 H1406 0.930 . S
C1416 C1415 1.400 . S
C1416 C1419 1.386 . S
H1417 C1433 0.930 . S
H1418 C1434 0.931 . S
C1419 H1407 0.929 . S
C1419 C1413 1.390 . S
C1419 C1416 1.386 . S
C1420 C1415 1.490 . S
C1420 C1422 1.395 . S
C1420 C1423 1.403 . S
H1421 C1427 0.930 . S
C1422 H1408 0.930 . S
C1422 C1420 1.395 . S
C1422 C1425 1.403 . S
C1423 C1420 1.403 . S
C1423 C1424 1.524 . S
C1423 C1427 1.400 . S
C1424 H1409 0.960 . S
C1424 H1410 0.960 . S
C1424 H1411 0.960 . S
C1424 C1423 1.524 . S
C1425 C1422 1.403 . S
C1425 C1426 1.392 . S
C1425 C1429 1.495 . S
C1426 C1425 1.392 . S
C1426 C1427 1.385 . S
C1426 C1428 1.478 . S
C1427 H1421 0.930 . S
C1427 C1423 1.400 . S
C1427 C1426 1.385 . S
C1428 C1426 1.478 . S
C1428 C1430 1.381 . S
C1428 C1434 1.383 . S
C1429 C1425 1.495 . S
C1429 H1435 0.959 . S
C1429 H1436 0.961 . S
C1429 H1437 0.960 . S
C1430 C1428 1.381 . S
C1430 C1431 1.394 . S
C1430 H1438 0.930 . S
C1431 C1430 1.394 . S
C1431 C1432 1.383 . S
C1431 H1439 0.929 . S
C1432 C1431 1.383 . S
C1432 C1433 1.377 . S
C1433 H1417 0.930 . S
C1433 C1432 1.377 . S
C1433 C1434 1.379 . S
C1434 H1418 0.931 . S
C1434 C1428 1.383 . S
C1434 C1433 1.379 . S
H1435 C1429 0.959 . S
H1436 C1429 0.961 . S
H1437 C1429 0.960 . S
H1438 C1430 0.930 . S
H1439 C1431 0.929 . S
H1440 C1448 0.929 . S
H1441 C1450 0.930 . S
H1442 C1452 0.930 . S
H1443 C1455 0.929 . S
H1444 C1458 0.930 . S
H1445 C1460 0.960 . S
H1446 C1460 0.960 . S
H1447 C1460 0.960 . S
C1448 H1440 0.929 . S
C1448 C1449 1.377 . S
C1448 C1450 1.384 . S
C1449 C1448 1.377 . S
C1449 C1455 1.390 . S
C1450 H1441 0.930 . S
C1450 C1448 1.384 . S
C1450 C1451 1.372 . S
C1451 C1450 1.372 . S
C1451 C1452 1.400 . S
C1451 C1456 1.490 . S
C1452 H1442 0.930 . S
C1452 C1451 1.400 . S
C1452 C1455 1.386 . S
H1453 C1469 0.930 . S
H1454 C1470 0.931 . S
C1455 H1443 0.929 . S
C1455 C1449 1.390 . S
C1455 C1452 1.386 . S
C1456 C1451 1.490 . S
C1456 C1458 1.395 . S
C1456 C1459 1.403 . S
H1457 C1463 0.930 . S
C1458 H1444 0.930 . S
C1458 C1456 1.395 . S
C1458 C1461 1.403 . S
C1459 C1456 1.403 . S
C1459 C1460 1.524 . S
C1459 C1463 1.400 . S
C1460 H1445 0.960 . S
C1460 H1446 0.960 . S
C1460 H1447 0.960 . S
C1460 C1459 1.524 . S
C1461 C1458 1.403 . S
C1461 C1462 1.392 . S
C1461 C1465 1.495 . S
C1462 C1461 1.392 . S
C1462 C1463 1.385 . S
C1462 C1464 1.478 . S
C1463 H1457 0.930 . S
C1463 C1459 1.400 . S
C1463 C1462 1.385 . S
C1464 C1462 1.478 . S
C1464 C1466 1.381 . S
C1464 C1470 1.383 . S
C1465 C1461 1.495 . S
C1465 H1471 0.959 . S
C1465 H1472 0.961 . S
C1465 H1473 0.960 . S
C1466 C1464 1.381 . S
C1466 C1467 1.394 . S
C1466 H1474 0.930 . S
C1467 C1466 1.394 . S
C1467 C1468 1.383 . S
C1467 H1475 0.929 . S
C1468 C1467 1.383 . S
C1468 C1469 1.377 . S
C1469 H1453 0.930 . S
C1469 C1468 1.377 . S
C1469 C1470 1.379 . S
C1470 H1454 0.931 . S
C1470 C1464 1.383 . S
C1470 C1469 1.379 . S
H1471 C1465 0.959 . S
H1472 C1465 0.961 . S
H1473 C1465 0.960 . S
H1474 C1466 0.930 . S
H1475 C1467 0.929 . S
H1476 C1484 0.929 . S
H1477 C1486 0.930 . S
H1478 C1488 0.930 . S
H1479 C1491 0.929 . S
H1480 C1494 0.930 . S
H1481 C1496 0.960 . S
H1482 C1496 0.960 . S
H1483 C1496 0.960 . S
C1484 H1476 0.929 . S
C1484 C1485 1.377 . S
C1484 C1486 1.384 . S
C1485 C1484 1.377 . S
C1485 C1491 1.390 . S
C1486 H1477 0.930 . S
C1486 C1484 1.384 . S
C1486 C1487 1.372 . S
C1487 C1486 1.372 . S
C1487 C1488 1.400 . S
C1487 C1492 1.490 . S
C1488 H1478 0.930 . S
C1488 C1487 1.400 . S
C1488 C1491 1.386 . S
H1489 C1505 0.930 . S
H1490 C1506 0.931 . S
C1491 H1479 0.929 . S
C1491 C1485 1.390 . S
C1491 C1488 1.386 . S
C1492 C1487 1.490 . S
C1492 C1494 1.395 . S
C1492 C1495 1.403 . S
H1493 C1499 0.930 . S
C1494 H1480 0.930 . S
C1494 C1492 1.395 . S
C1494 C1497 1.403 . S
C1495 C1492 1.403 . S
C1495 C1496 1.524 . S
C1495 C1499 1.400 . S
C1496 H1481 0.960 . S
C1496 H1482 0.960 . S
C1496 H1483 0.960 . S
C1496 C1495 1.524 . S
C1497 C1494 1.403 . S
C1497 C1498 1.392 . S
C1497 C1501 1.495 . S
C1498 C1497 1.392 . S
C1498 C1499 1.385 . S
C1498 C1500 1.478 . S
C1499 H1493 0.930 . S
C1499 C1495 1.400 . S
C1499 C1498 1.385 . S
C1500 C1498 1.478 . S
C1500 C1502 1.381 . S
C1500 C1506 1.383 . S
C1501 C1497 1.495 . S
C1501 H1507 0.959 . S
C1501 H1508 0.961 . S
C1501 H1509 0.960 . S
C1502 C1500 1.381 . S
C1502 C1503 1.394 . S
C1502 H1510 0.930 . S
C1503 C1502 1.394 . S
C1503 C1504 1.383 . S
C1503 H1511 0.929 . S
C1504 C1503 1.383 . S
C1504 C1505 1.377 . S
C1505 H1489 0.930 . S
C1505 C1504 1.377 . S
C1505 C1506 1.379 . S
C1506 H1490 0.931 . S
C1506 C1500 1.383 . S
C1506 C1505 1.379 . S
H1507 C1501 0.959 . S
H1508 C1501 0.961 . S
H1509 C1501 0.960 . S
H1510 C1502 0.930 . S
H1511 C1503 0.929 . S
H1512 C1520 0.929 . S
H1513 C1522 0.930 . S
H1514 C1524 0.930 . S
H1515 C1527 0.929 . S
H1516 C1530 0.930 . S
H1517 C1532 0.960 . S
H1518 C1532 0.960 . S
H1519 C1532 0.960 . S
C1520 H1512 0.929 . S
C1520 C1521 1.377 . S
C1520 C1522 1.384 . S
C1521 C1520 1.377 . S
C1521 C1527 1.390 . S
C1522 H1513 0.930 . S
C1522 C1520 1.384 . S
C1522 C1523 1.372 . S
C1523 C1522 1.372 . S
C1523 C1524 1.400 . S
C1523 C1528 1.490 . S
C1524 H1514 0.930 . S
C1524 C1523 1.400 . S
C1524 C1527 1.386 . S
H1525 C1541 0.930 . S
H1526 C1542 0.931 . S
C1527 H1515 0.929 . S
C1527 C1521 1.390 . S
C1527 C1524 1.386 . S
C1528 C1523 1.490 . S
C1528 C1530 1.395 . S
C1528 C1531 1.403 . S
H1529 C1535 0.930 . S
C1530 H1516 0.930 . S
C1530 C1528 1.395 . S
C1530 C1533 1.403 . S
C1531 C1528 1.403 . S
C1531 C1532 1.524 . S
C1531 C1535 1.400 . S
C1532 H1517 0.960 . S
C1532 H1518 0.960 . S
C1532 H1519 0.960 . S
C1532 C1531 1.524 . S
C1533 C1530 1.403 . S
C1533 C1534 1.392 . S
C1533 C1537 1.495 . S
C1534 C1533 1.392 . S
C1534 C1535 1.385 . S
C1534 C1536 1.478 . S
C1535 H1529 0.930 . S
C1535 C1531 1.400 . S
C1535 C1534 1.385 . S
C1536 C1534 1.478 . S
C1536 C1538 1.381 . S
C1536 C1542 1.383 . S
C1537 C1533 1.495 . S
C1537 H1543 0.959 . S
C1537 H1544 0.961 . S
C1537 H1545 0.960 . S
C1538 C1536 1.381 . S
C1538 C1539 1.394 . S
C1538 H1546 0.930 . S
C1539 C1538 1.394 . S
C1539 C1540 1.383 . S
C1539 H1547 0.929 . S
C1540 C1539 1.383 . S
C1540 C1541 1.377 . S
C1541 H1525 0.930 . S
C1541 C1540 1.377 . S
C1541 C1542 1.379 . S
C1542 H1526 0.931 . S
C1542 C1536 1.383 . S
C1542 C1541 1.379 . S
H1543 C1537 0.959 . S
H1544 C1537 0.961 . S
H1545 C1537 0.960 . S
H1546 C1538 0.930 . S
H1547 C1539 0.929 . S
H1548 C1556 0.929 . S
H1549 C1558 0.930 . S
H1550 C1560 0.930 . S
H1551 C1563 0.929 . S
H1552 C1566 0.930 . S
H1553 C1568 0.960 . S
H1554 C1568 0.960 . S
H1555 C1568 0.960 . S
C1556 H1548 0.929 . S
C1556 C1557 1.377 . S
C1556 C1558 1.384 . S
C1557 C1556 1.377 . S
C1557 C1563 1.390 . S
C1558 H1549 0.930 . S
C1558 C1556 1.384 . S
C1558 C1559 1.372 . S
C1559 C1558 1.372 . S
C1559 C1560 1.400 . S
C1559 C1564 1.490 . S
C1560 H1550 0.930 . S
C1560 C1559 1.400 . S
C1560 C1563 1.386 . S
H1561 C1577 0.930 . S
H1562 C1578 0.931 . S
C1563 H1551 0.929 . S
C1563 C1557 1.390 . S
C1563 C1560 1.386 . S
C1564 C1559 1.490 . S
C1564 C1566 1.395 . S
C1564 C1567 1.403 . S
H1565 C1571 0.930 1_556 S
C1566 H1552 0.930 . S
C1566 C1564 1.395 . S
C1566 C1569 1.403 . S
C1567 C1564 1.403 . S
C1567 C1568 1.524 . S
C1567 C1571 1.400 . S
C1568 H1553 0.960 . S
C1568 H1554 0.960 . S
C1568 H1555 0.960 . S
C1568 C1567 1.524 . S
C1569 C1566 1.403 . S
C1569 C1570 1.392 . S
C1569 C1573 1.495 . S
C1570 C1569 1.392 . S
C1570 C1571 1.385 . S
C1570 C1572 1.478 1_554 S
C1571 H1565 0.930 1_554 S
C1571 C1567 1.400 . S
C1571 C1570 1.385 . S
C1572 C1570 1.478 1_556 S
C1572 C1574 1.381 . S
C1572 C1578 1.383 . S
C1573 C1569 1.495 . S
C1573 H1579 0.959 . S
C1573 H1580 0.961 . S
C1573 H1581 0.960 . S
C1574 C1572 1.381 . S
C1574 C1575 1.394 . S
C1574 H1582 0.930 . S
C1575 C1574 1.394 . S
C1575 C1576 1.383 . S
C1575 H1583 0.929 . S
C1576 C1575 1.383 . S
C1576 C1577 1.377 . S
C1577 H1561 0.930 . S
C1577 C1576 1.377 . S
C1577 C1578 1.379 . S
C1578 H1562 0.931 . S
C1578 C1572 1.383 . S
C1578 C1577 1.379 . S
H1579 C1573 0.959 . S
H1580 C1573 0.961 . S
H1581 C1573 0.960 . S
H1582 C1574 0.930 . S
H1583 C1575 0.929 . S
H1584 C1592 0.929 . S
H1585 C1594 0.930 . S
H1586 C1596 0.930 . S
H1587 C1599 0.929 . S
H1588 C1602 0.930 . S
H1589 C1604 0.960 . S
H1590 C1604 0.960 . S
H1591 C1604 0.960 . S
C1592 H1584 0.929 . S
C1592 C1593 1.377 . S
C1592 C1594 1.384 . S
C1593 C1592 1.377 . S
C1593 C1599 1.390 . S
C1594 H1585 0.930 . S
C1594 C1592 1.384 . S
C1594 C1595 1.372 . S
C1595 C1594 1.372 . S
C1595 C1596 1.400 . S
C1595 C1600 1.490 . S
C1596 H1586 0.930 . S
C1596 C1595 1.400 . S
C1596 C1599 1.386 . S
H1597 C1613 0.930 . S
H1598 C1614 0.931 . S
C1599 H1587 0.929 . S
C1599 C1593 1.390 . S
C1599 C1596 1.386 . S
C1600 C1595 1.490 . S
C1600 C1602 1.395 . S
C1600 C1603 1.403 . S
H1601 C1607 0.930 . S
C1602 H1588 0.930 . S
C1602 C1600 1.395 . S
C1602 C1605 1.403 . S
C1603 C1600 1.403 . S
C1603 C1604 1.524 . S
C1603 C1607 1.400 . S
C1604 H1589 0.960 . S
C1604 H1590 0.960 . S
C1604 H1591 0.960 . S
C1604 C1603 1.524 . S
C1605 C1602 1.403 . S
C1605 C1606 1.392 . S
C1605 C1609 1.495 . S
C1606 C1605 1.392 . S
C1606 C1607 1.385 . S
C1606 C1608 1.478 . S
C1607 H1601 0.930 . S
C1607 C1603 1.400 . S
C1607 C1606 1.385 . S
C1608 C1606 1.478 . S
C1608 C1610 1.381 . S
C1608 C1614 1.383 . S
C1609 C1605 1.495 . S
C1609 H1615 0.959 . S
C1609 H1616 0.961 . S
C1609 H1617 0.960 . S
C1610 C1608 1.381 . S
C1610 C1611 1.394 . S
C1610 H1618 0.930 . S
C1611 C1610 1.394 . S
C1611 C1612 1.383 . S
C1611 H1619 0.929 . S
C1612 C1611 1.383 . S
C1612 C1613 1.377 . S
C1613 H1597 0.930 . S
C1613 C1612 1.377 . S
C1613 C1614 1.379 . S
C1614 H1598 0.931 . S
C1614 C1608 1.383 . S
C1614 C1613 1.379 . S
H1615 C1609 0.959 . S
H1616 C1609 0.961 . S
H1617 C1609 0.960 . S
H1618 C1610 0.930 . S
H1619 C1611 0.929 . S
H1620 C1628 0.929 . S
H1621 C1630 0.930 . S
H1622 C1632 0.930 . S
H1623 C1635 0.929 . S
H1624 C1638 0.930 . S
H1625 C1640 0.960 . S
H1626 C1640 0.960 . S
H1627 C1640 0.960 . S
C1628 H1620 0.929 . S
C1628 C1629 1.377 . S
C1628 C1630 1.384 . S
C1629 C1628 1.377 . S
C1629 C1635 1.390 . S
C1630 H1621 0.930 . S
C1630 C1628 1.384 . S
C1630 C1631 1.372 . S
C1631 C1630 1.372 . S
C1631 C1632 1.400 . S
C1631 C1636 1.490 1_554 S
C1632 H1622 0.930 . S
C1632 C1631 1.400 . S
C1632 C1635 1.386 . S
H1633 C1649 0.930 . S
H1634 C1650 0.931 . S
C1635 H1623 0.929 . S
C1635 C1629 1.390 . S
C1635 C1632 1.386 . S
C1636 C1631 1.490 1_556 S
C1636 C1638 1.395 . S
C1636 C1639 1.403 . S
H1637 C1643 0.930 . S
C1638 H1624 0.930 . S
C1638 C1636 1.395 . S
C1638 C1641 1.403 . S
C1639 C1636 1.403 . S
C1639 C1640 1.524 1_556 S
C1639 C1643 1.400 . S
C1640 H1625 0.960 . S
C1640 H1626 0.960 . S
C1640 H1627 0.960 . S
C1640 C1639 1.524 1_554 S
C1641 C1638 1.403 . S
C1641 C1642 1.392 . S
C1641 C1645 1.495 . S
C1642 C1641 1.392 . S
C1642 C1643 1.385 . S
C1642 C1644 1.478 . S
C1643 H1637 0.930 . S
C1643 C1639 1.400 . S
C1643 C1642 1.385 . S
C1644 C1642 1.478 . S
C1644 C1646 1.381 . S
C1644 C1650 1.383 . S
C1645 C1641 1.495 . S
C1645 H1651 0.959 . S
C1645 H1652 0.961 . S
C1645 H1653 0.960 . S
C1646 C1644 1.381 . S
C1646 C1647 1.394 . S
C1646 H1654 0.930 . S
C1647 C1646 1.394 . S
C1647 C1648 1.383 . S
C1647 H1655 0.929 . S
C1648 C1647 1.383 . S
C1648 C1649 1.377 . S
C1649 H1633 0.930 . S
C1649 C1648 1.377 . S
C1649 C1650 1.379 . S
C1650 H1634 0.931 . S
C1650 C1644 1.383 . S
C1650 C1649 1.379 . S
H1651 C1645 0.959 . S
H1652 C1645 0.961 . S
H1653 C1645 0.960 . S
H1654 C1646 0.930 . S
H1655 C1647 0.929 . S
H1656 C1664 0.929 . S
H1657 C1666 0.930 . S
H1658 C1668 0.930 . S
H1659 C1671 0.929 . S
H1660 C1674 0.930 . S
H1661 C1676 0.960 . S
H1662 C1676 0.960 . S
H1663 C1676 0.960 . S
C1664 H1656 0.929 . S
C1664 C1665 1.377 . S
C1664 C1666 1.384 . S
C1665 C1664 1.377 . S
C1665 C1671 1.390 . S
C1666 H1657 0.930 . S
C1666 C1664 1.384 . S
C1666 C1667 1.372 . S
C1667 C1666 1.372 . S
C1667 C1668 1.400 . S
C1667 C1672 1.490 . S
C1668 H1658 0.930 . S
C1668 C1667 1.400 . S
C1668 C1671 1.386 . S
H1669 C1685 0.930 . S
H1670 C1686 0.931 . S
C1671 H1659 0.929 . S
C1671 C1665 1.390 . S
C1671 C1668 1.386 . S
C1672 C1667 1.490 . S
C1672 C1674 1.395 . S
C1672 C1675 1.403 . S
H1673 C1679 0.930 . S
C1674 H1660 0.930 . S
C1674 C1672 1.395 . S
C1674 C1677 1.403 . S
C1675 C1672 1.403 . S
C1675 C1676 1.524 . S
C1675 C1679 1.400 . S
C1676 H1661 0.960 . S
C1676 H1662 0.960 . S
C1676 H1663 0.960 . S
C1676 C1675 1.524 . S
C1677 C1674 1.403 . S
C1677 C1678 1.392 . S
C1677 C1681 1.495 . S
C1678 C1677 1.392 . S
C1678 C1679 1.385 . S
C1678 C1680 1.478 . S
C1679 H1673 0.930 . S
C1679 C1675 1.400 . S
C1679 C1678 1.385 . S
C1680 C1678 1.478 . S
C1680 C1682 1.381 . S
C1680 C1686 1.383 . S
C1681 C1677 1.495 . S
C1681 H1687 0.959 . S
C1681 H1688 0.961 . S
C1681 H1689 0.960 . S
C1682 C1680 1.381 . S
C1682 C1683 1.394 . S
C1682 H1690 0.930 . S
C1683 C1682 1.394 . S
C1683 C1684 1.383 . S
C1683 H1691 0.929 . S
C1684 C1683 1.383 . S
C1684 C1685 1.377 . S
C1685 H1669 0.930 . S
C1685 C1684 1.377 . S
C1685 C1686 1.379 . S
C1686 H1670 0.931 . S
C1686 C1680 1.383 . S
C1686 C1685 1.379 . S
H1687 C1681 0.959 . S
H1688 C1681 0.961 . S
H1689 C1681 0.960 . S
H1690 C1682 0.930 . S
H1691 C1683 0.929 . S
H1692 C1700 0.929 . S
H1693 C1702 0.930 . S
H1694 C1704 0.930 . S
H1695 C1707 0.929 . S
H1696 C1710 0.930 . S
H1697 C1712 0.960 . S
H1698 C1712 0.960 . S
H1699 C1712 0.960 . S
C1700 H1692 0.929 . S
C1700 C1701 1.377 . S
C1700 C1702 1.384 . S
C1701 C1700 1.377 . S
C1701 C1707 1.390 . S
C1702 H1693 0.930 . S
C1702 C1700 1.384 . S
C1702 C1703 1.372 . S
C1703 C1702 1.372 . S
C1703 C1704 1.400 . S
C1703 C1708 1.490 . S
C1704 H1694 0.930 . S
C1704 C1703 1.400 . S
C1704 C1707 1.386 . S
H1705 C1721 0.930 . S
H1706 C1722 0.931 . S
C1707 H1695 0.929 . S
C1707 C1701 1.390 . S
C1707 C1704 1.386 . S
C1708 C1703 1.490 . S
C1708 C1710 1.395 . S
C1708 C1711 1.403 . S
H1709 C1715 0.930 . S
C1710 H1696 0.930 . S
C1710 C1708 1.395 . S
C1710 C1713 1.403 . S
C1711 C1708 1.403 . S
C1711 C1712 1.524 . S
C1711 C1715 1.400 . S
C1712 H1697 0.960 . S
C1712 H1698 0.960 . S
C1712 H1699 0.960 . S
C1712 C1711 1.524 . S
C1713 C1710 1.403 . S
C1713 C1714 1.392 . S
C1713 C1717 1.495 . S
C1714 C1713 1.392 . S
C1714 C1715 1.385 . S
C1714 C1716 1.478 . S
C1715 H1709 0.930 . S
C1715 C1711 1.400 . S
C1715 C1714 1.385 . S
C1716 C1714 1.478 . S
C1716 C1718 1.381 . S
C1716 C1722 1.383 . S
C1717 C1713 1.495 . S
C1717 H1723 0.959 . S
C1717 H1724 0.961 . S
C1717 H1725 0.960 . S
C1718 C1716 1.381 . S
C1718 C1719 1.394 . S
C1718 H1726 0.930 . S
C1719 C1718 1.394 . S
C1719 C1720 1.383 . S
C1719 H1727 0.929 . S
C1720 C1719 1.383 . S
C1720 C1721 1.377 . S
C1721 H1705 0.930 . S
C1721 C1720 1.377 . S
C1721 C1722 1.379 . S
C1722 H1706 0.931 . S
C1722 C1716 1.383 . S
C1722 C1721 1.379 . S
H1723 C1717 0.959 . S
H1724 C1717 0.961 . S
H1725 C1717 0.960 . S
H1726 C1718 0.930 . S
H1727 C1719 0.929 . S
H1728 C1736 0.929 . S
H1729 C1738 0.930 . S
H1730 C1740 0.930 . S
H1731 C1743 0.929 . S
H1732 C1746 0.930 . S
H1733 C1748 0.960 . S
H1734 C1748 0.960 . S
H1735 C1748 0.960 . S
C1736 H1728 0.929 . S
C1736 C1737 1.377 . S
C1736 C1738 1.384 . S
C1737 C1736 1.377 . S
C1737 C1743 1.390 . S
C1738 H1729 0.930 . S
C1738 C1736 1.384 . S
C1738 C1739 1.372 . S
C1739 C1738 1.372 . S
C1739 C1740 1.400 . S
C1739 C1744 1.490 . S
C1740 H1730 0.930 . S
C1740 C1739 1.400 . S
C1740 C1743 1.386 . S
H1741 C1757 0.930 . S
H1742 C1758 0.931 . S
C1743 H1731 0.929 . S
C1743 C1737 1.390 . S
C1743 C1740 1.386 . S
C1744 C1739 1.490 . S
C1744 C1746 1.395 . S
C1744 C1747 1.403 . S
H1745 C1751 0.930 . S
C1746 H1732 0.930 . S
C1746 C1744 1.395 . S
C1746 C1749 1.403 . S
C1747 C1744 1.403 . S
C1747 C1748 1.524 . S
C1747 C1751 1.400 . S
C1748 H1733 0.960 . S
C1748 H1734 0.960 . S
C1748 H1735 0.960 . S
C1748 C1747 1.524 . S
C1749 C1746 1.403 . S
C1749 C1750 1.392 . S
C1749 C1753 1.495 . S
C1750 C1749 1.392 . S
C1750 C1751 1.385 . S
C1750 C1752 1.478 . S
C1751 H1745 0.930 . S
C1751 C1747 1.400 . S
C1751 C1750 1.385 . S
C1752 C1750 1.478 . S
C1752 C1754 1.381 . S
C1752 C1758 1.383 . S
C1753 C1749 1.495 . S
C1753 H1759 0.959 . S
C1753 H1760 0.961 . S
C1753 H1761 0.960 . S
C1754 C1752 1.381 . S
C1754 C1755 1.394 . S
C1754 H1762 0.930 . S
C1755 C1754 1.394 . S
C1755 C1756 1.383 . S
C1755 H1763 0.929 . S
C1756 C1755 1.383 . S
C1756 C1757 1.377 . S
C1757 H1741 0.930 . S
C1757 C1756 1.377 . S
C1757 C1758 1.379 . S
C1758 H1742 0.931 . S
C1758 C1752 1.383 . S
C1758 C1757 1.379 . S
H1759 C1753 0.959 . S
H1760 C1753 0.961 . S
H1761 C1753 0.960 . S
H1762 C1754 0.930 . S
H1763 C1755 0.929 . S
H1764 C1772 0.929 . S
H1765 C1774 0.930 . S
H1766 C1776 0.930 . S
H1767 C1779 0.929 . S
H1768 C1782 0.930 . S
H1769 C1784 0.960 . S
H1770 C1784 0.960 . S
H1771 C1784 0.960 . S
C1772 H1764 0.929 . S
C1772 C1773 1.377 . S
C1772 C1774 1.384 . S
C1773 C1772 1.377 . S
C1773 C1779 1.390 . S
C1774 H1765 0.930 . S
C1774 C1772 1.384 . S
C1774 C1775 1.372 . S
C1775 C1774 1.372 . S
C1775 C1776 1.400 . S
C1775 C1780 1.490 . S
C1776 H1766 0.930 . S
C1776 C1775 1.400 . S
C1776 C1779 1.386 . S
H1777 C1793 0.930 . S
H1778 C1794 0.931 . S
C1779 H1767 0.929 . S
C1779 C1773 1.390 . S
C1779 C1776 1.386 . S
C1780 C1775 1.490 . S
C1780 C1782 1.395 . S
C1780 C1783 1.403 . S
H1781 C1787 0.930 . S
C1782 H1768 0.930 . S
C1782 C1780 1.395 . S
C1782 C1785 1.403 1_545 S
C1783 C1780 1.403 . S
C1783 C1784 1.524 . S
C1783 C1787 1.400 . S
C1784 H1769 0.960 . S
C1784 H1770 0.960 . S
C1784 H1771 0.960 . S
C1784 C1783 1.524 . S
C1785 C1782 1.403 1_565 S
C1785 C1786 1.392 . S
C1785 C1789 1.495 . S
C1786 C1785 1.392 . S
C1786 C1787 1.385 1_565 S
C1786 C1788 1.478 . S
C1787 H1781 0.930 . S
C1787 C1783 1.400 . S
C1787 C1786 1.385 1_545 S
C1788 C1786 1.478 . S
C1788 C1790 1.381 . S
C1788 C1794 1.383 . S
C1789 C1785 1.495 . S
C1789 H1795 0.959 . S
C1789 H1796 0.961 . S
C1789 H1797 0.960 . S
C1790 C1788 1.381 . S
C1790 C1791 1.394 . S
C1790 H1798 0.930 . S
C1791 C1790 1.394 . S
C1791 C1792 1.383 . S
C1791 H1799 0.929 . S
C1792 C1791 1.383 . S
C1792 C1793 1.377 . S
C1793 H1777 0.930 . S
C1793 C1792 1.377 . S
C1793 C1794 1.379 . S
C1794 H1778 0.931 . S
C1794 C1788 1.383 . S
C1794 C1793 1.379 . S
H1795 C1789 0.959 . S
H1796 C1789 0.961 . S
H1797 C1789 0.960 . S
H1798 C1790 0.930 . S
H1799 C1791 0.929 . S
H1800 C1808 0.929 . S
H1801 C1810 0.930 . S
H1802 C1812 0.930 . S
H1803 C1815 0.929 . S
H1804 C1818 0.930 . S
H1805 C1820 0.960 . S
H1806 C1820 0.960 . S
H1807 C1820 0.960 . S
C1808 H1800 0.929 . S
C1808 C1809 1.377 . S
C1808 C1810 1.384 . S
C1809 C1808 1.377 . S
C1809 C1815 1.390 . S
C1810 H1801 0.930 . S
C1810 C1808 1.384 . S
C1810 C1811 1.372 . S
C1811 C1810 1.372 . S
C1811 C1812 1.400 . S
C1811 C1816 1.490 . S
C1812 H1802 0.930 . S
C1812 C1811 1.400 . S
C1812 C1815 1.386 . S
H1813 C1829 0.930 . S
H1814 C1830 0.931 . S
C1815 H1803 0.929 . S
C1815 C1809 1.390 . S
C1815 C1812 1.386 . S
C1816 C1811 1.490 . S
C1816 C1818 1.395 . S
C1816 C1819 1.403 . S
H1817 C1823 0.930 . S
C1818 H1804 0.930 . S
C1818 C1816 1.395 . S
C1818 C1821 1.403 . S
C1819 C1816 1.403 . S
C1819 C1820 1.524 . S
C1819 C1823 1.400 . S
C1820 H1805 0.960 . S
C1820 H1806 0.960 . S
C1820 H1807 0.960 . S
C1820 C1819 1.524 . S
C1821 C1818 1.403 . S
C1821 C1822 1.392 . S
C1821 C1825 1.495 . S
C1822 C1821 1.392 . S
C1822 C1823 1.385 . S
C1822 C1824 1.478 . S
C1823 H1817 0.930 . S
C1823 C1819 1.400 . S
C1823 C1822 1.385 . S
C1824 C1822 1.478 . S
C1824 C1826 1.381 . S
C1824 C1830 1.383 . S
C1825 C1821 1.495 . S
C1825 H1831 0.959 . S
C1825 H1832 0.961 . S
C1825 H1833 0.960 . S
C1826 C1824 1.381 . S
C1826 C1827 1.394 . S
C1826 H1834 0.930 . S
C1827 C1826 1.394 . S
C1827 C1828 1.383 . S
C1827 H1835 0.929 . S
C1828 C1827 1.383 . S
C1828 C1829 1.377 . S
C1829 H1813 0.930 . S
C1829 C1828 1.377 . S
C1829 C1830 1.379 . S
C1830 H1814 0.931 . S
C1830 C1824 1.383 . S
C1830 C1829 1.379 . S
H1831 C1825 0.959 . S
H1832 C1825 0.961 . S
H1833 C1825 0.960 . S
H1834 C1826 0.930 . S
H1835 C1827 0.929 . S
H1836 C1844 0.929 . S
H1837 C1846 0.930 . S
H1838 C1848 0.930 . S
H1839 C1851 0.929 . S
H1840 C1854 0.930 1_545 S
H1841 C1856 0.960 . S
H1842 C1856 0.960 . S
H1843 C1856 0.960 . S
C1844 H1836 0.929 . S
C1844 C1845 1.377 . S
C1844 C1846 1.384 . S
C1845 C1844 1.377 . S
C1845 C1851 1.390 . S
C1846 H1837 0.930 . S
C1846 C1844 1.384 . S
C1846 C1847 1.372 . S
C1847 C1846 1.372 . S
C1847 C1848 1.400 . S
C1847 C1852 1.458 1_545 S
C1848 H1838 0.930 . S
C1848 C1847 1.400 . S
C1848 C1851 1.386 . S
H1849 C1865 0.930 . S
H1850 C1866 0.931 . S
C1851 H1839 0.929 . S
C1851 C1845 1.390 . S
C1851 C1848 1.386 . S
C1852 C1847 1.458 1_565 S
C1852 C1854 1.397 . S
C1852 C1855 1.433 . S
H1853 C1859 0.930 . S
C1854 H1840 0.930 1_565 S
C1854 C1852 1.397 . S
C1854 C1857 1.403 . S
C1855 C1852 1.433 . S
C1855 C1856 1.524 . S
C1855 C1859 1.400 . S
C1856 H1841 0.960 . S
C1856 H1842 0.960 . S
C1856 H1843 0.960 . S
C1856 C1855 1.524 . S
C1857 C1854 1.403 . S
C1857 C1858 1.392 . S
C1857 C1861 1.495 . S
C1858 C1857 1.392 . S
C1858 C1859 1.385 . S
C1858 C1860 1.478 . S
C1859 H1853 0.930 . S
C1859 C1855 1.400 . S
C1859 C1858 1.385 . S
C1860 C1858 1.478 . S
C1860 C1862 1.381 . S
C1860 C1866 1.383 . S
C1861 C1857 1.495 . S
C1861 H1867 0.959 . S
C1861 H1868 0.961 . S
C1861 H1869 0.960 . S
C1862 C1860 1.381 . S
C1862 C1863 1.394 . S
C1862 H1870 0.930 . S
C1863 C1862 1.394 . S
C1863 C1864 1.383 . S
C1863 H1871 0.929 . S
C1864 C1863 1.383 . S
C1864 C1865 1.377 . S
C1865 H1849 0.930 . S
C1865 C1864 1.377 . S
C1865 C1866 1.379 . S
C1866 H1850 0.931 . S
C1866 C1860 1.383 . S
C1866 C1865 1.379 . S
H1867 C1861 0.959 . S
H1868 C1861 0.961 . S
H1869 C1861 0.960 . S
H1870 C1862 0.930 . S
H1871 C1863 0.929 . S
H1872 C1880 0.929 . S
H1873 C1882 0.930 . S
H1874 C1884 0.930 . S
H1875 C1887 0.929 . S
H1876 C1890 0.930 . S
H1877 C1892 0.960 . S
H1878 C1892 0.960 . S
H1879 C1892 0.960 . S
C1880 H1872 0.929 . S
C1880 C1881 1.377 . S
C1880 C1882 1.384 . S
C1881 C1880 1.377 . S
C1881 C1887 1.390 . S
C1882 H1873 0.930 . S
C1882 C1880 1.384 . S
C1882 C1883 1.372 . S
C1883 C1882 1.372 . S
C1883 C1884 1.400 . S
C1883 C1888 1.490 . S
C1884 H1874 0.930 . S
C1884 C1883 1.400 . S
C1884 C1887 1.386 . S
H1885 C1901 0.930 . S
H1886 C1902 0.931 . S
C1887 H1875 0.929 . S
C1887 C1881 1.390 . S
C1887 C1884 1.386 . S
C1888 C1883 1.490 . S
C1888 C1890 1.395 . S
C1888 C1891 1.403 . S
H1889 C1895 0.930 . S
C1890 H1876 0.930 . S
C1890 C1888 1.395 . S
C1890 C1893 1.403 . S
C1891 C1888 1.403 . S
C1891 C1892 1.524 . S
C1891 C1895 1.400 . S
C1892 H1877 0.960 . S
C1892 H1878 0.960 . S
C1892 H1879 0.960 . S
C1892 C1891 1.524 . S
C1893 C1890 1.403 . S
C1893 C1894 1.392 . S
C1893 C1897 1.495 . S
C1894 C1893 1.392 . S
C1894 C1895 1.385 . S
C1894 C1896 1.478 . S
C1895 H1889 0.930 . S
C1895 C1891 1.400 . S
C1895 C1894 1.385 . S
C1896 C1894 1.478 . S
C1896 C1898 1.381 . S
C1896 C1902 1.383 . S
C1897 C1893 1.495 . S
C1897 H1903 0.959 . S
C1897 H1904 0.961 . S
C1897 H1905 0.960 . S
C1898 C1896 1.381 . S
C1898 C1899 1.394 . S
C1898 H1906 0.930 . S
C1899 C1898 1.394 . S
C1899 C1900 1.383 . S
C1899 H1907 0.929 . S
C1900 C1899 1.383 . S
C1900 C1901 1.377 . S
C1901 H1885 0.930 . S
C1901 C1900 1.377 . S
C1901 C1902 1.379 . S
C1902 H1886 0.931 . S
C1902 C1896 1.383 . S
C1902 C1901 1.379 . S
H1903 C1897 0.959 . S
H1904 C1897 0.961 . S
H1905 C1897 0.960 . S
H1906 C1898 0.930 . S
H1907 C1899 0.929 . S
H1908 C1916 0.929 . S
H1909 C1918 0.930 . S
H1910 C1920 0.930 . S
H1911 C1923 0.929 . S
H1912 C1926 0.930 . S
H1913 C1928 0.960 . S
H1914 C1928 0.960 . S
H1915 C1928 0.960 . S
C1916 H1908 0.929 . S
C1916 C1917 1.377 . S
C1916 C1918 1.384 . S
C1917 C1916 1.377 . S
C1917 C1923 1.390 . S
C1918 H1909 0.930 . S
C1918 C1916 1.384 . S
C1918 C1919 1.372 . S
C1919 C1918 1.372 . S
C1919 C1920 1.400 . S
C1919 C1924 1.490 . S
C1920 H1910 0.930 . S
C1920 C1919 1.400 . S
C1920 C1923 1.386 . S
H1921 C1937 0.930 . S
H1922 C1938 0.931 . S
C1923 H1911 0.929 . S
C1923 C1917 1.390 . S
C1923 C1920 1.386 . S
C1924 C1919 1.490 . S
C1924 C1926 1.395 . S
C1924 C1927 1.403 . S
H1925 C1931 0.930 . S
C1926 H1912 0.930 . S
C1926 C1924 1.395 . S
C1926 C1929 1.403 . S
C1927 C1924 1.403 . S
C1927 C1928 1.524 . S
C1927 C1931 1.400 . S
C1928 H1913 0.960 . S
C1928 H1914 0.960 . S
C1928 H1915 0.960 . S
C1928 C1927 1.524 . S
C1929 C1926 1.403 . S
C1929 C1930 1.392 . S
C1929 C1933 1.495 . S
C1930 C1929 1.392 . S
C1930 C1931 1.385 . S
C1930 C1932 1.478 . S
C1931 H1925 0.930 . S
C1931 C1927 1.400 . S
C1931 C1930 1.385 . S
C1932 C1930 1.478 . S
C1932 C1934 1.381 . S
C1932 C1938 1.383 . S
C1933 C1929 1.495 . S
C1933 H1939 0.959 . S
C1933 H1940 0.961 . S
C1933 H1941 0.960 . S
C1934 C1932 1.381 . S
C1934 C1935 1.394 . S
C1934 H1942 0.930 . S
C1935 C1934 1.394 . S
C1935 C1936 1.383 . S
C1935 H1943 0.929 . S
C1936 C1935 1.383 . S
C1936 C1937 1.377 . S
C1937 H1921 0.930 . S
C1937 C1936 1.377 . S
C1937 C1938 1.379 . S
C1938 H1922 0.931 . S
C1938 C1932 1.383 . S
C1938 C1937 1.379 . S
H1939 C1933 0.959 . S
H1940 C1933 0.961 . S
H1941 C1933 0.960 . S
H1942 C1934 0.930 . S
H1943 C1935 0.929 . S
H1944 C1952 0.929 . S
H1945 C1954 0.930 . S
H1946 C1956 0.930 . S
H1947 C1959 0.929 . S
H1948 C1962 0.930 . S
H1949 C1964 0.960 . S
H1950 C1964 0.960 . S
H1951 C1964 0.960 . S
C1952 H1944 0.929 . S
C1952 C1953 1.377 . S
C1952 C1954 1.384 . S
C1953 C1952 1.377 . S
C1953 C1959 1.390 . S
C1954 H1945 0.930 . S
C1954 C1952 1.384 . S
C1954 C1955 1.372 . S
C1955 C1954 1.372 . S
C1955 C1956 1.400 . S
C1955 C1960 1.490 . S
C1956 H1946 0.930 . S
C1956 C1955 1.400 . S
C1956 C1959 1.386 . S
H1957 C1973 0.930 . S
H1958 C1974 0.931 . S
C1959 H1947 0.929 . S
C1959 C1953 1.390 . S
C1959 C1956 1.386 . S
C1960 C1955 1.490 . S
C1960 C1962 1.395 . S
C1960 C1963 1.403 . S
H1961 C1967 0.930 . S
C1962 H1948 0.930 . S
C1962 C1960 1.395 . S
C1962 C1965 1.403 . S
C1963 C1960 1.403 . S
C1963 C1964 1.524 . S
C1963 C1967 1.400 . S
C1964 H1949 0.960 . S
C1964 H1950 0.960 . S
C1964 H1951 0.960 . S
C1964 C1963 1.524 . S
C1965 C1962 1.403 . S
C1965 C1966 1.392 . S
C1965 C1969 1.495 . S
C1966 C1965 1.392 . S
C1966 C1967 1.385 . S
C1966 C1968 1.478 . S
C1967 H1961 0.930 . S
C1967 C1963 1.400 . S
C1967 C1966 1.385 . S
C1968 C1966 1.478 . S
C1968 C1970 1.381 . S
C1968 C1974 1.383 . S
C1969 C1965 1.495 . S
C1969 H1975 0.959 . S
C1969 H1976 0.961 . S
C1969 H1977 0.960 . S
C1970 C1968 1.381 . S
C1970 C1971 1.394 . S
C1970 H1978 0.930 . S
C1971 C1970 1.394 . S
C1971 C1972 1.383 . S
C1971 H1979 0.929 . S
C1972 C1971 1.383 . S
C1972 C1973 1.377 . S
C1973 H1957 0.930 . S
C1973 C1972 1.377 . S
C1973 C1974 1.379 . S
C1974 H1958 0.931 . S
C1974 C1968 1.383 . S
C1974 C1973 1.379 . S
H1975 C1969 0.959 . S
H1976 C1969 0.961 . S
H1977 C1969 0.960 . S
H1978 C1970 0.930 . S
H1979 C1971 0.929 . S
H1980 C1988 0.929 . S
H1981 C1990 0.930 . S
H1982 C1992 0.930 . S
H1983 C1995 0.929 . S
H1984 C1998 0.930 . S
H1985 C2000 0.960 . S
H1986 C2000 0.960 . S
H1987 C2000 0.960 . S
C1988 H1980 0.929 . S
C1988 C1989 1.377 . S
C1988 C1990 1.384 . S
C1989 C1988 1.377 . S
C1989 C1995 1.390 . S
C1990 H1981 0.930 . S
C1990 C1988 1.384 . S
C1990 C1991 1.372 . S
C1991 C1990 1.372 . S
C1991 C1992 1.400 . S
C1991 C1996 1.490 . S
C1992 H1982 0.930 . S
C1992 C1991 1.400 . S
C1992 C1995 1.386 . S
H1993 C2009 0.930 . S
H1994 C2010 0.931 . S
C1995 H1983 0.929 . S
C1995 C1989 1.390 . S
C1995 C1992 1.386 . S
C1996 C1991 1.490 . S
C1996 C1998 1.395 . S
C1996 C1999 1.403 . S
H1997 C2003 0.930 . S
C1998 H1984 0.930 . S
C1998 C1996 1.395 . S
C1998 C2001 1.403 . S
C1999 C1996 1.403 . S
C1999 C2000 1.524 . S
C1999 C2003 1.400 . S
C2000 H1985 0.960 . S
C2000 H1986 0.960 . S
C2000 H1987 0.960 . S
C2000 C1999 1.524 . S
C2001 C1998 1.403 . S
C2001 C2002 1.392 . S
C2001 C2005 1.495 . S
C2002 C2001 1.392 . S
C2002 C2003 1.385 . S
C2002 C2004 1.478 . S
C2003 H1997 0.930 . S
C2003 C1999 1.400 . S
C2003 C2002 1.385 . S
C2004 C2002 1.478 . S
C2004 C2006 1.381 . S
C2004 C2010 1.383 . S
C2005 C2001 1.495 . S
C2005 H2011 0.959 . S
C2005 H2012 0.961 . S
C2005 H2013 0.960 . S
C2006 C2004 1.381 . S
C2006 C2007 1.394 . S
C2006 H2014 0.930 . S
C2007 C2006 1.394 . S
C2007 C2008 1.383 . S
C2007 H2015 0.929 . S
C2008 C2007 1.383 . S
C2008 C2009 1.377 . S
C2009 H1993 0.930 . S
C2009 C2008 1.377 . S
C2009 C2010 1.379 . S
C2010 H1994 0.931 . S
C2010 C2004 1.383 . S
C2010 C2009 1.379 . S
H2011 C2005 0.959 . S
H2012 C2005 0.961 . S
H2013 C2005 0.960 . S
H2014 C2006 0.930 . S
H2015 C2007 0.929 . S
H2016 C2024 0.929 . S
H2017 C2026 0.930 . S
H2018 C2028 0.930 . S
H2019 C2031 0.929 . S
H2020 C2034 0.930 . S
H2021 C2036 0.960 . S
H2022 C2036 0.960 . S
H2023 C2036 0.960 . S
C2024 H2016 0.929 . S
C2024 C2025 1.377 . S
C2024 C2026 1.384 . S
C2025 C2024 1.377 . S
C2025 C2031 1.390 . S
C2026 H2017 0.930 . S
C2026 C2024 1.384 . S
C2026 C2027 1.372 . S
C2027 C2026 1.372 . S
C2027 C2028 1.400 . S
C2027 C2032 1.490 . S
C2028 H2018 0.930 . S
C2028 C2027 1.400 . S
C2028 C2031 1.386 . S
H2029 C2045 0.930 . S
H2030 C2046 0.931 . S
C2031 H2019 0.929 . S
C2031 C2025 1.390 . S
C2031 C2028 1.386 . S
C2032 C2027 1.490 . S
C2032 C2034 1.395 . S
C2032 C2035 1.403 . S
H2033 C2039 0.930 . S
C2034 H2020 0.930 . S
C2034 C2032 1.395 . S
C2034 C2037 1.403 . S
C2035 C2032 1.403 . S
C2035 C2036 1.524 . S
C2035 C2039 1.400 . S
C2036 H2021 0.960 . S
C2036 H2022 0.960 . S
C2036 H2023 0.960 . S
C2036 C2035 1.524 . S
C2037 C2034 1.403 . S
C2037 C2038 1.392 . S
C2037 C2041 1.495 . S
C2038 C2037 1.392 . S
C2038 C2039 1.385 . S
C2038 C2040 1.478 . S
C2039 H2033 0.930 . S
C2039 C2035 1.400 . S
C2039 C2038 1.385 . S
C2040 C2038 1.478 . S
C2040 C2042 1.381 . S
C2040 C2046 1.383 . S
C2041 C2037 1.495 . S
C2041 H2047 0.959 . S
C2041 H2048 0.961 . S
C2041 H2049 0.960 . S
C2042 C2040 1.381 . S
C2042 C2043 1.394 . S
C2042 H2050 0.930 . S
C2043 C2042 1.394 . S
C2043 C2044 1.383 . S
C2043 H2051 0.929 . S
C2044 C2043 1.383 . S
C2044 C2045 1.377 . S
C2045 H2029 0.930 . S
C2045 C2044 1.377 . S
C2045 C2046 1.379 . S
C2046 H2030 0.931 . S
C2046 C2040 1.383 . S
C2046 C2045 1.379 . S
H2047 C2041 0.959 . S
H2048 C2041 0.961 . S
H2049 C2041 0.960 . S
H2050 C2042 0.930 . S
H2051 C2043 0.929 . S
H2052 C2060 0.929 . S
H2053 C2062 0.930 . S
H2054 C2064 0.930 . S
H2055 C2067 0.929 . S
H2056 C2070 0.930 . S
H2057 C2072 0.960 . S
H2058 C2072 0.960 . S
H2059 C2072 0.960 . S
C2060 H2052 0.929 . S
C2060 C2061 1.377 . S
C2060 C2062 1.384 . S
C2061 C2060 1.377 . S
C2061 C2067 1.390 . S
C2062 H2053 0.930 . S
C2062 C2060 1.384 . S
C2062 C2063 1.372 . S
C2063 C2062 1.372 . S
C2063 C2064 1.400 . S
C2063 C2068 1.490 . S
C2064 H2054 0.930 . S
C2064 C2063 1.400 . S
C2064 C2067 1.386 . S
H2065 C2081 0.930 . S
H2066 C2082 0.931 . S
C2067 H2055 0.929 . S
C2067 C2061 1.390 . S
C2067 C2064 1.386 . S
C2068 C2063 1.490 . S
C2068 C2070 1.395 . S
C2068 C2071 1.403 . S
H2069 C2075 0.930 . S
C2070 H2056 0.930 . S
C2070 C2068 1.395 . S
C2070 C2073 1.403 . S
C2071 C2068 1.403 . S
C2071 C2072 1.524 . S
C2071 C2075 1.400 . S
C2072 H2057 0.960 . S
C2072 H2058 0.960 . S
C2072 H2059 0.960 . S
C2072 C2071 1.524 . S
C2073 C2070 1.403 . S
C2073 C2074 1.392 . S
C2073 C2077 1.495 . S
C2074 C2073 1.392 . S
C2074 C2075 1.385 . S
C2074 C2076 1.478 . S
C2075 H2069 0.930 . S
C2075 C2071 1.400 . S
C2075 C2074 1.385 . S
C2076 C2074 1.478 . S
C2076 C2078 1.381 . S
C2076 C2082 1.383 . S
C2077 C2073 1.495 . S
C2077 H2083 0.959 . S
C2077 H2084 0.961 . S
C2077 H2085 0.960 . S
C2078 C2076 1.381 . S
C2078 C2079 1.394 . S
C2078 H2086 0.930 . S
C2079 C2078 1.394 . S
C2079 C2080 1.383 . S
C2079 H2087 0.929 . S
C2080 C2079 1.383 . S
C2080 C2081 1.377 . S
C2081 H2065 0.930 . S
C2081 C2080 1.377 . S
C2081 C2082 1.379 . S
C2082 H2066 0.931 . S
C2082 C2076 1.383 . S
C2082 C2081 1.379 . S
H2083 C2077 0.959 . S
H2084 C2077 0.961 . S
H2085 C2077 0.960 . S
H2086 C2078 0.930 . S
H2087 C2079 0.929 . S
H2088 C2096 0.929 . S
H2089 C2098 0.930 . S
H2090 C2100 0.930 . S
H2091 C2103 0.929 . S
H2092 C2106 0.930 . S
H2093 C2108 0.960 . S
H2094 C2108 0.960 . S
H2095 C2108 0.960 . S
C2096 H2088 0.929 . S
C2096 C2097 1.377 . S
C2096 C2098 1.384 . S
C2097 C2096 1.377 . S
C2097 C2103 1.390 . S
C2098 H2089 0.930 . S
C2098 C2096 1.384 . S
C2098 C2099 1.372 . S
C2099 C2098 1.372 . S
C2099 C2100 1.400 . S
C2099 C2104 1.490 . S
C2100 H2090 0.930 . S
C2100 C2099 1.400 . S
C2100 C2103 1.386 . S
H2101 C2117 0.930 . S
H2102 C2118 0.931 . S
C2103 H2091 0.929 . S
C2103 C2097 1.390 . S
C2103 C2100 1.386 . S
C2104 C2099 1.490 . S
C2104 C2106 1.395 . S
C2104 C2107 1.403 . S
H2105 C2111 0.930 1_655 S
C2106 H2092 0.930 . S
C2106 C2104 1.395 . S
C2106 C2109 1.403 . S
C2107 C2104 1.403 . S
C2107 C2108 1.524 . S
C2107 C2111 1.400 . S
C2108 H2093 0.960 . S
C2108 H2094 0.960 . S
C2108 H2095 0.960 . S
C2108 C2107 1.524 . S
C2109 C2106 1.403 . S
C2109 C2110 1.392 . S
C2109 C2113 1.495 . S
C2110 C2109 1.392 . S
C2110 C2111 1.385 . S
C2110 C2112 1.478 1_455 S
C2111 H2105 0.930 1_455 S
C2111 C2107 1.400 . S
C2111 C2110 1.385 . S
C2112 C2110 1.478 1_655 S
C2112 C2114 1.381 . S
C2112 C2118 1.383 . S
C2113 C2109 1.495 . S
C2113 H2119 0.959 . S
C2113 H2120 0.961 . S
C2113 H2121 0.960 . S
C2114 C2112 1.381 . S
C2114 C2115 1.394 . S
C2114 H2122 0.930 . S
C2115 C2114 1.394 . S
C2115 C2116 1.383 . S
C2115 H2123 0.929 . S
C2116 C2115 1.383 . S
C2116 C2117 1.377 . S
C2117 H2101 0.930 . S
C2117 C2116 1.377 . S
C2117 C2118 1.379 . S
C2118 H2102 0.931 . S
C2118 C2112 1.383 . S
C2118 C2117 1.379 . S
H2119 C2113 0.959 . S
H2120 C2113 0.961 . S
H2121 C2113 0.960 . S
H2122 C2114 0.930 . S
H2123 C2115 0.929 . S
H2124 C2132 0.929 . S
H2125 C2134 0.930 . S
H2126 C2136 0.930 . S
H2127 C2139 0.929 . S
H2128 C2142 0.930 . S
H2129 C2144 0.960 . S
H2130 C2144 0.960 . S
H2131 C2144 0.960 . S
C2132 H2124 0.929 . S
C2132 C2133 1.377 . S
C2132 C2134 1.384 . S
C2133 C2132 1.377 . S
C2133 C2139 1.390 . S
C2134 H2125 0.930 . S
C2134 C2132 1.384 . S
C2134 C2135 1.372 . S
C2135 C2134 1.372 . S
C2135 C2136 1.400 . S
C2135 C2140 1.490 . S
C2136 H2126 0.930 . S
C2136 C2135 1.400 . S
C2136 C2139 1.386 . S
H2137 C2153 0.930 . S
H2138 C2154 0.931 . S
C2139 H2127 0.929 . S
C2139 C2133 1.390 . S
C2139 C2136 1.386 . S
C2140 C2135 1.490 . S
C2140 C2142 1.395 . S
C2140 C2143 1.403 . S
H2141 C2147 0.930 . S
C2142 H2128 0.930 . S
C2142 C2140 1.395 . S
C2142 C2145 1.403 . S
C2143 C2140 1.403 . S
C2143 C2144 1.524 . S
C2143 C2147 1.400 . S
C2144 H2129 0.960 . S
C2144 H2130 0.960 . S
C2144 H2131 0.960 . S
C2144 C2143 1.524 . S
C2145 C2142 1.403 . S
C2145 C2146 1.392 . S
C2145 C2149 1.495 . S
C2146 C2145 1.392 . S
C2146 C2147 1.385 . S
C2146 C2148 1.478 . S
C2147 H2141 0.930 . S
C2147 C2143 1.400 . S
C2147 C2146 1.385 . S
C2148 C2146 1.478 . S
C2148 C2150 1.381 . S
C2148 C2154 1.383 . S
C2149 C2145 1.495 . S
C2149 H2155 0.959 . S
C2149 H2156 0.961 . S
C2149 H2157 0.960 . S
C2150 C2148 1.381 . S
C2150 C2151 1.394 . S
C2150 H2158 0.930 . S
C2151 C2150 1.394 . S
C2151 C2152 1.383 . S
C2151 H2159 0.929 . S
C2152 C2151 1.383 . S
C2152 C2153 1.377 . S
C2153 H2137 0.930 . S
C2153 C2152 1.377 . S
C2153 C2154 1.379 . S
C2154 H2138 0.931 . S
C2154 C2148 1.383 . S
C2154 C2153 1.379 . S
H2155 C2149 0.959 . S
H2156 C2149 0.961 . S
H2157 C2149 0.960 . S
H2158 C2150 0.930 . S
H2159 C2151 0.929 . S
H2160 C2168 0.929 . S
H2161 C2170 0.930 . S
H2162 C2172 0.930 . S
H2163 C2175 0.929 . S
H2164 C2178 0.930 . S
H2165 C2180 0.960 . S
H2166 C2180 0.960 . S
H2167 C2180 0.960 . S
C2168 H2160 0.929 . S
C2168 C2169 1.377 . S
C2168 C2170 1.384 . S
C2169 C2168 1.377 . S
C2169 C2175 1.390 . S
C2170 H2161 0.930 . S
C2170 C2168 1.384 . S
C2170 C2171 1.372 . S
C2171 C2170 1.372 . S
C2171 C2172 1.400 . S
C2171 C2176 1.490 . S
C2172 H2162 0.930 . S
C2172 C2171 1.400 . S
C2172 C2175 1.386 . S
H2173 C2189 0.930 . S
H2174 C2190 0.931 . S
C2175 H2163 0.929 . S
C2175 C2169 1.390 . S
C2175 C2172 1.386 . S
C2176 C2171 1.490 . S
C2176 C2178 1.395 . S
C2176 C2179 1.403 . S
H2177 C2183 0.930 . S
C2178 H2164 0.930 . S
C2178 C2176 1.395 . S
C2178 C2181 1.403 . S
C2179 C2176 1.403 . S
C2179 C2180 1.524 . S
C2179 C2183 1.400 . S
C2180 H2165 0.960 . S
C2180 H2166 0.960 . S
C2180 H2167 0.960 . S
C2180 C2179 1.524 . S
C2181 C2178 1.403 . S
C2181 C2182 1.392 . S
C2181 C2185 1.495 . S
C2182 C2181 1.392 . S
C2182 C2183 1.385 . S
C2182 C2184 1.478 . S
C2183 H2177 0.930 . S
C2183 C2179 1.400 . S
C2183 C2182 1.385 . S
C2184 C2182 1.478 . S
C2184 C2186 1.381 . S
C2184 C2190 1.383 . S
C2185 C2181 1.495 . S
C2185 H2191 0.959 . S
C2185 H2192 0.961 . S
C2185 H2193 0.960 . S
C2186 C2184 1.381 . S
C2186 C2187 1.394 . S
C2186 H2194 0.930 . S
C2187 C2186 1.394 . S
C2187 C2188 1.383 . S
C2187 H2195 0.929 . S
C2188 C2187 1.383 . S
C2188 C2189 1.377 . S
C2189 H2173 0.930 . S
C2189 C2188 1.377 . S
C2189 C2190 1.379 . S
C2190 H2174 0.931 . S
C2190 C2184 1.383 . S
C2190 C2189 1.379 . S
H2191 C2185 0.959 . S
H2192 C2185 0.961 . S
H2193 C2185 0.960 . S
H2194 C2186 0.930 . S
H2195 C2187 0.929 . S
H2196 C2204 0.929 . S
H2197 C2206 0.930 . S
H2198 C2208 0.930 . S
H2199 C2211 0.929 . S
H2200 C2214 0.930 . S
H2201 C2216 0.960 . S
H2202 C2216 0.960 . S
H2203 C2216 0.960 . S
C2204 H2196 0.929 . S
C2204 C2205 1.377 . S
C2204 C2206 1.384 . S
C2205 C2204 1.377 . S
C2205 C2211 1.390 . S
C2206 H2197 0.930 . S
C2206 C2204 1.384 . S
C2206 C2207 1.372 . S
C2207 C2206 1.372 . S
C2207 C2208 1.400 . S
C2207 C2212 1.490 . S
C2208 H2198 0.930 . S
C2208 C2207 1.400 . S
C2208 C2211 1.386 . S
H2209 C2225 0.930 . S
H2210 C2226 0.931 . S
C2211 H2199 0.929 . S
C2211 C2205 1.390 . S
C2211 C2208 1.386 . S
C2212 C2207 1.490 . S
C2212 C2214 1.395 . S
C2212 C2215 1.403 . S
H2213 C2219 0.930 . S
C2214 H2200 0.930 . S
C2214 C2212 1.395 . S
C2214 C2217 1.403 . S
C2215 C2212 1.403 . S
C2215 C2216 1.524 . S
C2215 C2219 1.400 . S
C2216 H2201 0.960 . S
C2216 H2202 0.960 . S
C2216 H2203 0.960 . S
C2216 C2215 1.524 . S
C2217 C2214 1.403 . S
C2217 C2218 1.392 . S
C2217 C2221 1.495 . S
C2218 C2217 1.392 . S
C2218 C2219 1.385 . S
C2218 C2220 1.478 . S
C2219 H2213 0.930 . S
C2219 C2215 1.400 . S
C2219 C2218 1.385 . S
C2220 C2218 1.478 . S
C2220 C2222 1.381 . S
C2220 C2226 1.383 . S
C2221 C2217 1.495 . S
C2221 H2227 0.959 . S
C2221 H2228 0.961 . S
C2221 H2229 0.960 . S
C2222 C2220 1.381 . S
C2222 C2223 1.394 . S
C2222 H2230 0.930 . S
C2223 C2222 1.394 . S
C2223 C2224 1.383 . S
C2223 H2231 0.929 . S
C2224 C2223 1.383 . S
C2224 C2225 1.377 . S
C2225 H2209 0.930 . S
C2225 C2224 1.377 . S
C2225 C2226 1.379 . S
C2226 H2210 0.931 . S
C2226 C2220 1.383 . S
C2226 C2225 1.379 . S
H2227 C2221 0.959 . S
H2228 C2221 0.961 . S
H2229 C2221 0.960 . S
H2230 C2222 0.930 . S
H2231 C2223 0.929 . S
H2232 C2240 0.929 . S
H2233 C2242 0.930 . S
H2234 C2244 0.930 . S
H2235 C2247 0.929 . S
H2236 C2250 0.930 . S
H2237 C2252 0.960 . S
H2238 C2252 0.960 . S
H2239 C2252 0.960 . S
C2240 H2232 0.929 . S
C2240 C2241 1.377 . S
C2240 C2242 1.384 . S
C2241 C2240 1.377 . S
C2241 C2247 1.390 . S
C2242 H2233 0.930 . S
C2242 C2240 1.384 . S
C2242 C2243 1.372 . S
C2243 C2242 1.372 . S
C2243 C2244 1.400 . S
C2243 C2248 1.490 . S
C2244 H2234 0.930 . S
C2244 C2243 1.400 . S
C2244 C2247 1.386 . S
H2245 C2261 0.930 . S
H2246 C2262 0.931 . S
C2247 H2235 0.929 . S
C2247 C2241 1.390 . S
C2247 C2244 1.386 . S
C2248 C2243 1.490 . S
C2248 C2250 1.395 . S
C2248 C2251 1.403 . S
H2249 C2255 0.930 . S
C2250 H2236 0.930 . S
C2250 C2248 1.395 . S
C2250 C2253 1.403 . S
C2251 C2248 1.403 . S
C2251 C2252 1.524 . S
C2251 C2255 1.400 . S
C2252 H2237 0.960 . S
C2252 H2238 0.960 . S
C2252 H2239 0.960 . S
C2252 C2251 1.524 . S
C2253 C2250 1.403 . S
C2253 C2254 1.392 . S
C2253 C2257 1.495 . S
C2254 C2253 1.392 . S
C2254 C2255 1.385 . S
C2254 C2256 1.478 . S
C2255 H2249 0.930 . S
C2255 C2251 1.400 . S
C2255 C2254 1.385 . S
C2256 C2254 1.478 . S
C2256 C2258 1.381 . S
C2256 C2262 1.383 . S
C2257 C2253 1.495 . S
C2257 H2263 0.959 . S
C2257 H2264 0.961 . S
C2257 H2265 0.960 . S
C2258 C2256 1.381 . S
C2258 C2259 1.394 . S
C2258 H2266 0.930 . S
C2259 C2258 1.394 . S
C2259 C2260 1.383 . S
C2259 H2267 0.929 . S
C2260 C2259 1.383 . S
C2260 C2261 1.377 . S
C2261 H2245 0.930 . S
C2261 C2260 1.377 . S
C2261 C2262 1.379 . S
C2262 H2246 0.931 . S
C2262 C2256 1.383 . S
C2262 C2261 1.379 . S
H2263 C2257 0.959 . S
H2264 C2257 0.961 . S
H2265 C2257 0.960 . S
H2266 C2258 0.930 . S
H2267 C2259 0.929 . S
H2268 C2276 0.929 . S
H2269 C2278 0.930 . S
H2270 C2280 0.930 . S
H2271 C2283 0.929 . S
H2272 C2286 0.930 . S
H2273 C2288 0.960 . S
H2274 C2288 0.960 . S
H2275 C2288 0.960 . S
C2276 H2268 0.929 . S
C2276 C2277 1.377 . S
C2276 C2278 1.384 . S
C2277 C2276 1.377 . S
C2277 C2283 1.390 . S
C2278 H2269 0.930 . S
C2278 C2276 1.384 . S
C2278 C2279 1.372 . S
C2279 C2278 1.372 . S
C2279 C2280 1.400 . S
C2279 C2284 1.490 . S
C2280 H2270 0.930 . S
C2280 C2279 1.400 . S
C2280 C2283 1.386 . S
H2281 C2297 0.930 . S
H2282 C2298 0.931 . S
C2283 H2271 0.929 . S
C2283 C2277 1.390 . S
C2283 C2280 1.386 . S
C2284 C2279 1.490 . S
C2284 C2286 1.395 . S
C2284 C2287 1.403 . S
H2285 C2291 0.903 1_455 S
C2286 H2272 0.930 . S
C2286 C2284 1.395 . S
C2286 C2289 1.403 . S
C2287 C2284 1.403 . S
C2287 C2288 1.524 . S
C2287 C2291 1.425 . S
C2288 H2273 0.960 . S
C2288 H2274 0.960 . S
C2288 H2275 0.960 . S
C2288 C2287 1.524 . S
C2289 C2286 1.403 . S
C2289 C2290 1.392 . S
C2289 C2293 1.495 . S
C2290 C2289 1.392 . S
C2290 C2291 1.387 . S
C2290 C2292 1.478 1_655 S
C2291 H2285 0.903 1_655 S
C2291 C2287 1.425 . S
C2291 C2290 1.387 . S
C2292 C2290 1.478 1_455 S
C2292 C2294 1.381 . S
C2292 C2298 1.383 . S
C2293 C2289 1.495 . S
C2293 H2299 0.959 . S
C2293 H2300 0.961 . S
C2293 H2301 0.960 . S
C2294 C2292 1.381 . S
C2294 C2295 1.394 . S
C2294 H2302 0.930 . S
C2295 C2294 1.394 . S
C2295 C2296 1.383 . S
C2295 H2303 0.929 . S
C2296 C2295 1.383 . S
C2296 C2297 1.377 . S
C2297 H2281 0.930 . S
C2297 C2296 1.377 . S
C2297 C2298 1.379 . S
C2298 H2282 0.931 . S
C2298 C2292 1.383 . S
C2298 C2297 1.379 . S
H2299 C2293 0.959 . S
H2300 C2293 0.961 . S
H2301 C2293 0.960 . S
H2302 C2294 0.930 . S
H2303 C2295 0.929 . S
C1017 C56 1.478 . S
C1036 C990 1.530 . S
C1053 C822 1.476 1_565 S
C1072 C150 1.489 . S
C1089 C234 1.404 . S
C1108 C738 1.431 . S
C1125 C318 1.445 . S
C1144 C906 1.448 1_545 S
C1161 C402 1.575 . S
C1180 C896 1.496 . S
C1197 C476 1.582 . S
C1216 C980 1.611 . S
C1233 C812 1.506 . S
C1252 C570 1.541 1_556 S
C1269 C654 1.499 . S
C1288 C728 1.443 . S
C1305 C308 1.587 . S
C1324 C392 1.608 . S
C1341 C66 1.460 . S
C1360 C486 1.500 . S
C1377 C140 1.586 . S
C1396 C560 1.616 . S
C1413 C644 1.586 . S
C1432 C224 1.597 . S
C1449 C63 1.623 . S
C1468 C747 1.761 . S
C1485 C156 1.417 . S
C1504 C915 1.586 . S
C1521 C999 1.674 . S
C1540 C240 1.430 . S
C1557 C324 1.496 . S
C1576 C831 1.707 . S
C1593 C408 1.493 . S
C1612 C823 1.671 . S
C1629 C739 1.831 . S
C1648 C483 1.691 . S
C1665 C907 1.794 . S
C1684 C576 1.591 . S
C1701 C991 1.751 . S
C1720 C660 1.557 . S
C1737 C75 1.758 . S
C1756 C315 1.650 . S
C1773 C72 1.605 . S
C1792 C151 1.802 . S
C1809 C147 1.723 . S
C1828 C235 1.879 . S
C1845 C319 1.836 . S
C1864 C231 1.664 . S
C1881 C492 1.465 . S
C1900 C403 1.669 . S
C1917 C495 1.613 . S
C1936 C567 1.455 . S
C1953 C571 1.688 . S
C1972 C651 1.540 . S
C1989 C399 1.580 . S
C2008 C655 1.722 . S
C2025 C735 1.545 . S
C2044 C327 1.692 . S
C2061 C487 1.728 . S
C2080 C828 1.562 . S
C2097 C744 1.474 . S
C2116 C579 1.687 . S
C2133 C912 1.427 . S
C2152 C663 1.602 . S
C2169 C411 1.597 . S
C2188 C996 1.355 . S
C2205 C987 1.454 . S
C2224 C159 1.579 . S
C2241 C243 1.599 . S
C2260 C819 1.492 . S
C2277 C903 1.580 . S
C2296 C67 1.725 . S
