# Generated by pormake.
# Topology wgm, (5)-cn, num edge types: 1
# Building blocks:
#     Node 0, Type 0, BuildingBlock: BEQFEK_clean_sbu_0, # of connection points: 5
#     Node 1, Type 0, BuildingBlock: BEQFEK_clean_sbu_0, # of connection points: 5
#     Node 2, Type 0, BuildingBlock: BEQFEK_clean_sbu_0, # of connection points: 5
#     Node 3, Type 0, BuildingBlock: BEQFEK_clean_sbu_0, # of connection points: 5
#     Node 4, Type 0, BuildingBlock: BEQFEK_clean_sbu_0, # of connection points: 5
#     Node 5, Type 0, BuildingBlock: BEQFEK_clean_sbu_0, # of connection points: 5
#     Node 6, Type 0, BuildingBlock: BEQFEK_clean_sbu_0, # of connection points: 5
#     Node 7, Type 0, BuildingBlock: BEQFEK_clean_sbu_0, # of connection points: 5
#     Node 8, Type 0, BuildingBlock: BEQFEK_clean_sbu_0, # of connection points: 5
#     Node 9, Type 0, BuildingBlock: BEQFEK_clean_sbu_0, # of connection points: 5
#     Node 10, Type 0, BuildingBlock: BEQFEK_clean_sbu_0, # of connection points: 5
#     Node 11, Type 0, BuildingBlock: BEQFEK_clean_sbu_0, # of connection points: 5
#     Node 12, Type 0, BuildingBlock: BEQFEK_clean_sbu_0, # of connection points: 5
#     Node 13, Type 0, BuildingBlock: BEQFEK_clean_sbu_0, # of connection points: 5
#     Node 14, Type 0, BuildingBlock: BEQFEK_clean_sbu_0, # of connection points: 5
#     Node 15, Type 0, BuildingBlock: BEQFEK_clean_sbu_0, # of connection points: 5
#     Node 16, Type 0, BuildingBlock: BEQFEK_clean_sbu_0, # of connection points: 5
#     Node 17, Type 0, BuildingBlock: BEQFEK_clean_sbu_0, # of connection points: 5
#     Node 18, Type 0, BuildingBlock: BEQFEK_clean_sbu_0, # of connection points: 5
#     Node 19, Type 0, BuildingBlock: BEQFEK_clean_sbu_0, # of connection points: 5
#     Node 20, Type 0, BuildingBlock: BEQFEK_clean_sbu_0, # of connection points: 5
#     Node 21, Type 0, BuildingBlock: BEQFEK_clean_sbu_0, # of connection points: 5
#     Node 22, Type 0, BuildingBlock: BEQFEK_clean_sbu_0, # of connection points: 5
#     Node 23, Type 0, BuildingBlock: BEQFEK_clean_sbu_0, # of connection points: 5
#     Node 24, Type 0, BuildingBlock: BEQFEK_clean_sbu_0, # of connection points: 5
#     Node 25, Type 0, BuildingBlock: BEQFEK_clean_sbu_0, # of connection points: 5
#     Node 26, Type 0, BuildingBlock: BEQFEK_clean_sbu_0, # of connection points: 5
#     Node 27, Type 0, BuildingBlock: BEQFEK_clean_sbu_0, # of connection points: 5
#     Node 28, Type 0, BuildingBlock: BEQFEK_clean_sbu_0, # of connection points: 5
#     Node 29, Type 0, BuildingBlock: BEQFEK_clean_sbu_0, # of connection points: 5
#     Node 30, Type 0, BuildingBlock: BEQFEK_clean_sbu_0, # of connection points: 5
#     Node 31, Type 0, BuildingBlock: BEQFEK_clean_sbu_0, # of connection points: 5
#     Edge 32, Type (0, 0), BuildingBlock: EZIPEK_clean_linker_0, # of connection points: 2
#     Edge 33, Type (0, 0), BuildingBlock: EZIPEK_clean_linker_0, # of connection points: 2
#     Edge 34, Type (0, 0), BuildingBlock: EZIPEK_clean_linker_0, # of connection points: 2
#     Edge 35, Type (0, 0), BuildingBlock: EZIPEK_clean_linker_0, # of connection points: 2
#     Edge 36, Type (0, 0), BuildingBlock: EZIPEK_clean_linker_0, # of connection points: 2
#     Edge 37, Type (0, 0), BuildingBlock: EZIPEK_clean_linker_0, # of connection points: 2
#     Edge 38, Type (0, 0), BuildingBlock: EZIPEK_clean_linker_0, # of connection points: 2
#     Edge 39, Type (0, 0), BuildingBlock: EZIPEK_clean_linker_0, # of connection points: 2
#     Edge 40, Type (0, 0), BuildingBlock: EZIPEK_clean_linker_0, # of connection points: 2
#     Edge 41, Type (0, 0), BuildingBlock: EZIPEK_clean_linker_0, # of connection points: 2
#     Edge 42, Type (0, 0), BuildingBlock: EZIPEK_clean_linker_0, # of connection points: 2
#     Edge 43, Type (0, 0), BuildingBlock: EZIPEK_clean_linker_0, # of connection points: 2
#     Edge 44, Type (0, 0), BuildingBlock: EZIPEK_clean_linker_0, # of connection points: 2
#     Edge 45, Type (0, 0), BuildingBlock: EZIPEK_clean_linker_0, # of connection points: 2
#     Edge 46, Type (0, 0), BuildingBlock: EZIPEK_clean_linker_0, # of connection points: 2
#     Edge 47, Type (0, 0), BuildingBlock: EZIPEK_clean_linker_0, # of connection points: 2
#     Edge 48, Type (0, 0), BuildingBlock: EZIPEK_clean_linker_0, # of connection points: 2
#     Edge 49, Type (0, 0), BuildingBlock: EZIPEK_clean_linker_0, # of connection points: 2
#     Edge 50, Type (0, 0), BuildingBlock: EZIPEK_clean_linker_0, # of connection points: 2
#     Edge 51, Type (0, 0), BuildingBlock: EZIPEK_clean_linker_0, # of connection points: 2
#     Edge 52, Type (0, 0), BuildingBlock: EZIPEK_clean_linker_0, # of connection points: 2
#     Edge 53, Type (0, 0), BuildingBlock: EZIPEK_clean_linker_0, # of connection points: 2
#     Edge 54, Type (0, 0), BuildingBlock: EZIPEK_clean_linker_0, # of connection points: 2
#     Edge 55, Type (0, 0), BuildingBlock: EZIPEK_clean_linker_0, # of connection points: 2
#     Edge 56, Type (0, 0), BuildingBlock: EZIPEK_clean_linker_0, # of connection points: 2
#     Edge 57, Type (0, 0), BuildingBlock: EZIPEK_clean_linker_0, # of connection points: 2
#     Edge 58, Type (0, 0), BuildingBlock: EZIPEK_clean_linker_0, # of connection points: 2
#     Edge 59, Type (0, 0), BuildingBlock: EZIPEK_clean_linker_0, # of connection points: 2
#     Edge 60, Type (0, 0), BuildingBlock: EZIPEK_clean_linker_0, # of connection points: 2
#     Edge 61, Type (0, 0), BuildingBlock: EZIPEK_clean_linker_0, # of connection points: 2
#     Edge 62, Type (0, 0), BuildingBlock: EZIPEK_clean_linker_0, # of connection points: 2
#     Edge 63, Type (0, 0), BuildingBlock: EZIPEK_clean_linker_0, # of connection points: 2
#     Edge 64, Type (0, 0), BuildingBlock: EZIPEK_clean_linker_0, # of connection points: 2
#     Edge 65, Type (0, 0), BuildingBlock: EZIPEK_clean_linker_0, # of connection points: 2
#     Edge 66, Type (0, 0), BuildingBlock: EZIPEK_clean_linker_0, # of connection points: 2
#     Edge 67, Type (0, 0), BuildingBlock: EZIPEK_clean_linker_0, # of connection points: 2
#     Edge 68, Type (0, 0), BuildingBlock: EZIPEK_clean_linker_0, # of connection points: 2
#     Edge 69, Type (0, 0), BuildingBlock: EZIPEK_clean_linker_0, # of connection points: 2
#     Edge 70, Type (0, 0), BuildingBlock: EZIPEK_clean_linker_0, # of connection points: 2
#     Edge 71, Type (0, 0), BuildingBlock: EZIPEK_clean_linker_0, # of connection points: 2
#     Edge 72, Type (0, 0), BuildingBlock: EZIPEK_clean_linker_0, # of connection points: 2
#     Edge 73, Type (0, 0), BuildingBlock: EZIPEK_clean_linker_0, # of connection points: 2
#     Edge 74, Type (0, 0), BuildingBlock: EZIPEK_clean_linker_0, # of connection points: 2
#     Edge 75, Type (0, 0), BuildingBlock: EZIPEK_clean_linker_0, # of connection points: 2
#     Edge 76, Type (0, 0), BuildingBlock: EZIPEK_clean_linker_0, # of connection points: 2
#     Edge 77, Type (0, 0), BuildingBlock: EZIPEK_clean_linker_0, # of connection points: 2
#     Edge 78, Type (0, 0), BuildingBlock: EZIPEK_clean_linker_0, # of connection points: 2
#     Edge 79, Type (0, 0), BuildingBlock: EZIPEK_clean_linker_0, # of connection points: 2
#     Edge 80, Type (0, 0), BuildingBlock: EZIPEK_clean_linker_0, # of connection points: 2
#     Edge 81, Type (0, 0), BuildingBlock: EZIPEK_clean_linker_0, # of connection points: 2
#     Edge 82, Type (0, 0), BuildingBlock: EZIPEK_clean_linker_0, # of connection points: 2
#     Edge 83, Type (0, 0), BuildingBlock: EZIPEK_clean_linker_0, # of connection points: 2
#     Edge 84, Type (0, 0), BuildingBlock: EZIPEK_clean_linker_0, # of connection points: 2
#     Edge 85, Type (0, 0), BuildingBlock: EZIPEK_clean_linker_0, # of connection points: 2
#     Edge 86, Type (0, 0), BuildingBlock: EZIPEK_clean_linker_0, # of connection points: 2
#     Edge 87, Type (0, 0), BuildingBlock: EZIPEK_clean_linker_0, # of connection points: 2
#     Edge 88, Type (0, 0), BuildingBlock: EZIPEK_clean_linker_0, # of connection points: 2
#     Edge 89, Type (0, 0), BuildingBlock: EZIPEK_clean_linker_0, # of connection points: 2
#     Edge 90, Type (0, 0), BuildingBlock: EZIPEK_clean_linker_0, # of connection points: 2
#     Edge 91, Type (0, 0), BuildingBlock: EZIPEK_clean_linker_0, # of connection points: 2
#     Edge 92, Type (0, 0), BuildingBlock: EZIPEK_clean_linker_0, # of connection points: 2
#     Edge 93, Type (0, 0), BuildingBlock: EZIPEK_clean_linker_0, # of connection points: 2
#     Edge 94, Type (0, 0), BuildingBlock: EZIPEK_clean_linker_0, # of connection points: 2
#     Edge 95, Type (0, 0), BuildingBlock: EZIPEK_clean_linker_0, # of connection points: 2
#     Edge 96, Type (0, 0), BuildingBlock: EZIPEK_clean_linker_0, # of connection points: 2
#     Edge 97, Type (0, 0), BuildingBlock: EZIPEK_clean_linker_0, # of connection points: 2
#     Edge 98, Type (0, 0), BuildingBlock: EZIPEK_clean_linker_0, # of connection points: 2
#     Edge 99, Type (0, 0), BuildingBlock: EZIPEK_clean_linker_0, # of connection points: 2
#     Edge 100, Type (0, 0), BuildingBlock: EZIPEK_clean_linker_0, # of connection points: 2
#     Edge 101, Type (0, 0), BuildingBlock: EZIPEK_clean_linker_0, # of connection points: 2
#     Edge 102, Type (0, 0), BuildingBlock: EZIPEK_clean_linker_0, # of connection points: 2
#     Edge 103, Type (0, 0), BuildingBlock: EZIPEK_clean_linker_0, # of connection points: 2
#     Edge 104, Type (0, 0), BuildingBlock: EZIPEK_clean_linker_0, # of connection points: 2
#     Edge 105, Type (0, 0), BuildingBlock: EZIPEK_clean_linker_0, # of connection points: 2
#     Edge 106, Type (0, 0), BuildingBlock: EZIPEK_clean_linker_0, # of connection points: 2
#     Edge 107, Type (0, 0), BuildingBlock: EZIPEK_clean_linker_0, # of connection points: 2
#     Edge 108, Type (0, 0), BuildingBlock: EZIPEK_clean_linker_0, # of connection points: 2
#     Edge 109, Type (0, 0), BuildingBlock: EZIPEK_clean_linker_0, # of connection points: 2
#     Edge 110, Type (0, 0), BuildingBlock: EZIPEK_clean_linker_0, # of connection points: 2
#     Edge 111, Type (0, 0), BuildingBlock: EZIPEK_clean_linker_0, # of connection points: 2
# Relax obj value: 0.071
# Max RMSD: 0.113
# Mean RMSD: 0.113
data_MOF--net-wgm--node1-BEQFEK_clean_sbu_0--edge1-EZIPEK_clean_linker_0
_symmetry_space_group_name_H-M    P1
_symmetry_Int_Tables_number       1
_symmetry_cell_setting            triclinic
loop_
_symmetry_equiv_pos_as_xyz
'x, y, z'
_cell_length_a     36.704715
_cell_length_b     36.720151
_cell_length_c     63.656879
_cell_angle_alpha  89.969043
_cell_angle_beta   90.022803
_cell_angle_gamma 89.991442
loop_
_atom_site_label
_atom_site_type_symbol
_atom_site_fract_x
_atom_site_fract_y
_atom_site_fract_z
_atom_type_partial_charge
Co0 Co 0.21337 0.10117 0.31238 0.0
Co1 Co 0.21503 0.16536 0.34531 0.0
C2 C 0.15035 0.11511 0.34095 0.0
O3 O 0.16451 0.09998 0.32499 0.0
O4 O 0.16687 0.14068 0.35065 0.0
C5 C 0.18363 0.05573 0.27972 0.0
O6 O 0.15261 0.07023 0.28565 0.0
C7 C 0.19373 0.2286 0.3719 0.0
C8 C 0.24043 0.26519 0.36626 0.0
C9 C 0.20625 0.26382 0.37546 0.0
N10 N 0.21872 0.21058 0.36041 0.0
N11 N 0.24701 0.23235 0.35769 0.0
C12 C 0.15863 0.21247 0.37931 0.0
H13 H 0.16262 0.18345 0.38356 0.0
H14 H 0.13843 0.21396 0.36644 0.0
H15 H 0.14782 0.22765 0.39304 0.0
C16 C 0.23062 0.16156 0.28349 0.0
N17 N 0.22513 0.14852 0.30294 0.0
N18 N 0.2235 0.17567 0.31621 0.0
C19 C 0.2274 0.20721 0.30555 0.0
C20 C 0.23688 0.19926 0.28455 0.0
C21 C 0.21642 0.14102 0.26494 0.0
H22 H 0.19092 0.12754 0.26985 0.0
H23 H 0.20921 0.15883 0.25153 0.0
H24 H 0.23615 0.1197 0.26013 0.0
O25 O 0.24921 0.08481 0.33406 0.0
O26 O 0.25411 0.13219 0.35568 0.0
H27 H 0.22722 0.25922 0.32146 0.0
H28 H 0.19575 0.25607 0.29968 0.0
C29 C 0.20824 0.24104 0.31299 0.0
H30 H 0.18613 0.23366 0.32409 0.0
H31 H 0.27001 0.22545 0.34892 0.0
O32 O 0.21319 0.06511 0.28873 0.0
C33 C 0.26341 0.10013 0.3501 0.0
Co34 Co 0.14377 0.96614 0.56308 0.0
Co35 Co 0.08127 0.96482 0.59714 0.0
C36 C 0.13283 0.90203 0.59166 0.0
O37 O 0.14964 0.91776 0.5767 0.0
O38 O 0.10565 0.91681 0.6007 0.0
C39 C 0.18511 0.94144 0.52768 0.0
O40 O 0.16455 0.91236 0.52969 0.0
C41 C 0.01482 0.93691 0.61714 0.0
C42 C 0.99589 0.98413 0.63564 0.0
C43 C 0.98749 0.94846 0.63055 0.0
N44 N 0.03847 0.96446 0.61436 0.0
N45 N 0.0271 0.99256 0.62558 0.0
C46 C 0.01799 0.90052 0.60679 0.0
H47 H 0.0335 0.90286 0.59189 0.0
H48 H 0.99061 0.88882 0.60373 0.0
H49 H 0.03289 0.88178 0.61744 0.0
C50 C 0.08015 0.9825 0.53532 0.0
N51 N 0.09488 0.9744 0.55417 0.0
N52 N 0.06876 0.97378 0.56839 0.0
C53 C 0.03674 0.98137 0.55888 0.0
C54 C 0.04298 0.98708 0.53769 0.0
C55 C 0.10139 0.9885 0.51566 0.0
H56 H 0.11855 0.96437 0.51241 0.0
H57 H 0.08336 0.99361 0.50197 0.0
H58 H 0.11919 0.01252 0.518 0.0
O59 O 0.15872 0.00336 0.58366 0.0
O60 O 0.11529 0.00308 0.60806 0.0
H61 H 0.00282 0.00088 0.58377 0.0
H62 H 0.97908 0.99363 0.5592 0.0
C63 C 1.00076 0.98312 0.56974 0.0
H64 H 0.99323 0.95531 0.5749 0.0
H65 H 0.04043 0.01764 0.62618 0.0
O66 O 0.17994 0.96845 0.53978 0.0
C67 C 0.14535 0.01514 0.6008 0.0
Co68 Co 0.28876 0.89762 0.81751 0.0
Co69 Co 0.28621 0.83165 0.84906 0.0
C70 C 0.35203 0.88028 0.84492 0.0
O71 O 0.33769 0.89914 0.83036 0.0
O72 O 0.33526 0.85374 0.85339 0.0
C73 C 0.31364 0.94664 0.78514 0.0
O74 O 0.34418 0.92814 0.78668 0.0
C75 C 0.3134 0.76567 0.87035 0.0
C76 C 0.26243 0.73735 0.87888 0.0
C77 C 0.3 0.7343 0.8796 0.0
N78 N 0.28504 0.78652 0.86435 0.0
N79 N 0.25465 0.76955 0.86971 0.0
C80 C 0.35251 0.77466 0.86626 0.0
H81 H 0.36107 0.79677 0.87706 0.0
H82 H 0.35581 0.78468 0.84993 0.0
H83 H 0.37037 0.75066 0.86883 0.0
C84 C 0.27119 0.83846 0.78701 0.0
N85 N 0.27696 0.85076 0.80666 0.0
N86 N 0.27558 0.82331 0.81981 0.0
C87 C 0.26885 0.79251 0.80894 0.0
C88 C 0.26139 0.80138 0.78778 0.0
C89 C 0.28687 0.85825 0.76848 0.0
H90 H 0.31111 0.87376 0.77348 0.0
H91 H 0.29596 0.8393 0.75599 0.0
H92 H 0.2668 0.8778 0.76212 0.0
O93 O 0.25264 0.91155 0.83896 0.0
O94 O 0.24933 0.86557 0.86164 0.0
H95 H 0.26009 0.74379 0.82702 0.0
H96 H 0.29035 0.73779 0.80453 0.0
C97 C 0.28163 0.75645 0.81723 0.0
H98 H 0.3058 0.76068 0.82732 0.0
H99 H 0.22857 0.77952 0.86662 0.0
O100 O 0.28656 0.9372 0.79631 0.0
C101 C 0.23937 0.8971 0.85544 0.0
Co102 Co 0.35688 0.03867 0.06399 0.0
Co103 Co 0.42165 0.03768 0.0962 0.0
C104 C 0.37091 0.10189 0.0921 0.0
O105 O 0.35331 0.08718 0.07715 0.0
O106 O 0.39754 0.08584 0.10102 0.0
C107 C 0.31285 0.06462 0.03028 0.0
O108 O 0.33297 0.09394 0.03258 0.0
C109 C 0.48894 0.06412 0.11592 0.0
C110 C 0.50879 0.01518 0.13259 0.0
C111 C 0.51675 0.05137 0.12862 0.0
N112 N 0.46539 0.03673 0.11248 0.0
N113 N 0.47733 0.00758 0.12258 0.0
C114 C 0.48505 0.10155 0.10697 0.0
H115 H 0.46967 0.11869 0.11825 0.0
H116 H 0.46965 0.10059 0.09197 0.0
H117 H 0.51219 0.11416 0.10443 0.0
C118 C 0.41841 0.02326 0.03424 0.0
N119 N 0.405 0.03 0.0536 0.0
N120 N 0.43221 0.03005 0.06713 0.0
C121 C 0.46355 0.02324 0.05672 0.0
C122 C 0.45575 0.01881 0.03559 0.0
C123 C 0.39597 0.01896 0.01487 0.0
H124 H 0.37717 0.04232 0.01325 0.0
H125 H 0.41317 0.01711 1.00057 0.0
H126 H 0.37997 0.99351 0.01634 0.0
O127 O 0.34228 0.00207 0.08528 0.0
O128 O 0.38932 0.99821 0.10706 0.0
H129 H 0.49939 0.00178 0.08016 0.0
H130 H 0.52133 0.01182 0.05536 0.0
C131 C 0.50029 0.02095 0.06671 0.0
H132 H 0.50784 0.04826 0.07269 0.0
H133 H 0.46412 0.98242 0.12252 0.0
O134 O 0.31914 0.03691 0.04167 0.0
C135 C 0.35755 0.98826 0.10139 0.0
Co136 Co 0.21159 0.89231 0.18682 0.0
Co137 Co 0.21578 0.8269 0.15486 0.0
C138 C 0.14935 0.87451 0.15841 0.0
O139 O 0.16314 0.89302 0.17329 0.0
O140 O 0.16661 0.84847 0.14973 0.0
C141 C 0.18173 0.93874 0.21906 0.0
O142 O 0.15047 0.92477 0.2131 0.0
C143 C 0.19489 0.76453 0.12819 0.0
C144 C 0.24097 0.7271 0.13381 0.0
C145 C 0.20695 0.72922 0.1244 0.0
N146 N 0.22002 0.78182 0.13993 0.0
N147 N 0.24794 0.75961 0.14267 0.0
C148 C 0.16018 0.78167 0.12078 0.0
H149 H 0.16595 0.80931 0.11456 0.0
H150 H 0.14121 0.78463 0.13424 0.0
H151 H 0.14699 0.76506 0.10836 0.0
C152 C 0.22878 0.83285 0.21666 0.0
N153 N 0.22396 0.84522 0.19699 0.0
N154 N 0.22405 0.81764 0.18397 0.0
C155 C 0.22822 0.78653 0.195 0.0
C156 C 0.23627 0.7953 0.21608 0.0
C157 C 0.21301 0.85347 0.23477 0.0
H158 H 0.18766 0.8666 0.22927 0.0
H159 H 0.20524 0.83568 0.24809 0.0
H160 H 0.23212 0.8751 0.23993 0.0
O161 O 0.24779 0.90859 0.16557 0.0
O162 O 0.25377 0.86114 0.14414 0.0
H163 H 0.23032 0.73419 0.1795 0.0
H164 H 0.19789 0.73681 0.20081 0.0
C165 C 0.21042 0.75195 0.18756 0.0
H166 H 0.18852 0.75837 0.17612 0.0
H167 H 0.27093 0.766 0.15159 0.0
O168 O 0.21113 0.92874 0.21016 0.0
C169 C 0.26246 0.8934 0.14966 0.0
Co170 Co 0.3553 0.9571 0.43735 0.0
Co171 Co 0.42333 0.95976 0.40729 0.0
C172 C 0.37302 0.89489 0.40942 0.0
O173 O 0.35384 0.90894 0.42391 0.0
O174 O 0.40027 0.91144 0.4015 0.0
C175 C 0.30034 0.93102 0.46592 0.0
O176 O 0.30743 0.89901 0.4577 0.0
C177 C 0.49229 0.93306 0.38965 0.0
C178 C 0.51469 0.98213 0.3743 0.0
C179 C 0.52156 0.94562 0.37801 0.0
N180 N 0.46902 0.96085 0.39275 0.0
N181 N 0.48258 0.99012 0.3835 0.0
C182 C 0.4865 0.89526 0.3977 0.0
H183 H 0.46978 0.87993 0.38619 0.0
H184 H 0.47151 0.89605 0.41284 0.0
H185 H 0.51288 0.88089 0.39972 0.0
C186 C 0.41214 0.97347 0.46893 0.0
N187 N 0.40173 0.96656 0.44903 0.0
N188 N 0.43049 0.96729 0.43668 0.0
C189 C 0.46017 0.97472 0.44846 0.0
C190 C 0.44948 0.97884 0.46923 0.0
C191 C 0.38672 0.97506 0.48725 0.0
H192 H 0.37271 0.94845 0.48892 0.0
H193 H 0.40135 0.98151 0.50205 0.0
H194 H 0.36561 0.99608 0.48429 0.0
O195 O 0.34208 0.99357 0.4157 0.0
O196 O 0.39107 0.99872 0.3954 0.0
H197 H 0.49825 0.99812 0.42691 0.0
H198 H 0.51746 0.98702 0.45234 0.0
C199 C 0.49799 0.97819 0.44001 0.0
H200 H 0.50674 0.95144 0.43374 0.0
H201 H 0.46987 0.01554 0.38343 0.0
O202 O 0.31765 0.95898 0.45967 0.0
C203 C 0.35851 0.00781 0.40009 0.0
Co204 Co 0.28791 0.10483 0.68893 0.0
Co205 Co 0.2925 0.16922 0.65651 0.0
C206 C 0.35389 0.11782 0.66124 0.0
O207 O 0.33701 0.10053 0.67559 0.0
O208 O 0.34004 0.14542 0.65219 0.0
C209 C 0.3076 0.06961 0.72754 0.0
O210 O 0.32829 0.09847 0.73012 0.0
C211 C 0.3198 0.23509 0.63517 0.0
C212 C 0.26873 0.26119 0.62462 0.0
C213 C 0.30617 0.2656 0.62507 0.0
N214 N 0.29166 0.21352 0.64057 0.0
N215 N 0.26124 0.22914 0.634 0.0
C216 C 0.35876 0.22742 0.64046 0.0
H217 H 0.36074 0.21497 0.65631 0.0
H218 H 0.37543 0.25261 0.6398 0.0
H219 H 0.36977 0.2076 0.62894 0.0
C220 C 0.26849 0.16658 0.7176 0.0
N221 N 0.27868 0.15271 0.69885 0.0
N222 N 0.28465 0.17971 0.68567 0.0
C223 C 0.28107 0.21145 0.6961 0.0
C224 C 0.27043 0.20426 0.71663 0.0
C225 C 0.25393 0.14468 0.73552 0.0
H226 H 0.24067 0.11976 0.72945 0.0
H227 H 0.27644 0.13695 0.74623 0.0
H228 H 0.23394 0.16083 0.7447 0.0
O229 O 0.25111 0.09086 0.6682 0.0
O230 O 0.25376 0.13582 0.64479 0.0
H231 H 0.2667 0.25511 0.6756 0.0
H232 H 0.29058 0.26951 0.69896 0.0
C233 C 0.28875 0.24802 0.68678 0.0
H234 H 0.31487 0.24707 0.67813 0.0
H235 H 0.23528 0.21834 0.63641 0.0
O236 O 0.28726 0.06768 0.71144 0.0
C237 C 0.24053 0.10562 0.65119 0.0
Co238 Co 0.14712 0.04553 0.93876 0.0
Co239 Co 0.08074 0.04333 0.90758 0.0
C240 C 0.13235 0.10631 0.9083 0.0
O241 O 0.15109 0.09171 0.92285 0.0
O242 O 0.10368 0.09127 0.90107 0.0
C243 C 0.19825 0.07502 0.96832 0.0
O244 O 0.18917 0.10671 0.96031 0.0
C245 C 0.01744 0.06412 0.88133 0.0
C246 C 0.98183 0.01618 0.88547 0.0
C247 C 0.98278 0.05084 0.87682 0.0
N248 N 0.03544 0.03898 0.89273 0.0
N249 N 0.01434 0.01001 0.89459 0.0
C250 C 0.03356 0.0997 0.8746 0.0
H251 H 0.06098 0.09495 0.8678 0.0
H252 H 0.0369 0.11756 0.88852 0.0
H253 H 0.0162 0.11358 0.86278 0.0
C254 C 0.08926 0.03207 0.96977 0.0
N255 N 0.10025 0.03833 0.94991 0.0
N256 N 0.07177 0.03894 0.93733 0.0
C257 C 0.04148 0.03438 0.94918 0.0
C258 C 0.05171 0.0293 0.96996 0.0
C259 C 0.11437 0.02798 0.98813 0.0
H260 H 0.13563 0.00749 0.9844 0.0
H261 H 0.12816 0.05435 0.9911 0.0
H262 H 0.09947 0.01958 0.00251 0.0
O263 O 0.16043 0.00582 0.9198 0.0
O264 O 0.11463 0.00413 0.89691 0.0
H265 H 0.99528 0.00794 0.93573 0.0
H266 H 0.98409 0.04335 0.95398 0.0
C267 C 0.00317 0.03546 0.94124 0.0
H268 H 1.00071 0.05521 0.92815 0.0
H269 H 0.02165 0.98651 0.90279 0.0
O270 O 0.18337 0.04608 0.96156 0.0
C271 C 0.1454 0.99258 0.90351 0.0
Co272 Co 0.79131 0.89481 0.68747 0.0
Co273 Co 0.79134 0.82985 0.65569 0.0
C274 C 0.85512 0.87987 0.65941 0.0
O275 O 0.83965 0.898 0.67388 0.0
O276 O 0.83976 0.85266 0.6508 0.0
C277 C 0.81295 0.93567 0.72404 0.0
O278 O 0.83567 0.90861 0.72734 0.0
C279 C 0.81808 0.76225 0.63706 0.0
C280 C 0.76941 0.741 0.62072 0.0
C281 C 0.8057 0.7337 0.62487 0.0
N282 N 0.79039 0.78561 0.64006 0.0
N283 N 0.76138 0.77285 0.63017 0.0
C284 C 0.85543 0.76697 0.64602 0.0
H285 H 0.87205 0.78325 0.63489 0.0
H286 H 0.85404 0.78189 0.66116 0.0
H287 H 0.86891 0.74019 0.64832 0.0
C288 C 0.77303 0.83483 0.71751 0.0
N289 N 0.7819 0.84755 0.69829 0.0
N290 N 0.78288 0.82006 0.68497 0.0
C291 C 0.77548 0.78901 0.69555 0.0
C292 C 0.76911 0.79746 0.71644 0.0
C293 C 0.76619 0.85782 0.73644 0.0
H294 H 0.75524 0.88451 0.73159 0.0
H295 H 0.79212 0.86177 0.74508 0.0
H296 H 0.7466 0.84438 0.74723 0.0
O297 O 0.75368 0.90816 0.66697 0.0
O298 O 0.75339 0.86325 0.64361 0.0
H299 H 0.75454 0.75222 0.67249 0.0
H300 H 0.76508 0.73109 0.69744 0.0
C301 C 0.77383 0.75198 0.68589 0.0
H302 H 0.80122 0.74473 0.67991 0.0
H303 H 0.73605 0.78576 0.63001 0.0
O304 O 0.79107 0.93397 0.70865 0.0
C305 C 0.74157 0.89385 0.65018 0.0
Co306 Co 0.85108 0.03939 0.43575 0.0
Co307 Co 0.92082 0.04135 0.40721 0.0
C308 C 0.86801 0.10283 0.4074 0.0
O309 O 0.8489 0.0874 0.4215 0.0
O310 O 0.8966 0.08809 0.39994 0.0
C311 C 0.8094 0.05984 0.47209 0.0
O312 O 0.83719 0.08151 0.47572 0.0
C313 C 0.98497 0.06344 0.38187 0.0
C314 C 0.02325 0.01886 0.38934 0.0
C315 C 0.02074 0.05189 0.37887 0.0
N316 N 0.9678 0.03895 0.39413 0.0
N317 N 0.99058 0.01192 0.398 0.0
C318 C 0.96693 0.09639 0.37273 0.0
H319 H 0.9401 0.08863 0.36605 0.0
H320 H 0.96194 0.11656 0.38538 0.0
H321 H 0.98392 0.109 0.36028 0.0
C322 C 0.90782 0.02265 0.46832 0.0
N323 N 0.89739 0.03165 0.44863 0.0
N324 N 0.9267 0.03735 0.43713 0.0
C325 C 0.95636 0.03489 0.44967 0.0
C326 C 0.94533 0.02487 0.46961 0.0
C327 C 0.88304 0.00895 0.48514 0.0
H328 H 0.85878 0.99627 0.47796 0.0
H329 H 0.87468 0.03188 0.49538 0.0
H330 H 0.89722 0.98862 0.49515 0.0
O331 O 0.84078 0.0014 0.41495 0.0
O332 O 0.8912 0.99952 0.39574 0.0
H333 H 0.00861 0.0172 0.43898 0.0
H334 H 0.00999 0.05498 0.45663 0.0
C335 C 0.99472 0.04295 0.44327 0.0
H336 H 0.99529 0.06221 0.42987 0.0
H337 H 0.98412 0.98922 0.40714 0.0
O338 O 0.81021 0.03919 0.45611 0.0
C339 C 0.85926 0.98787 0.39998 0.0
Co340 Co 0.71126 0.10586 0.18868 0.0
Co341 Co 0.71128 0.16988 0.15566 0.0
C342 C 0.64832 0.11849 0.15969 0.0
O343 O 0.66341 0.10106 0.1746 0.0
O344 O 0.66361 0.14564 0.15094 0.0
C345 C 0.68681 0.06247 0.22372 0.0
O346 O 0.65884 0.08482 0.22368 0.0
C347 C 0.68319 0.23735 0.13695 0.0
C348 C 0.73032 0.25762 0.11883 0.0
C349 C 0.69455 0.26548 0.12404 0.0
N350 N 0.71096 0.21378 0.13935 0.0
N351 N 0.73902 0.226 0.12839 0.0
C352 C 0.64668 0.23314 0.14705 0.0
H353 H 0.64905 0.21704 0.16175 0.0
H354 H 0.63446 0.26017 0.15042 0.0
H355 H 0.62836 0.21838 0.13611 0.0
C356 C 0.72654 0.16762 0.21786 0.0
N357 N 0.71903 0.15391 0.19868 0.0
N358 N 0.71894 0.18072 0.18486 0.0
C359 C 0.72616 0.21221 0.19501 0.0
C360 C 0.73099 0.20483 0.21615 0.0
C361 C 0.73257 0.14553 0.23724 0.0
H362 H 0.75791 0.12953 0.23519 0.0
H363 H 0.7095 0.12672 0.23969 0.0
H364 H 0.73555 0.163 0.25135 0.0
O365 O 0.74972 0.09275 0.16857 0.0
O366 O 0.75008 0.13658 0.14445 0.0
H367 H 0.74673 0.2469 0.17073 0.0
H368 H 0.74005 0.26942 0.19572 0.0
C369 C 0.72898 0.24866 0.18477 0.0
H370 H 0.70138 0.2572 0.17975 0.0
H371 H 0.7642 0.21288 0.12756 0.0
O372 O 0.7127 0.06783 0.21084 0.0
C373 C 0.76211 0.10644 0.15165 0.0
Co374 Co 0.64922 0.96634 0.9361 0.0
Co375 Co 0.58272 0.96162 0.90506 0.0
C376 C 0.63607 0.90014 0.90962 0.0
O377 O 0.65332 0.91685 0.92402 0.0
O378 O 0.60826 0.91411 0.90073 0.0
C379 C 0.69053 0.94772 0.9728 0.0
O380 O 0.66418 0.92399 0.97562 0.0
C381 C 0.5151 0.93234 0.88657 0.0
C382 C 0.49213 0.98091 0.8709 0.0
C383 C 0.48582 0.94435 0.8747 0.0
N384 N 0.53782 0.96056 0.88972 0.0
N385 N 0.52399 0.98946 0.8802 0.0
C386 C 0.52114 0.89488 0.89507 0.0
H387 H 0.53975 0.87994 0.88437 0.0
H388 H 0.53433 0.89649 0.91073 0.0
H389 H 0.4951 0.87963 0.89619 0.0
C390 C 0.58927 0.98422 0.96636 0.0
N391 N 0.60173 0.97492 0.94713 0.0
N392 N 0.57375 0.97126 0.9343 0.0
C393 C 0.54275 0.97723 0.94522 0.0
C394 C 0.55166 0.9855 0.96582 0.0
C395 C 0.61259 0.99366 0.98477 0.0
H396 H 0.63805 0.00642 0.97925 0.0
H397 H 0.61902 0.96857 0.99372 0.0
H398 H 0.59821 0.01266 0.9955 0.0
O399 O 0.66107 0.00201 0.91391 0.0
O400 O 0.61357 0.00082 0.89221 0.0
H401 H 0.50309 0.99386 0.92257 0.0
H402 H 0.48423 0.98248 0.94799 0.0
C403 C 0.50526 0.97518 0.9362 0.0
H404 H 0.50032 0.94702 0.93068 0.0
H405 H 0.53617 0.01514 0.88022 0.0
O406 O 0.68871 0.96946 0.95732 0.0
C407 C 0.64454 0.01342 0.89761 0.0
Co408 Co 0.79004 0.10794 0.81112 0.0
Co409 Co 0.78963 0.16902 0.84531 0.0
C410 C 0.85292 0.1169 0.8402 0.0
O411 O 0.83879 0.10335 0.82376 0.0
O412 O 0.83667 0.14219 0.85026 0.0
C413 C 0.81478 0.06535 0.77629 0.0
O414 O 0.84278 0.08764 0.77661 0.0
C415 C 0.81512 0.23758 0.86436 0.0
C416 C 0.7697 0.25138 0.88566 0.0
C417 C 0.80346 0.26314 0.8788 0.0
N418 N 0.78948 0.21159 0.86267 0.0
N419 N 0.76241 0.22 0.87551 0.0
C420 C 0.84967 0.23856 0.85201 0.0
H421 H 0.87287 0.23274 0.86268 0.0
H422 H 0.84894 0.21819 0.83914 0.0
H423 H 0.85391 0.26622 0.84541 0.0
C424 C 0.77393 0.17021 0.78302 0.0
N425 N 0.7817 0.15597 0.802 0.0
N426 N 0.78167 0.1821 0.8162 0.0
C427 C 0.77367 0.21389 0.80645 0.0
C428 C 0.76885 0.20725 0.78517 0.0
C429 C 0.76837 0.1485 0.76346 0.0
H430 H 0.74482 0.13011 0.7659 0.0
H431 H 0.79285 0.13186 0.76025 0.0
H432 H 0.76281 0.16616 0.74968 0.0
O433 O 0.75229 0.09296 0.83149 0.0
O434 O 0.75034 0.13622 0.85581 0.0
H435 H 0.75343 0.24598 0.83202 0.0
H436 H 0.75459 0.26953 0.80702 0.0
C437 C 0.76897 0.24969 0.81725 0.0
H438 H 0.79619 0.26086 0.82112 0.0
H439 H 0.73885 0.2044 0.87727 0.0
O440 O 0.78824 0.07098 0.78866 0.0
C441 C 0.73919 0.10599 0.8484 0.0
Co442 Co 0.64421 0.03762 0.56507 0.0
Co443 Co 0.58157 0.03778 0.59875 0.0
C444 C 0.63269 0.10152 0.59341 0.0
O445 O 0.64878 0.08639 0.57802 0.0
O446 O 0.60646 0.08594 0.60298 0.0
C447 C 0.68604 0.06182 0.52952 0.0
O448 O 0.66363 0.08972 0.52997 0.0
C449 C 0.5143 0.06384 0.61896 0.0
C450 C 0.49724 0.01581 0.63742 0.0
C451 C 0.48764 0.05125 0.63253 0.0
N452 N 0.53874 0.03708 0.61592 0.0
N453 N 0.52847 0.0085 0.62711 0.0
C454 C 0.51627 0.10046 0.60877 0.0
H455 H 0.5309 0.09854 0.59356 0.0
H456 H 0.48857 0.11185 0.60633 0.0
H457 H 0.53163 0.11921 0.61919 0.0
C458 C 0.58123 0.0209 0.53672 0.0
N459 N 0.59566 0.02891 0.55567 0.0
N460 N 0.56934 0.0293 0.56978 0.0
C461 C 0.53751 0.02149 0.56009 0.0
C462 C 0.54405 0.01613 0.53889 0.0
C463 C 0.60262 0.01506 0.51708 0.0
H464 H 0.62112 0.03831 0.51439 0.0
H465 H 0.58461 0.01189 0.50318 0.0
H466 H 0.61896 0.98989 0.51895 0.0
O467 O 0.65923 1.00049 0.58597 0.0
O468 O 0.61448 0.99857 0.60947 0.0
H469 H 0.50399 0.00127 0.58499 0.0
H470 H 0.48037 0.00723 0.56026 0.0
C471 C 0.5015 0.01868 0.57084 0.0
H472 H 0.49296 0.04631 0.57577 0.0
H473 H 0.54261 0.98385 0.62755 0.0
O474 O 0.68129 0.03575 0.54237 0.0
C475 C 0.64497 0.98722 0.60251 0.0
Co476 Co 0.71413 0.89601 0.31619 0.0
Co477 Co 0.71633 0.82822 0.34615 0.0
C478 C 0.6527 0.87977 0.34541 0.0
O479 O 0.66641 0.89827 0.3305 0.0
O480 O 0.66912 0.85236 0.35318 0.0
C481 C 0.69128 0.93774 0.28019 0.0
O482 O 0.66857 0.91055 0.27729 0.0
C483 C 0.68942 0.76054 0.3652 0.0
C484 C 0.7393 0.73715 0.37919 0.0
C485 C 0.7023 0.73128 0.37673 0.0
N486 N 0.71751 0.78291 0.36101 0.0
N487 N 0.74724 0.76881 0.36948 0.0
C488 C 0.65111 0.76705 0.35818 0.0
H489 H 0.65093 0.78179 0.34295 0.0
H490 H 0.63602 0.74098 0.35672 0.0
H491 H 0.63711 0.78425 0.37002 0.0
C492 C 0.73074 0.8376 0.28434 0.0
N493 N 0.72277 0.84906 0.30399 0.0
N494 N 0.72167 0.82049 0.31654 0.0
C495 C 0.72795 0.79014 0.30511 0.0
C496 C 0.73379 0.80004 0.28438 0.0
C497 C 0.73807 0.86185 0.266 0.0
H498 H 0.74956 0.88789 0.27152 0.0
H499 H 0.71229 0.86694 0.25742 0.0
H500 H 0.75744 0.84885 0.25491 0.0
O501 O 0.75229 0.90831 0.33694 0.0
O502 O 0.75734 0.85903 0.35694 0.0
H503 H 0.75072 0.75115 0.32631 0.0
H504 H 0.73565 0.73202 0.3016 0.0
C505 C 0.7295 0.75247 0.31393 0.0
H506 H 0.70287 0.74592 0.3212 0.0
H507 H 0.77298 0.78079 0.36862 0.0
O508 O 0.71352 0.93632 0.29545 0.0
C509 C 0.76722 0.89126 0.35209 0.0
Co510 Co 0.85695 0.9669 0.06527 0.0
Co511 Co 0.92093 0.96163 0.09809 0.0
C512 C 0.8674 0.90039 0.09177 0.0
O513 O 0.85132 0.91731 0.077 0.0
O514 O 0.89456 0.91419 0.10138 0.0
C515 C 0.81546 0.94644 0.02914 0.0
O516 O 0.83903 0.91952 0.02843 0.0
C517 C 0.98794 0.93078 0.11638 0.0
C518 C 0.00879 0.9766 0.13536 0.0
C519 C 0.01621 0.94107 0.12953 0.0
N520 N 0.96475 0.95897 0.11446 0.0
N521 N 0.97731 0.98621 0.12596 0.0
C522 C 0.98334 0.89501 0.10553 0.0
H523 H 0.9691 0.89894 0.09031 0.0
H524 H 0.0101 0.88164 0.10297 0.0
H525 H 0.96636 0.87695 0.11551 0.0
C526 C 0.91898 0.98542 0.03684 0.0
N527 N 0.90525 0.97528 0.05561 0.0
N528 N 0.93217 0.97224 0.06923 0.0
C529 C 0.9638 0.98004 0.05934 0.0
C530 C 0.9564 0.98848 0.03857 0.0
C531 C 0.89669 0.99526 0.01807 0.0
H532 H 0.88063 0.97142 0.0129 0.0
H533 H 0.91394 0.00461 0.0048 0.0
H534 H 0.87779 0.01746 0.02253 0.0
O535 O 0.84387 0.0025 0.08727 0.0
O536 O 0.88946 0.00098 0.11032 0.0
H537 H 0.99971 0.99643 0.08406 0.0
H538 H 0.02172 0.99079 0.05883 0.0
C539 C 1.00043 0.9799 0.06951 0.0
H540 H 0.00746 0.95148 0.0737 0.0
H541 H 0.96457 0.01153 0.12721 0.0
O542 O 0.81934 0.97107 0.04298 0.0
C543 C 0.85908 0.01382 0.10401 0.0
Co544 Co 0.70935 0.60614 0.81464 0.0
Co545 Co 0.71248 0.67058 0.84698 0.0
C546 C 0.64794 0.62013 0.84371 0.0
O547 O 0.66167 0.60248 0.82851 0.0
O548 O 0.66461 0.64652 0.85242 0.0
C549 C 0.68242 0.55572 0.78366 0.0
O550 O 0.65035 0.56315 0.79174 0.0
C551 C 0.68716 0.73895 0.86565 0.0
C552 C 0.73311 0.75378 0.88638 0.0
C553 C 0.6987 0.76476 0.88005 0.0
N554 N 0.71344 0.71369 0.86362 0.0
N555 N 0.74078 0.72263 0.87613 0.0
C556 C 0.65198 0.73847 0.85381 0.0
H557 H 0.65447 0.72149 0.83946 0.0
H558 H 0.64366 0.76662 0.8496 0.0
H559 H 0.63045 0.72659 0.86394 0.0
C560 C 0.72436 0.66642 0.78507 0.0
N561 N 0.71777 0.65395 0.8046 0.0
N562 N 0.71936 0.68127 0.81796 0.0
C563 C 0.72759 0.71198 0.80729 0.0
C564 C 0.73077 0.70351 0.78612 0.0
C565 C 0.72573 0.64296 0.76589 0.0
H566 H 0.74666 0.62149 0.76807 0.0
H567 H 0.69902 0.62933 0.76379 0.0
H568 H 0.73221 0.65903 0.7516 0.0
O569 O 0.74707 0.59095 0.83529 0.0
O570 O 0.7522 0.63808 0.85695 0.0
H571 H 0.75089 0.74539 0.8314 0.0
H572 H 0.74686 0.76761 0.80607 0.0
C573 C 0.73368 0.74841 0.81719 0.0
H574 H 0.70708 0.75995 0.82205 0.0
H575 H 0.76467 0.70745 0.87767 0.0
O576 O 0.71076 0.57115 0.79092 0.0
C577 C 0.76175 0.60627 0.85114 0.0
Co578 Co 0.64614 0.45928 0.06509 0.0
Co579 Co 0.5802 0.46425 0.09638 0.0
C580 C 0.62783 0.39803 0.09437 0.0
O581 O 0.64716 0.41188 0.07985 0.0
O582 O 0.60074 0.41488 0.10225 0.0
C583 C 0.69711 0.42923 0.03549 0.0
O584 O 0.68954 0.39782 0.04434 0.0
C585 C 0.51185 0.44419 0.11783 0.0
C586 C 0.48293 0.49651 0.11705 0.0
C587 C 0.47717 0.45965 0.12075 0.0
N588 N 0.53476 0.47007 0.11075 0.0
N589 N 0.51762 0.50156 0.1111 0.0
C590 C 0.52484 0.40687 0.1238 0.0
H591 H 0.55217 0.4089 0.13115 0.0
H592 H 0.52768 0.38982 0.10951 0.0
H593 H 0.50632 0.39357 0.13521 0.0
C594 C 0.58867 0.47552 0.0341 0.0
N595 N 0.5997 0.46934 0.05399 0.0
N596 N 0.57146 0.47073 0.06671 0.0
C597 C 0.54133 0.47732 0.05501 0.0
C598 C 0.55139 0.4809 0.03412 0.0
C599 C 0.61343 0.47642 0.01546 0.0
H600 H 0.62618 0.44926 0.01345 0.0
H601 H 0.59849 0.48371 0.00089 0.0
H602 H 0.6355 0.4965 0.01822 0.0
O603 O 0.66169 0.49734 0.08505 0.0
O604 O 0.61562 0.50129 0.10766 0.0
H605 H 0.49917 0.50613 0.07095 0.0
H606 H 0.48301 0.4769 0.05036 0.0
C607 C 0.50326 0.4794 0.06323 0.0
H608 H 0.49856 0.45731 0.07475 0.0
H609 H 0.52897 0.52612 0.10608 0.0
O610 O 0.68187 0.45815 0.042 0.0
C611 C 0.64719 0.51106 0.10139 0.0
Co612 Co 0.78943 0.39789 0.31411 0.0
Co613 Co 0.78802 0.33199 0.34602 0.0
C614 C 0.85283 0.38142 0.34207 0.0
O615 O 0.83798 0.40036 0.32767 0.0
O616 O 0.83674 0.35439 0.35049 0.0
C617 C 0.81452 0.44506 0.28105 0.0
O618 O 0.84494 0.42656 0.28318 0.0
C619 C 0.81419 0.2634 0.36431 0.0
C620 C 0.76574 0.24328 0.38132 0.0
C621 C 0.80166 0.23506 0.37671 0.0
N622 N 0.78691 0.28741 0.36162 0.0
N623 N 0.75804 0.27527 0.37189 0.0
C624 C 0.85139 0.26751 0.35508 0.0
H625 H 0.86854 0.28351 0.36607 0.0
H626 H 0.84985 0.2825 0.33995 0.0
H627 H 0.86437 0.24053 0.35268 0.0
C628 C 0.77351 0.33759 0.28397 0.0
N629 N 0.78029 0.35037 0.30345 0.0
N630 N 0.77923 0.32296 0.31684 0.0
C631 C 0.77147 0.29212 0.30619 0.0
C632 C 0.76771 0.3005 0.28511 0.0
C633 C 0.7712 0.36027 0.26458 0.0
H634 H 0.7446 0.37456 0.26456 0.0
H635 H 0.79348 0.3805 0.26437 0.0
H636 H 0.77287 0.34326 0.2502 0.0
O637 O 0.75238 0.41136 0.33517 0.0
O638 O 0.75069 0.36562 0.35808 0.0
H639 H 0.74923 0.25667 0.3296 0.0
H640 H 0.75714 0.23507 0.30445 0.0
C641 C 0.76776 0.25527 0.31588 0.0
H642 H 0.79496 0.24625 0.32135 0.0
H643 H 0.73303 0.28876 0.37239 0.0
O644 O 0.78714 0.43669 0.29226 0.0
C645 C 0.7398 0.39673 0.35178 0.0
Co646 Co 0.85582 0.54199 0.56459 0.0
Co647 Co 0.92322 0.53835 0.59498 0.0
C648 C 0.87234 0.60265 0.59378 0.0
O649 O 0.85361 0.58933 0.57888 0.0
O650 O 0.89941 0.58581 0.60166 0.0
C651 C 0.80463 0.57062 0.53475 0.0
O652 O 0.81517 0.6024 0.54198 0.0
C653 C 0.99138 0.56564 0.61274 0.0
C654 C 0.01385 0.51731 0.62886 0.0
C655 C 0.02039 0.55377 0.6248 0.0
N656 N 0.9685 0.53753 0.60976 0.0
N657 N 0.98206 0.50869 0.61946 0.0
C658 C 0.98547 0.60308 0.60418 0.0
H659 H 0.96986 0.60173 0.58926 0.0
H660 H 0.01187 0.61713 0.60159 0.0
H661 H 0.96941 0.6191 0.61569 0.0
C662 C 0.91308 0.52618 0.53326 0.0
N663 N 0.90244 0.53342 0.55307 0.0
N664 N 0.93099 0.53246 0.56558 0.0
C665 C 0.96078 0.52464 0.55402 0.0
C666 C 0.95034 0.52047 0.53321 0.0
C667 C 0.88781 0.52352 0.5149 0.0
H668 H 0.87438 0.55022 0.51245 0.0
H669 H 0.90246 0.51563 0.50035 0.0
H670 H 0.86627 0.50318 0.51834 0.0
O671 O 0.84278 0.50401 0.58539 0.0
O672 O 0.89171 0.49816 0.60573 0.0
H673 H 0.99756 0.49988 0.57583 0.0
H674 H 0.01773 0.51051 0.55059 0.0
C675 C 0.99825 0.51987 0.56278 0.0
H676 H 0.00771 0.5463 0.56917 0.0
H677 H 0.96957 0.48317 0.61972 0.0
O678 O 0.8186 0.54157 0.54206 0.0
C679 C 0.85936 0.48892 0.60069 0.0
Co680 Co 0.71271 0.39856 0.68564 0.0
Co681 Co 0.71281 0.33264 0.65405 0.0
C682 C 0.65009 0.3854 0.65719 0.0
O683 O 0.6646 0.40323 0.67211 0.0
O684 O 0.66584 0.35822 0.64873 0.0
C685 C 0.68912 0.4451 0.7192 0.0
O686 O 0.65868 0.42658 0.71726 0.0
C687 C 0.68483 0.26398 0.63652 0.0
C688 C 0.72922 0.24808 0.61497 0.0
C689 C 0.69511 0.23764 0.62208 0.0
N690 N 0.71158 0.28894 0.63781 0.0
N691 N 0.73793 0.27935 0.62479 0.0
C692 C 0.65046 0.26522 0.6491 0.0
H693 H 0.65407 0.28262 0.6632 0.0
H694 H 0.64212 0.2373 0.65377 0.0
H695 H 0.62839 0.27707 0.63934 0.0
C696 C 0.72632 0.33769 0.71602 0.0
N697 N 0.71973 0.35044 0.6965 0.0
N698 N 0.71995 0.32281 0.68324 0.0
C699 C 0.72723 0.29189 0.69397 0.0
C700 C 0.7312 0.30041 0.71505 0.0
C701 C 0.73068 0.3607 0.73516 0.0
H702 H 0.75706 0.37522 0.73404 0.0
H703 H 0.7083 0.38075 0.73609 0.0
H704 H 0.7308 0.34399 0.74969 0.0
O705 O 0.75013 0.411 0.66437 0.0
O706 O 0.75344 0.36316 0.64316 0.0
H707 H 0.74862 0.25773 0.6696 0.0
H708 H 0.74612 0.23616 0.69517 0.0
C709 C 0.73234 0.25521 0.6842 0.0
H710 H 0.70534 0.24373 0.68008 0.0
H711 H 0.7619 0.29415 0.62262 0.0
O712 O 0.7161 0.43708 0.7076 0.0
C713 C 0.764 0.39483 0.64859 0.0
Co714 Co 0.85107 0.46039 0.93644 0.0
Co715 Co 0.91844 0.46063 0.90611 0.0
C716 C 0.86637 0.39747 0.90846 0.0
O717 O 0.84781 0.41205 0.92306 0.0
O718 O 0.89373 0.41334 0.90027 0.0
C719 C 0.80493 0.43613 0.96962 0.0
O720 O 0.82494 0.40658 0.96808 0.0
C721 C 0.98611 0.43187 0.88822 0.0
C722 C 0.0093 0.4801 0.87234 0.0
C723 C 0.01537 0.44355 0.87631 0.0
N724 N 0.96357 0.46025 0.89123 0.0
N725 N 0.97754 0.48899 0.88164 0.0
C726 C 0.97973 0.39445 0.8967 0.0
H727 H 0.96436 0.39592 0.9117 0.0
H728 H 0.00594 0.37994 0.89912 0.0
H729 H 0.96321 0.37881 0.88523 0.0
C730 C 0.91011 0.47554 0.96788 0.0
N731 N 0.89828 0.46836 0.94822 0.0
N732 N 0.92661 0.46759 0.93549 0.0
C733 C 0.95712 0.47407 0.94674 0.0
C734 C 0.94756 0.47928 0.96756 0.0
C735 C 0.88622 0.48109 0.98656 0.0
H736 H 0.86661 0.4584 0.98791 0.0
H737 H 0.9023 0.48277 0.00129 0.0
H738 H 0.87121 0.50701 0.98446 0.0
O739 O 0.8392 0.49732 0.91494 0.0
O740 O 0.88804 0.501 0.89449 0.0
H741 H 0.99507 0.49563 0.92449 0.0
H742 H 0.01491 0.48457 0.94974 0.0
C743 C 0.99465 0.47607 0.93775 0.0
H744 H 0.00224 0.44883 0.93169 0.0
H745 H 0.96541 0.51469 0.88147 0.0
O746 O 0.81176 0.46306 0.95774 0.0
C747 C 0.85595 0.51122 0.89937 0.0
Co748 Co 0.79378 0.60837 0.18718 0.0
Co749 Co 0.79028 0.67069 0.15347 0.0
C750 C 0.8559 0.6223 0.15802 0.0
O751 O 0.84165 0.60457 0.17307 0.0
O752 O 0.83932 0.64852 0.14908 0.0
C753 C 0.82163 0.55933 0.21864 0.0
O754 O 0.85365 0.56747 0.21074 0.0
C755 C 0.81474 0.73899 0.13449 0.0
C756 C 0.76941 0.75276 0.11309 0.0
C757 C 0.80336 0.76446 0.11983 0.0
N758 N 0.78885 0.71327 0.13628 0.0
N759 N 0.76187 0.72158 0.12337 0.0
C760 C 0.8494 0.73932 0.14684 0.0
H761 H 0.8464 0.72297 0.16141 0.0
H762 H 0.85735 0.76769 0.15074 0.0
H763 H 0.87144 0.72712 0.13721 0.0
C764 C 0.77783 0.66977 0.21564 0.0
N765 N 0.78444 0.65637 0.19633 0.0
N766 N 0.78192 0.68278 0.18241 0.0
C767 C 0.77307 0.7139 0.19255 0.0
C768 C 0.77041 0.70662 0.21394 0.0
C769 C 0.77774 0.64739 0.23528 0.0
H770 H 0.75723 0.62534 0.23378 0.0
H771 H 0.80482 0.63445 0.23729 0.0
H772 H 0.7714 0.66409 0.24934 0.0
O773 O 0.75561 0.5918 0.1673 0.0
O774 O 0.75295 0.63523 0.14295 0.0
H775 H 0.75013 0.74571 0.16759 0.0
H776 H 0.75224 0.76897 0.19268 0.0
C777 C 0.76651 0.74974 0.18204 0.0
H778 H 0.79303 0.76185 0.17751 0.0
H779 H 0.7383 0.70599 0.12162 0.0
O780 O 0.79307 0.57419 0.21127 0.0
C781 C 0.74245 0.60465 0.15032 0.0
Co782 Co 0.64439 0.53951 0.43898 0.0
Co783 Co 0.58163 0.53842 0.4052 0.0
C784 C 0.63297 0.6018 0.40942 0.0
O785 O 0.65002 0.58714 0.42465 0.0
O786 O 0.60582 0.58632 0.40072 0.0
C787 C 0.68879 0.56492 0.47313 0.0
O788 O 0.6706 0.59536 0.47032 0.0
C789 C 0.51424 0.56462 0.38576 0.0
C790 C 0.49663 0.51725 0.36695 0.0
C791 C 0.48716 0.55252 0.37236 0.0
N792 N 0.5388 0.5378 0.38819 0.0
N793 N 0.52826 0.50962 0.37678 0.0
C794 C 0.51614 0.60066 0.39662 0.0
H795 H 0.53305 0.59864 0.41104 0.0
H796 H 0.48838 0.61045 0.40061 0.0
H797 H 0.52884 0.62079 0.38587 0.0
C798 C 0.58101 0.52582 0.4674 0.0
N799 N 0.5956 0.53207 0.44829 0.0
N800 N 0.56945 0.53071 0.4341 0.0
C801 C 0.53765 0.52301 0.44383 0.0
C802 C 0.54405 0.51985 0.46519 0.0
C803 C 0.60209 0.52317 0.48737 0.0
H804 H 0.622 0.5457 0.48831 0.0
H805 H 0.58394 0.5242 0.5013 0.0
H806 H 0.61673 0.49678 0.48748 0.0
O807 O 0.65904 0.50136 0.41882 0.0
O808 O 0.61538 0.50006 0.39459 0.0
H809 H 0.50561 0.49964 0.41916 0.0
H810 H 0.48134 0.50567 0.44367 0.0
C811 C 0.50195 0.51768 0.43296 0.0
H812 H 0.49178 0.54442 0.4274 0.0
H813 H 0.5424 0.48501 0.37594 0.0
O814 O 0.68108 0.5373 0.46199 0.0
C815 C 0.64565 0.48871 0.40188 0.0
Co816 Co 0.29076 0.39457 0.18671 0.0
Co817 Co 0.29025 0.33167 0.15307 0.0
C818 C 0.35271 0.38555 0.15764 0.0
O819 O 0.34001 0.39812 0.1747 0.0
O820 O 0.33638 0.36005 0.14775 0.0
C821 C 0.3146 0.44641 0.21765 0.0
O822 O 0.34675 0.44155 0.20908 0.0
C823 C 0.31795 0.26621 0.13082 0.0
C824 C 0.26677 0.23897 0.12164 0.0
C825 C 0.30427 0.23523 0.12124 0.0
N826 N 0.28984 0.28744 0.13673 0.0
N827 N 0.25933 0.2711 0.13095 0.0
C828 C 0.35696 0.27431 0.13551 0.0
H829 H 0.36668 0.29537 0.12434 0.0
H830 H 0.35939 0.28536 0.15165 0.0
H831 H 0.37422 0.24966 0.13385 0.0
C832 C 0.27324 0.33413 0.21499 0.0
N833 N 0.28025 0.34722 0.19573 0.0
N834 N 0.28081 0.32052 0.18215 0.0
C835 C 0.27411 0.28909 0.19242 0.0
C836 C 0.26492 0.29681 0.21354 0.0
C837 C 0.28497 0.35491 0.23415 0.0
H838 H 0.30961 0.37098 0.23031 0.0
H839 H 0.29223 0.33674 0.2474 0.0
H840 H 0.26341 0.37443 0.23886 0.0
O841 O 0.25489 0.40993 0.16499 0.0
O842 O 0.25079 0.36385 0.14229 0.0
H843 H 0.26612 0.24108 0.17376 0.0
H844 H 0.29688 0.23483 0.1961 0.0
C845 C 0.28753 0.25372 0.18365 0.0
H846 H 0.31145 0.25888 0.17354 0.0
H847 H 0.23334 0.28135 0.13397 0.0
O848 O 0.28709 0.4292 0.21062 0.0
C849 C 0.24103 0.39531 0.14865 0.0
Co850 Co 0.35704 0.53975 0.93763 0.0
Co851 Co 0.42021 0.53893 0.90455 0.0
C852 C 0.37027 0.60311 0.90912 0.0
O853 O 0.35275 0.58785 0.92392 0.0
O854 O 0.39734 0.5877 0.90033 0.0
C855 C 0.3089 0.56709 0.96908 0.0
O856 O 0.32058 0.59906 0.96275 0.0
C857 C 0.48777 0.56506 0.88573 0.0
C858 C 0.5068 0.51748 0.86756 0.0
C859 C 0.51546 0.55303 0.87278 0.0
N860 N 0.46359 0.53792 0.88812 0.0
N861 N 0.47501 0.50957 0.87714 0.0
C862 C 0.48471 0.6015 0.89603 0.0
H863 H 0.46999 0.62028 0.88532 0.0
H864 H 0.46905 0.59929 0.91089 0.0
H865 H 0.51212 0.61307 0.89917 0.0
C866 C 0.41789 0.52279 0.96645 0.0
N867 N 0.40475 0.53044 0.94719 0.0
N868 N 0.43158 0.52983 0.93348 0.0
C869 C 0.46279 0.52173 0.94375 0.0
C870 C 0.45508 0.51707 0.96493 0.0
C871 C 0.39512 0.52072 0.98588 0.0
H872 H 0.38254 0.5477 0.98882 0.0
H873 H 0.41152 0.5126 0.99977 0.0
H874 H 0.37278 0.5008 0.98346 0.0
O875 O 0.3414 0.50264 0.91712 0.0
O876 O 0.38548 0.50177 0.89314 0.0
H877 H 0.49724 0.50042 0.91959 0.0
H878 H 0.5198 0.50689 0.94461 0.0
C879 C 0.49929 0.51824 0.93359 0.0
H880 H 0.50843 0.54557 0.92841 0.0
H881 H 0.46127 0.48472 0.87635 0.0
O882 O 0.32186 0.53822 0.96102 0.0
C883 C 0.35482 0.49063 0.90004 0.0
Co884 Co 0.21147 0.6076 0.68582 0.0
Co885 Co 0.21433 0.67398 0.6544 0.0
C886 C 0.1498 0.62287 0.65708 0.0
O887 O 0.16336 0.60485 0.67223 0.0
O888 O 0.16655 0.64962 0.64875 0.0
C889 C 0.18617 0.55956 0.7184 0.0
O890 O 0.15484 0.57573 0.7148 0.0
C891 C 0.18763 0.7395 0.63216 0.0
C892 C 0.23895 0.76802 0.62459 0.0
C893 C 0.20145 0.77077 0.62294 0.0
N894 N 0.2157 0.71903 0.63899 0.0
N895 N 0.2463 0.73613 0.6342 0.0
C896 C 0.14836 0.7301 0.6353 0.0
H897 H 0.14072 0.70827 0.62408 0.0
H898 H 0.14409 0.71945 0.65143 0.0
H899 H 0.13053 0.75406 0.63258 0.0
C900 C 0.22555 0.66743 0.71653 0.0
N901 N 0.22126 0.655 0.69678 0.0
N902 N 0.22251 0.68257 0.68371 0.0
C903 C 0.22801 0.71347 0.69469 0.0
C904 C 0.23463 0.70469 0.71594 0.0
C905 C 0.20857 0.6477 0.7347 0.0
H906 H 0.18449 0.6324 0.72919 0.0
H907 H 0.19893 0.66667 0.74704 0.0
H908 H 0.22809 0.628 0.74144 0.0
O909 O 0.24841 0.59409 0.66448 0.0
O910 O 0.25387 0.64202 0.64338 0.0
H911 H 0.23656 0.7623 0.67667 0.0
H912 H 0.20534 0.76778 0.69876 0.0
C913 C 0.21488 0.74926 0.68618 0.0
H914 H 0.19124 0.74451 0.67575 0.0
H915 H 0.27222 0.72642 0.63795 0.0
O916 O 0.21397 0.56912 0.70787 0.0
C917 C 0.26312 0.60988 0.6488 0.0
Co918 Co 0.14418 0.45523 0.43897 0.0
Co919 Co 0.08275 0.45593 0.40508 0.0
C920 C 0.13634 0.39318 0.41003 0.0
O921 O 0.14879 0.40636 0.42701 0.0
O922 O 0.11171 0.40997 0.39966 0.0
C923 C 0.18679 0.43208 0.47425 0.0
O924 O 0.16503 0.40366 0.47394 0.0
C925 C 0.01446 0.43 0.38547 0.0
C926 C 0.00112 0.4756 0.36416 0.0
C927 C 0.9891 0.44186 0.37087 0.0
N928 N 0.04047 0.45558 0.38737 0.0
N929 N 0.03237 0.48269 0.3745 0.0
C930 C 0.01341 0.39527 0.39766 0.0
H931 H 0.01907 0.3722 0.38689 0.0
H932 H 0.03391 0.3957 0.41048 0.0
H933 H 0.98578 0.39102 0.40431 0.0
C934 C 0.08123 0.47168 0.46708 0.0
N935 N 0.09573 0.46344 0.44821 0.0
N936 N 0.06957 0.46291 0.434 0.0
C937 C 0.03775 0.47135 0.44351 0.0
C938 C 0.04416 0.47681 0.46471 0.0
C939 C 0.10258 0.47788 0.48671 0.0
H940 H 0.12128 0.45479 0.48947 0.0
H941 H 0.08453 0.48106 0.50057 0.0
H942 H 0.11875 0.50314 0.48475 0.0
O943 O 0.15962 0.49184 0.41771 0.0
O944 O 0.11288 0.49768 0.39591 0.0
H945 H 0.00616 0.4914 0.41767 0.0
H946 H 0.98222 0.49079 0.44252 0.0
C947 C 0.00216 0.47614 0.43251 0.0
H948 H 0.99098 0.44888 0.42881 0.0
H949 H 0.04804 0.50623 0.37287 0.0
O950 O 0.1811 0.45812 0.46152 0.0
C951 C 0.14455 0.50707 0.40197 0.0
Co952 Co 0.28786 0.60111 0.31718 0.0
Co953 Co 0.28813 0.66721 0.34853 0.0
C954 C 0.35212 0.61604 0.34396 0.0
O955 O 0.33717 0.59793 0.3293 0.0
O956 O 0.33607 0.6426 0.35287 0.0
C957 C 0.30937 0.55224 0.28435 0.0
O958 O 0.34129 0.56773 0.28708 0.0
C959 C 0.31765 0.73223 0.3696 0.0
C960 C 0.26753 0.76206 0.37817 0.0
C961 C 0.30517 0.76401 0.37878 0.0
N962 N 0.28866 0.71222 0.36372 0.0
N963 N 0.25879 0.73007 0.3691 0.0
C964 C 0.35645 0.72202 0.36547 0.0
H965 H 0.36444 0.69985 0.37639 0.0
H966 H 0.35929 0.71158 0.3492 0.0
H967 H 0.375 0.74553 0.36783 0.0
C968 C 0.27118 0.66092 0.28687 0.0
N969 N 0.27738 0.64845 0.30645 0.0
N970 N 0.2777 0.67601 0.31951 0.0
C971 C 0.27163 0.70701 0.30871 0.0
C972 C 0.26282 0.69834 0.28773 0.0
C973 C 0.28517 0.64055 0.26811 0.0
H974 H 0.3091 0.62412 0.27269 0.0
H975 H 0.29417 0.65916 0.25542 0.0
H976 H 0.26403 0.6218 0.26214 0.0
O977 O 0.25274 0.58811 0.33944 0.0
O978 O 0.24907 0.63592 0.36069 0.0
H979 H 0.26553 0.75615 0.32674 0.0
H980 H 0.29513 0.76077 0.30386 0.0
C981 C 0.28616 0.74256 0.31673 0.0
H982 H 0.31052 0.73741 0.32652 0.0
H983 H 0.23242 0.72084 0.36607 0.0
O984 O 0.28259 0.56259 0.29545 0.0
C985 C 0.23922 0.60391 0.35544 0.0
Co986 Co 0.14357 0.53695 0.0609 0.0
Co987 Co 0.08345 0.53853 0.09615 0.0
C988 C 0.13683 0.60062 0.08931 0.0
O989 O 0.14961 0.586 0.0728 0.0
O990 O 0.11166 0.58506 0.09983 0.0
C991 C 0.18701 0.56061 0.02636 0.0
O992 O 0.16922 0.59123 0.02932 0.0
C993 C 0.01573 0.56671 0.11508 0.0
C994 C 0.00231 0.52396 0.13823 0.0
C995 C 0.99052 0.55696 0.13023 0.0
N996 N 0.04148 0.5407 0.11409 0.0
N997 N 0.03332 0.51527 0.12804 0.0
C998 C 0.01474 0.59986 0.1015 0.0
H999 H 0.02056 0.62416 0.11129 0.0
H1000 H 0.03511 0.59776 0.08868 0.0
H1001 H 0.98706 0.6034 0.09476 0.0
C1002 C 0.07939 0.52194 0.0341 0.0
N1003 N 0.09469 0.5293 0.05285 0.0
N1004 N 0.06924 0.5293 0.06746 0.0
C1005 C 0.03703 0.52104 0.05829 0.0
C1006 C 0.04251 0.5165 0.03689 0.0
C1007 C 0.09989 0.51816 0.01402 0.0
H1008 H 0.11755 0.54228 0.01174 0.0
H1009 H 0.08133 0.51545 1.00034 0.0
H1010 H 0.11714 0.49345 0.01507 0.0
O1011 O 0.15916 0.50069 0.08225 0.0
O1012 O 0.11588 0.49921 0.1067 0.0
H1013 H 0.00645 0.50261 0.08495 0.0
H1014 H 0.98223 0.50008 0.06019 0.0
C1015 C 0.00179 0.51626 0.06966 0.0
H1016 H 0.98972 0.54347 0.07249 0.0
H1017 H 0.04881 0.49182 0.13053 0.0
O1018 O 0.17902 0.53286 0.03737 0.0
C1019 C 0.1462 0.48814 0.09935 0.0
Co1020 Co 0.20542 0.39895 0.81428 0.0
Co1021 Co 0.21424 0.33228 0.84489 0.0
C1022 C 0.14632 0.3797 0.84344 0.0
O1023 O 0.15825 0.39964 0.82866 0.0
O1024 O 0.16485 0.35329 0.85084 0.0
C1025 C 0.17782 0.45296 0.78509 0.0
O1026 O 0.14619 0.44739 0.79418 0.0
C1027 C 0.1893 0.2636 0.86294 0.0
C1028 C 0.23786 0.24333 0.87977 0.0
C1029 C 0.20169 0.23552 0.87551 0.0
N1030 N 0.21677 0.28722 0.85987 0.0
N1031 N 0.24579 0.27493 0.86995 0.0
C1032 C 0.15184 0.26801 0.85407 0.0
H1033 H 0.13514 0.28414 0.86523 0.0
H1034 H 0.15302 0.28289 0.8389 0.0
H1035 H 0.1386 0.24111 0.85184 0.0
C1036 C 0.21963 0.34267 0.78294 0.0
N1037 N 0.21586 0.35265 0.8031 0.0
N1038 N 0.22263 0.325 0.81549 0.0
C1039 C 0.23329 0.29664 0.80352 0.0
C1040 C 0.23454 0.30736 0.78224 0.0
C1041 C 0.19881 0.36273 0.76632 0.0
H1042 H 0.17579 0.37741 0.77374 0.0
H1043 H 0.18661 0.34391 0.7547 0.0
H1044 H 0.21628 0.38356 0.75873 0.0
O1045 O 0.24369 0.41368 0.83468 0.0
O1046 O 0.2509 0.36683 0.85654 0.0
H1047 H 0.26261 0.25795 0.82224 0.0
H1048 H 0.23964 0.23806 0.79968 0.0
C1049 C 0.23792 0.25894 0.81219 0.0
H1050 H 0.21421 0.25219 0.8222 0.0
H1051 H 0.27088 0.28828 0.8703 0.0
O1052 O 0.2058 0.43557 0.79127 0.0
C1053 C 0.25903 0.39896 0.85053 0.0
Co1054 Co 0.35357 0.46021 0.56583 0.0
Co1055 Co 0.42071 0.46312 0.59602 0.0
C1056 C 0.37096 0.39837 0.59438 0.0
O1057 O 0.35227 0.41215 0.57959 0.0
O1058 O 0.39771 0.41523 0.60257 0.0
C1059 C 0.31257 0.43731 0.5297 0.0
O1060 O 0.34029 0.41531 0.5266 0.0
C1061 C 0.48913 0.43773 0.61455 0.0
C1062 C 0.51087 0.48771 0.62925 0.0
C1063 C 0.51804 0.4511 0.62614 0.0
N1064 N 0.46568 0.46514 0.61097 0.0
N1065 N 0.47874 0.49492 0.61988 0.0
C1066 C 0.48419 0.3997 0.60667 0.0
H1067 H 0.46852 0.39984 0.59176 0.0
H1068 H 0.51095 0.38622 0.60432 0.0
H1069 H 0.46857 0.38389 0.61849 0.0
C1070 C 0.41192 0.47834 0.53432 0.0
N1071 N 0.40036 0.46997 0.55388 0.0
N1072 N 0.42878 0.46927 0.56657 0.0
C1073 C 0.45917 0.47631 0.55532 0.0
C1074 C 0.44939 0.48212 0.53458 0.0
C1075 C 0.38782 0.48529 0.51585 0.0
H1076 H 0.36131 0.49588 0.52123 0.0
H1077 H 0.38374 0.45955 0.50707 0.0
H1078 H 0.40047 0.50526 0.50497 0.0
O1079 O 0.34026 0.49772 0.58668 0.0
O1080 O 0.38916 0.50321 0.60694 0.0
H1081 H 0.49707 0.4998 0.57693 0.0
H1082 H 0.51703 0.48639 0.55215 0.0
C1083 C 0.4967 0.47898 0.56433 0.0
H1084 H 0.50436 0.45241 0.57132 0.0
H1085 H 0.46582 0.52023 0.61945 0.0
O1086 O 0.31351 0.45923 0.5451 0.0
C1087 C 0.3569 0.5127 0.60194 0.0
C1088 C 0.15142 0.30565 0.37865 0.0
C1089 C 0.18705 0.29546 0.38515 0.0
C1090 C 0.19131 0.35244 0.40476 0.0
C1091 C 0.15345 0.35922 0.40152 0.0
N1092 N 0.09573 0.33474 0.38965 0.0
N1093 N 0.23693 0.30576 0.40922 0.0
C1094 C 0.13286 0.33357 0.38975 0.0
C1095 C 0.20571 0.31769 0.3998 0.0
N1096 N 0.13599 0.29066 0.36118 0.0
N1097 N 0.21436 0.37956 0.41104 0.0
H1098 H 0.2475 0.27974 0.40679 0.0
H1099 H 0.24971 0.32024 0.42124 0.0
H1100 H 0.20655 0.40676 0.41216 0.0
H1101 H 0.24248 0.37587 0.41212 0.0
H1102 H 0.11109 0.29953 0.35516 0.0
H1103 H 0.15003 0.27293 0.35129 0.0
H1104 H 0.0799 0.31488 0.38231 0.0
H1105 H 0.08099 0.35252 0.39912 0.0
C1106 C 0.92234 0.93061 0.62468 0.0
C1107 C 0.95435 0.9283 0.63713 0.0
C1108 C 0.92266 0.88864 0.66228 0.0
C1109 C 0.88992 0.89371 0.65083 0.0
N1110 N 0.8571 0.92104 0.62202 0.0
N1111 N 0.98538 0.90725 0.6682 0.0
C1112 C 0.88944 0.91477 0.63212 0.0
C1113 C 0.95469 0.9077 0.65602 0.0
N1114 N 0.92354 0.9478 0.60563 0.0
N1115 N 0.92311 0.86495 0.67887 0.0
H1116 H 0.00965 0.91983 0.66372 0.0
H1117 H 0.98646 0.89624 0.68325 0.0
H1118 H 0.90001 0.85073 0.68378 0.0
H1119 H 0.94665 0.85718 0.6868 0.0
H1120 H 0.90273 0.94659 0.59455 0.0
H1121 H 0.94643 0.96172 0.60028 0.0
H1122 H 0.85384 0.93987 0.60994 0.0
H1123 H 0.83264 0.90886 0.62648 0.0
C1124 C 0.33999 0.6388 0.88042 0.0
C1125 C 0.35617 0.638 0.90069 0.0
C1126 C 0.33587 0.70072 0.90714 0.0
C1127 C 0.32087 0.70187 0.8866 0.0
N1128 N 0.31495 0.67527 0.85216 0.0
N1129 N 0.37546 0.66951 0.93192 0.0
C1130 C 0.32495 0.6719 0.87276 0.0
C1131 C 0.35586 0.66942 0.91365 0.0
N1132 N 0.3371 0.60745 0.86892 0.0
N1133 N 0.33007 0.72915 0.9206 0.0
H1134 H 0.39053 0.64706 0.937 0.0
H1135 H 0.37937 0.69256 0.94115 0.0
H1136 H 0.31646 0.75288 0.91616 0.0
H1137 H 0.33663 0.72843 0.9365 0.0
H1138 H 0.32154 0.60534 0.85529 0.0
H1139 H 0.34785 0.58255 0.87377 0.0
H1140 H 0.32112 0.65598 0.84072 0.0
H1141 H 0.30313 0.69881 0.84607 0.0
C1142 C 0.61461 0.08478 0.13165 0.0
C1143 C 0.61385 0.10429 0.1509 0.0
C1144 C 0.5491 0.08971 0.15542 0.0
C1145 C 0.54962 0.07116 0.13586 0.0
N1146 N 0.58056 0.05552 0.10372 0.0
N1147 N 0.58017 0.13059 0.17954 0.0
C1148 C 0.5817 0.07016 0.12345 0.0
C1149 C 0.58098 0.10829 0.16235 0.0
N1150 N 0.64712 0.07869 0.12174 0.0
N1151 N 0.51839 0.08873 0.16756 0.0
H1152 H 0.60313 0.14442 0.185 0.0
H1153 H 0.55643 0.13768 0.18748 0.0
H1154 H 0.49418 0.07654 0.16263 0.0
H1155 H 0.51732 0.09806 0.18298 0.0
H1156 H 0.65028 0.06092 0.10914 0.0
H1157 H 0.67179 0.08949 0.12696 0.0
H1158 H 0.60165 0.05785 0.09287 0.0
H1159 H 0.55741 0.04307 0.09755 0.0
C1160 C 0.19209 0.64109 0.09474 0.0
C1161 C 0.15399 0.63488 0.09732 0.0
C1162 C 0.15143 0.68865 0.11997 0.0
C1163 C 0.18761 0.69817 0.11422 0.0
N1164 N 0.23841 0.68718 0.09089 0.0
N1165 N 0.096 0.66066 0.10767 0.0
C1166 C 0.20664 0.67568 0.09986 0.0
C1167 C 0.13312 0.66109 0.10848 0.0
N1168 N 0.21518 0.61362 0.08906 0.0
N1169 N 0.13517 0.70387 0.13712 0.0
H1170 H 0.08167 0.64321 0.09778 0.0
H1171 H 0.08006 0.68085 0.11463 0.0
H1172 H 0.14884 0.72133 0.14733 0.0
H1173 H 0.10973 0.69544 0.14256 0.0
H1174 H 0.24339 0.61697 0.08863 0.0
H1175 H 0.20714 0.58655 0.08765 0.0
H1176 H 0.25155 0.67243 0.07912 0.0
H1177 H 0.24908 0.71315 0.09338 0.0
C1178 C 0.55384 0.90953 0.35013 0.0
C1179 C 0.55383 0.92494 0.37058 0.0
C1180 C 0.61816 0.90853 0.37511 0.0
C1181 C 0.61799 0.8924 0.35482 0.0
N1182 N 0.58476 0.87122 0.32461 0.0
N1183 N 0.58318 0.93339 0.40409 0.0
C1184 C 0.58549 0.89103 0.34279 0.0
C1185 C 0.58512 0.92248 0.38358 0.0
N1186 N 0.52387 0.91341 0.33756 0.0
N1187 N 0.65031 0.91242 0.38577 0.0
H1188 H 0.55982 0.9449 0.41061 0.0
H1189 H 0.60362 0.92851 0.41507 0.0
H1190 H 0.67512 0.90253 0.3802 0.0
H1191 H 0.65305 0.92778 0.39941 0.0
H1192 H 0.52348 0.90673 0.32167 0.0
H1193 H 0.49967 0.92531 0.34273 0.0
H1194 H 0.56115 0.86605 0.31606 0.0
H1195 H 0.60747 0.85725 0.31892 0.0
C1196 C 0.32548 0.33026 0.63087 0.0
C1197 C 0.32634 0.29852 0.61817 0.0
C1198 C 0.36339 0.33071 0.59198 0.0
C1199 C 0.3587 0.36342 0.60349 0.0
N1200 N 0.33261 0.39578 0.63285 0.0
N1201 N 0.34408 0.26823 0.5862 0.0
C1202 C 0.33934 0.36355 0.62278 0.0
C1203 C 0.34503 0.29855 0.59866 0.0
N1204 N 0.31197 0.32839 0.65085 0.0
N1205 N 0.38595 0.33041 0.57489 0.0
H1206 H 0.33164 0.24398 0.59082 0.0
H1207 H 0.35357 0.26764 0.5708 0.0
H1208 H 0.39968 0.35361 0.56967 0.0
H1209 H 0.39346 0.30685 0.56692 0.0
H1210 H 0.31435 0.34937 0.66176 0.0
H1211 H 0.30098 0.30466 0.65717 0.0
H1212 H 0.31484 0.39829 0.6455 0.0
H1213 H 0.34276 0.42075 0.62767 0.0
C1214 C 0.9125 0.12232 0.8603 0.0
C1215 C 0.88757 0.10078 0.84857 0.0
C1216 C 0.93056 0.04985 0.85122 0.0
C1217 C 0.95144 0.06923 0.86625 0.0
N1218 N 0.95386 0.12119 0.88968 0.0
N1219 N 0.86947 0.03901 0.83923 0.0
C1220 C 0.94013 0.10478 0.87215 0.0
C1221 C 0.89558 0.06308 0.84567 0.0
N1222 N 0.91102 0.15939 0.85959 0.0
N1223 N 0.94397 0.01906 0.84203 0.0
H1224 H 0.84203 0.04573 0.83777 0.0
H1225 H 0.8742 0.01104 0.83838 0.0
H1226 H 0.9703 0.00952 0.84481 0.0
H1227 H 0.93045 0.00579 0.82982 0.0
H1228 H 0.93026 0.17583 0.86704 0.0
H1229 H 0.89398 0.17324 0.84924 0.0
H1230 H 0.94409 0.14611 0.89516 0.0
H1231 H 0.97148 0.10803 0.90004 0.0
C1232 C 0.82446 0.66886 0.63029 0.0
C1233 C 0.82619 0.70108 0.61803 0.0
C1234 C 0.86521 0.67025 0.59232 0.0
C1235 C 0.85988 0.6371 0.60329 0.0
N1236 N 0.83265 0.60337 0.63178 0.0
N1237 N 0.84642 0.73302 0.58708 0.0
C1238 C 0.83938 0.63605 0.62218 0.0
C1239 C 0.84634 0.70204 0.59901 0.0
N1240 N 0.80883 0.66978 0.64978 0.0
N1241 N 0.88886 0.67129 0.57573 0.0
H1242 H 0.83386 0.75713 0.59183 0.0
H1243 H 0.85703 0.73442 0.57194 0.0
H1244 H 0.90304 0.64835 0.57054 0.0
H1245 H 0.89677 0.69515 0.56818 0.0
H1246 H 0.81037 0.64846 0.66052 0.0
H1247 H 0.79649 0.69302 0.6559 0.0
H1248 H 0.81426 0.60007 0.64407 0.0
H1249 H 0.84374 0.57881 0.62661 0.0
C1250 C 0.06097 0.1068 0.37112 0.0
C1251 C 0.05142 0.06981 0.36746 0.0
C1252 C 0.10879 0.06165 0.34863 0.0
C1253 C 0.11556 0.09985 0.34943 0.0
N1254 N 0.0901 0.15948 0.35589 0.0
N1255 N 0.06191 0.01579 0.34661 0.0
C1256 C 0.08921 0.12276 0.35897 0.0
C1257 C 0.07386 0.04846 0.35418 0.0
N1258 N 0.04508 0.12619 0.38693 0.0
N1259 N 0.13597 0.03742 0.34416 0.0
H1260 H 0.03559 0.00613 0.34927 0.0
H1261 H 0.07666 0.00074 0.33562 0.0
H1262 H 0.16324 0.04481 0.34267 0.0
H1263 H 0.13214 0.00931 0.34493 0.0
H1264 H 0.05351 0.15243 0.3909 0.0
H1265 H 0.02688 0.11464 0.39757 0.0
H1266 H 0.06988 0.17682 0.36159 0.0
H1267 H 0.10819 0.17166 0.34539 0.0
C1268 C 0.65477 0.29844 0.09811 0.0
C1269 C 0.67383 0.29835 0.11753 0.0
C1270 C 0.6588 0.36283 0.12295 0.0
C1271 C 0.63976 0.36291 0.10353 0.0
N1272 N 0.61368 0.33039 0.07441 0.0
N1273 N 0.68981 0.32806 0.14999 0.0
C1274 C 0.63595 0.3305 0.09164 0.0
C1275 C 0.67438 0.32982 0.13047 0.0
N1276 N 0.65558 0.26814 0.08563 0.0
N1277 N 0.66364 0.39478 0.13365 0.0
H1278 H 0.7035 0.30511 0.15547 0.0
H1279 H 0.68728 0.34837 0.16129 0.0
H1280 H 0.65149 0.41924 0.12915 0.0
H1281 H 0.68121 0.39777 0.14636 0.0
H1282 H 0.64588 0.26746 0.07028 0.0
H1283 H 0.66782 0.24378 0.09026 0.0
H1284 H 0.60686 0.30708 0.066 0.0
H1285 H 0.59952 0.35348 0.06943 0.0
C1286 C 0.41926 0.89011 0.84096 0.0
C1287 C 0.38752 0.89215 0.8536 0.0
C1288 C 0.42244 0.92202 0.88159 0.0
C1289 C 0.45304 0.92373 0.86803 0.0
N1290 N 0.48105 0.91113 0.83459 0.0
N1291 N 0.35737 0.91286 0.88512 0.0
C1292 C 0.45166 0.90803 0.84767 0.0
C1293 C 0.38878 0.90842 0.87383 0.0
N1294 N 0.4185 0.87027 0.82279 0.0
N1295 N 0.42561 0.93341 0.90195 0.0
H1296 H 0.33216 0.90293 0.88024 0.0
H1297 H 0.35559 0.92863 0.89866 0.0
H1298 H 0.44927 0.94513 0.9079 0.0
H1299 H 0.40584 0.92887 0.91338 0.0
H1300 H 0.44145 0.86467 0.81376 0.0
H1301 H 0.39519 0.85676 0.81756 0.0
H1302 H 0.48054 0.90418 0.81875 0.0
H1303 H 0.50573 0.92259 0.83933 0.0
C1304 C 0.81507 0.3299 0.8743 0.0
C1305 C 0.82219 0.29706 0.88531 0.0
C1306 C 0.86358 0.32937 0.90919 0.0
C1307 C 0.85349 0.36266 0.89953 0.0
N1308 N 0.81842 0.39592 0.87387 0.0
N1309 N 0.85133 0.26482 0.9137 0.0
C1310 C 0.82913 0.36327 0.88222 0.0
C1311 C 0.84614 0.29654 0.90283 0.0
N1312 N 0.79522 0.32904 0.85612 0.0
N1313 N 0.8903 0.32925 0.92417 0.0
H1314 H 0.84002 0.24004 0.90905 0.0
H1315 H 0.86508 0.26323 0.92797 0.0
H1316 H 0.90327 0.35297 0.92924 0.0
H1317 H 0.90162 0.30568 0.93048 0.0
H1318 H 0.7925 0.35113 0.846 0.0
H1319 H 0.78333 0.30533 0.8503 0.0
H1320 H 0.7975 0.39871 0.86296 0.0
H1321 H 0.82909 0.42086 0.87875 0.0
C1322 C 0.45328 0.08836 0.65911 0.0
C1323 C 0.45397 0.07015 0.63944 0.0
C1324 C 0.38927 0.08408 0.63391 0.0
C1325 C 0.38881 0.10307 0.65334 0.0
N1326 N 0.42049 0.12823 0.68306 0.0
N1327 N 0.42453 0.05336 0.60702 0.0
C1328 C 0.42089 0.10657 0.66559 0.0
C1329 C 0.42251 0.06892 0.62649 0.0
N1330 N 0.48342 0.08753 0.67174 0.0
N1331 N 0.3575 0.07919 0.623 0.0
H1332 H 0.44751 0.03955 0.6017 0.0
H1333 H 0.4043 0.0556 0.59564 0.0
H1334 H 0.33288 0.09109 0.6274 0.0
H1335 H 0.35476 0.06175 0.61022 0.0
H1336 H 0.48373 0.09664 0.68721 0.0
H1337 H 0.50802 0.07577 0.66713 0.0
H1338 H 0.44362 0.13505 0.69165 0.0
H1339 H 0.39713 0.14175 0.68821 0.0
C1340 C 0.64809 0.66822 0.41268 0.0
C1341 C 0.64745 0.63606 0.40035 0.0
C1342 C 0.67757 0.66838 0.37139 0.0
C1343 C 0.68165 0.69929 0.38452 0.0
N1344 N 0.67324 0.72871 0.41799 0.0
N1345 N 0.66535 0.60373 0.36895 0.0
C1346 C 0.66747 0.69929 0.40526 0.0
C1347 C 0.66285 0.63573 0.37986 0.0
N1348 N 0.62921 0.66931 0.43119 0.0
N1349 N 0.68761 0.67033 0.35073 0.0
H1350 H 0.65479 0.57914 0.37439 0.0
H1351 H 0.68037 0.60076 0.35518 0.0
H1352 H 0.69994 0.69322 0.34418 0.0
H1353 H 0.68129 0.65039 0.33969 0.0
H1354 H 0.62546 0.69288 0.43999 0.0
H1355 H 0.61456 0.64709 0.43695 0.0
H1356 H 0.66746 0.72892 0.43399 0.0
H1357 H 0.68593 0.75249 0.4128 0.0
C1358 C 0.08079 0.92194 0.12293 0.0
C1359 C 0.04906 0.91991 0.1356 0.0
C1360 C 0.08156 0.88129 0.16097 0.0
C1361 C 0.11418 0.88677 0.14948 0.0
N1362 N 0.14628 0.91427 0.12046 0.0
N1363 N 0.01861 0.89911 0.1669 0.0
C1364 C 0.11411 0.9072 0.13054 0.0
C1365 C 0.04918 0.89972 0.15463 0.0
N1366 N 0.07901 0.93801 0.10358 0.0
N1367 N 0.08158 0.85792 0.1777 0.0
H1368 H 0.99405 0.911 0.16232 0.0
H1369 H 0.01789 0.88853 0.18206 0.0
H1370 H 0.10493 0.84413 0.18263 0.0
H1371 H 0.05819 0.8499 0.18569 0.0
H1372 H 0.09975 0.93658 0.09247 0.0
H1373 H 0.05564 0.9508 0.09799 0.0
H1374 H 0.14887 0.93267 0.10811 0.0
H1375 H 0.17123 0.90355 0.12527 0.0
C1376 C 0.64865 0.79849 0.89908 0.0
C1377 C 0.68042 0.79914 0.88635 0.0
C1378 C 0.68437 0.86529 0.89029 0.0
C1379 C 0.65103 0.86519 0.90166 0.0
N1380 N 0.59877 0.83246 0.91471 0.0
N1381 N 0.72305 0.8336 0.86553 0.0
C1382 C 0.63216 0.832 0.90522 0.0
C1383 C 0.69666 0.83269 0.88069 0.0
N1384 N 0.63538 0.76598 0.90621 0.0
N1385 N 0.70486 0.89628 0.88898 0.0
H1386 H 0.73212 0.81035 0.8577 0.0
H1387 H 0.73315 0.85768 0.85913 0.0
H1388 H 0.69709 0.92094 0.89565 0.0
H1389 H 0.73121 0.89677 0.88292 0.0
H1390 H 0.61472 0.76382 0.91735 0.0
H1391 H 0.64695 0.74098 0.90226 0.0
H1392 H 0.58178 0.8098 0.91553 0.0
H1393 H 0.58701 0.85614 0.92067 0.0
C1394 C 0.3831 0.44404 0.14559 0.0
C1395 C 0.38358 0.40517 0.14732 0.0
C1396 C 0.43648 0.40376 0.124 0.0
C1397 C 0.44116 0.44176 0.12626 0.0
N1398 N 0.40544 0.49707 0.12723 0.0
N1399 N 0.4155 0.34886 0.14064 0.0
C1400 C 0.41092 0.46211 0.13393 0.0
C1401 C 0.41142 0.38523 0.13706 0.0
N1402 N 0.35565 0.464 0.15446 0.0
N1403 N 0.45258 0.386 0.10766 0.0
H1404 H 0.39993 0.33497 0.15174 0.0
H1405 H 0.43721 0.33391 0.13452 0.0
H1406 H 0.46685 0.40011 0.09603 0.0
H1407 H 0.44759 0.35865 0.10432 0.0
H1408 H 0.35785 0.49177 0.15752 0.0
H1409 H 0.33082 0.45323 0.15925 0.0
H1410 H 0.38312 0.51297 0.13138 0.0
H1411 H 0.41885 0.508 0.11431 0.0
C1412 C 0.85724 0.16991 0.41066 0.0
C1413 C 0.85484 0.13766 0.39851 0.0
C1414 C 0.82263 0.17088 0.37067 0.0
C1415 C 0.82178 0.20218 0.38374 0.0
N1416 N 0.8363 0.23187 0.41644 0.0
N1417 N 0.83314 0.10581 0.36783 0.0
C1418 C 0.83872 0.20187 0.40379 0.0
C1419 C 0.83734 0.13778 0.37862 0.0
N1420 N 0.87798 0.17006 0.42852 0.0
N1421 N 0.80944 0.1729 0.35062 0.0
H1422 H 0.84405 0.0811 0.37292 0.0
H1423 H 0.8169 0.10305 0.35453 0.0
H1424 H 0.79675 0.19607 0.34465 0.0
H1425 H 0.81311 0.15262 0.3394 0.0
H1426 H 0.88393 0.1934 0.43712 0.0
H1427 H 0.89179 0.14705 0.43393 0.0
H1428 H 0.84423 0.23219 0.43213 0.0
H1429 H 0.82438 0.25625 0.41157 0.0
C1430 C 0.08405 0.57642 0.61944 0.0
C1431 C 0.05229 0.57506 0.63208 0.0
C1432 C 0.08256 0.6119 0.65912 0.0
C1433 C 0.1155 0.60956 0.64758 0.0
N1434 N 0.14922 0.58662 0.61782 0.0
N1435 N 0.02086 0.58966 0.66423 0.0
C1436 C 0.11662 0.59141 0.62789 0.0
C1437 C 0.05133 0.5925 0.65197 0.0
N1438 N 0.08299 0.56354 0.5993 0.0
N1439 N 0.08108 0.63335 0.67665 0.0
H1440 H 0.99703 0.57693 0.65915 0.0
H1441 H 0.01971 0.59804 0.67983 0.0
H1442 H 0.10353 0.64792 0.68218 0.0
H1443 H 0.05716 0.63916 0.68475 0.0
H1444 H 0.10382 0.56752 0.58845 0.0
H1445 H 0.05999 0.5512 0.59285 0.0
H1446 H 0.15259 0.56987 0.60478 0.0
H1447 H 0.17375 0.59724 0.62336 0.0
C1448 C 0.64348 0.20317 0.60479 0.0
C1449 C 0.67642 0.20304 0.61652 0.0
C1450 C 0.68167 0.13716 0.61174 0.0
C1451 C 0.64726 0.1366 0.60149 0.0
N1452 N 0.59279 0.16829 0.59076 0.0
N1453 N 0.72135 0.16896 0.63592 0.0
C1454 C 0.62716 0.16937 0.59898 0.0
C1455 C 0.69382 0.16971 0.62144 0.0
N1456 N 0.62892 0.23545 0.59816 0.0
N1457 N 0.7034 0.10695 0.61178 0.0
H1458 H 0.73026 0.19215 0.64387 0.0
H1459 H 0.73255 0.14489 0.64171 0.0
H1460 H 0.69605 0.0826 0.60462 0.0
H1461 H 0.73025 0.10713 0.6171 0.0
H1462 H 0.60717 0.23723 0.5877 0.0
H1463 H 0.64045 0.26063 0.60175 0.0
H1464 H 0.57524 0.19058 0.59074 0.0
H1465 H 0.58089 0.14441 0.58516 0.0
C1466 C 0.07867 0.38707 0.84188 0.0
C1467 C 0.11151 0.39009 0.85346 0.0
C1468 C 0.07896 0.42098 0.882 0.0
C1469 C 0.04735 0.42222 0.86921 0.0
N1470 N 0.0163 0.40751 0.83696 0.0
N1471 N 0.14424 0.41174 0.88391 0.0
C1472 C 0.04685 0.40525 0.84919 0.0
C1473 C 0.11194 0.40703 0.87352 0.0
N1474 N 0.07795 0.36623 0.82408 0.0
N1475 N 0.07737 0.4331 0.90228 0.0
H1476 H 0.16894 0.40127 0.87854 0.0
H1477 H 0.14717 0.428 0.89719 0.0
H1478 H 0.05402 0.44467 0.90876 0.0
H1479 H 0.09813 0.4292 0.91319 0.0
H1480 H 0.05428 0.36003 0.81583 0.0
H1481 H 0.10087 0.35247 0.8185 0.0
H1482 H 0.01535 0.39951 0.82129 0.0
H1483 H 0.99206 0.41926 0.84218 0.0
C1484 C 0.8047 0.83251 0.11892 0.0
C1485 C 0.82148 0.79902 0.11364 0.0
C1486 C 0.87093 0.83217 0.09595 0.0
C1487 C 0.85182 0.86532 0.0992 0.0
N1488 N 0.79712 0.89625 0.11068 0.0
N1489 N 0.86792 0.76615 0.09472 0.0
C1490 C 0.81767 0.86524 0.10973 0.0
C1491 C 0.85409 0.79857 0.10162 0.0
N1492 N 0.77721 0.83325 0.13342 0.0
N1493 N 0.90494 0.83274 0.08723 0.0
H1494 H 0.8561 0.74109 0.09832 0.0
H1495 H 0.88933 0.76412 0.08407 0.0
H1496 H 0.91707 0.85649 0.0816 0.0
H1497 H 0.92202 0.81011 0.08673 0.0
H1498 H 0.76659 0.85726 0.13961 0.0
H1499 H 0.76755 0.80993 0.14095 0.0
H1500 H 0.77033 0.89667 0.11607 0.0
H1501 H 0.80545 0.92102 0.10438 0.0
C1502 C 0.38633 0.57433 0.36783 0.0
C1503 C 0.38696 0.60264 0.35265 0.0
C1504 C 0.4536 0.59928 0.3509 0.0
C1505 C 0.453 0.57144 0.36639 0.0
N1506 N 0.42022 0.53773 0.39283 0.0
N1507 N 0.42033 0.6468 0.33242 0.0
C1508 C 0.41974 0.56052 0.37582 0.0
C1509 C 0.42041 0.61668 0.34505 0.0
N1510 N 0.35373 0.56004 0.37423 0.0
N1511 N 0.48566 0.60797 0.34118 0.0
H1512 H 0.39638 0.65961 0.32757 0.0
H1513 H 0.44381 0.66074 0.32802 0.0
H1514 H 0.51052 0.59616 0.34526 0.0
H1515 H 0.48745 0.62508 0.32818 0.0
H1516 H 0.35143 0.53644 0.38319 0.0
H1517 H 0.32859 0.57053 0.36952 0.0
H1518 H 0.39735 0.53186 0.40188 0.0
H1519 H 0.44417 0.52695 0.39907 0.0
C1520 C 0.32683 0.17183 0.12812 0.0
C1521 C 0.32457 0.20226 0.11443 0.0
C1522 C 0.35915 0.16879 0.08765 0.0
C1523 C 0.35762 0.13714 0.10043 0.0
N1524 N 0.33599 0.10682 0.1317 0.0
N1525 N 0.33624 0.22972 0.08073 0.0
C1526 C 0.3407 0.13825 0.12046 0.0
C1527 C 0.3403 0.20083 0.09409 0.0
N1528 N 0.31621 0.17519 0.1486 0.0
N1529 N 0.37938 0.16834 0.06962 0.0
H1530 H 0.32355 0.25396 0.08515 0.0
H1531 H 0.34334 0.22899 0.06491 0.0
H1532 H 0.39357 0.14532 0.06457 0.0
H1533 H 0.38464 0.19136 0.06058 0.0
H1534 H 0.32111 0.15545 0.16001 0.0
H1535 H 0.30523 0.1991 0.15465 0.0
H1536 H 0.31997 0.10512 0.14516 0.0
H1537 H 0.34562 0.08154 0.12672 0.0
C1538 C 0.61432 0.58339 0.87042 0.0
C1539 C 0.61335 0.60689 0.85273 0.0
C1540 C 0.54786 0.59605 0.84852 0.0
C1541 C 0.54872 0.573 0.86642 0.0
N1542 N 0.5805 0.54947 0.89666 0.0
N1543 N 0.57933 0.64095 0.82708 0.0
C1544 C 0.5813 0.5682 0.87809 0.0
C1545 C 0.58007 0.61488 0.84243 0.0
N1546 N 0.64707 0.57432 0.8793 0.0
N1547 N 0.51653 0.59896 0.837 0.0
H1548 H 0.6026 0.65505 0.8223 0.0
H1549 H 0.55552 0.65074 0.82023 0.0
H1550 H 0.49219 0.58637 0.84134 0.0
H1551 H 0.51499 0.61198 0.82251 0.0
H1552 H 0.65022 0.55395 0.89052 0.0
H1553 H 0.67178 0.58564 0.87452 0.0
H1554 H 0.60221 0.54856 0.90717 0.0
H1555 H 0.55709 0.53685 0.90238 0.0
C1556 C 0.16957 0.80495 0.594 0.0
C1557 C 0.18108 0.80309 0.61526 0.0
C1558 C 0.16089 0.86594 0.62103 0.0
C1559 C 0.14761 0.8673 0.60006 0.0
N1560 N 0.13339 0.83645 0.56768 0.0
N1561 N 0.18141 0.82866 0.65012 0.0
C1562 C 0.15029 0.83629 0.58683 0.0
C1563 C 0.17469 0.83261 0.62912 0.0
N1564 N 0.17785 0.77711 0.58058 0.0
N1565 N 0.16237 0.89698 0.63288 0.0
H1566 H 0.19236 0.805 0.65657 0.0
H1567 H 0.17329 0.84757 0.66137 0.0
H1568 H 0.15296 0.92218 0.62767 0.0
H1569 H 0.17586 0.89858 0.64725 0.0
H1570 H 0.17404 0.77849 0.56439 0.0
H1571 H 0.19078 0.75326 0.58547 0.0
H1572 H 0.13117 0.81359 0.55811 0.0
H1573 H 0.11873 0.85879 0.56208 0.0
C1574 C 0.92058 0.38708 0.33879 0.0
C1575 C 0.88839 0.39339 0.35053 0.0
C1576 C 0.92312 0.42761 0.37691 0.0
C1577 C 0.95481 0.42375 0.36432 0.0
N1578 N 0.98437 0.40173 0.33301 0.0
N1579 N 0.85765 0.42011 0.38022 0.0
C1580 C 0.95376 0.40385 0.3452 0.0
C1581 C 0.88937 0.4134 0.3696 0.0
N1582 N 0.9194 0.36423 0.32183 0.0
N1583 N 0.92539 0.44498 0.39586 0.0
H1584 H 0.83274 0.40866 0.37596 0.0
H1585 H 0.85532 0.43823 0.39269 0.0
H1586 H 0.94883 0.45831 0.40091 0.0
H1587 H 0.90482 0.44494 0.40709 0.0
H1588 H 0.94228 0.35553 0.31361 0.0
H1589 H 0.89544 0.35164 0.3168 0.0
H1590 H 0.98473 0.3913 0.31782 0.0
H1591 H 0.00952 0.4122 0.33768 0.0
C1592 C 0.34171 0.79665 0.40632 0.0
C1593 C 0.32682 0.79585 0.38576 0.0
C1594 C 0.34529 0.85918 0.37998 0.0
C1595 C 0.36084 0.85984 0.4004 0.0
N1596 N 0.38052 0.82796 0.43144 0.0
N1597 N 0.32154 0.82277 0.35136 0.0
C1598 C 0.3611 0.8281 0.4131 0.0
C1599 C 0.33095 0.826 0.37205 0.0
N1600 N 0.33624 0.76783 0.41956 0.0
N1601 N 0.34221 0.89069 0.36863 0.0
H1602 H 0.31045 0.79904 0.34508 0.0
H1603 H 0.32762 0.84233 0.34005 0.0
H1604 H 0.35233 0.91567 0.37376 0.0
H1605 H 0.32715 0.89278 0.35482 0.0
H1606 H 0.34269 0.76828 0.43548 0.0
H1607 H 0.32315 0.74395 0.41489 0.0
H1608 H 0.38475 0.80479 0.44053 0.0
H1609 H 0.39515 0.85057 0.43669 0.0
C1610 C 0.89085 0.58571 0.13175 0.0
C1611 C 0.89102 0.60937 0.14938 0.0
C1612 C 0.95677 0.60009 0.15389 0.0
C1613 C 0.95663 0.57642 0.13625 0.0
N1614 N 0.92539 0.54977 0.10672 0.0
N1615 N 0.9238 0.64421 0.17516 0.0
C1616 C 0.92419 0.57029 0.12463 0.0
C1617 C 0.92396 0.6181 0.15985 0.0
N1618 N 0.85847 0.57685 0.12238 0.0
N1619 N 0.98814 0.60456 0.16521 0.0
H1620 H 0.90011 0.65772 0.17981 0.0
H1621 H 0.94717 0.65454 0.18222 0.0
H1622 H 0.01295 0.59302 0.16079 0.0
H1623 H 0.98947 0.6181 0.17954 0.0
H1624 H 0.85546 0.55632 0.11126 0.0
H1625 H 0.83379 0.58904 0.12643 0.0
H1626 H 0.90402 0.54771 0.09605 0.0
H1627 H 0.94873 0.53608 0.10181 0.0
C1628 C 0.1618 0.13981 0.87845 0.0
C1629 C 0.14594 0.1406 0.89882 0.0
C1630 C 0.16196 0.20525 0.9024 0.0
C1631 C 0.18099 0.20337 0.88304 0.0
N1632 N 0.20097 0.16939 0.85281 0.0
N1633 N 0.13181 0.17284 0.93076 0.0
C1634 C 0.18117 0.17086 0.87101 0.0
C1635 C 0.14615 0.17306 0.91092 0.0
N1636 N 0.15853 0.10926 0.86628 0.0
N1637 N 0.15848 0.23803 0.9124 0.0
H1638 H 0.1179 0.15052 0.93698 0.0
H1639 H 0.13505 0.19398 0.94147 0.0
H1640 H 0.17035 0.26196 0.90682 0.0
H1641 H 0.14179 0.24227 0.92538 0.0
H1642 H 0.16574 0.10814 0.85049 0.0
H1643 H 0.14644 0.08525 0.87153 0.0
H1644 H 0.206 0.14557 0.84447 0.0
H1645 H 0.21438 0.19193 0.84651 0.0
C1646 C 0.58417 0.43653 0.62188 0.0
C1647 C 0.55115 0.43141 0.63305 0.0
C1648 C 0.5821 0.39052 0.6578 0.0
C1649 C 0.61574 0.3991 0.64807 0.0
N1650 N 0.6501 0.43222 0.62202 0.0
N1651 N 0.51821 0.40579 0.6623 0.0
C1652 C 0.61713 0.42246 0.63032 0.0
C1653 C 0.54988 0.40875 0.65112 0.0
N1654 N 0.58381 0.45411 0.60293 0.0
N1655 N 0.58101 0.3645 0.67316 0.0
H1656 H 0.49394 0.41818 0.65765 0.0
H1657 H 0.51638 0.39304 0.67687 0.0
H1658 H 0.60427 0.35098 0.67848 0.0
H1659 H 0.55697 0.35422 0.67948 0.0
H1660 H 0.60617 0.45534 0.5929 0.0
H1661 H 0.56018 0.46499 0.59633 0.0
H1662 H 0.65328 0.45253 0.61076 0.0
H1663 H 0.67482 0.42169 0.62737 0.0
C1664 C 0.1813 0.03381 0.24235 0.0
C1665 C 0.18344 0.02589 0.26414 0.0
C1666 C 0.17902 0.96077 0.25641 0.0
C1667 C 0.18222 0.96857 0.23464 0.0
N1668 N 0.19064 0.0124 0.20679 0.0
N1669 N 0.1883 0.98173 0.2921 0.0
C1670 C 0.18492 0.00509 0.22759 0.0
C1671 C 0.18374 0.98929 0.27122 0.0
N1672 N 0.174 0.06842 0.23573 0.0
N1673 N 0.16987 0.92654 0.26292 0.0
H1674 H 0.19019 0.00189 0.30359 0.0
H1675 H 0.19288 0.95555 0.29783 0.0
H1676 H 0.16428 0.90551 0.25249 0.0
H1677 H 0.16386 0.92004 0.27847 0.0
H1678 H 0.16878 0.07516 0.22012 0.0
H1679 H 0.16895 0.08967 0.24609 0.0
H1680 H 0.19702 0.03828 0.20117 0.0
H1681 H 0.19165 0.99222 0.19528 0.0
C1682 C 0.24444 0.91471 0.51544 0.0
C1683 C 0.21636 0.94102 0.51284 0.0
C1684 C 0.24258 0.9594 0.47906 0.0
C1685 C 0.27175 0.93467 0.48219 0.0
N1686 N 0.30484 0.89447 0.50533 0.0
N1687 N 0.19453 0.99481 0.4949 0.0
C1688 C 0.27388 0.91376 0.50091 0.0
C1689 C 0.21731 0.96547 0.49555 0.0
N1690 N 0.24326 0.89088 0.53194 0.0
N1691 N 0.23777 0.97571 0.45993 0.0
H1692 H 0.17613 0.0007 0.50678 0.0
H1693 H 0.19669 0.01548 0.48375 0.0
H1694 H 0.25491 0.9712 0.44713 0.0
H1695 H 0.21469 0.99081 0.45606 0.0
H1696 H 0.25998 0.86804 0.53307 0.0
H1697 H 0.22446 0.89291 0.54416 0.0
H1698 H 0.3097 0.88184 0.5197 0.0
H1699 H 0.32737 0.89383 0.49536 0.0
C1700 C 0.34228 0.02775 0.75188 0.0
C1701 C 0.30869 0.03895 0.74286 0.0
C1702 C 0.27878 0.98684 0.75963 0.0
C1703 C 0.31126 0.97892 0.77098 0.0
N1704 N 0.37016 0.00116 0.78251 0.0
N1705 N 0.24283 0.03404 0.74346 0.0
C1706 C 0.34195 0.00212 0.76851 0.0
C1707 C 0.27626 0.02 0.7483 0.0
N1708 N 0.37474 0.03983 0.74403 0.0
N1709 N 0.25076 0.96242 0.75873 0.0
H1710 H 0.23927 0.05911 0.73617 0.0
H1711 H 0.2186 0.02273 0.74897 0.0
H1712 H 0.25139 0.93703 0.7659 0.0
H1713 H 0.22839 0.96585 0.74882 0.0
H1714 H 0.39974 0.02979 0.74926 0.0
H1715 H 0.37681 0.05601 0.73063 0.0
H1716 H 0.39165 0.01971 0.78201 0.0
H1717 H 0.36974 0.98537 0.79612 0.0
C1718 C 0.25319 0.0909 0.01827 0.0
C1719 C 0.28164 0.06506 0.01546 0.0
C1720 C 0.25701 0.04879 0.98103 0.0
C1721 C 0.22712 0.07248 0.98444 0.0
N1722 N 0.19264 0.11059 0.00806 0.0
N1723 N 0.304 0.01214 0.99688 0.0
C1724 C 0.22408 0.0922 0.00352 0.0
C1725 C 0.28147 0.04166 0.99773 0.0
N1726 N 0.25368 0.11385 0.03518 0.0
N1727 N 0.26315 0.03438 0.96154 0.0
H1728 H 0.32102 0.00479 0.00918 0.0
H1729 H 0.30245 0.99246 0.98513 0.0
H1730 H 0.24679 0.04009 0.94855 0.0
H1731 H 0.28672 0.02003 0.95771 0.0
H1732 H 0.23652 0.13631 0.03658 0.0
H1733 H 0.27233 0.11144 0.04746 0.0
H1734 H 0.18724 0.12219 0.02265 0.0
H1735 H 0.17039 0.11152 0.99789 0.0
C1736 C 0.84713 0.98316 0.74491 0.0
C1737 C 0.81352 0.9687 0.73758 0.0
C1738 C 0.78216 0.02171 0.75225 0.0
C1739 C 0.8147 0.03269 0.7625 0.0
N1740 N 0.87602 0.0162 0.77305 0.0
N1741 N 0.74748 0.9708 0.73945 0.0
C1742 C 0.84667 0.01126 0.76016 0.0
C1743 C 0.78052 0.98692 0.74274 0.0
N1744 N 0.87955 0.97172 0.73669 0.0
N1745 N 0.75312 0.0448 0.75078 0.0
H1746 H 0.74448 0.94457 0.7336 0.0
H1747 H 0.72313 0.98195 0.7449 0.0
H1748 H 0.75376 0.07133 0.75641 0.0
H1749 H 0.73017 0.03902 0.74172 0.0
H1750 H 0.90431 0.98392 0.74057 0.0
H1751 H 0.88141 0.95366 0.72412 0.0
H1752 H 0.89857 0.99892 0.77281 0.0
H1753 H 0.87606 0.03431 0.78564 0.0
C1754 C 0.7593 0.02707 0.49199 0.0
C1755 C 0.77711 0.06006 0.4863 0.0
C1756 C 0.7382 0.09307 0.51108 0.0
C1757 C 0.71719 0.06114 0.51452 0.0
N1758 N 0.70328 0.99952 0.50361 0.0
N1759 N 0.77486 0.12599 0.48605 0.0
C1760 C 0.72641 0.02863 0.50364 0.0
C1761 C 0.76407 0.09356 0.49454 0.0
N1762 N 0.77415 0.99399 0.48718 0.0
N1763 N 0.73502 0.12243 0.52413 0.0
H1764 H 0.7914 0.1278 0.47278 0.0
H1765 H 0.76354 0.15085 0.49054 0.0
H1766 H 0.71855 0.12248 0.53746 0.0
H1767 H 0.75221 0.14497 0.52315 0.0
H1768 H 0.76407 0.96957 0.49318 0.0
H1769 H 0.79851 0.99077 0.47914 0.0
H1770 H 0.70707 0.97684 0.49401 0.0
H1771 H 0.67835 0.99958 0.51128 0.0
C1772 C 0.72115 0.02112 0.24861 0.0
C1773 C 0.68806 0.03095 0.23847 0.0
C1774 C 0.6565 0.98387 0.25874 0.0
C1775 C 0.69041 0.97018 0.26609 0.0
N1776 N 0.75643 0.97235 0.26355 0.0
N1777 N 0.62604 0.01379 0.22996 0.0
C1778 C 0.72319 0.98777 0.25978 0.0
C1779 C 0.65618 0.0101 0.24238 0.0
N1780 N 0.75041 0.04407 0.24845 0.0
N1781 N 0.62453 0.97343 0.26793 0.0
H1782 H 0.62531 0.03046 0.21672 0.0
H1783 H 0.60341 0.99678 0.23132 0.0
H1784 H 0.62341 0.95678 0.28118 0.0
H1785 H 0.59955 0.98517 0.26406 0.0
H1786 H 0.77364 0.03962 0.25752 0.0
H1787 H 0.74999 0.06945 0.24129 0.0
H1788 H 0.7805 0.98248 0.25711 0.0
H1789 H 0.75998 0.94753 0.27108 0.0
C1790 C 0.73912 0.98113 0.99358 0.0
C1791 C 0.72294 0.94785 0.98693 0.0
C1792 C 0.76418 0.91458 0.01032 0.0
C1793 C 0.78367 0.94715 0.01459 0.0
N1794 N 0.79394 0.01044 0.00572 0.0
N1795 N 0.72886 0.88226 0.98444 0.0
C1796 C 0.77239 0.98018 0.00493 0.0
C1797 C 0.73798 0.91433 0.99396 0.0
N1798 N 0.72238 0.01374 0.98993 0.0
N1799 N 0.76915 0.88422 0.02241 0.0
H1800 H 0.71228 0.88086 0.97117 0.0
H1801 H 0.74163 0.85767 0.98806 0.0
H1802 H 0.78587 0.88377 0.03564 0.0
H1803 H 0.75309 0.86096 0.02081 0.0
H1804 H 0.73131 0.03809 0.99659 0.0
H1805 H 0.69764 0.01631 0.98218 0.0
H1806 H 0.78862 0.03387 0.99699 0.0
H1807 H 0.8191 0.01089 0.01316 0.0
C1808 C 0.7098 0.49885 0.76867 0.0
C1809 C 0.6857 0.52878 0.76645 0.0
C1810 C 0.66544 0.50512 0.73235 0.0
C1811 C 0.69092 0.47612 0.73418 0.0
N1812 N 0.74502 0.45253 0.75114 0.0
N1813 N 0.64672 0.56504 0.7442 0.0
C1814 C 0.71563 0.47528 0.75135 0.0
C1815 C 0.66513 0.53323 0.74773 0.0
N1816 N 0.72569 0.49161 0.78766 0.0
N1817 N 0.64175 0.50604 0.71577 0.0
H1818 H 0.64654 0.58661 0.75484 0.0
H1819 H 0.6344 0.57152 0.72994 0.0
H1820 H 0.64358 0.48835 0.703 0.0
H1821 H 0.61939 0.52346 0.71506 0.0
H1822 H 0.74025 0.46782 0.79071 0.0
H1823 H 0.72117 0.50727 0.80106 0.0
H1824 H 0.76558 0.4534 0.76242 0.0
H1825 H 0.7514 0.43602 0.73844 0.0
C1826 C 0.77495 0.46294 0.00165 0.0
C1827 C 0.77447 0.43735 0.98494 0.0
C1828 C 0.71933 0.40973 0.99988 0.0
C1829 C 0.72383 0.43137 0.01816 0.0
N1830 N 0.76071 0.47337 0.03818 0.0
N1831 N 0.74626 0.38565 0.96803 0.0
C1832 C 0.75291 0.45661 0.01953 0.0
C1833 C 0.74675 0.41036 0.98409 0.0
N1834 N 0.79563 0.49375 1.00044 0.0
N1835 N 0.68805 0.39009 0.99705 0.0
H1836 H 0.76336 0.38748 0.95499 0.0
H1837 H 0.72985 0.36251 0.96806 0.0
H1838 H 0.66683 0.38978 0.00793 0.0
H1839 H 0.68154 0.37686 0.98309 0.0
H1840 H 0.79434 0.51456 0.01154 0.0
H1841 H 0.81029 0.50092 0.98714 0.0
H1842 H 0.78402 0.48906 0.0405 0.0
H1843 H 0.74626 0.46839 0.05199 0.0
C1844 C 0.83826 0.53502 0.2543 0.0
C1845 C 0.81851 0.53126 0.23526 0.0
C1846 C 0.78931 0.47618 0.24885 0.0
C1847 C 0.81314 0.47663 0.26643 0.0
N1848 N 0.86092 0.50644 0.28606 0.0
N1849 N 0.78066 0.49425 0.2127 0.0
C1850 C 0.83794 0.50601 0.26915 0.0
C1851 C 0.79537 0.50084 0.23208 0.0
N1852 N 0.85588 0.56696 0.25864 0.0
N1853 N 0.7605 0.45273 0.24817 0.0
H1854 H 0.7855 0.51072 0.19965 0.0
H1855 H 0.76689 0.47029 0.20899 0.0
H1856 H 0.75399 0.43531 0.26045 0.0
H1857 H 0.74047 0.45376 0.23658 0.0
H1858 H 0.86753 0.57287 0.27316 0.0
H1859 H 0.85606 0.58908 0.24836 0.0
H1860 H 0.88282 0.52432 0.28743 0.0
H1861 H 0.85905 0.48789 0.29843 0.0
C1862 C 0.75013 0.58772 0.48473 0.0
C1863 C 0.72003 0.564 0.48797 0.0
C1864 C 0.74445 0.54673 0.52237 0.0
C1865 C 0.77567 0.56849 0.5186 0.0
N1866 N 0.81195 0.60384 0.49443 0.0
N1867 N 0.69422 0.5135 0.50729 0.0
C1868 C 0.77954 0.58752 0.49931 0.0
C1869 C 0.719 0.54109 0.50594 0.0
N1870 N 0.75089 0.61013 0.46757 0.0
N1871 N 0.73798 0.53295 0.54199 0.0
H1872 H 0.67588 0.50759 0.49537 0.0
H1873 H 0.69471 0.49387 0.51912 0.0
H1874 H 0.75513 0.53756 0.55477 0.0
H1875 H 0.71364 0.52026 0.54615 0.0
H1876 H 0.76941 0.6314 0.46584 0.0
H1877 H 0.73197 0.60857 0.45538 0.0
H1878 H 0.81784 0.61466 0.4797 0.0
H1879 H 0.83439 0.60372 0.50446 0.0
C1880 C 0.33057 0.49197 0.2705 0.0
C1881 C 0.30579 0.52164 0.2692 0.0
C1882 C 0.28618 0.50128 0.23434 0.0
C1883 C 0.3106 0.47146 0.23569 0.0
N1884 N 0.35012 0.4336 0.25669 0.0
N1885 N 0.25175 0.54703 0.25295 0.0
C1886 C 0.33117 0.4654 0.25425 0.0
C1887 C 0.28085 0.52389 0.25215 0.0
N1888 N 0.35342 0.48906 0.2874 0.0
N1889 N 0.26958 0.50939 0.21566 0.0
H1890 H 0.24567 0.56308 0.2659 0.0
H1891 H 0.23102 0.54707 0.24176 0.0
H1892 H 0.27328 0.4941 0.20203 0.0
H1893 H 0.25497 0.53331 0.21311 0.0
H1894 H 0.37564 0.47147 0.28793 0.0
H1895 H 0.35076 0.50511 0.30083 0.0
H1896 H 0.36237 0.42565 0.27071 0.0
H1897 H 0.35122 0.41346 0.24519 0.0
C1898 C 0.24629 0.54558 0.97831 0.0
C1899 C 0.27833 0.56468 0.98411 0.0
C1900 C 0.25031 0.58152 0.01767 0.0
C1901 C 0.21934 0.56012 0.01243 0.0
N1902 N 0.19201 0.51463 0.99004 0.0
N1903 N 0.31382 0.59519 0.01069 0.0
C1904 C 0.21868 0.5398 0.9935 0.0
C1905 C 0.28118 0.58124 0.00417 0.0
N1906 N 0.2412 0.53468 0.95797 0.0
N1907 N 0.25036 0.60196 0.03562 0.0
H1908 H 0.33715 0.59506 0.00136 0.0
H1909 H 0.31876 0.60404 0.02597 0.0
H1910 H 0.22972 0.60062 0.04683 0.0
H1911 H 0.26996 0.62164 0.03894 0.0
H1912 H 0.21666 0.52417 0.95242 0.0
H1913 H 0.26 0.53965 0.94603 0.0
H1914 H 0.19238 0.49644 0.97749 0.0
H1915 H 0.17164 0.50927 0.0009 0.0
C1916 C 0.21221 0.53115 0.75136 0.0
C1917 C 0.18798 0.52928 0.73395 0.0
C1918 C 0.1606 0.47379 0.7488 0.0
C1919 C 0.18103 0.47914 0.76748 0.0
N1920 N 0.22195 0.51629 0.78797 0.0
N1921 N 0.13998 0.49786 0.71538 0.0
C1922 C 0.20583 0.5086 0.76911 0.0
C1923 C 0.16237 0.5003 0.73251 0.0
N1924 N 0.24173 0.55378 0.75098 0.0
N1925 N 0.14076 0.44256 0.74623 0.0
H1926 H 0.14359 0.51353 0.70187 0.0
H1927 H 0.11721 0.48101 0.71472 0.0
H1928 H 0.13848 0.42262 0.75779 0.0
H1929 H 0.12873 0.43489 0.7321 0.0
H1930 H 0.26205 0.55334 0.76241 0.0
H1931 H 0.24857 0.56998 0.73821 0.0
H1932 H 0.23687 0.53994 0.79074 0.0
H1933 H 0.21744 0.50101 0.80154 0.0
C1934 C 0.26712 0.40218 0.50796 0.0
C1935 C 0.28009 0.43611 0.51569 0.0
C1936 C 0.22778 0.46622 0.49924 0.0
C1937 C 0.21852 0.43336 0.48876 0.0
N1938 N 0.23721 0.37238 0.47898 0.0
N1939 N 0.27627 0.50213 0.51393 0.0
C1940 C 0.24041 0.40193 0.49188 0.0
C1941 C 0.26148 0.46867 0.51 0.0
N1942 N 0.27867 0.3701 0.51656 0.0
N1943 N 0.20402 0.4948 0.49974 0.0
H1944 H 0.30147 0.50597 0.52098 0.0
H1945 H 0.26518 0.52617 0.50799 0.0
H1946 H 0.17834 0.49386 0.49292 0.0
H1947 H 0.2082 0.51781 0.50902 0.0
H1948 H 0.2675 0.34502 0.51237 0.0
H1949 H 0.29566 0.36875 0.52965 0.0
H1950 H 0.25494 0.35022 0.47978 0.0
H1951 H 0.22013 0.37185 0.4659 0.0
C1952 C 0.33788 0.0323 0.36463 0.0
C1953 C 0.3382 0.03474 0.38694 0.0
C1954 C 0.28831 0.07906 0.38523 0.0
C1955 C 0.29055 0.07946 0.36292 0.0
N1956 N 0.32587 0.0642 0.33211 0.0
N1957 N 0.32129 0.06953 0.41763 0.0
C1958 C 0.318 0.05853 0.35283 0.0
C1959 C 0.31587 0.06109 0.39697 0.0
N1960 N 0.35438 0.00388 0.35456 0.0
N1961 N 0.25886 0.09356 0.39535 0.0
H1962 H 0.34243 0.05834 0.4265 0.0
H1963 H 0.3076 0.09075 0.42512 0.0
H1964 H 0.2364 0.10443 0.38756 0.0
H1965 H 0.25481 0.09075 0.41148 0.0
H1966 H 0.35157 0.99936 0.33848 0.0
H1967 H 0.36742 0.98262 0.36234 0.0
H1968 H 0.3478 0.05174 0.32459 0.0
H1969 H 0.31333 0.08446 0.32318 0.0
C1970 C 0.22771 0.04905 0.63081 0.0
C1971 C 0.21604 0.0841 0.63739 0.0
C1972 C 0.158 0.07523 0.61878 0.0
C1973 C 0.16857 0.03896 0.61401 0.0
N1974 N 0.21022 0.98885 0.61935 0.0
N1975 N 0.16858 0.12924 0.63999 0.0
C1976 C 0.20252 0.02519 0.6211 0.0
C1977 C 0.18077 0.09697 0.63195 0.0
N1978 N 0.26336 0.03893 0.63314 0.0
N1979 N 0.12682 0.08916 0.61022 0.0
H1980 H 0.18461 0.14586 0.64954 0.0
H1981 H 0.14183 0.13831 0.63849 0.0
H1982 H 0.10944 0.07381 0.60075 0.0
H1983 H 0.11951 0.1165 0.61123 0.0
H1984 H 0.27427 0.01547 0.62644 0.0
H1985 H 0.28301 0.05563 0.63998 0.0
H1986 H 0.23268 0.97663 0.62646 0.0
H1987 H 0.1924 0.97011 0.61259 0.0
C1988 C 0.15627 0.93143 0.88613 0.0
C1989 C 0.16761 0.96766 0.89036 0.0
C1990 C 0.22725 0.95479 0.87489 0.0
C1991 C 0.2149 0.91983 0.86863 0.0
N1992 N 0.16576 0.87651 0.86557 0.0
N1993 N 0.21043 0.01637 0.88392 0.0
C1994 C 0.17886 0.90846 0.87355 0.0
C1995 C 0.20211 0.98006 0.88332 0.0
N1996 N 0.12459 0.91865 0.89464 0.0
N1997 N 0.26342 0.96349 0.87356 0.0
H1998 H 0.19227 0.03617 0.88925 0.0
H1999 H 0.23373 0.02725 0.87699 0.0
H2000 H 0.28316 0.94535 0.86816 0.0
H2001 H 0.27435 0.98722 0.87995 0.0
H2002 H 0.11678 0.89141 0.89402 0.0
H2003 H 0.10736 0.93485 0.90371 0.0
H2004 H 0.13859 0.86863 0.86674 0.0
H2005 H 0.18144 0.85913 0.85629 0.0
C2006 C 0.31613 0.93604 0.14772 0.0
C2007 C 0.28974 0.91442 0.13718 0.0
C2008 C 0.31587 0.93396 0.10357 0.0
C2009 C 0.33687 0.96093 0.11403 0.0
N2010 N 0.3502 0.99214 0.14674 0.0
N2011 N 0.25998 0.89949 0.10425 0.0
C2012 C 0.33542 0.96315 0.13633 0.0
C2013 C 0.28843 0.91494 0.11485 0.0
N2014 N 0.32353 0.93025 0.16848 0.0
N2015 N 0.32252 0.92585 0.08299 0.0
H2016 H 0.23769 0.88755 0.11167 0.0
H2017 H 0.25649 0.90237 0.08808 0.0
H2018 H 0.34371 0.93772 0.07449 0.0
H2019 H 0.30986 0.90426 0.07525 0.0
H2020 H 0.34473 0.94338 0.17632 0.0
H2021 H 0.31153 0.9093 0.17713 0.0
H2022 H 0.34655 0.99625 0.16281 0.0
H2023 H 0.36233 0.0142 0.13922 0.0
C2024 C 0.65915 0.92499 0.61764 0.0
C2025 C 0.66753 0.96254 0.61559 0.0
C2026 C 0.72615 0.95273 0.63278 0.0
C2027 C 0.71647 0.91604 0.63704 0.0
N2028 N 0.67107 0.86845 0.63627 0.0
N2029 N 0.70378 0.01357 0.62681 0.0
C2030 C 0.68222 0.90233 0.63016 0.0
C2031 C 0.69953 0.97681 0.62481 0.0
N2032 N 0.62969 0.91093 0.60736 0.0
N2033 N 0.7612 0.96441 0.63555 0.0
H2034 H 0.68328 0.0318 0.62261 0.0
H2035 H 0.72529 0.02543 0.63503 0.0
H2036 H 0.78226 0.94725 0.64035 0.0
H2037 H 0.77015 0.99005 0.63078 0.0
H2038 H 0.62432 0.88313 0.6064 0.0
H2039 H 0.61193 0.92704 0.59854 0.0
H2040 H 0.64494 0.85848 0.63351 0.0
H2041 H 0.68693 0.85136 0.64563 0.0
C2042 C 0.82213 0.93204 0.35383 0.0
C2043 C 0.79584 0.91051 0.36453 0.0
C2044 C 0.82208 0.93078 0.39794 0.0
C2045 C 0.84209 0.95828 0.38732 0.0
N2046 N 0.85646 0.98808 0.35432 0.0
N2047 N 0.76726 0.89466 0.39769 0.0
C2048 C 0.84131 0.95955 0.36499 0.0
C2049 C 0.79506 0.91084 0.38687 0.0
N2050 N 0.82913 0.92598 0.33305 0.0
N2051 N 0.82899 0.92355 0.41861 0.0
H2052 H 0.7453 0.88176 0.39052 0.0
H2053 H 0.76397 0.8976 0.41386 0.0
H2054 H 0.84963 0.93665 0.42698 0.0
H2055 H 0.81719 0.90172 0.42659 0.0
H2056 H 0.85019 0.93894 0.325 0.0
H2057 H 0.81678 0.90499 0.32461 0.0
H2058 H 0.853 0.99178 0.33821 0.0
H2059 H 0.86925 0.00998 0.36161 0.0
C2060 C 0.77913 0.04687 0.13547 0.0
C2061 C 0.78792 0.08401 0.13912 0.0
C2062 C 0.84513 0.07569 0.11955 0.0
C2063 C 0.83751 0.03794 0.1179 0.0
N2064 N 0.80277 0.98635 0.1298 0.0
N2065 N 0.83234 0.13248 0.13768 0.0
C2066 C 0.80619 0.02318 0.12759 0.0
C2067 C 0.8218 0.09821 0.13197 0.0
N2068 N 0.7444 0.03445 0.13849 0.0
N2069 N 0.8741 0.09008 0.10896 0.0
H2070 H 0.81633 0.14943 0.14702 0.0
H2071 H 0.85818 0.14293 0.13466 0.0
H2072 H 0.89217 0.07404 0.10033 0.0
H2073 H 0.87881 0.11796 0.10765 0.0
H2074 H 0.73607 0.00838 0.13415 0.0
H2075 H 0.72289 0.05129 0.14297 0.0
H2076 H 0.78181 0.97419 0.13834 0.0
H2077 H 0.82337 0.96841 0.12533 0.0
C2078 C 0.65742 0.07508 0.88145 0.0
C2079 C 0.66503 0.03733 0.88304 0.0
C2080 C 0.72218 0.04587 0.86414 0.0
C2081 C 0.71343 0.08309 0.86071 0.0
N2082 N 0.66903 0.13156 0.86275 0.0
N2083 N 0.6983 0.98554 0.87013 0.0
C2084 C 0.67996 0.09739 0.86844 0.0
C2085 C 0.69543 0.02236 0.87254 0.0
N2086 N 0.62927 0.08967 0.89266 0.0
N2087 N 0.75668 0.03321 0.86059 0.0
H2088 H 0.67773 0.96782 0.87496 0.0
H2089 H 0.71855 0.97327 0.86109 0.0
H2090 H 0.7782 0.04998 0.85604 0.0
H2091 H 0.76493 0.00698 0.86467 0.0
H2092 H 0.62479 0.11758 0.89398 0.0
H2093 H 0.61173 0.07378 0.90174 0.0
H2094 H 0.6434 0.14207 0.8663 0.0
H2095 H 0.68426 0.14825 0.85283 0.0
C2096 C 0.81563 0.56617 0.8971 0.0
C2097 C 0.83662 0.53928 0.88663 0.0
C2098 C 0.81602 0.56437 0.85296 0.0
C2099 C 0.7894 0.58566 0.86353 0.0
N2100 N 0.7594 0.59994 0.89651 0.0
N2101 N 0.85088 0.50871 0.85386 0.0
C2102 C 0.78808 0.58502 0.88587 0.0
C2103 C 0.83555 0.53735 0.86432 0.0
N2104 N 0.82221 0.5741 0.91772 0.0
N2105 N 0.82327 0.57034 0.8322 0.0
H2106 H 0.86352 0.48688 0.86134 0.0
H2107 H 0.84744 0.50468 0.83777 0.0
H2108 H 0.81094 0.59117 0.8236 0.0
H2109 H 0.84458 0.55749 0.82431 0.0
H2110 H 0.80951 0.59562 0.9255 0.0
H2111 H 0.84336 0.56208 0.92621 0.0
H2112 H 0.75605 0.59694 0.91268 0.0
H2113 H 0.73677 0.61137 0.88917 0.0
C2114 C 0.70365 0.52161 0.1225 0.0
C2115 C 0.67003 0.53521 0.11475 0.0
C2116 C 0.68199 0.5938 0.13215 0.0
C2117 C 0.71732 0.58133 0.13783 0.0
N2118 N 0.76452 0.53577 0.13433 0.0
N2119 N 0.62887 0.58564 0.10983 0.0
C2120 C 0.72889 0.54587 0.1319 0.0
C2121 C 0.65954 0.5717 0.11898 0.0
N2122 N 0.71106 0.48513 0.12158 0.0
N2123 N 0.66938 0.6261 0.13995 0.0
H2124 H 0.61181 0.57023 0.10021 0.0
H2125 H 0.62188 0.61311 0.11043 0.0
H2126 H 0.6849 0.64278 0.14973 0.0
H2127 H 0.64258 0.63488 0.1382 0.0
H2128 H 0.73329 0.47323 0.12911 0.0
H2129 H 0.69314 0.46613 0.11516 0.0
H2130 H 0.77523 0.51185 0.12806 0.0
H2131 H 0.78436 0.5528 0.14068 0.0
C2132 C 0.65743 0.42868 0.38371 0.0
C2133 C 0.66883 0.4645 0.38891 0.0
C2134 C 0.72796 0.45337 0.37234 0.0
C2135 C 0.71544 0.41892 0.36526 0.0
N2136 N 0.66661 0.37543 0.36169 0.0
N2137 N 0.71175 0.51374 0.38404 0.0
C2138 C 0.67971 0.40689 0.37031 0.0
C2139 C 0.70321 0.47762 0.38208 0.0
N2140 N 0.62596 0.41512 0.39209 0.0
N2141 N 0.76395 0.46251 0.3705 0.0
H2142 H 0.69425 0.53286 0.39072 0.0
H2143 H 0.73465 0.52546 0.37714 0.0
H2144 H 0.78336 0.44543 0.36376 0.0
H2145 H 0.77528 0.48546 0.37757 0.0
H2146 H 0.61808 0.38799 0.39072 0.0
H2147 H 0.60902 0.43041 0.40185 0.0
H2148 H 0.63956 0.36718 0.36295 0.0
H2149 H 0.68213 0.35889 0.35183 0.0
C2150 C 0.81769 0.43479 0.60249 0.0
C2151 C 0.8395 0.46083 0.61314 0.0
C2152 C 0.81958 0.4346 0.64662 0.0
C2153 C 0.79218 0.41436 0.63605 0.0
N2154 N 0.76115 0.40144 0.60321 0.0
N2155 N 0.85525 0.4897 0.64622 0.0
C2156 C 0.79024 0.41579 0.61374 0.0
C2157 C 0.8392 0.46176 0.63548 0.0
N2158 N 0.82343 0.42774 0.58168 0.0
N2159 N 0.82732 0.4276 0.66723 0.0
H2160 H 0.86781 0.51178 0.63897 0.0
H2161 H 0.85242 0.493 0.6624 0.0
H2162 H 0.81474 0.4067 0.67564 0.0
H2163 H 0.84915 0.43963 0.67508 0.0
H2164 H 0.81014 0.4068 0.5737 0.0
H2165 H 0.84446 0.43984 0.57314 0.0
H2166 H 0.75724 0.40516 0.58713 0.0
H2167 H 0.73886 0.38953 0.61062 0.0
C2168 C 0.15738 0.42855 0.11827 0.0
C2169 C 0.16952 0.46377 0.11222 0.0
C2170 C 0.22956 0.45107 0.12725 0.0
C2171 C 0.21638 0.41766 0.13541 0.0
N2172 N 0.16635 0.37628 0.14112 0.0
N2173 N 0.21423 0.51175 0.11567 0.0
C2174 C 0.17987 0.40674 0.13156 0.0
C2175 C 0.2048 0.47594 0.11804 0.0
N2176 N 0.12505 0.41549 0.11076 0.0
N2177 N 0.26607 0.45847 0.12748 0.0
H2178 H 0.19632 0.53142 0.10992 0.0
H2179 H 0.23834 0.52266 0.12159 0.0
H2180 H 0.28538 0.44007 0.13313 0.0
H2181 H 0.27747 0.48091 0.11992 0.0
H2182 H 0.1165 0.38869 0.11282 0.0
H2183 H 0.10804 0.43065 0.10095 0.0
H2184 H 0.13893 0.36904 0.14072 0.0
H2185 H 0.18208 0.35969 0.15086 0.0
C2186 C 0.34327 0.43163 0.88061 0.0
C2187 C 0.33156 0.46692 0.88673 0.0
C2188 C 0.27147 0.4553 0.87139 0.0
C2189 C 0.28413 0.42152 0.8634 0.0
N2190 N 0.33391 0.37984 0.85753 0.0
N2191 N 0.28758 0.51559 0.88331 0.0
C2192 C 0.32057 0.41022 0.86724 0.0
C2193 C 0.29653 0.47969 0.88078 0.0
N2194 N 0.37538 0.41806 0.88815 0.0
N2195 N 0.23513 0.46356 0.87088 0.0
H2196 H 0.30547 0.53485 0.88951 0.0
H2197 H 0.26387 0.52704 0.87718 0.0
H2198 H 0.21545 0.44606 0.86476 0.0
H2199 H 0.22406 0.48606 0.87854 0.0
H2200 H 0.38352 0.39113 0.8861 0.0
H2201 H 0.3926 0.43294 0.89796 0.0
H2202 H 0.36127 0.37236 0.85795 0.0
H2203 H 0.31822 0.36371 0.84752 0.0
C2204 C 0.28952 0.58791 0.6142 0.0
C2205 C 0.291 0.58944 0.63651 0.0
C2206 C 0.33673 0.54074 0.63646 0.0
C2207 C 0.33744 0.54137 0.61413 0.0
N2208 N 0.32289 0.57446 0.5824 0.0
N2209 N 0.32503 0.57546 0.668 0.0
C2210 C 0.31656 0.56789 0.60321 0.0
C2211 C 0.31757 0.5685 0.64736 0.0
N2212 N 0.26121 0.60325 0.60341 0.0
N2213 N 0.35204 0.51258 0.64739 0.0
H2214 H 0.31283 0.59677 0.67625 0.0
H2215 H 0.34633 0.56291 0.67607 0.0
H2216 H 0.3644 0.49026 0.64027 0.0
H2217 H 0.34886 0.50947 0.66357 0.0
H2218 H 0.25744 0.59946 0.58733 0.0
H2219 H 0.23934 0.61625 0.61062 0.0
H2220 H 0.31041 0.59568 0.57423 0.0
H2221 H 0.34367 0.56159 0.57404 0.0
C2222 C 0.21341 0.58158 0.39015 0.0
C2223 C 0.21135 0.58385 0.36789 0.0
C2224 C 0.16565 0.53533 0.36776 0.0
C2225 C 0.16519 0.53534 0.3901 0.0
N2226 N 0.18054 0.56751 0.42204 0.0
N2227 N 0.17609 0.57147 0.33664 0.0
C2228 C 0.18648 0.56137 0.40116 0.0
C2229 C 0.18433 0.56357 0.35707 0.0
N2230 N 0.24202 0.59652 0.40084 0.0
N2231 N 0.15072 0.50729 0.35657 0.0
H2232 H 0.18793 0.59321 0.32857 0.0
H2233 H 0.15448 0.55926 0.32867 0.0
H2234 H 0.13953 0.48415 0.36347 0.0
H2235 H 0.15355 0.50499 0.34033 0.0
H2236 H 0.24617 0.59224 0.41685 0.0
H2237 H 0.26366 0.60979 0.39354 0.0
H2238 H 0.19342 0.58837 0.43031 0.0
H2239 H 0.15968 0.5548 0.43041 0.0
C2240 C 0.24265 0.28522 0.2512 0.0
C2241 C 0.25165 0.27165 0.23104 0.0
C2242 C 0.2567 0.21122 0.24645 0.0
C2243 C 0.24815 0.2247 0.26673 0.0
N2244 N 0.2607 0.2787 0.28699 0.0
N2245 N 0.23633 0.21813 0.21112 0.0
C2246 C 0.24836 0.26304 0.26902 0.0
C2247 C 0.25044 0.23344 0.22875 0.0
N2248 N 0.22456 0.3173 0.25338 0.0
N2249 N 0.27478 0.1792 0.24392 0.0
H2250 H 0.2235 0.23407 0.19973 0.0
H2251 H 0.23313 0.18997 0.20965 0.0
H2252 H 0.28553 0.16499 0.25671 0.0
H2253 H 0.28251 0.16986 0.22907 0.0
H2254 H 0.21606 0.32679 0.26805 0.0
H2255 H 0.21459 0.33144 0.24035 0.0
H2256 H 0.26302 0.30692 0.28857 0.0
H2257 H 0.27369 0.2632 0.29853 0.0
C2258 C 0.00289 0.03257 0.51923 0.0
C2259 C 0.01611 0.99638 0.52104 0.0
C2260 C 0.98355 0.97907 0.48891 0.0
C2261 C 0.96891 0.01478 0.48768 0.0
N2262 N 0.95961 0.074 0.50303 0.0
N2263 N 0.01461 0.93363 0.51006 0.0
C2264 C 0.977 0.04106 0.50331 0.0
C2265 C 0.00516 0.96916 0.50657 0.0
N2266 N 0.01616 0.05908 0.53223 0.0
N2267 N 0.97733 0.95484 0.473 0.0
H2268 H 0.03051 0.92541 0.5228 0.0
H2269 H 0.00437 0.91188 0.50141 0.0
H2270 H 0.96031 0.96047 0.46028 0.0
H2271 H 0.99077 0.92999 0.47164 0.0
H2272 H 0.01084 0.08671 0.53024 0.0
H2273 H 0.03476 0.0538 0.54424 0.0
H2274 H 0.96116 0.09283 0.51521 0.0
H2275 H 0.94135 0.08154 0.49125 0.0
C2276 C 0.24433 0.79046 0.74906 0.0
C2277 C 0.2491 0.77684 0.7697 0.0
C2278 C 0.25048 0.71564 0.75486 0.0
C2279 C 0.24606 0.72929 0.73417 0.0
N2280 N 0.26726 0.7812 0.71443 0.0
N2281 N 0.22785 0.72516 0.78958 0.0
C2282 C 0.25071 0.76732 0.73176 0.0
C2283 C 0.24423 0.73887 0.77215 0.0
N2284 N 0.22876 0.82353 0.74571 0.0
N2285 N 0.2658 0.68246 0.7583 0.0
H2286 H 0.21591 0.74229 0.80071 0.0
H2287 H 0.22217 0.69741 0.79114 0.0
H2288 H 0.27744 0.66755 0.74606 0.0
H2289 H 0.27092 0.67282 0.77346 0.0
H2290 H 0.2234 0.83316 0.73057 0.0
H2291 H 0.21737 0.83843 0.75804 0.0
H2292 H 0.2727 0.80901 0.71293 0.0
H2293 H 0.27968 0.76422 0.70341 0.0
C2294 C 0.49333 0.03877 0.00472 0.0
C2295 C 0.4813 0.01034 0.01813 0.0
C2296 C 0.51688 0.96594 0.99789 0.0
C2297 C 0.52675 0.99393 0.9836 0.0
N2298 N 0.52163 0.05602 0.9717 0.0
N2299 N 0.47742 0.94641 0.02636 0.0
C2300 C 0.51414 0.0301 0.98652 0.0
C2301 C 0.492 0.97377 0.01444 0.0
N2302 N 0.48565 0.07415 0.00975 0.0
N2303 N 0.53177 0.93198 0.99581 0.0
H2304 H 0.45978 0.95117 0.0389 0.0
H2305 H 0.48071 0.91887 0.02301 0.0
H2306 H 0.5488 0.92476 0.98338 0.0
H2307 H 0.52922 0.91156 0.00706 0.0
H2308 H 0.49677 0.09647 0.00198 0.0
H2309 H 0.47018 0.08144 0.02284 0.0
H2310 H 0.50991 0.08182 0.97159 0.0
H2311 H 0.5378 0.05097 0.95855 0.0
C2312 C 0.24952 0.7321 0.23188 0.0
C2313 C 0.24725 0.77037 0.23421 0.0
C2314 C 0.24738 0.76133 0.27223 0.0
C2315 C 0.25032 0.72317 0.26986 0.0
N2316 N 0.22627 0.67703 0.24672 0.0
N2317 N 0.27027 0.81674 0.25769 0.0
C2318 C 0.24336 0.70952 0.24946 0.0
C2319 C 0.25365 0.78405 0.25472 0.0
N2320 N 0.26383 0.71714 0.2142 0.0
N2321 N 0.2325 0.77594 0.28986 0.0
H2322 H 0.2814 0.83136 0.24518 0.0
H2323 H 0.27672 0.82629 0.2727 0.0
H2324 H 0.22035 0.75945 0.30124 0.0
H2325 H 0.22814 0.80392 0.29139 0.0
H2326 H 0.26753 0.68906 0.21266 0.0
H2327 H 0.27673 0.73328 0.20293 0.0
H2328 H 0.21929 0.66743 0.2318 0.0
H2329 H 0.21534 0.66272 0.25942 0.0
C2330 C 0.49728 0.03385 0.51195 0.0
C2331 C 0.51766 0.0061 0.5221 0.0
C2332 C 0.49045 0.96004 0.49894 0.0
C2333 C 0.47261 0.98818 0.48764 0.0
N2334 N 0.46112 0.05196 0.48174 0.0
N2335 N 0.53613 0.9433 0.52481 0.0
C2336 C 0.47646 0.02513 0.49376 0.0
C2337 C 0.51485 0.96928 0.5155 0.0
N2338 N 0.49759 0.06846 0.51988 0.0
N2339 N 0.48334 0.92445 0.4941 0.0
H2340 H 0.55282 0.94867 0.53771 0.0
H2341 H 0.53887 0.91686 0.51915 0.0
H2342 H 0.46627 0.91674 0.48177 0.0
H2343 H 0.49221 0.9025 0.50309 0.0
H2344 H 0.48033 0.0891 0.51473 0.0
H2345 H 0.5134 0.07609 0.53276 0.0
H2346 H 0.4662 0.0796 0.48384 0.0
H2347 H 0.44502 0.04658 0.4686 0.0
C2348 C 0.27946 0.26043 0.76726 0.0
C2349 C 0.25078 0.28591 0.76404 0.0
C2350 C 0.23801 0.25964 0.72998 0.0
C2351 C 0.26337 0.23131 0.73361 0.0
N2352 N 0.31266 0.20725 0.75467 0.0
N2353 N 0.23906 0.32362 0.73408 0.0
C2354 C 0.28558 0.23238 0.75201 0.0
C2355 C 0.23863 0.2902 0.74319 0.0
N2356 N 0.30326 0.26604 0.78344 0.0
N2357 N 0.21451 0.25874 0.71341 0.0
H2358 H 0.25198 0.34538 0.7415 0.0
H2359 H 0.23304 0.32748 0.71819 0.0
H2360 H 0.21215 0.23625 0.70348 0.0
H2361 H 0.19556 0.27953 0.71093 0.0
H2362 H 0.32601 0.25003 0.7865 0.0
H2363 H 0.302 0.28935 0.79279 0.0
H2364 H 0.32708 0.2037 0.76858 0.0
H2365 H 0.32049 0.18912 0.74293 0.0
C2366 C 0.99812 0.97152 0.00897 0.0
C2367 C 0.98248 0.99899 0.02176 0.0
C2368 C 0.01492 0.04614 0.0018 0.0
C2369 C 0.02807 0.01891 0.98795 0.0
N2370 N 0.03013 0.95618 0.97681 0.0
N2371 N 0.97282 0.06239 0.0297 0.0
C2372 C 0.01914 0.98169 0.99113 0.0
C2373 C 0.9901 0.03633 0.01804 0.0
N2374 N 0.99342 0.93567 0.01418 0.0
N2375 N 0.02667 0.08128 0.99959 0.0
H2376 H 0.95554 0.05617 0.04221 0.0
H2377 H 0.97374 0.09009 0.0263 0.0
H2378 H 0.0439 0.08959 0.98747 0.0
H2379 H 0.02142 0.10177 0.01046 0.0
H2380 H 0.00728 0.91434 0.00698 0.0
H2381 H 0.97754 0.9272 0.02686 0.0
H2382 H 0.02099 0.92936 0.97677 0.0
H2383 H 0.04677 0.96228 0.96401 0.0
C2384 C 0.78705 0.76025 0.74787 0.0
C2385 C 0.75944 0.77251 0.73395 0.0
C2386 C 0.7128 0.74223 0.75534 0.0
C2387 C 0.74064 0.72806 0.76847 0.0
N2388 N 0.80435 0.71909 0.77601 0.0
N2389 N 0.69679 0.77227 0.72262 0.0
C2390 C 0.77783 0.73588 0.76442 0.0
C2391 C 0.72249 0.76259 0.73715 0.0
N2392 N 0.82201 0.77246 0.74545 0.0
N2393 N 0.67707 0.73704 0.76066 0.0
H2394 H 0.70266 0.78823 0.70949 0.0
H2395 H 0.67016 0.76255 0.7227 0.0
H2396 H 0.66901 0.72189 0.77373 0.0
H2397 H 0.65539 0.74983 0.75313 0.0
H2398 H 0.84254 0.76819 0.75647 0.0
H2399 H 0.83016 0.78896 0.73297 0.0
H2400 H 0.83197 0.72026 0.77239 0.0
H2401 H 0.79863 0.70172 0.78856 0.0
C2402 C 0.72144 0.27314 0.26082 0.0
C2403 C 0.75825 0.27575 0.26752 0.0
C2404 C 0.77744 0.23352 0.23979 0.0
C2405 C 0.74059 0.23052 0.23327 0.0
N2406 N 0.67786 0.24931 0.2355 0.0
N2407 N 0.82092 0.25671 0.26533 0.0
C2408 C 0.71264 0.25087 0.24323 0.0
C2409 C 0.7862 0.25551 0.2575 0.0
N2410 N 0.69488 0.29096 0.27188 0.0
N2411 N 0.8041 0.21633 0.2285 0.0
H2412 H 0.82849 0.27339 0.27785 0.0
H2413 H 0.84201 0.23991 0.26035 0.0
H2414 H 0.79858 0.19993 0.2155 0.0
H2415 H 0.83187 0.21987 0.23096 0.0
H2416 H 0.66709 0.28801 0.26925 0.0
H2417 H 0.70044 0.30765 0.28473 0.0
H2418 H 0.65657 0.26578 0.24054 0.0
H2419 H 0.67032 0.23249 0.22304 0.0
C2420 C 0.72194 0.23926 0.76321 0.0
C2421 C 0.75917 0.23329 0.76817 0.0
C2422 C 0.77809 0.27028 0.73791 0.0
C2423 C 0.74086 0.27587 0.73278 0.0
N2424 N 0.67718 0.26976 0.74116 0.0
N2425 N 0.82286 0.23985 0.75995 0.0
C2426 C 0.71271 0.26136 0.74558 0.0
C2427 C 0.78732 0.24812 0.7555 0.0
N2428 N 0.69555 0.22256 0.77494 0.0
N2429 N 0.80448 0.28728 0.72631 0.0
H2430 H 0.83069 0.22518 0.77324 0.0
H2431 H 0.8447 0.24594 0.75016 0.0
H2432 H 0.79879 0.30264 0.71292 0.0
H2433 H 0.83192 0.28792 0.73035 0.0
H2434 H 0.66804 0.22217 0.77106 0.0
H2435 H 0.7013 0.20738 0.7884 0.0
H2436 H 0.65534 0.26367 0.75093 0.0
H2437 H 0.66939 0.28459 0.72792 0.0
C2438 C 0.77995 0.76589 0.26279 0.0
C2439 C 0.74316 0.7762 0.26623 0.0
C2440 C 0.72405 0.74064 0.23546 0.0
C2441 C 0.76106 0.73205 0.23134 0.0
N2442 N 0.82479 0.74038 0.2389 0.0
N2443 N 0.68067 0.77786 0.25465 0.0
C2444 C 0.78919 0.74578 0.24442 0.0
C2445 C 0.71534 0.76492 0.25218 0.0
N2446 N 0.80595 0.77489 0.27728 0.0
N2447 N 0.69715 0.72455 0.22385 0.0
H2448 H 0.67292 0.79443 0.26718 0.0
H2449 H 0.66007 0.77424 0.2436 0.0
H2450 H 0.70249 0.70728 0.21121 0.0
H2451 H 0.66958 0.72622 0.22753 0.0
H2452 H 0.83242 0.76473 0.27704 0.0
H2453 H 0.80049 0.79077 0.29049 0.0
H2454 H 0.84668 0.75279 0.24642 0.0
H2455 H 0.83251 0.7256 0.22563 0.0
C2456 C 0.49708 0.53606 0.99411 0.0
C2457 C 0.48079 0.50776 0.98219 0.0
C2458 C 0.50986 0.46181 0.00469 0.0
C2459 C 0.52757 0.49007 0.01594 0.0
N2460 N 0.54231 0.55361 0.02005 0.0
N2461 N 0.47474 0.444 0.97401 0.0
C2462 C 0.52241 0.5271 0.01026 0.0
C2463 C 0.4881 0.47068 0.98687 0.0
N2464 N 0.48758 0.57148 0.99029 0.0
N2465 N 0.51315 0.42658 0.01142 0.0
H2466 H 0.45788 0.44944 0.96119 0.0
H2467 H 0.4822 0.41673 0.97509 0.0
H2468 H 0.52977 0.41898 0.02398 0.0
H2469 H 0.49777 0.4051 0.00551 0.0
H2470 H 0.49501 0.59314 0.99991 0.0
H2471 H 0.47017 0.57916 0.97811 0.0
H2472 H 0.54304 0.58063 0.01514 0.0
H2473 H 0.56026 0.54822 0.03237 0.0
C2474 C 0.99693 0.46184 0.49179 0.0
C2475 C 0.01797 0.48848 0.48117 0.0
C2476 C 0.99186 0.53653 0.50333 0.0
C2477 C 0.97338 0.50949 0.51513 0.0
N2478 N 0.96041 0.44637 0.52231 0.0
N2479 N 0.03796 0.55063 0.47722 0.0
C2480 C 0.97636 0.47211 0.50978 0.0
C2481 C 0.01605 0.52574 0.48701 0.0
N2482 N 0.99634 0.42681 0.4845 0.0
N2483 N 0.98557 0.57254 0.50745 0.0
H2484 H 0.05452 0.54411 0.46445 0.0
H2485 H 0.04132 0.57732 0.48236 0.0
H2486 H 0.9687 0.58138 0.51961 0.0
H2487 H 0.99496 0.59373 0.49805 0.0
H2488 H 0.97859 0.40691 0.49004 0.0
H2489 H 0.01184 0.41812 0.47172 0.0
H2490 H 0.96488 0.41852 0.52076 0.0
H2491 H 0.94446 0.45289 0.53534 0.0
C2492 C 0.99502 0.534 0.01043 0.0
C2493 C 0.01572 0.50633 0.0204 0.0
C2494 C 0.98976 0.46049 0.99665 0.0
C2495 C 0.97159 0.48865 0.98555 0.0
N2496 N 0.9594 0.55242 0.98008 0.0
N2497 N 0.03544 0.44383 0.02252 0.0
C2498 C 0.97477 0.52549 0.992 0.0
C2499 C 0.01375 0.46968 0.0134 0.0
N2500 N 0.9945 0.56833 0.01874 0.0
N2501 N 0.98327 0.42491 0.9915 0.0
H2502 H 0.05177 0.44909 0.03559 0.0
H2503 H 0.03884 0.41767 0.01655 0.0
H2504 H 0.96658 0.41722 0.979 0.0
H2505 H 0.99233 0.40291 1.00039 0.0
H2506 H 0.97702 0.58884 0.01365 0.0
H2507 H 0.00971 0.57573 0.03191 0.0
H2508 H 0.96392 0.58006 0.98253 0.0
H2509 H 0.94404 0.54716 0.96662 0.0
C2510 C 0.50237 0.5382 0.49451 0.0
C2511 C 0.51794 0.51015 0.48211 0.0
C2512 C 0.48633 0.46391 0.50313 0.0
C2513 C 0.47328 0.49179 0.51659 0.0
N2514 N 0.47117 0.55498 0.52671 0.0
N2515 N 0.52842 0.44639 0.47552 0.0
C2516 C 0.48193 0.52885 0.51273 0.0
C2517 C 0.51082 0.47299 0.48662 0.0
N2518 N 0.50654 0.57375 0.48855 0.0
N2519 N 0.47479 0.42883 0.50596 0.0
H2520 H 0.54569 0.45197 0.46292 0.0
H2521 H 0.52787 0.41894 0.47958 0.0
H2522 H 0.45796 0.42092 0.51835 0.0
H2523 H 0.47982 0.40794 0.4953 0.0
H2524 H 0.49286 0.59538 0.49556 0.0
H2525 H 0.52167 0.58152 0.47542 0.0
H2526 H 0.47999 0.5819 0.52617 0.0
H2527 H 0.45516 0.5493 0.53985 0.0
loop_
_geom_bond_atom_site_label_1
_geom_bond_atom_site_label_2
_geom_bond_distance
_geom_bond_site_symmetry_2
_ccdc_geom_bond_type
Co0 O3 1.970 . S
Co0 N17 1.989 . S
Co0 O25 1.967 . S
Co0 O32 1.920 . S
Co1 O4 1.966 . S
Co1 N10 2.022 . S
Co1 N18 1.993 . S
Co1 O26 1.941 . S
C2 O3 1.258 . S
C2 O4 1.263 . S
O3 Co0 1.970 . S
O3 C2 1.258 . S
O4 Co1 1.966 . S
O4 C2 1.263 . S
C5 O6 1.235 . S
C5 O32 1.289 . S
O6 C5 1.235 . S
C7 C9 1.400 . S
C7 N10 1.351 . S
C7 C12 1.501 . S
C8 C9 1.387 . S
C8 N11 1.341 . S
C9 C7 1.400 . S
C9 C8 1.387 . S
N10 Co1 2.022 . S
N10 C7 1.351 . S
N10 N11 1.365 . S
N11 C8 1.341 . S
N11 N10 1.365 . S
N11 H31 0.862 . S
C12 C7 1.501 . S
C12 H13 0.961 . S
C12 H14 0.961 . S
C12 H15 0.960 . S
H13 C12 0.961 . S
H14 C12 0.961 . S
H15 C12 0.960 . S
C16 N17 1.342 . S
C16 C20 1.401 . S
C16 C21 1.499 . S
N17 Co0 1.989 . S
N17 C16 1.342 . S
N17 N18 1.388 . S
N18 Co1 1.993 . S
N18 N17 1.388 . S
N18 C19 1.346 . S
C19 N18 1.346 . S
C19 C20 1.396 . S
C19 C29 1.510 . S
C20 C16 1.401 . S
C20 C19 1.396 . S
C21 C16 1.499 . S
C21 H22 0.959 . S
C21 H23 0.960 . S
C21 H24 0.961 . S
H22 C21 0.959 . S
H23 C21 0.960 . S
H24 C21 0.961 . S
O25 Co0 1.967 . S
O25 C33 1.258 . S
O26 Co1 1.941 . S
O26 C33 1.266 . S
H27 C29 0.959 . S
H28 C29 0.961 . S
C29 C19 1.510 . S
C29 H27 0.959 . S
C29 H28 0.961 . S
C29 H30 0.960 . S
H30 C29 0.960 . S
H31 N11 0.862 . S
O32 Co0 1.920 . S
O32 C5 1.289 . S
C33 O25 1.258 . S
C33 O26 1.266 . S
Co34 O37 1.970 . S
Co34 N51 1.989 . S
Co34 O59 1.966 1_565 S
Co34 O66 1.920 . S
Co35 O38 1.966 . S
Co35 N44 2.022 . S
Co35 N52 1.993 . S
Co35 O60 1.941 1_565 S
C36 O37 1.258 . S
C36 O38 1.263 . S
O37 Co34 1.970 . S
O37 C36 1.258 . S
O38 Co35 1.966 . S
O38 C36 1.263 . S
C39 O40 1.235 . S
C39 O66 1.289 . S
O40 C39 1.235 . S
C41 C43 1.400 1_455 S
C41 N44 1.351 . S
C41 C46 1.501 . S
C42 C43 1.387 . S
C42 N45 1.341 1_655 S
C43 C41 1.400 1_655 S
C43 C42 1.387 . S
N44 Co35 2.022 . S
N44 C41 1.351 . S
N44 N45 1.365 . S
N45 C42 1.341 1_455 S
N45 N44 1.365 . S
N45 H65 0.862 1_565 S
C46 C41 1.501 . S
C46 H47 0.961 . S
C46 H48 0.961 . S
C46 H49 0.960 . S
H47 C46 0.961 . S
H48 C46 0.961 . S
H49 C46 0.960 . S
C50 N51 1.342 . S
C50 C54 1.401 . S
C50 C55 1.499 . S
N51 Co34 1.989 . S
N51 C50 1.342 . S
N51 N52 1.388 . S
N52 Co35 1.993 . S
N52 N51 1.388 . S
N52 C53 1.346 . S
C53 N52 1.346 . S
C53 C54 1.396 . S
C53 C63 1.481 1_455 S
C54 C50 1.401 . S
C54 C53 1.396 . S
C55 C50 1.499 . S
C55 H56 0.959 . S
C55 H57 0.960 . S
C55 H58 0.961 1_565 S
H56 C55 0.959 . S
H57 C55 0.960 . S
H58 C55 0.961 1_545 S
O59 Co34 1.966 1_545 S
O59 C67 1.258 . S
O60 Co35 1.941 1_545 S
O60 C67 1.266 . S
H61 C63 0.973 1_545 S
H62 C63 0.978 . S
C63 C53 1.481 1_655 S
C63 H61 0.973 1_565 S
C63 H62 0.978 . S
C63 H64 0.959 1_655 S
H64 C63 0.959 1_455 S
H65 N45 0.862 1_545 S
O66 Co34 1.920 . S
O66 C39 1.289 . S
C67 O59 1.258 . S
C67 O60 1.266 . S
Co68 O71 1.970 . S
Co68 N85 1.989 . S
Co68 O93 1.967 . S
Co68 O100 1.920 . S
Co69 O72 1.966 . S
Co69 N78 2.022 . S
Co69 N86 1.993 . S
Co69 O94 1.941 . S
C70 O71 1.258 . S
C70 O72 1.263 . S
O71 Co68 1.970 . S
O71 C70 1.258 . S
O72 Co69 1.966 . S
O72 C70 1.263 . S
C73 O74 1.235 . S
C73 O100 1.289 . S
O74 C73 1.235 . S
C75 C77 1.400 . S
C75 N78 1.351 . S
C75 C80 1.501 . S
C76 C77 1.387 . S
C76 N79 1.341 . S
C77 C75 1.400 . S
C77 C76 1.387 . S
N78 Co69 2.022 . S
N78 C75 1.351 . S
N78 N79 1.365 . S
N79 C76 1.341 . S
N79 N78 1.365 . S
N79 H99 0.862 . S
C80 C75 1.501 . S
C80 H81 0.961 . S
C80 H82 0.961 . S
C80 H83 0.960 . S
H81 C80 0.961 . S
H82 C80 0.961 . S
H83 C80 0.960 . S
C84 N85 1.342 . S
C84 C88 1.401 . S
C84 C89 1.499 . S
N85 Co68 1.989 . S
N85 C84 1.342 . S
N85 N86 1.388 . S
N86 Co69 1.993 . S
N86 N85 1.388 . S
N86 C87 1.346 . S
C87 N86 1.346 . S
C87 C88 1.396 . S
C87 C97 1.510 . S
C88 C84 1.401 . S
C88 C87 1.396 . S
C89 C84 1.499 . S
C89 H90 0.959 . S
C89 H91 0.960 . S
C89 H92 0.961 . S
H90 C89 0.959 . S
H91 C89 0.960 . S
H92 C89 0.961 . S
O93 Co68 1.967 . S
O93 C101 1.258 . S
O94 Co69 1.941 . S
O94 C101 1.266 . S
H95 C97 0.959 . S
H96 C97 0.961 . S
C97 C87 1.510 . S
C97 H95 0.959 . S
C97 H96 0.961 . S
C97 H98 0.960 . S
H98 C97 0.960 . S
H99 N79 0.862 . S
O100 Co68 1.920 . S
O100 C73 1.289 . S
C101 O93 1.258 . S
C101 O94 1.266 . S
Co102 O105 1.970 . S
Co102 N119 1.989 . S
Co102 O127 1.967 1_545 S
Co102 O134 1.920 . S
Co103 O106 1.966 . S
Co103 N112 2.022 . S
Co103 N120 1.993 . S
Co103 O128 1.941 1_545 S
C104 O105 1.258 . S
C104 O106 1.263 . S
O105 Co102 1.970 . S
O105 C104 1.258 . S
O106 Co103 1.966 . S
O106 C104 1.263 . S
C107 O108 1.235 . S
C107 O134 1.289 . S
O108 C107 1.235 . S
C109 C111 1.400 . S
C109 N112 1.351 . S
C109 C114 1.501 . S
C110 C111 1.387 . S
C110 N113 1.341 . S
C111 C109 1.400 . S
C111 C110 1.387 . S
N112 Co103 2.022 . S
N112 C109 1.351 . S
N112 N113 1.365 . S
N113 C110 1.341 . S
N113 N112 1.365 . S
N113 H133 0.862 1_545 S
C114 C109 1.501 . S
C114 H115 0.961 . S
C114 H116 0.961 . S
C114 H117 0.960 . S
H115 C114 0.961 . S
H116 C114 0.961 . S
H117 C114 0.960 . S
C118 N119 1.342 . S
C118 C122 1.401 . S
C118 C123 1.499 . S
N119 Co102 1.989 . S
N119 C118 1.342 . S
N119 N120 1.388 . S
N120 Co103 1.993 . S
N120 N119 1.388 . S
N120 C121 1.346 . S
C121 N120 1.346 . S
C121 C122 1.396 . S
C121 C131 1.510 . S
C122 C118 1.401 . S
C122 C121 1.396 . S
C123 C118 1.499 . S
C123 H124 0.959 . S
C123 H125 0.960 . S
C123 H126 0.961 1_545 S
H124 C123 0.959 . S
H125 C123 0.960 . S
H126 C123 0.961 1_565 S
O127 Co102 1.967 1_565 S
O127 C135 1.258 . S
O128 Co103 1.941 1_565 S
O128 C135 1.266 . S
H129 C131 0.959 1_565 S
H130 C131 0.961 . S
C131 C121 1.510 . S
C131 H129 0.959 1_545 S
C131 H130 0.961 . S
C131 H132 0.960 . S
H132 C131 0.960 . S
H133 N113 0.862 1_565 S
O134 Co102 1.920 . S
O134 C107 1.289 . S
C135 O127 1.258 . S
C135 O128 1.266 . S
Co136 O139 1.970 . S
Co136 N153 1.989 . S
Co136 O161 1.967 . S
Co136 O168 1.920 . S
Co137 O140 1.966 . S
Co137 N146 2.022 . S
Co137 N154 1.993 . S
Co137 O162 1.941 . S
C138 O139 1.258 . S
C138 O140 1.263 . S
O139 Co136 1.970 . S
O139 C138 1.258 . S
O140 Co137 1.966 . S
O140 C138 1.263 . S
C141 O142 1.235 . S
C141 O168 1.289 . S
O142 C141 1.235 . S
C143 C145 1.400 . S
C143 N146 1.351 . S
C143 C148 1.501 . S
C144 C145 1.387 . S
C144 N147 1.341 . S
C145 C143 1.400 . S
C145 C144 1.387 . S
N146 Co137 2.022 . S
N146 C143 1.351 . S
N146 N147 1.365 . S
N147 C144 1.341 . S
N147 N146 1.365 . S
N147 H167 0.862 . S
C148 C143 1.501 . S
C148 H149 0.961 . S
C148 H150 0.961 . S
C148 H151 0.960 . S
H149 C148 0.961 . S
H150 C148 0.961 . S
H151 C148 0.960 . S
C152 N153 1.342 . S
C152 C156 1.401 . S
C152 C157 1.499 . S
N153 Co136 1.989 . S
N153 C152 1.342 . S
N153 N154 1.388 . S
N154 Co137 1.993 . S
N154 N153 1.388 . S
N154 C155 1.346 . S
C155 N154 1.346 . S
C155 C156 1.396 . S
C155 C165 1.510 . S
C156 C152 1.401 . S
C156 C155 1.396 . S
C157 C152 1.499 . S
C157 H158 0.959 . S
C157 H159 0.960 . S
C157 H160 0.961 . S
H158 C157 0.959 . S
H159 C157 0.960 . S
H160 C157 0.961 . S
O161 Co136 1.967 . S
O161 C169 1.258 . S
O162 Co137 1.941 . S
O162 C169 1.266 . S
H163 C165 0.959 . S
H164 C165 0.961 . S
C165 C155 1.510 . S
C165 H163 0.959 . S
C165 H164 0.961 . S
C165 H166 0.960 . S
H166 C165 0.960 . S
H167 N147 0.862 . S
O168 Co136 1.920 . S
O168 C141 1.289 . S
C169 O161 1.258 . S
C169 O162 1.266 . S
Co170 O173 1.970 . S
Co170 N187 1.989 . S
Co170 O195 1.967 1_565 S
Co170 O202 1.920 . S
Co171 O174 1.966 . S
Co171 N180 2.022 . S
Co171 N188 1.993 . S
Co171 O196 1.941 1_565 S
C172 O173 1.258 . S
C172 O174 1.263 . S
O173 Co170 1.970 . S
O173 C172 1.258 . S
O174 Co171 1.966 . S
O174 C172 1.263 . S
C175 O176 1.235 . S
C175 O202 1.289 . S
O176 C175 1.235 . S
C177 C179 1.400 . S
C177 N180 1.351 . S
C177 C182 1.501 . S
C178 C179 1.387 . S
C178 N181 1.341 . S
C179 C177 1.400 . S
C179 C178 1.387 . S
N180 Co171 2.022 . S
N180 C177 1.351 . S
N180 N181 1.365 . S
N181 C178 1.341 . S
N181 N180 1.365 . S
N181 H201 0.862 1_565 S
C182 C177 1.501 . S
C182 H183 0.961 . S
C182 H184 0.961 . S
C182 H185 0.960 . S
H183 C182 0.961 . S
H184 C182 0.961 . S
H185 C182 0.960 . S
C186 N187 1.342 . S
C186 C190 1.401 . S
C186 C191 1.499 . S
N187 Co170 1.989 . S
N187 C186 1.342 . S
N187 N188 1.388 . S
N188 Co171 1.993 . S
N188 N187 1.388 . S
N188 C189 1.346 . S
C189 N188 1.346 . S
C189 C190 1.396 . S
C189 C199 1.510 . S
C190 C186 1.401 . S
C190 C189 1.396 . S
C191 C186 1.499 . S
C191 H192 0.959 . S
C191 H193 0.960 . S
C191 H194 0.961 1_565 S
H192 C191 0.959 . S
H193 C191 0.960 . S
H194 C191 0.961 1_545 S
O195 Co170 1.967 1_545 S
O195 C203 1.258 . S
O196 Co171 1.941 1_545 S
O196 C203 1.266 . S
H197 C199 0.959 1_545 S
H198 C199 0.961 . S
C199 C189 1.510 . S
C199 H197 0.959 1_565 S
C199 H198 0.961 . S
C199 H200 0.960 . S
H200 C199 0.960 . S
H201 N181 0.862 1_545 S
O202 Co170 1.920 . S
O202 C175 1.289 . S
C203 O195 1.258 . S
C203 O196 1.266 . S
Co204 O207 1.970 . S
Co204 N221 1.989 . S
Co204 O229 1.967 . S
Co204 O236 1.920 . S
Co205 O208 1.966 . S
Co205 N214 2.022 . S
Co205 N222 1.993 . S
Co205 O230 1.941 . S
C206 O207 1.258 . S
C206 O208 1.263 . S
O207 Co204 1.970 . S
O207 C206 1.258 . S
O208 Co205 1.966 . S
O208 C206 1.263 . S
C209 O210 1.235 . S
C209 O236 1.289 . S
O210 C209 1.235 . S
C211 C213 1.400 . S
C211 N214 1.351 . S
C211 C216 1.501 . S
C212 C213 1.387 . S
C212 N215 1.341 . S
C213 C211 1.400 . S
C213 C212 1.387 . S
N214 Co205 2.022 . S
N214 C211 1.351 . S
N214 N215 1.365 . S
N215 C212 1.341 . S
N215 N214 1.365 . S
N215 H235 0.862 . S
C216 C211 1.501 . S
C216 H217 0.961 . S
C216 H218 0.961 . S
C216 H219 0.960 . S
H217 C216 0.961 . S
H218 C216 0.961 . S
H219 C216 0.960 . S
C220 N221 1.342 . S
C220 C224 1.401 . S
C220 C225 1.499 . S
N221 Co204 1.989 . S
N221 C220 1.342 . S
N221 N222 1.388 . S
N222 Co205 1.993 . S
N222 N221 1.388 . S
N222 C223 1.346 . S
C223 N222 1.346 . S
C223 C224 1.396 . S
C223 C233 1.510 . S
C224 C220 1.401 . S
C224 C223 1.396 . S
C225 C220 1.499 . S
C225 H226 0.959 . S
C225 H227 0.960 . S
C225 H228 0.961 . S
H226 C225 0.959 . S
H227 C225 0.960 . S
H228 C225 0.961 . S
O229 Co204 1.967 . S
O229 C237 1.258 . S
O230 Co205 1.941 . S
O230 C237 1.266 . S
H231 C233 0.959 . S
H232 C233 0.961 . S
C233 C223 1.510 . S
C233 H231 0.959 . S
C233 H232 0.961 . S
C233 H234 0.960 . S
H234 C233 0.960 . S
H235 N215 0.862 . S
O236 Co204 1.920 . S
O236 C209 1.289 . S
C237 O229 1.258 . S
C237 O230 1.266 . S
Co238 O241 1.970 . S
Co238 N255 1.989 . S
Co238 O263 1.966 1_545 S
Co238 O270 1.920 . S
Co239 O242 1.966 . S
Co239 N248 2.022 . S
Co239 N256 1.993 . S
Co239 O264 1.941 1_545 S
C240 O241 1.258 . S
C240 O242 1.263 . S
O241 Co238 1.970 . S
O241 C240 1.258 . S
O242 Co239 1.966 . S
O242 C240 1.263 . S
C243 O244 1.235 . S
C243 O270 1.289 . S
O244 C243 1.235 . S
C245 C247 1.400 1_455 S
C245 N248 1.351 . S
C245 C250 1.501 . S
C246 C247 1.387 . S
C246 N249 1.341 1_655 S
C247 C245 1.400 1_655 S
C247 C246 1.387 . S
N248 Co239 2.022 . S
N248 C245 1.351 . S
N248 N249 1.365 . S
N249 C246 1.341 1_455 S
N249 N248 1.365 . S
N249 H269 0.862 1_545 S
C250 C245 1.501 . S
C250 H251 0.961 . S
C250 H252 0.961 . S
C250 H253 0.960 . S
H251 C250 0.961 . S
H252 C250 0.961 . S
H253 C250 0.960 . S
C254 N255 1.342 . S
C254 C258 1.401 . S
C254 C259 1.499 . S
N255 Co238 1.989 . S
N255 C254 1.342 . S
N255 N256 1.388 . S
N256 Co239 1.993 . S
N256 N255 1.388 . S
N256 C257 1.346 . S
C257 N256 1.346 . S
C257 C258 1.396 . S
C257 C267 1.481 1_455 S
C258 C254 1.401 . S
C258 C257 1.396 . S
C259 C254 1.499 . S
C259 H260 0.959 . S
C259 H261 0.960 . S
C259 H262 0.961 1_545 S
H260 C259 0.959 . S
H261 C259 0.960 . S
H262 C259 0.961 1_565 S
O263 Co238 1.966 1_565 S
O263 C271 1.258 . S
O264 Co239 1.941 1_565 S
O264 C271 1.266 . S
H265 C267 0.973 1_565 S
H266 C267 0.978 . S
C267 C257 1.481 1_655 S
C267 H265 0.973 1_545 S
C267 H266 0.978 . S
C267 H268 0.959 1_655 S
H268 C267 0.959 1_455 S
H269 N249 0.862 1_565 S
O270 Co238 1.920 . S
O270 C243 1.289 . S
C271 O263 1.258 . S
C271 O264 1.266 . S
Co272 O275 1.970 . S
Co272 N289 1.989 . S
Co272 O297 1.967 . S
Co272 O304 1.920 . S
Co273 O276 1.966 . S
Co273 N282 2.022 . S
Co273 N290 1.993 . S
Co273 O298 1.941 . S
C274 O275 1.258 . S
C274 O276 1.263 . S
O275 Co272 1.970 . S
O275 C274 1.258 . S
O276 Co273 1.966 . S
O276 C274 1.263 . S
C277 O278 1.235 . S
C277 O304 1.289 . S
O278 C277 1.235 . S
C279 C281 1.400 . S
C279 N282 1.351 . S
C279 C284 1.501 . S
C280 C281 1.387 . S
C280 N283 1.341 . S
C281 C279 1.400 . S
C281 C280 1.387 . S
N282 Co273 2.022 . S
N282 C279 1.351 . S
N282 N283 1.365 . S
N283 C280 1.341 . S
N283 N282 1.365 . S
N283 H303 0.862 . S
C284 C279 1.501 . S
C284 H285 0.961 . S
C284 H286 0.961 . S
C284 H287 0.960 . S
H285 C284 0.961 . S
H286 C284 0.961 . S
H287 C284 0.960 . S
C288 N289 1.342 . S
C288 C292 1.401 . S
C288 C293 1.499 . S
N289 Co272 1.989 . S
N289 C288 1.342 . S
N289 N290 1.388 . S
N290 Co273 1.993 . S
N290 N289 1.388 . S
N290 C291 1.346 . S
C291 N290 1.346 . S
C291 C292 1.396 . S
C291 C301 1.510 . S
C292 C288 1.401 . S
C292 C291 1.396 . S
C293 C288 1.499 . S
C293 H294 0.959 . S
C293 H295 0.960 . S
C293 H296 0.961 . S
H294 C293 0.959 . S
H295 C293 0.960 . S
H296 C293 0.961 . S
O297 Co272 1.967 . S
O297 C305 1.258 . S
O298 Co273 1.941 . S
O298 C305 1.266 . S
H299 C301 0.959 . S
H300 C301 0.961 . S
C301 C291 1.510 . S
C301 H299 0.959 . S
C301 H300 0.961 . S
C301 H302 0.960 . S
H302 C301 0.960 . S
H303 N283 0.862 . S
O304 Co272 1.920 . S
O304 C277 1.289 . S
C305 O297 1.258 . S
C305 O298 1.266 . S
Co306 O309 1.970 . S
Co306 N323 1.989 . S
Co306 O331 1.966 1_545 S
Co306 O338 1.920 . S
Co307 O310 1.966 . S
Co307 N316 2.022 . S
Co307 N324 1.993 . S
Co307 O332 1.941 1_545 S
C308 O309 1.258 . S
C308 O310 1.263 . S
O309 Co306 1.970 . S
O309 C308 1.258 . S
O310 Co307 1.966 . S
O310 C308 1.263 . S
C311 O312 1.235 . S
C311 O338 1.289 . S
O312 C311 1.235 . S
C313 C315 1.400 1_655 S
C313 N316 1.351 . S
C313 C318 1.501 . S
C314 C315 1.387 . S
C314 N317 1.341 1_455 S
C315 C313 1.400 1_455 S
C315 C314 1.387 . S
N316 Co307 2.022 . S
N316 C313 1.351 . S
N316 N317 1.365 . S
N317 C314 1.341 1_655 S
N317 N316 1.365 . S
N317 H337 0.862 1_545 S
C318 C313 1.501 . S
C318 H319 0.961 . S
C318 H320 0.961 . S
C318 H321 0.960 . S
H319 C318 0.961 . S
H320 C318 0.961 . S
H321 C318 0.960 . S
C322 N323 1.342 . S
C322 C326 1.401 . S
C322 C327 1.499 . S
N323 Co306 1.989 . S
N323 C322 1.342 . S
N323 N324 1.388 . S
N324 Co307 1.993 . S
N324 N323 1.388 . S
N324 C325 1.346 . S
C325 N324 1.346 . S
C325 C326 1.396 . S
C325 C335 1.481 1_655 S
C326 C322 1.401 . S
C326 C325 1.396 . S
C327 C322 1.499 . S
C327 H328 0.959 . S
C327 H329 0.960 . S
C327 H330 0.961 1_545 S
H328 C327 0.959 . S
H329 C327 0.960 . S
H330 C327 0.961 1_565 S
O331 Co306 1.966 1_565 S
O331 C339 1.258 . S
O332 Co307 1.941 1_565 S
O332 C339 1.266 . S
H333 C335 0.973 1_565 S
H334 C335 0.978 . S
C335 C325 1.481 1_455 S
C335 H333 0.973 1_545 S
C335 H334 0.978 . S
C335 H336 0.959 1_455 S
H336 C335 0.959 1_655 S
H337 N317 0.862 1_565 S
O338 Co306 1.920 . S
O338 C311 1.289 . S
C339 O331 1.258 . S
C339 O332 1.266 . S
Co340 O343 1.970 . S
Co340 N357 1.989 . S
Co340 O365 1.967 . S
Co340 O372 1.920 . S
Co341 O344 1.966 . S
Co341 N350 2.022 . S
Co341 N358 1.993 . S
Co341 O366 1.941 . S
C342 O343 1.258 . S
C342 O344 1.263 . S
O343 Co340 1.970 . S
O343 C342 1.258 . S
O344 Co341 1.966 . S
O344 C342 1.263 . S
C345 O346 1.235 . S
C345 O372 1.289 . S
O346 C345 1.235 . S
C347 C349 1.400 . S
C347 N350 1.351 . S
C347 C352 1.501 . S
C348 C349 1.387 . S
C348 N351 1.341 . S
C349 C347 1.400 . S
C349 C348 1.387 . S
N350 Co341 2.022 . S
N350 C347 1.351 . S
N350 N351 1.365 . S
N351 C348 1.341 . S
N351 N350 1.365 . S
N351 H371 0.862 . S
C352 C347 1.501 . S
C352 H353 0.961 . S
C352 H354 0.961 . S
C352 H355 0.960 . S
H353 C352 0.961 . S
H354 C352 0.961 . S
H355 C352 0.960 . S
C356 N357 1.342 . S
C356 C360 1.401 . S
C356 C361 1.499 . S
N357 Co340 1.989 . S
N357 C356 1.342 . S
N357 N358 1.388 . S
N358 Co341 1.993 . S
N358 N357 1.388 . S
N358 C359 1.346 . S
C359 N358 1.346 . S
C359 C360 1.396 . S
C359 C369 1.510 . S
C360 C356 1.401 . S
C360 C359 1.396 . S
C361 C356 1.499 . S
C361 H362 0.959 . S
C361 H363 0.960 . S
C361 H364 0.961 . S
H362 C361 0.959 . S
H363 C361 0.960 . S
H364 C361 0.961 . S
O365 Co340 1.967 . S
O365 C373 1.258 . S
O366 Co341 1.941 . S
O366 C373 1.266 . S
H367 C369 0.959 . S
H368 C369 0.961 . S
C369 C359 1.510 . S
C369 H367 0.959 . S
C369 H368 0.961 . S
C369 H370 0.960 . S
H370 C369 0.960 . S
H371 N351 0.862 . S
O372 Co340 1.920 . S
O372 C345 1.289 . S
C373 O365 1.258 . S
C373 O366 1.266 . S
Co374 O377 1.970 . S
Co374 N391 1.989 . S
Co374 O399 1.967 1_565 S
Co374 O406 1.920 . S
Co375 O378 1.966 . S
Co375 N384 2.022 . S
Co375 N392 1.993 . S
Co375 O400 1.941 1_565 S
C376 O377 1.258 . S
C376 O378 1.263 . S
O377 Co374 1.970 . S
O377 C376 1.258 . S
O378 Co375 1.966 . S
O378 C376 1.263 . S
C379 O380 1.235 . S
C379 O406 1.289 . S
O380 C379 1.235 . S
C381 C383 1.400 . S
C381 N384 1.351 . S
C381 C386 1.501 . S
C382 C383 1.387 . S
C382 N385 1.341 . S
C383 C381 1.400 . S
C383 C382 1.387 . S
N384 Co375 2.022 . S
N384 C381 1.351 . S
N384 N385 1.365 . S
N385 C382 1.341 . S
N385 N384 1.365 . S
N385 H405 0.862 1_565 S
C386 C381 1.501 . S
C386 H387 0.961 . S
C386 H388 0.961 . S
C386 H389 0.960 . S
H387 C386 0.961 . S
H388 C386 0.961 . S
H389 C386 0.960 . S
C390 N391 1.342 . S
C390 C394 1.401 . S
C390 C395 1.499 . S
N391 Co374 1.989 . S
N391 C390 1.342 . S
N391 N392 1.388 . S
N392 Co375 1.993 . S
N392 N391 1.388 . S
N392 C393 1.346 . S
C393 N392 1.346 . S
C393 C394 1.396 . S
C393 C403 1.510 . S
C394 C390 1.401 . S
C394 C393 1.396 . S
C395 C390 1.499 . S
C395 H396 0.959 . S
C395 H397 0.960 . S
C395 H398 0.961 1_565 S
H396 C395 0.959 . S
H397 C395 0.960 . S
H398 C395 0.961 1_545 S
O399 Co374 1.967 1_545 S
O399 C407 1.258 . S
O400 Co375 1.941 1_545 S
O400 C407 1.266 . S
H401 C403 0.959 1_545 S
H402 C403 0.961 . S
C403 C393 1.510 . S
C403 H401 0.959 1_565 S
C403 H402 0.961 . S
C403 H404 0.960 . S
H404 C403 0.960 . S
H405 N385 0.862 1_545 S
O406 Co374 1.920 . S
O406 C379 1.289 . S
C407 O399 1.258 . S
C407 O400 1.266 . S
Co408 O411 1.970 . S
Co408 N425 1.989 . S
Co408 O433 1.967 . S
Co408 O440 1.920 . S
Co409 O412 1.966 . S
Co409 N418 2.022 . S
Co409 N426 1.993 . S
Co409 O434 1.941 . S
C410 O411 1.258 . S
C410 O412 1.263 . S
O411 Co408 1.970 . S
O411 C410 1.258 . S
O412 Co409 1.966 . S
O412 C410 1.263 . S
C413 O414 1.235 . S
C413 O440 1.289 . S
O414 C413 1.235 . S
C415 C417 1.400 . S
C415 N418 1.351 . S
C415 C420 1.501 . S
C416 C417 1.387 . S
C416 N419 1.341 . S
C417 C415 1.400 . S
C417 C416 1.387 . S
N418 Co409 2.022 . S
N418 C415 1.351 . S
N418 N419 1.365 . S
N419 C416 1.341 . S
N419 N418 1.365 . S
N419 H439 0.862 . S
C420 C415 1.501 . S
C420 H421 0.961 . S
C420 H422 0.961 . S
C420 H423 0.960 . S
H421 C420 0.961 . S
H422 C420 0.961 . S
H423 C420 0.960 . S
C424 N425 1.342 . S
C424 C428 1.401 . S
C424 C429 1.499 . S
N425 Co408 1.989 . S
N425 C424 1.342 . S
N425 N426 1.388 . S
N426 Co409 1.993 . S
N426 N425 1.388 . S
N426 C427 1.346 . S
C427 N426 1.346 . S
C427 C428 1.396 . S
C427 C437 1.510 . S
C428 C424 1.401 . S
C428 C427 1.396 . S
C429 C424 1.499 . S
C429 H430 0.959 . S
C429 H431 0.960 . S
C429 H432 0.961 . S
H430 C429 0.959 . S
H431 C429 0.960 . S
H432 C429 0.961 . S
O433 Co408 1.967 . S
O433 C441 1.258 . S
O434 Co409 1.941 . S
O434 C441 1.266 . S
H435 C437 0.959 . S
H436 C437 0.961 . S
C437 C427 1.510 . S
C437 H435 0.959 . S
C437 H436 0.961 . S
C437 H438 0.960 . S
H438 C437 0.960 . S
H439 N419 0.862 . S
O440 Co408 1.920 . S
O440 C413 1.289 . S
C441 O433 1.258 . S
C441 O434 1.266 . S
Co442 O445 1.970 . S
Co442 N459 1.989 . S
Co442 O467 1.967 1_545 S
Co442 O474 1.920 . S
Co443 O446 1.966 . S
Co443 N452 2.022 . S
Co443 N460 1.993 . S
Co443 O468 1.941 1_545 S
C444 O445 1.258 . S
C444 O446 1.263 . S
O445 Co442 1.970 . S
O445 C444 1.258 . S
O446 Co443 1.966 . S
O446 C444 1.263 . S
C447 O448 1.235 . S
C447 O474 1.289 . S
O448 C447 1.235 . S
C449 C451 1.400 . S
C449 N452 1.351 . S
C449 C454 1.501 . S
C450 C451 1.387 . S
C450 N453 1.341 . S
C451 C449 1.400 . S
C451 C450 1.387 . S
N452 Co443 2.022 . S
N452 C449 1.351 . S
N452 N453 1.365 . S
N453 C450 1.341 . S
N453 N452 1.365 . S
N453 H473 0.862 1_545 S
C454 C449 1.501 . S
C454 H455 0.961 . S
C454 H456 0.961 . S
C454 H457 0.960 . S
H455 C454 0.961 . S
H456 C454 0.961 . S
H457 C454 0.960 . S
C458 N459 1.342 . S
C458 C462 1.401 . S
C458 C463 1.499 . S
N459 Co442 1.989 . S
N459 C458 1.342 . S
N459 N460 1.388 . S
N460 Co443 1.993 . S
N460 N459 1.388 . S
N460 C461 1.346 . S
C461 N460 1.346 . S
C461 C462 1.396 . S
C461 C471 1.510 . S
C462 C458 1.401 . S
C462 C461 1.396 . S
C463 C458 1.499 . S
C463 H464 0.959 . S
C463 H465 0.960 . S
C463 H466 0.961 1_545 S
H464 C463 0.959 . S
H465 C463 0.960 . S
H466 C463 0.961 1_565 S
O467 Co442 1.967 1_565 S
O467 C475 1.258 . S
O468 Co443 1.941 1_565 S
O468 C475 1.266 . S
H469 C471 0.959 1_565 S
H470 C471 0.961 . S
C471 C461 1.510 . S
C471 H469 0.959 1_545 S
C471 H470 0.961 . S
C471 H472 0.960 . S
H472 C471 0.960 . S
H473 N453 0.862 1_565 S
O474 Co442 1.920 . S
O474 C447 1.289 . S
C475 O467 1.258 . S
C475 O468 1.266 . S
Co476 O479 1.970 . S
Co476 N493 1.989 . S
Co476 O501 1.967 . S
Co476 O508 1.920 . S
Co477 O480 1.966 . S
Co477 N486 2.022 . S
Co477 N494 1.993 . S
Co477 O502 1.941 . S
C478 O479 1.258 . S
C478 O480 1.263 . S
O479 Co476 1.970 . S
O479 C478 1.258 . S
O480 Co477 1.966 . S
O480 C478 1.263 . S
C481 O482 1.235 . S
C481 O508 1.289 . S
O482 C481 1.235 . S
C483 C485 1.400 . S
C483 N486 1.351 . S
C483 C488 1.501 . S
C484 C485 1.387 . S
C484 N487 1.341 . S
C485 C483 1.400 . S
C485 C484 1.387 . S
N486 Co477 2.022 . S
N486 C483 1.351 . S
N486 N487 1.365 . S
N487 C484 1.341 . S
N487 N486 1.365 . S
N487 H507 0.862 . S
C488 C483 1.501 . S
C488 H489 0.961 . S
C488 H490 0.961 . S
C488 H491 0.960 . S
H489 C488 0.961 . S
H490 C488 0.961 . S
H491 C488 0.960 . S
C492 N493 1.342 . S
C492 C496 1.401 . S
C492 C497 1.499 . S
N493 Co476 1.989 . S
N493 C492 1.342 . S
N493 N494 1.388 . S
N494 Co477 1.993 . S
N494 N493 1.388 . S
N494 C495 1.346 . S
C495 N494 1.346 . S
C495 C496 1.396 . S
C495 C505 1.510 . S
C496 C492 1.401 . S
C496 C495 1.396 . S
C497 C492 1.499 . S
C497 H498 0.959 . S
C497 H499 0.960 . S
C497 H500 0.961 . S
H498 C497 0.959 . S
H499 C497 0.960 . S
H500 C497 0.961 . S
O501 Co476 1.967 . S
O501 C509 1.258 . S
O502 Co477 1.941 . S
O502 C509 1.266 . S
H503 C505 0.959 . S
H504 C505 0.961 . S
C505 C495 1.510 . S
C505 H503 0.959 . S
C505 H504 0.961 . S
C505 H506 0.960 . S
H506 C505 0.960 . S
H507 N487 0.862 . S
O508 Co476 1.920 . S
O508 C481 1.289 . S
C509 O501 1.258 . S
C509 O502 1.266 . S
Co510 O513 1.970 . S
Co510 N527 1.989 . S
Co510 O535 1.966 1_565 S
Co510 O542 1.920 . S
Co511 O514 1.966 . S
Co511 N520 2.022 . S
Co511 N528 1.993 . S
Co511 O536 1.941 1_565 S
C512 O513 1.258 . S
C512 O514 1.263 . S
O513 Co510 1.970 . S
O513 C512 1.258 . S
O514 Co511 1.966 . S
O514 C512 1.263 . S
C515 O516 1.235 . S
C515 O542 1.289 . S
O516 C515 1.235 . S
C517 C519 1.400 1_655 S
C517 N520 1.351 . S
C517 C522 1.501 . S
C518 C519 1.387 . S
C518 N521 1.341 1_455 S
C519 C517 1.400 1_455 S
C519 C518 1.387 . S
N520 Co511 2.022 . S
N520 C517 1.351 . S
N520 N521 1.365 . S
N521 C518 1.341 1_655 S
N521 N520 1.365 . S
N521 H541 0.862 1_565 S
C522 C517 1.501 . S
C522 H523 0.961 . S
C522 H524 0.961 . S
C522 H525 0.960 . S
H523 C522 0.961 . S
H524 C522 0.961 . S
H525 C522 0.960 . S
C526 N527 1.342 . S
C526 C530 1.401 . S
C526 C531 1.499 . S
N527 Co510 1.989 . S
N527 C526 1.342 . S
N527 N528 1.388 . S
N528 Co511 1.993 . S
N528 N527 1.388 . S
N528 C529 1.346 . S
C529 N528 1.346 . S
C529 C530 1.396 . S
C529 C539 1.481 1_655 S
C530 C526 1.401 . S
C530 C529 1.396 . S
C531 C526 1.499 . S
C531 H532 0.959 . S
C531 H533 0.960 . S
C531 H534 0.961 1_565 S
H532 C531 0.959 . S
H533 C531 0.960 . S
H534 C531 0.961 1_545 S
O535 Co510 1.966 1_545 S
O535 C543 1.258 . S
O536 Co511 1.941 1_545 S
O536 C543 1.266 . S
H537 C539 0.973 1_545 S
H538 C539 0.978 . S
C539 C529 1.481 1_455 S
C539 H537 0.973 1_565 S
C539 H538 0.978 . S
C539 H540 0.959 1_455 S
H540 C539 0.959 1_655 S
H541 N521 0.862 1_545 S
O542 Co510 1.920 . S
O542 C515 1.289 . S
C543 O535 1.258 . S
C543 O536 1.266 . S
Co544 O547 1.970 . S
Co544 N561 1.989 . S
Co544 O569 1.967 . S
Co544 O576 1.920 . S
Co545 O548 1.966 . S
Co545 N554 2.022 . S
Co545 N562 1.993 . S
Co545 O570 1.941 . S
C546 O547 1.258 . S
C546 O548 1.263 . S
O547 Co544 1.970 . S
O547 C546 1.258 . S
O548 Co545 1.966 . S
O548 C546 1.263 . S
C549 O550 1.235 . S
C549 O576 1.289 . S
O550 C549 1.235 . S
C551 C553 1.400 . S
C551 N554 1.351 . S
C551 C556 1.501 . S
C552 C553 1.387 . S
C552 N555 1.341 . S
C553 C551 1.400 . S
C553 C552 1.387 . S
N554 Co545 2.022 . S
N554 C551 1.351 . S
N554 N555 1.365 . S
N555 C552 1.341 . S
N555 N554 1.365 . S
N555 H575 0.862 . S
C556 C551 1.501 . S
C556 H557 0.961 . S
C556 H558 0.961 . S
C556 H559 0.960 . S
H557 C556 0.961 . S
H558 C556 0.961 . S
H559 C556 0.960 . S
C560 N561 1.342 . S
C560 C564 1.401 . S
C560 C565 1.499 . S
N561 Co544 1.989 . S
N561 C560 1.342 . S
N561 N562 1.388 . S
N562 Co545 1.993 . S
N562 N561 1.388 . S
N562 C563 1.346 . S
C563 N562 1.346 . S
C563 C564 1.396 . S
C563 C573 1.510 . S
C564 C560 1.401 . S
C564 C563 1.396 . S
C565 C560 1.499 . S
C565 H566 0.959 . S
C565 H567 0.960 . S
C565 H568 0.961 . S
H566 C565 0.959 . S
H567 C565 0.960 . S
H568 C565 0.961 . S
O569 Co544 1.967 . S
O569 C577 1.258 . S
O570 Co545 1.941 . S
O570 C577 1.266 . S
H571 C573 0.959 . S
H572 C573 0.961 . S
C573 C563 1.510 . S
C573 H571 0.959 . S
C573 H572 0.961 . S
C573 H574 0.960 . S
H574 C573 0.960 . S
H575 N555 0.862 . S
O576 Co544 1.920 . S
O576 C549 1.289 . S
C577 O569 1.258 . S
C577 O570 1.266 . S
Co578 O581 1.970 . S
Co578 N595 1.989 . S
Co578 O603 1.967 . S
Co578 O610 1.920 . S
Co579 O582 1.966 . S
Co579 N588 2.022 . S
Co579 N596 1.993 . S
Co579 O604 1.941 . S
C580 O581 1.258 . S
C580 O582 1.263 . S
O581 Co578 1.970 . S
O581 C580 1.258 . S
O582 Co579 1.966 . S
O582 C580 1.263 . S
C583 O584 1.235 . S
C583 O610 1.289 . S
O584 C583 1.235 . S
C585 C587 1.400 . S
C585 N588 1.351 . S
C585 C590 1.501 . S
C586 C587 1.387 . S
C586 N589 1.341 . S
C587 C585 1.400 . S
C587 C586 1.387 . S
N588 Co579 2.022 . S
N588 C585 1.351 . S
N588 N589 1.365 . S
N589 C586 1.341 . S
N589 N588 1.365 . S
N589 H609 0.862 . S
C590 C585 1.501 . S
C590 H591 0.961 . S
C590 H592 0.961 . S
C590 H593 0.960 . S
H591 C590 0.961 . S
H592 C590 0.961 . S
H593 C590 0.960 . S
C594 N595 1.342 . S
C594 C598 1.401 . S
C594 C599 1.499 . S
N595 Co578 1.989 . S
N595 C594 1.342 . S
N595 N596 1.388 . S
N596 Co579 1.993 . S
N596 N595 1.388 . S
N596 C597 1.346 . S
C597 N596 1.346 . S
C597 C598 1.396 . S
C597 C607 1.510 . S
C598 C594 1.401 . S
C598 C597 1.396 . S
C599 C594 1.499 . S
C599 H600 0.959 . S
C599 H601 0.960 . S
C599 H602 0.961 . S
H600 C599 0.959 . S
H601 C599 0.960 . S
H602 C599 0.961 . S
O603 Co578 1.967 . S
O603 C611 1.258 . S
O604 Co579 1.941 . S
O604 C611 1.266 . S
H605 C607 0.959 . S
H606 C607 0.961 . S
C607 C597 1.510 . S
C607 H605 0.959 . S
C607 H606 0.961 . S
C607 H608 0.960 . S
H608 C607 0.960 . S
H609 N589 0.862 . S
O610 Co578 1.920 . S
O610 C583 1.289 . S
C611 O603 1.258 . S
C611 O604 1.266 . S
Co612 O615 1.970 . S
Co612 N629 1.989 . S
Co612 O637 1.967 . S
Co612 O644 1.920 . S
Co613 O616 1.966 . S
Co613 N622 2.022 . S
Co613 N630 1.993 . S
Co613 O638 1.941 . S
C614 O615 1.258 . S
C614 O616 1.263 . S
O615 Co612 1.970 . S
O615 C614 1.258 . S
O616 Co613 1.966 . S
O616 C614 1.263 . S
C617 O618 1.235 . S
C617 O644 1.289 . S
O618 C617 1.235 . S
C619 C621 1.400 . S
C619 N622 1.351 . S
C619 C624 1.501 . S
C620 C621 1.387 . S
C620 N623 1.341 . S
C621 C619 1.400 . S
C621 C620 1.387 . S
N622 Co613 2.022 . S
N622 C619 1.351 . S
N622 N623 1.365 . S
N623 C620 1.341 . S
N623 N622 1.365 . S
N623 H643 0.862 . S
C624 C619 1.501 . S
C624 H625 0.961 . S
C624 H626 0.961 . S
C624 H627 0.960 . S
H625 C624 0.961 . S
H626 C624 0.961 . S
H627 C624 0.960 . S
C628 N629 1.342 . S
C628 C632 1.401 . S
C628 C633 1.499 . S
N629 Co612 1.989 . S
N629 C628 1.342 . S
N629 N630 1.388 . S
N630 Co613 1.993 . S
N630 N629 1.388 . S
N630 C631 1.346 . S
C631 N630 1.346 . S
C631 C632 1.396 . S
C631 C641 1.510 . S
C632 C628 1.401 . S
C632 C631 1.396 . S
C633 C628 1.499 . S
C633 H634 0.959 . S
C633 H635 0.960 . S
C633 H636 0.961 . S
H634 C633 0.959 . S
H635 C633 0.960 . S
H636 C633 0.961 . S
O637 Co612 1.967 . S
O637 C645 1.258 . S
O638 Co613 1.941 . S
O638 C645 1.266 . S
H639 C641 0.959 . S
H640 C641 0.961 . S
C641 C631 1.510 . S
C641 H639 0.959 . S
C641 H640 0.961 . S
C641 H642 0.960 . S
H642 C641 0.960 . S
H643 N623 0.862 . S
O644 Co612 1.920 . S
O644 C617 1.289 . S
C645 O637 1.258 . S
C645 O638 1.266 . S
Co646 O649 1.970 . S
Co646 N663 1.989 . S
Co646 O671 1.967 . S
Co646 O678 1.920 . S
Co647 O650 1.966 . S
Co647 N656 2.022 . S
Co647 N664 1.993 . S
Co647 O672 1.941 . S
C648 O649 1.258 . S
C648 O650 1.263 . S
O649 Co646 1.970 . S
O649 C648 1.258 . S
O650 Co647 1.966 . S
O650 C648 1.263 . S
C651 O652 1.235 . S
C651 O678 1.289 . S
O652 C651 1.235 . S
C653 C655 1.400 1_655 S
C653 N656 1.351 . S
C653 C658 1.501 . S
C654 C655 1.387 . S
C654 N657 1.341 1_455 S
C655 C653 1.400 1_455 S
C655 C654 1.387 . S
N656 Co647 2.022 . S
N656 C653 1.351 . S
N656 N657 1.365 . S
N657 C654 1.341 1_655 S
N657 N656 1.365 . S
N657 H677 0.862 . S
C658 C653 1.501 . S
C658 H659 0.961 . S
C658 H660 0.961 . S
C658 H661 0.960 . S
H659 C658 0.961 . S
H660 C658 0.961 . S
H661 C658 0.960 . S
C662 N663 1.342 . S
C662 C666 1.401 . S
C662 C667 1.499 . S
N663 Co646 1.989 . S
N663 C662 1.342 . S
N663 N664 1.388 . S
N664 Co647 1.993 . S
N664 N663 1.388 . S
N664 C665 1.346 . S
C665 N664 1.346 . S
C665 C666 1.396 . S
C665 C675 1.481 1_655 S
C666 C662 1.401 . S
C666 C665 1.396 . S
C667 C662 1.499 . S
C667 H668 0.959 . S
C667 H669 0.960 . S
C667 H670 0.961 . S
H668 C667 0.959 . S
H669 C667 0.960 . S
H670 C667 0.961 . S
O671 Co646 1.967 . S
O671 C679 1.258 . S
O672 Co647 1.941 . S
O672 C679 1.266 . S
H673 C675 0.974 . S
H674 C675 0.978 . S
C675 C665 1.481 1_455 S
C675 H673 0.974 . S
C675 H674 0.978 . S
C675 H676 0.959 1_455 S
H676 C675 0.959 1_655 S
H677 N657 0.862 . S
O678 Co646 1.920 . S
O678 C651 1.289 . S
C679 O671 1.258 . S
C679 O672 1.266 . S
Co680 O683 1.970 . S
Co680 N697 1.989 . S
Co680 O705 1.967 . S
Co680 O712 1.920 . S
Co681 O684 1.966 . S
Co681 N690 2.022 . S
Co681 N698 1.993 . S
Co681 O706 1.941 . S
C682 O683 1.258 . S
C682 O684 1.263 . S
O683 Co680 1.970 . S
O683 C682 1.258 . S
O684 Co681 1.966 . S
O684 C682 1.263 . S
C685 O686 1.235 . S
C685 O712 1.289 . S
O686 C685 1.235 . S
C687 C689 1.400 . S
C687 N690 1.351 . S
C687 C692 1.501 . S
C688 C689 1.387 . S
C688 N691 1.341 . S
C689 C687 1.400 . S
C689 C688 1.387 . S
N690 Co681 2.022 . S
N690 C687 1.351 . S
N690 N691 1.365 . S
N691 C688 1.341 . S
N691 N690 1.365 . S
N691 H711 0.862 . S
C692 C687 1.501 . S
C692 H693 0.961 . S
C692 H694 0.961 . S
C692 H695 0.960 . S
H693 C692 0.961 . S
H694 C692 0.961 . S
H695 C692 0.960 . S
C696 N697 1.342 . S
C696 C700 1.401 . S
C696 C701 1.499 . S
N697 Co680 1.989 . S
N697 C696 1.342 . S
N697 N698 1.388 . S
N698 Co681 1.993 . S
N698 N697 1.388 . S
N698 C699 1.346 . S
C699 N698 1.346 . S
C699 C700 1.396 . S
C699 C709 1.510 . S
C700 C696 1.401 . S
C700 C699 1.396 . S
C701 C696 1.499 . S
C701 H702 0.959 . S
C701 H703 0.960 . S
C701 H704 0.961 . S
H702 C701 0.959 . S
H703 C701 0.960 . S
H704 C701 0.961 . S
O705 Co680 1.967 . S
O705 C713 1.258 . S
O706 Co681 1.941 . S
O706 C713 1.266 . S
H707 C709 0.959 . S
H708 C709 0.961 . S
C709 C699 1.510 . S
C709 H707 0.959 . S
C709 H708 0.961 . S
C709 H710 0.960 . S
H710 C709 0.960 . S
H711 N691 0.862 . S
O712 Co680 1.920 . S
O712 C685 1.289 . S
C713 O705 1.258 . S
C713 O706 1.266 . S
Co714 O717 1.970 . S
Co714 N731 1.989 . S
Co714 O739 1.967 . S
Co714 O746 1.920 . S
Co715 O718 1.966 . S
Co715 N724 2.022 . S
Co715 N732 1.993 . S
Co715 O740 1.941 . S
C716 O717 1.258 . S
C716 O718 1.263 . S
O717 Co714 1.970 . S
O717 C716 1.258 . S
O718 Co715 1.966 . S
O718 C716 1.263 . S
C719 O720 1.235 . S
C719 O746 1.289 . S
O720 C719 1.235 . S
C721 C723 1.400 1_655 S
C721 N724 1.351 . S
C721 C726 1.501 . S
C722 C723 1.387 . S
C722 N725 1.341 1_455 S
C723 C721 1.400 1_455 S
C723 C722 1.387 . S
N724 Co715 2.022 . S
N724 C721 1.351 . S
N724 N725 1.365 . S
N725 C722 1.341 1_655 S
N725 N724 1.365 . S
N725 H745 0.862 . S
C726 C721 1.501 . S
C726 H727 0.961 . S
C726 H728 0.961 . S
C726 H729 0.960 . S
H727 C726 0.961 . S
H728 C726 0.961 . S
H729 C726 0.960 . S
C730 N731 1.342 . S
C730 C734 1.401 . S
C730 C735 1.499 . S
N731 Co714 1.989 . S
N731 C730 1.342 . S
N731 N732 1.388 . S
N732 Co715 1.993 . S
N732 N731 1.388 . S
N732 C733 1.346 . S
C733 N732 1.346 . S
C733 C734 1.396 . S
C733 C743 1.481 1_655 S
C734 C730 1.401 . S
C734 C733 1.396 . S
C735 C730 1.499 . S
C735 H736 0.959 . S
C735 H737 0.960 . S
C735 H738 0.961 . S
H736 C735 0.959 . S
H737 C735 0.960 . S
H738 C735 0.961 . S
O739 Co714 1.967 . S
O739 C747 1.258 . S
O740 Co715 1.941 . S
O740 C747 1.266 . S
H741 C743 0.974 . S
H742 C743 0.978 . S
C743 C733 1.481 1_455 S
C743 H741 0.974 . S
C743 H742 0.978 . S
C743 H744 0.959 1_455 S
H744 C743 0.959 1_655 S
H745 N725 0.862 . S
O746 Co714 1.920 . S
O746 C719 1.289 . S
C747 O739 1.258 . S
C747 O740 1.266 . S
Co748 O751 1.970 . S
Co748 N765 1.989 . S
Co748 O773 1.967 . S
Co748 O780 1.920 . S
Co749 O752 1.966 . S
Co749 N758 2.022 . S
Co749 N766 1.993 . S
Co749 O774 1.941 . S
C750 O751 1.258 . S
C750 O752 1.263 . S
O751 Co748 1.970 . S
O751 C750 1.258 . S
O752 Co749 1.966 . S
O752 C750 1.263 . S
C753 O754 1.235 . S
C753 O780 1.289 . S
O754 C753 1.235 . S
C755 C757 1.400 . S
C755 N758 1.351 . S
C755 C760 1.501 . S
C756 C757 1.387 . S
C756 N759 1.341 . S
C757 C755 1.400 . S
C757 C756 1.387 . S
N758 Co749 2.022 . S
N758 C755 1.351 . S
N758 N759 1.365 . S
N759 C756 1.341 . S
N759 N758 1.365 . S
N759 H779 0.862 . S
C760 C755 1.501 . S
C760 H761 0.961 . S
C760 H762 0.961 . S
C760 H763 0.960 . S
H761 C760 0.961 . S
H762 C760 0.961 . S
H763 C760 0.960 . S
C764 N765 1.342 . S
C764 C768 1.401 . S
C764 C769 1.499 . S
N765 Co748 1.989 . S
N765 C764 1.342 . S
N765 N766 1.388 . S
N766 Co749 1.993 . S
N766 N765 1.388 . S
N766 C767 1.346 . S
C767 N766 1.346 . S
C767 C768 1.396 . S
C767 C777 1.510 . S
C768 C764 1.401 . S
C768 C767 1.396 . S
C769 C764 1.499 . S
C769 H770 0.959 . S
C769 H771 0.960 . S
C769 H772 0.961 . S
H770 C769 0.959 . S
H771 C769 0.960 . S
H772 C769 0.961 . S
O773 Co748 1.967 . S
O773 C781 1.258 . S
O774 Co749 1.941 . S
O774 C781 1.266 . S
H775 C777 0.959 . S
H776 C777 0.961 . S
C777 C767 1.510 . S
C777 H775 0.959 . S
C777 H776 0.961 . S
C777 H778 0.960 . S
H778 C777 0.960 . S
H779 N759 0.862 . S
O780 Co748 1.920 . S
O780 C753 1.289 . S
C781 O773 1.258 . S
C781 O774 1.266 . S
Co782 O785 1.970 . S
Co782 N799 1.989 . S
Co782 O807 1.967 . S
Co782 O814 1.920 . S
Co783 O786 1.966 . S
Co783 N792 2.022 . S
Co783 N800 1.993 . S
Co783 O808 1.941 . S
C784 O785 1.258 . S
C784 O786 1.263 . S
O785 Co782 1.970 . S
O785 C784 1.258 . S
O786 Co783 1.966 . S
O786 C784 1.263 . S
C787 O788 1.235 . S
C787 O814 1.289 . S
O788 C787 1.235 . S
C789 C791 1.400 . S
C789 N792 1.351 . S
C789 C794 1.501 . S
C790 C791 1.387 . S
C790 N793 1.341 . S
C791 C789 1.400 . S
C791 C790 1.387 . S
N792 Co783 2.022 . S
N792 C789 1.351 . S
N792 N793 1.365 . S
N793 C790 1.341 . S
N793 N792 1.365 . S
N793 H813 0.862 . S
C794 C789 1.501 . S
C794 H795 0.961 . S
C794 H796 0.961 . S
C794 H797 0.960 . S
H795 C794 0.961 . S
H796 C794 0.961 . S
H797 C794 0.960 . S
C798 N799 1.342 . S
C798 C802 1.401 . S
C798 C803 1.499 . S
N799 Co782 1.989 . S
N799 C798 1.342 . S
N799 N800 1.388 . S
N800 Co783 1.993 . S
N800 N799 1.388 . S
N800 C801 1.346 . S
C801 N800 1.346 . S
C801 C802 1.396 . S
C801 C811 1.510 . S
C802 C798 1.401 . S
C802 C801 1.396 . S
C803 C798 1.499 . S
C803 H804 0.959 . S
C803 H805 0.960 . S
C803 H806 0.961 . S
H804 C803 0.959 . S
H805 C803 0.960 . S
H806 C803 0.961 . S
O807 Co782 1.967 . S
O807 C815 1.258 . S
O808 Co783 1.941 . S
O808 C815 1.266 . S
H809 C811 0.959 . S
H810 C811 0.961 . S
C811 C801 1.510 . S
C811 H809 0.959 . S
C811 H810 0.961 . S
C811 H812 0.960 . S
H812 C811 0.960 . S
H813 N793 0.862 . S
O814 Co782 1.920 . S
O814 C787 1.289 . S
C815 O807 1.258 . S
C815 O808 1.266 . S
Co816 O819 1.970 . S
Co816 N833 1.989 . S
Co816 O841 1.967 . S
Co816 O848 1.920 . S
Co817 O820 1.966 . S
Co817 N826 2.022 . S
Co817 N834 1.993 . S
Co817 O842 1.941 . S
C818 O819 1.258 . S
C818 O820 1.263 . S
O819 Co816 1.970 . S
O819 C818 1.258 . S
O820 Co817 1.966 . S
O820 C818 1.263 . S
C821 O822 1.235 . S
C821 O848 1.289 . S
O822 C821 1.235 . S
C823 C825 1.400 . S
C823 N826 1.351 . S
C823 C828 1.501 . S
C824 C825 1.387 . S
C824 N827 1.341 . S
C825 C823 1.400 . S
C825 C824 1.387 . S
N826 Co817 2.022 . S
N826 C823 1.351 . S
N826 N827 1.365 . S
N827 C824 1.341 . S
N827 N826 1.365 . S
N827 H847 0.862 . S
C828 C823 1.501 . S
C828 H829 0.961 . S
C828 H830 0.961 . S
C828 H831 0.960 . S
H829 C828 0.961 . S
H830 C828 0.961 . S
H831 C828 0.960 . S
C832 N833 1.342 . S
C832 C836 1.401 . S
C832 C837 1.499 . S
N833 Co816 1.989 . S
N833 C832 1.342 . S
N833 N834 1.388 . S
N834 Co817 1.993 . S
N834 N833 1.388 . S
N834 C835 1.346 . S
C835 N834 1.346 . S
C835 C836 1.396 . S
C835 C845 1.510 . S
C836 C832 1.401 . S
C836 C835 1.396 . S
C837 C832 1.499 . S
C837 H838 0.959 . S
C837 H839 0.960 . S
C837 H840 0.961 . S
H838 C837 0.959 . S
H839 C837 0.960 . S
H840 C837 0.961 . S
O841 Co816 1.967 . S
O841 C849 1.258 . S
O842 Co817 1.941 . S
O842 C849 1.266 . S
H843 C845 0.959 . S
H844 C845 0.961 . S
C845 C835 1.510 . S
C845 H843 0.959 . S
C845 H844 0.961 . S
C845 H846 0.960 . S
H846 C845 0.960 . S
H847 N827 0.862 . S
O848 Co816 1.920 . S
O848 C821 1.289 . S
C849 O841 1.258 . S
C849 O842 1.266 . S
Co850 O853 1.970 . S
Co850 N867 1.989 . S
Co850 O875 1.967 . S
Co850 O882 1.920 . S
Co851 O854 1.966 . S
Co851 N860 2.022 . S
Co851 N868 1.993 . S
Co851 O876 1.941 . S
C852 O853 1.258 . S
C852 O854 1.263 . S
O853 Co850 1.970 . S
O853 C852 1.258 . S
O854 Co851 1.966 . S
O854 C852 1.263 . S
C855 O856 1.235 . S
C855 O882 1.289 . S
O856 C855 1.235 . S
C857 C859 1.400 . S
C857 N860 1.351 . S
C857 C862 1.501 . S
C858 C859 1.387 . S
C858 N861 1.341 . S
C859 C857 1.400 . S
C859 C858 1.387 . S
N860 Co851 2.022 . S
N860 C857 1.351 . S
N860 N861 1.365 . S
N861 C858 1.341 . S
N861 N860 1.365 . S
N861 H881 0.862 . S
C862 C857 1.501 . S
C862 H863 0.961 . S
C862 H864 0.961 . S
C862 H865 0.960 . S
H863 C862 0.961 . S
H864 C862 0.961 . S
H865 C862 0.960 . S
C866 N867 1.342 . S
C866 C870 1.401 . S
C866 C871 1.499 . S
N867 Co850 1.989 . S
N867 C866 1.342 . S
N867 N868 1.388 . S
N868 Co851 1.993 . S
N868 N867 1.388 . S
N868 C869 1.346 . S
C869 N868 1.346 . S
C869 C870 1.396 . S
C869 C879 1.510 . S
C870 C866 1.401 . S
C870 C869 1.396 . S
C871 C866 1.499 . S
C871 H872 0.959 . S
C871 H873 0.960 . S
C871 H874 0.961 . S
H872 C871 0.959 . S
H873 C871 0.960 . S
H874 C871 0.961 . S
O875 Co850 1.967 . S
O875 C883 1.258 . S
O876 Co851 1.941 . S
O876 C883 1.266 . S
H877 C879 0.959 . S
H878 C879 0.961 . S
C879 C869 1.510 . S
C879 H877 0.959 . S
C879 H878 0.961 . S
C879 H880 0.960 . S
H880 C879 0.960 . S
H881 N861 0.862 . S
O882 Co850 1.920 . S
O882 C855 1.289 . S
C883 O875 1.258 . S
C883 O876 1.266 . S
Co884 O887 1.970 . S
Co884 N901 1.989 . S
Co884 O909 1.967 . S
Co884 O916 1.920 . S
Co885 O888 1.966 . S
Co885 N894 2.022 . S
Co885 N902 1.993 . S
Co885 O910 1.941 . S
C886 O887 1.258 . S
C886 O888 1.263 . S
O887 Co884 1.970 . S
O887 C886 1.258 . S
O888 Co885 1.966 . S
O888 C886 1.263 . S
C889 O890 1.235 . S
C889 O916 1.289 . S
O890 C889 1.235 . S
C891 C893 1.400 . S
C891 N894 1.351 . S
C891 C896 1.501 . S
C892 C893 1.387 . S
C892 N895 1.341 . S
C893 C891 1.400 . S
C893 C892 1.387 . S
N894 Co885 2.022 . S
N894 C891 1.351 . S
N894 N895 1.365 . S
N895 C892 1.341 . S
N895 N894 1.365 . S
N895 H915 0.862 . S
C896 C891 1.501 . S
C896 H897 0.961 . S
C896 H898 0.961 . S
C896 H899 0.960 . S
H897 C896 0.961 . S
H898 C896 0.961 . S
H899 C896 0.960 . S
C900 N901 1.342 . S
C900 C904 1.401 . S
C900 C905 1.499 . S
N901 Co884 1.989 . S
N901 C900 1.342 . S
N901 N902 1.388 . S
N902 Co885 1.993 . S
N902 N901 1.388 . S
N902 C903 1.346 . S
C903 N902 1.346 . S
C903 C904 1.396 . S
C903 C913 1.510 . S
C904 C900 1.401 . S
C904 C903 1.396 . S
C905 C900 1.499 . S
C905 H906 0.959 . S
C905 H907 0.960 . S
C905 H908 0.961 . S
H906 C905 0.959 . S
H907 C905 0.960 . S
H908 C905 0.961 . S
O909 Co884 1.967 . S
O909 C917 1.258 . S
O910 Co885 1.941 . S
O910 C917 1.266 . S
H911 C913 0.959 . S
H912 C913 0.961 . S
C913 C903 1.510 . S
C913 H911 0.959 . S
C913 H912 0.961 . S
C913 H914 0.960 . S
H914 C913 0.960 . S
H915 N895 0.862 . S
O916 Co884 1.920 . S
O916 C889 1.289 . S
C917 O909 1.258 . S
C917 O910 1.266 . S
Co918 O921 1.970 . S
Co918 N935 1.989 . S
Co918 O943 1.967 . S
Co918 O950 1.920 . S
Co919 O922 1.966 . S
Co919 N928 2.022 . S
Co919 N936 1.993 . S
Co919 O944 1.941 . S
C920 O921 1.258 . S
C920 O922 1.263 . S
O921 Co918 1.970 . S
O921 C920 1.258 . S
O922 Co919 1.966 . S
O922 C920 1.263 . S
C923 O924 1.235 . S
C923 O950 1.289 . S
O924 C923 1.235 . S
C925 C927 1.400 1_455 S
C925 N928 1.351 . S
C925 C930 1.501 . S
C926 C927 1.387 . S
C926 N929 1.341 1_655 S
C927 C925 1.400 1_655 S
C927 C926 1.387 . S
N928 Co919 2.022 . S
N928 C925 1.351 . S
N928 N929 1.365 . S
N929 C926 1.341 1_455 S
N929 N928 1.365 . S
N929 H949 0.862 . S
C930 C925 1.501 . S
C930 H931 0.961 . S
C930 H932 0.961 . S
C930 H933 0.960 . S
H931 C930 0.961 . S
H932 C930 0.961 . S
H933 C930 0.960 . S
C934 N935 1.342 . S
C934 C938 1.401 . S
C934 C939 1.499 . S
N935 Co918 1.989 . S
N935 C934 1.342 . S
N935 N936 1.388 . S
N936 Co919 1.993 . S
N936 N935 1.388 . S
N936 C937 1.346 . S
C937 N936 1.346 . S
C937 C938 1.396 . S
C937 C947 1.481 1_455 S
C938 C934 1.401 . S
C938 C937 1.396 . S
C939 C934 1.499 . S
C939 H940 0.959 . S
C939 H941 0.960 . S
C939 H942 0.961 . S
H940 C939 0.959 . S
H941 C939 0.960 . S
H942 C939 0.961 . S
O943 Co918 1.967 . S
O943 C951 1.258 . S
O944 Co919 1.941 . S
O944 C951 1.266 . S
H945 C947 0.974 . S
H946 C947 0.978 . S
C947 C937 1.481 1_655 S
C947 H945 0.974 . S
C947 H946 0.978 . S
C947 H948 0.959 1_655 S
H948 C947 0.959 1_455 S
H949 N929 0.862 . S
O950 Co918 1.920 . S
O950 C923 1.289 . S
C951 O943 1.258 . S
C951 O944 1.266 . S
Co952 O955 1.970 . S
Co952 N969 1.989 . S
Co952 O977 1.967 . S
Co952 O984 1.920 . S
Co953 O956 1.966 . S
Co953 N962 2.022 . S
Co953 N970 1.993 . S
Co953 O978 1.941 . S
C954 O955 1.258 . S
C954 O956 1.263 . S
O955 Co952 1.970 . S
O955 C954 1.258 . S
O956 Co953 1.966 . S
O956 C954 1.263 . S
C957 O958 1.235 . S
C957 O984 1.289 . S
O958 C957 1.235 . S
C959 C961 1.400 . S
C959 N962 1.351 . S
C959 C964 1.501 . S
C960 C961 1.387 . S
C960 N963 1.341 . S
C961 C959 1.400 . S
C961 C960 1.387 . S
N962 Co953 2.022 . S
N962 C959 1.351 . S
N962 N963 1.365 . S
N963 C960 1.341 . S
N963 N962 1.365 . S
N963 H983 0.862 . S
C964 C959 1.501 . S
C964 H965 0.961 . S
C964 H966 0.961 . S
C964 H967 0.960 . S
H965 C964 0.961 . S
H966 C964 0.961 . S
H967 C964 0.960 . S
C968 N969 1.342 . S
C968 C972 1.401 . S
C968 C973 1.499 . S
N969 Co952 1.989 . S
N969 C968 1.342 . S
N969 N970 1.388 . S
N970 Co953 1.993 . S
N970 N969 1.388 . S
N970 C971 1.346 . S
C971 N970 1.346 . S
C971 C972 1.396 . S
C971 C981 1.510 . S
C972 C968 1.401 . S
C972 C971 1.396 . S
C973 C968 1.499 . S
C973 H974 0.959 . S
C973 H975 0.960 . S
C973 H976 0.961 . S
H974 C973 0.959 . S
H975 C973 0.960 . S
H976 C973 0.961 . S
O977 Co952 1.967 . S
O977 C985 1.258 . S
O978 Co953 1.941 . S
O978 C985 1.266 . S
H979 C981 0.959 . S
H980 C981 0.961 . S
C981 C971 1.510 . S
C981 H979 0.959 . S
C981 H980 0.961 . S
C981 H982 0.960 . S
H982 C981 0.960 . S
H983 N963 0.862 . S
O984 Co952 1.920 . S
O984 C957 1.289 . S
C985 O977 1.258 . S
C985 O978 1.266 . S
Co986 O989 1.970 . S
Co986 N1003 1.989 . S
Co986 O1011 1.967 . S
Co986 O1018 1.920 . S
Co987 O990 1.966 . S
Co987 N996 2.022 . S
Co987 N1004 1.993 . S
Co987 O1012 1.941 . S
C988 O989 1.258 . S
C988 O990 1.263 . S
O989 Co986 1.970 . S
O989 C988 1.258 . S
O990 Co987 1.966 . S
O990 C988 1.263 . S
C991 O992 1.235 . S
C991 O1018 1.289 . S
O992 C991 1.235 . S
C993 C995 1.400 1_455 S
C993 N996 1.351 . S
C993 C998 1.501 . S
C994 C995 1.387 . S
C994 N997 1.341 1_655 S
C995 C993 1.400 1_655 S
C995 C994 1.387 . S
N996 Co987 2.022 . S
N996 C993 1.351 . S
N996 N997 1.365 . S
N997 C994 1.341 1_455 S
N997 N996 1.365 . S
N997 H1017 0.862 . S
C998 C993 1.501 . S
C998 H999 0.961 . S
C998 H1000 0.961 . S
C998 H1001 0.960 . S
H999 C998 0.961 . S
H1000 C998 0.961 . S
H1001 C998 0.960 . S
C1002 N1003 1.342 . S
C1002 C1006 1.401 . S
C1002 C1007 1.499 . S
N1003 Co986 1.989 . S
N1003 C1002 1.342 . S
N1003 N1004 1.388 . S
N1004 Co987 1.993 . S
N1004 N1003 1.388 . S
N1004 C1005 1.346 . S
C1005 N1004 1.346 . S
C1005 C1006 1.396 . S
C1005 C1015 1.481 1_455 S
C1006 C1002 1.401 . S
C1006 C1005 1.396 . S
C1007 C1002 1.499 . S
C1007 H1008 0.959 . S
C1007 H1009 0.960 . S
C1007 H1010 0.961 . S
H1008 C1007 0.959 . S
H1009 C1007 0.960 . S
H1010 C1007 0.961 . S
O1011 Co986 1.967 . S
O1011 C1019 1.258 . S
O1012 Co987 1.941 . S
O1012 C1019 1.266 . S
H1013 C1015 0.974 . S
H1014 C1015 0.978 . S
C1015 C1005 1.481 1_655 S
C1015 H1013 0.974 . S
C1015 H1014 0.978 . S
C1015 H1016 0.959 1_655 S
H1016 C1015 0.959 1_455 S
H1017 N997 0.862 . S
O1018 Co986 1.920 . S
O1018 C991 1.289 . S
C1019 O1011 1.258 . S
C1019 O1012 1.266 . S
Co1020 O1023 1.970 . S
Co1020 N1037 1.989 . S
Co1020 O1045 1.967 . S
Co1020 O1052 1.920 . S
Co1021 O1024 1.966 . S
Co1021 N1030 2.022 . S
Co1021 N1038 1.993 . S
Co1021 O1046 1.941 . S
C1022 O1023 1.258 . S
C1022 O1024 1.263 . S
O1023 Co1020 1.970 . S
O1023 C1022 1.258 . S
O1024 Co1021 1.966 . S
O1024 C1022 1.263 . S
C1025 O1026 1.235 . S
C1025 O1052 1.289 . S
O1026 C1025 1.235 . S
C1027 C1029 1.400 . S
C1027 N1030 1.351 . S
C1027 C1032 1.501 . S
C1028 C1029 1.387 . S
C1028 N1031 1.341 . S
C1029 C1027 1.400 . S
C1029 C1028 1.387 . S
N1030 Co1021 2.022 . S
N1030 C1027 1.351 . S
N1030 N1031 1.365 . S
N1031 C1028 1.341 . S
N1031 N1030 1.365 . S
N1031 H1051 0.862 . S
C1032 C1027 1.501 . S
C1032 H1033 0.961 . S
C1032 H1034 0.961 . S
C1032 H1035 0.960 . S
H1033 C1032 0.961 . S
H1034 C1032 0.961 . S
H1035 C1032 0.960 . S
C1036 N1037 1.342 . S
C1036 C1040 1.401 . S
C1036 C1041 1.499 . S
N1037 Co1020 1.989 . S
N1037 C1036 1.342 . S
N1037 N1038 1.388 . S
N1038 Co1021 1.993 . S
N1038 N1037 1.388 . S
N1038 C1039 1.346 . S
C1039 N1038 1.346 . S
C1039 C1040 1.396 . S
C1039 C1049 1.510 . S
C1040 C1036 1.401 . S
C1040 C1039 1.396 . S
C1041 C1036 1.499 . S
C1041 H1042 0.959 . S
C1041 H1043 0.960 . S
C1041 H1044 0.961 . S
H1042 C1041 0.959 . S
H1043 C1041 0.960 . S
H1044 C1041 0.961 . S
O1045 Co1020 1.967 . S
O1045 C1053 1.258 . S
O1046 Co1021 1.941 . S
O1046 C1053 1.266 . S
H1047 C1049 0.959 . S
H1048 C1049 0.961 . S
C1049 C1039 1.510 . S
C1049 H1047 0.959 . S
C1049 H1048 0.961 . S
C1049 H1050 0.960 . S
H1050 C1049 0.960 . S
H1051 N1031 0.862 . S
O1052 Co1020 1.920 . S
O1052 C1025 1.289 . S
C1053 O1045 1.258 . S
C1053 O1046 1.266 . S
Co1054 O1057 1.970 . S
Co1054 N1071 1.989 . S
Co1054 O1079 1.967 . S
Co1054 O1086 1.920 . S
Co1055 O1058 1.966 . S
Co1055 N1064 2.022 . S
Co1055 N1072 1.993 . S
Co1055 O1080 1.941 . S
C1056 O1057 1.258 . S
C1056 O1058 1.263 . S
O1057 Co1054 1.970 . S
O1057 C1056 1.258 . S
O1058 Co1055 1.966 . S
O1058 C1056 1.263 . S
C1059 O1060 1.235 . S
C1059 O1086 1.289 . S
O1060 C1059 1.235 . S
C1061 C1063 1.400 . S
C1061 N1064 1.351 . S
C1061 C1066 1.501 . S
C1062 C1063 1.387 . S
C1062 N1065 1.341 . S
C1063 C1061 1.400 . S
C1063 C1062 1.387 . S
N1064 Co1055 2.022 . S
N1064 C1061 1.351 . S
N1064 N1065 1.365 . S
N1065 C1062 1.341 . S
N1065 N1064 1.365 . S
N1065 H1085 0.862 . S
C1066 C1061 1.501 . S
C1066 H1067 0.961 . S
C1066 H1068 0.961 . S
C1066 H1069 0.960 . S
H1067 C1066 0.961 . S
H1068 C1066 0.961 . S
H1069 C1066 0.960 . S
C1070 N1071 1.342 . S
C1070 C1074 1.401 . S
C1070 C1075 1.499 . S
N1071 Co1054 1.989 . S
N1071 C1070 1.342 . S
N1071 N1072 1.388 . S
N1072 Co1055 1.993 . S
N1072 N1071 1.388 . S
N1072 C1073 1.346 . S
C1073 N1072 1.346 . S
C1073 C1074 1.396 . S
C1073 C1083 1.510 . S
C1074 C1070 1.401 . S
C1074 C1073 1.396 . S
C1075 C1070 1.499 . S
C1075 H1076 0.959 . S
C1075 H1077 0.960 . S
C1075 H1078 0.961 . S
H1076 C1075 0.959 . S
H1077 C1075 0.960 . S
H1078 C1075 0.961 . S
O1079 Co1054 1.967 . S
O1079 C1087 1.258 . S
O1080 Co1055 1.941 . S
O1080 C1087 1.266 . S
H1081 C1083 0.959 . S
H1082 C1083 0.961 . S
C1083 C1073 1.510 . S
C1083 H1081 0.959 . S
C1083 H1082 0.961 . S
C1083 H1084 0.960 . S
H1084 C1083 0.960 . S
H1085 N1065 0.862 . S
O1086 Co1054 1.920 . S
O1086 C1059 1.289 . S
C1087 O1079 1.258 . S
C1087 O1080 1.266 . S
C1088 C1089 1.363 . S
C1088 C1094 1.379 . S
C1088 N1096 1.356 . S
C1089 C1088 1.363 . S
C1089 C1095 1.363 . S
C1090 C1091 1.363 . S
C1090 C1095 1.379 . S
C1090 N1097 1.356 . S
C1091 C1090 1.363 . S
C1091 C1094 1.363 . S
N1092 C1094 1.356 . S
N1092 H1104 0.984 . S
N1092 H1105 0.985 . S
N1093 C1095 1.356 . S
N1093 H1098 0.984 . S
N1093 H1099 0.985 . S
C1094 C1088 1.379 . S
C1094 C1091 1.363 . S
C1094 N1092 1.356 . S
C1095 C1089 1.363 . S
C1095 C1090 1.379 . S
C1095 N1093 1.356 . S
N1096 C1088 1.356 . S
N1096 H1102 0.984 . S
N1096 H1103 0.984 . S
N1097 C1090 1.356 . S
N1097 H1100 0.984 . S
N1097 H1101 0.985 . S
H1098 N1093 0.984 . S
H1099 N1093 0.985 . S
H1100 N1097 0.984 . S
H1101 N1097 0.985 . S
H1102 N1096 0.984 . S
H1103 N1096 0.984 . S
H1104 N1092 0.984 . S
H1105 N1092 0.985 . S
C1106 C1107 1.363 . S
C1106 C1112 1.379 . S
C1106 N1114 1.356 . S
C1107 C1106 1.363 . S
C1107 C1113 1.363 . S
C1108 C1109 1.363 . S
C1108 C1113 1.379 . S
C1108 N1115 1.356 . S
C1109 C1108 1.363 . S
C1109 C1112 1.363 . S
N1110 C1112 1.356 . S
N1110 H1122 0.984 . S
N1110 H1123 0.985 . S
N1111 C1113 1.356 . S
N1111 H1116 0.984 . S
N1111 H1117 0.985 . S
C1112 C1106 1.379 . S
C1112 C1109 1.363 . S
C1112 N1110 1.356 . S
C1113 C1107 1.363 . S
C1113 C1108 1.379 . S
C1113 N1111 1.356 . S
N1114 C1106 1.356 . S
N1114 H1120 0.984 . S
N1114 H1121 0.984 . S
N1115 C1108 1.356 . S
N1115 H1118 0.984 . S
N1115 H1119 0.985 . S
H1116 N1111 0.984 . S
H1117 N1111 0.985 . S
H1118 N1115 0.984 . S
H1119 N1115 0.985 . S
H1120 N1114 0.984 . S
H1121 N1114 0.984 . S
H1122 N1110 0.984 . S
H1123 N1110 0.985 . S
C1124 C1125 1.363 . S
C1124 C1130 1.379 . S
C1124 N1132 1.356 . S
C1125 C1124 1.363 . S
C1125 C1131 1.363 . S
C1126 C1127 1.363 . S
C1126 C1131 1.379 . S
C1126 N1133 1.356 . S
C1127 C1126 1.363 . S
C1127 C1130 1.363 . S
N1128 C1130 1.356 . S
N1128 H1140 0.984 . S
N1128 H1141 0.985 . S
N1129 C1131 1.356 . S
N1129 H1134 0.984 . S
N1129 H1135 0.985 . S
C1130 C1124 1.379 . S
C1130 C1127 1.363 . S
C1130 N1128 1.356 . S
C1131 C1125 1.363 . S
C1131 C1126 1.379 . S
C1131 N1129 1.356 . S
N1132 C1124 1.356 . S
N1132 H1138 0.984 . S
N1132 H1139 0.984 . S
N1133 C1126 1.356 . S
N1133 H1136 0.984 . S
N1133 H1137 0.985 . S
H1134 N1129 0.984 . S
H1135 N1129 0.985 . S
H1136 N1133 0.984 . S
H1137 N1133 0.985 . S
H1138 N1132 0.984 . S
H1139 N1132 0.984 . S
H1140 N1128 0.984 . S
H1141 N1128 0.985 . S
C1142 C1143 1.363 . S
C1142 C1148 1.379 . S
C1142 N1150 1.356 . S
C1143 C1142 1.363 . S
C1143 C1149 1.363 . S
C1144 C1145 1.363 . S
C1144 C1149 1.379 . S
C1144 N1151 1.356 . S
C1145 C1144 1.363 . S
C1145 C1148 1.363 . S
N1146 C1148 1.356 . S
N1146 H1158 0.984 . S
N1146 H1159 0.985 . S
N1147 C1149 1.356 . S
N1147 H1152 0.984 . S
N1147 H1153 0.985 . S
C1148 C1142 1.379 . S
C1148 C1145 1.363 . S
C1148 N1146 1.356 . S
C1149 C1143 1.363 . S
C1149 C1144 1.379 . S
C1149 N1147 1.356 . S
N1150 C1142 1.356 . S
N1150 H1156 0.984 . S
N1150 H1157 0.984 . S
N1151 C1144 1.356 . S
N1151 H1154 0.984 . S
N1151 H1155 0.985 . S
H1152 N1147 0.984 . S
H1153 N1147 0.985 . S
H1154 N1151 0.984 . S
H1155 N1151 0.985 . S
H1156 N1150 0.984 . S
H1157 N1150 0.984 . S
H1158 N1146 0.984 . S
H1159 N1146 0.985 . S
C1160 C1161 1.363 . S
C1160 C1166 1.379 . S
C1160 N1168 1.356 . S
C1161 C1160 1.363 . S
C1161 C1167 1.363 . S
C1162 C1163 1.363 . S
C1162 C1167 1.379 . S
C1162 N1169 1.356 . S
C1163 C1162 1.363 . S
C1163 C1166 1.363 . S
N1164 C1166 1.356 . S
N1164 H1176 0.984 . S
N1164 H1177 0.985 . S
N1165 C1167 1.356 . S
N1165 H1170 0.984 . S
N1165 H1171 0.985 . S
C1166 C1160 1.379 . S
C1166 C1163 1.363 . S
C1166 N1164 1.356 . S
C1167 C1161 1.363 . S
C1167 C1162 1.379 . S
C1167 N1165 1.356 . S
N1168 C1160 1.356 . S
N1168 H1174 0.984 . S
N1168 H1175 0.984 . S
N1169 C1162 1.356 . S
N1169 H1172 0.984 . S
N1169 H1173 0.985 . S
H1170 N1165 0.984 . S
H1171 N1165 0.985 . S
H1172 N1169 0.984 . S
H1173 N1169 0.985 . S
H1174 N1168 0.984 . S
H1175 N1168 0.984 . S
H1176 N1164 0.984 . S
H1177 N1164 0.985 . S
C1178 C1179 1.363 . S
C1178 C1184 1.379 . S
C1178 N1186 1.356 . S
C1179 C1178 1.363 . S
C1179 C1185 1.363 . S
C1180 C1181 1.363 . S
C1180 C1185 1.379 . S
C1180 N1187 1.356 . S
C1181 C1180 1.363 . S
C1181 C1184 1.363 . S
N1182 C1184 1.356 . S
N1182 H1194 0.984 . S
N1182 H1195 0.985 . S
N1183 C1185 1.356 . S
N1183 H1188 0.984 . S
N1183 H1189 0.985 . S
C1184 C1178 1.379 . S
C1184 C1181 1.363 . S
C1184 N1182 1.356 . S
C1185 C1179 1.363 . S
C1185 C1180 1.379 . S
C1185 N1183 1.356 . S
N1186 C1178 1.356 . S
N1186 H1192 0.984 . S
N1186 H1193 0.984 . S
N1187 C1180 1.356 . S
N1187 H1190 0.984 . S
N1187 H1191 0.985 . S
H1188 N1183 0.984 . S
H1189 N1183 0.985 . S
H1190 N1187 0.984 . S
H1191 N1187 0.985 . S
H1192 N1186 0.984 . S
H1193 N1186 0.984 . S
H1194 N1182 0.984 . S
H1195 N1182 0.985 . S
C1196 C1197 1.363 . S
C1196 C1202 1.379 . S
C1196 N1204 1.356 . S
C1197 C1196 1.363 . S
C1197 C1203 1.363 . S
C1198 C1199 1.363 . S
C1198 C1203 1.379 . S
C1198 N1205 1.356 . S
C1199 C1198 1.363 . S
C1199 C1202 1.363 . S
N1200 C1202 1.356 . S
N1200 H1212 0.984 . S
N1200 H1213 0.985 . S
N1201 C1203 1.356 . S
N1201 H1206 0.984 . S
N1201 H1207 0.985 . S
C1202 C1196 1.379 . S
C1202 C1199 1.363 . S
C1202 N1200 1.356 . S
C1203 C1197 1.363 . S
C1203 C1198 1.379 . S
C1203 N1201 1.356 . S
N1204 C1196 1.356 . S
N1204 H1210 0.984 . S
N1204 H1211 0.984 . S
N1205 C1198 1.356 . S
N1205 H1208 0.984 . S
N1205 H1209 0.985 . S
H1206 N1201 0.984 . S
H1207 N1201 0.985 . S
H1208 N1205 0.984 . S
H1209 N1205 0.985 . S
H1210 N1204 0.984 . S
H1211 N1204 0.984 . S
H1212 N1200 0.984 . S
H1213 N1200 0.985 . S
C1214 C1215 1.363 . S
C1214 C1220 1.379 . S
C1214 N1222 1.356 . S
C1215 C1214 1.363 . S
C1215 C1221 1.363 . S
C1216 C1217 1.363 . S
C1216 C1221 1.379 . S
C1216 N1223 1.356 . S
C1217 C1216 1.363 . S
C1217 C1220 1.363 . S
N1218 C1220 1.356 . S
N1218 H1230 0.984 . S
N1218 H1231 0.985 . S
N1219 C1221 1.356 . S
N1219 H1224 0.984 . S
N1219 H1225 0.985 . S
C1220 C1214 1.379 . S
C1220 C1217 1.363 . S
C1220 N1218 1.356 . S
C1221 C1215 1.363 . S
C1221 C1216 1.379 . S
C1221 N1219 1.356 . S
N1222 C1214 1.356 . S
N1222 H1228 0.984 . S
N1222 H1229 0.984 . S
N1223 C1216 1.356 . S
N1223 H1226 0.984 . S
N1223 H1227 0.985 1_545 S
H1224 N1219 0.984 . S
H1225 N1219 0.985 . S
H1226 N1223 0.984 . S
H1227 N1223 0.985 1_565 S
H1228 N1222 0.984 . S
H1229 N1222 0.984 . S
H1230 N1218 0.984 . S
H1231 N1218 0.985 . S
C1232 C1233 1.363 . S
C1232 C1238 1.379 . S
C1232 N1240 1.356 . S
C1233 C1232 1.363 . S
C1233 C1239 1.363 . S
C1234 C1235 1.363 . S
C1234 C1239 1.379 . S
C1234 N1241 1.356 . S
C1235 C1234 1.363 . S
C1235 C1238 1.363 . S
N1236 C1238 1.356 . S
N1236 H1248 0.984 . S
N1236 H1249 0.985 . S
N1237 C1239 1.356 . S
N1237 H1242 0.984 . S
N1237 H1243 0.985 . S
C1238 C1232 1.379 . S
C1238 C1235 1.363 . S
C1238 N1236 1.356 . S
C1239 C1233 1.363 . S
C1239 C1234 1.379 . S
C1239 N1237 1.356 . S
N1240 C1232 1.356 . S
N1240 H1246 0.984 . S
N1240 H1247 0.984 . S
N1241 C1234 1.356 . S
N1241 H1244 0.984 . S
N1241 H1245 0.985 . S
H1242 N1237 0.984 . S
H1243 N1237 0.985 . S
H1244 N1241 0.984 . S
H1245 N1241 0.985 . S
H1246 N1240 0.984 . S
H1247 N1240 0.984 . S
H1248 N1236 0.984 . S
H1249 N1236 0.985 . S
C1250 C1251 1.363 . S
C1250 C1256 1.379 . S
C1250 N1258 1.356 . S
C1251 C1250 1.363 . S
C1251 C1257 1.363 . S
C1252 C1253 1.363 . S
C1252 C1257 1.379 . S
C1252 N1259 1.356 . S
C1253 C1252 1.363 . S
C1253 C1256 1.363 . S
N1254 C1256 1.356 . S
N1254 H1266 0.984 . S
N1254 H1267 0.985 . S
N1255 C1257 1.356 . S
N1255 H1260 0.984 . S
N1255 H1261 0.972 1_545 S
C1256 C1250 1.379 . S
C1256 C1253 1.363 . S
C1256 N1254 1.356 . S
C1257 C1251 1.363 . S
C1257 C1252 1.379 . S
C1257 N1255 1.356 . S
N1258 C1250 1.356 . S
N1258 H1264 0.984 . S
N1258 H1265 0.984 . S
N1259 C1252 1.356 . S
N1259 H1262 0.984 . S
N1259 H1263 0.985 . S
H1260 N1255 0.984 . S
H1261 N1255 0.972 1_565 S
H1262 N1259 0.984 . S
H1263 N1259 0.985 . S
H1264 N1258 0.984 . S
H1265 N1258 0.984 . S
H1266 N1254 0.984 . S
H1267 N1254 0.985 . S
C1268 C1269 1.363 . S
C1268 C1274 1.379 . S
C1268 N1276 1.356 . S
C1269 C1268 1.363 . S
C1269 C1275 1.363 . S
C1270 C1271 1.363 . S
C1270 C1275 1.379 . S
C1270 N1277 1.356 . S
C1271 C1270 1.363 . S
C1271 C1274 1.363 . S
N1272 C1274 1.356 . S
N1272 H1284 0.984 . S
N1272 H1285 0.985 . S
N1273 C1275 1.356 . S
N1273 H1278 0.984 . S
N1273 H1279 0.985 . S
C1274 C1268 1.379 . S
C1274 C1271 1.363 . S
C1274 N1272 1.356 . S
C1275 C1269 1.363 . S
C1275 C1270 1.379 . S
C1275 N1273 1.356 . S
N1276 C1268 1.356 . S
N1276 H1282 0.984 . S
N1276 H1283 0.984 . S
N1277 C1270 1.356 . S
N1277 H1280 0.984 . S
N1277 H1281 0.985 . S
H1278 N1273 0.984 . S
H1279 N1273 0.985 . S
H1280 N1277 0.984 . S
H1281 N1277 0.985 . S
H1282 N1276 0.984 . S
H1283 N1276 0.984 . S
H1284 N1272 0.984 . S
H1285 N1272 0.985 . S
C1286 C1287 1.363 . S
C1286 C1292 1.379 . S
C1286 N1294 1.356 . S
C1287 C1286 1.363 . S
C1287 C1293 1.363 . S
C1288 C1289 1.363 . S
C1288 C1293 1.379 . S
C1288 N1295 1.356 . S
C1289 C1288 1.363 . S
C1289 C1292 1.363 . S
N1290 C1292 1.356 . S
N1290 H1302 0.984 . S
N1290 H1303 0.985 . S
N1291 C1293 1.356 . S
N1291 H1296 0.984 . S
N1291 H1297 0.985 . S
C1292 C1286 1.379 . S
C1292 C1289 1.363 . S
C1292 N1290 1.356 . S
C1293 C1287 1.363 . S
C1293 C1288 1.379 . S
C1293 N1291 1.356 . S
N1294 C1286 1.356 . S
N1294 H1300 0.984 . S
N1294 H1301 0.984 . S
N1295 C1288 1.356 . S
N1295 H1298 0.984 . S
N1295 H1299 0.985 . S
H1296 N1291 0.984 . S
H1297 N1291 0.985 . S
H1298 N1295 0.984 . S
H1299 N1295 0.985 . S
H1300 N1294 0.984 . S
H1301 N1294 0.984 . S
H1302 N1290 0.984 . S
H1303 N1290 0.985 . S
C1304 C1305 1.363 . S
C1304 C1310 1.379 . S
C1304 N1312 1.356 . S
C1305 C1304 1.363 . S
C1305 C1311 1.363 . S
C1306 C1307 1.363 . S
C1306 C1311 1.379 . S
C1306 N1313 1.356 . S
C1307 C1306 1.363 . S
C1307 C1310 1.363 . S
N1308 C1310 1.356 . S
N1308 H1320 0.984 . S
N1308 H1321 0.985 . S
N1309 C1311 1.356 . S
N1309 H1314 0.984 . S
N1309 H1315 0.985 . S
C1310 C1304 1.379 . S
C1310 C1307 1.363 . S
C1310 N1308 1.356 . S
C1311 C1305 1.363 . S
C1311 C1306 1.379 . S
C1311 N1309 1.356 . S
N1312 C1304 1.356 . S
N1312 H1318 0.984 . S
N1312 H1319 0.984 . S
N1313 C1306 1.356 . S
N1313 H1316 0.984 . S
N1313 H1317 0.985 . S
H1314 N1309 0.984 . S
H1315 N1309 0.985 . S
H1316 N1313 0.984 . S
H1317 N1313 0.985 . S
H1318 N1312 0.984 . S
H1319 N1312 0.984 . S
H1320 N1308 0.984 . S
H1321 N1308 0.985 . S
C1322 C1323 1.363 . S
C1322 C1328 1.379 . S
C1322 N1330 1.356 . S
C1323 C1322 1.363 . S
C1323 C1329 1.363 . S
C1324 C1325 1.363 . S
C1324 C1329 1.379 . S
C1324 N1331 1.356 . S
C1325 C1324 1.363 . S
C1325 C1328 1.363 . S
N1326 C1328 1.356 . S
N1326 H1338 0.984 . S
N1326 H1339 0.985 . S
N1327 C1329 1.356 . S
N1327 H1332 0.984 . S
N1327 H1333 0.985 . S
C1328 C1322 1.379 . S
C1328 C1325 1.363 . S
C1328 N1326 1.356 . S
C1329 C1323 1.363 . S
C1329 C1324 1.379 . S
C1329 N1327 1.356 . S
N1330 C1322 1.356 . S
N1330 H1336 0.984 . S
N1330 H1337 0.984 . S
N1331 C1324 1.356 . S
N1331 H1334 0.984 . S
N1331 H1335 0.985 . S
H1332 N1327 0.984 . S
H1333 N1327 0.985 . S
H1334 N1331 0.984 . S
H1335 N1331 0.985 . S
H1336 N1330 0.984 . S
H1337 N1330 0.984 . S
H1338 N1326 0.984 . S
H1339 N1326 0.985 . S
C1340 C1341 1.363 . S
C1340 C1346 1.379 . S
C1340 N1348 1.356 . S
C1341 C1340 1.363 . S
C1341 C1347 1.363 . S
C1342 C1343 1.363 . S
C1342 C1347 1.379 . S
C1342 N1349 1.356 . S
C1343 C1342 1.363 . S
C1343 C1346 1.363 . S
N1344 C1346 1.356 . S
N1344 H1356 0.984 . S
N1344 H1357 0.985 . S
N1345 C1347 1.356 . S
N1345 H1350 0.984 . S
N1345 H1351 0.985 . S
C1346 C1340 1.379 . S
C1346 C1343 1.363 . S
C1346 N1344 1.356 . S
C1347 C1341 1.363 . S
C1347 C1342 1.379 . S
C1347 N1345 1.356 . S
N1348 C1340 1.356 . S
N1348 H1354 0.984 . S
N1348 H1355 0.984 . S
N1349 C1342 1.356 . S
N1349 H1352 0.984 . S
N1349 H1353 0.985 . S
H1350 N1345 0.984 . S
H1351 N1345 0.985 . S
H1352 N1349 0.984 . S
H1353 N1349 0.985 . S
H1354 N1348 0.984 . S
H1355 N1348 0.984 . S
H1356 N1344 0.984 . S
H1357 N1344 0.985 . S
C1358 C1359 1.363 . S
C1358 C1364 1.379 . S
C1358 N1366 1.356 . S
C1359 C1358 1.363 . S
C1359 C1365 1.363 . S
C1360 C1361 1.363 . S
C1360 C1365 1.379 . S
C1360 N1367 1.356 . S
C1361 C1360 1.363 . S
C1361 C1364 1.363 . S
N1362 C1364 1.356 . S
N1362 H1374 0.984 . S
N1362 H1375 0.985 . S
N1363 C1365 1.356 . S
N1363 H1368 0.984 . S
N1363 H1369 0.985 . S
C1364 C1358 1.379 . S
C1364 C1361 1.363 . S
C1364 N1362 1.356 . S
C1365 C1359 1.363 . S
C1365 C1360 1.379 . S
C1365 N1363 1.356 . S
N1366 C1358 1.356 . S
N1366 H1372 0.984 . S
N1366 H1373 0.984 . S
N1367 C1360 1.356 . S
N1367 H1370 0.984 . S
N1367 H1371 0.985 . S
H1368 N1363 0.984 . S
H1369 N1363 0.985 . S
H1370 N1367 0.984 . S
H1371 N1367 0.985 . S
H1372 N1366 0.984 . S
H1373 N1366 0.984 . S
H1374 N1362 0.984 . S
H1375 N1362 0.985 . S
C1376 C1377 1.363 . S
C1376 C1382 1.379 . S
C1376 N1384 1.356 . S
C1377 C1376 1.363 . S
C1377 C1383 1.363 . S
C1378 C1379 1.363 . S
C1378 C1383 1.379 . S
C1378 N1385 1.356 . S
C1379 C1378 1.363 . S
C1379 C1382 1.363 . S
N1380 C1382 1.356 . S
N1380 H1392 0.984 . S
N1380 H1393 0.985 . S
N1381 C1383 1.356 . S
N1381 H1386 0.984 . S
N1381 H1387 0.985 . S
C1382 C1376 1.379 . S
C1382 C1379 1.363 . S
C1382 N1380 1.356 . S
C1383 C1377 1.363 . S
C1383 C1378 1.379 . S
C1383 N1381 1.356 . S
N1384 C1376 1.356 . S
N1384 H1390 0.984 . S
N1384 H1391 0.984 . S
N1385 C1378 1.356 . S
N1385 H1388 0.984 . S
N1385 H1389 0.985 . S
H1386 N1381 0.984 . S
H1387 N1381 0.985 . S
H1388 N1385 0.984 . S
H1389 N1385 0.985 . S
H1390 N1384 0.984 . S
H1391 N1384 0.984 . S
H1392 N1380 0.984 . S
H1393 N1380 0.985 . S
C1394 C1395 1.363 . S
C1394 C1400 1.379 . S
C1394 N1402 1.356 . S
C1395 C1394 1.363 . S
C1395 C1401 1.363 . S
C1396 C1397 1.363 . S
C1396 C1401 1.379 . S
C1396 N1403 1.356 . S
C1397 C1396 1.363 . S
C1397 C1400 1.363 . S
N1398 C1400 1.356 . S
N1398 H1410 0.984 . S
N1398 H1411 0.985 . S
N1399 C1401 1.356 . S
N1399 H1404 0.984 . S
N1399 H1405 0.985 . S
C1400 C1394 1.379 . S
C1400 C1397 1.363 . S
C1400 N1398 1.356 . S
C1401 C1395 1.363 . S
C1401 C1396 1.379 . S
C1401 N1399 1.356 . S
N1402 C1394 1.356 . S
N1402 H1408 0.984 . S
N1402 H1409 0.984 . S
N1403 C1396 1.356 . S
N1403 H1406 0.984 . S
N1403 H1407 0.985 . S
H1404 N1399 0.984 . S
H1405 N1399 0.985 . S
H1406 N1403 0.984 . S
H1407 N1403 0.985 . S
H1408 N1402 0.984 . S
H1409 N1402 0.984 . S
H1410 N1398 0.984 . S
H1411 N1398 0.985 . S
C1412 C1413 1.363 . S
C1412 C1418 1.379 . S
C1412 N1420 1.356 . S
C1413 C1412 1.363 . S
C1413 C1419 1.363 . S
C1414 C1415 1.363 . S
C1414 C1419 1.379 . S
C1414 N1421 1.356 . S
C1415 C1414 1.363 . S
C1415 C1418 1.363 . S
N1416 C1418 1.356 . S
N1416 H1428 0.984 . S
N1416 H1429 0.985 . S
N1417 C1419 1.356 . S
N1417 H1422 0.984 . S
N1417 H1423 0.985 . S
C1418 C1412 1.379 . S
C1418 C1415 1.363 . S
C1418 N1416 1.356 . S
C1419 C1413 1.363 . S
C1419 C1414 1.379 . S
C1419 N1417 1.356 . S
N1420 C1412 1.356 . S
N1420 H1426 0.984 . S
N1420 H1427 0.984 . S
N1421 C1414 1.356 . S
N1421 H1424 0.984 . S
N1421 H1425 0.985 . S
H1422 N1417 0.984 . S
H1423 N1417 0.985 . S
H1424 N1421 0.984 . S
H1425 N1421 0.985 . S
H1426 N1420 0.984 . S
H1427 N1420 0.984 . S
H1428 N1416 0.984 . S
H1429 N1416 0.985 . S
C1430 C1431 1.363 . S
C1430 C1436 1.379 . S
C1430 N1438 1.356 . S
C1431 C1430 1.363 . S
C1431 C1437 1.363 . S
C1432 C1433 1.363 . S
C1432 C1437 1.379 . S
C1432 N1439 1.356 . S
C1433 C1432 1.363 . S
C1433 C1436 1.363 . S
N1434 C1436 1.356 . S
N1434 H1446 0.984 . S
N1434 H1447 0.985 . S
N1435 C1437 1.356 . S
N1435 H1440 0.984 . S
N1435 H1441 0.985 . S
C1436 C1430 1.379 . S
C1436 C1433 1.363 . S
C1436 N1434 1.356 . S
C1437 C1431 1.363 . S
C1437 C1432 1.379 . S
C1437 N1435 1.356 . S
N1438 C1430 1.356 . S
N1438 H1444 0.984 . S
N1438 H1445 0.984 . S
N1439 C1432 1.356 . S
N1439 H1442 0.984 . S
N1439 H1443 0.985 . S
H1440 N1435 0.984 . S
H1441 N1435 0.985 . S
H1442 N1439 0.984 . S
H1443 N1439 0.985 . S
H1444 N1438 0.984 . S
H1445 N1438 0.984 . S
H1446 N1434 0.984 . S
H1447 N1434 0.985 . S
C1448 C1449 1.363 . S
C1448 C1454 1.379 . S
C1448 N1456 1.356 . S
C1449 C1448 1.363 . S
C1449 C1455 1.363 . S
C1450 C1451 1.363 . S
C1450 C1455 1.379 . S
C1450 N1457 1.356 . S
C1451 C1450 1.363 . S
C1451 C1454 1.363 . S
N1452 C1454 1.356 . S
N1452 H1464 0.984 . S
N1452 H1465 0.985 . S
N1453 C1455 1.356 . S
N1453 H1458 0.984 . S
N1453 H1459 0.985 . S
C1454 C1448 1.379 . S
C1454 C1451 1.363 . S
C1454 N1452 1.356 . S
C1455 C1449 1.363 . S
C1455 C1450 1.379 . S
C1455 N1453 1.356 . S
N1456 C1448 1.356 . S
N1456 H1462 0.984 . S
N1456 H1463 0.984 . S
N1457 C1450 1.356 . S
N1457 H1460 0.984 . S
N1457 H1461 0.985 . S
H1458 N1453 0.984 . S
H1459 N1453 0.985 . S
H1460 N1457 0.984 . S
H1461 N1457 0.985 . S
H1462 N1456 0.984 . S
H1463 N1456 0.984 . S
H1464 N1452 0.984 . S
H1465 N1452 0.985 . S
C1466 C1467 1.363 . S
C1466 C1472 1.379 . S
C1466 N1474 1.356 . S
C1467 C1466 1.363 . S
C1467 C1473 1.363 . S
C1468 C1469 1.363 . S
C1468 C1473 1.379 . S
C1468 N1475 1.356 . S
C1469 C1468 1.363 . S
C1469 C1472 1.363 . S
N1470 C1472 1.356 . S
N1470 H1482 0.984 . S
N1470 H1483 0.985 . S
N1471 C1473 1.356 . S
N1471 H1476 0.984 . S
N1471 H1477 0.985 . S
C1472 C1466 1.379 . S
C1472 C1469 1.363 . S
C1472 N1470 1.356 . S
C1473 C1467 1.363 . S
C1473 C1468 1.379 . S
C1473 N1471 1.356 . S
N1474 C1466 1.356 . S
N1474 H1480 0.984 . S
N1474 H1481 0.984 . S
N1475 C1468 1.356 . S
N1475 H1478 0.984 . S
N1475 H1479 0.985 . S
H1476 N1471 0.984 . S
H1477 N1471 0.985 . S
H1478 N1475 0.984 . S
H1479 N1475 0.985 . S
H1480 N1474 0.984 . S
H1481 N1474 0.984 . S
H1482 N1470 0.984 . S
H1483 N1470 0.985 . S
C1484 C1485 1.363 . S
C1484 C1490 1.379 . S
C1484 N1492 1.356 . S
C1485 C1484 1.363 . S
C1485 C1491 1.363 . S
C1486 C1487 1.363 . S
C1486 C1491 1.379 . S
C1486 N1493 1.356 . S
C1487 C1486 1.363 . S
C1487 C1490 1.363 . S
N1488 C1490 1.356 . S
N1488 H1500 0.984 . S
N1488 H1501 0.985 . S
N1489 C1491 1.356 . S
N1489 H1494 0.984 . S
N1489 H1495 0.985 . S
C1490 C1484 1.379 . S
C1490 C1487 1.363 . S
C1490 N1488 1.356 . S
C1491 C1485 1.363 . S
C1491 C1486 1.379 . S
C1491 N1489 1.356 . S
N1492 C1484 1.356 . S
N1492 H1498 0.984 . S
N1492 H1499 0.984 . S
N1493 C1486 1.356 . S
N1493 H1496 0.984 . S
N1493 H1497 0.985 . S
H1494 N1489 0.984 . S
H1495 N1489 0.985 . S
H1496 N1493 0.984 . S
H1497 N1493 0.985 . S
H1498 N1492 0.984 . S
H1499 N1492 0.984 . S
H1500 N1488 0.984 . S
H1501 N1488 0.985 . S
C1502 C1503 1.363 . S
C1502 C1508 1.379 . S
C1502 N1510 1.356 . S
C1503 C1502 1.363 . S
C1503 C1509 1.363 . S
C1504 C1505 1.363 . S
C1504 C1509 1.379 . S
C1504 N1511 1.356 . S
C1505 C1504 1.363 . S
C1505 C1508 1.363 . S
N1506 C1508 1.356 . S
N1506 H1518 0.984 . S
N1506 H1519 0.985 . S
N1507 C1509 1.356 . S
N1507 H1512 0.984 . S
N1507 H1513 0.985 . S
C1508 C1502 1.379 . S
C1508 C1505 1.363 . S
C1508 N1506 1.356 . S
C1509 C1503 1.363 . S
C1509 C1504 1.379 . S
C1509 N1507 1.356 . S
N1510 C1502 1.356 . S
N1510 H1516 0.984 . S
N1510 H1517 0.984 . S
N1511 C1504 1.356 . S
N1511 H1514 0.984 . S
N1511 H1515 0.985 . S
H1512 N1507 0.984 . S
H1513 N1507 0.985 . S
H1514 N1511 0.984 . S
H1515 N1511 0.985 . S
H1516 N1510 0.984 . S
H1517 N1510 0.984 . S
H1518 N1506 0.984 . S
H1519 N1506 0.985 . S
C1520 C1521 1.363 . S
C1520 C1526 1.379 . S
C1520 N1528 1.356 . S
C1521 C1520 1.363 . S
C1521 C1527 1.363 . S
C1522 C1523 1.363 . S
C1522 C1527 1.379 . S
C1522 N1529 1.356 . S
C1523 C1522 1.363 . S
C1523 C1526 1.363 . S
N1524 C1526 1.356 . S
N1524 H1536 0.984 . S
N1524 H1537 0.985 . S
N1525 C1527 1.356 . S
N1525 H1530 0.984 . S
N1525 H1531 0.985 . S
C1526 C1520 1.379 . S
C1526 C1523 1.363 . S
C1526 N1524 1.356 . S
C1527 C1521 1.363 . S
C1527 C1522 1.379 . S
C1527 N1525 1.356 . S
N1528 C1520 1.356 . S
N1528 H1534 0.984 . S
N1528 H1535 0.984 . S
N1529 C1522 1.356 . S
N1529 H1532 0.984 . S
N1529 H1533 0.985 . S
H1530 N1525 0.984 . S
H1531 N1525 0.985 . S
H1532 N1529 0.984 . S
H1533 N1529 0.985 . S
H1534 N1528 0.984 . S
H1535 N1528 0.984 . S
H1536 N1524 0.984 . S
H1537 N1524 0.985 . S
C1538 C1539 1.363 . S
C1538 C1544 1.379 . S
C1538 N1546 1.356 . S
C1539 C1538 1.363 . S
C1539 C1545 1.363 . S
C1540 C1541 1.363 . S
C1540 C1545 1.379 . S
C1540 N1547 1.356 . S
C1541 C1540 1.363 . S
C1541 C1544 1.363 . S
N1542 C1544 1.356 . S
N1542 H1554 0.984 . S
N1542 H1555 0.985 . S
N1543 C1545 1.356 . S
N1543 H1548 0.984 . S
N1543 H1549 0.985 . S
C1544 C1538 1.379 . S
C1544 C1541 1.363 . S
C1544 N1542 1.356 . S
C1545 C1539 1.363 . S
C1545 C1540 1.379 . S
C1545 N1543 1.356 . S
N1546 C1538 1.356 . S
N1546 H1552 0.984 . S
N1546 H1553 0.984 . S
N1547 C1540 1.356 . S
N1547 H1550 0.984 . S
N1547 H1551 0.985 . S
H1548 N1543 0.984 . S
H1549 N1543 0.985 . S
H1550 N1547 0.984 . S
H1551 N1547 0.985 . S
H1552 N1546 0.984 . S
H1553 N1546 0.984 . S
H1554 N1542 0.984 . S
H1555 N1542 0.985 . S
C1556 C1557 1.363 . S
C1556 C1562 1.379 . S
C1556 N1564 1.356 . S
C1557 C1556 1.363 . S
C1557 C1563 1.363 . S
C1558 C1559 1.363 . S
C1558 C1563 1.379 . S
C1558 N1565 1.356 . S
C1559 C1558 1.363 . S
C1559 C1562 1.363 . S
N1560 C1562 1.356 . S
N1560 H1572 0.984 . S
N1560 H1573 0.985 . S
N1561 C1563 1.356 . S
N1561 H1566 0.984 . S
N1561 H1567 0.985 . S
C1562 C1556 1.379 . S
C1562 C1559 1.363 . S
C1562 N1560 1.356 . S
C1563 C1557 1.363 . S
C1563 C1558 1.379 . S
C1563 N1561 1.356 . S
N1564 C1556 1.356 . S
N1564 H1570 0.984 . S
N1564 H1571 0.984 . S
N1565 C1558 1.356 . S
N1565 H1568 0.984 . S
N1565 H1569 0.985 . S
H1566 N1561 0.984 . S
H1567 N1561 0.985 . S
H1568 N1565 0.984 . S
H1569 N1565 0.985 . S
H1570 N1564 0.984 . S
H1571 N1564 0.984 . S
H1572 N1560 0.984 . S
H1573 N1560 0.985 . S
C1574 C1575 1.363 . S
C1574 C1580 1.379 . S
C1574 N1582 1.356 . S
C1575 C1574 1.363 . S
C1575 C1581 1.363 . S
C1576 C1577 1.363 . S
C1576 C1581 1.379 . S
C1576 N1583 1.356 . S
C1577 C1576 1.363 . S
C1577 C1580 1.363 . S
N1578 C1580 1.356 . S
N1578 H1590 0.984 . S
N1578 H1591 0.985 . S
N1579 C1581 1.356 . S
N1579 H1584 0.984 . S
N1579 H1585 0.985 . S
C1580 C1574 1.379 . S
C1580 C1577 1.363 . S
C1580 N1578 1.356 . S
C1581 C1575 1.363 . S
C1581 C1576 1.379 . S
C1581 N1579 1.356 . S
N1582 C1574 1.356 . S
N1582 H1588 0.984 . S
N1582 H1589 0.984 . S
N1583 C1576 1.356 . S
N1583 H1586 0.984 . S
N1583 H1587 0.985 . S
H1584 N1579 0.984 . S
H1585 N1579 0.985 . S
H1586 N1583 0.984 . S
H1587 N1583 0.985 . S
H1588 N1582 0.984 . S
H1589 N1582 0.984 . S
H1590 N1578 0.984 . S
H1591 N1578 0.985 . S
C1592 C1593 1.363 . S
C1592 C1598 1.379 . S
C1592 N1600 1.356 . S
C1593 C1592 1.363 . S
C1593 C1599 1.363 . S
C1594 C1595 1.363 . S
C1594 C1599 1.379 . S
C1594 N1601 1.356 . S
C1595 C1594 1.363 . S
C1595 C1598 1.363 . S
N1596 C1598 1.356 . S
N1596 H1608 0.984 . S
N1596 H1609 0.985 . S
N1597 C1599 1.356 . S
N1597 H1602 0.984 . S
N1597 H1603 0.985 . S
C1598 C1592 1.379 . S
C1598 C1595 1.363 . S
C1598 N1596 1.356 . S
C1599 C1593 1.363 . S
C1599 C1594 1.379 . S
C1599 N1597 1.356 . S
N1600 C1592 1.356 . S
N1600 H1606 0.984 . S
N1600 H1607 0.984 . S
N1601 C1594 1.356 . S
N1601 H1604 0.984 . S
N1601 H1605 0.985 . S
H1602 N1597 0.984 . S
H1603 N1597 0.985 . S
H1604 N1601 0.984 . S
H1605 N1601 0.985 . S
H1606 N1600 0.984 . S
H1607 N1600 0.984 . S
H1608 N1596 0.984 . S
H1609 N1596 0.985 . S
C1610 C1611 1.363 . S
C1610 C1616 1.379 . S
C1610 N1618 1.356 . S
C1611 C1610 1.363 . S
C1611 C1617 1.363 . S
C1612 C1613 1.363 . S
C1612 C1617 1.379 . S
C1612 N1619 1.356 . S
C1613 C1612 1.363 . S
C1613 C1616 1.363 . S
N1614 C1616 1.356 . S
N1614 H1626 0.984 . S
N1614 H1627 0.985 . S
N1615 C1617 1.356 . S
N1615 H1620 0.984 . S
N1615 H1621 0.985 . S
C1616 C1610 1.379 . S
C1616 C1613 1.363 . S
C1616 N1614 1.356 . S
C1617 C1611 1.363 . S
C1617 C1612 1.379 . S
C1617 N1615 1.356 . S
N1618 C1610 1.356 . S
N1618 H1624 0.984 . S
N1618 H1625 0.984 . S
N1619 C1612 1.356 . S
N1619 H1622 0.984 . S
N1619 H1623 0.985 . S
H1620 N1615 0.984 . S
H1621 N1615 0.985 . S
H1622 N1619 0.984 . S
H1623 N1619 0.985 . S
H1624 N1618 0.984 . S
H1625 N1618 0.984 . S
H1626 N1614 0.984 . S
H1627 N1614 0.985 . S
C1628 C1629 1.363 . S
C1628 C1634 1.379 . S
C1628 N1636 1.356 . S
C1629 C1628 1.363 . S
C1629 C1635 1.363 . S
C1630 C1631 1.363 . S
C1630 C1635 1.379 . S
C1630 N1637 1.356 . S
C1631 C1630 1.363 . S
C1631 C1634 1.363 . S
N1632 C1634 1.356 . S
N1632 H1644 0.984 . S
N1632 H1645 0.985 . S
N1633 C1635 1.356 . S
N1633 H1638 0.984 . S
N1633 H1639 0.985 . S
C1634 C1628 1.379 . S
C1634 C1631 1.363 . S
C1634 N1632 1.356 . S
C1635 C1629 1.363 . S
C1635 C1630 1.379 . S
C1635 N1633 1.356 . S
N1636 C1628 1.356 . S
N1636 H1642 0.984 . S
N1636 H1643 0.984 . S
N1637 C1630 1.356 . S
N1637 H1640 0.984 . S
N1637 H1641 0.985 . S
H1638 N1633 0.984 . S
H1639 N1633 0.985 . S
H1640 N1637 0.984 . S
H1641 N1637 0.985 . S
H1642 N1636 0.984 . S
H1643 N1636 0.984 . S
H1644 N1632 0.984 . S
H1645 N1632 0.985 . S
C1646 C1647 1.363 . S
C1646 C1652 1.379 . S
C1646 N1654 1.356 . S
C1647 C1646 1.363 . S
C1647 C1653 1.363 . S
C1648 C1649 1.363 . S
C1648 C1653 1.379 . S
C1648 N1655 1.356 . S
C1649 C1648 1.363 . S
C1649 C1652 1.363 . S
N1650 C1652 1.356 . S
N1650 H1662 0.984 . S
N1650 H1663 0.985 . S
N1651 C1653 1.356 . S
N1651 H1656 0.984 . S
N1651 H1657 0.985 . S
C1652 C1646 1.379 . S
C1652 C1649 1.363 . S
C1652 N1650 1.356 . S
C1653 C1647 1.363 . S
C1653 C1648 1.379 . S
C1653 N1651 1.356 . S
N1654 C1646 1.356 . S
N1654 H1660 0.984 . S
N1654 H1661 0.984 . S
N1655 C1648 1.356 . S
N1655 H1658 0.984 . S
N1655 H1659 0.985 . S
H1656 N1651 0.984 . S
H1657 N1651 0.985 . S
H1658 N1655 0.984 . S
H1659 N1655 0.985 . S
H1660 N1654 0.984 . S
H1661 N1654 0.984 . S
H1662 N1650 0.984 . S
H1663 N1650 0.985 . S
C1664 C1665 1.363 . S
C1664 C1670 1.379 . S
C1664 N1672 1.356 . S
C1665 C1664 1.363 . S
C1665 C1671 1.363 1_545 S
C1666 C1667 1.363 . S
C1666 C1671 1.379 . S
C1666 N1673 1.356 . S
C1667 C1666 1.363 . S
C1667 C1670 1.363 1_565 S
N1668 C1670 1.356 . S
N1668 H1680 0.984 . S
N1668 H1681 0.985 1_545 S
N1669 C1671 1.356 . S
N1669 H1674 0.984 1_565 S
N1669 H1675 0.985 . S
C1670 C1664 1.379 . S
C1670 C1667 1.363 1_545 S
C1670 N1668 1.356 . S
C1671 C1665 1.363 1_565 S
C1671 C1666 1.379 . S
C1671 N1669 1.356 . S
N1672 C1664 1.356 . S
N1672 H1678 0.984 . S
N1672 H1679 0.984 . S
N1673 C1666 1.356 . S
N1673 H1676 0.984 . S
N1673 H1677 0.985 . S
H1674 N1669 0.984 1_545 S
H1675 N1669 0.985 . S
H1676 N1673 0.984 . S
H1677 N1673 0.985 . S
H1678 N1672 0.984 . S
H1679 N1672 0.984 . S
H1680 N1668 0.984 . S
H1681 N1668 0.985 1_565 S
C1682 C1683 1.363 . S
C1682 C1688 1.379 . S
C1682 N1690 1.356 . S
C1683 C1682 1.363 . S
C1683 C1689 1.363 . S
C1684 C1685 1.363 . S
C1684 C1689 1.379 . S
C1684 N1691 1.356 1_565 S
C1685 C1684 1.363 . S
C1685 C1688 1.363 . S
N1686 C1688 1.356 . S
N1686 H1698 0.984 . S
N1686 H1699 0.985 . S
N1687 C1689 1.356 1_545 S
N1687 H1692 0.984 1_545 S
N1687 H1693 0.985 . S
C1688 C1682 1.379 . S
C1688 C1685 1.363 . S
C1688 N1686 1.356 . S
C1689 C1683 1.363 . S
C1689 C1684 1.379 . S
C1689 N1687 1.356 1_565 S
N1690 C1682 1.356 . S
N1690 H1696 0.984 . S
N1690 H1697 0.984 . S
N1691 C1684 1.356 1_545 S
N1691 H1694 0.984 1_545 S
N1691 H1695 0.985 . S
H1692 N1687 0.984 1_565 S
H1693 N1687 0.985 . S
H1694 N1691 0.984 1_565 S
H1695 N1691 0.985 . S
H1696 N1690 0.984 . S
H1697 N1690 0.984 . S
H1698 N1686 0.984 . S
H1699 N1686 0.985 . S
C1700 C1701 1.363 . S
C1700 C1706 1.381 . S
C1700 N1708 1.356 . S
C1701 C1700 1.363 . S
C1701 C1707 1.361 1_545 S
C1702 C1703 1.363 . S
C1702 C1707 1.381 . S
C1702 N1709 1.356 . S
C1703 C1702 1.363 . S
C1703 C1706 1.361 1_565 S
N1704 C1706 1.356 1_565 S
N1704 H1716 0.984 1_565 S
N1704 H1717 0.985 . S
N1705 C1707 1.356 1_545 S
N1705 H1710 0.984 . S
N1705 H1711 0.985 1_545 S
C1706 C1700 1.381 . S
C1706 C1703 1.361 1_545 S
C1706 N1704 1.356 1_545 S
C1707 C1701 1.361 1_565 S
C1707 C1702 1.381 . S
C1707 N1705 1.356 1_565 S
N1708 C1700 1.356 . S
N1708 H1714 0.984 . S
N1708 H1715 0.984 . S
N1709 C1702 1.356 . S
N1709 H1712 0.984 . S
N1709 H1713 0.985 . S
H1710 N1705 0.984 . S
H1711 N1705 0.985 1_565 S
H1712 N1709 0.984 . S
H1713 N1709 0.985 . S
H1714 N1708 0.984 . S
H1715 N1708 0.984 . S
H1716 N1704 0.984 1_545 S
H1717 N1704 0.985 . S
C1718 C1719 1.363 . S
C1718 C1724 1.346 1_554 S
C1718 N1726 1.356 . S
C1719 C1718 1.363 . S
C1719 C1725 1.396 . S
C1720 C1721 1.363 . S
C1720 C1725 1.346 1_556 S
C1720 N1727 1.356 1_545 S
C1721 C1720 1.363 . S
C1721 C1724 1.396 . S
N1722 C1724 1.370 . S
N1722 H1734 0.984 1_556 S
N1722 H1735 0.985 . S
N1723 C1725 1.370 1_565 S
N1723 H1728 0.984 1_565 S
N1723 H1729 0.985 1_554 S
C1724 C1718 1.346 1_556 S
C1724 C1721 1.396 . S
C1724 N1722 1.370 . S
C1725 C1719 1.396 . S
C1725 C1720 1.346 1_554 S
C1725 N1723 1.370 1_545 S
N1726 C1718 1.356 . S
N1726 H1732 0.984 . S
N1726 H1733 0.984 . S
N1727 C1720 1.356 1_565 S
N1727 H1730 0.984 1_565 S
N1727 H1731 0.985 . S
H1728 N1723 0.984 1_545 S
H1729 N1723 0.985 1_556 S
H1730 N1727 0.984 1_545 S
H1731 N1727 0.985 . S
H1732 N1726 0.984 . S
H1733 N1726 0.984 . S
H1734 N1722 0.984 1_554 S
H1735 N1722 0.985 . S
C1736 C1737 1.363 . S
C1736 C1742 1.379 1_565 S
C1736 N1744 1.356 . S
C1737 C1736 1.363 . S
C1737 C1743 1.363 . S
C1738 C1739 1.363 . S
C1738 C1743 1.379 1_545 S
C1738 N1745 1.356 . S
C1739 C1738 1.363 . S
C1739 C1742 1.363 . S
N1740 C1742 1.356 . S
N1740 H1752 0.984 . S
N1740 H1753 0.985 . S
N1741 C1743 1.356 . S
N1741 H1746 0.984 . S
N1741 H1747 0.985 . S
C1742 C1736 1.379 1_545 S
C1742 C1739 1.363 . S
C1742 N1740 1.356 . S
C1743 C1737 1.363 . S
C1743 C1738 1.379 1_565 S
C1743 N1741 1.356 . S
N1744 C1736 1.356 . S
N1744 H1750 0.984 . S
N1744 H1751 0.984 . S
N1745 C1738 1.356 . S
N1745 H1748 0.984 . S
N1745 H1749 0.985 . S
H1746 N1741 0.984 . S
H1747 N1741 0.985 . S
H1748 N1745 0.984 . S
H1749 N1745 0.985 . S
H1750 N1744 0.984 . S
H1751 N1744 0.984 . S
H1752 N1740 0.984 . S
H1753 N1740 0.985 . S
C1754 C1755 1.363 . S
C1754 C1760 1.379 . S
C1754 N1762 1.356 1_545 S
C1755 C1754 1.363 . S
C1755 C1761 1.363 . S
C1756 C1757 1.363 . S
C1756 C1761 1.379 . S
C1756 N1763 1.356 . S
C1757 C1756 1.363 . S
C1757 C1760 1.363 . S
N1758 C1760 1.356 1_565 S
N1758 H1770 0.984 . S
N1758 H1771 0.985 1_565 S
N1759 C1761 1.356 . S
N1759 H1764 0.984 . S
N1759 H1765 0.985 . S
C1760 C1754 1.379 . S
C1760 C1757 1.363 . S
C1760 N1758 1.356 1_545 S
C1761 C1755 1.363 . S
C1761 C1756 1.379 . S
C1761 N1759 1.356 . S
N1762 C1754 1.356 1_565 S
N1762 H1768 0.984 . S
N1762 H1769 0.984 1_565 S
N1763 C1756 1.356 . S
N1763 H1766 0.984 . S
N1763 H1767 0.985 . S
H1764 N1759 0.984 . S
H1765 N1759 0.985 . S
H1766 N1763 0.984 . S
H1767 N1763 0.985 . S
H1768 N1762 0.984 . S
H1769 N1762 0.984 1_545 S
H1770 N1758 0.984 . S
H1771 N1758 0.985 1_545 S
C1772 C1773 1.363 . S
C1772 C1778 1.379 1_545 S
C1772 N1780 1.356 . S
C1773 C1772 1.363 . S
C1773 C1779 1.363 . S
C1774 C1775 1.363 . S
C1774 C1779 1.379 1_565 S
C1774 N1781 1.356 . S
C1775 C1774 1.363 . S
C1775 C1778 1.363 . S
N1776 C1778 1.356 . S
N1776 H1788 0.984 . S
N1776 H1789 0.985 . S
N1777 C1779 1.356 . S
N1777 H1782 0.984 . S
N1777 H1783 0.985 . S
C1778 C1772 1.379 1_565 S
C1778 C1775 1.363 . S
C1778 N1776 1.356 . S
C1779 C1773 1.363 . S
C1779 C1774 1.379 1_545 S
C1779 N1777 1.356 . S
N1780 C1772 1.356 . S
N1780 H1786 0.984 . S
N1780 H1787 0.984 . S
N1781 C1774 1.356 . S
N1781 H1784 0.984 . S
N1781 H1785 0.985 . S
H1782 N1777 0.984 . S
H1783 N1777 0.985 . S
H1784 N1781 0.984 . S
H1785 N1781 0.985 . S
H1786 N1780 0.984 . S
H1787 N1780 0.984 . S
H1788 N1776 0.984 . S
H1789 N1776 0.985 . S
C1790 C1791 1.363 . S
C1790 C1796 1.346 1_556 S
C1790 N1798 1.356 1_565 S
C1791 C1790 1.363 . S
C1791 C1797 1.396 . S
C1792 C1793 1.363 . S
C1792 C1797 1.346 1_554 S
C1792 N1799 1.356 . S
C1793 C1792 1.363 . S
C1793 C1796 1.396 . S
N1794 C1796 1.370 1_545 S
N1794 H1806 0.984 1_554 S
N1794 H1807 0.985 1_545 S
N1795 C1797 1.370 . S
N1795 H1800 0.984 . S
N1795 H1801 0.985 1_556 S
C1796 C1790 1.346 1_554 S
C1796 C1793 1.396 . S
C1796 N1794 1.370 1_565 S
C1797 C1791 1.396 . S
C1797 C1792 1.346 1_556 S
C1797 N1795 1.370 . S
N1798 C1790 1.356 1_545 S
N1798 H1804 0.984 . S
N1798 H1805 0.984 1_545 S
N1799 C1792 1.356 . S
N1799 H1802 0.984 . S
N1799 H1803 0.985 . S
H1800 N1795 0.984 . S
H1801 N1795 0.985 1_554 S
H1802 N1799 0.984 . S
H1803 N1799 0.985 . S
H1804 N1798 0.984 . S
H1805 N1798 0.984 1_565 S
H1806 N1794 0.984 1_556 S
H1807 N1794 0.985 1_565 S
C1808 C1809 1.363 . S
C1808 C1814 1.379 . S
C1808 N1816 1.356 . S
C1809 C1808 1.363 . S
C1809 C1815 1.363 . S
C1810 C1811 1.363 . S
C1810 C1815 1.379 . S
C1810 N1817 1.356 . S
C1811 C1810 1.363 . S
C1811 C1814 1.363 . S
N1812 C1814 1.356 . S
N1812 H1824 0.984 . S
N1812 H1825 0.985 . S
N1813 C1815 1.356 . S
N1813 H1818 0.984 . S
N1813 H1819 0.985 . S
C1814 C1808 1.379 . S
C1814 C1811 1.363 . S
C1814 N1812 1.356 . S
C1815 C1809 1.363 . S
C1815 C1810 1.379 . S
C1815 N1813 1.356 . S
N1816 C1808 1.356 . S
N1816 H1822 0.984 . S
N1816 H1823 0.984 . S
N1817 C1810 1.356 . S
N1817 H1820 0.984 . S
N1817 H1821 0.985 . S
H1818 N1813 0.984 . S
H1819 N1813 0.985 . S
H1820 N1817 0.984 . S
H1821 N1817 0.985 . S
H1822 N1816 0.984 . S
H1823 N1816 0.984 . S
H1824 N1812 0.984 . S
H1825 N1812 0.985 . S
C1826 C1827 1.396 . S
C1826 C1832 1.346 1_556 S
C1826 N1834 1.370 . S
C1827 C1826 1.396 . S
C1827 C1833 1.363 . S
C1828 C1829 1.396 . S
C1828 C1833 1.346 1_554 S
C1828 N1835 1.370 . S
C1829 C1828 1.396 . S
C1829 C1832 1.363 . S
N1830 C1832 1.356 . S
N1830 H1842 0.984 . S
N1830 H1843 0.985 . S
N1831 C1833 1.356 . S
N1831 H1836 0.984 . S
N1831 H1837 0.985 . S
C1832 C1826 1.346 1_554 S
C1832 C1829 1.363 . S
C1832 N1830 1.356 . S
C1833 C1827 1.363 . S
C1833 C1828 1.346 1_556 S
C1833 N1831 1.356 . S
N1834 C1826 1.370 . S
N1834 H1840 0.984 1_556 S
N1834 H1841 0.984 . S
N1835 C1828 1.370 . S
N1835 H1838 0.984 . S
N1835 H1839 0.985 1_554 S
H1836 N1831 0.984 . S
H1837 N1831 0.985 . S
H1838 N1835 0.984 . S
H1839 N1835 0.985 1_556 S
H1840 N1834 0.984 1_554 S
H1841 N1834 0.984 . S
H1842 N1830 0.984 . S
H1843 N1830 0.985 . S
C1844 C1845 1.363 . S
C1844 C1850 1.379 . S
C1844 N1852 1.356 . S
C1845 C1844 1.363 . S
C1845 C1851 1.363 . S
C1846 C1847 1.363 . S
C1846 C1851 1.379 . S
C1846 N1853 1.356 . S
C1847 C1846 1.363 . S
C1847 C1850 1.363 . S
N1848 C1850 1.356 . S
N1848 H1860 0.984 . S
N1848 H1861 0.985 . S
N1849 C1851 1.356 . S
N1849 H1854 0.984 . S
N1849 H1855 0.985 . S
C1850 C1844 1.379 . S
C1850 C1847 1.363 . S
C1850 N1848 1.356 . S
C1851 C1845 1.363 . S
C1851 C1846 1.379 . S
C1851 N1849 1.356 . S
N1852 C1844 1.356 . S
N1852 H1858 0.984 . S
N1852 H1859 0.984 . S
N1853 C1846 1.356 . S
N1853 H1856 0.984 . S
N1853 H1857 0.985 . S
H1854 N1849 0.984 . S
H1855 N1849 0.985 . S
H1856 N1853 0.984 . S
H1857 N1853 0.985 . S
H1858 N1852 0.984 . S
H1859 N1852 0.984 . S
H1860 N1848 0.984 . S
H1861 N1848 0.985 . S
C1862 C1863 1.363 . S
C1862 C1868 1.379 . S
C1862 N1870 1.356 . S
C1863 C1862 1.363 . S
C1863 C1869 1.363 . S
C1864 C1865 1.363 . S
C1864 C1869 1.379 . S
C1864 N1871 1.356 . S
C1865 C1864 1.363 . S
C1865 C1868 1.363 . S
N1866 C1868 1.356 . S
N1866 H1878 0.984 . S
N1866 H1879 0.985 . S
N1867 C1869 1.356 . S
N1867 H1872 0.984 . S
N1867 H1873 0.985 . S
C1868 C1862 1.379 . S
C1868 C1865 1.363 . S
C1868 N1866 1.356 . S
C1869 C1863 1.363 . S
C1869 C1864 1.379 . S
C1869 N1867 1.356 . S
N1870 C1862 1.356 . S
N1870 H1876 0.984 . S
N1870 H1877 0.984 . S
N1871 C1864 1.356 . S
N1871 H1874 0.984 . S
N1871 H1875 0.985 . S
H1872 N1867 0.984 . S
H1873 N1867 0.985 . S
H1874 N1871 0.984 . S
H1875 N1871 0.985 . S
H1876 N1870 0.984 . S
H1877 N1870 0.984 . S
H1878 N1866 0.984 . S
H1879 N1866 0.985 . S
C1880 C1881 1.363 . S
C1880 C1886 1.379 . S
C1880 N1888 1.356 . S
C1881 C1880 1.363 . S
C1881 C1887 1.363 . S
C1882 C1883 1.363 . S
C1882 C1887 1.379 . S
C1882 N1889 1.356 . S
C1883 C1882 1.363 . S
C1883 C1886 1.363 . S
N1884 C1886 1.356 . S
N1884 H1896 0.984 . S
N1884 H1897 0.985 . S
N1885 C1887 1.356 . S
N1885 H1890 0.984 . S
N1885 H1891 0.985 . S
C1886 C1880 1.379 . S
C1886 C1883 1.363 . S
C1886 N1884 1.356 . S
C1887 C1881 1.363 . S
C1887 C1882 1.379 . S
C1887 N1885 1.356 . S
N1888 C1880 1.356 . S
N1888 H1894 0.984 . S
N1888 H1895 0.984 . S
N1889 C1882 1.356 . S
N1889 H1892 0.984 . S
N1889 H1893 0.985 . S
H1890 N1885 0.984 . S
H1891 N1885 0.985 . S
H1892 N1889 0.984 . S
H1893 N1889 0.985 . S
H1894 N1888 0.984 . S
H1895 N1888 0.984 . S
H1896 N1884 0.984 . S
H1897 N1884 0.985 . S
C1898 C1899 1.363 . S
C1898 C1904 1.346 1_556 S
C1898 N1906 1.356 . S
C1899 C1898 1.363 . S
C1899 C1905 1.396 . S
C1900 C1901 1.363 . S
C1900 C1905 1.346 1_554 S
C1900 N1907 1.356 . S
C1901 C1900 1.363 . S
C1901 C1904 1.396 . S
N1902 C1904 1.370 . S
N1902 H1914 0.984 1_554 S
N1902 H1915 0.985 . S
N1903 C1905 1.370 . S
N1903 H1908 0.984 . S
N1903 H1909 0.985 1_556 S
C1904 C1898 1.346 1_554 S
C1904 C1901 1.396 . S
C1904 N1902 1.370 . S
C1905 C1899 1.396 . S
C1905 C1900 1.346 1_556 S
C1905 N1903 1.370 . S
N1906 C1898 1.356 . S
N1906 H1912 0.984 . S
N1906 H1913 0.984 . S
N1907 C1900 1.356 . S
N1907 H1910 0.984 . S
N1907 H1911 0.985 . S
H1908 N1903 0.984 . S
H1909 N1903 0.985 1_554 S
H1910 N1907 0.984 . S
H1911 N1907 0.985 . S
H1912 N1906 0.984 . S
H1913 N1906 0.984 . S
H1914 N1902 0.984 1_556 S
H1915 N1902 0.985 . S
C1916 C1917 1.363 . S
C1916 C1922 1.379 . S
C1916 N1924 1.356 . S
C1917 C1916 1.363 . S
C1917 C1923 1.363 . S
C1918 C1919 1.363 . S
C1918 C1923 1.379 . S
C1918 N1925 1.356 . S
C1919 C1918 1.363 . S
C1919 C1922 1.363 . S
N1920 C1922 1.356 . S
N1920 H1932 0.984 . S
N1920 H1933 0.985 . S
N1921 C1923 1.356 . S
N1921 H1926 0.984 . S
N1921 H1927 0.985 . S
C1922 C1916 1.379 . S
C1922 C1919 1.363 . S
C1922 N1920 1.356 . S
C1923 C1917 1.363 . S
C1923 C1918 1.379 . S
C1923 N1921 1.356 . S
N1924 C1916 1.356 . S
N1924 H1930 0.984 . S
N1924 H1931 0.984 . S
N1925 C1918 1.356 . S
N1925 H1928 0.984 . S
N1925 H1929 0.985 . S
H1926 N1921 0.984 . S
H1927 N1921 0.985 . S
H1928 N1925 0.984 . S
H1929 N1925 0.985 . S
H1930 N1924 0.984 . S
H1931 N1924 0.984 . S
H1932 N1920 0.984 . S
H1933 N1920 0.985 . S
C1934 C1935 1.363 . S
C1934 C1940 1.379 . S
C1934 N1942 1.356 . S
C1935 C1934 1.363 . S
C1935 C1941 1.363 . S
C1936 C1937 1.363 . S
C1936 C1941 1.379 . S
C1936 N1943 1.356 . S
C1937 C1936 1.363 . S
C1937 C1940 1.363 . S
N1938 C1940 1.356 . S
N1938 H1950 0.984 . S
N1938 H1951 0.985 . S
N1939 C1941 1.356 . S
N1939 H1944 0.984 . S
N1939 H1945 0.985 . S
C1940 C1934 1.379 . S
C1940 C1937 1.363 . S
C1940 N1938 1.356 . S
C1941 C1935 1.363 . S
C1941 C1936 1.379 . S
C1941 N1939 1.356 . S
N1942 C1934 1.356 . S
N1942 H1948 0.984 . S
N1942 H1949 0.984 . S
N1943 C1936 1.356 . S
N1943 H1946 0.984 . S
N1943 H1947 0.985 . S
H1944 N1939 0.984 . S
H1945 N1939 0.985 . S
H1946 N1943 0.984 . S
H1947 N1943 0.985 . S
H1948 N1942 0.984 . S
H1949 N1942 0.984 . S
H1950 N1938 0.984 . S
H1951 N1938 0.985 . S
C1952 C1953 1.363 . S
C1952 C1958 1.379 . S
C1952 N1960 1.356 . S
C1953 C1952 1.363 . S
C1953 C1959 1.363 . S
C1954 C1955 1.363 . S
C1954 C1959 1.379 . S
C1954 N1961 1.356 . S
C1955 C1954 1.363 . S
C1955 C1958 1.363 . S
N1956 C1958 1.356 . S
N1956 H1968 0.984 . S
N1956 H1969 0.985 . S
N1957 C1959 1.356 . S
N1957 H1962 0.984 . S
N1957 H1963 0.985 . S
C1958 C1952 1.379 . S
C1958 C1955 1.363 . S
C1958 N1956 1.356 . S
C1959 C1953 1.363 . S
C1959 C1954 1.379 . S
C1959 N1957 1.356 . S
N1960 C1952 1.356 . S
N1960 H1966 0.984 . S
N1960 H1967 0.984 . S
N1961 C1954 1.356 . S
N1961 H1964 0.984 . S
N1961 H1965 0.985 . S
H1962 N1957 0.984 . S
H1963 N1957 0.985 . S
H1964 N1961 0.984 . S
H1965 N1961 0.985 . S
H1966 N1960 0.984 . S
H1967 N1960 0.984 . S
H1968 N1956 0.984 . S
H1969 N1956 0.985 . S
C1970 C1971 1.363 . S
C1970 C1976 1.379 . S
C1970 N1978 1.356 . S
C1971 C1970 1.363 . S
C1971 C1977 1.363 . S
C1972 C1973 1.363 . S
C1972 C1977 1.379 . S
C1972 N1979 1.356 . S
C1973 C1972 1.363 . S
C1973 C1976 1.363 . S
N1974 C1976 1.356 1_565 S
N1974 H1986 0.984 . S
N1974 H1987 0.985 . S
N1975 C1977 1.356 . S
N1975 H1980 0.984 . S
N1975 H1981 0.985 . S
C1976 C1970 1.379 . S
C1976 C1973 1.363 . S
C1976 N1974 1.356 1_545 S
C1977 C1971 1.363 . S
C1977 C1972 1.379 . S
C1977 N1975 1.356 . S
N1978 C1970 1.356 . S
N1978 H1984 0.984 . S
N1978 H1985 0.984 . S
N1979 C1972 1.356 . S
N1979 H1982 0.984 . S
N1979 H1983 0.985 . S
H1980 N1975 0.984 . S
H1981 N1975 0.985 . S
H1982 N1979 0.984 . S
H1983 N1979 0.985 . S
H1984 N1978 0.984 . S
H1985 N1978 0.984 . S
H1986 N1974 0.984 . S
H1987 N1974 0.985 . S
C1988 C1989 1.363 . S
C1988 C1994 1.379 . S
C1988 N1996 1.356 . S
C1989 C1988 1.363 . S
C1989 C1995 1.363 . S
C1990 C1991 1.363 . S
C1990 C1995 1.379 . S
C1990 N1997 1.356 . S
C1991 C1990 1.363 . S
C1991 C1994 1.363 . S
N1992 C1994 1.356 . S
N1992 H2004 0.984 . S
N1992 H2005 0.985 . S
N1993 C1995 1.356 1_545 S
N1993 H1998 0.984 . S
N1993 H1999 0.985 . S
C1994 C1988 1.379 . S
C1994 C1991 1.363 . S
C1994 N1992 1.356 . S
C1995 C1989 1.363 . S
C1995 C1990 1.379 . S
C1995 N1993 1.356 1_565 S
N1996 C1988 1.356 . S
N1996 H2002 0.984 . S
N1996 H2003 0.984 . S
N1997 C1990 1.356 . S
N1997 H2000 0.984 . S
N1997 H2001 0.985 . S
H1998 N1993 0.984 . S
H1999 N1993 0.985 . S
H2000 N1997 0.984 . S
H2001 N1997 0.985 . S
H2002 N1996 0.984 . S
H2003 N1996 0.984 . S
H2004 N1992 0.984 . S
H2005 N1992 0.985 . S
C2006 C2007 1.363 . S
C2006 C2012 1.379 . S
C2006 N2014 1.356 . S
C2007 C2006 1.363 . S
C2007 C2013 1.363 . S
C2008 C2009 1.363 . S
C2008 C2013 1.379 . S
C2008 N2015 1.356 . S
C2009 C2008 1.363 . S
C2009 C2012 1.363 . S
N2010 C2012 1.356 . S
N2010 H2022 0.986 . S
N2010 H2023 0.985 1_565 S
N2011 C2013 1.356 . S
N2011 H2016 0.984 . S
N2011 H2017 0.985 . S
C2012 C2006 1.379 . S
C2012 C2009 1.363 . S
C2012 N2010 1.356 . S
C2013 C2007 1.363 . S
C2013 C2008 1.379 . S
C2013 N2011 1.356 . S
N2014 C2006 1.356 . S
N2014 H2020 0.984 . S
N2014 H2021 0.984 . S
N2015 C2008 1.356 . S
N2015 H2018 0.984 . S
N2015 H2019 0.985 . S
H2016 N2011 0.984 . S
H2017 N2011 0.985 . S
H2018 N2015 0.984 . S
H2019 N2015 0.985 . S
H2020 N2014 0.984 . S
H2021 N2014 0.984 . S
H2022 N2010 0.986 . S
H2023 N2010 0.985 1_545 S
C2024 C2025 1.363 . S
C2024 C2030 1.379 . S
C2024 N2032 1.356 . S
C2025 C2024 1.363 . S
C2025 C2031 1.363 . S
C2026 C2027 1.363 . S
C2026 C2031 1.379 . S
C2026 N2033 1.356 . S
C2027 C2026 1.363 . S
C2027 C2030 1.363 . S
N2028 C2030 1.356 . S
N2028 H2040 0.984 . S
N2028 H2041 0.985 . S
N2029 C2031 1.356 1_545 S
N2029 H2034 0.984 . S
N2029 H2035 0.985 . S
C2030 C2024 1.379 . S
C2030 C2027 1.363 . S
C2030 N2028 1.356 . S
C2031 C2025 1.363 . S
C2031 C2026 1.379 . S
C2031 N2029 1.356 1_565 S
N2032 C2024 1.356 . S
N2032 H2038 0.984 . S
N2032 H2039 0.984 . S
N2033 C2026 1.356 . S
N2033 H2036 0.984 . S
N2033 H2037 0.985 . S
H2034 N2029 0.984 . S
H2035 N2029 0.985 . S
H2036 N2033 0.984 . S
H2037 N2033 0.985 . S
H2038 N2032 0.984 . S
H2039 N2032 0.984 . S
H2040 N2028 0.984 . S
H2041 N2028 0.985 . S
C2042 C2043 1.363 . S
C2042 C2048 1.379 . S
C2042 N2050 1.356 . S
C2043 C2042 1.363 . S
C2043 C2049 1.363 . S
C2044 C2045 1.363 . S
C2044 C2049 1.379 . S
C2044 N2051 1.356 . S
C2045 C2044 1.363 . S
C2045 C2048 1.363 . S
N2046 C2048 1.356 1_545 S
N2046 H2058 0.984 . S
N2046 H2059 0.985 . S
N2047 C2049 1.356 . S
N2047 H2052 0.984 . S
N2047 H2053 0.985 . S
C2048 C2042 1.379 . S
C2048 C2045 1.363 . S
C2048 N2046 1.356 1_565 S
C2049 C2043 1.363 . S
C2049 C2044 1.379 . S
C2049 N2047 1.356 . S
N2050 C2042 1.356 . S
N2050 H2056 0.984 . S
N2050 H2057 0.984 . S
N2051 C2044 1.356 . S
N2051 H2054 0.984 . S
N2051 H2055 0.985 . S
H2052 N2047 0.984 . S
H2053 N2047 0.985 . S
H2054 N2051 0.984 . S
H2055 N2051 0.985 . S
H2056 N2050 0.984 . S
H2057 N2050 0.984 . S
H2058 N2046 0.984 . S
H2059 N2046 0.985 . S
C2060 C2061 1.363 . S
C2060 C2066 1.379 . S
C2060 N2068 1.356 . S
C2061 C2060 1.363 . S
C2061 C2067 1.363 . S
C2062 C2063 1.363 . S
C2062 C2067 1.379 . S
C2062 N2069 1.356 . S
C2063 C2062 1.363 . S
C2063 C2066 1.363 . S
N2064 C2066 1.356 1_565 S
N2064 H2076 0.984 . S
N2064 H2077 0.985 . S
N2065 C2067 1.356 . S
N2065 H2070 0.984 . S
N2065 H2071 0.985 . S
C2066 C2060 1.379 . S
C2066 C2063 1.363 . S
C2066 N2064 1.356 1_545 S
C2067 C2061 1.363 . S
C2067 C2062 1.379 . S
C2067 N2065 1.356 . S
N2068 C2060 1.356 . S
N2068 H2074 0.984 . S
N2068 H2075 0.984 . S
N2069 C2062 1.356 . S
N2069 H2072 0.984 . S
N2069 H2073 0.985 . S
H2070 N2065 0.984 . S
H2071 N2065 0.985 . S
H2072 N2069 0.984 . S
H2073 N2069 0.985 . S
H2074 N2068 0.984 . S
H2075 N2068 0.984 . S
H2076 N2064 0.984 . S
H2077 N2064 0.985 . S
C2078 C2079 1.363 . S
C2078 C2084 1.379 . S
C2078 N2086 1.356 . S
C2079 C2078 1.363 . S
C2079 C2085 1.363 . S
C2080 C2081 1.363 . S
C2080 C2085 1.379 . S
C2080 N2087 1.356 . S
C2081 C2080 1.363 . S
C2081 C2084 1.363 . S
N2082 C2084 1.356 . S
N2082 H2094 0.984 . S
N2082 H2095 0.985 . S
N2083 C2085 1.356 1_565 S
N2083 H2088 0.984 . S
N2083 H2089 0.985 . S
C2084 C2078 1.379 . S
C2084 C2081 1.363 . S
C2084 N2082 1.356 . S
C2085 C2079 1.363 . S
C2085 C2080 1.379 . S
C2085 N2083 1.356 1_545 S
N2086 C2078 1.356 . S
N2086 H2092 0.984 . S
N2086 H2093 0.984 . S
N2087 C2080 1.356 . S
N2087 H2090 0.984 . S
N2087 H2091 0.985 . S
H2088 N2083 0.984 . S
H2089 N2083 0.985 . S
H2090 N2087 0.984 . S
H2091 N2087 0.985 . S
H2092 N2086 0.984 . S
H2093 N2086 0.984 . S
H2094 N2082 0.984 . S
H2095 N2082 0.985 . S
C2096 C2097 1.363 . S
C2096 C2102 1.379 . S
C2096 N2104 1.356 . S
C2097 C2096 1.363 . S
C2097 C2103 1.363 . S
C2098 C2099 1.363 . S
C2098 C2103 1.379 . S
C2098 N2105 1.356 . S
C2099 C2098 1.363 . S
C2099 C2102 1.363 . S
N2100 C2102 1.356 . S
N2100 H2112 0.984 . S
N2100 H2113 0.985 . S
N2101 C2103 1.356 . S
N2101 H2106 0.984 . S
N2101 H2107 0.985 . S
C2102 C2096 1.379 . S
C2102 C2099 1.363 . S
C2102 N2100 1.356 . S
C2103 C2097 1.363 . S
C2103 C2098 1.379 . S
C2103 N2101 1.356 . S
N2104 C2096 1.356 . S
N2104 H2110 0.984 . S
N2104 H2111 0.984 . S
N2105 C2098 1.356 . S
N2105 H2108 0.984 . S
N2105 H2109 0.985 . S
H2106 N2101 0.984 . S
H2107 N2101 0.985 . S
H2108 N2105 0.984 . S
H2109 N2105 0.985 . S
H2110 N2104 0.984 . S
H2111 N2104 0.984 . S
H2112 N2100 0.984 . S
H2113 N2100 0.985 . S
C2114 C2115 1.363 . S
C2114 C2120 1.379 . S
C2114 N2122 1.356 . S
C2115 C2114 1.363 . S
C2115 C2121 1.363 . S
C2116 C2117 1.363 . S
C2116 C2121 1.379 . S
C2116 N2123 1.356 . S
C2117 C2116 1.363 . S
C2117 C2120 1.363 . S
N2118 C2120 1.356 . S
N2118 H2130 0.984 . S
N2118 H2131 0.985 . S
N2119 C2121 1.356 . S
N2119 H2124 0.984 . S
N2119 H2125 0.985 . S
C2120 C2114 1.379 . S
C2120 C2117 1.363 . S
C2120 N2118 1.356 . S
C2121 C2115 1.363 . S
C2121 C2116 1.379 . S
C2121 N2119 1.356 . S
N2122 C2114 1.356 . S
N2122 H2128 0.984 . S
N2122 H2129 0.984 . S
N2123 C2116 1.356 . S
N2123 H2126 0.984 . S
N2123 H2127 0.985 . S
H2124 N2119 0.984 . S
H2125 N2119 0.985 . S
H2126 N2123 0.984 . S
H2127 N2123 0.985 . S
H2128 N2122 0.984 . S
H2129 N2122 0.984 . S
H2130 N2118 0.984 . S
H2131 N2118 0.985 . S
C2132 C2133 1.363 . S
C2132 C2138 1.379 . S
C2132 N2140 1.356 . S
C2133 C2132 1.363 . S
C2133 C2139 1.363 . S
C2134 C2135 1.363 . S
C2134 C2139 1.379 . S
C2134 N2141 1.356 . S
C2135 C2134 1.363 . S
C2135 C2138 1.363 . S
N2136 C2138 1.356 . S
N2136 H2148 0.984 . S
N2136 H2149 0.985 . S
N2137 C2139 1.356 . S
N2137 H2142 0.984 . S
N2137 H2143 0.985 . S
C2138 C2132 1.379 . S
C2138 C2135 1.363 . S
C2138 N2136 1.356 . S
C2139 C2133 1.363 . S
C2139 C2134 1.379 . S
C2139 N2137 1.356 . S
N2140 C2132 1.356 . S
N2140 H2146 0.984 . S
N2140 H2147 0.984 . S
N2141 C2134 1.356 . S
N2141 H2144 0.984 . S
N2141 H2145 0.985 . S
H2142 N2137 0.984 . S
H2143 N2137 0.985 . S
H2144 N2141 0.984 . S
H2145 N2141 0.985 . S
H2146 N2140 0.984 . S
H2147 N2140 0.984 . S
H2148 N2136 0.984 . S
H2149 N2136 0.985 . S
C2150 C2151 1.363 . S
C2150 C2156 1.379 . S
C2150 N2158 1.356 . S
C2151 C2150 1.363 . S
C2151 C2157 1.363 . S
C2152 C2153 1.363 . S
C2152 C2157 1.379 . S
C2152 N2159 1.356 . S
C2153 C2152 1.363 . S
C2153 C2156 1.363 . S
N2154 C2156 1.356 . S
N2154 H2166 0.984 . S
N2154 H2167 0.985 . S
N2155 C2157 1.356 . S
N2155 H2160 0.984 . S
N2155 H2161 0.985 . S
C2156 C2150 1.379 . S
C2156 C2153 1.363 . S
C2156 N2154 1.356 . S
C2157 C2151 1.363 . S
C2157 C2152 1.379 . S
C2157 N2155 1.356 . S
N2158 C2150 1.356 . S
N2158 H2164 0.984 . S
N2158 H2165 0.984 . S
N2159 C2152 1.356 . S
N2159 H2162 0.984 . S
N2159 H2163 0.985 . S
H2160 N2155 0.984 . S
H2161 N2155 0.985 . S
H2162 N2159 0.984 . S
H2163 N2159 0.985 . S
H2164 N2158 0.984 . S
H2165 N2158 0.984 . S
H2166 N2154 0.984 . S
H2167 N2154 0.985 . S
C2168 C2169 1.363 . S
C2168 C2174 1.379 . S
C2168 N2176 1.356 . S
C2169 C2168 1.363 . S
C2169 C2175 1.363 . S
C2170 C2171 1.363 . S
C2170 C2175 1.379 . S
C2170 N2177 1.356 . S
C2171 C2170 1.363 . S
C2171 C2174 1.363 . S
N2172 C2174 1.356 . S
N2172 H2184 0.984 . S
N2172 H2185 0.985 . S
N2173 C2175 1.356 . S
N2173 H2178 0.984 . S
N2173 H2179 0.985 . S
C2174 C2168 1.379 . S
C2174 C2171 1.363 . S
C2174 N2172 1.356 . S
C2175 C2169 1.363 . S
C2175 C2170 1.379 . S
C2175 N2173 1.356 . S
N2176 C2168 1.356 . S
N2176 H2182 0.984 . S
N2176 H2183 0.984 . S
N2177 C2170 1.356 . S
N2177 H2180 0.984 . S
N2177 H2181 0.985 . S
H2178 N2173 0.984 . S
H2179 N2173 0.985 . S
H2180 N2177 0.984 . S
H2181 N2177 0.985 . S
H2182 N2176 0.984 . S
H2183 N2176 0.984 . S
H2184 N2172 0.984 . S
H2185 N2172 0.985 . S
C2186 C2187 1.363 . S
C2186 C2192 1.379 . S
C2186 N2194 1.356 . S
C2187 C2186 1.363 . S
C2187 C2193 1.363 . S
C2188 C2189 1.363 . S
C2188 C2193 1.379 . S
C2188 N2195 1.356 . S
C2189 C2188 1.363 . S
C2189 C2192 1.363 . S
N2190 C2192 1.356 . S
N2190 H2202 0.984 . S
N2190 H2203 0.985 . S
N2191 C2193 1.356 . S
N2191 H2196 0.984 . S
N2191 H2197 0.985 . S
C2192 C2186 1.379 . S
C2192 C2189 1.363 . S
C2192 N2190 1.356 . S
C2193 C2187 1.363 . S
C2193 C2188 1.379 . S
C2193 N2191 1.356 . S
N2194 C2186 1.356 . S
N2194 H2200 0.984 . S
N2194 H2201 0.984 . S
N2195 C2188 1.356 . S
N2195 H2198 0.984 . S
N2195 H2199 0.985 . S
H2196 N2191 0.984 . S
H2197 N2191 0.985 . S
H2198 N2195 0.984 . S
H2199 N2195 0.985 . S
H2200 N2194 0.984 . S
H2201 N2194 0.984 . S
H2202 N2190 0.984 . S
H2203 N2190 0.985 . S
C2204 C2205 1.363 . S
C2204 C2210 1.379 . S
C2204 N2212 1.356 . S
C2205 C2204 1.363 . S
C2205 C2211 1.363 . S
C2206 C2207 1.363 . S
C2206 C2211 1.379 . S
C2206 N2213 1.356 . S
C2207 C2206 1.363 . S
C2207 C2210 1.363 . S
N2208 C2210 1.356 . S
N2208 H2220 0.984 . S
N2208 H2221 0.985 . S
N2209 C2211 1.356 . S
N2209 H2214 0.984 . S
N2209 H2215 0.985 . S
C2210 C2204 1.379 . S
C2210 C2207 1.363 . S
C2210 N2208 1.356 . S
C2211 C2205 1.363 . S
C2211 C2206 1.379 . S
C2211 N2209 1.356 . S
N2212 C2204 1.356 . S
N2212 H2218 0.984 . S
N2212 H2219 0.984 . S
N2213 C2206 1.356 . S
N2213 H2216 0.984 . S
N2213 H2217 0.985 . S
H2214 N2209 0.984 . S
H2215 N2209 0.985 . S
H2216 N2213 0.984 . S
H2217 N2213 0.985 . S
H2218 N2212 0.984 . S
H2219 N2212 0.984 . S
H2220 N2208 0.984 . S
H2221 N2208 0.985 . S
C2222 C2223 1.363 . S
C2222 C2228 1.379 . S
C2222 N2230 1.356 . S
C2223 C2222 1.363 . S
C2223 C2229 1.363 . S
C2224 C2225 1.363 . S
C2224 C2229 1.379 . S
C2224 N2231 1.356 . S
C2225 C2224 1.363 . S
C2225 C2228 1.363 . S
N2226 C2228 1.356 . S
N2226 H2238 0.984 . S
N2226 H2239 0.985 . S
N2227 C2229 1.356 . S
N2227 H2232 0.984 . S
N2227 H2233 0.985 . S
C2228 C2222 1.379 . S
C2228 C2225 1.363 . S
C2228 N2226 1.356 . S
C2229 C2223 1.363 . S
C2229 C2224 1.379 . S
C2229 N2227 1.356 . S
N2230 C2222 1.356 . S
N2230 H2236 0.984 . S
N2230 H2237 0.984 . S
N2231 C2224 1.356 . S
N2231 H2234 0.984 . S
N2231 H2235 0.985 . S
H2232 N2227 0.984 . S
H2233 N2227 0.985 . S
H2234 N2231 0.984 . S
H2235 N2231 0.985 . S
H2236 N2230 0.984 . S
H2237 N2230 0.984 . S
H2238 N2226 0.984 . S
H2239 N2226 0.985 . S
C2240 C2241 1.363 . S
C2240 C2246 1.379 . S
C2240 N2248 1.356 . S
C2241 C2240 1.363 . S
C2241 C2247 1.363 . S
C2242 C2243 1.363 . S
C2242 C2247 1.379 . S
C2242 N2249 1.356 . S
C2243 C2242 1.363 . S
C2243 C2246 1.363 . S
N2244 C2246 1.356 . S
N2244 H2256 0.984 . S
N2244 H2257 0.985 . S
N2245 C2247 1.356 . S
N2245 H2250 0.984 . S
N2245 H2251 0.985 . S
C2246 C2240 1.379 . S
C2246 C2243 1.363 . S
C2246 N2244 1.356 . S
C2247 C2241 1.363 . S
C2247 C2242 1.379 . S
C2247 N2245 1.356 . S
N2248 C2240 1.356 . S
N2248 H2254 0.984 . S
N2248 H2255 0.984 . S
N2249 C2242 1.356 . S
N2249 H2252 0.984 . S
N2249 H2253 0.985 . S
H2250 N2245 0.984 . S
H2251 N2245 0.985 . S
H2252 N2249 0.984 . S
H2253 N2249 0.985 . S
H2254 N2248 0.984 . S
H2255 N2248 0.984 . S
H2256 N2244 0.984 . S
H2257 N2244 0.985 . S
C2258 C2259 1.363 1_655 S
C2258 C2264 1.379 . S
C2258 N2266 1.354 1_655 S
C2259 C2258 1.363 1_455 S
C2259 C2265 1.363 1_545 S
C2260 C2261 1.363 1_455 S
C2260 C2265 1.379 . S
C2260 N2267 1.354 1_455 S
C2261 C2260 1.363 1_655 S
C2261 C2264 1.363 1_565 S
N2262 C2264 1.356 . S
N2262 H2274 0.984 . S
N2262 H2275 0.985 . S
N2263 C2265 1.356 . S
N2263 H2268 0.984 . S
N2263 H2269 0.985 . S
C2264 C2258 1.379 . S
C2264 C2261 1.363 1_545 S
C2264 N2262 1.356 . S
C2265 C2259 1.363 1_565 S
C2265 C2260 1.379 . S
C2265 N2263 1.356 . S
N2266 C2258 1.354 1_455 S
N2266 H2272 0.972 1_455 S
N2266 H2273 1.000 . S
N2267 C2260 1.354 1_655 S
N2267 H2270 1.000 . S
N2267 H2271 0.972 1_655 S
H2268 N2263 0.984 . S
H2269 N2263 0.985 . S
H2270 N2267 1.000 . S
H2271 N2267 0.972 1_455 S
H2272 N2266 0.972 1_655 S
H2273 N2266 1.000 . S
H2274 N2262 0.984 . S
H2275 N2262 0.985 . S
C2276 C2277 1.363 . S
C2276 C2282 1.379 . S
C2276 N2284 1.356 . S
C2277 C2276 1.363 . S
C2277 C2283 1.363 . S
C2278 C2279 1.363 . S
C2278 C2283 1.379 . S
C2278 N2285 1.356 . S
C2279 C2278 1.363 . S
C2279 C2282 1.363 . S
N2280 C2282 1.356 . S
N2280 H2292 0.984 . S
N2280 H2293 0.985 . S
N2281 C2283 1.356 . S
N2281 H2286 0.984 . S
N2281 H2287 0.985 . S
C2282 C2276 1.379 . S
C2282 C2279 1.363 . S
C2282 N2280 1.356 . S
C2283 C2277 1.363 . S
C2283 C2278 1.379 . S
C2283 N2281 1.356 . S
N2284 C2276 1.356 . S
N2284 H2290 0.984 . S
N2284 H2291 0.984 . S
N2285 C2278 1.356 . S
N2285 H2288 0.984 . S
N2285 H2289 0.985 . S
H2286 N2281 0.984 . S
H2287 N2281 0.985 . S
H2288 N2285 0.984 . S
H2289 N2285 0.985 . S
H2290 N2284 0.984 . S
H2291 N2284 0.984 . S
H2292 N2280 0.984 . S
H2293 N2280 0.985 . S
C2294 C2295 1.363 1_545 S
C2294 C2300 1.379 1_554 S
C2294 N2302 1.356 . S
C2295 C2294 1.363 1_565 S
C2295 C2301 1.363 . S
C2296 C2297 1.363 1_565 S
C2296 C2301 1.379 1_556 S
C2296 N2303 1.356 . S
C2297 C2296 1.363 1_545 S
C2297 C2300 1.363 . S
N2298 C2300 1.356 . S
N2298 H2310 0.984 . S
N2298 H2311 0.985 . S
N2299 C2301 1.356 . S
N2299 H2304 0.984 . S
N2299 H2305 0.985 . S
C2300 C2294 1.379 1_556 S
C2300 C2297 1.363 . S
C2300 N2298 1.356 . S
C2301 C2295 1.363 . S
C2301 C2296 1.379 1_554 S
C2301 N2299 1.356 . S
N2302 C2294 1.356 . S
N2302 H2308 0.984 . S
N2302 H2309 0.984 . S
N2303 C2296 1.356 . S
N2303 H2306 0.984 . S
N2303 H2307 0.985 . S
H2304 N2299 0.984 . S
H2305 N2299 0.985 . S
H2306 N2303 0.984 . S
H2307 N2303 0.985 . S
H2308 N2302 0.984 . S
H2309 N2302 0.984 . S
H2310 N2298 0.984 . S
H2311 N2298 0.985 . S
C2312 C2313 1.363 . S
C2312 C2318 1.379 . S
C2312 N2320 1.356 . S
C2313 C2312 1.363 . S
C2313 C2319 1.363 . S
C2314 C2315 1.363 . S
C2314 C2319 1.379 . S
C2314 N2321 1.356 . S
C2315 C2314 1.363 . S
C2315 C2318 1.363 . S
N2316 C2318 1.356 . S
N2316 H2328 0.984 . S
N2316 H2329 0.985 . S
N2317 C2319 1.356 . S
N2317 H2322 0.984 . S
N2317 H2323 0.985 . S
C2318 C2312 1.379 . S
C2318 C2315 1.363 . S
C2318 N2316 1.356 . S
C2319 C2313 1.363 . S
C2319 C2314 1.379 . S
C2319 N2317 1.356 . S
N2320 C2312 1.356 . S
N2320 H2326 0.984 . S
N2320 H2327 0.984 . S
N2321 C2314 1.356 . S
N2321 H2324 0.984 . S
N2321 H2325 0.985 . S
H2322 N2317 0.984 . S
H2323 N2317 0.985 . S
H2324 N2321 0.984 . S
H2325 N2321 0.985 . S
H2326 N2320 0.984 . S
H2327 N2320 0.984 . S
H2328 N2316 0.984 . S
H2329 N2316 0.985 . S
C2330 C2331 1.363 1_545 S
C2330 C2336 1.379 . S
C2330 N2338 1.356 . S
C2331 C2330 1.363 1_565 S
C2331 C2337 1.363 . S
C2332 C2333 1.363 1_565 S
C2332 C2337 1.379 . S
C2332 N2339 1.356 . S
C2333 C2332 1.363 1_545 S
C2333 C2336 1.363 . S
N2334 C2336 1.356 . S
N2334 H2346 0.984 . S
N2334 H2347 0.985 . S
N2335 C2337 1.356 . S
N2335 H2340 0.984 . S
N2335 H2341 0.985 . S
C2336 C2330 1.379 . S
C2336 C2333 1.363 . S
C2336 N2334 1.356 . S
C2337 C2331 1.363 . S
C2337 C2332 1.379 . S
C2337 N2335 1.356 . S
N2338 C2330 1.356 . S
N2338 H2344 0.984 . S
N2338 H2345 0.984 . S
N2339 C2332 1.356 . S
N2339 H2342 0.984 . S
N2339 H2343 0.985 . S
H2340 N2335 0.984 . S
H2341 N2335 0.985 . S
H2342 N2339 0.984 . S
H2343 N2339 0.985 . S
H2344 N2338 0.984 . S
H2345 N2338 0.984 . S
H2346 N2334 0.984 . S
H2347 N2334 0.985 . S
C2348 C2349 1.363 . S
C2348 C2354 1.379 . S
C2348 N2356 1.356 . S
C2349 C2348 1.363 . S
C2349 C2355 1.363 . S
C2350 C2351 1.363 . S
C2350 C2355 1.379 . S
C2350 N2357 1.356 . S
C2351 C2350 1.363 . S
C2351 C2354 1.363 . S
N2352 C2354 1.356 . S
N2352 H2364 0.984 . S
N2352 H2365 0.985 . S
N2353 C2355 1.356 . S
N2353 H2358 0.984 . S
N2353 H2359 0.985 . S
C2354 C2348 1.379 . S
C2354 C2351 1.363 . S
C2354 N2352 1.356 . S
C2355 C2349 1.363 . S
C2355 C2350 1.379 . S
C2355 N2353 1.356 . S
N2356 C2348 1.356 . S
N2356 H2362 0.984 . S
N2356 H2363 0.984 . S
N2357 C2350 1.356 . S
N2357 H2360 0.984 . S
N2357 H2361 0.985 . S
H2358 N2353 0.984 . S
H2359 N2353 0.985 . S
H2360 N2357 0.984 . S
H2361 N2357 0.985 . S
H2362 N2356 0.984 . S
H2363 N2356 0.984 . S
H2364 N2352 0.984 . S
H2365 N2352 0.985 . S
C2366 C2367 1.363 1_465 S
C2366 C2372 1.379 1_554 S
C2366 N2374 1.356 1_455 S
C2367 C2366 1.363 1_645 S
C2367 C2373 1.363 . S
C2368 C2369 1.363 1_645 S
C2368 C2373 1.379 1_556 S
C2368 N2375 1.356 1_655 S
C2369 C2368 1.363 1_465 S
C2369 C2372 1.363 . S
N2370 C2372 1.356 . S
N2370 H2382 0.984 . S
N2370 H2383 0.985 . S
N2371 C2373 1.356 . S
N2371 H2376 0.984 . S
N2371 H2377 0.985 . S
C2372 C2366 1.379 1_556 S
C2372 C2369 1.363 . S
C2372 N2370 1.356 . S
C2373 C2367 1.363 . S
C2373 C2368 1.379 1_554 S
C2373 N2371 1.356 . S
N2374 C2366 1.356 1_655 S
N2374 H2380 0.984 1_655 S
N2374 H2381 0.984 . S
N2375 C2368 1.356 1_455 S
N2375 H2378 0.984 . S
N2375 H2379 0.985 1_455 S
H2376 N2371 0.984 . S
H2377 N2371 0.985 . S
H2378 N2375 0.984 . S
H2379 N2375 0.985 1_655 S
H2380 N2374 0.984 1_455 S
H2381 N2374 0.984 . S
H2382 N2370 0.984 . S
H2383 N2370 0.985 . S
C2384 C2385 1.363 . S
C2384 C2390 1.379 . S
C2384 N2392 1.356 . S
C2385 C2384 1.363 . S
C2385 C2391 1.363 . S
C2386 C2387 1.363 . S
C2386 C2391 1.379 . S
C2386 N2393 1.356 . S
C2387 C2386 1.363 . S
C2387 C2390 1.363 . S
N2388 C2390 1.356 . S
N2388 H2400 0.984 . S
N2388 H2401 0.985 . S
N2389 C2391 1.356 . S
N2389 H2394 0.984 . S
N2389 H2395 0.985 . S
C2390 C2384 1.379 . S
C2390 C2387 1.363 . S
C2390 N2388 1.356 . S
C2391 C2385 1.363 . S
C2391 C2386 1.379 . S
C2391 N2389 1.356 . S
N2392 C2384 1.356 . S
N2392 H2398 0.984 . S
N2392 H2399 0.984 . S
N2393 C2386 1.356 . S
N2393 H2396 0.984 . S
N2393 H2397 0.985 . S
H2394 N2389 0.984 . S
H2395 N2389 0.985 . S
H2396 N2393 0.984 . S
H2397 N2393 0.985 . S
H2398 N2392 0.984 . S
H2399 N2392 0.984 . S
H2400 N2388 0.984 . S
H2401 N2388 0.985 . S
C2402 C2403 1.363 . S
C2402 C2408 1.379 . S
C2402 N2410 1.356 . S
C2403 C2402 1.363 . S
C2403 C2409 1.363 . S
C2404 C2405 1.363 . S
C2404 C2409 1.379 . S
C2404 N2411 1.356 . S
C2405 C2404 1.363 . S
C2405 C2408 1.363 . S
N2406 C2408 1.356 . S
N2406 H2418 0.984 . S
N2406 H2419 0.985 . S
N2407 C2409 1.356 . S
N2407 H2412 0.984 . S
N2407 H2413 0.985 . S
C2408 C2402 1.379 . S
C2408 C2405 1.363 . S
C2408 N2406 1.356 . S
C2409 C2403 1.363 . S
C2409 C2404 1.379 . S
C2409 N2407 1.356 . S
N2410 C2402 1.356 . S
N2410 H2416 0.984 . S
N2410 H2417 0.984 . S
N2411 C2404 1.356 . S
N2411 H2414 0.984 . S
N2411 H2415 0.985 . S
H2412 N2407 0.984 . S
H2413 N2407 0.985 . S
H2414 N2411 0.984 . S
H2415 N2411 0.985 . S
H2416 N2410 0.984 . S
H2417 N2410 0.984 . S
H2418 N2406 0.984 . S
H2419 N2406 0.985 . S
C2420 C2421 1.363 . S
C2420 C2426 1.379 . S
C2420 N2428 1.356 . S
C2421 C2420 1.363 . S
C2421 C2427 1.363 . S
C2422 C2423 1.363 . S
C2422 C2427 1.379 . S
C2422 N2429 1.356 . S
C2423 C2422 1.363 . S
C2423 C2426 1.363 . S
N2424 C2426 1.356 . S
N2424 H2436 0.984 . S
N2424 H2437 0.985 . S
N2425 C2427 1.356 . S
N2425 H2430 0.984 . S
N2425 H2431 0.985 . S
C2426 C2420 1.379 . S
C2426 C2423 1.363 . S
C2426 N2424 1.356 . S
C2427 C2421 1.363 . S
C2427 C2422 1.379 . S
C2427 N2425 1.356 . S
N2428 C2420 1.356 . S
N2428 H2434 0.984 . S
N2428 H2435 0.984 . S
N2429 C2422 1.356 . S
N2429 H2432 0.984 . S
N2429 H2433 0.985 . S
H2430 N2425 0.984 . S
H2431 N2425 0.985 . S
H2432 N2429 0.984 . S
H2433 N2429 0.985 . S
H2434 N2428 0.984 . S
H2435 N2428 0.984 . S
H2436 N2424 0.984 . S
H2437 N2424 0.985 . S
C2438 C2439 1.363 . S
C2438 C2444 1.379 . S
C2438 N2446 1.356 . S
C2439 C2438 1.363 . S
C2439 C2445 1.363 . S
C2440 C2441 1.363 . S
C2440 C2445 1.379 . S
C2440 N2447 1.356 . S
C2441 C2440 1.363 . S
C2441 C2444 1.363 . S
N2442 C2444 1.356 . S
N2442 H2454 0.984 . S
N2442 H2455 0.985 . S
N2443 C2445 1.356 . S
N2443 H2448 0.984 . S
N2443 H2449 0.985 . S
C2444 C2438 1.379 . S
C2444 C2441 1.363 . S
C2444 N2442 1.356 . S
C2445 C2439 1.363 . S
C2445 C2440 1.379 . S
C2445 N2443 1.356 . S
N2446 C2438 1.356 . S
N2446 H2452 0.984 . S
N2446 H2453 0.984 . S
N2447 C2440 1.356 . S
N2447 H2450 0.984 . S
N2447 H2451 0.985 . S
H2448 N2443 0.984 . S
H2449 N2443 0.985 . S
H2450 N2447 0.984 . S
H2451 N2447 0.985 . S
H2452 N2446 0.984 . S
H2453 N2446 0.984 . S
H2454 N2442 0.984 . S
H2455 N2442 0.985 . S
C2456 C2457 1.363 . S
C2456 C2462 1.379 1_556 S
C2456 N2464 1.356 . S
C2457 C2456 1.363 . S
C2457 C2463 1.363 . S
C2458 C2459 1.363 . S
C2458 C2463 1.379 1_554 S
C2458 N2465 1.356 . S
C2459 C2458 1.363 . S
C2459 C2462 1.363 . S
N2460 C2462 1.356 . S
N2460 H2472 1.004 . S
N2460 H2473 0.985 . S
N2461 C2463 1.356 . S
N2461 H2466 0.984 . S
N2461 H2467 1.004 . S
C2462 C2456 1.379 1_554 S
C2462 C2459 1.363 . S
C2462 N2460 1.356 . S
C2463 C2457 1.363 . S
C2463 C2458 1.379 1_556 S
C2463 N2461 1.356 . S
N2464 C2456 1.356 . S
N2464 H2470 0.984 . S
N2464 H2471 0.984 . S
N2465 C2458 1.356 . S
N2465 H2468 0.984 . S
N2465 H2469 0.985 . S
H2466 N2461 0.984 . S
H2467 N2461 1.004 . S
H2468 N2465 0.984 . S
H2469 N2465 0.985 . S
H2470 N2464 0.984 . S
H2471 N2464 0.984 . S
H2472 N2460 1.004 . S
H2473 N2460 0.985 . S
C2474 C2475 1.363 1_655 S
C2474 C2480 1.379 . S
C2474 N2482 1.356 1_655 S
C2475 C2474 1.363 1_455 S
C2475 C2481 1.363 . S
C2476 C2477 1.363 1_455 S
C2476 C2481 1.379 . S
C2476 N2483 1.356 1_455 S
C2477 C2476 1.363 1_655 S
C2477 C2480 1.363 . S
N2478 C2480 1.356 . S
N2478 H2490 0.984 . S
N2478 H2491 0.985 . S
N2479 C2481 1.356 . S
N2479 H2484 0.984 . S
N2479 H2485 0.985 . S
C2480 C2474 1.379 . S
C2480 C2477 1.363 . S
C2480 N2478 1.356 . S
C2481 C2475 1.363 . S
C2481 C2476 1.379 . S
C2481 N2479 1.356 . S
N2482 C2474 1.356 1_455 S
N2482 H2488 0.984 1_455 S
N2482 H2489 0.984 . S
N2483 C2476 1.356 1_655 S
N2483 H2486 0.984 . S
N2483 H2487 0.985 1_655 S
H2484 N2479 0.984 . S
H2485 N2479 0.985 . S
H2486 N2483 0.984 . S
H2487 N2483 0.985 1_455 S
H2488 N2482 0.984 1_655 S
H2489 N2482 0.984 . S
H2490 N2478 0.984 . S
H2491 N2478 0.985 . S
C2492 C2493 1.363 1_655 S
C2492 C2498 1.379 1_554 S
C2492 N2500 1.356 1_655 S
C2493 C2492 1.363 1_455 S
C2493 C2499 1.363 . S
C2494 C2495 1.363 1_455 S
C2494 C2499 1.379 1_556 S
C2494 N2501 1.356 1_455 S
C2495 C2494 1.363 1_655 S
C2495 C2498 1.363 . S
N2496 C2498 1.356 . S
N2496 H2508 0.977 1_556 S
N2496 H2509 0.985 . S
N2497 C2499 1.356 . S
N2497 H2502 0.984 . S
N2497 H2503 0.977 1_554 S
C2498 C2492 1.379 1_556 S
C2498 C2495 1.363 . S
C2498 N2496 1.356 . S
C2499 C2493 1.363 . S
C2499 C2494 1.379 1_554 S
C2499 N2497 1.356 . S
N2500 C2492 1.356 1_455 S
N2500 H2506 0.984 1_455 S
N2500 H2507 0.984 . S
N2501 C2494 1.356 1_655 S
N2501 H2504 0.984 . S
N2501 H2505 0.985 1_655 S
H2502 N2497 0.984 . S
H2503 N2497 0.977 1_556 S
H2504 N2501 0.984 . S
H2505 N2501 0.985 1_455 S
H2506 N2500 0.984 1_655 S
H2507 N2500 0.984 . S
H2508 N2496 0.977 1_554 S
H2509 N2496 0.985 . S
C2510 C2511 1.363 . S
C2510 C2516 1.379 . S
C2510 N2518 1.356 . S
C2511 C2510 1.363 . S
C2511 C2517 1.363 . S
C2512 C2513 1.363 . S
C2512 C2517 1.379 . S
C2512 N2519 1.356 . S
C2513 C2512 1.363 . S
C2513 C2516 1.363 . S
N2514 C2516 1.356 . S
N2514 H2526 0.984 . S
N2514 H2527 0.985 . S
N2515 C2517 1.356 . S
N2515 H2520 0.984 . S
N2515 H2521 0.985 . S
C2516 C2510 1.379 . S
C2516 C2513 1.363 . S
C2516 N2514 1.356 . S
C2517 C2511 1.363 . S
C2517 C2512 1.379 . S
C2517 N2515 1.356 . S
N2518 C2510 1.356 . S
N2518 H2524 0.984 . S
N2518 H2525 0.984 . S
N2519 C2512 1.356 . S
N2519 H2522 0.984 . S
N2519 H2523 0.985 . S
H2520 N2515 0.984 . S
H2521 N2515 0.985 . S
H2522 N2519 0.984 . S
H2523 N2519 0.985 . S
H2524 N2518 0.984 . S
H2525 N2518 0.984 . S
H2526 N2514 0.984 . S
H2527 N2514 0.985 . S
C1089 C9 1.519 . S
C1091 C920 1.539 . S
C1107 C43 1.519 . S
C1109 C274 1.539 . S
C1125 C852 1.539 . S
C1127 C77 1.519 . S
C1143 C342 1.539 . S
C1145 C111 1.519 . S
C1161 C988 1.539 . S
C1163 C145 1.519 . S
C1179 C179 1.519 . S
C1181 C478 1.539 . S
C1197 C213 1.519 . S
C1199 C1056 1.539 . S
C1215 C410 1.539 . S
C1217 C247 1.519 . S
C1233 C281 1.519 . S
C1235 C648 1.539 . S
C1251 C315 1.519 . S
C1253 C2 1.539 . S
C1269 C349 1.519 . S
C1271 C580 1.539 . S
C1287 C70 1.539 . S
C1289 C383 1.519 . S
C1305 C417 1.519 . S
C1307 C716 1.539 . S
C1323 C451 1.519 . S
C1325 C206 1.539 . S
C1341 C784 1.539 . S
C1343 C485 1.519 . S
C1359 C519 1.519 . S
C1361 C138 1.539 . S
C1377 C553 1.519 . S
C1379 C376 1.539 . S
C1395 C818 1.539 . S
C1397 C587 1.519 . S
C1413 C308 1.539 . S
C1415 C621 1.519 . S
C1431 C655 1.519 . S
C1433 C886 1.539 . S
C1449 C689 1.519 . S
C1451 C444 1.539 . S
C1467 C1022 1.539 . S
C1469 C723 1.519 . S
C1485 C757 1.519 . S
C1487 C512 1.539 . S
C1503 C954 1.539 . S
C1505 C791 1.519 . S
C1521 C825 1.519 . S
C1523 C104 1.539 . S
C1539 C546 1.539 . S
C1541 C859 1.519 . S
C1557 C893 1.519 . S
C1559 C36 1.539 . S
C1575 C614 1.539 . S
C1577 C927 1.519 . S
C1593 C961 1.519 . S
C1595 C172 1.539 . S
C1611 C750 1.539 . S
C1613 C995 1.519 . S
C1629 C240 1.539 . S
C1631 C1029 1.519 . S
C1647 C1063 1.519 . S
C1649 C682 1.539 . S
C1665 C5 1.514 . S
C1667 C141 1.514 . S
C1683 C39 1.514 . S
C1685 C175 1.514 . S
C1701 C209 1.514 . S
C1703 C73 1.514 . S
C1719 C107 1.514 . S
C1721 C243 1.514 . S
C1737 C277 1.514 . S
C1739 C413 1.514 . S
C1755 C311 1.514 . S
C1757 C447 1.514 . S
C1773 C345 1.514 . S
C1775 C481 1.514 . S
C1791 C379 1.514 . S
C1793 C515 1.514 . S
C1809 C549 1.514 . S
C1811 C685 1.514 . S
C1827 C719 1.515 . S
C1829 C583 1.515 . S
C1845 C753 1.515 . S
C1847 C617 1.515 . S
C1863 C787 1.515 . S
C1865 C651 1.515 . S
C1881 C957 1.514 . S
C1883 C821 1.514 . S
C1899 C855 1.515 . S
C1901 C991 1.515 . S
C1917 C889 1.515 . S
C1919 C1025 1.515 . S
C1935 C1059 1.515 . S
C1937 C923 1.515 . S
C1953 C203 1.471 . S
C1955 C33 1.471 . S
C1971 C237 1.471 . S
C1973 C67 1.471 . S
C1989 C271 1.471 . S
C1991 C101 1.471 . S
C2007 C169 1.471 . S
C2009 C135 1.471 . S
C2025 C475 1.471 . S
C2027 C305 1.471 . S
C2043 C509 1.471 . S
C2045 C339 1.471 . S
C2061 C373 1.471 . S
C2063 C543 1.471 . S
C2079 C407 1.471 . S
C2081 C441 1.471 . S
C2097 C747 1.471 . S
C2099 C577 1.471 . S
C2115 C611 1.471 . S
C2117 C781 1.471 . S
C2133 C815 1.471 . S
C2135 C645 1.471 . S
C2151 C679 1.471 . S
C2153 C713 1.471 . S
C2169 C1019 1.471 . S
C2171 C849 1.471 . S
C2187 C883 1.471 . S
C2189 C1053 1.471 . S
C2205 C917 1.471 . S
C2207 C1087 1.471 . S
C2223 C985 1.471 . S
C2225 C951 1.471 . S
C2241 C836 1.417 . S
C2243 C20 1.417 . S
C2259 C54 1.417 1_545 S
C2261 C326 1.417 1_565 S
C2277 C88 1.416 . S
C2279 C904 1.416 . S
C2295 C122 1.417 1_565 S
C2297 C394 1.417 1_545 S
C2313 C156 1.417 . S
C2315 C972 1.417 . S
C2331 C462 1.417 1_565 S
C2333 C190 1.417 1_545 S
C2349 C1040 1.416 . S
C2351 C224 1.416 . S
C2367 C530 1.417 1_545 S
C2369 C258 1.417 1_565 S
C2385 C292 1.417 . S
C2387 C564 1.417 . S
C2403 C632 1.416 . S
C2405 C360 1.416 . S
C2421 C428 1.417 . S
C2423 C700 1.417 . S
C2439 C496 1.416 . S
C2441 C768 1.416 . S
C2457 C870 1.416 . S
C2459 C598 1.416 . S
C2475 C938 1.416 . S
C2477 C666 1.416 . S
C2493 C1006 1.416 . S
C2495 C734 1.416 . S
C2511 C802 1.416 . S
C2513 C1074 1.416 . S
