# Generated by pormake.
# Topology msp, (4)-cn, num edge types: 1
# Building blocks:
#     Node 0, Type 0, BuildingBlock: MUDLON_clean_sbu_0, # of connection points: 4
#     Node 1, Type 0, BuildingBlock: MUDLON_clean_sbu_0, # of connection points: 4
#     Node 2, Type 0, BuildingBlock: MUDLON_clean_sbu_0, # of connection points: 4
#     Node 3, Type 0, BuildingBlock: MUDLON_clean_sbu_0, # of connection points: 4
#     Node 4, Type 0, BuildingBlock: MUDLON_clean_sbu_0, # of connection points: 4
#     Node 5, Type 0, BuildingBlock: MUDLON_clean_sbu_0, # of connection points: 4
#     Node 6, Type 0, BuildingBlock: MUDLON_clean_sbu_0, # of connection points: 4
#     Node 7, Type 0, BuildingBlock: MUDLON_clean_sbu_0, # of connection points: 4
#     Edge 8, Type (0, 0), BuildingBlock: KIFKEQ_clean_linker_1, # of connection points: 2
#     Edge 9, Type (0, 0), BuildingBlock: KIFKEQ_clean_linker_1, # of connection points: 2
#     Edge 10, Type (0, 0), BuildingBlock: KIFKEQ_clean_linker_1, # of connection points: 2
#     Edge 11, Type (0, 0), BuildingBlock: KIFKEQ_clean_linker_1, # of connection points: 2
#     Edge 12, Type (0, 0), BuildingBlock: KIFKEQ_clean_linker_1, # of connection points: 2
#     Edge 13, Type (0, 0), BuildingBlock: KIFKEQ_clean_linker_1, # of connection points: 2
#     Edge 14, Type (0, 0), BuildingBlock: KIFKEQ_clean_linker_1, # of connection points: 2
#     Edge 15, Type (0, 0), BuildingBlock: KIFKEQ_clean_linker_1, # of connection points: 2
#     Edge 16, Type (0, 0), BuildingBlock: KIFKEQ_clean_linker_1, # of connection points: 2
#     Edge 17, Type (0, 0), BuildingBlock: KIFKEQ_clean_linker_1, # of connection points: 2
#     Edge 18, Type (0, 0), BuildingBlock: KIFKEQ_clean_linker_1, # of connection points: 2
#     Edge 19, Type (0, 0), BuildingBlock: KIFKEQ_clean_linker_1, # of connection points: 2
#     Edge 20, Type (0, 0), BuildingBlock: KIFKEQ_clean_linker_1, # of connection points: 2
#     Edge 21, Type (0, 0), BuildingBlock: KIFKEQ_clean_linker_1, # of connection points: 2
#     Edge 22, Type (0, 0), BuildingBlock: KIFKEQ_clean_linker_1, # of connection points: 2
#     Edge 23, Type (0, 0), BuildingBlock: KIFKEQ_clean_linker_1, # of connection points: 2
# Relax obj value: 0.165
# Max RMSD: 0.252
# Mean RMSD: 0.252
data_MOF--net-msp--node1-MUDLON_clean_sbu_0--edge1-KIFKEQ_clean_linker_1
_symmetry_space_group_name_H-M    P1
_symmetry_Int_Tables_number       1
_symmetry_cell_setting            triclinic
loop_
_symmetry_equiv_pos_as_xyz
'x, y, z'
_cell_length_a     24.836545
_cell_length_b     25.097148
_cell_length_c     42.050381
_cell_angle_alpha  89.758988
_cell_angle_beta   101.06732
_cell_angle_gamma 90.167818
loop_
_atom_site_label
_atom_site_type_symbol
_atom_site_fract_x
_atom_site_fract_y
_atom_site_fract_z
_atom_type_partial_charge
Mg0 Mg 0.06977 0.29243 0.38658 0.0
C1 C 0.11179 0.26059 0.3284 0.0
O2 O 0.07651 0.22277 0.33154 0.0
C3 C 0.03936 0.35922 0.43785 0.0
O4 O 1.00875 0.31641 0.43785 0.0
C5 C 0.96265 0.23198 0.35829 0.0
O6 O 0.991 0.18926 0.36897 0.0
O7 O 0.98495 0.27758 0.36336 0.0
O8 O 0.11703 0.2996 0.34804 0.0
O9 O 0.10939 0.23051 0.41954 0.0
C10 C 0.15972 0.22173 0.41907 0.0
O11 O 0.18212 0.24621 0.3972 0.0
O12 O 0.07071 0.36243 0.41724 0.0
Mg13 Mg 0.47443 0.29739 0.66278 0.0
C14 C 0.40849 0.26545 0.70913 0.0
O15 O 0.43134 0.22177 0.70086 0.0
C16 C 0.48924 0.35394 0.60297 0.0
O17 O 0.48857 0.30348 0.59482 0.0
C18 C 0.59818 0.28385 0.68318 0.0
O19 O 0.59797 0.31317 0.65721 0.0
O20 O 0.55271 0.2693 0.69013 0.0
O21 O 0.42109 0.30968 0.69747 0.0
O22 O 0.42506 0.24065 0.63082 0.0
C23 C 0.43631 0.20087 0.61472 0.0
O24 O 0.48761 0.18631 0.61671 0.0
O25 O 0.48512 0.36578 0.63185 0.0
Mg26 Mg 1.00054 0.70207 0.66271 0.0
C27 C 0.93443 0.73752 0.7091 0.0
O28 O 0.95941 0.78069 0.70158 0.0
C29 C 1.02609 0.64198 0.60744 0.0
O30 O 0.03668 0.69172 0.60089 0.0
C31 C 0.09187 0.71292 0.71929 0.0
O32 O 0.05584 0.68428 0.73105 0.0
O33 O 0.08024 0.72779 0.68978 0.0
O34 O 0.94517 0.69335 0.69692 0.0
O35 O 0.95656 0.75854 0.62772 0.0
C36 C 0.90686 0.74362 0.61932 0.0
O37 O 0.89147 0.69963 0.63213 0.0
O38 O 1.01014 0.63184 0.63388 0.0
Mg39 Mg 0.5596 0.71736 0.39417 0.0
C40 C 0.66478 0.69695 0.3685 0.0
O41 O 0.68372 0.68421 0.39893 0.0
C42 C 0.51246 0.6265 0.42847 0.0
O43 O 0.4665 0.64493 0.41123 0.0
C44 C 0.46309 0.70381 0.34154 0.0
O45 O 0.49726 0.66738 0.33504 0.0
O46 O 0.478 0.73325 0.36625 0.0
O47 O 0.61454 0.70954 0.35988 0.0
O48 O 0.59327 0.77907 0.42843 0.0
C49 C 0.63415 0.80719 0.42438 0.0
O50 O 0.64922 0.80654 0.39611 0.0
O51 O 0.55776 0.6472 0.42488 0.0
Mg52 Mg 0.57663 0.79136 0.89316 0.0
C53 C 0.62875 0.7746 0.83539 0.0
O54 O 0.5865 0.74215 0.82878 0.0
C55 C 0.55394 0.852 0.94964 0.0
O56 O 0.54535 0.80237 0.95745 0.0
C57 C 0.4538 0.79179 0.86749 0.0
O58 O 0.45657 0.82993 0.88904 0.0
O59 O 0.49742 0.76728 0.86473 0.0
O60 O 0.63398 0.80357 0.86058 0.0
O61 O 0.61571 0.73283 0.9284 0.0
C62 C 0.65353 0.70228 0.92275 0.0
O63 O 0.66291 0.69948 0.89312 0.0
O64 O 0.56745 0.86137 0.92241 0.0
Mg65 Mg 0.98362 0.79472 0.16452 0.0
C66 C 0.92656 0.7553 0.21464 0.0
O67 O 0.95827 0.71573 0.20948 0.0
C68 C 0.02914 0.88363 0.1289 0.0
O69 O 0.07464 0.86563 0.1469 0.0
C70 C 0.08874 0.73628 0.19707 0.0
O71 O 0.06223 0.69372 0.18434 0.0
O72 O 0.066 0.78162 0.19206 0.0
O73 O 0.92811 0.79839 0.19874 0.0
O74 O 0.95127 0.73036 0.13221 0.0
C75 C 0.96083 0.72923 0.10361 0.0
O76 O 0.99739 0.76233 0.09588 0.0
O77 O 0.98354 0.86382 0.13268 0.0
Mg78 Mg 0.49213 0.21212 0.1608 0.0
C79 C 0.38447 0.19278 0.18315 0.0
O80 O 0.36786 0.18273 0.15216 0.0
C81 C 0.52955 0.14434 0.11162 0.0
O82 O 0.55846 0.18809 0.11082 0.0
C83 C 0.58827 0.19812 0.2137 0.0
O84 O 0.55495 0.15983 0.21915 0.0
O85 O 0.5729 0.22902 0.18961 0.0
O86 O 0.43488 0.20313 0.19364 0.0
O87 O 0.45844 0.27309 0.12566 0.0
C88 C 0.41869 0.30226 0.13003 0.0
O89 O 0.40475 0.30256 0.15861 0.0
O90 O 0.49737 0.14132 0.13176 0.0
Mg91 Mg 0.04962 0.21058 0.89237 0.0
C92 C 0.10623 0.23501 0.83867 0.0
O93 O 0.07571 0.27726 0.8402 0.0
C94 C 0.07363 0.11459 0.9378 0.0
O95 O 0.12378 0.12275 0.93308 0.0
C96 C 0.95558 0.21192 0.83777 0.0
O97 O 0.98723 0.17397 0.83027 0.0
O98 O 0.9709 0.23694 0.86427 0.0
O99 O 0.1022 0.19575 0.85736 0.0
O100 O 0.09624 0.26727 0.92652 0.0
C101 C 0.14798 0.26095 0.93024 0.0
O102 O 0.16666 0.22493 0.91261 0.0
O103 O 0.03482 0.14293 0.92233 0.0
H104 H 0.96984 0.36682 0.48053 0.0
H105 H 0.10676 0.44661 0.45111 0.0
H106 H 0.96844 0.43411 0.52176 0.0
H107 H 0.10645 0.51339 0.49316 0.0
H108 H 0.05046 0.65441 0.54735 0.0
H109 H 0.05447 0.58667 0.50682 0.0
H110 H 1.01749 0.46546 0.57276 0.0
H111 H 1.01181 0.53387 0.61315 0.0
C112 C 0.99988 0.39865 0.48294 0.0
C113 C 0.03837 0.40134 0.46242 0.0
C114 C 0.99935 0.43708 0.50684 0.0
C115 C 0.0375 0.47917 0.51104 0.0
C116 C 0.076 0.48194 0.49043 0.0
C117 C 0.07633 0.44355 0.46636 0.0
C118 C 0.04332 0.6133 0.55333 0.0
C119 C 0.03064 0.59964 0.58354 0.0
C120 C 0.046 0.5743 0.53007 0.0
C121 C 0.03633 0.52043 0.53638 0.0
C122 C 1.02436 0.50663 0.56681 0.0
C123 C 1.02143 0.5458 0.59009 0.0
H124 H 0.59249 0.60189 0.48099 0.0
H125 H 0.42812 0.55917 0.43352 0.0
H126 H 0.58691 0.53764 0.52432 0.0
H127 H 0.42304 0.49467 0.47651 0.0
H128 H 0.46717 0.34162 0.5377 0.0
H129 H 0.47381 0.40758 0.49601 0.0
H130 H 0.52748 0.52552 0.56975 0.0
H131 H 0.52009 0.45922 0.61194 0.0
C132 C 0.5554 0.57851 0.47965 0.0
C133 C 0.5108 0.58545 0.45374 0.0
C134 C 0.55207 0.54215 0.5046 0.0
C135 C 0.5045 0.51135 0.5038 0.0
C136 C 0.46029 0.51776 0.47767 0.0
C137 C 0.46322 0.5547 0.45308 0.0
C138 C 0.48037 0.38159 0.54515 0.0
C139 C 0.49308 0.39521 0.57817 0.0
C140 C 0.48393 0.4194 0.52121 0.0
C141 C 0.50112 0.47162 0.52963 0.0
C142 C 0.51439 0.48539 0.56263 0.0
C143 C 0.50986 0.44762 0.58671 0.0
H144 H 0.46699 0.05347 0.10106 0.0
H145 H 0.59949 0.13694 0.06909 0.0
H146 H 0.47076 0.98406 0.06107 0.0
H147 H 0.6043 0.06706 0.02982 0.0
H148 H 0.56335 0.96003 0.94101 0.0
H149 H 0.55576 0.03057 0.97977 0.0
H150 H 0.52698 0.9122 0.04958 0.0
H151 H 0.53303 0.84219 1.01071 0.0
C152 C 0.49721 0.0568 0.0857 0.0
C153 C 0.53291 0.10079 0.08831 0.0
C154 C 0.49954 0.0169 0.06281 0.0
C155 C 0.53778 0.01991 0.04207 0.0
C156 C 0.57368 0.0638 0.04492 0.0
C157 C 0.57121 0.10373 0.06768 0.0
C158 C 0.55522 0.94916 0.96459 0.0
C159 C 0.54881 0.89545 0.97271 0.0
C160 C 0.55117 0.98956 0.98692 0.0
C161 C 0.54081 0.97717 1.01791 0.0
C162 C 0.53415 0.92341 0.02584 0.0
C163 C 0.53799 0.88314 1.00354 0.0
H164 H 0.94824 0.90848 0.07678 0.0
H165 H 0.11713 0.94258 0.11947 0.0
H166 H 0.95702 0.96206 0.02944 0.0
H167 H 0.12547 -0.00259 0.07284 0.0
H168 H 0.14492 0.04272 0.97192 0.0
H169 H 0.13171 0.98776 1.01763 0.0
H170 H 0.96742 0.04979 1.00934 0.0
H171 H 0.9801 0.10342 0.96286 0.0
C172 C 0.98695 0.92817 0.07632 0.0
C173 C 0.03205 0.92106 0.10187 0.0
C174 C 0.99201 0.95897 0.04916 0.0
C175 C 0.04219 0.98367 0.04701 0.0
C176 C 0.08661 0.97796 0.07317 0.0
C177 C 0.08167 0.94689 0.10013 0.0
C178 C 0.10578 0.04428 0.97964 0.0
C179 C 0.06367 0.07764 0.96375 0.0
C180 C 0.09833 0.0131 1.00611 0.0
C181 C 0.04873 0.01477 1.01761 0.0
C182 C 1.00603 0.04707 1.0011 0.0
C183 C 1.01336 0.07799 0.97444 0.0
H184 H 0.67013 0.26951 0.20837 0.0
H185 H 0.62962 0.14039 0.26794 0.0
H186 H 0.76014 0.27764 0.24368 0.0
H187 H 0.71876 0.14925 0.30348 0.0
H188 H 0.90479 0.14089 0.3389 0.0
H189 H 0.81469 0.1334 0.3039 0.0
H190 H 0.80328 0.30501 0.29791 0.0
H191 H 0.89378 0.31252 0.33234 0.0
C192 C 0.68027 0.24307 0.22906 0.0
C193 C 0.64268 0.20424 0.23525 0.0
C194 C 0.73176 0.24789 0.24942 0.0
C195 C 0.74679 0.21401 0.27643 0.0
C196 C 0.70896 0.17544 0.28265 0.0
C197 C 0.65763 0.1706 0.26233 0.0
C198 C 0.88298 0.17703 0.33024 0.0
C199 C 0.9066 0.22727 0.33844 0.0
C200 C 0.83118 0.17276 0.31025 0.0
C201 C 0.8017 0.21862 0.29799 0.0
C202 C 0.82514 0.26886 0.30649 0.0
C203 C 0.87691 0.27314 0.32646 0.0
H204 H 0.70231 0.29527 0.67181 0.0
H205 H 0.61261 0.24647 0.74552 0.0
H206 H 0.78869 0.27972 0.70956 0.0
H207 H 0.69918 0.23126 0.78328 0.0
H208 H 0.86772 0.26943 0.84999 0.0
H209 H 0.78078 0.28676 0.81259 0.0
H210 H 0.83928 0.19997 0.73761 0.0
H211 H 0.92548 0.18241 0.77472 0.0
C212 C 0.70099 0.28106 0.69601 0.0
C213 C 0.65056 0.27193 0.7056 0.0
C214 C 0.75047 0.2721 0.7176 0.0
C215 C 0.75065 0.25448 0.7494 0.0
C216 C 0.70027 0.24538 0.75904 0.0
C217 C 0.65075 0.25364 0.7373 0.0
C218 C 0.862 0.25427 0.82549 0.0
C219 C 0.90344 0.2245 0.81535 0.0
C220 C 0.81218 0.2639 0.80417 0.0
C221 C 0.8033 0.24469 0.77219 0.0
C222 C 0.84509 0.21563 0.762 0.0
C223 C 0.89438 0.20538 0.78336 0.0
H224 H 0.11776 0.70686 0.78502 0.0
H225 H 0.18626 0.74912 0.7013 0.0
H226 H 0.20542 0.72609 0.82025 0.0
H227 H 0.27459 0.76818 0.73686 0.0
H228 H 0.43646 0.73241 0.81184 0.0
H229 H 0.3491 0.71519 0.77512 0.0
H230 H 0.26461 0.8071 0.83685 0.0
H231 H 0.35159 0.82455 0.87344 0.0
C232 C 0.15154 0.72034 0.77411 0.0
C233 C 0.14504 0.72648 0.74034 0.0
C234 C 0.20169 0.73158 0.79435 0.0
C235 C 0.24682 0.74861 0.78132 0.0
C236 C 0.24054 0.75473 0.74753 0.0
C237 C 0.18995 0.74418 0.72723 0.0
C238 C 0.39921 0.74879 0.81762 0.0
C239 C 0.40095 0.77969 0.84564 0.0
C240 C 0.34931 0.73929 0.79645 0.0
C241 C 0.3001 0.75986 0.80312 0.0
C242 C 0.30184 0.79043 0.83121 0.0
C243 C 0.35171 0.8005 0.85213 0.0
H244 H 0.37985 0.77167 0.34887 0.0
H245 H 0.42199 0.64837 0.28658 0.0
H246 H 0.28916 0.77921 0.31426 0.0
H247 H 0.33216 0.65668 0.25177 0.0
H248 H 0.14702 0.6454 0.21603 0.0
H249 H 0.23667 0.63791 0.25151 0.0
H250 H 0.24518 0.80929 0.2606 0.0
H251 H 0.1551 0.81674 0.2257 0.0
C252 C 0.36989 0.74637 0.32775 0.0
C253 C 0.40817 0.70939 0.32054 0.0
C254 C 0.31801 0.75086 0.30781 0.0
C255 C 0.30329 0.71847 0.28024 0.0
C256 C 0.34174 0.68166 0.27306 0.0
C257 C 0.39347 0.67715 0.29295 0.0
C258 C 0.16803 0.68149 0.22555 0.0
C259 C 0.14384 0.73164 0.21799 0.0
C260 C 0.21957 0.67723 0.2458 0.0
C261 C 0.2482 0.72302 0.25893 0.0
C262 C 0.22398 0.77317 0.2513 0.0
C263 C 0.17245 0.77744 0.23108 0.0
H264 H 0.40417 0.22237 0.24694 0.0
H265 H 0.27303 0.18072 0.16756 0.0
H266 H 0.33705 0.24063 0.28084 0.0
H267 H 0.20595 0.1998 0.20133 0.0
H268 H 0.10833 0.18248 0.28328 0.0
H269 H 0.17385 0.16536 0.24841 0.0
H270 H 0.26553 0.30563 0.28565 0.0
H271 H 0.20025 0.32232 0.3212 0.0
C272 C 0.36105 0.21686 0.23674 0.0
C273 C 0.34401 0.19994 0.20452 0.0
C274 C 0.32254 0.22787 0.25609 0.0
C275 C 0.26609 0.22208 0.24374 0.0
C276 C 0.24913 0.20429 0.21169 0.0
C277 C 0.28762 0.19339 0.19231 0.0
C278 C 0.1422 0.21 0.28392 0.0
C279 C 0.14908 0.25376 0.30511 0.0
C280 C 0.17969 0.20024 0.26378 0.0
C281 C 0.2251 0.23395 0.26431 0.0
C282 C 0.23141 0.27843 0.285 0.0
C283 C 0.19373 0.2883 0.30515 0.0
H284 H 0.35529 0.34654 0.73421 0.0
H285 H 0.3646 0.17497 0.72938 0.0
H286 H 0.28262 0.3382 0.76576 0.0
H287 H 0.29114 0.16663 0.75963 0.0
H288 H 0.1151 0.30586 0.79069 0.0
H289 H 0.18853 0.31335 0.76003 0.0
H290 H 0.26889 0.177 0.81146 0.0
H291 H 0.19429 0.16852 0.84133 0.0
C292 C 0.34183 0.30712 0.73985 0.0
C293 C 0.36584 0.2615 0.72932 0.0
C294 C 0.29987 0.30226 0.75771 0.0
C295 C 0.28075 0.25167 0.76521 0.0
C296 C 0.30524 0.20619 0.75483 0.0
C297 C 0.34732 0.21105 0.73726 0.0
C298 C 0.14823 0.27719 0.79526 0.0
C299 C 0.14879 0.23649 0.81839 0.0
C300 C 0.19068 0.28183 0.7779 0.0
C301 C 0.23505 0.24613 0.7834 0.0
C302 C 0.23513 0.20489 0.80625 0.0
C303 C 0.19236 0.19998 0.82344 0.0
H304 H 0.72827 0.82567 0.84704 0.0
H305 H 0.6299 0.71628 0.78083 0.0
H306 H 0.80362 0.81512 0.818 0.0
H307 H 0.70474 0.70663 0.75142 0.0
H308 H 0.86895 0.65838 0.72658 0.0
H309 H 0.79565 0.66794 0.75752 0.0
H310 H 0.82935 0.83671 0.7671 0.0
H311 H 0.90301 0.82701 0.73703 0.0
C312 C 0.72245 0.79987 0.82607 0.0
C313 C 0.673 0.77187 0.81627 0.0
C314 C 0.76566 0.79384 0.80938 0.0
C315 C 0.76041 0.75976 0.78245 0.0
C316 C 0.71059 0.73244 0.77239 0.0
C317 C 0.66745 0.73841 0.78909 0.0
C318 C 0.86095 0.69739 0.73553 0.0
C319 C 0.89185 0.74188 0.7293 0.0
C320 C 0.81866 0.70299 0.75304 0.0
C321 C 0.80641 0.75318 0.76471 0.0
C322 C 0.838 0.79739 0.75886 0.0
C323 C 0.88016 0.7918 0.74143 0.0
H324 H 0.84683 0.82362 0.22722 0.0
H325 H 0.92075 0.67029 0.25426 0.0
H326 H 0.78345 0.80908 0.26443 0.0
H327 H 0.85738 0.65568 0.29089 0.0
H328 H 0.77434 0.67378 0.37866 0.0
H329 H 0.83789 0.6896 0.34201 0.0
H330 H 0.70491 0.75059 0.2696 0.0
H331 H 0.64136 0.7353 0.30633 0.0
C332 C 0.84965 0.78695 0.24111 0.0
C333 C 0.88888 0.74817 0.23776 0.0
C334 C 0.81314 0.77845 0.26225 0.0
C335 C 0.81537 0.73118 0.28061 0.0
C336 C 0.85496 0.69276 0.27742 0.0
C337 C 0.89114 0.7011 0.25624 0.0
C338 C 0.75855 0.69027 0.35486 0.0
C339 C 0.70272 0.70316 0.34545 0.0
C340 C 0.79498 0.69925 0.33383 0.0
C341 C 0.7765 0.72157 0.30292 0.0
C342 C 0.72059 0.73405 0.2934 0.0
C343 C 0.68409 0.72479 0.31437 0.0
H344 H 0.44538 0.13641 0.56321 0.0
H345 H 0.32664 0.21685 0.60869 0.0
H346 H 0.37384 0.11868 0.51579 0.0
H347 H 0.2564 0.20151 0.5613 0.0
H348 H 0.13259 0.179 0.47431 0.0
H349 H 0.19637 0.15085 0.52311 0.0
H350 H 0.33213 0.17603 0.47392 0.0
H351 H 0.26871 0.20143 0.42523 0.0
C352 C 0.40386 0.14931 0.5634 0.0
C353 C 0.39201 0.17912 0.58939 0.0
C354 C 0.36288 0.13954 0.53612 0.0
C355 C 0.30941 0.15964 0.53428 0.0
C356 C 0.29675 0.18505 0.56165 0.0
C357 C 0.33743 0.19445 0.58886 0.0
C358 C 0.17594 0.17696 0.47372 0.0
C359 C 0.19564 0.19362 0.44612 0.0
C360 C 0.21261 0.16117 0.50176 0.0
C361 C 0.26969 0.16222 0.50282 0.0
C362 C 0.28867 0.17428 0.4742 0.0
C363 C 0.2521 0.18951 0.44619 0.0
H364 H 0.92599 0.82237 0.57681 0.0
H365 H 0.79703 0.72872 0.60553 0.0
H366 H 0.85928 0.85962 0.53159 0.0
H367 H 0.73167 0.76398 0.56056 0.0
H368 H 0.6126 0.83069 0.48405 0.0
H369 H 0.67953 0.83545 0.53461 0.0
H370 H 0.8111 0.82521 0.48091 0.0
H371 H 0.74433 0.82324 0.43049 0.0
C372 C 0.88339 0.81038 0.57377 0.0
C373 C 0.86691 0.7721 0.59446 0.0
C374 C 0.84522 0.83149 0.54782 0.0
C375 C 0.78996 0.81484 0.54228 0.0
C376 C 0.77342 0.7787 0.56419 0.0
C377 C 0.81128 0.75777 0.58989 0.0
C378 C 0.65586 0.83137 0.48304 0.0
C379 C 0.67318 0.82554 0.45338 0.0
C380 C 0.69428 0.83366 0.51202 0.0
C381 C 0.75076 0.82896 0.51196 0.0
C382 C 0.76807 0.82891 0.48201 0.0
C383 C 0.72962 0.82759 0.45298 0.0
H384 H 0.87155 0.66846 0.10991 0.0
H385 H 0.96124 0.72822 0.03871 0.0
H386 H 0.79651 0.64156 0.06659 0.0
H387 H 0.88605 0.70233 0.99562 0.0
H388 H 0.74908 0.64968 0.92026 0.0
H389 H 0.82642 0.63611 0.96493 0.0
H390 H 0.72984 0.6971 0.03186 0.0
H391 H 0.65247 0.70968 0.9875 0.0
C392 C 0.87588 0.67475 0.08502 0.0
C393 C 0.92199 0.70144 0.07779 0.0
C394 C 0.8327 0.65956 0.0602 0.0
C395 C 0.83479 0.67058 0.02765 0.0
C396 C 0.88306 0.6929 1.02038 0.0
C397 C 0.9262 0.70809 0.04517 0.0
C398 C 0.74382 0.65878 0.94463 0.0
C399 C 0.69489 0.68174 0.95021 0.0
C400 C 0.78831 0.65126 0.97021 0.0
C401 C 0.78471 0.66637 1.00189 0.0
C402 C 0.73409 0.68472 1.00783 0.0
C403 C 0.68967 0.69226 0.98228 0.0
H404 H 0.30813 0.31244 0.12357 0.0
H405 H 0.44051 0.33378 0.07155 0.0
H406 H 0.24189 0.31949 0.07324 0.0
H407 H 0.37411 0.34479 1.02115 0.0
H408 H 0.25879 0.25448 0.94127 0.0
H409 H 0.32323 0.2825 0.98846 0.0
H410 H 0.19209 0.35793 0.02603 0.0
H411 H 0.12625 0.32675 0.97875 0.0
C412 C 0.323 0.32092 0.10148 0.0
C413 C 0.37953 0.32165 0.10137 0.0
C414 C 0.28483 0.32521 0.07246 0.0
C415 C 0.30239 0.33136 0.04275 0.0
C416 C 0.35896 0.3381 0.04332 0.0
C417 C 0.39714 0.3324 0.07224 0.0
C418 C 0.24349 0.27763 0.95932 0.0
C419 C 0.18711 0.28749 0.95647 0.0
C420 C 0.28088 0.29448 0.98644 0.0
C421 C 0.26326 0.32244 1.01148 0.0
C422 C 0.20717 0.33562 1.00759 0.0
C423 C 0.1694 0.31814 0.98038 0.0
loop_
_geom_bond_atom_site_label_1
_geom_bond_atom_site_label_2
_geom_bond_distance
_geom_bond_site_symmetry_2
_ccdc_geom_bond_type
Mg0 O7 2.141 1_455 S
Mg0 O8 2.048 . S
Mg0 O9 2.048 . S
Mg0 O12 2.141 . S
C1 O2 1.313 . S
C1 O8 1.195 . S
O2 C1 1.313 . S
C3 O4 1.245 . S
C3 O12 1.289 1_655 S
O4 C3 1.245 . S
C5 O6 1.245 . S
C5 O7 1.289 . S
O6 C5 1.245 . S
O7 Mg0 2.141 1_655 S
O7 C5 1.289 . S
O8 Mg0 2.048 . S
O8 C1 1.195 . S
O9 Mg0 2.048 . S
O9 C10 1.195 . S
C10 O9 1.195 . S
C10 O11 1.313 . S
O11 C10 1.313 . S
O12 Mg0 2.141 . S
O12 C3 1.289 1_455 S
Mg13 O20 2.141 . S
Mg13 O21 2.048 . S
Mg13 O22 2.048 . S
Mg13 O25 2.141 . S
C14 O15 1.313 . S
C14 O21 1.195 . S
O15 C14 1.313 . S
C16 O17 1.245 . S
C16 O25 1.289 . S
O17 C16 1.245 . S
C18 O19 1.245 . S
C18 O20 1.289 . S
O19 C18 1.245 . S
O20 Mg13 2.141 . S
O20 C18 1.289 . S
O21 Mg13 2.048 . S
O21 C14 1.195 . S
O22 Mg13 2.048 . S
O22 C23 1.195 . S
C23 O22 1.195 . S
C23 O24 1.313 . S
O24 C23 1.313 . S
O25 Mg13 2.141 . S
O25 C16 1.289 . S
Mg26 O33 2.141 1_655 S
Mg26 O34 2.048 . S
Mg26 O35 2.048 . S
Mg26 O38 2.144 . S
C27 O28 1.313 . S
C27 O34 1.195 . S
O28 C27 1.313 . S
C29 O30 1.245 1_455 S
C29 O38 1.289 1_455 S
O30 C29 1.245 1_655 S
C31 O32 1.245 . S
C31 O33 1.289 . S
O32 C31 1.245 . S
O33 Mg26 2.141 1_455 S
O33 C31 1.289 . S
O34 Mg26 2.048 . S
O34 C27 1.195 . S
O35 Mg26 2.048 . S
O35 C36 1.195 . S
C36 O35 1.195 . S
C36 O37 1.313 . S
O37 C36 1.313 . S
O38 Mg26 2.144 . S
O38 C29 1.289 1_655 S
Mg39 O46 2.141 . S
Mg39 O47 2.048 . S
Mg39 O48 2.048 . S
Mg39 O51 2.141 . S
C40 O41 1.313 . S
C40 O47 1.195 . S
O41 C40 1.313 . S
C42 O43 1.245 . S
C42 O51 1.289 . S
O43 C42 1.245 . S
C44 O45 1.245 . S
C44 O46 1.289 . S
O45 C44 1.245 . S
O46 Mg39 2.141 . S
O46 C44 1.289 . S
O47 Mg39 2.048 . S
O47 C40 1.195 . S
O48 Mg39 2.048 . S
O48 C49 1.195 . S
C49 O48 1.195 . S
C49 O50 1.313 . S
O50 C49 1.313 . S
O51 Mg39 2.141 . S
O51 C42 1.289 . S
Mg52 O59 2.141 . S
Mg52 O60 2.048 . S
Mg52 O61 2.048 . S
Mg52 O64 2.141 . S
C53 O54 1.313 . S
C53 O60 1.195 . S
O54 C53 1.313 . S
C55 O56 1.245 . S
C55 O64 1.289 . S
O56 C55 1.245 . S
C57 O58 1.245 . S
C57 O59 1.289 . S
O58 C57 1.245 . S
O59 Mg52 2.141 . S
O59 C57 1.289 . S
O60 Mg52 2.048 . S
O60 C53 1.195 . S
O61 Mg52 2.048 . S
O61 C62 1.195 . S
C62 O61 1.195 . S
C62 O63 1.313 . S
O63 C62 1.313 . S
O64 Mg52 2.141 . S
O64 C55 1.289 . S
Mg65 O72 2.141 1_655 S
Mg65 O73 2.048 . S
Mg65 O74 2.048 . S
Mg65 O77 2.141 . S
C66 O67 1.313 . S
C66 O73 1.195 . S
O67 C66 1.313 . S
C68 O69 1.245 . S
C68 O77 1.289 1_455 S
O69 C68 1.245 . S
C70 O71 1.245 . S
C70 O72 1.289 . S
O71 C70 1.245 . S
O72 Mg65 2.141 1_455 S
O72 C70 1.289 . S
O73 Mg65 2.048 . S
O73 C66 1.195 . S
O74 Mg65 2.048 . S
O74 C75 1.195 . S
C75 O74 1.195 . S
C75 O76 1.313 . S
O76 C75 1.313 . S
O77 Mg65 2.141 . S
O77 C68 1.289 1_655 S
Mg78 O85 2.141 . S
Mg78 O86 2.048 . S
Mg78 O87 2.048 . S
Mg78 O90 2.141 . S
C79 O80 1.313 . S
C79 O86 1.195 . S
O80 C79 1.313 . S
C81 O82 1.245 . S
C81 O90 1.289 . S
O82 C81 1.245 . S
C83 O84 1.245 . S
C83 O85 1.289 . S
O84 C83 1.245 . S
O85 Mg78 2.141 . S
O85 C83 1.289 . S
O86 Mg78 2.048 . S
O86 C79 1.195 . S
O87 Mg78 2.048 . S
O87 C88 1.195 . S
C88 O87 1.195 . S
C88 O89 1.313 . S
O89 C88 1.313 . S
O90 Mg78 2.141 . S
O90 C81 1.289 . S
Mg91 O98 2.141 1_455 S
Mg91 O99 2.048 . S
Mg91 O100 2.048 . S
Mg91 O103 2.144 . S
C92 O93 1.313 . S
C92 O99 1.195 . S
O93 C92 1.313 . S
C94 O95 1.245 1_655 S
C94 O103 1.289 1_655 S
O95 C94 1.245 1_455 S
C96 O97 1.245 . S
C96 O98 1.289 . S
O97 C96 1.245 . S
O98 Mg91 2.141 1_655 S
O98 C96 1.289 . S
O99 Mg91 2.048 . S
O99 C92 1.195 . S
O100 Mg91 2.048 . S
O100 C101 1.195 . S
C101 O100 1.195 . S
C101 O102 1.313 . S
O102 C101 1.313 . S
O103 Mg91 2.144 . S
O103 C94 1.289 1_455 S
H104 C112 0.950 . S
H105 C117 0.950 . S
H106 C114 0.950 . S
H107 C116 0.950 . S
H108 C118 0.950 . S
H109 C120 0.950 . S
H110 C122 0.950 . S
H111 C123 0.950 . S
C112 H104 0.950 . S
C112 C113 1.386 . S
C112 C114 1.391 . S
C113 C112 1.386 . S
C113 C117 1.393 1_655 S
C114 H106 0.950 . S
C114 C112 1.391 . S
C114 C115 1.400 . S
C115 C114 1.400 . S
C115 C116 1.398 1_655 S
C115 C121 1.491 1_655 S
C116 H107 0.950 . S
C116 C115 1.398 1_455 S
C116 C117 1.391 . S
C117 H105 0.950 . S
C117 C113 1.393 1_455 S
C117 C116 1.391 . S
C118 H108 0.950 . S
C118 C119 1.386 . S
C118 C120 1.391 . S
C119 C118 1.386 . S
C119 C123 1.393 1_455 S
C120 H109 0.950 . S
C120 C118 1.391 . S
C120 C121 1.400 . S
C121 C115 1.491 1_455 S
C121 C120 1.400 . S
C121 C122 1.398 1_455 S
C122 H110 0.950 . S
C122 C121 1.398 1_655 S
C122 C123 1.391 . S
C123 H111 0.950 . S
C123 C119 1.393 1_655 S
C123 C122 1.391 . S
H124 C132 0.950 . S
H125 C137 0.950 . S
H126 C134 0.950 . S
H127 C136 0.950 . S
H128 C138 0.950 . S
H129 C140 0.950 . S
H130 C142 0.950 . S
H131 C143 0.950 . S
C132 H124 0.950 . S
C132 C133 1.386 . S
C132 C134 1.391 . S
C133 C132 1.386 . S
C133 C137 1.393 . S
C134 H126 0.950 . S
C134 C132 1.391 . S
C134 C135 1.400 . S
C135 C134 1.400 . S
C135 C136 1.398 . S
C135 C141 1.491 . S
C136 H127 0.950 . S
C136 C135 1.398 . S
C136 C137 1.391 . S
C137 H125 0.950 . S
C137 C133 1.393 . S
C137 C136 1.391 . S
C138 H128 0.950 . S
C138 C139 1.386 . S
C138 C140 1.391 . S
C139 C138 1.386 . S
C139 C143 1.393 . S
C140 H129 0.950 . S
C140 C138 1.391 . S
C140 C141 1.400 . S
C141 C135 1.491 . S
C141 C140 1.400 . S
C141 C142 1.398 . S
C142 H130 0.950 . S
C142 C141 1.398 . S
C142 C143 1.391 . S
C143 H131 0.950 . S
C143 C139 1.393 . S
C143 C142 1.391 . S
H144 C152 0.950 . S
H145 C157 0.950 . S
H146 C154 0.950 . S
H147 C156 0.950 1_556 S
H148 C158 0.950 . S
H149 C160 0.950 . S
H150 C162 0.950 1_554 S
H151 C163 0.950 . S
C152 H144 0.950 . S
C152 C153 1.386 . S
C152 C154 1.391 . S
C153 C152 1.386 . S
C153 C157 1.393 . S
C154 H146 0.950 . S
C154 C152 1.391 . S
C154 C155 1.400 . S
C155 C154 1.400 . S
C155 C156 1.398 . S
C155 C161 1.491 1_544 S
C156 H147 0.950 1_554 S
C156 C155 1.398 . S
C156 C157 1.391 . S
C157 H145 0.950 . S
C157 C153 1.393 . S
C157 C156 1.391 . S
C158 H148 0.950 . S
C158 C159 1.386 . S
C158 C160 1.391 . S
C159 C158 1.386 . S
C159 C163 1.393 . S
C160 H149 0.950 . S
C160 C158 1.391 . S
C160 C161 1.400 . S
C161 C155 1.491 1_566 S
C161 C160 1.400 . S
C161 C162 1.398 . S
C162 H150 0.950 1_556 S
C162 C161 1.398 . S
C162 C163 1.391 . S
C163 H151 0.950 . S
C163 C159 1.393 . S
C163 C162 1.391 . S
H164 C172 0.950 . S
H165 C177 0.950 . S
H166 C174 0.950 1_545 S
H167 C176 0.950 1_556 S
H168 C178 0.950 . S
H169 C180 0.950 1_565 S
H170 C182 0.950 1_554 S
H171 C183 0.950 . S
C172 H164 0.950 . S
C172 C173 1.386 1_655 S
C172 C174 1.391 . S
C173 C172 1.386 1_455 S
C173 C177 1.393 . S
C174 H166 0.950 1_565 S
C174 C172 1.391 . S
C174 C175 1.400 1_655 S
C175 C174 1.400 1_455 S
C175 C176 1.398 . S
C175 C181 1.491 1_464 S
C176 H167 0.950 1_554 S
C176 C175 1.398 . S
C176 C177 1.391 . S
C177 H165 0.950 . S
C177 C173 1.393 . S
C177 C176 1.391 . S
C178 H168 0.950 . S
C178 C179 1.386 1_455 S
C178 C180 1.391 . S
C179 C178 1.386 1_655 S
C179 C183 1.393 . S
C180 H169 0.950 1_545 S
C180 C178 1.391 . S
C180 C181 1.400 1_455 S
C181 C175 1.491 1_646 S
C181 C180 1.400 1_655 S
C181 C182 1.398 . S
C182 H170 0.950 1_556 S
C182 C181 1.398 . S
C182 C183 1.391 . S
C183 H171 0.950 . S
C183 C179 1.393 . S
C183 C182 1.391 . S
H184 C192 0.950 . S
H185 C197 0.950 . S
H186 C194 0.950 . S
H187 C196 0.950 . S
H188 C198 0.950 . S
H189 C200 0.950 . S
H190 C202 0.950 . S
H191 C203 0.950 . S
C192 H184 0.950 . S
C192 C193 1.386 . S
C192 C194 1.391 . S
C193 C192 1.386 . S
C193 C197 1.393 . S
C194 H186 0.950 . S
C194 C192 1.391 . S
C194 C195 1.400 . S
C195 C194 1.400 . S
C195 C196 1.398 . S
C195 C201 1.491 . S
C196 H187 0.950 . S
C196 C195 1.398 . S
C196 C197 1.391 . S
C197 H185 0.950 . S
C197 C193 1.393 . S
C197 C196 1.391 . S
C198 H188 0.950 . S
C198 C199 1.386 . S
C198 C200 1.391 . S
C199 C198 1.386 . S
C199 C203 1.393 . S
C200 H189 0.950 . S
C200 C198 1.391 . S
C200 C201 1.400 . S
C201 C195 1.491 . S
C201 C200 1.400 . S
C201 C202 1.398 . S
C202 H190 0.950 . S
C202 C201 1.398 . S
C202 C203 1.391 . S
C203 H191 0.950 . S
C203 C199 1.393 . S
C203 C202 1.391 . S
H204 C212 0.950 . S
H205 C217 0.950 . S
H206 C214 0.950 . S
H207 C216 0.950 . S
H208 C218 0.950 . S
H209 C220 0.950 . S
H210 C222 0.950 . S
H211 C223 0.950 . S
C212 H204 0.950 . S
C212 C213 1.386 . S
C212 C214 1.391 . S
C213 C212 1.386 . S
C213 C217 1.393 . S
C214 H206 0.950 . S
C214 C212 1.391 . S
C214 C215 1.400 . S
C215 C214 1.400 . S
C215 C216 1.398 . S
C215 C221 1.491 . S
C216 H207 0.950 . S
C216 C215 1.398 . S
C216 C217 1.391 . S
C217 H205 0.950 . S
C217 C213 1.393 . S
C217 C216 1.391 . S
C218 H208 0.950 . S
C218 C219 1.386 . S
C218 C220 1.391 . S
C219 C218 1.386 . S
C219 C223 1.393 . S
C220 H209 0.950 . S
C220 C218 1.391 . S
C220 C221 1.400 . S
C221 C215 1.491 . S
C221 C220 1.400 . S
C221 C222 1.398 . S
C222 H210 0.950 . S
C222 C221 1.398 . S
C222 C223 1.391 . S
C223 H211 0.950 . S
C223 C219 1.393 . S
C223 C222 1.391 . S
H224 C232 0.950 . S
H225 C237 0.950 . S
H226 C234 0.950 . S
H227 C236 0.950 . S
H228 C238 0.950 . S
H229 C240 0.950 . S
H230 C242 0.950 . S
H231 C243 0.950 . S
C232 H224 0.950 . S
C232 C233 1.386 . S
C232 C234 1.391 . S
C233 C232 1.386 . S
C233 C237 1.393 . S
C234 H226 0.950 . S
C234 C232 1.391 . S
C234 C235 1.400 . S
C235 C234 1.400 . S
C235 C236 1.398 . S
C235 C241 1.491 . S
C236 H227 0.950 . S
C236 C235 1.398 . S
C236 C237 1.391 . S
C237 H225 0.950 . S
C237 C233 1.393 . S
C237 C236 1.391 . S
C238 H228 0.950 . S
C238 C239 1.386 . S
C238 C240 1.391 . S
C239 C238 1.386 . S
C239 C243 1.393 . S
C240 H229 0.950 . S
C240 C238 1.391 . S
C240 C241 1.400 . S
C241 C235 1.491 . S
C241 C240 1.400 . S
C241 C242 1.398 . S
C242 H230 0.950 . S
C242 C241 1.398 . S
C242 C243 1.391 . S
C243 H231 0.950 . S
C243 C239 1.393 . S
C243 C242 1.391 . S
H244 C252 0.950 . S
H245 C257 0.950 . S
H246 C254 0.950 . S
H247 C256 0.950 . S
H248 C258 0.950 . S
H249 C260 0.950 . S
H250 C262 0.950 . S
H251 C263 0.950 . S
C252 H244 0.950 . S
C252 C253 1.386 . S
C252 C254 1.391 . S
C253 C252 1.386 . S
C253 C257 1.393 . S
C254 H246 0.950 . S
C254 C252 1.391 . S
C254 C255 1.400 . S
C255 C254 1.400 . S
C255 C256 1.398 . S
C255 C261 1.491 . S
C256 H247 0.950 . S
C256 C255 1.398 . S
C256 C257 1.391 . S
C257 H245 0.950 . S
C257 C253 1.393 . S
C257 C256 1.391 . S
C258 H248 0.950 . S
C258 C259 1.386 . S
C258 C260 1.391 . S
C259 C258 1.386 . S
C259 C263 1.393 . S
C260 H249 0.950 . S
C260 C258 1.391 . S
C260 C261 1.400 . S
C261 C255 1.491 . S
C261 C260 1.400 . S
C261 C262 1.398 . S
C262 H250 0.950 . S
C262 C261 1.398 . S
C262 C263 1.391 . S
C263 H251 0.950 . S
C263 C259 1.393 . S
C263 C262 1.391 . S
H264 C272 0.950 . S
H265 C277 0.950 . S
H266 C274 0.950 . S
H267 C276 0.950 . S
H268 C278 0.950 . S
H269 C280 0.950 . S
H270 C282 0.950 . S
H271 C283 0.950 . S
C272 H264 0.950 . S
C272 C273 1.386 . S
C272 C274 1.391 . S
C273 C272 1.386 . S
C273 C277 1.393 . S
C274 H266 0.950 . S
C274 C272 1.391 . S
C274 C275 1.400 . S
C275 C274 1.400 . S
C275 C276 1.398 . S
C275 C281 1.491 . S
C276 H267 0.950 . S
C276 C275 1.398 . S
C276 C277 1.391 . S
C277 H265 0.950 . S
C277 C273 1.393 . S
C277 C276 1.391 . S
C278 H268 0.950 . S
C278 C279 1.386 . S
C278 C280 1.391 . S
C279 C278 1.386 . S
C279 C283 1.393 . S
C280 H269 0.950 . S
C280 C278 1.391 . S
C280 C281 1.400 . S
C281 C275 1.491 . S
C281 C280 1.400 . S
C281 C282 1.398 . S
C282 H270 0.950 . S
C282 C281 1.398 . S
C282 C283 1.391 . S
C283 H271 0.950 . S
C283 C279 1.393 . S
C283 C282 1.391 . S
H284 C292 0.950 . S
H285 C297 0.950 . S
H286 C294 0.950 . S
H287 C296 0.950 . S
H288 C298 0.950 . S
H289 C300 0.950 . S
H290 C302 0.950 . S
H291 C303 0.950 . S
C292 H284 0.950 . S
C292 C293 1.386 . S
C292 C294 1.391 . S
C293 C292 1.386 . S
C293 C297 1.393 . S
C294 H286 0.950 . S
C294 C292 1.391 . S
C294 C295 1.400 . S
C295 C294 1.400 . S
C295 C296 1.398 . S
C295 C301 1.491 . S
C296 H287 0.950 . S
C296 C295 1.398 . S
C296 C297 1.391 . S
C297 H285 0.950 . S
C297 C293 1.393 . S
C297 C296 1.391 . S
C298 H288 0.950 . S
C298 C299 1.386 . S
C298 C300 1.391 . S
C299 C298 1.386 . S
C299 C303 1.393 . S
C300 H289 0.950 . S
C300 C298 1.391 . S
C300 C301 1.400 . S
C301 C295 1.491 . S
C301 C300 1.400 . S
C301 C302 1.398 . S
C302 H290 0.950 . S
C302 C301 1.398 . S
C302 C303 1.391 . S
C303 H291 0.950 . S
C303 C299 1.393 . S
C303 C302 1.391 . S
H304 C312 0.950 . S
H305 C317 0.950 . S
H306 C314 0.950 . S
H307 C316 0.950 . S
H308 C318 0.950 . S
H309 C320 0.950 . S
H310 C322 0.950 . S
H311 C323 0.950 . S
C312 H304 0.950 . S
C312 C313 1.386 . S
C312 C314 1.391 . S
C313 C312 1.386 . S
C313 C317 1.393 . S
C314 H306 0.950 . S
C314 C312 1.391 . S
C314 C315 1.400 . S
C315 C314 1.400 . S
C315 C316 1.398 . S
C315 C321 1.491 . S
C316 H307 0.950 . S
C316 C315 1.398 . S
C316 C317 1.391 . S
C317 H305 0.950 . S
C317 C313 1.393 . S
C317 C316 1.391 . S
C318 H308 0.950 . S
C318 C319 1.386 . S
C318 C320 1.391 . S
C319 C318 1.386 . S
C319 C323 1.393 . S
C320 H309 0.950 . S
C320 C318 1.391 . S
C320 C321 1.400 . S
C321 C315 1.491 . S
C321 C320 1.400 . S
C321 C322 1.398 . S
C322 H310 0.950 . S
C322 C321 1.398 . S
C322 C323 1.391 . S
C323 H311 0.950 . S
C323 C319 1.393 . S
C323 C322 1.391 . S
H324 C332 0.950 . S
H325 C337 0.950 . S
H326 C334 0.950 . S
H327 C336 0.950 . S
H328 C338 0.950 . S
H329 C340 0.950 . S
H330 C342 0.950 . S
H331 C343 0.950 . S
C332 H324 0.950 . S
C332 C333 1.386 . S
C332 C334 1.391 . S
C333 C332 1.386 . S
C333 C337 1.393 . S
C334 H326 0.950 . S
C334 C332 1.391 . S
C334 C335 1.400 . S
C335 C334 1.400 . S
C335 C336 1.398 . S
C335 C341 1.491 . S
C336 H327 0.950 . S
C336 C335 1.398 . S
C336 C337 1.391 . S
C337 H325 0.950 . S
C337 C333 1.393 . S
C337 C336 1.391 . S
C338 H328 0.950 . S
C338 C339 1.386 . S
C338 C340 1.391 . S
C339 C338 1.386 . S
C339 C343 1.393 . S
C340 H329 0.950 . S
C340 C338 1.391 . S
C340 C341 1.400 . S
C341 C335 1.491 . S
C341 C340 1.400 . S
C341 C342 1.398 . S
C342 H330 0.950 . S
C342 C341 1.398 . S
C342 C343 1.391 . S
C343 H331 0.950 . S
C343 C339 1.393 . S
C343 C342 1.391 . S
H344 C352 0.950 . S
H345 C357 0.950 . S
H346 C354 0.950 . S
H347 C356 0.950 . S
H348 C358 0.950 . S
H349 C360 0.950 . S
H350 C362 0.950 . S
H351 C363 0.950 . S
C352 H344 0.950 . S
C352 C353 1.386 . S
C352 C354 1.391 . S
C353 C352 1.386 . S
C353 C357 1.393 . S
C354 H346 0.950 . S
C354 C352 1.391 . S
C354 C355 1.400 . S
C355 C354 1.400 . S
C355 C356 1.398 . S
C355 C361 1.491 . S
C356 H347 0.950 . S
C356 C355 1.398 . S
C356 C357 1.391 . S
C357 H345 0.950 . S
C357 C353 1.393 . S
C357 C356 1.391 . S
C358 H348 0.950 . S
C358 C359 1.386 . S
C358 C360 1.391 . S
C359 C358 1.386 . S
C359 C363 1.393 . S
C360 H349 0.950 . S
C360 C358 1.391 . S
C360 C361 1.400 . S
C361 C355 1.491 . S
C361 C360 1.400 . S
C361 C362 1.398 . S
C362 H350 0.950 . S
C362 C361 1.398 . S
C362 C363 1.391 . S
C363 H351 0.950 . S
C363 C359 1.393 . S
C363 C362 1.391 . S
H364 C372 0.950 . S
H365 C377 0.950 . S
H366 C374 0.950 . S
H367 C376 0.950 . S
H368 C378 0.950 . S
H369 C380 0.950 . S
H370 C382 0.950 . S
H371 C383 0.950 . S
C372 H364 0.950 . S
C372 C373 1.386 . S
C372 C374 1.391 . S
C373 C372 1.386 . S
C373 C377 1.393 . S
C374 H366 0.950 . S
C374 C372 1.391 . S
C374 C375 1.400 . S
C375 C374 1.400 . S
C375 C376 1.398 . S
C375 C381 1.491 . S
C376 H367 0.950 . S
C376 C375 1.398 . S
C376 C377 1.391 . S
C377 H365 0.950 . S
C377 C373 1.393 . S
C377 C376 1.391 . S
C378 H368 0.950 . S
C378 C379 1.386 . S
C378 C380 1.391 . S
C379 C378 1.386 . S
C379 C383 1.393 . S
C380 H369 0.950 . S
C380 C378 1.391 . S
C380 C381 1.400 . S
C381 C375 1.491 . S
C381 C380 1.400 . S
C381 C382 1.398 . S
C382 H370 0.950 . S
C382 C381 1.398 . S
C382 C383 1.391 . S
C383 H371 0.950 . S
C383 C379 1.393 . S
C383 C382 1.391 . S
H384 C392 0.950 . S
H385 C397 0.950 . S
H386 C394 0.950 . S
H387 C396 0.950 . S
H388 C398 0.950 . S
H389 C400 0.950 . S
H390 C402 0.950 . S
H391 C403 0.950 . S
C392 H384 0.950 . S
C392 C393 1.386 . S
C392 C394 1.391 . S
C393 C392 1.386 . S
C393 C397 1.393 . S
C394 H386 0.950 . S
C394 C392 1.391 . S
C394 C395 1.400 . S
C395 C394 1.400 . S
C395 C396 1.398 . S
C395 C401 1.491 1_554 S
C396 H387 0.950 . S
C396 C395 1.398 . S
C396 C397 1.391 . S
C397 H385 0.950 . S
C397 C393 1.393 . S
C397 C396 1.391 . S
C398 H388 0.950 . S
C398 C399 1.386 . S
C398 C400 1.391 . S
C399 C398 1.386 . S
C399 C403 1.393 . S
C400 H389 0.950 . S
C400 C398 1.391 . S
C400 C401 1.400 . S
C401 C395 1.491 1_556 S
C401 C400 1.400 . S
C401 C402 1.398 . S
C402 H390 0.950 . S
C402 C401 1.398 . S
C402 C403 1.391 . S
C403 H391 0.950 . S
C403 C399 1.393 . S
C403 C402 1.391 . S
H404 C412 0.950 . S
H405 C417 0.950 . S
H406 C414 0.950 . S
H407 C416 0.950 . S
H408 C418 0.950 . S
H409 C420 0.950 . S
H410 C422 0.950 . S
H411 C423 0.950 . S
C412 H404 0.950 . S
C412 C413 1.386 . S
C412 C414 1.391 . S
C413 C412 1.386 . S
C413 C417 1.393 . S
C414 H406 0.950 . S
C414 C412 1.391 . S
C414 C415 1.400 . S
C415 C414 1.400 . S
C415 C416 1.398 . S
C415 C421 1.491 1_554 S
C416 H407 0.950 . S
C416 C415 1.398 . S
C416 C417 1.391 . S
C417 H405 0.950 . S
C417 C413 1.393 . S
C417 C416 1.391 . S
C418 H408 0.950 . S
C418 C419 1.386 . S
C418 C420 1.391 . S
C419 C418 1.386 . S
C419 C423 1.393 . S
C420 H409 0.950 . S
C420 C418 1.391 . S
C420 C421 1.400 . S
C421 C415 1.491 1_556 S
C421 C420 1.400 . S
C421 C422 1.398 . S
C422 H410 0.950 . S
C422 C421 1.398 . S
C422 C423 1.391 . S
C423 H411 0.950 . S
C423 C419 1.393 . S
C423 C422 1.391 . S
C113 C3 1.948 . S
C119 C29 1.833 . S
C133 C42 1.822 . S
C139 C16 1.948 . S
C153 C81 1.826 . S
C159 C55 1.943 . S
C173 C68 1.950 . S
C179 C94 1.827 . S
C193 C83 2.043 . S
C199 C5 1.993 . S
C213 C18 2.001 . S
C219 C96 2.039 . S
C233 C31 2.039 . S
C239 C57 2.002 . S
C253 C44 2.043 . S
C259 C70 1.995 . S
C273 C79 2.169 . S
C279 C1 2.269 . S
C293 C14 2.264 . S
C299 C92 2.160 . S
C313 C53 2.263 . S
C319 C27 2.159 . S
C333 C66 2.271 . S
C339 C40 2.174 . S
C353 C23 0.552 . S
C359 C10 0.561 . S
C373 C36 0.509 . S
C379 C49 0.527 . S
C393 C75 0.532 . S
C399 C62 0.508 . S
C413 C88 0.496 . S
C419 C101 0.494 . S
