# Generated by pormake.
# Topology wjd, (6)-cn, num edge types: 1
# Building blocks:
#     Node 0, Type 0, BuildingBlock: KUMBOL_clean_sbu_0, # of connection points: 6
#     Node 1, Type 0, BuildingBlock: KUMBOL_clean_sbu_0, # of connection points: 6
#     Node 2, Type 0, BuildingBlock: KUMBOL_clean_sbu_0, # of connection points: 6
#     Node 3, Type 0, BuildingBlock: KUMBOL_clean_sbu_0, # of connection points: 6
#     Node 4, Type 0, BuildingBlock: KUMBOL_clean_sbu_0, # of connection points: 6
#     Node 5, Type 0, BuildingBlock: KUMBOL_clean_sbu_0, # of connection points: 6
#     Node 6, Type 0, BuildingBlock: KUMBOL_clean_sbu_0, # of connection points: 6
#     Node 7, Type 0, BuildingBlock: KUMBOL_clean_sbu_0, # of connection points: 6
#     Node 8, Type 0, BuildingBlock: KUMBOL_clean_sbu_0, # of connection points: 6
#     Node 9, Type 0, BuildingBlock: KUMBOL_clean_sbu_0, # of connection points: 6
#     Node 10, Type 0, BuildingBlock: KUMBOL_clean_sbu_0, # of connection points: 6
#     Node 11, Type 0, BuildingBlock: KUMBOL_clean_sbu_0, # of connection points: 6
#     Edge 12, Type (0, 0), BuildingBlock: AJUNOK_clean_linker_0, # of connection points: 2
#     Edge 13, Type (0, 0), BuildingBlock: AJUNOK_clean_linker_0, # of connection points: 2
#     Edge 14, Type (0, 0), BuildingBlock: AJUNOK_clean_linker_0, # of connection points: 2
#     Edge 15, Type (0, 0), BuildingBlock: AJUNOK_clean_linker_0, # of connection points: 2
#     Edge 16, Type (0, 0), BuildingBlock: AJUNOK_clean_linker_0, # of connection points: 2
#     Edge 17, Type (0, 0), BuildingBlock: AJUNOK_clean_linker_0, # of connection points: 2
#     Edge 18, Type (0, 0), BuildingBlock: AJUNOK_clean_linker_0, # of connection points: 2
#     Edge 19, Type (0, 0), BuildingBlock: AJUNOK_clean_linker_0, # of connection points: 2
#     Edge 20, Type (0, 0), BuildingBlock: AJUNOK_clean_linker_0, # of connection points: 2
#     Edge 21, Type (0, 0), BuildingBlock: AJUNOK_clean_linker_0, # of connection points: 2
#     Edge 22, Type (0, 0), BuildingBlock: AJUNOK_clean_linker_0, # of connection points: 2
#     Edge 23, Type (0, 0), BuildingBlock: AJUNOK_clean_linker_0, # of connection points: 2
#     Edge 24, Type (0, 0), BuildingBlock: AJUNOK_clean_linker_0, # of connection points: 2
#     Edge 25, Type (0, 0), BuildingBlock: AJUNOK_clean_linker_0, # of connection points: 2
#     Edge 26, Type (0, 0), BuildingBlock: AJUNOK_clean_linker_0, # of connection points: 2
#     Edge 27, Type (0, 0), BuildingBlock: AJUNOK_clean_linker_0, # of connection points: 2
#     Edge 28, Type (0, 0), BuildingBlock: AJUNOK_clean_linker_0, # of connection points: 2
#     Edge 29, Type (0, 0), BuildingBlock: AJUNOK_clean_linker_0, # of connection points: 2
#     Edge 30, Type (0, 0), BuildingBlock: AJUNOK_clean_linker_0, # of connection points: 2
#     Edge 31, Type (0, 0), BuildingBlock: AJUNOK_clean_linker_0, # of connection points: 2
#     Edge 32, Type (0, 0), BuildingBlock: AJUNOK_clean_linker_0, # of connection points: 2
#     Edge 33, Type (0, 0), BuildingBlock: AJUNOK_clean_linker_0, # of connection points: 2
#     Edge 34, Type (0, 0), BuildingBlock: AJUNOK_clean_linker_0, # of connection points: 2
#     Edge 35, Type (0, 0), BuildingBlock: AJUNOK_clean_linker_0, # of connection points: 2
#     Edge 36, Type (0, 0), BuildingBlock: AJUNOK_clean_linker_0, # of connection points: 2
#     Edge 37, Type (0, 0), BuildingBlock: AJUNOK_clean_linker_0, # of connection points: 2
#     Edge 38, Type (0, 0), BuildingBlock: AJUNOK_clean_linker_0, # of connection points: 2
#     Edge 39, Type (0, 0), BuildingBlock: AJUNOK_clean_linker_0, # of connection points: 2
#     Edge 40, Type (0, 0), BuildingBlock: AJUNOK_clean_linker_0, # of connection points: 2
#     Edge 41, Type (0, 0), BuildingBlock: AJUNOK_clean_linker_0, # of connection points: 2
#     Edge 42, Type (0, 0), BuildingBlock: AJUNOK_clean_linker_0, # of connection points: 2
#     Edge 43, Type (0, 0), BuildingBlock: AJUNOK_clean_linker_0, # of connection points: 2
#     Edge 44, Type (0, 0), BuildingBlock: AJUNOK_clean_linker_0, # of connection points: 2
#     Edge 45, Type (0, 0), BuildingBlock: AJUNOK_clean_linker_0, # of connection points: 2
#     Edge 46, Type (0, 0), BuildingBlock: AJUNOK_clean_linker_0, # of connection points: 2
#     Edge 47, Type (0, 0), BuildingBlock: AJUNOK_clean_linker_0, # of connection points: 2
# Relax obj value: 0.094
# Max RMSD: 0.225
# Mean RMSD: 0.225
data_MOF--net-wjd--node1-KUMBOL_clean_sbu_0--edge1-AJUNOK_clean_linker_0
_symmetry_space_group_name_H-M    P1
_symmetry_Int_Tables_number       1
_symmetry_cell_setting            triclinic
loop_
_symmetry_equiv_pos_as_xyz
'x, y, z'
_cell_length_a     30.247372
_cell_length_b     30.169912
_cell_length_c     40.35991
_cell_angle_alpha  89.903439
_cell_angle_beta   90.000914
_cell_angle_gamma 119.80386
loop_
_atom_site_label
_atom_site_type_symbol
_atom_site_fract_x
_atom_site_fract_y
_atom_site_fract_z
_atom_type_partial_charge
Gd0 Gd 0.33743 0.0694 0.13378 0.0
Gd1 Gd 0.41408 0.19632 0.09721 0.0
C2 C 0.32947 0.28672 0.10696 0.0
C3 C 0.28715 0.27224 0.05386 0.0
C4 C 0.34205 0.23641 0.06541 0.0
C5 C 0.34941 0.2552 0.0972 0.0
C6 C 0.31204 0.24617 0.043 0.0
C7 C 0.29714 0.29396 0.08546 0.0
C8 C 0.34367 0.31104 0.13769 0.0
C9 C 0.37663 0.30344 0.15786 0.0
N10 N 0.37931 0.2459 0.11776 0.0
C11 C 0.39455 0.27111 0.14733 0.0
H12 H 0.4222 0.26837 0.16261 0.0
C13 C 0.37348 0.20785 0.02219 0.0
N14 N 0.36842 0.21326 0.05548 0.0
C15 C 0.34336 0.21547 0.99913 0.0
C16 C 0.31047 0.23226 0.00988 0.0
H17 H 0.40088 0.19768 0.01314 0.0
H18 H 0.28015 0.31666 0.09289 0.0
H19 H 0.29871 0.97474 0.07436 0.0
H20 H 0.33086 0.33708 0.14557 0.0
H21 H 0.38905 0.3232 0.18131 0.0
H22 H 0.26206 0.27786 0.03746 0.0
H23 H 0.37908 0.08274 0.21304 0.0
H24 H 0.40867 0.92579 0.07027 0.0
H25 H 0.33226 0.92492 0.0477 0.0
H26 H 0.50527 0.99522 0.16939 0.0
H27 H 0.34639 0.20968 0.97299 0.0
H28 H 0.28704 0.23798 0.99202 0.0
H29 H 0.47363 0.95286 0.11564 0.0
H30 H 0.44645 0.07793 0.24409 0.0
N31 N 0.3597 1.01073 0.10943 0.0
C32 C 0.39484 0.94907 0.08169 0.0
C33 C 0.35192 0.94866 0.06883 0.0
C34 C 0.41737 0.977 0.11042 0.0
C35 C 0.39806 1.00705 0.12418 0.0
C36 C 0.3338 0.97836 0.08371 0.0
N37 N 0.39327 0.05558 0.16789 0.0
C38 C 0.4157 0.03062 0.15432 0.0
C39 C 0.43902 0.06543 0.21856 0.0
C40 C 0.46607 0.04453 0.20373 0.0
C41 C 0.40156 0.06927 0.20049 0.0
C42 C 0.45336 1.02516 0.17159 0.0
H43 H 0.49473 0.04116 0.21786 0.0
O44 O 0.28722 0.04344 0.17696 0.0
O45 O 0.34104 0.14445 0.12296 0.0
O46 O 0.43338 0.19656 0.15239 0.0
O47 O 0.35899 0.12879 0.17381 0.0
O48 O 0.27647 0.07933 0.10786 0.0
O49 O 0.27009 0.99318 0.13555 0.0
O50 O 0.47334 0.25409 0.06554 0.0
O51 O 0.41812 0.12934 0.11891 0.0
O52 O 0.32202 0.06018 0.08012 0.0
O53 O 0.38127 0.1361 0.05456 0.0
O54 O 0.45464 0.15978 0.07381 0.0
O55 O 0.48228 0.26228 0.11793 0.0
C56 C 0.29724 0.12817 0.11048 0.0
C57 C 0.47556 0.99882 0.15681 0.0
C58 C 0.45751 0.97467 0.12625 0.0
C59 C 0.25238 1.00218 0.16241 0.0
C60 C 0.19966 0.99486 0.16009 0.0
C61 C 0.19197 0.03613 0.16736 0.0
C62 C 0.15754 0.94864 0.14826 0.0
C63 C 0.10931 0.94496 0.14311 0.0
C64 C 0.14476 0.03256 0.16218 0.0
C65 C 0.10394 0.98763 0.15001 0.0
C66 C 0.40246 0.17197 0.17757 0.0
C67 C 0.44619 0.12611 0.0964 0.0
C68 C 0.49948 0.28459 0.08957 0.0
C69 C 0.51181 0.33921 0.08645 0.0
C70 C 0.47521 0.34939 0.07254 0.0
C71 C 0.55962 0.38144 0.09616 0.0
C72 C 0.57002 0.43265 0.09137 0.0
C73 C 0.48473 0.39927 0.06875 0.0
C74 C 0.53154 0.44043 0.07799 0.0
C75 C 0.34477 0.08709 0.05378 0.0
H76 H 0.22282 0.07183 0.17654 0.0
H77 H 0.16244 0.91627 0.14254 0.0
H78 H 0.13984 0.06501 0.16752 0.0
H79 H 0.0676 0.98589 0.14641 0.0
H80 H 0.43918 0.31868 0.06404 0.0
H81 H 0.58878 0.37461 0.10643 0.0
H82 H 0.45578 0.40609 0.05812 0.0
H83 H 0.53793 0.47878 0.0744 0.0
Gd84 Gd 0.86559 0.67237 0.40424 0.0
Gd85 Gd 0.80617 0.73804 0.36287 0.0
C86 C 0.64409 0.64774 0.32161 0.0
C87 C 0.65736 0.67127 0.26337 0.0
C88 C 0.72881 0.70682 0.30166 0.0
C89 C 0.69678 0.6793 0.32731 0.0
C90 C 0.70939 0.70415 0.26954 0.0
C91 C 0.62478 0.64288 0.28935 0.0
C92 C 0.61217 0.62363 0.34869 0.0
C93 C 0.63269 0.6332 0.38055 0.0
N94 N 0.71665 0.68623 0.35823 0.0
C95 C 0.68505 0.66555 0.38492 0.0
H96 H 0.69984 0.67283 0.40976 0.0
C97 C 0.81026 0.77239 0.28533 0.0
N98 N 0.77862 0.73874 0.30861 0.0
C99 C 0.79293 0.77121 0.2531 0.0
C100 C 0.74249 0.73614 0.24496 0.0
H101 H 0.84903 0.80015 0.29152 0.0
H102 H 0.58448 0.61864 0.28445 0.0
H103 H 0.96141 0.7056 0.35006 0.0
H104 H 0.57152 0.59897 0.34538 0.0
H105 H 0.6082 0.61589 0.40181 0.0
H106 H 0.64167 0.66879 0.23889 0.0
H107 H 0.82803 0.65465 0.48328 0.0
H108 H 0.09498 0.73712 0.40402 0.0
H109 H 0.0507 0.72731 0.35071 0.0
H110 H 1.03814 0.70691 0.51645 0.0
H111 H 0.81852 0.79775 0.23481 0.0
H112 H 0.72891 0.73508 0.22003 0.0
H113 H 0.08961 0.72843 0.4657 0.0
H114 H 0.86389 0.65623 0.5384 0.0
N115 N 0.95462 0.7066 0.40262 0.0
C116 C 0.05579 0.72889 0.40394 0.0
C117 C 1.03102 0.72342 0.37385 0.0
C118 C 1.02898 0.7213 0.43354 0.0
C119 C 0.97793 0.71066 0.43212 0.0
C120 C 0.9801 0.71138 0.37364 0.0
N121 N 0.89938 0.68575 0.45827 0.0
C122 C 0.94946 0.69998 0.46084 0.0
C123 C 0.88848 0.66903 0.51686 0.0
C124 C 0.93977 0.68332 0.51983 0.0
C125 C 0.86849 0.66896 0.48565 0.0
C126 C 0.97074 0.69814 0.49162 0.0
H127 H 0.95466 0.68114 0.54381 0.0
O128 O 0.83221 0.5941 0.42243 0.0
O129 O 0.79543 0.66199 0.37962 0.0
O130 O 0.78901 0.72971 0.41722 0.0
O131 O 0.8582 0.72855 0.44104 0.0
O132 O 0.78697 0.62826 0.42532 0.0
O133 O 0.88483 0.61805 0.38163 0.0
O134 O 0.84505 0.82071 0.35772 0.0
O135 O 0.87731 0.74568 0.38531 0.0
O136 O 0.87263 0.67379 0.34613 0.0
O137 O 0.81117 0.69024 0.32285 0.0
O138 O 0.88645 0.78673 0.34258 0.0
O139 O 0.77364 0.78152 0.38438 0.0
C140 C 0.76251 0.63101 0.39997 0.0
C141 C 1.02134 0.70843 0.49307 0.0
C142 C 0.05065 0.72078 0.46418 0.0
C143 C 0.85943 0.58214 0.40327 0.0
C144 C 0.8872 0.55858 0.4197 0.0
C145 C 0.90562 0.57339 0.45205 0.0
C146 C 0.89458 0.52052 0.40407 0.0
C147 C 0.92081 0.49881 0.4208 0.0
C148 C 0.93373 0.55444 0.46773 0.0
C149 C 0.9416 0.51783 0.45223 0.0
C150 C 0.81997 0.73903 0.44236 0.0
C151 C 0.91027 0.77683 0.36525 0.0
C152 C 0.80941 0.82505 0.37268 0.0
C153 C 0.79407 0.85945 0.35692 0.0
C154 C 0.74645 0.84023 0.34164 0.0
C155 C 0.82774 0.9126 0.35762 0.0
C156 C 0.81309 0.94718 0.34505 0.0
C157 C 0.73217 0.87369 0.32799 0.0
C158 C 0.76475 0.92645 0.32987 0.0
C159 C 0.84544 0.67554 0.3203 0.0
H160 H 0.89754 0.59903 0.46569 0.0
H161 H 0.87841 0.50666 0.37978 0.0
H162 H 0.94847 0.56734 0.49242 0.0
H163 H 0.9628 0.50309 0.4654 0.0
H164 H 0.72032 0.79947 0.34032 0.0
H165 H 0.86538 0.92632 0.36778 0.0
H166 H 0.69527 0.85871 0.3163 0.0
H167 H 0.75124 0.95078 0.31979 0.0
Gd168 Gd 0.98415 0.25427 0.12448 0.0
Gd169 Gd 0.85348 0.19518 0.09925 0.0
C170 C 0.74521 0.03357 0.13754 0.0
C171 C 0.75797 0.98077 0.09778 0.0
C172 C 0.80629 0.07365 0.09299 0.0
C173 C 0.78292 0.078 0.12138 0.0
C174 C 0.79399 1.02476 0.08101 0.0
C175 C 0.733 0.98519 0.12559 0.0
C176 C 0.71921 0.03889 0.16447 0.0
C177 C 0.72876 0.08736 0.1735 0.0
N178 N 0.79448 0.1253 0.13198 0.0
C179 C 0.76529 0.13005 0.1562 0.0
H180 H 0.76977 0.16697 0.16225 0.0
C181 C 0.85791 0.11273 0.04621 0.0
N182 N 0.83942 0.11681 0.07635 0.0
C183 C 0.84903 0.06555 0.03438 0.0
C184 C 0.81763 1.02138 0.05217 0.0
H185 H 0.87765 0.14481 0.03002 0.0
H186 H 0.70355 0.95084 0.13733 0.0
H187 H 1.01713 0.3243 0.05495 0.0
H188 H 0.69023 1.00573 0.17755 0.0
H189 H 0.70712 0.09183 0.19328 0.0
H190 H 0.7482 0.94308 0.08895 0.0
H191 H 1.00603 0.25242 0.20534 0.0
H192 H 0.09986 0.48218 0.08059 0.0
H193 H 0.06224 0.41449 0.03797 0.0
H194 H 0.1162 0.47804 0.19858 0.0
H195 H 0.86491 0.06313 0.01086 0.0
H196 H 0.81011 0.98473 0.04262 0.0
H197 H 0.1196 0.50551 0.14069 0.0
H198 H 0.0398 0.3135 0.25112 0.0
N199 N 1.02747 0.33969 0.10613 0.0
C200 C 0.07992 0.4424 0.08804 0.0
C201 C 0.05879 0.40439 0.06393 0.0
C202 C 0.07643 0.42848 0.12142 0.0
C203 C 0.05006 0.37608 0.12972 0.0
C204 C 1.03294 0.35305 0.07353 0.0
N205 N 1.02455 0.30997 0.16888 0.0
C206 C 0.0487 0.36073 0.1621 0.0
C207 C 0.04583 0.32753 0.22611 0.0
C208 C 0.07106 0.37995 0.21968 0.0
C209 C 1.02516 0.2929 0.20013 0.0
C210 C 0.07302 0.3972 0.18729 0.0
H211 H 0.0873 0.40678 0.23993 0.0
O212 O 1.0263 0.21776 0.14159 0.0
O213 O 0.91386 0.17858 0.11551 0.0
O214 O 0.86 0.20714 0.15604 0.0
O215 O 0.94337 0.27185 0.16431 0.0
O216 O 0.95074 0.18891 0.16092 0.0
O217 O 0.0555 0.27068 0.10054 0.0
O218 O 0.8044 0.17788 0.05588 0.0
O219 O 0.92724 0.27039 0.0976 0.0
O220 O 0.97487 0.22058 0.07422 0.0
O221 O 0.90776 0.22714 0.05341 0.0
O222 O 0.86231 0.27033 0.11485 0.0
O223 O 0.78665 0.20497 0.10036 0.0
C224 C 0.91401 0.15663 0.14245 0.0
C225 C 0.09779 0.44947 0.17945 0.0
C226 C 0.09956 0.4651 0.14654 0.0
C227 C 0.06206 0.23938 0.11952 0.0
C228 C 0.11396 0.25449 0.13067 0.0
C229 C 0.14312 0.30029 0.14777 0.0
C230 C 0.13343 0.22109 0.12547 0.0
C231 C 0.18244 0.23358 0.13696 0.0
C232 C 0.19111 0.31266 0.15974 0.0
C233 C 0.21046 0.27972 0.15456 0.0
C234 C 0.89621 0.24316 0.17478 0.0
C235 C 0.90984 0.29904 0.10785 0.0
C236 C 0.76966 0.18304 0.07191 0.0
C237 C 0.71627 0.13887 0.07197 0.0
C238 C 0.70729 0.0902 0.06267 0.0
C239 C 0.67421 0.14407 0.08272 0.0
C240 C 0.62425 0.10093 0.08415 0.0
C241 C 0.65881 0.04761 0.06519 0.0
C242 C 0.61782 0.05277 0.07591 0.0
C243 C 0.95145 0.22668 0.04904 0.0
H244 H 0.12852 0.32607 0.15221 0.0
H245 H 0.1097 0.18498 0.11319 0.0
H246 H 0.21346 0.34795 0.17318 0.0
H247 H 0.24779 0.2909 0.16427 0.0
H248 H 0.73785 0.0847 0.05363 0.0
H249 H 0.68018 0.18151 0.08911 0.0
H250 H 0.65287 1.01032 0.05843 0.0
H251 H 0.58048 1.01891 0.07713 0.0
Gd252 Gd 0.42228 0.21296 0.39795 0.0
Gd253 Gd 0.33971 0.08498 0.37016 0.0
C254 C 0.42004 0.99277 0.35575 0.0
C255 C 0.40273 0.96857 0.29776 0.0
C256 C 0.37082 1.02033 0.32302 0.0
C257 C 0.39318 1.0197 0.35287 0.0
C258 C 0.37378 0.99318 0.29551 0.0
C259 C 0.42602 0.96857 0.32778 0.0
C260 C 0.43812 0.98906 0.38698 0.0
C261 C 0.42711 1.00975 0.41457 0.0
N262 N 0.38546 0.04217 0.37965 0.0
C263 C 0.39987 0.03564 0.41047 0.0
H264 H 0.39135 0.05139 0.43182 0.0
C265 C 0.31463 0.04015 0.29422 0.0
N266 N 0.34308 0.04439 0.32159 0.0
C267 C 0.31594 1.01321 0.26646 0.0
C268 C 0.34592 0.98991 0.26701 0.0
H269 H 0.2912 0.05793 0.29384 0.0
H270 H 0.44698 0.94815 0.32943 0.0
H271 H 0.3896 0.27161 0.33877 0.0
H272 H 0.459 0.96878 0.39022 0.0
H273 H 0.43963 1.00586 0.43898 0.0
H274 H 0.40611 0.9482 0.27671 0.0
H275 H 0.45339 0.21655 0.47893 0.0
H276 H 0.33094 0.35694 0.38668 0.0
H277 H 0.35451 0.32882 0.33555 0.0
H278 H 0.35174 0.33636 0.50108 0.0
H279 H 0.29376 1.01032 0.2447 0.0
H280 H 0.34668 0.96885 0.2455 0.0
H281 H 0.32805 0.35783 0.44797 0.0
H282 H 0.43789 0.24665 0.5317 0.0
N283 N 0.38145 0.26173 0.3913 0.0
C284 C 0.34456 0.32991 0.38821 0.0
C285 C 0.35817 0.31444 0.35937 0.0
C286 C 0.35132 0.31265 0.41887 0.0
C287 C 0.37042 0.27832 0.41984 0.0
C288 C 0.3776 0.28113 0.36139 0.0
N289 N 0.40608 0.23645 0.45053 0.0
C290 C 0.38263 0.26501 0.45017 0.0
C291 C 0.42119 0.25117 0.50913 0.0
C292 C 0.3942 0.27737 0.50956 0.0
C293 C 0.42872 0.23296 0.47913 0.0
C294 C 0.37623 0.28626 0.47981 0.0
H295 H 0.39014 0.2932 0.53267 0.0
O296 O 0.49861 0.25243 0.41968 0.0
O297 O 0.41803 0.13691 0.39241 0.0
O298 O 0.32006 0.0987 0.42096 0.0
O299 O 0.39886 0.15327 0.44046 0.0
O300 O 0.47759 0.1995 0.3692 0.0
O301 O 0.47161 0.29411 0.39008 0.0
O302 O 0.259 0.03613 0.35937 0.0
O303 O 0.34151 0.15677 0.38536 0.0
O304 O 0.41881 0.21384 0.34107 0.0
O305 O 0.38424 0.12836 0.32489 0.0
O306 O 0.30142 0.12124 0.34222 0.0
O307 O 0.29341 1.01751 0.40003 0.0
C308 C 0.46015 0.15227 0.37701 0.0
C309 C 0.35561 0.31881 0.4787 0.0
C310 C 0.34264 0.33149 0.44839 0.0
C311 C 0.5095 0.29647 0.40671 0.0
C312 C 0.56059 0.32959 0.39227 0.0
C313 C 0.58985 0.30937 0.37934 0.0
C314 C 0.58027 0.38297 0.3915 0.0
C315 C 0.62952 0.41638 0.37892 0.0
C316 C 0.63798 0.34191 0.366 0.0
C317 C 0.6578 0.39484 0.3659 0.0
C318 C 0.35235 0.11397 0.44538 0.0
C319 C 0.31318 0.15844 0.36266 0.0
C320 C 0.25183 1.00439 0.38337 0.0
C321 C 0.21841 0.9497 0.37654 0.0
C322 C 0.23884 0.9188 0.36724 0.0
C323 C 0.16512 0.92821 0.37922 0.0
C324 C 0.1324 0.87633 0.37187 0.0
C325 C 0.20649 0.86718 0.36034 0.0
C326 C 0.15369 0.84619 0.3623 0.0
C327 C 0.40758 0.17789 0.31829 0.0
H328 H 0.57571 0.26862 0.37959 0.0
H329 H 0.55708 0.39833 0.40089 0.0
H330 H 0.66046 0.32608 0.35615 0.0
H331 H 0.69598 0.41898 0.35644 0.0
H332 H 0.27966 0.93464 0.3651 0.0
H333 H 0.14914 0.9521 0.38603 0.0
H334 H 0.22236 0.84351 0.35291 0.0
H335 H 0.1295 0.80656 0.35571 0.0
Gd336 Gd 0.80832 0.73456 0.12803 0.0
Gd337 Gd 0.86653 0.66227 0.09722 0.0
C338 C 0.04047 0.76438 0.09814 0.0
C339 C 0.05675 0.80736 0.04497 0.0
C340 C 0.97088 0.74108 0.05978 0.0
C341 C 0.98804 0.73607 0.09045 0.0
C342 C 1.00553 0.77544 0.03619 0.0
C343 C 0.07431 0.80153 0.07584 0.0
C344 C 0.05753 0.75345 0.12756 0.0
C345 C 1.02294 0.7137 0.1477 0.0
N346 N 0.95396 0.7013 0.11201 0.0
C347 C 0.97124 0.68747 0.13932 0.0
H348 H 0.94561 0.65602 0.15491 0.0
C349 C 0.90724 0.70249 0.01921 0.0
N350 N 0.92134 0.70894 0.05198 0.0
C351 C 0.93964 0.73633 0.99505 0.0
C352 C 0.98841 0.77444 0.00389 0.0
H353 H 0.87042 0.67191 0.01145 0.0
H354 H 0.11444 0.82455 0.08171 0.0
H355 H 0.80369 0.8187 0.07603 0.0
H356 H 0.09747 0.77412 0.1343 0.0
H357 H 1.036 0.70335 0.16981 0.0
H358 H 0.08364 0.83459 0.02737 0.0
H359 H 0.74453 0.64023 0.18578 0.0
H360 H 0.64839 0.78336 0.06775 0.0
H361 H 0.73925 0.8376 0.05266 0.0
H362 H 0.55986 0.64286 0.14234 0.0
H363 H 0.92716 0.73253 0.96955 0.0
H364 H 1.01375 0.8002 0.98507 0.0
H365 H 0.58186 0.71059 0.10099 0.0
H366 H 0.65749 0.58773 0.20567 0.0
N367 N 0.7495 0.75379 0.10325 0.0
C368 C 0.67656 0.77514 0.07812 0.0
C369 C 0.72775 0.8058 0.06953 0.0
C370 C 0.66233 0.73474 0.10049 0.0
C371 C 0.70031 0.72531 0.11326 0.0
C372 C 0.76408 0.79509 0.08282 0.0
N373 N 0.72606 0.68097 0.15006 0.0
C374 C 0.68817 0.6875 0.13696 0.0
C375 C 0.66557 0.6156 0.1863 0.0
C376 C 0.62627 0.621 0.17256 0.0
C377 C 0.71542 0.64615 0.17491 0.0
C378 C 0.63729 0.65761 0.14789 0.0
H379 H 0.5877 0.5973 0.18157 0.0
O380 O 0.80386 0.77011 0.17365 0.0
O381 O 0.88254 0.73464 0.12136 0.0
O382 O 0.87264 0.66452 0.15442 0.0
O383 O 0.82687 0.70343 0.17289 0.0
O384 O 0.87651 0.79228 0.09839 0.0
O385 O 0.84695 0.81754 0.13227 0.0
O386 O 0.85524 0.604 0.06039 0.0
O387 O 0.79182 0.65797 0.10723 0.0
O388 O 0.77437 0.71259 0.07844 0.0
O389 O 0.82963 0.68937 0.05455 0.0
O390 O 0.79905 0.5971 0.12205 0.0
O391 O 0.87647 0.59755 0.11011 0.0
C392 C 0.90792 0.77691 0.10657 0.0
C393 C 0.59911 0.66568 0.13433 0.0
C394 C 0.61161 0.70423 0.11077 0.0
C395 C 0.82844 0.81648 0.16149 0.0
C396 C 0.80612 0.85021 0.1661 0.0
C397 C 0.75466 0.82933 0.1749 0.0
C398 C 0.83623 0.90381 0.16146 0.0
C399 C 0.81543 0.93613 0.16693 0.0
C400 C 0.73408 0.86094 0.18045 0.0
C401 C 0.76418 0.91373 0.17693 0.0
C402 C 0.85239 0.67923 0.17837 0.0
C403 C 0.76752 0.61374 0.12041 0.0
C404 C 0.86825 0.57844 0.08052 0.0
C405 C 0.90446 0.56146 0.06865 0.0
C406 C 0.94472 0.59287 0.04741 0.0
C407 C 0.90005 0.51433 0.07942 0.0
C408 C 0.93537 0.49881 0.06884 0.0
C409 C 0.9793 0.5779 0.03679 0.0
C410 C 0.97472 0.53156 0.04726 0.0
C411 C 0.79527 0.70555 0.05223 0.0
H412 H 0.73016 0.78851 0.17751 0.0
H413 H 0.87579 0.92031 0.15414 0.0
H414 H 0.69448 0.84443 0.18758 0.0
H415 H 0.74697 0.93707 0.18173 0.0
H416 H 0.94965 0.62921 0.0391 0.0
H417 H 0.86891 0.48974 0.0957 0.0
H418 H 1.0102 0.60263 0.02041 0.0
H419 H 1.00275 0.52173 0.0388 0.0
Gd420 Gd 0.86289 0.21468 0.39396 0.0
Gd421 Gd 0.99551 0.26741 0.3739 0.0
C422 C 0.09032 0.43928 0.35784 0.0
C423 C 0.1379 0.44407 0.30823 0.0
C424 C 0.07439 0.36141 0.33012 0.0
C425 C 0.06409 0.38543 0.35582 0.0
C426 C 0.114 0.39055 0.30751 0.0
C427 C 0.12545 0.46839 0.33305 0.0
C428 C 0.08313 0.46223 0.38587 0.0
C429 C 0.0536 0.43166 0.41209 0.0
N430 N 1.03299 0.35629 0.38075 0.0
C431 C 1.03004 0.37853 0.40945 0.0
H432 H 1.00785 0.35534 0.42989 0.0
C433 C 0.06689 0.28463 0.30944 0.0
N434 N 0.05055 0.30962 0.32983 0.0
C435 C 0.10816 0.31205 0.28809 0.0
C436 C 0.13103 0.3652 0.28654 0.0
H437 H 0.04963 0.24358 0.31066 0.0
H438 H 0.14557 0.50975 0.33403 0.0
H439 H 0.78131 0.18688 0.33014 0.0
H440 H 0.10224 0.50342 0.38822 0.0
H441 H 0.04929 0.44893 0.43444 0.0
H442 H 0.16757 0.46703 0.29055 0.0
H443 H 0.88686 0.16832 0.46395 0.0
H444 H 0.6934 1.02469 0.32023 0.0
H445 H 0.71529 0.11114 0.30116 0.0
H446 H 0.74866 0.96317 0.41134 0.0
H447 H 0.12159 0.29216 0.27238 0.0
H448 H 0.16239 0.38632 0.26954 0.0
H449 H 0.70486 0.97008 0.36211 0.0
H450 H 0.86732 0.0861 0.48771 0.0
N451 N 0.80093 0.14429 0.3634 0.0
C452 C 0.72322 0.05793 0.33268 0.0
C453 C 0.73559 0.10658 0.32177 0.0
C454 C 0.74809 0.05273 0.36034 0.0
C455 C 0.7869 0.09721 0.37563 0.0
C456 C 0.77366 0.14944 0.33803 0.0
N457 N 0.84505 0.13705 0.41945 0.0
C458 C 0.80977 0.09346 0.40437 0.0
C459 C 0.85147 0.08757 0.46397 0.0
C460 C 0.81819 0.04257 0.44757 0.0
C461 C 0.86371 0.13458 0.44981 0.0
C462 C 0.79559 0.04502 0.41794 0.0
H463 H 0.80929 1.00621 0.45843 0.0
O464 O 0.81841 0.20849 0.43804 0.0
O465 O 0.93673 0.28857 0.39167 0.0
O466 O 0.97349 0.23364 0.42425 0.0
O467 O 0.91541 0.25551 0.43953 0.0
O468 O 0.87467 0.28446 0.36705 0.0
O469 O 0.7969 0.2259 0.39116 0.0
O470 O 0.04025 0.22899 0.37533 0.0
O471 O 0.92326 0.1949 0.38379 0.0
O472 O 0.87216 0.21879 0.33731 0.0
O473 O 0.95953 0.27106 0.32553 0.0
O474 O 0.96573 0.19761 0.3418 0.0
O475 O 0.06238 0.29573 0.40555 0.0
C476 C 0.92117 0.31504 0.37577 0.0
C477 C 0.75904 1.00069 0.40178 0.0
C478 C 0.73454 1.00458 0.37349 0.0
C479 C 0.78288 0.2115 0.4215 0.0
C480 C 0.72882 0.17001 0.42652 0.0
C481 C 0.71849 0.12527 0.44372 0.0
C482 C 0.68709 0.17424 0.41398 0.0
C483 C 0.63605 0.13469 0.41934 0.0
C484 C 0.66847 0.08627 0.4488 0.0
C485 C 0.62766 0.09099 0.43696 0.0
C486 C 0.95754 0.2536 0.44639 0.0
C487 C 0.92531 0.16954 0.35921 0.0
C488 C 0.07467 0.26239 0.39501 0.0
C489 C 0.12812 0.2815 0.38484 0.0
C490 C 0.15825 0.33187 0.37347 0.0
C491 C 0.14839 0.24821 0.38455 0.0
C492 C 0.19741 0.26462 0.37156 0.0
C493 C 0.20646 0.34798 0.36025 0.0
C494 C 0.22554 0.3144 0.35874 0.0
C495 C 0.91072 0.24578 0.31658 0.0
H496 H 0.74912 0.12026 0.45336 0.0
H497 H 0.69425 0.20838 0.40065 0.0
H498 H 0.66127 0.05214 0.46214 0.0
H499 H 0.58922 0.0601 0.44139 0.0
H500 H 0.14423 0.35857 0.37412 0.0
H501 H 0.12557 0.20933 0.39346 0.0
H502 H 0.22888 0.38648 0.35076 0.0
H503 H 0.26257 0.3275 0.34764 0.0
Gd504 Gd 0.21599 0.39829 0.59719 0.0
Gd505 Gd 0.08392 0.32079 0.62376 0.0
C506 C 0.9718 0.32955 0.69419 0.0
C507 C 0.95412 0.26042 0.73267 0.0
C508 C 1.01748 0.28297 0.68931 0.0
C509 C 1.00812 0.32077 0.67821 0.0
C510 C 0.99137 0.25286 0.71702 0.0
C511 C 0.94441 0.29877 0.7213 0.0
C512 C 0.96474 0.36938 0.68263 0.0
C513 C 0.99297 0.39851 0.65545 0.0
N514 N 1.03557 0.34967 0.65212 0.0
C515 C 1.02778 0.3874 0.64003 0.0
H516 H 0.04677 0.40747 0.61771 0.0
C517 C 0.06887 0.24448 0.68567 0.0
N518 N 0.05523 0.2786 0.67443 0.0
C519 C 0.04441 0.21387 0.71329 0.0
C520 C 1.00513 0.21773 0.72887 0.0
H521 H 0.09807 0.2404 0.673 0.0
H522 H 0.91628 0.30485 0.73395 0.0
H523 H 0.30046 0.40893 0.6563 0.0
H524 H 0.93749 0.37773 0.69436 0.0
H525 H 0.98708 0.42871 0.64588 0.0
H526 H 0.93356 0.23771 0.75403 0.0
H527 H 0.21492 0.39202 0.51137 0.0
H528 H 0.35206 0.30377 0.63404 0.0
H529 H 0.352 0.36948 0.67057 0.0
H530 H 0.27929 0.23855 0.5277 0.0
H531 H 0.05545 0.18697 0.72231 0.0
H532 H 0.98634 0.19412 0.7503 0.0
H533 H 0.3215 0.25218 0.58179 0.0
H534 H 0.21796 0.33505 0.46917 0.0
N535 N 0.26868 0.36422 0.61264 0.0
C536 C 0.32921 0.32103 0.62757 0.0
C537 C 0.32903 0.35785 0.64832 0.0
C538 C 0.30091 0.30789 0.59825 0.0
C539 C 0.2721 0.33184 0.59084 0.0
C540 C 0.29894 0.37959 0.64027 0.0
N541 N 0.22929 0.35512 0.55202 0.0
C542 C 0.24965 0.32534 0.5601 0.0
C543 C 0.22565 0.33091 0.49485 0.0
C544 C 0.23899 0.29456 0.50388 0.0
C545 C 0.22324 0.36259 0.5191 0.0
C546 C 0.25407 0.2934 0.53642 0.0
H547 H 0.24181 0.27084 0.48504 0.0
O548 O 0.26657 0.45721 0.56191 0.0
O549 O 0.14334 0.39945 0.60551 0.0
O550 O 0.08587 0.36458 0.57889 0.0
O551 O 0.15414 0.36666 0.55395 0.0
O552 O 0.20815 0.46215 0.62031 0.0
O553 O 0.28518 0.46592 0.61368 0.0
O554 O 1.03893 0.24223 0.60641 0.0
O555 O 0.16039 0.32537 0.62004 0.0
O556 O 0.21348 0.38783 0.6538 0.0
O557 O 0.1285 0.35678 0.67061 0.0
O558 O 0.09946 0.25842 0.60602 0.0
O559 O 1.01075 0.29486 0.59959 0.0
C560 C 0.15973 0.44319 0.61861 0.0
C561 C 0.27701 0.26447 0.54526 0.0
C562 C 0.30126 0.27242 0.57596 0.0
C563 C 0.30154 0.48318 0.58411 0.0
C564 C 0.35512 0.49554 0.57721 0.0
C565 C 0.36362 0.45835 0.56246 0.0
C566 C 0.39811 0.54274 0.58696 0.0
C567 C 0.44853 0.55191 0.58165 0.0
C568 C 0.41287 0.46671 0.55804 0.0
C569 C 0.45485 0.5129 0.56748 0.0
C570 C 0.10692 0.3598 0.55186 0.0
C571 C 0.14781 0.28141 0.60956 0.0
C572 C 0.99977 0.24708 0.59875 0.0
C573 C 0.95003 0.20793 0.61309 0.0
C574 C 0.91941 0.22354 0.62993 0.0
C575 C 0.93383 0.15493 0.61161 0.0
C576 C 0.88868 0.11864 0.62796 0.0
C577 C 0.87545 0.18811 0.64633 0.0
C578 C 0.86061 0.13642 0.64577 0.0
C579 C 0.1781 0.37765 0.6769 0.0
H580 H 0.33211 0.42252 0.55433 0.0
H581 H 0.39243 0.57234 0.59782 0.0
H582 H 0.41855 0.43737 0.54678 0.0
H583 H 0.49271 0.51878 0.56292 0.0
H584 H 0.9298 0.26339 0.63104 0.0
H585 H 0.9569 0.14224 0.59862 0.0
H586 H 0.85285 0.20085 0.6598 0.0
H587 H 0.82645 0.11011 0.6591 0.0
Gd588 Gd 0.25197 0.9654 0.87255 0.0
Gd589 Gd 0.22017 0.83772 0.89655 0.0
C590 C 0.05462 0.72909 0.92626 0.0
C591 C 0.06033 0.72452 0.98591 0.0
C592 C 0.13567 0.7819 0.95359 0.0
C593 C 0.10702 0.7661 0.92479 0.0
C594 C 0.1125 0.76035 0.98442 0.0
C595 C 1.0314 0.70915 0.95693 0.0
C596 C 1.02726 0.71168 0.89675 0.0
C597 C 0.0521 0.73042 0.86664 0.0
N598 N 0.13067 0.78453 0.89522 0.0
C599 C 0.10404 0.76629 0.86629 0.0
H600 H 0.12211 0.77894 0.84259 0.0
C601 C 0.2168 0.82203 0.9786 0.0
N602 N 0.18677 0.81431 0.95124 0.0
C603 C 0.19539 0.80344 0.00971 0.0
C604 C 0.1429 0.7729 0.01273 0.0
H605 H 0.25784 0.84113 0.97665 0.0
H606 H 0.99132 0.68078 0.95843 0.0
H607 H 0.23798 0.04529 0.92365 0.0
H608 H 0.98719 0.68313 0.89697 0.0
H609 H 1.03139 0.71682 0.84359 0.0
H610 H 0.04223 0.70743 0.0093 0.0
H611 H 0.33169 0.97065 0.81312 0.0
H612 H 0.38487 0.15681 0.95966 0.0
H613 H 0.29092 0.11952 0.95915 0.0
H614 H 0.49876 0.12805 0.89317 0.0
H615 H 0.21964 0.81097 0.03112 0.0
H616 H 0.12653 0.75696 0.0367 0.0
H617 H 0.46214 0.15888 0.93562 0.0
H618 H 0.42403 1.01104 0.80285 0.0
N619 N 0.30052 0.03776 0.9065 0.0
C620 C 0.3615 0.12377 0.94452 0.0
C621 C 0.30872 0.10306 0.94416 0.0
C622 C 0.38386 0.10321 0.92392 0.0
C623 C 0.3519 0.05991 0.90472 0.0
C624 C 0.27882 0.06085 0.92415 0.0
N625 N 0.3398 1.0063 0.8597 0.0
C626 C 0.37231 0.04317 0.88064 0.0
C627 C 0.4101 1.02006 0.82508 0.0
C628 C 0.44427 0.05511 0.84781 0.0
C629 C 0.35771 0.99689 0.83107 0.0
C630 C 0.42548 0.06849 0.87541 0.0
H631 H 0.48481 0.07356 0.84291 0.0
O632 O 0.26533 1.01448 0.82984 0.0
O633 O 0.18797 0.88432 0.87642 0.0
O634 O 0.20877 0.83465 0.84053 0.0
O635 O 0.24007 0.92009 0.8254 0.0
O636 O 0.17582 0.93994 0.89665 0.0
O637 O 0.20449 0.99996 0.86297 0.0
O638 O 0.26408 0.80375 0.9149 0.0
O639 O 0.28664 0.91562 0.88779 0.0
O640 O 0.24316 0.96235 0.92671 0.0
O641 O 0.26338 0.89981 0.93764 0.0
O642 O 0.28412 0.85476 0.86216 0.0
O643 O 0.2001 0.76007 0.88259 0.0
C644 C 0.15494 0.89174 0.89082 0.0
C645 C 0.45781 0.10862 0.89648 0.0
C646 C 0.43697 0.12621 0.9206 0.0
C647 C 0.23301 0.02866 0.83918 0.0
C648 C 0.25245 0.08444 0.84322 0.0
C649 C 0.30488 0.11762 0.84794 0.0
C650 C 0.21885 0.10452 0.84525 0.0
C651 C 0.23773 0.15671 0.85304 0.0
C652 C 0.32334 0.16872 0.85591 0.0
C653 C 0.2901 0.18794 0.85872 0.0
C654 C 0.22166 0.87123 0.81806 0.0
C655 C 0.31302 0.90193 0.86996 0.0
C656 C 0.23448 0.75929 0.90152 0.0
C657 C 0.21828 0.71323 0.92254 0.0
C658 C 0.2321 0.71866 0.95616 0.0
C659 C 0.19131 0.66349 0.90878 0.0
C660 C 0.17815 0.61991 0.92862 0.0
C661 C 0.21934 0.67601 0.97574 0.0
C662 C 0.19322 0.62728 0.96213 0.0
C663 C 0.25986 0.94046 0.94683 0.0
H664 H 0.33174 0.10389 0.84626 0.0
H665 H 0.17837 0.07966 0.84134 0.0
H666 H 0.36372 0.19359 0.86004 0.0
H667 H 0.30561 0.22772 0.86466 0.0
H668 H 0.2539 0.75594 0.96735 0.0
H669 H 0.18113 0.65879 0.88277 0.0
H670 H 0.23081 0.68082 0.00149 0.0
H671 H 0.18621 0.5953 0.97785 0.0
Gd672 Gd 0.67774 0.85601 0.59243 0.0
Gd673 Gd 0.7384 0.79059 0.63176 0.0
C674 C 0.65704 0.62529 0.66883 0.0
C675 C 0.67898 0.63583 0.72727 0.0
C676 C 0.70959 0.71013 0.69125 0.0
C677 C 0.68511 0.67882 0.66462 0.0
C678 C 0.70788 0.68893 0.72271 0.0
C679 C 0.65323 0.60408 0.70042 0.0
C680 C 0.63492 0.59458 0.641 0.0
C681 C 0.64301 0.61724 0.60981 0.0
N682 N 0.69084 0.7005 0.6343 0.0
C683 C 0.67206 0.67036 0.60686 0.0
H684 H 0.67838 0.68682 0.58249 0.0
C685 C 0.76493 0.79337 0.71118 0.0
N686 N 0.7369 0.7613 0.68608 0.0
C687 C 0.76486 0.77411 0.74266 0.0
C688 C 0.73637 0.72161 0.74843 0.0
H689 H 0.78769 0.83393 0.70717 0.0
H690 H 0.63165 0.56311 0.70416 0.0
H691 H 0.70806 0.94384 0.65243 0.0
H692 H 0.61281 0.55337 0.64321 0.0
H693 H 0.62712 0.59383 0.58796 0.0
H694 H 0.6769 0.61891 0.75134 0.0
H695 H 0.66164 0.83173 0.51187 0.0
H696 H 0.76366 0.08983 0.60756 0.0
H697 H 0.73929 0.03524 0.65757 0.0
H698 H 0.74811 0.05329 0.49202 0.0
H699 H 0.78726 0.79989 0.76227 0.0
H700 H 0.73712 0.70647 0.77262 0.0
H701 H 0.76859 0.09651 0.54588 0.0
H702 H 0.67128 0.87806 0.45957 0.0
N703 N 0.71744 0.94534 0.60001 0.0
C704 C 0.75116 0.04953 0.60518 0.0
C705 C 0.73733 1.01889 0.6334 0.0
C706 C 0.74658 0.02742 0.5741 0.0
C707 C 0.7295 0.97455 0.57225 0.0
C708 C 0.71985 0.96668 0.63031 0.0
N709 N 0.69918 0.89913 0.54116 0.0
C710 C 0.72047 0.95073 0.54182 0.0
C711 C 0.68606 0.89901 0.48243 0.0
C712 C 0.7078 0.95194 0.48279 0.0
C713 C 0.68113 0.873 0.51205 0.0
C714 C 0.72564 0.9786 0.51254 0.0
H715 H 0.70828 0.97167 0.46034 0.0
O716 O 0.6037 0.83351 0.57026 0.0
O717 O 0.66325 0.78067 0.61255 0.0
O718 O 0.7323 0.7764 0.57719 0.0
O719 O 0.73252 0.84744 0.55487 0.0
O720 O 0.63168 0.78144 0.56696 0.0
O721 O 0.62289 0.87233 0.61709 0.0
O722 O 0.82068 0.83129 0.63793 0.0
O723 O 0.74961 0.86435 0.61074 0.0
O724 O 0.67415 0.85531 0.65063 0.0
O725 O 0.68511 0.78864 0.67055 0.0
O726 O 0.78513 0.86927 0.65503 0.0
O727 O 0.78452 0.7606 0.61047 0.0
C728 C 0.63406 0.75231 0.58937 0.0
C729 C 0.74424 0.03142 0.51421 0.0
C730 C 0.75549 0.05595 0.54491 0.0
C731 C 0.59048 0.85583 0.59266 0.0
C732 C 0.57269 0.89116 0.58039 0.0
C733 C 0.59822 0.92393 0.5538 0.0
C734 C 0.53034 0.89257 0.59441 0.0
C735 C 0.51562 0.92767 0.58223 0.0
C736 C 0.58673 0.96109 0.5437 0.0
C737 C 0.54649 0.96372 0.55825 0.0
C738 C 0.74251 0.80883 0.55273 0.0
C739 C 0.77926 0.89551 0.63209 0.0
C740 C 0.82728 0.79792 0.62181 0.0
C741 C 0.86532 0.78606 0.63571 0.0
C742 C 0.85048 0.7396 0.65179 0.0
C743 C 0.91762 0.82232 0.63262 0.0
C744 C 0.95549 0.8116 0.64414 0.0
C745 C 0.88734 0.72902 0.66408 0.0
C746 C 0.93914 0.7643 0.66016 0.0
C747 C 0.67171 0.82363 0.67486 0.0
H748 H 0.62659 0.92035 0.5403 0.0
H749 H 0.5081 0.86551 0.61363 0.0
H750 H 0.60835 0.98719 0.52389 0.0
H751 H 0.53818 0.99283 0.54967 0.0
H752 H 0.81053 0.71158 0.65483 0.0
H753 H 0.92831 0.85892 0.62145 0.0
H754 H 0.87574 0.69298 0.6764 0.0
H755 H 0.96628 0.75382 0.66936 0.0
Gd756 Gd 0.07649 0.3245 0.85592 0.0
Gd757 Gd 0.20119 0.37859 0.89834 0.0
C758 C 0.31637 0.33006 0.92625 0.0
C759 C 0.32576 0.34712 0.98531 0.0
C760 C 0.25988 0.35302 0.95431 0.0
C761 C 0.27558 0.34022 0.92555 0.0
C762 C 0.28449 0.35613 0.98464 0.0
C763 C 0.3413 0.33354 0.95626 0.0
C764 C 0.33278 0.31947 0.89648 0.0
C765 C 0.30942 0.32025 0.86689 0.0
N766 N 0.25303 0.34071 0.8966 0.0
C767 C 0.26997 0.33161 0.86734 0.0
H768 H 0.25408 0.33413 0.84401 0.0
C769 C 0.20727 0.38013 0.98009 0.0
N770 N 0.22277 0.36565 0.95227 0.0
C771 C 0.22888 0.38148 0.01094 0.0
C772 C 0.26822 0.3702 0.01316 0.0
H773 H 0.17862 0.39144 0.97862 0.0
H774 H 0.37323 0.32671 0.95717 0.0
H775 H 1.00983 0.35529 0.90976 0.0
H776 H 0.36415 0.31175 0.89598 0.0
H777 H 0.3225 0.31318 0.84358 0.0
H778 H 0.34629 0.35104 0.0081 0.0
H779 H 0.08494 0.30492 0.77505 0.0
H780 H 0.98172 0.46635 0.86372 0.0
H781 H 0.97603 0.41434 0.91269 0.0
H782 H 1.03486 0.46851 0.75149 0.0
H783 H 0.21628 0.39282 0.0328 0.0
H784 H 0.2862 0.37313 0.0369 0.0
H785 H 1.00429 0.48673 0.8035 0.0
H786 H 0.09161 0.35064 0.72364 0.0
N787 N 1.037 0.37504 0.86053 0.0
C788 C 0.99689 0.44056 0.86245 0.0
C789 C 0.99367 0.41134 0.89012 0.0
C790 C 1.01741 0.43421 0.83298 0.0
C791 C 1.03628 0.39981 0.83267 0.0
C792 C 1.01359 0.37829 0.88858 0.0
N793 N 0.06531 0.35164 0.80363 0.0
C794 C 0.0512 0.38797 0.80331 0.0
C795 C 0.07827 0.36025 0.74538 0.0
C796 C 0.06636 0.39932 0.74458 0.0
C797 C 0.07477 0.33456 0.77476 0.0
C798 C 0.05075 0.41242 0.77365 0.0
H799 H 0.06893 0.41869 0.72142 0.0
O800 O 0.99409 0.28247 0.86134 0.0
O801 O 0.13677 0.30885 0.87569 0.0
O802 O 0.20717 0.37809 0.84133 0.0
O803 O 0.1378 0.38432 0.82349 0.0
O804 O 0.10476 0.27637 0.83036 0.0
O805 O 1.03193 0.2414 0.84729 0.0
O806 O 0.24676 0.45944 0.91074 0.0
O807 O 0.14038 0.39344 0.87972 0.0
O808 O 0.06703 0.32131 0.91113 0.0
O809 O 0.13779 0.32009 0.93338 0.0
O810 O 0.17227 0.42453 0.92484 0.0
O811 O 0.27594 0.42773 0.87528 0.0
C812 C 0.1365 0.27943 0.85303 0.0
C813 C 1.03507 0.44909 0.77405 0.0
C814 C 1.01795 0.45964 0.80366 0.0
C815 C 0.98913 0.23759 0.85658 0.0
C816 C 0.95704 0.19663 0.88098 0.0
C817 C 0.9466 0.21048 0.91196 0.0
C818 C 0.93405 0.1438 0.87306 0.0
C819 C 0.90063 0.10552 0.89584 0.0
C820 C 0.91403 0.17349 0.93432 0.0
C821 C 0.89082 0.12188 0.92628 0.0
C822 C 0.183 0.38927 0.81822 0.0
C823 C 0.13921 0.4207 0.90326 0.0
C824 C 0.28627 0.46749 0.8932 0.0
C825 C 0.33691 0.49383 0.91042 0.0
C826 C 0.33825 0.48627 0.94464 0.0
C827 C 0.38357 0.5275 0.8938 0.0
C828 C 0.43057 0.55298 0.91167 0.0
C829 C 0.38371 0.51078 0.96213 0.0
C830 C 0.42901 0.54387 0.94606 0.0
C831 C 0.08963 0.31097 0.93544 0.0
H832 H 0.96256 0.25021 0.91863 0.0
H833 H 0.94185 0.13277 0.8492 0.0
H834 H 0.90567 0.18495 0.95783 0.0
H835 H 0.86393 0.09502 0.94388 0.0
H836 H 0.30377 0.462 0.95824 0.0
H837 H 0.38316 0.53356 0.86738 0.0
H838 H 0.38371 0.50469 0.98858 0.0
H839 H 0.46306 0.56332 0.96108 0.0
Gd840 Gd 0.21851 0.85586 0.59677 0.0
Gd841 Gd 0.27854 0.98307 0.63267 0.0
C842 C 0.39716 0.04948 0.71444 0.0
C843 C 0.348 0.05661 0.75977 0.0
C844 C 0.30652 1.0169 0.70797 0.0
C845 C 0.3527 1.02606 0.69497 0.0
C846 C 0.30378 0.03295 0.74021 0.0
C847 C 0.39446 0.06423 0.74705 0.0
C848 C 0.44326 0.05911 0.70006 0.0
C849 C 0.44443 0.04744 0.66666 0.0
N850 N 0.35444 1.01442 0.66268 0.0
C851 C 0.3995 1.02599 0.64804 0.0
H852 H 0.40088 1.01992 0.62179 0.0
C853 C 0.21881 0.98724 0.6991 0.0
N854 N 0.26472 0.99492 0.68815 0.0
C855 C 0.21429 1.00302 0.73079 0.0
C856 C 0.25717 0.02691 0.75109 0.0
H857 H 0.18604 0.97068 0.68307 0.0
H858 H 0.42835 0.0829 0.7623 0.0
H859 H 0.11274 0.78066 0.64031 0.0
H860 H 0.4783 0.07681 0.71422 0.0
H861 H 0.4801 0.0561 0.65505 0.0
H862 H 0.34681 0.06964 0.78457 0.0
H863 H 0.25905 0.85996 0.51697 0.0
H864 H 0.98406 0.75559 0.58222 0.0
H865 H 1.01976 0.73933 0.633 0.0
H866 H 0.05783 0.83123 0.47804 0.0
H867 H 0.17817 0.99827 0.73913 0.0
H868 H 0.25418 0.0422 0.77449 0.0
H869 H 0.99983 0.79629 0.52553 0.0
H870 H 0.22822 0.86231 0.46046 0.0
N871 N 0.12963 0.81671 0.59301 0.0
C872 C 1.02492 0.77221 0.58475 0.0
C873 C 0.04489 0.76324 0.61354 0.0
C874 C 0.05792 0.80116 0.55914 0.0
C875 C 0.11064 0.82101 0.56352 0.0
C876 C 0.09769 0.78655 0.61751 0.0
N877 N 0.1922 0.851 0.54081 0.0
C878 C 0.14325 0.83991 0.53667 0.0
C879 C 0.20414 0.85659 0.48173 0.0
C880 C 0.15595 0.85147 0.47749 0.0
C881 C 0.22124 0.85467 0.51366 0.0
C882 C 0.12415 0.84122 0.50504 0.0
H883 H 0.14265 0.85259 0.45273 0.0
O884 O 0.23699 0.8027 0.5718 0.0
O885 O 0.29424 0.92568 0.60742 0.0
O886 O 0.31471 0.98669 0.58402 0.0
O887 O 0.24467 0.92354 0.55793 0.0
O888 O 0.28861 0.85701 0.61658 0.0
O889 O 0.19 0.77878 0.61571 0.0
O890 O 0.25382 0.03409 0.61196 0.0
O891 O 0.20466 0.9103 0.62494 0.0
O892 O 0.20254 0.8505 0.6531 0.0
O893 O 0.26851 0.92782 0.67305 0.0
O894 O 0.20131 0.97571 0.6221 0.0
O895 O 0.33107 0.06526 0.62889 0.0
C896 C 0.31913 0.90512 0.6183 0.0
C897 C 0.07309 0.82906 0.50181 0.0
C898 C 0.03987 0.80876 0.52886 0.0
C899 C 0.20961 0.76481 0.59201 0.0
C900 C 0.17566 0.71329 0.57761 0.0
C901 C 0.14217 0.70762 0.55185 0.0
C902 C 0.1753 0.66908 0.5903 0.0
C903 C 0.14204 0.61978 0.57702 0.0
C904 C 0.10937 0.65939 0.53873 0.0
C905 C 0.10926 0.61603 0.55109 0.0
C906 C 0.28682 0.96961 0.55717 0.0
C907 C 0.17489 0.92718 0.61882 0.0
C908 C 0.29551 0.07543 0.62002 0.0
C909 C 0.28817 0.11218 0.64078 0.0
C910 C 0.30369 0.11944 0.67397 0.0
C911 C 0.26099 0.13599 0.62881 0.0
C912 C 0.24528 0.16271 0.65066 0.0
C913 C 0.28723 0.14374 0.69582 0.0
C914 C 0.25702 0.16352 0.68464 0.0
C915 C 0.23376 0.87934 0.67728 0.0
H916 H 0.14123 0.74047 0.5419 0.0
H917 H 0.20135 0.67323 0.61004 0.0
H918 H 0.08377 0.6555 0.51879 0.0
H919 H 0.08308 0.57924 0.54039 0.0
H920 H 0.32763 0.10526 0.68337 0.0
H921 H 0.25298 0.1336 0.60262 0.0
H922 H 0.29742 0.14668 0.72177 0.0
H923 H 0.24338 0.17986 0.70304 0.0
Gd924 Gd 0.73957 0.78477 0.86043 0.0
Gd925 Gd 0.66227 0.83017 0.90007 0.0
C926 C 0.74097 1.00334 0.91661 0.0
C927 C 0.74689 1.00987 0.97647 0.0
C928 C 0.71246 0.92684 0.9497 0.0
C929 C 0.72012 0.94986 0.91907 0.0
C930 C 0.724 0.95654 0.97882 0.0
C931 C 0.75559 0.03325 0.9454 0.0
C932 C 0.74385 1.02492 0.88547 0.0
C933 C 0.72406 0.9932 0.85798 0.0
N934 N 0.70307 0.91961 0.89186 0.0
C935 C 0.70304 0.94044 0.86172 0.0
H936 H 0.68707 0.91687 0.84021 0.0
C937 C 0.66856 0.85084 0.98085 0.0
N938 N 0.68696 0.87503 0.95107 0.0
C939 C 0.68008 0.87853 0.01033 0.0
C940 C 0.70826 0.9316 0.00934 0.0
H941 H 0.64366 0.80991 0.98194 0.0
H942 H 0.77145 0.07426 0.94396 0.0
H943 H 0.81028 0.75518 0.9113 0.0
H944 H 0.75973 0.06576 0.88257 0.0
H945 H 0.72476 1.00929 0.83386 0.0
H946 H 0.75552 0.03315 0.99851 0.0
H947 H 0.66334 0.73336 0.79183 0.0
H948 H 0.72673 0.59568 0.93299 0.0
H949 H 0.8019 0.68094 0.94198 0.0
H950 H 0.59405 0.53223 0.85215 0.0
H951 H 0.66557 0.85902 0.0337 0.0
H952 H 0.71479 0.95295 0.03204 0.0
H953 H 0.64922 0.54047 0.89916 0.0
H954 H 0.59516 0.65112 0.77327 0.0
N955 N 0.73682 0.71447 0.88891 0.0
C956 C 0.72954 0.62857 0.92017 0.0
C957 C 0.77186 0.67656 0.9254 0.0
C958 C 0.69359 0.62305 0.89636 0.0
C959 C 0.69901 0.66724 0.88035 0.0
C960 C 0.77583 0.71883 0.90847 0.0
N961 N 0.67805 0.70559 0.83668 0.0
C962 C 0.66897 0.6626 0.85331 0.0
C963 C 0.61488 0.65376 0.79621 0.0
C964 C 0.6033 0.60979 0.81402 0.0
C965 C 0.65308 0.70119 0.80755 0.0
C966 C 0.63128 0.61362 0.84245 0.0
H967 H 0.57403 0.573 0.80497 0.0
O968 O 0.77973 0.76684 0.82271 0.0
O969 O 0.74194 0.85205 0.88591 0.0
O970 O 0.65222 0.82754 0.84258 0.0
O971 O 0.71199 0.81058 0.81727 0.0
O972 O 0.77916 0.86554 0.84049 0.0
O973 O 0.82188 0.81922 0.86198 0.0
O974 O 0.59147 0.81252 0.92545 0.0
O975 O 0.6576 0.76255 0.87335 0.0
O976 O 0.76151 0.79863 0.91428 0.0
O977 O 0.6925 0.7962 0.94052 0.0
O978 O 0.62017 0.75024 0.91857 0.0
O979 O 0.60326 0.84115 0.87593 0.0
C980 C 0.77063 0.8868 0.86556 0.0
C981 C 0.62325 0.56994 0.85989 0.0
C982 C 0.65443 0.57464 0.88677 0.0
C983 C 0.82413 0.79374 0.83679 0.0
C984 C 0.8566 0.77027 0.84158 0.0
C985 C 0.83609 0.71712 0.83971 0.0
C986 C 0.90856 0.80145 0.84989 0.0
C987 C 0.93929 0.77962 0.85686 0.0
C988 C 0.8666 0.69547 0.84646 0.0
C989 C 0.91776 0.72642 0.85508 0.0
C990 C 0.67587 0.82294 0.81587 0.0
C991 C 0.62791 0.72789 0.89386 0.0
C992 C 0.5747 0.8302 0.90212 0.0
C993 C 0.55858 0.86806 0.91223 0.0
C994 C 0.58627 0.90368 0.93703 0.0
C995 C 0.51576 0.86902 0.89813 0.0
C996 C 0.50189 0.90563 0.9089 0.0
C997 C 0.57404 0.94046 0.94679 0.0
C998 C 0.53262 0.94166 0.93284 0.0
C999 C 0.73351 0.79045 0.94087 0.0
H1000 H 0.79634 0.69221 0.8336 0.0
H1001 H 0.92485 0.84252 0.85145 0.0
H1002 H 0.85045 0.65447 0.84515 0.0
H1003 H 0.94068 0.70881 0.86004 0.0
H1004 H 0.61721 0.90284 0.94942 0.0
H1005 H 0.4928 0.84075 0.87976 0.0
H1006 H 0.59651 0.96789 0.9657 0.0
H1007 H 0.52419 0.97077 0.94121 0.0
C1008 C 0.23733 0.19641 0.15497 0.0
C1009 C 0.20546 0.19996 0.13077 0.0
C1010 C 0.26623 0.17271 0.14823 0.0
C1011 C 0.2643 0.15084 0.11725 0.0
H1012 H 0.24114 0.21323 0.17921 0.0
H1013 H 0.29068 0.17175 0.16733 0.0
S1014 S 0.1813 0.14108 0.04695 0.0
N1015 N 0.17041 0.17416 0.07514 0.0
N1016 N 0.22283 0.12725 0.06371 0.0
C1017 C 0.22931 0.14953 0.09388 0.0
C1018 C 0.20044 0.17467 0.10032 0.0
C1019 C 0.04664 0.84417 0.39956 0.0
C1020 C 0.07618 0.85445 0.3706 0.0
C1021 C 0.99282 0.81906 0.39809 0.0
C1022 C 0.96701 0.80366 0.3675 0.0
H1023 H 0.06529 0.85465 0.42337 0.0
H1024 H 0.97134 0.81105 0.42093 0.0
S1025 S 1.02805 0.82824 0.28457 0.0
N1026 N 0.07627 0.85128 0.31072 0.0
N1027 N 0.97634 0.80606 0.30766 0.0
C1028 C 0.99679 0.81685 0.33848 0.0
C1029 C 0.05102 0.84142 0.34007 0.0
C1030 C 0.89446 0.06763 0.12589 0.0
C1031 C 0.89015 0.10061 0.14872 0.0
C1032 C 0.87245 1.0147 0.13241 0.0
C1033 C 0.84574 0.99299 0.16214 0.0
H1034 H 0.91401 0.08264 0.10257 0.0
H1035 H 0.87445 0.99039 0.11347 0.0
S1036 S 0.83443 0.06517 0.23288 0.0
N1037 N 0.8653 0.10903 0.20428 0.0
N1038 N 0.82332 1.01053 0.21644 0.0
C1039 C 0.84489 0.02649 0.18605 0.0
C1040 C 0.86755 0.08001 0.17946 0.0
C1041 C 0.26333 0.19546 0.3373 0.0
C1042 C 0.27928 0.1808 0.36594 0.0
C1043 C 0.23542 0.2211 0.3393 0.0
C1044 C 0.21972 0.2304 0.37002 0.0
H1045 H 0.27374 0.18844 0.31315 0.0
H1046 H 0.22677 0.23453 0.31663 0.0
S1047 S 0.23811 0.18538 0.4517 0.0
N1048 N 0.26882 0.1683 0.42548 0.0
N1049 N 0.2142 0.21447 0.42934 0.0
C1050 C 0.23036 0.21069 0.39865 0.0
C1051 C 0.26034 0.18603 0.39661 0.0
C1052 C 0.03926 0.89734 0.10143 0.0
C1053 C 0.06298 0.89729 0.13152 0.0
C1054 C 0.99009 0.85743 0.09315 0.0
C1055 C 0.9622 0.81577 0.11465 0.0
H1056 H 0.05821 0.9295 0.08465 0.0
H1057 H 0.97326 0.85977 0.06999 0.0
S1058 S 1.00631 0.7989 0.1972 0.0
N1059 N 0.05459 0.85244 0.18296 0.0
N1060 N 0.96211 0.77854 0.16813 0.0
C1061 C 0.98573 0.81532 0.14477 0.0
C1062 C 1.03608 0.8556 0.15293 0.0
C1063 C 0.84385 0.03685 0.32386 0.0
C1064 C 0.84644 1.00438 0.34817 0.0
C1065 C 0.86929 0.09013 0.32769 0.0
C1066 C 0.89822 0.1134 0.35605 0.0
H1067 H 0.82158 1.02112 0.30163 0.0
H1068 H 0.86549 0.11322 0.30858 0.0
S1069 S 0.92833 0.04948 0.42358 0.0
N1070 N 0.88703 1.00219 0.40011 0.0
N1071 N 0.93655 0.10235 0.40575 0.0
C1072 C 0.90521 0.08269 0.37914 0.0
C1073 C 0.87891 0.02823 0.37561 0.0
C1074 C 0.22382 0.23352 0.65782 0.0
C1075 C 0.21836 0.19119 0.63924 0.0
C1076 C 0.20054 0.26179 0.64836 0.0
C1077 C 0.17256 0.25118 0.61895 0.0
H1078 H 0.24774 0.24676 0.67956 0.0
H1079 H 0.20552 0.29305 0.66395 0.0
S1080 S 0.14002 0.14237 0.56263 0.0
N1081 N 0.176 0.13712 0.59138 0.0
N1082 N 0.13621 0.19343 0.57251 0.0
C1083 C 0.16496 0.20852 0.60048 0.0
C1084 C 0.18728 0.17827 0.61062 0.0
C1085 C 0.06252 0.84062 0.90681 0.0
C1086 C 0.10003 0.86409 0.88214 0.0
C1087 C 1.01035 0.8138 0.89859 0.0
C1088 C 0.994 0.81175 0.86566 0.0
H1089 H 0.07364 0.8417 0.93243 0.0
H1090 H 0.98265 0.79411 0.91802 0.0
S1091 S 0.07666 0.87681 0.79339 0.0
N1092 N 0.11696 0.8894 0.82432 0.0
N1093 N 1.01912 0.84087 0.80914 0.0
C1094 C 1.03101 0.83824 0.84127 0.0
C1095 C 0.08399 0.86427 0.84947 0.0
C1096 C 0.82756 0.98129 0.65868 0.0
C1097 C 0.81247 0.95223 0.62943 0.0
C1098 C 0.85462 0.03491 0.65792 0.0
C1099 C 0.86965 0.06219 0.6278 0.0
H1100 H 0.81682 0.96246 0.68249 0.0
H1101 H 0.86255 0.05529 0.6812 0.0
S1102 S 0.85336 1.00397 0.54451 0.0
N1103 N 0.82427 0.95441 0.56975 0.0
N1104 N 0.87522 0.0554 0.56808 0.0
C1105 C 0.85993 0.03354 0.59843 0.0
C1106 C 0.83159 0.97857 0.59928 0.0
C1107 C 0.17355 0.23124 0.88343 0.0
C1108 C 0.15892 0.24482 0.85363 0.0
C1109 C 0.19725 0.20093 0.88337 0.0
C1110 C 0.20479 0.1808 0.85371 0.0
H1111 H 0.16841 0.24567 0.90682 0.0
H1112 H 0.21087 0.19418 0.9066 0.0
S1113 S 0.16604 0.19786 0.76972 0.0
N1114 N 0.14873 0.2305 0.79408 0.0
N1115 N 0.192 0.17327 0.79429 0.0
C1116 C 0.18702 0.19101 0.82419 0.0
C1117 C 0.16394 0.22258 0.82411 0.0
C1118 C 0.09994 0.87584 0.65585 0.0
C1119 C 0.11935 0.90059 0.62545 0.0
C1120 C 0.04736 0.85012 0.66247 0.0
C1121 C 1.01169 0.84773 0.63883 0.0
H1122 H 0.12561 0.87585 0.67449 0.0
H1123 H 1.03461 0.83081 0.6861 0.0
S1124 S 0.04571 0.91704 0.55808 0.0
N1125 N 0.10102 0.92986 0.57413 0.0
N1126 N 1.00205 0.87949 0.58512 0.0
C1127 C 1.0316 0.87664 0.60942 0.0
C1128 C 0.08541 0.90358 0.60314 0.0
C1129 C 0.85429 0.03166 0.85554 0.0
C1130 C 0.8729 0.04897 0.88778 0.0
C1131 C 0.82264 0.97925 0.84855 0.0
C1132 C 0.80638 0.94179 0.87363 0.0
H1133 H 0.86247 0.0588 0.83567 0.0
H1134 H 0.80884 0.96818 0.82349 0.0
S1135 S 0.85221 0.96423 0.96044 0.0
N1136 N 0.87959 1.02182 0.94371 0.0
N1137 N 0.81752 0.92458 0.93076 0.0
C1138 C 0.82716 0.95782 0.90537 0.0
C1139 C 0.86069 1.01094 0.91239 0.0
C1140 C 0.4514 0.18198 0.26468 0.0
C1141 C 0.41793 0.19245 0.28288 0.0
C1142 C 0.45183 0.18307 0.22973 0.0
C1143 C 0.41636 0.19112 0.21201 0.0
H1144 H 0.47548 0.17035 0.27746 0.0
H1145 H 0.47659 0.17271 0.21661 0.0
S1146 S 0.32697 0.22848 0.24802 0.0
N1147 N 0.35525 0.21999 0.28046 0.0
N1148 N 0.35196 0.21642 0.21531 0.0
C1149 C 0.38571 0.20541 0.22999 0.0
C1150 C 0.38732 0.20714 0.26534 0.0
C1151 C 0.88207 0.71952 0.26743 0.0
C1152 C 0.86065 0.67361 0.28543 0.0
C1153 C 0.88318 0.72057 0.2328 0.0
C1154 C 0.86309 0.67556 0.21401 0.0
H1155 H 0.89357 0.75498 0.28008 0.0
H1156 H 0.8963 0.75705 0.22064 0.0
S1157 S 0.8012 0.54422 0.24844 0.0
N1158 N 0.81812 0.58116 0.28163 0.0
N1159 N 0.82085 0.58295 0.216 0.0
C1160 C 0.84321 0.62898 0.23141 0.0
C1161 C 0.84174 0.628 0.26717 0.0
C1162 C 0.85723 0.20293 0.22969 0.0
C1163 C 0.88776 0.247 0.21079 0.0
C1164 C 0.86303 0.20285 0.26436 0.0
C1165 C 0.89863 0.24731 0.28115 0.0
H1166 H 0.83088 0.16769 0.21753 0.0
H1167 H 0.84135 0.16731 0.27775 0.0
S1168 S 0.96833 0.37719 0.24507 0.0
N1169 N 0.9423 0.33925 0.21286 0.0
N1170 N 0.95221 0.33923 0.27769 0.0
C1171 C 0.92319 0.29303 0.26314 0.0
C1172 C 0.91765 0.29297 0.22804 0.0
C1173 C 0.19963 0.35283 0.73157 0.0
C1174 C 0.19426 0.38867 0.71213 0.0
C1175 C 0.2031 0.35708 0.76643 0.0
C1176 C 0.19968 0.3963 0.783 0.0
H1177 H 0.1979 0.31964 0.72004 0.0
H1178 H 0.20409 0.32718 0.7806 0.0
S1179 S 0.19349 0.50376 0.74317 0.0
N1180 N 0.19317 0.46848 0.71178 0.0
N1181 N 0.19689 0.47484 0.77707 0.0
C1182 C 0.19868 0.43451 0.76363 0.0
C1183 C 0.19649 0.43097 0.72823 0.0
C1184 C 0.26935 0.88199 0.76635 0.0
C1185 C 0.22222 0.85918 0.78267 0.0
C1186 C 0.27224 0.88314 0.73183 0.0
C1187 C 0.22803 0.86156 0.71209 0.0
H1188 H 0.30442 0.90129 0.78031 0.0
H1189 H 0.30961 0.90429 0.7205 0.0
S1190 S 0.09541 0.7866 0.74295 0.0
N1191 N 0.13041 0.80659 0.77695 0.0
N1192 N 0.13577 0.8087 0.71151 0.0
C1193 C 0.18068 0.83345 0.72804 0.0
C1194 C 0.17777 0.83237 0.76355 0.0
C1195 C 0.6255 0.78765 0.72856 0.0
C1196 C 0.66059 0.83056 0.71005 0.0
C1197 C 0.62532 0.78794 0.76357 0.0
C1198 C 0.66177 0.83038 0.78162 0.0
H1199 H 0.60014 0.75235 0.71591 0.0
H1200 H 0.5995 0.75299 0.77649 0.0
S1201 S 0.75821 0.95416 0.7455 0.0
N1202 N 0.7285 0.91871 0.71291 0.0
N1203 N 0.73057 0.91799 0.77827 0.0
C1204 C 0.69449 0.87459 0.76349 0.0
C1205 C 0.69341 0.87495 0.72788 0.0
C1206 C 0.25226 0.9849 0.99608 0.0
C1207 C 0.28278 0.97098 0.97742 0.0
C1208 C 0.27349 1.02605 0.01837 0.0
C1209 C 0.32658 0.05625 0.02288 0.0
H1210 H 0.21132 0.96465 0.99259 0.0
H1211 H 0.24788 0.03366 0.03293 0.0
S1212 S 0.42408 0.03708 0.97997 0.0
N1213 N 0.36948 0.99183 0.96477 0.0
N1214 N 0.40926 0.06904 0.00673 0.0
C1215 C 0.35773 0.04314 0.00435 0.0
C1216 C 0.33595 1.00062 0.98176 0.0
C1217 C 0.8327 0.80639 0.48579 0.0
C1218 C 0.80458 0.756 0.47332 0.0
C1219 C 0.81175 0.82547 0.50986 0.0
C1220 C 0.76128 0.79549 0.52172 0.0
H1221 H 0.87071 0.83156 0.47643 0.0
H1222 H 0.83558 0.86347 0.51974 0.0
S1223 S 0.67141 0.66191 0.49653 0.0
N1224 N 0.72355 0.67726 0.47507 0.0
N1225 N 0.68439 0.71299 0.51854 0.0
C1226 C 0.73312 0.74556 0.50902 0.0
C1227 C 0.75451 0.72604 0.48532 0.0
C1228 C 1.02017 0.30408 0.97289 0.0
C1229 C 0.05702 0.28948 0.96578 0.0
C1230 C 0.98242 0.27978 0.99727 0.0
C1231 C 0.98122 0.24127 0.01731 0.0
H1232 H 1.02043 0.33512 0.95957 0.0
H1233 H 0.95632 0.29386 0.00199 0.0
S1234 S 0.06882 0.1882 0.00988 0.0
N1235 N 0.08863 0.23247 0.98069 0.0
N1236 N 1.02027 0.1888 0.02821 0.0
C1237 C 1.01803 0.22622 0.01079 0.0
C1238 C 0.0556 0.25015 0.98507 0.0
C1239 C 0.28546 0.0404 0.47891 0.0
C1240 C 0.33698 0.07952 0.47521 0.0
C1241 C 0.26964 1.00337 0.50426 0.0
C1242 C 0.30449 1.00391 0.52741 0.0
H1243 H 0.25669 0.03804 0.46188 0.0
H1244 H 0.22961 0.97503 0.50624 0.0
S1245 S 0.44413 0.09577 0.52817 0.0
N1246 N 0.42283 0.11453 0.49656 0.0
N1247 N 0.39366 0.04601 0.54425 0.0
C1248 C 0.3562 0.04246 0.52391 0.0
C1249 C 0.37226 0.08001 0.498 0.0
C1250 C 0.81483 0.7586 0.9997 0.0
C1251 C 0.77888 0.71992 0.02047 0.0
C1252 C 0.80005 0.7831 0.9756 0.0
C1253 C 0.74848 0.77009 0.97068 0.0
H1254 H 0.85501 0.77178 0.00307 0.0
H1255 H 0.82956 0.81251 0.96036 0.0
S1256 S 0.63906 0.6718 0.01876 0.0
N1257 N 0.68894 0.67128 0.03495 0.0
N1258 N 0.66164 0.71518 0.98902 0.0
C1259 C 0.71226 0.73158 0.99128 0.0
C1260 C 0.72727 0.70708 0.01604 0.0
C1261 C 0.07335 0.29965 0.50341 0.0
C1262 C 0.0725 0.33791 0.52259 0.0
C1263 C 1.03442 0.27118 0.48039 0.0
C1264 C 0.99297 0.27989 0.47497 0.0
H1265 H 0.10316 0.29016 0.50711 0.0
H1266 H 1.03716 0.24193 0.46653 0.0
S1267 S 0.97338 0.37663 0.51879 0.0
N1268 N 1.02667 0.38334 0.53471 0.0
N1269 N 0.95425 0.3302 0.4913 0.0
C1270 C 0.99165 0.31797 0.49416 0.0
C1271 C 1.03128 0.34698 0.51772 0.0
C1272 C 0.53575 0.08076 0.06891 0.0
C1273 C 0.57733 0.10486 0.09083 0.0
C1274 C 0.49137 0.08386 0.07319 0.0
C1275 C 0.48548 0.11037 0.09982 0.0
H1276 H 0.53806 0.06054 0.04742 0.0
H1277 H 0.4617 0.06632 0.05486 0.0
S1278 S 0.58067 0.17717 0.16604 0.0
N1279 N 0.60823 0.15389 0.14171 0.0
N1280 N 0.52448 0.15995 0.1494 0.0
C1281 C 0.52573 0.13319 0.12277 0.0
C1282 C 0.57159 0.13039 0.11834 0.0
C1283 C 0.71609 0.55856 0.3599 0.0
C1284 C 0.71718 0.58182 0.3903 0.0
C1285 C 0.68483 0.50543 0.35553 0.0
C1286 C 0.65352 0.47349 0.38135 0.0
H1287 H 0.74253 0.5806 0.34037 0.0
H1288 H 0.68733 0.48888 0.3323 0.0
S1289 S 0.63796 0.51771 0.46417 0.0
N1290 N 0.68001 0.57029 0.44502 0.0
N1291 N 0.62245 0.47102 0.43735 0.0
C1292 C 0.65115 0.49734 0.41077 0.0
C1293 C 0.68261 0.55129 0.41504 0.0
C1294 C 0.93685 0.37121 0.06625 0.0
C1295 C 0.92746 0.35387 0.09931 0.0
C1296 C 0.93998 0.41798 0.0568 0.0
C1297 C 0.93244 0.44917 0.07977 0.0
H1298 H 0.93944 0.34736 0.0472 0.0
H1299 H 0.94654 0.42885 0.03092 0.0
S1300 S 0.90725 0.42118 0.16955 0.0
N1301 N 0.91066 0.3719 0.1549 0.0
N1302 N 0.91728 0.45929 0.13759 0.0
C1303 C 0.9238 0.43245 0.11295 0.0
C1304 C 0.92096 0.3851 0.12249 0.0
C1305 C 0.5087 0.13336 0.42017 0.0
C1306 C 0.49998 0.13913 0.38657 0.0
C1307 C 0.55252 0.13186 0.43038 0.0
C1308 C 0.59065 0.13805 0.40763 0.0
H1309 H 0.48227 0.13161 0.4389 0.0
H1310 H 0.55724 0.12707 0.45651 0.0
S1311 S 0.58663 0.15502 0.31687 0.0
N1312 N 0.5333 0.15104 0.33061 0.0
N1313 N 0.61599 0.14938 0.34979 0.0
C1314 C 0.58248 0.14399 0.374 0.0
C1315 C 0.53732 0.14448 0.36355 0.0
C1316 C 0.64075 0.49032 0.13106 0.0
C1317 C 0.62065 0.47921 0.09875 0.0
C1318 C 0.68637 0.53613 0.13824 0.0
C1319 C 0.71338 0.5736 0.11373 0.0
H1320 H 0.62115 0.46341 0.15092 0.0
H1321 H 0.70156 0.54162 0.16314 0.0
S1322 S 0.68059 0.55931 0.02428 0.0
N1323 N 0.63361 0.50767 0.0415 0.0
N1324 N 0.71892 0.59248 0.05494 0.0
C1325 C 0.69399 0.56226 0.08125 0.0
C1326 C 0.64781 0.51565 0.07387 0.0
C1327 C 0.91156 0.41221 0.42969 0.0
C1328 C 0.9236 0.45352 0.40805 0.0
C1329 C 0.91442 0.36926 0.41955 0.0
C1330 C 0.92988 0.36552 0.38735 0.0
H1331 H 0.89849 0.41241 0.45465 0.0
H1332 H 0.9022 0.33766 0.43667 0.0
S1333 S 0.9678 0.46317 0.32122 0.0
N1334 N 0.9535 0.4883 0.35298 0.0
N1335 N 0.95806 0.40688 0.33387 0.0
C1336 C 0.94258 0.40646 0.36546 0.0
C1337 C 0.93972 0.45055 0.3758 0.0
C1338 C 0.14162 0.53699 0.56547 0.0
C1339 C 0.14175 0.57202 0.58875 0.0
C1340 C 0.14257 0.49259 0.57536 0.0
C1341 C 0.14305 0.48055 0.60904 0.0
H1342 H 0.1428 0.54492 0.5392 0.0
H1343 H 0.146 0.46915 0.55638 0.0
S1344 S 0.1375 0.55544 0.68008 0.0
N1345 N 0.13789 0.58851 0.64729 0.0
N1346 N 0.14008 0.50555 0.66565 0.0
C1347 C 0.14102 0.51391 0.63255 0.0
C1348 C 0.14023 0.55932 0.62252 0.0
C1349 C 0.38028 0.91575 0.91173 0.0
C1350 C 0.36594 0.91347 0.8784 0.0
C1351 C 0.42369 0.91292 0.92101 0.0
C1352 C 0.45479 0.90661 0.89747 0.0
H1353 H 0.35575 0.91586 0.93105 0.0
H1354 H 0.43198 0.91396 0.9472 0.0
S1355 S 0.43285 0.89623 0.80667 0.0
N1356 N 0.38538 0.90239 0.82168 0.0
N1357 N 0.46752 0.8983 0.83891 0.0
C1358 C 0.44086 0.9041 0.86395 0.0
C1359 C 0.39649 0.90711 0.85454 0.0
C1360 C 0.57034 0.67443 0.5601 0.0
C1361 C 0.59068 0.6984 0.59071 0.0
C1362 C 0.52434 0.62813 0.55787 0.0
C1363 C 0.49543 0.60321 0.58612 0.0
H1364 H 0.58956 0.6925 0.5372 0.0
H1365 H 0.51091 0.61179 0.53354 0.0
S1366 S 0.53197 0.64748 0.67279 0.0
N1367 N 0.5785 0.69243 0.6504 0.0
N1368 N 0.49182 0.60457 0.64627 0.0
C1369 C 0.51543 0.62581 0.61718 0.0
C1370 C 0.56298 0.67346 0.61948 0.0
C1371 C 0.17199 0.55546 0.88612 0.0
C1372 C 0.15285 0.56671 0.91486 0.0
C1373 C 0.16042 0.505 0.87899 0.0
C1374 C 0.13013 0.46443 0.90067 0.0
H1375 H 0.19984 0.58618 0.87081 0.0
H1376 H 0.1801 0.49882 0.85864 0.0
S1377 S 0.06229 0.47198 0.97505 0.0
N1378 N 0.09307 0.53106 0.96075 0.0
N1379 N 0.07675 0.43818 0.9497 0.0
C1380 C 0.10705 0.47463 0.9275 0.0
C1381 C 0.11683 0.52521 0.93389 0.0
C1382 C 0.40511 0.91896 0.63415 0.0
C1383 C 0.37288 0.92173 0.61 0.0
C1384 C 0.45145 0.92136 0.62536 0.0
C1385 C 0.46673 0.92555 0.59198 0.0
H1386 H 0.3936 0.91333 0.65993 0.0
H1387 H 0.4751 0.9193 0.64476 0.0
S1388 S 0.39241 0.9276 0.51907 0.0
N1389 N 0.35781 0.92516 0.55133 0.0
N1390 N 0.44342 0.92873 0.53458 0.0
C1391 C 0.43424 0.92771 0.56765 0.0
C1392 C 0.38775 0.92597 0.57669 0.0
C1393 C 0.57515 0.63485 0.90477 0.0
C1394 C 0.58299 0.67712 0.88564 0.0
C1395 C 0.5264 0.59202 0.9091 0.0
C1396 C 0.48193 0.5906 0.8967 0.0
H1397 H 0.60652 0.6364 0.91865 0.0
H1398 H 0.52323 0.56152 0.92491 0.0
S1399 S 0.48166 0.69064 0.84304 0.0
N1400 N 0.54257 0.71288 0.85138 0.0
N1401 N 0.45036 0.63459 0.86177 0.0
C1402 C 0.48948 0.63119 0.87561 0.0
C1403 C 0.53988 0.67401 0.86992 0.0
loop_
_geom_bond_atom_site_label_1
_geom_bond_atom_site_label_2
_geom_bond_distance
_geom_bond_site_symmetry_2
_ccdc_geom_bond_type
Gd0 N31 2.661 . S
Gd0 N37 2.601 . S
Gd0 O44 2.545 . S
Gd0 O45 2.606 . S
Gd0 O47 2.429 . S
Gd0 O48 2.545 . S
Gd0 O49 2.412 . S
Gd0 O51 2.362 . S
Gd0 O52 2.324 . S
Gd0 C59 2.828 1_545 S
Gd1 N10 2.661 . S
Gd1 N14 2.601 . S
Gd1 O45 2.362 . S
Gd1 O46 2.324 . S
Gd1 O50 2.545 . S
Gd1 O51 2.606 . S
Gd1 O53 2.429 . S
Gd1 O54 2.545 . S
Gd1 O55 2.412 . S
Gd1 C68 2.828 . S
C2 C5 1.417 . S
C2 C7 1.431 . S
C2 C8 1.412 . S
C3 C6 1.437 . S
C3 C7 1.317 . S
C3 H22 0.929 . S
C4 C5 1.426 . S
C4 C6 1.413 . S
C4 N14 1.359 . S
C5 C2 1.417 . S
C5 C4 1.426 . S
C5 N10 1.350 . S
C6 C3 1.437 . S
C6 C4 1.413 . S
C6 C16 1.391 1_554 S
C7 C2 1.431 . S
C7 C3 1.317 . S
C7 H18 0.930 . S
C8 C2 1.412 . S
C8 C9 1.355 . S
C8 H20 0.930 . S
C9 C8 1.355 . S
C9 C11 1.402 . S
C9 H21 0.930 . S
N10 Gd1 2.661 . S
N10 C5 1.350 . S
N10 C11 1.307 . S
C11 C9 1.402 . S
C11 N10 1.307 . S
C11 H12 0.930 . S
H12 C11 0.930 . S
C13 N14 1.334 . S
C13 C15 1.394 1_554 S
C13 H17 0.930 . S
N14 Gd1 2.601 . S
N14 C4 1.359 . S
N14 C13 1.334 . S
C15 C13 1.394 1_556 S
C15 C16 1.359 . S
C15 H27 0.930 . S
C16 C6 1.391 1_556 S
C16 C15 1.359 . S
C16 H28 0.929 . S
H17 C13 0.930 . S
H18 C7 0.930 . S
H19 C36 0.930 . S
H20 C8 0.930 . S
H21 C9 0.930 . S
H22 C3 0.929 . S
H23 C41 0.930 . S
H24 C32 0.930 . S
H25 C33 0.930 . S
H26 C57 0.929 . S
H27 C15 0.930 . S
H28 C16 0.929 . S
H29 C58 0.930 . S
H30 C39 0.930 . S
N31 Gd0 2.661 . S
N31 C35 1.350 . S
N31 C36 1.307 . S
C32 H24 0.930 . S
C32 C33 1.355 1_565 S
C32 C34 1.412 . S
C33 H25 0.930 . S
C33 C32 1.355 1_545 S
C33 C36 1.402 . S
C34 C32 1.412 . S
C34 C35 1.417 1_565 S
C34 C58 1.431 . S
C35 N31 1.350 . S
C35 C34 1.417 1_545 S
C35 C38 1.426 . S
C36 H19 0.930 . S
C36 N31 1.307 . S
C36 C33 1.402 . S
N37 Gd0 2.601 . S
N37 C38 1.359 . S
N37 C41 1.334 . S
C38 C35 1.426 . S
C38 N37 1.359 . S
C38 C42 1.413 1_545 S
C39 H30 0.930 . S
C39 C40 1.359 . S
C39 C41 1.394 . S
C40 C39 1.359 . S
C40 C42 1.391 1_545 S
C40 H43 0.929 1_545 S
C41 H23 0.930 . S
C41 N37 1.334 . S
C41 C39 1.394 . S
C42 C38 1.413 1_565 S
C42 C40 1.391 1_565 S
C42 C57 1.437 . S
H43 C40 0.929 1_565 S
O44 Gd0 2.545 . S
O44 C59 1.258 1_545 S
O45 Gd0 2.606 . S
O45 Gd1 2.362 . S
O45 C56 1.284 . S
O46 Gd1 2.324 . S
O46 C66 1.254 . S
O47 Gd0 2.429 . S
O47 C66 1.268 . S
O48 Gd0 2.545 . S
O48 C56 1.250 . S
O49 Gd0 2.412 . S
O49 C59 1.252 1_545 S
O50 Gd1 2.545 . S
O50 C68 1.258 . S
O51 Gd0 2.362 . S
O51 Gd1 2.606 . S
O51 C67 1.284 . S
O52 Gd0 2.324 . S
O52 C75 1.254 . S
O53 Gd1 2.429 . S
O53 C75 1.268 . S
O54 Gd1 2.545 . S
O54 C67 1.250 . S
O55 Gd1 2.412 . S
O55 C68 1.252 . S
C56 O45 1.284 . S
C56 O48 1.250 . S
C57 H26 0.929 . S
C57 C42 1.437 . S
C57 C58 1.317 . S
C58 H29 0.930 . S
C58 C34 1.431 . S
C58 C57 1.317 . S
C59 Gd0 2.828 1_565 S
C59 O44 1.258 1_565 S
C59 O49 1.252 1_565 S
C59 C60 1.497 . S
C60 C59 1.497 . S
C60 C61 1.395 . S
C60 C62 1.380 . S
C61 C60 1.395 . S
C61 C64 1.398 . S
C61 H76 0.930 . S
C62 C60 1.380 . S
C62 C63 1.391 . S
C62 H77 0.930 . S
C63 C62 1.391 . S
C63 C65 1.387 . S
C64 C61 1.398 . S
C64 C65 1.380 . S
C64 H78 0.930 . S
C65 C63 1.387 . S
C65 C64 1.380 . S
C65 H79 0.930 . S
C66 O46 1.254 . S
C66 O47 1.268 . S
C67 O51 1.284 . S
C67 O54 1.250 . S
C68 Gd1 2.828 . S
C68 O50 1.258 . S
C68 O55 1.252 . S
C68 C69 1.497 . S
C69 C68 1.497 . S
C69 C70 1.395 . S
C69 C71 1.380 . S
C70 C69 1.395 . S
C70 C73 1.398 . S
C70 H80 0.930 . S
C71 C69 1.380 . S
C71 C72 1.391 . S
C71 H81 0.930 . S
C72 C71 1.391 . S
C72 C74 1.387 . S
C73 C70 1.398 . S
C73 C74 1.380 . S
C73 H82 0.930 . S
C74 C72 1.387 . S
C74 C73 1.380 . S
C74 H83 0.930 . S
C75 O52 1.254 . S
C75 O53 1.268 . S
H76 C61 0.930 . S
H77 C62 0.930 . S
H78 C64 0.930 . S
H79 C65 0.930 . S
H80 C70 0.930 . S
H81 C71 0.930 . S
H82 C73 0.930 . S
H83 C74 0.930 . S
Gd84 N115 2.661 . S
Gd84 N121 2.601 . S
Gd84 O128 2.545 . S
Gd84 O129 2.606 . S
Gd84 O131 2.429 . S
Gd84 O132 2.545 . S
Gd84 O133 2.412 . S
Gd84 O135 2.362 . S
Gd84 O136 2.324 . S
Gd84 C143 2.828 . S
Gd85 N94 2.661 . S
Gd85 N98 2.601 . S
Gd85 O129 2.362 . S
Gd85 O130 2.324 . S
Gd85 O134 2.545 . S
Gd85 O135 2.606 . S
Gd85 O137 2.429 . S
Gd85 O138 2.545 . S
Gd85 O139 2.412 . S
Gd85 C152 2.828 . S
C86 C89 1.417 . S
C86 C91 1.431 . S
C86 C92 1.412 . S
C87 C90 1.437 . S
C87 C91 1.317 . S
C87 H106 0.929 . S
C88 C89 1.426 . S
C88 C90 1.413 . S
C88 N98 1.359 . S
C89 C86 1.417 . S
C89 C88 1.426 . S
C89 N94 1.350 . S
C90 C87 1.437 . S
C90 C88 1.413 . S
C90 C100 1.391 . S
C91 C86 1.431 . S
C91 C87 1.317 . S
C91 H102 0.930 . S
C92 C86 1.412 . S
C92 C93 1.355 . S
C92 H104 0.930 . S
C93 C92 1.355 . S
C93 C95 1.402 . S
C93 H105 0.930 . S
N94 Gd85 2.661 . S
N94 C89 1.350 . S
N94 C95 1.307 . S
C95 C93 1.402 . S
C95 N94 1.307 . S
C95 H96 0.930 . S
H96 C95 0.930 . S
C97 N98 1.334 . S
C97 C99 1.394 . S
C97 H101 0.930 . S
N98 Gd85 2.601 . S
N98 C88 1.359 . S
N98 C97 1.334 . S
C99 C97 1.394 . S
C99 C100 1.359 . S
C99 H111 0.930 . S
C100 C90 1.391 . S
C100 C99 1.359 . S
C100 H112 0.929 . S
H101 C97 0.930 . S
H102 C91 0.930 . S
H103 C120 0.930 . S
H104 C92 0.930 . S
H105 C93 0.930 . S
H106 C87 0.929 . S
H107 C125 0.930 . S
H108 C116 0.930 . S
H109 C117 0.930 . S
H110 C141 0.929 . S
H111 C99 0.930 . S
H112 C100 0.929 . S
H113 C142 0.930 . S
H114 C123 0.930 . S
N115 Gd84 2.661 . S
N115 C119 1.350 . S
N115 C120 1.307 . S
C116 H108 0.930 . S
C116 C117 1.355 . S
C116 C118 1.412 . S
C117 H109 0.930 . S
C117 C116 1.355 . S
C117 C120 1.402 1_455 S
C118 C116 1.412 . S
C118 C119 1.417 1_455 S
C118 C142 1.431 . S
C119 N115 1.350 . S
C119 C118 1.417 1_655 S
C119 C122 1.426 . S
C120 H103 0.930 . S
C120 N115 1.307 . S
C120 C117 1.402 1_655 S
N121 Gd84 2.601 . S
N121 C122 1.359 . S
N121 C125 1.334 . S
C122 C119 1.426 . S
C122 N121 1.359 . S
C122 C126 1.413 . S
C123 H114 0.930 . S
C123 C124 1.359 . S
C123 C125 1.394 . S
C124 C123 1.359 . S
C124 C126 1.391 . S
C124 H127 0.929 . S
C125 H107 0.930 . S
C125 N121 1.334 . S
C125 C123 1.394 . S
C126 C122 1.413 . S
C126 C124 1.391 . S
C126 C141 1.437 1_655 S
H127 C124 0.929 . S
O128 Gd84 2.545 . S
O128 C143 1.258 . S
O129 Gd84 2.606 . S
O129 Gd85 2.362 . S
O129 C140 1.284 . S
O130 Gd85 2.324 . S
O130 C150 1.254 . S
O131 Gd84 2.429 . S
O131 C150 1.268 . S
O132 Gd84 2.545 . S
O132 C140 1.250 . S
O133 Gd84 2.412 . S
O133 C143 1.252 . S
O134 Gd85 2.545 . S
O134 C152 1.258 . S
O135 Gd84 2.362 . S
O135 Gd85 2.606 . S
O135 C151 1.284 . S
O136 Gd84 2.324 . S
O136 C159 1.254 . S
O137 Gd85 2.429 . S
O137 C159 1.268 . S
O138 Gd85 2.545 . S
O138 C151 1.250 . S
O139 Gd85 2.412 . S
O139 C152 1.252 . S
C140 O129 1.284 . S
C140 O132 1.250 . S
C141 H110 0.929 . S
C141 C126 1.437 1_455 S
C141 C142 1.317 . S
C142 H113 0.930 . S
C142 C118 1.431 . S
C142 C141 1.317 . S
C143 Gd84 2.828 . S
C143 O128 1.258 . S
C143 O133 1.252 . S
C143 C144 1.497 . S
C144 C143 1.497 . S
C144 C145 1.395 . S
C144 C146 1.380 . S
C145 C144 1.395 . S
C145 C148 1.398 . S
C145 H160 0.930 . S
C146 C144 1.380 . S
C146 C147 1.391 . S
C146 H161 0.930 . S
C147 C146 1.391 . S
C147 C149 1.387 . S
C148 C145 1.398 . S
C148 C149 1.380 . S
C148 H162 0.930 . S
C149 C147 1.387 . S
C149 C148 1.380 . S
C149 H163 0.930 . S
C150 O130 1.254 . S
C150 O131 1.268 . S
C151 O135 1.284 . S
C151 O138 1.250 . S
C152 Gd85 2.828 . S
C152 O134 1.258 . S
C152 O139 1.252 . S
C152 C153 1.497 . S
C153 C152 1.497 . S
C153 C154 1.395 . S
C153 C155 1.380 . S
C154 C153 1.395 . S
C154 C157 1.398 . S
C154 H164 0.930 . S
C155 C153 1.380 . S
C155 C156 1.391 . S
C155 H165 0.930 . S
C156 C155 1.391 . S
C156 C158 1.387 . S
C157 C154 1.398 . S
C157 C158 1.380 . S
C157 H166 0.930 . S
C158 C156 1.387 . S
C158 C157 1.380 . S
C158 H167 0.930 . S
C159 O136 1.254 . S
C159 O137 1.268 . S
H160 C145 0.930 . S
H161 C146 0.930 . S
H162 C148 0.930 . S
H163 C149 0.930 . S
H164 C154 0.930 . S
H165 C155 0.930 . S
H166 C157 0.930 . S
H167 C158 0.930 . S
Gd168 N199 2.661 . S
Gd168 N205 2.601 . S
Gd168 O212 2.545 . S
Gd168 O213 2.606 . S
Gd168 O215 2.429 . S
Gd168 O216 2.545 . S
Gd168 O217 2.412 . S
Gd168 O219 2.362 . S
Gd168 O220 2.324 . S
Gd168 C227 2.828 1_655 S
Gd169 N178 2.661 . S
Gd169 N182 2.601 . S
Gd169 O213 2.362 . S
Gd169 O214 2.324 . S
Gd169 O218 2.545 . S
Gd169 O219 2.606 . S
Gd169 O221 2.429 . S
Gd169 O222 2.545 . S
Gd169 O223 2.412 . S
Gd169 C236 2.828 . S
C170 C173 1.417 1_565 S
C170 C175 1.431 . S
C170 C176 1.412 . S
C171 C174 1.437 1_565 S
C171 C175 1.317 . S
C171 H190 0.929 . S
C172 C173 1.426 . S
C172 C174 1.413 . S
C172 N182 1.359 . S
C173 C170 1.417 1_545 S
C173 C172 1.426 . S
C173 N178 1.350 . S
C174 C171 1.437 1_545 S
C174 C172 1.413 . S
C174 C184 1.391 1_554 S
C175 C170 1.431 . S
C175 C171 1.317 . S
C175 H186 0.930 . S
C176 C170 1.412 . S
C176 C177 1.355 . S
C176 H188 0.930 . S
C177 C176 1.355 . S
C177 C179 1.402 1_565 S
C177 H189 0.930 . S
N178 Gd169 2.661 . S
N178 C173 1.350 . S
N178 C179 1.307 . S
C179 C177 1.402 1_545 S
C179 N178 1.307 . S
C179 H180 0.930 . S
H180 C179 0.930 . S
C181 N182 1.334 . S
C181 C183 1.394 1_554 S
C181 H185 0.930 . S
N182 Gd169 2.601 . S
N182 C172 1.359 . S
N182 C181 1.334 . S
C183 C181 1.394 1_556 S
C183 C184 1.359 . S
C183 H195 0.930 . S
C184 C174 1.391 1_556 S
C184 C183 1.359 . S
C184 H196 0.929 . S
H185 C181 0.930 . S
H186 C175 0.930 . S
H187 C204 0.930 . S
H188 C176 0.930 . S
H189 C177 0.930 . S
H190 C171 0.929 . S
H191 C209 0.930 . S
H192 C200 0.930 . S
H193 C201 0.930 . S
H194 C225 0.929 . S
H195 C183 0.930 . S
H196 C184 0.929 . S
H197 C226 0.930 . S
H198 C207 0.930 . S
N199 Gd168 2.661 . S
N199 C203 1.350 . S
N199 C204 1.307 . S
C200 H192 0.930 . S
C200 C201 1.355 1_455 S
C200 C202 1.412 . S
C201 H193 0.930 . S
C201 C200 1.355 1_655 S
C201 C204 1.402 . S
C202 C200 1.412 . S
C202 C203 1.417 1_455 S
C202 C226 1.431 . S
C203 N199 1.350 . S
C203 C202 1.417 1_655 S
C203 C206 1.426 . S
C204 H187 0.930 . S
C204 N199 1.307 . S
C204 C201 1.402 . S
N205 Gd168 2.601 . S
N205 C206 1.359 . S
N205 C209 1.334 . S
C206 C203 1.426 . S
C206 N205 1.359 . S
C206 C210 1.413 1_655 S
C207 H198 0.930 . S
C207 C208 1.359 . S
C207 C209 1.394 . S
C208 C207 1.359 . S
C208 C210 1.391 1_655 S
C208 H211 0.929 1_655 S
C209 H191 0.930 . S
C209 N205 1.334 . S
C209 C207 1.394 . S
C210 C206 1.413 1_455 S
C210 C208 1.391 1_455 S
C210 C225 1.437 . S
H211 C208 0.929 1_455 S
O212 Gd168 2.545 . S
O212 C227 1.258 1_655 S
O213 Gd168 2.606 . S
O213 Gd169 2.362 . S
O213 C224 1.284 . S
O214 Gd169 2.324 . S
O214 C234 1.254 . S
O215 Gd168 2.429 . S
O215 C234 1.268 . S
O216 Gd168 2.545 . S
O216 C224 1.250 . S
O217 Gd168 2.412 . S
O217 C227 1.252 1_655 S
O218 Gd169 2.545 . S
O218 C236 1.258 . S
O219 Gd168 2.362 . S
O219 Gd169 2.606 . S
O219 C235 1.284 . S
O220 Gd168 2.324 . S
O220 C243 1.254 . S
O221 Gd169 2.429 . S
O221 C243 1.268 . S
O222 Gd169 2.545 . S
O222 C235 1.250 . S
O223 Gd169 2.412 . S
O223 C236 1.252 . S
C224 O213 1.284 . S
C224 O216 1.250 . S
C225 H194 0.929 . S
C225 C210 1.437 . S
C225 C226 1.317 . S
C226 H197 0.930 . S
C226 C202 1.431 . S
C226 C225 1.317 . S
C227 Gd168 2.828 1_455 S
C227 O212 1.258 1_455 S
C227 O217 1.252 1_455 S
C227 C228 1.497 . S
C228 C227 1.497 . S
C228 C229 1.395 . S
C228 C230 1.380 . S
C229 C228 1.395 . S
C229 C232 1.398 . S
C229 H244 0.930 . S
C230 C228 1.380 . S
C230 C231 1.391 . S
C230 H245 0.930 . S
C231 C230 1.391 . S
C231 C233 1.387 . S
C232 C229 1.398 . S
C232 C233 1.380 . S
C232 H246 0.930 . S
C233 C231 1.387 . S
C233 C232 1.380 . S
C233 H247 0.930 . S
C234 O214 1.254 . S
C234 O215 1.268 . S
C235 O219 1.284 . S
C235 O222 1.250 . S
C236 Gd169 2.828 . S
C236 O218 1.258 . S
C236 O223 1.252 . S
C236 C237 1.497 . S
C237 C236 1.497 . S
C237 C238 1.395 . S
C237 C239 1.380 . S
C238 C237 1.395 . S
C238 C241 1.398 . S
C238 H248 0.930 . S
C239 C237 1.380 . S
C239 C240 1.391 . S
C239 H249 0.930 . S
C240 C239 1.391 . S
C240 C242 1.387 . S
C241 C238 1.398 . S
C241 C242 1.380 . S
C241 H250 0.930 . S
C242 C240 1.387 . S
C242 C241 1.380 . S
C242 H251 0.930 . S
C243 O220 1.254 . S
C243 O221 1.268 . S
H244 C229 0.930 . S
H245 C230 0.930 . S
H246 C232 0.930 . S
H247 C233 0.930 . S
H248 C238 0.930 . S
H249 C239 0.930 . S
H250 C241 0.930 . S
H251 C242 0.930 . S
Gd252 N283 2.661 . S
Gd252 N289 2.601 . S
Gd252 O296 2.545 . S
Gd252 O297 2.606 . S
Gd252 O299 2.429 . S
Gd252 O300 2.545 . S
Gd252 O301 2.412 . S
Gd252 O303 2.362 . S
Gd252 O304 2.324 . S
Gd252 C311 2.828 . S
Gd253 N262 2.661 . S
Gd253 N266 2.601 . S
Gd253 O297 2.362 . S
Gd253 O298 2.324 . S
Gd253 O302 2.545 . S
Gd253 O303 2.606 . S
Gd253 O305 2.429 . S
Gd253 O306 2.545 . S
Gd253 O307 2.412 . S
Gd253 C320 2.828 1_545 S
C254 C257 1.417 1_565 S
C254 C259 1.431 . S
C254 C260 1.412 . S
C255 C258 1.437 . S
C255 C259 1.317 . S
C255 H274 0.929 . S
C256 C257 1.426 . S
C256 C258 1.413 1_545 S
C256 N266 1.359 . S
C257 C254 1.417 1_545 S
C257 C256 1.426 . S
C257 N262 1.350 . S
C258 C255 1.437 . S
C258 C256 1.413 1_565 S
C258 C268 1.391 1_565 S
C259 C254 1.431 . S
C259 C255 1.317 . S
C259 H270 0.930 . S
C260 C254 1.412 . S
C260 C261 1.355 1_565 S
C260 H272 0.930 . S
C261 C260 1.355 1_545 S
C261 C263 1.402 . S
C261 H273 0.930 . S
N262 Gd253 2.661 . S
N262 C257 1.350 . S
N262 C263 1.307 . S
C263 C261 1.402 . S
C263 N262 1.307 . S
C263 H264 0.930 . S
H264 C263 0.930 . S
C265 N266 1.334 . S
C265 C267 1.394 . S
C265 H269 0.930 . S
N266 Gd253 2.601 . S
N266 C256 1.359 . S
N266 C265 1.334 . S
C267 C265 1.394 . S
C267 C268 1.359 . S
C267 H279 0.930 . S
C268 C258 1.391 1_545 S
C268 C267 1.359 . S
C268 H280 0.929 1_545 S
H269 C265 0.930 . S
H270 C259 0.930 . S
H271 C288 0.930 . S
H272 C260 0.930 . S
H273 C261 0.930 . S
H274 C255 0.929 . S
H275 C293 0.930 . S
H276 C284 0.930 . S
H277 C285 0.930 . S
H278 C309 0.929 . S
H279 C267 0.930 . S
H280 C268 0.929 1_565 S
H281 C310 0.930 . S
H282 C291 0.930 . S
N283 Gd252 2.661 . S
N283 C287 1.350 . S
N283 C288 1.307 . S
C284 H276 0.930 . S
C284 C285 1.355 . S
C284 C286 1.412 . S
C285 H277 0.930 . S
C285 C284 1.355 . S
C285 C288 1.402 . S
C286 C284 1.412 . S
C286 C287 1.417 . S
C286 C310 1.431 . S
C287 N283 1.350 . S
C287 C286 1.417 . S
C287 C290 1.426 . S
C288 H271 0.930 . S
C288 N283 1.307 . S
C288 C285 1.402 . S
N289 Gd252 2.601 . S
N289 C290 1.359 . S
N289 C293 1.334 . S
C290 C287 1.426 . S
C290 N289 1.359 . S
C290 C294 1.413 . S
C291 H282 0.930 . S
C291 C292 1.359 . S
C291 C293 1.394 . S
C292 C291 1.359 . S
C292 C294 1.391 . S
C292 H295 0.929 . S
C293 H275 0.930 . S
C293 N289 1.334 . S
C293 C291 1.394 . S
C294 C290 1.413 . S
C294 C292 1.391 . S
C294 C309 1.437 . S
H295 C292 0.929 . S
O296 Gd252 2.545 . S
O296 C311 1.258 . S
O297 Gd252 2.606 . S
O297 Gd253 2.362 . S
O297 C308 1.284 . S
O298 Gd253 2.324 . S
O298 C318 1.254 . S
O299 Gd252 2.429 . S
O299 C318 1.268 . S
O300 Gd252 2.545 . S
O300 C308 1.250 . S
O301 Gd252 2.412 . S
O301 C311 1.252 . S
O302 Gd253 2.545 . S
O302 C320 1.258 1_545 S
O303 Gd252 2.362 . S
O303 Gd253 2.606 . S
O303 C319 1.284 . S
O304 Gd252 2.324 . S
O304 C327 1.254 . S
O305 Gd253 2.429 . S
O305 C327 1.268 . S
O306 Gd253 2.545 . S
O306 C319 1.250 . S
O307 Gd253 2.412 . S
O307 C320 1.252 1_545 S
C308 O297 1.284 . S
C308 O300 1.250 . S
C309 H278 0.929 . S
C309 C294 1.437 . S
C309 C310 1.317 . S
C310 H281 0.930 . S
C310 C286 1.431 . S
C310 C309 1.317 . S
C311 Gd252 2.828 . S
C311 O296 1.258 . S
C311 O301 1.252 . S
C311 C312 1.497 . S
C312 C311 1.497 . S
C312 C313 1.395 . S
C312 C314 1.380 . S
C313 C312 1.395 . S
C313 C316 1.398 . S
C313 H328 0.930 . S
C314 C312 1.380 . S
C314 C315 1.391 . S
C314 H329 0.930 . S
C315 C314 1.391 . S
C315 C317 1.387 . S
C316 C313 1.398 . S
C316 C317 1.380 . S
C316 H330 0.930 . S
C317 C315 1.387 . S
C317 C316 1.380 . S
C317 H331 0.930 . S
C318 O298 1.254 . S
C318 O299 1.268 . S
C319 O303 1.284 . S
C319 O306 1.250 . S
C320 Gd253 2.828 1_565 S
C320 O302 1.258 1_565 S
C320 O307 1.252 1_565 S
C320 C321 1.497 . S
C321 C320 1.497 . S
C321 C322 1.395 . S
C321 C323 1.380 . S
C322 C321 1.395 . S
C322 C325 1.398 . S
C322 H332 0.930 . S
C323 C321 1.380 . S
C323 C324 1.391 . S
C323 H333 0.930 . S
C324 C323 1.391 . S
C324 C326 1.387 . S
C325 C322 1.398 . S
C325 C326 1.380 . S
C325 H334 0.930 . S
C326 C324 1.387 . S
C326 C325 1.380 . S
C326 H335 0.930 . S
C327 O304 1.254 . S
C327 O305 1.268 . S
H328 C313 0.930 . S
H329 C314 0.930 . S
H330 C316 0.930 . S
H331 C317 0.930 . S
H332 C322 0.930 . S
H333 C323 0.930 . S
H334 C325 0.930 . S
H335 C326 0.930 . S
Gd336 N367 2.661 . S
Gd336 N373 2.601 . S
Gd336 O380 2.545 . S
Gd336 O381 2.606 . S
Gd336 O383 2.429 . S
Gd336 O384 2.545 . S
Gd336 O385 2.412 . S
Gd336 O387 2.362 . S
Gd336 O388 2.324 . S
Gd336 C395 2.828 . S
Gd337 N346 2.661 . S
Gd337 N350 2.601 . S
Gd337 O381 2.362 . S
Gd337 O382 2.324 . S
Gd337 O386 2.545 . S
Gd337 O387 2.606 . S
Gd337 O389 2.429 . S
Gd337 O390 2.545 . S
Gd337 O391 2.412 . S
Gd337 C404 2.828 . S
C338 C341 1.417 1_455 S
C338 C343 1.431 . S
C338 C344 1.412 . S
C339 C342 1.437 1_455 S
C339 C343 1.317 . S
C339 H358 0.929 . S
C340 C341 1.426 . S
C340 C342 1.413 . S
C340 N350 1.359 . S
C341 C338 1.417 1_655 S
C341 C340 1.426 . S
C341 N346 1.350 . S
C342 C339 1.437 1_655 S
C342 C340 1.413 . S
C342 C352 1.391 1_554 S
C343 C338 1.431 . S
C343 C339 1.317 . S
C343 H354 0.930 . S
C344 C338 1.412 . S
C344 C345 1.355 . S
C344 H356 0.930 . S
C345 C344 1.355 . S
C345 C347 1.402 1_455 S
C345 H357 0.930 . S
N346 Gd337 2.661 . S
N346 C341 1.350 . S
N346 C347 1.307 . S
C347 C345 1.402 1_655 S
C347 N346 1.307 . S
C347 H348 0.930 . S
H348 C347 0.930 . S
C349 N350 1.334 . S
C349 C351 1.394 1_554 S
C349 H353 0.930 . S
N350 Gd337 2.601 . S
N350 C340 1.359 . S
N350 C349 1.334 . S
C351 C349 1.394 1_556 S
C351 C352 1.359 . S
C351 H363 0.930 . S
C352 C342 1.391 1_556 S
C352 C351 1.359 . S
C352 H364 0.929 . S
H353 C349 0.930 . S
H354 C343 0.930 . S
H355 C372 0.930 . S
H356 C344 0.930 . S
H357 C345 0.930 . S
H358 C339 0.929 . S
H359 C377 0.930 . S
H360 C368 0.930 . S
H361 C369 0.930 . S
H362 C393 0.929 . S
H363 C351 0.930 . S
H364 C352 0.929 . S
H365 C394 0.930 . S
H366 C375 0.930 . S
N367 Gd336 2.661 . S
N367 C371 1.350 . S
N367 C372 1.307 . S
C368 H360 0.930 . S
C368 C369 1.355 . S
C368 C370 1.412 . S
C369 H361 0.930 . S
C369 C368 1.355 . S
C369 C372 1.402 . S
C370 C368 1.412 . S
C370 C371 1.417 . S
C370 C394 1.431 . S
C371 N367 1.350 . S
C371 C370 1.417 . S
C371 C374 1.426 . S
C372 H355 0.930 . S
C372 N367 1.307 . S
C372 C369 1.402 . S
N373 Gd336 2.601 . S
N373 C374 1.359 . S
N373 C377 1.334 . S
C374 C371 1.426 . S
C374 N373 1.359 . S
C374 C378 1.413 . S
C375 H366 0.930 . S
C375 C376 1.359 . S
C375 C377 1.394 . S
C376 C375 1.359 . S
C376 C378 1.391 . S
C376 H379 0.929 . S
C377 H359 0.930 . S
C377 N373 1.334 . S
C377 C375 1.394 . S
C378 C374 1.413 . S
C378 C376 1.391 . S
C378 C393 1.437 . S
H379 C376 0.929 . S
O380 Gd336 2.545 . S
O380 C395 1.258 . S
O381 Gd336 2.606 . S
O381 Gd337 2.362 . S
O381 C392 1.284 . S
O382 Gd337 2.324 . S
O382 C402 1.254 . S
O383 Gd336 2.429 . S
O383 C402 1.268 . S
O384 Gd336 2.545 . S
O384 C392 1.250 . S
O385 Gd336 2.412 . S
O385 C395 1.252 . S
O386 Gd337 2.545 . S
O386 C404 1.258 . S
O387 Gd336 2.362 . S
O387 Gd337 2.606 . S
O387 C403 1.284 . S
O388 Gd336 2.324 . S
O388 C411 1.254 . S
O389 Gd337 2.429 . S
O389 C411 1.268 . S
O390 Gd337 2.545 . S
O390 C403 1.250 . S
O391 Gd337 2.412 . S
O391 C404 1.252 . S
C392 O381 1.284 . S
C392 O384 1.250 . S
C393 H362 0.929 . S
C393 C378 1.437 . S
C393 C394 1.317 . S
C394 H365 0.930 . S
C394 C370 1.431 . S
C394 C393 1.317 . S
C395 Gd336 2.828 . S
C395 O380 1.258 . S
C395 O385 1.252 . S
C395 C396 1.497 . S
C396 C395 1.497 . S
C396 C397 1.395 . S
C396 C398 1.380 . S
C397 C396 1.395 . S
C397 C400 1.398 . S
C397 H412 0.930 . S
C398 C396 1.380 . S
C398 C399 1.391 . S
C398 H413 0.930 . S
C399 C398 1.391 . S
C399 C401 1.387 . S
C400 C397 1.398 . S
C400 C401 1.380 . S
C400 H414 0.930 . S
C401 C399 1.387 . S
C401 C400 1.380 . S
C401 H415 0.930 . S
C402 O382 1.254 . S
C402 O383 1.268 . S
C403 O387 1.284 . S
C403 O390 1.250 . S
C404 Gd337 2.828 . S
C404 O386 1.258 . S
C404 O391 1.252 . S
C404 C405 1.497 . S
C405 C404 1.497 . S
C405 C406 1.395 . S
C405 C407 1.380 . S
C406 C405 1.395 . S
C406 C409 1.398 . S
C406 H416 0.930 . S
C407 C405 1.380 . S
C407 C408 1.391 . S
C407 H417 0.930 . S
C408 C407 1.391 . S
C408 C410 1.387 . S
C409 C406 1.398 . S
C409 C410 1.380 . S
C409 H418 0.930 . S
C410 C408 1.387 . S
C410 C409 1.380 . S
C410 H419 0.930 . S
C411 O388 1.254 . S
C411 O389 1.268 . S
H412 C397 0.930 . S
H413 C398 0.930 . S
H414 C400 0.930 . S
H415 C401 0.930 . S
H416 C406 0.930 . S
H417 C407 0.930 . S
H418 C409 0.930 . S
H419 C410 0.930 . S
Gd420 N451 2.661 . S
Gd420 N457 2.601 . S
Gd420 O464 2.545 . S
Gd420 O465 2.606 . S
Gd420 O467 2.429 . S
Gd420 O468 2.545 . S
Gd420 O469 2.412 . S
Gd420 O471 2.362 . S
Gd420 O472 2.324 . S
Gd420 C479 2.828 . S
Gd421 N430 2.661 . S
Gd421 N434 2.601 . S
Gd421 O465 2.362 . S
Gd421 O466 2.324 . S
Gd421 O470 2.545 . S
Gd421 O471 2.606 . S
Gd421 O473 2.429 . S
Gd421 O474 2.545 . S
Gd421 O475 2.412 . S
Gd421 C488 2.828 1_655 S
C422 C425 1.417 1_455 S
C422 C427 1.431 . S
C422 C428 1.412 . S
C423 C426 1.437 . S
C423 C427 1.317 . S
C423 H442 0.929 . S
C424 C425 1.426 . S
C424 C426 1.413 1_655 S
C424 N434 1.359 . S
C425 C422 1.417 1_655 S
C425 C424 1.426 . S
C425 N430 1.350 . S
C426 C423 1.437 . S
C426 C424 1.413 1_455 S
C426 C436 1.391 1_455 S
C427 C422 1.431 . S
C427 C423 1.317 . S
C427 H438 0.930 . S
C428 C422 1.412 . S
C428 C429 1.355 1_455 S
C428 H440 0.930 . S
C429 C428 1.355 1_655 S
C429 C431 1.402 . S
C429 H441 0.930 . S
N430 Gd421 2.661 . S
N430 C425 1.350 . S
N430 C431 1.307 . S
C431 C429 1.402 . S
C431 N430 1.307 . S
C431 H432 0.930 . S
H432 C431 0.930 . S
C433 N434 1.334 . S
C433 C435 1.394 . S
C433 H437 0.930 . S
N434 Gd421 2.601 . S
N434 C424 1.359 . S
N434 C433 1.334 . S
C435 C433 1.394 . S
C435 C436 1.359 . S
C435 H447 0.930 . S
C436 C426 1.391 1_655 S
C436 C435 1.359 . S
C436 H448 0.929 1_655 S
H437 C433 0.930 . S
H438 C427 0.930 . S
H439 C456 0.930 . S
H440 C428 0.930 . S
H441 C429 0.930 . S
H442 C423 0.929 . S
H443 C461 0.930 . S
H444 C452 0.930 . S
H445 C453 0.930 . S
H446 C477 0.929 . S
H447 C435 0.930 . S
H448 C436 0.929 1_455 S
H449 C478 0.930 . S
H450 C459 0.930 . S
N451 Gd420 2.661 . S
N451 C455 1.350 . S
N451 C456 1.307 . S
C452 H444 0.930 . S
C452 C453 1.355 . S
C452 C454 1.412 . S
C453 H445 0.930 . S
C453 C452 1.355 . S
C453 C456 1.402 1_565 S
C454 C452 1.412 . S
C454 C455 1.417 1_565 S
C454 C478 1.431 . S
C455 N451 1.350 . S
C455 C454 1.417 1_545 S
C455 C458 1.426 . S
C456 H439 0.930 . S
C456 N451 1.307 . S
C456 C453 1.402 1_545 S
N457 Gd420 2.601 . S
N457 C458 1.359 . S
N457 C461 1.334 . S
C458 C455 1.426 . S
C458 N457 1.359 . S
C458 C462 1.413 . S
C459 H450 0.930 . S
C459 C460 1.359 . S
C459 C461 1.394 . S
C460 C459 1.359 . S
C460 C462 1.391 . S
C460 H463 0.929 . S
C461 H443 0.930 . S
C461 N457 1.334 . S
C461 C459 1.394 . S
C462 C458 1.413 . S
C462 C460 1.391 . S
C462 C477 1.437 1_545 S
H463 C460 0.929 . S
O464 Gd420 2.545 . S
O464 C479 1.258 . S
O465 Gd420 2.606 . S
O465 Gd421 2.362 . S
O465 C476 1.284 . S
O466 Gd421 2.324 . S
O466 C486 1.254 . S
O467 Gd420 2.429 . S
O467 C486 1.268 . S
O468 Gd420 2.545 . S
O468 C476 1.250 . S
O469 Gd420 2.412 . S
O469 C479 1.252 . S
O470 Gd421 2.545 . S
O470 C488 1.258 1_655 S
O471 Gd420 2.362 . S
O471 Gd421 2.606 . S
O471 C487 1.284 . S
O472 Gd420 2.324 . S
O472 C495 1.254 . S
O473 Gd421 2.429 . S
O473 C495 1.268 . S
O474 Gd421 2.545 . S
O474 C487 1.250 . S
O475 Gd421 2.412 . S
O475 C488 1.252 1_655 S
C476 O465 1.284 . S
C476 O468 1.250 . S
C477 H446 0.929 . S
C477 C462 1.437 1_565 S
C477 C478 1.317 . S
C478 H449 0.930 . S
C478 C454 1.431 . S
C478 C477 1.317 . S
C479 Gd420 2.828 . S
C479 O464 1.258 . S
C479 O469 1.252 . S
C479 C480 1.497 . S
C480 C479 1.497 . S
C480 C481 1.395 . S
C480 C482 1.380 . S
C481 C480 1.395 . S
C481 C484 1.398 . S
C481 H496 0.930 . S
C482 C480 1.380 . S
C482 C483 1.391 . S
C482 H497 0.930 . S
C483 C482 1.391 . S
C483 C485 1.387 . S
C484 C481 1.398 . S
C484 C485 1.380 . S
C484 H498 0.930 . S
C485 C483 1.387 . S
C485 C484 1.380 . S
C485 H499 0.930 . S
C486 O466 1.254 . S
C486 O467 1.268 . S
C487 O471 1.284 . S
C487 O474 1.250 . S
C488 Gd421 2.828 1_455 S
C488 O470 1.258 1_455 S
C488 O475 1.252 1_455 S
C488 C489 1.497 . S
C489 C488 1.497 . S
C489 C490 1.395 . S
C489 C491 1.380 . S
C490 C489 1.395 . S
C490 C493 1.398 . S
C490 H500 0.930 . S
C491 C489 1.380 . S
C491 C492 1.391 . S
C491 H501 0.930 . S
C492 C491 1.391 . S
C492 C494 1.387 . S
C493 C490 1.398 . S
C493 C494 1.380 . S
C493 H502 0.930 . S
C494 C492 1.387 . S
C494 C493 1.380 . S
C494 H503 0.930 . S
C495 O472 1.254 . S
C495 O473 1.268 . S
H496 C481 0.930 . S
H497 C482 0.930 . S
H498 C484 0.930 . S
H499 C485 0.930 . S
H500 C490 0.930 . S
H501 C491 0.930 . S
H502 C493 0.930 . S
H503 C494 0.930 . S
Gd504 N535 2.661 . S
Gd504 N541 2.601 . S
Gd504 O548 2.545 . S
Gd504 O549 2.606 . S
Gd504 O551 2.429 . S
Gd504 O552 2.545 . S
Gd504 O553 2.412 . S
Gd504 O555 2.362 . S
Gd504 O556 2.324 . S
Gd504 C563 2.828 . S
Gd505 N514 2.661 . S
Gd505 N518 2.601 . S
Gd505 O549 2.362 . S
Gd505 O550 2.324 . S
Gd505 O554 2.545 . S
Gd505 O555 2.606 . S
Gd505 O557 2.429 . S
Gd505 O558 2.545 . S
Gd505 O559 2.412 . S
Gd505 C572 2.828 1_455 S
C506 C509 1.417 1_655 S
C506 C511 1.431 . S
C506 C512 1.412 . S
C507 C510 1.437 . S
C507 C511 1.317 . S
C507 H526 0.929 . S
C508 C509 1.426 . S
C508 C510 1.413 1_455 S
C508 N518 1.359 . S
C509 C506 1.417 1_455 S
C509 C508 1.426 . S
C509 N514 1.350 . S
C510 C507 1.437 . S
C510 C508 1.413 1_655 S
C510 C520 1.391 1_655 S
C511 C506 1.431 . S
C511 C507 1.317 . S
C511 H522 0.930 . S
C512 C506 1.412 . S
C512 C513 1.355 1_655 S
C512 H524 0.930 . S
C513 C512 1.355 1_455 S
C513 C515 1.402 . S
C513 H525 0.930 . S
N514 Gd505 2.661 . S
N514 C509 1.350 . S
N514 C515 1.307 . S
C515 C513 1.402 . S
C515 N514 1.307 . S
C515 H516 0.930 . S
H516 C515 0.930 . S
C517 N518 1.334 . S
C517 C519 1.394 . S
C517 H521 0.930 . S
N518 Gd505 2.601 . S
N518 C508 1.359 . S
N518 C517 1.334 . S
C519 C517 1.394 . S
C519 C520 1.359 . S
C519 H531 0.930 . S
C520 C510 1.391 1_455 S
C520 C519 1.359 . S
C520 H532 0.929 1_455 S
H521 C517 0.930 . S
H522 C511 0.930 . S
H523 C540 0.930 . S
H524 C512 0.930 . S
H525 C513 0.930 . S
H526 C507 0.929 . S
H527 C545 0.930 . S
H528 C536 0.930 . S
H529 C537 0.930 . S
H530 C561 0.929 . S
H531 C519 0.930 . S
H532 C520 0.929 1_655 S
H533 C562 0.930 . S
H534 C543 0.930 . S
N535 Gd504 2.661 . S
N535 C539 1.350 . S
N535 C540 1.307 . S
C536 H528 0.930 . S
C536 C537 1.355 . S
C536 C538 1.412 . S
C537 H529 0.930 . S
C537 C536 1.355 . S
C537 C540 1.402 . S
C538 C536 1.412 . S
C538 C539 1.417 . S
C538 C562 1.431 . S
C539 N535 1.350 . S
C539 C538 1.417 . S
C539 C542 1.426 . S
C540 H523 0.930 . S
C540 N535 1.307 . S
C540 C537 1.402 . S
N541 Gd504 2.601 . S
N541 C542 1.359 . S
N541 C545 1.334 . S
C542 C539 1.426 . S
C542 N541 1.359 . S
C542 C546 1.413 . S
C543 H534 0.930 . S
C543 C544 1.359 . S
C543 C545 1.394 . S
C544 C543 1.359 . S
C544 C546 1.391 . S
C544 H547 0.929 . S
C545 H527 0.930 . S
C545 N541 1.334 . S
C545 C543 1.394 . S
C546 C542 1.413 . S
C546 C544 1.391 . S
C546 C561 1.437 . S
H547 C544 0.929 . S
O548 Gd504 2.545 . S
O548 C563 1.258 . S
O549 Gd504 2.606 . S
O549 Gd505 2.362 . S
O549 C560 1.284 . S
O550 Gd505 2.324 . S
O550 C570 1.254 . S
O551 Gd504 2.429 . S
O551 C570 1.268 . S
O552 Gd504 2.545 . S
O552 C560 1.250 . S
O553 Gd504 2.412 . S
O553 C563 1.252 . S
O554 Gd505 2.545 . S
O554 C572 1.258 1_455 S
O555 Gd504 2.362 . S
O555 Gd505 2.606 . S
O555 C571 1.284 . S
O556 Gd504 2.324 . S
O556 C579 1.254 . S
O557 Gd505 2.429 . S
O557 C579 1.268 . S
O558 Gd505 2.545 . S
O558 C571 1.250 . S
O559 Gd505 2.412 . S
O559 C572 1.252 1_455 S
C560 O549 1.284 . S
C560 O552 1.250 . S
C561 H530 0.929 . S
C561 C546 1.437 . S
C561 C562 1.317 . S
C562 H533 0.930 . S
C562 C538 1.431 . S
C562 C561 1.317 . S
C563 Gd504 2.828 . S
C563 O548 1.258 . S
C563 O553 1.252 . S
C563 C564 1.497 . S
C564 C563 1.497 . S
C564 C565 1.395 . S
C564 C566 1.380 . S
C565 C564 1.395 . S
C565 C568 1.398 . S
C565 H580 0.930 . S
C566 C564 1.380 . S
C566 C567 1.391 . S
C566 H581 0.930 . S
C567 C566 1.391 . S
C567 C569 1.387 . S
C568 C565 1.398 . S
C568 C569 1.380 . S
C568 H582 0.930 . S
C569 C567 1.387 . S
C569 C568 1.380 . S
C569 H583 0.930 . S
C570 O550 1.254 . S
C570 O551 1.268 . S
C571 O555 1.284 . S
C571 O558 1.250 . S
C572 Gd505 2.828 1_655 S
C572 O554 1.258 1_655 S
C572 O559 1.252 1_655 S
C572 C573 1.497 . S
C573 C572 1.497 . S
C573 C574 1.395 . S
C573 C575 1.380 . S
C574 C573 1.395 . S
C574 C577 1.398 . S
C574 H584 0.930 . S
C575 C573 1.380 . S
C575 C576 1.391 . S
C575 H585 0.930 . S
C576 C575 1.391 . S
C576 C578 1.387 . S
C577 C574 1.398 . S
C577 C578 1.380 . S
C577 H586 0.930 . S
C578 C576 1.387 . S
C578 C577 1.380 . S
C578 H587 0.930 . S
C579 O556 1.254 . S
C579 O557 1.268 . S
H580 C565 0.930 . S
H581 C566 0.930 . S
H582 C568 0.930 . S
H583 C569 0.930 . S
H584 C574 0.930 . S
H585 C575 0.930 . S
H586 C577 0.930 . S
H587 C578 0.930 . S
Gd588 N619 2.661 . S
Gd588 N625 2.601 . S
Gd588 O632 2.545 . S
Gd588 O633 2.606 . S
Gd588 O635 2.429 . S
Gd588 O636 2.545 . S
Gd588 O637 2.412 . S
Gd588 O639 2.362 . S
Gd588 O640 2.324 . S
Gd588 C647 2.828 1_565 S
Gd589 N598 2.661 . S
Gd589 N602 2.601 . S
Gd589 O633 2.362 . S
Gd589 O634 2.324 . S
Gd589 O638 2.545 . S
Gd589 O639 2.606 . S
Gd589 O641 2.429 . S
Gd589 O642 2.545 . S
Gd589 O643 2.412 . S
Gd589 C656 2.828 . S
C590 C593 1.417 1_655 S
C590 C595 1.431 . S
C590 C596 1.412 . S
C591 C594 1.437 1_655 S
C591 C595 1.317 . S
C591 H610 0.929 . S
C592 C593 1.426 . S
C592 C594 1.413 . S
C592 N602 1.359 . S
C593 C590 1.417 1_455 S
C593 C592 1.426 . S
C593 N598 1.350 . S
C594 C591 1.437 1_455 S
C594 C592 1.413 . S
C594 C604 1.391 1_556 S
C595 C590 1.431 . S
C595 C591 1.317 . S
C595 H606 0.930 . S
C596 C590 1.412 . S
C596 C597 1.355 . S
C596 H608 0.930 . S
C597 C596 1.355 . S
C597 C599 1.402 1_655 S
C597 H609 0.930 . S
N598 Gd589 2.661 . S
N598 C593 1.350 . S
N598 C599 1.307 . S
C599 C597 1.402 1_455 S
C599 N598 1.307 . S
C599 H600 0.930 . S
H600 C599 0.930 . S
C601 N602 1.334 . S
C601 C603 1.394 1_556 S
C601 H605 0.930 . S
N602 Gd589 2.601 . S
N602 C592 1.359 . S
N602 C601 1.334 . S
C603 C601 1.394 1_554 S
C603 C604 1.359 . S
C603 H615 0.930 . S
C604 C594 1.391 1_554 S
C604 C603 1.359 . S
C604 H616 0.929 . S
H605 C601 0.930 . S
H606 C595 0.930 . S
H607 C624 0.930 . S
H608 C596 0.930 . S
H609 C597 0.930 . S
H610 C591 0.929 . S
H611 C629 0.930 . S
H612 C620 0.930 . S
H613 C621 0.930 . S
H614 C645 0.929 . S
H615 C603 0.930 . S
H616 C604 0.929 . S
H617 C646 0.930 . S
H618 C627 0.930 . S
N619 Gd588 2.661 . S
N619 C623 1.350 . S
N619 C624 1.307 . S
C620 H612 0.930 . S
C620 C621 1.355 1_545 S
C620 C622 1.412 . S
C621 H613 0.930 . S
C621 C620 1.355 1_565 S
C621 C624 1.402 . S
C622 C620 1.412 . S
C622 C623 1.417 1_545 S
C622 C646 1.431 . S
C623 N619 1.350 . S
C623 C622 1.417 1_565 S
C623 C626 1.426 . S
C624 H607 0.930 . S
C624 N619 1.307 . S
C624 C621 1.402 . S
N625 Gd588 2.601 . S
N625 C626 1.359 . S
N625 C629 1.334 . S
C626 C623 1.426 . S
C626 N625 1.359 . S
C626 C630 1.413 1_565 S
C627 H618 0.930 . S
C627 C628 1.359 . S
C627 C629 1.394 . S
C628 C627 1.359 . S
C628 C630 1.391 1_565 S
C628 H631 0.929 1_565 S
C629 H611 0.930 . S
C629 N625 1.334 . S
C629 C627 1.394 . S
C630 C626 1.413 1_545 S
C630 C628 1.391 1_545 S
C630 C645 1.437 . S
H631 C628 0.929 1_545 S
O632 Gd588 2.545 . S
O632 C647 1.258 1_565 S
O633 Gd588 2.606 . S
O633 Gd589 2.362 . S
O633 C644 1.284 . S
O634 Gd589 2.324 . S
O634 C654 1.254 . S
O635 Gd588 2.429 . S
O635 C654 1.268 . S
O636 Gd588 2.545 . S
O636 C644 1.250 . S
O637 Gd588 2.412 . S
O637 C647 1.252 1_565 S
O638 Gd589 2.545 . S
O638 C656 1.258 . S
O639 Gd588 2.362 . S
O639 Gd589 2.606 . S
O639 C655 1.284 . S
O640 Gd588 2.324 . S
O640 C663 1.254 . S
O641 Gd589 2.429 . S
O641 C663 1.268 . S
O642 Gd589 2.545 . S
O642 C655 1.250 . S
O643 Gd589 2.412 . S
O643 C656 1.252 . S
C644 O633 1.284 . S
C644 O636 1.250 . S
C645 H614 0.929 . S
C645 C630 1.437 . S
C645 C646 1.317 . S
C646 H617 0.930 . S
C646 C622 1.431 . S
C646 C645 1.317 . S
C647 Gd588 2.828 1_545 S
C647 O632 1.258 1_545 S
C647 O637 1.252 1_545 S
C647 C648 1.497 . S
C648 C647 1.497 . S
C648 C649 1.395 . S
C648 C650 1.380 . S
C649 C648 1.395 . S
C649 C652 1.398 . S
C649 H664 0.930 . S
C650 C648 1.380 . S
C650 C651 1.391 . S
C650 H665 0.930 . S
C651 C650 1.391 . S
C651 C653 1.387 . S
C652 C649 1.398 . S
C652 C653 1.380 . S
C652 H666 0.930 . S
C653 C651 1.387 . S
C653 C652 1.380 . S
C653 H667 0.930 . S
C654 O634 1.254 . S
C654 O635 1.268 . S
C655 O639 1.284 . S
C655 O642 1.250 . S
C656 Gd589 2.828 . S
C656 O638 1.258 . S
C656 O643 1.252 . S
C656 C657 1.497 . S
C657 C656 1.497 . S
C657 C658 1.395 . S
C657 C659 1.380 . S
C658 C657 1.395 . S
C658 C661 1.398 . S
C658 H668 0.930 . S
C659 C657 1.380 . S
C659 C660 1.391 . S
C659 H669 0.930 . S
C660 C659 1.391 . S
C660 C662 1.387 . S
C661 C658 1.398 . S
C661 C662 1.380 . S
C661 H670 0.930 . S
C662 C660 1.387 . S
C662 C661 1.380 . S
C662 H671 0.930 . S
C663 O640 1.254 . S
C663 O641 1.268 . S
H664 C649 0.930 . S
H665 C650 0.930 . S
H666 C652 0.930 . S
H667 C653 0.930 . S
H668 C658 0.930 . S
H669 C659 0.930 . S
H670 C661 0.930 . S
H671 C662 0.930 . S
Gd672 N703 2.661 . S
Gd672 N709 2.601 . S
Gd672 O716 2.545 . S
Gd672 O717 2.606 . S
Gd672 O719 2.429 . S
Gd672 O720 2.545 . S
Gd672 O721 2.412 . S
Gd672 O723 2.362 . S
Gd672 O724 2.324 . S
Gd672 C731 2.828 . S
Gd673 N682 2.661 . S
Gd673 N686 2.601 . S
Gd673 O717 2.362 . S
Gd673 O718 2.324 . S
Gd673 O722 2.545 . S
Gd673 O723 2.606 . S
Gd673 O725 2.429 . S
Gd673 O726 2.545 . S
Gd673 O727 2.412 . S
Gd673 C740 2.828 . S
C674 C677 1.417 . S
C674 C679 1.431 . S
C674 C680 1.412 . S
C675 C678 1.437 . S
C675 C679 1.317 . S
C675 H694 0.929 . S
C676 C677 1.426 . S
C676 C678 1.413 . S
C676 N686 1.359 . S
C677 C674 1.417 . S
C677 C676 1.426 . S
C677 N682 1.350 . S
C678 C675 1.437 . S
C678 C676 1.413 . S
C678 C688 1.391 . S
C679 C674 1.431 . S
C679 C675 1.317 . S
C679 H690 0.930 . S
C680 C674 1.412 . S
C680 C681 1.355 . S
C680 H692 0.930 . S
C681 C680 1.355 . S
C681 C683 1.402 . S
C681 H693 0.930 . S
N682 Gd673 2.661 . S
N682 C677 1.350 . S
N682 C683 1.307 . S
C683 C681 1.402 . S
C683 N682 1.307 . S
C683 H684 0.930 . S
H684 C683 0.930 . S
C685 N686 1.334 . S
C685 C687 1.394 . S
C685 H689 0.930 . S
N686 Gd673 2.601 . S
N686 C676 1.359 . S
N686 C685 1.334 . S
C687 C685 1.394 . S
C687 C688 1.359 . S
C687 H699 0.930 . S
C688 C678 1.391 . S
C688 C687 1.359 . S
C688 H700 0.929 . S
H689 C685 0.930 . S
H690 C679 0.930 . S
H691 C708 0.930 . S
H692 C680 0.930 . S
H693 C681 0.930 . S
H694 C675 0.929 . S
H695 C713 0.930 . S
H696 C704 0.930 . S
H697 C705 0.930 . S
H698 C729 0.929 . S
H699 C687 0.930 . S
H700 C688 0.929 . S
H701 C730 0.930 . S
H702 C711 0.930 . S
N703 Gd672 2.661 . S
N703 C707 1.350 . S
N703 C708 1.307 . S
C704 H696 0.930 . S
C704 C705 1.355 . S
C704 C706 1.412 . S
C705 H697 0.930 . S
C705 C704 1.355 . S
C705 C708 1.402 1_545 S
C706 C704 1.412 . S
C706 C707 1.417 1_545 S
C706 C730 1.431 . S
C707 N703 1.350 . S
C707 C706 1.417 1_565 S
C707 C710 1.426 . S
C708 H691 0.930 . S
C708 N703 1.307 . S
C708 C705 1.402 1_565 S
N709 Gd672 2.601 . S
N709 C710 1.359 . S
N709 C713 1.334 . S
C710 C707 1.426 . S
C710 N709 1.359 . S
C710 C714 1.413 . S
C711 H702 0.930 . S
C711 C712 1.359 . S
C711 C713 1.394 . S
C712 C711 1.359 . S
C712 C714 1.391 . S
C712 H715 0.929 . S
C713 H695 0.930 . S
C713 N709 1.334 . S
C713 C711 1.394 . S
C714 C710 1.413 . S
C714 C712 1.391 . S
C714 C729 1.437 1_565 S
H715 C712 0.929 . S
O716 Gd672 2.545 . S
O716 C731 1.258 . S
O717 Gd672 2.606 . S
O717 Gd673 2.362 . S
O717 C728 1.284 . S
O718 Gd673 2.324 . S
O718 C738 1.254 . S
O719 Gd672 2.429 . S
O719 C738 1.268 . S
O720 Gd672 2.545 . S
O720 C728 1.250 . S
O721 Gd672 2.412 . S
O721 C731 1.252 . S
O722 Gd673 2.545 . S
O722 C740 1.258 . S
O723 Gd672 2.362 . S
O723 Gd673 2.606 . S
O723 C739 1.284 . S
O724 Gd672 2.324 . S
O724 C747 1.254 . S
O725 Gd673 2.429 . S
O725 C747 1.268 . S
O726 Gd673 2.545 . S
O726 C739 1.250 . S
O727 Gd673 2.412 . S
O727 C740 1.252 . S
C728 O717 1.284 . S
C728 O720 1.250 . S
C729 H698 0.929 . S
C729 C714 1.437 1_545 S
C729 C730 1.317 . S
C730 H701 0.930 . S
C730 C706 1.431 . S
C730 C729 1.317 . S
C731 Gd672 2.828 . S
C731 O716 1.258 . S
C731 O721 1.252 . S
C731 C732 1.497 . S
C732 C731 1.497 . S
C732 C733 1.395 . S
C732 C734 1.380 . S
C733 C732 1.395 . S
C733 C736 1.398 . S
C733 H748 0.930 . S
C734 C732 1.380 . S
C734 C735 1.391 . S
C734 H749 0.930 . S
C735 C734 1.391 . S
C735 C737 1.387 . S
C736 C733 1.398 . S
C736 C737 1.380 . S
C736 H750 0.930 . S
C737 C735 1.387 . S
C737 C736 1.380 . S
C737 H751 0.930 . S
C738 O718 1.254 . S
C738 O719 1.268 . S
C739 O723 1.284 . S
C739 O726 1.250 . S
C740 Gd673 2.828 . S
C740 O722 1.258 . S
C740 O727 1.252 . S
C740 C741 1.497 . S
C741 C740 1.497 . S
C741 C742 1.395 . S
C741 C743 1.380 . S
C742 C741 1.395 . S
C742 C745 1.398 . S
C742 H752 0.930 . S
C743 C741 1.380 . S
C743 C744 1.391 . S
C743 H753 0.930 . S
C744 C743 1.391 . S
C744 C746 1.387 . S
C745 C742 1.398 . S
C745 C746 1.380 . S
C745 H754 0.930 . S
C746 C744 1.387 . S
C746 C745 1.380 . S
C746 H755 0.930 . S
C747 O724 1.254 . S
C747 O725 1.268 . S
H748 C733 0.930 . S
H749 C734 0.930 . S
H750 C736 0.930 . S
H751 C737 0.930 . S
H752 C742 0.930 . S
H753 C743 0.930 . S
H754 C745 0.930 . S
H755 C746 0.930 . S
Gd756 N787 2.661 . S
Gd756 N793 2.601 . S
Gd756 O800 2.545 . S
Gd756 O801 2.606 . S
Gd756 O803 2.429 . S
Gd756 O804 2.545 . S
Gd756 O805 2.412 . S
Gd756 O807 2.362 . S
Gd756 O808 2.324 . S
Gd756 C815 2.828 1_455 S
Gd757 N766 2.661 . S
Gd757 N770 2.601 . S
Gd757 O801 2.362 . S
Gd757 O802 2.324 . S
Gd757 O806 2.545 . S
Gd757 O807 2.606 . S
Gd757 O809 2.429 . S
Gd757 O810 2.545 . S
Gd757 O811 2.412 . S
Gd757 C824 2.828 . S
C758 C761 1.417 . S
C758 C763 1.431 . S
C758 C764 1.412 . S
C759 C762 1.437 . S
C759 C763 1.317 . S
C759 H778 0.929 . S
C760 C761 1.426 . S
C760 C762 1.413 . S
C760 N770 1.359 . S
C761 C758 1.417 . S
C761 C760 1.426 . S
C761 N766 1.350 . S
C762 C759 1.437 . S
C762 C760 1.413 . S
C762 C772 1.391 1_556 S
C763 C758 1.431 . S
C763 C759 1.317 . S
C763 H774 0.930 . S
C764 C758 1.412 . S
C764 C765 1.355 . S
C764 H776 0.930 . S
C765 C764 1.355 . S
C765 C767 1.402 . S
C765 H777 0.930 . S
N766 Gd757 2.661 . S
N766 C761 1.350 . S
N766 C767 1.307 . S
C767 C765 1.402 . S
C767 N766 1.307 . S
C767 H768 0.930 . S
H768 C767 0.930 . S
C769 N770 1.334 . S
C769 C771 1.394 1_556 S
C769 H773 0.930 . S
N770 Gd757 2.601 . S
N770 C760 1.359 . S
N770 C769 1.334 . S
C771 C769 1.394 1_554 S
C771 C772 1.359 . S
C771 H783 0.930 . S
C772 C762 1.391 1_554 S
C772 C771 1.359 . S
C772 H784 0.929 . S
H773 C769 0.930 . S
H774 C763 0.930 . S
H775 C792 0.930 . S
H776 C764 0.930 . S
H777 C765 0.930 . S
H778 C759 0.929 . S
H779 C797 0.930 . S
H780 C788 0.930 . S
H781 C789 0.930 . S
H782 C813 0.929 . S
H783 C771 0.930 . S
H784 C772 0.929 . S
H785 C814 0.930 . S
H786 C795 0.930 . S
N787 Gd756 2.661 . S
N787 C791 1.350 . S
N787 C792 1.307 . S
C788 H780 0.930 . S
C788 C789 1.355 1_655 S
C788 C790 1.412 . S
C789 H781 0.930 . S
C789 C788 1.355 1_455 S
C789 C792 1.402 . S
C790 C788 1.412 . S
C790 C791 1.417 1_655 S
C790 C814 1.431 . S
C791 N787 1.350 . S
C791 C790 1.417 1_455 S
C791 C794 1.426 . S
C792 H775 0.930 . S
C792 N787 1.307 . S
C792 C789 1.402 . S
N793 Gd756 2.601 . S
N793 C794 1.359 . S
N793 C797 1.334 . S
C794 C791 1.426 . S
C794 N793 1.359 . S
C794 C798 1.413 1_455 S
C795 H786 0.930 . S
C795 C796 1.359 . S
C795 C797 1.394 . S
C796 C795 1.359 . S
C796 C798 1.391 1_455 S
C796 H799 0.929 1_455 S
C797 H779 0.930 . S
C797 N793 1.334 . S
C797 C795 1.394 . S
C798 C794 1.413 1_655 S
C798 C796 1.391 1_655 S
C798 C813 1.437 . S
H799 C796 0.929 1_655 S
O800 Gd756 2.545 . S
O800 C815 1.258 1_455 S
O801 Gd756 2.606 . S
O801 Gd757 2.362 . S
O801 C812 1.284 . S
O802 Gd757 2.324 . S
O802 C822 1.254 . S
O803 Gd756 2.429 . S
O803 C822 1.268 . S
O804 Gd756 2.545 . S
O804 C812 1.250 . S
O805 Gd756 2.412 . S
O805 C815 1.252 1_455 S
O806 Gd757 2.545 . S
O806 C824 1.258 . S
O807 Gd756 2.362 . S
O807 Gd757 2.606 . S
O807 C823 1.284 . S
O808 Gd756 2.324 . S
O808 C831 1.254 . S
O809 Gd757 2.429 . S
O809 C831 1.268 . S
O810 Gd757 2.545 . S
O810 C823 1.250 . S
O811 Gd757 2.412 . S
O811 C824 1.252 . S
C812 O801 1.284 . S
C812 O804 1.250 . S
C813 H782 0.929 . S
C813 C798 1.437 . S
C813 C814 1.317 . S
C814 H785 0.930 . S
C814 C790 1.431 . S
C814 C813 1.317 . S
C815 Gd756 2.828 1_655 S
C815 O800 1.258 1_655 S
C815 O805 1.252 1_655 S
C815 C816 1.497 . S
C816 C815 1.497 . S
C816 C817 1.395 . S
C816 C818 1.380 . S
C817 C816 1.395 . S
C817 C820 1.398 . S
C817 H832 0.930 . S
C818 C816 1.380 . S
C818 C819 1.391 . S
C818 H833 0.930 . S
C819 C818 1.391 . S
C819 C821 1.387 . S
C820 C817 1.398 . S
C820 C821 1.380 . S
C820 H834 0.930 . S
C821 C819 1.387 . S
C821 C820 1.380 . S
C821 H835 0.930 . S
C822 O802 1.254 . S
C822 O803 1.268 . S
C823 O807 1.284 . S
C823 O810 1.250 . S
C824 Gd757 2.828 . S
C824 O806 1.258 . S
C824 O811 1.252 . S
C824 C825 1.497 . S
C825 C824 1.497 . S
C825 C826 1.395 . S
C825 C827 1.380 . S
C826 C825 1.395 . S
C826 C829 1.398 . S
C826 H836 0.930 . S
C827 C825 1.380 . S
C827 C828 1.391 . S
C827 H837 0.930 . S
C828 C827 1.391 . S
C828 C830 1.387 . S
C829 C826 1.398 . S
C829 C830 1.380 . S
C829 H838 0.930 . S
C830 C828 1.387 . S
C830 C829 1.380 . S
C830 H839 0.930 . S
C831 O808 1.254 . S
C831 O809 1.268 . S
H832 C817 0.930 . S
H833 C818 0.930 . S
H834 C820 0.930 . S
H835 C821 0.930 . S
H836 C826 0.930 . S
H837 C827 0.930 . S
H838 C829 0.930 . S
H839 C830 0.930 . S
Gd840 N871 2.661 . S
Gd840 N877 2.601 . S
Gd840 O884 2.545 . S
Gd840 O885 2.606 . S
Gd840 O887 2.429 . S
Gd840 O888 2.545 . S
Gd840 O889 2.412 . S
Gd840 O891 2.362 . S
Gd840 O892 2.324 . S
Gd840 C899 2.828 . S
Gd841 N850 2.661 . S
Gd841 N854 2.601 . S
Gd841 O885 2.362 . S
Gd841 O886 2.324 . S
Gd841 O890 2.545 . S
Gd841 O891 2.606 . S
Gd841 O893 2.429 . S
Gd841 O894 2.545 . S
Gd841 O895 2.412 . S
Gd841 C908 2.828 1_565 S
C842 C845 1.417 1_545 S
C842 C847 1.431 . S
C842 C848 1.412 . S
C843 C846 1.437 . S
C843 C847 1.317 . S
C843 H862 0.929 . S
C844 C845 1.426 . S
C844 C846 1.413 1_565 S
C844 N854 1.359 . S
C845 C842 1.417 1_565 S
C845 C844 1.426 . S
C845 N850 1.350 . S
C846 C843 1.437 . S
C846 C844 1.413 1_545 S
C846 C856 1.391 1_545 S
C847 C842 1.431 . S
C847 C843 1.317 . S
C847 H858 0.930 . S
C848 C842 1.412 . S
C848 C849 1.355 1_545 S
C848 H860 0.930 . S
C849 C848 1.355 1_565 S
C849 C851 1.402 . S
C849 H861 0.930 . S
N850 Gd841 2.661 . S
N850 C845 1.350 . S
N850 C851 1.307 . S
C851 C849 1.402 . S
C851 N850 1.307 . S
C851 H852 0.930 . S
H852 C851 0.930 . S
C853 N854 1.334 . S
C853 C855 1.394 . S
C853 H857 0.930 . S
N854 Gd841 2.601 . S
N854 C844 1.359 . S
N854 C853 1.334 . S
C855 C853 1.394 . S
C855 C856 1.359 . S
C855 H867 0.930 . S
C856 C846 1.391 1_565 S
C856 C855 1.359 . S
C856 H868 0.929 1_565 S
H857 C853 0.930 . S
H858 C847 0.930 . S
H859 C876 0.930 . S
H860 C848 0.930 . S
H861 C849 0.930 . S
H862 C843 0.929 . S
H863 C881 0.930 . S
H864 C872 0.930 . S
H865 C873 0.930 . S
H866 C897 0.929 . S
H867 C855 0.930 . S
H868 C856 0.929 1_545 S
H869 C898 0.930 . S
H870 C879 0.930 . S
N871 Gd840 2.661 . S
N871 C875 1.350 . S
N871 C876 1.307 . S
C872 H864 0.930 . S
C872 C873 1.355 . S
C872 C874 1.412 . S
C873 H865 0.930 . S
C873 C872 1.355 . S
C873 C876 1.402 1_655 S
C874 C872 1.412 . S
C874 C875 1.417 1_655 S
C874 C898 1.431 . S
C875 N871 1.350 . S
C875 C874 1.417 1_455 S
C875 C878 1.426 . S
C876 H859 0.930 . S
C876 N871 1.307 . S
C876 C873 1.402 1_455 S
N877 Gd840 2.601 . S
N877 C878 1.359 . S
N877 C881 1.334 . S
C878 C875 1.426 . S
C878 N877 1.359 . S
C878 C882 1.413 . S
C879 H870 0.930 . S
C879 C880 1.359 . S
C879 C881 1.394 . S
C880 C879 1.359 . S
C880 C882 1.391 . S
C880 H883 0.929 . S
C881 H863 0.930 . S
C881 N877 1.334 . S
C881 C879 1.394 . S
C882 C878 1.413 . S
C882 C880 1.391 . S
C882 C897 1.437 1_455 S
H883 C880 0.929 . S
O884 Gd840 2.545 . S
O884 C899 1.258 . S
O885 Gd840 2.606 . S
O885 Gd841 2.362 . S
O885 C896 1.284 . S
O886 Gd841 2.324 . S
O886 C906 1.254 . S
O887 Gd840 2.429 . S
O887 C906 1.268 . S
O888 Gd840 2.545 . S
O888 C896 1.250 . S
O889 Gd840 2.412 . S
O889 C899 1.252 . S
O890 Gd841 2.545 . S
O890 C908 1.258 1_565 S
O891 Gd840 2.362 . S
O891 Gd841 2.606 . S
O891 C907 1.284 . S
O892 Gd840 2.324 . S
O892 C915 1.254 . S
O893 Gd841 2.429 . S
O893 C915 1.268 . S
O894 Gd841 2.545 . S
O894 C907 1.250 . S
O895 Gd841 2.412 . S
O895 C908 1.252 1_565 S
C896 O885 1.284 . S
C896 O888 1.250 . S
C897 H866 0.929 . S
C897 C882 1.437 1_655 S
C897 C898 1.317 . S
C898 H869 0.930 . S
C898 C874 1.431 . S
C898 C897 1.317 . S
C899 Gd840 2.828 . S
C899 O884 1.258 . S
C899 O889 1.252 . S
C899 C900 1.497 . S
C900 C899 1.497 . S
C900 C901 1.395 . S
C900 C902 1.380 . S
C901 C900 1.395 . S
C901 C904 1.398 . S
C901 H916 0.930 . S
C902 C900 1.380 . S
C902 C903 1.391 . S
C902 H917 0.930 . S
C903 C902 1.391 . S
C903 C905 1.387 . S
C904 C901 1.398 . S
C904 C905 1.380 . S
C904 H918 0.930 . S
C905 C903 1.387 . S
C905 C904 1.380 . S
C905 H919 0.930 . S
C906 O886 1.254 . S
C906 O887 1.268 . S
C907 O891 1.284 . S
C907 O894 1.250 . S
C908 Gd841 2.828 1_545 S
C908 O890 1.258 1_545 S
C908 O895 1.252 1_545 S
C908 C909 1.497 . S
C909 C908 1.497 . S
C909 C910 1.395 . S
C909 C911 1.380 . S
C910 C909 1.395 . S
C910 C913 1.398 . S
C910 H920 0.930 . S
C911 C909 1.380 . S
C911 C912 1.391 . S
C911 H921 0.930 . S
C912 C911 1.391 . S
C912 C914 1.387 . S
C913 C910 1.398 . S
C913 C914 1.380 . S
C913 H922 0.930 . S
C914 C912 1.387 . S
C914 C913 1.380 . S
C914 H923 0.930 . S
C915 O892 1.254 . S
C915 O893 1.268 . S
H916 C901 0.930 . S
H917 C902 0.930 . S
H918 C904 0.930 . S
H919 C905 0.930 . S
H920 C910 0.930 . S
H921 C911 0.930 . S
H922 C913 0.930 . S
H923 C914 0.930 . S
Gd924 N955 2.661 . S
Gd924 N961 2.601 . S
Gd924 O968 2.545 . S
Gd924 O969 2.606 . S
Gd924 O971 2.429 . S
Gd924 O972 2.545 . S
Gd924 O973 2.412 . S
Gd924 O975 2.362 . S
Gd924 O976 2.324 . S
Gd924 C983 2.828 . S
Gd925 N934 2.661 . S
Gd925 N938 2.601 . S
Gd925 O969 2.362 . S
Gd925 O970 2.324 . S
Gd925 O974 2.545 . S
Gd925 O975 2.606 . S
Gd925 O977 2.429 . S
Gd925 O978 2.545 . S
Gd925 O979 2.412 . S
Gd925 C992 2.828 . S
C926 C929 1.417 1_545 S
C926 C931 1.431 . S
C926 C932 1.412 . S
C927 C930 1.437 1_545 S
C927 C931 1.317 . S
C927 H946 0.929 . S
C928 C929 1.426 . S
C928 C930 1.413 . S
C928 N938 1.359 . S
C929 C926 1.417 1_565 S
C929 C928 1.426 . S
C929 N934 1.350 . S
C930 C927 1.437 1_565 S
C930 C928 1.413 . S
C930 C940 1.391 1_556 S
C931 C926 1.431 . S
C931 C927 1.317 . S
C931 H942 0.930 . S
C932 C926 1.412 . S
C932 C933 1.355 . S
C932 H944 0.930 . S
C933 C932 1.355 . S
C933 C935 1.402 1_545 S
C933 H945 0.930 . S
N934 Gd925 2.661 . S
N934 C929 1.350 . S
N934 C935 1.307 . S
C935 C933 1.402 1_565 S
C935 N934 1.307 . S
C935 H936 0.930 . S
H936 C935 0.930 . S
C937 N938 1.334 . S
C937 C939 1.394 1_556 S
C937 H941 0.930 . S
N938 Gd925 2.601 . S
N938 C928 1.359 . S
N938 C937 1.334 . S
C939 C937 1.394 1_554 S
C939 C940 1.359 . S
C939 H951 0.930 . S
C940 C930 1.391 1_554 S
C940 C939 1.359 . S
C940 H952 0.929 . S
H941 C937 0.930 . S
H942 C931 0.930 . S
H943 C960 0.930 . S
H944 C932 0.930 . S
H945 C933 0.930 . S
H946 C927 0.929 . S
H947 C965 0.930 . S
H948 C956 0.930 . S
H949 C957 0.930 . S
H950 C981 0.929 . S
H951 C939 0.930 . S
H952 C940 0.929 . S
H953 C982 0.930 . S
H954 C963 0.930 . S
N955 Gd924 2.661 . S
N955 C959 1.350 . S
N955 C960 1.307 . S
C956 H948 0.930 . S
C956 C957 1.355 . S
C956 C958 1.412 . S
C957 H949 0.930 . S
C957 C956 1.355 . S
C957 C960 1.402 . S
C958 C956 1.412 . S
C958 C959 1.417 . S
C958 C982 1.431 . S
C959 N955 1.350 . S
C959 C958 1.417 . S
C959 C962 1.426 . S
C960 H943 0.930 . S
C960 N955 1.307 . S
C960 C957 1.402 . S
N961 Gd924 2.601 . S
N961 C962 1.359 . S
N961 C965 1.334 . S
C962 C959 1.426 . S
C962 N961 1.359 . S
C962 C966 1.413 . S
C963 H954 0.930 . S
C963 C964 1.359 . S
C963 C965 1.394 . S
C964 C963 1.359 . S
C964 C966 1.391 . S
C964 H967 0.929 . S
C965 H947 0.930 . S
C965 N961 1.334 . S
C965 C963 1.394 . S
C966 C962 1.413 . S
C966 C964 1.391 . S
C966 C981 1.437 . S
H967 C964 0.929 . S
O968 Gd924 2.545 . S
O968 C983 1.258 . S
O969 Gd924 2.606 . S
O969 Gd925 2.362 . S
O969 C980 1.284 . S
O970 Gd925 2.324 . S
O970 C990 1.254 . S
O971 Gd924 2.429 . S
O971 C990 1.268 . S
O972 Gd924 2.545 . S
O972 C980 1.250 . S
O973 Gd924 2.412 . S
O973 C983 1.252 . S
O974 Gd925 2.545 . S
O974 C992 1.258 . S
O975 Gd924 2.362 . S
O975 Gd925 2.606 . S
O975 C991 1.284 . S
O976 Gd924 2.324 . S
O976 C999 1.254 . S
O977 Gd925 2.429 . S
O977 C999 1.268 . S
O978 Gd925 2.545 . S
O978 C991 1.250 . S
O979 Gd925 2.412 . S
O979 C992 1.252 . S
C980 O969 1.284 . S
C980 O972 1.250 . S
C981 H950 0.929 . S
C981 C966 1.437 . S
C981 C982 1.317 . S
C982 H953 0.930 . S
C982 C958 1.431 . S
C982 C981 1.317 . S
C983 Gd924 2.828 . S
C983 O968 1.258 . S
C983 O973 1.252 . S
C983 C984 1.497 . S
C984 C983 1.497 . S
C984 C985 1.395 . S
C984 C986 1.380 . S
C985 C984 1.395 . S
C985 C988 1.398 . S
C985 H1000 0.930 . S
C986 C984 1.380 . S
C986 C987 1.391 . S
C986 H1001 0.930 . S
C987 C986 1.391 . S
C987 C989 1.387 . S
C988 C985 1.398 . S
C988 C989 1.380 . S
C988 H1002 0.930 . S
C989 C987 1.387 . S
C989 C988 1.380 . S
C989 H1003 0.930 . S
C990 O970 1.254 . S
C990 O971 1.268 . S
C991 O975 1.284 . S
C991 O978 1.250 . S
C992 Gd925 2.828 . S
C992 O974 1.258 . S
C992 O979 1.252 . S
C992 C993 1.497 . S
C993 C992 1.497 . S
C993 C994 1.395 . S
C993 C995 1.380 . S
C994 C993 1.395 . S
C994 C997 1.398 . S
C994 H1004 0.930 . S
C995 C993 1.380 . S
C995 C996 1.391 . S
C995 H1005 0.930 . S
C996 C995 1.391 . S
C996 C998 1.387 . S
C997 C994 1.398 . S
C997 C998 1.380 . S
C997 H1006 0.930 . S
C998 C996 1.387 . S
C998 C997 1.380 . S
C998 H1007 0.930 . S
C999 O976 1.254 . S
C999 O977 1.268 . S
H1000 C985 0.930 . S
H1001 C986 0.930 . S
H1002 C988 0.930 . S
H1003 C989 0.930 . S
H1004 C994 0.930 . S
H1005 C995 0.930 . S
H1006 C997 0.930 . S
H1007 C998 0.930 . S
C1008 C1009 1.369 . S
C1008 C1010 1.419 . S
C1008 H1012 0.930 . S
C1009 C1008 1.369 . S
C1009 C1018 1.429 . S
C1010 C1008 1.419 . S
C1010 C1011 1.363 . S
C1010 H1013 0.929 . S
C1011 C1010 1.363 . S
C1011 C1017 1.428 . S
H1012 C1008 0.930 . S
H1013 C1010 0.929 . S
S1014 N1015 1.613 . S
S1014 N1016 1.610 . S
N1015 S1014 1.613 . S
N1015 C1018 1.350 . S
N1016 S1014 1.610 . S
N1016 C1017 1.351 . S
C1017 C1011 1.428 . S
C1017 N1016 1.351 . S
C1017 C1018 1.434 . S
C1018 C1009 1.429 . S
C1018 N1015 1.350 . S
C1018 C1017 1.434 . S
C1019 C1020 1.369 . S
C1019 C1021 1.419 1_455 S
C1019 H1023 0.930 . S
C1020 C1019 1.369 . S
C1020 C1029 1.429 . S
C1021 C1019 1.419 1_655 S
C1021 C1022 1.363 . S
C1021 H1024 0.929 . S
C1022 C1021 1.363 . S
C1022 C1028 1.428 . S
H1023 C1019 0.930 . S
H1024 C1021 0.929 . S
S1025 N1026 1.613 1_655 S
S1025 N1027 1.610 . S
N1026 S1025 1.613 1_455 S
N1026 C1029 1.350 . S
N1027 S1025 1.610 . S
N1027 C1028 1.351 . S
C1028 C1022 1.428 . S
C1028 N1027 1.351 . S
C1028 C1029 1.434 1_655 S
C1029 C1020 1.429 . S
C1029 N1026 1.350 . S
C1029 C1028 1.434 1_455 S
C1030 C1031 1.369 . S
C1030 C1032 1.419 1_545 S
C1030 H1034 0.930 . S
C1031 C1030 1.369 . S
C1031 C1040 1.429 . S
C1032 C1030 1.419 1_565 S
C1032 C1033 1.363 . S
C1032 H1035 0.929 . S
C1033 C1032 1.363 . S
C1033 C1039 1.428 . S
H1034 C1030 0.930 . S
H1035 C1032 0.929 . S
S1036 N1037 1.613 . S
S1036 N1038 1.610 1_545 S
N1037 S1036 1.613 . S
N1037 C1040 1.350 . S
N1038 S1036 1.610 1_565 S
N1038 C1039 1.351 . S
C1039 C1033 1.428 . S
C1039 N1038 1.351 . S
C1039 C1040 1.434 1_565 S
C1040 C1031 1.429 . S
C1040 N1037 1.350 . S
C1040 C1039 1.434 1_545 S
C1041 C1042 1.369 . S
C1041 C1043 1.419 . S
C1041 H1045 0.930 . S
C1042 C1041 1.369 . S
C1042 C1051 1.429 . S
C1043 C1041 1.419 . S
C1043 C1044 1.363 . S
C1043 H1046 0.929 . S
C1044 C1043 1.363 . S
C1044 C1050 1.428 . S
H1045 C1041 0.930 . S
H1046 C1043 0.929 . S
S1047 N1048 1.613 . S
S1047 N1049 1.610 . S
N1048 S1047 1.613 . S
N1048 C1051 1.350 . S
N1049 S1047 1.610 . S
N1049 C1050 1.351 . S
C1050 C1044 1.428 . S
C1050 N1049 1.351 . S
C1050 C1051 1.434 . S
C1051 C1042 1.429 . S
C1051 N1048 1.350 . S
C1051 C1050 1.434 . S
C1052 C1053 1.369 . S
C1052 C1054 1.419 1_455 S
C1052 H1056 0.930 . S
C1053 C1052 1.369 . S
C1053 C1062 1.429 . S
C1054 C1052 1.419 1_655 S
C1054 C1055 1.363 . S
C1054 H1057 0.929 . S
C1055 C1054 1.363 . S
C1055 C1061 1.428 . S
H1056 C1052 0.930 . S
H1057 C1054 0.929 . S
S1058 N1059 1.613 . S
S1058 N1060 1.610 1_455 S
N1059 S1058 1.613 . S
N1059 C1062 1.350 . S
N1060 S1058 1.610 1_655 S
N1060 C1061 1.351 . S
C1061 C1055 1.428 . S
C1061 N1060 1.351 . S
C1061 C1062 1.434 1_655 S
C1062 C1053 1.429 . S
C1062 N1059 1.350 . S
C1062 C1061 1.434 1_455 S
C1063 C1064 1.369 . S
C1063 C1065 1.419 1_565 S
C1063 H1067 0.930 . S
C1064 C1063 1.369 . S
C1064 C1073 1.429 . S
C1065 C1063 1.419 1_545 S
C1065 C1066 1.363 . S
C1065 H1068 0.929 . S
C1066 C1065 1.363 . S
C1066 C1072 1.428 . S
H1067 C1063 0.930 . S
H1068 C1065 0.929 . S
S1069 N1070 1.613 . S
S1069 N1071 1.610 1_565 S
N1070 S1069 1.613 . S
N1070 C1073 1.350 . S
N1071 S1069 1.610 1_545 S
N1071 C1072 1.351 . S
C1072 C1066 1.428 . S
C1072 N1071 1.351 . S
C1072 C1073 1.434 1_545 S
C1073 C1064 1.429 . S
C1073 N1070 1.350 . S
C1073 C1072 1.434 1_565 S
C1074 C1075 1.369 . S
C1074 C1076 1.419 . S
C1074 H1078 0.930 . S
C1075 C1074 1.369 . S
C1075 C1084 1.429 . S
C1076 C1074 1.419 . S
C1076 C1077 1.363 . S
C1076 H1079 0.929 . S
C1077 C1076 1.363 . S
C1077 C1083 1.428 . S
H1078 C1074 0.930 . S
H1079 C1076 0.929 . S
S1080 N1081 1.613 . S
S1080 N1082 1.610 . S
N1081 S1080 1.613 . S
N1081 C1084 1.350 . S
N1082 S1080 1.610 . S
N1082 C1083 1.351 . S
C1083 C1077 1.428 . S
C1083 N1082 1.351 . S
C1083 C1084 1.434 . S
C1084 C1075 1.429 . S
C1084 N1081 1.350 . S
C1084 C1083 1.434 . S
C1085 C1086 1.369 . S
C1085 C1087 1.419 1_455 S
C1085 H1089 0.930 . S
C1086 C1085 1.369 . S
C1086 C1095 1.429 . S
C1087 C1085 1.419 1_655 S
C1087 C1088 1.363 . S
C1087 H1090 0.929 . S
C1088 C1087 1.363 . S
C1088 C1094 1.428 . S
H1089 C1085 0.930 . S
H1090 C1087 0.929 . S
S1091 N1092 1.613 . S
S1091 N1093 1.610 1_455 S
N1092 S1091 1.613 . S
N1092 C1095 1.350 . S
N1093 S1091 1.610 1_655 S
N1093 C1094 1.351 . S
C1094 C1088 1.428 . S
C1094 N1093 1.351 . S
C1094 C1095 1.434 1_655 S
C1095 C1086 1.429 . S
C1095 N1092 1.350 . S
C1095 C1094 1.434 1_455 S
C1096 C1097 1.369 . S
C1096 C1098 1.419 1_565 S
C1096 H1100 0.930 . S
C1097 C1096 1.369 . S
C1097 C1106 1.429 . S
C1098 C1096 1.419 1_545 S
C1098 C1099 1.363 . S
C1098 H1101 0.929 . S
C1099 C1098 1.363 . S
C1099 C1105 1.428 . S
H1100 C1096 0.930 . S
H1101 C1098 0.929 . S
S1102 N1103 1.613 1_545 S
S1102 N1104 1.610 . S
N1103 S1102 1.613 1_565 S
N1103 C1106 1.350 . S
N1104 S1102 1.610 . S
N1104 C1105 1.351 . S
C1105 C1099 1.428 . S
C1105 N1104 1.351 . S
C1105 C1106 1.434 1_545 S
C1106 C1097 1.429 . S
C1106 N1103 1.350 . S
C1106 C1105 1.434 1_565 S
C1107 C1108 1.369 . S
C1107 C1109 1.419 . S
C1107 H1111 0.930 . S
C1108 C1107 1.369 . S
C1108 C1117 1.429 . S
C1109 C1107 1.419 . S
C1109 C1110 1.363 . S
C1109 H1112 0.929 . S
C1110 C1109 1.363 . S
C1110 C1116 1.428 . S
H1111 C1107 0.930 . S
H1112 C1109 0.929 . S
S1113 N1114 1.613 . S
S1113 N1115 1.610 . S
N1114 S1113 1.613 . S
N1114 C1117 1.350 . S
N1115 S1113 1.610 . S
N1115 C1116 1.351 . S
C1116 C1110 1.428 . S
C1116 N1115 1.351 . S
C1116 C1117 1.434 . S
C1117 C1108 1.429 . S
C1117 N1114 1.350 . S
C1117 C1116 1.434 . S
C1118 C1119 1.369 . S
C1118 C1120 1.419 1_455 S
C1118 H1122 0.930 . S
C1119 C1118 1.369 . S
C1119 C1128 1.429 . S
C1120 C1118 1.419 1_655 S
C1120 C1121 1.363 . S
C1120 H1123 0.929 . S
C1121 C1120 1.363 . S
C1121 C1127 1.428 . S
H1122 C1118 0.930 . S
H1123 C1120 0.929 . S
S1124 N1125 1.613 1_655 S
S1124 N1126 1.610 . S
N1125 S1124 1.613 1_455 S
N1125 C1128 1.350 . S
N1126 S1124 1.610 . S
N1126 C1127 1.351 . S
C1127 C1121 1.428 . S
C1127 N1126 1.351 . S
C1127 C1128 1.434 1_655 S
C1128 C1119 1.429 . S
C1128 N1125 1.350 . S
C1128 C1127 1.434 1_455 S
C1129 C1130 1.369 . S
C1129 C1131 1.419 1_545 S
C1129 H1133 0.930 . S
C1130 C1129 1.369 . S
C1130 C1139 1.429 . S
C1131 C1129 1.419 1_565 S
C1131 C1132 1.363 . S
C1131 H1134 0.929 . S
C1132 C1131 1.363 . S
C1132 C1138 1.428 . S
H1133 C1129 0.930 . S
H1134 C1131 0.929 . S
S1135 N1136 1.613 . S
S1135 N1137 1.610 1_545 S
N1136 S1135 1.613 . S
N1136 C1139 1.350 . S
N1137 S1135 1.610 1_565 S
N1137 C1138 1.351 . S
C1138 C1132 1.428 . S
C1138 N1137 1.351 . S
C1138 C1139 1.434 1_565 S
C1139 C1130 1.429 . S
C1139 N1136 1.350 . S
C1139 C1138 1.434 1_545 S
C1140 C1141 1.369 . S
C1140 C1142 1.419 . S
C1140 H1144 0.930 . S
C1141 C1140 1.369 . S
C1141 C1150 1.429 . S
C1142 C1140 1.419 . S
C1142 C1143 1.363 . S
C1142 H1145 0.929 . S
C1143 C1142 1.363 . S
C1143 C1149 1.428 . S
H1144 C1140 0.930 . S
H1145 C1142 0.929 . S
S1146 N1147 1.613 . S
S1146 N1148 1.610 . S
N1147 S1146 1.613 . S
N1147 C1150 1.350 . S
N1148 S1146 1.610 . S
N1148 C1149 1.351 . S
C1149 C1143 1.428 . S
C1149 N1148 1.351 . S
C1149 C1150 1.434 . S
C1150 C1141 1.429 . S
C1150 N1147 1.350 . S
C1150 C1149 1.434 . S
C1151 C1152 1.369 . S
C1151 C1153 1.419 . S
C1151 H1155 0.930 . S
C1152 C1151 1.369 . S
C1152 C1161 1.429 . S
C1153 C1151 1.419 . S
C1153 C1154 1.363 . S
C1153 H1156 0.929 . S
C1154 C1153 1.363 . S
C1154 C1160 1.428 . S
H1155 C1151 0.930 . S
H1156 C1153 0.929 . S
S1157 N1158 1.613 . S
S1157 N1159 1.610 . S
N1158 S1157 1.613 . S
N1158 C1161 1.350 . S
N1159 S1157 1.610 . S
N1159 C1160 1.351 . S
C1160 C1154 1.428 . S
C1160 N1159 1.351 . S
C1160 C1161 1.434 . S
C1161 C1152 1.429 . S
C1161 N1158 1.350 . S
C1161 C1160 1.434 . S
C1162 C1163 1.369 . S
C1162 C1164 1.419 . S
C1162 H1166 0.930 . S
C1163 C1162 1.369 . S
C1163 C1172 1.429 . S
C1164 C1162 1.419 . S
C1164 C1165 1.363 . S
C1164 H1167 0.929 . S
C1165 C1164 1.363 . S
C1165 C1171 1.428 . S
H1166 C1162 0.930 . S
H1167 C1164 0.929 . S
S1168 N1169 1.613 . S
S1168 N1170 1.610 . S
N1169 S1168 1.613 . S
N1169 C1172 1.350 . S
N1170 S1168 1.610 . S
N1170 C1171 1.351 . S
C1171 C1165 1.428 . S
C1171 N1170 1.351 . S
C1171 C1172 1.434 . S
C1172 C1163 1.429 . S
C1172 N1169 1.350 . S
C1172 C1171 1.434 . S
C1173 C1174 1.369 . S
C1173 C1175 1.419 . S
C1173 H1177 0.930 . S
C1174 C1173 1.369 . S
C1174 C1183 1.429 . S
C1175 C1173 1.419 . S
C1175 C1176 1.363 . S
C1175 H1178 0.929 . S
C1176 C1175 1.363 . S
C1176 C1182 1.428 . S
H1177 C1173 0.930 . S
H1178 C1175 0.929 . S
S1179 N1180 1.613 . S
S1179 N1181 1.610 . S
N1180 S1179 1.613 . S
N1180 C1183 1.350 . S
N1181 S1179 1.610 . S
N1181 C1182 1.351 . S
C1182 C1176 1.428 . S
C1182 N1181 1.351 . S
C1182 C1183 1.434 . S
C1183 C1174 1.429 . S
C1183 N1180 1.350 . S
C1183 C1182 1.434 . S
C1184 C1185 1.369 . S
C1184 C1186 1.419 . S
C1184 H1188 0.930 . S
C1185 C1184 1.369 . S
C1185 C1194 1.429 . S
C1186 C1184 1.419 . S
C1186 C1187 1.363 . S
C1186 H1189 0.929 . S
C1187 C1186 1.363 . S
C1187 C1193 1.428 . S
H1188 C1184 0.930 . S
H1189 C1186 0.929 . S
S1190 N1191 1.613 . S
S1190 N1192 1.610 . S
N1191 S1190 1.613 . S
N1191 C1194 1.350 . S
N1192 S1190 1.610 . S
N1192 C1193 1.351 . S
C1193 C1187 1.428 . S
C1193 N1192 1.351 . S
C1193 C1194 1.434 . S
C1194 C1185 1.429 . S
C1194 N1191 1.350 . S
C1194 C1193 1.434 . S
C1195 C1196 1.369 . S
C1195 C1197 1.419 . S
C1195 H1199 0.930 . S
C1196 C1195 1.369 . S
C1196 C1205 1.429 . S
C1197 C1195 1.419 . S
C1197 C1198 1.363 . S
C1197 H1200 0.929 . S
C1198 C1197 1.363 . S
C1198 C1204 1.428 . S
H1199 C1195 0.930 . S
H1200 C1197 0.929 . S
S1201 N1202 1.613 . S
S1201 N1203 1.610 . S
N1202 S1201 1.613 . S
N1202 C1205 1.350 . S
N1203 S1201 1.610 . S
N1203 C1204 1.351 . S
C1204 C1198 1.428 . S
C1204 N1203 1.351 . S
C1204 C1205 1.434 . S
C1205 C1196 1.429 . S
C1205 N1202 1.350 . S
C1205 C1204 1.434 . S
C1206 C1207 1.369 . S
C1206 C1208 1.426 1_565 S
C1206 H1210 0.930 . S
C1207 C1206 1.369 . S
C1207 C1216 1.429 1_556 S
C1208 C1206 1.426 1_545 S
C1208 C1209 1.355 1_556 S
C1208 H1211 0.930 . S
C1209 C1208 1.355 1_554 S
C1209 C1215 1.428 . S
H1210 C1206 0.930 . S
H1211 C1208 0.930 . S
S1212 N1213 1.613 . S
S1212 N1214 1.610 1_565 S
N1213 S1212 1.613 . S
N1213 C1216 1.350 . S
N1214 S1212 1.610 1_545 S
N1214 C1215 1.351 . S
C1215 C1209 1.428 . S
C1215 N1214 1.351 . S
C1215 C1216 1.434 1_545 S
C1216 C1207 1.429 1_554 S
C1216 N1213 1.350 . S
C1216 C1215 1.434 1_565 S
C1217 C1218 1.369 . S
C1217 C1219 1.419 . S
C1217 H1221 0.930 . S
C1218 C1217 1.369 . S
C1218 C1227 1.429 . S
C1219 C1217 1.419 . S
C1219 C1220 1.363 . S
C1219 H1222 0.929 . S
C1220 C1219 1.363 . S
C1220 C1226 1.428 . S
H1221 C1217 0.930 . S
H1222 C1219 0.929 . S
S1223 N1224 1.613 . S
S1223 N1225 1.610 . S
N1224 S1223 1.613 . S
N1224 C1227 1.350 . S
N1225 S1223 1.610 . S
N1225 C1226 1.351 . S
C1226 C1220 1.428 . S
C1226 N1225 1.351 . S
C1226 C1227 1.434 . S
C1227 C1218 1.429 . S
C1227 N1224 1.350 . S
C1227 C1226 1.434 . S
C1228 C1229 1.369 . S
C1228 C1230 1.419 1_456 S
C1228 H1232 0.930 . S
C1229 C1228 1.369 . S
C1229 C1238 1.429 . S
C1230 C1228 1.419 1_654 S
C1230 C1231 1.363 . S
C1230 H1233 0.929 . S
C1231 C1230 1.363 . S
C1231 C1237 1.434 . S
H1232 C1228 0.930 . S
H1233 C1230 0.929 . S
S1234 N1235 1.613 1_655 S
S1234 N1236 1.610 . S
N1235 S1234 1.613 1_455 S
N1235 C1238 1.350 . S
N1236 S1234 1.610 . S
N1236 C1237 1.350 1_556 S
C1237 C1231 1.434 . S
C1237 N1236 1.350 1_554 S
C1237 C1238 1.429 1_654 S
C1238 C1229 1.429 . S
C1238 N1235 1.350 . S
C1238 C1237 1.429 1_456 S
C1239 C1240 1.369 . S
C1239 C1241 1.419 1_545 S
C1239 H1243 0.930 . S
C1240 C1239 1.369 . S
C1240 C1249 1.429 . S
C1241 C1239 1.419 1_565 S
C1241 C1242 1.363 . S
C1241 H1244 0.929 . S
C1242 C1241 1.363 . S
C1242 C1248 1.428 . S
H1243 C1239 0.930 . S
H1244 C1241 0.929 . S
S1245 N1246 1.613 . S
S1245 N1247 1.610 1_545 S
N1246 S1245 1.613 . S
N1246 C1249 1.350 . S
N1247 S1245 1.610 1_565 S
N1247 C1248 1.351 . S
C1248 C1242 1.428 . S
C1248 N1247 1.351 . S
C1248 C1249 1.434 1_565 S
C1249 C1240 1.429 . S
C1249 N1246 1.350 . S
C1249 C1248 1.434 1_545 S
C1250 C1251 1.362 1_556 S
C1250 C1252 1.425 . S
C1250 H1254 0.931 . S
C1251 C1250 1.362 1_554 S
C1251 C1260 1.429 . S
C1252 C1250 1.425 . S
C1252 C1253 1.363 . S
C1252 H1255 0.929 . S
C1253 C1252 1.363 . S
C1253 C1259 1.420 1_556 S
H1254 C1250 0.931 . S
H1255 C1252 0.929 . S
S1256 N1257 1.613 . S
S1256 N1258 1.610 . S
N1257 S1256 1.613 . S
N1257 C1260 1.350 . S
N1258 S1256 1.610 . S
N1258 C1259 1.352 . S
C1259 C1253 1.420 1_554 S
C1259 N1258 1.352 . S
C1259 C1260 1.442 . S
C1260 C1251 1.429 . S
C1260 N1257 1.350 . S
C1260 C1259 1.442 . S
C1261 C1262 1.369 . S
C1261 C1263 1.419 1_455 S
C1261 H1265 0.930 . S
C1262 C1261 1.369 . S
C1262 C1271 1.429 . S
C1263 C1261 1.419 1_655 S
C1263 C1264 1.363 . S
C1263 H1266 0.929 . S
C1264 C1263 1.363 . S
C1264 C1270 1.428 . S
H1265 C1261 0.930 . S
H1266 C1263 0.929 . S
S1267 N1268 1.613 1_655 S
S1267 N1269 1.610 . S
N1268 S1267 1.613 1_455 S
N1268 C1271 1.350 . S
N1269 S1267 1.610 . S
N1269 C1270 1.351 . S
C1270 C1264 1.428 . S
C1270 N1269 1.351 . S
C1270 C1271 1.434 1_655 S
C1271 C1262 1.429 . S
C1271 N1268 1.350 . S
C1271 C1270 1.434 1_455 S
C1272 C1273 1.369 . S
C1272 C1274 1.419 . S
C1272 H1276 0.930 . S
C1273 C1272 1.369 . S
C1273 C1282 1.429 . S
C1274 C1272 1.419 . S
C1274 C1275 1.363 . S
C1274 H1277 0.929 . S
C1275 C1274 1.363 . S
C1275 C1281 1.428 . S
H1276 C1272 0.930 . S
H1277 C1274 0.929 . S
S1278 N1279 1.613 . S
S1278 N1280 1.610 . S
N1279 S1278 1.613 . S
N1279 C1282 1.350 . S
N1280 S1278 1.610 . S
N1280 C1281 1.351 . S
C1281 C1275 1.428 . S
C1281 N1280 1.351 . S
C1281 C1282 1.434 . S
C1282 C1273 1.429 . S
C1282 N1279 1.350 . S
C1282 C1281 1.434 . S
C1283 C1284 1.369 . S
C1283 C1285 1.419 . S
C1283 H1287 0.930 . S
C1284 C1283 1.369 . S
C1284 C1293 1.429 . S
C1285 C1283 1.419 . S
C1285 C1286 1.363 . S
C1285 H1288 0.929 . S
C1286 C1285 1.363 . S
C1286 C1292 1.428 . S
H1287 C1283 0.930 . S
H1288 C1285 0.929 . S
S1289 N1290 1.613 . S
S1289 N1291 1.610 . S
N1290 S1289 1.613 . S
N1290 C1293 1.350 . S
N1291 S1289 1.610 . S
N1291 C1292 1.351 . S
C1292 C1286 1.428 . S
C1292 N1291 1.351 . S
C1292 C1293 1.434 . S
C1293 C1284 1.429 . S
C1293 N1290 1.350 . S
C1293 C1292 1.434 . S
C1294 C1295 1.369 . S
C1294 C1296 1.419 . S
C1294 H1298 0.930 . S
C1295 C1294 1.369 . S
C1295 C1304 1.429 . S
C1296 C1294 1.419 . S
C1296 C1297 1.363 . S
C1296 H1299 0.929 . S
C1297 C1296 1.363 . S
C1297 C1303 1.428 . S
H1298 C1294 0.930 . S
H1299 C1296 0.929 . S
S1300 N1301 1.613 . S
S1300 N1302 1.610 . S
N1301 S1300 1.613 . S
N1301 C1304 1.350 . S
N1302 S1300 1.610 . S
N1302 C1303 1.351 . S
C1303 C1297 1.428 . S
C1303 N1302 1.351 . S
C1303 C1304 1.434 . S
C1304 C1295 1.429 . S
C1304 N1301 1.350 . S
C1304 C1303 1.434 . S
C1305 C1306 1.369 . S
C1305 C1307 1.419 . S
C1305 H1309 0.930 . S
C1306 C1305 1.369 . S
C1306 C1315 1.429 . S
C1307 C1305 1.419 . S
C1307 C1308 1.363 . S
C1307 H1310 0.929 . S
C1308 C1307 1.363 . S
C1308 C1314 1.428 . S
H1309 C1305 0.930 . S
H1310 C1307 0.929 . S
S1311 N1312 1.613 . S
S1311 N1313 1.610 . S
N1312 S1311 1.613 . S
N1312 C1315 1.350 . S
N1313 S1311 1.610 . S
N1313 C1314 1.351 . S
C1314 C1308 1.428 . S
C1314 N1313 1.351 . S
C1314 C1315 1.434 . S
C1315 C1306 1.429 . S
C1315 N1312 1.350 . S
C1315 C1314 1.434 . S
C1316 C1317 1.369 . S
C1316 C1318 1.419 . S
C1316 H1320 0.930 . S
C1317 C1316 1.369 . S
C1317 C1326 1.429 . S
C1318 C1316 1.419 . S
C1318 C1319 1.363 . S
C1318 H1321 0.929 . S
C1319 C1318 1.363 . S
C1319 C1325 1.428 . S
H1320 C1316 0.930 . S
H1321 C1318 0.929 . S
S1322 N1323 1.613 . S
S1322 N1324 1.610 . S
N1323 S1322 1.613 . S
N1323 C1326 1.350 . S
N1324 S1322 1.610 . S
N1324 C1325 1.351 . S
C1325 C1319 1.428 . S
C1325 N1324 1.351 . S
C1325 C1326 1.434 . S
C1326 C1317 1.429 . S
C1326 N1323 1.350 . S
C1326 C1325 1.434 . S
C1327 C1328 1.369 . S
C1327 C1329 1.419 . S
C1327 H1331 0.930 . S
C1328 C1327 1.369 . S
C1328 C1337 1.429 . S
C1329 C1327 1.419 . S
C1329 C1330 1.363 . S
C1329 H1332 0.929 . S
C1330 C1329 1.363 . S
C1330 C1336 1.428 . S
H1331 C1327 0.930 . S
H1332 C1329 0.929 . S
S1333 N1334 1.613 . S
S1333 N1335 1.610 . S
N1334 S1333 1.613 . S
N1334 C1337 1.350 . S
N1335 S1333 1.610 . S
N1335 C1336 1.351 . S
C1336 C1330 1.428 . S
C1336 N1335 1.351 . S
C1336 C1337 1.434 . S
C1337 C1328 1.429 . S
C1337 N1334 1.350 . S
C1337 C1336 1.434 . S
C1338 C1339 1.369 . S
C1338 C1340 1.419 . S
C1338 H1342 0.930 . S
C1339 C1338 1.369 . S
C1339 C1348 1.429 . S
C1340 C1338 1.419 . S
C1340 C1341 1.363 . S
C1340 H1343 0.929 . S
C1341 C1340 1.363 . S
C1341 C1347 1.428 . S
H1342 C1338 0.930 . S
H1343 C1340 0.929 . S
S1344 N1345 1.613 . S
S1344 N1346 1.610 . S
N1345 S1344 1.613 . S
N1345 C1348 1.350 . S
N1346 S1344 1.610 . S
N1346 C1347 1.351 . S
C1347 C1341 1.428 . S
C1347 N1346 1.351 . S
C1347 C1348 1.434 . S
C1348 C1339 1.429 . S
C1348 N1345 1.350 . S
C1348 C1347 1.434 . S
C1349 C1350 1.369 . S
C1349 C1351 1.419 . S
C1349 H1353 0.930 . S
C1350 C1349 1.369 . S
C1350 C1359 1.429 . S
C1351 C1349 1.419 . S
C1351 C1352 1.363 . S
C1351 H1354 0.929 . S
C1352 C1351 1.363 . S
C1352 C1358 1.428 . S
H1353 C1349 0.930 . S
H1354 C1351 0.929 . S
S1355 N1356 1.613 . S
S1355 N1357 1.610 . S
N1356 S1355 1.613 . S
N1356 C1359 1.350 . S
N1357 S1355 1.610 . S
N1357 C1358 1.351 . S
C1358 C1352 1.428 . S
C1358 N1357 1.351 . S
C1358 C1359 1.434 . S
C1359 C1350 1.429 . S
C1359 N1356 1.350 . S
C1359 C1358 1.434 . S
C1360 C1361 1.369 . S
C1360 C1362 1.419 . S
C1360 H1364 0.930 . S
C1361 C1360 1.369 . S
C1361 C1370 1.429 . S
C1362 C1360 1.419 . S
C1362 C1363 1.363 . S
C1362 H1365 0.929 . S
C1363 C1362 1.363 . S
C1363 C1369 1.428 . S
H1364 C1360 0.930 . S
H1365 C1362 0.929 . S
S1366 N1367 1.613 . S
S1366 N1368 1.610 . S
N1367 S1366 1.613 . S
N1367 C1370 1.350 . S
N1368 S1366 1.610 . S
N1368 C1369 1.351 . S
C1369 C1363 1.428 . S
C1369 N1368 1.351 . S
C1369 C1370 1.434 . S
C1370 C1361 1.429 . S
C1370 N1367 1.350 . S
C1370 C1369 1.434 . S
C1371 C1372 1.369 . S
C1371 C1373 1.419 . S
C1371 H1375 0.930 . S
C1372 C1371 1.369 . S
C1372 C1381 1.429 . S
C1373 C1371 1.419 . S
C1373 C1374 1.363 . S
C1373 H1376 0.929 . S
C1374 C1373 1.363 . S
C1374 C1380 1.428 . S
H1375 C1371 0.930 . S
H1376 C1373 0.929 . S
S1377 N1378 1.613 . S
S1377 N1379 1.610 . S
N1378 S1377 1.613 . S
N1378 C1381 1.350 . S
N1379 S1377 1.610 . S
N1379 C1380 1.351 . S
C1380 C1374 1.428 . S
C1380 N1379 1.351 . S
C1380 C1381 1.434 . S
C1381 C1372 1.429 . S
C1381 N1378 1.350 . S
C1381 C1380 1.434 . S
C1382 C1383 1.369 . S
C1382 C1384 1.419 . S
C1382 H1386 0.930 . S
C1383 C1382 1.369 . S
C1383 C1392 1.429 . S
C1384 C1382 1.419 . S
C1384 C1385 1.363 . S
C1384 H1387 0.929 . S
C1385 C1384 1.363 . S
C1385 C1391 1.428 . S
H1386 C1382 0.930 . S
H1387 C1384 0.929 . S
S1388 N1389 1.613 . S
S1388 N1390 1.610 . S
N1389 S1388 1.613 . S
N1389 C1392 1.350 . S
N1390 S1388 1.610 . S
N1390 C1391 1.351 . S
C1391 C1385 1.428 . S
C1391 N1390 1.351 . S
C1391 C1392 1.434 . S
C1392 C1383 1.429 . S
C1392 N1389 1.350 . S
C1392 C1391 1.434 . S
C1393 C1394 1.369 . S
C1393 C1395 1.419 . S
C1393 H1397 0.930 . S
C1394 C1393 1.369 . S
C1394 C1403 1.429 . S
C1395 C1393 1.419 . S
C1395 C1396 1.363 . S
C1395 H1398 0.929 . S
C1396 C1395 1.363 . S
C1396 C1402 1.428 . S
H1397 C1393 0.930 . S
H1398 C1395 0.929 . S
S1399 N1400 1.613 . S
S1399 N1401 1.610 . S
N1400 S1399 1.613 . S
N1400 C1403 1.350 . S
N1401 S1399 1.610 . S
N1401 C1402 1.351 . S
C1402 C1396 1.428 . S
C1402 N1401 1.351 . S
C1402 C1403 1.434 . S
C1403 C1394 1.429 . S
C1403 N1400 1.350 . S
C1403 C1402 1.434 . S
C1009 C231 1.290 . S
C1011 C56 1.364 . S
C1020 C324 1.286 . S
C1022 C151 1.360 . S
C1031 C224 1.358 . S
C1033 C399 1.282 . S
C1042 C319 1.365 . S
C1044 C492 1.285 . S
C1053 C63 1.279 . S
C1055 C392 1.361 . S
C1064 C156 1.288 . S
C1066 C487 1.364 . S
C1075 C912 1.289 . S
C1077 C571 1.362 . S
C1086 C644 1.356 . S
C1088 C987 1.276 . S
C1097 C739 1.365 . S
C1099 C576 1.286 . S
C1108 C812 1.359 . S
C1110 C651 1.284 . S
C1119 C907 1.364 . S
C1121 C744 1.288 . S
C1130 C819 1.288 . S
C1132 C980 1.364 . S
C1141 C327 1.900 . S
C1143 C66 1.901 . S
C1152 C159 1.908 . S
C1154 C402 1.907 . S
C1163 C234 1.902 . S
C1165 C495 1.903 . S
C1174 C579 1.908 . S
C1176 C822 1.907 . S
C1185 C654 1.902 . S
C1187 C915 1.902 . S
C1196 C747 1.899 . S
C1198 C990 1.901 . S
C1207 C663 2.206 . S
C1209 C75 2.203 . S
C1218 C150 2.203 . S
C1220 C738 2.209 . S
C1229 C831 2.206 . S
C1231 C243 2.209 . S
C1240 C318 2.208 . S
C1242 C906 2.203 . S
C1251 C411 2.203 . S
C1253 C999 2.204 . S
C1262 C570 2.204 . S
C1264 C486 2.209 . S
C1273 C240 1.324 . S
C1275 C67 1.399 . S
C1284 C140 1.392 . S
C1286 C315 1.325 . S
C1295 C235 1.400 . S
C1297 C408 1.336 . S
C1306 C308 1.403 . S
C1308 C483 1.335 . S
C1317 C72 1.331 . S
C1319 C403 1.392 . S
C1328 C147 1.339 . S
C1330 C476 1.399 . S
C1339 C903 1.339 . S
C1341 C560 1.398 . S
C1350 C655 1.398 . S
C1352 C996 1.337 . S
C1361 C728 1.398 . S
C1363 C567 1.326 . S
C1372 C660 1.325 . S
C1374 C823 1.399 . S
C1383 C896 1.390 . S
C1385 C735 1.327 . S
C1394 C991 1.390 . S
C1396 C828 1.331 . S
