# Generated by pormake.
# Topology wjd, (6)-cn, num edge types: 1
# Building blocks:
#     Node 0, Type 0, BuildingBlock: VOLQOD_clean_sbu_1, # of connection points: 6
#     Node 1, Type 0, BuildingBlock: VOLQOD_clean_sbu_1, # of connection points: 6
#     Node 2, Type 0, BuildingBlock: VOLQOD_clean_sbu_1, # of connection points: 6
#     Node 3, Type 0, BuildingBlock: VOLQOD_clean_sbu_1, # of connection points: 6
#     Node 4, Type 0, BuildingBlock: VOLQOD_clean_sbu_1, # of connection points: 6
#     Node 5, Type 0, BuildingBlock: VOLQOD_clean_sbu_1, # of connection points: 6
#     Node 6, Type 0, BuildingBlock: VOLQOD_clean_sbu_1, # of connection points: 6
#     Node 7, Type 0, BuildingBlock: VOLQOD_clean_sbu_1, # of connection points: 6
#     Node 8, Type 0, BuildingBlock: VOLQOD_clean_sbu_1, # of connection points: 6
#     Node 9, Type 0, BuildingBlock: VOLQOD_clean_sbu_1, # of connection points: 6
#     Node 10, Type 0, BuildingBlock: VOLQOD_clean_sbu_1, # of connection points: 6
#     Node 11, Type 0, BuildingBlock: VOLQOD_clean_sbu_1, # of connection points: 6
#     Edge 12, Type (0, 0), BuildingBlock: TEMPAE_clean_linker_10, # of connection points: 2
#     Edge 13, Type (0, 0), BuildingBlock: TEMPAE_clean_linker_10, # of connection points: 2
#     Edge 14, Type (0, 0), BuildingBlock: TEMPAE_clean_linker_10, # of connection points: 2
#     Edge 15, Type (0, 0), BuildingBlock: TEMPAE_clean_linker_10, # of connection points: 2
#     Edge 16, Type (0, 0), BuildingBlock: TEMPAE_clean_linker_10, # of connection points: 2
#     Edge 17, Type (0, 0), BuildingBlock: TEMPAE_clean_linker_10, # of connection points: 2
#     Edge 18, Type (0, 0), BuildingBlock: TEMPAE_clean_linker_10, # of connection points: 2
#     Edge 19, Type (0, 0), BuildingBlock: TEMPAE_clean_linker_10, # of connection points: 2
#     Edge 20, Type (0, 0), BuildingBlock: TEMPAE_clean_linker_10, # of connection points: 2
#     Edge 21, Type (0, 0), BuildingBlock: TEMPAE_clean_linker_10, # of connection points: 2
#     Edge 22, Type (0, 0), BuildingBlock: TEMPAE_clean_linker_10, # of connection points: 2
#     Edge 23, Type (0, 0), BuildingBlock: TEMPAE_clean_linker_10, # of connection points: 2
#     Edge 24, Type (0, 0), BuildingBlock: TEMPAE_clean_linker_10, # of connection points: 2
#     Edge 25, Type (0, 0), BuildingBlock: TEMPAE_clean_linker_10, # of connection points: 2
#     Edge 26, Type (0, 0), BuildingBlock: TEMPAE_clean_linker_10, # of connection points: 2
#     Edge 27, Type (0, 0), BuildingBlock: TEMPAE_clean_linker_10, # of connection points: 2
#     Edge 28, Type (0, 0), BuildingBlock: TEMPAE_clean_linker_10, # of connection points: 2
#     Edge 29, Type (0, 0), BuildingBlock: TEMPAE_clean_linker_10, # of connection points: 2
#     Edge 30, Type (0, 0), BuildingBlock: TEMPAE_clean_linker_10, # of connection points: 2
#     Edge 31, Type (0, 0), BuildingBlock: TEMPAE_clean_linker_10, # of connection points: 2
#     Edge 32, Type (0, 0), BuildingBlock: TEMPAE_clean_linker_10, # of connection points: 2
#     Edge 33, Type (0, 0), BuildingBlock: TEMPAE_clean_linker_10, # of connection points: 2
#     Edge 34, Type (0, 0), BuildingBlock: TEMPAE_clean_linker_10, # of connection points: 2
#     Edge 35, Type (0, 0), BuildingBlock: TEMPAE_clean_linker_10, # of connection points: 2
#     Edge 36, Type (0, 0), BuildingBlock: TEMPAE_clean_linker_10, # of connection points: 2
#     Edge 37, Type (0, 0), BuildingBlock: TEMPAE_clean_linker_10, # of connection points: 2
#     Edge 38, Type (0, 0), BuildingBlock: TEMPAE_clean_linker_10, # of connection points: 2
#     Edge 39, Type (0, 0), BuildingBlock: TEMPAE_clean_linker_10, # of connection points: 2
#     Edge 40, Type (0, 0), BuildingBlock: TEMPAE_clean_linker_10, # of connection points: 2
#     Edge 41, Type (0, 0), BuildingBlock: TEMPAE_clean_linker_10, # of connection points: 2
#     Edge 42, Type (0, 0), BuildingBlock: TEMPAE_clean_linker_10, # of connection points: 2
#     Edge 43, Type (0, 0), BuildingBlock: TEMPAE_clean_linker_10, # of connection points: 2
#     Edge 44, Type (0, 0), BuildingBlock: TEMPAE_clean_linker_10, # of connection points: 2
#     Edge 45, Type (0, 0), BuildingBlock: TEMPAE_clean_linker_10, # of connection points: 2
#     Edge 46, Type (0, 0), BuildingBlock: TEMPAE_clean_linker_10, # of connection points: 2
#     Edge 47, Type (0, 0), BuildingBlock: TEMPAE_clean_linker_10, # of connection points: 2
# Relax obj value: 0.308
# Max RMSD: 0.232
# Mean RMSD: 0.231
data_MOF--net-wjd--node1-VOLQOD_clean_sbu_1--edge1-TEMPAE_clean_linker_10
_symmetry_space_group_name_H-M    P1
_symmetry_Int_Tables_number       1
_symmetry_cell_setting            triclinic
loop_
_symmetry_equiv_pos_as_xyz
'x, y, z'
_cell_length_a     31.354596
_cell_length_b     31.462002
_cell_length_c     65.717115
_cell_angle_alpha  90.031908
_cell_angle_beta   90.018375
_cell_angle_gamma 120.12277
loop_
_atom_site_label
_atom_site_type_symbol
_atom_site_fract_x
_atom_site_fract_y
_atom_site_fract_z
_atom_type_partial_charge
O0 O 0.381 0.20855 0.07743 0.0
Zn1 Zn 0.32702 0.13795 0.07751 0.0
O2 O 0.34082 0.09937 0.0969 0.0
Zn3 Zn 0.34211 0.04464 0.08344 0.0
Zn4 Zn 0.40319 0.14112 0.11002 0.0
Zn5 Zn 0.29089 0.07487 0.11771 0.0
O6 O 0.28177 0.97949 0.09152 0.0
O7 O 0.24386 0.00427 0.11314 0.0
O8 O 0.31618 0.10903 0.04921 0.0
O9 O 0.33467 0.04983 0.05312 0.0
O10 O 0.40773 0.04678 0.08885 0.0
O11 O 0.45203 0.12334 0.10065 0.0
O12 O 0.39938 0.13277 0.14064 0.0
O13 O 0.27049 0.14593 0.08681 0.0
O14 O 0.31956 0.08203 0.14545 0.0
O15 O 0.25423 0.11165 0.11751 0.0
C16 C 0.41678 0.23267 0.08959 0.0
C17 C 0.24549 0.97068 0.10304 0.0
C18 C 0.4489 0.08386 0.0941 0.0
C19 C 0.32247 0.07503 0.04184 0.0
C20 C 0.36317 0.10693 0.1524 0.0
C21 C 0.24824 0.13667 0.10381 0.0
O22 O 0.42817 0.21162 0.10332 0.0
O23 O 0.82538 0.57437 0.39105 0.0
Zn24 Zn 0.82281 0.62761 0.37556 0.0
O25 O 0.78881 0.65417 0.39092 0.0
Zn26 Zn 0.73187 0.64426 0.37551 0.0
Zn27 Zn 0.76854 0.62013 0.41651 0.0
Zn28 Zn 0.83171 0.72308 0.39657 0.0
O29 O 0.72936 0.70649 0.37362 0.0
O30 O 0.80774 0.76097 0.38068 0.0
O31 O 0.79459 0.60534 0.3475 0.0
O32 O 0.73531 0.62419 0.34663 0.0
O33 O 0.67013 0.59027 0.38794 0.0
O34 O 0.69696 0.56829 0.41507 0.0
O35 O 0.779 0.66599 0.43949 0.0
O36 O 0.89332 0.67937 0.3717 0.0
O37 O 0.8291 0.73957 0.42641 0.0
O38 O 0.90132 0.74486 0.38797 0.0
C39 C 0.82431 0.5679 0.4102 0.0
C40 C 0.76538 0.7504 0.37402 0.0
C41 C 0.66224 0.56226 0.40317 0.0
C42 C 0.76104 0.60852 0.33788 0.0
C43 C 0.80506 0.71241 0.44144 0.0
C44 C 0.91974 0.72352 0.37774 0.0
O45 O 0.80789 0.5876 0.42244 0.0
O46 O 0.81529 0.16444 0.12551 0.0
Zn47 Zn 0.8845 0.17926 0.12972 0.0
O48 O 0.91737 0.2325 0.14913 0.0
Zn49 Zn 0.97178 0.28753 0.13547 0.0
Zn50 Zn 0.87169 0.24988 0.16092 0.0
Zn51 Zn 0.94331 0.21186 0.17097 0.0
O52 O 0.03711 0.30305 0.14722 0.0
O53 O 0.01383 0.23416 0.16455 0.0
O54 O 0.91902 0.19276 0.10252 0.0
O55 O 0.97793 0.27012 0.10683 0.0
O56 O 0.96047 0.34478 0.13373 0.0
O57 O 0.88962 0.31648 0.15062 0.0
O58 O 0.87688 0.25442 0.19186 0.0
O59 O 0.8775 0.11771 0.14132 0.0
O60 O 0.93708 0.23831 0.19775 0.0
O61 O 0.90548 0.13829 0.17302 0.0
C62 C 0.78633 0.17345 0.13581 0.0
C63 C 0.04705 0.27264 0.15571 0.0
C64 C 0.92508 0.34977 0.14036 0.0
C65 C 0.95615 0.23177 0.09586 0.0
C66 C 0.90692 0.25131 0.20405 0.0
C67 C 0.88373 0.10627 0.15917 0.0
O68 O 0.80189 0.20291 0.15098 0.0
O69 O 0.38925 0.22035 0.35203 0.0
Zn70 Zn 0.33649 0.1607 0.3378 0.0
O71 O 0.31496 0.10351 0.35423 0.0
Zn72 Zn 0.34119 0.06347 0.34434 0.0
Zn73 Zn 0.33565 0.12667 0.38127 0.0
Zn74 Zn 0.24466 0.06392 0.35389 0.0
O75 O 0.28603 0.99227 0.34412 0.0
O76 O 0.22467 0.00534 0.33621 0.0
O77 O 0.35985 0.15085 0.31088 0.0
O78 O 0.36499 0.08341 0.31523 0.0
O79 O 0.39694 0.07231 0.36282 0.0
O80 O 0.3905 0.1152 0.38835 0.0
O81 O 0.28231 0.08979 0.40136 0.0
O82 O 0.28065 0.17371 0.33426 0.0
O83 O 0.21882 0.03818 0.38233 0.0
O84 O 0.21525 0.10427 0.3446 0.0
C85 C 0.38931 0.23161 0.37066 0.0
C86 C 0.24208 0.97661 0.33786 0.0
C87 C 0.41131 0.09383 0.38003 0.0
C88 C 0.3697 0.11878 0.30408 0.0
C89 C 0.23838 0.0541 0.39973 0.0
C90 C 0.23456 0.14785 0.33764 0.0
O91 O 0.36292 0.19925 0.38378 0.0
O92 O 0.79581 0.59588 0.10281 0.0
Zn93 Zn 0.7949 0.65812 0.10708 0.0
O94 O 0.75907 0.65448 0.13184 0.0
Zn95 Zn 0.70852 0.67146 0.12543 0.0
Zn96 Zn 0.72833 0.589 0.14328 0.0
Zn97 Zn 0.80512 0.6982 0.15202 0.0
O98 O 0.71566 0.72698 0.14353 0.0
O99 O 0.78709 0.74829 0.1587 0.0
O100 O 0.76885 0.67638 0.08244 0.0
O101 O 0.71423 0.69308 0.09626 0.0
O102 O 0.64054 0.61133 0.12644 0.0
O103 O 0.65663 0.55365 0.13705 0.0
O104 O 0.73695 0.58923 0.17377 0.0
O105 O 0.86664 0.70705 0.11001 0.0
O106 O 0.79944 0.6646 0.17867 0.0
O107 O 0.87561 0.73239 0.14211 0.0
C108 C 0.78279 0.55866 0.11418 0.0
C109 C 0.75083 0.75487 0.15547 0.0
C110 C 0.62657 0.56683 0.13085 0.0
C111 C 0.73772 0.691 0.08085 0.0
C112 C 0.76876 0.62217 0.18547 0.0
C113 C 0.89371 0.73228 0.12478 0.0
O114 O 0.75838 0.5523 0.1305 0.0
O115 O 0.76625 0.17486 0.39832 0.0
Zn116 Zn 0.82556 0.1732 0.38946 0.0
O117 O 0.87792 0.20626 0.40903 0.0
Zn118 Zn 0.92809 0.26723 0.39625 0.0
Zn119 Zn 0.85095 0.21779 0.43363 0.0
Zn120 Zn 0.90465 0.16481 0.41647 0.0
O121 O 0.99008 0.26479 0.39192 0.0
O122 O 0.97108 0.19099 0.4037 0.0
O123 O 0.84339 0.20338 0.36196 0.0
O124 O 0.90972 0.27588 0.36742 0.0
O125 O 0.94004 0.32531 0.41339 0.0
O126 O 0.88364 0.29001 0.43772 0.0
O127 O 0.86623 0.19136 0.45868 0.0
O128 O 0.80608 0.10284 0.38662 0.0
O129 O 0.91113 0.16049 0.44677 0.0
O130 O 0.86024 0.09654 0.4063 0.0
C131 C 0.75072 0.17966 0.41551 0.0
C132 C 0.00071 0.2312 0.39487 0.0
C133 C 0.9184 0.32818 0.42934 0.0
C134 C 0.87636 0.24516 0.35551 0.0
C135 C 0.89213 0.17115 0.46162 0.0
C136 C 0.82293 0.07744 0.39453 0.0
O137 O 0.77747 0.19181 0.43143 0.0
O138 O 0.21979 0.38051 0.6463 0.0
Zn139 Zn 0.15812 0.32793 0.65884 0.0
O140 O 0.10368 0.31227 0.64139 0.0
Zn141 Zn 0.06687 0.34254 0.65097 0.0
Zn142 Zn 0.12966 0.33286 0.61458 0.0
Zn143 Zn 0.06075 0.2429 0.64124 0.0
O144 O -0.00561 0.29096 0.65314 0.0
O145 O 0.00312 0.22607 0.65893 0.0
O146 O 0.14765 0.35019 0.68586 0.0
O147 O 0.08925 0.36888 0.67953 0.0
O148 O 0.07649 0.39661 0.63164 0.0
O149 O 0.11816 0.38714 0.60635 0.0
O150 O 0.09393 0.27931 0.59426 0.0
O151 O 0.16796 0.26993 0.66135 0.0
O152 O 0.03536 0.21944 0.61271 0.0
O153 O 0.09673 0.20861 0.65006 0.0
C154 C 0.23366 0.38443 0.62786 0.0
C155 C 0.97732 0.24697 0.65934 0.0
C156 C 0.09733 0.40897 0.61425 0.0
C157 C 0.1202 0.36707 0.69161 0.0
C158 C 0.05486 0.2375 0.59552 0.0
C159 C 0.13988 0.22465 0.65721 0.0
O160 O 0.2032 0.36113 0.61361 0.0
O161 O 0.19012 0.81145 0.87603 0.0
Zn162 Zn 0.18331 0.86908 0.86972 0.0
O163 O 0.21971 0.90033 0.8452 0.0
Zn164 Zn 0.26907 0.96809 0.85194 0.0
Zn165 Zn 0.25008 0.86492 0.83412 0.0
Zn166 Zn 0.17419 0.89768 0.8249 0.0
O167 O 0.25422 0.01567 0.83728 0.0
O168 O 0.18144 0.96383 0.8235 0.0
O169 O 0.20571 0.91308 0.89428 0.0
O170 O 0.26688 0.98212 0.88177 0.0
O171 O 0.33798 0.97933 0.84872 0.0
O172 O 0.32176 0.9041 0.84021 0.0
O173 O 0.24244 0.85659 0.80349 0.0
O174 O 0.11115 0.84184 0.86572 0.0
O175 O 0.18886 0.88131 0.7972 0.0
O176 O 0.10349 0.85043 0.83264 0.0
C177 C 0.20375 0.78591 0.86593 0.0
C178 C 0.21479 0.00728 0.82813 0.0
C179 C 0.35198 0.94837 0.84518 0.0
C180 C 0.24016 0.95727 0.89668 0.0
C181 C 0.21684 0.86553 0.79099 0.0
C182 C 0.08438 0.83396 0.85004 0.0
O183 O 0.22387 0.79946 0.84845 0.0
O184 O 0.57737 0.82516 0.62367 0.0
Zn185 Zn 0.63272 0.82448 0.63871 0.0
O186 O 0.65968 0.7909 0.62346 0.0
Zn187 Zn 0.64842 0.73354 0.63853 0.0
Zn188 Zn 0.62673 0.77279 0.59767 0.0
Zn189 Zn 0.72923 0.83278 0.61834 0.0
O190 O 0.7099 0.72919 0.63877 0.0
O191 O 0.76649 0.80791 0.63431 0.0
O192 O 0.6139 0.79831 0.66724 0.0
O193 O 0.63093 0.73787 0.66786 0.0
O194 O 0.59318 0.67302 0.6257 0.0
O195 O 0.57495 0.70172 0.59809 0.0
O196 O 0.673 0.78361 0.57488 0.0
O197 O 0.68375 0.89522 0.64125 0.0
O198 O 0.74682 0.82968 0.58867 0.0
O199 O 0.75055 0.90253 0.62619 0.0
C200 C 0.57307 0.82679 0.60446 0.0
C201 C 0.75454 0.764 0.639 0.0
C202 C 0.5671 0.66636 0.60985 0.0
C203 C 0.61719 0.76492 0.67685 0.0
C204 C 0.71972 0.80753 0.57335 0.0
C205 C 0.72816 0.92139 0.63537 0.0
O206 O 0.59473 0.81261 0.59218 0.0
O207 O 0.18496 0.33413 0.91318 0.0
Zn208 Zn 0.11054 0.29067 0.911 0.0
O209 O 0.08209 0.32283 0.89519 0.0
Zn210 Zn 0.04111 0.3378 0.91215 0.0
Zn211 Zn 0.13424 0.38035 0.88279 0.0
Zn212 Zn 0.04325 0.28261 0.87312 0.0
O213 O 0.96859 0.29231 0.90584 0.0
O214 O 0.97272 0.24759 0.8805 0.0
O215 O 0.08171 0.27449 0.93953 0.0
O216 O 0.04646 0.32063 0.94098 0.0
O217 O 0.06364 0.41051 0.91047 0.0
O218 O 0.13727 0.43821 0.89599 0.0
O219 O 0.12395 0.38634 0.85282 0.0
O220 O 0.10184 0.23141 0.89545 0.0
O221 O 0.05151 0.31982 0.84759 0.0
O222 O 0.0658 0.23549 0.86688 0.0
C223 C 0.21406 0.36585 0.90039 0.0
C224 C 0.94796 0.25672 0.89328 0.0
C225 C 0.10585 0.4457 0.9051 0.0
C226 C 0.05961 0.29263 0.94949 0.0
C227 C 0.08752 0.35995 0.84126 0.0
C228 C 0.08722 0.21755 0.87726 0.0
O229 O 0.1986 0.38342 0.88672 0.0
O230 O 0.16421 0.7475 0.59027 0.0
Zn231 Zn 0.16266 0.80442 0.60212 0.0
O232 O 0.19639 0.86136 0.58461 0.0
Zn233 Zn 0.25333 0.91139 0.59973 0.0
Zn234 Zn 0.2163 0.84245 0.55971 0.0
Zn235 Zn 0.15249 0.88565 0.57706 0.0
O236 O 0.24827 0.97164 0.60383 0.0
O237 O 0.17511 0.95093 0.59048 0.0
O238 O 0.19052 0.81567 0.63029 0.0
O239 O 0.25599 0.89013 0.62857 0.0
O240 O 0.31628 0.9265 0.58569 0.0
O241 O 0.28961 0.8759 0.55913 0.0
O242 O 0.19445 0.8628 0.53463 0.0
O243 O 0.09225 0.78469 0.60524 0.0
O244 O 0.15043 0.89449 0.54675 0.0
O245 O 0.08381 0.83914 0.58681 0.0
C246 C 0.17423 0.73772 0.57278 0.0
C247 C 0.21392 0.9809 0.60018 0.0
C248 C 0.32464 0.90827 0.56989 0.0
C249 C 0.22784 0.85146 0.63863 0.0
C250 C 0.16874 0.88328 0.5318 0.0
C251 C 0.06576 0.80119 0.59814 0.0
O252 O 0.1919 0.76951 0.55863 0.0
O253 O 0.57571 0.82131 0.90888 0.0
Zn254 Zn 0.63582 0.81435 0.90914 0.0
O255 O 0.63632 0.77552 0.88612 0.0
Zn256 Zn 0.6457 0.72187 0.89543 0.0
Zn257 Zn 0.57471 0.74882 0.87184 0.0
Zn258 Zn 0.68744 0.81761 0.86734 0.0
O259 O 0.707 0.72642 0.88252 0.0
O260 O 0.74023 0.80068 0.86843 0.0
O261 O 0.64683 0.78954 0.93591 0.0
O262 O 0.65726 0.72792 0.92572 0.0
O263 O 0.58334 0.6556 0.89156 0.0
O264 O 0.53187 0.67916 0.8799 0.0
O265 O 0.58372 0.7516 0.84134 0.0
O266 O 0.68766 0.88455 0.90594 0.0
O267 O 0.66324 0.80614 0.83829 0.0
O268 O 0.71704 0.88912 0.87474 0.0
C269 C 0.5449 0.81281 0.89465 0.0
C270 C 0.74277 0.76306 0.87362 0.0
C271 C 0.53999 0.64594 0.88664 0.0
C272 C 0.65593 0.75515 0.93978 0.0
C273 C 0.62139 0.77752 0.83028 0.0
C274 C 0.71453 0.90944 0.8911 0.0
O275 O 0.54203 0.7874 0.87909 0.0
C276 C 0.10618 0.2811 0.12905 0.0
C277 C 0.09228 0.2729 0.1496 0.0
C278 C 0.13681 0.265 0.1208 0.0
C279 C 0.15536 0.24193 0.13364 0.0
C280 C 0.14597 0.23875 0.15484 0.0
C281 C 0.11357 0.25336 0.16253 0.0
C282 C 0.14466 0.26787 0.09805 0.0
C283 C 0.16687 0.21627 0.16914 0.0
C284 C 0.17264 0.13903 0.11299 0.0
C285 C 0.22332 0.1637 0.10939 0.0
C286 C 0.1498 0.16466 0.12021 0.0
C287 C 0.17894 0.21555 0.12466 0.0
C288 C 0.23032 0.24047 0.121 0.0
C289 C 0.25181 0.21425 0.11307 0.0
C290 C 0.09465 0.13711 0.12338 0.0
C291 C 0.26273 0.29425 0.12608 0.0
H292 H 0.08904 0.2954 0.11892 0.0
H293 H 0.10264 0.24688 0.17839 0.0
H294 H 0.18367 0.28041 0.0943 0.0
H295 H 0.12185 0.23067 0.09138 0.0
H296 H 0.134 0.29298 0.09069 0.0
H297 H 0.16327 0.22427 0.18532 0.0
H298 H 0.14693 0.17582 0.16705 0.0
H299 H 0.20638 0.23016 0.16577 0.0
H300 H 0.15105 0.09979 0.11024 0.0
H301 H 0.29131 0.23282 0.11053 0.0
H302 H 0.07778 0.15629 0.11552 0.0
H303 H 0.08625 0.13608 0.13983 0.0
H304 H 0.07701 0.09874 0.11765 0.0
H305 H 0.25142 0.31662 0.11698 0.0
H306 H 0.30233 0.30751 0.12309 0.0
H307 H 0.25834 0.30064 0.14236 0.0
C308 C 0.16507 0.90622 0.32482 0.0
C309 C 0.20617 0.9237 0.33763 0.0
C310 C 0.12118 0.86318 0.32962 0.0
C311 C 0.11861 0.83783 0.34777 0.0
C312 C 0.16208 0.85138 0.35904 0.0
C313 C 0.20578 0.89432 0.35372 0.0
C314 C 0.07598 0.84913 0.31685 0.0
C315 C 0.16103 0.82471 0.37827 0.0
C316 C 0.00103 0.80116 0.37664 0.0
C317 C 0.97231 0.75121 0.3718 0.0
C318 C 0.04938 0.8291 0.36948 0.0
C319 C 0.06974 0.80648 0.35731 0.0
C320 C 0.04193 0.75558 0.3532 0.0
C321 C -0.00665 0.72852 0.36042 0.0
C322 C 0.07801 0.88339 0.3743 0.0
C323 C 0.06251 0.73009 0.34047 0.0
H324 H 0.16572 0.92877 0.31221 0.0
H325 H 0.23766 0.90777 0.36363 0.0
H326 H 0.05351 0.80869 0.31507 0.0
H327 H 0.05276 0.86172 0.32456 0.0
H328 H 0.08581 0.86624 0.30152 0.0
H329 H 0.19835 0.8315 0.38231 0.0
H330 H 0.14757 0.83803 0.39102 0.0
H331 H 0.13561 0.78455 0.37674 0.0
H332 H 0.98528 0.81893 0.38553 0.0
H333 H 0.97155 0.68979 0.35672 0.0
H334 H 0.08604 0.90497 0.36004 0.0
H335 H 0.11382 0.89296 0.38139 0.0
H336 H 0.05769 0.89481 0.38472 0.0
H337 H 0.06105 0.73842 0.32417 0.0
H338 H 0.04105 0.68957 0.34245 0.0
H339 H 0.10164 0.74335 0.34436 0.0
C340 C 0.86966 0.02402 0.15064 0.0
C341 C 0.86208 0.05416 0.16395 0.0
C342 C 0.84492 0.97319 0.15345 0.0
C343 C 0.81051 0.95211 0.16958 0.0
C344 C 0.80313 0.9826 0.18325 0.0
C345 C 0.82966 0.03367 0.18039 0.0
C346 C 0.8551 0.94206 0.13891 0.0
C347 C 0.76574 0.96139 0.2002 0.0
C348 C 0.72785 0.82031 0.1552 0.0
C349 C 0.75391 0.79964 0.16404 0.0
C350 C 0.74188 0.86947 0.15907 0.0
C351 C 0.78307 0.89806 0.17177 0.0
C352 C 0.80479 0.87535 0.18285 0.0
C353 C 0.78958 0.82612 0.17897 0.0
C354 C 0.71642 0.8922 0.14775 0.0
C355 C 0.84842 0.90439 0.19673 0.0
H356 H 0.89477 0.04033 0.13792 0.0
H357 H 0.8233 0.05738 0.19038 0.0
H358 H 0.8657 0.91841 0.1475 0.0
H359 H 0.82127 0.91755 0.13014 0.0
H360 H 0.88505 0.96463 0.12798 0.0
H361 H 0.77105 0.98975 0.2116 0.0
H362 H 0.72819 0.94578 0.19367 0.0
H363 H 0.76744 0.93111 0.20808 0.0
H364 H 0.69949 0.79968 0.14398 0.0
H365 H 0.80877 0.80974 0.18637 0.0
H366 H 0.73905 0.91276 0.1344 0.0
H367 H 0.71234 0.9186 0.15759 0.0
H368 H 0.67944 0.86386 0.1422 0.0
H369 H 0.882 0.92593 0.18734 0.0
H370 H 0.85485 0.88009 0.20698 0.0
H371 H 0.84326 0.93074 0.20613 0.0
C372 C 0.22646 0.22137 0.34348 0.0
C373 C 0.20461 0.17186 0.3377 0.0
C374 C 0.19742 0.24092 0.35017 0.0
C375 C 0.14558 0.21039 0.35057 0.0
C376 C 0.12336 0.16244 0.34223 0.0
C377 C 0.15326 0.14345 0.33612 0.0
C378 C 0.22249 0.29217 0.35897 0.0
C379 C 0.06806 0.12939 0.3417 0.0
C380 C 0.06923 0.21337 0.39423 0.0
C381 C 0.04482 0.23537 0.38517 0.0
C382 C 0.10495 0.20835 0.38349 0.0
C383 C 0.1152 0.22443 0.363 0.0
C384 C 0.09261 0.24916 0.35415 0.0
C385 C 0.05792 0.25487 0.36549 0.0
C386 C 0.12941 0.18305 0.39367 0.0
C387 C 0.10195 0.26607 0.33229 0.0
H388 H 0.26625 0.24351 0.34472 0.0
H389 H 0.13639 0.10535 0.33139 0.0
H390 H 0.20265 0.31176 0.35472 0.0
H391 H 0.22225 0.2898 0.37582 0.0
H392 H 0.2614 0.3142 0.35384 0.0
H393 H 0.05673 0.09708 0.33163 0.0
H394 H 0.05443 0.11585 0.35729 0.0
H395 H 0.04991 0.1499 0.33638 0.0
H396 H 0.0591 0.19852 0.40949 0.0
H397 H 0.03849 0.27139 0.3584 0.0
H398 H 0.16994 0.20452 0.39143 0.0
H399 H 0.11587 0.14634 0.3867 0.0
H400 H 0.12166 0.17802 0.41026 0.0
H401 H 0.14165 0.28327 0.32844 0.0
H402 H 0.08938 0.29268 0.329 0.0
H403 H 0.08155 0.23379 0.32215 0.0
C404 C 0.16496 0.9137 0.08801 0.0
C405 C 0.20054 0.92254 0.10279 0.0
C406 C 0.11571 0.87698 0.09085 0.0
C407 C 0.1023 0.84808 0.10876 0.0
C408 C 0.1392 0.85397 0.12279 0.0
C409 C 0.18797 0.89196 0.11983 0.0
C410 C 0.07748 0.87258 0.0757 0.0
C411 C 0.12661 0.82279 0.14172 0.0
C412 C 0.97499 0.80823 0.12975 0.0
C413 C 0.94738 0.76088 0.12169 0.0
C414 C 0.02564 0.83686 0.12575 0.0
C415 C 0.04934 0.8168 0.11404 0.0
C416 C 0.02186 0.76809 0.10664 0.0
C417 C 0.97092 0.74099 0.11023 0.0
C418 C 0.05343 0.8891 0.1335 0.0
C419 C 0.04612 0.74485 0.09477 0.0
H420 H 0.17483 0.93834 0.0751 0.0
H421 H 0.21559 0.89962 0.1314 0.0
H422 H 0.05255 0.83363 0.07144 0.0
H423 H 0.05447 0.88629 0.08273 0.0
H424 H 0.09446 0.89406 0.06163 0.0
H425 H 0.15998 0.82554 0.14891 0.0
H426 H 0.10866 0.83515 0.15293 0.0
H427 H 0.10025 0.78367 0.13815 0.0
H428 H 0.95658 0.82349 0.13854 0.0
H429 H 0.94946 0.70399 0.10424 0.0
H430 H 0.06986 0.91488 0.12053 0.0
H431 H 0.08416 0.89427 0.14351 0.0
H432 H 0.0294 0.89921 0.14218 0.0
H433 H 0.05909 0.76357 0.07988 0.0
H434 H 0.02059 0.70508 0.09196 0.0
H435 H 0.07894 0.74931 0.10308 0.0
C436 C 0.79635 0.83367 0.36027 0.0
C437 C 0.75758 0.79125 0.3689 0.0
C438 C 0.79609 0.87788 0.36063 0.0
C439 C 0.75653 0.87942 0.37025 0.0
C440 C 0.71446 0.83538 0.37662 0.0
C441 C 0.71537 0.79133 0.37578 0.0
C442 C 0.84102 0.92391 0.35308 0.0
C443 C 0.67125 0.83561 0.38659 0.0
C444 C 0.80776 -0.00621 0.40208 0.0
C445 C 0.79978 0.02495 0.38949 0.0
C446 C 0.79045 0.94497 0.39658 0.0
C447 C 0.76506 0.9272 0.37788 0.0
C448 C 0.75417 0.95753 0.36569 0.0
C449 C 0.77163 0.00628 0.3717 0.0
C450 C 0.80204 0.91338 0.41023 0.0
C451 C 0.72705 0.93977 0.34573 0.0
H452 H 0.82852 0.83307 0.35458 0.0
H453 H 0.6852 0.75821 0.3823 0.0
H454 H 0.83018 0.94762 0.34471 0.0
H455 H 0.86388 0.94521 0.36628 0.0
H456 H 0.86406 0.91534 0.34293 0.0
H457 H 0.63762 0.79865 0.38613 0.0
H458 H 0.68029 0.84664 0.40277 0.0
H459 H 0.66318 0.86245 0.37915 0.0
H460 H 0.82866 0.00792 0.41604 0.0
H461 H 0.76514 0.0303 0.36198 0.0
H462 H 0.82897 0.90564 0.40258 0.0
H463 H 0.76824 0.87763 0.41319 0.0
H464 H 0.81789 0.93136 0.42506 0.0
H465 H 0.75331 0.94256 0.33378 0.0
H466 H 0.71064 0.96231 0.34091 0.0
H467 H 0.69742 0.90073 0.34667 0.0
C468 C 0.23498 0.03776 0.62954 0.0
C469 C 0.21577 0.02394 0.60982 0.0
C470 C 0.22921 0.07283 0.64047 0.0
C471 C 0.20482 0.09527 0.63118 0.0
C472 C 0.18823 0.08367 0.61078 0.0
C473 C 0.19319 0.04746 0.60045 0.0
C474 C 0.24629 0.08338 0.66232 0.0
C475 C 0.16329 0.10794 0.60014 0.0
C476 C 0.1298 0.14115 0.65815 0.0
C477 C 0.1608 0.19202 0.65645 0.0
C478 C 0.1457 0.10888 0.65179 0.0
C479 C 0.19308 0.12821 0.64299 0.0
C480 C 0.22599 0.17954 0.64289 0.0
C481 C 0.2096 0.21094 0.64991 0.0
C482 C 0.1102 0.05423 0.65284 0.0
C483 C 0.27655 0.20158 0.63341 0.0
H484 H 0.25186 0.01899 0.6369 0.0
H485 H 0.1785 0.03677 0.58518 0.0
H486 H 0.26692 0.12351 0.66528 0.0
H487 H 0.21368 0.06707 0.67251 0.0
H488 H 0.27007 0.06782 0.66642 0.0
H489 H 0.15728 0.09856 0.58369 0.0
H490 H 0.12699 0.09605 0.60731 0.0
H491 H 0.18577 0.14847 0.6017 0.0
H492 H 0.09218 0.12657 0.66336 0.0
H493 H 0.23356 0.25035 0.64845 0.0
H494 H 0.12924 0.03464 0.65823 0.0
H495 H 0.09549 0.04018 0.63741 0.0
H496 H 0.07861 0.04517 0.6631 0.0
H497 H 0.29525 0.18112 0.63803 0.0
H498 H 0.30035 0.24087 0.6376 0.0
H499 H 0.27272 0.19902 0.61659 0.0
C500 C 0.00944 0.79541 0.87206 0.0
C501 C 0.03017 0.80818 0.85252 0.0
C502 C 0.95923 0.77824 0.87519 0.0
C503 C 0.92896 0.77331 0.85835 0.0
C504 C 0.94865 0.78176 0.83842 0.0
C505 C -0.00081 0.79941 0.83573 0.0
C506 C 0.93977 0.76991 0.89671 0.0
C507 C 0.91726 0.77608 0.82006 0.0
C508 C 0.79174 0.72076 0.86783 0.0
C509 C 0.78961 0.76403 0.86981 0.0
C510 C 0.83678 0.72283 0.86369 0.0
C511 C 0.88036 0.76919 0.86195 0.0
C512 C 0.87826 0.81281 0.86418 0.0
C513 C 0.83296 0.80965 0.86792 0.0
C514 C 0.83778 0.6757 0.86105 0.0
C515 C 0.92401 0.86306 0.86281 0.0
H516 H 0.03288 0.80134 0.88513 0.0
H517 H 0.0147 0.80835 0.82054 0.0
H518 H 0.93452 0.8009 0.90135 0.0
H519 H 0.90343 0.73575 0.89777 0.0
H520 H 0.96549 0.76753 0.90766 0.0
H521 H 0.9352 0.77479 0.80568 0.0
H522 H 0.88069 0.74219 0.82125 0.0
H523 H 0.91095 0.80773 0.81926 0.0
H524 H 0.7582 0.68546 0.86918 0.0
H525 H 0.83166 0.84326 0.86966 0.0
H526 H 0.86296 0.67377 0.87239 0.0
H527 H 0.85235 0.67488 0.84576 0.0
H528 H 0.80064 0.64267 0.86276 0.0
H529 H 0.9513 0.86656 0.87441 0.0
H530 H 0.91593 0.89329 0.86516 0.0
H531 H 0.94149 0.86795 0.84766 0.0
C532 C 0.80293 0.00461 0.63306 0.0
C533 C 0.75425 0.97472 0.63959 0.0
C534 C 0.82919 0.05457 0.638 0.0
C535 C 0.80612 0.07519 0.64978 0.0
C536 C 0.7562 0.0459 0.65552 0.0
C537 C 0.73087 -0.00416 0.65045 0.0
C538 C 0.88235 0.0848 0.63125 0.0
C539 C 0.72996 0.06652 0.66774 0.0
C540 C 0.90945 0.17809 0.67752 0.0
C541 C 0.9244 0.21482 0.66274 0.0
C542 C 0.86547 0.13348 0.67515 0.0
C543 C 0.83667 0.12598 0.65751 0.0
C544 C 0.84722 0.16613 0.64464 0.0
C545 C 0.89142 0.21064 0.64744 0.0
C546 C 0.85441 0.0921 0.6897 0.0
C547 C 0.816 0.16001 0.6262 0.0
H548 H 0.82102 0.98877 0.62444 0.0
H549 H 0.69299 0.97314 0.65538 0.0
H550 H 0.88792 0.1174 0.62254 0.0
H551 H 0.9069 0.09827 0.64475 0.0
H552 H 0.89398 0.06352 0.62153 0.0
H553 H 0.68947 0.04502 0.66523 0.0
H554 H 0.73687 0.06449 0.68417 0.0
H555 H 0.74335 0.10557 0.66392 0.0
H556 H 0.9349 0.18194 0.68953 0.0
H557 H 0.90293 0.23936 0.6361 0.0
H558 H 0.86597 0.06731 0.68272 0.0
H559 H 0.81433 0.07008 0.69286 0.0
H560 H 0.87444 0.10597 0.70434 0.0
H561 H 0.82702 0.14411 0.61356 0.0
H562 H 0.82105 0.19588 0.62104 0.0
H563 H 0.77636 0.1346 0.6294 0.0
C564 C 0.11688 0.19571 0.84624 0.0
C565 C 0.10279 0.1864 0.86676 0.0
C566 C 0.13787 0.17115 0.83641 0.0
C567 C 0.14349 0.13553 0.84725 0.0
C568 C 0.12777 0.12478 0.86778 0.0
C569 C 0.10831 0.15105 0.87742 0.0
C570 C 0.15556 0.18453 0.81473 0.0
C571 C 0.13197 0.0859 0.87963 0.0
C572 C 0.15359 0.0339 0.82176 0.0
C573 C 0.20194 0.04644 0.82706 0.0
C574 C 0.13474 0.0643 0.82707 0.0
C575 C 0.16557 0.10898 0.83727 0.0
C576 C 0.21611 0.12486 0.84021 0.0
C577 C 0.23373 0.09311 0.83519 0.0
C578 C 0.08055 0.04596 0.82375 0.0
C579 C 0.25051 0.17337 0.8503 0.0
H580 H 0.11352 0.22386 0.83809 0.0
H581 H 0.09753 0.14409 0.89329 0.0
H582 H 0.19614 0.20046 0.81419 0.0
H583 H 0.13902 0.15129 0.80497 0.0
H584 H 0.14646 0.21158 0.80819 0.0
H585 H 0.11567 0.08031 0.89509 0.0
H586 H 0.11309 0.05039 0.87132 0.0
H587 H 0.17132 0.09652 0.88119 0.0
H588 H 0.12887 -0.00174 0.81512 0.0
H589 H 0.27137 0.10349 0.83901 0.0
H590 H 0.07472 0.07551 0.81765 0.0
H591 H 0.06099 0.03426 0.83855 0.0
H592 H 0.06347 0.01418 0.81314 0.0
H593 H 0.24458 0.20292 0.84424 0.0
H594 H 0.28981 0.18417 0.8481 0.0
H595 H 0.24286 0.17046 0.86688 0.0
C596 C 0.98151 0.78915 0.59438 0.0
C597 C 0.01408 0.77861 0.60474 0.0
C598 C 0.93482 0.77456 0.60232 0.0
C599 C 0.92089 0.74945 0.62119 0.0
C600 C 0.95202 0.7353 0.63091 0.0
C601 C -0.00161 0.74996 0.62249 0.0
C602 C 0.90194 0.78924 0.59121 0.0
C603 C 0.93822 0.70819 0.65093 0.0
C604 C 0.84099 0.78937 0.64725 0.0
C605 C 0.79435 0.75262 0.64083 0.0
C606 C 0.88276 0.7859 0.643 0.0
C607 C 0.87737 0.74501 0.63183 0.0
C608 C 0.82986 0.70501 0.6276 0.0
C609 C 0.78853 0.70917 0.6323 0.0
C610 C 0.93291 0.82869 0.64832 0.0
C611 C 0.82275 0.66048 0.61602 0.0
H612 H -0.00679 0.81046 0.58046 0.0
H613 H 0.02337 0.74139 0.63051 0.0
H614 H 0.86402 0.75739 0.5898 0.0
H615 H 0.89962 0.81815 0.6 0.0
H616 H 0.91593 0.80371 0.57574 0.0
H617 H 0.95995 0.68975 0.65384 0.0
H618 H 0.94577 0.73474 0.66345 0.0
H619 H 0.8984 0.68031 0.65144 0.0
H620 H 0.84522 0.82257 0.65419 0.0
H621 H 0.75232 0.68054 0.62743 0.0
H622 H 0.95057 0.85028 0.63437 0.0
H623 H 0.95719 0.81556 0.65447 0.0
H624 H 0.93045 0.85355 0.65968 0.0
H625 H 0.82784 0.66915 0.59952 0.0
H626 H 0.78514 0.62853 0.6183 0.0
H627 H 0.85028 0.65004 0.62066 0.0
C628 C 0.86571 0.19781 0.87958 0.0
C629 C 0.8968 0.21796 0.89643 0.0
C630 C 0.82597 0.14951 0.88016 0.0
C631 C 0.81916 0.12054 0.89763 0.0
C632 C 0.84692 0.14271 0.91546 0.0
C633 C 0.8851 0.19177 0.91472 0.0
C634 C 0.79507 0.1279 0.86129 0.0
C635 C 0.84093 0.11308 0.9344 0.0
C636 C 0.71745 0.98708 0.90093 0.0
C637 C 0.74108 0.96323 0.89266 0.0
C638 C 0.74185 0.03848 0.90233 0.0
C639 C 0.79143 0.06622 0.89586 0.0
C640 C 0.81557 0.04201 0.88773 0.0
C641 C 0.78967 0.99074 0.88586 0.0
C642 C 0.71404 0.06282 0.91012 0.0
C643 C 0.86899 0.07018 0.88121 0.0
H644 H 0.87496 0.2183 0.86543 0.0
H645 H 0.90965 0.20739 0.92767 0.0
H646 H 0.8083 0.10616 0.85287 0.0
H647 H 0.75586 0.10282 0.86535 0.0
H648 H 0.79744 0.157 0.85098 0.0
H649 H 0.85982 0.13695 0.94773 0.0
H650 H 0.80141 0.08887 0.93814 0.0
H651 H 0.85702 0.08917 0.93168 0.0
H652 H 0.67946 0.96554 0.90591 0.0
H653 H 0.80775 0.97201 0.87954 0.0
H654 H 0.70364 0.07802 0.89703 0.0
H655 H 0.73715 0.09385 0.92048 0.0
H656 H 0.67979 0.03645 0.91827 0.0
H657 H 0.87337 0.0946 0.86825 0.0
H658 H 0.88301 0.04551 0.87649 0.0
H659 H 0.8923 0.0938 0.89387 0.0
C660 C 0.38645 0.15893 0.26996 0.0
C661 C 0.38241 0.12058 0.28224 0.0
C662 C 0.39046 0.15761 0.24878 0.0
C663 C 0.39085 0.11713 0.2396 0.0
C664 C 0.39057 0.08013 0.25195 0.0
C665 C 0.38619 0.08219 0.27317 0.0
C666 C 0.39069 0.19785 0.23616 0.0
C667 C 0.39174 0.0368 0.24272 0.0
C668 C 0.33042 0.08408 0.18773 0.0
C669 C 0.37114 0.10675 0.17462 0.0
C670 C 0.3366 0.08587 0.20887 0.0
C671 C 0.38474 0.11056 0.21719 0.0
C672 C 0.42614 0.13188 0.20409 0.0
C673 C 0.41886 0.13 0.18292 0.0
C674 C 0.2914 0.06285 0.22232 0.0
C675 C 0.478 0.15787 0.21243 0.0
H676 H 0.38422 0.18912 0.27679 0.0
H677 H 0.38357 0.0526 0.28251 0.0
H678 H 0.42075 0.21187 0.22474 0.0
H679 H 0.35535 0.18281 0.22773 0.0
H680 H 0.39534 0.22916 0.24563 0.0
H681 H 0.39944 0.01577 0.25428 0.0
H682 H 0.35554 0.0117 0.23559 0.0
H683 H 0.42011 0.04907 0.23059 0.0
H684 H 0.29339 0.06587 0.18152 0.0
H685 H 0.45056 0.14723 0.1729 0.0
H686 H 0.29016 0.09177 0.23154 0.0
H687 H 0.29307 0.03653 0.23305 0.0
H688 H 0.25665 0.04313 0.21343 0.0
H689 H 0.48537 0.19221 0.2202 0.0
H690 H 0.50603 0.16741 0.20029 0.0
H691 H 0.48249 0.13457 0.22392 0.0
C692 C 0.78381 0.58208 0.3056 0.0
C693 C 0.75525 0.59853 0.31566 0.0
C694 C 0.78386 0.57915 0.28427 0.0
C695 C 0.75489 0.59328 0.27273 0.0
C696 C 0.72389 0.60723 0.28282 0.0
C697 C 0.72432 0.60953 0.30415 0.0
C698 C 0.81694 0.5635 0.27409 0.0
C699 C 0.69241 0.62255 0.27106 0.0
C700 C 0.80008 0.6505 0.22075 0.0
C701 C 0.76792 0.61266 0.20764 0.0
C702 C 0.79687 0.64411 0.24191 0.0
C703 C 0.76083 0.59863 0.25025 0.0
C704 C 0.72942 0.55961 0.23714 0.0
C705 C 0.73323 0.56712 0.21597 0.0
C706 C 0.83109 0.6867 0.25537 0.0
C707 C 0.69088 0.51046 0.24548 0.0
H708 H 0.80754 0.57307 0.31433 0.0
H709 H 0.7019 0.62204 0.31173 0.0
H710 H 0.79654 0.53589 0.26205 0.0
H711 H 0.84817 0.59574 0.26664 0.0
H712 H 0.83216 0.54773 0.28509 0.0
H713 H 0.66703 0.62798 0.2811 0.0
H714 H 0.7165 0.65753 0.26296 0.0
H715 H 0.67025 0.59458 0.2594 0.0
H716 H 0.8271 0.6858 0.21453 0.0
H717 H 0.70829 0.53759 0.20598 0.0
H718 H 0.85148 0.67546 0.2658 0.0
H719 H 0.80929 0.69798 0.26493 0.0
H720 H 0.85824 0.71906 0.24647 0.0
H721 H 0.70787 0.49636 0.25639 0.0
H722 H 0.67216 0.4827 0.23328 0.0
H723 H 0.66265 0.51472 0.25396 0.0
C724 C 0.87778 0.28083 0.23366 0.0
C725 C 0.90548 0.26043 0.22613 0.0
C726 C 0.87391 0.28632 0.25472 0.0
C727 C 0.89759 0.27024 0.26851 0.0
C728 C 0.92696 0.25125 0.26096 0.0
C729 C 0.93079 0.2469 0.23992 0.0
C730 C 0.84314 0.3077 0.26221 0.0
C731 C 0.95247 0.23322 0.27513 0.0
C732 C 0.91585 0.29954 0.32506 0.0
C733 C 0.87801 0.25568 0.33341 0.0
C734 C 0.92097 0.30635 0.30385 0.0
C735 C 0.88788 0.26816 0.29076 0.0
C736 C 0.84812 0.22503 0.29913 0.0
C737 C 0.8435 0.21949 0.32029 0.0
C738 C 0.96324 0.35329 0.29549 0.0
C739 C 0.81217 0.18321 0.28575 0.0
H740 H 0.85854 0.29191 0.22314 0.0
H741 H 0.95242 0.23123 0.23431 0.0
H742 H 0.80896 0.27838 0.26938 0.0
H743 H 0.86348 0.33612 0.27398 0.0
H744 H 0.83263 0.32435 0.24968 0.0
H745 H 0.97614 0.22201 0.26684 0.0
H746 H 0.97567 0.26228 0.28624 0.0
H747 H 0.9245 0.20119 0.28392 0.0
H748 H 0.94248 0.3279 0.33504 0.0
H749 H 0.81383 0.18559 0.32651 0.0
H750 H 0.95056 0.36747 0.28279 0.0
H751 H -0.00819 0.34589 0.28932 0.0
H752 H 0.98053 0.38224 0.30735 0.0
H753 H 0.79666 0.19685 0.27397 0.0
H754 H 0.78123 0.15376 0.29457 0.0
H755 H 0.83173 0.16691 0.27774 0.0
C756 C 0.09428 0.40226 0.72016 0.0
C757 C 0.12128 0.38049 0.71327 0.0
C758 C 0.09012 0.40898 0.74105 0.0
C759 C 0.11266 0.39266 0.75528 0.0
C760 C 0.1422 0.37328 0.74836 0.0
C761 C 0.14649 0.36786 0.72746 0.0
C762 C 0.05947 0.43106 0.74787 0.0
C763 C 0.16661 0.35507 0.76304 0.0
C764 C 0.12731 0.41764 0.81193 0.0
C765 C 0.08914 0.37297 0.81953 0.0
C766 C 0.1332 0.42658 0.7909 0.0
C767 C 0.10072 0.3896 0.77726 0.0
C768 C 0.06019 0.34596 0.7849 0.0
C769 C 0.05467 0.33839 0.80593 0.0
C770 C 0.17593 0.47421 0.78329 0.0
C771 C 0.0248 0.30544 0.77087 0.0
H772 H 0.0752 0.41273 0.70929 0.0
H773 H 0.16769 0.3513 0.72232 0.0
H774 H 0.02335 0.40152 0.75357 0.0
H775 H 0.07784 0.45738 0.76055 0.0
H776 H 0.05258 0.45032 0.73524 0.0
H777 H 0.19092 0.344 0.75521 0.0
H778 H 0.18892 0.38395 0.77437 0.0
H779 H 0.13793 0.32287 0.77153 0.0
H780 H 0.15369 0.4449 0.82235 0.0
H781 H 0.02476 0.30394 0.81163 0.0
H782 H 0.16448 0.48872 0.77029 0.0
H783 H 0.2056 0.46764 0.77781 0.0
H784 H 0.19141 0.50258 0.79544 0.0
H785 H 0.01068 0.32033 0.75904 0.0
H786 H -0.00712 0.27576 0.77918 0.0
H787 H 0.04443 0.28906 0.76297 0.0
C788 C 0.25471 0.84665 0.76107 0.0
C789 C 0.22108 0.85974 0.76876 0.0
C790 C 0.26038 0.84347 0.73999 0.0
C791 C 0.23172 0.85358 0.7263 0.0
C792 C 0.19741 0.86631 0.73397 0.0
C793 C 0.19251 0.8692 0.75505 0.0
C794 C 0.29728 0.82976 0.73235 0.0
C795 C 0.16604 0.87729 0.71988 0.0
C796 C 0.26839 0.8927 0.67146 0.0
C797 C 0.23507 0.84997 0.66089 0.0
C798 C 0.26969 0.89368 0.69284 0.0
C799 C 0.23704 0.85089 0.70389 0.0
C800 C 0.20565 0.80684 0.69331 0.0
C801 C 0.205 0.80692 0.67196 0.0
C802 C 0.30385 0.94136 0.70356 0.0
C803 C 0.17054 0.76033 0.70451 0.0
H804 H 0.27707 0.83939 0.77151 0.0
H805 H 0.1664 0.87933 0.76076 0.0
H806 H 0.2786 0.79664 0.72254 0.0
H807 H 0.3255 0.85993 0.72286 0.0
H808 H 0.31619 0.82228 0.74497 0.0
H809 H 0.14099 0.88649 0.72829 0.0
H810 H 0.18999 0.9086 0.70981 0.0
H811 H 0.14343 0.8451 0.70997 0.0
H812 H 0.29189 0.92613 0.66309 0.0
H813 H 0.17943 0.77356 0.66396 0.0
H814 H 0.32426 0.9352 0.71591 0.0
H815 H 0.28188 0.95614 0.71068 0.0
H816 H 0.33089 0.96951 0.69297 0.0
H817 H 0.19008 0.75277 0.7168 0.0
H818 H 0.15286 0.72795 0.69423 0.0
H819 H 0.14116 0.76493 0.71178 0.0
C820 C 0.61771 0.7278 0.71062 0.0
C821 C 0.60921 0.7606 0.69924 0.0
C822 C 0.61601 0.72755 0.73199 0.0
C823 C 0.60554 0.76086 0.74225 0.0
C824 C 0.59481 0.79253 0.73086 0.0
C825 C 0.59675 0.79201 0.70952 0.0
C826 C 0.62743 0.69304 0.74359 0.0
C827 C 0.58328 0.82844 0.74122 0.0
C828 C 0.57162 0.74102 0.79846 0.0
C829 C 0.61685 0.7736 0.80775 0.0
C830 C 0.56731 0.73637 0.77717 0.0
C831 C 0.60917 0.765 0.76486 0.0
C832 C 0.65482 0.79805 0.77411 0.0
C833 C 0.65811 0.80193 0.7954 0.0
C834 C 0.51803 0.70073 0.76786 0.0
C835 C 0.70034 0.82931 0.76151 0.0
H836 H 0.62723 0.70327 0.70287 0.0
H837 H 0.5899 0.81738 0.70093 0.0
H838 H 0.66252 0.71455 0.75208 0.0
H839 H 0.59813 0.67189 0.75494 0.0
H840 H 0.63097 0.66677 0.73341 0.0
H841 H 0.5721 0.84789 0.73024 0.0
H842 H 0.55326 0.80914 0.75249 0.0
H843 H 0.61626 0.85621 0.74965 0.0
H844 H 0.53951 0.71888 0.80783 0.0
H845 H 0.69323 0.8272 0.80236 0.0
H846 H 0.52138 0.67313 0.75855 0.0
H847 H 0.50596 0.72055 0.75752 0.0
H848 H 0.48902 0.68116 0.77953 0.0
H849 H 0.70901 0.80547 0.752 0.0
H850 H 0.73304 0.8532 0.77105 0.0
H851 H 0.69355 0.85293 0.75103 0.0
C852 C 0.29555 0.02284 0.92129 0.0
C853 C 0.25117 0.97914 0.91737 0.0
C854 C 0.30829 0.04181 0.94111 0.0
C855 C 0.27569 0.01675 0.95739 0.0
C856 C 0.23014 0.97356 0.95345 0.0
C857 C 0.21853 0.95515 0.93352 0.0
C858 C 0.35735 0.08777 0.94473 0.0
C859 C 0.19416 0.94604 0.97038 0.0
C860 C 0.32595 0.02999 0.01102 0.0
C861 C 0.31325 0.06276 0.01987 0.0
C862 C 0.3149 0.01564 0.99059 0.0
C863 C 0.29018 0.03415 0.9787 0.0
C864 C 0.27807 0.06794 0.98738 0.0
C865 C 0.28993 0.08201 0.00784 0.0
C866 C 0.3289 0.97991 0.98184 0.0
C867 C 0.25151 0.0883 0.9752 0.0
H868 H 0.3211 0.04159 0.90894 0.0
H869 H 0.18405 0.92155 0.93064 0.0
H870 H 0.35201 0.11546 0.95303 0.0
H871 H 0.38088 0.07895 0.95441 0.0
H872 H 0.3773 0.10438 0.93032 0.0
H873 H 0.15907 0.91478 0.96462 0.0
H874 H 0.21092 0.93159 0.98122 0.0
H875 H 0.18568 0.97123 0.979 0.0
H876 H 0.34423 0.01511 0.02012 0.0
H877 H 0.27985 0.10725 0.01452 0.0
H878 H 0.35157 -0.00444 0.96794 0.0
H879 H 0.29518 0.94546 0.9773 0.0
H880 H 0.34993 0.97063 0.99283 0.0
H881 H 0.27235 0.106 0.9611 0.0
H882 H 0.24637 0.11564 0.98393 0.0
H883 H 0.21476 0.05791 0.97049 0.0
C884 C 0.78591 0.70457 0.47859 0.0
C885 C 0.80507 0.73468 0.46137 0.0
C886 C 0.78004 0.72324 0.49708 0.0
C887 C 0.79343 0.77333 0.49845 0.0
C888 C 0.81542 0.80465 0.4815 0.0
C889 C 0.82106 0.78496 0.46313 0.0
C890 C 0.75691 0.68861 0.51483 0.0
C891 C 0.83067 0.85836 0.48246 0.0
C892 C 0.71296 0.79221 0.53595 0.0
C893 C 0.74209 0.80658 0.55359 0.0
C894 C 0.73057 0.78429 0.51758 0.0
C895 C 0.77856 0.79069 0.51677 0.0
C896 C 0.80935 0.80808 0.53419 0.0
C897 C 0.79073 0.81587 0.55243 0.0
C898 C 0.69656 0.76616 0.49936 0.0
C899 C 0.8608 0.81556 0.53399 0.0
H900 H 0.77412 0.66583 0.4775 0.0
H901 H 0.83614 0.80858 0.44994 0.0
H902 H 0.77966 0.70418 0.52872 0.0
H903 H 0.71998 0.68379 0.51802 0.0
H904 H 0.75256 0.65186 0.51187 0.0
H905 H 0.85274 0.87899 0.46898 0.0
H906 H 0.79733 0.86207 0.48319 0.0
H907 H 0.85255 0.87548 0.49642 0.0
H908 H 0.67556 0.78559 0.53662 0.0
H909 H 0.81352 0.82697 0.566 0.0
H910 H 0.68627 0.72762 0.49596 0.0
H911 H 0.71546 0.78849 0.48573 0.0
H912 H 0.66222 0.76748 0.50193 0.0
H913 H 0.85867 0.77948 0.53575 0.0
H914 H 0.88354 0.83977 0.54665 0.0
H915 H 0.87965 0.83172 0.51937 0.0
C916 C 0.02043 0.2983 0.98165 0.0
C917 C 0.04688 0.27992 0.97124 0.0
C918 C 0.00681 0.28633 0.00203 0.0
C919 C 0.01997 0.25521 0.01241 0.0
C920 C 0.04662 0.23638 0.0021 0.0
C921 C 0.05976 0.24893 0.98158 0.0
C922 C 0.97845 0.30728 0.01249 0.0
C923 C 0.06135 0.2032 0.01275 0.0
C924 C 0.02175 0.2712 0.06948 0.0
C925 C 0.97444 0.23355 0.07494 0.0
C926 C 0.03833 0.2767 0.04934 0.0
C927 C 0.00671 0.24398 0.03424 0.0
C928 C 0.95998 0.20423 0.03984 0.0
C929 C 0.94443 0.19936 0.06018 0.0
C930 C 0.08861 0.31927 0.04406 0.0
C931 C 0.92527 0.16854 0.02416 0.0
H932 H 0.01008 0.32214 0.97386 0.0
H933 H 0.08007 0.23444 0.97368 0.0
H934 H 0.94311 0.27709 0.01851 0.0
H935 H -9e-05 0.33025 0.02562 0.0
H936 H 0.97024 0.33016 0.00213 0.0
H937 H 0.08136 0.19102 0.00252 0.0
H938 H 0.08532 0.22262 0.02597 0.0
H939 H 0.02814 0.17027 0.01874 0.0
H940 H 0.04558 0.29722 0.08088 0.0
H941 H 0.90797 0.17 0.06433 0.0
H942 H 0.08433 0.34686 0.03516 0.0
H943 H 0.10924 0.30671 0.03444 0.0
H944 H 0.11092 0.33756 0.05783 0.0
H945 H 0.91144 0.18749 0.0142 0.0
H946 H 0.89312 0.13638 0.03125 0.0
H947 H 0.94483 0.15519 0.0143 0.0
C948 C 0.17148 0.98027 0.41779 0.0
C949 C 0.21267 0.02781 0.41855 0.0
C950 C 0.15327 0.9518 0.43554 0.0
C951 C 0.17712 0.97143 0.45438 0.0
C952 C 0.2162 0.02073 0.4554 0.0
C953 C 0.23327 0.04831 0.43752 0.0
C954 C 0.11087 0.89979 0.43371 0.0
C955 C 0.24261 0.04331 0.47516 0.0
C956 C 0.13379 0.91863 0.50705 0.0
C957 C 0.16374 0.89809 0.51092 0.0
C958 C 0.13439 0.93906 0.48797 0.0
C959 C 0.16626 0.93967 0.4726 0.0
C960 C 0.19372 0.91578 0.47594 0.0
C961 C 0.19194 0.89508 0.49501 0.0
C962 C 0.10299 0.96231 0.48461 0.0
C963 C 0.22765 0.91503 0.45981 0.0
H964 H 0.15505 0.96432 0.40323 0.0
H965 H 0.26457 0.08533 0.43833 0.0
H966 H 0.12551 0.87517 0.42985 0.0
H967 H 0.08958 0.88657 0.44807 0.0
H968 H 0.08541 0.89672 0.42132 0.0
H969 H 0.26984 0.08311 0.47361 0.0
H970 H 0.21579 0.03865 0.48718 0.0
H971 H 0.26237 0.02427 0.48038 0.0
H972 H 0.1111 0.92027 0.51912 0.0
H973 H 0.21472 0.87874 0.49772 0.0
H974 H 0.08409 0.95102 0.46965 0.0
H975 H 0.12677 0.0029 0.48442 0.0
H976 H 0.07484 0.95222 0.49674 0.0
H977 H 0.2075 0.90112 0.44523 0.0
H978 H 0.24351 0.89173 0.46421 0.0
H979 H 0.25841 0.95299 0.45711 0.0
C980 C 0.76122 0.71827 0.04474 0.0
C981 C 0.72675 0.70372 0.06057 0.0
C982 C 0.7504 0.72904 0.02532 0.0
C983 C 0.70356 0.72395 0.02155 0.0
C984 C 0.6687 0.70941 0.0375 0.0
C985 C 0.68092 0.70001 0.05687 0.0
C986 C 0.78889 0.7454 0.00879 0.0
C987 C 0.61799 0.7025 0.03398 0.0
C988 C 0.68537 0.78547 0.97515 0.0
C989 C 0.66635 0.74699 0.96094 0.0
C990 C 0.69799 0.77865 0.99492 0.0
C991 C 0.69031 0.73196 1.00071 0.0
C992 C 0.67001 0.69271 0.98656 0.0
C993 C 0.6588 0.70085 0.96679 0.0
C994 C 0.72036 0.82159 0.00948 0.0
C995 C 0.66018 0.64208 0.99229 0.0
H996 H 0.7968 0.7215 0.04756 0.0
H997 H 0.65394 0.68835 0.06901 0.0
H998 H 0.77552 0.71777 0.99638 0.0
H999 H 0.79547 0.78055 0.00209 0.0
H1000 H 0.82449 0.75045 0.01451 0.0
H1001 H 0.59543 0.69179 0.04808 0.0
H1002 H 0.62101 0.7369 0.02805 0.0
H1003 H 0.59824 0.67359 0.02232 0.0
H1004 H 0.69164 0.8213 0.97065 0.0
H1005 H 0.64376 0.67088 0.95591 0.0
H1006 H 0.75732 0.82895 0.0144 0.0
H1007 H 0.69724 0.81271 0.02333 0.0
H1008 H 0.72421 0.85557 0.00258 0.0
H1009 H 0.69526 0.64367 0.99641 0.0
H1010 H 0.64252 0.6151 0.97975 0.0
H1011 H 0.63585 0.62857 0.00584 0.0
C1012 C 0.05028 0.23427 0.55768 0.0
C1013 C 0.02912 0.21285 0.57644 0.0
C1014 C 0.02343 0.21756 0.53957 0.0
C1015 C 0.97434 0.17779 0.54013 0.0
C1016 C 0.95403 0.15331 0.55876 0.0
C1017 C 0.9816 0.17137 0.57677 0.0
C1018 C 0.04658 0.24486 0.52005 0.0
C1019 C 0.90229 0.10995 0.55989 0.0
C1020 C 0.89879 0.19113 0.49863 0.0
C1021 C 0.90456 0.16475 0.4827 0.0
C1022 C 0.91827 0.19268 0.51798 0.0
C1023 C 0.94333 0.16646 0.5216 0.0
C1024 C 0.94523 0.1361 0.50615 0.0
C1025 C 0.92632 0.13605 0.48677 0.0
C1026 C 0.9157 0.22581 0.53399 0.0
C1027 C 0.97012 0.10629 0.50966 0.0
H1028 H 0.08719 0.26591 0.55718 0.0
H1029 H 0.96504 0.15426 0.59118 0.0
H1030 H 0.04389 0.21889 0.50803 0.0
H1031 H 0.0264 0.26324 0.51457 0.0
H1032 H 0.08602 0.2732 0.52203 0.0
H1033 H 0.89589 0.08904 0.57427 0.0
H1034 H 0.87549 0.12314 0.55917 0.0
H1035 H 0.89465 0.08475 0.54683 0.0
H1036 H 0.88177 0.21317 0.49568 0.0
H1037 H 0.93014 0.11487 0.47462 0.0
H1038 H 0.95314 0.25772 0.5366 0.0
H1039 H 0.90259 0.20603 0.54865 0.0
H1040 H 0.89086 0.23983 0.52947 0.0
H1041 H 0.0107 0.13086 0.50919 0.0
H1042 H 0.95972 0.07741 0.49787 0.0
H1043 H 0.96054 0.08863 0.52487 0.0
C1044 C 0.70116 0.16101 0.13952 0.0
C1045 C 0.7339 0.15002 0.12948 0.0
C1046 C 0.65254 0.1418 0.13261 0.0
C1047 C 0.63626 0.11091 0.11523 0.0
C1048 C 0.66837 0.0979 0.10558 0.0
C1049 C 0.71678 0.1176 0.11281 0.0
C1050 C 0.61923 0.15633 0.1434 0.0
C1051 C 0.65236 0.06501 0.08707 0.0
C1052 C 0.49789 0.04681 0.10657 0.0
C1053 C 0.4946 0.0817 0.09451 0.0
C1054 C 0.54419 0.05404 0.11251 0.0
C1055 C 0.58762 0.09687 0.10603 0.0
C1056 C 0.58415 0.12965 0.0923 0.0
C1057 C 0.53762 0.12182 0.08684 0.0
C1058 C 0.54642 0.01817 0.12708 0.0
C1059 C 0.62947 0.17532 0.08474 0.0
H1060 H 0.71384 0.18566 0.15248 0.0
H1061 H 0.74156 0.10842 0.10502 0.0
H1062 H 0.61122 0.17957 0.1332 0.0
H1063 H 0.58351 0.12321 0.14718 0.0
H1064 H 0.63599 0.17715 0.15764 0.0
H1065 H 0.67948 0.05363 0.08285 0.0
H1066 H 0.61606 0.03161 0.08975 0.0
H1067 H 0.64797 0.08474 0.07397 0.0
H1068 H 0.46452 0.01623 0.11275 0.0
H1069 H 0.53482 0.14889 0.0776 0.0
H1070 H 0.55555 0.03463 0.14253 0.0
H1071 H 0.57578 0.01016 0.12259 0.0
H1072 H 0.51072 0.98307 0.12788 0.0
H1073 H 0.64658 0.2017 0.0975 0.0
H1074 H 0.62067 0.19377 0.07237 0.0
H1075 H 0.65723 0.16623 0.07903 0.0
C1076 C 0.5726 0.51446 0.39494 0.0
C1077 C 0.6135 0.51753 0.40499 0.0
C1078 C 0.52951 0.46903 0.39221 0.0
C1079 C 0.52801 0.42589 0.39934 0.0
C1080 C 0.56737 0.42937 0.41117 0.0
C1081 C 0.60959 0.47539 0.41404 0.0
C1082 C 0.48754 0.46684 0.38009 0.0
C1083 C 0.56726 0.38414 0.41893 0.0
C1084 C 0.41374 0.29975 0.39571 0.0
C1085 C 0.42255 0.28246 0.37742 0.0
C1086 C 0.44679 0.34726 0.40277 0.0
C1087 C 0.49002 0.37737 0.39147 0.0
C1088 C 0.49856 0.36035 0.37281 0.0
C1089 C 0.4644 0.31325 0.36591 0.0
C1090 C 0.43599 0.36482 0.42245 0.0
C1091 C 0.5446 0.39126 0.36042 0.0
H1092 H 0.57522 0.54715 0.38822 0.0
H1093 H 0.64105 0.47759 0.4219 0.0
H1094 H 0.48858 0.45466 0.36434 0.0
H1095 H 0.45146 0.43989 0.3868 0.0
H1096 H 0.49001 0.50328 0.37929 0.0
H1097 H 0.59715 0.39338 0.43017 0.0
H1098 H 0.53142 0.35833 0.42609 0.0
H1099 H 0.57255 0.36467 0.40594 0.0
H1100 H 0.38107 0.27611 0.40454 0.0
H1101 H 0.4714 0.29992 0.3518 0.0
H1102 H 0.43996 0.40163 0.42037 0.0
H1103 H 0.46298 0.36852 0.43423 0.0
H1104 H 0.39828 0.33913 0.42817 0.0
H1105 H 0.54716 0.42662 0.35626 0.0
H1106 H 0.54548 0.37251 0.34622 0.0
H1107 H 0.57773 0.39995 0.36959 0.0
C1108 C 0.91277 0.39489 0.11253 0.0
C1109 C 0.91987 0.3909 0.13331 0.0
C1110 C 0.89408 0.42459 0.10578 0.0
C1111 C 0.88383 0.45165 0.1202 0.0
C1112 C 0.89527 0.45096 0.14102 0.0
C1113 C 0.91216 0.41958 0.1474 0.0
C1114 C 0.88121 0.42341 0.08357 0.0
C1115 C 0.8865 0.48077 0.15675 0.0
C1116 C 0.85569 0.55127 0.10604 0.0
C1117 C 0.80538 0.52822 0.11083 0.0
C1118 C 0.88168 0.52605 0.10797 0.0
C1119 C 0.85616 0.47632 0.11416 0.0
C1120 C 0.80439 0.45168 0.11707 0.0
C1121 C 0.7797 0.47831 0.11579 0.0
C1122 C 0.93697 0.5539 0.10525 0.0
C1123 C 0.77564 0.39807 0.12294 0.0
H1124 H 0.91794 0.37171 0.10177 0.0
H1125 H 0.91743 0.41589 0.16348 0.0
H1126 H 0.84059 0.40109 0.08173 0.0
H1127 H 0.8929 0.46086 0.07787 0.0
H1128 H 0.89842 0.40701 0.07398 0.0
H1129 H 0.90389 0.48158 0.17159 0.0
H1130 H 0.90128 0.51908 0.1514 0.0
H1131 H 0.84629 0.46464 0.1592 0.0
H1132 H 0.87566 0.59019 0.10249 0.0
H1133 H 0.74076 0.46068 0.11944 0.0
H1134 H 0.94926 0.53211 0.0963 0.0
H1135 H 0.95491 0.56084 0.1204 0.0
H1136 H 0.95007 0.58983 0.09759 0.0
H1137 H 0.78646 0.37612 0.11327 0.0
H1138 H 0.73521 0.38278 0.12153 0.0
H1139 H 0.78403 0.39377 0.13896 0.0
C1140 C 0.47466 0.12716 0.40755 0.0
C1141 C 0.45553 0.09803 0.39 0.0
C1142 C 0.52041 0.13805 0.41553 0.0
C1143 C 0.54742 0.11896 0.40584 0.0
C1144 C 0.52663 0.08634 0.38916 0.0
C1145 C 0.48091 0.07642 0.38135 0.0
C1146 C 0.54146 0.17309 0.43329 0.0
C1147 C 0.55417 0.06462 0.37867 0.0
C1148 C 0.68587 0.19452 0.40261 0.0
C1149 C 0.70019 0.1703 0.41643 0.0
C1150 C 0.63616 0.17974 0.39991 0.0
C1151 C 0.60004 0.13889 0.41098 0.0
C1152 C 0.61451 0.11578 0.42573 0.0
C1153 C 0.66486 0.13215 0.42841 0.0
C1154 C 0.62228 0.20617 0.3844 0.0
C1155 C 0.57692 0.07193 0.43766 0.0
H1156 H 0.4551 0.14364 0.41453 0.0
H1157 H 0.4661 0.05334 0.36798 0.0
H1158 H 0.55832 0.15971 0.44457 0.0
H1159 H 0.57097 0.20936 0.42776 0.0
H1160 H 0.51299 0.17839 0.44105 0.0
H1161 H 0.53032 0.03488 0.36788 0.0
H1162 H 0.58572 0.09383 0.37006 0.0
H1163 H 0.56937 0.04965 0.39002 0.0
H1164 H 0.71362 0.22398 0.39335 0.0
H1165 H 0.67634 0.11312 0.43886 0.0
H1166 H 0.59655 0.21677 0.39119 0.0
H1167 H 0.60301 0.1813 0.37141 0.0
H1168 H 0.65497 0.23978 0.37846 0.0
H1169 H 0.54794 0.07868 0.44385 0.0
H1170 H 0.59405 0.06266 0.45043 0.0
H1171 H 0.55849 0.03963 0.42739 0.0
C1172 C 0.4122 0.30905 0.09056 0.0
C1173 C 0.44095 0.28642 0.08999 0.0
C1174 C 0.4334 0.35894 0.09565 0.0
C1175 C 0.48459 0.38661 0.09969 0.0
C1176 C 0.51424 0.36458 0.09744 0.0
C1177 C 0.49182 0.3144 0.09301 0.0
C1178 C 0.40043 0.38068 0.09831 0.0
C1179 C 0.56928 0.39319 0.10101 0.0
C1180 C 0.56499 0.5238 0.10395 0.0
C1181 C 0.57764 0.52769 0.12458 0.0
C1182 C 0.53025 0.47832 0.09563 0.0
C1183 C 0.50713 0.4367 0.10848 0.0
C1184 C 0.51462 0.44244 0.12979 0.0
C1185 C 0.55074 0.48784 0.13757 0.0
C1186 C 0.52351 0.4738 0.07284 0.0
C1187 C 0.48905 0.39934 0.14412 0.0
H1188 H 0.3726 0.28696 0.08851 0.0
H1189 H 0.5138 0.29661 0.09256 0.0
H1190 H 0.41785 0.41844 0.09202 0.0
H1191 H 0.36398 0.3578 0.0909 0.0
H1192 H 0.39424 0.38313 0.11479 0.0
H1193 H 0.58754 0.37238 0.09616 0.0
H1194 H 0.58623 0.42856 0.09263 0.0
H1195 H 0.57681 0.4018 0.11745 0.0
H1196 H 0.58633 0.5547 0.0939 0.0
H1197 H 0.56071 0.49112 0.15354 0.0
H1198 H 0.48475 0.44729 0.06868 0.0
H1199 H 0.54698 0.45994 0.06641 0.0
H1200 H 0.53449 0.50984 0.06568 0.0
H1201 H 0.44973 0.37572 0.13985 0.0
H1202 H 0.49113 0.41149 0.16015 0.0
H1203 H 0.50694 0.37662 0.14317 0.0
C1204 C 0.87775 0.55631 0.43478 0.0
C1205 C 0.84495 0.53885 0.41831 0.0
C1206 C 0.90114 0.53078 0.44145 0.0
C1207 C 0.89018 0.48642 0.43164 0.0
C1208 C 0.85577 0.46809 0.41536 0.0
C1209 C 0.83425 0.49511 0.40868 0.0
C1210 C 0.93894 0.55256 0.45826 0.0
C1211 C 0.84185 0.42009 0.40481 0.0
C1212 C 0.95799 0.419 0.42494 0.0
C1213 C 0.92671 0.37654 0.43604 0.0
C1214 C 0.95216 0.46026 0.42599 0.0
C1215 C 0.91363 0.45791 0.438 0.0
C1216 C 0.88841 0.41891 0.45191 0.0
C1217 C 0.89571 0.37865 0.45092 0.0
C1218 C 0.98219 0.50315 0.41204 0.0
C1219 C 0.84808 0.41582 0.46546 0.0
H1220 H 0.88652 0.59085 0.44192 0.0
H1221 H 0.80877 0.48194 0.39595 0.0
H1222 H 0.93846 0.52381 0.46817 0.0
H1223 H 0.97619 0.57343 0.45137 0.0
H1224 H 0.93313 0.57835 0.46783 0.0
H1225 H 0.81208 0.40974 0.39339 0.0
H1226 H 0.87449 0.42303 0.39691 0.0
H1227 H 0.82923 0.38998 0.41612 0.0
H1228 H 0.98355 0.41845 0.41398 0.0
H1229 H 0.87283 0.3467 0.46022 0.0
H1230 H 0.99029 0.53822 0.41936 0.0
H1231 H 0.96088 0.49877 0.39793 0.0
H1232 H 0.01746 0.50527 0.40771 0.0
H1233 H 0.85833 0.45228 0.47193 0.0
H1234 H 0.83962 0.3894 0.47813 0.0
H1235 H 0.81405 0.4032 0.4563 0.0
C1236 C 0.1997 0.67687 0.57878 0.0
C1237 C 0.16655 0.68849 0.56974 0.0
C1238 C 0.18644 0.6279 0.58219 0.0
C1239 C 0.1387 0.59009 0.57651 0.0
C1240 C 0.10679 0.60168 0.56571 0.0
C1241 C 0.12108 0.65116 0.56256 0.0
C1242 C 0.22168 0.61704 0.59363 0.0
C1243 C 0.05598 0.5623 0.55916 0.0
C1244 C 0.1192 0.46236 0.58345 0.0
C1245 C 0.10071 0.45168 0.60341 0.0
C1246 C 0.12892 0.50608 0.57388 0.0
C1247 C 0.12025 0.53993 0.58459 0.0
C1248 C 0.09875 0.52803 0.60423 0.0
C1249 C 0.08906 0.48388 0.61339 0.0
C1250 C 0.15107 0.51724 0.5528 0.0
C1251 C 0.08877 0.56327 0.6161 0.0
H1252 H 0.23456 0.70621 0.58455 0.0
H1253 H 0.09532 0.66065 0.55587 0.0
H1254 H 0.20749 0.60451 0.60925 0.0
H1255 H 0.22461 0.58707 0.58608 0.0
H1256 H 0.25916 0.64984 0.59479 0.0
H1257 H 0.04005 0.57613 0.5476 0.0
H1258 H 0.05685 0.53005 0.55282 0.0
H1259 H 0.03116 0.54955 0.57257 0.0
H1260 H 0.12764 0.43729 0.57549 0.0
H1261 H 0.07447 0.47573 0.62874 0.0
H1262 H 0.19069 0.54559 0.5538 0.0
H1263 H 0.13285 0.53225 0.54305 0.0
H1264 H 0.14801 0.48414 0.54532 0.0
H1265 H 0.12423 0.59668 0.61996 0.0
H1266 H 0.06839 0.54683 0.63045 0.0
H1267 H 0.06709 0.57508 0.60677 0.0
C1268 C 0.42778 0.94396 0.84071 0.0
C1269 C 0.40009 0.95818 0.85259 0.0
C1270 C 0.46058 0.93179 0.84988 0.0
C1271 C 0.46364 0.93179 0.87139 0.0
C1272 C 0.44006 0.95162 0.8832 0.0
C1273 C 0.40909 0.96553 0.87354 0.0
C1274 C 0.48724 0.9133 0.83668 0.0
C1275 C 0.44185 0.95181 0.90616 0.0
C1276 C 0.47149 0.8212 0.88827 0.0
C1277 C 0.52121 0.84272 0.8935 0.0
C1278 C 0.45144 0.85048 0.88262 0.0
C1279 C 0.48266 0.9022 0.88124 0.0
C1280 C 0.53252 0.92416 0.88737 0.0
C1281 C 0.55102 0.89402 0.89377 0.0
C1282 C 0.39751 0.82573 0.87694 0.0
C1283 C 0.56742 0.97878 0.8855 0.0
H1284 H 0.42052 0.93814 0.82451 0.0
H1285 H 0.38702 0.97592 0.88272 0.0
H1286 H 0.52521 0.92675 0.84239 0.0
H1287 H 0.46734 0.87254 0.83709 0.0
H1288 H 0.48924 0.92502 0.82059 0.0
H1289 H 0.43089 0.97745 0.91276 0.0
H1290 H 0.41589 0.91426 0.91182 0.0
H1291 H 0.47918 0.96212 0.91176 0.0
H1292 H 0.4488 0.78148 0.88792 0.0
H1293 H 0.58987 0.91042 0.89739 0.0
H1294 H 0.39387 0.82766 0.86022 0.0
H1295 H 0.3798 0.84483 0.88419 0.0
H1296 H 0.37714 0.78646 0.88154 0.0
H1297 H 0.57775 0.98801 0.86928 0.0
H1298 H 0.60172 0.99091 0.89443 0.0
H1299 H 0.54978 -6e-05 0.89057 0.0
C1300 C 0.51954 0.57589 0.61571 0.0
C1301 C 0.52336 0.61773 0.6064 0.0
C1302 C 0.47457 0.53153 0.61593 0.0
C1303 C 0.43254 0.52972 0.6071 0.0
C1304 C 0.4373 0.57054 0.59611 0.0
C1305 C 0.48296 0.61403 0.59571 0.0
C1306 C 0.47113 0.48812 0.62719 0.0
C1307 C 0.39319 0.57022 0.58669 0.0
C1308 C 0.307 0.41405 0.60506 0.0
C1309 C 0.28548 0.41925 0.62289 0.0
C1310 C 0.35587 0.44867 0.60002 0.0
C1311 C 0.38281 0.48984 0.61283 0.0
C1312 C 0.36132 0.49477 0.63097 0.0
C1313 C 0.31312 0.45906 0.63589 0.0
C1314 C 0.37827 0.44171 0.58088 0.0
C1315 C 0.38863 0.53862 0.64491 0.0
H1316 H 0.55106 0.5784 0.62364 0.0
H1317 H 0.48584 0.64624 0.58837 0.0
H1318 H 0.45493 0.48557 0.64246 0.0
H1319 H 0.44677 0.45332 0.619 0.0
H1320 H 0.50796 0.49168 0.62924 0.0
H1321 H 0.4042 0.60181 0.57624 0.0
H1322 H 0.37021 0.5357 0.57813 0.0
H1323 H 0.3699 0.57226 0.59893 0.0
H1324 H 0.2857 0.38294 0.5951 0.0
H1325 H 0.29645 0.4633 0.64962 0.0
H1326 H 0.41531 0.44685 0.58412 0.0
H1327 H 0.38314 0.46976 0.56947 0.0
H1328 H 0.35486 0.40473 0.57408 0.0
H1329 H 0.42325 0.54101 0.65036 0.0
H1330 H 0.36636 0.53682 0.65837 0.0
H1331 H 0.39888 0.57297 0.63646 0.0
C1332 C 0.1816 0.72876 0.8953 0.0
C1333 C 0.19308 0.73834 0.87454 0.0
C1334 C 0.16713 0.68251 0.90356 0.0
C1335 C 0.16368 0.64496 0.89071 0.0
C1336 C 0.17626 0.65462 0.86984 0.0
C1337 C 0.19116 0.70144 0.86201 0.0
C1338 C 0.15486 0.67364 0.92594 0.0
C1339 C 0.17299 0.61522 0.8557 0.0
C1340 C 0.16722 0.53369 0.90929 0.0
C1341 C 0.1178 0.49697 0.90689 0.0
C1342 C 0.18226 0.58293 0.9055 0.0
C1343 C 0.14696 0.59533 0.89893 0.0
C1344 C 0.09635 0.55896 0.89817 0.0
C1345 C 0.08222 0.50992 0.90233 0.0
C1346 C 0.23641 0.62089 0.9069 0.0
C1347 C 0.05774 0.57106 0.89126 0.0
H1348 H 0.18348 0.75736 0.90511 0.0
H1349 H 0.19983 0.70866 0.84597 0.0
H1350 H 0.11559 0.64503 0.92789 0.0
H1351 H 0.17734 0.65974 0.9333 0.0
H1352 H 0.16144 0.70744 0.93402 0.0
H1353 H 0.18401 0.62875 0.83988 0.0
H1354 H 0.19711 0.60129 0.86128 0.0
H1355 H 0.13467 0.58368 0.85546 0.0
H1356 H 0.19463 0.5235 0.91298 0.0
H1357 H 0.04407 0.48137 0.90036 0.0
H1358 H 0.24179 0.65437 0.91483 0.0
H1359 H 0.25184 0.63195 0.89135 0.0
H1360 H 0.25771 0.60664 0.91505 0.0
H1361 H 0.06215 0.60401 0.89931 0.0
H1362 H 0.01971 0.54008 0.89385 0.0
H1363 H 0.06242 0.57965 0.87475 0.0
C1364 C 0.41401 0.94988 0.57881 0.0
C1365 C 0.37472 0.91632 0.56664 0.0
C1366 C 0.45598 0.94545 0.58133 0.0
C1367 C 0.45765 0.90601 0.57179 0.0
C1368 C 0.42157 0.87684 0.55719 0.0
C1369 C 0.38075 0.88295 0.55453 0.0
C1370 C 0.49532 0.97901 0.59615 0.0
C1371 C 0.42203 0.83442 0.54662 0.0
C1372 C 0.56154 0.87911 0.57937 0.0
C1373 C 0.54412 0.84756 0.5962 0.0
C1374 C 0.53476 0.90014 0.57157 0.0
C1375 C 0.489 0.88785 0.5805 0.0
C1376 C 0.4713 0.85575 0.59749 0.0
C1377 C 0.49964 0.83668 0.60536 0.0
C1378 C 0.55566 0.93588 0.55406 0.0
C1379 C 0.42196 0.84073 0.60714 0.0
H1380 H 0.41026 0.97681 0.58774 0.0
H1381 H 0.35109 0.85763 0.54466 0.0
H1382 H 0.48822 0.96068 0.61119 0.0
H1383 H 0.53238 0.98719 0.591 0.0
H1384 H 0.49541 0.01412 0.59816 0.0
H1385 H 0.39707 0.82146 0.5332 0.0
H1386 H 0.45971 0.84465 0.54157 0.0
H1387 H 0.4095 0.80335 0.55745 0.0
H1388 H 0.59662 0.88811 0.57259 0.0
H1389 H 0.48647 0.81223 0.61838 0.0
H1390 H 0.56438 0.9729 0.55932 0.0
H1391 H 0.52825 0.92513 0.54162 0.0
H1392 H 0.58981 0.93844 0.54783 0.0
H1393 H 0.42184 0.87354 0.61325 0.0
H1394 H 0.41302 0.81409 0.61977 0.0
H1395 H 0.39226 0.82376 0.59556 0.0
C1396 C 0.44948 0.58853 0.88717 0.0
C1397 C 0.49717 0.59609 0.88985 0.0
C1398 C 0.40784 0.54289 0.89095 0.0
C1399 C 0.41372 0.50317 0.89736 0.0
C1400 C 0.46163 0.51006 0.89991 0.0
C1401 C 0.50297 0.55672 0.89628 0.0
C1402 C 0.35741 0.53737 0.88802 0.0
C1403 C 0.46924 0.46848 0.90663 0.0
C1404 C 0.29234 0.41032 0.91977 0.0
C1405 C 0.26753 0.38654 0.90192 0.0
C1406 C 0.34303 0.44474 0.91928 0.0
C1407 C 0.36877 0.45464 0.90057 0.0
C1408 C 0.34507 0.42503 0.88336 0.0
C1409 C 0.29434 0.39177 0.88416 0.0
C1410 C 0.3671 0.47513 0.93802 0.0
C1411 C 0.3715 0.43322 0.86331 0.0
H1412 H 0.44441 0.61863 0.88233 0.0
H1413 H 0.5397 0.56231 0.89849 0.0
H1414 H 0.33702 0.50988 0.87594 0.0
H1415 H 0.33563 0.52394 0.90225 0.0
H1416 H 0.35945 0.57245 0.88365 0.0
H1417 H 0.50818 0.47766 0.90483 0.0
H1418 H 0.45901 0.46024 0.92289 0.0
H1419 H 0.44518 0.43458 0.89785 0.0
H1420 H 0.27137 0.40607 0.93349 0.0
H1421 H 0.27491 0.37274 0.87043 0.0
H1422 H 0.36816 0.51082 0.93669 0.0
H1423 H 0.40561 0.48301 0.93956 0.0
H1424 H 0.34636 0.45646 0.95204 0.0
H1425 H 0.37321 0.46536 0.85553 0.0
H1426 H 0.35202 0.40081 0.85312 0.0
H1427 H 0.40986 0.44119 0.86564 0.0
loop_
_geom_bond_atom_site_label_1
_geom_bond_atom_site_label_2
_geom_bond_distance
_geom_bond_site_symmetry_2
_ccdc_geom_bond_type
O0 Zn1 1.953 . S
O0 C16 1.225 . S
Zn1 O0 1.953 . S
Zn1 O2 1.949 . S
Zn1 O8 1.919 . S
Zn1 O13 1.924 . S
O2 Zn1 1.949 . S
O2 Zn3 1.923 . S
O2 Zn4 1.950 . S
O2 Zn5 1.945 . S
Zn3 O2 1.923 . S
Zn3 O6 1.933 1_545 S
Zn3 O9 1.941 . S
Zn3 O10 1.965 . S
Zn4 O2 1.950 . S
Zn4 O11 1.938 . S
Zn4 O12 1.906 . S
Zn4 O22 1.953 . S
Zn5 O2 1.945 . S
Zn5 O7 1.932 . S
Zn5 O14 1.977 . S
Zn5 O15 1.910 . S
O6 Zn3 1.933 1_565 S
O6 C17 1.226 . S
O7 Zn5 1.932 . S
O7 C17 1.307 1_545 S
O8 Zn1 1.919 . S
O8 C19 1.253 . S
O9 Zn3 1.941 . S
O9 C19 1.283 . S
O10 Zn3 1.965 . S
O10 C18 1.303 . S
O11 Zn4 1.938 . S
O11 C18 1.247 . S
O12 Zn4 1.906 . S
O12 C20 1.304 . S
O13 Zn1 1.924 . S
O13 C21 1.311 . S
O14 Zn5 1.977 . S
O14 C20 1.272 . S
O15 Zn5 1.910 . S
O15 C21 1.231 . S
C16 O0 1.225 . S
C16 O22 1.298 . S
C17 O6 1.226 . S
C17 O7 1.307 1_565 S
C18 O10 1.303 . S
C18 O11 1.247 . S
C19 O8 1.253 . S
C19 O9 1.283 . S
C20 O12 1.304 . S
C20 O14 1.272 . S
C21 O13 1.311 . S
C21 O15 1.231 . S
O22 Zn4 1.953 . S
O22 C16 1.298 . S
O23 Zn24 1.953 . S
O23 C39 1.225 . S
Zn24 O23 1.953 . S
Zn24 O25 1.949 . S
Zn24 O31 1.919 . S
Zn24 O36 1.924 . S
O25 Zn24 1.949 . S
O25 Zn26 1.923 . S
O25 Zn27 1.950 . S
O25 Zn28 1.945 . S
Zn26 O25 1.923 . S
Zn26 O29 1.933 . S
Zn26 O32 1.941 . S
Zn26 O33 1.965 . S
Zn27 O25 1.950 . S
Zn27 O34 1.938 . S
Zn27 O35 1.906 . S
Zn27 O45 1.953 . S
Zn28 O25 1.945 . S
Zn28 O30 1.932 . S
Zn28 O37 1.977 . S
Zn28 O38 1.910 . S
O29 Zn26 1.933 . S
O29 C40 1.226 . S
O30 Zn28 1.932 . S
O30 C40 1.307 . S
O31 Zn24 1.919 . S
O31 C42 1.253 . S
O32 Zn26 1.941 . S
O32 C42 1.283 . S
O33 Zn26 1.965 . S
O33 C41 1.303 . S
O34 Zn27 1.938 . S
O34 C41 1.247 . S
O35 Zn27 1.906 . S
O35 C43 1.304 . S
O36 Zn24 1.924 . S
O36 C44 1.311 . S
O37 Zn28 1.977 . S
O37 C43 1.272 . S
O38 Zn28 1.910 . S
O38 C44 1.231 . S
C39 O23 1.225 . S
C39 O45 1.298 . S
C40 O29 1.226 . S
C40 O30 1.307 . S
C41 O33 1.303 . S
C41 O34 1.247 . S
C42 O31 1.253 . S
C42 O32 1.283 . S
C43 O35 1.304 . S
C43 O37 1.272 . S
C44 O36 1.311 . S
C44 O38 1.231 . S
O45 Zn27 1.953 . S
O45 C39 1.298 . S
O46 Zn47 1.953 . S
O46 C62 1.225 . S
Zn47 O46 1.953 . S
Zn47 O48 1.949 . S
Zn47 O54 1.919 . S
Zn47 O59 1.924 . S
O48 Zn47 1.949 . S
O48 Zn49 1.923 . S
O48 Zn50 1.950 . S
O48 Zn51 1.945 . S
Zn49 O48 1.923 . S
Zn49 O52 1.933 1_655 S
Zn49 O55 1.941 . S
Zn49 O56 1.965 . S
Zn50 O48 1.950 . S
Zn50 O57 1.938 . S
Zn50 O58 1.906 . S
Zn50 O68 1.953 . S
Zn51 O48 1.945 . S
Zn51 O53 1.932 . S
Zn51 O60 1.977 . S
Zn51 O61 1.910 . S
O52 Zn49 1.933 1_455 S
O52 C63 1.226 . S
O53 Zn51 1.932 . S
O53 C63 1.307 1_655 S
O54 Zn47 1.919 . S
O54 C65 1.253 . S
O55 Zn49 1.941 . S
O55 C65 1.283 . S
O56 Zn49 1.965 . S
O56 C64 1.303 . S
O57 Zn50 1.938 . S
O57 C64 1.247 . S
O58 Zn50 1.906 . S
O58 C66 1.304 . S
O59 Zn47 1.924 . S
O59 C67 1.311 . S
O60 Zn51 1.977 . S
O60 C66 1.272 . S
O61 Zn51 1.910 . S
O61 C67 1.231 . S
C62 O46 1.225 . S
C62 O68 1.298 . S
C63 O52 1.226 . S
C63 O53 1.307 1_455 S
C64 O56 1.303 . S
C64 O57 1.247 . S
C65 O54 1.253 . S
C65 O55 1.283 . S
C66 O58 1.304 . S
C66 O60 1.272 . S
C67 O59 1.311 . S
C67 O61 1.231 . S
O68 Zn50 1.953 . S
O68 C62 1.298 . S
O69 Zn70 1.953 . S
O69 C85 1.225 . S
Zn70 O69 1.953 . S
Zn70 O71 1.949 . S
Zn70 O77 1.919 . S
Zn70 O82 1.924 . S
O71 Zn70 1.949 . S
O71 Zn72 1.923 . S
O71 Zn73 1.950 . S
O71 Zn74 1.945 . S
Zn72 O71 1.923 . S
Zn72 O75 1.933 1_545 S
Zn72 O78 1.941 . S
Zn72 O79 1.965 . S
Zn73 O71 1.950 . S
Zn73 O80 1.938 . S
Zn73 O81 1.906 . S
Zn73 O91 1.953 . S
Zn74 O71 1.945 . S
Zn74 O76 1.932 . S
Zn74 O83 1.977 . S
Zn74 O84 1.910 . S
O75 Zn72 1.933 1_565 S
O75 C86 1.226 . S
O76 Zn74 1.932 . S
O76 C86 1.307 1_545 S
O77 Zn70 1.919 . S
O77 C88 1.253 . S
O78 Zn72 1.941 . S
O78 C88 1.283 . S
O79 Zn72 1.965 . S
O79 C87 1.303 . S
O80 Zn73 1.938 . S
O80 C87 1.247 . S
O81 Zn73 1.906 . S
O81 C89 1.304 . S
O82 Zn70 1.924 . S
O82 C90 1.311 . S
O83 Zn74 1.977 . S
O83 C89 1.272 . S
O84 Zn74 1.910 . S
O84 C90 1.231 . S
C85 O69 1.225 . S
C85 O91 1.298 . S
C86 O75 1.226 . S
C86 O76 1.307 1_565 S
C87 O79 1.303 . S
C87 O80 1.247 . S
C88 O77 1.253 . S
C88 O78 1.283 . S
C89 O81 1.304 . S
C89 O83 1.272 . S
C90 O82 1.311 . S
C90 O84 1.231 . S
O91 Zn73 1.953 . S
O91 C85 1.298 . S
O92 Zn93 1.953 . S
O92 C108 1.225 . S
Zn93 O92 1.953 . S
Zn93 O94 1.949 . S
Zn93 O100 1.919 . S
Zn93 O105 1.924 . S
O94 Zn93 1.949 . S
O94 Zn95 1.923 . S
O94 Zn96 1.950 . S
O94 Zn97 1.945 . S
Zn95 O94 1.923 . S
Zn95 O98 1.933 . S
Zn95 O101 1.941 . S
Zn95 O102 1.965 . S
Zn96 O94 1.950 . S
Zn96 O103 1.938 . S
Zn96 O104 1.906 . S
Zn96 O114 1.953 . S
Zn97 O94 1.945 . S
Zn97 O99 1.932 . S
Zn97 O106 1.977 . S
Zn97 O107 1.910 . S
O98 Zn95 1.933 . S
O98 C109 1.226 . S
O99 Zn97 1.932 . S
O99 C109 1.307 . S
O100 Zn93 1.919 . S
O100 C111 1.253 . S
O101 Zn95 1.941 . S
O101 C111 1.283 . S
O102 Zn95 1.965 . S
O102 C110 1.303 . S
O103 Zn96 1.938 . S
O103 C110 1.247 . S
O104 Zn96 1.906 . S
O104 C112 1.304 . S
O105 Zn93 1.924 . S
O105 C113 1.311 . S
O106 Zn97 1.977 . S
O106 C112 1.272 . S
O107 Zn97 1.910 . S
O107 C113 1.231 . S
C108 O92 1.225 . S
C108 O114 1.298 . S
C109 O98 1.226 . S
C109 O99 1.307 . S
C110 O102 1.303 . S
C110 O103 1.247 . S
C111 O100 1.253 . S
C111 O101 1.283 . S
C112 O104 1.304 . S
C112 O106 1.272 . S
C113 O105 1.311 . S
C113 O107 1.231 . S
O114 Zn96 1.953 . S
O114 C108 1.298 . S
O115 Zn116 1.953 . S
O115 C131 1.225 . S
Zn116 O115 1.953 . S
Zn116 O117 1.949 . S
Zn116 O123 1.919 . S
Zn116 O128 1.924 . S
O117 Zn116 1.949 . S
O117 Zn118 1.923 . S
O117 Zn119 1.950 . S
O117 Zn120 1.945 . S
Zn118 O117 1.923 . S
Zn118 O121 1.933 1_655 S
Zn118 O124 1.941 . S
Zn118 O125 1.965 . S
Zn119 O117 1.950 . S
Zn119 O126 1.938 . S
Zn119 O127 1.906 . S
Zn119 O137 1.953 . S
Zn120 O117 1.945 . S
Zn120 O122 1.932 . S
Zn120 O129 1.977 . S
Zn120 O130 1.910 . S
O121 Zn118 1.933 1_455 S
O121 C132 1.226 . S
O122 Zn120 1.932 . S
O122 C132 1.307 1_655 S
O123 Zn116 1.919 . S
O123 C134 1.253 . S
O124 Zn118 1.941 . S
O124 C134 1.283 . S
O125 Zn118 1.965 . S
O125 C133 1.303 . S
O126 Zn119 1.938 . S
O126 C133 1.247 . S
O127 Zn119 1.906 . S
O127 C135 1.304 . S
O128 Zn116 1.924 . S
O128 C136 1.311 . S
O129 Zn120 1.977 . S
O129 C135 1.272 . S
O130 Zn120 1.910 . S
O130 C136 1.231 . S
C131 O115 1.225 . S
C131 O137 1.298 . S
C132 O121 1.226 . S
C132 O122 1.307 1_455 S
C133 O125 1.303 . S
C133 O126 1.247 . S
C134 O123 1.253 . S
C134 O124 1.283 . S
C135 O127 1.304 . S
C135 O129 1.272 . S
C136 O128 1.311 . S
C136 O130 1.231 . S
O137 Zn119 1.953 . S
O137 C131 1.298 . S
O138 Zn139 1.953 . S
O138 C154 1.225 . S
Zn139 O138 1.953 . S
Zn139 O140 1.949 . S
Zn139 O146 1.919 . S
Zn139 O151 1.924 . S
O140 Zn139 1.949 . S
O140 Zn141 1.923 . S
O140 Zn142 1.950 . S
O140 Zn143 1.945 . S
Zn141 O140 1.923 . S
Zn141 O144 1.933 1_455 S
Zn141 O147 1.941 . S
Zn141 O148 1.965 . S
Zn142 O140 1.950 . S
Zn142 O149 1.938 . S
Zn142 O150 1.906 . S
Zn142 O160 1.953 . S
Zn143 O140 1.945 . S
Zn143 O145 1.932 . S
Zn143 O152 1.977 . S
Zn143 O153 1.910 . S
O144 Zn141 1.933 1_655 S
O144 C155 1.226 . S
O145 Zn143 1.932 . S
O145 C155 1.307 1_455 S
O146 Zn139 1.919 . S
O146 C157 1.253 . S
O147 Zn141 1.941 . S
O147 C157 1.283 . S
O148 Zn141 1.965 . S
O148 C156 1.303 . S
O149 Zn142 1.938 . S
O149 C156 1.247 . S
O150 Zn142 1.906 . S
O150 C158 1.304 . S
O151 Zn139 1.924 . S
O151 C159 1.311 . S
O152 Zn143 1.977 . S
O152 C158 1.272 . S
O153 Zn143 1.910 . S
O153 C159 1.231 . S
C154 O138 1.225 . S
C154 O160 1.298 . S
C155 O144 1.226 . S
C155 O145 1.307 1_655 S
C156 O148 1.303 . S
C156 O149 1.247 . S
C157 O146 1.253 . S
C157 O147 1.283 . S
C158 O150 1.304 . S
C158 O152 1.272 . S
C159 O151 1.311 . S
C159 O153 1.231 . S
O160 Zn142 1.953 . S
O160 C154 1.298 . S
O161 Zn162 1.953 . S
O161 C177 1.225 . S
Zn162 O161 1.953 . S
Zn162 O163 1.949 . S
Zn162 O169 1.919 . S
Zn162 O174 1.924 . S
O163 Zn162 1.949 . S
O163 Zn164 1.923 . S
O163 Zn165 1.950 . S
O163 Zn166 1.945 . S
Zn164 O163 1.923 . S
Zn164 O167 1.933 1_565 S
Zn164 O170 1.941 . S
Zn164 O171 1.965 . S
Zn165 O163 1.950 . S
Zn165 O172 1.938 . S
Zn165 O173 1.906 . S
Zn165 O183 1.953 . S
Zn166 O163 1.945 . S
Zn166 O168 1.932 . S
Zn166 O175 1.977 . S
Zn166 O176 1.910 . S
O167 Zn164 1.933 1_545 S
O167 C178 1.226 . S
O168 Zn166 1.932 . S
O168 C178 1.307 1_565 S
O169 Zn162 1.919 . S
O169 C180 1.253 . S
O170 Zn164 1.941 . S
O170 C180 1.283 . S
O171 Zn164 1.965 . S
O171 C179 1.303 . S
O172 Zn165 1.938 . S
O172 C179 1.247 . S
O173 Zn165 1.906 . S
O173 C181 1.304 . S
O174 Zn162 1.924 . S
O174 C182 1.311 . S
O175 Zn166 1.977 . S
O175 C181 1.272 . S
O176 Zn166 1.910 . S
O176 C182 1.231 . S
C177 O161 1.225 . S
C177 O183 1.298 . S
C178 O167 1.226 . S
C178 O168 1.307 1_545 S
C179 O171 1.303 . S
C179 O172 1.247 . S
C180 O169 1.253 . S
C180 O170 1.283 . S
C181 O173 1.304 . S
C181 O175 1.272 . S
C182 O174 1.311 . S
C182 O176 1.231 . S
O183 Zn165 1.953 . S
O183 C177 1.298 . S
O184 Zn185 1.953 . S
O184 C200 1.225 . S
Zn185 O184 1.953 . S
Zn185 O186 1.949 . S
Zn185 O192 1.919 . S
Zn185 O197 1.924 . S
O186 Zn185 1.949 . S
O186 Zn187 1.923 . S
O186 Zn188 1.950 . S
O186 Zn189 1.945 . S
Zn187 O186 1.923 . S
Zn187 O190 1.933 . S
Zn187 O193 1.941 . S
Zn187 O194 1.965 . S
Zn188 O186 1.950 . S
Zn188 O195 1.938 . S
Zn188 O196 1.906 . S
Zn188 O206 1.953 . S
Zn189 O186 1.945 . S
Zn189 O191 1.932 . S
Zn189 O198 1.977 . S
Zn189 O199 1.910 . S
O190 Zn187 1.933 . S
O190 C201 1.226 . S
O191 Zn189 1.932 . S
O191 C201 1.307 . S
O192 Zn185 1.919 . S
O192 C203 1.253 . S
O193 Zn187 1.941 . S
O193 C203 1.283 . S
O194 Zn187 1.965 . S
O194 C202 1.303 . S
O195 Zn188 1.938 . S
O195 C202 1.247 . S
O196 Zn188 1.906 . S
O196 C204 1.304 . S
O197 Zn185 1.924 . S
O197 C205 1.311 . S
O198 Zn189 1.977 . S
O198 C204 1.272 . S
O199 Zn189 1.910 . S
O199 C205 1.231 . S
C200 O184 1.225 . S
C200 O206 1.298 . S
C201 O190 1.226 . S
C201 O191 1.307 . S
C202 O194 1.303 . S
C202 O195 1.247 . S
C203 O192 1.253 . S
C203 O193 1.283 . S
C204 O196 1.304 . S
C204 O198 1.272 . S
C205 O197 1.311 . S
C205 O199 1.231 . S
O206 Zn188 1.953 . S
O206 C200 1.298 . S
O207 Zn208 1.953 . S
O207 C223 1.225 . S
Zn208 O207 1.953 . S
Zn208 O209 1.949 . S
Zn208 O215 1.919 . S
Zn208 O220 1.924 . S
O209 Zn208 1.949 . S
O209 Zn210 1.923 . S
O209 Zn211 1.950 . S
O209 Zn212 1.945 . S
Zn210 O209 1.923 . S
Zn210 O213 1.933 1_455 S
Zn210 O216 1.941 . S
Zn210 O217 1.965 . S
Zn211 O209 1.950 . S
Zn211 O218 1.938 . S
Zn211 O219 1.906 . S
Zn211 O229 1.953 . S
Zn212 O209 1.945 . S
Zn212 O214 1.932 . S
Zn212 O221 1.977 . S
Zn212 O222 1.910 . S
O213 Zn210 1.933 1_655 S
O213 C224 1.226 . S
O214 Zn212 1.932 . S
O214 C224 1.307 1_455 S
O215 Zn208 1.919 . S
O215 C226 1.253 . S
O216 Zn210 1.941 . S
O216 C226 1.283 . S
O217 Zn210 1.965 . S
O217 C225 1.303 . S
O218 Zn211 1.938 . S
O218 C225 1.247 . S
O219 Zn211 1.906 . S
O219 C227 1.304 . S
O220 Zn208 1.924 . S
O220 C228 1.311 . S
O221 Zn212 1.977 . S
O221 C227 1.272 . S
O222 Zn212 1.910 . S
O222 C228 1.231 . S
C223 O207 1.225 . S
C223 O229 1.298 . S
C224 O213 1.226 . S
C224 O214 1.307 1_655 S
C225 O217 1.303 . S
C225 O218 1.247 . S
C226 O215 1.253 . S
C226 O216 1.283 . S
C227 O219 1.304 . S
C227 O221 1.272 . S
C228 O220 1.311 . S
C228 O222 1.231 . S
O229 Zn211 1.953 . S
O229 C223 1.298 . S
O230 Zn231 1.953 . S
O230 C246 1.225 . S
Zn231 O230 1.953 . S
Zn231 O232 1.949 . S
Zn231 O238 1.919 . S
Zn231 O243 1.924 . S
O232 Zn231 1.949 . S
O232 Zn233 1.923 . S
O232 Zn234 1.950 . S
O232 Zn235 1.945 . S
Zn233 O232 1.923 . S
Zn233 O236 1.933 1_565 S
Zn233 O239 1.941 . S
Zn233 O240 1.965 . S
Zn234 O232 1.950 . S
Zn234 O241 1.938 . S
Zn234 O242 1.906 . S
Zn234 O252 1.953 . S
Zn235 O232 1.945 . S
Zn235 O237 1.932 . S
Zn235 O244 1.977 . S
Zn235 O245 1.910 . S
O236 Zn233 1.933 1_545 S
O236 C247 1.226 . S
O237 Zn235 1.932 . S
O237 C247 1.307 1_565 S
O238 Zn231 1.919 . S
O238 C249 1.253 . S
O239 Zn233 1.941 . S
O239 C249 1.283 . S
O240 Zn233 1.965 . S
O240 C248 1.303 . S
O241 Zn234 1.938 . S
O241 C248 1.247 . S
O242 Zn234 1.906 . S
O242 C250 1.304 . S
O243 Zn231 1.924 . S
O243 C251 1.311 . S
O244 Zn235 1.977 . S
O244 C250 1.272 . S
O245 Zn235 1.910 . S
O245 C251 1.231 . S
C246 O230 1.225 . S
C246 O252 1.298 . S
C247 O236 1.226 . S
C247 O237 1.307 1_545 S
C248 O240 1.303 . S
C248 O241 1.247 . S
C249 O238 1.253 . S
C249 O239 1.283 . S
C250 O242 1.304 . S
C250 O244 1.272 . S
C251 O243 1.311 . S
C251 O245 1.231 . S
O252 Zn234 1.953 . S
O252 C246 1.298 . S
O253 Zn254 1.953 . S
O253 C269 1.225 . S
Zn254 O253 1.953 . S
Zn254 O255 1.949 . S
Zn254 O261 1.919 . S
Zn254 O266 1.924 . S
O255 Zn254 1.949 . S
O255 Zn256 1.923 . S
O255 Zn257 1.950 . S
O255 Zn258 1.945 . S
Zn256 O255 1.923 . S
Zn256 O259 1.933 . S
Zn256 O262 1.941 . S
Zn256 O263 1.965 . S
Zn257 O255 1.950 . S
Zn257 O264 1.938 . S
Zn257 O265 1.906 . S
Zn257 O275 1.953 . S
Zn258 O255 1.945 . S
Zn258 O260 1.932 . S
Zn258 O267 1.977 . S
Zn258 O268 1.910 . S
O259 Zn256 1.933 . S
O259 C270 1.226 . S
O260 Zn258 1.932 . S
O260 C270 1.307 . S
O261 Zn254 1.919 . S
O261 C272 1.253 . S
O262 Zn256 1.941 . S
O262 C272 1.283 . S
O263 Zn256 1.965 . S
O263 C271 1.303 . S
O264 Zn257 1.938 . S
O264 C271 1.247 . S
O265 Zn257 1.906 . S
O265 C273 1.304 . S
O266 Zn254 1.924 . S
O266 C274 1.311 . S
O267 Zn258 1.977 . S
O267 C273 1.272 . S
O268 Zn258 1.910 . S
O268 C274 1.231 . S
C269 O253 1.225 . S
C269 O275 1.298 . S
C270 O259 1.226 . S
C270 O260 1.307 . S
C271 O263 1.303 . S
C271 O264 1.247 . S
C272 O261 1.253 . S
C272 O262 1.283 . S
C273 O265 1.304 . S
C273 O267 1.272 . S
C274 O266 1.311 . S
C274 O268 1.231 . S
O275 Zn257 1.953 . S
O275 C269 1.298 . S
C276 C277 1.391 . S
C276 C278 1.394 . S
C276 H292 0.931 . S
C277 C276 1.391 . S
C277 C281 1.376 . S
C278 C276 1.394 . S
C278 C279 1.369 . S
C278 C282 1.531 . S
C279 C278 1.369 . S
C279 C280 1.410 . S
C279 C287 1.503 . S
C280 C279 1.410 . S
C280 C281 1.392 . S
C280 C283 1.511 . S
C281 C277 1.376 . S
C281 C280 1.392 . S
C281 H293 0.929 . S
C282 C278 1.531 . S
C282 H294 0.960 . S
C282 H295 0.962 . S
C282 H296 0.960 . S
C283 C280 1.511 . S
C283 H297 0.961 . S
C283 H298 0.961 . S
C283 H299 0.961 . S
C284 C285 1.370 . S
C284 C286 1.363 . S
C284 H300 0.931 . S
C285 C284 1.370 . S
C285 C289 1.408 . S
C286 C284 1.363 . S
C286 C287 1.370 . S
C286 C290 1.524 . S
C287 C279 1.503 . S
C287 C286 1.370 . S
C287 C288 1.403 . S
C288 C287 1.403 . S
C288 C289 1.404 . S
C288 C291 1.539 . S
C289 C285 1.408 . S
C289 C288 1.404 . S
C289 H301 0.930 . S
C290 C286 1.524 . S
C290 H302 0.956 . S
C290 H303 0.961 . S
C290 H304 0.961 . S
C291 C288 1.539 . S
C291 H305 0.958 . S
C291 H306 0.961 . S
C291 H307 0.960 . S
H292 C276 0.931 . S
H293 C281 0.929 . S
H294 C282 0.960 . S
H295 C282 0.962 . S
H296 C282 0.960 . S
H297 C283 0.961 . S
H298 C283 0.961 . S
H299 C283 0.961 . S
H300 C284 0.931 . S
H301 C289 0.930 . S
H302 C290 0.956 . S
H303 C290 0.961 . S
H304 C290 0.961 . S
H305 C291 0.958 . S
H306 C291 0.961 . S
H307 C291 0.960 . S
C308 C309 1.391 . S
C308 C310 1.394 . S
C308 H324 0.918 1_565 S
C309 C308 1.391 . S
C309 C313 1.376 . S
C310 C308 1.394 . S
C310 C311 1.369 . S
C310 C314 1.531 . S
C311 C310 1.369 . S
C311 C312 1.410 . S
C311 C319 1.503 . S
C312 C311 1.410 . S
C312 C313 1.392 . S
C312 C315 1.511 . S
C313 C309 1.376 . S
C313 C312 1.392 . S
C313 H325 0.929 . S
C314 C310 1.531 . S
C314 H326 0.960 . S
C314 H327 0.962 . S
C314 H328 0.960 . S
C315 C312 1.511 . S
C315 H329 0.961 . S
C315 H330 0.961 . S
C315 H331 0.961 . S
C316 C317 1.370 . S
C316 C318 1.363 1_655 S
C316 H332 0.931 . S
C317 C316 1.370 . S
C317 C321 1.408 . S
C318 C316 1.363 1_455 S
C318 C319 1.370 . S
C318 C322 1.524 . S
C319 C311 1.503 . S
C319 C318 1.370 . S
C319 C320 1.403 . S
C320 C319 1.403 . S
C320 C321 1.404 1_455 S
C320 C323 1.539 . S
C321 C317 1.408 . S
C321 C320 1.404 1_655 S
C321 H333 0.930 . S
C322 C318 1.524 . S
C322 H334 0.956 . S
C322 H335 0.961 . S
C322 H336 0.961 . S
C323 C320 1.539 . S
C323 H337 0.958 . S
C323 H338 0.961 . S
C323 H339 0.960 . S
H324 C308 0.918 1_545 S
H325 C313 0.929 . S
H326 C314 0.960 . S
H327 C314 0.962 . S
H328 C314 0.960 . S
H329 C315 0.961 . S
H330 C315 0.961 . S
H331 C315 0.961 . S
H332 C316 0.931 . S
H333 C321 0.930 . S
H334 C322 0.956 . S
H335 C322 0.961 . S
H336 C322 0.961 . S
H337 C323 0.958 . S
H338 C323 0.961 . S
H339 C323 0.960 . S
C340 C341 1.391 . S
C340 C342 1.394 1_545 S
C340 H356 0.931 . S
C341 C340 1.391 . S
C341 C345 1.376 . S
C342 C340 1.394 1_565 S
C342 C343 1.369 . S
C342 C346 1.531 . S
C343 C342 1.369 . S
C343 C344 1.410 . S
C343 C351 1.503 . S
C344 C343 1.410 . S
C344 C345 1.392 1_565 S
C344 C347 1.511 . S
C345 C341 1.376 . S
C345 C344 1.392 1_545 S
C345 H357 0.929 . S
C346 C342 1.531 . S
C346 H358 0.960 . S
C346 H359 0.962 . S
C346 H360 0.960 . S
C347 C344 1.511 . S
C347 H361 0.961 . S
C347 H362 0.961 . S
C347 H363 0.961 . S
C348 C349 1.370 . S
C348 C350 1.363 . S
C348 H364 0.931 . S
C349 C348 1.370 . S
C349 C353 1.408 . S
C350 C348 1.363 . S
C350 C351 1.370 . S
C350 C354 1.524 . S
C351 C343 1.503 . S
C351 C350 1.370 . S
C351 C352 1.403 . S
C352 C351 1.403 . S
C352 C353 1.404 . S
C352 C355 1.539 . S
C353 C349 1.408 . S
C353 C352 1.404 . S
C353 H365 0.930 . S
C354 C350 1.524 . S
C354 H366 0.956 . S
C354 H367 0.961 . S
C354 H368 0.961 . S
C355 C352 1.539 . S
C355 H369 0.958 . S
C355 H370 0.961 . S
C355 H371 0.960 . S
H356 C340 0.931 . S
H357 C345 0.929 . S
H358 C346 0.960 . S
H359 C346 0.962 . S
H360 C346 0.960 . S
H361 C347 0.961 . S
H362 C347 0.961 . S
H363 C347 0.961 . S
H364 C348 0.931 . S
H365 C353 0.930 . S
H366 C354 0.956 . S
H367 C354 0.961 . S
H368 C354 0.961 . S
H369 C355 0.958 . S
H370 C355 0.961 . S
H371 C355 0.960 . S
C372 C373 1.391 . S
C372 C374 1.394 . S
C372 H388 0.931 . S
C373 C372 1.391 . S
C373 C377 1.376 . S
C374 C372 1.394 . S
C374 C375 1.369 . S
C374 C378 1.531 . S
C375 C374 1.369 . S
C375 C376 1.410 . S
C375 C383 1.503 . S
C376 C375 1.410 . S
C376 C377 1.392 . S
C376 C379 1.511 . S
C377 C373 1.376 . S
C377 C376 1.392 . S
C377 H389 0.929 . S
C378 C374 1.531 . S
C378 H390 0.960 . S
C378 H391 0.962 . S
C378 H392 0.960 . S
C379 C376 1.511 . S
C379 H393 0.961 . S
C379 H394 0.961 . S
C379 H395 0.961 . S
C380 C381 1.370 . S
C380 C382 1.363 . S
C380 H396 0.931 . S
C381 C380 1.370 . S
C381 C385 1.408 . S
C382 C380 1.363 . S
C382 C383 1.370 . S
C382 C386 1.524 . S
C383 C375 1.503 . S
C383 C382 1.370 . S
C383 C384 1.403 . S
C384 C383 1.403 . S
C384 C385 1.404 . S
C384 C387 1.539 . S
C385 C381 1.408 . S
C385 C384 1.404 . S
C385 H397 0.930 . S
C386 C382 1.524 . S
C386 H398 0.956 . S
C386 H399 0.961 . S
C386 H400 0.961 . S
C387 C384 1.539 . S
C387 H401 0.958 . S
C387 H402 0.961 . S
C387 H403 0.960 . S
H388 C372 0.931 . S
H389 C377 0.929 . S
H390 C378 0.960 . S
H391 C378 0.962 . S
H392 C378 0.960 . S
H393 C379 0.961 . S
H394 C379 0.961 . S
H395 C379 0.961 . S
H396 C380 0.931 . S
H397 C385 0.930 . S
H398 C386 0.956 . S
H399 C386 0.961 . S
H400 C386 0.961 . S
H401 C387 0.958 . S
H402 C387 0.961 . S
H403 C387 0.960 . S
C404 C405 1.391 . S
C404 C406 1.394 . S
C404 H420 0.931 . S
C405 C404 1.391 . S
C405 C409 1.376 . S
C406 C404 1.394 . S
C406 C407 1.369 . S
C406 C410 1.531 . S
C407 C406 1.369 . S
C407 C408 1.410 . S
C407 C415 1.503 . S
C408 C407 1.410 . S
C408 C409 1.392 . S
C408 C411 1.511 . S
C409 C405 1.376 . S
C409 C408 1.392 . S
C409 H421 0.929 . S
C410 C406 1.531 . S
C410 H422 0.960 . S
C410 H423 0.962 . S
C410 H424 0.960 . S
C411 C408 1.511 . S
C411 H425 0.961 . S
C411 H426 0.961 . S
C411 H427 0.961 . S
C412 C413 1.370 . S
C412 C414 1.363 1_655 S
C412 H428 0.931 . S
C413 C412 1.370 . S
C413 C417 1.408 . S
C414 C412 1.363 1_455 S
C414 C415 1.370 . S
C414 C418 1.524 . S
C415 C407 1.503 . S
C415 C414 1.370 . S
C415 C416 1.403 . S
C416 C415 1.403 . S
C416 C417 1.404 1_455 S
C416 C419 1.539 . S
C417 C413 1.408 . S
C417 C416 1.404 1_655 S
C417 H429 0.930 . S
C418 C414 1.524 . S
C418 H430 0.956 . S
C418 H431 0.961 . S
C418 H432 0.961 . S
C419 C416 1.539 . S
C419 H433 0.958 . S
C419 H434 0.961 . S
C419 H435 0.960 . S
H420 C404 0.931 . S
H421 C409 0.929 . S
H422 C410 0.960 . S
H423 C410 0.962 . S
H424 C410 0.960 . S
H425 C411 0.961 . S
H426 C411 0.961 . S
H427 C411 0.961 . S
H428 C412 0.931 . S
H429 C417 0.930 . S
H430 C418 0.956 . S
H431 C418 0.961 . S
H432 C418 0.961 . S
H433 C419 0.958 . S
H434 C419 0.961 . S
H435 C419 0.960 . S
C436 C437 1.391 . S
C436 C438 1.394 . S
C436 H452 0.931 . S
C437 C436 1.391 . S
C437 C441 1.376 . S
C438 C436 1.394 . S
C438 C439 1.369 . S
C438 C442 1.531 . S
C439 C438 1.369 . S
C439 C440 1.410 . S
C439 C447 1.503 . S
C440 C439 1.410 . S
C440 C441 1.392 . S
C440 C443 1.511 . S
C441 C437 1.376 . S
C441 C440 1.392 . S
C441 H453 0.929 . S
C442 C438 1.531 . S
C442 H454 0.960 . S
C442 H455 0.962 . S
C442 H456 0.960 . S
C443 C440 1.511 . S
C443 H457 0.961 . S
C443 H458 0.961 . S
C443 H459 0.961 . S
C444 C445 1.370 . S
C444 C446 1.363 1_545 S
C444 H460 0.931 . S
C445 C444 1.370 . S
C445 C449 1.408 . S
C446 C444 1.363 1_565 S
C446 C447 1.370 . S
C446 C450 1.524 . S
C447 C439 1.503 . S
C447 C446 1.370 . S
C447 C448 1.403 . S
C448 C447 1.403 . S
C448 C449 1.404 1_565 S
C448 C451 1.539 . S
C449 C445 1.408 . S
C449 C448 1.404 1_545 S
C449 H461 0.930 . S
C450 C446 1.524 . S
C450 H462 0.956 . S
C450 H463 0.961 . S
C450 H464 0.961 . S
C451 C448 1.539 . S
C451 H465 0.958 . S
C451 H466 0.961 . S
C451 H467 0.960 . S
H452 C436 0.931 . S
H453 C441 0.929 . S
H454 C442 0.960 . S
H455 C442 0.962 . S
H456 C442 0.960 . S
H457 C443 0.961 . S
H458 C443 0.961 . S
H459 C443 0.961 . S
H460 C444 0.931 . S
H461 C449 0.930 . S
H462 C450 0.956 . S
H463 C450 0.961 . S
H464 C450 0.961 . S
H465 C451 0.958 . S
H466 C451 0.961 . S
H467 C451 0.960 . S
C468 C469 1.391 . S
C468 C470 1.394 . S
C468 H484 0.931 . S
C469 C468 1.391 . S
C469 C473 1.376 . S
C470 C468 1.394 . S
C470 C471 1.369 . S
C470 C474 1.531 . S
C471 C470 1.369 . S
C471 C472 1.410 . S
C471 C479 1.503 . S
C472 C471 1.410 . S
C472 C473 1.392 . S
C472 C475 1.511 . S
C473 C469 1.376 . S
C473 C472 1.392 . S
C473 H485 0.929 . S
C474 C470 1.531 . S
C474 H486 0.960 . S
C474 H487 0.962 . S
C474 H488 0.960 . S
C475 C472 1.511 . S
C475 H489 0.961 . S
C475 H490 0.961 . S
C475 H491 0.961 . S
C476 C477 1.370 . S
C476 C478 1.363 . S
C476 H492 0.931 . S
C477 C476 1.370 . S
C477 C481 1.408 . S
C478 C476 1.363 . S
C478 C479 1.370 . S
C478 C482 1.524 . S
C479 C471 1.503 . S
C479 C478 1.370 . S
C479 C480 1.403 . S
C480 C479 1.403 . S
C480 C481 1.404 . S
C480 C483 1.539 . S
C481 C477 1.408 . S
C481 C480 1.404 . S
C481 H493 0.930 . S
C482 C478 1.524 . S
C482 H494 0.956 . S
C482 H495 0.961 . S
C482 H496 0.961 . S
C483 C480 1.539 . S
C483 H497 0.958 . S
C483 H498 0.961 . S
C483 H499 0.960 . S
H484 C468 0.931 . S
H485 C473 0.929 . S
H486 C474 0.960 . S
H487 C474 0.962 . S
H488 C474 0.960 . S
H489 C475 0.961 . S
H490 C475 0.961 . S
H491 C475 0.961 . S
H492 C476 0.931 . S
H493 C481 0.930 . S
H494 C482 0.956 . S
H495 C482 0.961 . S
H496 C482 0.961 . S
H497 C483 0.958 . S
H498 C483 0.961 . S
H499 C483 0.960 . S
C500 C501 1.391 . S
C500 C502 1.394 1_455 S
C500 H516 0.931 . S
C501 C500 1.391 . S
C501 C505 1.376 . S
C502 C500 1.394 1_655 S
C502 C503 1.369 . S
C502 C506 1.531 . S
C503 C502 1.369 . S
C503 C504 1.410 . S
C503 C511 1.503 . S
C504 C503 1.410 . S
C504 C505 1.392 1_655 S
C504 C507 1.511 . S
C505 C501 1.376 . S
C505 C504 1.392 1_455 S
C505 H517 0.929 . S
C506 C502 1.531 . S
C506 H518 0.960 . S
C506 H519 0.962 . S
C506 H520 0.960 . S
C507 C504 1.511 . S
C507 H521 0.961 . S
C507 H522 0.961 . S
C507 H523 0.961 . S
C508 C509 1.370 . S
C508 C510 1.363 . S
C508 H524 0.931 . S
C509 C508 1.370 . S
C509 C513 1.408 . S
C510 C508 1.363 . S
C510 C511 1.370 . S
C510 C514 1.524 . S
C511 C503 1.503 . S
C511 C510 1.370 . S
C511 C512 1.403 . S
C512 C511 1.403 . S
C512 C513 1.404 . S
C512 C515 1.539 . S
C513 C509 1.408 . S
C513 C512 1.404 . S
C513 H525 0.930 . S
C514 C510 1.524 . S
C514 H526 0.956 . S
C514 H527 0.961 . S
C514 H528 0.961 . S
C515 C512 1.539 . S
C515 H529 0.958 . S
C515 H530 0.961 . S
C515 H531 0.960 . S
H516 C500 0.931 . S
H517 C505 0.929 . S
H518 C506 0.960 . S
H519 C506 0.962 . S
H520 C506 0.960 . S
H521 C507 0.961 . S
H522 C507 0.961 . S
H523 C507 0.961 . S
H524 C508 0.931 . S
H525 C513 0.930 . S
H526 C514 0.956 . S
H527 C514 0.961 . S
H528 C514 0.961 . S
H529 C515 0.958 . S
H530 C515 0.961 . S
H531 C515 0.960 . S
C532 C533 1.391 . S
C532 C534 1.394 1_565 S
C532 H548 0.931 . S
C533 C532 1.391 . S
C533 C537 1.376 . S
C534 C532 1.394 1_545 S
C534 C535 1.369 . S
C534 C538 1.531 . S
C535 C534 1.369 . S
C535 C536 1.410 . S
C535 C543 1.503 . S
C536 C535 1.410 . S
C536 C537 1.392 1_545 S
C536 C539 1.511 . S
C537 C533 1.376 . S
C537 C536 1.392 1_565 S
C537 H549 0.929 . S
C538 C534 1.531 . S
C538 H550 0.960 . S
C538 H551 0.962 . S
C538 H552 0.960 . S
C539 C536 1.511 . S
C539 H553 0.961 . S
C539 H554 0.961 . S
C539 H555 0.961 . S
C540 C541 1.370 . S
C540 C542 1.363 . S
C540 H556 0.931 . S
C541 C540 1.370 . S
C541 C545 1.408 . S
C542 C540 1.363 . S
C542 C543 1.370 . S
C542 C546 1.524 . S
C543 C535 1.503 . S
C543 C542 1.370 . S
C543 C544 1.403 . S
C544 C543 1.403 . S
C544 C545 1.404 . S
C544 C547 1.539 . S
C545 C541 1.408 . S
C545 C544 1.404 . S
C545 H557 0.930 . S
C546 C542 1.524 . S
C546 H558 0.956 . S
C546 H559 0.961 . S
C546 H560 0.961 . S
C547 C544 1.539 . S
C547 H561 0.958 . S
C547 H562 0.961 . S
C547 H563 0.960 . S
H548 C532 0.931 . S
H549 C537 0.929 . S
H550 C538 0.960 . S
H551 C538 0.962 . S
H552 C538 0.960 . S
H553 C539 0.961 . S
H554 C539 0.961 . S
H555 C539 0.961 . S
H556 C540 0.931 . S
H557 C545 0.930 . S
H558 C546 0.956 . S
H559 C546 0.961 . S
H560 C546 0.961 . S
H561 C547 0.958 . S
H562 C547 0.961 . S
H563 C547 0.960 . S
C564 C565 1.391 . S
C564 C566 1.394 . S
C564 H580 0.931 . S
C565 C564 1.391 . S
C565 C569 1.376 . S
C566 C564 1.394 . S
C566 C567 1.369 . S
C566 C570 1.531 . S
C567 C566 1.369 . S
C567 C568 1.410 . S
C567 C575 1.503 . S
C568 C567 1.410 . S
C568 C569 1.392 . S
C568 C571 1.511 . S
C569 C565 1.376 . S
C569 C568 1.392 . S
C569 H581 0.929 . S
C570 C566 1.531 . S
C570 H582 0.960 . S
C570 H583 0.962 . S
C570 H584 0.960 . S
C571 C568 1.511 . S
C571 H585 0.961 . S
C571 H586 0.961 . S
C571 H587 0.961 . S
C572 C573 1.370 . S
C572 C574 1.363 . S
C572 H588 0.931 . S
C573 C572 1.370 . S
C573 C577 1.408 . S
C574 C572 1.363 . S
C574 C575 1.370 . S
C574 C578 1.524 . S
C575 C567 1.503 . S
C575 C574 1.370 . S
C575 C576 1.403 . S
C576 C575 1.403 . S
C576 C577 1.404 . S
C576 C579 1.539 . S
C577 C573 1.408 . S
C577 C576 1.404 . S
C577 H589 0.930 . S
C578 C574 1.524 . S
C578 H590 0.956 . S
C578 H591 0.961 . S
C578 H592 0.961 . S
C579 C576 1.539 . S
C579 H593 0.958 . S
C579 H594 0.961 . S
C579 H595 0.960 . S
H580 C564 0.931 . S
H581 C569 0.929 . S
H582 C570 0.960 . S
H583 C570 0.962 . S
H584 C570 0.960 . S
H585 C571 0.961 . S
H586 C571 0.961 . S
H587 C571 0.961 . S
H588 C572 0.931 . S
H589 C577 0.930 . S
H590 C578 0.956 . S
H591 C578 0.961 . S
H592 C578 0.961 . S
H593 C579 0.958 . S
H594 C579 0.961 . S
H595 C579 0.960 . S
C596 C597 1.391 . S
C596 C598 1.394 1_455 S
C596 H612 0.931 . S
C597 C596 1.391 . S
C597 C601 1.376 . S
C598 C596 1.394 1_655 S
C598 C599 1.369 . S
C598 C602 1.531 . S
C599 C598 1.369 . S
C599 C600 1.410 . S
C599 C607 1.503 . S
C600 C599 1.410 . S
C600 C601 1.392 1_655 S
C600 C603 1.511 . S
C601 C597 1.376 . S
C601 C600 1.392 1_455 S
C601 H613 0.929 . S
C602 C598 1.531 . S
C602 H614 0.960 . S
C602 H615 0.962 . S
C602 H616 0.960 . S
C603 C600 1.511 . S
C603 H617 0.961 . S
C603 H618 0.961 . S
C603 H619 0.961 . S
C604 C605 1.370 . S
C604 C606 1.363 . S
C604 H620 0.931 . S
C605 C604 1.370 . S
C605 C609 1.408 . S
C606 C604 1.363 . S
C606 C607 1.370 . S
C606 C610 1.524 . S
C607 C599 1.503 . S
C607 C606 1.370 . S
C607 C608 1.403 . S
C608 C607 1.403 . S
C608 C609 1.404 . S
C608 C611 1.539 . S
C609 C605 1.408 . S
C609 C608 1.404 . S
C609 H621 0.930 . S
C610 C606 1.524 . S
C610 H622 0.956 . S
C610 H623 0.961 . S
C610 H624 0.961 . S
C611 C608 1.539 . S
C611 H625 0.958 . S
C611 H626 0.961 . S
C611 H627 0.960 . S
H612 C596 0.931 . S
H613 C601 0.929 . S
H614 C602 0.960 . S
H615 C602 0.962 . S
H616 C602 0.960 . S
H617 C603 0.961 . S
H618 C603 0.961 . S
H619 C603 0.961 . S
H620 C604 0.931 . S
H621 C609 0.930 . S
H622 C610 0.956 . S
H623 C610 0.961 . S
H624 C610 0.961 . S
H625 C611 0.958 . S
H626 C611 0.961 . S
H627 C611 0.960 . S
C628 C629 1.391 . S
C628 C630 1.394 . S
C628 H644 0.931 . S
C629 C628 1.391 . S
C629 C633 1.376 . S
C630 C628 1.394 . S
C630 C631 1.369 . S
C630 C634 1.531 . S
C631 C630 1.369 . S
C631 C632 1.410 . S
C631 C639 1.503 . S
C632 C631 1.410 . S
C632 C633 1.392 . S
C632 C635 1.511 . S
C633 C629 1.376 . S
C633 C632 1.392 . S
C633 H645 0.929 . S
C634 C630 1.531 . S
C634 H646 0.960 . S
C634 H647 0.962 . S
C634 H648 0.960 . S
C635 C632 1.511 . S
C635 H649 0.961 . S
C635 H650 0.961 . S
C635 H651 0.961 . S
C636 C637 1.370 . S
C636 C638 1.363 1_565 S
C636 H652 0.931 . S
C637 C636 1.370 . S
C637 C641 1.408 . S
C638 C636 1.363 1_545 S
C638 C639 1.370 . S
C638 C642 1.524 . S
C639 C631 1.503 . S
C639 C638 1.370 . S
C639 C640 1.403 . S
C640 C639 1.403 . S
C640 C641 1.404 1_545 S
C640 C643 1.539 . S
C641 C637 1.408 . S
C641 C640 1.404 1_565 S
C641 H653 0.930 . S
C642 C638 1.524 . S
C642 H654 0.956 . S
C642 H655 0.961 . S
C642 H656 0.961 . S
C643 C640 1.539 . S
C643 H657 0.958 . S
C643 H658 0.961 . S
C643 H659 0.960 . S
H644 C628 0.931 . S
H645 C633 0.929 . S
H646 C634 0.960 . S
H647 C634 0.962 . S
H648 C634 0.960 . S
H649 C635 0.961 . S
H650 C635 0.961 . S
H651 C635 0.961 . S
H652 C636 0.931 . S
H653 C641 0.930 . S
H654 C642 0.956 . S
H655 C642 0.961 . S
H656 C642 0.961 . S
H657 C643 0.958 . S
H658 C643 0.961 . S
H659 C643 0.960 . S
C660 C661 1.391 . S
C660 C662 1.394 . S
C660 H676 0.931 . S
C661 C660 1.391 . S
C661 C665 1.376 . S
C662 C660 1.394 . S
C662 C663 1.369 . S
C662 C666 1.531 . S
C663 C662 1.369 . S
C663 C664 1.410 . S
C663 C671 1.503 . S
C664 C663 1.410 . S
C664 C665 1.392 . S
C664 C667 1.511 . S
C665 C661 1.376 . S
C665 C664 1.392 . S
C665 H677 0.929 . S
C666 C662 1.531 . S
C666 H678 0.960 . S
C666 H679 0.962 . S
C666 H680 0.960 . S
C667 C664 1.511 . S
C667 H681 0.961 . S
C667 H682 0.961 . S
C667 H683 0.961 . S
C668 C669 1.370 . S
C668 C670 1.363 . S
C668 H684 0.931 . S
C669 C668 1.370 . S
C669 C673 1.408 . S
C670 C668 1.363 . S
C670 C671 1.370 . S
C670 C674 1.524 . S
C671 C663 1.503 . S
C671 C670 1.370 . S
C671 C672 1.403 . S
C672 C671 1.403 . S
C672 C673 1.404 . S
C672 C675 1.539 . S
C673 C669 1.408 . S
C673 C672 1.404 . S
C673 H685 0.930 . S
C674 C670 1.524 . S
C674 H686 0.956 . S
C674 H687 0.961 . S
C674 H688 0.961 1_545 S
C675 C672 1.539 . S
C675 H689 0.958 . S
C675 H690 0.961 . S
C675 H691 0.960 . S
H676 C660 0.931 . S
H677 C665 0.929 . S
H678 C666 0.960 . S
H679 C666 0.962 . S
H680 C666 0.960 . S
H681 C667 0.961 . S
H682 C667 0.961 . S
H683 C667 0.961 . S
H684 C668 0.931 . S
H685 C673 0.930 . S
H686 C674 0.956 . S
H687 C674 0.961 . S
H688 C674 0.961 1_565 S
H689 C675 0.958 . S
H690 C675 0.961 . S
H691 C675 0.960 . S
C692 C693 1.391 . S
C692 C694 1.394 . S
C692 H708 0.931 . S
C693 C692 1.391 . S
C693 C697 1.376 . S
C694 C692 1.394 . S
C694 C695 1.369 . S
C694 C698 1.531 . S
C695 C694 1.369 . S
C695 C696 1.410 . S
C695 C703 1.503 . S
C696 C695 1.410 . S
C696 C697 1.392 . S
C696 C699 1.511 . S
C697 C693 1.376 . S
C697 C696 1.392 . S
C697 H709 0.929 . S
C698 C694 1.531 . S
C698 H710 0.960 . S
C698 H711 0.962 . S
C698 H712 0.960 . S
C699 C696 1.511 . S
C699 H713 0.961 . S
C699 H714 0.961 . S
C699 H715 0.961 . S
C700 C701 1.370 . S
C700 C702 1.363 . S
C700 H716 0.931 . S
C701 C700 1.370 . S
C701 C705 1.408 . S
C702 C700 1.363 . S
C702 C703 1.370 . S
C702 C706 1.524 . S
C703 C695 1.503 . S
C703 C702 1.370 . S
C703 C704 1.403 . S
C704 C703 1.403 . S
C704 C705 1.404 . S
C704 C707 1.539 . S
C705 C701 1.408 . S
C705 C704 1.404 . S
C705 H717 0.930 . S
C706 C702 1.524 . S
C706 H718 0.956 . S
C706 H719 0.961 . S
C706 H720 0.961 . S
C707 C704 1.539 . S
C707 H721 0.958 . S
C707 H722 0.961 . S
C707 H723 0.960 . S
H708 C692 0.931 . S
H709 C697 0.929 . S
H710 C698 0.960 . S
H711 C698 0.962 . S
H712 C698 0.960 . S
H713 C699 0.961 . S
H714 C699 0.961 . S
H715 C699 0.961 . S
H716 C700 0.931 . S
H717 C705 0.930 . S
H718 C706 0.956 . S
H719 C706 0.961 . S
H720 C706 0.961 . S
H721 C707 0.958 . S
H722 C707 0.961 . S
H723 C707 0.960 . S
C724 C725 1.391 . S
C724 C726 1.394 . S
C724 H740 0.931 . S
C725 C724 1.391 . S
C725 C729 1.376 . S
C726 C724 1.394 . S
C726 C727 1.369 . S
C726 C730 1.531 . S
C727 C726 1.369 . S
C727 C728 1.410 . S
C727 C735 1.503 . S
C728 C727 1.410 . S
C728 C729 1.392 . S
C728 C731 1.511 . S
C729 C725 1.376 . S
C729 C728 1.392 . S
C729 H741 0.929 . S
C730 C726 1.531 . S
C730 H742 0.960 . S
C730 H743 0.962 . S
C730 H744 0.960 . S
C731 C728 1.511 . S
C731 H745 0.961 1_655 S
C731 H746 0.961 . S
C731 H747 0.961 1_655 S
C732 C733 1.370 . S
C732 C734 1.363 . S
C732 H748 0.931 . S
C733 C732 1.370 . S
C733 C737 1.408 . S
C734 C732 1.363 . S
C734 C735 1.370 . S
C734 C738 1.524 . S
C735 C727 1.503 . S
C735 C734 1.370 . S
C735 C736 1.403 . S
C736 C735 1.403 . S
C736 C737 1.404 . S
C736 C739 1.539 . S
C737 C733 1.408 . S
C737 C736 1.404 . S
C737 H749 0.930 . S
C738 C734 1.524 . S
C738 H750 0.956 . S
C738 H751 0.961 . S
C738 H752 0.961 . S
C739 C736 1.539 . S
C739 H753 0.958 . S
C739 H754 0.961 . S
C739 H755 0.960 . S
H740 C724 0.931 . S
H741 C729 0.929 . S
H742 C730 0.960 . S
H743 C730 0.962 . S
H744 C730 0.960 . S
H745 C731 0.961 1_455 S
H746 C731 0.961 . S
H747 C731 0.961 1_455 S
H748 C732 0.931 . S
H749 C737 0.930 . S
H750 C738 0.956 . S
H751 C738 0.961 . S
H752 C738 0.961 . S
H753 C739 0.958 . S
H754 C739 0.961 . S
H755 C739 0.960 . S
C756 C757 1.391 . S
C756 C758 1.394 . S
C756 H772 0.931 . S
C757 C756 1.391 . S
C757 C761 1.376 . S
C758 C756 1.394 . S
C758 C759 1.369 . S
C758 C762 1.531 . S
C759 C758 1.369 . S
C759 C760 1.410 . S
C759 C767 1.503 . S
C760 C759 1.410 . S
C760 C761 1.392 . S
C760 C763 1.511 . S
C761 C757 1.376 . S
C761 C760 1.392 . S
C761 H773 0.929 . S
C762 C758 1.531 . S
C762 H774 0.960 . S
C762 H775 0.962 . S
C762 H776 0.960 . S
C763 C760 1.511 . S
C763 H777 0.961 . S
C763 H778 0.961 . S
C763 H779 0.961 . S
C764 C765 1.370 . S
C764 C766 1.363 . S
C764 H780 0.931 . S
C765 C764 1.370 . S
C765 C769 1.408 . S
C766 C764 1.363 . S
C766 C767 1.370 . S
C766 C770 1.524 . S
C767 C759 1.503 . S
C767 C766 1.370 . S
C767 C768 1.403 . S
C768 C767 1.403 . S
C768 C769 1.404 . S
C768 C771 1.539 . S
C769 C765 1.408 . S
C769 C768 1.404 . S
C769 H781 0.930 . S
C770 C766 1.524 . S
C770 H782 0.956 . S
C770 H783 0.961 . S
C770 H784 0.961 . S
C771 C768 1.539 . S
C771 H785 0.958 . S
C771 H786 0.961 1_455 S
C771 H787 0.958 . S
H772 C756 0.931 . S
H773 C761 0.929 . S
H774 C762 0.960 . S
H775 C762 0.962 . S
H776 C762 0.960 . S
H777 C763 0.961 . S
H778 C763 0.961 . S
H779 C763 0.961 . S
H780 C764 0.931 . S
H781 C769 0.930 . S
H782 C770 0.956 . S
H783 C770 0.961 . S
H784 C770 0.961 . S
H785 C771 0.958 . S
H786 C771 0.961 1_655 S
H787 C771 0.958 . S
C788 C789 1.391 . S
C788 C790 1.394 . S
C788 H804 0.931 . S
C789 C788 1.391 . S
C789 C793 1.376 . S
C790 C788 1.394 . S
C790 C791 1.369 . S
C790 C794 1.531 . S
C791 C790 1.369 . S
C791 C792 1.410 . S
C791 C799 1.503 . S
C792 C791 1.410 . S
C792 C793 1.392 . S
C792 C795 1.511 . S
C793 C789 1.376 . S
C793 C792 1.392 . S
C793 H805 0.929 . S
C794 C790 1.531 . S
C794 H806 0.960 . S
C794 H807 0.962 . S
C794 H808 0.960 . S
C795 C792 1.511 . S
C795 H809 0.961 . S
C795 H810 0.961 . S
C795 H811 0.961 . S
C796 C797 1.370 . S
C796 C798 1.363 . S
C796 H812 0.931 . S
C797 C796 1.370 . S
C797 C801 1.408 . S
C798 C796 1.363 . S
C798 C799 1.370 . S
C798 C802 1.524 . S
C799 C791 1.503 . S
C799 C798 1.370 . S
C799 C800 1.403 . S
C800 C799 1.403 . S
C800 C801 1.404 . S
C800 C803 1.539 . S
C801 C797 1.408 . S
C801 C800 1.404 . S
C801 H813 0.930 . S
C802 C798 1.524 . S
C802 H814 0.956 . S
C802 H815 0.961 . S
C802 H816 0.961 . S
C803 C800 1.539 . S
C803 H817 0.958 . S
C803 H818 0.961 . S
C803 H819 0.960 . S
H804 C788 0.931 . S
H805 C793 0.929 . S
H806 C794 0.960 . S
H807 C794 0.962 . S
H808 C794 0.960 . S
H809 C795 0.961 . S
H810 C795 0.961 . S
H811 C795 0.961 . S
H812 C796 0.931 . S
H813 C801 0.930 . S
H814 C802 0.956 . S
H815 C802 0.961 . S
H816 C802 0.961 . S
H817 C803 0.958 . S
H818 C803 0.961 . S
H819 C803 0.960 . S
C820 C821 1.391 . S
C820 C822 1.394 . S
C820 H836 0.931 . S
C821 C820 1.391 . S
C821 C825 1.376 . S
C822 C820 1.394 . S
C822 C823 1.369 . S
C822 C826 1.531 . S
C823 C822 1.369 . S
C823 C824 1.410 . S
C823 C831 1.503 . S
C824 C823 1.410 . S
C824 C825 1.392 . S
C824 C827 1.511 . S
C825 C821 1.376 . S
C825 C824 1.392 . S
C825 H837 0.929 . S
C826 C822 1.531 . S
C826 H838 0.960 . S
C826 H839 0.962 . S
C826 H840 0.960 . S
C827 C824 1.511 . S
C827 H841 0.961 . S
C827 H842 0.961 . S
C827 H843 0.961 . S
C828 C829 1.370 . S
C828 C830 1.363 . S
C828 H844 0.931 . S
C829 C828 1.370 . S
C829 C833 1.408 . S
C830 C828 1.363 . S
C830 C831 1.370 . S
C830 C834 1.524 . S
C831 C823 1.503 . S
C831 C830 1.370 . S
C831 C832 1.403 . S
C832 C831 1.403 . S
C832 C833 1.404 . S
C832 C835 1.539 . S
C833 C829 1.408 . S
C833 C832 1.404 . S
C833 H845 0.930 . S
C834 C830 1.524 . S
C834 H846 0.956 . S
C834 H847 0.961 . S
C834 H848 0.961 . S
C835 C832 1.539 . S
C835 H849 0.958 . S
C835 H850 0.961 . S
C835 H851 0.960 . S
H836 C820 0.931 . S
H837 C825 0.929 . S
H838 C826 0.960 . S
H839 C826 0.962 . S
H840 C826 0.960 . S
H841 C827 0.961 . S
H842 C827 0.961 . S
H843 C827 0.961 . S
H844 C828 0.931 . S
H845 C833 0.930 . S
H846 C834 0.956 . S
H847 C834 0.961 . S
H848 C834 0.961 . S
H849 C835 0.958 . S
H850 C835 0.961 . S
H851 C835 0.960 . S
C852 C853 1.391 . S
C852 C854 1.394 1_565 S
C852 H868 0.931 . S
C853 C852 1.391 . S
C853 C857 1.376 . S
C854 C852 1.394 1_545 S
C854 C855 1.369 1_545 S
C854 C858 1.531 . S
C855 C854 1.369 1_565 S
C855 C856 1.410 . S
C855 C863 1.503 1_566 S
C856 C855 1.410 . S
C856 C857 1.392 . S
C856 C859 1.541 . S
C857 C853 1.376 . S
C857 C856 1.392 . S
C857 H869 0.929 . S
C858 C854 1.531 . S
C858 H870 0.960 . S
C858 H871 0.962 . S
C858 H872 0.960 . S
C859 C856 1.541 . S
C859 H873 0.968 . S
C859 H874 0.920 1_556 S
C859 H875 0.967 . S
C860 C861 1.370 . S
C860 C862 1.363 1_545 S
C860 H876 0.931 . S
C861 C860 1.370 . S
C861 C865 1.408 . S
C862 C860 1.363 1_565 S
C862 C863 1.370 1_565 S
C862 C866 1.524 . S
C863 C855 1.503 1_544 S
C863 C862 1.370 1_545 S
C863 C864 1.403 . S
C864 C863 1.403 . S
C864 C865 1.404 . S
C864 C867 1.539 1_554 S
C865 C861 1.408 . S
C865 C864 1.404 . S
C865 H877 0.930 . S
C866 C862 1.524 . S
C866 H878 0.956 . S
C866 H879 0.961 . S
C866 H880 0.961 . S
C867 C864 1.539 1_556 S
C867 H881 0.958 . S
C867 H882 0.961 1_556 S
C867 H883 0.960 . S
H868 C852 0.931 . S
H869 C857 0.929 . S
H870 C858 0.960 . S
H871 C858 0.962 . S
H872 C858 0.960 . S
H873 C859 0.968 . S
H874 C859 0.920 1_554 S
H875 C859 0.967 . S
H876 C860 0.931 . S
H877 C865 0.930 . S
H878 C866 0.956 . S
H879 C866 0.961 . S
H880 C866 0.961 . S
H881 C867 0.958 . S
H882 C867 0.961 1_554 S
H883 C867 0.960 . S
C884 C885 1.391 . S
C884 C886 1.394 . S
C884 H900 0.931 . S
C885 C884 1.391 . S
C885 C889 1.376 . S
C886 C884 1.394 . S
C886 C887 1.369 . S
C886 C890 1.531 . S
C887 C886 1.369 . S
C887 C888 1.410 . S
C887 C895 1.503 . S
C888 C887 1.410 . S
C888 C889 1.392 . S
C888 C891 1.511 . S
C889 C885 1.376 . S
C889 C888 1.392 . S
C889 H901 0.929 . S
C890 C886 1.531 . S
C890 H902 0.960 . S
C890 H903 0.962 . S
C890 H904 0.960 . S
C891 C888 1.511 . S
C891 H905 0.961 . S
C891 H906 0.961 . S
C891 H907 0.961 . S
C892 C893 1.370 . S
C892 C894 1.363 . S
C892 H908 0.931 . S
C893 C892 1.370 . S
C893 C897 1.408 . S
C894 C892 1.363 . S
C894 C895 1.370 . S
C894 C898 1.524 . S
C895 C887 1.503 . S
C895 C894 1.370 . S
C895 C896 1.403 . S
C896 C895 1.403 . S
C896 C897 1.404 . S
C896 C899 1.539 . S
C897 C893 1.408 . S
C897 C896 1.404 . S
C897 H909 0.930 . S
C898 C894 1.524 . S
C898 H910 0.956 . S
C898 H911 0.961 . S
C898 H912 0.961 . S
C899 C896 1.539 . S
C899 H913 0.958 . S
C899 H914 0.961 . S
C899 H915 0.960 . S
H900 C884 0.931 . S
H901 C889 0.929 . S
H902 C890 0.960 . S
H903 C890 0.962 . S
H904 C890 0.960 . S
H905 C891 0.961 . S
H906 C891 0.961 . S
H907 C891 0.961 . S
H908 C892 0.931 . S
H909 C897 0.930 . S
H910 C898 0.956 . S
H911 C898 0.961 . S
H912 C898 0.961 . S
H913 C899 0.958 . S
H914 C899 0.961 . S
H915 C899 0.960 . S
C916 C917 1.391 . S
C916 C918 1.394 1_455 S
C916 H932 0.931 1_455 S
C917 C916 1.391 . S
C917 C921 1.376 . S
C918 C916 1.394 1_655 S
C918 C919 1.369 1_655 S
C918 C922 1.531 . S
C919 C918 1.369 1_455 S
C919 C920 1.410 . S
C919 C927 1.503 1_456 S
C920 C919 1.410 . S
C920 C921 1.392 . S
C920 C923 1.511 1_556 S
C921 C917 1.376 . S
C921 C920 1.392 . S
C921 H933 0.929 . S
C922 C918 1.531 . S
C922 H934 0.960 . S
C922 H935 0.962 . S
C922 H936 0.960 . S
C923 C920 1.511 1_554 S
C923 H937 0.970 . S
C923 H938 0.961 . S
C923 H939 0.961 . S
C924 C925 1.370 . S
C924 C926 1.363 . S
C924 H940 0.931 . S
C925 C924 1.370 . S
C925 C929 1.408 . S
C926 C924 1.363 . S
C926 C927 1.370 . S
C926 C930 1.524 1_655 S
C927 C919 1.503 1_654 S
C927 C926 1.370 . S
C927 C928 1.403 . S
C928 C927 1.403 . S
C928 C929 1.404 . S
C928 C931 1.539 . S
C929 C925 1.408 . S
C929 C928 1.404 . S
C929 H941 0.930 . S
C930 C926 1.524 1_455 S
C930 H942 0.956 . S
C930 H943 0.961 . S
C930 H944 0.961 . S
C931 C928 1.539 . S
C931 H945 0.958 1_554 S
C931 H946 0.961 . S
C931 H947 0.960 1_554 S
H932 C916 0.931 1_655 S
H933 C921 0.929 . S
H934 C922 0.960 . S
H935 C922 0.962 . S
H936 C922 0.960 . S
H937 C923 0.970 . S
H938 C923 0.961 . S
H939 C923 0.961 . S
H940 C924 0.931 . S
H941 C929 0.930 . S
H942 C930 0.956 . S
H943 C930 0.961 . S
H944 C930 0.961 . S
H945 C931 0.958 1_556 S
H946 C931 0.961 . S
H947 C931 0.960 1_556 S
C948 C949 1.391 . S
C948 C950 1.394 . S
C948 H964 0.931 . S
C949 C948 1.391 . S
C949 C953 1.376 . S
C950 C948 1.394 . S
C950 C951 1.369 . S
C950 C954 1.531 1_545 S
C951 C950 1.369 . S
C951 C952 1.410 . S
C951 C959 1.503 1_545 S
C952 C951 1.410 . S
C952 C953 1.392 . S
C952 C955 1.511 . S
C953 C949 1.376 . S
C953 C952 1.392 . S
C953 H965 0.929 . S
C954 C950 1.531 1_565 S
C954 H966 0.960 . S
C954 H967 0.962 . S
C954 H968 0.960 . S
C955 C952 1.511 . S
C955 H969 0.961 . S
C955 H970 0.961 . S
C955 H971 0.961 . S
C956 C957 1.370 . S
C956 C958 1.363 1_565 S
C956 H972 0.931 1_565 S
C957 C956 1.370 . S
C957 C961 1.408 . S
C958 C956 1.363 1_545 S
C958 C959 1.370 1_545 S
C958 C962 1.524 . S
C959 C951 1.503 1_565 S
C959 C958 1.370 1_565 S
C959 C960 1.403 . S
C960 C959 1.403 . S
C960 C961 1.404 . S
C960 C963 1.539 . S
C961 C957 1.408 . S
C961 C960 1.404 . S
C961 H973 0.930 . S
C962 C958 1.524 . S
C962 H974 0.956 . S
C962 H975 0.961 . S
C962 H976 0.961 . S
C963 C960 1.539 . S
C963 H977 0.958 . S
C963 H978 0.961 . S
C963 H979 0.960 . S
H964 C948 0.931 . S
H965 C953 0.929 . S
H966 C954 0.960 . S
H967 C954 0.962 . S
H968 C954 0.960 . S
H969 C955 0.961 . S
H970 C955 0.961 . S
H971 C955 0.961 . S
H972 C956 0.931 1_545 S
H973 C961 0.930 . S
H974 C962 0.956 . S
H975 C962 0.961 . S
H976 C962 0.961 . S
H977 C963 0.958 . S
H978 C963 0.961 . S
H979 C963 0.960 . S
C980 C981 1.391 . S
C980 C982 1.394 . S
C980 H996 0.931 . S
C981 C980 1.391 . S
C981 C985 1.376 . S
C982 C980 1.394 . S
C982 C983 1.369 . S
C982 C986 1.531 . S
C983 C982 1.369 . S
C983 C984 1.410 . S
C983 C991 1.503 1_554 S
C984 C983 1.410 . S
C984 C985 1.392 . S
C984 C987 1.511 1_554 S
C985 C981 1.376 . S
C985 C984 1.392 . S
C985 H997 0.929 . S
C986 C982 1.531 . S
C986 H998 0.960 . S
C986 H999 0.962 . S
C986 H1000 0.960 . S
C987 C984 1.511 1_556 S
C987 H1001 0.961 1_556 S
C987 H1002 0.961 . S
C987 H1003 0.961 . S
C988 C989 1.370 . S
C988 C990 1.363 . S
C988 H1004 0.931 . S
C989 C988 1.370 . S
C989 C993 1.408 . S
C990 C988 1.363 . S
C990 C991 1.370 . S
C990 C994 1.524 1_556 S
C991 C983 1.503 1_556 S
C991 C990 1.370 . S
C991 C992 1.403 . S
C992 C991 1.403 . S
C992 C993 1.404 . S
C992 C995 1.539 . S
C993 C989 1.408 . S
C993 C992 1.404 . S
C993 H1005 0.930 . S
C994 C990 1.524 1_554 S
C994 H1006 0.956 . S
C994 H1007 0.961 . S
C994 H1008 0.961 1_554 S
C995 C992 1.539 . S
C995 H1009 0.958 . S
C995 H1010 0.961 . S
C995 H1011 0.960 . S
H996 C980 0.931 . S
H997 C985 0.929 . S
H998 C986 0.960 . S
H999 C986 0.962 . S
H1000 C986 0.960 . S
H1001 C987 0.961 1_554 S
H1002 C987 0.961 . S
H1003 C987 0.961 . S
H1004 C988 0.931 . S
H1005 C993 0.930 . S
H1006 C994 0.956 . S
H1007 C994 0.961 . S
H1008 C994 0.961 1_556 S
H1009 C995 0.958 . S
H1010 C995 0.961 . S
H1011 C995 0.960 . S
C1012 C1013 1.391 . S
C1012 C1014 1.394 . S
C1012 H1028 0.931 . S
C1013 C1012 1.391 . S
C1013 C1017 1.376 . S
C1014 C1012 1.394 . S
C1014 C1015 1.369 . S
C1014 C1018 1.531 . S
C1015 C1014 1.369 . S
C1015 C1016 1.410 . S
C1015 C1023 1.503 1_455 S
C1016 C1015 1.410 . S
C1016 C1017 1.392 . S
C1016 C1019 1.511 . S
C1017 C1013 1.376 . S
C1017 C1016 1.392 . S
C1017 H1029 0.929 . S
C1018 C1014 1.531 . S
C1018 H1030 0.960 . S
C1018 H1031 0.962 1_455 S
C1018 H1032 0.960 . S
C1019 C1016 1.511 . S
C1019 H1033 0.961 . S
C1019 H1034 0.961 . S
C1019 H1035 0.961 . S
C1020 C1021 1.370 . S
C1020 C1022 1.363 . S
C1020 H1036 0.931 . S
C1021 C1020 1.370 . S
C1021 C1025 1.408 . S
C1022 C1020 1.363 . S
C1022 C1023 1.370 . S
C1022 C1026 1.524 . S
C1023 C1015 1.503 1_655 S
C1023 C1022 1.370 . S
C1023 C1024 1.403 1_655 S
C1024 C1023 1.403 1_455 S
C1024 C1025 1.404 1_455 S
C1024 C1027 1.539 . S
C1025 C1021 1.408 . S
C1025 C1024 1.404 1_655 S
C1025 H1037 0.930 1_655 S
C1026 C1022 1.524 . S
C1026 H1038 0.956 . S
C1026 H1039 0.961 . S
C1026 H1040 0.961 . S
C1027 C1024 1.539 . S
C1027 H1041 0.958 . S
C1027 H1042 0.961 . S
C1027 H1043 0.960 . S
H1028 C1012 0.931 . S
H1029 C1017 0.929 . S
H1030 C1018 0.960 . S
H1031 C1018 0.962 1_655 S
H1032 C1018 0.960 . S
H1033 C1019 0.961 . S
H1034 C1019 0.961 . S
H1035 C1019 0.961 . S
H1036 C1020 0.931 . S
H1037 C1025 0.930 1_455 S
H1038 C1026 0.956 . S
H1039 C1026 0.961 . S
H1040 C1026 0.961 . S
H1041 C1027 0.958 . S
H1042 C1027 0.961 . S
H1043 C1027 0.960 . S
C1044 C1045 1.391 . S
C1044 C1046 1.394 . S
C1044 H1060 0.931 . S
C1045 C1044 1.391 . S
C1045 C1049 1.376 . S
C1046 C1044 1.394 . S
C1046 C1047 1.369 . S
C1046 C1050 1.531 . S
C1047 C1046 1.369 . S
C1047 C1048 1.410 . S
C1047 C1055 1.503 . S
C1048 C1047 1.410 . S
C1048 C1049 1.392 . S
C1048 C1051 1.511 . S
C1049 C1045 1.376 . S
C1049 C1048 1.392 . S
C1049 H1061 0.929 . S
C1050 C1046 1.531 . S
C1050 H1062 0.960 . S
C1050 H1063 0.962 . S
C1050 H1064 0.960 . S
C1051 C1048 1.511 . S
C1051 H1065 0.961 . S
C1051 H1066 0.961 . S
C1051 H1067 0.961 . S
C1052 C1053 1.370 . S
C1052 C1054 1.363 . S
C1052 H1068 0.931 . S
C1053 C1052 1.370 . S
C1053 C1057 1.408 . S
C1054 C1052 1.363 . S
C1054 C1055 1.370 . S
C1054 C1058 1.524 . S
C1055 C1047 1.503 . S
C1055 C1054 1.370 . S
C1055 C1056 1.403 . S
C1056 C1055 1.403 . S
C1056 C1057 1.404 . S
C1056 C1059 1.539 . S
C1057 C1053 1.408 . S
C1057 C1056 1.404 . S
C1057 H1069 0.930 . S
C1058 C1054 1.524 . S
C1058 H1070 0.956 . S
C1058 H1071 0.961 . S
C1058 H1072 0.961 . S
C1059 C1056 1.539 . S
C1059 H1073 0.958 . S
C1059 H1074 0.961 . S
C1059 H1075 0.960 . S
H1060 C1044 0.931 . S
H1061 C1049 0.929 . S
H1062 C1050 0.960 . S
H1063 C1050 0.962 . S
H1064 C1050 0.960 . S
H1065 C1051 0.961 . S
H1066 C1051 0.961 . S
H1067 C1051 0.961 . S
H1068 C1052 0.931 . S
H1069 C1057 0.930 . S
H1070 C1058 0.956 . S
H1071 C1058 0.961 . S
H1072 C1058 0.961 . S
H1073 C1059 0.958 . S
H1074 C1059 0.961 . S
H1075 C1059 0.960 . S
C1076 C1077 1.391 . S
C1076 C1078 1.394 . S
C1076 H1092 0.931 . S
C1077 C1076 1.391 . S
C1077 C1081 1.376 . S
C1078 C1076 1.394 . S
C1078 C1079 1.369 . S
C1078 C1082 1.531 . S
C1079 C1078 1.369 . S
C1079 C1080 1.410 . S
C1079 C1087 1.503 . S
C1080 C1079 1.410 . S
C1080 C1081 1.392 . S
C1080 C1083 1.511 . S
C1081 C1077 1.376 . S
C1081 C1080 1.392 . S
C1081 H1093 0.929 . S
C1082 C1078 1.531 . S
C1082 H1094 0.960 . S
C1082 H1095 0.962 . S
C1082 H1096 0.960 . S
C1083 C1080 1.511 . S
C1083 H1097 0.961 . S
C1083 H1098 0.961 . S
C1083 H1099 0.961 . S
C1084 C1085 1.370 . S
C1084 C1086 1.363 . S
C1084 H1100 0.931 . S
C1085 C1084 1.370 . S
C1085 C1089 1.408 . S
C1086 C1084 1.363 . S
C1086 C1087 1.370 . S
C1086 C1090 1.524 . S
C1087 C1079 1.503 . S
C1087 C1086 1.370 . S
C1087 C1088 1.403 . S
C1088 C1087 1.403 . S
C1088 C1089 1.404 . S
C1088 C1091 1.539 . S
C1089 C1085 1.408 . S
C1089 C1088 1.404 . S
C1089 H1101 0.930 . S
C1090 C1086 1.524 . S
C1090 H1102 0.956 . S
C1090 H1103 0.961 . S
C1090 H1104 0.961 . S
C1091 C1088 1.539 . S
C1091 H1105 0.958 . S
C1091 H1106 0.961 . S
C1091 H1107 0.960 . S
H1092 C1076 0.931 . S
H1093 C1081 0.929 . S
H1094 C1082 0.960 . S
H1095 C1082 0.962 . S
H1096 C1082 0.960 . S
H1097 C1083 0.961 . S
H1098 C1083 0.961 . S
H1099 C1083 0.961 . S
H1100 C1084 0.931 . S
H1101 C1089 0.930 . S
H1102 C1090 0.956 . S
H1103 C1090 0.961 . S
H1104 C1090 0.961 . S
H1105 C1091 0.958 . S
H1106 C1091 0.961 . S
H1107 C1091 0.960 . S
C1108 C1109 1.391 . S
C1108 C1110 1.394 . S
C1108 H1124 0.931 . S
C1109 C1108 1.391 . S
C1109 C1113 1.376 . S
C1110 C1108 1.394 . S
C1110 C1111 1.369 . S
C1110 C1114 1.531 . S
C1111 C1110 1.369 . S
C1111 C1112 1.410 . S
C1111 C1119 1.503 . S
C1112 C1111 1.410 . S
C1112 C1113 1.392 . S
C1112 C1115 1.511 . S
C1113 C1109 1.376 . S
C1113 C1112 1.392 . S
C1113 H1125 0.929 . S
C1114 C1110 1.531 . S
C1114 H1126 0.960 . S
C1114 H1127 0.962 . S
C1114 H1128 0.960 . S
C1115 C1112 1.511 . S
C1115 H1129 0.961 . S
C1115 H1130 0.961 . S
C1115 H1131 0.961 . S
C1116 C1117 1.370 . S
C1116 C1118 1.363 . S
C1116 H1132 0.931 . S
C1117 C1116 1.370 . S
C1117 C1121 1.408 . S
C1118 C1116 1.363 . S
C1118 C1119 1.370 . S
C1118 C1122 1.524 . S
C1119 C1111 1.503 . S
C1119 C1118 1.370 . S
C1119 C1120 1.403 . S
C1120 C1119 1.403 . S
C1120 C1121 1.404 . S
C1120 C1123 1.539 . S
C1121 C1117 1.408 . S
C1121 C1120 1.404 . S
C1121 H1133 0.930 . S
C1122 C1118 1.524 . S
C1122 H1134 0.956 . S
C1122 H1135 0.961 . S
C1122 H1136 0.961 . S
C1123 C1120 1.539 . S
C1123 H1137 0.958 . S
C1123 H1138 0.961 . S
C1123 H1139 0.960 . S
H1124 C1108 0.931 . S
H1125 C1113 0.929 . S
H1126 C1114 0.960 . S
H1127 C1114 0.962 . S
H1128 C1114 0.960 . S
H1129 C1115 0.961 . S
H1130 C1115 0.961 . S
H1131 C1115 0.961 . S
H1132 C1116 0.931 . S
H1133 C1121 0.930 . S
H1134 C1122 0.956 . S
H1135 C1122 0.961 . S
H1136 C1122 0.961 . S
H1137 C1123 0.958 . S
H1138 C1123 0.961 . S
H1139 C1123 0.960 . S
C1140 C1141 1.391 . S
C1140 C1142 1.394 . S
C1140 H1156 0.931 . S
C1141 C1140 1.391 . S
C1141 C1145 1.376 . S
C1142 C1140 1.394 . S
C1142 C1143 1.369 . S
C1142 C1146 1.531 . S
C1143 C1142 1.369 . S
C1143 C1144 1.410 . S
C1143 C1151 1.503 . S
C1144 C1143 1.410 . S
C1144 C1145 1.392 . S
C1144 C1147 1.511 . S
C1145 C1141 1.376 . S
C1145 C1144 1.392 . S
C1145 H1157 0.929 . S
C1146 C1142 1.531 . S
C1146 H1158 0.960 . S
C1146 H1159 0.962 . S
C1146 H1160 0.960 . S
C1147 C1144 1.511 . S
C1147 H1161 0.961 . S
C1147 H1162 0.961 . S
C1147 H1163 0.961 . S
C1148 C1149 1.370 . S
C1148 C1150 1.363 . S
C1148 H1164 0.931 . S
C1149 C1148 1.370 . S
C1149 C1153 1.408 . S
C1150 C1148 1.363 . S
C1150 C1151 1.370 . S
C1150 C1154 1.524 . S
C1151 C1143 1.503 . S
C1151 C1150 1.370 . S
C1151 C1152 1.403 . S
C1152 C1151 1.403 . S
C1152 C1153 1.404 . S
C1152 C1155 1.539 . S
C1153 C1149 1.408 . S
C1153 C1152 1.404 . S
C1153 H1165 0.930 . S
C1154 C1150 1.524 . S
C1154 H1166 0.956 . S
C1154 H1167 0.961 . S
C1154 H1168 0.961 . S
C1155 C1152 1.539 . S
C1155 H1169 0.958 . S
C1155 H1170 0.961 . S
C1155 H1171 0.960 . S
H1156 C1140 0.931 . S
H1157 C1145 0.929 . S
H1158 C1146 0.960 . S
H1159 C1146 0.962 . S
H1160 C1146 0.960 . S
H1161 C1147 0.961 . S
H1162 C1147 0.961 . S
H1163 C1147 0.961 . S
H1164 C1148 0.931 . S
H1165 C1153 0.930 . S
H1166 C1154 0.956 . S
H1167 C1154 0.961 . S
H1168 C1154 0.961 . S
H1169 C1155 0.958 . S
H1170 C1155 0.961 . S
H1171 C1155 0.960 . S
C1172 C1173 1.391 . S
C1172 C1174 1.394 . S
C1172 H1188 0.931 . S
C1173 C1172 1.391 . S
C1173 C1177 1.376 . S
C1174 C1172 1.394 . S
C1174 C1175 1.369 . S
C1174 C1178 1.531 . S
C1175 C1174 1.369 . S
C1175 C1176 1.410 . S
C1175 C1183 1.503 . S
C1176 C1175 1.410 . S
C1176 C1177 1.392 . S
C1176 C1179 1.511 . S
C1177 C1173 1.376 . S
C1177 C1176 1.392 . S
C1177 H1189 0.929 . S
C1178 C1174 1.531 . S
C1178 H1190 0.960 . S
C1178 H1191 0.962 . S
C1178 H1192 0.960 . S
C1179 C1176 1.511 . S
C1179 H1193 0.961 . S
C1179 H1194 0.961 . S
C1179 H1195 0.961 . S
C1180 C1181 1.370 . S
C1180 C1182 1.363 . S
C1180 H1196 0.931 . S
C1181 C1180 1.370 . S
C1181 C1185 1.408 . S
C1182 C1180 1.363 . S
C1182 C1183 1.370 . S
C1182 C1186 1.524 . S
C1183 C1175 1.503 . S
C1183 C1182 1.370 . S
C1183 C1184 1.403 . S
C1184 C1183 1.403 . S
C1184 C1185 1.404 . S
C1184 C1187 1.539 . S
C1185 C1181 1.408 . S
C1185 C1184 1.404 . S
C1185 H1197 0.930 . S
C1186 C1182 1.524 . S
C1186 H1198 0.956 . S
C1186 H1199 0.961 . S
C1186 H1200 0.961 . S
C1187 C1184 1.539 . S
C1187 H1201 0.958 . S
C1187 H1202 0.961 . S
C1187 H1203 0.960 . S
H1188 C1172 0.931 . S
H1189 C1177 0.929 . S
H1190 C1178 0.960 . S
H1191 C1178 0.962 . S
H1192 C1178 0.960 . S
H1193 C1179 0.961 . S
H1194 C1179 0.961 . S
H1195 C1179 0.961 . S
H1196 C1180 0.931 . S
H1197 C1185 0.930 . S
H1198 C1186 0.956 . S
H1199 C1186 0.961 . S
H1200 C1186 0.961 . S
H1201 C1187 0.958 . S
H1202 C1187 0.961 . S
H1203 C1187 0.960 . S
C1204 C1205 1.391 . S
C1204 C1206 1.394 . S
C1204 H1220 0.931 . S
C1205 C1204 1.391 . S
C1205 C1209 1.376 . S
C1206 C1204 1.394 . S
C1206 C1207 1.369 . S
C1206 C1210 1.531 . S
C1207 C1206 1.369 . S
C1207 C1208 1.410 . S
C1207 C1215 1.503 . S
C1208 C1207 1.410 . S
C1208 C1209 1.392 . S
C1208 C1211 1.511 . S
C1209 C1205 1.376 . S
C1209 C1208 1.392 . S
C1209 H1221 0.929 . S
C1210 C1206 1.531 . S
C1210 H1222 0.960 . S
C1210 H1223 0.962 . S
C1210 H1224 0.960 . S
C1211 C1208 1.511 . S
C1211 H1225 0.961 . S
C1211 H1226 0.961 . S
C1211 H1227 0.961 . S
C1212 C1213 1.370 . S
C1212 C1214 1.363 . S
C1212 H1228 0.931 . S
C1213 C1212 1.370 . S
C1213 C1217 1.408 . S
C1214 C1212 1.363 . S
C1214 C1215 1.370 . S
C1214 C1218 1.524 . S
C1215 C1207 1.503 . S
C1215 C1214 1.370 . S
C1215 C1216 1.403 . S
C1216 C1215 1.403 . S
C1216 C1217 1.404 . S
C1216 C1219 1.539 . S
C1217 C1213 1.408 . S
C1217 C1216 1.404 . S
C1217 H1229 0.930 . S
C1218 C1214 1.524 . S
C1218 H1230 0.956 . S
C1218 H1231 0.961 . S
C1218 H1232 0.961 . S
C1219 C1216 1.539 . S
C1219 H1233 0.958 . S
C1219 H1234 0.961 . S
C1219 H1235 0.960 . S
H1220 C1204 0.931 . S
H1221 C1209 0.929 . S
H1222 C1210 0.960 . S
H1223 C1210 0.962 . S
H1224 C1210 0.960 . S
H1225 C1211 0.961 . S
H1226 C1211 0.961 . S
H1227 C1211 0.961 . S
H1228 C1212 0.931 . S
H1229 C1217 0.930 . S
H1230 C1218 0.956 . S
H1231 C1218 0.961 . S
H1232 C1218 0.961 . S
H1233 C1219 0.958 . S
H1234 C1219 0.961 . S
H1235 C1219 0.960 . S
C1236 C1237 1.391 . S
C1236 C1238 1.394 . S
C1236 H1252 0.931 . S
C1237 C1236 1.391 . S
C1237 C1241 1.376 . S
C1238 C1236 1.394 . S
C1238 C1239 1.369 . S
C1238 C1242 1.531 . S
C1239 C1238 1.369 . S
C1239 C1240 1.410 . S
C1239 C1247 1.503 . S
C1240 C1239 1.410 . S
C1240 C1241 1.392 . S
C1240 C1243 1.511 . S
C1241 C1237 1.376 . S
C1241 C1240 1.392 . S
C1241 H1253 0.929 . S
C1242 C1238 1.531 . S
C1242 H1254 0.960 . S
C1242 H1255 0.962 . S
C1242 H1256 0.960 . S
C1243 C1240 1.511 . S
C1243 H1257 0.961 . S
C1243 H1258 0.961 . S
C1243 H1259 0.961 . S
C1244 C1245 1.370 . S
C1244 C1246 1.363 . S
C1244 H1260 0.931 . S
C1245 C1244 1.370 . S
C1245 C1249 1.408 . S
C1246 C1244 1.363 . S
C1246 C1247 1.370 . S
C1246 C1250 1.524 . S
C1247 C1239 1.503 . S
C1247 C1246 1.370 . S
C1247 C1248 1.403 . S
C1248 C1247 1.403 . S
C1248 C1249 1.404 . S
C1248 C1251 1.539 . S
C1249 C1245 1.408 . S
C1249 C1248 1.404 . S
C1249 H1261 0.930 . S
C1250 C1246 1.524 . S
C1250 H1262 0.956 . S
C1250 H1263 0.961 . S
C1250 H1264 0.961 . S
C1251 C1248 1.539 . S
C1251 H1265 0.958 . S
C1251 H1266 0.961 . S
C1251 H1267 0.960 . S
H1252 C1236 0.931 . S
H1253 C1241 0.929 . S
H1254 C1242 0.960 . S
H1255 C1242 0.962 . S
H1256 C1242 0.960 . S
H1257 C1243 0.961 . S
H1258 C1243 0.961 . S
H1259 C1243 0.961 . S
H1260 C1244 0.931 . S
H1261 C1249 0.930 . S
H1262 C1250 0.956 . S
H1263 C1250 0.961 . S
H1264 C1250 0.961 . S
H1265 C1251 0.958 . S
H1266 C1251 0.961 . S
H1267 C1251 0.960 . S
C1268 C1269 1.391 . S
C1268 C1270 1.394 . S
C1268 H1284 0.931 . S
C1269 C1268 1.391 . S
C1269 C1273 1.376 . S
C1270 C1268 1.394 . S
C1270 C1271 1.369 . S
C1270 C1274 1.531 . S
C1271 C1270 1.369 . S
C1271 C1272 1.410 . S
C1271 C1279 1.503 . S
C1272 C1271 1.410 . S
C1272 C1273 1.392 . S
C1272 C1275 1.511 . S
C1273 C1269 1.376 . S
C1273 C1272 1.392 . S
C1273 H1285 0.929 . S
C1274 C1270 1.531 . S
C1274 H1286 0.960 . S
C1274 H1287 0.962 . S
C1274 H1288 0.960 . S
C1275 C1272 1.511 . S
C1275 H1289 0.961 . S
C1275 H1290 0.961 . S
C1275 H1291 0.961 . S
C1276 C1277 1.370 . S
C1276 C1278 1.363 . S
C1276 H1292 0.931 . S
C1277 C1276 1.370 . S
C1277 C1281 1.408 . S
C1278 C1276 1.363 . S
C1278 C1279 1.370 . S
C1278 C1282 1.524 . S
C1279 C1271 1.503 . S
C1279 C1278 1.370 . S
C1279 C1280 1.403 . S
C1280 C1279 1.403 . S
C1280 C1281 1.404 . S
C1280 C1283 1.539 . S
C1281 C1277 1.408 . S
C1281 C1280 1.404 . S
C1281 H1293 0.930 . S
C1282 C1278 1.524 . S
C1282 H1294 0.956 . S
C1282 H1295 0.961 . S
C1282 H1296 0.961 . S
C1283 C1280 1.539 . S
C1283 H1297 0.958 . S
C1283 H1298 0.961 . S
C1283 H1299 0.960 . S
H1284 C1268 0.931 . S
H1285 C1273 0.929 . S
H1286 C1274 0.960 . S
H1287 C1274 0.962 . S
H1288 C1274 0.960 . S
H1289 C1275 0.961 . S
H1290 C1275 0.961 . S
H1291 C1275 0.961 . S
H1292 C1276 0.931 . S
H1293 C1281 0.930 . S
H1294 C1282 0.956 . S
H1295 C1282 0.961 . S
H1296 C1282 0.961 . S
H1297 C1283 0.958 . S
H1298 C1283 0.961 . S
H1299 C1283 0.960 . S
C1300 C1301 1.391 . S
C1300 C1302 1.394 . S
C1300 H1316 0.931 . S
C1301 C1300 1.391 . S
C1301 C1305 1.376 . S
C1302 C1300 1.394 . S
C1302 C1303 1.369 . S
C1302 C1306 1.531 . S
C1303 C1302 1.369 . S
C1303 C1304 1.410 . S
C1303 C1311 1.503 . S
C1304 C1303 1.410 . S
C1304 C1305 1.392 . S
C1304 C1307 1.511 . S
C1305 C1301 1.376 . S
C1305 C1304 1.392 . S
C1305 H1317 0.929 . S
C1306 C1302 1.531 . S
C1306 H1318 0.960 . S
C1306 H1319 0.962 . S
C1306 H1320 0.960 . S
C1307 C1304 1.511 . S
C1307 H1321 0.961 . S
C1307 H1322 0.961 . S
C1307 H1323 0.961 . S
C1308 C1309 1.370 . S
C1308 C1310 1.363 . S
C1308 H1324 0.931 . S
C1309 C1308 1.370 . S
C1309 C1313 1.408 . S
C1310 C1308 1.363 . S
C1310 C1311 1.370 . S
C1310 C1314 1.524 . S
C1311 C1303 1.503 . S
C1311 C1310 1.370 . S
C1311 C1312 1.403 . S
C1312 C1311 1.403 . S
C1312 C1313 1.404 . S
C1312 C1315 1.539 . S
C1313 C1309 1.408 . S
C1313 C1312 1.404 . S
C1313 H1325 0.930 . S
C1314 C1310 1.524 . S
C1314 H1326 0.956 . S
C1314 H1327 0.961 . S
C1314 H1328 0.961 . S
C1315 C1312 1.539 . S
C1315 H1329 0.958 . S
C1315 H1330 0.961 . S
C1315 H1331 0.960 . S
H1316 C1300 0.931 . S
H1317 C1305 0.929 . S
H1318 C1306 0.960 . S
H1319 C1306 0.962 . S
H1320 C1306 0.960 . S
H1321 C1307 0.961 . S
H1322 C1307 0.961 . S
H1323 C1307 0.961 . S
H1324 C1308 0.931 . S
H1325 C1313 0.930 . S
H1326 C1314 0.956 . S
H1327 C1314 0.961 . S
H1328 C1314 0.961 . S
H1329 C1315 0.958 . S
H1330 C1315 0.961 . S
H1331 C1315 0.960 . S
C1332 C1333 1.391 . S
C1332 C1334 1.394 . S
C1332 H1348 0.931 . S
C1333 C1332 1.391 . S
C1333 C1337 1.376 . S
C1334 C1332 1.394 . S
C1334 C1335 1.369 . S
C1334 C1338 1.531 . S
C1335 C1334 1.369 . S
C1335 C1336 1.410 . S
C1335 C1343 1.503 . S
C1336 C1335 1.410 . S
C1336 C1337 1.392 . S
C1336 C1339 1.511 . S
C1337 C1333 1.376 . S
C1337 C1336 1.392 . S
C1337 H1349 0.929 . S
C1338 C1334 1.531 . S
C1338 H1350 0.960 . S
C1338 H1351 0.962 . S
C1338 H1352 0.960 . S
C1339 C1336 1.511 . S
C1339 H1353 0.961 . S
C1339 H1354 0.961 . S
C1339 H1355 0.961 . S
C1340 C1341 1.370 . S
C1340 C1342 1.363 . S
C1340 H1356 0.931 . S
C1341 C1340 1.370 . S
C1341 C1345 1.408 . S
C1342 C1340 1.363 . S
C1342 C1343 1.370 . S
C1342 C1346 1.524 . S
C1343 C1335 1.503 . S
C1343 C1342 1.370 . S
C1343 C1344 1.403 . S
C1344 C1343 1.403 . S
C1344 C1345 1.404 . S
C1344 C1347 1.539 . S
C1345 C1341 1.408 . S
C1345 C1344 1.404 . S
C1345 H1357 0.930 . S
C1346 C1342 1.524 . S
C1346 H1358 0.956 . S
C1346 H1359 0.961 . S
C1346 H1360 0.961 . S
C1347 C1344 1.539 . S
C1347 H1361 0.958 . S
C1347 H1362 0.961 . S
C1347 H1363 0.960 . S
H1348 C1332 0.931 . S
H1349 C1337 0.929 . S
H1350 C1338 0.960 . S
H1351 C1338 0.962 . S
H1352 C1338 0.960 . S
H1353 C1339 0.961 . S
H1354 C1339 0.961 . S
H1355 C1339 0.961 . S
H1356 C1340 0.931 . S
H1357 C1345 0.930 . S
H1358 C1346 0.956 . S
H1359 C1346 0.961 . S
H1360 C1346 0.961 . S
H1361 C1347 0.958 . S
H1362 C1347 0.961 . S
H1363 C1347 0.960 . S
C1364 C1365 1.391 . S
C1364 C1366 1.394 . S
C1364 H1380 0.931 . S
C1365 C1364 1.391 . S
C1365 C1369 1.376 . S
C1366 C1364 1.394 . S
C1366 C1367 1.369 . S
C1366 C1370 1.531 . S
C1367 C1366 1.369 . S
C1367 C1368 1.410 . S
C1367 C1375 1.503 . S
C1368 C1367 1.410 . S
C1368 C1369 1.392 . S
C1368 C1371 1.511 . S
C1369 C1365 1.376 . S
C1369 C1368 1.392 . S
C1369 H1381 0.929 . S
C1370 C1366 1.531 . S
C1370 H1382 0.960 . S
C1370 H1383 0.962 . S
C1370 H1384 0.960 . S
C1371 C1368 1.511 . S
C1371 H1385 0.961 . S
C1371 H1386 0.961 . S
C1371 H1387 0.961 . S
C1372 C1373 1.370 . S
C1372 C1374 1.363 . S
C1372 H1388 0.931 . S
C1373 C1372 1.370 . S
C1373 C1377 1.408 . S
C1374 C1372 1.363 . S
C1374 C1375 1.370 . S
C1374 C1378 1.524 . S
C1375 C1367 1.503 . S
C1375 C1374 1.370 . S
C1375 C1376 1.403 . S
C1376 C1375 1.403 . S
C1376 C1377 1.404 . S
C1376 C1379 1.539 . S
C1377 C1373 1.408 . S
C1377 C1376 1.404 . S
C1377 H1389 0.930 . S
C1378 C1374 1.524 . S
C1378 H1390 0.956 . S
C1378 H1391 0.961 . S
C1378 H1392 0.961 . S
C1379 C1376 1.539 . S
C1379 H1393 0.958 . S
C1379 H1394 0.961 . S
C1379 H1395 0.960 . S
H1380 C1364 0.931 . S
H1381 C1369 0.929 . S
H1382 C1370 0.960 . S
H1383 C1370 0.962 . S
H1384 C1370 0.960 . S
H1385 C1371 0.961 . S
H1386 C1371 0.961 . S
H1387 C1371 0.961 . S
H1388 C1372 0.931 . S
H1389 C1377 0.930 . S
H1390 C1378 0.956 . S
H1391 C1378 0.961 . S
H1392 C1378 0.961 . S
H1393 C1379 0.958 . S
H1394 C1379 0.961 . S
H1395 C1379 0.960 . S
C1396 C1397 1.391 . S
C1396 C1398 1.394 . S
C1396 H1412 0.931 . S
C1397 C1396 1.391 . S
C1397 C1401 1.376 . S
C1398 C1396 1.394 . S
C1398 C1399 1.369 . S
C1398 C1402 1.531 . S
C1399 C1398 1.369 . S
C1399 C1400 1.410 . S
C1399 C1407 1.503 . S
C1400 C1399 1.410 . S
C1400 C1401 1.392 . S
C1400 C1403 1.511 . S
C1401 C1397 1.376 . S
C1401 C1400 1.392 . S
C1401 H1413 0.929 . S
C1402 C1398 1.531 . S
C1402 H1414 0.960 . S
C1402 H1415 0.962 . S
C1402 H1416 0.960 . S
C1403 C1400 1.511 . S
C1403 H1417 0.961 . S
C1403 H1418 0.961 . S
C1403 H1419 0.961 . S
C1404 C1405 1.370 . S
C1404 C1406 1.363 . S
C1404 H1420 0.931 . S
C1405 C1404 1.370 . S
C1405 C1409 1.408 . S
C1406 C1404 1.363 . S
C1406 C1407 1.370 . S
C1406 C1410 1.524 . S
C1407 C1399 1.503 . S
C1407 C1406 1.370 . S
C1407 C1408 1.403 . S
C1408 C1407 1.403 . S
C1408 C1409 1.404 . S
C1408 C1411 1.539 . S
C1409 C1405 1.408 . S
C1409 C1408 1.404 . S
C1409 H1421 0.930 . S
C1410 C1406 1.524 . S
C1410 H1422 0.956 . S
C1410 H1423 0.961 . S
C1410 H1424 0.961 . S
C1411 C1408 1.539 . S
C1411 H1425 0.958 . S
C1411 H1426 0.961 . S
C1411 H1427 0.960 . S
H1412 C1396 0.931 . S
H1413 C1401 0.929 . S
H1414 C1402 0.960 . S
H1415 C1402 0.962 . S
H1416 C1402 0.960 . S
H1417 C1403 0.961 . S
H1418 C1403 0.961 . S
H1419 C1403 0.961 . S
H1420 C1404 0.931 . S
H1421 C1409 0.930 . S
H1422 C1410 0.956 . S
H1423 C1410 0.961 . S
H1424 C1410 0.961 . S
H1425 C1411 0.958 . S
H1426 C1411 0.961 . S
H1427 C1411 0.960 . S
C277 C63 0.981 . S
C285 C21 0.958 . S
C309 C86 0.887 . S
C317 C44 0.869 . S
C341 C67 0.976 . S
C349 C109 0.956 . S
C373 C90 0.887 . S
C381 C132 0.900 . S
C405 C17 0.946 . S
C413 C113 0.953 . S
C437 C40 0.914 . S
C445 C136 0.879 . S
C469 C247 0.929 . S
C477 C159 0.890 . S
C501 C182 0.961 . S
C509 C270 0.940 . S
C533 C205 0.927 . S
C541 C155 0.887 . S
C565 C228 0.949 . S
C573 C178 0.933 . S
C597 C251 0.925 . S
C605 C201 0.901 . S
C629 C224 0.890 . S
C637 C274 0.930 . S
C661 C88 1.467 . S
C669 C20 1.495 . S
C693 C42 1.472 . S
C701 C112 1.504 . S
C725 C66 1.495 . S
C733 C134 1.498 . S
C757 C157 1.496 . S
C765 C227 1.509 . S
C789 C181 1.481 . S
C797 C249 1.490 . S
C821 C203 1.496 . S
C829 C273 1.509 . S
C853 C180 1.535 . S
C861 C19 1.531 . S
C885 C43 1.534 . S
C893 C204 1.542 . S
C917 C226 1.537 . S
C925 C65 1.532 . S
C949 C89 1.546 . S
C957 C250 1.545 . S
C981 C111 1.532 . S
C989 C272 1.533 . S
C1013 C158 1.538 . S
C1021 C135 1.546 . S
C1045 C62 1.155 . S
C1053 C18 1.142 . S
C1077 C41 1.182 . S
C1085 C85 1.195 . S
C1109 C64 1.148 . S
C1117 C108 1.164 . S
C1141 C87 1.176 . S
C1149 C131 1.196 . S
C1173 C16 1.156 . S
C1181 C110 1.142 . S
C1205 C39 1.190 . S
C1213 C133 1.183 . S
C1237 C246 1.179 . S
C1245 C156 1.191 . S
C1269 C179 1.142 . S
C1277 C269 1.160 . S
C1301 C202 1.206 . S
C1309 C154 1.189 . S
C1333 C177 1.153 . S
C1341 C225 1.141 . S
C1365 C248 1.204 . S
C1373 C200 1.190 . S
C1397 C271 1.128 . S
C1405 C223 1.159 . S
