# Generated by pormake.
# Topology sod, (4)-cn, num edge types: 1
# Building blocks:
#     Node 0, Type 0, BuildingBlock: TATPOV_clean_sbu_0, # of connection points: 4
#     Node 1, Type 0, BuildingBlock: TATPOV_clean_sbu_0, # of connection points: 4
#     Node 2, Type 0, BuildingBlock: TATPOV_clean_sbu_0, # of connection points: 4
#     Node 3, Type 0, BuildingBlock: TATPOV_clean_sbu_0, # of connection points: 4
#     Node 4, Type 0, BuildingBlock: TATPOV_clean_sbu_0, # of connection points: 4
#     Node 5, Type 0, BuildingBlock: TATPOV_clean_sbu_0, # of connection points: 4
#     Node 6, Type 0, BuildingBlock: TATPOV_clean_sbu_0, # of connection points: 4
#     Node 7, Type 0, BuildingBlock: TATPOV_clean_sbu_0, # of connection points: 4
#     Node 8, Type 0, BuildingBlock: TATPOV_clean_sbu_0, # of connection points: 4
#     Node 9, Type 0, BuildingBlock: TATPOV_clean_sbu_0, # of connection points: 4
#     Node 10, Type 0, BuildingBlock: TATPOV_clean_sbu_0, # of connection points: 4
#     Node 11, Type 0, BuildingBlock: TATPOV_clean_sbu_0, # of connection points: 4
#     Edge 12, Type (0, 0), BuildingBlock: KIFKEQ_clean_linker_1, # of connection points: 2
#     Edge 13, Type (0, 0), BuildingBlock: KIFKEQ_clean_linker_1, # of connection points: 2
#     Edge 14, Type (0, 0), BuildingBlock: KIFKEQ_clean_linker_1, # of connection points: 2
#     Edge 15, Type (0, 0), BuildingBlock: KIFKEQ_clean_linker_1, # of connection points: 2
#     Edge 16, Type (0, 0), BuildingBlock: KIFKEQ_clean_linker_1, # of connection points: 2
#     Edge 17, Type (0, 0), BuildingBlock: KIFKEQ_clean_linker_1, # of connection points: 2
#     Edge 18, Type (0, 0), BuildingBlock: KIFKEQ_clean_linker_1, # of connection points: 2
#     Edge 19, Type (0, 0), BuildingBlock: KIFKEQ_clean_linker_1, # of connection points: 2
#     Edge 20, Type (0, 0), BuildingBlock: KIFKEQ_clean_linker_1, # of connection points: 2
#     Edge 21, Type (0, 0), BuildingBlock: KIFKEQ_clean_linker_1, # of connection points: 2
#     Edge 22, Type (0, 0), BuildingBlock: KIFKEQ_clean_linker_1, # of connection points: 2
#     Edge 23, Type (0, 0), BuildingBlock: KIFKEQ_clean_linker_1, # of connection points: 2
#     Edge 24, Type (0, 0), BuildingBlock: KIFKEQ_clean_linker_1, # of connection points: 2
#     Edge 25, Type (0, 0), BuildingBlock: KIFKEQ_clean_linker_1, # of connection points: 2
#     Edge 26, Type (0, 0), BuildingBlock: KIFKEQ_clean_linker_1, # of connection points: 2
#     Edge 27, Type (0, 0), BuildingBlock: KIFKEQ_clean_linker_1, # of connection points: 2
#     Edge 28, Type (0, 0), BuildingBlock: KIFKEQ_clean_linker_1, # of connection points: 2
#     Edge 29, Type (0, 0), BuildingBlock: KIFKEQ_clean_linker_1, # of connection points: 2
#     Edge 30, Type (0, 0), BuildingBlock: KIFKEQ_clean_linker_1, # of connection points: 2
#     Edge 31, Type (0, 0), BuildingBlock: KIFKEQ_clean_linker_1, # of connection points: 2
#     Edge 32, Type (0, 0), BuildingBlock: KIFKEQ_clean_linker_1, # of connection points: 2
#     Edge 33, Type (0, 0), BuildingBlock: KIFKEQ_clean_linker_1, # of connection points: 2
#     Edge 34, Type (0, 0), BuildingBlock: KIFKEQ_clean_linker_1, # of connection points: 2
#     Edge 35, Type (0, 0), BuildingBlock: KIFKEQ_clean_linker_1, # of connection points: 2
# Relax obj value: 0.090
# Max RMSD: 0.145
# Mean RMSD: 0.126
data_MOF--net-sod--node1-TATPOV_clean_sbu_0--edge1-KIFKEQ_clean_linker_1
_symmetry_space_group_name_H-M    P1
_symmetry_Int_Tables_number       1
_symmetry_cell_setting            triclinic
loop_
_symmetry_equiv_pos_as_xyz
'x, y, z'
_cell_length_a     42.048587
_cell_length_b     42.619137
_cell_length_c     43.740088
_cell_angle_alpha  90.309577
_cell_angle_beta   90.710103
_cell_angle_gamma 92.051916
loop_
_atom_site_label
_atom_site_type_symbol
_atom_site_fract_x
_atom_site_fract_y
_atom_site_fract_z
_atom_type_partial_charge
Zn0 Zn 0.96014 0.2229 0.4496 0.0
Zn1 Zn 0.96298 0.25627 0.50213 0.0
O2 O 0.00701 0.23666 0.50193 0.0
O3 O 0.00449 0.20856 0.45946 0.0
O4 O 0.96239 0.28442 0.53987 0.0
O5 O 0.9539 0.26113 0.4245 0.0
O6 O 0.95675 0.28852 0.46734 0.0
C7 C 0.01971 0.21793 0.48319 0.0
C8 C 0.91236 0.20278 0.4916 0.0
O9 O 0.92628 0.22316 0.50912 0.0
O10 O 0.92171 0.19886 0.46452 0.0
C11 C 0.97873 0.2821 0.56442 0.0
O12 O -0.00152 0.25907 0.56724 0.0
C13 C 0.95346 0.28724 0.43831 0.0
Zn14 Zn 0.78899 0.94166 0.5527 0.0
Zn15 Zn 0.76134 0.94345 0.49772 0.0
O16 O 0.79587 0.91075 0.48969 0.0
O17 O 0.81972 0.91233 0.53492 0.0
O18 O 0.73739 0.951 0.45802 0.0
O19 O 0.74976 0.92276 0.57095 0.0
O20 O 0.72533 0.92799 0.52652 0.0
C21 C 0.81756 0.90153 0.50793 0.0
C22 C 0.79297 0.00282 0.52923 0.0
O23 O 0.78008 0.98812 0.50654 0.0
O24 O 0.79843 0.9884 0.55384 0.0
C25 C 0.72089 0.93151 0.44172 0.0
O26 O 0.71987 0.90167 0.44912 0.0
C27 C 0.72489 0.9198 0.55451 0.0
Zn28 Zn 0.07808 0.77892 0.45644 0.0
Zn29 Zn 0.06455 0.74466 0.50647 0.0
O30 O 0.02228 0.76471 0.49434 0.0
O31 O 0.03344 0.7945 0.45465 0.0
O32 O 0.05184 0.71763 0.54272 0.0
O33 O 0.08918 0.74028 0.434 0.0
O34 O 0.08022 0.71216 0.4753 0.0
C35 C 0.01356 0.7839 0.47384 0.0
C36 C 0.11641 0.79698 0.50872 0.0
O37 O 0.09908 0.77665 0.52269 0.0
O38 O 0.11248 0.80167 0.48042 0.0
C39 C 0.06835 0.71312 0.5668 0.0
O40 O 0.09657 0.72712 0.5698 0.0
C41 C 0.08886 0.71411 0.4475 0.0
Zn42 Zn 0.23678 0.05528 0.58876 0.0
Zn43 Zn 0.26499 0.05341 0.53337 0.0
O44 O 0.23069 0.08669 0.52659 0.0
O45 O 0.20768 0.08711 0.57161 0.0
O46 O 0.28892 0.04877 0.49329 0.0
O47 O 0.27768 0.06956 0.60872 0.0
O48 O 0.30098 0.06625 0.56406 0.0
C49 C 0.2097 0.09716 0.54449 0.0
C50 C 0.23165 0.99453 0.56168 0.0
O51 O 0.24601 0.0088 0.54001 0.0
O52 O 0.22518 0.00912 0.58597 0.0
C53 C 0.28915 0.06804 0.47116 0.0
O54 O 0.27232 0.09335 0.47313 0.0
C55 C 0.30248 0.07199 0.59272 0.0
Zn56 Zn 0.51914 0.07378 0.28955 0.0
Zn57 Zn 0.49793 0.02289 0.25951 0.0
O58 O 0.46036 0.02993 0.28965 0.0
O59 O 0.47894 0.0722 0.31412 0.0
O60 O 0.48431 0.98533 0.23209 0.0
O61 O 0.52119 0.10034 0.25219 0.0
O62 O 0.50446 0.05829 0.22656 0.0
C63 C 0.45717 0.05123 0.31 0.0
C64 C 0.56024 0.0231 0.29873 0.0
O65 O 0.53884 0.00864 0.28254 0.0
O66 O 0.55809 0.0521 0.30432 0.0
C67 C 0.49593 0.95817 0.23393 0.0
O68 O 0.51651 0.95265 0.25591 0.0
C69 C 0.51334 0.08731 0.22705 0.0
Zn70 Zn 0.06684 0.54734 0.22565 0.0
Zn71 Zn 0.03649 0.50104 0.25821 0.0
O72 O 0.06368 0.47579 0.229 0.0
O73 O 0.08889 0.51332 0.20318 0.0
O74 O 0.01748 0.46856 0.28631 0.0
O75 O 0.08692 0.56555 0.26419 0.0
O76 O 0.06001 0.5292 0.28961 0.0
C77 C 0.08325 0.48452 0.20851 0.0
C78 C -0.00203 0.54494 0.21862 0.0
O79 O -0.00052 0.52158 0.23657 0.0
O80 O 0.02312 0.56009 0.21102 0.0
C81 C 0.98819 0.46198 0.29071 0.0
O82 O 0.96645 0.47601 0.27448 0.0
C83 C 0.07914 0.55298 0.28928 0.0
Zn84 Zn 0.57589 0.04683 0.71141 0.0
Zn85 Zn 0.54049 0.00746 0.74787 0.0
O86 O 0.56269 0.97622 0.72047 0.0
O87 O 0.59248 0.00786 0.69191 0.0
O88 O 0.5187 0.98047 0.77925 0.0
O89 O 0.59839 0.06674 0.74815 0.0
O90 O 0.56811 0.03542 0.77605 0.0
C91 C 0.58276 0.98051 0.69928 0.0
C92 C 0.50724 0.05208 0.70498 0.0
O93 O 0.50604 0.03053 0.72506 0.0
O94 O 0.53386 0.06312 0.69585 0.0
C95 C 0.48975 0.97105 0.78048 0.0
O96 O 0.46985 0.97825 0.75844 0.0
C97 C 0.58953 0.05711 0.77411 0.0
Zn98 Zn 0.92753 0.51326 0.7347 0.0
Zn99 Zn 0.98045 0.50543 0.76628 0.0
O100 O 0.99303 0.54376 0.73916 0.0
O101 O 0.94804 0.55107 0.71434 0.0
O102 O 0.0194 0.49891 0.79347 0.0
O103 O 0.9011 0.51877 0.77187 0.0
O104 O 0.9451 0.51376 0.79881 0.0
C105 C 0.97688 0.55906 0.71974 0.0
C106 C 0.95452 0.45422 0.72098 0.0
O107 O 0.9758 0.46421 0.74014 0.0
O108 O 0.93071 0.47068 0.71523 0.0
C109 C 0.04787 0.49935 0.78386 0.0
O110 O 0.053 0.50408 0.75464 0.0
C111 C 0.91522 0.51839 0.79755 0.0
Zn112 Zn 0.29358 0.46043 0.04447 0.0
Zn113 Zn 0.2598 0.45999 0.99353 0.0
O114 O 0.29381 0.42685 0.98392 0.0
O115 O 0.32346 0.43105 0.02574 0.0
O116 O 0.22963 0.46043 0.95656 0.0
O117 O 0.2584 0.44176 0.06887 0.0
O118 O 0.22836 0.44612 0.02766 0.0
C119 C 0.3178 0.41862 0.99982 0.0
C120 C 0.29291 0.52116 0.01894 0.0
O121 O 0.27811 0.50603 0.9975 0.0
O122 O 0.3012 0.50711 0.04298 0.0
C123 C 0.23116 0.48011 0.93477 0.0
O124 O 0.25481 0.50109 0.9344 0.0
C125 C 0.23155 0.43869 0.05572 0.0
Zn126 Zn 0.5656 0.28695 0.93442 0.0
Zn127 Zn 0.55471 0.25142 0.98422 0.0
O128 O 0.51063 0.26881 0.97372 0.0
O129 O 0.51959 0.29867 0.93357 0.0
O130 O 0.54693 0.22212 0.02009 0.0
O131 O 0.58013 0.25018 0.91093 0.0
O132 O 0.57316 0.22149 0.95215 0.0
C133 C 0.5006 0.28744 0.95327 0.0
C134 C 0.60218 0.30755 0.9872 0.0
O135 O 0.58655 0.28569 1.00082 0.0
O136 O 0.59807 0.31218 0.9589 0.0
C137 C 0.52854 0.22832 0.04202 0.0
O138 O 0.51391 0.25504 0.04191 0.0
C139 C 0.58195 0.22416 0.92446 0.0
Zn140 Zn 0.72426 0.55834 0.09783 0.0
Zn141 Zn 0.75713 0.56041 0.04426 0.0
O142 O 0.72645 0.59686 0.03812 0.0
O143 O 0.69998 0.59477 0.08134 0.0
O144 O 0.785 0.55764 0.00662 0.0
O145 O 0.76467 0.5661 0.12204 0.0
O146 O 0.79059 0.56695 0.07861 0.0
C147 C 0.70492 0.6072 0.05548 0.0
C148 C 0.71662 0.50165 0.06294 0.0
O149 O 0.73402 0.51717 0.04427 0.0
O150 O 0.70927 0.51369 0.0883 0.0
C151 C 0.77881 0.56787 0.98002 0.0
O152 O 0.75231 0.58264 0.97533 0.0
C153 C 0.79059 0.56868 0.10772 0.0
Zn154 Zn 0.46636 0.73985 0.9491 0.0
Zn155 Zn 0.46516 0.77425 1.00025 0.0
O156 O 0.50918 0.75393 0.00297 0.0
O157 O 0.50988 0.72532 0.96093 0.0
O158 O 0.46486 0.8038 0.0372 0.0
O159 O 0.46141 0.77683 0.92229 0.0
O160 O 0.45999 0.80557 0.96418 0.0
C161 C 0.52329 0.73492 0.9855 0.0
C162 C 0.41524 0.72066 0.98806 0.0
O163 O 0.42748 0.74158 0.00614 0.0
O164 O 0.42711 0.71604 0.96207 0.0
C165 C 0.46586 0.79524 0.06503 0.0
O166 O 0.4665 0.76514 0.07125 0.0
C167 C 0.45883 0.80327 0.93506 0.0
H168 H 0.97253 0.34714 0.45475 0.0
H169 H 0.9301 0.29245 0.38039 0.0
H170 H 0.9766 0.39295 0.42127 0.0
H171 H 0.9341 0.33806 0.34718 0.0
H172 H 0.92994 0.43274 0.29965 0.0
H173 H 0.91607 0.39367 0.33863 0.0
H174 H 0.01192 0.40158 0.37514 0.0
H175 H 0.02583 0.44028 0.33642 0.0
C176 C 0.96347 0.34509 0.43151 0.0
C177 C 0.95135 0.31616 0.42007 0.0
C178 C 0.96593 0.37121 0.41235 0.0
C179 C 0.95585 0.36893 0.38161 0.0
C180 C 0.94186 0.34055 0.3708 0.0
C181 C 0.9398 0.31439 0.38978 0.0
C182 C 0.94794 0.42626 0.31615 0.0
C183 C 0.97904 0.43933 0.31478 0.0
C184 C 0.94 0.40396 0.33842 0.0
C185 C 0.96289 0.39476 0.35996 0.0
C186 C 0.99368 0.40855 0.35911 0.0
C187 C 0.00171 0.43046 0.33669 0.0
H188 H 0.68727 0.89737 0.39772 0.0
H189 H 0.70761 0.99226 0.42924 0.0
H190 H 0.65138 0.91713 0.35846 0.0
H191 H 0.67096 0.01179 0.39143 0.0
H192 H 0.62012 0.0461 0.31057 0.0
H193 H 0.66171 0.022 0.34041 0.0
H194 H 0.60105 0.93876 0.35115 0.0
H195 H 0.56014 0.9625 0.3195 0.0
C196 C 0.68414 0.92243 0.39624 0.0
C197 C 0.70043 0.94321 0.4166 0.0
C198 C 0.66336 0.93378 0.37385 0.0
C199 C 0.65813 0.96616 0.37149 0.0
C200 C 0.67477 0.98681 0.3918 0.0
C201 C 0.69575 0.97554 0.4138 0.0
C202 C 0.61593 0.02241 0.31886 0.0
C203 C 0.58681 0.00627 0.31292 0.0
C204 C 0.63967 0.00864 0.33629 0.0
C205 C 0.63464 0.97863 0.34902 0.0
C206 C 0.60602 0.96181 0.3417 0.0
C207 C 0.58245 0.97541 0.3236 0.0
H208 H 0.04867 0.55127 0.34378 0.0
H209 H 0.13319 0.58865 0.29995 0.0
H210 H 0.05943 0.58551 0.38758 0.0
H211 H 0.14519 0.62164 0.34459 0.0
H212 H 0.11475 0.71262 0.39114 0.0
H213 H 0.12036 0.66777 0.35825 0.0
H214 H 0.08832 0.60621 0.43082 0.0
H215 H 0.08145 0.65199 0.46383 0.0
C216 C 0.07018 0.56605 0.34402 0.0
C217 C 0.08967 0.56801 0.31822 0.0
C218 C 0.07653 0.58554 0.36928 0.0
C219 C 0.10281 0.60692 0.36934 0.0
C220 C 0.12419 0.60617 0.34486 0.0
C221 C 0.11743 0.58724 0.31934 0.0
C222 C 0.10925 0.68954 0.40036 0.0
C223 C 0.09702 0.68592 0.42991 0.0
C224 C 0.11292 0.66361 0.38153 0.0
C225 C 0.10469 0.63323 0.39177 0.0
C226 C 0.09445 0.62934 0.42209 0.0
C227 C 0.09064 0.65551 0.44104 0.0
H228 H 0.32718 0.01834 0.45947 0.0
H229 H 0.29779 0.10633 0.42171 0.0
H230 H 0.36421 0.01252 0.41732 0.0
H231 H 0.33449 0.10031 0.37957 0.0
H232 H 0.43602 0.10151 0.34095 0.0
H233 H 0.39269 0.10348 0.37687 0.0
H234 H 0.36986 0.00521 0.36036 0.0
H235 H 0.4139 0.00317 0.32397 0.0
C236 C 0.32832 0.03627 0.44203 0.0
C237 C 0.30972 0.063 0.44424 0.0
C238 C 0.3494 0.0328 0.41773 0.0
C239 C 0.3525 0.05605 0.39516 0.0
C240 C 0.33303 0.08216 0.39679 0.0
C241 C 0.3119 0.08557 0.42096 0.0
C242 C 0.42168 0.08029 0.34468 0.0
C243 C 0.42857 0.05212 0.32961 0.0
C244 C 0.3966 0.0815 0.36519 0.0
C245 C 0.37771 0.05454 0.37152 0.0
C246 C 0.38411 0.02637 0.3561 0.0
C247 C 0.40915 0.02524 0.33512 0.0
H248 H 0.94657 0.60423 0.68825 0.0
H249 H 0.0405 0.57239 0.71008 0.0
H250 H 0.9694 0.64301 0.65367 0.0
H251 H 0.06349 0.61087 0.6745 0.0
H252 H 0.09507 0.70079 0.62292 0.0
H253 H 0.07392 0.66592 0.66257 0.0
H254 H 0.99277 0.64185 0.60443 0.0
H255 H 0.01333 0.67712 0.56541 0.0
C256 C 0.97219 0.60559 0.68575 0.0
C257 C 0.99169 0.58498 0.70173 0.0
C258 C 0.98528 0.62773 0.6657 0.0
C259 C 0.01826 0.62972 0.66076 0.0
C260 C 0.038 0.61008 0.67779 0.0
C261 C 0.02484 0.58798 0.69816 0.0
C262 C 0.07266 0.6881 0.61868 0.0
C263 C 0.05584 0.6919 0.591 0.0
C264 C 0.06062 0.66798 0.64136 0.0
C265 C 0.0315 0.65119 0.63687 0.0
C266 C 0.01491 0.65488 0.60905 0.0
C267 C 0.02683 0.675 0.5865 0.0
H268 H 0.50108 0.09017 0.65526 0.0
H269 H 0.44625 0.0374 0.72177 0.0
H270 H 0.45206 0.10248 0.62808 0.0
H271 H 0.39751 0.0495 0.69449 0.0
H272 H 0.31268 0.09062 0.6518 0.0
H273 H 0.36295 0.09283 0.67996 0.0
H274 H 0.41259 0.06989 0.59738 0.0
H275 H 0.36222 0.068 0.56894 0.0
C276 C 0.47858 0.08155 0.66432 0.0
C277 C 0.47755 0.0626 0.69056 0.0
C278 C 0.45057 0.0885 0.64866 0.0
C279 C 0.42103 0.07688 0.65911 0.0
C280 C 0.41992 0.0591 0.68607 0.0
C281 C 0.44788 0.05197 0.7016 0.0
C282 C 0.33434 0.08654 0.63948 0.0
C283 C 0.33342 0.07859 0.60822 0.0
C284 C 0.36311 0.08774 0.65567 0.0
C285 C 0.39156 0.08106 0.64097 0.0
C286 C 0.391 0.07527 0.60928 0.0
C287 C 0.36214 0.07407 0.59302 0.0
H288 H 0.94121 0.33308 0.56499 0.0
H289 H 0.00928 0.2845 0.62043 0.0
H290 H 0.93606 0.37189 0.60529 0.0
H291 H 0.00357 0.32325 0.66131 0.0
H292 H 0.00902 0.42194 0.71059 0.0
H293 H 0.01529 0.37858 0.67437 0.0
H294 H 0.91419 0.37671 0.65531 0.0
H295 H 0.90813 0.42017 0.69062 0.0
C296 C 0.95496 0.33052 0.58588 0.0
C297 C 0.97558 0.30554 0.58943 0.0
C298 C 0.95184 0.35273 0.60916 0.0
C299 C 0.96916 0.3506 0.63678 0.0
C300 C 0.99001 0.32573 0.64031 0.0
C301 C 0.99315 0.30343 0.61691 0.0
C302 C 0.98811 0.41187 0.69901 0.0
C303 C 0.95815 0.42478 0.70323 0.0
C304 C 0.99168 0.38702 0.67824 0.0
C305 C 0.96533 0.37452 0.66142 0.0
C306 C 0.93516 0.38628 0.66716 0.0
C307 C 0.93165 0.41111 0.68763 0.0
H308 H 0.63855 0.95264 0.70736 0.0
H309 H 0.55383 0.95136 0.65089 0.0
H310 H 0.66535 0.92189 0.66923 0.0
H311 H 0.58045 0.92009 0.61227 0.0
H312 H 0.66567 0.94104 0.54267 0.0
H313 H 0.62218 0.94058 0.57888 0.0
H314 H 0.67305 0.87694 0.6367 0.0
H315 H 0.71705 0.87847 0.60093 0.0
C316 C 0.62527 0.94436 0.68732 0.0
C317 C 0.59434 0.95405 0.68186 0.0
C318 C 0.64049 0.92663 0.66542 0.0
C319 C 0.6251 0.91874 0.63748 0.0
C320 C 0.59297 0.92601 0.63343 0.0
C321 C 0.57769 0.94366 0.65553 0.0
C322 C 0.66692 0.92595 0.56247 0.0
C323 C 0.69495 0.91055 0.56957 0.0
C324 C 0.64192 0.92553 0.58324 0.0
C325 C 0.64463 0.90942 0.61115 0.0
C326 C 0.67069 0.89022 0.6158 0.0
C327 C 0.69583 0.89106 0.59532 0.0
H328 H 0.47348 0.33053 0.91592 0.0
H329 H 0.45317 0.27009 0.99283 0.0
H330 H 0.42365 0.35654 0.92362 0.0
H331 H 0.40278 0.29561 0.99993 0.0
H332 H 0.35738 0.3855 0.03528 0.0
H333 H 0.39557 0.34779 0.01988 0.0
H334 H 0.36487 0.35653 0.92576 0.0
H335 H 0.32616 0.3953 0.94141 0.0
C336 C 0.45803 0.32223 0.93402 0.0
C337 C 0.46769 0.2987 0.95424 0.0
C338 C 0.42927 0.33702 0.93824 0.0
C339 C 0.4095 0.32852 0.96269 0.0
C340 C 0.41785 0.30313 0.98124 0.0
C341 C 0.4467 0.28844 0.97714 0.0
C342 C 0.35846 0.37936 0.01125 0.0
C343 C 0.33898 0.39377 0.98949 0.0
C344 C 0.38016 0.3573 0.00247 0.0
C345 C 0.38319 0.34894 0.97161 0.0
C346 C 0.36311 0.36259 0.94974 0.0
C347 C 0.34096 0.38469 0.95865 0.0
H348 H 0.30439 0.5534 0.96615 0.0
H349 H 0.30334 0.56446 0.06424 0.0
H350 H 0.32813 0.606 0.96137 0.0
H351 H 0.32528 0.61782 0.05962 0.0
H352 H 0.40925 0.68843 0.04141 0.0
H353 H 0.37375 0.64298 0.05014 0.0
H354 H 0.32569 0.65988 0.96403 0.0
H355 H 0.36275 0.7039 0.95471 0.0
C356 C 0.30843 0.56746 0.98663 0.0
C357 C 0.30237 0.55471 0.01554 0.0
C358 C 0.32191 0.59782 0.98397 0.0
C359 C 0.32903 0.61639 0.01017 0.0
C360 C 0.32101 0.60412 0.03897 0.0
C361 C 0.30817 0.57357 0.04163 0.0
C362 C 0.39047 0.68284 0.02486 0.0
C363 C 0.38873 0.69946 0.99738 0.0
C364 C 0.37003 0.65673 0.02977 0.0
C365 C 0.34704 0.64713 0.00749 0.0
C366 C 0.34365 0.66575 0.98126 0.0
C367 C 0.36457 0.6913 0.97608 0.0
H368 H 0.66072 0.32756 0.96968 0.0
H369 H 0.59257 0.33676 0.04174 0.0
H370 H 0.69312 0.37073 0.99148 0.0
H371 H 0.62374 0.38151 0.0627 0.0
H372 H 0.69188 0.45636 0.10083 0.0
H373 H 0.66913 0.40483 0.08652 0.0
H374 H 0.68875 0.42479 0.99158 0.0
H375 H 0.7128 0.47528 0.00613 0.0
C376 C 0.65296 0.33871 0.99049 0.0
C377 C 0.62421 0.32911 0.00402 0.0
C378 C 0.67127 0.36369 0.00281 0.0
C379 C 0.6607 0.38029 0.02841 0.0
C380 C 0.63281 0.36928 0.04308 0.0
C381 C 0.61486 0.34367 0.03111 0.0
C382 C 0.69157 0.4495 0.07694 0.0
C383 C 0.70408 0.46988 0.05458 0.0
C384 C 0.67839 0.42002 0.06871 0.0
C385 C 0.67704 0.41045 0.03787 0.0
C386 C 0.68998 0.43084 0.01564 0.0
C387 C 0.70358 0.46003 0.02393 0.0
H388 H 0.66002 0.63607 0.0888 0.0
H389 H 0.70171 0.63521 0.99898 0.0
H390 H 0.62048 0.67186 0.07102 0.0
H391 H 0.66233 0.67211 0.98127 0.0
H392 H 0.55833 0.69355 0.95355 0.0
H393 H 0.60633 0.66828 0.96996 0.0
H394 H 0.60807 0.72302 0.05345 0.0
H395 H 0.55916 0.74779 0.03735 0.0
C396 C 0.66113 0.64395 0.06532 0.0
C397 C 0.68384 0.63237 0.0452 0.0
C398 C 0.63852 0.66481 0.05518 0.0
C399 C 0.63801 0.67482 0.02464 0.0
C400 C 0.66173 0.6645 0.00484 0.0
C401 C 0.68443 0.6435 0.01502 0.0
C402 C 0.56905 0.70051 0.9753 0.0
C403 C 0.55458 0.72244 0.99432 0.0
C404 C 0.59686 0.68617 0.98459 0.0
C405 C 0.61108 0.69343 0.01312 0.0
C406 C 0.59747 0.71649 0.03154 0.0
C407 C 0.5695 0.7308 0.02226 0.0
H408 H 0.46984 0.86529 0.95062 0.0
H409 H 0.44094 0.80436 0.87523 0.0
H410 H 0.47123 0.91022 0.91587 0.0
H411 H 0.44258 0.84884 0.84081 0.0
H412 H 0.43389 0.93638 0.78601 0.0
H413 H 0.41976 0.89952 0.82678 0.0
H414 H 0.50823 0.92389 0.87379 0.0
H415 H 0.52218 0.96071 0.8335 0.0
C416 C 0.46328 0.86158 0.92681 0.0
C417 C 0.45572 0.83125 0.91557 0.0
C418 C 0.46418 0.88723 0.90693 0.0
C419 C 0.45716 0.88301 0.87559 0.0
C420 C 0.4478 0.85296 0.86484 0.0
C421 C 0.44719 0.82739 0.88456 0.0
C422 C 0.45006 0.93417 0.80529 0.0
C423 C 0.47934 0.9511 0.80631 0.0
C424 C 0.44201 0.91306 0.82858 0.0
C425 C 0.46295 0.90875 0.85343 0.0
C426 C 0.49143 0.92692 0.85516 0.0
C427 C 0.49957 0.94778 0.83185 0.0
H428 H 0.1762 0.44346 0.93134 0.0
H429 H 0.22715 0.5188 0.88517 0.0
H430 H 0.1325 0.44676 0.8944 0.0
H431 H 0.18327 0.5224 0.84856 0.0
H432 H 0.11155 0.501 0.77115 0.0
H433 H 0.1561 0.49466 0.80655 0.0
H434 H 0.09037 0.48214 0.88096 0.0
H435 H 0.04577 0.488 0.84549 0.0
C436 C 0.17817 0.46065 0.91326 0.0
C437 C 0.20525 0.48088 0.91131 0.0
C438 C 0.15297 0.4627 0.89219 0.0
C439 C 0.15422 0.48495 0.86852 0.0
C440 C 0.18158 0.50477 0.86626 0.0
C441 C 0.20673 0.50279 0.88738 0.0
C442 C 0.10655 0.49682 0.79504 0.0
C443 C 0.07501 0.49506 0.80542 0.0
C444 C 0.13216 0.49334 0.8154 0.0
C445 C 0.12691 0.48791 0.84667 0.0
C446 C 0.09533 0.48589 0.85699 0.0
C447 C 0.06973 0.48946 0.83665 0.0
H448 H 0.56411 0.05287 0.83099 0.0
H449 H 0.63932 0.0999 0.78043 0.0
H450 H 0.57208 0.09023 0.87249 0.0
H451 H 0.64845 0.13659 0.82283 0.0
H452 H 0.60368 0.22357 0.86627 0.0
H453 H 0.61591 0.17866 0.8354 0.0
H454 H 0.59977 0.11769 0.91283 0.0
H455 H 0.58629 0.16315 0.94382 0.0
C456 C 0.58314 0.07054 0.82918 0.0
C457 C 0.60041 0.07409 0.80203 0.0
C458 C 0.58792 0.0919 0.85319 0.0
C459 C 0.61035 0.11697 0.85067 0.0
C460 C 0.63028 0.11811 0.82506 0.0
C461 C 0.62516 0.09703 0.80081 0.0
C462 C 0.60306 0.20068 0.87695 0.0
C463 C 0.59333 0.19687 0.90734 0.0
C464 C 0.61057 0.17483 0.85928 0.0
C465 C 0.60877 0.14443 0.87155 0.0
C466 C 0.60099 0.14076 0.90257 0.0
C467 C 0.59329 0.16677 0.92032 0.0
H468 H 0.85085 0.52118 0.80195 0.0
H469 H 0.93705 0.5291 0.85666 0.0
H470 H 0.81962 0.5333 0.84638 0.0
H471 H 0.90551 0.54209 0.90144 0.0
H472 H 0.83284 0.53351 0.98058 0.0
H473 H 0.86677 0.52124 0.93755 0.0
H474 H 0.80855 0.57696 0.87835 0.0
H475 H 0.77425 0.58852 0.92107 0.0
C476 C 0.86324 0.52561 0.82349 0.0
C477 C 0.89659 0.5243 0.8256 0.0
C478 C 0.84524 0.53282 0.84902 0.0
C479 C 0.85997 0.53916 0.87752 0.0
C480 C 0.89331 0.53722 0.8799 0.0
C481 C 0.91143 0.52984 0.85422 0.0
C482 C 0.82734 0.54324 0.95839 0.0
C483 C 0.80061 0.56183 0.95428 0.0
C484 C 0.84694 0.53632 0.93372 0.0
C485 C 0.84033 0.54784 0.90433 0.0
C486 C 0.81405 0.5671 0.90047 0.0
C487 C 0.79443 0.57392 0.92507 0.0
H488 H 0.5057 0.06771 0.167 0.0
H489 H 0.52308 0.1506 0.22297 0.0
H490 H 0.50764 0.1005 0.12102 0.0
H491 H 0.52513 0.18286 0.17751 0.0
H492 H 0.49441 0.23636 0.09407 0.0
H493 H 0.48884 0.20083 0.13727 0.0
H494 H 0.54725 0.13411 0.09177 0.0
H495 H 0.55267 0.16961 0.04825 0.0
C496 C 0.50988 0.09282 0.16953 0.0
C497 C 0.51421 0.10646 0.19872 0.0
C498 C 0.51113 0.11157 0.14322 0.0
C499 C 0.51634 0.14433 0.14563 0.0
C500 C 0.52058 0.15781 0.17482 0.0
C501 C 0.51961 0.13918 0.20093 0.0
C502 C 0.50598 0.21408 0.09314 0.0
C503 C 0.52421 0.206 0.06775 0.0
C504 C 0.50286 0.19373 0.11798 0.0
C505 C 0.51778 0.16471 0.11807 0.0
C506 C 0.53528 0.15619 0.09233 0.0
C507 C 0.53856 0.17665 0.06749 0.0
H508 H 0.93919 0.51887 0.23078 0.0
H509 H 0.98675 0.58974 0.17565 0.0
H510 H 0.88902 0.52925 0.2051 0.0
H511 H 0.93635 0.60033 0.15024 0.0
H512 H 0.85097 0.57242 0.08502 0.0
H513 H 0.90088 0.57082 0.11381 0.0
H514 H 0.84893 0.56956 0.1984 0.0
H515 H 0.79898 0.57075 0.16974 0.0
C516 C 0.9389 0.53693 0.21347 0.0
C517 C 0.96703 0.55331 0.20513 0.0
C518 C 0.91009 0.54301 0.19888 0.0
C519 C 0.90881 0.56554 0.1756 0.0
C520 C 0.93672 0.58259 0.16787 0.0
C521 C 0.96553 0.5766 0.18255 0.0
C522 C 0.85019 0.57219 0.10977 0.0
C523 C 0.82098 0.5714 0.12506 0.0
C524 C 0.8788 0.57144 0.12626 0.0
C525 C 0.87876 0.56983 0.15835 0.0
C526 C 0.84964 0.57033 0.17367 0.0
C527 C 0.82105 0.57116 0.15721 0.0
H528 H 0.46853 0.85948 0.06027 0.0
H529 H 0.46696 0.78495 0.12681 0.0
H530 H 0.47369 0.89826 0.10141 0.0
H531 H 0.47134 0.8237 0.16795 0.0
H532 H 0.51874 0.899 0.2304 0.0
H533 H 0.50975 0.86004 0.19013 0.0
H534 H 0.44688 0.92239 0.14335 0.0
H535 H 0.45652 0.96183 0.18347 0.0
C536 C 0.46899 0.85134 0.08368 0.0
C537 C 0.46748 0.81901 0.09015 0.0
C538 C 0.47175 0.87364 0.10734 0.0
C539 C 0.47304 0.86423 0.13813 0.0
C540 C 0.47095 0.83189 0.14456 0.0
C541 C 0.46825 0.8096 0.12091 0.0
C542 C 0.50282 0.90442 0.21166 0.0
C543 C 0.48842 0.93368 0.21024 0.0
C544 C 0.4975 0.88191 0.18856 0.0
C545 C 0.47757 0.88794 0.16334 0.0
C546 C 0.46272 0.91703 0.16217 0.0
C547 C 0.46807 0.9396 0.18532 0.0
H548 H 0.23135 0.40258 0.10658 0.0
H549 H 0.16957 0.45422 0.04719 0.0
H550 H 0.18977 0.39907 0.14481 0.0
H551 H 0.1282 0.45151 0.0858 0.0
H552 H 0.14455 0.46982 0.21399 0.0
H553 H 0.17598 0.4447 0.17519 0.0
H554 H 0.09065 0.4248 0.12129 0.0
H555 H 0.0592 0.45023 0.16068 0.0
C556 C 0.20854 0.41249 0.10141 0.0
C557 C 0.20386 0.42939 0.07433 0.0
C558 C 0.18476 0.41045 0.12328 0.0
C559 C 0.15605 0.42565 0.11863 0.0
C560 C 0.15005 0.43948 0.09006 0.0
C561 C 0.1738 0.44121 0.06797 0.0
C562 C 0.13247 0.45882 0.19446 0.0
C563 C 0.09969 0.46157 0.19019 0.0
C564 C 0.15036 0.44435 0.17222 0.0
C565 C 0.13578 0.43286 0.14505 0.0
C566 C 0.10249 0.43356 0.14192 0.0
C567 C 0.08451 0.44782 0.16446 0.0
H568 H 0.83642 0.88531 0.44984 0.0
H569 H 0.8514 0.86498 0.54551 0.0
H570 H 0.87997 0.85084 0.43682 0.0
H571 H 0.89456 0.83167 0.53282 0.0
H572 H 0.9626 0.76157 0.50651 0.0
H573 H 0.91014 0.78382 0.50963 0.0
H574 H 0.93794 0.85442 0.44366 0.0
H575 H 0.98997 0.83158 0.43976 0.0
C576 C 0.84864 0.87317 0.46796 0.0
C577 C 0.84078 0.87815 0.49868 0.0
C578 C 0.87363 0.85361 0.46058 0.0
C579 C 0.89078 0.83852 0.4838 0.0
C580 C 0.88167 0.84245 0.51429 0.0
C581 C 0.85706 0.86194 0.5216 0.0
C582 C 0.95736 0.78156 0.49235 0.0
C583 C 0.98065 0.79513 0.47331 0.0
C584 C 0.92731 0.79433 0.49414 0.0
C585 C 0.91999 0.82118 0.4772 0.0
C586 C 0.94265 0.8336 0.45682 0.0
C587 C 0.97263 0.82066 0.45483 0.0
H588 H 0.91172 0.17019 0.54494 0.0
H589 H 0.857 0.18603 0.46283 0.0
H590 H 0.87735 0.12459 0.55649 0.0
H591 H 0.8211 0.14195 0.47518 0.0
H592 H 0.8019 0.03583 0.4767 0.0
H593 H 0.8251 0.0883 0.47126 0.0
H594 H 0.82986 0.09856 0.56971 0.0
H595 H 0.80813 0.04506 0.57497 0.0
C596 C 0.89147 0.16461 0.53007 0.0
C597 C 0.88706 0.18129 0.50291 0.0
C598 C 0.87166 0.13846 0.53663 0.0
C599 C 0.84672 0.12895 0.51639 0.0
C600 C 0.84067 0.14776 0.49076 0.0
C601 C 0.86094 0.1733 0.48384 0.0
C602 C 0.80755 0.0494 0.49719 0.0
C603 C 0.80346 0.03617 0.52623 0.0
C604 C 0.82067 0.07976 0.49413 0.0
C605 C 0.82951 0.09796 0.52006 0.0
C606 C 0.82397 0.08515 0.54919 0.0
C607 C 0.81133 0.05452 0.55223 0.0
H608 H 0.17719 0.80915 0.49242 0.0
H609 H 0.10803 0.83119 0.56051 0.0
H610 H 0.21176 0.85265 0.5104 0.0
H611 H 0.14158 0.87604 0.57755 0.0
H612 H 0.20956 0.95441 0.60587 0.0
H613 H 0.18815 0.90086 0.59903 0.0
H614 H 0.20742 0.90665 0.50228 0.0
H615 H 0.22986 0.9594 0.50938 0.0
C616 C 0.16982 0.82299 0.51177 0.0
C617 C 0.14004 0.81713 0.52506 0.0
C618 C 0.18938 0.84813 0.52184 0.0
C619 C 0.17908 0.86847 0.54481 0.0
C620 C 0.15039 0.86087 0.55987 0.0
C621 C 0.1311 0.83518 0.55018 0.0
C622 C 0.20957 0.94402 0.58321 0.0
C623 C 0.22117 0.96122 0.55809 0.0
C624 C 0.1972 0.91336 0.57929 0.0
C625 C 0.19593 0.89935 0.55012 0.0
C626 C 0.20854 0.91631 0.52523 0.0
C627 C 0.22119 0.94677 0.5292 0.0
H628 H 0.05086 0.17398 0.45053 0.0
H629 H 0.06092 0.2341 0.53023 0.0
H630 H 0.10054 0.14968 0.46367 0.0
H631 H 0.11133 0.21038 0.54286 0.0
H632 H 0.16675 0.12692 0.57916 0.0
H633 H 0.12481 0.16036 0.56243 0.0
H634 H 0.15777 0.15423 0.46946 0.0
H635 H 0.19977 0.11962 0.48627 0.0
C636 C 0.06394 0.18241 0.47061 0.0
C637 C 0.05164 0.2057 0.48959 0.0
C638 C 0.09265 0.16863 0.47798 0.0
C639 C 0.10987 0.17789 0.50443 0.0
C640 C 0.09837 0.2023 0.52259 0.0
C641 C 0.06952 0.21598 0.51531 0.0
C642 C 0.16537 0.13282 0.55514 0.0
C643 C 0.18647 0.12024 0.53399 0.0
C644 C 0.14139 0.15236 0.54558 0.0
C645 C 0.13784 0.16004 0.51459 0.0
C646 C 0.15965 0.14847 0.49348 0.0
C647 C 0.1838 0.12878 0.5031 0.0
loop_
_geom_bond_atom_site_label_1
_geom_bond_atom_site_label_2
_geom_bond_distance
_geom_bond_site_symmetry_2
_ccdc_geom_bond_type
Zn0 O3 2.031 . S
Zn0 O5 2.049 . S
Zn0 O10 2.067 1_455 S
Zn1 O2 1.962 . S
Zn1 O4 1.986 . S
Zn1 O6 1.996 . S
Zn1 O9 1.943 1_455 S
O2 Zn1 1.962 . S
O2 C7 1.254 . S
O3 Zn0 2.031 . S
O3 C7 1.269 . S
O4 Zn1 1.986 . S
O4 C11 1.262 . S
O5 Zn0 2.049 . S
O5 C13 1.260 . S
O6 Zn1 1.996 . S
O6 C13 1.257 . S
C7 O2 1.254 . S
C7 O3 1.269 . S
C8 O9 1.249 . S
C8 O10 1.270 . S
O9 Zn1 1.943 1_655 S
O9 C8 1.249 . S
O10 Zn0 2.067 1_655 S
O10 C8 1.270 . S
C11 O4 1.262 . S
C11 O12 1.232 . S
O12 C11 1.232 . S
C13 O5 1.260 . S
C13 O6 1.257 . S
Zn14 O17 2.031 1_545 S
Zn14 O19 2.049 . S
Zn14 O24 2.067 . S
Zn15 O16 1.962 1_545 S
Zn15 O18 1.986 . S
Zn15 O20 1.996 . S
Zn15 O23 1.943 . S
O16 Zn15 1.962 1_565 S
O16 C21 1.254 . S
O17 Zn14 2.031 1_565 S
O17 C21 1.269 . S
O18 Zn15 1.986 . S
O18 C25 1.262 . S
O19 Zn14 2.049 . S
O19 C27 1.260 . S
O20 Zn15 1.996 . S
O20 C27 1.257 . S
C21 O16 1.254 . S
C21 O17 1.269 . S
C22 O23 1.249 . S
C22 O24 1.270 . S
O23 Zn15 1.943 . S
O23 C22 1.249 . S
O24 Zn14 2.067 . S
O24 C22 1.270 . S
C25 O18 1.262 . S
C25 O26 1.232 . S
O26 C25 1.232 . S
C27 O19 1.260 . S
C27 O20 1.257 . S
Zn28 O31 2.031 1_455 S
Zn28 O33 2.049 . S
Zn28 O38 2.067 . S
Zn29 O30 1.962 1_455 S
Zn29 O32 1.986 . S
Zn29 O34 1.996 . S
Zn29 O37 1.943 . S
O30 Zn29 1.962 1_655 S
O30 C35 1.254 . S
O31 Zn28 2.031 1_655 S
O31 C35 1.269 . S
O32 Zn29 1.986 . S
O32 C39 1.262 . S
O33 Zn28 2.049 . S
O33 C41 1.260 . S
O34 Zn29 1.996 . S
O34 C41 1.257 . S
C35 O30 1.254 . S
C35 O31 1.269 . S
C36 O37 1.249 . S
C36 O38 1.270 . S
O37 Zn29 1.943 . S
O37 C36 1.249 . S
O38 Zn28 2.067 . S
O38 C36 1.270 . S
C39 O32 1.262 . S
C39 O40 1.232 . S
O40 C39 1.232 . S
C41 O33 1.260 . S
C41 O34 1.257 . S
Zn42 O45 2.031 . S
Zn42 O47 2.049 . S
Zn42 O52 2.067 1_545 S
Zn43 O44 1.962 . S
Zn43 O46 1.986 . S
Zn43 O48 1.996 . S
Zn43 O51 1.943 1_545 S
O44 Zn43 1.962 . S
O44 C49 1.254 . S
O45 Zn42 2.031 . S
O45 C49 1.269 . S
O46 Zn43 1.986 . S
O46 C53 1.262 . S
O47 Zn42 2.049 . S
O47 C55 1.260 . S
O48 Zn43 1.996 . S
O48 C55 1.257 . S
C49 O44 1.254 . S
C49 O45 1.269 . S
C50 O51 1.249 . S
C50 O52 1.270 . S
O51 Zn43 1.943 1_565 S
O51 C50 1.249 . S
O52 Zn42 2.067 1_565 S
O52 C50 1.270 . S
C53 O46 1.262 . S
C53 O54 1.232 . S
O54 C53 1.232 . S
C55 O47 1.260 . S
C55 O48 1.257 . S
Zn56 O59 2.031 . S
Zn56 O61 2.049 . S
Zn56 O66 2.067 . S
Zn57 O58 1.962 . S
Zn57 O60 1.986 1_545 S
Zn57 O62 1.996 . S
Zn57 O65 1.943 . S
O58 Zn57 1.962 . S
O58 C63 1.253 . S
O59 Zn56 2.031 . S
O59 C63 1.269 . S
O60 Zn57 1.986 1_565 S
O60 C67 1.262 . S
O61 Zn56 2.049 . S
O61 C69 1.260 . S
O62 Zn57 1.996 . S
O62 C69 1.257 . S
C63 O58 1.253 . S
C63 O59 1.269 . S
C64 O65 1.249 . S
C64 O66 1.270 . S
O65 Zn57 1.943 . S
O65 C64 1.249 . S
O66 Zn56 2.067 . S
O66 C64 1.270 . S
C67 O60 1.262 . S
C67 O68 1.232 . S
O68 C67 1.232 . S
C69 O61 1.260 . S
C69 O62 1.257 . S
Zn70 O73 2.031 . S
Zn70 O75 2.049 . S
Zn70 O80 2.067 1_455 S
Zn71 O72 1.962 . S
Zn71 O74 1.986 . S
Zn71 O76 1.996 . S
Zn71 O79 1.943 1_455 S
O72 Zn71 1.962 . S
O72 C77 1.254 . S
O73 Zn70 2.031 . S
O73 C77 1.269 . S
O74 Zn71 1.986 . S
O74 C81 1.262 . S
O75 Zn70 2.049 . S
O75 C83 1.260 . S
O76 Zn71 1.996 . S
O76 C83 1.257 . S
C77 O72 1.254 . S
C77 O73 1.269 . S
C78 O79 1.249 . S
C78 O80 1.270 . S
O79 Zn71 1.943 1_655 S
O79 C78 1.249 . S
O80 Zn70 2.067 1_655 S
O80 C78 1.270 . S
C81 O74 1.262 . S
C81 O82 1.232 . S
O82 C81 1.232 . S
C83 O75 1.260 . S
C83 O76 1.257 . S
Zn84 O87 2.031 . S
Zn84 O89 2.049 . S
Zn84 O94 2.067 . S
Zn85 O86 1.963 . S
Zn85 O88 1.998 . S
Zn85 O90 1.972 1_565 S
Zn85 O93 1.943 . S
O86 Zn85 1.963 . S
O86 C91 1.254 1_565 S
O87 Zn84 2.031 . S
O87 C91 1.269 . S
O88 Zn85 1.998 . S
O88 C95 1.262 . S
O89 Zn84 2.049 . S
O89 C97 1.260 . S
O90 Zn85 1.972 1_545 S
O90 C97 1.257 . S
C91 O86 1.254 1_545 S
C91 O87 1.269 . S
C92 O93 1.249 1_545 S
C92 O94 1.270 . S
O93 Zn85 1.943 . S
O93 C92 1.249 1_565 S
O94 Zn84 2.067 . S
O94 C92 1.270 . S
C95 O88 1.262 . S
C95 O96 1.232 . S
O96 C95 1.232 . S
C97 O89 1.260 . S
C97 O90 1.257 . S
Zn98 O101 2.031 . S
Zn98 O103 2.049 . S
Zn98 O108 2.067 . S
Zn99 O100 1.962 . S
Zn99 O102 1.986 . S
Zn99 O104 1.996 1_455 S
Zn99 O107 1.943 . S
O100 Zn99 1.962 . S
O100 C105 1.254 . S
O101 Zn98 2.031 . S
O101 C105 1.269 1_655 S
O102 Zn99 1.986 . S
O102 C109 1.262 . S
O103 Zn98 2.049 . S
O103 C111 1.260 . S
O104 Zn99 1.996 1_655 S
O104 C111 1.257 . S
C105 O100 1.254 . S
C105 O101 1.269 1_455 S
C106 O107 1.249 . S
C106 O108 1.270 1_455 S
O107 Zn99 1.943 . S
O107 C106 1.249 . S
O108 Zn98 2.067 . S
O108 C106 1.270 1_655 S
C109 O102 1.262 . S
C109 O110 1.232 . S
O110 C109 1.232 . S
C111 O103 1.260 . S
C111 O104 1.257 . S
Zn112 O115 2.031 . S
Zn112 O117 2.049 . S
Zn112 O122 2.067 . S
Zn113 O114 1.962 . S
Zn113 O116 1.986 . S
Zn113 O118 1.996 1_556 S
Zn113 O121 1.943 . S
O114 Zn113 1.962 . S
O114 C119 1.254 1_556 S
O115 Zn112 2.031 . S
O115 C119 1.269 . S
O116 Zn113 1.986 . S
O116 C123 1.262 . S
O117 Zn112 2.049 . S
O117 C125 1.260 . S
O118 Zn113 1.996 1_554 S
O118 C125 1.257 . S
C119 O114 1.254 1_554 S
C119 O115 1.269 . S
C120 O121 1.249 1_554 S
C120 O122 1.270 . S
O121 Zn113 1.943 . S
O121 C120 1.249 1_556 S
O122 Zn112 2.067 . S
O122 C120 1.270 . S
C123 O116 1.262 . S
C123 O124 1.232 . S
O124 C123 1.232 . S
C125 O117 1.260 . S
C125 O118 1.257 . S
Zn126 O129 2.031 . S
Zn126 O131 2.049 . S
Zn126 O136 2.067 . S
Zn127 O128 1.962 . S
Zn127 O130 1.986 . S
Zn127 O132 1.996 1_554 S
Zn127 O135 1.943 . S
O128 Zn127 1.962 . S
O128 C133 1.254 . S
O129 Zn126 2.031 . S
O129 C133 1.269 1_556 S
O130 Zn127 1.986 . S
O130 C137 1.262 . S
O131 Zn126 2.049 . S
O131 C139 1.260 . S
O132 Zn127 1.996 1_556 S
O132 C139 1.257 . S
C133 O128 1.254 . S
C133 O129 1.269 1_554 S
C134 O135 1.249 1_556 S
C134 O136 1.270 . S
O135 Zn127 1.943 . S
O135 C134 1.249 1_554 S
O136 Zn126 2.067 . S
O136 C134 1.270 . S
C137 O130 1.262 . S
C137 O138 1.232 . S
O138 C137 1.232 . S
C139 O131 1.260 . S
C139 O132 1.257 . S
Zn140 O143 2.031 . S
Zn140 O145 2.049 . S
Zn140 O150 2.067 . S
Zn141 O142 1.962 . S
Zn141 O144 1.986 . S
Zn141 O146 1.996 1_556 S
Zn141 O149 1.943 . S
O142 Zn141 1.962 . S
O142 C147 1.254 1_556 S
O143 Zn140 2.031 . S
O143 C147 1.269 . S
O144 Zn141 1.986 . S
O144 C151 1.262 . S
O145 Zn140 2.049 . S
O145 C153 1.260 . S
O146 Zn141 1.996 1_554 S
O146 C153 1.257 . S
C147 O142 1.254 1_554 S
C147 O143 1.269 . S
C148 O149 1.249 1_554 S
C148 O150 1.270 . S
O149 Zn141 1.943 . S
O149 C148 1.249 1_556 S
O150 Zn140 2.067 . S
O150 C148 1.270 . S
C151 O144 1.262 . S
C151 O152 1.232 . S
O152 C151 1.232 . S
C153 O145 1.260 . S
C153 O146 1.257 . S
Zn154 O157 2.031 . S
Zn154 O159 2.049 . S
Zn154 O164 2.067 . S
Zn155 O156 1.962 . S
Zn155 O158 1.986 . S
Zn155 O160 1.996 1_554 S
Zn155 O163 1.943 . S
O156 Zn155 1.962 . S
O156 C161 1.254 . S
O157 Zn154 2.031 . S
O157 C161 1.269 1_556 S
O158 Zn155 1.986 . S
O158 C165 1.262 . S
O159 Zn154 2.049 . S
O159 C167 1.260 . S
O160 Zn155 1.996 1_556 S
O160 C167 1.257 . S
C161 O156 1.254 . S
C161 O157 1.269 1_554 S
C162 O163 1.249 1_556 S
C162 O164 1.270 . S
O163 Zn155 1.943 . S
O163 C162 1.249 1_554 S
O164 Zn154 2.067 . S
O164 C162 1.270 . S
C165 O158 1.262 . S
C165 O166 1.232 . S
O166 C165 1.232 . S
C167 O159 1.260 . S
C167 O160 1.257 . S
H168 C176 0.950 . S
H169 C181 0.950 . S
H170 C178 0.950 . S
H171 C180 0.950 . S
H172 C182 0.950 . S
H173 C184 0.950 . S
H174 C186 0.950 . S
H175 C187 0.950 . S
C176 H168 0.950 . S
C176 C177 1.386 1_655 S
C176 C178 1.391 . S
C177 C176 1.386 1_455 S
C177 C181 1.393 . S
C178 H170 0.950 . S
C178 C176 1.391 . S
C178 C179 1.400 1_655 S
C179 C178 1.400 1_455 S
C179 C180 1.398 . S
C179 C185 1.491 . S
C180 H171 0.950 . S
C180 C179 1.398 . S
C180 C181 1.391 . S
C181 H169 0.950 . S
C181 C177 1.393 . S
C181 C180 1.391 . S
C182 H172 0.950 . S
C182 C183 1.386 . S
C182 C184 1.391 . S
C183 C182 1.386 . S
C183 C187 1.393 1_455 S
C184 H173 0.950 . S
C184 C182 1.391 . S
C184 C185 1.400 . S
C185 C179 1.491 . S
C185 C184 1.400 . S
C185 C186 1.398 1_455 S
C186 H174 0.950 . S
C186 C185 1.398 1_655 S
C186 C187 1.391 . S
C187 H175 0.950 . S
C187 C183 1.393 1_655 S
C187 C186 1.391 . S
H188 C196 0.950 . S
H189 C201 0.950 . S
H190 C198 0.950 . S
H191 C200 0.950 . S
H192 C202 0.950 . S
H193 C204 0.950 . S
H194 C206 0.950 . S
H195 C207 0.950 . S
C196 H188 0.950 . S
C196 C197 1.386 1_565 S
C196 C198 1.391 . S
C197 C196 1.386 1_545 S
C197 C201 1.393 . S
C198 H190 0.950 . S
C198 C196 1.391 . S
C198 C199 1.400 1_565 S
C199 C198 1.400 1_545 S
C199 C200 1.398 . S
C199 C205 1.491 . S
C200 H191 0.950 . S
C200 C199 1.398 . S
C200 C201 1.391 . S
C201 H189 0.950 . S
C201 C197 1.393 . S
C201 C200 1.391 . S
C202 H192 0.950 . S
C202 C203 1.386 . S
C202 C204 1.391 . S
C203 C202 1.386 . S
C203 C207 1.393 1_545 S
C204 H193 0.950 . S
C204 C202 1.391 . S
C204 C205 1.400 . S
C205 C199 1.491 . S
C205 C204 1.400 . S
C205 C206 1.398 1_545 S
C206 H194 0.950 . S
C206 C205 1.398 1_565 S
C206 C207 1.391 . S
C207 H195 0.950 . S
C207 C203 1.393 1_565 S
C207 C206 1.391 . S
H208 C216 0.950 . S
H209 C221 0.950 . S
H210 C218 0.950 . S
H211 C220 0.950 . S
H212 C222 0.950 . S
H213 C224 0.950 . S
H214 C226 0.950 . S
H215 C227 0.950 . S
C216 H208 0.950 . S
C216 C217 1.386 1_655 S
C216 C218 1.391 . S
C217 C216 1.386 1_455 S
C217 C221 1.393 . S
C218 H210 0.950 . S
C218 C216 1.391 . S
C218 C219 1.400 1_655 S
C219 C218 1.400 1_455 S
C219 C220 1.398 . S
C219 C225 1.491 . S
C220 H211 0.950 . S
C220 C219 1.398 . S
C220 C221 1.391 . S
C221 H209 0.950 . S
C221 C217 1.393 . S
C221 C220 1.391 . S
C222 H212 0.950 . S
C222 C223 1.386 . S
C222 C224 1.391 . S
C223 C222 1.386 . S
C223 C227 1.393 1_455 S
C224 H213 0.950 . S
C224 C222 1.391 . S
C224 C225 1.400 . S
C225 C219 1.491 . S
C225 C224 1.400 . S
C225 C226 1.398 1_455 S
C226 H214 0.950 . S
C226 C225 1.398 1_655 S
C226 C227 1.391 . S
C227 H215 0.950 . S
C227 C223 1.393 1_655 S
C227 C226 1.391 . S
H228 C236 0.950 . S
H229 C241 0.950 . S
H230 C238 0.950 . S
H231 C240 0.950 . S
H232 C242 0.950 . S
H233 C244 0.950 . S
H234 C246 0.950 . S
H235 C247 0.950 . S
C236 H228 0.950 . S
C236 C237 1.386 . S
C236 C238 1.391 . S
C237 C236 1.386 . S
C237 C241 1.393 . S
C238 H230 0.950 . S
C238 C236 1.391 . S
C238 C239 1.400 . S
C239 C238 1.400 . S
C239 C240 1.398 . S
C239 C245 1.491 . S
C240 H231 0.950 . S
C240 C239 1.398 . S
C240 C241 1.391 . S
C241 H229 0.950 . S
C241 C237 1.393 . S
C241 C240 1.391 . S
C242 H232 0.950 . S
C242 C243 1.386 . S
C242 C244 1.391 . S
C243 C242 1.386 . S
C243 C247 1.393 . S
C244 H233 0.950 . S
C244 C242 1.391 . S
C244 C245 1.400 . S
C245 C239 1.491 . S
C245 C244 1.400 . S
C245 C246 1.398 . S
C246 H234 0.950 . S
C246 C245 1.398 . S
C246 C247 1.391 . S
C247 H235 0.950 . S
C247 C243 1.393 . S
C247 C246 1.391 . S
H248 C256 0.950 . S
H249 C261 0.950 . S
H250 C258 0.950 . S
H251 C260 0.950 . S
H252 C262 0.950 . S
H253 C264 0.950 . S
H254 C266 0.950 . S
H255 C267 0.950 . S
C256 H248 0.950 . S
C256 C257 1.386 1_655 S
C256 C258 1.391 . S
C257 C256 1.386 1_455 S
C257 C261 1.393 . S
C258 H250 0.950 . S
C258 C256 1.391 . S
C258 C259 1.400 1_655 S
C259 C258 1.400 1_455 S
C259 C260 1.398 . S
C259 C265 1.491 . S
C260 H251 0.950 . S
C260 C259 1.398 . S
C260 C261 1.391 . S
C261 H249 0.950 . S
C261 C257 1.393 . S
C261 C260 1.391 . S
C262 H252 0.950 . S
C262 C263 1.386 . S
C262 C264 1.391 . S
C263 C262 1.386 . S
C263 C267 1.393 1_455 S
C264 H253 0.950 . S
C264 C262 1.391 . S
C264 C265 1.400 . S
C265 C259 1.491 . S
C265 C264 1.400 . S
C265 C266 1.398 1_455 S
C266 H254 0.950 . S
C266 C265 1.398 1_655 S
C266 C267 1.391 . S
C267 H255 0.950 . S
C267 C263 1.393 1_655 S
C267 C266 1.391 . S
H268 C276 0.950 . S
H269 C281 0.950 . S
H270 C278 0.950 . S
H271 C280 0.950 . S
H272 C282 0.950 . S
H273 C284 0.950 . S
H274 C286 0.950 . S
H275 C287 0.950 . S
C276 H268 0.950 . S
C276 C277 1.386 . S
C276 C278 1.391 . S
C277 C276 1.386 . S
C277 C281 1.393 1_545 S
C278 H270 0.950 . S
C278 C276 1.391 . S
C278 C279 1.400 . S
C279 C278 1.400 . S
C279 C280 1.398 1_545 S
C279 C285 1.491 . S
C280 H271 0.950 . S
C280 C279 1.398 1_565 S
C280 C281 1.391 . S
C281 H269 0.950 . S
C281 C277 1.393 1_565 S
C281 C280 1.391 . S
C282 H272 0.950 . S
C282 C283 1.386 1_565 S
C282 C284 1.391 . S
C283 C282 1.386 1_545 S
C283 C287 1.393 . S
C284 H273 0.950 . S
C284 C282 1.391 . S
C284 C285 1.400 1_565 S
C285 C279 1.491 . S
C285 C284 1.400 1_545 S
C285 C286 1.398 . S
C286 H274 0.950 . S
C286 C285 1.398 . S
C286 C287 1.391 . S
C287 H275 0.950 . S
C287 C283 1.393 . S
C287 C286 1.391 . S
H288 C296 0.950 . S
H289 C301 0.950 . S
H290 C298 0.950 . S
H291 C300 0.950 . S
H292 C302 0.950 . S
H293 C304 0.950 . S
H294 C306 0.950 . S
H295 C307 0.950 . S
C296 H288 0.950 . S
C296 C297 1.386 1_655 S
C296 C298 1.391 . S
C297 C296 1.386 1_455 S
C297 C301 1.393 . S
C298 H290 0.950 . S
C298 C296 1.391 . S
C298 C299 1.400 1_655 S
C299 C298 1.400 1_455 S
C299 C300 1.398 . S
C299 C305 1.491 . S
C300 H291 0.950 . S
C300 C299 1.398 . S
C300 C301 1.391 . S
C301 H289 0.950 . S
C301 C297 1.393 . S
C301 C300 1.391 . S
C302 H292 0.950 . S
C302 C303 1.386 . S
C302 C304 1.391 . S
C303 C302 1.386 . S
C303 C307 1.393 1_455 S
C304 H293 0.950 . S
C304 C302 1.391 . S
C304 C305 1.400 . S
C305 C299 1.491 . S
C305 C304 1.400 . S
C305 C306 1.398 1_455 S
C306 H294 0.950 . S
C306 C305 1.398 1_655 S
C306 C307 1.391 . S
C307 H295 0.950 . S
C307 C303 1.393 1_655 S
C307 C306 1.391 . S
H308 C316 0.950 . S
H309 C321 0.950 . S
H310 C318 0.950 . S
H311 C320 0.950 . S
H312 C322 0.950 . S
H313 C324 0.950 . S
H314 C326 0.950 . S
H315 C327 0.950 . S
C316 H308 0.950 . S
C316 C317 1.386 1_565 S
C316 C318 1.391 . S
C317 C316 1.386 1_545 S
C317 C321 1.393 . S
C318 H310 0.950 . S
C318 C316 1.391 . S
C318 C319 1.400 1_565 S
C319 C318 1.400 1_545 S
C319 C320 1.398 . S
C319 C325 1.491 . S
C320 H311 0.950 . S
C320 C319 1.398 . S
C320 C321 1.391 . S
C321 H309 0.950 . S
C321 C317 1.393 . S
C321 C320 1.391 . S
C322 H312 0.950 . S
C322 C323 1.386 . S
C322 C324 1.391 . S
C323 C322 1.386 . S
C323 C327 1.393 1_545 S
C324 H313 0.950 . S
C324 C322 1.391 . S
C324 C325 1.400 . S
C325 C319 1.491 . S
C325 C324 1.400 . S
C325 C326 1.398 1_545 S
C326 H314 0.950 . S
C326 C325 1.398 1_565 S
C326 C327 1.391 . S
C327 H315 0.950 . S
C327 C323 1.393 1_565 S
C327 C326 1.391 . S
H328 C336 0.950 . S
H329 C341 0.950 . S
H330 C338 0.950 . S
H331 C340 0.950 . S
H332 C342 0.950 . S
H333 C344 0.950 . S
H334 C346 0.949 1_556 S
H335 C347 0.951 . S
C336 H328 0.950 . S
C336 C337 1.386 . S
C336 C338 1.391 . S
C337 C336 1.386 . S
C337 C341 1.393 . S
C338 H330 0.950 . S
C338 C336 1.391 . S
C338 C339 1.400 . S
C339 C338 1.400 . S
C339 C340 1.398 . S
C339 C345 1.491 . S
C340 H331 0.950 . S
C340 C339 1.398 . S
C340 C341 1.391 . S
C341 H329 0.950 . S
C341 C337 1.393 . S
C341 C340 1.391 . S
C342 H332 0.950 . S
C342 C343 1.386 . S
C342 C344 1.391 . S
C343 C342 1.386 . S
C343 C347 1.392 1_554 S
C344 H333 0.950 . S
C344 C342 1.391 . S
C344 C345 1.400 . S
C345 C339 1.491 . S
C345 C344 1.400 . S
C345 C346 1.400 . S
C346 H334 0.949 1_554 S
C346 C345 1.400 . S
C346 C347 1.390 1_554 S
C347 H335 0.951 . S
C347 C343 1.392 1_556 S
C347 C346 1.390 1_556 S
H348 C356 0.950 . S
H349 C361 0.950 . S
H350 C358 0.950 . S
H351 C360 0.950 . S
H352 C362 0.950 . S
H353 C364 0.950 . S
H354 C366 0.950 . S
H355 C367 0.950 . S
C356 H348 0.950 . S
C356 C357 1.386 1_556 S
C356 C358 1.391 . S
C357 C356 1.386 1_554 S
C357 C361 1.393 . S
C358 H350 0.950 . S
C358 C356 1.391 . S
C358 C359 1.400 1_556 S
C359 C358 1.400 1_554 S
C359 C360 1.398 . S
C359 C365 1.491 . S
C360 H351 0.950 . S
C360 C359 1.398 . S
C360 C361 1.391 . S
C361 H349 0.950 . S
C361 C357 1.393 . S
C361 C360 1.391 . S
C362 H352 0.950 . S
C362 C363 1.386 . S
C362 C364 1.391 . S
C363 C362 1.386 . S
C363 C367 1.393 1_554 S
C364 H353 0.950 . S
C364 C362 1.391 . S
C364 C365 1.400 . S
C365 C359 1.491 . S
C365 C364 1.400 . S
C365 C366 1.398 1_554 S
C366 H354 0.950 . S
C366 C365 1.398 1_556 S
C366 C367 1.391 . S
C367 H355 0.950 . S
C367 C363 1.393 1_556 S
C367 C366 1.391 . S
H368 C376 0.950 . S
H369 C381 0.950 . S
H370 C378 0.950 . S
H371 C380 0.950 . S
H372 C382 0.950 . S
H373 C384 0.950 . S
H374 C386 0.950 . S
H375 C387 0.950 . S
C376 H368 0.950 . S
C376 C377 1.386 1_556 S
C376 C378 1.391 . S
C377 C376 1.386 1_554 S
C377 C381 1.393 . S
C378 H370 0.950 . S
C378 C376 1.391 . S
C378 C379 1.400 1_556 S
C379 C378 1.400 1_554 S
C379 C380 1.398 . S
C379 C385 1.491 . S
C380 H371 0.950 . S
C380 C379 1.398 . S
C380 C381 1.391 . S
C381 H369 0.950 . S
C381 C377 1.393 . S
C381 C380 1.391 . S
C382 H372 0.950 . S
C382 C383 1.386 . S
C382 C384 1.391 . S
C383 C382 1.386 . S
C383 C387 1.393 1_554 S
C384 H373 0.950 . S
C384 C382 1.391 . S
C384 C385 1.400 . S
C385 C379 1.491 . S
C385 C384 1.400 . S
C385 C386 1.398 1_554 S
C386 H374 0.950 . S
C386 C385 1.398 1_556 S
C386 C387 1.391 . S
C387 H375 0.950 . S
C387 C383 1.393 1_556 S
C387 C386 1.391 . S
H388 C396 0.950 . S
H389 C401 0.950 1_556 S
H390 C398 0.950 . S
H391 C400 0.950 . S
H392 C402 0.950 . S
H393 C404 0.950 . S
H394 C406 0.950 . S
H395 C407 0.950 . S
C396 H388 0.950 . S
C396 C397 1.386 . S
C396 C398 1.391 . S
C397 C396 1.386 . S
C397 C401 1.393 . S
C398 H390 0.950 . S
C398 C396 1.391 . S
C398 C399 1.400 . S
C399 C398 1.400 . S
C399 C400 1.398 . S
C399 C405 1.491 . S
C400 H391 0.950 . S
C400 C399 1.398 . S
C400 C401 1.391 . S
C401 H389 0.950 1_554 S
C401 C397 1.393 . S
C401 C400 1.391 . S
C402 H392 0.950 . S
C402 C403 1.386 . S
C402 C404 1.391 . S
C403 C402 1.386 . S
C403 C407 1.393 . S
C404 H393 0.950 . S
C404 C402 1.391 . S
C404 C405 1.400 . S
C405 C399 1.491 . S
C405 C404 1.400 . S
C405 C406 1.398 . S
C406 H394 0.950 . S
C406 C405 1.398 . S
C406 C407 1.391 . S
C407 H395 0.950 . S
C407 C403 1.393 . S
C407 C406 1.391 . S
H408 C416 0.950 . S
H409 C421 0.950 . S
H410 C418 0.950 . S
H411 C420 0.950 . S
H412 C422 0.950 . S
H413 C424 0.950 . S
H414 C426 0.950 . S
H415 C427 0.950 . S
C416 H408 0.950 . S
C416 C417 1.386 . S
C416 C418 1.391 . S
C417 C416 1.386 . S
C417 C421 1.393 . S
C418 H410 0.950 . S
C418 C416 1.391 . S
C418 C419 1.400 . S
C419 C418 1.400 . S
C419 C420 1.398 . S
C419 C425 1.491 . S
C420 H411 0.950 . S
C420 C419 1.398 . S
C420 C421 1.391 . S
C421 H409 0.950 . S
C421 C417 1.393 . S
C421 C420 1.391 . S
C422 H412 0.950 . S
C422 C423 1.386 . S
C422 C424 1.391 . S
C423 C422 1.386 . S
C423 C427 1.393 . S
C424 H413 0.950 . S
C424 C422 1.391 . S
C424 C425 1.400 . S
C425 C419 1.491 . S
C425 C424 1.400 . S
C425 C426 1.398 . S
C426 H414 0.950 . S
C426 C425 1.398 . S
C426 C427 1.391 . S
C427 H415 0.950 . S
C427 C423 1.393 . S
C427 C426 1.391 . S
H428 C436 0.950 . S
H429 C441 0.950 . S
H430 C438 0.950 . S
H431 C440 0.950 . S
H432 C442 0.950 . S
H433 C444 0.950 . S
H434 C446 0.950 . S
H435 C447 0.950 . S
C436 H428 0.950 . S
C436 C437 1.386 . S
C436 C438 1.391 . S
C437 C436 1.386 . S
C437 C441 1.393 . S
C438 H430 0.950 . S
C438 C436 1.391 . S
C438 C439 1.400 . S
C439 C438 1.400 . S
C439 C440 1.398 . S
C439 C445 1.491 . S
C440 H431 0.950 . S
C440 C439 1.398 . S
C440 C441 1.391 . S
C441 H429 0.950 . S
C441 C437 1.393 . S
C441 C440 1.391 . S
C442 H432 0.950 . S
C442 C443 1.386 . S
C442 C444 1.391 . S
C443 C442 1.386 . S
C443 C447 1.393 . S
C444 H433 0.950 . S
C444 C442 1.391 . S
C444 C445 1.400 . S
C445 C439 1.491 . S
C445 C444 1.400 . S
C445 C446 1.398 . S
C446 H434 0.950 . S
C446 C445 1.398 . S
C446 C447 1.391 . S
C447 H435 0.950 . S
C447 C443 1.393 . S
C447 C446 1.391 . S
H448 C456 0.950 . S
H449 C461 0.950 . S
H450 C458 0.950 . S
H451 C460 0.950 . S
H452 C462 0.950 . S
H453 C464 0.950 . S
H454 C466 0.950 . S
H455 C467 0.950 . S
C456 H448 0.950 . S
C456 C457 1.386 . S
C456 C458 1.391 . S
C457 C456 1.386 . S
C457 C461 1.393 . S
C458 H450 0.950 . S
C458 C456 1.391 . S
C458 C459 1.400 . S
C459 C458 1.400 . S
C459 C460 1.398 . S
C459 C465 1.491 . S
C460 H451 0.950 . S
C460 C459 1.398 . S
C460 C461 1.391 . S
C461 H449 0.950 . S
C461 C457 1.393 . S
C461 C460 1.391 . S
C462 H452 0.950 . S
C462 C463 1.386 . S
C462 C464 1.391 . S
C463 C462 1.386 . S
C463 C467 1.393 . S
C464 H453 0.950 . S
C464 C462 1.391 . S
C464 C465 1.400 . S
C465 C459 1.491 . S
C465 C464 1.400 . S
C465 C466 1.398 . S
C466 H454 0.950 . S
C466 C465 1.398 . S
C466 C467 1.391 . S
C467 H455 0.950 . S
C467 C463 1.393 . S
C467 C466 1.391 . S
H468 C476 0.950 . S
H469 C481 0.950 . S
H470 C478 0.950 . S
H471 C480 0.950 . S
H472 C482 0.950 . S
H473 C484 0.950 . S
H474 C486 0.950 . S
H475 C487 0.950 . S
C476 H468 0.950 . S
C476 C477 1.386 . S
C476 C478 1.391 . S
C477 C476 1.386 . S
C477 C481 1.393 . S
C478 H470 0.950 . S
C478 C476 1.391 . S
C478 C479 1.400 . S
C479 C478 1.400 . S
C479 C480 1.398 . S
C479 C485 1.491 . S
C480 H471 0.950 . S
C480 C479 1.398 . S
C480 C481 1.391 . S
C481 H469 0.950 . S
C481 C477 1.393 . S
C481 C480 1.391 . S
C482 H472 0.950 . S
C482 C483 1.386 . S
C482 C484 1.391 . S
C483 C482 1.386 . S
C483 C487 1.393 . S
C484 H473 0.950 . S
C484 C482 1.391 . S
C484 C485 1.400 . S
C485 C479 1.491 . S
C485 C484 1.400 . S
C485 C486 1.398 . S
C486 H474 0.950 . S
C486 C485 1.398 . S
C486 C487 1.391 . S
C487 H475 0.950 . S
C487 C483 1.393 . S
C487 C486 1.391 . S
H488 C496 0.950 . S
H489 C501 0.950 . S
H490 C498 0.950 . S
H491 C500 0.950 . S
H492 C502 0.950 . S
H493 C504 0.950 . S
H494 C506 0.950 . S
H495 C507 0.950 . S
C496 H488 0.950 . S
C496 C497 1.386 . S
C496 C498 1.391 . S
C497 C496 1.386 . S
C497 C501 1.393 . S
C498 H490 0.950 . S
C498 C496 1.391 . S
C498 C499 1.400 . S
C499 C498 1.400 . S
C499 C500 1.398 . S
C499 C505 1.491 . S
C500 H491 0.950 . S
C500 C499 1.398 . S
C500 C501 1.391 . S
C501 H489 0.950 . S
C501 C497 1.393 . S
C501 C500 1.391 . S
C502 H492 0.950 . S
C502 C503 1.386 . S
C502 C504 1.391 . S
C503 C502 1.386 . S
C503 C507 1.393 . S
C504 H493 0.950 . S
C504 C502 1.391 . S
C504 C505 1.400 . S
C505 C499 1.491 . S
C505 C504 1.400 . S
C505 C506 1.398 . S
C506 H494 0.950 . S
C506 C505 1.398 . S
C506 C507 1.391 . S
C507 H495 0.950 . S
C507 C503 1.393 . S
C507 C506 1.391 . S
H508 C516 0.950 . S
H509 C521 0.950 . S
H510 C518 0.950 . S
H511 C520 0.950 . S
H512 C522 0.950 . S
H513 C524 0.950 . S
H514 C526 0.950 . S
H515 C527 0.950 . S
C516 H508 0.950 . S
C516 C517 1.386 . S
C516 C518 1.391 . S
C517 C516 1.386 . S
C517 C521 1.393 . S
C518 H510 0.950 . S
C518 C516 1.391 . S
C518 C519 1.400 . S
C519 C518 1.400 . S
C519 C520 1.398 . S
C519 C525 1.491 . S
C520 H511 0.950 . S
C520 C519 1.398 . S
C520 C521 1.391 . S
C521 H509 0.950 . S
C521 C517 1.393 . S
C521 C520 1.391 . S
C522 H512 0.950 . S
C522 C523 1.386 . S
C522 C524 1.391 . S
C523 C522 1.386 . S
C523 C527 1.393 . S
C524 H513 0.950 . S
C524 C522 1.391 . S
C524 C525 1.400 . S
C525 C519 1.491 . S
C525 C524 1.400 . S
C525 C526 1.398 . S
C526 H514 0.950 . S
C526 C525 1.398 . S
C526 C527 1.391 . S
C527 H515 0.950 . S
C527 C523 1.393 . S
C527 C526 1.391 . S
H528 C536 0.950 . S
H529 C541 0.950 . S
H530 C538 0.950 . S
H531 C540 0.950 . S
H532 C542 0.950 . S
H533 C544 0.950 . S
H534 C546 0.950 . S
H535 C547 0.950 . S
C536 H528 0.950 . S
C536 C537 1.386 . S
C536 C538 1.391 . S
C537 C536 1.386 . S
C537 C541 1.393 . S
C538 H530 0.950 . S
C538 C536 1.391 . S
C538 C539 1.400 . S
C539 C538 1.400 . S
C539 C540 1.398 . S
C539 C545 1.491 . S
C540 H531 0.950 . S
C540 C539 1.398 . S
C540 C541 1.391 . S
C541 H529 0.950 . S
C541 C537 1.393 . S
C541 C540 1.391 . S
C542 H532 0.950 . S
C542 C543 1.386 . S
C542 C544 1.391 . S
C543 C542 1.386 . S
C543 C547 1.393 . S
C544 H533 0.950 . S
C544 C542 1.391 . S
C544 C545 1.400 . S
C545 C539 1.491 . S
C545 C544 1.400 . S
C545 C546 1.398 . S
C546 H534 0.950 . S
C546 C545 1.398 . S
C546 C547 1.391 . S
C547 H535 0.950 . S
C547 C543 1.393 . S
C547 C546 1.391 . S
H548 C556 0.950 . S
H549 C561 0.950 . S
H550 C558 0.950 . S
H551 C560 0.950 . S
H552 C562 0.950 . S
H553 C564 0.950 . S
H554 C566 0.950 . S
H555 C567 0.950 . S
C556 H548 0.950 . S
C556 C557 1.386 . S
C556 C558 1.391 . S
C557 C556 1.386 . S
C557 C561 1.393 . S
C558 H550 0.950 . S
C558 C556 1.391 . S
C558 C559 1.400 . S
C559 C558 1.400 . S
C559 C560 1.398 . S
C559 C565 1.491 . S
C560 H551 0.950 . S
C560 C559 1.398 . S
C560 C561 1.391 . S
C561 H549 0.950 . S
C561 C557 1.393 . S
C561 C560 1.391 . S
C562 H552 0.950 . S
C562 C563 1.386 . S
C562 C564 1.391 . S
C563 C562 1.386 . S
C563 C567 1.393 . S
C564 H553 0.950 . S
C564 C562 1.391 . S
C564 C565 1.400 . S
C565 C559 1.491 . S
C565 C564 1.400 . S
C565 C566 1.398 . S
C566 H554 0.950 . S
C566 C565 1.398 . S
C566 C567 1.391 . S
C567 H555 0.950 . S
C567 C563 1.393 . S
C567 C566 1.391 . S
H568 C576 0.950 . S
H569 C581 0.950 . S
H570 C578 0.950 . S
H571 C580 0.950 . S
H572 C582 0.950 . S
H573 C584 0.950 . S
H574 C586 0.950 . S
H575 C587 0.950 . S
C576 H568 0.950 . S
C576 C577 1.386 . S
C576 C578 1.391 . S
C577 C576 1.386 . S
C577 C581 1.393 . S
C578 H570 0.950 . S
C578 C576 1.391 . S
C578 C579 1.400 . S
C579 C578 1.400 . S
C579 C580 1.398 . S
C579 C585 1.491 . S
C580 H571 0.950 . S
C580 C579 1.398 . S
C580 C581 1.391 . S
C581 H569 0.950 . S
C581 C577 1.393 . S
C581 C580 1.391 . S
C582 H572 0.950 . S
C582 C583 1.386 . S
C582 C584 1.391 . S
C583 C582 1.386 . S
C583 C587 1.393 . S
C584 H573 0.950 . S
C584 C582 1.391 . S
C584 C585 1.400 . S
C585 C579 1.491 . S
C585 C584 1.400 . S
C585 C586 1.398 . S
C586 H574 0.950 . S
C586 C585 1.398 . S
C586 C587 1.391 . S
C587 H575 0.950 . S
C587 C583 1.393 . S
C587 C586 1.391 . S
H588 C596 0.950 . S
H589 C601 0.950 . S
H590 C598 0.950 . S
H591 C600 0.950 . S
H592 C602 0.950 . S
H593 C604 0.950 . S
H594 C606 0.950 . S
H595 C607 0.950 . S
C596 H588 0.950 . S
C596 C597 1.386 . S
C596 C598 1.391 . S
C597 C596 1.386 . S
C597 C601 1.393 . S
C598 H590 0.950 . S
C598 C596 1.391 . S
C598 C599 1.400 . S
C599 C598 1.400 . S
C599 C600 1.398 . S
C599 C605 1.491 . S
C600 H591 0.950 . S
C600 C599 1.398 . S
C600 C601 1.391 . S
C601 H589 0.950 . S
C601 C597 1.393 . S
C601 C600 1.391 . S
C602 H592 0.950 . S
C602 C603 1.386 . S
C602 C604 1.391 . S
C603 C602 1.386 . S
C603 C607 1.393 . S
C604 H593 0.950 . S
C604 C602 1.391 . S
C604 C605 1.400 . S
C605 C599 1.491 . S
C605 C604 1.400 . S
C605 C606 1.398 . S
C606 H594 0.950 . S
C606 C605 1.398 . S
C606 C607 1.391 . S
C607 H595 0.950 . S
C607 C603 1.393 . S
C607 C606 1.391 . S
H608 C616 0.950 . S
H609 C621 0.950 . S
H610 C618 0.950 . S
H611 C620 0.950 . S
H612 C622 0.950 . S
H613 C624 0.950 . S
H614 C626 0.950 . S
H615 C627 0.950 . S
C616 H608 0.950 . S
C616 C617 1.386 . S
C616 C618 1.391 . S
C617 C616 1.386 . S
C617 C621 1.393 . S
C618 H610 0.950 . S
C618 C616 1.391 . S
C618 C619 1.400 . S
C619 C618 1.400 . S
C619 C620 1.398 . S
C619 C625 1.491 . S
C620 H611 0.950 . S
C620 C619 1.398 . S
C620 C621 1.391 . S
C621 H609 0.950 . S
C621 C617 1.393 . S
C621 C620 1.391 . S
C622 H612 0.950 . S
C622 C623 1.386 . S
C622 C624 1.391 . S
C623 C622 1.386 . S
C623 C627 1.393 . S
C624 H613 0.950 . S
C624 C622 1.391 . S
C624 C625 1.400 . S
C625 C619 1.491 . S
C625 C624 1.400 . S
C625 C626 1.398 . S
C626 H614 0.950 . S
C626 C625 1.398 . S
C626 C627 1.391 . S
C627 H615 0.950 . S
C627 C623 1.393 . S
C627 C626 1.391 . S
H628 C636 0.950 . S
H629 C641 0.950 . S
H630 C638 0.950 . S
H631 C640 0.950 . S
H632 C642 0.950 . S
H633 C644 0.950 . S
H634 C646 0.950 . S
H635 C647 0.950 . S
C636 H628 0.950 . S
C636 C637 1.386 . S
C636 C638 1.391 . S
C637 C636 1.386 . S
C637 C641 1.393 . S
C638 H630 0.950 . S
C638 C636 1.391 . S
C638 C639 1.400 . S
C639 C638 1.400 . S
C639 C640 1.398 . S
C639 C645 1.491 . S
C640 H631 0.950 . S
C640 C639 1.398 . S
C640 C641 1.391 . S
C641 H629 0.950 . S
C641 C637 1.393 . S
C641 C640 1.391 . S
C642 H632 0.950 . S
C642 C643 1.386 . S
C642 C644 1.391 . S
C643 C642 1.386 . S
C643 C647 1.393 . S
C644 H633 0.950 . S
C644 C642 1.391 . S
C644 C645 1.400 . S
C645 C639 1.491 . S
C645 C644 1.400 . S
C645 C646 1.398 . S
C646 H634 0.950 . S
C646 C645 1.398 . S
C646 C647 1.391 . S
C647 H635 0.950 . S
C647 C643 1.393 . S
C647 C646 1.391 . S
C177 C13 1.317 . S
C183 C81 1.372 . S
C197 C25 1.274 . S
C203 C64 1.255 . S
C217 C83 1.318 . S
C223 C41 1.297 . S
C237 C53 1.318 . S
C243 C63 1.296 . S
C257 C105 1.378 . S
C263 C39 1.394 . S
C277 C92 1.419 . S
C283 C55 1.374 . S
C297 C11 1.374 . S
C303 C106 1.357 . S
C317 C91 1.428 . S
C323 C27 1.367 . S
C337 C133 1.306 . S
C343 C119 1.305 . S
C357 C120 1.189 . S
C363 C162 1.188 1_554 S
C377 C134 1.250 1_554 S
C383 C148 1.251 . S
C397 C147 1.311 . S
C403 C161 1.311 . S
C417 C167 1.334 . S
C423 C95 1.387 . S
C437 C123 1.135 . S
C443 C109 1.133 . S
C457 C97 1.365 . S
C463 C139 1.389 . S
C477 C111 1.187 . S
C483 C151 1.224 . S
C497 C69 1.235 . S
C503 C137 1.302 . S
C517 C78 1.488 . S
C523 C153 1.449 . S
C537 C165 1.227 . S
C543 C67 1.228 . S
C557 C125 1.380 . S
C563 C77 1.435 . S
C577 C21 1.403 . S
C583 C35 1.406 . S
C597 C8 1.320 . S
C603 C22 1.319 . S
C617 C36 1.381 . S
C623 C50 1.382 . S
C637 C7 1.423 . S
C643 C49 1.423 . S
