# Generated by pormake.
# Topology ukf, (4)-cn, num edge types: 1
# Building blocks:
#     Node 0, Type 0, BuildingBlock: UXUYUI_clean_sbu_0, # of connection points: 4
#     Node 1, Type 0, BuildingBlock: UXUYUI_clean_sbu_0, # of connection points: 4
#     Node 2, Type 0, BuildingBlock: UXUYUI_clean_sbu_0, # of connection points: 4
#     Node 3, Type 0, BuildingBlock: UXUYUI_clean_sbu_0, # of connection points: 4
#     Node 4, Type 0, BuildingBlock: UXUYUI_clean_sbu_0, # of connection points: 4
#     Node 5, Type 0, BuildingBlock: UXUYUI_clean_sbu_0, # of connection points: 4
#     Node 6, Type 0, BuildingBlock: UXUYUI_clean_sbu_0, # of connection points: 4
#     Node 7, Type 0, BuildingBlock: UXUYUI_clean_sbu_0, # of connection points: 4
#     Node 8, Type 0, BuildingBlock: UXUYUI_clean_sbu_0, # of connection points: 4
#     Node 9, Type 0, BuildingBlock: UXUYUI_clean_sbu_0, # of connection points: 4
#     Node 10, Type 0, BuildingBlock: UXUYUI_clean_sbu_0, # of connection points: 4
#     Node 11, Type 0, BuildingBlock: UXUYUI_clean_sbu_0, # of connection points: 4
#     Edge 12, Type (0, 0), BuildingBlock: ZUJKAS_clean_linker_0, # of connection points: 2
#     Edge 13, Type (0, 0), BuildingBlock: ZUJKAS_clean_linker_0, # of connection points: 2
#     Edge 14, Type (0, 0), BuildingBlock: ZUJKAS_clean_linker_0, # of connection points: 2
#     Edge 15, Type (0, 0), BuildingBlock: ZUJKAS_clean_linker_0, # of connection points: 2
#     Edge 16, Type (0, 0), BuildingBlock: ZUJKAS_clean_linker_0, # of connection points: 2
#     Edge 17, Type (0, 0), BuildingBlock: ZUJKAS_clean_linker_0, # of connection points: 2
#     Edge 18, Type (0, 0), BuildingBlock: ZUJKAS_clean_linker_0, # of connection points: 2
#     Edge 19, Type (0, 0), BuildingBlock: ZUJKAS_clean_linker_0, # of connection points: 2
#     Edge 20, Type (0, 0), BuildingBlock: ZUJKAS_clean_linker_0, # of connection points: 2
#     Edge 21, Type (0, 0), BuildingBlock: ZUJKAS_clean_linker_0, # of connection points: 2
#     Edge 22, Type (0, 0), BuildingBlock: ZUJKAS_clean_linker_0, # of connection points: 2
#     Edge 23, Type (0, 0), BuildingBlock: ZUJKAS_clean_linker_0, # of connection points: 2
#     Edge 24, Type (0, 0), BuildingBlock: ZUJKAS_clean_linker_0, # of connection points: 2
#     Edge 25, Type (0, 0), BuildingBlock: ZUJKAS_clean_linker_0, # of connection points: 2
#     Edge 26, Type (0, 0), BuildingBlock: ZUJKAS_clean_linker_0, # of connection points: 2
#     Edge 27, Type (0, 0), BuildingBlock: ZUJKAS_clean_linker_0, # of connection points: 2
#     Edge 28, Type (0, 0), BuildingBlock: ZUJKAS_clean_linker_0, # of connection points: 2
#     Edge 29, Type (0, 0), BuildingBlock: ZUJKAS_clean_linker_0, # of connection points: 2
#     Edge 30, Type (0, 0), BuildingBlock: ZUJKAS_clean_linker_0, # of connection points: 2
#     Edge 31, Type (0, 0), BuildingBlock: ZUJKAS_clean_linker_0, # of connection points: 2
#     Edge 32, Type (0, 0), BuildingBlock: ZUJKAS_clean_linker_0, # of connection points: 2
#     Edge 33, Type (0, 0), BuildingBlock: ZUJKAS_clean_linker_0, # of connection points: 2
#     Edge 34, Type (0, 0), BuildingBlock: ZUJKAS_clean_linker_0, # of connection points: 2
#     Edge 35, Type (0, 0), BuildingBlock: ZUJKAS_clean_linker_0, # of connection points: 2
# Relax obj value: 0.271
# Max RMSD: 0.213
# Mean RMSD: 0.213
data_MOF--net-ukf--node1-UXUYUI_clean_sbu_0--edge1-ZUJKAS_clean_linker_0
_symmetry_space_group_name_H-M    P1
_symmetry_Int_Tables_number       1
_symmetry_cell_setting            triclinic
loop_
_symmetry_equiv_pos_as_xyz
'x, y, z'
_cell_length_a     55.649497
_cell_length_b     55.644623
_cell_length_c     110.78797
_cell_angle_alpha  89.999505
_cell_angle_beta   90.007117
_cell_angle_gamma 120.03604
loop_
_atom_site_label
_atom_site_type_symbol
_atom_site_fract_x
_atom_site_fract_y
_atom_site_fract_z
_atom_type_partial_charge
Li0 Li 0.38695 0.22499 0.05964 0.0
Li1 Li 0.36623 0.20836 0.03928 0.0
Li2 Li 0.41542 0.23044 0.04224 0.0
Li3 Li 0.39319 0.25789 0.04318 0.0
C4 C 0.39781 0.17887 0.04817 0.0
N5 N 0.42296 0.14743 0.04455 0.0
C6 C 0.39014 0.16072 0.03835 0.0
C7 C 0.41805 0.1808 0.05622 0.0
C8 C 0.40315 0.14504 0.03666 0.0
C9 C 0.43059 0.16481 0.05421 0.0
C10 C 0.33659 0.23385 0.04715 0.0
C11 C 0.312 0.24076 0.03083 0.0
N12 N 0.29367 0.2409 0.03891 0.0
C13 C 0.31753 0.23406 0.05529 0.0
C14 C 0.33384 0.23722 0.03481 0.0
C15 C 0.29596 0.23765 0.05094 0.0
C16 C 0.38475 0.23943 0.08372 0.0
N17 N 0.38223 0.21867 0.07643 0.0
C18 C 0.37653 0.18995 0.09343 0.0
C19 C 0.3779 0.19415 0.08098 0.0
C20 C 0.37956 0.21119 0.10126 0.0
C21 C 0.38343 0.2361 0.09624 0.0
H22 H 0.38828 0.25873 0.0798 0.0
H23 H 0.37609 0.17807 0.07493 0.0
C24 C 0.33859 0.17478 0.01934 0.0
N25 N 0.33563 0.17933 0.03114 0.0
C26 C 0.3178 0.15144 0.01345 0.0
C27 C 0.29089 0.13852 0.03188 0.0
C28 C 0.31226 0.16211 0.03742 0.0
C29 C 0.29381 0.13262 0.01981 0.0
H30 H 0.35758 0.18872 0.01464 0.0
H31 H 0.3107 0.1662 0.04685 0.0
C32 C 0.44493 0.27256 0.06084 0.0
N33 N 0.49349 0.30143 0.07394 0.0
C34 C 0.46412 0.30012 0.05793 0.0
C35 C 0.45039 0.25979 0.07048 0.0
C36 C 0.48856 0.31432 0.06464 0.0
C37 C 0.47506 0.27471 0.07698 0.0
C38 C 0.41332 0.25543 0.02061 0.0
C39 C 0.43936 0.27696 0.02417 0.0
C40 C 0.40557 0.25286 0.00847 0.0
C41 C 0.45723 0.29561 0.01552 0.0
C42 C 0.42403 0.27193 9e-05 0.0
N43 N 0.44926 0.29274 0.00376 0.0
C44 C 0.44422 0.21643 0.02569 0.0
C45 C 0.47196 0.24083 0.04253 0.0
C46 C 0.46611 0.21442 0.02063 0.0
N47 N 0.44745 0.22944 0.03646 0.0
C48 C 0.49448 0.23954 0.03776 0.0
C49 C 0.49168 0.2262 0.02667 0.0
H50 H 0.42453 0.20755 0.02102 0.0
H51 H 0.4742 0.25085 0.05109 0.0
C52 C 0.40837 0.31153 0.04993 0.0
N53 N 0.39842 0.29383 0.04041 0.0
C54 C 0.41748 0.33965 0.04835 0.0
C55 C 0.4043 0.33052 0.02733 0.0
C56 C 0.39541 0.3025 0.02933 0.0
C57 C 0.4162 0.34962 0.03685 0.0
H58 H 0.41048 0.30399 0.05864 0.0
H59 H 0.38712 0.28792 0.02193 0.0
O60 O 0.3859 0.19499 0.04976 0.0
O61 O 0.35779 0.23035 0.05131 0.0
O62 O 0.42064 0.25851 0.05448 0.0
O63 O 0.39527 0.23702 0.02891 0.0
H64 H 0.37454 0.15898 0.03203 0.0
H65 H 0.42424 0.19474 0.06385 0.0
H66 H 0.39756 0.13105 0.02906 0.0
H67 H 0.44645 0.16627 0.06031 0.0
H68 H 0.30962 0.24339 0.02131 0.0
H69 H 0.3194 0.23148 0.06487 0.0
H70 H 0.34835 0.23708 0.02837 0.0
H71 H 0.28104 0.23786 0.05714 0.0
H72 H 0.3739 0.17057 0.09688 0.0
H73 H 0.38548 0.25287 0.10191 0.0
H74 H 0.32076 0.14782 0.00411 0.0
H75 H 0.2729 0.12441 0.03715 0.0
H76 H 0.46021 0.31049 0.05057 0.0
H77 H 0.43594 0.23852 0.07287 0.0
H78 H 0.5036 0.33562 0.06246 0.0
H79 H 0.47958 0.26502 0.08443 0.0
H80 H 0.44574 0.27925 0.03348 0.0
H81 H 0.38543 0.23639 0.00556 0.0
H82 H 0.47744 0.31238 0.01817 0.0
H83 H 0.41827 0.27022 0.99067 0.0
H84 H 0.46319 0.20417 0.012 0.0
H85 H 0.51379 0.24861 0.04276 0.0
H86 H 0.42676 0.35361 0.05593 0.0
H87 H 0.40252 0.33726 0.01837 0.0
Li88 Li 0.14339 0.40211 0.37696 0.0
Li89 Li 0.193 0.41906 0.37565 0.0
Li90 Li 0.15903 0.36912 0.37525 0.0
Li91 Li 0.16852 0.3962 0.3938 0.0
C92 C 0.15342 0.40309 0.35353 0.0
N93 N 0.1305 0.41499 0.33392 0.0
C94 C 0.16749 0.42928 0.34813 0.0
C95 C 0.12785 0.38285 0.34888 0.0
C96 C 0.15551 0.43492 0.33823 0.0
C97 C 0.11656 0.38931 0.33899 0.0
C98 C 0.17444 0.44549 0.39685 0.0
C99 C 0.19828 0.4719 0.41456 0.0
N100 N 0.17495 0.47223 0.41795 0.0
C101 C 0.15071 0.44613 0.40049 0.0
C102 C 0.19846 0.45855 0.40391 0.0
C103 C 0.1514 0.45976 0.41119 0.0
C104 C 0.0889 0.39469 0.37486 0.0
N105 N 0.11641 0.41177 0.37271 0.0
C106 C 0.10832 0.44768 0.36575 0.0
C107 C 0.12633 0.43778 0.36824 0.0
C108 C 0.07987 0.43082 0.36811 0.0
C109 C 0.07011 0.4039 0.37263 0.0
H110 H 0.08169 0.37427 0.37862 0.0
H111 H 0.14842 0.45112 0.36694 0.0
C112 C 0.23863 0.44203 0.35958 0.0
N113 N 0.22645 0.44777 0.3689 0.0
C114 C 0.26256 0.46325 0.35419 0.0
C115 C 0.26064 0.49588 0.36801 0.0
C116 C 0.23686 0.47402 0.37316 0.0
C117 C 0.2738 0.49067 0.35836 0.0
H118 H 0.22958 0.42099 0.35626 0.0
H119 H 0.22638 0.47809 0.3804 0.0
C120 C 0.11268 0.34166 0.38847 0.0
N121 N 0.07479 0.28583 0.39119 0.0
C122 C 0.1123 0.32789 0.39908 0.0
C123 C 0.09363 0.32714 0.3793 0.0
C124 C 0.09301 0.29963 0.40027 0.0
C125 C 0.0747 0.29889 0.38082 0.0
C126 C 0.2209 0.39519 0.38247 0.0
C127 C 0.22669 0.37994 0.37412 0.0
C128 C 0.24273 0.41781 0.38836 0.0
C129 C 0.2543 0.38771 0.37174 0.0
C130 C 0.27005 0.42495 0.38571 0.0
N131 N 0.27523 0.40989 0.37752 0.0
C132 C 0.15481 0.33232 0.35684 0.0
C133 C 0.15016 0.31476 0.37671 0.0
C134 C 0.15557 0.30941 0.35215 0.0
N135 N 0.15271 0.33478 0.36894 0.0
C136 C 0.15019 0.29123 0.3724 0.0
C137 C 0.15398 0.28876 0.36 0.0
H138 H 0.15759 0.34893 0.3509 0.0
H139 H 0.14946 0.31766 0.38631 0.0
C140 C 0.15128 0.39441 0.41805 0.0
N141 N 0.17124 0.3948 0.41084 0.0
C142 C 0.1535 0.39379 0.43059 0.0
C143 C 0.19639 0.39328 0.428 0.0
C144 C 0.1934 0.39404 0.41554 0.0
C145 C 0.17631 0.39321 0.43571 0.0
H146 H 0.13364 0.39457 0.41404 0.0
H147 H 0.20877 0.39402 0.40961 0.0
O148 O 0.16458 0.3973 0.36333 0.0
O149 O 0.17405 0.4318 0.38653 0.0
O150 O 0.13145 0.36928 0.38712 0.0
O151 O 0.19402 0.38821 0.38478 0.0
H152 H 0.18729 0.44519 0.35161 0.0
H153 H 0.11681 0.36243 0.35292 0.0
H154 H 0.16607 0.45516 0.33401 0.0
H155 H 0.09672 0.37389 0.33534 0.0
H156 H 0.21666 0.48193 0.42016 0.0
H157 H 0.13187 0.43597 0.3952 0.0
H158 H 0.21693 0.45807 0.40128 0.0
H159 H 0.13316 0.46033 0.41414 0.0
H160 H 0.11674 0.46875 0.36251 0.0
H161 H 0.0483 0.39032 0.37458 0.0
H162 H 0.27213 0.45821 0.34685 0.0
H163 H 0.26818 0.51673 0.37136 0.0
H164 H 0.1269 0.33882 0.40628 0.0
H165 H 0.09357 0.33753 0.37106 0.0
H166 H 0.09257 0.28866 0.4084 0.0
H167 H 0.05993 0.28735 0.37377 0.0
H168 H 0.2101 0.3624 0.36947 0.0
H169 H 0.23863 0.42997 0.39478 0.0
H170 H 0.25909 0.37616 0.36527 0.0
H171 H 0.28715 0.44253 0.39013 0.0
H172 H 0.15908 0.30886 0.34257 0.0
H173 H 0.14844 0.27574 0.3788 0.0
H174 H 0.13738 0.39339 0.4362 0.0
H175 H 0.21442 0.39311 0.43157 0.0
Li176 Li 0.77266 0.19104 0.7093 0.0
Li177 Li 0.74185 0.14175 0.70997 0.0
Li178 Li 0.7717 0.16471 0.72753 0.0
Li179 Li 0.78958 0.15751 0.70872 0.0
C180 C 0.73782 0.18771 0.72807 0.0
N181 N 0.72985 0.2227 0.74311 0.0
C182 C 0.71098 0.18128 0.73129 0.0
C183 C 0.76063 0.21194 0.73249 0.0
C184 C 0.70738 0.19924 0.73891 0.0
C185 C 0.75615 0.22936 0.74008 0.0
C186 C 0.75001 0.15134 0.68702 0.0
C187 C 0.72561 0.11212 0.67369 0.0
N188 N 0.71335 0.12514 0.66824 0.0
C189 C 0.7374 0.16445 0.6812 0.0
C190 C 0.74429 0.12508 0.68316 0.0
C191 C 0.71885 0.15082 0.67175 0.0
C192 C 0.79887 0.24818 0.70099 0.0
N193 N 0.7747 0.22457 0.7036 0.0
C194 C 0.74847 0.24574 0.69728 0.0
C195 C 0.74978 0.22311 0.70192 0.0
C196 C 0.77308 0.27018 0.69426 0.0
C197 C 0.79854 0.27127 0.69627 0.0
H198 H 0.81848 0.24922 0.70238 0.0
H199 H 0.73081 0.20411 0.70401 0.0
C200 C 0.69486 0.08751 0.70557 0.0
N201 N 0.70503 0.11538 0.70552 0.0
C202 C 0.66694 0.06938 0.7028 0.0
C203 C 0.66089 0.1091 0.69984 0.0
C204 C 0.68877 0.12636 0.7027 0.0
C205 C 0.64953 0.08018 0.69998 0.0
H206 H 0.7083 0.07939 0.70792 0.0
H207 H 0.69745 0.14864 0.70285 0.0
C208 C 0.82972 0.21433 0.71575 0.0
N209 N 0.88164 0.25848 0.71032 0.0
C210 C 0.84073 0.21709 0.70415 0.0
C211 C 0.84502 0.23419 0.72454 0.0
C212 C 0.86708 0.23947 0.70161 0.0
C213 C 0.87122 0.25635 0.72163 0.0
C214 C 0.7736 0.11189 0.72124 0.0
C215 C 0.789 0.11386 0.73153 0.0
C216 C 0.77003 0.0929 0.71218 0.0
C217 C 0.80101 0.0971 0.73249 0.0
C218 C 0.7824 0.07653 0.71347 0.0
N219 N 0.79753 0.07896 0.72351 0.0
C220 C 0.75215 0.15555 0.75159 0.0
C221 C 0.80108 0.17997 0.74935 0.0
C222 C 0.75473 0.15783 0.76414 0.0
N223 N 0.77518 0.16673 0.74452 0.0
C224 C 0.80464 0.18285 0.76183 0.0
C225 C 0.78128 0.17178 0.76942 0.0
H226 H 0.7318 0.14499 0.74747 0.0
H227 H 0.81899 0.18832 0.74348 0.0
C228 C 0.82094 0.14889 0.6907 0.0
N229 N 0.81867 0.1522 0.70272 0.0
C230 C 0.84503 0.15043 0.68609 0.0
C231 C 0.8632 0.15713 0.70639 0.0
C232 C 0.83891 0.15574 0.71059 0.0
C233 C 0.86694 0.15545 0.69394 0.0
H234 H 0.80485 0.14681 0.68461 0.0
H235 H 0.83679 0.15894 0.72007 0.0
O236 O 0.74157 0.17015 0.72068 0.0
O237 O 0.7677 0.16404 0.69649 0.0
O238 O 0.80429 0.19218 0.71858 0.0
O239 O 0.76201 0.12842 0.72005 0.0
H240 H 0.69313 0.16258 0.72794 0.0
H241 H 0.78155 0.21727 0.7301 0.0
H242 H 0.68671 0.19452 0.74148 0.0
H243 H 0.7736 0.24817 0.74357 0.0
H244 H 0.72082 0.0917 0.67068 0.0
H245 H 0.74178 0.18486 0.68396 0.0
H246 H 0.75394 0.11468 0.68751 0.0
H247 H 0.7088 0.16066 0.66722 0.0
H248 H 0.72838 0.24405 0.69605 0.0
H249 H 0.81804 0.28953 0.69395 0.0
H250 H 0.65902 0.0472 0.70295 0.0
H251 H 0.64817 0.11833 0.69795 0.0
H252 H 0.82887 0.2025 0.69711 0.0
H253 H 0.8367 0.23261 0.73352 0.0
H254 H 0.87585 0.24185 0.69268 0.0
H255 H 0.88327 0.27187 0.72835 0.0
H256 H 0.79186 0.12831 0.73866 0.0
H257 H 0.75799 0.09091 0.70421 0.0
H258 H 0.81314 0.09854 0.74038 0.0
H259 H 0.77997 0.06188 0.70649 0.0
H260 H 0.73614 0.14859 0.76963 0.0
H261 H 0.82549 0.19405 0.76546 0.0
H262 H 0.84712 0.14949 0.67641 0.0
H263 H 0.87934 0.16067 0.7128 0.0
Li264 Li 0.62911 0.78852 0.04248 0.0
Li265 Li 0.60533 0.77041 0.06092 0.0
Li266 Li 0.60253 0.73821 0.04423 0.0
Li267 Li 0.57926 0.76689 0.04298 0.0
C268 C 0.66245 0.77199 0.05253 0.0
N269 N 0.71748 0.78677 0.04962 0.0
C270 C 0.68347 0.79681 0.05745 0.0
C271 C 0.66943 0.75464 0.04617 0.0
C272 C 0.71116 0.80393 0.05586 0.0
C273 C 0.69737 0.76249 0.04479 0.0
C274 C 0.60968 0.81865 0.06044 0.0
C275 C 0.59033 0.83391 0.07614 0.0
N276 N 0.61639 0.85348 0.07952 0.0
C277 C 0.63628 0.83896 0.06407 0.0
C278 C 0.5865 0.81615 0.0665 0.0
C279 C 0.63924 0.85637 0.07373 0.0
C280 C 0.65806 0.84253 0.03401 0.0
N281 N 0.66047 0.81946 0.03485 0.0
C282 C 0.70468 0.84299 0.02498 0.0
C283 C 0.68287 0.81903 0.03016 0.0
C284 C 0.70317 0.86744 0.02451 0.0
C285 C 0.67921 0.86679 0.02892 0.0
H286 H 0.63956 0.8421 0.03726 0.0
H287 H 0.68388 0.80017 0.03038 0.0
C288 C 0.58245 0.75982 0.08451 0.0
N289 N 0.6063 0.77432 0.07809 0.0
C290 C 0.58235 0.76345 0.09698 0.0
C291 C 0.63152 0.79641 0.09606 0.0
C292 C 0.63066 0.79202 0.08363 0.0
C293 C 0.60708 0.78216 0.10291 0.0
H294 H 0.56344 0.74551 0.07997 0.0
H295 H 0.64935 0.80324 0.07835 0.0
C296 C 0.6146 0.77183 0.02017 0.0
N297 N 0.64244 0.796 0.999 0.0
C298 C 0.61048 0.79179 0.01439 0.0
C299 C 0.63271 0.764 0.01517 0.0
C300 C 0.62481 0.80382 0.0037 0.0
C301 C 0.64662 0.77649 0.00446 0.0
C302 C 0.54394 0.72077 0.05469 0.0
C303 C 0.5309 0.69428 0.04953 0.0
C304 C 0.5278 0.73102 0.05972 0.0
C305 C 0.50193 0.6786 0.04939 0.0
C306 C 0.49889 0.71473 0.05938 0.0
N307 N 0.48666 0.68908 0.05426 0.0
C308 C 0.59753 0.68705 0.04996 0.0
C309 C 0.58714 0.69141 0.02958 0.0
C310 C 0.58719 0.65865 0.04842 0.0
N311 N 0.59667 0.70253 0.04068 0.0
C312 C 0.57662 0.66308 0.02764 0.0
C313 C 0.5757 0.64617 0.03726 0.0
H314 H 0.60482 0.69648 0.05872 0.0
H315 H 0.58606 0.70415 0.02247 0.0
C316 C 0.54546 0.78995 0.03723 0.0
N317 N 0.54816 0.76711 0.03608 0.0
C318 C 0.52289 0.79048 0.03203 0.0
C319 C 0.50648 0.74406 0.02445 0.0
C320 C 0.52954 0.74457 0.02968 0.0
C321 C 0.50298 0.76725 0.02559 0.0
H322 H 0.56095 0.80785 0.04212 0.0
H323 H 0.53265 0.727 0.02863 0.0
O324 O 0.63518 0.76439 0.05413 0.0
O325 O 0.60637 0.80102 0.05115 0.0
O326 O 0.60139 0.76043 0.0308 0.0
O327 O 0.57231 0.7366 0.05478 0.0
H328 H 0.67852 0.81069 0.06225 0.0
H329 H 0.65348 0.73537 0.0423 0.0
H330 H 0.72764 0.82316 0.05955 0.0
H331 H 0.70307 0.74929 0.03987 0.0
H332 H 0.57257 0.83209 0.08094 0.0
H333 H 0.6545 0.84096 0.05962 0.0
H334 H 0.56577 0.80054 0.06385 0.0
H335 H 0.6597 0.87205 0.07667 0.0
H336 H 0.72263 0.84247 0.02156 0.0
H337 H 0.67667 0.88482 0.02836 0.0
H338 H 0.56313 0.7516 0.10192 0.0
H339 H 0.651 0.81127 0.1002 0.0
H340 H 0.59659 0.79813 0.0182 0.0
H341 H 0.63626 0.74871 0.01961 0.0
H342 H 0.62198 0.81944 0.99916 0.0
H343 H 0.66084 0.77077 0.00052 0.0
H344 H 0.54292 0.68587 0.04564 0.0
H345 H 0.53747 0.75148 0.0637 0.0
H346 H 0.49159 0.65811 0.04539 0.0
H347 H 0.48618 0.72252 0.06316 0.0
H348 H 0.58713 0.64639 0.05603 0.0
H349 H 0.56765 0.65424 0.01895 0.0
H350 H 0.5209 0.80875 0.03311 0.0
H351 H 0.49182 0.72594 0.01938 0.0
Li352 Li 0.8366 0.6269 0.3736 0.0
Li353 Li 0.82993 0.60425 0.39401 0.0
Li354 Li 0.85629 0.59647 0.37699 0.0
Li355 Li 0.80756 0.57871 0.37611 0.0
C356 C 0.88502 0.65665 0.38986 0.0
N357 N 0.92487 0.70773 0.39867 0.0
C358 C 0.87786 0.67057 0.39835 0.0
C359 C 0.91255 0.66852 0.38598 0.0
C360 C 0.89827 0.69643 0.40265 0.0
C361 C 0.93236 0.69441 0.3905 0.0
C362 C 0.77538 0.59786 0.38232 0.0
C363 C 0.72835 0.57105 0.38958 0.0
N364 N 0.71893 0.5746 0.37877 0.0
C365 C 0.76526 0.60138 0.37131 0.0
C366 C 0.75683 0.58266 0.39155 0.0
C367 C 0.73663 0.5894 0.36969 0.0
C368 C 0.83184 0.656 0.35385 0.0
N369 N 0.84011 0.65894 0.36557 0.0
C370 C 0.84657 0.70479 0.36614 0.0
C371 C 0.84759 0.6828 0.37173 0.0
C372 C 0.8375 0.70204 0.35412 0.0
C373 C 0.8307 0.67746 0.34789 0.0
H374 H 0.82497 0.63655 0.34923 0.0
H375 H 0.85308 0.68437 0.38114 0.0
C376 C 0.84227 0.59962 0.4182 0.0
N377 N 0.82814 0.60784 0.41089 0.0
C378 C 0.8406 0.60123 0.43073 0.0
C379 C 0.81002 0.61992 0.42791 0.0
C380 C 0.81236 0.61803 0.41545 0.0
C381 C 0.82415 0.61134 0.43575 0.0
H382 H 0.85471 0.59167 0.41428 0.0
H383 H 0.80145 0.62452 0.40938 0.0
C384 C 0.85265 0.60893 0.35339 0.0
N385 N 0.88928 0.63273 0.33438 0.0
C386 C 0.84607 0.59649 0.34198 0.0
C387 C 0.87789 0.63346 0.3551 0.0
C388 C 0.86486 0.60884 0.33249 0.0
C389 C 0.89611 0.64519 0.34539 0.0
C390 C 0.81613 0.54177 0.38892 0.0
C391 C 0.81664 0.52682 0.37889 0.0
C392 C 0.80323 0.52776 0.39956 0.0
C393 C 0.80397 0.49795 0.37964 0.0
C394 C 0.79082 0.49887 0.39995 0.0
N395 N 0.79143 0.48469 0.39006 0.0
C396 C 0.90507 0.5954 0.38264 0.0
C397 C 0.88427 0.57446 0.36397 0.0
C398 C 0.92452 0.58668 0.38138 0.0
N399 N 0.88531 0.58886 0.37405 0.0
C400 C 0.90338 0.56553 0.3623 0.0
C401 C 0.92349 0.57115 0.37119 0.0
H402 H 0.90511 0.60656 0.39064 0.0
H403 H 0.86788 0.56885 0.35745 0.0
C404 C 0.76917 0.54483 0.35855 0.0
N405 N 0.77381 0.54741 0.37065 0.0
C406 C 0.74539 0.52206 0.35389 0.0
C407 C 0.73133 0.50516 0.37425 0.0
C408 C 0.75533 0.52837 0.37851 0.0
C409 C 0.72622 0.50173 0.36177 0.0
H410 H 0.78405 0.56044 0.35252 0.0
H411 H 0.75923 0.53116 0.38811 0.0
O412 O 0.86548 0.63103 0.38573 0.0
O413 O 0.8033 0.60887 0.38396 0.0
O414 O 0.83443 0.59682 0.36277 0.0
O415 O 0.82813 0.57 0.38835 0.0
H416 H 0.85668 0.66169 0.40146 0.0
H417 H 0.91859 0.6578 0.37959 0.0
H418 H 0.89295 0.70752 0.40915 0.0
H419 H 0.95372 0.70389 0.38755 0.0
H420 H 0.71374 0.55908 0.39661 0.0
H421 H 0.77934 0.61293 0.36405 0.0
H422 H 0.76431 0.57947 0.40008 0.0
H423 H 0.72848 0.5918 0.36119 0.0
H424 H 0.85145 0.72312 0.37137 0.0
H425 H 0.82374 0.67446 0.3386 0.0
H426 H 0.85217 0.59475 0.43641 0.0
H427 H 0.79683 0.62751 0.43134 0.0
H428 H 0.82671 0.57741 0.34049 0.0
H429 H 0.88329 0.64351 0.36379 0.0
H430 H 0.86003 0.59941 0.32363 0.0
H431 H 0.91568 0.66421 0.3466 0.0
H432 H 0.8263 0.53737 0.37056 0.0
H433 H 0.80267 0.53909 0.4074 0.0
H434 H 0.80403 0.48608 0.37192 0.0
H435 H 0.78067 0.48772 0.40811 0.0
H436 H 0.9398 0.5915 0.38841 0.0
H437 H 0.90154 0.55318 0.35443 0.0
H438 H 0.74234 0.52011 0.34421 0.0
H439 H 0.71686 0.49017 0.38064 0.0
Li440 Li 0.2107 0.83906 0.70735 0.0
Li441 Li 0.22563 0.83286 0.72726 0.0
Li442 Li 0.26035 0.85798 0.71044 0.0
Li443 Li 0.22873 0.8088 0.70975 0.0
C444 C 0.22763 0.88745 0.72206 0.0
N445 N 0.2123 0.92584 0.72862 0.0
C446 C 0.20685 0.88065 0.73067 0.0
C447 C 0.24104 0.91402 0.71698 0.0
C448 C 0.19926 0.90026 0.73381 0.0
C449 C 0.23287 0.93307 0.72036 0.0
C450 C 0.17143 0.78447 0.71176 0.0
C451 C 0.1232 0.74871 0.71234 0.0
N452 N 0.12417 0.74412 0.70034 0.0
C453 C 0.17194 0.77934 0.69942 0.0
C454 C 0.14686 0.76901 0.71827 0.0
C455 C 0.14785 0.75889 0.69382 0.0
C456 C 0.17748 0.83722 0.68734 0.0
N457 N 0.18166 0.84225 0.69941 0.0
C458 C 0.13907 0.84283 0.70113 0.0
C459 C 0.16299 0.84504 0.70631 0.0
C460 C 0.13398 0.83695 0.68878 0.0
C461 C 0.15378 0.83464 0.68182 0.0
H462 H 0.19159 0.83354 0.68207 0.0
H463 H 0.16572 0.84731 0.71595 0.0
C464 C 0.24272 0.84374 0.7515 0.0
N465 N 0.22019 0.83102 0.74417 0.0
C466 C 0.23946 0.84148 0.76402 0.0
C467 C 0.18983 0.81339 0.76116 0.0
C468 C 0.19408 0.81611 0.7487 0.0
C469 C 0.21273 0.826 0.769 0.0
H470 H 0.26325 0.85536 0.7476 0.0
H471 H 0.17659 0.80616 0.74263 0.0
C472 C 0.24495 0.85254 0.68661 0.0
N473 N 0.25985 0.88653 0.66655 0.0
C474 C 0.25051 0.8438 0.67567 0.0
C475 C 0.24697 0.87854 0.68735 0.0
C476 C 0.25802 0.86129 0.66563 0.0
C477 C 0.25451 0.89543 0.67712 0.0
C478 C 0.26631 0.8111 0.72458 0.0
C479 C 0.28862 0.81211 0.71834 0.0
C480 C 0.25209 0.7904 0.7332 0.0
C481 C 0.2962 0.79216 0.72076 0.0
C482 C 0.26034 0.77084 0.73537 0.0
N483 N 0.28201 0.7721 0.72915 0.0
C484 C 0.30989 0.91015 0.71294 0.0
C485 C 0.3107 0.87914 0.69848 0.0
C486 C 0.33793 0.92909 0.71083 0.0
N487 N 0.29708 0.88568 0.70686 0.0
C488 C 0.33868 0.89737 0.6961 0.0
C489 C 0.3528 0.92258 0.70244 0.0
H490 H 0.29852 0.91464 0.71963 0.0
H491 H 0.29999 0.85931 0.69391 0.0
C492 C 0.20997 0.75069 0.70994 0.0
N493 N 0.22697 0.77544 0.70453 0.0
C494 C 0.20898 0.72652 0.70577 0.0
C495 C 0.24331 0.75397 0.69069 0.0
C496 C 0.24363 0.77754 0.69516 0.0
C497 C 0.22565 0.72797 0.69594 0.0
H498 H 0.19711 0.74973 0.71745 0.0
H499 H 0.25728 0.79762 0.69119 0.0
O500 O 0.23574 0.8687 0.71905 0.0
O501 O 0.19464 0.80469 0.71745 0.0
O502 O 0.23795 0.83575 0.69656 0.0
O503 O 0.25807 0.82995 0.72211 0.0
H504 H 0.19638 0.8603 0.73477 0.0
H505 H 0.25773 0.92002 0.71056 0.0
H506 H 0.183 0.89514 0.74037 0.0
H507 H 0.24299 0.95365 0.71645 0.0
H508 H 0.10404 0.73662 0.71728 0.0
H509 H 0.19066 0.79104 0.69419 0.0
H510 H 0.14602 0.77267 0.72781 0.0
H511 H 0.14797 0.75478 0.68429 0.0
H512 H 0.12395 0.84404 0.70686 0.0
H513 H 0.15051 0.8299 0.67227 0.0
H514 H 0.25765 0.85176 0.76974 0.0
H515 H 0.16891 0.80099 0.7646 0.0
H516 H 0.24903 0.82371 0.67493 0.0
H517 H 0.24249 0.88545 0.6957 0.0
H518 H 0.26239 0.8548 0.6571 0.0
H519 H 0.25608 0.91559 0.67757 0.0
H520 H 0.29976 0.82796 0.71161 0.0
H521 H 0.23467 0.78925 0.73806 0.0
H522 H 0.31332 0.79257 0.71595 0.0
H523 H 0.24943 0.7546 0.74197 0.0
H524 H 0.34794 0.9484 0.71583 0.0
H525 H 0.34936 0.89125 0.68972 0.0
H526 H 0.19494 0.70688 0.71002 0.0
H527 H 0.25689 0.75611 0.68326 0.0
Li528 Li 0.77177 0.60739 0.60579 0.0
Li529 Li 0.78669 0.63121 0.62486 0.0
Li530 Li 0.77203 0.58166 0.62367 0.0
Li531 Li 0.73938 0.59812 0.62254 0.0
C532 C 0.8289 0.61885 0.62049 0.0
N533 N 0.87887 0.63082 0.63089 0.0
C534 C 0.83165 0.61949 0.63306 0.0
C535 C 0.8516 0.62424 0.61323 0.0
C536 C 0.85708 0.62563 0.63814 0.0
C537 C 0.87666 0.63022 0.61865 0.0
C538 C 0.77135 0.66073 0.6119 0.0
C539 C 0.77716 0.70428 0.61905 0.0
N540 N 0.79479 0.7176 0.60974 0.0
C541 C 0.78931 0.67482 0.60233 0.0
C542 C 0.76501 0.67553 0.62027 0.0
C543 C 0.80102 0.70358 0.60141 0.0
C544 C 0.75367 0.59845 0.58155 0.0
N545 N 0.77638 0.6096 0.58881 0.0
C546 C 0.80656 0.62313 0.57174 0.0
C547 C 0.80248 0.62187 0.5842 0.0
C548 C 0.78351 0.61165 0.56396 0.0
C549 C 0.75676 0.59923 0.56902 0.0
H550 H 0.73315 0.58882 0.5855 0.0
H551 H 0.82011 0.63066 0.59022 0.0
C552 C 0.81434 0.66926 0.64401 0.0
N553 N 0.81416 0.66523 0.6319 0.0
C554 C 0.83748 0.69128 0.6495 0.0
C555 C 0.85915 0.70534 0.62988 0.0
C556 C 0.83571 0.68295 0.62479 0.0
C557 C 0.86057 0.70919 0.64244 0.0
H558 H 0.7973 0.65448 0.6495 0.0
H559 H 0.83543 0.67868 0.61525 0.0
C560 C 0.73964 0.54997 0.60465 0.0
N561 N 0.73493 0.50753 0.59008 0.0
C562 C 0.71347 0.52775 0.60174 0.0
C563 C 0.76345 0.5506 0.60017 0.0
C564 C 0.71151 0.50649 0.59435 0.0
C565 C 0.76062 0.52895 0.59281 0.0
C566 C 0.74642 0.5973 0.64592 0.0
C567 C 0.73621 0.57329 0.65295 0.0
C568 C 0.73868 0.61701 0.64864 0.0
C569 C 0.7179 0.56911 0.6624 0.0
C570 C 0.7203 0.61207 0.65815 0.0
N571 N 0.71034 0.58839 0.66477 0.0
C572 C 0.79895 0.54958 0.62882 0.0
C573 C 0.75087 0.52875 0.63301 0.0
C574 C 0.79936 0.52634 0.63331 0.0
N575 N 0.77505 0.55065 0.62904 0.0
C576 C 0.7503 0.50506 0.63751 0.0
C577 C 0.77486 0.50381 0.63786 0.0
H578 H 0.81772 0.56659 0.62517 0.0
H579 H 0.73202 0.52986 0.63278 0.0
C580 C 0.69058 0.60278 0.62502 0.0
N581 N 0.70192 0.58625 0.62634 0.0
C582 C 0.66251 0.59243 0.62765 0.0
C583 C 0.65869 0.54853 0.63307 0.0
C584 C 0.68667 0.55963 0.63026 0.0
C585 C 0.6462 0.56491 0.6317 0.0
H586 H 0.70324 0.62385 0.62183 0.0
H587 H 0.69629 0.54697 0.63111 0.0
O588 O 0.80445 0.61365 0.61526 0.0
O589 O 0.75998 0.63262 0.61303 0.0
O590 O 0.74178 0.57084 0.6119 0.0
O591 O 0.76391 0.60151 0.63645 0.0
H592 H 0.81441 0.61528 0.63888 0.0
H593 H 0.84992 0.62379 0.6035 0.0
H594 H 0.85948 0.62627 0.64784 0.0
H595 H 0.89438 0.63442 0.61313 0.0
H596 H 0.77255 0.716 0.62551 0.0
H597 H 0.7944 0.66376 0.59574 0.0
H598 H 0.75086 0.66498 0.62763 0.0
H599 H 0.81511 0.71477 0.5941 0.0
H600 H 0.82752 0.63259 0.56826 0.0
H601 H 0.73843 0.59042 0.56336 0.0
H602 H 0.8378 0.69358 0.65922 0.0
H603 H 0.87671 0.71832 0.62415 0.0
H604 H 0.69486 0.52695 0.60517 0.0
H605 H 0.78389 0.56757 0.60236 0.0
H606 H 0.69138 0.48916 0.59202 0.0
H607 H 0.77885 0.52917 0.58928 0.0
H608 H 0.74242 0.55809 0.65117 0.0
H609 H 0.74657 0.6358 0.64338 0.0
H610 H 0.70973 0.55054 0.66786 0.0
H611 H 0.71394 0.62705 0.66027 0.0
H612 H 0.81861 0.52592 0.63315 0.0
H613 H 0.73095 0.48819 0.64094 0.0
H614 H 0.65367 0.60576 0.62653 0.0
H615 H 0.64679 0.52709 0.63596 0.0
Li616 Li 0.19058 0.77079 0.95723 0.0
Li617 Li 0.14134 0.73891 0.95569 0.0
Li618 Li 0.1657 0.77145 0.93908 0.0
Li619 Li 0.15636 0.78638 0.95802 0.0
C620 C 0.18993 0.73841 0.93819 0.0
N621 N 0.22769 0.733 0.92395 0.0
C622 C 0.18547 0.71207 0.93525 0.0
C623 C 0.21363 0.76202 0.93391 0.0
C624 C 0.2048 0.70976 0.92803 0.0
C625 C 0.23246 0.75884 0.92671 0.0
C626 C 0.14871 0.74536 0.97912 0.0
C627 C 0.10768 0.71914 0.99127 0.0
N628 N 0.12119 0.70879 0.99778 0.0
C629 C 0.1623 0.73475 0.98603 0.0
C630 C 0.12129 0.73776 0.98185 0.0
C631 C 0.14799 0.7162 0.99539 0.0
C632 C 0.24907 0.79637 0.96354 0.0
N633 N 0.22396 0.77269 0.96289 0.0
C634 C 0.2435 0.74603 0.97054 0.0
C635 C 0.22098 0.74776 0.96608 0.0
C636 C 0.26948 0.77024 0.97172 0.0
C637 C 0.27214 0.79564 0.96803 0.0
H638 H 0.25141 0.81588 0.9606 0.0
H639 H 0.20094 0.72914 0.96519 0.0
C640 C 0.08738 0.69037 0.95731 0.0
N641 N 0.11505 0.70147 0.95924 0.0
C642 C 0.06922 0.66218 0.95954 0.0
C643 C 0.10843 0.65776 0.96587 0.0
C644 C 0.12578 0.68586 0.96343 0.0
C645 C 0.07978 0.6455 0.96382 0.0
H646 H 0.07949 0.7033 0.95389 0.0
H647 H 0.14794 0.69526 0.96472 0.0
C648 C 0.2117 0.82789 0.95403 0.0
N649 N 0.25041 0.87746 0.96449 0.0
C650 C 0.2128 0.83099 0.96659 0.0
C651 C 0.23034 0.85003 0.94681 0.0
C652 C 0.23248 0.85622 0.97169 0.0
C653 C 0.24977 0.8749 0.95227 0.0
C654 C 0.11198 0.7717 0.94487 0.0
C655 C 0.11618 0.78993 0.93537 0.0
C656 C 0.09076 0.76536 0.9532 0.0
C657 C 0.09939 0.80192 0.93449 0.0
C658 C 0.07443 0.7778 0.95202 0.0
N659 N 0.07907 0.7957 0.94278 0.0
C660 C 0.15789 0.75404 0.91473 0.0
C661 C 0.18257 0.80279 0.91768 0.0
C662 C 0.16062 0.75755 0.90223 0.0
N663 N 0.16889 0.77653 0.92213 0.0
C664 C 0.18578 0.80727 0.90524 0.0
C665 C 0.1748 0.78447 0.89733 0.0
H666 H 0.14718 0.73339 0.91856 0.0
H667 H 0.19082 0.82024 0.9238 0.0
C668 C 0.14429 0.81405 0.97671 0.0
N669 N 0.1499 0.81415 0.96477 0.0
C670 C 0.14455 0.83704 0.98193 0.0
C671 C 0.15521 0.85921 0.96235 0.0
C672 C 0.15491 0.83591 0.95754 0.0
C673 C 0.1507 0.86027 0.97476 0.0
H674 H 0.14101 0.79678 0.98232 0.0
H675 H 0.16016 0.83577 0.94816 0.0
O676 O 0.17119 0.74089 0.94529 0.0
O677 O 0.16219 0.76314 0.96975 0.0
O678 O 0.19215 0.80366 0.94874 0.0
O679 O 0.12851 0.7601 0.94598 0.0
H680 H 0.16725 0.69361 0.93853 0.0
H681 H 0.2175 0.78259 0.93612 0.0
H682 H 0.20162 0.6895 0.92568 0.0
H683 H 0.25087 0.77692 0.92334 0.0
H684 H 0.08637 0.71289 0.9934 0.0
H685 H 0.18366 0.74079 0.98422 0.0
H686 H 0.11056 0.74595 0.97667 0.0
H687 H 0.15822 0.70771 0.00076 0.0
H688 H 0.24056 0.72589 0.97298 0.0
H689 H 0.29172 0.81487 0.9688 0.0
H690 H 0.04723 0.6535 0.95788 0.0
H691 H 0.11749 0.64557 0.96896 0.0
H692 H 0.19872 0.81417 0.97236 0.0
H693 H 0.22986 0.84802 0.93709 0.0
H694 H 0.23352 0.8589 0.98138 0.0
H695 H 0.26433 0.89218 0.94678 0.0
H696 H 0.13241 0.79501 0.92881 0.0
H697 H 0.08694 0.75102 0.9605 0.0
H698 H 0.10257 0.81623 0.92724 0.0
H699 H 0.05805 0.7732 0.95845 0.0
H700 H 0.15211 0.73939 0.89647 0.0
H701 H 0.19646 0.82836 0.90187 0.0
H702 H 0.14093 0.83705 0.99153 0.0
H703 H 0.16059 0.87685 0.95655 0.0
Li704 Li 0.39541 0.13775 0.28731 0.0
Li705 Li 0.41827 0.18721 0.28953 0.0
Li706 Li 0.36868 0.16063 0.29075 0.0
Li707 Li 0.39286 0.16717 0.27109 0.0
C708 C 0.41148 0.15684 0.31072 0.0
N709 N 0.44363 0.15238 0.32862 0.0
C710 C 0.43776 0.16085 0.308 0.0
C711 C 0.40156 0.15059 0.32255 0.0
C712 C 0.4537 0.1585 0.31716 0.0
C713 C 0.41812 0.14841 0.33148 0.0
C714 C 0.45029 0.17607 0.27157 0.0
C715 C 0.48336 0.2053 0.2565 0.0
N716 N 0.50076 0.19606 0.25999 0.0
C717 C 0.46844 0.16673 0.27495 0.0
C718 C 0.45773 0.19539 0.26221 0.0
C719 C 0.49388 0.17715 0.26901 0.0
C720 C 0.40989 0.09904 0.28037 0.0
N721 N 0.39898 0.10606 0.28976 0.0
C722 C 0.40105 0.07242 0.30242 0.0
C723 C 0.39366 0.0927 0.30055 0.0
C724 C 0.41383 0.06582 0.29307 0.0
C725 C 0.41755 0.07891 0.28182 0.0
H726 H 0.41382 0.11004 0.27189 0.0
H727 H 0.38465 0.09847 0.30784 0.0
C728 C 0.44565 0.22678 0.30767 0.0
N729 N 0.44979 0.21882 0.29662 0.0
C730 C 0.46735 0.24924 0.31365 0.0
C731 C 0.49726 0.25507 0.29676 0.0
C732 C 0.47494 0.23261 0.29109 0.0
C733 C 0.49363 0.26358 0.30822 0.0
H734 H 0.42541 0.21557 0.31187 0.0
H735 H 0.47785 0.22642 0.28227 0.0
C736 C 0.33979 0.10674 0.28126 0.0
N737 N 0.29491 0.05588 0.28739 0.0
C738 C 0.32229 0.08898 0.27228 0.0
C739 C 0.33448 0.09865 0.29336 0.0
C740 C 0.2997 0.06334 0.27556 0.0
C741 C 0.31169 0.07285 0.29627 0.0
C742 C 0.40329 0.22295 0.28368 0.0
C743 C 0.39491 0.23249 0.29359 0.0
C744 C 0.42499 0.24192 0.27636 0.0
C745 C 0.40863 0.26091 0.2961 0.0
C746 C 0.4382 0.27016 0.27918 0.0
N747 N 0.42984 0.27899 0.28891 0.0
C748 C 0.33774 0.16487 0.30973 0.0
C749 C 0.31395 0.15097 0.29102 0.0
C750 C 0.31546 0.16578 0.31501 0.0
N751 N 0.33671 0.15797 0.29791 0.0
C752 C 0.29113 0.1515 0.29593 0.0
C753 C 0.29191 0.1595 0.30803 0.0
H754 H 0.35632 0.17066 0.31492 0.0
H755 H 0.31385 0.14564 0.28162 0.0
C756 C 0.39194 0.15176 0.24692 0.0
N757 N 0.39061 0.17063 0.25425 0.0
C758 C 0.39093 0.15409 0.23441 0.0
C759 C 0.38725 0.19523 0.2373 0.0
C760 C 0.38815 0.192 0.24975 0.0
C761 C 0.38869 0.17614 0.22946 0.0
H762 H 0.39399 0.13505 0.25082 0.0
H763 H 0.38696 0.20656 0.25583 0.0
O764 O 0.39533 0.15881 0.3019 0.0
O765 O 0.42506 0.16569 0.27714 0.0
O766 O 0.36198 0.13188 0.27815 0.0
O767 O 0.39069 0.19513 0.2813 0.0
H768 H 0.4458 0.16579 0.29893 0.0
H769 H 0.38122 0.14732 0.32481 0.0
H770 H 0.47407 0.16156 0.31517 0.0
H771 H 0.41068 0.14354 0.34067 0.0
H772 H 0.48943 0.22035 0.24929 0.0
H773 H 0.46296 0.15154 0.28206 0.0
H774 H 0.44407 0.20293 0.25946 0.0
H775 H 0.50814 0.17015 0.27156 0.0
H776 H 0.39746 0.06253 0.31117 0.0
H777 H 0.4276 0.07474 0.2744 0.0
H778 H 0.46371 0.25502 0.32251 0.0
H779 H 0.51708 0.26587 0.29217 0.0
H780 H 0.32616 0.09496 0.26287 0.0
H781 H 0.34775 0.1121 0.30045 0.0
H782 H 0.28597 0.04938 0.2687 0.0
H783 H 0.30733 0.06632 0.3056 0.0
H784 H 0.37821 0.21809 0.29936 0.0
H785 H 0.43179 0.23488 0.26868 0.0
H786 H 0.40249 0.26858 0.30378 0.0
H787 H 0.45517 0.28505 0.27365 0.0
H788 H 0.31723 0.17254 0.32429 0.0
H789 H 0.2733 0.14625 0.29027 0.0
H790 H 0.39236 0.1391 0.22867 0.0
H791 H 0.38515 0.2123 0.23385 0.0
Li792 Li 0.22712 0.41823 0.62413 0.0
Li793 Li 0.25889 0.40032 0.6225 0.0
Li794 Li 0.22799 0.39559 0.60579 0.0
Li795 Li 0.21002 0.36811 0.62415 0.0
C796 C 0.27197 0.44428 0.60284 0.0
N797 N 0.29814 0.47067 0.58167 0.0
C798 C 0.29582 0.44408 0.59902 0.0
C799 C 0.26149 0.45797 0.59591 0.0
C800 C 0.30875 0.45757 0.58829 0.0
C801 C 0.27498 0.47114 0.58522 0.0
C802 C 0.25042 0.40104 0.64588 0.0
C803 C 0.27363 0.38658 0.66003 0.0
N804 N 0.28619 0.41231 0.66508 0.0
C805 C 0.26341 0.42729 0.65125 0.0
C806 C 0.25541 0.38044 0.65034 0.0
C807 C 0.28147 0.43259 0.66094 0.0
C808 C 0.20619 0.4414 0.6409 0.0
N809 N 0.22311 0.4471 0.63119 0.0
C810 C 0.23655 0.49508 0.63209 0.0
C811 C 0.23823 0.47328 0.62675 0.0
C812 C 0.21925 0.48989 0.64215 0.0
C813 C 0.20385 0.46258 0.64653 0.0
H814 H 0.19471 0.4204 0.64433 0.0
H815 H 0.25198 0.47732 0.61918 0.0
C816 C 0.30526 0.39157 0.6254 0.0
N817 N 0.29542 0.40937 0.62679 0.0
C818 C 0.33296 0.40025 0.62815 0.0
C819 C 0.33947 0.44508 0.63385 0.0
C820 C 0.31186 0.43567 0.63089 0.0
C821 C 0.35042 0.42738 0.6324 0.0
H822 H 0.29177 0.37087 0.62197 0.0
H823 H 0.30355 0.4495 0.63166 0.0
C824 C 0.17546 0.39572 0.61755 0.0
N825 N 0.13705 0.41161 0.62324 0.0
C826 C 0.15469 0.3807 0.62605 0.0
C827 C 0.1766 0.41875 0.6119 0.0
C828 C 0.13547 0.38907 0.6288 0.0
C829 C 0.15704 0.42648 0.61492 0.0
C830 C 0.22716 0.34 0.61074 0.0
C831 C 0.21277 0.32662 0.60023 0.0
C832 C 0.23113 0.32479 0.61977 0.0
C833 C 0.2023 0.29809 0.59899 0.0
C834 C 0.2203 0.29629 0.61819 0.0
N835 N 0.20622 0.28364 0.60793 0.0
C836 C 0.24273 0.39335 0.58148 0.0
C837 C 0.20195 0.39619 0.58411 0.0
C838 C 0.24013 0.39352 0.56894 0.0
N839 N 0.2239 0.39495 0.58875 0.0
C840 C 0.19854 0.39642 0.57166 0.0
C841 C 0.21786 0.39522 0.56389 0.0
H842 H 0.25985 0.39211 0.58543 0.0
H843 H 0.18702 0.39691 0.59009 0.0
C844 C 0.17752 0.33001 0.64234 0.0
N845 N 0.18127 0.3338 0.63022 0.0
C846 C 0.15347 0.30731 0.64691 0.0
C847 C 0.13847 0.29208 0.62646 0.0
C848 C 0.16254 0.31529 0.62229 0.0
C849 C 0.13315 0.28833 0.63893 0.0
H850 H 0.19238 0.34547 0.64844 0.0
H851 H 0.16561 0.31928 0.61271 0.0
O852 O 0.25865 0.4307 0.61318 0.0
O853 O 0.23312 0.3956 0.63623 0.0
O854 O 0.19479 0.38818 0.61489 0.0
O855 O 0.23741 0.36786 0.61215 0.0
H856 H 0.3041 0.43339 0.60419 0.0
H857 H 0.24287 0.45804 0.59865 0.0
H858 H 0.32716 0.4575 0.58521 0.0
H859 H 0.26698 0.48163 0.57973 0.0
H860 H 0.27781 0.37088 0.66353 0.0
H861 H 0.25986 0.44351 0.64789 0.0
H862 H 0.24544 0.36 0.6463 0.0
H863 H 0.2918 0.45287 0.66514 0.0
H864 H 0.24919 0.51588 0.62856 0.0
H865 H 0.1901 0.45762 0.65421 0.0
H866 H 0.34068 0.386 0.62691 0.0
H867 H 0.35235 0.46631 0.63687 0.0
H868 H 0.15349 0.36289 0.63055 0.0
H869 H 0.19272 0.43081 0.60541 0.0
H870 H 0.11934 0.37769 0.63539 0.0
H871 H 0.15783 0.44438 0.61069 0.0
H872 H 0.20949 0.33808 0.59316 0.0
H873 H 0.24228 0.33485 0.62793 0.0
H874 H 0.19099 0.28743 0.59094 0.0
H875 H 0.22308 0.28422 0.62514 0.0
H876 H 0.25558 0.39272 0.56328 0.0
H877 H 0.18077 0.39718 0.56815 0.0
H878 H 0.15015 0.3057 0.65658 0.0
H879 H 0.12367 0.27787 0.61995 0.0
Li880 Li 0.85431 0.25599 0.95586 0.0
Li881 Li 0.80443 0.2253 0.95776 0.0
Li882 Li 0.83654 0.20726 0.95827 0.0
Li883 Li 0.82745 0.224 0.93958 0.0
C884 C 0.8452 0.25024 0.97922 0.0
N885 N 0.87021 0.28865 0.99752 0.0
C886 C 0.83118 0.26238 0.98465 0.0
C887 C 0.87185 0.25747 0.98316 0.0
C888 C 0.8442 0.28178 0.99388 0.0
C889 C 0.88417 0.27699 0.9924 0.0
C890 C 0.82405 0.26822 0.93569 0.0
C891 C 0.80024 0.27074 0.91796 0.0
N892 N 0.82442 0.2925 0.91388 0.0
C893 C 0.84866 0.29063 0.93133 0.0
C894 C 0.79961 0.25821 0.92897 0.0
C895 C 0.84841 0.30263 0.92029 0.0
C896 C 0.90973 0.30284 0.95792 0.0
N897 N 0.88211 0.29291 0.95951 0.0
C898 C 0.89041 0.3374 0.96586 0.0
C899 C 0.87225 0.30952 0.96336 0.0
C900 C 0.91904 0.34846 0.9642 0.0
C901 C 0.92872 0.33083 0.9602 0.0
H902 H 0.91693 0.2892 0.9547 0.0
H903 H 0.85012 0.3011 0.96429 0.0
C904 C 0.75859 0.20548 0.97378 0.0
N905 N 0.77194 0.22305 0.96445 0.0
C906 C 0.73504 0.20426 0.97885 0.0
C907 C 0.73999 0.23983 0.96486 0.0
C908 C 0.76326 0.24017 0.96 0.0
C909 C 0.72557 0.2217 0.97441 0.0
H910 H 0.7664 0.1926 0.97733 0.0
H911 H 0.77458 0.25432 0.95275 0.0
C912 C 0.88022 0.22069 0.94515 0.0
N913 N 0.91115 0.19447 0.94375 0.0
C914 C 0.87551 0.20196 0.93581 0.0
C915 C 0.90076 0.22623 0.95374 0.0
C916 C 0.89136 0.1889 0.93526 0.0
C917 C 0.91614 0.21271 0.95289 0.0
C918 C 0.77397 0.17323 0.95183 0.0
C919 C 0.76762 0.15286 0.96061 0.0
C920 C 0.75247 0.17473 0.94599 0.0
C921 C 0.73985 0.13428 0.96338 0.0
C922 C 0.72498 0.15582 0.94905 0.0
N923 N 0.71928 0.13615 0.9576 0.0
C924 C 0.8509 0.17967 0.97619 0.0
C925 C 0.83444 0.15615 0.95755 0.0
C926 C 0.85156 0.15686 0.98109 0.0
N927 N 0.84202 0.17868 0.96468 0.0
C928 C 0.83464 0.13287 0.96208 0.0
C929 C 0.84271 0.13276 0.97409 0.0
H930 H 0.85658 0.19777 0.98169 0.0
H931 H 0.82707 0.15583 0.94848 0.0
C932 C 0.8461 0.23589 0.91543 0.0
N933 N 0.82412 0.21912 0.92256 0.0
C934 C 0.84383 0.23322 0.90288 0.0
C935 C 0.79648 0.19593 0.9053 0.0
C936 C 0.79974 0.19919 0.91778 0.0
C937 C 0.81867 0.21315 0.89769 0.0
H938 H 0.8653 0.25148 0.9195 0.0
H939 H 0.78278 0.18583 0.92365 0.0
O940 O 0.83304 0.23163 0.97001 0.0
O941 O 0.82401 0.25566 0.94631 0.0
O942 O 0.86452 0.23321 0.946 0.0
O943 O 0.80106 0.19184 0.94908 0.0
H944 H 0.8106 0.25713 0.98169 0.0
H945 H 0.88306 0.24843 0.97901 0.0
H946 H 0.83366 0.29146 0.99811 0.0
H947 H 0.90486 0.28294 0.99547 0.0
H948 H 0.78153 0.26308 0.91263 0.0
H949 H 0.86783 0.29847 0.93633 0.0
H950 H 0.78046 0.24067 0.93214 0.0
H951 H 0.86732 0.31992 0.91678 0.0
H952 H 0.88204 0.35038 0.96869 0.0
H953 H 0.95066 0.33863 0.95881 0.0
H954 H 0.72471 0.19029 0.98632 0.0
H955 H 0.73327 0.25351 0.96116 0.0
H956 H 0.85958 0.19731 0.92913 0.0
H957 H 0.90458 0.24059 0.96105 0.0
H958 H 0.88786 0.17424 0.92812 0.0
H959 H 0.93199 0.21666 0.95951 0.0
H960 H 0.7839 0.15154 0.96535 0.0
H961 H 0.75696 0.19069 0.93936 0.0
H962 H 0.73465 0.11847 0.97018 0.0
H963 H 0.70816 0.15689 0.94466 0.0
H964 H 0.85823 0.15784 0.99034 0.0
H965 H 0.82715 0.11468 0.9564 0.0
H966 H 0.86138 0.24699 0.89731 0.0
H967 H 0.7769 0.1799 0.90165 0.0
Li968 Li 0.58048 0.81198 0.29043 0.0
Li969 Li 0.59814 0.86092 0.28957 0.0
Li970 Li 0.60567 0.83636 0.27244 0.0
Li971 Li 0.6294 0.8426 0.29239 0.0
C972 C 0.54498 0.82976 0.28054 0.0
N973 N 0.49465 0.82697 0.28458 0.0
C974 C 0.53416 0.82577 0.29223 0.0
C975 C 0.53022 0.83235 0.27092 0.0
C976 C 0.50868 0.82441 0.29409 0.0
C977 C 0.5048 0.83087 0.27314 0.0
C978 C 0.60873 0.85489 0.31365 0.0
C979 C 0.64172 0.89689 0.32383 0.0
N980 N 0.62682 0.88725 0.3342 0.0
C981 C 0.59374 0.84537 0.3244 0.0
C982 C 0.63289 0.88084 0.31334 0.0
C983 C 0.60323 0.86205 0.3347 0.0
C984 C 0.55297 0.76932 0.30729 0.0
N985 N 0.55072 0.77769 0.29605 0.0
C986 C 0.50575 0.73785 0.29356 0.0
C987 C 0.52789 0.76247 0.2891 0.0
C988 C 0.50727 0.72877 0.30523 0.0
C989 C 0.53145 0.74475 0.31207 0.0
H990 H 0.57153 0.7818 0.31255 0.0
H991 H 0.52676 0.76965 0.28016 0.0
C992 C 0.59487 0.90815 0.28392 0.0
N993 N 0.5899 0.88944 0.29282 0.0
C994 C 0.58487 0.92661 0.28493 0.0
C995 C 0.56586 0.90688 0.30447 0.0
C996 C 0.57609 0.88875 0.30305 0.0
C997 C 0.56962 0.92566 0.29521 0.0
H998 H 0.60555 0.90788 0.2758 0.0
H999 H 0.57159 0.87312 0.30983 0.0
C1000 C 0.60055 0.78158 0.28269 0.0
N1001 N 0.57786 0.72483 0.28464 0.0
C1002 C 0.60761 0.77037 0.29243 0.0
C1003 C 0.58212 0.76401 0.2739 0.0
C1004 C 0.59587 0.74159 0.29326 0.0
C1005 C 0.57083 0.73535 0.27506 0.0
C1006 C 0.65878 0.89185 0.27765 0.0
C1007 C 0.67363 0.88691 0.26878 0.0
C1008 C 0.67057 0.91794 0.28314 0.0
C1009 C 0.70038 0.90793 0.26578 0.0
C1010 C 0.69737 0.93843 0.27989 0.0
N1011 N 0.71161 0.93303 0.27136 0.0
C1012 C 0.59856 0.84749 0.24835 0.0
C1013 C 0.62012 0.82029 0.25083 0.0
C1014 C 0.59949 0.84558 0.23581 0.0
N1015 N 0.60865 0.83478 0.25553 0.0
C1016 C 0.62151 0.81787 0.23834 0.0
C1017 C 0.61094 0.83046 0.23065 0.0
H1018 H 0.5896 0.85892 0.25239 0.0
H1019 H 0.62792 0.81036 0.25679 0.0
C1020 C 0.66208 0.8409 0.31166 0.0
N1021 N 0.66209 0.84594 0.29965 0.0
C1022 C 0.68403 0.83924 0.31684 0.0
C1023 C 0.70567 0.84772 0.29721 0.0
C1024 C 0.68334 0.84941 0.29242 0.0
C1025 C 0.70591 0.84199 0.30955 0.0
H1026 H 0.64448 0.8368 0.31718 0.0
H1027 H 0.68227 0.85196 0.28282 0.0
O1028 O 0.57018 0.83178 0.27851 0.0
O1029 O 0.59939 0.83891 0.30346 0.0
O1030 O 0.61115 0.8096 0.28191 0.0
O1031 O 0.63242 0.87167 0.2806 0.0
H1032 H 0.54538 0.82396 0.29982 0.0
H1033 H 0.53838 0.83557 0.26182 0.0
H1034 H 0.50011 0.8214 0.30309 0.0
H1035 H 0.49316 0.83287 0.26577 0.0
H1036 H 0.66044 0.917 0.32373 0.0
H1037 H 0.57489 0.82536 0.32475 0.0
H1038 H 0.64479 0.88833 0.30513 0.0
H1039 H 0.59181 0.85498 0.34308 0.0
H1040 H 0.48743 0.72641 0.28801 0.0
H1041 H 0.5338 0.73832 0.32101 0.0
H1042 H 0.58832 0.94089 0.27762 0.0
H1043 H 0.55378 0.9051 0.31243 0.0
H1044 H 0.62176 0.78374 0.29933 0.0
H1045 H 0.57631 0.77241 0.26636 0.0
H1046 H 0.601 0.73258 0.30078 0.0
H1047 H 0.55639 0.72146 0.26837 0.0
H1048 H 0.66469 0.86696 0.26433 0.0
H1049 H 0.65908 0.92242 0.28978 0.0
H1050 H 0.7122 0.90429 0.25901 0.0
H1051 H 0.70679 0.95867 0.28411 0.0
H1052 H 0.59142 0.85589 0.23021 0.0
H1053 H 0.63018 0.80572 0.23477 0.0
H1054 H 0.68336 0.83487 0.3264 0.0
H1055 H 0.72173 0.8493 0.29119 0.0
H1056 H 0.17974 0.88468 0.99525 0.0
H1057 H 0.19371 0.93092 0.00284 0.0
H1058 H 0.14756 0.9423 0.97431 0.0
H1059 H 0.1337 0.89589 0.96654 0.0
H1060 H 0.19904 0.98436 0.97512 0.0
H1061 H 0.15708 0.9656 0.0214 0.0
H1062 H 0.17646 0.94823 0.01905 0.0
H1063 H 0.14547 0.93817 0.01034 0.0
C1064 C 0.17184 0.89665 0.9908 0.0
C1065 C 0.15554 0.88659 0.98032 0.0
C1066 C 0.1798 0.92312 0.99517 0.0
C1067 C 0.17132 0.93996 0.98927 0.0
C1068 C 0.15421 0.9296 0.97905 0.0
H1069 H 0.23691 0.10634 0.02123 0.0
H1070 H 0.20331 0.06086 0.01285 0.0
C1071 C 0.14637 0.90314 0.97461 0.0
C1072 C 0.18313 0.96938 0.99297 0.0
H1073 H 0.19796 0.01079 0.01779 0.0
C1074 C 0.19829 0.99015 0.98441 0.0
C1075 C 0.18178 0.97709 0.00502 0.0
C1076 C 0.16403 0.95605 0.01443 0.0
C1077 C 0.21369 0.01819 0.98774 0.0
C1078 C 0.2145 0.02556 1e-05 0.0
C1079 C 0.19775 0.00508 0.00841 0.0
C1080 C 0.23438 0.05381 0.00447 0.0
C1081 C 0.22939 0.03954 0.9781 0.0
C1082 C 0.26294 0.06479 0.00263 0.0
C1083 C 0.28206 0.09063 0.00737 0.0
C1084 C 0.27309 0.10597 0.01419 0.0
C1085 C 0.24445 0.09497 0.01605 0.0
C1086 C 0.22525 0.06907 0.01124 0.0
H1087 H 0.21913 0.03253 0.96916 0.0
H1088 H 0.23116 0.05983 0.98031 0.0
H1089 H 0.25061 0.04255 0.9773 0.0
H1090 H 0.27053 0.05302 0.99778 0.0
H1091 H 0.30398 0.09817 0.00602 0.0
H1092 H 0.1395 0.26159 0.33808 0.0
H1093 H 0.15577 0.23169 0.32967 0.0
H1094 H 0.19625 0.23522 0.36336 0.0
H1095 H 0.18192 0.26654 0.37154 0.0
H1096 H 0.23111 0.24963 0.34509 0.0
H1097 H 0.13543 0.1517 0.33323 0.0
H1098 H 0.13649 0.18182 0.32682 0.0
H1099 H 0.13507 0.17757 0.34295 0.0
C1100 C 0.15173 0.25589 0.34374 0.0
C1101 C 0.15949 0.26675 0.35549 0.0
C1102 C 0.16062 0.23838 0.33897 0.0
C1103 C 0.17699 0.23095 0.34593 0.0
C1104 C 0.1835 0.24055 0.35785 0.0
H1105 H 0.26943 0.1467 0.33077 0.0
H1106 H 0.23817 0.16058 0.33995 0.0
C1107 C 0.175 0.25832 0.36256 0.0
C1108 C 0.19032 0.21627 0.34041 0.0
H1109 H 0.17801 0.15823 0.32476 0.0
C1110 C 0.21942 0.22949 0.34078 0.0
C1111 C 0.17507 0.19006 0.33472 0.0
C1112 C 0.14377 0.17432 0.3345 0.0
C1113 C 0.23369 0.21745 0.33548 0.0
C1114 C 0.21852 0.19157 0.32963 0.0
C1115 C 0.18946 0.17814 0.32927 0.0
C1116 C 0.23309 0.17888 0.32364 0.0
C1117 C 0.265 0.23261 0.33599 0.0
C1118 C 0.23995 0.18412 0.31139 0.0
C1119 C 0.25803 0.17656 0.30615 0.0
C1120 C 0.26953 0.16362 0.31311 0.0
C1121 C 0.26127 0.15701 0.32523 0.0
C1122 C 0.24324 0.16466 0.33046 0.0
H1123 H 0.27378 0.25328 0.34036 0.0
H1124 H 0.27192 0.22002 0.34113 0.0
H1125 H 0.27364 0.23544 0.32673 0.0
H1126 H 0.23247 0.19535 0.30605 0.0
H1127 H 0.26418 0.18228 0.29685 0.0
H1128 H 0.918 0.19511 0.702 0.0
H1129 H 0.96288 0.21052 0.69255 0.0
H1130 H 0.92368 0.14818 0.66493 0.0
H1131 H 0.87847 0.13169 0.67463 0.0
H1132 H 0.97764 0.15741 0.67343 0.0
H1133 H 0.97812 0.25399 0.66036 0.0
H1134 H 0.97308 0.24628 0.67621 0.0
H1135 H 0.94727 0.22341 0.66561 0.0
C1136 C 0.91887 0.18402 0.69413 0.0
C1137 C 0.89451 0.1622 0.68905 0.0
C1138 C 0.94457 0.19309 0.68868 0.0
C1139 C 0.94647 0.18077 0.67796 0.0
C1140 C 0.92255 0.15803 0.67318 0.0
H1141 H 0.08243 0.27095 0.62854 0.0
H1142 H 0.03685 0.24035 0.63705 0.0
C1143 C 0.89675 0.14881 0.67868 0.0
C1144 C 0.97299 0.19332 0.67126 0.0
H1145 H 0.01974 0.25315 0.65718 0.0
C1146 C 0.98686 0.17827 0.66979 0.0
C1147 C 0.98464 0.22034 0.66637 0.0
C1148 C 0.96993 0.2369 0.6671 0.0
C1149 C 0.01259 0.18994 0.66382 0.0
C1150 C 0.02475 0.21743 0.65938 0.0
C1151 C 0.01048 0.23212 0.66063 0.0
C1152 C 0.05234 0.23181 0.65345 0.0
C1153 C 0.02634 0.17269 0.66222 0.0
C1154 C 0.0763 0.23666 0.6597 0.0
C1155 C 0.1026 0.25384 0.65474 0.0
C1156 C 0.10543 0.26683 0.6435 0.0
C1157 C 0.08125 0.26101 0.6371 0.0
C1158 C 0.05505 0.24365 0.642 0.0
H1159 H 0.01107 0.15013 0.66286 0.0
H1160 H 0.0371 0.17691 0.65337 0.0
H1161 H 0.04198 0.17795 0.66945 0.0
H1162 H 0.07476 0.22818 0.66865 0.0
H1163 H 0.12072 0.25758 0.65987 0.0
H1164 H 0.72371 0.91994 0.03322 0.0
H1165 H 0.75729 0.96345 0.02369 0.0
H1166 H 0.76928 0.91801 0.99504 0.0
H1167 H 0.73459 0.87415 0.00428 0.0
H1168 H 0.81235 0.9865 0.01719 0.0
H1169 H 0.74494 0.96574 0.97683 0.0
H1170 H 0.73266 0.94491 0.99032 0.0
H1171 H 0.75512 0.94046 0.98006 0.0
C1172 C 0.73338 0.91915 0.02486 0.0
C1173 C 0.72605 0.89358 0.01938 0.0
C1174 C 0.7528 0.94405 0.01949 0.0
C1175 C 0.76541 0.94398 0.00855 0.0
C1176 C 0.75937 0.91852 0.00337 0.0
H1177 H 0.8527 0.09368 0.96372 0.0
H1178 H 0.83987 0.04777 0.97173 0.0
C1179 C 0.73975 0.89348 0.00872 0.0
C1180 C 0.78343 0.97073 0.00236 0.0
H1181 H 0.78506 0.00934 0.9781 0.0
C1182 C 0.80665 0.99139 0.00855 0.0
C1183 C 0.77598 0.97705 0.99108 0.0
C1184 C 0.75073 0.95602 0.98419 0.0
C1185 C 0.82191 0.01851 0.00399 0.0
C1186 C 0.81357 0.02513 0.99303 0.0
C1187 C 0.79139 0.00413 0.9865 0.0
C1188 C 0.82524 0.05414 0.98885 0.0
C1189 C 0.84641 0.04001 0.01108 0.0
C1190 C 0.82148 0.07298 0.99588 0.0
C1191 C 0.82844 0.09903 0.99129 0.0
C1192 C 0.83924 0.10677 0.97955 0.0
C1193 C 0.84409 0.08826 0.97273 0.0
C1194 C 0.83697 0.0621 0.97732 0.0
H1195 H 0.85537 0.03024 0.01693 0.0
H1196 H 0.86288 0.0552 0.005 0.0
H1197 H 0.83947 0.05146 0.01701 0.0
H1198 H 0.81182 0.067 0.00469 0.0
H1199 H 0.82388 0.11244 0.99672 0.0
H1200 H 0.76198 0.86879 0.30477 0.0
H1201 H 0.7958 0.85597 0.31199 0.0
H1202 H 0.73149 0.78886 0.33261 0.0
H1203 H 0.69775 0.80114 0.3254 0.0
H1204 H 0.78281 0.82073 0.34521 0.0
H1205 H 0.7955 0.78522 0.29981 0.0
H1206 H 0.80166 0.82008 0.30119 0.0
H1207 H 0.76722 0.79125 0.30317 0.0
C1208 C 0.75512 0.85135 0.31086 0.0
C1209 C 0.72717 0.83604 0.31453 0.0
C1210 C 0.77445 0.8441 0.31498 0.0
C1211 C 0.76605 0.82139 0.32277 0.0
C1212 C 0.7384 0.80658 0.32666 0.0
H1213 H 0.7938 0.69344 0.33999 0.0
H1214 H 0.7835 0.72789 0.33184 0.0
C1215 C 0.71916 0.81375 0.32257 0.0
C1216 C 0.78527 0.81168 0.32652 0.0
H1217 H 0.81471 0.77448 0.31632 0.0
C1218 C 0.7904 0.81117 0.3389 0.0
C1219 C 0.79495 0.79915 0.31822 0.0
C1220 C 0.78953 0.79871 0.30485 0.0
C1221 C 0.80348 0.79694 0.34327 0.0
C1222 C 0.81189 0.7832 0.33501 0.0
C1223 C 0.80831 0.78518 0.32259 0.0
C1224 C 0.82026 0.76318 0.33916 0.0
C1225 C 0.8064 0.79501 0.35673 0.0
C1226 C 0.84466 0.77169 0.34583 0.0
C1227 C 0.85075 0.75193 0.35048 0.0
C1228 C 0.83256 0.72342 0.34849 0.0
C1229 C 0.80855 0.71519 0.34152 0.0
C1230 C 0.80254 0.73486 0.33689 0.0
H1231 H 0.79572 0.80403 0.36193 0.0
H1232 H 0.79774 0.77302 0.35949 0.0
H1233 H 0.82872 0.80641 0.3592 0.0
H1234 H 0.85876 0.79351 0.34755 0.0
H1235 H 0.86955 0.75894 0.3557 0.0
H1236 H 0.89624 0.76326 0.63594 0.0
H1237 H 0.9429 0.79413 0.644 0.0
H1238 H 0.93192 0.73087 0.66953 0.0
H1239 H 0.88534 0.70034 0.66173 0.0
H1240 H 0.95876 0.78198 0.67961 0.0
H1241 H 0.00679 0.78226 0.63554 0.0
H1242 H 0.98336 0.7956 0.63515 0.0
H1243 H 0.97039 0.75957 0.63855 0.0
C1244 C 0.90373 0.75615 0.64337 0.0
C1245 C 0.88719 0.72939 0.64819 0.0
C1246 C 0.93039 0.77372 0.64792 0.0
C1247 C 0.94109 0.76458 0.6572 0.0
C1248 C 0.9241 0.73837 0.66237 0.0
H1249 H 0.10077 0.79315 0.67441 0.0
H1250 H 0.05487 0.78016 0.66661 0.0
C1251 C 0.89742 0.72096 0.65793 0.0
C1252 C 0.97042 0.78127 0.66115 0.0
H1253 H 0.037 0.80585 0.65157 0.0
C1254 C 0.97594 0.78751 0.67348 0.0
C1255 C 0.99275 0.78822 0.65312 0.0
C1256 C 0.98815 0.78091 0.63987 0.0
C1257 C 0.00304 0.79945 0.67808 0.0
C1258 C 0.0253 0.80602 0.67007 0.0
C1259 C 0.0199 0.8009 0.65767 0.0
C1260 C 0.05382 0.81527 0.67444 0.0
C1261 C 0.00731 0.8034 0.69155 0.0
C1262 C 0.06873 0.83959 0.68131 0.0
C1263 C 0.09499 0.84696 0.68588 0.0
C1264 C 0.10694 0.8304 0.68345 0.0
C1265 C 0.09228 0.80654 0.67628 0.0
C1266 C 0.066 0.79905 0.67185 0.0
H1267 H 0.98748 0.79175 0.6966 0.0
H1268 H 0.0218 0.79653 0.69477 0.0
H1269 H 0.01643 0.82575 0.69374 0.0
H1270 H 0.06 0.85276 0.68319 0.0
H1271 H 0.10598 0.86558 0.69129 0.0
H1272 H 0.67572 0.17653 0.98042 0.0
H1273 H 0.63503 0.1763 0.98902 0.0
H1274 H 0.67981 0.26585 0.98948 0.0
H1275 H 0.72032 0.26621 0.98074 0.0
H1276 H 0.62887 0.19712 0.01031 0.0
H1277 H 0.60932 0.24935 0.97209 0.0
H1278 H 0.63275 0.23588 0.97094 0.0
H1279 H 0.64393 0.26902 0.97794 0.0
C1280 C 0.67685 0.19615 0.98238 0.0
C1281 C 0.70107 0.22139 0.97982 0.0
C1282 C 0.65361 0.19599 0.98725 0.0
C1283 C 0.65422 0.22106 0.98966 0.0
C1284 C 0.6786 0.24628 0.98736 0.0
H1285 H 0.54549 0.26802 0.02486 0.0
H1286 H 0.58467 0.26577 0.01599 0.0
C1287 C 0.70175 0.24645 0.9824 0.0
C1288 C 0.62959 0.22089 0.99483 0.0
H1289 H 0.58461 0.24497 0.99032 0.0
C1290 C 0.61904 0.20737 0.00589 0.0
C1291 C 0.61676 0.23422 0.98901 0.0
C1292 C 0.62608 0.2477 0.97678 0.0
C1293 C 0.59641 0.20743 0.01145 0.0
C1294 C 0.58405 0.22126 0.00575 0.0
C1295 C 0.59436 0.23454 0.99466 0.0
C1296 C 0.56045 0.22232 0.01124 0.0
C1297 C 0.58613 0.19322 0.02348 0.0
C1298 C 0.53396 0.19863 0.0114 0.0
C1299 C 0.51156 0.19987 0.01641 0.0
C1300 C 0.51539 0.2248 0.02139 0.0
C1301 C 0.54202 0.24847 0.02121 0.0
C1302 C 0.56434 0.24726 0.01611 0.0
H1303 H 0.60031 0.18673 0.02747 0.0
H1304 H 0.58379 0.20722 0.02991 0.0
H1305 H 0.56539 0.17448 0.02228 0.0
H1306 H 0.53062 0.17926 0.00759 0.0
H1307 H 0.49131 0.18128 0.0165 0.0
H1308 H 0.31725 0.53575 0.36919 0.0
H1309 H 0.35667 0.57512 0.35944 0.0
H1310 H 0.32681 0.53699 0.32464 0.0
H1311 H 0.28661 0.49816 0.33425 0.0
H1312 H 0.39797 0.57714 0.34541 0.0
H1313 H 0.33698 0.61366 0.31944 0.0
H1314 H 0.32199 0.58837 0.33139 0.0
H1315 H 0.32696 0.57808 0.31664 0.0
C1316 C 0.31886 0.53587 0.35945 0.0
C1317 C 0.2986 0.51388 0.3525 0.0
C1318 C 0.34152 0.55829 0.3539 0.0
C1319 C 0.3444 0.55921 0.34131 0.0
C1320 C 0.32467 0.53699 0.33436 0.0
H1321 H 0.47293 0.67963 0.29364 0.0
H1322 H 0.43352 0.63789 0.30216 0.0
C1323 C 0.3019 0.5146 0.33989 0.0
C1324 C 0.36822 0.58337 0.3355 0.0
H1325 H 0.38525 0.63593 0.31533 0.0
C1326 C 0.39519 0.59001 0.33884 0.0
C1327 C 0.36451 0.60016 0.32695 0.0
C1328 C 0.33606 0.59493 0.32346 0.0
C1329 C 0.41857 0.61292 0.33382 0.0
C1330 C 0.41482 0.62963 0.32529 0.0
C1331 C 0.38793 0.6229 0.32184 0.0
C1332 C 0.43862 0.65477 0.32016 0.0
C1333 C 0.44715 0.61908 0.33759 0.0
C1334 C 0.45419 0.67808 0.32746 0.0
C1335 C 0.47645 0.70206 0.32261 0.0
C1336 C 0.48361 0.70313 0.31036 0.0
C1337 C 0.46782 0.67966 0.30307 0.0
C1338 C 0.44541 0.65573 0.30792 0.0
H1339 H 0.44659 0.60128 0.3424 0.0
H1340 H 0.46097 0.62436 0.32962 0.0
H1341 H 0.45632 0.63726 0.34375 0.0
H1342 H 0.44891 0.67782 0.33689 0.0
H1343 H 0.48774 0.7199 0.32844 0.0
H1344 H 0.80799 0.32566 0.69851 0.0
H1345 H 0.80756 0.3649 0.68876 0.0
H1346 H 0.73589 0.30829 0.66792 0.0
H1347 H 0.73645 0.2689 0.6774 0.0
H1348 H 0.81093 0.37547 0.66303 0.0
H1349 H 0.71405 0.3627 0.6836 0.0
H1350 H 0.7328 0.34692 0.6899 0.0
H1351 H 0.71135 0.33209 0.67681 0.0
C1352 C 0.79219 0.32152 0.69182 0.0
C1353 C 0.77222 0.2941 0.68875 0.0
C1354 C 0.79191 0.34396 0.68631 0.0
C1355 C 0.77152 0.33943 0.67774 0.0
C1356 C 0.75149 0.31217 0.67469 0.0
H1357 H 0.73648 0.44884 0.63474 0.0
H1358 H 0.73615 0.40878 0.64406 0.0
C1359 C 0.75181 0.2897 0.68014 0.0
C1360 C 0.77183 0.36324 0.67168 0.0
H1361 H 0.73488 0.39662 0.66828 0.0
C1362 C 0.79438 0.3802 0.66419 0.0
C1363 C 0.75008 0.36914 0.67318 0.0
C1364 C 0.72576 0.35193 0.68137 0.0
C1365 C 0.79563 0.40282 0.65803 0.0
C1366 C 0.77403 0.40894 0.65962 0.0
C1367 C 0.7514 0.39187 0.66707 0.0
C1368 C 0.77466 0.43319 0.65378 0.0
C1369 C 0.81976 0.41959 0.64967 0.0
C1370 C 0.7963 0.46017 0.65624 0.0
C1371 C 0.79657 0.48306 0.65092 0.0
C1372 C 0.77501 0.4794 0.64315 0.0
C1373 C 0.75327 0.45233 0.64075 0.0
C1374 C 0.75309 0.42944 0.64604 0.0
H1375 H 0.83 0.40773 0.64683 0.0
H1376 H 0.81299 0.42609 0.64148 0.0
H1377 H 0.83544 0.43854 0.65444 0.0
H1378 H 0.81278 0.46357 0.66242 0.0
H1379 H 0.81331 0.50367 0.65312 0.0
H1380 H 0.32416 0.79975 0.96479 0.0
H1381 H 0.36369 0.79861 0.97388 0.0
H1382 H 0.30886 0.73653 0.9992 0.0
H1383 H 0.26928 0.7381 0.9905 0.0
H1384 H 0.37408 0.80411 0.00297 0.0
H1385 H 0.36104 0.70966 0.97952 0.0
H1386 H 0.35016 0.73216 0.97266 0.0
H1387 H 0.33079 0.7102 0.98501 0.0
C1388 C 0.32048 0.78601 0.97236 0.0
C1389 C 0.29349 0.76903 0.97692 0.0
C1390 C 0.34306 0.78528 0.97747 0.0
C1391 C 0.33902 0.76739 0.98713 0.0
C1392 C 0.31223 0.75028 0.99167 0.0
H1393 H 0.44863 0.72617 0.02623 0.0
H1394 H 0.40875 0.72657 0.01708 0.0
C1395 C 0.28966 0.75111 0.98663 0.0
C1396 C 0.36293 0.76715 0.99273 0.0
H1397 H 0.39732 0.73085 0.99369 0.0
C1398 C 0.3793 0.78819 0.00095 0.0
C1399 C 0.36927 0.74613 0.99012 0.0
C1400 C 0.35205 0.72319 0.98132 0.0
C1401 C 0.40194 0.78866 0.00676 0.0
C1402 C 0.40874 0.76792 0.00397 0.0
C1403 C 0.39216 0.74678 0.99577 0.0
C1404 C 0.43294 0.76777 0.00948 0.0
C1405 C 0.41789 0.81094 0.01603 0.0
C1406 C 0.45978 0.79062 0.0081 0.0
C1407 C 0.48251 0.79051 0.01339 0.0
C1408 C 0.47886 0.76734 0.01998 0.0
C1409 C 0.45204 0.74424 0.02114 0.0
C1410 C 0.42928 0.74447 0.01595 0.0
H1411 H 0.40532 0.81976 0.01966 0.0
H1412 H 0.42459 0.80277 0.02367 0.0
H1413 H 0.43667 0.82811 0.01174 0.0
H1414 H 0.4632 0.80848 0.00286 0.0
H1415 H 0.50302 0.80839 0.01217 0.0
H1416 H 0.54711 0.27446 0.31002 0.0
H1417 H 0.58615 0.31389 0.32 0.0
H1418 H 0.53255 0.34567 0.33031 0.0
H1419 H 0.49337 0.30619 0.32039 0.0
H1420 H 0.60885 0.36894 0.315 0.0
H1421 H 0.56996 0.34757 0.3621 0.0
H1422 H 0.55461 0.32214 0.3502 0.0
H1423 H 0.54616 0.34926 0.35167 0.0
C1424 C 0.54366 0.28987 0.31441 0.0
C1425 C 0.51717 0.28722 0.31445 0.0
C1426 C 0.56593 0.31229 0.32015 0.0
C1427 C 0.56215 0.33247 0.32605 0.0
C1428 C 0.53577 0.32997 0.32606 0.0
H1429 H 0.69144 0.49953 0.34384 0.0
H1430 H 0.6516 0.45823 0.33532 0.0
C1431 C 0.51343 0.30745 0.32038 0.0
C1432 C 0.58611 0.35673 0.33173 0.0
H1433 H 0.60965 0.39188 0.35833 0.0
C1434 C 0.60909 0.3739 0.32449 0.0
C1435 C 0.58651 0.36292 0.34414 0.0
C1436 C 0.56312 0.34436 0.35252 0.0
C1437 C 0.63228 0.3974 0.32926 0.0
C1438 C 0.6322 0.40423 0.34156 0.0
C1439 C 0.60948 0.38677 0.34887 0.0
C1440 C 0.65567 0.4293 0.34701 0.0
C1441 C 0.65683 0.41445 0.32114 0.0
C1442 C 0.67055 0.42677 0.35667 0.0
C1443 C 0.69322 0.45034 0.3616 0.0
C1444 C 0.70135 0.47685 0.35695 0.0
C1445 C 0.68597 0.47934 0.34746 0.0
C1446 C 0.66325 0.45578 0.34258 0.0
H1447 H 0.65675 0.40244 0.31311 0.0
H1448 H 0.65593 0.43285 0.31789 0.0
H1449 H 0.67669 0.42187 0.32606 0.0
H1450 H 0.66495 0.4065 0.36025 0.0
H1451 H 0.70479 0.44774 0.36884 0.0
H1452 H 0.21822 0.49885 0.6664 0.0
H1453 H 0.21705 0.53759 0.67628 0.0
H1454 H 0.21731 0.5725 0.6415 0.0
H1455 H 0.21755 0.53343 0.63154 0.0
H1456 H 0.25612 0.594 0.67432 0.0
H1457 H 0.15246 0.57254 0.65878 0.0
H1458 H 0.16346 0.54709 0.65785 0.0
H1459 H 0.1749 0.57425 0.64676 0.0
C1460 C 0.21753 0.51452 0.66085 0.0
C1461 C 0.21784 0.51299 0.64818 0.0
C1462 C 0.21707 0.53672 0.66651 0.0
C1463 C 0.21671 0.55768 0.65962 0.0
C1464 C 0.21706 0.55626 0.64698 0.0
H1465 H 0.22513 0.71411 0.67227 0.0
H1466 H 0.22339 0.67248 0.66409 0.0
C1467 C 0.21751 0.53408 0.64131 0.0
C1468 C 0.21701 0.5816 0.66562 0.0
H1469 H 0.18151 0.61672 0.66778 0.0
C1470 C 0.2397 0.59886 0.67299 0.0
C1471 C 0.19555 0.58783 0.66386 0.0
C1472 C 0.17008 0.56932 0.65647 0.0
C1473 C 0.24193 0.62274 0.67837 0.0
C1474 C 0.22067 0.6292 0.67644 0.0
C1475 C 0.19779 0.61171 0.66921 0.0
C1476 C 0.22212 0.65445 0.68155 0.0
C1477 C 0.26739 0.64132 0.68574 0.0
C1478 C 0.22175 0.65796 0.69407 0.0
C1479 C 0.22291 0.68183 0.69879 0.0
C1480 C 0.22436 0.70254 0.69103 0.0
C1481 C 0.22448 0.69877 0.67848 0.0
C1482 C 0.22329 0.67492 0.67379 0.0
H1483 H 0.28444 0.6368 0.68414 0.0
H1484 H 0.27507 0.66351 0.68364 0.0
H1485 H 0.26198 0.63805 0.69547 0.0
H1486 H 0.22042 0.64217 0.7002 0.0
H1487 H 0.22295 0.6842 0.70849 0.0
H1488 H 0.3465 0.16453 0.11458 0.0
H1489 H 0.34772 0.15843 0.13641 0.0
H1490 H 0.41331 0.2435 0.13987 0.0
H1491 H 0.41273 0.2497 0.11805 0.0
H1492 H 0.39603 0.16785 0.15048 0.0
H1493 H 0.35295 0.23456 0.16471 0.0
H1494 H 0.34877 0.2208 0.1496 0.0
H1495 H 0.38129 0.24995 0.15417 0.0
C1496 C 0.36129 0.18192 0.11997 0.0
C1497 C 0.37947 0.20764 0.11456 0.0
C1498 C 0.36185 0.17842 0.13243 0.0
C1499 C 0.38038 0.20061 0.13972 0.0
C1500 C 0.39852 0.22629 0.13439 0.0
H1501 H 0.41644 0.22372 0.21619 0.0
H1502 H 0.41472 0.22898 0.19434 0.0
C1503 C 0.39807 0.22979 0.12193 0.0
C1504 C 0.38132 0.19669 0.15287 0.0
H1505 H 0.37004 0.21772 0.18015 0.0
C1506 C 0.39024 0.17861 0.157 0.0
C1507 C 0.37388 0.21092 0.16128 0.0
C1508 C 0.36346 0.23001 0.15727 0.0
C1509 C 0.39243 0.17476 0.16938 0.0
C1510 C 0.38484 0.1889 0.17782 0.0
C1511 C 0.37585 0.20693 0.17366 0.0
C1512 C 0.38616 0.1854 0.19101 0.0
C1513 C 0.40353 0.15619 0.1733 0.0
C1514 C 0.37048 0.15919 0.19639 0.0
C1515 C 0.37149 0.15612 0.20887 0.0
C1516 C 0.38791 0.17928 0.2162 0.0
C1517 C 0.4034 0.20554 0.21079 0.0
C1518 C 0.40252 0.20856 0.19831 0.0
H1519 H 0.41548 0.15329 0.16597 0.0
H1520 H 0.41714 0.16479 0.18134 0.0
H1521 H 0.3859 0.13546 0.1757 0.0
H1522 H 0.35718 0.14116 0.19096 0.0
H1523 H 0.35899 0.13571 0.21281 0.0
H1524 H 0.19239 0.36183 0.44865 0.0
H1525 H 0.19883 0.36195 0.4705 0.0
H1526 H 0.17374 0.42334 0.47461 0.0
H1527 H 0.16728 0.42338 0.45276 0.0
H1528 H 0.23453 0.40662 0.48495 0.0
H1529 H 0.12491 0.3639 0.49916 0.0
H1530 H 0.13455 0.36196 0.48379 0.0
H1531 H 0.13786 0.39373 0.48949 0.0
C1532 C 0.18827 0.37538 0.45421 0.0
C1533 C 0.17929 0.39258 0.44899 0.0
C1534 C 0.19185 0.37534 0.46668 0.0
C1535 C 0.18642 0.39238 0.47417 0.0
C1536 C 0.17746 0.40958 0.46901 0.0
H1537 H 0.20269 0.42723 0.55085 0.0
H1538 H 0.19582 0.42674 0.52903 0.0
C1539 C 0.17379 0.40958 0.45653 0.0
C1540 C 0.19114 0.39286 0.48734 0.0
H1541 H 0.15889 0.38113 0.51468 0.0
C1542 C 0.21799 0.40092 0.49146 0.0
C1543 C 0.16949 0.38545 0.49579 0.0
C1544 C 0.14002 0.37553 0.49187 0.0
C1545 C 0.2239 0.40223 0.50383 0.0
C1546 C 0.20226 0.39487 0.51227 0.0
C1547 C 0.17542 0.3868 0.50816 0.0
C1548 C 0.20703 0.3954 0.52543 0.0
C1549 C 0.25333 0.41203 0.50777 0.0
C1550 C 0.21544 0.3778 0.53063 0.0
C1551 C 0.21928 0.37794 0.5431 0.0
C1552 C 0.21457 0.39556 0.5506 0.0
C1553 C 0.20616 0.41318 0.54534 0.0
C1554 C 0.20234 0.41303 0.53288 0.0
H1555 H 0.26847 0.42327 0.50043 0.0
H1556 H 0.25893 0.4259 0.51575 0.0
H1557 H 0.25528 0.3938 0.51033 0.0
H1558 H 0.21862 0.36364 0.52505 0.0
H1559 H 0.22533 0.36381 0.54689 0.0
H1560 H 0.85498 0.2121 0.88136 0.0
H1561 H 0.84894 0.20569 0.85944 0.0
H1562 H 0.76913 0.20035 0.86217 0.0
H1563 H 0.77507 0.20697 0.88406 0.0
H1564 H 0.8006 0.15763 0.84746 0.0
H1565 H 0.81392 0.26075 0.83551 0.0
H1566 H 0.82709 0.2547 0.84941 0.0
H1567 H 0.79069 0.24252 0.84779 0.0
C1568 C 0.8363 0.20987 0.87727 0.0
C1569 C 0.81549 0.21004 0.8844 0.0
C1570 C 0.83283 0.20608 0.86478 0.0
C1571 C 0.8087 0.20277 0.85924 0.0
C1572 C 0.788 0.20313 0.86631 0.0
H1573 H 0.75014 0.1823 0.78546 0.0
H1574 H 0.75613 0.18823 0.80731 0.0
C1575 C 0.79134 0.2067 0.87879 0.0
C1576 C 0.80475 0.1981 0.84609 0.0
H1577 H 0.80011 0.2276 0.81986 0.0
C1578 C 0.8006 0.17292 0.84138 0.0
C1579 C 0.80457 0.21807 0.83828 0.0
C1580 C 0.80948 0.24565 0.84293 0.0
C1581 C 0.79577 0.16692 0.82902 0.0
C1582 C 0.79585 0.18701 0.82115 0.0
C1583 C 0.80005 0.21224 0.8259 0.0
C1584 C 0.79174 0.18239 0.80796 0.0
C1585 C 0.78991 0.13885 0.82457 0.0
C1586 C 0.80984 0.17725 0.80107 0.0
C1587 C 0.80622 0.17341 0.7886 0.0
C1588 C 0.78464 0.17505 0.78274 0.0
C1589 C 0.76666 0.18041 0.78968 0.0
C1590 C 0.7702 0.18405 0.80217 0.0
H1591 H 0.78251 0.12331 0.83198 0.0
H1592 H 0.77408 0.13101 0.81729 0.0
H1593 H 0.80931 0.14067 0.82092 0.0
H1594 H 0.82697 0.17647 0.80531 0.0
H1595 H 0.8203 0.16907 0.78357 0.0
H1596 H 0.647 0.78952 0.11939 0.0
H1597 H 0.64763 0.79839 0.14105 0.0
H1598 H 0.56851 0.79447 0.13803 0.0
H1599 H 0.5679 0.78615 0.11633 0.0
H1600 H 0.64393 0.84319 0.15253 0.0
H1601 H 0.55767 0.73882 0.16545 0.0
H1602 H 0.57591 0.74534 0.15127 0.0
H1603 H 0.55022 0.75552 0.15331 0.0
C1604 C 0.6298 0.79072 0.1233 0.0
C1605 C 0.60734 0.78702 0.11611 0.0
C1606 C 0.63015 0.79565 0.13568 0.0
C1607 C 0.60797 0.79674 0.14113 0.0
C1608 C 0.58559 0.79319 0.13401 0.0
H1609 H 0.56991 0.82086 0.21447 0.0
H1610 H 0.57004 0.81434 0.19264 0.0
C1611 C 0.58525 0.78836 0.12162 0.0
C1612 C 0.6085 0.80213 0.15422 0.0
H1613 H 0.57523 0.77321 0.18071 0.0
C1614 C 0.629 0.82789 0.15872 0.0
C1615 C 0.58891 0.78212 0.16222 0.0
C1616 C 0.56703 0.75379 0.15788 0.0
C1617 C 0.63017 0.83438 0.17103 0.0
C1618 C 0.61065 0.81432 0.17904 0.0
C1619 C 0.59014 0.78855 0.17453 0.0
C1620 C 0.61123 0.8195 0.19218 0.0
C1621 C 0.6519 0.86285 0.1753 0.0
C1622 C 0.63432 0.82447 0.19915 0.0
C1623 C 0.63441 0.82841 0.21161 0.0
C1624 C 0.6113 0.82727 0.21735 0.0
C1625 C 0.58821 0.82231 0.21032 0.0
C1626 C 0.58815 0.81838 0.19786 0.0
H1627 H 0.66017 0.87799 0.16774 0.0
H1628 H 0.64336 0.8708 0.18229 0.0
H1629 H 0.66949 0.86158 0.17933 0.0
H1630 H 0.65214 0.82493 0.19498 0.0
H1631 H 0.65259 0.83239 0.21675 0.0
H1632 H 0.82278 0.65435 0.55032 0.0
H1633 H 0.82992 0.65514 0.52851 0.0
H1634 H 0.76034 0.57191 0.52566 0.0
H1635 H 0.75327 0.57071 0.54749 0.0
H1636 H 0.84019 0.61777 0.51473 0.0
H1637 H 0.74406 0.61686 0.50035 0.0
H1638 H 0.75769 0.62577 0.5155 0.0
H1639 H 0.73892 0.59006 0.51085 0.0
C1640 C 0.80907 0.63614 0.54507 0.0
C1641 C 0.78742 0.61247 0.55066 0.0
C1642 C 0.8131 0.63669 0.53261 0.0
C1643 C 0.79547 0.61371 0.52548 0.0
C1644 C 0.77385 0.59005 0.53099 0.0
H1645 H 0.81946 0.57323 0.45263 0.0
H1646 H 0.81381 0.57473 0.47446 0.0
C1647 C 0.76982 0.58944 0.54346 0.0
C1648 C 0.80016 0.61424 0.51232 0.0
H1649 H 0.77057 0.61135 0.48496 0.0
C1650 C 0.82503 0.61644 0.50821 0.0
C1651 C 0.78042 0.61277 0.50387 0.0
C1652 C 0.75385 0.61147 0.50782 0.0
C1653 C 0.8305 0.61672 0.49583 0.0
C1654 C 0.81045 0.61454 0.48738 0.0
C1655 C 0.78579 0.61283 0.49149 0.0
C1656 C 0.8147 0.61404 0.47423 0.0
C1657 C 0.85777 0.61964 0.49185 0.0
C1658 C 0.81681 0.63553 0.46688 0.0
C1659 C 0.82023 0.63485 0.45442 0.0
C1660 C 0.82135 0.61251 0.44905 0.0
C1661 C 0.8192 0.59099 0.45648 0.0
C1662 C 0.81589 0.59175 0.46895 0.0
H1663 H 0.87327 0.62723 0.49928 0.0
H1664 H 0.85432 0.59909 0.4889 0.0
H1665 H 0.86651 0.63416 0.4841 0.0
H1666 H 0.81592 0.6529 0.47082 0.0
H1667 H 0.82218 0.65194 0.449 0.0
H1668 H 0.22093 0.82236 0.88499 0.0
H1669 H 0.22634 0.82975 0.86317 0.0
H1670 H 0.14211 0.76363 0.85782 0.0
H1671 H 0.1364 0.75622 0.87965 0.0
H1672 H 0.18078 0.76069 0.84254 0.0
H1673 H 0.19232 0.86572 0.84197 0.0
H1674 H 0.2157 0.86228 0.85205 0.0
H1675 H 0.17897 0.84292 0.85487 0.0
C1676 C 0.20343 0.8096 0.87918 0.0
C1677 C 0.17817 0.7888 0.88407 0.0
C1678 C 0.20657 0.81386 0.86672 0.0
C1679 C 0.18449 0.79752 0.85891 0.0
C1680 C 0.15937 0.77652 0.86372 0.0
H1681 H 0.17283 0.82795 0.78273 0.0
H1682 H 0.16538 0.82036 0.80451 0.0
C1683 C 0.1562 0.77224 0.87618 0.0
C1684 C 0.18783 0.8019 0.84569 0.0
H1685 H 0.20204 0.85004 0.82362 0.0
C1686 C 0.18532 0.78017 0.83838 0.0
C1687 C 0.19342 0.82724 0.84031 0.0
C1688 C 0.19502 0.85082 0.84767 0.0
C1689 C 0.18883 0.7833 0.82583 0.0
C1690 C 0.19537 0.80896 0.8205 0.0
C1691 C 0.1973 0.8305 0.82777 0.0
C1692 C 0.20013 0.81379 0.80735 0.0
C1693 C 0.1852 0.75902 0.81836 0.0
C1694 C 0.22238 0.81302 0.8018 0.0
C1695 C 0.22663 0.81725 0.78937 0.0
C1696 C 0.20875 0.82242 0.78227 0.0
C1697 C 0.18673 0.82363 0.78792 0.0
C1698 C 0.18254 0.81946 0.80036 0.0
H1699 H 0.1736 0.7391 0.82335 0.0
H1700 H 0.17402 0.75742 0.80983 0.0
H1701 H 0.20592 0.76206 0.81601 0.0
H1702 H 0.23645 0.80911 0.80708 0.0
H1703 H 0.24364 0.81597 0.78529 0.0
H1704 H 0.57648 0.61471 0.01831 0.0
H1705 H 0.54807 0.56414 0.01592 0.0
H1706 H 0.51171 0.55804 0.05095 0.0
H1707 H 0.53948 0.60831 0.05333 0.0
H1708 H 0.54522 0.52107 0.03185 0.0
H1709 H 0.44442 0.51815 0.0276 0.0
H1710 H 0.4774 0.54948 0.02536 0.0
H1711 H 0.46491 0.53744 0.04037 0.0
C1712 C 0.56241 0.60255 0.02549 0.0
C1713 C 0.56027 0.61549 0.03602 0.0
C1714 C 0.54627 0.57373 0.02412 0.0
C1715 C 0.52754 0.55752 0.03318 0.0
C1716 C 0.52577 0.57029 0.04378 0.0
H1717 H 0.41462 0.38865 0.05139 0.0
H1718 H 0.44133 0.43911 0.04911 0.0
C1719 C 0.54193 0.59898 0.04518 0.0
C1720 C 0.50996 0.52713 0.03174 0.0
H1721 H 0.44239 0.4749 0.0311 0.0
C1722 C 0.52275 0.51091 0.03151 0.0
C1723 C 0.48068 0.51408 0.03132 0.0
C1724 C 0.46598 0.53065 0.03106 0.0
C1725 C 0.50694 0.48181 0.03144 0.0
C1726 C 0.4776 0.46871 0.03133 0.0
C1727 C 0.46486 0.485 0.0312 0.0
C1728 C 0.45982 0.43816 0.03207 0.0
C1729 C 0.52176 0.46534 0.03203 0.0
C1730 C 0.46071 0.42093 0.02305 0.0
C1731 C 0.44565 0.39208 0.02437 0.0
C1732 C 0.42928 0.37997 0.03471 0.0
C1733 C 0.42738 0.39733 0.04342 0.0
C1734 C 0.44249 0.42614 0.0421 0.0
H1735 H 0.54382 0.47843 0.03477 0.0
H1736 H 0.51134 0.44785 0.03851 0.0
H1737 H 0.52131 0.45655 0.02299 0.0
H1738 H 0.47355 0.4298 0.01512 0.0
H1739 H 0.44776 0.37935 0.01753 0.0
H1740 H 0.95169 0.5691 0.35133 0.0
H1741 H 0.97793 0.54462 0.34939 0.0
H1742 H 0.96216 0.52072 0.38684 0.0
H1743 H 0.93575 0.54485 0.38884 0.0
H1744 H 0.02598 0.55173 0.36497 0.0
H1745 H 0.93195 0.44668 0.36611 0.0
H1746 H 0.93064 0.47749 0.36211 0.0
H1747 H 0.93439 0.47064 0.37762 0.0
C1748 C 0.95394 0.55871 0.35915 0.0
C1749 C 0.94166 0.55884 0.37023 0.0
C1750 C 0.96894 0.54484 0.35804 0.0
C1751 C 0.97159 0.53066 0.36794 0.0
C1752 C 0.96005 0.53137 0.37908 0.0
H1753 H 0.04107 0.42741 0.3841 0.0
H1754 H 0.01413 0.45111 0.38299 0.0
C1755 C 0.94523 0.54538 0.38023 0.0
C1756 C 0.98612 0.51473 0.36664 0.0
H1757 H 0.97547 0.4488 0.36702 0.0
C1758 C 0.01503 0.52923 0.36531 0.0
C1759 C 0.97159 0.48543 0.36712 0.0
C1760 C 0.94039 0.46901 0.36823 0.0
C1761 C 0.03003 0.51514 0.36486 0.0
C1762 C 0.01553 0.48576 0.36545 0.0
C1763 C 0.98651 0.47129 0.36655 0.0
C1764 C 0.03021 0.46974 0.36554 0.0
C1765 C 0.06131 0.5319 0.36424 0.0
C1766 C 0.04745 0.47162 0.35591 0.0
C1767 C 0.06294 0.45818 0.35655 0.0
C1768 C 0.06109 0.44231 0.36675 0.0
C1769 C 0.04273 0.43931 0.37609 0.0
C1770 C 0.02745 0.45294 0.37549 0.0
H1771 H 0.06934 0.55387 0.36691 0.0
H1772 H 0.07086 0.52291 0.37019 0.0
H1773 H 0.06809 0.53174 0.35484 0.0
H1774 H 0.0493 0.48386 0.348 0.0
H1775 H 0.07666 0.46051 0.34915 0.0
H1776 H 0.61671 0.08557 0.68304 0.0
H1777 H 0.56606 0.0586 0.6815 0.0
H1778 H 0.56338 0.00614 0.71072 0.0
H1779 H 0.61397 0.03315 0.71243 0.0
H1780 H 0.52681 0.9775 0.69063 0.0
H1781 H 0.51692 0.06607 0.7079 0.0
H1782 H 0.53928 0.07334 0.69506 0.0
H1783 H 0.54858 0.06478 0.70928 0.0
C1784 C 0.60534 0.06822 0.68911 0.0
C1785 C 0.61933 0.06167 0.69795 0.0
C1786 C 0.57645 0.05285 0.68821 0.0
C1787 C 0.56105 0.03073 0.69613 0.0
C1788 C 0.57497 0.02323 0.70455 0.0
H1789 H 0.39176 0.95077 0.71986 0.0
H1790 H 0.44212 0.97785 0.71744 0.0
C1791 C 0.60388 0.03859 0.70547 0.0
C1792 C 0.53038 0.01626 0.6961 0.0
H1793 H 0.4755 0.02545 0.70253 0.0
C1794 C 0.51553 0.98796 0.69316 0.0
C1795 C 0.51585 0.03 0.69954 0.0
C1796 C 0.53088 0.06017 0.70322 0.0
C1797 C 0.48641 0.97295 0.69358 0.0
C1798 C 0.4719 0.98675 0.69695 0.0
C1799 C 0.48675 0.01506 0.69986 0.0
C1800 C 0.44134 0.97177 0.69813 0.0
C1801 C 0.47141 0.9423 0.69077 0.0
C1802 C 0.42426 0.96004 0.68801 0.0
C1803 C 0.39543 0.94475 0.68934 0.0
C1804 C 0.3832 0.94096 0.70082 0.0
C1805 C 0.40043 0.95354 0.71087 0.0
C1806 C 0.42923 0.96887 0.70953 0.0
H1807 H 0.48571 0.9338 0.69062 0.0
H1808 H 0.45484 0.93057 0.69752 0.0
H1809 H 0.46145 0.93878 0.68177 0.0
H1810 H 0.43325 0.96252 0.67911 0.0
H1811 H 0.38273 0.93572 0.68138 0.0
H1812 H 0.60842 0.57015 0.6179 0.0
H1813 H 0.55813 0.54673 0.62066 0.0
H1814 H 0.56542 0.50833 0.65322 0.0
H1815 H 0.6158 0.53164 0.65048 0.0
H1816 H 0.52601 0.47094 0.63801 0.0
H1817 H 0.51097 0.56128 0.64415 0.0
H1818 H 0.53009 0.56389 0.6307 0.0
H1819 H 0.54463 0.56403 0.64523 0.0
C1820 C 0.59938 0.55719 0.62578 0.0
C1821 C 0.61605 0.55275 0.63397 0.0
C1822 C 0.57064 0.54383 0.62736 0.0
C1823 C 0.55807 0.52606 0.63723 0.0
C1824 C 0.57471 0.522 0.64555 0.0
H1825 H 0.38143 0.45824 0.65156 0.0
H1826 H 0.43176 0.48014 0.65413 0.0
C1827 C 0.60345 0.53526 0.64396 0.0
C1828 C 0.52744 0.51036 0.63841 0.0
H1829 H 0.4704 0.51807 0.63922 0.0
C1830 C 0.51384 0.48123 0.63841 0.0
C1831 C 0.51163 0.5238 0.63913 0.0
C1832 C 0.52508 0.55497 0.63993 0.0
C1833 C 0.48477 0.46517 0.63865 0.0
C1834 C 0.46893 0.47864 0.63863 0.0
C1835 C 0.48256 0.50775 0.6391 0.0
C1836 C 0.43824 0.4631 0.6377 0.0
C1837 C 0.47134 0.43396 0.63894 0.0
C1838 C 0.42517 0.44603 0.62768 0.0
C1839 C 0.39643 0.43342 0.62623 0.0
C1840 C 0.38031 0.43797 0.63469 0.0
C1841 C 0.39337 0.45455 0.64486 0.0
C1842 C 0.42208 0.46701 0.64634 0.0
H1843 H 0.48558 0.42734 0.64276 0.0
H1844 H 0.45193 0.42443 0.64434 0.0
H1845 H 0.46612 0.42581 0.62958 0.0
H1846 H 0.43729 0.44328 0.62075 0.0
H1847 H 0.387 0.42113 0.6182 0.0
H1848 H 0.07949 0.61356 0.98265 0.0
H1849 H 0.05228 0.56294 0.98444 0.0
H1850 H 0.01201 0.55837 0.95056 0.0
H1851 H 0.03896 0.60895 0.94876 0.0
H1852 H 0.97566 0.52366 0.9678 0.0
H1853 H 0.06811 0.51061 0.96471 0.0
H1854 H 0.06955 0.53294 0.97674 0.0
H1855 H 0.06952 0.54301 0.96132 0.0
C1856 C 0.06478 0.60174 0.9756 0.0
C1857 C 0.06148 0.61518 0.96552 0.0
C1858 C 0.04934 0.57285 0.97662 0.0
C1859 C 0.03059 0.55689 0.96751 0.0
C1860 C 0.02649 0.57032 0.95767 0.0
H1861 H 0.96116 0.3841 0.94941 0.0
H1862 H 0.98891 0.43469 0.95111 0.0
C1863 C 0.04179 0.59921 0.95667 0.0
C1864 C 0.01553 0.52617 0.96808 0.0
H1865 H 0.02499 0.47007 0.96844 0.0
C1866 C 0.98641 0.51191 0.96798 0.0
C1867 C 0.02966 0.51094 0.96814 0.0
C1868 C 0.06093 0.52509 0.96762 0.0
C1869 C 0.971 0.4828 0.96792 0.0
C1870 C 0.98513 0.46758 0.96823 0.0
C1871 C 0.01424 0.48182 0.96833 0.0
C1872 C 0.97002 0.43684 0.96785 0.0
C1873 C 0.93976 0.46865 0.96715 0.0
C1874 C 0.95092 0.42125 0.97691 0.0
C1875 C 0.93502 0.39239 0.97595 0.0
C1876 C 0.9382 0.37859 0.96598 0.0
C1877 C 0.95839 0.39414 0.95724 0.0
C1878 C 0.97415 0.42303 0.95817 0.0
H1879 H 0.93271 0.48305 0.96397 0.0
H1880 H 0.9314 0.45056 0.96095 0.0
H1881 H 0.93077 0.46106 0.97624 0.0
H1882 H 0.94793 0.43146 0.98461 0.0
H1883 H 0.91993 0.38088 0.98292 0.0
H1884 H 0.54053 0.93343 0.27735 0.0
H1885 H 0.51354 0.95701 0.27881 0.0
H1886 H 0.53841 0.97754 0.31597 0.0
H1887 H 0.5659 0.95431 0.31455 0.0
H1888 H 0.46895 0.94208 0.29662 0.0
H1889 H 0.55422 0.05214 0.29951 0.0
H1890 H 0.55947 0.02503 0.29337 0.0
H1891 H 0.55632 0.02754 0.30937 0.0
C1892 C 0.54077 0.94348 0.28576 0.0
C1893 C 0.55546 0.94217 0.29583 0.0
C1894 C 0.52515 0.95671 0.2866 0.0
C1895 C 0.52414 0.96905 0.29747 0.0
C1896 C 0.53918 0.96831 0.30748 0.0
H1897 H 0.44215 0.06417 0.3129 0.0
H1898 H 0.4663 0.03793 0.31537 0.0
C1899 C 0.55473 0.95494 0.30667 0.0
C1900 C 0.50636 0.98167 0.29841 0.0
H1901 H 0.50844 0.04377 0.30075 0.0
C1902 C 0.47751 0.9643 0.29757 0.0
C1903 C 0.5177 0.01059 0.29976 0.0
C1904 C 0.54863 0.03006 0.30049 0.0
C1905 C 0.45958 0.97517 0.29794 0.0
C1906 C 0.47094 0.0042 0.2989 0.0
C1907 C 0.4998 0.0215 0.30003 0.0
C1908 C 0.45353 0.01733 0.29806 0.0
C1909 C 0.42868 0.95545 0.29736 0.0
C1910 C 0.43801 0.0141 0.28758 0.0
C1911 C 0.42396 0.02883 0.2862 0.0
C1912 C 0.42541 0.04729 0.29522 0.0
C1913 C 0.44026 0.04981 0.30587 0.0
C1914 C 0.45427 0.03502 0.30725 0.0
H1915 H 0.42319 0.93434 0.3005 0.0
H1916 H 0.41721 0.96302 0.30292 0.0
H1917 H 0.42163 0.95369 0.28786 0.0
H1918 H 0.43758 0.00097 0.28028 0.0
H1919 H 0.41253 0.0263 0.27793 0.0
loop_
_geom_bond_atom_site_label_1
_geom_bond_atom_site_label_2
_geom_bond_distance
_geom_bond_site_symmetry_2
_ccdc_geom_bond_type
Li0 N17 1.990 . S
Li0 O60 1.956 . S
Li0 O61 1.970 . S
Li0 O62 1.961 . S
Li1 N25 1.990 . S
Li1 O60 1.970 . S
Li1 O61 1.956 . S
Li1 O63 1.961 . S
Li2 N47 1.990 . S
Li2 O60 1.961 . S
Li2 O62 1.956 . S
Li2 O63 1.970 . S
Li3 N53 1.990 . S
Li3 O61 1.961 . S
Li3 O62 1.970 . S
Li3 O63 1.956 . S
C4 C6 1.348 . S
C4 C7 1.356 . S
C4 O60 1.325 . S
N5 C8 1.314 . S
N5 C9 1.279 . S
C6 C4 1.348 . S
C6 C8 1.353 . S
C6 H64 0.929 . S
C7 C4 1.356 . S
C7 C9 1.358 . S
C7 H65 0.930 . S
C8 N5 1.314 . S
C8 C6 1.353 . S
C8 H66 0.930 . S
C9 N5 1.279 . S
C9 C7 1.358 . S
C9 H67 0.930 . S
C10 C13 1.348 . S
C10 C14 1.356 . S
C10 O61 1.325 . S
C11 N12 1.279 . S
C11 C14 1.358 . S
C11 H68 0.930 . S
N12 C11 1.279 . S
N12 C15 1.314 . S
C13 C10 1.348 . S
C13 C15 1.353 . S
C13 H69 0.929 . S
C14 C10 1.356 . S
C14 C11 1.358 . S
C14 H70 0.930 . S
C15 N12 1.314 . S
C15 C13 1.353 . S
C15 H71 0.930 . S
C16 N17 1.314 . S
C16 C21 1.353 . S
C16 H22 0.930 . S
N17 Li0 1.990 . S
N17 C16 1.314 . S
N17 C19 1.279 . S
C18 C19 1.358 . S
C18 C20 1.356 . S
C18 H72 0.930 . S
C19 N17 1.279 . S
C19 C18 1.358 . S
C19 H23 0.930 . S
C20 C18 1.356 . S
C20 C21 1.348 . S
C21 C16 1.353 . S
C21 C20 1.348 . S
C21 H73 0.929 . S
H22 C16 0.930 . S
H23 C19 0.930 . S
C24 N25 1.314 . S
C24 C26 1.353 . S
C24 H30 0.930 . S
N25 Li1 1.990 . S
N25 C24 1.314 . S
N25 C28 1.279 . S
C26 C24 1.353 . S
C26 C29 1.348 . S
C26 H74 0.929 . S
C27 C28 1.358 . S
C27 C29 1.356 . S
C27 H75 0.930 . S
C28 N25 1.279 . S
C28 C27 1.358 . S
C28 H31 0.930 . S
C29 C26 1.348 . S
C29 C27 1.356 . S
H30 C24 0.930 . S
H31 C28 0.930 . S
C32 C34 1.348 . S
C32 C35 1.356 . S
C32 O62 1.325 . S
N33 C36 1.314 . S
N33 C37 1.279 . S
C34 C32 1.348 . S
C34 C36 1.353 . S
C34 H76 0.929 . S
C35 C32 1.356 . S
C35 C37 1.358 . S
C35 H77 0.930 . S
C36 N33 1.314 . S
C36 C34 1.353 . S
C36 H78 0.930 . S
C37 N33 1.279 . S
C37 C35 1.358 . S
C37 H79 0.930 . S
C38 C39 1.348 . S
C38 C40 1.356 . S
C38 O63 1.325 . S
C39 C38 1.348 . S
C39 C41 1.353 1_554 S
C39 H80 0.929 . S
C40 C38 1.356 . S
C40 C42 1.358 1_554 S
C40 H81 0.930 . S
C41 C39 1.353 1_556 S
C41 N43 1.314 . S
C41 H82 0.930 . S
C42 C40 1.358 1_556 S
C42 N43 1.279 . S
C42 H83 0.930 . S
N43 C41 1.314 . S
N43 C42 1.279 . S
C44 C46 1.353 . S
C44 N47 1.314 . S
C44 H50 0.930 . S
C45 N47 1.279 . S
C45 C48 1.358 . S
C45 H51 0.930 . S
C46 C44 1.353 . S
C46 C49 1.348 . S
C46 H84 0.929 . S
N47 Li2 1.990 . S
N47 C44 1.314 . S
N47 C45 1.279 . S
C48 C45 1.358 . S
C48 C49 1.356 . S
C48 H85 0.930 . S
C49 C46 1.348 . S
C49 C48 1.356 . S
H50 C44 0.930 . S
H51 C45 0.930 . S
C52 N53 1.314 . S
C52 C54 1.353 . S
C52 H58 0.930 . S
N53 Li3 1.990 . S
N53 C52 1.314 . S
N53 C56 1.279 . S
C54 C52 1.353 . S
C54 C57 1.348 . S
C54 H86 0.929 . S
C55 C56 1.358 . S
C55 C57 1.356 . S
C55 H87 0.930 . S
C56 N53 1.279 . S
C56 C55 1.358 . S
C56 H59 0.930 . S
C57 C54 1.348 . S
C57 C55 1.356 . S
H58 C52 0.930 . S
H59 C56 0.930 . S
O60 Li0 1.956 . S
O60 Li1 1.970 . S
O60 Li2 1.961 . S
O60 C4 1.325 . S
O61 Li0 1.970 . S
O61 Li1 1.956 . S
O61 Li3 1.961 . S
O61 C10 1.325 . S
O62 Li0 1.961 . S
O62 Li2 1.956 . S
O62 Li3 1.970 . S
O62 C32 1.325 . S
O63 Li1 1.961 . S
O63 Li2 1.970 . S
O63 Li3 1.956 . S
O63 C38 1.325 . S
H64 C6 0.929 . S
H65 C7 0.930 . S
H66 C8 0.930 . S
H67 C9 0.930 . S
H68 C11 0.930 . S
H69 C13 0.929 . S
H70 C14 0.930 . S
H71 C15 0.930 . S
H72 C18 0.930 . S
H73 C21 0.929 . S
H74 C26 0.929 . S
H75 C27 0.930 . S
H76 C34 0.929 . S
H77 C35 0.930 . S
H78 C36 0.930 . S
H79 C37 0.930 . S
H80 C39 0.929 . S
H81 C40 0.930 . S
H82 C41 0.930 . S
H83 C42 0.930 . S
H84 C46 0.929 . S
H85 C48 0.930 . S
H86 C54 0.929 . S
H87 C55 0.930 . S
Li88 N105 1.990 . S
Li88 O148 1.956 . S
Li88 O149 1.970 . S
Li88 O150 1.961 . S
Li89 N113 1.990 . S
Li89 O148 1.970 . S
Li89 O149 1.956 . S
Li89 O151 1.961 . S
Li90 N135 1.990 . S
Li90 O148 1.961 . S
Li90 O150 1.956 . S
Li90 O151 1.970 . S
Li91 N141 1.990 . S
Li91 O149 1.961 . S
Li91 O150 1.970 . S
Li91 O151 1.956 . S
C92 C94 1.348 . S
C92 C95 1.356 . S
C92 O148 1.325 . S
N93 C96 1.314 . S
N93 C97 1.279 . S
C94 C92 1.348 . S
C94 C96 1.353 . S
C94 H152 0.929 . S
C95 C92 1.356 . S
C95 C97 1.358 . S
C95 H153 0.930 . S
C96 N93 1.314 . S
C96 C94 1.353 . S
C96 H154 0.930 . S
C97 N93 1.279 . S
C97 C95 1.358 . S
C97 H155 0.930 . S
C98 C101 1.348 . S
C98 C102 1.356 . S
C98 O149 1.325 . S
C99 N100 1.279 . S
C99 C102 1.358 . S
C99 H156 0.930 . S
N100 C99 1.279 . S
N100 C103 1.314 . S
C101 C98 1.348 . S
C101 C103 1.353 . S
C101 H157 0.929 . S
C102 C98 1.356 . S
C102 C99 1.358 . S
C102 H158 0.930 . S
C103 N100 1.314 . S
C103 C101 1.353 . S
C103 H159 0.930 . S
C104 N105 1.314 . S
C104 C109 1.353 . S
C104 H110 0.930 . S
N105 Li88 1.990 . S
N105 C104 1.314 . S
N105 C107 1.279 . S
C106 C107 1.358 . S
C106 C108 1.356 . S
C106 H160 0.930 . S
C107 N105 1.279 . S
C107 C106 1.358 . S
C107 H111 0.930 . S
C108 C106 1.356 . S
C108 C109 1.348 . S
C109 C104 1.353 . S
C109 C108 1.348 . S
C109 H161 0.929 . S
H110 C104 0.930 . S
H111 C107 0.930 . S
C112 N113 1.314 . S
C112 C114 1.353 . S
C112 H118 0.930 . S
N113 Li89 1.990 . S
N113 C112 1.314 . S
N113 C116 1.279 . S
C114 C112 1.353 . S
C114 C117 1.348 . S
C114 H162 0.929 . S
C115 C116 1.358 . S
C115 C117 1.356 . S
C115 H163 0.930 . S
C116 N113 1.279 . S
C116 C115 1.358 . S
C116 H119 0.930 . S
C117 C114 1.348 . S
C117 C115 1.356 . S
H118 C112 0.930 . S
H119 C116 0.930 . S
C120 C122 1.348 . S
C120 C123 1.356 . S
C120 O150 1.325 . S
N121 C124 1.314 . S
N121 C125 1.279 . S
C122 C120 1.348 . S
C122 C124 1.353 . S
C122 H164 0.929 . S
C123 C120 1.356 . S
C123 C125 1.358 . S
C123 H165 0.930 . S
C124 N121 1.314 . S
C124 C122 1.353 . S
C124 H166 0.930 . S
C125 N121 1.279 . S
C125 C123 1.358 . S
C125 H167 0.930 . S
C126 C127 1.348 . S
C126 C128 1.356 . S
C126 O151 1.325 . S
C127 C126 1.348 . S
C127 C129 1.353 . S
C127 H168 0.929 . S
C128 C126 1.356 . S
C128 C130 1.358 . S
C128 H169 0.930 . S
C129 C127 1.353 . S
C129 N131 1.314 . S
C129 H170 0.930 . S
C130 C128 1.358 . S
C130 N131 1.279 . S
C130 H171 0.930 . S
N131 C129 1.314 . S
N131 C130 1.279 . S
C132 C134 1.353 . S
C132 N135 1.314 . S
C132 H138 0.930 . S
C133 N135 1.279 . S
C133 C136 1.358 . S
C133 H139 0.930 . S
C134 C132 1.353 . S
C134 C137 1.348 . S
C134 H172 0.929 . S
N135 Li90 1.990 . S
N135 C132 1.314 . S
N135 C133 1.279 . S
C136 C133 1.358 . S
C136 C137 1.356 . S
C136 H173 0.930 . S
C137 C134 1.348 . S
C137 C136 1.356 . S
H138 C132 0.930 . S
H139 C133 0.930 . S
C140 N141 1.314 . S
C140 C142 1.353 . S
C140 H146 0.930 . S
N141 Li91 1.990 . S
N141 C140 1.314 . S
N141 C144 1.279 . S
C142 C140 1.353 . S
C142 C145 1.348 . S
C142 H174 0.929 . S
C143 C144 1.358 . S
C143 C145 1.356 . S
C143 H175 0.930 . S
C144 N141 1.279 . S
C144 C143 1.358 . S
C144 H147 0.930 . S
C145 C142 1.348 . S
C145 C143 1.356 . S
H146 C140 0.930 . S
H147 C144 0.930 . S
O148 Li88 1.956 . S
O148 Li89 1.970 . S
O148 Li90 1.961 . S
O148 C92 1.325 . S
O149 Li88 1.970 . S
O149 Li89 1.956 . S
O149 Li91 1.961 . S
O149 C98 1.325 . S
O150 Li88 1.961 . S
O150 Li90 1.956 . S
O150 Li91 1.970 . S
O150 C120 1.325 . S
O151 Li89 1.961 . S
O151 Li90 1.970 . S
O151 Li91 1.956 . S
O151 C126 1.325 . S
H152 C94 0.929 . S
H153 C95 0.930 . S
H154 C96 0.930 . S
H155 C97 0.930 . S
H156 C99 0.930 . S
H157 C101 0.929 . S
H158 C102 0.930 . S
H159 C103 0.930 . S
H160 C106 0.930 . S
H161 C109 0.929 . S
H162 C114 0.929 . S
H163 C115 0.930 . S
H164 C122 0.929 . S
H165 C123 0.930 . S
H166 C124 0.930 . S
H167 C125 0.930 . S
H168 C127 0.929 . S
H169 C128 0.930 . S
H170 C129 0.930 . S
H171 C130 0.930 . S
H172 C134 0.929 . S
H173 C136 0.930 . S
H174 C142 0.929 . S
H175 C143 0.930 . S
Li176 N193 1.990 . S
Li176 O236 1.956 . S
Li176 O237 1.970 . S
Li176 O238 1.961 . S
Li177 N201 1.990 . S
Li177 O236 1.970 . S
Li177 O237 1.956 . S
Li177 O239 1.961 . S
Li178 N223 1.990 . S
Li178 O236 1.961 . S
Li178 O238 1.956 . S
Li178 O239 1.970 . S
Li179 N229 1.990 . S
Li179 O237 1.961 . S
Li179 O238 1.970 . S
Li179 O239 1.956 . S
C180 C182 1.348 . S
C180 C183 1.356 . S
C180 O236 1.325 . S
N181 C184 1.314 . S
N181 C185 1.279 . S
C182 C180 1.348 . S
C182 C184 1.353 . S
C182 H240 0.929 . S
C183 C180 1.356 . S
C183 C185 1.358 . S
C183 H241 0.930 . S
C184 N181 1.314 . S
C184 C182 1.353 . S
C184 H242 0.930 . S
C185 N181 1.279 . S
C185 C183 1.358 . S
C185 H243 0.930 . S
C186 C189 1.348 . S
C186 C190 1.356 . S
C186 O237 1.325 . S
C187 N188 1.279 . S
C187 C190 1.358 . S
C187 H244 0.930 . S
N188 C187 1.279 . S
N188 C191 1.314 . S
C189 C186 1.348 . S
C189 C191 1.353 . S
C189 H245 0.929 . S
C190 C186 1.356 . S
C190 C187 1.358 . S
C190 H246 0.930 . S
C191 N188 1.314 . S
C191 C189 1.353 . S
C191 H247 0.930 . S
C192 N193 1.314 . S
C192 C197 1.353 . S
C192 H198 0.930 . S
N193 Li176 1.990 . S
N193 C192 1.314 . S
N193 C195 1.279 . S
C194 C195 1.358 . S
C194 C196 1.356 . S
C194 H248 0.930 . S
C195 N193 1.279 . S
C195 C194 1.358 . S
C195 H199 0.930 . S
C196 C194 1.356 . S
C196 C197 1.348 . S
C197 C192 1.353 . S
C197 C196 1.348 . S
C197 H249 0.929 . S
H198 C192 0.930 . S
H199 C195 0.930 . S
C200 N201 1.314 . S
C200 C202 1.353 . S
C200 H206 0.930 . S
N201 Li177 1.990 . S
N201 C200 1.314 . S
N201 C204 1.279 . S
C202 C200 1.353 . S
C202 C205 1.348 . S
C202 H250 0.929 . S
C203 C204 1.358 . S
C203 C205 1.356 . S
C203 H251 0.930 . S
C204 N201 1.279 . S
C204 C203 1.358 . S
C204 H207 0.930 . S
C205 C202 1.348 . S
C205 C203 1.356 . S
H206 C200 0.930 . S
H207 C204 0.930 . S
C208 C210 1.348 . S
C208 C211 1.356 . S
C208 O238 1.325 . S
N209 C212 1.314 . S
N209 C213 1.279 . S
C210 C208 1.348 . S
C210 C212 1.353 . S
C210 H252 0.929 . S
C211 C208 1.356 . S
C211 C213 1.358 . S
C211 H253 0.930 . S
C212 N209 1.314 . S
C212 C210 1.353 . S
C212 H254 0.930 . S
C213 N209 1.279 . S
C213 C211 1.358 . S
C213 H255 0.930 . S
C214 C215 1.348 . S
C214 C216 1.356 . S
C214 O239 1.325 . S
C215 C214 1.348 . S
C215 C217 1.353 . S
C215 H256 0.929 . S
C216 C214 1.356 . S
C216 C218 1.358 . S
C216 H257 0.930 . S
C217 C215 1.353 . S
C217 N219 1.314 . S
C217 H258 0.930 . S
C218 C216 1.358 . S
C218 N219 1.279 . S
C218 H259 0.930 . S
N219 C217 1.314 . S
N219 C218 1.279 . S
C220 C222 1.353 . S
C220 N223 1.314 . S
C220 H226 0.930 . S
C221 N223 1.279 . S
C221 C224 1.358 . S
C221 H227 0.930 . S
C222 C220 1.353 . S
C222 C225 1.348 . S
C222 H260 0.929 . S
N223 Li178 1.990 . S
N223 C220 1.314 . S
N223 C221 1.279 . S
C224 C221 1.358 . S
C224 C225 1.356 . S
C224 H261 0.930 . S
C225 C222 1.348 . S
C225 C224 1.356 . S
H226 C220 0.930 . S
H227 C221 0.930 . S
C228 N229 1.314 . S
C228 C230 1.353 . S
C228 H234 0.930 . S
N229 Li179 1.990 . S
N229 C228 1.314 . S
N229 C232 1.279 . S
C230 C228 1.353 . S
C230 C233 1.348 . S
C230 H262 0.929 . S
C231 C232 1.358 . S
C231 C233 1.356 . S
C231 H263 0.930 . S
C232 N229 1.279 . S
C232 C231 1.358 . S
C232 H235 0.930 . S
C233 C230 1.348 . S
C233 C231 1.356 . S
H234 C228 0.930 . S
H235 C232 0.930 . S
O236 Li176 1.956 . S
O236 Li177 1.970 . S
O236 Li178 1.961 . S
O236 C180 1.325 . S
O237 Li176 1.970 . S
O237 Li177 1.956 . S
O237 Li179 1.961 . S
O237 C186 1.325 . S
O238 Li176 1.961 . S
O238 Li178 1.956 . S
O238 Li179 1.970 . S
O238 C208 1.325 . S
O239 Li177 1.961 . S
O239 Li178 1.970 . S
O239 Li179 1.956 . S
O239 C214 1.325 . S
H240 C182 0.929 . S
H241 C183 0.930 . S
H242 C184 0.930 . S
H243 C185 0.930 . S
H244 C187 0.930 . S
H245 C189 0.929 . S
H246 C190 0.930 . S
H247 C191 0.930 . S
H248 C194 0.930 . S
H249 C197 0.929 . S
H250 C202 0.929 . S
H251 C203 0.930 . S
H252 C210 0.929 . S
H253 C211 0.930 . S
H254 C212 0.930 . S
H255 C213 0.930 . S
H256 C215 0.929 . S
H257 C216 0.930 . S
H258 C217 0.930 . S
H259 C218 0.930 . S
H260 C222 0.929 . S
H261 C224 0.930 . S
H262 C230 0.929 . S
H263 C231 0.930 . S
Li264 N281 1.990 . S
Li264 O324 1.956 . S
Li264 O325 1.970 . S
Li264 O326 1.961 . S
Li265 N289 1.990 . S
Li265 O324 1.970 . S
Li265 O325 1.956 . S
Li265 O327 1.961 . S
Li266 N311 1.990 . S
Li266 O324 1.961 . S
Li266 O326 1.956 . S
Li266 O327 1.970 . S
Li267 N317 1.990 . S
Li267 O325 1.961 . S
Li267 O326 1.970 . S
Li267 O327 1.956 . S
C268 C270 1.348 . S
C268 C271 1.356 . S
C268 O324 1.325 . S
N269 C272 1.314 . S
N269 C273 1.279 . S
C270 C268 1.348 . S
C270 C272 1.353 . S
C270 H328 0.929 . S
C271 C268 1.356 . S
C271 C273 1.358 . S
C271 H329 0.930 . S
C272 N269 1.314 . S
C272 C270 1.353 . S
C272 H330 0.930 . S
C273 N269 1.279 . S
C273 C271 1.358 . S
C273 H331 0.930 . S
C274 C277 1.348 . S
C274 C278 1.356 . S
C274 O325 1.325 . S
C275 N276 1.279 . S
C275 C278 1.358 . S
C275 H332 0.930 . S
N276 C275 1.279 . S
N276 C279 1.314 . S
C277 C274 1.348 . S
C277 C279 1.353 . S
C277 H333 0.929 . S
C278 C274 1.356 . S
C278 C275 1.358 . S
C278 H334 0.930 . S
C279 N276 1.314 . S
C279 C277 1.353 . S
C279 H335 0.930 . S
C280 N281 1.314 . S
C280 C285 1.353 . S
C280 H286 0.930 . S
N281 Li264 1.990 . S
N281 C280 1.314 . S
N281 C283 1.279 . S
C282 C283 1.358 . S
C282 C284 1.356 . S
C282 H336 0.930 . S
C283 N281 1.279 . S
C283 C282 1.358 . S
C283 H287 0.930 . S
C284 C282 1.356 . S
C284 C285 1.348 . S
C285 C280 1.353 . S
C285 C284 1.348 . S
C285 H337 0.929 . S
H286 C280 0.930 . S
H287 C283 0.930 . S
C288 N289 1.314 . S
C288 C290 1.353 . S
C288 H294 0.930 . S
N289 Li265 1.990 . S
N289 C288 1.314 . S
N289 C292 1.279 . S
C290 C288 1.353 . S
C290 C293 1.348 . S
C290 H338 0.929 . S
C291 C292 1.358 . S
C291 C293 1.356 . S
C291 H339 0.930 . S
C292 N289 1.279 . S
C292 C291 1.358 . S
C292 H295 0.930 . S
C293 C290 1.348 . S
C293 C291 1.356 . S
H294 C288 0.930 . S
H295 C292 0.930 . S
C296 C298 1.348 . S
C296 C299 1.356 . S
C296 O326 1.325 . S
N297 C300 1.314 . S
N297 C301 1.279 . S
C298 C296 1.348 . S
C298 C300 1.353 1_554 S
C298 H340 0.929 . S
C299 C296 1.356 . S
C299 C301 1.358 1_554 S
C299 H341 0.930 . S
C300 N297 1.314 . S
C300 C298 1.353 1_556 S
C300 H342 0.930 . S
C301 N297 1.279 . S
C301 C299 1.358 1_556 S
C301 H343 0.930 . S
C302 C303 1.348 . S
C302 C304 1.356 . S
C302 O327 1.325 . S
C303 C302 1.348 . S
C303 C305 1.353 . S
C303 H344 0.929 . S
C304 C302 1.356 . S
C304 C306 1.358 . S
C304 H345 0.930 . S
C305 C303 1.353 . S
C305 N307 1.314 . S
C305 H346 0.930 . S
C306 C304 1.358 . S
C306 N307 1.279 . S
C306 H347 0.930 . S
N307 C305 1.314 . S
N307 C306 1.279 . S
C308 C310 1.353 . S
C308 N311 1.314 . S
C308 H314 0.930 . S
C309 N311 1.279 . S
C309 C312 1.358 . S
C309 H315 0.930 . S
C310 C308 1.353 . S
C310 C313 1.348 . S
C310 H348 0.929 . S
N311 Li266 1.990 . S
N311 C308 1.314 . S
N311 C309 1.279 . S
C312 C309 1.358 . S
C312 C313 1.356 . S
C312 H349 0.930 . S
C313 C310 1.348 . S
C313 C312 1.356 . S
H314 C308 0.930 . S
H315 C309 0.930 . S
C316 N317 1.314 . S
C316 C318 1.353 . S
C316 H322 0.930 . S
N317 Li267 1.990 . S
N317 C316 1.314 . S
N317 C320 1.279 . S
C318 C316 1.353 . S
C318 C321 1.348 . S
C318 H350 0.929 . S
C319 C320 1.358 . S
C319 C321 1.356 . S
C319 H351 0.930 . S
C320 N317 1.279 . S
C320 C319 1.358 . S
C320 H323 0.930 . S
C321 C318 1.348 . S
C321 C319 1.356 . S
H322 C316 0.930 . S
H323 C320 0.930 . S
O324 Li264 1.956 . S
O324 Li265 1.970 . S
O324 Li266 1.961 . S
O324 C268 1.325 . S
O325 Li264 1.970 . S
O325 Li265 1.956 . S
O325 Li267 1.961 . S
O325 C274 1.325 . S
O326 Li264 1.961 . S
O326 Li266 1.956 . S
O326 Li267 1.970 . S
O326 C296 1.325 . S
O327 Li265 1.961 . S
O327 Li266 1.970 . S
O327 Li267 1.956 . S
O327 C302 1.325 . S
H328 C270 0.929 . S
H329 C271 0.930 . S
H330 C272 0.930 . S
H331 C273 0.930 . S
H332 C275 0.930 . S
H333 C277 0.929 . S
H334 C278 0.930 . S
H335 C279 0.930 . S
H336 C282 0.930 . S
H337 C285 0.929 . S
H338 C290 0.929 . S
H339 C291 0.930 . S
H340 C298 0.929 . S
H341 C299 0.930 . S
H342 C300 0.930 . S
H343 C301 0.930 . S
H344 C303 0.929 . S
H345 C304 0.930 . S
H346 C305 0.930 . S
H347 C306 0.930 . S
H348 C310 0.929 . S
H349 C312 0.930 . S
H350 C318 0.929 . S
H351 C319 0.930 . S
Li352 N369 1.990 . S
Li352 O412 1.956 . S
Li352 O413 1.970 . S
Li352 O414 1.961 . S
Li353 N377 1.990 . S
Li353 O412 1.970 . S
Li353 O413 1.956 . S
Li353 O415 1.961 . S
Li354 N399 1.990 . S
Li354 O412 1.961 . S
Li354 O414 1.956 . S
Li354 O415 1.970 . S
Li355 N405 1.990 . S
Li355 O413 1.961 . S
Li355 O414 1.970 . S
Li355 O415 1.956 . S
C356 C358 1.348 . S
C356 C359 1.356 . S
C356 O412 1.325 . S
N357 C360 1.314 . S
N357 C361 1.279 . S
C358 C356 1.348 . S
C358 C360 1.353 . S
C358 H416 0.929 . S
C359 C356 1.356 . S
C359 C361 1.358 . S
C359 H417 0.930 . S
C360 N357 1.314 . S
C360 C358 1.353 . S
C360 H418 0.930 . S
C361 N357 1.279 . S
C361 C359 1.358 . S
C361 H419 0.930 . S
C362 C365 1.348 . S
C362 C366 1.356 . S
C362 O413 1.325 . S
C363 N364 1.279 . S
C363 C366 1.358 . S
C363 H420 0.930 . S
N364 C363 1.279 . S
N364 C367 1.314 . S
C365 C362 1.348 . S
C365 C367 1.353 . S
C365 H421 0.929 . S
C366 C362 1.356 . S
C366 C363 1.358 . S
C366 H422 0.930 . S
C367 N364 1.314 . S
C367 C365 1.353 . S
C367 H423 0.930 . S
C368 N369 1.314 . S
C368 C373 1.353 . S
C368 H374 0.930 . S
N369 Li352 1.990 . S
N369 C368 1.314 . S
N369 C371 1.279 . S
C370 C371 1.358 . S
C370 C372 1.356 . S
C370 H424 0.930 . S
C371 N369 1.279 . S
C371 C370 1.358 . S
C371 H375 0.930 . S
C372 C370 1.356 . S
C372 C373 1.348 . S
C373 C368 1.353 . S
C373 C372 1.348 . S
C373 H425 0.929 . S
H374 C368 0.930 . S
H375 C371 0.930 . S
C376 N377 1.314 . S
C376 C378 1.353 . S
C376 H382 0.930 . S
N377 Li353 1.990 . S
N377 C376 1.314 . S
N377 C380 1.279 . S
C378 C376 1.353 . S
C378 C381 1.348 . S
C378 H426 0.929 . S
C379 C380 1.358 . S
C379 C381 1.356 . S
C379 H427 0.930 . S
C380 N377 1.279 . S
C380 C379 1.358 . S
C380 H383 0.930 . S
C381 C378 1.348 . S
C381 C379 1.356 . S
H382 C376 0.930 . S
H383 C380 0.930 . S
C384 C386 1.348 . S
C384 C387 1.356 . S
C384 O414 1.325 . S
N385 C388 1.314 . S
N385 C389 1.279 . S
C386 C384 1.348 . S
C386 C388 1.353 . S
C386 H428 0.929 . S
C387 C384 1.356 . S
C387 C389 1.358 . S
C387 H429 0.930 . S
C388 N385 1.314 . S
C388 C386 1.353 . S
C388 H430 0.930 . S
C389 N385 1.279 . S
C389 C387 1.358 . S
C389 H431 0.930 . S
C390 C391 1.348 . S
C390 C392 1.356 . S
C390 O415 1.325 . S
C391 C390 1.348 . S
C391 C393 1.353 . S
C391 H432 0.929 . S
C392 C390 1.356 . S
C392 C394 1.358 . S
C392 H433 0.930 . S
C393 C391 1.353 . S
C393 N395 1.314 . S
C393 H434 0.930 . S
C394 C392 1.358 . S
C394 N395 1.279 . S
C394 H435 0.930 . S
N395 C393 1.314 . S
N395 C394 1.279 . S
C396 C398 1.353 . S
C396 N399 1.314 . S
C396 H402 0.930 . S
C397 N399 1.279 . S
C397 C400 1.358 . S
C397 H403 0.930 . S
C398 C396 1.353 . S
C398 C401 1.348 . S
C398 H436 0.929 . S
N399 Li354 1.990 . S
N399 C396 1.314 . S
N399 C397 1.279 . S
C400 C397 1.358 . S
C400 C401 1.356 . S
C400 H437 0.930 . S
C401 C398 1.348 . S
C401 C400 1.356 . S
H402 C396 0.930 . S
H403 C397 0.930 . S
C404 N405 1.314 . S
C404 C406 1.353 . S
C404 H410 0.930 . S
N405 Li355 1.990 . S
N405 C404 1.314 . S
N405 C408 1.279 . S
C406 C404 1.353 . S
C406 C409 1.348 . S
C406 H438 0.929 . S
C407 C408 1.358 . S
C407 C409 1.356 . S
C407 H439 0.930 . S
C408 N405 1.279 . S
C408 C407 1.358 . S
C408 H411 0.930 . S
C409 C406 1.348 . S
C409 C407 1.356 . S
H410 C404 0.930 . S
H411 C408 0.930 . S
O412 Li352 1.956 . S
O412 Li353 1.970 . S
O412 Li354 1.961 . S
O412 C356 1.325 . S
O413 Li352 1.970 . S
O413 Li353 1.956 . S
O413 Li355 1.961 . S
O413 C362 1.325 . S
O414 Li352 1.961 . S
O414 Li354 1.956 . S
O414 Li355 1.970 . S
O414 C384 1.325 . S
O415 Li353 1.961 . S
O415 Li354 1.970 . S
O415 Li355 1.956 . S
O415 C390 1.325 . S
H416 C358 0.929 . S
H417 C359 0.930 . S
H418 C360 0.930 . S
H419 C361 0.930 . S
H420 C363 0.930 . S
H421 C365 0.929 . S
H422 C366 0.930 . S
H423 C367 0.930 . S
H424 C370 0.930 . S
H425 C373 0.929 . S
H426 C378 0.929 . S
H427 C379 0.930 . S
H428 C386 0.929 . S
H429 C387 0.930 . S
H430 C388 0.930 . S
H431 C389 0.930 . S
H432 C391 0.929 . S
H433 C392 0.930 . S
H434 C393 0.930 . S
H435 C394 0.930 . S
H436 C398 0.929 . S
H437 C400 0.930 . S
H438 C406 0.929 . S
H439 C407 0.930 . S
Li440 N457 1.990 . S
Li440 O500 1.956 . S
Li440 O501 1.970 . S
Li440 O502 1.961 . S
Li441 N465 1.990 . S
Li441 O500 1.970 . S
Li441 O501 1.956 . S
Li441 O503 1.961 . S
Li442 N487 1.990 . S
Li442 O500 1.961 . S
Li442 O502 1.956 . S
Li442 O503 1.970 . S
Li443 N493 1.990 . S
Li443 O501 1.961 . S
Li443 O502 1.970 . S
Li443 O503 1.956 . S
C444 C446 1.348 . S
C444 C447 1.356 . S
C444 O500 1.325 . S
N445 C448 1.314 . S
N445 C449 1.279 . S
C446 C444 1.348 . S
C446 C448 1.353 . S
C446 H504 0.929 . S
C447 C444 1.356 . S
C447 C449 1.358 . S
C447 H505 0.930 . S
C448 N445 1.314 . S
C448 C446 1.353 . S
C448 H506 0.930 . S
C449 N445 1.279 . S
C449 C447 1.358 . S
C449 H507 0.930 . S
C450 C453 1.348 . S
C450 C454 1.356 . S
C450 O501 1.325 . S
C451 N452 1.279 . S
C451 C454 1.358 . S
C451 H508 0.930 . S
N452 C451 1.279 . S
N452 C455 1.314 . S
C453 C450 1.348 . S
C453 C455 1.353 . S
C453 H509 0.929 . S
C454 C450 1.356 . S
C454 C451 1.358 . S
C454 H510 0.930 . S
C455 N452 1.314 . S
C455 C453 1.353 . S
C455 H511 0.930 . S
C456 N457 1.314 . S
C456 C461 1.353 . S
C456 H462 0.930 . S
N457 Li440 1.990 . S
N457 C456 1.314 . S
N457 C459 1.279 . S
C458 C459 1.358 . S
C458 C460 1.356 . S
C458 H512 0.930 . S
C459 N457 1.279 . S
C459 C458 1.358 . S
C459 H463 0.930 . S
C460 C458 1.356 . S
C460 C461 1.348 . S
C461 C456 1.353 . S
C461 C460 1.348 . S
C461 H513 0.929 . S
H462 C456 0.930 . S
H463 C459 0.930 . S
C464 N465 1.314 . S
C464 C466 1.353 . S
C464 H470 0.930 . S
N465 Li441 1.990 . S
N465 C464 1.314 . S
N465 C468 1.279 . S
C466 C464 1.353 . S
C466 C469 1.348 . S
C466 H514 0.929 . S
C467 C468 1.358 . S
C467 C469 1.356 . S
C467 H515 0.930 . S
C468 N465 1.279 . S
C468 C467 1.358 . S
C468 H471 0.930 . S
C469 C466 1.348 . S
C469 C467 1.356 . S
H470 C464 0.930 . S
H471 C468 0.930 . S
C472 C474 1.348 . S
C472 C475 1.356 . S
C472 O502 1.325 . S
N473 C476 1.314 . S
N473 C477 1.279 . S
C474 C472 1.348 . S
C474 C476 1.353 . S
C474 H516 0.929 . S
C475 C472 1.356 . S
C475 C477 1.358 . S
C475 H517 0.930 . S
C476 N473 1.314 . S
C476 C474 1.353 . S
C476 H518 0.930 . S
C477 N473 1.279 . S
C477 C475 1.358 . S
C477 H519 0.930 . S
C478 C479 1.348 . S
C478 C480 1.356 . S
C478 O503 1.325 . S
C479 C478 1.348 . S
C479 C481 1.353 . S
C479 H520 0.929 . S
C480 C478 1.356 . S
C480 C482 1.358 . S
C480 H521 0.930 . S
C481 C479 1.353 . S
C481 N483 1.314 . S
C481 H522 0.930 . S
C482 C480 1.358 . S
C482 N483 1.279 . S
C482 H523 0.930 . S
N483 C481 1.314 . S
N483 C482 1.279 . S
C484 C486 1.353 . S
C484 N487 1.314 . S
C484 H490 0.930 . S
C485 N487 1.279 . S
C485 C488 1.358 . S
C485 H491 0.930 . S
C486 C484 1.353 . S
C486 C489 1.348 . S
C486 H524 0.929 . S
N487 Li442 1.990 . S
N487 C484 1.314 . S
N487 C485 1.279 . S
C488 C485 1.358 . S
C488 C489 1.356 . S
C488 H525 0.930 . S
C489 C486 1.348 . S
C489 C488 1.356 . S
H490 C484 0.930 . S
H491 C485 0.930 . S
C492 N493 1.314 . S
C492 C494 1.353 . S
C492 H498 0.930 . S
N493 Li443 1.990 . S
N493 C492 1.314 . S
N493 C496 1.279 . S
C494 C492 1.353 . S
C494 C497 1.348 . S
C494 H526 0.929 . S
C495 C496 1.358 . S
C495 C497 1.356 . S
C495 H527 0.930 . S
C496 N493 1.279 . S
C496 C495 1.358 . S
C496 H499 0.930 . S
C497 C494 1.348 . S
C497 C495 1.356 . S
H498 C492 0.930 . S
H499 C496 0.930 . S
O500 Li440 1.956 . S
O500 Li441 1.970 . S
O500 Li442 1.961 . S
O500 C444 1.325 . S
O501 Li440 1.970 . S
O501 Li441 1.956 . S
O501 Li443 1.961 . S
O501 C450 1.325 . S
O502 Li440 1.961 . S
O502 Li442 1.956 . S
O502 Li443 1.970 . S
O502 C472 1.325 . S
O503 Li441 1.961 . S
O503 Li442 1.970 . S
O503 Li443 1.956 . S
O503 C478 1.325 . S
H504 C446 0.929 . S
H505 C447 0.930 . S
H506 C448 0.930 . S
H507 C449 0.930 . S
H508 C451 0.930 . S
H509 C453 0.929 . S
H510 C454 0.930 . S
H511 C455 0.930 . S
H512 C458 0.930 . S
H513 C461 0.929 . S
H514 C466 0.929 . S
H515 C467 0.930 . S
H516 C474 0.929 . S
H517 C475 0.930 . S
H518 C476 0.930 . S
H519 C477 0.930 . S
H520 C479 0.929 . S
H521 C480 0.930 . S
H522 C481 0.930 . S
H523 C482 0.930 . S
H524 C486 0.929 . S
H525 C488 0.930 . S
H526 C494 0.929 . S
H527 C495 0.930 . S
Li528 N545 1.990 . S
Li528 O588 1.956 . S
Li528 O589 1.970 . S
Li528 O590 1.961 . S
Li529 N553 1.990 . S
Li529 O588 1.970 . S
Li529 O589 1.956 . S
Li529 O591 1.961 . S
Li530 N575 1.990 . S
Li530 O588 1.961 . S
Li530 O590 1.956 . S
Li530 O591 1.970 . S
Li531 N581 1.990 . S
Li531 O589 1.961 . S
Li531 O590 1.970 . S
Li531 O591 1.956 . S
C532 C534 1.348 . S
C532 C535 1.356 . S
C532 O588 1.325 . S
N533 C536 1.314 . S
N533 C537 1.279 . S
C534 C532 1.348 . S
C534 C536 1.353 . S
C534 H592 0.929 . S
C535 C532 1.356 . S
C535 C537 1.358 . S
C535 H593 0.930 . S
C536 N533 1.314 . S
C536 C534 1.353 . S
C536 H594 0.930 . S
C537 N533 1.279 . S
C537 C535 1.358 . S
C537 H595 0.930 . S
C538 C541 1.348 . S
C538 C542 1.356 . S
C538 O589 1.325 . S
C539 N540 1.279 . S
C539 C542 1.358 . S
C539 H596 0.930 . S
N540 C539 1.279 . S
N540 C543 1.314 . S
C541 C538 1.348 . S
C541 C543 1.353 . S
C541 H597 0.929 . S
C542 C538 1.356 . S
C542 C539 1.358 . S
C542 H598 0.930 . S
C543 N540 1.314 . S
C543 C541 1.353 . S
C543 H599 0.930 . S
C544 N545 1.314 . S
C544 C549 1.353 . S
C544 H550 0.930 . S
N545 Li528 1.990 . S
N545 C544 1.314 . S
N545 C547 1.279 . S
C546 C547 1.358 . S
C546 C548 1.356 . S
C546 H600 0.930 . S
C547 N545 1.279 . S
C547 C546 1.358 . S
C547 H551 0.930 . S
C548 C546 1.356 . S
C548 C549 1.348 . S
C549 C544 1.353 . S
C549 C548 1.348 . S
C549 H601 0.929 . S
H550 C544 0.930 . S
H551 C547 0.930 . S
C552 N553 1.314 . S
C552 C554 1.353 . S
C552 H558 0.930 . S
N553 Li529 1.990 . S
N553 C552 1.314 . S
N553 C556 1.279 . S
C554 C552 1.353 . S
C554 C557 1.348 . S
C554 H602 0.929 . S
C555 C556 1.358 . S
C555 C557 1.356 . S
C555 H603 0.930 . S
C556 N553 1.279 . S
C556 C555 1.358 . S
C556 H559 0.930 . S
C557 C554 1.348 . S
C557 C555 1.356 . S
H558 C552 0.930 . S
H559 C556 0.930 . S
C560 C562 1.348 . S
C560 C563 1.356 . S
C560 O590 1.325 . S
N561 C564 1.314 . S
N561 C565 1.279 . S
C562 C560 1.348 . S
C562 C564 1.353 . S
C562 H604 0.929 . S
C563 C560 1.356 . S
C563 C565 1.358 . S
C563 H605 0.930 . S
C564 N561 1.314 . S
C564 C562 1.353 . S
C564 H606 0.930 . S
C565 N561 1.279 . S
C565 C563 1.358 . S
C565 H607 0.930 . S
C566 C567 1.348 . S
C566 C568 1.356 . S
C566 O591 1.325 . S
C567 C566 1.348 . S
C567 C569 1.353 . S
C567 H608 0.929 . S
C568 C566 1.356 . S
C568 C570 1.358 . S
C568 H609 0.930 . S
C569 C567 1.353 . S
C569 N571 1.314 . S
C569 H610 0.930 . S
C570 C568 1.358 . S
C570 N571 1.279 . S
C570 H611 0.930 . S
N571 C569 1.314 . S
N571 C570 1.279 . S
C572 C574 1.353 . S
C572 N575 1.314 . S
C572 H578 0.930 . S
C573 N575 1.279 . S
C573 C576 1.358 . S
C573 H579 0.930 . S
C574 C572 1.353 . S
C574 C577 1.348 . S
C574 H612 0.929 . S
N575 Li530 1.990 . S
N575 C572 1.314 . S
N575 C573 1.279 . S
C576 C573 1.358 . S
C576 C577 1.356 . S
C576 H613 0.930 . S
C577 C574 1.348 . S
C577 C576 1.356 . S
H578 C572 0.930 . S
H579 C573 0.930 . S
C580 N581 1.314 . S
C580 C582 1.353 . S
C580 H586 0.930 . S
N581 Li531 1.990 . S
N581 C580 1.314 . S
N581 C584 1.279 . S
C582 C580 1.353 . S
C582 C585 1.348 . S
C582 H614 0.929 . S
C583 C584 1.358 . S
C583 C585 1.356 . S
C583 H615 0.930 . S
C584 N581 1.279 . S
C584 C583 1.358 . S
C584 H587 0.930 . S
C585 C582 1.348 . S
C585 C583 1.356 . S
H586 C580 0.930 . S
H587 C584 0.930 . S
O588 Li528 1.956 . S
O588 Li529 1.970 . S
O588 Li530 1.961 . S
O588 C532 1.325 . S
O589 Li528 1.970 . S
O589 Li529 1.956 . S
O589 Li531 1.961 . S
O589 C538 1.325 . S
O590 Li528 1.961 . S
O590 Li530 1.956 . S
O590 Li531 1.970 . S
O590 C560 1.325 . S
O591 Li529 1.961 . S
O591 Li530 1.970 . S
O591 Li531 1.956 . S
O591 C566 1.325 . S
H592 C534 0.929 . S
H593 C535 0.930 . S
H594 C536 0.930 . S
H595 C537 0.930 . S
H596 C539 0.930 . S
H597 C541 0.929 . S
H598 C542 0.930 . S
H599 C543 0.930 . S
H600 C546 0.930 . S
H601 C549 0.929 . S
H602 C554 0.929 . S
H603 C555 0.930 . S
H604 C562 0.929 . S
H605 C563 0.930 . S
H606 C564 0.930 . S
H607 C565 0.930 . S
H608 C567 0.929 . S
H609 C568 0.930 . S
H610 C569 0.930 . S
H611 C570 0.930 . S
H612 C574 0.929 . S
H613 C576 0.930 . S
H614 C582 0.929 . S
H615 C583 0.930 . S
Li616 N633 1.990 . S
Li616 O676 1.956 . S
Li616 O677 1.970 . S
Li616 O678 1.961 . S
Li617 N641 1.990 . S
Li617 O676 1.970 . S
Li617 O677 1.956 . S
Li617 O679 1.961 . S
Li618 N663 1.990 . S
Li618 O676 1.961 . S
Li618 O678 1.956 . S
Li618 O679 1.970 . S
Li619 N669 1.990 . S
Li619 O677 1.961 . S
Li619 O678 1.970 . S
Li619 O679 1.956 . S
C620 C622 1.348 . S
C620 C623 1.356 . S
C620 O676 1.325 . S
N621 C624 1.314 . S
N621 C625 1.279 . S
C622 C620 1.348 . S
C622 C624 1.353 . S
C622 H680 0.929 . S
C623 C620 1.356 . S
C623 C625 1.358 . S
C623 H681 0.930 . S
C624 N621 1.314 . S
C624 C622 1.353 . S
C624 H682 0.930 . S
C625 N621 1.279 . S
C625 C623 1.358 . S
C625 H683 0.930 . S
C626 C629 1.348 . S
C626 C630 1.356 . S
C626 O677 1.325 . S
C627 N628 1.279 . S
C627 C630 1.358 1_554 S
C627 H684 0.930 . S
N628 C627 1.279 . S
N628 C631 1.314 . S
C629 C626 1.348 . S
C629 C631 1.353 1_556 S
C629 H685 0.929 . S
C630 C626 1.356 . S
C630 C627 1.358 1_556 S
C630 H686 0.930 . S
C631 N628 1.314 . S
C631 C629 1.353 1_554 S
C631 H687 0.930 . S
C632 N633 1.314 . S
C632 C637 1.353 . S
C632 H638 0.930 . S
N633 Li616 1.990 . S
N633 C632 1.314 . S
N633 C635 1.279 . S
C634 C635 1.358 . S
C634 C636 1.356 . S
C634 H688 0.930 . S
C635 N633 1.279 . S
C635 C634 1.358 . S
C635 H639 0.930 . S
C636 C634 1.356 . S
C636 C637 1.348 . S
C637 C632 1.353 . S
C637 C636 1.348 . S
C637 H689 0.929 . S
H638 C632 0.930 . S
H639 C635 0.930 . S
C640 N641 1.314 . S
C640 C642 1.353 . S
C640 H646 0.930 . S
N641 Li617 1.990 . S
N641 C640 1.314 . S
N641 C644 1.279 . S
C642 C640 1.353 . S
C642 C645 1.348 . S
C642 H690 0.929 . S
C643 C644 1.358 . S
C643 C645 1.356 . S
C643 H691 0.930 . S
C644 N641 1.279 . S
C644 C643 1.358 . S
C644 H647 0.930 . S
C645 C642 1.348 . S
C645 C643 1.356 . S
H646 C640 0.930 . S
H647 C644 0.930 . S
C648 C650 1.348 . S
C648 C651 1.356 . S
C648 O678 1.325 . S
N649 C652 1.314 . S
N649 C653 1.279 . S
C650 C648 1.348 . S
C650 C652 1.353 . S
C650 H692 0.929 . S
C651 C648 1.356 . S
C651 C653 1.358 . S
C651 H693 0.930 . S
C652 N649 1.314 . S
C652 C650 1.353 . S
C652 H694 0.930 . S
C653 N649 1.279 . S
C653 C651 1.358 . S
C653 H695 0.930 . S
C654 C655 1.348 . S
C654 C656 1.356 . S
C654 O679 1.325 . S
C655 C654 1.348 . S
C655 C657 1.353 . S
C655 H696 0.929 . S
C656 C654 1.356 . S
C656 C658 1.358 . S
C656 H697 0.930 . S
C657 C655 1.353 . S
C657 N659 1.314 . S
C657 H698 0.930 . S
C658 C656 1.358 . S
C658 N659 1.279 . S
C658 H699 0.930 . S
N659 C657 1.314 . S
N659 C658 1.279 . S
C660 C662 1.353 . S
C660 N663 1.314 . S
C660 H666 0.930 . S
C661 N663 1.279 . S
C661 C664 1.358 . S
C661 H667 0.930 . S
C662 C660 1.353 . S
C662 C665 1.348 . S
C662 H700 0.929 . S
N663 Li618 1.990 . S
N663 C660 1.314 . S
N663 C661 1.279 . S
C664 C661 1.358 . S
C664 C665 1.356 . S
C664 H701 0.930 . S
C665 C662 1.348 . S
C665 C664 1.356 . S
H666 C660 0.930 . S
H667 C661 0.930 . S
C668 N669 1.314 . S
C668 C670 1.353 . S
C668 H674 0.930 . S
N669 Li619 1.990 . S
N669 C668 1.314 . S
N669 C672 1.279 . S
C670 C668 1.353 . S
C670 C673 1.348 . S
C670 H702 0.929 . S
C671 C672 1.358 . S
C671 C673 1.356 . S
C671 H703 0.930 . S
C672 N669 1.279 . S
C672 C671 1.358 . S
C672 H675 0.930 . S
C673 C670 1.348 . S
C673 C671 1.356 . S
H674 C668 0.930 . S
H675 C672 0.930 . S
O676 Li616 1.956 . S
O676 Li617 1.970 . S
O676 Li618 1.961 . S
O676 C620 1.325 . S
O677 Li616 1.970 . S
O677 Li617 1.956 . S
O677 Li619 1.961 . S
O677 C626 1.325 . S
O678 Li616 1.961 . S
O678 Li618 1.956 . S
O678 Li619 1.970 . S
O678 C648 1.325 . S
O679 Li617 1.961 . S
O679 Li618 1.970 . S
O679 Li619 1.956 . S
O679 C654 1.325 . S
H680 C622 0.929 . S
H681 C623 0.930 . S
H682 C624 0.930 . S
H683 C625 0.930 . S
H684 C627 0.930 . S
H685 C629 0.929 . S
H686 C630 0.930 . S
H687 C631 0.930 . S
H688 C634 0.930 . S
H689 C637 0.929 . S
H690 C642 0.929 . S
H691 C643 0.930 . S
H692 C650 0.929 . S
H693 C651 0.930 . S
H694 C652 0.930 . S
H695 C653 0.930 . S
H696 C655 0.929 . S
H697 C656 0.930 . S
H698 C657 0.930 . S
H699 C658 0.930 . S
H700 C662 0.929 . S
H701 C664 0.930 . S
H702 C670 0.929 . S
H703 C671 0.930 . S
Li704 N721 1.990 . S
Li704 O764 1.956 . S
Li704 O765 1.970 . S
Li704 O766 1.961 . S
Li705 N729 1.990 . S
Li705 O764 1.970 . S
Li705 O765 1.956 . S
Li705 O767 1.961 . S
Li706 N751 1.990 . S
Li706 O764 1.961 . S
Li706 O766 1.956 . S
Li706 O767 1.970 . S
Li707 N757 1.990 . S
Li707 O765 1.961 . S
Li707 O766 1.970 . S
Li707 O767 1.956 . S
C708 C710 1.348 . S
C708 C711 1.356 . S
C708 O764 1.325 . S
N709 C712 1.314 . S
N709 C713 1.279 . S
C710 C708 1.348 . S
C710 C712 1.353 . S
C710 H768 0.929 . S
C711 C708 1.356 . S
C711 C713 1.358 . S
C711 H769 0.930 . S
C712 N709 1.314 . S
C712 C710 1.353 . S
C712 H770 0.930 . S
C713 N709 1.279 . S
C713 C711 1.358 . S
C713 H771 0.930 . S
C714 C717 1.348 . S
C714 C718 1.356 . S
C714 O765 1.325 . S
C715 N716 1.279 . S
C715 C718 1.358 . S
C715 H772 0.930 . S
N716 C715 1.279 . S
N716 C719 1.314 . S
C717 C714 1.348 . S
C717 C719 1.353 . S
C717 H773 0.929 . S
C718 C714 1.356 . S
C718 C715 1.358 . S
C718 H774 0.930 . S
C719 N716 1.314 . S
C719 C717 1.353 . S
C719 H775 0.930 . S
C720 N721 1.314 . S
C720 C725 1.353 . S
C720 H726 0.930 . S
N721 Li704 1.990 . S
N721 C720 1.314 . S
N721 C723 1.279 . S
C722 C723 1.358 . S
C722 C724 1.356 . S
C722 H776 0.930 . S
C723 N721 1.279 . S
C723 C722 1.358 . S
C723 H727 0.930 . S
C724 C722 1.356 . S
C724 C725 1.348 . S
C725 C720 1.353 . S
C725 C724 1.348 . S
C725 H777 0.929 . S
H726 C720 0.930 . S
H727 C723 0.930 . S
C728 N729 1.314 . S
C728 C730 1.353 . S
C728 H734 0.930 . S
N729 Li705 1.990 . S
N729 C728 1.314 . S
N729 C732 1.279 . S
C730 C728 1.353 . S
C730 C733 1.348 . S
C730 H778 0.929 . S
C731 C732 1.358 . S
C731 C733 1.356 . S
C731 H779 0.930 . S
C732 N729 1.279 . S
C732 C731 1.358 . S
C732 H735 0.930 . S
C733 C730 1.348 . S
C733 C731 1.356 . S
H734 C728 0.930 . S
H735 C732 0.930 . S
C736 C738 1.348 . S
C736 C739 1.356 . S
C736 O766 1.325 . S
N737 C740 1.314 . S
N737 C741 1.279 . S
C738 C736 1.348 . S
C738 C740 1.353 . S
C738 H780 0.929 . S
C739 C736 1.356 . S
C739 C741 1.358 . S
C739 H781 0.930 . S
C740 N737 1.314 . S
C740 C738 1.353 . S
C740 H782 0.930 . S
C741 N737 1.279 . S
C741 C739 1.358 . S
C741 H783 0.930 . S
C742 C743 1.348 . S
C742 C744 1.356 . S
C742 O767 1.325 . S
C743 C742 1.348 . S
C743 C745 1.353 . S
C743 H784 0.929 . S
C744 C742 1.356 . S
C744 C746 1.358 . S
C744 H785 0.930 . S
C745 C743 1.353 . S
C745 N747 1.314 . S
C745 H786 0.930 . S
C746 C744 1.358 . S
C746 N747 1.279 . S
C746 H787 0.930 . S
N747 C745 1.314 . S
N747 C746 1.279 . S
C748 C750 1.353 . S
C748 N751 1.314 . S
C748 H754 0.930 . S
C749 N751 1.279 . S
C749 C752 1.358 . S
C749 H755 0.930 . S
C750 C748 1.353 . S
C750 C753 1.348 . S
C750 H788 0.929 . S
N751 Li706 1.990 . S
N751 C748 1.314 . S
N751 C749 1.279 . S
C752 C749 1.358 . S
C752 C753 1.356 . S
C752 H789 0.930 . S
C753 C750 1.348 . S
C753 C752 1.356 . S
H754 C748 0.930 . S
H755 C749 0.930 . S
C756 N757 1.314 . S
C756 C758 1.353 . S
C756 H762 0.930 . S
N757 Li707 1.990 . S
N757 C756 1.314 . S
N757 C760 1.279 . S
C758 C756 1.353 . S
C758 C761 1.348 . S
C758 H790 0.929 . S
C759 C760 1.358 . S
C759 C761 1.356 . S
C759 H791 0.930 . S
C760 N757 1.279 . S
C760 C759 1.358 . S
C760 H763 0.930 . S
C761 C758 1.348 . S
C761 C759 1.356 . S
H762 C756 0.930 . S
H763 C760 0.930 . S
O764 Li704 1.956 . S
O764 Li705 1.970 . S
O764 Li706 1.961 . S
O764 C708 1.325 . S
O765 Li704 1.970 . S
O765 Li705 1.956 . S
O765 Li707 1.961 . S
O765 C714 1.325 . S
O766 Li704 1.961 . S
O766 Li706 1.956 . S
O766 Li707 1.970 . S
O766 C736 1.325 . S
O767 Li705 1.961 . S
O767 Li706 1.970 . S
O767 Li707 1.956 . S
O767 C742 1.325 . S
H768 C710 0.929 . S
H769 C711 0.930 . S
H770 C712 0.930 . S
H771 C713 0.930 . S
H772 C715 0.930 . S
H773 C717 0.929 . S
H774 C718 0.930 . S
H775 C719 0.930 . S
H776 C722 0.930 . S
H777 C725 0.929 . S
H778 C730 0.929 . S
H779 C731 0.930 . S
H780 C738 0.929 . S
H781 C739 0.930 . S
H782 C740 0.930 . S
H783 C741 0.930 . S
H784 C743 0.929 . S
H785 C744 0.930 . S
H786 C745 0.930 . S
H787 C746 0.930 . S
H788 C750 0.929 . S
H789 C752 0.930 . S
H790 C758 0.929 . S
H791 C759 0.930 . S
Li792 N809 1.990 . S
Li792 O852 1.956 . S
Li792 O853 1.970 . S
Li792 O854 1.961 . S
Li793 N817 1.990 . S
Li793 O852 1.970 . S
Li793 O853 1.956 . S
Li793 O855 1.961 . S
Li794 N839 1.990 . S
Li794 O852 1.961 . S
Li794 O854 1.956 . S
Li794 O855 1.970 . S
Li795 N845 1.990 . S
Li795 O853 1.961 . S
Li795 O854 1.970 . S
Li795 O855 1.956 . S
C796 C798 1.348 . S
C796 C799 1.356 . S
C796 O852 1.325 . S
N797 C800 1.314 . S
N797 C801 1.279 . S
C798 C796 1.348 . S
C798 C800 1.353 . S
C798 H856 0.929 . S
C799 C796 1.356 . S
C799 C801 1.358 . S
C799 H857 0.930 . S
C800 N797 1.314 . S
C800 C798 1.353 . S
C800 H858 0.930 . S
C801 N797 1.279 . S
C801 C799 1.358 . S
C801 H859 0.930 . S
C802 C805 1.348 . S
C802 C806 1.356 . S
C802 O853 1.325 . S
C803 N804 1.279 . S
C803 C806 1.358 . S
C803 H860 0.930 . S
N804 C803 1.279 . S
N804 C807 1.314 . S
C805 C802 1.348 . S
C805 C807 1.353 . S
C805 H861 0.929 . S
C806 C802 1.356 . S
C806 C803 1.358 . S
C806 H862 0.930 . S
C807 N804 1.314 . S
C807 C805 1.353 . S
C807 H863 0.930 . S
C808 N809 1.314 . S
C808 C813 1.353 . S
C808 H814 0.930 . S
N809 Li792 1.990 . S
N809 C808 1.314 . S
N809 C811 1.279 . S
C810 C811 1.358 . S
C810 C812 1.356 . S
C810 H864 0.930 . S
C811 N809 1.279 . S
C811 C810 1.358 . S
C811 H815 0.930 . S
C812 C810 1.356 . S
C812 C813 1.348 . S
C813 C808 1.353 . S
C813 C812 1.348 . S
C813 H865 0.929 . S
H814 C808 0.930 . S
H815 C811 0.930 . S
C816 N817 1.314 . S
C816 C818 1.353 . S
C816 H822 0.930 . S
N817 Li793 1.990 . S
N817 C816 1.314 . S
N817 C820 1.279 . S
C818 C816 1.353 . S
C818 C821 1.348 . S
C818 H866 0.929 . S
C819 C820 1.358 . S
C819 C821 1.356 . S
C819 H867 0.930 . S
C820 N817 1.279 . S
C820 C819 1.358 . S
C820 H823 0.930 . S
C821 C818 1.348 . S
C821 C819 1.356 . S
H822 C816 0.930 . S
H823 C820 0.930 . S
C824 C826 1.348 . S
C824 C827 1.356 . S
C824 O854 1.325 . S
N825 C828 1.314 . S
N825 C829 1.279 . S
C826 C824 1.348 . S
C826 C828 1.353 . S
C826 H868 0.929 . S
C827 C824 1.356 . S
C827 C829 1.358 . S
C827 H869 0.930 . S
C828 N825 1.314 . S
C828 C826 1.353 . S
C828 H870 0.930 . S
C829 N825 1.279 . S
C829 C827 1.358 . S
C829 H871 0.930 . S
C830 C831 1.348 . S
C830 C832 1.356 . S
C830 O855 1.325 . S
C831 C830 1.348 . S
C831 C833 1.353 . S
C831 H872 0.929 . S
C832 C830 1.356 . S
C832 C834 1.358 . S
C832 H873 0.930 . S
C833 C831 1.353 . S
C833 N835 1.314 . S
C833 H874 0.930 . S
C834 C832 1.358 . S
C834 N835 1.279 . S
C834 H875 0.930 . S
N835 C833 1.314 . S
N835 C834 1.279 . S
C836 C838 1.353 . S
C836 N839 1.314 . S
C836 H842 0.930 . S
C837 N839 1.279 . S
C837 C840 1.358 . S
C837 H843 0.930 . S
C838 C836 1.353 . S
C838 C841 1.348 . S
C838 H876 0.929 . S
N839 Li794 1.990 . S
N839 C836 1.314 . S
N839 C837 1.279 . S
C840 C837 1.358 . S
C840 C841 1.356 . S
C840 H877 0.930 . S
C841 C838 1.348 . S
C841 C840 1.356 . S
H842 C836 0.930 . S
H843 C837 0.930 . S
C844 N845 1.314 . S
C844 C846 1.353 . S
C844 H850 0.930 . S
N845 Li795 1.990 . S
N845 C844 1.314 . S
N845 C848 1.279 . S
C846 C844 1.353 . S
C846 C849 1.348 . S
C846 H878 0.929 . S
C847 C848 1.358 . S
C847 C849 1.356 . S
C847 H879 0.930 . S
C848 N845 1.279 . S
C848 C847 1.358 . S
C848 H851 0.930 . S
C849 C846 1.348 . S
C849 C847 1.356 . S
H850 C844 0.930 . S
H851 C848 0.930 . S
O852 Li792 1.956 . S
O852 Li793 1.970 . S
O852 Li794 1.961 . S
O852 C796 1.325 . S
O853 Li792 1.970 . S
O853 Li793 1.956 . S
O853 Li795 1.961 . S
O853 C802 1.325 . S
O854 Li792 1.961 . S
O854 Li794 1.956 . S
O854 Li795 1.970 . S
O854 C824 1.325 . S
O855 Li793 1.961 . S
O855 Li794 1.970 . S
O855 Li795 1.956 . S
O855 C830 1.325 . S
H856 C798 0.929 . S
H857 C799 0.930 . S
H858 C800 0.930 . S
H859 C801 0.930 . S
H860 C803 0.930 . S
H861 C805 0.929 . S
H862 C806 0.930 . S
H863 C807 0.930 . S
H864 C810 0.930 . S
H865 C813 0.929 . S
H866 C818 0.929 . S
H867 C819 0.930 . S
H868 C826 0.929 . S
H869 C827 0.930 . S
H870 C828 0.930 . S
H871 C829 0.930 . S
H872 C831 0.929 . S
H873 C832 0.930 . S
H874 C833 0.930 . S
H875 C834 0.930 . S
H876 C838 0.929 . S
H877 C840 0.930 . S
H878 C846 0.929 . S
H879 C847 0.930 . S
Li880 N897 1.990 . S
Li880 O940 1.956 . S
Li880 O941 1.970 . S
Li880 O942 1.961 . S
Li881 N905 1.990 . S
Li881 O940 1.970 . S
Li881 O941 1.956 . S
Li881 O943 1.961 . S
Li882 N927 1.990 . S
Li882 O940 1.961 . S
Li882 O942 1.956 . S
Li882 O943 1.970 . S
Li883 N933 1.990 . S
Li883 O941 1.961 . S
Li883 O942 1.970 . S
Li883 O943 1.956 . S
C884 C886 1.348 . S
C884 C887 1.356 . S
C884 O940 1.325 . S
N885 C888 1.314 . S
N885 C889 1.279 . S
C886 C884 1.348 . S
C886 C888 1.353 1_556 S
C886 H944 0.929 . S
C887 C884 1.356 . S
C887 C889 1.358 1_556 S
C887 H945 0.930 . S
C888 N885 1.314 . S
C888 C886 1.353 1_554 S
C888 H946 0.930 . S
C889 N885 1.279 . S
C889 C887 1.358 1_554 S
C889 H947 0.930 . S
C890 C893 1.348 . S
C890 C894 1.356 . S
C890 O941 1.325 . S
C891 N892 1.279 . S
C891 C894 1.358 . S
C891 H948 0.930 . S
N892 C891 1.279 . S
N892 C895 1.314 . S
C893 C890 1.348 . S
C893 C895 1.353 . S
C893 H949 0.929 . S
C894 C890 1.356 . S
C894 C891 1.358 . S
C894 H950 0.930 . S
C895 N892 1.314 . S
C895 C893 1.353 . S
C895 H951 0.930 . S
C896 N897 1.314 . S
C896 C901 1.353 . S
C896 H902 0.930 . S
N897 Li880 1.990 . S
N897 C896 1.314 . S
N897 C899 1.279 . S
C898 C899 1.358 . S
C898 C900 1.356 . S
C898 H952 0.930 . S
C899 N897 1.279 . S
C899 C898 1.358 . S
C899 H903 0.930 . S
C900 C898 1.356 . S
C900 C901 1.348 . S
C901 C896 1.353 . S
C901 C900 1.348 . S
C901 H953 0.929 . S
H902 C896 0.930 . S
H903 C899 0.930 . S
C904 N905 1.314 . S
C904 C906 1.353 . S
C904 H910 0.930 . S
N905 Li881 1.990 . S
N905 C904 1.314 . S
N905 C908 1.279 . S
C906 C904 1.353 . S
C906 C909 1.348 . S
C906 H954 0.929 . S
C907 C908 1.358 . S
C907 C909 1.356 . S
C907 H955 0.930 . S
C908 N905 1.279 . S
C908 C907 1.358 . S
C908 H911 0.930 . S
C909 C906 1.348 . S
C909 C907 1.356 . S
H910 C904 0.930 . S
H911 C908 0.930 . S
C912 C914 1.348 . S
C912 C915 1.356 . S
C912 O942 1.325 . S
N913 C916 1.314 . S
N913 C917 1.279 . S
C914 C912 1.348 . S
C914 C916 1.353 . S
C914 H956 0.929 . S
C915 C912 1.356 . S
C915 C917 1.358 . S
C915 H957 0.930 . S
C916 N913 1.314 . S
C916 C914 1.353 . S
C916 H958 0.930 . S
C917 N913 1.279 . S
C917 C915 1.358 . S
C917 H959 0.930 . S
C918 C919 1.348 . S
C918 C920 1.356 . S
C918 O943 1.325 . S
C919 C918 1.348 . S
C919 C921 1.353 . S
C919 H960 0.929 . S
C920 C918 1.356 . S
C920 C922 1.358 . S
C920 H961 0.930 . S
C921 C919 1.353 . S
C921 N923 1.314 . S
C921 H962 0.930 . S
C922 C920 1.358 . S
C922 N923 1.279 . S
C922 H963 0.930 . S
N923 C921 1.314 . S
N923 C922 1.279 . S
C924 C926 1.353 . S
C924 N927 1.314 . S
C924 H930 0.930 . S
C925 N927 1.279 . S
C925 C928 1.358 . S
C925 H931 0.930 . S
C926 C924 1.353 . S
C926 C929 1.348 . S
C926 H964 0.929 . S
N927 Li882 1.990 . S
N927 C924 1.314 . S
N927 C925 1.279 . S
C928 C925 1.358 . S
C928 C929 1.356 . S
C928 H965 0.930 . S
C929 C926 1.348 . S
C929 C928 1.356 . S
H930 C924 0.930 . S
H931 C925 0.930 . S
C932 N933 1.314 . S
C932 C934 1.353 . S
C932 H938 0.930 . S
N933 Li883 1.990 . S
N933 C932 1.314 . S
N933 C936 1.279 . S
C934 C932 1.353 . S
C934 C937 1.348 . S
C934 H966 0.929 . S
C935 C936 1.358 . S
C935 C937 1.356 . S
C935 H967 0.930 . S
C936 N933 1.279 . S
C936 C935 1.358 . S
C936 H939 0.930 . S
C937 C934 1.348 . S
C937 C935 1.356 . S
H938 C932 0.930 . S
H939 C936 0.930 . S
O940 Li880 1.956 . S
O940 Li881 1.970 . S
O940 Li882 1.961 . S
O940 C884 1.325 . S
O941 Li880 1.970 . S
O941 Li881 1.956 . S
O941 Li883 1.961 . S
O941 C890 1.325 . S
O942 Li880 1.961 . S
O942 Li882 1.956 . S
O942 Li883 1.970 . S
O942 C912 1.325 . S
O943 Li881 1.961 . S
O943 Li882 1.970 . S
O943 Li883 1.956 . S
O943 C918 1.325 . S
H944 C886 0.929 . S
H945 C887 0.930 . S
H946 C888 0.930 . S
H947 C889 0.930 . S
H948 C891 0.930 . S
H949 C893 0.929 . S
H950 C894 0.930 . S
H951 C895 0.930 . S
H952 C898 0.930 . S
H953 C901 0.929 . S
H954 C906 0.929 . S
H955 C907 0.930 . S
H956 C914 0.929 . S
H957 C915 0.930 . S
H958 C916 0.930 . S
H959 C917 0.930 . S
H960 C919 0.929 . S
H961 C920 0.930 . S
H962 C921 0.930 . S
H963 C922 0.930 . S
H964 C926 0.929 . S
H965 C928 0.930 . S
H966 C934 0.929 . S
H967 C935 0.930 . S
Li968 N985 1.990 . S
Li968 O1028 1.956 . S
Li968 O1029 1.970 . S
Li968 O1030 1.961 . S
Li969 N993 1.990 . S
Li969 O1028 1.970 . S
Li969 O1029 1.956 . S
Li969 O1031 1.961 . S
Li970 N1015 1.990 . S
Li970 O1028 1.961 . S
Li970 O1030 1.956 . S
Li970 O1031 1.970 . S
Li971 N1021 1.990 . S
Li971 O1029 1.961 . S
Li971 O1030 1.970 . S
Li971 O1031 1.956 . S
C972 C974 1.348 . S
C972 C975 1.356 . S
C972 O1028 1.325 . S
N973 C976 1.314 . S
N973 C977 1.279 . S
C974 C972 1.348 . S
C974 C976 1.353 . S
C974 H1032 0.929 . S
C975 C972 1.356 . S
C975 C977 1.358 . S
C975 H1033 0.930 . S
C976 N973 1.314 . S
C976 C974 1.353 . S
C976 H1034 0.930 . S
C977 N973 1.279 . S
C977 C975 1.358 . S
C977 H1035 0.930 . S
C978 C981 1.348 . S
C978 C982 1.356 . S
C978 O1029 1.325 . S
C979 N980 1.279 . S
C979 C982 1.358 . S
C979 H1036 0.930 . S
N980 C979 1.279 . S
N980 C983 1.314 . S
C981 C978 1.348 . S
C981 C983 1.353 . S
C981 H1037 0.929 . S
C982 C978 1.356 . S
C982 C979 1.358 . S
C982 H1038 0.930 . S
C983 N980 1.314 . S
C983 C981 1.353 . S
C983 H1039 0.930 . S
C984 N985 1.314 . S
C984 C989 1.353 . S
C984 H990 0.930 . S
N985 Li968 1.990 . S
N985 C984 1.314 . S
N985 C987 1.279 . S
C986 C987 1.358 . S
C986 C988 1.356 . S
C986 H1040 0.930 . S
C987 N985 1.279 . S
C987 C986 1.358 . S
C987 H991 0.930 . S
C988 C986 1.356 . S
C988 C989 1.348 . S
C989 C984 1.353 . S
C989 C988 1.348 . S
C989 H1041 0.929 . S
H990 C984 0.930 . S
H991 C987 0.930 . S
C992 N993 1.314 . S
C992 C994 1.353 . S
C992 H998 0.930 . S
N993 Li969 1.990 . S
N993 C992 1.314 . S
N993 C996 1.279 . S
C994 C992 1.353 . S
C994 C997 1.348 . S
C994 H1042 0.929 . S
C995 C996 1.358 . S
C995 C997 1.356 . S
C995 H1043 0.930 . S
C996 N993 1.279 . S
C996 C995 1.358 . S
C996 H999 0.930 . S
C997 C994 1.348 . S
C997 C995 1.356 . S
H998 C992 0.930 . S
H999 C996 0.930 . S
C1000 C1002 1.348 . S
C1000 C1003 1.356 . S
C1000 O1030 1.325 . S
N1001 C1004 1.314 . S
N1001 C1005 1.279 . S
C1002 C1000 1.348 . S
C1002 C1004 1.353 . S
C1002 H1044 0.929 . S
C1003 C1000 1.356 . S
C1003 C1005 1.358 . S
C1003 H1045 0.930 . S
C1004 N1001 1.314 . S
C1004 C1002 1.353 . S
C1004 H1046 0.930 . S
C1005 N1001 1.279 . S
C1005 C1003 1.358 . S
C1005 H1047 0.930 . S
C1006 C1007 1.348 . S
C1006 C1008 1.356 . S
C1006 O1031 1.325 . S
C1007 C1006 1.348 . S
C1007 C1009 1.353 . S
C1007 H1048 0.929 . S
C1008 C1006 1.356 . S
C1008 C1010 1.358 . S
C1008 H1049 0.930 . S
C1009 C1007 1.353 . S
C1009 N1011 1.314 . S
C1009 H1050 0.930 . S
C1010 C1008 1.358 . S
C1010 N1011 1.279 . S
C1010 H1051 0.930 . S
N1011 C1009 1.314 . S
N1011 C1010 1.279 . S
C1012 C1014 1.353 . S
C1012 N1015 1.314 . S
C1012 H1018 0.930 . S
C1013 N1015 1.279 . S
C1013 C1016 1.358 . S
C1013 H1019 0.930 . S
C1014 C1012 1.353 . S
C1014 C1017 1.348 . S
C1014 H1052 0.929 . S
N1015 Li970 1.990 . S
N1015 C1012 1.314 . S
N1015 C1013 1.279 . S
C1016 C1013 1.358 . S
C1016 C1017 1.356 . S
C1016 H1053 0.930 . S
C1017 C1014 1.348 . S
C1017 C1016 1.356 . S
H1018 C1012 0.930 . S
H1019 C1013 0.930 . S
C1020 N1021 1.314 . S
C1020 C1022 1.353 . S
C1020 H1026 0.930 . S
N1021 Li971 1.990 . S
N1021 C1020 1.314 . S
N1021 C1024 1.279 . S
C1022 C1020 1.353 . S
C1022 C1025 1.348 . S
C1022 H1054 0.929 . S
C1023 C1024 1.358 . S
C1023 C1025 1.356 . S
C1023 H1055 0.930 . S
C1024 N1021 1.279 . S
C1024 C1023 1.358 . S
C1024 H1027 0.930 . S
C1025 C1022 1.348 . S
C1025 C1023 1.356 . S
H1026 C1020 0.930 . S
H1027 C1024 0.930 . S
O1028 Li968 1.956 . S
O1028 Li969 1.970 . S
O1028 Li970 1.961 . S
O1028 C972 1.325 . S
O1029 Li968 1.970 . S
O1029 Li969 1.956 . S
O1029 Li971 1.961 . S
O1029 C978 1.325 . S
O1030 Li968 1.961 . S
O1030 Li970 1.956 . S
O1030 Li971 1.970 . S
O1030 C1000 1.325 . S
O1031 Li969 1.961 . S
O1031 Li970 1.970 . S
O1031 Li971 1.956 . S
O1031 C1006 1.325 . S
H1032 C974 0.929 . S
H1033 C975 0.930 . S
H1034 C976 0.930 . S
H1035 C977 0.930 . S
H1036 C979 0.930 . S
H1037 C981 0.929 . S
H1038 C982 0.930 . S
H1039 C983 0.930 . S
H1040 C986 0.930 . S
H1041 C989 0.929 . S
H1042 C994 0.929 . S
H1043 C995 0.930 . S
H1044 C1002 0.929 . S
H1045 C1003 0.930 . S
H1046 C1004 0.930 . S
H1047 C1005 0.930 . S
H1048 C1007 0.929 . S
H1049 C1008 0.930 . S
H1050 C1009 0.930 . S
H1051 C1010 0.930 . S
H1052 C1014 0.929 . S
H1053 C1016 0.930 . S
H1054 C1022 0.929 . S
H1055 C1023 0.930 . S
H1056 C1064 0.929 . S
H1057 C1066 0.930 . S
H1058 C1068 0.930 . S
H1059 C1071 0.929 . S
H1060 C1074 0.930 . S
H1061 C1076 0.960 . S
H1062 C1076 0.960 . S
H1063 C1076 0.960 . S
C1064 H1056 0.929 . S
C1064 C1065 1.377 . S
C1064 C1066 1.384 . S
C1065 C1064 1.377 . S
C1065 C1071 1.390 . S
C1066 H1057 0.930 . S
C1066 C1064 1.384 . S
C1066 C1067 1.372 . S
C1067 C1066 1.372 . S
C1067 C1068 1.400 . S
C1067 C1072 1.490 . S
C1068 H1058 0.930 . S
C1068 C1067 1.400 . S
C1068 C1071 1.386 . S
H1069 C1085 0.930 . S
H1070 C1086 0.931 . S
C1071 H1059 0.929 . S
C1071 C1065 1.390 . S
C1071 C1068 1.386 . S
C1072 C1067 1.490 . S
C1072 C1074 1.395 . S
C1072 C1075 1.403 1_556 S
H1073 C1079 0.930 . S
C1074 H1060 0.930 . S
C1074 C1072 1.395 . S
C1074 C1077 1.403 1_565 S
C1075 C1072 1.403 1_554 S
C1075 C1076 1.524 . S
C1075 C1079 1.400 1_565 S
C1076 H1061 0.960 . S
C1076 H1062 0.960 . S
C1076 H1063 0.960 . S
C1076 C1075 1.524 . S
C1077 C1074 1.403 1_545 S
C1077 C1078 1.392 1_556 S
C1077 C1081 1.495 . S
C1078 C1077 1.392 1_554 S
C1078 C1079 1.385 . S
C1078 C1080 1.478 . S
C1079 H1073 0.930 . S
C1079 C1075 1.400 1_545 S
C1079 C1078 1.385 . S
C1080 C1078 1.478 . S
C1080 C1082 1.381 . S
C1080 C1086 1.383 . S
C1081 C1077 1.495 . S
C1081 H1087 0.959 . S
C1081 H1088 0.961 . S
C1081 H1089 0.960 . S
C1082 C1080 1.381 . S
C1082 C1083 1.394 . S
C1082 H1090 0.930 . S
C1083 C1082 1.394 . S
C1083 C1084 1.383 . S
C1083 H1091 0.929 . S
C1084 C1083 1.383 . S
C1084 C1085 1.377 . S
C1085 H1069 0.930 . S
C1085 C1084 1.377 . S
C1085 C1086 1.379 . S
C1086 H1070 0.931 . S
C1086 C1080 1.383 . S
C1086 C1085 1.379 . S
H1087 C1081 0.959 . S
H1088 C1081 0.961 . S
H1089 C1081 0.960 . S
H1090 C1082 0.930 . S
H1091 C1083 0.929 . S
H1092 C1100 0.929 . S
H1093 C1102 0.930 . S
H1094 C1104 0.930 . S
H1095 C1107 0.929 . S
H1096 C1110 0.930 . S
H1097 C1112 0.960 . S
H1098 C1112 0.960 . S
H1099 C1112 0.960 . S
C1100 H1092 0.929 . S
C1100 C1101 1.377 . S
C1100 C1102 1.384 . S
C1101 C1100 1.377 . S
C1101 C1107 1.390 . S
C1102 H1093 0.930 . S
C1102 C1100 1.384 . S
C1102 C1103 1.372 . S
C1103 C1102 1.372 . S
C1103 C1104 1.400 . S
C1103 C1108 1.490 . S
C1104 H1094 0.930 . S
C1104 C1103 1.400 . S
C1104 C1107 1.386 . S
H1105 C1121 0.930 . S
H1106 C1122 0.931 . S
C1107 H1095 0.929 . S
C1107 C1101 1.390 . S
C1107 C1104 1.386 . S
C1108 C1103 1.490 . S
C1108 C1110 1.395 . S
C1108 C1111 1.403 . S
H1109 C1115 0.930 . S
C1110 H1096 0.930 . S
C1110 C1108 1.395 . S
C1110 C1113 1.403 . S
C1111 C1108 1.403 . S
C1111 C1112 1.524 . S
C1111 C1115 1.400 . S
C1112 H1097 0.960 . S
C1112 H1098 0.960 . S
C1112 H1099 0.960 . S
C1112 C1111 1.524 . S
C1113 C1110 1.403 . S
C1113 C1114 1.392 . S
C1113 C1117 1.495 . S
C1114 C1113 1.392 . S
C1114 C1115 1.385 . S
C1114 C1116 1.478 . S
C1115 H1109 0.930 . S
C1115 C1111 1.400 . S
C1115 C1114 1.385 . S
C1116 C1114 1.478 . S
C1116 C1118 1.381 . S
C1116 C1122 1.383 . S
C1117 C1113 1.495 . S
C1117 H1123 0.959 . S
C1117 H1124 0.961 . S
C1117 H1125 0.960 . S
C1118 C1116 1.381 . S
C1118 C1119 1.394 . S
C1118 H1126 0.930 . S
C1119 C1118 1.394 . S
C1119 C1120 1.383 . S
C1119 H1127 0.929 . S
C1120 C1119 1.383 . S
C1120 C1121 1.377 . S
C1121 H1105 0.930 . S
C1121 C1120 1.377 . S
C1121 C1122 1.379 . S
C1122 H1106 0.931 . S
C1122 C1116 1.383 . S
C1122 C1121 1.379 . S
H1123 C1117 0.959 . S
H1124 C1117 0.961 . S
H1125 C1117 0.960 . S
H1126 C1118 0.930 . S
H1127 C1119 0.929 . S
H1128 C1136 0.929 . S
H1129 C1138 0.930 . S
H1130 C1140 0.930 . S
H1131 C1143 0.929 . S
H1132 C1146 0.930 . S
H1133 C1148 0.960 . S
H1134 C1148 0.960 . S
H1135 C1148 0.960 . S
C1136 H1128 0.929 . S
C1136 C1137 1.377 . S
C1136 C1138 1.384 . S
C1137 C1136 1.377 . S
C1137 C1143 1.390 . S
C1138 H1129 0.930 . S
C1138 C1136 1.384 . S
C1138 C1139 1.372 . S
C1139 C1138 1.372 . S
C1139 C1140 1.400 . S
C1139 C1144 1.490 . S
C1140 H1130 0.930 . S
C1140 C1139 1.400 . S
C1140 C1143 1.386 . S
H1141 C1157 0.930 . S
H1142 C1158 0.931 . S
C1143 H1131 0.929 . S
C1143 C1137 1.390 . S
C1143 C1140 1.386 . S
C1144 C1139 1.490 . S
C1144 C1146 1.395 . S
C1144 C1147 1.403 . S
H1145 C1151 0.930 . S
C1146 H1132 0.930 . S
C1146 C1144 1.395 . S
C1146 C1149 1.403 1_655 S
C1147 C1144 1.403 . S
C1147 C1148 1.524 . S
C1147 C1151 1.400 1_655 S
C1148 H1133 0.960 . S
C1148 H1134 0.960 . S
C1148 H1135 0.960 . S
C1148 C1147 1.524 . S
C1149 C1146 1.403 1_455 S
C1149 C1150 1.392 . S
C1149 C1153 1.495 . S
C1150 C1149 1.392 . S
C1150 C1151 1.385 . S
C1150 C1152 1.478 . S
C1151 H1145 0.930 . S
C1151 C1147 1.400 1_455 S
C1151 C1150 1.385 . S
C1152 C1150 1.478 . S
C1152 C1154 1.381 . S
C1152 C1158 1.383 . S
C1153 C1149 1.495 . S
C1153 H1159 0.959 . S
C1153 H1160 0.961 . S
C1153 H1161 0.960 . S
C1154 C1152 1.381 . S
C1154 C1155 1.394 . S
C1154 H1162 0.930 . S
C1155 C1154 1.394 . S
C1155 C1156 1.383 . S
C1155 H1163 0.929 . S
C1156 C1155 1.383 . S
C1156 C1157 1.377 . S
C1157 H1141 0.930 . S
C1157 C1156 1.377 . S
C1157 C1158 1.379 . S
C1158 H1142 0.931 . S
C1158 C1152 1.383 . S
C1158 C1157 1.379 . S
H1159 C1153 0.959 . S
H1160 C1153 0.961 . S
H1161 C1153 0.960 . S
H1162 C1154 0.930 . S
H1163 C1155 0.929 . S
H1164 C1172 0.929 . S
H1165 C1174 0.930 . S
H1166 C1176 0.930 1_556 S
H1167 C1179 0.929 . S
H1168 C1182 0.930 . S
H1169 C1184 0.960 . S
H1170 C1184 0.960 . S
H1171 C1184 0.960 . S
C1172 H1164 0.929 . S
C1172 C1173 1.377 . S
C1172 C1174 1.384 . S
C1173 C1172 1.377 . S
C1173 C1179 1.390 . S
C1174 H1165 0.930 . S
C1174 C1172 1.384 . S
C1174 C1175 1.372 . S
C1175 C1174 1.372 . S
C1175 C1176 1.400 . S
C1175 C1180 1.490 . S
C1176 H1166 0.930 1_554 S
C1176 C1175 1.400 . S
C1176 C1179 1.386 . S
H1177 C1193 0.930 . S
H1178 C1194 0.931 . S
C1179 H1167 0.929 . S
C1179 C1173 1.390 . S
C1179 C1176 1.386 . S
C1180 C1175 1.490 . S
C1180 C1182 1.395 . S
C1180 C1183 1.403 1_554 S
H1181 C1187 0.930 . S
C1182 H1168 0.930 . S
C1182 C1180 1.395 . S
C1182 C1185 1.403 1_565 S
C1183 C1180 1.403 1_556 S
C1183 C1184 1.524 . S
C1183 C1187 1.400 1_565 S
C1184 H1169 0.960 . S
C1184 H1170 0.960 . S
C1184 H1171 0.960 . S
C1184 C1183 1.524 . S
C1185 C1182 1.403 1_545 S
C1185 C1186 1.318 1_554 S
C1185 C1189 1.495 . S
C1186 C1185 1.318 1_556 S
C1186 C1187 1.445 . S
C1186 C1188 1.499 . S
C1187 H1181 0.930 . S
C1187 C1183 1.400 1_545 S
C1187 C1186 1.445 . S
C1188 C1186 1.499 . S
C1188 C1190 1.403 . S
C1188 C1194 1.383 . S
C1189 C1185 1.495 . S
C1189 H1195 0.959 . S
C1189 H1196 0.961 . S
C1189 H1197 0.960 . S
C1190 C1188 1.403 . S
C1190 C1191 1.419 . S
C1190 H1198 0.889 1_556 S
C1191 C1190 1.419 . S
C1191 C1192 1.383 . S
C1191 H1199 0.929 . S
C1192 C1191 1.383 . S
C1192 C1193 1.377 . S
C1193 H1177 0.930 . S
C1193 C1192 1.377 . S
C1193 C1194 1.379 . S
C1194 H1178 0.931 . S
C1194 C1188 1.383 . S
C1194 C1193 1.379 . S
H1195 C1189 0.959 . S
H1196 C1189 0.961 . S
H1197 C1189 0.960 . S
H1198 C1190 0.889 1_554 S
H1199 C1191 0.929 . S
H1200 C1208 0.929 . S
H1201 C1210 0.930 . S
H1202 C1212 0.930 . S
H1203 C1215 0.929 . S
H1204 C1218 0.930 . S
H1205 C1220 0.960 . S
H1206 C1220 0.960 . S
H1207 C1220 0.960 . S
C1208 H1200 0.929 . S
C1208 C1209 1.377 . S
C1208 C1210 1.384 . S
C1209 C1208 1.377 . S
C1209 C1215 1.390 . S
C1210 H1201 0.930 . S
C1210 C1208 1.384 . S
C1210 C1211 1.372 . S
C1211 C1210 1.372 . S
C1211 C1212 1.400 . S
C1211 C1216 1.490 . S
C1212 H1202 0.930 . S
C1212 C1211 1.400 . S
C1212 C1215 1.386 . S
H1213 C1229 0.930 . S
H1214 C1230 0.931 . S
C1215 H1203 0.929 . S
C1215 C1209 1.390 . S
C1215 C1212 1.386 . S
C1216 C1211 1.490 . S
C1216 C1218 1.395 . S
C1216 C1219 1.403 . S
H1217 C1223 0.930 . S
C1218 H1204 0.930 . S
C1218 C1216 1.395 . S
C1218 C1221 1.403 . S
C1219 C1216 1.403 . S
C1219 C1220 1.524 . S
C1219 C1223 1.400 . S
C1220 H1205 0.960 . S
C1220 H1206 0.960 . S
C1220 H1207 0.960 . S
C1220 C1219 1.524 . S
C1221 C1218 1.403 . S
C1221 C1222 1.392 . S
C1221 C1225 1.495 . S
C1222 C1221 1.392 . S
C1222 C1223 1.385 . S
C1222 C1224 1.478 . S
C1223 H1217 0.930 . S
C1223 C1219 1.400 . S
C1223 C1222 1.385 . S
C1224 C1222 1.478 . S
C1224 C1226 1.381 . S
C1224 C1230 1.383 . S
C1225 C1221 1.495 . S
C1225 H1231 0.959 . S
C1225 H1232 0.961 . S
C1225 H1233 0.960 . S
C1226 C1224 1.381 . S
C1226 C1227 1.394 . S
C1226 H1234 0.930 . S
C1227 C1226 1.394 . S
C1227 C1228 1.383 . S
C1227 H1235 0.929 . S
C1228 C1227 1.383 . S
C1228 C1229 1.377 . S
C1229 H1213 0.930 . S
C1229 C1228 1.377 . S
C1229 C1230 1.379 . S
C1230 H1214 0.931 . S
C1230 C1224 1.383 . S
C1230 C1229 1.379 . S
H1231 C1225 0.959 . S
H1232 C1225 0.961 . S
H1233 C1225 0.960 . S
H1234 C1226 0.930 . S
H1235 C1227 0.929 . S
H1236 C1244 0.929 . S
H1237 C1246 0.930 . S
H1238 C1248 0.930 . S
H1239 C1251 0.929 . S
H1240 C1254 0.930 . S
H1241 C1256 0.960 1_455 S
H1242 C1256 0.960 . S
H1243 C1256 0.960 . S
C1244 H1236 0.929 . S
C1244 C1245 1.377 . S
C1244 C1246 1.384 . S
C1245 C1244 1.377 . S
C1245 C1251 1.390 . S
C1246 H1237 0.930 . S
C1246 C1244 1.384 . S
C1246 C1247 1.372 . S
C1247 C1246 1.372 . S
C1247 C1248 1.400 . S
C1247 C1252 1.490 . S
C1248 H1238 0.930 . S
C1248 C1247 1.400 . S
C1248 C1251 1.386 . S
H1249 C1265 0.930 . S
H1250 C1266 0.931 . S
C1251 H1239 0.929 . S
C1251 C1245 1.390 . S
C1251 C1248 1.386 . S
C1252 C1247 1.490 . S
C1252 C1254 1.395 . S
C1252 C1255 1.403 . S
H1253 C1259 0.930 . S
C1254 H1240 0.930 . S
C1254 C1252 1.395 . S
C1254 C1257 1.403 1_655 S
C1255 C1252 1.403 . S
C1255 C1256 1.524 . S
C1255 C1259 1.400 1_655 S
C1256 H1241 0.960 1_655 S
C1256 H1242 0.960 . S
C1256 H1243 0.960 . S
C1256 C1255 1.524 . S
C1257 C1254 1.403 1_455 S
C1257 C1258 1.392 . S
C1257 C1261 1.495 . S
C1258 C1257 1.392 . S
C1258 C1259 1.385 . S
C1258 C1260 1.478 . S
C1259 H1253 0.930 . S
C1259 C1255 1.400 1_455 S
C1259 C1258 1.385 . S
C1260 C1258 1.478 . S
C1260 C1262 1.381 . S
C1260 C1266 1.383 . S
C1261 C1257 1.495 . S
C1261 H1267 0.959 1_455 S
C1261 H1268 0.961 . S
C1261 H1269 0.960 . S
C1262 C1260 1.381 . S
C1262 C1263 1.394 . S
C1262 H1270 0.930 . S
C1263 C1262 1.394 . S
C1263 C1264 1.383 . S
C1263 H1271 0.929 . S
C1264 C1263 1.383 . S
C1264 C1265 1.377 . S
C1265 H1249 0.930 . S
C1265 C1264 1.377 . S
C1265 C1266 1.379 . S
C1266 H1250 0.931 . S
C1266 C1260 1.383 . S
C1266 C1265 1.379 . S
H1267 C1261 0.959 1_655 S
H1268 C1261 0.961 . S
H1269 C1261 0.960 . S
H1270 C1262 0.930 . S
H1271 C1263 0.929 . S
H1272 C1280 0.929 . S
H1273 C1282 0.930 . S
H1274 C1284 0.930 . S
H1275 C1287 0.929 . S
H1276 C1290 0.930 . S
H1277 C1292 0.960 . S
H1278 C1292 0.960 . S
H1279 C1292 0.960 . S
C1280 H1272 0.929 . S
C1280 C1281 1.377 . S
C1280 C1282 1.384 . S
C1281 C1280 1.377 . S
C1281 C1287 1.390 . S
C1282 H1273 0.930 . S
C1282 C1280 1.384 . S
C1282 C1283 1.372 . S
C1283 C1282 1.372 . S
C1283 C1284 1.400 . S
C1283 C1288 1.490 . S
C1284 H1274 0.930 . S
C1284 C1283 1.400 . S
C1284 C1287 1.386 . S
H1285 C1301 0.930 . S
H1286 C1302 0.931 . S
C1287 H1275 0.929 . S
C1287 C1281 1.390 . S
C1287 C1284 1.386 . S
C1288 C1283 1.490 . S
C1288 C1290 1.395 1_556 S
C1288 C1291 1.403 . S
H1289 C1295 0.930 . S
C1290 H1276 0.930 . S
C1290 C1288 1.395 1_554 S
C1290 C1293 1.403 . S
C1291 C1288 1.403 . S
C1291 C1292 1.524 . S
C1291 C1295 1.400 . S
C1292 H1277 0.960 . S
C1292 H1278 0.960 . S
C1292 H1279 0.960 . S
C1292 C1291 1.524 . S
C1293 C1290 1.403 . S
C1293 C1294 1.392 . S
C1293 C1297 1.495 . S
C1294 C1293 1.392 . S
C1294 C1295 1.385 1_554 S
C1294 C1296 1.478 . S
C1295 H1289 0.930 . S
C1295 C1291 1.400 . S
C1295 C1294 1.385 1_556 S
C1296 C1294 1.478 . S
C1296 C1298 1.381 . S
C1296 C1302 1.383 . S
C1297 C1293 1.495 . S
C1297 H1303 0.959 . S
C1297 H1304 0.961 . S
C1297 H1305 0.960 . S
C1298 C1296 1.381 . S
C1298 C1299 1.394 . S
C1298 H1306 0.930 . S
C1299 C1298 1.394 . S
C1299 C1300 1.383 . S
C1299 H1307 0.929 . S
C1300 C1299 1.383 . S
C1300 C1301 1.377 . S
C1301 H1285 0.930 . S
C1301 C1300 1.377 . S
C1301 C1302 1.379 . S
C1302 H1286 0.931 . S
C1302 C1296 1.383 . S
C1302 C1301 1.379 . S
H1303 C1297 0.959 . S
H1304 C1297 0.961 . S
H1305 C1297 0.960 . S
H1306 C1298 0.930 . S
H1307 C1299 0.929 . S
H1308 C1316 0.929 . S
H1309 C1318 0.930 . S
H1310 C1320 0.930 . S
H1311 C1323 0.929 . S
H1312 C1326 0.930 . S
H1313 C1328 0.960 . S
H1314 C1328 0.960 . S
H1315 C1328 0.960 . S
C1316 H1308 0.929 . S
C1316 C1317 1.377 . S
C1316 C1318 1.384 . S
C1317 C1316 1.377 . S
C1317 C1323 1.390 . S
C1318 H1309 0.930 . S
C1318 C1316 1.384 . S
C1318 C1319 1.372 . S
C1319 C1318 1.372 . S
C1319 C1320 1.400 . S
C1319 C1324 1.490 . S
C1320 H1310 0.930 . S
C1320 C1319 1.400 . S
C1320 C1323 1.386 . S
H1321 C1337 0.930 . S
H1322 C1338 0.931 . S
C1323 H1311 0.929 . S
C1323 C1317 1.390 . S
C1323 C1320 1.386 . S
C1324 C1319 1.490 . S
C1324 C1326 1.395 . S
C1324 C1327 1.403 . S
H1325 C1331 0.930 . S
C1326 H1312 0.930 . S
C1326 C1324 1.395 . S
C1326 C1329 1.403 . S
C1327 C1324 1.403 . S
C1327 C1328 1.524 . S
C1327 C1331 1.400 . S
C1328 H1313 0.960 . S
C1328 H1314 0.960 . S
C1328 H1315 0.960 . S
C1328 C1327 1.524 . S
C1329 C1326 1.403 . S
C1329 C1330 1.392 . S
C1329 C1333 1.495 . S
C1330 C1329 1.392 . S
C1330 C1331 1.385 . S
C1330 C1332 1.478 . S
C1331 H1325 0.930 . S
C1331 C1327 1.400 . S
C1331 C1330 1.385 . S
C1332 C1330 1.478 . S
C1332 C1334 1.381 . S
C1332 C1338 1.383 . S
C1333 C1329 1.495 . S
C1333 H1339 0.959 . S
C1333 H1340 0.961 . S
C1333 H1341 0.960 . S
C1334 C1332 1.381 . S
C1334 C1335 1.394 . S
C1334 H1342 0.930 . S
C1335 C1334 1.394 . S
C1335 C1336 1.383 . S
C1335 H1343 0.929 . S
C1336 C1335 1.383 . S
C1336 C1337 1.377 . S
C1337 H1321 0.930 . S
C1337 C1336 1.377 . S
C1337 C1338 1.379 . S
C1338 H1322 0.931 . S
C1338 C1332 1.383 . S
C1338 C1337 1.379 . S
H1339 C1333 0.959 . S
H1340 C1333 0.961 . S
H1341 C1333 0.960 . S
H1342 C1334 0.930 . S
H1343 C1335 0.929 . S
H1344 C1352 0.929 . S
H1345 C1354 0.930 . S
H1346 C1356 0.930 . S
H1347 C1359 0.929 . S
H1348 C1362 0.930 . S
H1349 C1364 0.960 . S
H1350 C1364 0.960 . S
H1351 C1364 0.960 . S
C1352 H1344 0.929 . S
C1352 C1353 1.377 . S
C1352 C1354 1.384 . S
C1353 C1352 1.377 . S
C1353 C1359 1.390 . S
C1354 H1345 0.930 . S
C1354 C1352 1.384 . S
C1354 C1355 1.372 . S
C1355 C1354 1.372 . S
C1355 C1356 1.400 . S
C1355 C1360 1.490 . S
C1356 H1346 0.930 . S
C1356 C1355 1.400 . S
C1356 C1359 1.386 . S
H1357 C1373 0.930 . S
H1358 C1374 0.931 . S
C1359 H1347 0.929 . S
C1359 C1353 1.390 . S
C1359 C1356 1.386 . S
C1360 C1355 1.490 . S
C1360 C1362 1.395 . S
C1360 C1363 1.403 . S
H1361 C1367 0.930 . S
C1362 H1348 0.930 . S
C1362 C1360 1.395 . S
C1362 C1365 1.403 . S
C1363 C1360 1.403 . S
C1363 C1364 1.524 . S
C1363 C1367 1.400 . S
C1364 H1349 0.960 . S
C1364 H1350 0.960 . S
C1364 H1351 0.960 . S
C1364 C1363 1.524 . S
C1365 C1362 1.403 . S
C1365 C1366 1.392 . S
C1365 C1369 1.495 . S
C1366 C1365 1.392 . S
C1366 C1367 1.385 . S
C1366 C1368 1.478 . S
C1367 H1361 0.930 . S
C1367 C1363 1.400 . S
C1367 C1366 1.385 . S
C1368 C1366 1.478 . S
C1368 C1370 1.381 . S
C1368 C1374 1.383 . S
C1369 C1365 1.495 . S
C1369 H1375 0.959 . S
C1369 H1376 0.961 . S
C1369 H1377 0.960 . S
C1370 C1368 1.381 . S
C1370 C1371 1.394 . S
C1370 H1378 0.930 . S
C1371 C1370 1.394 . S
C1371 C1372 1.383 . S
C1371 H1379 0.929 . S
C1372 C1371 1.383 . S
C1372 C1373 1.377 . S
C1373 H1357 0.930 . S
C1373 C1372 1.377 . S
C1373 C1374 1.379 . S
C1374 H1358 0.931 . S
C1374 C1368 1.383 . S
C1374 C1373 1.379 . S
H1375 C1369 0.959 . S
H1376 C1369 0.961 . S
H1377 C1369 0.960 . S
H1378 C1370 0.930 . S
H1379 C1371 0.929 . S
H1380 C1388 0.929 . S
H1381 C1390 0.930 . S
H1382 C1392 0.930 1_554 S
H1383 C1395 0.929 . S
H1384 C1398 0.930 . S
H1385 C1400 0.996 . S
H1386 C1400 0.960 . S
H1387 C1400 0.958 . S
C1388 H1380 0.929 . S
C1388 C1389 1.377 . S
C1388 C1390 1.384 . S
C1389 C1388 1.377 . S
C1389 C1395 1.390 . S
C1390 H1381 0.930 . S
C1390 C1388 1.384 . S
C1390 C1391 1.372 . S
C1391 C1390 1.372 . S
C1391 C1392 1.400 . S
C1391 C1396 1.490 . S
C1392 H1382 0.930 1_556 S
C1392 C1391 1.400 . S
C1392 C1395 1.386 . S
H1393 C1409 0.930 . S
H1394 C1410 0.931 . S
C1395 H1383 0.929 . S
C1395 C1389 1.390 . S
C1395 C1392 1.386 . S
C1396 C1391 1.490 . S
C1396 C1398 1.395 . S
C1396 C1399 1.403 . S
H1397 C1403 0.930 . S
C1398 H1384 0.930 . S
C1398 C1396 1.395 . S
C1398 C1401 1.403 1_556 S
C1399 C1396 1.403 . S
C1399 C1400 1.524 . S
C1399 C1403 1.400 1_556 S
C1400 H1385 0.996 . S
C1400 H1386 0.960 . S
C1400 H1387 0.958 . S
C1400 C1399 1.524 . S
C1401 C1398 1.403 1_554 S
C1401 C1402 1.392 . S
C1401 C1405 1.495 . S
C1402 C1401 1.392 . S
C1402 C1403 1.385 . S
C1402 C1404 1.478 . S
C1403 H1397 0.930 . S
C1403 C1399 1.400 1_554 S
C1403 C1402 1.385 . S
C1404 C1402 1.478 . S
C1404 C1406 1.381 . S
C1404 C1410 1.383 . S
C1405 C1401 1.495 . S
C1405 H1411 0.940 1_554 S
C1405 H1412 0.961 . S
C1405 H1413 0.960 1_554 S
C1406 C1404 1.381 . S
C1406 C1407 1.394 . S
C1406 H1414 0.930 1_554 S
C1407 C1406 1.394 . S
C1407 C1408 1.383 . S
C1407 H1415 0.929 . S
C1408 C1407 1.383 . S
C1408 C1409 1.377 . S
C1409 H1393 0.930 . S
C1409 C1408 1.377 . S
C1409 C1410 1.379 . S
C1410 H1394 0.931 . S
C1410 C1404 1.383 . S
C1410 C1409 1.379 . S
H1411 C1405 0.940 1_556 S
H1412 C1405 0.961 . S
H1413 C1405 0.960 1_556 S
H1414 C1406 0.930 1_556 S
H1415 C1407 0.929 . S
H1416 C1424 0.929 . S
H1417 C1426 0.930 . S
H1418 C1428 0.930 . S
H1419 C1431 0.929 . S
H1420 C1434 0.930 . S
H1421 C1436 0.960 . S
H1422 C1436 0.960 . S
H1423 C1436 0.960 . S
C1424 H1416 0.929 . S
C1424 C1425 1.377 . S
C1424 C1426 1.384 . S
C1425 C1424 1.377 . S
C1425 C1431 1.390 . S
C1426 H1417 0.930 . S
C1426 C1424 1.384 . S
C1426 C1427 1.372 . S
C1427 C1426 1.372 . S
C1427 C1428 1.400 . S
C1427 C1432 1.490 . S
C1428 H1418 0.930 . S
C1428 C1427 1.400 . S
C1428 C1431 1.386 . S
H1429 C1445 0.930 . S
H1430 C1446 0.931 . S
C1431 H1419 0.929 . S
C1431 C1425 1.390 . S
C1431 C1428 1.386 . S
C1432 C1427 1.490 . S
C1432 C1434 1.395 . S
C1432 C1435 1.403 . S
H1433 C1439 0.930 . S
C1434 H1420 0.930 . S
C1434 C1432 1.395 . S
C1434 C1437 1.403 . S
C1435 C1432 1.403 . S
C1435 C1436 1.524 . S
C1435 C1439 1.400 . S
C1436 H1421 0.960 . S
C1436 H1422 0.960 . S
C1436 H1423 0.960 . S
C1436 C1435 1.524 . S
C1437 C1434 1.403 . S
C1437 C1438 1.392 . S
C1437 C1441 1.495 . S
C1438 C1437 1.392 . S
C1438 C1439 1.385 . S
C1438 C1440 1.478 . S
C1439 H1433 0.930 . S
C1439 C1435 1.400 . S
C1439 C1438 1.385 . S
C1440 C1438 1.478 . S
C1440 C1442 1.381 . S
C1440 C1446 1.383 . S
C1441 C1437 1.495 . S
C1441 H1447 0.959 . S
C1441 H1448 0.961 . S
C1441 H1449 0.960 . S
C1442 C1440 1.381 . S
C1442 C1443 1.394 . S
C1442 H1450 0.930 . S
C1443 C1442 1.394 . S
C1443 C1444 1.383 . S
C1443 H1451 0.929 . S
C1444 C1443 1.383 . S
C1444 C1445 1.377 . S
C1445 H1429 0.930 . S
C1445 C1444 1.377 . S
C1445 C1446 1.379 . S
C1446 H1430 0.931 . S
C1446 C1440 1.383 . S
C1446 C1445 1.379 . S
H1447 C1441 0.959 . S
H1448 C1441 0.961 . S
H1449 C1441 0.960 . S
H1450 C1442 0.930 . S
H1451 C1443 0.929 . S
H1452 C1460 0.929 . S
H1453 C1462 0.930 . S
H1454 C1464 0.930 . S
H1455 C1467 0.929 . S
H1456 C1470 0.930 . S
H1457 C1472 0.960 . S
H1458 C1472 0.960 . S
H1459 C1472 0.960 . S
C1460 H1452 0.929 . S
C1460 C1461 1.377 . S
C1460 C1462 1.384 . S
C1461 C1460 1.377 . S
C1461 C1467 1.390 . S
C1462 H1453 0.930 . S
C1462 C1460 1.384 . S
C1462 C1463 1.372 . S
C1463 C1462 1.372 . S
C1463 C1464 1.400 . S
C1463 C1468 1.490 . S
C1464 H1454 0.930 . S
C1464 C1463 1.400 . S
C1464 C1467 1.386 . S
H1465 C1481 0.930 . S
H1466 C1482 0.931 . S
C1467 H1455 0.929 . S
C1467 C1461 1.390 . S
C1467 C1464 1.386 . S
C1468 C1463 1.490 . S
C1468 C1470 1.395 . S
C1468 C1471 1.403 . S
H1469 C1475 0.930 . S
C1470 H1456 0.930 . S
C1470 C1468 1.395 . S
C1470 C1473 1.403 . S
C1471 C1468 1.403 . S
C1471 C1472 1.524 . S
C1471 C1475 1.400 . S
C1472 H1457 0.960 . S
C1472 H1458 0.960 . S
C1472 H1459 0.960 . S
C1472 C1471 1.524 . S
C1473 C1470 1.403 . S
C1473 C1474 1.392 . S
C1473 C1477 1.495 . S
C1474 C1473 1.392 . S
C1474 C1475 1.385 . S
C1474 C1476 1.478 . S
C1475 H1469 0.930 . S
C1475 C1471 1.400 . S
C1475 C1474 1.385 . S
C1476 C1474 1.478 . S
C1476 C1478 1.381 . S
C1476 C1482 1.383 . S
C1477 C1473 1.495 . S
C1477 H1483 0.959 . S
C1477 H1484 0.961 . S
C1477 H1485 0.960 . S
C1478 C1476 1.381 . S
C1478 C1479 1.394 . S
C1478 H1486 0.930 . S
C1479 C1478 1.394 . S
C1479 C1480 1.383 . S
C1479 H1487 0.929 . S
C1480 C1479 1.383 . S
C1480 C1481 1.377 . S
C1481 H1465 0.930 . S
C1481 C1480 1.377 . S
C1481 C1482 1.379 . S
C1482 H1466 0.931 . S
C1482 C1476 1.383 . S
C1482 C1481 1.379 . S
H1483 C1477 0.959 . S
H1484 C1477 0.961 . S
H1485 C1477 0.960 . S
H1486 C1478 0.930 . S
H1487 C1479 0.929 . S
H1488 C1496 0.929 . S
H1489 C1498 0.930 . S
H1490 C1500 0.930 . S
H1491 C1503 0.929 . S
H1492 C1506 0.930 . S
H1493 C1508 0.960 . S
H1494 C1508 0.960 . S
H1495 C1508 0.960 . S
C1496 H1488 0.929 . S
C1496 C1497 1.377 . S
C1496 C1498 1.384 . S
C1497 C1496 1.377 . S
C1497 C1503 1.390 . S
C1498 H1489 0.930 . S
C1498 C1496 1.384 . S
C1498 C1499 1.372 . S
C1499 C1498 1.372 . S
C1499 C1500 1.400 . S
C1499 C1504 1.490 . S
C1500 H1490 0.930 . S
C1500 C1499 1.400 . S
C1500 C1503 1.386 . S
H1501 C1517 0.930 . S
H1502 C1518 0.931 . S
C1503 H1491 0.929 . S
C1503 C1497 1.390 . S
C1503 C1500 1.386 . S
C1504 C1499 1.490 . S
C1504 C1506 1.395 . S
C1504 C1507 1.403 . S
H1505 C1511 0.930 . S
C1506 H1492 0.930 . S
C1506 C1504 1.395 . S
C1506 C1509 1.403 . S
C1507 C1504 1.403 . S
C1507 C1508 1.524 . S
C1507 C1511 1.400 . S
C1508 H1493 0.960 . S
C1508 H1494 0.960 . S
C1508 H1495 0.960 . S
C1508 C1507 1.524 . S
C1509 C1506 1.403 . S
C1509 C1510 1.392 . S
C1509 C1513 1.495 . S
C1510 C1509 1.392 . S
C1510 C1511 1.385 . S
C1510 C1512 1.478 . S
C1511 H1505 0.930 . S
C1511 C1507 1.400 . S
C1511 C1510 1.385 . S
C1512 C1510 1.478 . S
C1512 C1514 1.381 . S
C1512 C1518 1.383 . S
C1513 C1509 1.495 . S
C1513 H1519 0.959 . S
C1513 H1520 0.961 . S
C1513 H1521 0.960 . S
C1514 C1512 1.381 . S
C1514 C1515 1.394 . S
C1514 H1522 0.930 . S
C1515 C1514 1.394 . S
C1515 C1516 1.383 . S
C1515 H1523 0.929 . S
C1516 C1515 1.383 . S
C1516 C1517 1.377 . S
C1517 H1501 0.930 . S
C1517 C1516 1.377 . S
C1517 C1518 1.379 . S
C1518 H1502 0.931 . S
C1518 C1512 1.383 . S
C1518 C1517 1.379 . S
H1519 C1513 0.959 . S
H1520 C1513 0.961 . S
H1521 C1513 0.960 . S
H1522 C1514 0.930 . S
H1523 C1515 0.929 . S
H1524 C1532 0.929 . S
H1525 C1534 0.930 . S
H1526 C1536 0.930 . S
H1527 C1539 0.929 . S
H1528 C1542 0.930 . S
H1529 C1544 0.960 . S
H1530 C1544 0.960 . S
H1531 C1544 0.960 . S
C1532 H1524 0.929 . S
C1532 C1533 1.377 . S
C1532 C1534 1.384 . S
C1533 C1532 1.377 . S
C1533 C1539 1.390 . S
C1534 H1525 0.930 . S
C1534 C1532 1.384 . S
C1534 C1535 1.372 . S
C1535 C1534 1.372 . S
C1535 C1536 1.400 . S
C1535 C1540 1.490 . S
C1536 H1526 0.930 . S
C1536 C1535 1.400 . S
C1536 C1539 1.386 . S
H1537 C1553 0.930 . S
H1538 C1554 0.931 . S
C1539 H1527 0.929 . S
C1539 C1533 1.390 . S
C1539 C1536 1.386 . S
C1540 C1535 1.490 . S
C1540 C1542 1.395 . S
C1540 C1543 1.403 . S
H1541 C1547 0.930 . S
C1542 H1528 0.930 . S
C1542 C1540 1.395 . S
C1542 C1545 1.403 . S
C1543 C1540 1.403 . S
C1543 C1544 1.524 . S
C1543 C1547 1.400 . S
C1544 H1529 0.960 . S
C1544 H1530 0.960 . S
C1544 H1531 0.960 . S
C1544 C1543 1.524 . S
C1545 C1542 1.403 . S
C1545 C1546 1.392 . S
C1545 C1549 1.495 . S
C1546 C1545 1.392 . S
C1546 C1547 1.385 . S
C1546 C1548 1.478 . S
C1547 H1541 0.930 . S
C1547 C1543 1.400 . S
C1547 C1546 1.385 . S
C1548 C1546 1.478 . S
C1548 C1550 1.381 . S
C1548 C1554 1.383 . S
C1549 C1545 1.495 . S
C1549 H1555 0.959 . S
C1549 H1556 0.961 . S
C1549 H1557 0.960 . S
C1550 C1548 1.381 . S
C1550 C1551 1.394 . S
C1550 H1558 0.930 . S
C1551 C1550 1.394 . S
C1551 C1552 1.383 . S
C1551 H1559 0.929 . S
C1552 C1551 1.383 . S
C1552 C1553 1.377 . S
C1553 H1537 0.930 . S
C1553 C1552 1.377 . S
C1553 C1554 1.379 . S
C1554 H1538 0.931 . S
C1554 C1548 1.383 . S
C1554 C1553 1.379 . S
H1555 C1549 0.959 . S
H1556 C1549 0.961 . S
H1557 C1549 0.960 . S
H1558 C1550 0.930 . S
H1559 C1551 0.929 . S
H1560 C1568 0.929 . S
H1561 C1570 0.930 . S
H1562 C1572 0.930 . S
H1563 C1575 0.929 . S
H1564 C1578 0.930 . S
H1565 C1580 0.960 . S
H1566 C1580 0.960 . S
H1567 C1580 0.960 . S
C1568 H1560 0.929 . S
C1568 C1569 1.377 . S
C1568 C1570 1.384 . S
C1569 C1568 1.377 . S
C1569 C1575 1.390 . S
C1570 H1561 0.930 . S
C1570 C1568 1.384 . S
C1570 C1571 1.372 . S
C1571 C1570 1.372 . S
C1571 C1572 1.400 . S
C1571 C1576 1.490 . S
C1572 H1562 0.930 . S
C1572 C1571 1.400 . S
C1572 C1575 1.386 . S
H1573 C1589 0.930 . S
H1574 C1590 0.931 . S
C1575 H1563 0.929 . S
C1575 C1569 1.390 . S
C1575 C1572 1.386 . S
C1576 C1571 1.490 . S
C1576 C1578 1.395 . S
C1576 C1579 1.403 . S
H1577 C1583 0.930 . S
C1578 H1564 0.930 . S
C1578 C1576 1.395 . S
C1578 C1581 1.403 . S
C1579 C1576 1.403 . S
C1579 C1580 1.524 . S
C1579 C1583 1.400 . S
C1580 H1565 0.960 . S
C1580 H1566 0.960 . S
C1580 H1567 0.960 . S
C1580 C1579 1.524 . S
C1581 C1578 1.403 . S
C1581 C1582 1.392 . S
C1581 C1585 1.495 . S
C1582 C1581 1.392 . S
C1582 C1583 1.385 . S
C1582 C1584 1.478 . S
C1583 H1577 0.930 . S
C1583 C1579 1.400 . S
C1583 C1582 1.385 . S
C1584 C1582 1.478 . S
C1584 C1586 1.381 . S
C1584 C1590 1.383 . S
C1585 C1581 1.495 . S
C1585 H1591 0.959 . S
C1585 H1592 0.961 . S
C1585 H1593 0.960 . S
C1586 C1584 1.381 . S
C1586 C1587 1.394 . S
C1586 H1594 0.930 . S
C1587 C1586 1.394 . S
C1587 C1588 1.383 . S
C1587 H1595 0.929 . S
C1588 C1587 1.383 . S
C1588 C1589 1.377 . S
C1589 H1573 0.930 . S
C1589 C1588 1.377 . S
C1589 C1590 1.379 . S
C1590 H1574 0.931 . S
C1590 C1584 1.383 . S
C1590 C1589 1.379 . S
H1591 C1585 0.959 . S
H1592 C1585 0.961 . S
H1593 C1585 0.960 . S
H1594 C1586 0.930 . S
H1595 C1587 0.929 . S
H1596 C1604 0.929 . S
H1597 C1606 0.930 . S
H1598 C1608 0.930 . S
H1599 C1611 0.929 . S
H1600 C1614 0.930 . S
H1601 C1616 0.960 . S
H1602 C1616 0.960 . S
H1603 C1616 0.960 . S
C1604 H1596 0.929 . S
C1604 C1605 1.377 . S
C1604 C1606 1.384 . S
C1605 C1604 1.377 . S
C1605 C1611 1.390 . S
C1606 H1597 0.930 . S
C1606 C1604 1.384 . S
C1606 C1607 1.372 . S
C1607 C1606 1.372 . S
C1607 C1608 1.400 . S
C1607 C1612 1.490 . S
C1608 H1598 0.930 . S
C1608 C1607 1.400 . S
C1608 C1611 1.386 . S
H1609 C1625 0.930 . S
H1610 C1626 0.931 . S
C1611 H1599 0.929 . S
C1611 C1605 1.390 . S
C1611 C1608 1.386 . S
C1612 C1607 1.490 . S
C1612 C1614 1.395 . S
C1612 C1615 1.403 . S
H1613 C1619 0.930 . S
C1614 H1600 0.930 . S
C1614 C1612 1.395 . S
C1614 C1617 1.403 . S
C1615 C1612 1.403 . S
C1615 C1616 1.524 . S
C1615 C1619 1.400 . S
C1616 H1601 0.960 . S
C1616 H1602 0.960 . S
C1616 H1603 0.960 . S
C1616 C1615 1.524 . S
C1617 C1614 1.403 . S
C1617 C1618 1.392 . S
C1617 C1621 1.495 . S
C1618 C1617 1.392 . S
C1618 C1619 1.385 . S
C1618 C1620 1.478 . S
C1619 H1613 0.930 . S
C1619 C1615 1.400 . S
C1619 C1618 1.385 . S
C1620 C1618 1.478 . S
C1620 C1622 1.381 . S
C1620 C1626 1.383 . S
C1621 C1617 1.495 . S
C1621 H1627 0.959 . S
C1621 H1628 0.961 . S
C1621 H1629 0.960 . S
C1622 C1620 1.381 . S
C1622 C1623 1.394 . S
C1622 H1630 0.930 . S
C1623 C1622 1.394 . S
C1623 C1624 1.383 . S
C1623 H1631 0.929 . S
C1624 C1623 1.383 . S
C1624 C1625 1.377 . S
C1625 H1609 0.930 . S
C1625 C1624 1.377 . S
C1625 C1626 1.379 . S
C1626 H1610 0.931 . S
C1626 C1620 1.383 . S
C1626 C1625 1.379 . S
H1627 C1621 0.959 . S
H1628 C1621 0.961 . S
H1629 C1621 0.960 . S
H1630 C1622 0.930 . S
H1631 C1623 0.929 . S
H1632 C1640 0.929 . S
H1633 C1642 0.930 . S
H1634 C1644 0.930 . S
H1635 C1647 0.929 . S
H1636 C1650 0.930 . S
H1637 C1652 0.960 . S
H1638 C1652 0.960 . S
H1639 C1652 0.960 . S
C1640 H1632 0.929 . S
C1640 C1641 1.377 . S
C1640 C1642 1.384 . S
C1641 C1640 1.377 . S
C1641 C1647 1.390 . S
C1642 H1633 0.930 . S
C1642 C1640 1.384 . S
C1642 C1643 1.372 . S
C1643 C1642 1.372 . S
C1643 C1644 1.400 . S
C1643 C1648 1.490 . S
C1644 H1634 0.930 . S
C1644 C1643 1.400 . S
C1644 C1647 1.386 . S
H1645 C1661 0.930 . S
H1646 C1662 0.931 . S
C1647 H1635 0.929 . S
C1647 C1641 1.390 . S
C1647 C1644 1.386 . S
C1648 C1643 1.490 . S
C1648 C1650 1.395 . S
C1648 C1651 1.403 . S
H1649 C1655 0.930 . S
C1650 H1636 0.930 . S
C1650 C1648 1.395 . S
C1650 C1653 1.403 . S
C1651 C1648 1.403 . S
C1651 C1652 1.524 . S
C1651 C1655 1.400 . S
C1652 H1637 0.960 . S
C1652 H1638 0.960 . S
C1652 H1639 0.960 . S
C1652 C1651 1.524 . S
C1653 C1650 1.403 . S
C1653 C1654 1.392 . S
C1653 C1657 1.495 . S
C1654 C1653 1.392 . S
C1654 C1655 1.385 . S
C1654 C1656 1.478 . S
C1655 H1649 0.930 . S
C1655 C1651 1.400 . S
C1655 C1654 1.385 . S
C1656 C1654 1.478 . S
C1656 C1658 1.381 . S
C1656 C1662 1.383 . S
C1657 C1653 1.495 . S
C1657 H1663 0.959 . S
C1657 H1664 0.961 . S
C1657 H1665 0.960 . S
C1658 C1656 1.381 . S
C1658 C1659 1.394 . S
C1658 H1666 0.930 . S
C1659 C1658 1.394 . S
C1659 C1660 1.383 . S
C1659 H1667 0.929 . S
C1660 C1659 1.383 . S
C1660 C1661 1.377 . S
C1661 H1645 0.930 . S
C1661 C1660 1.377 . S
C1661 C1662 1.379 . S
C1662 H1646 0.931 . S
C1662 C1656 1.383 . S
C1662 C1661 1.379 . S
H1663 C1657 0.959 . S
H1664 C1657 0.961 . S
H1665 C1657 0.960 . S
H1666 C1658 0.930 . S
H1667 C1659 0.929 . S
H1668 C1676 0.929 . S
H1669 C1678 0.930 . S
H1670 C1680 0.930 . S
H1671 C1683 0.929 . S
H1672 C1686 0.930 . S
H1673 C1688 0.960 . S
H1674 C1688 0.960 . S
H1675 C1688 0.960 . S
C1676 H1668 0.929 . S
C1676 C1677 1.377 . S
C1676 C1678 1.384 . S
C1677 C1676 1.377 . S
C1677 C1683 1.390 . S
C1678 H1669 0.930 . S
C1678 C1676 1.384 . S
C1678 C1679 1.372 . S
C1679 C1678 1.372 . S
C1679 C1680 1.400 . S
C1679 C1684 1.490 . S
C1680 H1670 0.930 . S
C1680 C1679 1.400 . S
C1680 C1683 1.386 . S
H1681 C1697 0.930 . S
H1682 C1698 0.931 . S
C1683 H1671 0.929 . S
C1683 C1677 1.390 . S
C1683 C1680 1.386 . S
C1684 C1679 1.490 . S
C1684 C1686 1.395 . S
C1684 C1687 1.403 . S
H1685 C1691 0.930 . S
C1686 H1672 0.930 . S
C1686 C1684 1.395 . S
C1686 C1689 1.403 . S
C1687 C1684 1.403 . S
C1687 C1688 1.524 . S
C1687 C1691 1.400 . S
C1688 H1673 0.960 . S
C1688 H1674 0.960 . S
C1688 H1675 0.960 . S
C1688 C1687 1.524 . S
C1689 C1686 1.403 . S
C1689 C1690 1.392 . S
C1689 C1693 1.495 . S
C1690 C1689 1.392 . S
C1690 C1691 1.385 . S
C1690 C1692 1.478 . S
C1691 H1685 0.930 . S
C1691 C1687 1.400 . S
C1691 C1690 1.385 . S
C1692 C1690 1.478 . S
C1692 C1694 1.381 . S
C1692 C1698 1.383 . S
C1693 C1689 1.495 . S
C1693 H1699 0.959 . S
C1693 H1700 0.961 . S
C1693 H1701 0.960 . S
C1694 C1692 1.381 . S
C1694 C1695 1.394 . S
C1694 H1702 0.930 . S
C1695 C1694 1.394 . S
C1695 C1696 1.383 . S
C1695 H1703 0.929 . S
C1696 C1695 1.383 . S
C1696 C1697 1.377 . S
C1697 H1681 0.930 . S
C1697 C1696 1.377 . S
C1697 C1698 1.379 . S
C1698 H1682 0.931 . S
C1698 C1692 1.383 . S
C1698 C1697 1.379 . S
H1699 C1693 0.959 . S
H1700 C1693 0.961 . S
H1701 C1693 0.960 . S
H1702 C1694 0.930 . S
H1703 C1695 0.929 . S
H1704 C1712 0.929 . S
H1705 C1714 0.930 . S
H1706 C1716 0.930 . S
H1707 C1719 0.929 . S
H1708 C1722 0.930 . S
H1709 C1724 0.960 . S
H1710 C1724 0.960 . S
H1711 C1724 0.960 . S
C1712 H1704 0.929 . S
C1712 C1713 1.377 . S
C1712 C1714 1.384 . S
C1713 C1712 1.377 . S
C1713 C1719 1.390 . S
C1714 H1705 0.930 . S
C1714 C1712 1.384 . S
C1714 C1715 1.372 . S
C1715 C1714 1.372 . S
C1715 C1716 1.400 . S
C1715 C1720 1.490 . S
C1716 H1706 0.930 . S
C1716 C1715 1.400 . S
C1716 C1719 1.386 . S
H1717 C1733 0.930 . S
H1718 C1734 0.931 . S
C1719 H1707 0.929 . S
C1719 C1713 1.390 . S
C1719 C1716 1.386 . S
C1720 C1715 1.490 . S
C1720 C1722 1.395 . S
C1720 C1723 1.403 . S
H1721 C1727 0.930 . S
C1722 H1708 0.930 . S
C1722 C1720 1.395 . S
C1722 C1725 1.403 . S
C1723 C1720 1.403 . S
C1723 C1724 1.524 . S
C1723 C1727 1.400 . S
C1724 H1709 0.960 . S
C1724 H1710 0.960 . S
C1724 H1711 0.960 . S
C1724 C1723 1.524 . S
C1725 C1722 1.403 . S
C1725 C1726 1.392 . S
C1725 C1729 1.495 . S
C1726 C1725 1.392 . S
C1726 C1727 1.385 . S
C1726 C1728 1.478 . S
C1727 H1721 0.930 . S
C1727 C1723 1.400 . S
C1727 C1726 1.385 . S
C1728 C1726 1.478 . S
C1728 C1730 1.381 . S
C1728 C1734 1.383 . S
C1729 C1725 1.495 . S
C1729 H1735 0.959 . S
C1729 H1736 0.961 . S
C1729 H1737 0.960 . S
C1730 C1728 1.381 . S
C1730 C1731 1.394 . S
C1730 H1738 0.930 . S
C1731 C1730 1.394 . S
C1731 C1732 1.383 . S
C1731 H1739 0.929 . S
C1732 C1731 1.383 . S
C1732 C1733 1.377 . S
C1733 H1717 0.930 . S
C1733 C1732 1.377 . S
C1733 C1734 1.379 . S
C1734 H1718 0.931 . S
C1734 C1728 1.383 . S
C1734 C1733 1.379 . S
H1735 C1729 0.959 . S
H1736 C1729 0.961 . S
H1737 C1729 0.960 . S
H1738 C1730 0.930 . S
H1739 C1731 0.929 . S
H1740 C1748 0.929 . S
H1741 C1750 0.930 . S
H1742 C1752 0.930 . S
H1743 C1755 0.929 . S
H1744 C1758 0.930 . S
H1745 C1760 0.960 . S
H1746 C1760 0.960 . S
H1747 C1760 0.960 . S
C1748 H1740 0.929 . S
C1748 C1749 1.377 . S
C1748 C1750 1.384 . S
C1749 C1748 1.377 . S
C1749 C1755 1.390 . S
C1750 H1741 0.930 . S
C1750 C1748 1.384 . S
C1750 C1751 1.372 . S
C1751 C1750 1.372 . S
C1751 C1752 1.400 . S
C1751 C1756 1.490 . S
C1752 H1742 0.930 . S
C1752 C1751 1.400 . S
C1752 C1755 1.386 . S
H1753 C1769 0.930 . S
H1754 C1770 0.931 . S
C1755 H1743 0.929 . S
C1755 C1749 1.390 . S
C1755 C1752 1.386 . S
C1756 C1751 1.490 . S
C1756 C1758 1.395 1_655 S
C1756 C1759 1.403 . S
H1757 C1763 0.930 . S
C1758 H1744 0.930 . S
C1758 C1756 1.395 1_455 S
C1758 C1761 1.403 . S
C1759 C1756 1.403 . S
C1759 C1760 1.524 . S
C1759 C1763 1.400 . S
C1760 H1745 0.960 . S
C1760 H1746 0.960 . S
C1760 H1747 0.960 . S
C1760 C1759 1.524 . S
C1761 C1758 1.403 . S
C1761 C1762 1.392 . S
C1761 C1765 1.495 . S
C1762 C1761 1.392 . S
C1762 C1763 1.385 1_455 S
C1762 C1764 1.478 . S
C1763 H1757 0.930 . S
C1763 C1759 1.400 . S
C1763 C1762 1.385 1_655 S
C1764 C1762 1.478 . S
C1764 C1766 1.381 . S
C1764 C1770 1.383 . S
C1765 C1761 1.495 . S
C1765 H1771 0.959 . S
C1765 H1772 0.961 . S
C1765 H1773 0.960 . S
C1766 C1764 1.381 . S
C1766 C1767 1.394 . S
C1766 H1774 0.930 . S
C1767 C1766 1.394 . S
C1767 C1768 1.383 . S
C1767 H1775 0.929 . S
C1768 C1767 1.383 . S
C1768 C1769 1.377 . S
C1769 H1753 0.930 . S
C1769 C1768 1.377 . S
C1769 C1770 1.379 . S
C1770 H1754 0.931 . S
C1770 C1764 1.383 . S
C1770 C1769 1.379 . S
H1771 C1765 0.959 . S
H1772 C1765 0.961 . S
H1773 C1765 0.960 . S
H1774 C1766 0.930 . S
H1775 C1767 0.929 . S
H1776 C1784 0.929 . S
H1777 C1786 0.930 . S
H1778 C1788 0.930 . S
H1779 C1791 0.929 . S
H1780 C1794 0.930 . S
H1781 C1796 0.960 . S
H1782 C1796 0.960 . S
H1783 C1796 0.960 . S
C1784 H1776 0.929 . S
C1784 C1785 1.377 . S
C1784 C1786 1.384 . S
C1785 C1784 1.377 . S
C1785 C1791 1.390 . S
C1786 H1777 0.930 . S
C1786 C1784 1.384 . S
C1786 C1787 1.372 . S
C1787 C1786 1.372 . S
C1787 C1788 1.400 . S
C1787 C1792 1.490 . S
C1788 H1778 0.930 . S
C1788 C1787 1.400 . S
C1788 C1791 1.386 . S
H1789 C1805 0.930 . S
H1790 C1806 0.931 . S
C1791 H1779 0.929 . S
C1791 C1785 1.390 . S
C1791 C1788 1.386 . S
C1792 C1787 1.490 . S
C1792 C1794 1.395 1_545 S
C1792 C1795 1.403 . S
H1793 C1799 0.930 . S
C1794 H1780 0.930 . S
C1794 C1792 1.395 1_565 S
C1794 C1797 1.403 . S
C1795 C1792 1.403 . S
C1795 C1796 1.524 . S
C1795 C1799 1.400 . S
C1796 H1781 0.960 . S
C1796 H1782 0.960 . S
C1796 H1783 0.960 . S
C1796 C1795 1.524 . S
C1797 C1794 1.403 . S
C1797 C1798 1.392 . S
C1797 C1801 1.495 . S
C1798 C1797 1.392 . S
C1798 C1799 1.385 1_565 S
C1798 C1800 1.478 . S
C1799 H1793 0.930 . S
C1799 C1795 1.400 . S
C1799 C1798 1.385 1_545 S
C1800 C1798 1.478 . S
C1800 C1802 1.381 . S
C1800 C1806 1.383 . S
C1801 C1797 1.495 . S
C1801 H1807 0.959 . S
C1801 H1808 0.961 . S
C1801 H1809 0.960 . S
C1802 C1800 1.381 . S
C1802 C1803 1.394 . S
C1802 H1810 0.930 . S
C1803 C1802 1.394 . S
C1803 C1804 1.383 . S
C1803 H1811 0.929 . S
C1804 C1803 1.383 . S
C1804 C1805 1.377 . S
C1805 H1789 0.930 . S
C1805 C1804 1.377 . S
C1805 C1806 1.379 . S
C1806 H1790 0.931 . S
C1806 C1800 1.383 . S
C1806 C1805 1.379 . S
H1807 C1801 0.959 . S
H1808 C1801 0.961 . S
H1809 C1801 0.960 . S
H1810 C1802 0.930 . S
H1811 C1803 0.929 . S
H1812 C1820 0.929 . S
H1813 C1822 0.930 . S
H1814 C1824 0.930 . S
H1815 C1827 0.929 . S
H1816 C1830 0.930 . S
H1817 C1832 0.960 . S
H1818 C1832 0.960 . S
H1819 C1832 0.960 . S
C1820 H1812 0.929 . S
C1820 C1821 1.377 . S
C1820 C1822 1.384 . S
C1821 C1820 1.377 . S
C1821 C1827 1.390 . S
C1822 H1813 0.930 . S
C1822 C1820 1.384 . S
C1822 C1823 1.372 . S
C1823 C1822 1.372 . S
C1823 C1824 1.400 . S
C1823 C1828 1.490 . S
C1824 H1814 0.930 . S
C1824 C1823 1.400 . S
C1824 C1827 1.386 . S
H1825 C1841 0.930 . S
H1826 C1842 0.931 . S
C1827 H1815 0.929 . S
C1827 C1821 1.390 . S
C1827 C1824 1.386 . S
C1828 C1823 1.490 . S
C1828 C1830 1.395 . S
C1828 C1831 1.403 . S
H1829 C1835 0.930 . S
C1830 H1816 0.930 . S
C1830 C1828 1.395 . S
C1830 C1833 1.403 . S
C1831 C1828 1.403 . S
C1831 C1832 1.524 . S
C1831 C1835 1.400 . S
C1832 H1817 0.960 . S
C1832 H1818 0.960 . S
C1832 H1819 0.960 . S
C1832 C1831 1.524 . S
C1833 C1830 1.403 . S
C1833 C1834 1.392 . S
C1833 C1837 1.495 . S
C1834 C1833 1.392 . S
C1834 C1835 1.385 . S
C1834 C1836 1.478 . S
C1835 H1829 0.930 . S
C1835 C1831 1.400 . S
C1835 C1834 1.385 . S
C1836 C1834 1.478 . S
C1836 C1838 1.381 . S
C1836 C1842 1.383 . S
C1837 C1833 1.495 . S
C1837 H1843 0.959 . S
C1837 H1844 0.961 . S
C1837 H1845 0.960 . S
C1838 C1836 1.381 . S
C1838 C1839 1.394 . S
C1838 H1846 0.930 . S
C1839 C1838 1.394 . S
C1839 C1840 1.383 . S
C1839 H1847 0.929 . S
C1840 C1839 1.383 . S
C1840 C1841 1.377 . S
C1841 H1825 0.930 . S
C1841 C1840 1.377 . S
C1841 C1842 1.379 . S
C1842 H1826 0.931 . S
C1842 C1836 1.383 . S
C1842 C1841 1.379 . S
H1843 C1837 0.959 . S
H1844 C1837 0.961 . S
H1845 C1837 0.960 . S
H1846 C1838 0.930 . S
H1847 C1839 0.929 . S
H1848 C1856 0.929 . S
H1849 C1858 0.930 . S
H1850 C1860 0.930 . S
H1851 C1863 0.929 . S
H1852 C1866 0.930 . S
H1853 C1868 0.960 . S
H1854 C1868 0.960 . S
H1855 C1868 0.960 . S
C1856 H1848 0.929 . S
C1856 C1857 1.377 . S
C1856 C1858 1.384 . S
C1857 C1856 1.377 . S
C1857 C1863 1.390 . S
C1858 H1849 0.930 . S
C1858 C1856 1.384 . S
C1858 C1859 1.372 . S
C1859 C1858 1.372 . S
C1859 C1860 1.400 . S
C1859 C1864 1.490 . S
C1860 H1850 0.930 . S
C1860 C1859 1.400 . S
C1860 C1863 1.386 . S
H1861 C1877 0.930 . S
H1862 C1878 0.931 . S
C1863 H1851 0.929 . S
C1863 C1857 1.390 . S
C1863 C1860 1.386 . S
C1864 C1859 1.490 . S
C1864 C1866 1.395 1_455 S
C1864 C1867 1.403 . S
H1865 C1871 0.930 . S
C1866 H1852 0.930 . S
C1866 C1864 1.395 1_655 S
C1866 C1869 1.403 . S
C1867 C1864 1.403 . S
C1867 C1868 1.524 . S
C1867 C1871 1.400 . S
C1868 H1853 0.960 . S
C1868 H1854 0.960 . S
C1868 H1855 0.960 . S
C1868 C1867 1.524 . S
C1869 C1866 1.403 . S
C1869 C1870 1.392 . S
C1869 C1873 1.495 . S
C1870 C1869 1.392 . S
C1870 C1871 1.385 1_655 S
C1870 C1872 1.478 . S
C1871 H1865 0.930 . S
C1871 C1867 1.400 . S
C1871 C1870 1.385 1_455 S
C1872 C1870 1.478 . S
C1872 C1874 1.381 . S
C1872 C1878 1.383 . S
C1873 C1869 1.495 . S
C1873 H1879 0.959 . S
C1873 H1880 0.961 . S
C1873 H1881 0.960 . S
C1874 C1872 1.381 . S
C1874 C1875 1.394 . S
C1874 H1882 0.930 . S
C1875 C1874 1.394 . S
C1875 C1876 1.383 . S
C1875 H1883 0.929 . S
C1876 C1875 1.383 . S
C1876 C1877 1.377 . S
C1877 H1861 0.930 . S
C1877 C1876 1.377 . S
C1877 C1878 1.379 . S
C1878 H1862 0.931 . S
C1878 C1872 1.383 . S
C1878 C1877 1.379 . S
H1879 C1873 0.959 . S
H1880 C1873 0.961 . S
H1881 C1873 0.960 . S
H1882 C1874 0.930 . S
H1883 C1875 0.929 . S
H1884 C1892 0.929 . S
H1885 C1894 0.930 . S
H1886 C1896 0.930 1_545 S
H1887 C1899 0.933 . S
H1888 C1902 0.930 . S
H1889 C1904 0.960 . S
H1890 C1904 0.960 . S
H1891 C1904 0.960 . S
C1892 H1884 0.929 . S
C1892 C1893 1.377 . S
C1892 C1894 1.384 . S
C1893 C1892 1.377 . S
C1893 C1899 1.390 . S
C1894 H1885 0.930 . S
C1894 C1892 1.384 . S
C1894 C1895 1.372 . S
C1895 C1894 1.372 . S
C1895 C1896 1.400 . S
C1895 C1900 1.490 . S
C1896 H1886 0.930 1_565 S
C1896 C1895 1.400 . S
C1896 C1899 1.386 . S
H1897 C1913 0.930 . S
H1898 C1914 0.931 . S
C1899 H1887 0.933 . S
C1899 C1893 1.390 . S
C1899 C1896 1.386 . S
C1900 C1895 1.490 . S
C1900 C1902 1.395 . S
C1900 C1903 1.403 1_565 S
H1901 C1907 0.930 . S
C1902 H1888 0.930 . S
C1902 C1900 1.395 . S
C1902 C1905 1.403 . S
C1903 C1900 1.403 1_545 S
C1903 C1904 1.524 . S
C1903 C1907 1.400 . S
C1904 H1889 0.960 . S
C1904 H1890 0.960 . S
C1904 H1891 0.960 . S
C1904 C1903 1.524 . S
C1905 C1902 1.403 . S
C1905 C1906 1.392 1_565 S
C1905 C1909 1.495 . S
C1906 C1905 1.392 1_545 S
C1906 C1907 1.385 . S
C1906 C1908 1.478 . S
C1907 H1901 0.930 . S
C1907 C1903 1.400 . S
C1907 C1906 1.385 . S
C1908 C1906 1.478 . S
C1908 C1910 1.381 . S
C1908 C1914 1.383 . S
C1909 C1905 1.495 . S
C1909 H1915 0.959 . S
C1909 H1916 0.961 . S
C1909 H1917 0.960 . S
C1910 C1908 1.381 . S
C1910 C1911 1.400 . S
C1910 H1918 0.924 1_545 S
C1911 C1910 1.400 . S
C1911 C1912 1.383 . S
C1911 H1919 0.929 . S
C1912 C1911 1.383 . S
C1912 C1913 1.377 . S
C1913 H1897 0.930 . S
C1913 C1912 1.377 . S
C1913 C1914 1.379 . S
C1914 H1898 0.931 . S
C1914 C1908 1.383 . S
C1914 C1913 1.379 . S
H1915 C1909 0.959 . S
H1916 C1909 0.961 . S
H1917 C1909 0.960 . S
H1918 C1910 0.924 1_565 S
H1919 C1911 0.929 . S
C1065 C673 1.287 . S
C1084 C29 1.285 . S
C1101 C137 1.291 . S
C1120 C753 1.268 . S
C1137 C233 1.282 . S
C1156 C849 1.314 . S
C1173 C284 1.283 . S
C1192 C929 1.304 . S
C1209 C1025 1.288 . S
C1228 C372 1.283 . S
C1245 C557 1.288 . S
C1264 C460 1.287 . S
C1281 C909 0.833 . S
C1300 C49 0.835 . S
C1317 C117 0.835 . S
C1336 C988 0.825 . S
C1353 C196 0.834 . S
C1372 C577 0.828 . S
C1389 C636 0.834 . S
C1408 C321 0.827 . S
C1425 C733 0.833 . S
C1444 C409 0.832 . S
C1461 C812 0.832 . S
C1480 C497 0.840 . S
C1497 C20 1.691 . S
C1516 C761 1.689 . S
C1533 C145 1.691 . S
C1552 C841 1.689 . S
C1569 C937 1.690 . S
C1588 C225 1.691 . S
C1605 C293 1.691 . S
C1624 C1017 1.691 . S
C1641 C548 1.690 . S
C1660 C381 1.690 . S
C1677 C665 1.689 . S
C1696 C469 1.681 . S
C1713 C313 1.547 . S
C1732 C57 1.510 . S
C1749 C401 1.546 . S
C1768 C108 1.512 . S
C1785 C205 1.544 . S
C1804 C489 1.516 . S
C1821 C585 1.552 . S
C1840 C821 1.572 . S
C1857 C645 1.544 . S
C1876 C900 1.515 . S
C1893 C997 1.546 . S
C1912 C724 1.577 . S
