# Generated by pormake.
# Topology xff, (7)-cn, num edge types: 1
# Building blocks:
#     Node 0, Type 0, BuildingBlock: HICVOG_clean_sbu_0, # of connection points: 7
#     Node 1, Type 0, BuildingBlock: HICVOG_clean_sbu_0, # of connection points: 7
#     Node 2, Type 0, BuildingBlock: HICVOG_clean_sbu_0, # of connection points: 7
#     Node 3, Type 0, BuildingBlock: HICVOG_clean_sbu_0, # of connection points: 7
#     Node 4, Type 0, BuildingBlock: HICVOG_clean_sbu_0, # of connection points: 7
#     Node 5, Type 0, BuildingBlock: HICVOG_clean_sbu_0, # of connection points: 7
#     Node 6, Type 0, BuildingBlock: HICVOG_clean_sbu_0, # of connection points: 7
#     Node 7, Type 0, BuildingBlock: HICVOG_clean_sbu_0, # of connection points: 7
#     Node 8, Type 0, BuildingBlock: HICVOG_clean_sbu_0, # of connection points: 7
#     Node 9, Type 0, BuildingBlock: HICVOG_clean_sbu_0, # of connection points: 7
#     Node 10, Type 0, BuildingBlock: HICVOG_clean_sbu_0, # of connection points: 7
#     Node 11, Type 0, BuildingBlock: HICVOG_clean_sbu_0, # of connection points: 7
#     Node 12, Type 0, BuildingBlock: HICVOG_clean_sbu_0, # of connection points: 7
#     Node 13, Type 0, BuildingBlock: HICVOG_clean_sbu_0, # of connection points: 7
#     Node 14, Type 0, BuildingBlock: HICVOG_clean_sbu_0, # of connection points: 7
#     Node 15, Type 0, BuildingBlock: HICVOG_clean_sbu_0, # of connection points: 7
#     Edge 16, Type (0, 0), BuildingBlock: UVAHIK_clean_linker_0, # of connection points: 2
#     Edge 17, Type (0, 0), BuildingBlock: UVAHIK_clean_linker_0, # of connection points: 2
#     Edge 18, Type (0, 0), BuildingBlock: UVAHIK_clean_linker_0, # of connection points: 2
#     Edge 19, Type (0, 0), BuildingBlock: UVAHIK_clean_linker_0, # of connection points: 2
#     Edge 20, Type (0, 0), BuildingBlock: UVAHIK_clean_linker_0, # of connection points: 2
#     Edge 21, Type (0, 0), BuildingBlock: UVAHIK_clean_linker_0, # of connection points: 2
#     Edge 22, Type (0, 0), BuildingBlock: UVAHIK_clean_linker_0, # of connection points: 2
#     Edge 23, Type (0, 0), BuildingBlock: UVAHIK_clean_linker_0, # of connection points: 2
#     Edge 24, Type (0, 0), BuildingBlock: UVAHIK_clean_linker_0, # of connection points: 2
#     Edge 25, Type (0, 0), BuildingBlock: UVAHIK_clean_linker_0, # of connection points: 2
#     Edge 26, Type (0, 0), BuildingBlock: UVAHIK_clean_linker_0, # of connection points: 2
#     Edge 27, Type (0, 0), BuildingBlock: UVAHIK_clean_linker_0, # of connection points: 2
#     Edge 28, Type (0, 0), BuildingBlock: UVAHIK_clean_linker_0, # of connection points: 2
#     Edge 29, Type (0, 0), BuildingBlock: UVAHIK_clean_linker_0, # of connection points: 2
#     Edge 30, Type (0, 0), BuildingBlock: UVAHIK_clean_linker_0, # of connection points: 2
#     Edge 31, Type (0, 0), BuildingBlock: UVAHIK_clean_linker_0, # of connection points: 2
#     Edge 32, Type (0, 0), BuildingBlock: UVAHIK_clean_linker_0, # of connection points: 2
#     Edge 33, Type (0, 0), BuildingBlock: UVAHIK_clean_linker_0, # of connection points: 2
#     Edge 34, Type (0, 0), BuildingBlock: UVAHIK_clean_linker_0, # of connection points: 2
#     Edge 35, Type (0, 0), BuildingBlock: UVAHIK_clean_linker_0, # of connection points: 2
#     Edge 36, Type (0, 0), BuildingBlock: UVAHIK_clean_linker_0, # of connection points: 2
#     Edge 37, Type (0, 0), BuildingBlock: UVAHIK_clean_linker_0, # of connection points: 2
#     Edge 38, Type (0, 0), BuildingBlock: UVAHIK_clean_linker_0, # of connection points: 2
#     Edge 39, Type (0, 0), BuildingBlock: UVAHIK_clean_linker_0, # of connection points: 2
#     Edge 40, Type (0, 0), BuildingBlock: UVAHIK_clean_linker_0, # of connection points: 2
#     Edge 41, Type (0, 0), BuildingBlock: UVAHIK_clean_linker_0, # of connection points: 2
#     Edge 42, Type (0, 0), BuildingBlock: UVAHIK_clean_linker_0, # of connection points: 2
#     Edge 43, Type (0, 0), BuildingBlock: UVAHIK_clean_linker_0, # of connection points: 2
#     Edge 44, Type (0, 0), BuildingBlock: UVAHIK_clean_linker_0, # of connection points: 2
#     Edge 45, Type (0, 0), BuildingBlock: UVAHIK_clean_linker_0, # of connection points: 2
#     Edge 46, Type (0, 0), BuildingBlock: UVAHIK_clean_linker_0, # of connection points: 2
#     Edge 47, Type (0, 0), BuildingBlock: UVAHIK_clean_linker_0, # of connection points: 2
#     Edge 48, Type (0, 0), BuildingBlock: UVAHIK_clean_linker_0, # of connection points: 2
#     Edge 49, Type (0, 0), BuildingBlock: UVAHIK_clean_linker_0, # of connection points: 2
#     Edge 50, Type (0, 0), BuildingBlock: UVAHIK_clean_linker_0, # of connection points: 2
#     Edge 51, Type (0, 0), BuildingBlock: UVAHIK_clean_linker_0, # of connection points: 2
#     Edge 52, Type (0, 0), BuildingBlock: UVAHIK_clean_linker_0, # of connection points: 2
#     Edge 53, Type (0, 0), BuildingBlock: UVAHIK_clean_linker_0, # of connection points: 2
#     Edge 54, Type (0, 0), BuildingBlock: UVAHIK_clean_linker_0, # of connection points: 2
#     Edge 55, Type (0, 0), BuildingBlock: UVAHIK_clean_linker_0, # of connection points: 2
#     Edge 56, Type (0, 0), BuildingBlock: UVAHIK_clean_linker_0, # of connection points: 2
#     Edge 57, Type (0, 0), BuildingBlock: UVAHIK_clean_linker_0, # of connection points: 2
#     Edge 58, Type (0, 0), BuildingBlock: UVAHIK_clean_linker_0, # of connection points: 2
#     Edge 59, Type (0, 0), BuildingBlock: UVAHIK_clean_linker_0, # of connection points: 2
#     Edge 60, Type (0, 0), BuildingBlock: UVAHIK_clean_linker_0, # of connection points: 2
#     Edge 61, Type (0, 0), BuildingBlock: UVAHIK_clean_linker_0, # of connection points: 2
#     Edge 62, Type (0, 0), BuildingBlock: UVAHIK_clean_linker_0, # of connection points: 2
#     Edge 63, Type (0, 0), BuildingBlock: UVAHIK_clean_linker_0, # of connection points: 2
#     Edge 64, Type (0, 0), BuildingBlock: UVAHIK_clean_linker_0, # of connection points: 2
#     Edge 65, Type (0, 0), BuildingBlock: UVAHIK_clean_linker_0, # of connection points: 2
#     Edge 66, Type (0, 0), BuildingBlock: UVAHIK_clean_linker_0, # of connection points: 2
#     Edge 67, Type (0, 0), BuildingBlock: UVAHIK_clean_linker_0, # of connection points: 2
#     Edge 68, Type (0, 0), BuildingBlock: UVAHIK_clean_linker_0, # of connection points: 2
#     Edge 69, Type (0, 0), BuildingBlock: UVAHIK_clean_linker_0, # of connection points: 2
#     Edge 70, Type (0, 0), BuildingBlock: UVAHIK_clean_linker_0, # of connection points: 2
#     Edge 71, Type (0, 0), BuildingBlock: UVAHIK_clean_linker_0, # of connection points: 2
# Relax obj value: 0.321
# Max RMSD: 0.249
# Mean RMSD: 0.249
data_MOF--net-xff--node1-HICVOG_clean_sbu_0--edge1-UVAHIK_clean_linker_0
_symmetry_space_group_name_H-M    P1
_symmetry_Int_Tables_number       1
_symmetry_cell_setting            triclinic
loop_
_symmetry_equiv_pos_as_xyz
'x, y, z'
_cell_length_a     37.656762
_cell_length_b     37.683448
_cell_length_c     84.017362
_cell_angle_alpha  89.948693
_cell_angle_beta   90.084981
_cell_angle_gamma 90.161802
loop_
_atom_site_label
_atom_site_type_symbol
_atom_site_fract_x
_atom_site_fract_y
_atom_site_fract_z
_atom_type_partial_charge
Zn0 Zn 0.2154 0.10354 0.04417 0.0
C1 C 0.23095 0.19213 0.01769 0.0
N2 N 0.21188 0.20664 0.0295 0.0
C3 C 0.20724 0.17934 0.0395 0.0
N4 N 0.22298 0.14945 0.0342 0.0
N5 N 0.2379 0.1573 0.02034 0.0
C6 C 0.22907 0.13779 0.97827 0.0
O7 O 0.20201 0.13211 0.9878 0.0
O8 O 0.23973 0.09745 0.06544 0.0
Zn9 Zn 0.26586 0.12522 0.00712 0.0
N10 N 0.16468 0.0993 0.04645 0.0
C11 C 0.11016 0.08845 0.03301 0.0
C12 C 0.14696 0.09162 0.03279 0.0
C13 C 0.1471 0.1045 0.0604 0.0
N14 N 0.09256 0.0932 0.0469 0.0
C15 C 0.10983 0.10132 0.06069 0.0
O16 O 0.25449 0.07186 0.00811 0.0
C17 C 0.24289 0.05011 0.0185 0.0
O18 O 0.22998 0.06087 0.03157 0.0
H19 H 0.16146 0.08805 0.0218 0.0
H20 H 0.16206 0.11044 0.07108 0.0
C21 C 0.33777 0.15263 0.00639 0.0
C22 C 0.3738 0.15262 0.01095 0.0
C23 C 0.36189 0.10513 0.02884 0.0
C24 C 0.32647 0.10509 0.02418 0.0
N25 N 0.31506 0.12889 0.01317 0.0
N26 N 0.38461 0.12871 0.02212 0.0
H27 H 0.32787 0.17043 -0.00268 0.0
C28 C 0.27236 0.10501 0.06748 0.0
O29 O 0.29015 0.12004 0.05585 0.0
O30 O 0.26021 0.13824 0.98411 0.0
H31 H 0.30815 0.08607 0.02922 0.0
H32 H 0.09567 0.08221 0.02224 0.0
H33 H 0.37137 0.08642 0.03763 0.0
Zn34 Zn 0.67042 0.46336 0.29195 0.0
C35 C 0.58354 0.49177 0.26665 0.0
N36 N 0.5676 0.47442 0.27867 0.0
C37 C 0.59512 0.46517 0.28785 0.0
N38 N 0.62635 0.47637 0.28192 0.0
N39 N 0.61937 0.49309 0.26841 0.0
C40 C 0.65035 0.47493 0.2276 0.0
O41 O 0.66229 0.45224 0.23821 0.0
O42 O 0.67178 0.48301 0.31415 0.0
Zn43 Zn 0.65406 0.51642 0.25488 0.0
N44 N 0.67023 0.41235 0.29254 0.0
C45 C 0.67182 0.35881 0.27764 0.0
C46 C 0.67259 0.39571 0.27825 0.0
C47 C 0.66673 0.39369 0.30632 0.0
N48 N 0.6687 0.34008 0.29137 0.0
C49 C 0.66593 0.35638 0.30578 0.0
O50 O 0.70657 0.50287 0.25763 0.0
C51 C 0.72756 0.49089 0.26825 0.0
O52 O 0.71597 0.47801 0.28123 0.0
H53 H 0.67498 0.41114 0.26744 0.0
H54 H 0.6651 0.40785 0.31749 0.0
C55 C 0.63048 0.58955 0.25162 0.0
C56 C 0.63404 0.6262 0.25442 0.0
C57 C 0.68219 0.61481 0.27194 0.0
C58 C 0.6787 0.57864 0.26911 0.0
N59 N 0.65324 0.56672 0.25893 0.0
N60 N 0.65998 0.63767 0.2645 0.0
H61 H 0.61063 0.57935 0.24348 0.0
C62 C 0.67071 0.51645 0.31599 0.0
O63 O 0.66868 0.53689 0.30335 0.0
O64 O 0.64262 0.50616 0.23206 0.0
H65 H 0.69654 0.56018 0.27482 0.0
H66 H 0.67379 0.34513 0.26637 0.0
H67 H 0.70251 0.62469 0.27992 0.0
Zn68 Zn 0.31984 0.91748 0.5429 0.0
C69 C 0.29824 0.83 0.51667 0.0
N70 N 0.31709 0.81469 0.52839 0.0
C71 C 0.32387 0.84199 0.53813 0.0
N72 N 0.30973 0.87256 0.53277 0.0
N73 N 0.29356 0.86525 0.51913 0.0
C74 C 0.29972 0.88913 0.47742 0.0
O75 O 0.32685 0.8944 0.487 0.0
O76 O 0.29752 0.92032 0.56477 0.0
Zn77 Zn 0.26493 0.89806 0.50671 0.0
N78 N 0.37081 0.91911 0.54448 0.0
C79 C 0.42493 0.92374 0.53011 0.0
C80 C 0.38801 0.92296 0.53039 0.0
C81 C 0.38896 0.91546 0.5584 0.0
N82 N 0.44315 0.92068 0.54398 0.0
C83 C 0.42634 0.9164 0.5582 0.0
O84 O 0.27663 0.95114 0.50839 0.0
C85 C 0.29071 0.97261 0.51828 0.0
O86 O 0.30576 0.96156 0.53087 0.0
H87 H 0.37299 0.92532 0.51945 0.0
H88 H 0.37442 0.91255 0.56943 0.0
C89 C 0.19075 0.87644 0.50592 0.0
C90 C 0.15573 0.87752 0.51169 0.0
C91 C 0.17505 0.91315 0.53335 0.0
C92 C 0.20961 0.91209 0.52758 0.0
N93 N 0.21671 0.89414 0.51395 0.0
N94 N 0.14896 0.89605 0.52526 0.0
H95 H 0.1972 0.86256 0.49503 0.0
C96 C 0.27268 0.94209 0.56781 0.0
O97 O 0.26166 0.96367 0.55658 0.0
O98 O 0.26876 0.88714 0.48336 0.0
H99 H 0.23071 0.92588 0.53375 0.0
H100 H 0.43905 0.92691 0.519 0.0
H101 H 0.16892 0.92759 0.54412 0.0
Zn102 Zn 0.85002 0.56042 0.79256 0.0
C103 C 0.93653 0.54235 0.76514 0.0
N104 N 0.95206 0.56133 0.77675 0.0
C105 C 0.92526 0.56672 0.78689 0.0
N106 N 0.89467 0.55182 0.78183 0.0
N107 N 0.90155 0.53637 0.768 0.0
C108 C 0.86827 0.54996 0.72696 0.0
O109 O 0.8556 0.57272 0.73733 0.0
O110 O 0.84951 0.53822 0.81433 0.0
Zn111 Zn 0.868 0.50995 0.7549 0.0
N112 N 0.84644 0.61125 0.79442 0.0
C113 C 0.83568 0.66565 0.78096 0.0
C114 C 0.83834 0.62884 0.78079 0.0
C115 C 0.85243 0.62894 0.80829 0.0
N116 N 0.8414 0.68339 0.79477 0.0
C117 C 0.84991 0.66623 0.80853 0.0
O118 O 0.81495 0.52091 0.75771 0.0
C119 C 0.79377 0.53186 0.76845 0.0
O120 O 0.80519 0.54471 0.78147 0.0
H121 H 0.83402 0.61423 0.76987 0.0
H122 H 0.85859 0.61403 0.81895 0.0
C123 C 0.89686 0.43862 0.75233 0.0
C124 C 0.89702 0.40205 0.75585 0.0
C125 C 0.8479 0.4104 0.77316 0.0
C126 C 0.84789 0.44644 0.76966 0.0
N127 N 0.87227 0.45988 0.75937 0.0
N128 N 0.87232 0.38916 0.7662 0.0
H129 H 0.91535 0.45003 0.74391 0.0
C130 C 0.85194 0.50475 0.81584 0.0
O131 O 0.85494 0.48508 0.80303 0.0
O132 O 0.87799 0.51957 0.73185 0.0
H133 H 0.82832 0.4636 0.775 0.0
H134 H 0.82912 0.68006 0.77022 0.0
H135 H 0.82861 0.39933 0.78132 0.0
Zn136 Zn 0.76858 0.90007 0.98768 0.0
C137 C 0.82023 0.84196 0.95442 0.0
N138 N 0.8152 0.81495 0.96452 0.0
C139 C 0.79838 0.83056 0.97673 0.0
N140 N 0.79342 0.86585 0.97428 0.0
N141 N 0.80719 0.87274 0.96008 0.0
C142 C 0.76089 0.91715 0.92685 0.0
O143 O 0.74229 0.90528 0.93896 0.0
O144 O 0.77536 0.88852 0.01081 0.0
Zn145 Zn 0.81788 0.91755 0.94992 0.0
N146 N 0.71861 0.89815 0.98265 0.0
C147 C 0.67002 0.92568 0.96946 0.0
C148 C 0.70609 0.9242 0.97297 0.0
C149 C 0.69653 0.87305 0.98884 0.0
N150 N 0.64791 0.90089 0.9757 0.0
C151 C 0.66001 0.87436 0.98528 0.0
O152 O 0.80598 0.96194 0.9619 0.0
C153 C 0.79417 0.9738 0.97499 0.0
O154 O 0.78216 0.95297 0.98568 0.0
H155 H 0.72397 0.94386 0.9681 0.0
H156 H 0.70724 0.85291 -0.00333 0.0
C157 C 0.88507 0.91152 0.9334 0.0
C158 C 0.9224 0.90932 0.93289 0.0
C159 C 0.92442 0.91949 0.96081 0.0
C160 C 0.88756 0.9217 0.96121 0.0
N161 N 0.86869 0.91769 0.94754 0.0
N162 N 0.94088 0.91335 0.94673 0.0
H163 H 0.86903 0.90735 0.92288 0.0
C164 C 0.80643 0.89039 0.01668 0.0
O165 O 0.83339 0.89615 0.0071 0.0
O166 O 0.79397 0.92284 0.92859 0.0
H167 H 0.8739 0.926 0.97235 0.0
H168 H 0.65963 0.94637 0.96185 0.0
H169 H 0.93985 0.92245 0.9716 0.0
Zn170 Zn 0.35017 0.55368 0.69814 0.0
C171 C 0.43721 0.53064 0.72431 0.0
N172 N 0.45321 0.54261 0.71106 0.0
C173 C 0.42563 0.54923 0.70145 0.0
N174 N 0.39433 0.54166 0.70833 0.0
N175 N 0.40131 0.52972 0.72283 0.0
C176 C 0.37028 0.54905 0.76491 0.0
O177 O 0.35833 0.57275 0.75476 0.0
O178 O 0.34884 0.53331 0.67608 0.0
Zn179 Zn 0.36664 0.50822 0.73693 0.0
N180 N 0.34913 0.60478 0.69694 0.0
C181 C 0.34264 0.65897 0.71107 0.0
C182 C 0.34376 0.62206 0.7109 0.0
C183 C 0.35378 0.62287 0.68306 0.0
N184 N 0.34713 0.67711 0.69726 0.0
C185 C 0.3529 0.66025 0.68316 0.0
O186 O 0.31426 0.52225 0.73411 0.0
C187 C 0.29326 0.53037 0.72276 0.0
O188 O 0.30483 0.53927 0.70912 0.0
H189 H 0.3403 0.60712 0.72179 0.0
H190 H 0.35766 0.60822 0.67214 0.0
C191 C 0.38997 0.43498 0.74047 0.0
C192 C 0.38691 0.39829 0.73757 0.0
C193 C 0.33855 0.40931 0.72011 0.0
C194 C 0.34172 0.44551 0.72296 0.0
N195 N 0.36698 0.45764 0.73319 0.0
N196 N 0.36105 0.38663 0.72749 0.0
H197 H 0.40979 0.44535 0.74858 0.0
C198 C 0.35103 0.49999 0.67402 0.0
O199 O 0.355 0.47926 0.68647 0.0
O200 O 0.37834 0.51839 0.75979 0.0
H201 H 0.32395 0.4638 0.71712 0.0
H202 H 0.33823 0.67313 0.72208 0.0
H203 H 0.31839 0.39928 0.7121 0.0
Zn204 Zn 0.75729 0.12299 0.48755 0.0
C205 C 0.70642 0.18166 0.45416 0.0
N206 N 0.70984 0.20825 0.46459 0.0
C207 C 0.72625 0.19255 0.47693 0.0
N208 N 0.73263 0.15761 0.47421 0.0
N209 N 0.72014 0.15104 0.45974 0.0
C210 C 0.76814 0.106 0.42651 0.0
O211 O 0.78653 0.11818 0.43862 0.0
O212 O 0.75364 0.1355 0.51071 0.0
Zn213 Zn 0.71092 0.106 0.44942 0.0
N214 N 0.8068 0.12191 0.48167 0.0
C215 C 0.85203 0.09188 0.4673 0.0
C216 C 0.81643 0.09633 0.47115 0.0
C217 C 0.83145 0.14361 0.48849 0.0
N218 N 0.87669 0.11314 0.4742 0.0
C219 C 0.86753 0.13905 0.4847 0.0
O220 O 0.72337 0.06189 0.4615 0.0
C221 C 0.7324 0.05001 0.47505 0.0
O222 O 0.74147 0.07079 0.48631 0.0
H223 H 0.79664 0.07922 0.46588 0.0
H224 H 0.82312 0.16332 0.49705 0.0
C225 C 0.64285 0.11126 0.4332 0.0
C226 C 0.60546 0.11049 0.4329 0.0
C227 C 0.60514 0.09597 0.46043 0.0
C228 C 0.64205 0.09686 0.46067 0.0
N229 N 0.66012 0.10423 0.44708 0.0
N230 N 0.58779 0.10266 0.44661 0.0
H231 H 0.65813 0.11692 0.4226 0.0
C232 C 0.72392 0.14143 0.51732 0.0
O233 O 0.69511 0.14285 0.5085 0.0
O234 O 0.73499 0.10056 0.42811 0.0
H235 H 0.65636 0.09188 0.47162 0.0
H236 H 0.86007 0.07154 0.45899 0.0
H237 H 0.59034 0.09003 0.47114 0.0
Zn238 Zn 0.1698 0.46609 0.19857 0.0
C239 C 0.08326 0.49635 0.22353 0.0
N240 N 0.06696 0.48627 0.21004 0.0
C241 C 0.09423 0.47728 0.20069 0.0
N242 N 0.12579 0.48165 0.20801 0.0
N243 N 0.11915 0.49404 0.22247 0.0
C244 C 0.13992 0.47752 0.2654 0.0
O245 O 0.13772 0.45007 0.25582 0.0
O246 O 0.17396 0.48519 0.17626 0.0
Zn247 Zn 0.15412 0.51663 0.23628 0.0
N248 N 0.16765 0.41508 0.19845 0.0
C249 C 0.16558 0.36239 0.21399 0.0
C250 C 0.1675 0.39922 0.21297 0.0
C251 C 0.16572 0.39571 0.18482 0.0
N252 N 0.16369 0.34295 0.20043 0.0
C253 C 0.16344 0.35849 0.18579 0.0
O254 O 0.2066 0.50479 0.23302 0.0
C255 C 0.22745 0.49219 0.22254 0.0
O256 O 0.21554 0.47889 0.2097 0.0
H257 H 0.16888 0.4152 0.22365 0.0
H258 H 0.1662 0.40922 0.17346 0.0
C259 C 0.12904 0.58853 0.23977 0.0
C260 C 0.12897 0.62499 0.23612 0.0
C261 C 0.17461 0.6153 0.21711 0.0
C262 C 0.17429 0.57925 0.22065 0.0
N263 N 0.15177 0.56666 0.23195 0.0
N264 N 0.15204 0.63722 0.22489 0.0
H265 H 0.1117 0.57753 0.24878 0.0
C266 C 0.16568 0.51726 0.17342 0.0
O267 O 0.15328 0.53704 0.185 0.0
O268 O 0.14452 0.50827 0.25952 0.0
H269 H 0.19194 0.56139 0.21448 0.0
H270 H 0.16558 0.34933 0.22546 0.0
H271 H 0.19251 0.6258 0.20821 0.0
Zn272 Zn 0.70903 0.60999 0.54108 0.0
C273 C 0.74451 0.69449 0.5163 0.0
N274 N 0.73191 0.71123 0.52921 0.0
C275 C 0.72249 0.68425 0.53865 0.0
N276 N 0.72857 0.65248 0.53189 0.0
N277 N 0.74255 0.65864 0.51769 0.0
C278 C 0.71563 0.63131 0.47638 0.0
O279 O 0.69146 0.62443 0.48722 0.0
O280 O 0.72845 0.60452 0.56322 0.0
Zn281 Zn 0.76097 0.62284 0.50322 0.0
N282 N 0.6586 0.6182 0.54197 0.0
C283 C 0.60808 0.64521 0.53004 0.0
C284 C 0.64351 0.63477 0.52928 0.0
C285 C 0.63955 0.61095 0.55531 0.0
N286 N 0.58912 0.63851 0.54345 0.0
C287 C 0.60381 0.62138 0.5561 0.0
O288 O 0.74608 0.57098 0.50691 0.0
C289 C 0.73155 0.55101 0.51729 0.0
O290 O 0.71818 0.56373 0.52992 0.0
H291 H 0.65922 0.64069 0.51884 0.0
H292 H 0.65244 0.59836 0.56534 0.0
C293 C 0.83308 0.64766 0.49841 0.0
C294 C 0.87023 0.64534 0.50012 0.0
C295 C 0.86287 0.59242 0.51518 0.0
C296 C 0.82621 0.59512 0.51364 0.0
N297 N 0.81204 0.62244 0.50521 0.0
N298 N 0.8839 0.61749 0.50844 0.0
H299 H 0.8209 0.66884 0.49165 0.0
C300 C 0.75835 0.58959 0.56521 0.0
O301 O 0.77553 0.57749 0.55276 0.0
O302 O 0.74791 0.63403 0.48064 0.0
H303 H 0.80917 0.57545 0.51907 0.0
H304 H 0.59584 0.65886 0.52013 0.0
H305 H 0.87456 0.57069 0.52176 0.0
Zn306 Zn 0.16271 0.01656 0.75716 0.0
C307 C 0.10387 0.96435 0.79 0.0
N308 N 0.0769 0.97095 0.78005 0.0
C309 C 0.09294 0.9885 0.76813 0.0
N310 N 0.12836 0.99234 0.77061 0.0
N311 N 0.13501 0.97705 0.78452 0.0
C312 C 0.17969 0.02056 0.81843 0.0
O313 O 0.17429 0.04054 0.80585 0.0
O314 O 0.15154 1.00747 0.73417 0.0
Zn315 Zn 0.17944 0.96563 0.79485 0.0
N316 N 0.16163 0.06681 0.7616 0.0
C317 C 0.18985 0.1143 0.77535 0.0
C318 C 0.18661 0.07828 0.77211 0.0
C319 C 0.13929 0.09 0.75424 0.0
N320 N 0.16798 0.1375 0.76792 0.0
C321 C 0.14261 0.12654 0.75744 0.0
O322 O 0.22463 0.97956 0.78359 0.0
C323 C 0.23618 0.99158 0.77044 0.0
O324 O 0.21517 1.00301 0.75971 0.0
H325 H 0.20425 0.05958 0.77778 0.0
H326 H 0.11999 0.08017 0.74575 0.0
C327 C 0.17373 0.89691 0.81027 0.0
C328 C 0.17393 0.85952 0.81033 0.0
C329 C 0.18762 0.86002 0.78272 0.0
C330 C 0.18714 0.89694 0.78271 0.0
N331 N 0.18039 0.9146 0.79645 0.0
N332 N 0.1811 0.84227 0.79646 0.0
H333 H 0.16869 0.91191 0.82099 0.0
C334 C 0.15894 0.97654 0.72917 0.0
O335 O 0.16997 0.95267 0.73945 0.0
O336 O 0.18199 0.98715 0.81669 0.0
H337 H 0.19204 0.91157 0.77184 0.0
H338 H 0.20973 0.12381 0.78363 0.0
H339 H 0.19307 0.84554 0.77189 0.0
Zn340 Zn 0.76775 0.40283 0.00154 0.0
C341 C 0.77051 0.34281 0.04091 0.0
N342 N 0.75878 0.31697 0.03131 0.0
C343 C 0.76126 0.33179 0.01679 0.0
N344 N 0.77366 0.36565 0.01753 0.0
N345 N 0.78016 0.37206 0.03275 0.0
C346 C 0.75407 0.42873 0.06618 0.0
O347 O 0.73612 0.43883 0.05355 0.0
O348 O 0.78437 0.38718 0.98003 0.0
Zn349 Zn 0.80384 0.41222 0.04222 0.0
N350 N 0.71708 0.41243 -0.00024 0.0
C351 C 0.67046 0.45472 0.00183 0.0
C352 C 0.70617 0.44598 0.00313 0.0
C353 C 0.69335 0.38703 0.99519 0.0
N354 N 0.64683 0.42947 -0.00264 0.0
C355 C 0.65697 0.39563 0.99402 0.0
O356 O 0.79648 0.45959 0.03179 0.0
C357 C 0.79435 0.47234 0.01782 0.0
O358 O 0.78951 0.45243 0.00572 0.0
H359 H 0.72492 0.46607 0.00674 0.0
H360 H 0.70293 0.36078 0.99235 0.0
C361 C 0.87422 0.41148 0.05565 0.0
C362 C 0.90997 0.40088 0.05642 0.0
C363 C 0.90401 0.37389 0.03103 0.0
C364 C 0.86853 0.38427 0.03037 0.0
N365 N 0.85427 0.40252 0.04274 0.0
N366 N 0.92378 0.38214 0.04405 0.0
H367 H 0.86192 0.42542 0.06545 0.0
C368 C 0.81672 0.39037 0.976 0.0
O369 O 0.84006 0.40045 0.98673 0.0
O370 O 0.78529 0.4167 0.06446 0.0
H371 H 0.85222 0.37719 0.02025 0.0
H372 H 0.66151 0.48135 0.00441 0.0
H373 H 0.91565 0.35902 0.02136 0.0
Zn374 Zn 0.36946 0.01387 0.25709 0.0
C375 C 0.42888 0.07115 0.2882 0.0
N376 N 0.45519 0.06522 0.27787 0.0
C377 C 0.43904 0.0461 0.26649 0.0
N378 N 0.40408 0.0406 0.26964 0.0
N379 N 0.39792 0.05646 0.28346 0.0
C380 C 0.35356 1.01235 0.31812 0.0
O381 O 0.35995 0.99221 0.30573 0.0
O382 O 0.37916 0.01917 0.23373 0.0
Zn383 Zn 0.35348 0.06693 0.29414 0.0
N384 N 0.37239 0.96438 0.26265 0.0
C385 C 0.34826 0.91663 0.27768 0.0
C386 C 0.34877 0.9524 0.27362 0.0
C387 C 0.3954 0.94193 0.25534 0.0
N388 N 0.37123 0.89419 0.27046 0.0
C389 C 0.39497 0.90565 0.25935 0.0
O390 O 0.30833 0.05192 0.28313 0.0
C391 C 0.29622 0.03836 0.27038 0.0
O392 O 0.31687 0.02614 0.25973 0.0
H393 H 0.33016 0.97048 0.27904 0.0
H394 H 0.41301 0.95223 0.24628 0.0
C395 C 0.3593 0.13582 0.30916 0.0
C396 C 0.35891 0.17321 0.30912 0.0
C397 C 0.34252 0.17231 0.28178 0.0
C398 C 0.34332 0.13539 0.28187 0.0
N399 N 0.35153 0.11793 0.29552 0.0
N400 N 0.35027 0.19026 0.29534 0.0
H401 H 0.3654 0.12096 0.31982 0.0
C402 C 0.38527 0.04918 0.22739 0.0
O403 O 0.38803 0.07737 0.2365 0.0
O404 O 0.35092 0.04569 0.31617 0.0
H405 H 0.3376 0.12061 0.27113 0.0
H406 H 0.32963 0.90669 0.28641 0.0
H407 H 0.33593 0.18663 0.27102 0.0
Zn408 Zn 0.26299 0.39804 0.48446 0.0
C409 C 0.32339 0.34283 0.45322 0.0
N410 N 0.31767 0.31562 0.46314 0.0
C411 C 0.29738 0.33031 0.47448 0.0
N412 N 0.29103 0.36523 0.4717 0.0
N413 N 0.3075 0.37289 0.45817 0.0
C414 C 0.26108 0.41368 0.42434 0.0
O415 O 0.24404 0.39614 0.43548 0.0
O416 O 0.26837 0.38628 0.50765 0.0
Zn417 Zn 0.31719 0.41835 0.44824 0.0
N418 N 0.21399 0.39452 0.47823 0.0
C419 C 0.16762 0.41771 0.46211 0.0
C420 C 0.20309 0.41741 0.46674 0.0
C421 C 0.19088 0.37179 0.48539 0.0
N422 N 0.14446 0.39514 0.46924 0.0
C423 C 0.15495 0.37198 0.48077 0.0
O424 O 0.30495 0.46189 0.46079 0.0
C425 C 0.28983 0.47271 0.47337 0.0
O426 O 0.27479 0.45108 0.48289 0.0
H427 H 0.22183 0.43553 0.46132 0.0
H428 H 0.20036 0.35453 0.49476 0.0
C429 C 0.38427 0.41289 0.43162 0.0
C430 C 0.42158 0.41052 0.43108 0.0
C431 C 0.42386 0.42314 0.4588 0.0
C432 C 0.387 0.42502 0.45926 0.0
N433 N 0.36799 0.41977 0.44572 0.0
N434 N 0.44019 0.41581 0.44481 0.0
H435 H 0.3681 0.40799 0.42122 0.0
C436 C 0.29958 0.38625 0.51343 0.0
O437 O 0.32667 0.39066 0.50377 0.0
O438 O 0.29267 0.42422 0.42695 0.0
H439 H 0.37343 0.42992 0.47039 0.0
H440 H 0.15848 0.43581 0.453 0.0
H441 H 0.43941 0.42707 0.46949 0.0
Zn442 Zn 0.86852 1.01083 0.23851 0.0
C443 C 0.93018 0.05904 0.20547 0.0
N444 N 0.95681 0.05199 0.21553 0.0
C445 C 0.94001 0.03608 0.2277 0.0
N446 N 0.90441 0.03368 0.22527 0.0
N447 N 0.8985 0.04825 0.21115 0.0
C448 C 0.84997 1.00973 0.1772 0.0
O449 O 0.85325 0.98903 0.18969 0.0
O450 O 0.87943 0.01663 0.26173 0.0
Zn451 Zn 0.85473 0.06337 0.20124 0.0
N452 N 0.86751 0.96094 0.23357 0.0
C453 C 0.83777 0.91408 0.22004 0.0
C454 C 0.84177 0.95003 0.22332 0.0
C455 C 0.88979 0.93732 0.24065 0.0
N456 N 0.85968 0.89043 0.22718 0.0
C457 C 0.88576 0.90092 0.2374 0.0
O458 O 0.80886 0.0516 0.21234 0.0
C459 C 0.79643 0.03928 0.22527 0.0
O460 O 0.8167 0.02639 0.23595 0.0
H461 H 0.82412 0.9691 0.2179 0.0
H462 H 0.90961 0.94674 0.24898 0.0
C463 C 0.84751 0.1327 0.18705 0.0
C464 C 0.85302 0.16959 0.18638 0.0
C465 C 0.87967 0.16763 0.21197 0.0
C466 C 0.87391 0.13114 0.21263 0.0
N467 N 0.85832 0.11437 0.20011 0.0
N468 N 0.86927 0.18597 0.19887 0.0
H469 H 0.83563 0.11853 0.17718 0.0
C470 C 0.88627 0.04666 0.26789 0.0
O471 O 0.88944 0.07456 0.25861 0.0
O472 O 0.85047 0.04318 0.17914 0.0
H473 H 0.88237 0.11611 0.22293 0.0
H474 H 0.81728 0.90498 0.21196 0.0
H475 H 0.89245 0.18129 0.22175 0.0
Zn476 Zn 0.2594 0.62595 0.98487 0.0
C477 C 0.19339 0.67881 0.95518 0.0
N478 N 0.19884 0.70607 0.9651 0.0
C479 C 0.21999 0.69188 0.97629 0.0
N480 N 0.2273 0.65726 0.97337 0.0
N481 N 0.21023 0.64916 0.96004 0.0
C482 C 0.24978 0.57712 0.92536 0.0
O483 O 0.25772 0.55316 0.93614 0.0
O484 O 0.25874 0.63657 0.00835 0.0
Zn485 Zn 0.20225 0.6035 0.94997 0.0
N486 N 0.30607 0.63151 0.97599 0.0
C487 C 0.34428 0.61508 0.95477 0.0
C488 C 0.31083 0.61514 0.96177 0.0
C489 C 0.33326 0.64858 0.98347 0.0
N490 N 0.37162 0.63152 0.96229 0.0
C491 C 0.36715 0.64849 0.97645 0.0
O492 O 0.21603 0.56011 0.96263 0.0
C493 C 0.23331 0.55024 0.97484 0.0
O494 O 0.24929 0.57265 0.98366 0.0
H495 H 0.28879 0.60178 0.95608 0.0
H496 H 0.32872 0.66117 0.99486 0.0
C497 C 0.13445 0.60603 0.93338 0.0
C498 C 0.09712 0.604 0.93284 0.0
C499 C 0.09646 0.58949 0.96038 0.0
C500 C 0.13331 0.59181 0.96086 0.0
N501 N 0.15154 0.59984 0.94739 0.0
N502 N 0.07931 0.59555 0.94644 0.0
H503 H 0.14985 0.61209 0.92286 0.0
C504 C 0.22889 0.64101 0.01511 0.0
O505 O 0.20001 0.64228 0.00633 0.0
O506 O 0.22677 0.60068 0.92857 0.0
H507 H 0.14744 0.58737 0.9719 0.0
H508 H 0.34856 0.60188 0.9435 0.0
H509 H 0.08154 0.583 0.97099 0.0
Zn510 Zn 0.68154 0.96812 0.7004 0.0
C511 C 0.59397 0.98018 0.72775 0.0
N512 N 0.57916 0.96225 0.71561 0.0
C513 C 0.60608 0.95931 0.70532 0.0
N514 N 0.63605 0.97482 0.71078 0.0
N515 N 0.62869 0.98795 0.72505 0.0
C516 C 0.64507 0.97886 0.76773 0.0
O517 O 0.64394 0.95082 0.75846 0.0
O518 O 0.6855 0.99239 0.67903 0.0
Zn519 Zn 0.66167 0.01502 0.73836 0.0
N520 N 0.68593 0.91749 0.69805 0.0
C521 C 0.69741 0.86317 0.71146 0.0
C522 C 0.69411 0.89991 0.71168 0.0
C523 C 0.68035 0.89983 0.68413 0.0
N524 N 0.6923 0.84548 0.6976 0.0
C525 C 0.68368 0.86261 0.68385 0.0
O526 O 0.71477 1.00332 0.73678 0.0
C527 C 0.73627 0.99394 0.72588 0.0
O528 O 0.72521 0.98292 0.71248 0.0
H529 H 0.69796 0.91447 0.72264 0.0
H530 H 0.67398 0.91469 0.67349 0.0
C531 C 0.63443 0.08674 0.73951 0.0
C532 C 0.63445 0.12291 0.73526 0.0
C533 C 0.68268 0.11226 0.7177 0.0
C534 C 0.68249 0.07659 0.72194 0.0
N535 N 0.65842 0.06451 0.7327 0.0
N536 N 0.6588 0.13448 0.72444 0.0
H537 H 0.61626 0.07637 0.74833 0.0
C538 C 0.67826 0.0251 0.67728 0.0
O539 O 0.66529 0.04297 0.68934 0.0
O540 O 0.65019 1.00926 0.76158 0.0
H541 H 0.70154 0.05864 0.71675 0.0
H542 H 0.70405 0.84878 0.7222 0.0
H543 H 0.70168 0.12227 0.70915 0.0
C544 C 0.14363 0.34638 0.15761 0.0
C545 C 0.1619 0.33574 0.17143 0.0
C546 C 0.14286 0.32445 0.14417 0.0
C547 C 0.19732 0.26105 0.12397 0.0
H548 H 0.11309 0.23059 0.10106 0.0
C549 C 0.2141 0.1768 0.06875 0.0
C550 C 0.19287 0.18471 0.05559 0.0
C551 C 0.20498 0.18861 0.08389 0.0
C552 C 0.13687 0.23913 0.10724 0.0
H553 H 0.19296 0.29354 0.1821 0.0
H554 H 0.19248 0.25589 0.15848 0.0
H555 H 0.10709 0.26616 0.12537 0.0
H556 H 0.1455 0.21193 0.04773 0.0
H557 H 0.13035 0.23485 0.07408 0.0
H558 H 0.22746 0.23643 0.10573 0.0
C559 C 0.17851 0.28098 0.15814 0.0
C560 C 0.13337 0.25936 0.12115 0.0
C561 C 0.17876 0.30253 0.17163 0.0
C562 C 0.16184 0.20462 0.05783 0.0
C563 C 0.15314 0.2176 0.07295 0.0
C564 C 0.20087 0.24158 0.11 0.0
C565 C 0.16081 0.29184 0.14427 0.0
C566 C 0.16364 0.27033 0.12963 0.0
C567 C 0.17541 0.2108 0.0861 0.0
C568 C 0.17076 0.23012 0.10144 0.0
H569 H 0.12988 0.37154 0.15717 0.0
H570 H 0.1292 0.33343 0.13355 0.0
H571 H 0.22107 0.26969 0.13018 0.0
H572 H 0.23958 0.16463 0.06713 0.0
H573 H 0.22256 0.18223 0.09369 0.0
C574 C 0.42739 0.41074 0.40111 0.0
C575 C 0.44132 0.40245 0.41621 0.0
C576 C 0.44801 0.40638 0.38744 0.0
C577 C 0.54135 0.40756 0.37548 0.0
H578 H 0.50187 0.38446 0.33412 0.0
C579 C 0.59195 0.46731 0.31722 0.0
C580 C 0.59024 0.44738 0.3032 0.0
C581 C 0.58033 0.4528 0.33158 0.0
C582 C 0.51363 0.3903 0.3456 0.0
H583 H 0.48723 0.38102 0.42855 0.0
H584 H 0.52308 0.37364 0.4047 0.0
H585 H 0.46677 0.37375 0.35801 0.0
H586 H 0.57533 0.39694 0.29289 0.0
H587 H 0.55476 0.37123 0.3181 0.0
H588 H 0.58785 0.42492 0.36302 0.0
C589 C 0.49639 0.38394 0.4035 0.0
C590 C 0.49331 0.38457 0.35927 0.0
C591 C 0.47578 0.38822 0.41716 0.0
C592 C 0.57742 0.41245 0.30371 0.0
C593 C 0.56548 0.39793 0.31807 0.0
C594 C 0.56164 0.4133 0.36181 0.0
C595 C 0.48306 0.39378 0.38852 0.0
C596 C 0.5065 0.39422 0.37431 0.0
C597 C 0.56593 0.41833 0.33208 0.0
C598 C 0.54754 0.40585 0.34668 0.0
H599 H 0.40128 0.42225 0.3998 0.0
H600 H 0.43707 0.41467 0.37611 0.0
H601 H 0.55228 0.41546 0.38687 0.0
H602 H 0.59998 0.49489 0.31689 0.0
H603 H 0.58031 0.46955 0.34205 0.0
C604 C 0.3717 0.81762 0.55528 0.0
C605 C 0.33976 0.83648 0.55392 0.0
C606 C 0.3824 0.80394 0.57 0.0
C607 C 0.36657 0.80477 0.61329 0.0
H608 H 0.37372 0.70236 0.61019 0.0
C609 C 0.34002 0.71461 0.66717 0.0
C610 C 0.35741 0.68181 0.66849 0.0
C611 C 0.34421 0.73569 0.65363 0.0
C612 C 0.37267 0.73094 0.61137 0.0
H613 H 0.29357 0.85494 0.56664 0.0
H614 H 0.31314 0.83309 0.59253 0.0
H615 H 0.37273 0.73806 0.58609 0.0
H616 H 0.39382 0.64599 0.65669 0.0
H617 H 0.40211 0.68316 0.63329 0.0
H618 H 0.36643 0.79786 0.63854 0.0
C619 C 0.33039 0.82962 0.58235 0.0
C620 C 0.37206 0.75142 0.5975 0.0
C621 C 0.31946 0.84277 0.56758 0.0
C622 C 0.37958 0.67081 0.65599 0.0
C623 C 0.38428 0.69221 0.64253 0.0
C624 C 0.36777 0.78435 0.62719 0.0
C625 C 0.36125 0.80892 0.58357 0.0
C626 C 0.36806 0.78841 0.59831 0.0
C627 C 0.36648 0.7249 0.64111 0.0
C628 C 0.36974 0.74703 0.62642 0.0
H629 H 0.38732 0.81177 0.54479 0.0
H630 H 0.40626 0.78801 0.57063 0.0
H631 H 0.3637 0.8333 0.61422 0.0
H632 H 0.32256 0.7238 0.67653 0.0
H633 H 0.32931 0.76016 0.65289 0.0
C634 C 0.0443 0.59175 0.9158 0.0
C635 C 0.07655 0.60988 0.918 0.0
C636 C 0.02417 0.59684 0.90206 0.0
C637 C 0.03195 0.62717 0.86042 0.0
H638 H 0.92968 0.61442 0.86157 0.0
C639 C 0.94793 0.61687 0.8032 0.0
C640 C 0.93104 0.58366 0.80241 0.0
C641 C 0.961 0.62959 0.81771 0.0
C642 C 0.95816 0.61843 0.86111 0.0
H643 H 0.11231 0.64873 0.90763 0.0
H644 H 0.07685 0.65816 0.88369 0.0
H645 H 0.96285 0.61987 0.88646 0.0
H646 H 0.91654 0.53699 0.81581 0.0
H647 H 0.93642 0.56018 0.84139 0.0
H648 H 0.02705 0.62526 0.83503 0.0
C649 C 0.06752 0.63927 0.89247 0.0
C650 C 0.97726 0.62124 0.87533 0.0
C651 C 0.08794 0.63382 0.9062 0.0
C652 C 0.92662 0.5638 0.81635 0.0
C653 C 0.93884 0.57681 0.83091 0.0
C654 C 1.01275 0.62491 0.8462 0.0
C655 C 0.03542 0.62066 0.89019 0.0
C656 C 0.01458 0.62415 0.87517 0.0
C657 C 0.95712 0.6093 0.83164 0.0
C658 C 0.97589 0.61923 0.84645 0.0
H659 H 0.03484 0.57295 0.92461 0.0
H660 H 1.00015 0.5813 0.90061 0.0
H661 H 0.0606 0.62914 0.85977 0.0
H662 H 0.9525 0.63216 0.79246 0.0
H663 H 0.97521 0.65461 0.81798 0.0
C664 C 0.83673 0.7193 0.8252 0.0
C665 C 0.85534 0.68737 0.82325 0.0
C666 C 0.84149 0.73995 0.83882 0.0
C667 C 0.87342 0.73455 0.88047 0.0
H668 H 0.85976 0.83649 0.87851 0.0
C669 C 0.86869 0.81916 0.93724 0.0
C670 C 0.83593 0.83654 0.93862 0.0
C671 C 0.88001 0.8063 0.92249 0.0
C672 C 0.86398 0.8081 0.87919 0.0
H673 H 0.89455 0.65269 0.83396 0.0
H674 H 0.90363 0.68912 0.85756 0.0
H675 H 0.86321 0.80228 0.8539 0.0
H676 H 0.78884 0.85271 0.92595 0.0
H677 H 0.8093 0.83252 0.9 0.0
H678 H 0.87392 0.74056 0.90581 0.0
C679 C 0.88453 0.69779 0.84874 0.0
C680 C 0.86562 0.78838 0.86513 0.0
C681 C 0.87934 0.67681 0.83518 0.0
C682 C 0.81525 0.84193 0.92498 0.0
C683 C 0.82675 0.82965 0.91019 0.0
C684 C 0.87234 0.75437 0.89452 0.0
C685 C 0.8655 0.72959 0.85078 0.0
C686 C 0.8691 0.75116 0.86559 0.0
C687 C 0.85865 0.81063 0.9089 0.0
C688 C 0.86653 0.79115 0.89402 0.0
H689 H 0.81784 0.72811 0.81631 0.0
H690 H 0.82562 0.7637 0.84008 0.0
H691 H 0.87577 0.70599 0.88139 0.0
H692 H 0.88469 0.81402 0.94772 0.0
H693 H 0.90465 0.79161 0.92181 0.0
C694 C 0.43455 0.53183 0.67349 0.0
C695 C 0.43053 0.55892 0.68474 0.0
C696 C 0.44774 0.53953 0.65837 0.0
C697 C 0.46543 0.60581 0.62828 0.0
H698 H 0.55532 0.55752 0.62251 0.0
C699 C 0.56089 0.64164 0.57674 0.0
C700 C 0.58217 0.61464 0.5704 0.0
C701 C 0.54019 0.63534 0.59026 0.0
C702 C 0.52996 0.57072 0.62366 0.0
H703 H 0.4365 0.61509 0.68929 0.0
H704 H 0.45937 0.62883 0.66258 0.0
H705 H 0.51976 0.54527 0.64598 0.0
H706 H 0.59759 0.55959 0.57267 0.0
H707 H 0.56026 0.54786 0.59569 0.0
H708 H 0.47483 0.63047 0.60574 0.0
C709 C 0.45164 0.60182 0.66538 0.0
C710 C 0.50974 0.56381 0.63719 0.0
C711 C 0.4386 0.59404 0.68057 0.0
C712 C 0.58189 0.58103 0.57755 0.0
C713 C 0.56057 0.57445 0.59081 0.0
C714 C 0.48531 0.61218 0.6145 0.0
C715 C 0.45728 0.57443 0.65436 0.0
C716 C 0.47741 0.58131 0.63963 0.0
C717 C 0.53967 0.6016 0.59748 0.0
C718 C 0.51796 0.59476 0.61202 0.0
H719 H 0.42949 0.50443 0.67671 0.0
H720 H 0.45213 0.51801 0.65007 0.0
H721 H 0.44053 0.61961 0.63 0.0
H722 H 0.56081 0.66783 0.57141 0.0
H723 H 0.52507 0.65714 0.59514 0.0
C724 C 0.7164 0.18115 0.42508 0.0
C725 C 0.69372 0.18786 0.43785 0.0
C726 C 0.70816 0.19322 0.40984 0.0
C727 C 0.63934 0.24038 0.38544 0.0
H728 H 0.72328 0.27405 0.36329 0.0
C729 C 0.64445 0.34522 0.33381 0.0
C730 C 0.66389 0.33436 0.32037 0.0
C731 C 0.64372 0.32416 0.34755 0.0
C732 C 0.69963 0.26456 0.36929 0.0
H733 H 0.64493 0.21337 0.44501 0.0
H734 H 0.6312 0.23661 0.41853 0.0
H735 H 0.72985 0.24203 0.38813 0.0
H736 H 0.69702 0.2926 0.31072 0.0
H737 H 0.69654 0.25656 0.33483 0.0
H738 H 0.60935 0.26516 0.36668 0.0
C739 C 0.65451 0.22017 0.41999 0.0
C740 C 0.7033 0.24581 0.38348 0.0
C741 C 0.66237 0.20701 0.43518 0.0
C742 C 0.68186 0.30175 0.32086 0.0
C743 C 0.68164 0.28111 0.33464 0.0
C744 C 0.63568 0.25987 0.37131 0.0
C745 C 0.67793 0.21431 0.4072 0.0
C746 C 0.67328 0.23319 0.39174 0.0
C747 C 0.66288 0.29227 0.34814 0.0
C748 C 0.66587 0.2719 0.36311 0.0
H749 H 0.74202 0.1694 0.4271 0.0
H750 H 0.72668 0.18766 0.40033 0.0
H751 H 0.61564 0.23088 0.39137 0.0
H752 H 0.62988 0.36992 0.33375 0.0
H753 H 0.62919 0.33333 0.35787 0.0
C754 C 0.95581 0.3828 0.07638 0.0
C755 C 0.93245 0.40866 0.07047 0.0
C756 C 0.977 0.38976 0.08972 0.0
C757 C 0.98523 0.4531 0.12373 0.0
H758 H 0.07796 0.40975 0.12867 0.0
C759 C 0.07924 0.49607 0.17342 0.0
C760 C 0.08891 0.46866 0.18383 0.0
C761 C 0.06521 0.48833 0.15844 0.0
C762 C 0.0521 0.42197 0.1274 0.0
H763 H 0.91409 0.46265 0.07342 0.0
H764 H 0.95196 0.47549 0.09619 0.0
H765 H 0.0429 0.39788 0.1047 0.0
H766 H 0.09139 0.41179 0.187 0.0
H767 H 0.06747 0.398 0.16045 0.0
H768 H 0.99503 0.47794 0.14621 0.0
C769 C 0.95299 0.44919 0.09105 0.0
C770 C 0.03181 0.41503 0.11374 0.0
C771 C 0.93129 0.44194 0.07793 0.0
C772 C 0.0855 0.43329 0.17886 0.0
C773 C 0.0716 0.42547 0.16377 0.0
C774 C 1.00576 0.46054 0.13716 0.0
C775 C 0.97591 0.42308 0.09728 0.0
C776 C 0.99801 0.4305 0.11171 0.0
C777 C 0.06023 0.45296 0.15367 0.0
C778 C 0.03935 0.4451 0.13913 0.0
H779 H 0.95715 0.35685 0.07087 0.0
H780 H 0.99372 0.36871 0.09424 0.0
H781 H 0.95905 0.46476 0.12294 0.0
H782 H 0.08075 0.52351 0.17721 0.0
H783 H 0.05668 0.50998 0.15086 0.0
C784 C 0.69966 0.8106 0.66711 0.0
C785 C 0.67938 0.84149 0.66908 0.0
C786 C 0.69607 0.78983 0.65348 0.0
C787 C 0.66547 0.79374 0.61177 0.0
H788 H 0.68141 0.69216 0.6141 0.0
C789 C 0.67419 0.70917 0.55516 0.0
C790 C 0.70608 0.69015 0.55424 0.0
C791 C 0.66257 0.72265 0.56973 0.0
C792 C 0.67669 0.72045 0.61329 0.0
H793 H 0.63832 0.87416 0.65844 0.0
H794 H 0.63166 0.83756 0.63463 0.0
H795 H 0.67609 0.72656 0.63858 0.0
H796 H 0.75099 0.67035 0.56755 0.0
H797 H 0.73033 0.69295 0.59317 0.0
H798 H 0.66652 0.78755 0.58645 0.0
C799 C 0.65103 0.82985 0.64352 0.0
C800 C 0.67387 0.74026 0.62729 0.0
C801 C 0.6549 0.85092 0.65715 0.0
C802 C 0.72552 0.68356 0.56814 0.0
C803 C 0.71381 0.69679 0.58275 0.0
C804 C 0.66788 0.77385 0.59778 0.0
C805 C 0.6717 0.79906 0.64149 0.0
C806 C 0.66939 0.77735 0.62671 0.0
C807 C 0.68284 0.7175 0.58359 0.0
C808 C 0.67451 0.73718 0.5984 0.0
H809 H 0.71891 0.8027 0.67602 0.0
H810 H 0.71309 0.7669 0.65222 0.0
H811 H 0.66238 0.82222 0.61081 0.0
H812 H 0.6592 0.71508 0.54446 0.0
H813 H 0.63856 0.7384 0.57005 0.0
C814 C 0.0821 0.91332 0.80585 0.0
C815 C 0.09816 0.94691 0.80539 0.0
C816 C 0.06833 0.90005 0.8201 0.0
C817 C 0.01523 0.89665 0.84719 0.0
H818 H 0.05482 0.91616 0.8889 0.0
C819 C 0.92904 0.91443 0.90308 0.0
C820 C 0.94233 0.90317 0.9179 0.0
C821 C 0.94987 0.91177 0.88938 0.0
C822 C 0.04354 0.90995 0.87736 0.0
H823 H 0.11176 0.99333 0.81917 0.0
H824 H 0.08915 0.96991 0.84422 0.0
H825 H 0.09141 0.92472 0.86527 0.0
H826 H 0.98738 0.87874 0.9297 0.0
H827 H 0.02354 0.87406 0.90579 0.0
H828 H 0.96719 0.88243 0.85924 0.0
C829 C 0.08795 0.95324 0.83374 0.0
C830 C 0.06443 0.91519 0.86382 0.0
C831 C 0.10145 0.96654 0.81945 0.0
C832 C 0.97643 0.88805 0.91853 0.0
C833 C 0.99722 0.8854 0.90483 0.0
C834 C 0.99433 0.89144 0.86073 0.0
C835 C 0.07016 0.92036 0.83412 0.0
C836 C 0.05021 0.90949 0.84857 0.0
C837 C 0.98447 0.89788 0.89015 0.0
C838 C 1.00794 0.89891 0.87594 0.0
H839 H 0.07872 0.89808 0.79502 0.0
H840 H 0.05513 0.87448 0.82004 0.0
H841 H 1.00332 0.89229 0.83562 0.0
H842 H 0.90325 0.92684 0.90209 0.0
H843 H 0.93941 0.92214 0.8783 0.0
C844 C 0.86397 0.21837 0.1669 0.0
C845 C 0.84205 0.19085 0.17245 0.0
C846 C 0.85377 0.23885 0.15381 0.0
C847 C 0.79155 0.23786 0.11942 0.0
H848 H 0.81971 0.33668 0.11582 0.0
C849 C 0.74657 0.32306 0.06685 0.0
C850 C 0.775 0.33704 0.05808 0.0
C851 C 0.75192 0.31057 0.08231 0.0
C852 C 0.81163 0.30914 0.11674 0.0
H853 H 0.79158 0.16409 0.16916 0.0
H854 H 0.77309 0.20048 0.14669 0.0
H855 H 0.83409 0.30348 0.14 0.0
H856 H 0.83121 0.34851 0.05839 0.0
H857 H 0.84052 0.32808 0.08569 0.0
H858 H 0.76874 0.24379 0.09624 0.0
C859 C 0.79884 0.20552 0.15199 0.0
C860 C 0.82007 0.28998 0.13051 0.0
C861 C 0.80936 0.18463 0.16489 0.0
C862 C 0.80862 0.33956 0.06518 0.0
C863 C 0.81396 0.32744 0.08073 0.0
C864 C 0.78264 0.25716 0.10583 0.0
C865 C 0.82103 0.23273 0.14616 0.0
C866 C 0.81052 0.25392 0.13194 0.0
C867 C 0.78587 0.31179 0.08921 0.0
C868 C 0.79291 0.29282 0.10429 0.0
H869 H 0.88936 0.22364 0.17251 0.0
H870 H 0.87191 0.25904 0.14953 0.0
H871 H 0.7844 0.21004 0.11985 0.0
H872 H 0.72051 0.3204 0.06149 0.0
H873 H 0.72986 0.29865 0.08864 0.0
C874 C 0.55192 0.09927 0.41622 0.0
C875 C 0.58465 0.11668 0.41816 0.0
C876 C 0.53165 0.10435 0.40253 0.0
C877 C 0.53956 0.13216 0.36062 0.0
H878 H 0.43701 0.12236 0.36223 0.0
C879 C 0.45443 0.12097 0.30379 0.0
C880 C 0.43554 0.08881 0.30349 0.0
C881 C 0.46854 0.13383 0.31807 0.0
C882 C 0.46559 0.12549 0.36164 0.0
H883 H 0.62109 0.15441 0.40741 0.0
H884 H 0.58539 0.16373 0.3835 0.0
H885 H 0.4707 0.12854 0.38693 0.0
H886 H 0.4182 0.04416 0.31757 0.0
H887 H 0.44014 0.0677 0.34275 0.0
H888 H 0.53426 0.12864 0.33529 0.0
C889 C 0.5758 0.14542 0.39247 0.0
C890 C 0.48496 0.12876 0.37575 0.0
C891 C 0.59635 0.14001 0.40617 0.0
C892 C 0.43004 0.07026 0.31771 0.0
C893 C 0.44342 0.08341 0.33204 0.0
C894 C 0.5201 0.12942 0.3465 0.0
C895 C 0.54326 0.12743 0.39044 0.0
C896 C 0.52233 0.13065 0.37545 0.0
C897 C 0.46374 0.11473 0.33227 0.0
C898 C 0.4831 0.12477 0.34692 0.0
H899 H 0.54221 0.08096 0.42517 0.0
H900 H 0.50727 0.08932 0.40127 0.0
H901 H 0.56825 0.1333 0.35989 0.0
H902 H 0.45976 0.13524 0.29284 0.0
H903 H 0.48417 0.158 0.31796 0.0
C904 C 0.35154 0.22825 0.3253 0.0
C905 C 0.36693 0.19457 0.32355 0.0
C906 C 0.35835 0.24876 0.33879 0.0
C907 C 0.3878 0.23986 0.38058 0.0
H908 H 0.38015 0.34248 0.37925 0.0
C909 C 0.37543 0.32111 0.43788 0.0
C910 C 0.34229 0.3381 0.43809 0.0
C911 C 0.39005 0.30959 0.42349 0.0
C912 C 0.38287 0.31388 0.37975 0.0
H913 H 0.40293 0.15683 0.33443 0.0
H914 H 0.41565 0.19291 0.35773 0.0
H915 H 0.38459 0.30908 0.35441 0.0
H916 H 0.29804 0.35484 0.42368 0.0
H917 H 0.32419 0.33705 0.39848 0.0
H918 H 0.38539 0.24478 0.40592 0.0
C919 C 0.39743 0.20309 0.34887 0.0
C920 C 0.38503 0.29466 0.36556 0.0
C921 C 0.39014 0.18232 0.33546 0.0
C922 C 0.32461 0.34438 0.42371 0.0
C923 C 0.33943 0.33354 0.40931 0.0
C924 C 0.38621 0.25913 0.39475 0.0
C925 C 0.38126 0.23645 0.35082 0.0
C926 C 0.38591 0.25727 0.36577 0.0
C927 C 0.37169 0.31495 0.40912 0.0
C928 C 0.38229 0.29615 0.39444 0.0
H929 H 0.33341 0.23851 0.31641 0.0
H930 H 0.34468 0.27386 0.33997 0.0
H931 H 0.38817 0.21118 0.3813 0.0
H932 H 0.38917 0.3153 0.44891 0.0
H933 H 0.41482 0.29503 0.42364 0.0
C934 C 0.9311 0.05613 0.17599 0.0
C935 C 0.93648 0.07573 0.18993 0.0
C936 C 0.94436 0.06838 0.16146 0.0
C937 C 0.02073 0.11586 0.14677 0.0
H938 H 0.97381 0.10785 0.10585 0.0
C939 C 0.09836 0.12955 0.08747 0.0
C940 C 0.0888 0.10528 0.07549 0.0
C941 C 0.07729 0.13319 0.10111 0.0
C942 C 0.98742 0.11002 0.11717 0.0
H943 H 0.95992 0.12328 0.19987 0.0
H944 H 0.98382 0.14465 0.17444 0.0
H945 H 0.93918 0.10194 0.13023 0.0
H946 H 0.04985 0.06579 0.06847 0.0
H947 H 0.01408 0.07117 0.09228 0.0
H948 H 0.06928 0.12178 0.13385 0.0
C949 C 0.96857 0.12024 0.17466 0.0
C950 C 0.96747 0.10689 0.13111 0.0
C951 C 0.95479 0.10817 0.18914 0.0
C952 C 0.05783 0.0849 0.07742 0.0
C953 C 0.03708 0.08825 0.09106 0.0
C954 C 0.04079 0.11854 0.13282 0.0
C955 C 0.96426 0.09997 0.16076 0.0
C956 C 0.98406 0.10896 0.14605 0.0
C957 C 0.04638 0.11248 0.10308 0.0
C958 C 0.02454 0.11464 0.11784 0.0
H959 H 0.91927 0.02999 0.17651 0.0
H960 H 0.94134 0.05178 0.15103 0.0
H961 H 0.0343 0.11717 0.15813 0.0
H962 H 0.12168 0.14618 0.08621 0.0
H963 H 0.08507 0.15245 0.11003 0.0
C964 C 0.1457 0.70388 0.93814 0.0
C965 C 0.17726 0.68435 0.93943 0.0
C966 C 0.13519 0.71793 0.92346 0.0
C967 C 0.15014 0.7164 0.88017 0.0
H968 H 0.14708 0.81908 0.88301 0.0
C969 C 0.18293 0.80468 0.82652 0.0
C970 C 0.16724 0.83828 0.82494 0.0
C971 C 0.17683 0.7839 0.84 0.0
C972 C 0.14697 0.79046 0.88191 0.0
H973 H 0.223 0.66523 0.92659 0.0
H974 H 0.20351 0.68728 0.90075 0.0
H975 H 0.1467 0.78364 0.90721 0.0
H976 H 0.13185 0.87586 0.83627 0.0
H977 H 0.12027 0.83926 0.85956 0.0
H978 H 0.15061 0.72301 0.8549 0.0
C979 C 0.18646 0.69112 0.91098 0.0
C980 C 0.14679 0.77014 0.89583 0.0
C981 C 0.19728 0.67772 0.92571 0.0
C982 C 0.14478 0.85038 0.83713 0.0
C983 C 0.13818 0.8293 0.85055 0.0
C984 C 0.14974 0.73668 0.86622 0.0
C985 C 0.15606 0.7125 0.90984 0.0
C986 C 0.14947 0.73301 0.8951 0.0
C987 C 0.15432 0.79582 0.85222 0.0
C988 C 0.14941 0.77406 0.86691 0.0
H989 H 0.13031 0.71006 0.94866 0.0
H990 H 0.11169 0.7344 0.92288 0.0
H991 H 0.15191 0.68777 0.87931 0.0
H992 H 0.20058 0.79459 0.81742 0.0
H993 H 0.19053 0.75877 0.84096 0.0
C994 C 0.47921 0.93516 0.57387 0.0
C995 C 0.44791 0.9149 0.57294 0.0
C996 C 0.49969 0.93518 0.58769 0.0
C997 C 0.52438 0.88731 0.62339 0.0
H998 H 0.53937 0.98103 0.64118 0.0
C999 C 0.58227 0.91387 0.68659 0.0
C1000 C 0.60029 0.94605 0.68906 0.0
C1001 C 0.56822 0.90564 0.67158 0.0
C1002 C 0.53632 0.95466 0.63625 0.0
H1003 H 0.41453 0.87715 0.58554 0.0
H1004 H 0.45087 0.87708 0.60986 0.0
H1005 H 0.50527 0.97449 0.61689 0.0
H1006 H 0.61624 0.99515 0.67811 0.0
H1007 H 0.59618 0.9795 0.65163 0.0
H1008 H 0.55622 0.86752 0.64265 0.0
C1009 C 0.4591 0.89319 0.59982 0.0
C1010 C 0.51636 0.95097 0.62239 0.0
C1011 C 0.43815 0.89358 0.58601 0.0
C1012 C 0.60532 0.96906 0.67622 0.0
C1013 C 0.59225 0.96057 0.66117 0.0
C1014 C 0.545 0.89104 0.63722 0.0
C1015 C 0.48971 0.91449 0.60083 0.0
C1016 C 0.51022 0.91736 0.61581 0.0
C1017 C 0.57193 0.92961 0.65881 0.0
C1018 C 0.55133 0.92487 0.64379 0.0
H1019 H 0.48748 0.95178 0.56401 0.0
H1020 H 0.52328 0.95169 0.58817 0.0
H1021 H 0.52008 0.8611 0.61844 0.0
H1022 H 0.5772 0.89611 0.69648 0.0
H1023 H 0.55252 0.8817 0.67031 0.0
C1024 C 0.24693 0.98815 0.0292 0.0
C1025 C 0.24622 1.01111 0.01599 0.0
C1026 C 0.25032 0.95146 0.02723 0.0
C1027 C 0.27224 0.88121 -0.00301 0.0
H1028 H 0.22428 0.82043 0.0274 0.0
C1029 C 0.26843 0.7301 0.98678 0.0
C1030 C 0.23474 0.7148 0.98888 0.0
C1031 C 0.27615 0.76366 0.99323 0.0
C1032 C 0.23777 0.83685 0.01871 0.0
H1033 H 0.24864 0.01324 0.99027 0.0
H1034 H 0.25275 0.94902 0.98669 0.0
H1035 H 0.22274 0.88413 0.03088 0.0
H1036 H 0.18386 0.72103 0.00035 0.0
H1037 H 0.19691 0.77869 0.01163 0.0
H1038 H 0.28498 0.83389 0.9842 0.0
C1039 C 0.25182 0.95939 -0.00131 0.0
C1040 C 0.23734 0.87371 0.02084 0.0
C1041 C 0.24913 0.99633 0.0007 0.0
C1042 C 0.21037 0.73183 -0.00112 0.0
C1043 C 0.21789 0.76528 0.00525 0.0
C1044 C 0.27217 0.84431 0.99472 0.0
C1045 C 0.25237 0.93628 0.01194 0.0
C1046 C 0.25422 0.89664 0.00993 0.0
C1047 C 0.25016 0.78266 0.00179 0.0
C1048 C 0.25445 0.8215 0.00541 0.0
H1049 H 0.24538 0.99859 0.04119 0.0
H1050 H 0.25163 0.93509 0.0378 0.0
H1051 H 0.28623 0.8976 0.98846 0.0
H1052 H 0.2874 0.71794 0.9788 0.0
H1053 H 0.30167 0.77561 0.99064 0.0
C1054 C 0.04974 0.47694 0.24701 0.0
C1055 C 0.06176 0.50532 0.23759 0.0
C1056 C 0.01606 0.47798 0.25406 0.0
C1057 C 0.93742 0.53141 0.26424 0.0
H1058 H 0.88376 0.45353 0.24574 0.0
C1059 C 0.78948 0.49638 0.27918 0.0
C1060 C 0.76667 0.49367 0.26593 0.0
C1061 C 0.8263 0.49967 0.27717 0.0
C1062 C 0.89839 0.47536 0.25101 0.0
H1063 H 0.04942 0.55826 0.22942 0.0
H1064 H 0.99151 0.56107 0.24256 0.0
H1065 H 0.94815 0.45657 0.24204 0.0
H1066 H 0.76487 0.49206 0.24017 0.0
H1067 H 0.82949 0.49632 0.23669 0.0
H1068 H 0.8874 0.54988 0.27336 0.0
C1069 C 1.0079 0.53782 0.24435 0.0
C1070 C 0.93528 0.47695 0.24903 0.0
C1071 C 0.04136 0.53647 0.23704 0.0
C1072 C 0.78167 0.4941 0.25061 0.0
C1073 C 0.81862 0.49647 0.24862 0.0
C1074 C 0.9005 0.52933 0.26656 0.0
C1075 C 0.99399 0.5077 0.25205 0.0
C1076 C 0.95523 0.5051 0.25551 0.0
C1077 C 0.84131 0.49946 0.26188 0.0
C1078 C 0.88057 0.50149 0.2598 0.0
H1079 H 0.06432 0.45219 0.24723 0.0
H1080 H 1.00614 0.45447 0.26003 0.0
H1081 H 0.95205 0.55352 0.26926 0.0
H1082 H 0.77882 0.49643 0.29115 0.0
H1083 H 0.84313 0.50175 0.2876 0.0
C1084 C 0.25138 0.29096 0.48606 0.0
C1085 C 0.2843 0.30812 0.48769 0.0
C1086 C 0.2457 0.25741 0.49294 0.0
C1087 C 0.25294 0.17731 0.49505 0.0
H1088 H 0.30894 0.14012 0.52991 0.0
C1089 C 0.28113 0.02628 0.50071 0.0
C1090 C 0.28722 1.01166 0.51586 0.0
C1091 C 0.27739 0.06313 0.49873 0.0
C1092 C 0.29253 0.14974 0.52026 0.0
H1093 H 0.33594 0.30512 0.49879 0.0
H1094 H 0.32663 0.24732 0.51063 0.0
H1095 H 0.30411 0.20358 0.52637 0.0
H1096 H 0.29304 0.02445 0.54088 0.0
H1097 H 0.2848 0.08776 0.53765 0.0
H1098 H 0.24008 0.12348 0.48936 0.0
C1099 C 0.30459 0.25931 0.50437 0.0
C1100 C 0.29022 0.18655 0.51806 0.0
C1101 C 0.30996 0.2929 0.49768 0.0
C1102 C 0.28892 0.03475 0.52899 0.0
C1103 C 0.28439 0.07137 0.52708 0.0
C1104 C 0.25466 0.14049 0.49744 0.0
C1105 C 0.27314 0.24005 0.50135 0.0
C1106 C 0.27112 0.20104 0.50518 0.0
C1107 C 0.27883 0.08638 0.51191 0.0
C1108 C 0.27513 0.12595 0.50988 0.0
H1109 H 0.23144 0.30163 0.47809 0.0
H1110 H 0.22063 0.24417 0.49073 0.0
H1111 H 0.23828 0.18694 0.48484 0.0
H1112 H 0.27974 1.0093 0.49033 0.0
H1113 H 0.2739 0.07329 0.48679 0.0
C1114 C 0.73192 0.52562 0.77931 0.0
C1115 C 0.75469 0.52859 0.76608 0.0
C1116 C 0.69509 0.52251 0.77727 0.0
C1117 C 0.62327 0.54793 0.75097 0.0
H1118 H 0.56833 0.47131 0.76974 0.0
C1119 C 0.47194 0.54982 0.74747 0.0
C1120 C 0.45886 0.52148 0.73832 0.0
C1121 C 0.5058 0.5481 0.75436 0.0
C1122 C 0.58333 0.49297 0.76455 0.0
H1123 H 0.7564 0.5307 0.74033 0.0
H1124 H 0.69178 0.52665 0.7368 0.0
H1125 H 0.6331 0.47371 0.7737 0.0
H1126 H 0.46942 0.4679 0.73054 0.0
H1127 H 0.52773 0.46401 0.74337 0.0
H1128 H 0.57378 0.56754 0.74198 0.0
C1129 C 0.70268 0.52619 0.74873 0.0
C1130 C 0.62032 0.49436 0.7668 0.0
C1131 C 0.73965 0.52843 0.75075 0.0
C1132 C 0.47835 0.48974 0.73793 0.0
C1133 C 0.51203 0.48775 0.74506 0.0
C1134 C 0.58634 0.54704 0.74905 0.0
C1135 C 0.68001 0.52313 0.76198 0.0
C1136 C 0.64071 0.52167 0.75988 0.0
C1137 C 0.527 0.51775 0.75245 0.0
C1138 C 0.56592 0.51947 0.75573 0.0
H1139 H 0.74262 0.52541 0.79129 0.0
H1140 H 0.67829 0.52037 0.78769 0.0
H1141 H 0.63824 0.56938 0.74557 0.0
H1142 H 0.45794 0.57491 0.74763 0.0
H1143 H 0.51651 0.57152 0.76012 0.0
C1144 C 0.79353 0.2986 0.99596 0.0
C1145 C 0.76087 0.30824 0.00276 0.0
C1146 C 0.79803 0.26471 0.9893 0.0
C1147 C 0.75331 0.18276 0.97531 0.0
H1148 H 0.82615 0.13275 -0.00094 0.0
C1149 C 0.79191 0.03549 0.96369 0.0
C1150 C 0.7922 0.01306 0.97713 0.0
C1151 C 0.78877 0.07233 0.96534 0.0
C1152 C 0.80578 0.14636 0.99231 0.0
H1153 H 0.70688 0.29099 0.00677 0.0
H1154 H 0.71373 0.23343 0.99397 0.0
H1155 H 0.81979 0.1971 0.0021 0.0
H1156 H 0.78987 1.0122 0.00289 0.0
H1157 H 0.78558 0.07695 0.00579 0.0
H1158 H 0.73933 0.13194 0.96552 0.0
C1159 C 0.73603 0.25164 0.99397 0.0
C1160 C 0.80239 0.18326 0.99391 0.0
C1161 C 0.73185 0.28503 0.00102 0.0
C1162 C 0.78975 0.02863 0.9923 0.0
C1163 C 0.78741 0.06569 0.99396 0.0
C1164 C 0.75723 0.14595 0.97344 0.0
C1165 C 0.76967 0.24027 0.98892 0.0
C1166 C 0.77585 0.20187 0.98557 0.0
C1167 C 0.78658 0.08793 0.98047 0.0
C1168 C 0.78317 0.12724 0.9821 0.0
H1169 H 0.81666 0.31541 -0.00243 0.0
H1170 H 0.82424 0.25675 0.98541 0.0
H1171 H 0.73246 0.19628 0.96882 0.0
H1172 H 0.79348 0.02452 0.9518 0.0
H1173 H 0.78839 0.08871 0.95474 0.0
C1174 C 0.97692 0.49767 0.75372 0.0
C1175 C 0.95812 0.52954 0.75174 0.0
C1176 C 1.01068 0.49344 0.7469 0.0
C1177 C 0.08585 0.55062 0.74062 0.0
H1178 H 0.13242 0.47167 0.71982 0.0
C1179 C 0.239 0.53157 0.74034 0.0
C1180 C 0.25416 0.52787 0.72514 0.0
C1181 C 0.20203 0.52981 0.74234 0.0
C1182 C 0.11969 0.49388 0.72564 0.0
H1183 H 0.95836 0.5805 0.73993 0.0
H1184 H 0.01693 0.57314 0.72794 0.0
H1185 H 0.06757 0.47062 0.72356 0.0
H1186 H 0.24229 0.51829 0.70023 0.0
H1187 H 0.17795 0.51419 0.70387 0.0
H1188 H 0.13782 0.57336 0.74324 0.0
C1189 C 1.00571 0.55138 0.73473 0.0
C1190 C 0.08266 0.49326 0.72776 0.0
C1191 C 0.97186 0.55533 0.74135 0.0
C1192 C 0.2315 0.52155 0.71209 0.0
C1193 C 0.19467 0.51894 0.71416 0.0
C1194 C 0.1228 0.55084 0.73884 0.0
C1195 C 0.02632 0.52131 0.73821 0.0
C1196 C 0.06533 0.5218 0.73517 0.0
C1197 C 0.17947 0.52339 0.72928 0.0
C1198 C 0.14016 0.52255 0.73131 0.0
H1199 H 0.96753 0.47787 0.76209 0.0
H1200 H 0.02593 0.46997 0.74981 0.0
H1201 H 0.07334 0.57275 0.7466 0.0
H1202 H 0.25566 0.53645 0.75063 0.0
H1203 H 0.19103 0.53326 0.75415 0.0
C1204 C 0.73291 0.99478 0.49217 0.0
C1205 C 0.73512 1.01087 0.47709 0.0
C1206 C 0.73583 0.95778 0.49375 0.0
C1207 C 0.77457 0.87891 0.47557 0.0
H1208 H 0.70056 0.82606 0.49725 0.0
C1209 C 0.78436 0.73733 0.50343 0.0
C1210 C 0.75419 0.7155 0.5022 0.0
C1211 C 0.78498 0.77095 0.49628 0.0
C1212 C 0.72128 0.8404 0.49101 0.0
H1213 H 0.74307 1.00063 0.45193 0.0
H1214 H 0.74918 0.93647 0.45481 0.0
H1215 H 0.69553 0.89053 0.49455 0.0
H1216 H 0.70236 0.71035 0.49136 0.0
H1217 H 0.70325 0.76903 0.47889 0.0
H1218 H 0.80101 0.82878 0.47263 0.0
C1219 C 0.74465 0.95238 0.46534 0.0
C1220 C 0.71857 0.87733 0.48964 0.0
C1221 C 0.74089 0.98914 0.46371 0.0
C1222 C 0.72637 0.72618 0.49215 0.0
C1223 C 0.72658 0.7601 0.48528 0.0
C1224 C 0.7777 0.84197 0.47728 0.0
C1225 C 0.74197 0.93624 0.48035 0.0
C1226 C 0.74516 0.89701 0.48191 0.0
C1227 C 0.75502 0.78358 0.48808 0.0
C1228 C 0.75099 0.8223 0.48497 0.0
H1229 H 0.72856 1.01074 0.5027 0.0
H1230 H 0.73376 0.946 0.50548 0.0
H1231 H 0.7955 0.89345 0.46957 0.0
H1232 H 0.80556 0.73032 0.51157 0.0
H1233 H 0.80724 0.78843 0.49868 0.0
C1234 C 0.2814 0.5173 0.2365 0.0
C1235 C 0.2667 0.49483 0.22483 0.0
C1236 C 0.31835 0.52118 0.238 0.0
C1237 C 0.40296 0.4759 0.22939 0.0
H1238 H 0.44504 0.56869 0.23612 0.0
C1239 C 0.55251 0.48601 0.24086 0.0
C1240 C 0.56175 0.50742 0.25388 0.0
C1241 C 0.51924 0.48969 0.23348 0.0
C1242 C 0.43385 0.5425 0.23435 0.0
H1243 H 0.27976 0.45853 0.20569 0.0
H1244 H 0.34398 0.46486 0.2085 0.0
H1245 H 0.381 0.56324 0.23216 0.0
H1246 H 0.54506 0.55159 0.26839 0.0
H1247 H 0.48755 0.55832 0.25568 0.0
H1248 H 0.45514 0.45476 0.23225 0.0
C1249 C 0.32691 0.47958 0.21647 0.0
C1250 C 0.39701 0.53941 0.23208 0.0
C1251 C 0.29001 0.47603 0.21484 0.0
C1252 C 0.53895 0.53523 0.25813 0.0
C1253 C 0.50561 0.53878 0.25089 0.0
C1254 C 0.43967 0.47891 0.23183 0.0
C1255 C 0.34162 0.50237 0.22799 0.0
C1256 C 0.38102 0.50601 0.22975 0.0
C1257 C 0.49432 0.51458 0.23914 0.0
C1258 C 0.45576 0.51222 0.23454 0.0
H1259 H 0.26435 0.53236 0.24435 0.0
H1260 H 0.32873 0.53864 0.24713 0.0
H1261 H 0.39158 0.44971 0.22779 0.0
H1262 H 0.56923 0.46387 0.23754 0.0
H1263 H 0.51214 0.47127 0.22411 0.0
C1264 C 0.74028 0.4958 0.50069 0.0
C1265 C 0.73319 0.51167 0.51548 0.0
C1266 C 0.74327 0.45878 0.49934 0.0
C1267 C 0.72387 0.37393 0.52142 0.0
H1268 H 0.78413 0.33405 0.48874 0.0
C1269 C 0.70901 0.23012 0.49936 0.0
C1270 C 0.73662 0.21413 0.49079 0.0
C1271 C 0.71341 0.26381 0.50608 0.0
C1272 C 0.76771 0.34446 0.4982 0.0
H1273 H 0.72445 0.50077 0.54053 0.0
H1274 H 0.73093 0.43695 0.53833 0.0
H1275 H 0.78209 0.39782 0.4923 0.0
H1276 H 0.79164 0.21928 0.48391 0.0
H1277 H 0.80037 0.27706 0.49655 0.0
H1278 H 0.71045 0.32053 0.52769 0.0
C1279 C 0.73297 0.45267 0.52759 0.0
C1280 C 0.76591 0.38141 0.50002 0.0
C1281 C 0.72937 0.48954 0.52888 0.0
C1282 C 0.77011 0.23056 0.49077 0.0
C1283 C 0.77471 0.26426 0.49763 0.0
C1284 C 0.7261 0.33697 0.51978 0.0
C1285 C 0.73993 0.43654 0.5128 0.0
C1286 C 0.7434 0.39687 0.51144 0.0
C1287 C 0.74573 0.2824 0.50447 0.0
C1288 C 0.74744 0.32156 0.5079 0.0
H1289 H 0.74333 0.51199 0.49012 0.0
H1290 H 0.74787 0.44766 0.48765 0.0
H1291 H 0.70593 0.38439 0.53029 0.0
H1292 H 0.68265 0.21851 0.4992 0.0
H1293 H 0.69025 0.27646 0.51112 0.0
C1294 C 0.29 0.99391 0.7526 0.0
C1295 C 0.27529 0.99384 0.76798 0.0
C1296 C 0.32694 0.99562 0.75047 0.0
C1297 C 0.41042 0.0255 0.76846 0.0
H1298 H 0.45468 0.95153 0.7434 0.0
C1299 C 0.5539 0.02379 0.74038 0.0
C1300 C 0.5716 0.99105 0.74126 0.0
C1301 C 0.51995 0.02777 0.74708 0.0
C1302 C 0.44274 0.9723 0.7505 0.0
H1303 H 0.28795 0.99664 0.79315 0.0
H1304 H 0.35227 1.00066 0.78935 0.0
H1305 H 0.39023 0.95156 0.74689 0.0
H1306 H 0.56906 0.93795 0.75095 0.0
H1307 H 0.51034 0.94492 0.76276 0.0
H1308 H 0.46314 0.04679 0.7716 0.0
C1309 C 0.33521 0.99891 0.77899 0.0
C1310 C 0.40582 0.97246 0.75237 0.0
C1311 C 0.29838 0.99633 0.78114 0.0
C1312 C 0.55648 0.96376 0.75043 0.0
C1313 C 0.52254 0.96754 0.75695 0.0
C1314 C 0.44744 0.02582 0.76625 0.0
C1315 C 0.34994 0.99824 0.76365 0.0
C1316 C 0.38921 0.99892 0.76143 0.0
C1317 C 0.50308 0.99884 0.75454 0.0
C1318 C 0.464 0.99897 0.75737 0.0
H1319 H 0.27299 0.99205 0.74222 0.0
H1320 H 0.33757 0.99511 0.7385 0.0
H1321 H 0.39828 0.04629 0.77547 0.0
H1322 H 0.56431 0.04482 0.73291 0.0
H1323 H 0.50556 0.0522 0.74501 0.0
C1324 C 0.7562 0.78852 0.98893 0.0
C1325 C 0.7874 0.80881 0.99045 0.0
C1326 C 0.75394 0.75448 0.99568 0.0
C1327 C 0.81507 0.68179 0.00172 0.0
H1328 H 0.73686 0.63148 0.02155 0.0
C1329 C 0.80081 0.52779 0.00105 0.0
C1330 C 0.79421 0.51172 0.01588 0.0
C1331 C 0.79936 0.56486 -0.00065 0.0
C1332 C 0.75893 0.64523 0.01603 0.0
H1333 H 0.83925 0.81077 0.00146 0.0
H1334 H 0.83527 0.75178 0.01342 0.0
H1335 H 0.73368 0.69619 0.01811 0.0
H1336 H 0.78021 0.52232 0.04048 0.0
H1337 H 0.77692 0.58666 0.03737 0.0
H1338 H 0.83983 0.6309 -0.00087 0.0
C1339 C 0.81255 0.76199 0.00697 0.0
C1340 C 0.75707 0.68223 0.01406 0.0
C1341 C 0.81454 0.79613 0.00041 0.0
C1342 C 0.7858 0.53369 0.0289 0.0
C1343 C 0.78361 0.5706 0.02712 0.0
C1344 C 0.81658 0.64483 0.00338 0.0
C1345 C 0.78312 0.73998 0.00388 0.0
C1346 C 0.78524 0.70098 0.00694 0.0
C1347 C 0.79044 0.58667 0.01235 0.0
C1348 C 0.78857 0.62607 0.01056 0.0
H1349 H 0.73538 0.79707 0.98089 0.0
H1350 H 0.73088 0.73823 0.99308 0.0
H1351 H 0.83697 0.69532 0.99595 0.0
H1352 H 0.80722 0.51173 0.99077 0.0
H1353 H 0.80462 0.57647 0.98779 0.0
C1354 C 0.97554 0.0518 0.25107 0.0
C1355 C 0.96064 0.02478 0.2417 0.0
C1356 C 1.009 0.04755 0.25809 0.0
C1357 C 0.09107 0.99617 0.24982 0.0
H1358 H 0.1288 0.05591 0.28332 0.0
C1359 C 0.2415 0.02825 0.25354 0.0
C1360 C 0.257 0.03464 0.2685 0.0
C1361 C 0.2046 0.02395 0.25201 0.0
C1362 C 0.11896 0.03854 0.27405 0.0
H1363 H 0.96741 0.97081 0.23366 0.0
H1364 H 0.02454 0.96212 0.24688 0.0
H1365 H 0.06507 0.04993 0.28019 0.0
H1366 H 0.24566 0.0407 0.29365 0.0
H1367 H 0.18202 0.03189 0.29113 0.0
H1368 H 0.1449 0.9838 0.24402 0.0
C1369 C 1.01118 0.98729 0.24835 0.0
C1370 C 0.08207 0.03548 0.27211 0.0
C1371 C 0.97781 0.99181 0.24115 0.0
C1372 C 0.23467 0.03631 0.28189 0.0
C1373 C 0.19792 0.03139 0.28042 0.0
C1374 C 0.12793 0.99877 0.25192 0.0
C1375 C 0.02837 0.01595 0.25599 0.0
C1376 C 0.06745 0.01491 0.25972 0.0
C1377 C 0.18214 0.02524 0.26545 0.0
C1378 C 0.14259 0.02063 0.26385 0.0
H1379 H 0.96345 0.07786 0.2513 0.0
H1380 H 0.02091 0.07045 0.26376 0.0
H1381 H 0.08131 0.98042 0.23997 0.0
H1382 H 0.25785 0.0269 0.24296 0.0
H1383 H 0.19374 0.02005 0.24021 0.0
C1384 C 0.25348 0.78588 0.50873 0.0
C1385 C 0.28207 0.80766 0.50424 0.0
C1386 C 0.24912 0.75212 0.502 0.0
C1387 C 0.30782 0.68384 0.48445 0.0
H1388 H 0.22189 0.62701 0.48386 0.0
C1389 C 0.30861 0.53524 0.46707 0.0
C1390 C 0.28805 0.51172 0.4763 0.0
C1391 C 0.30576 0.57201 0.46902 0.0
C1392 C 0.24616 0.6425 0.48408 0.0
H1393 H 0.3262 0.81287 0.48801 0.0
H1394 H 0.31732 0.75517 0.47542 0.0
H1395 H 0.21793 0.69123 0.48756 0.0
H1396 H 0.24825 0.50887 0.49489 0.0
H1397 H 0.24334 0.57321 0.49832 0.0
H1398 H 0.33603 0.6352 0.48106 0.0
C1399 C 0.29892 0.76337 0.48459 0.0
C1400 C 0.24391 0.67941 0.48616 0.0
C1401 C 0.30348 0.79696 0.49148 0.0
C1402 C 0.26464 0.5261 0.48763 0.0
C1403 C 0.26156 0.56302 0.48948 0.0
C1404 C 0.31002 0.6471 0.48225 0.0
C1405 C 0.27324 0.73949 0.49053 0.0
C1406 C 0.27476 0.70067 0.48654 0.0
C1407 C 0.28207 0.58647 0.48018 0.0
C1408 C 0.27929 0.62583 0.48218 0.0
H1409 H 0.23713 0.79312 0.51882 0.0
H1410 H 0.22898 0.73482 0.50696 0.0
H1411 H 0.33235 0.69882 0.4851 0.0
H1412 H 0.32688 0.52527 0.4582 0.0
H1413 H 0.32174 0.58918 0.46155 0.0
C1414 C 0.74151 0.03205 0.24222 0.0
C1415 C 0.75713 0.03698 0.2272 0.0
C1416 C 0.70454 0.0285 0.24376 0.0
C1417 C 0.61909 0.04194 0.22118 0.0
H1418 H 0.58059 0.98772 0.25634 0.0
C1419 C 0.47539 0.05863 0.24301 0.0
C1420 C 0.4601 0.03293 0.25298 0.0
C1421 C 0.50896 0.05332 0.23631 0.0
C1422 C 0.59059 1.00235 0.2462 0.0
H1423 H 0.74589 0.04125 0.20194 0.0
H1424 H 0.68216 0.03364 0.20449 0.0
H1425 H 0.64424 0.99019 0.25246 0.0
H1426 H 0.4664 0.98004 0.26248 0.0
H1427 H 0.5237 0.96934 0.24981 0.0
H1428 H 0.56539 0.05297 0.21456 0.0
C1429 C 0.698 0.0338 0.21524 0.0
C1430 C 0.6275 1.00447 0.24418 0.0
C1431 C 0.73482 0.03804 0.21375 0.0
C1432 C 0.47705 0.99998 0.25449 0.0
C1433 C 0.51054 0.99437 0.24761 0.0
C1434 C 0.58217 0.03931 0.22303 0.0
C1435 C 0.68211 0.02903 0.23027 0.0
C1436 C 0.64248 0.02496 0.23185 0.0
C1437 C 0.52808 0.02192 0.23933 0.0
C1438 C 0.56722 0.02018 0.2358 0.0
H1439 H 0.75785 0.03118 0.25284 0.0
H1440 H 0.69362 0.0257 0.2556 0.0
H1441 H 0.62914 0.05827 0.21159 0.0
H1442 H 0.46344 0.08467 0.24201 0.0
H1443 H 0.5211 0.07541 0.23013 0.0
C1444 C 0.27707 0.23377 0.00842 0.0
C1445 C 0.24557 0.21515 0.00511 0.0
C1446 C 0.28262 0.26787 0.00217 0.0
C1447 C 0.24757 0.3369 0.97432 0.0
H1448 H 0.26731 0.40094 0.00934 0.0
C1449 C 0.21499 0.48678 0.97013 0.0
C1450 C 0.23687 0.51144 0.97806 0.0
C1451 C 0.2196 0.45019 0.9723 0.0
C1452 C 0.2624 0.38367 -0.00071 0.0
H1453 H 0.19677 0.21617 0.99157 0.0
H1454 H 0.2069 0.27487 0.98014 0.0
H1455 H 0.27268 0.33728 0.01327 0.0
H1456 H 0.281 0.51654 0.9945 0.0
H1457 H 0.28963 0.45293 -0.00199 0.0
H1458 H 0.23719 0.38323 0.96032 0.0
C1459 C 0.22739 0.26343 0.98759 0.0
C1460 C 0.26554 0.34696 0.00155 0.0
C1461 C 0.22174 0.22949 0.99398 0.0
C1462 C 0.26338 0.49842 0.98832 0.0
C1463 C 0.26826 0.46177 0.99036 0.0
C1464 C 0.24479 0.37369 0.97198 0.0
C1465 C 0.25681 0.28393 0.9924 0.0
C1466 C 0.25769 0.323 0.98918 0.0
C1467 C 0.24654 0.43699 0.98233 0.0
C1468 C 0.25157 0.3977 0.98451 0.0
H1469 H 0.29546 0.22376 0.01728 0.0
H1470 H 0.30589 0.28265 0.0059 0.0
H1471 H 0.24152 0.31927 0.9645 0.0
H1472 H 0.19418 0.49573 0.96218 0.0
H1473 H 0.20171 0.43228 0.96618 0.0
C1474 C 0.05787 0.97391 0.74449 0.0
C1475 C 0.07173 1.0005 0.75443 0.0
C1476 C 0.02382 0.97721 0.73795 0.0
C1477 C 0.94646 0.03394 0.73011 0.0
H1478 H 0.89209 0.95577 0.74795 0.0
C1479 C 0.798 1.00214 0.71524 0.0
C1480 C 0.7753 0.99734 0.72838 0.0
C1481 C 0.83477 1.00549 0.71732 0.0
C1482 C 0.90688 0.97776 0.7429 0.0
H1483 H 0.06257 0.05306 0.76383 0.0
H1484 H 1.00377 0.05975 0.75167 0.0
H1485 H 0.95666 0.95716 0.75107 0.0
H1486 H 0.77365 0.99234 0.75406 0.0
H1487 H 0.83828 0.99679 0.75765 0.0
H1488 H 0.89641 0.05413 0.72171 0.0
C1489 C 0.01901 0.0361 0.74912 0.0
C1490 C 0.94387 0.97841 0.74455 0.0
C1491 C 0.05298 0.03253 0.75587 0.0
C1492 C 0.79036 0.99599 0.7437 0.0
C1493 C 0.82731 0.99848 0.74574 0.0
C1494 C 0.90939 0.03285 0.72812 0.0
C1495 C 1.00321 1.00746 0.74102 0.0
C1496 C 0.96411 1.00652 0.73823 0.0
C1497 C 0.8499 1.00334 0.73257 0.0
C1498 C 0.8892 1.00486 0.73463 0.0
H1499 H 0.07137 0.94864 0.74347 0.0
H1500 H 1.01247 0.95487 0.7316 0.0
H1501 H 0.96135 0.05603 0.72522 0.0
H1502 H 0.7873 1.0036 0.70328 0.0
H1503 H 0.8515 1.00899 0.70696 0.0
C1504 C 0.25335 0.13737 0.95053 0.0
C1505 C 0.22392 0.13734 0.96081 0.0
C1506 C 0.24888 0.13088 0.93428 0.0
C1507 C 0.23355 0.08602 0.90518 0.0
H1508 H 0.15509 0.11993 0.87942 0.0
C1509 C 0.19051 0.01536 0.84773 0.0
C1510 C 0.1834 0.0367 0.83439 0.0
C1511 C 0.19548 0.03068 0.8627 0.0
C1512 C 0.17728 0.11045 0.88643 0.0
H1513 H 0.16649 0.1331 0.96189 0.0
H1514 H 0.15877 0.12166 0.93355 0.0
H1515 H 0.16462 0.14449 0.90606 0.0
H1516 H 0.17512 0.09081 0.82635 0.0
H1517 H 0.18374 0.11751 0.85256 0.0
H1518 H 0.2461 0.05182 0.88569 0.0
C1519 C 0.18528 0.1267 0.93805 0.0
C1520 C 0.1826 0.12434 0.9017 0.0
C1521 C 0.18974 0.1331 0.95431 0.0
C1522 C 0.18063 0.07363 0.8364 0.0
C1523 C 0.18541 0.08894 0.85141 0.0
C1524 C 0.22811 0.07202 0.89 0.0
C1525 C 0.2149 0.12438 0.92795 0.0
C1526 C 0.21064 0.11205 0.91128 0.0
C1527 C 0.19328 0.06764 0.86468 0.0
C1528 C 0.19971 0.08378 0.88053 0.0
H1529 H 0.28002 0.14086 0.95512 0.0
H1530 H 0.27216 0.12988 0.92674 0.0
H1531 H 0.25512 0.07564 0.91232 0.0
H1532 H 0.19258 0.98681 0.84662 0.0
H1533 H 0.20094 0.01353 0.87276 0.0
C1534 C 0.70806 0.45235 0.08471 0.0
C1535 C 0.73793 0.43087 0.08214 0.0
C1536 C 0.69315 0.45499 0.09987 0.0
C1537 C 0.68541 0.40999 0.13832 0.0
H1538 H 0.67351 0.50459 0.15558 0.0
C1539 C 0.6699 0.43588 0.20534 0.0
C1540 C 0.651 0.46579 0.21051 0.0
C1541 C 0.67476 0.42954 0.18913 0.0
C1542 C 0.67581 0.47796 0.15088 0.0
H1543 H 0.77503 0.39452 0.09326 0.0
H1544 H 0.74856 0.39874 0.11973 0.0
H1545 H 0.69307 0.49729 0.12819 0.0
H1546 H 0.62026 0.51121 0.20279 0.0
H1547 H 0.62762 0.49949 0.17443 0.0
H1548 H 0.66797 0.3905 0.1609 0.0
C1549 C 0.73686 0.41365 0.11003 0.0
C1550 C 0.68724 0.47383 0.13519 0.0
C1551 C 0.75214 0.41145 0.09492 0.0
C1552 C 0.63531 0.48815 0.19914 0.0
C1553 C 0.63977 0.48155 0.1829 0.0
C1554 C 0.67347 0.41408 0.15394 0.0
C1555 C 0.70747 0.43575 0.11267 0.0
C1556 C 0.69275 0.43984 0.12887 0.0
C1557 C 0.66039 0.4527 0.17769 0.0
C1558 C 0.66918 0.44814 0.16054 0.0
H1559 H 0.69651 0.46757 0.07508 0.0
H1560 H 0.67038 0.47206 0.1016 0.0
H1561 H 0.68905 0.38348 0.13362 0.0
H1562 H 0.68241 0.41816 0.2138 0.0
H1563 H 0.6912 0.40735 0.18565 0.0
C1564 C 0.34164 0.01781 0.34735 0.0
C1565 C 0.34911 0.99638 0.3341 0.0
C1566 C 0.33597 1.00257 0.36231 0.0
C1567 C 0.35245 0.92195 0.38606 0.0
H1568 H 0.27546 0.95817 0.41193 0.0
C1569 C 0.33891 0.89533 0.45355 0.0
C1570 C 0.30465 0.89157 0.45997 0.0
C1571 C 0.34354 0.90316 0.43743 0.0
C1572 C 0.29679 0.94741 0.40479 0.0
H1573 H 0.3571 0.94216 0.32622 0.0
H1574 H 0.34719 0.91561 0.35235 0.0
H1575 H 0.28537 0.98255 0.38544 0.0
H1576 H 0.24844 0.89084 0.45427 0.0
H1577 H 0.25658 0.9043 0.42608 0.0
H1578 H 0.36387 0.88684 0.40547 0.0
C1579 C 0.34587 0.9442 0.35117 0.0
C1580 C 0.30276 0.96174 0.38969 0.0
C1581 C 0.35141 0.95943 0.33619 0.0
C1582 C 0.27519 0.89379 0.44973 0.0
C1583 C 0.27983 0.90176 0.4336 0.0
C1584 C 0.34657 0.90771 0.40122 0.0
C1585 C 0.33776 0.96558 0.36437 0.0
C1586 C 0.33086 0.94943 0.38021 0.0
C1587 C 0.31401 0.90746 0.42737 0.0
C1588 C 0.31882 0.92048 0.4108 0.0
H1589 H 0.33988 0.04638 0.34617 0.0
H1590 H 0.33034 0.0198 0.3723 0.0
H1591 H 0.37442 0.91201 0.37907 0.0
H1592 H 0.36218 0.89364 0.4611 0.0
H1593 H 0.37022 0.90757 0.43303 0.0
C1594 C 0.80405 0.56528 0.58391 0.0
C1595 C 0.77406 0.58664 0.58129 0.0
C1596 C 0.81895 0.56252 0.59911 0.0
C1597 C 0.82695 0.60862 0.6372 0.0
H1598 H 0.84142 0.51507 0.65528 0.0
C1599 C 0.84612 0.58675 0.70434 0.0
C1600 C 0.86614 0.55773 0.70974 0.0
C1601 C 0.84008 0.59183 0.68812 0.0
C1602 C 0.83837 0.54144 0.65034 0.0
H1603 H 0.73625 0.62195 0.59255 0.0
H1604 H 0.76279 0.61769 0.61901 0.0
H1605 H 0.82073 0.5208 0.62792 0.0
H1606 H 0.89736 0.51246 0.70231 0.0
H1607 H 0.88788 0.52199 0.67388 0.0
H1608 H 0.84484 0.62945 0.65947 0.0
C1609 C 0.77469 0.60308 0.60928 0.0
C1610 C 0.82629 0.54465 0.63468 0.0
C1611 C 0.75943 0.60539 0.59416 0.0
C1612 C 0.88153 0.53489 0.69851 0.0
C1613 C 0.87585 0.54023 0.68222 0.0
C1614 C 0.83953 0.60546 0.65279 0.0
C1615 C 0.80449 0.58151 0.61191 0.0
C1616 C 0.81984 0.57824 0.62807 0.0
C1617 C 0.85431 0.56828 0.67683 0.0
C1618 C 0.84472 0.5718 0.65969 0.0
H1619 H 0.81591 0.55046 0.57425 0.0
H1620 H 0.842 0.5458 0.60083 0.0
H1621 H 0.82265 0.63485 0.63228 0.0
H1622 H 0.83376 0.60479 0.71268 0.0
H1623 H 0.82293 0.61341 0.68451 0.0
C1624 C 0.84538 0.89761 0.04068 0.0
C1625 C 0.81134 0.89255 0.03415 0.0
C1626 C 0.84955 0.90527 0.05686 0.0
C1627 C 0.80079 0.94744 0.08926 0.0
H1628 H 0.87737 0.91266 0.1159 0.0
C1629 C 0.84076 0.01629 0.1478 0.0
C1630 C 0.84653 0.99431 0.16107 0.0
C1631 C 0.83662 1.00163 0.13264 0.0
C1632 C 0.85573 0.92244 0.10862 0.0
H1633 H 0.75516 0.88927 0.03972 0.0
H1634 H 0.76251 0.90256 0.06793 0.0
H1635 H 0.86915 0.88829 0.08914 0.0
H1636 H 0.85317 0.93974 0.16878 0.0
H1637 H 0.84609 0.91423 0.14226 0.0
H1638 H 0.78747 0.98173 0.10863 0.0
C1639 C 0.78591 0.90112 0.06048 0.0
C1640 C 0.85117 0.90866 0.09329 0.0
C1641 C 0.78174 0.89328 0.04433 0.0
C1642 C 0.84867 0.95741 0.15881 0.0
C1643 C 0.8448 0.94278 0.14361 0.0
C1644 C 0.80552 0.9614 0.1045 0.0
C1645 C 0.81975 0.90816 0.06683 0.0
C1646 C 0.8237 0.92111 0.08343 0.0
C1647 C 0.83843 0.96472 0.13039 0.0
C1648 C 0.83315 0.94922 0.11432 0.0
H1649 H 0.86875 0.8971 0.03318 0.0
H1650 H 0.87596 0.91069 0.06138 0.0
H1651 H 0.77965 0.95793 0.08188 0.0
H1652 H 0.83917 0.04483 0.14912 0.0
H1653 H 0.83222 0.01924 0.12264 0.0
C1654 C 0.37991 0.53031 0.79323 0.0
C1655 C 0.36839 0.55593 0.78223 0.0
C1656 C 0.37325 0.53457 0.80948 0.0
C1657 C 0.3426 0.59951 0.84003 0.0
H1658 H 0.30719 0.51487 0.86102 0.0
C1659 C 0.26009 0.60258 0.89813 0.0
C1660 C 0.26743 0.57649 0.90963 0.0
C1661 C 0.2764 0.60139 0.88319 0.0
C1662 C 0.31746 0.53867 0.85542 0.0
H1663 H 0.34261 0.60707 0.77977 0.0
H1664 H 0.3304 0.61415 0.80797 0.0
H1665 H 0.33019 0.51079 0.83407 0.0
H1666 H 0.29817 0.52909 0.91457 0.0
H1667 H 0.32645 0.52703 0.88854 0.0
H1668 H 0.32873 0.62747 0.86133 0.0
C1669 C 0.34496 0.59094 0.80414 0.0
C1670 C 0.3308 0.53633 0.83996 0.0
C1671 C 0.35182 0.58678 0.78791 0.0
C1672 C 0.29175 0.54949 0.90595 0.0
C1673 C 0.30789 0.54822 0.89101 0.0
C1674 C 0.32903 0.60188 0.85548 0.0
C1675 C 0.35474 0.56445 0.81509 0.0
C1676 C 0.34327 0.56675 0.832 0.0
C1677 C 0.30023 0.57399 0.87943 0.0
C1678 C 0.31606 0.57151 0.86329 0.0
H1679 H 0.39306 0.50638 0.78925 0.0
H1680 H 0.38186 0.51401 0.81762 0.0
H1681 H 0.35242 0.6234 0.83434 0.0
H1682 H 0.24152 0.62377 0.90059 0.0
H1683 H 0.26968 0.62143 0.87445 0.0
C1684 C 0.66276 0.07255 0.65761 0.0
C1685 C 0.68264 0.0423 0.66161 0.0
C1686 C 0.66687 0.08865 0.64272 0.0
C1687 C 0.72973 0.10368 0.61107 0.0
H1688 H 0.64967 0.10792 0.58209 0.0
C1689 C 0.74852 0.12543 0.54398 0.0
C1690 C 0.72109 0.14042 0.53487 0.0
C1691 C 0.74401 0.11938 0.56024 0.0
C1692 C 0.6722 0.10786 0.5901 0.0
H1693 H 0.72268 1.00546 0.65334 0.0
H1694 H 0.73064 0.03439 0.62748 0.0
H1695 H 0.64107 0.086 0.60912 0.0
H1696 H 0.66835 0.16313 0.53585 0.0
H1697 H 0.661 0.15415 0.56442 0.0
H1698 H 0.76091 0.12611 0.59237 0.0
C1699 C 0.71165 0.04528 0.63582 0.0
C1700 C 0.66722 0.09502 0.60555 0.0
C1701 C 0.70695 0.02868 0.65054 0.0
C1702 C 0.68983 0.15119 0.54255 0.0
C1703 C 0.68553 0.14572 0.55891 0.0
C1704 C 0.73461 0.11724 0.59574 0.0
C1705 C 0.69156 0.07529 0.63177 0.0
C1706 C 0.6961 0.09209 0.61601 0.0
C1707 C 0.71218 0.12879 0.56791 0.0
C1708 C 0.70611 0.11867 0.58488 0.0
H1709 H 0.64372 0.08349 0.6659 0.0
H1710 H 0.6511 0.11177 0.6398 0.0
H1711 H 0.7523 0.102 0.61904 0.0
H1712 H 0.77289 0.11664 0.53842 0.0
H1713 H 0.76498 0.10578 0.56658 0.0
C1714 C 0.21554 0.39885 0.40358 0.0
C1715 C 0.24431 0.41985 0.40866 0.0
C1716 C 0.19991 0.40462 0.38868 0.0
C1717 C 0.18392 0.47228 0.3588 0.0
H1718 H 0.18037 0.39579 0.32802 0.0
C1719 C 0.15855 0.49871 0.29233 0.0
C1720 C 0.14311 0.4722 0.2828 0.0
C1721 C 0.16612 0.49226 0.30835 0.0
C1722 C 0.18029 0.41734 0.33653 0.0
H1723 H 0.27895 0.46364 0.40224 0.0
H1724 H 0.25091 0.47433 0.37641 0.0
H1725 H 0.20261 0.38436 0.3548 0.0
H1726 H 0.12154 0.41885 0.28284 0.0
H1727 H 0.13318 0.40806 0.311 0.0
H1728 H 0.16095 0.50523 0.34086 0.0
C1729 C 0.24077 0.45322 0.38391 0.0
C1730 C 0.19331 0.41074 0.35185 0.0
C1731 C 0.25689 0.44697 0.39863 0.0
C1732 C 0.13374 0.4397 0.28985 0.0
C1733 C 0.14075 0.43343 0.30598 0.0
C1734 C 0.17022 0.47876 0.34361 0.0
C1735 C 0.21225 0.43202 0.37878 0.0
C1736 C 0.19587 0.43831 0.363 0.0
C1737 C 0.15786 0.45933 0.31538 0.0
C1738 C 0.16892 0.45157 0.33211 0.0
H1739 H 0.20537 0.37768 0.41103 0.0
H1740 H 0.17792 0.38797 0.38497 0.0
H1741 H 0.18524 0.49387 0.36729 0.0
H1742 H 0.16635 0.52399 0.28726 0.0
H1743 H 0.17984 0.51273 0.31499 0.0
C1744 C 0.67192 0.51029 0.34567 0.0
C1745 C 0.67081 0.53214 0.33212 0.0
C1746 C 0.67271 0.52516 0.3609 0.0
C1747 C 0.69617 0.60788 0.38196 0.0
H1748 H 0.64757 0.5621 0.4171 0.0
C1749 C 0.67127 0.62313 0.45442 0.0
C1750 C 0.70638 0.62992 0.45926 0.0
C1751 C 0.66343 0.6165 0.43843 0.0
C1752 C 0.66088 0.57561 0.4074 0.0
H1753 H 0.66878 0.58672 0.32393 0.0
H1754 H 0.66975 0.61263 0.3505 0.0
H1755 H 0.63943 0.53962 0.39019 0.0
H1756 H 0.76045 0.63719 0.45095 0.0
H1757 H 0.74691 0.62519 0.42317 0.0
H1758 H 0.71749 0.64398 0.39918 0.0
C1759 C 0.67062 0.58402 0.34936 0.0
C1760 C 0.65661 0.56237 0.39199 0.0
C1761 C 0.6699 0.56915 0.33413 0.0
C1762 C 0.73313 0.63194 0.44764 0.0
C1763 C 0.72531 0.62523 0.43167 0.0
C1764 C 0.70038 0.62118 0.39738 0.0
C1765 C 0.67229 0.56222 0.36293 0.0
C1766 C 0.67467 0.57796 0.37912 0.0
C1767 C 0.69053 0.6165 0.42692 0.0
C1768 C 0.68326 0.60484 0.41032 0.0
H1769 H 0.67252 0.48167 0.34454 0.0
H1770 H 0.67446 0.50758 0.37107 0.0
H1771 H 0.71069 0.6204 0.37235 0.0
H1772 H 0.64998 0.62167 0.46305 0.0
H1773 H 0.63625 0.61055 0.43512 0.0
C1774 C 0.23115 0.96969 0.58737 0.0
C1775 C 0.25634 0.94343 0.5838 0.0
C1776 C 0.21606 0.97161 0.60251 0.0
C1777 C 0.19864 0.92016 0.63891 0.0
H1778 H 0.19671 1.01245 0.65926 0.0
C1779 C 0.17745 0.93826 0.70639 0.0
C1780 C 0.16082 0.96923 0.7119 0.0
C1781 C 0.18401 0.93351 0.69018 0.0
C1782 C 0.1963 0.98657 0.65367 0.0
H1783 H 0.28499 0.89818 0.59324 0.0
H1784 H 0.25846 0.90152 0.61973 0.0
H1785 H 0.21851 1.00719 0.63214 0.0
H1786 H 0.1358 0.0184 0.70462 0.0
H1787 H 0.14635 1.00969 0.67625 0.0
H1788 H 0.17644 0.89948 0.66046 0.0
C1789 C 0.25035 0.92051 0.61076 0.0
C1790 C 0.20899 0.98356 0.63813 0.0
C1791 C 0.26569 0.91875 0.59563 0.0
C1792 C 0.14901 0.99441 0.70076 0.0
C1793 C 0.15531 0.98952 0.68451 0.0
C1794 C 0.18564 0.9232 0.65444 0.0
C1795 C 0.22561 0.94717 0.61439 0.0
C1796 C 0.21066 0.9503 0.63065 0.0
C1797 C 0.1738 0.95949 0.67906 0.0
C1798 C 0.18469 0.9564 0.66209 0.0
H1799 H 0.22324 0.98904 0.57852 0.0
H1800 H 0.1968 0.99221 0.60492 0.0
H1801 H 0.19919 0.89425 0.63335 0.0
H1802 H 0.1869 0.91832 0.71465 0.0
H1803 H 0.19861 0.91023 0.68648 0.0
C1804 C 0.79993 0.38517 0.94727 0.0
C1805 C 0.82636 0.38976 0.95893 0.0
C1806 C 0.80752 0.39102 0.93122 0.0
C1807 C 0.86903 0.44341 0.90671 0.0
H1808 H 0.82008 0.39649 0.87195 0.0
C1809 C 0.85128 0.50958 0.84556 0.0
C1810 C 0.85297 0.48836 0.83184 0.0
C1811 C 0.85198 0.49412 0.86067 0.0
C1812 C 0.83437 0.40962 0.88147 0.0
H1813 H 0.88222 0.40119 0.96272 0.0
H1814 H 0.89565 0.41068 0.93465 0.0
H1815 H 0.81574 0.37226 0.89878 0.0
H1816 H 0.85733 0.43428 0.82323 0.0
H1817 H 0.85893 0.40734 0.84963 0.0
H1818 H 0.88777 0.48068 0.88943 0.0
C1819 C 0.8688 0.4035 0.93797 0.0
C1820 C 0.83158 0.39592 0.89689 0.0
C1821 C 0.86116 0.3978 0.95406 0.0
C1822 C 0.85578 0.45137 0.83357 0.0
C1823 C 0.85654 0.43589 0.84869 0.0
C1824 C 0.87193 0.45702 0.8913 0.0
C1825 C 0.84179 0.40137 0.92642 0.0
C1826 C 0.84829 0.41306 0.90976 0.0
C1827 C 0.85451 0.45708 0.86243 0.0
C1828 C 0.85403 0.44074 0.87855 0.0
H1829 H 0.77285 0.37886 0.95059 0.0
H1830 H 0.78597 0.38937 0.9227 0.0
H1831 H 0.88195 0.45758 0.91633 0.0
H1832 H 0.8492 0.53818 0.84465 0.0
H1833 H 0.84982 0.51122 0.87097 0.0
C1834 C 0.39565 0.0843 0.20248 0.0
C1835 C 0.38389 0.05301 0.20989 0.0
C1836 C 0.39043 0.08941 0.18614 0.0
C1837 C 0.3614 0.0425 0.14889 0.0
H1838 H 0.33289 0.13712 0.13603 0.0
C1839 C 0.27549 0.0738 0.09367 0.0
C1840 C 0.28934 0.09917 0.08309 0.0
C1841 C 0.29172 0.06794 0.10839 0.0
C1842 C 0.34116 0.11067 0.13945 0.0
H1843 H 0.35844 1.00206 0.20595 0.0
H1844 H 0.34803 1.01142 0.17781 0.0
H1845 H 0.35384 0.12698 0.16312 0.0
H1846 H 0.33066 0.13865 0.07967 0.0
H1847 H 0.35831 0.12917 0.10576 0.0
H1848 H 0.34645 0.0261 0.12537 0.0
C1849 C 0.36223 0.03175 0.18434 0.0
C1850 C 0.35343 0.10481 0.15494 0.0
C1851 C 0.368 0.02642 0.20058 0.0
C1852 C 0.31952 0.11882 0.08757 0.0
C1853 C 0.33527 0.11351 0.10246 0.0
C1854 C 0.34844 0.04829 0.13353 0.0
C1855 C 0.37279 0.06358 0.17692 0.0
C1856 C 0.36323 0.07051 0.15997 0.0
C1857 C 0.3216 0.08788 0.11294 0.0
C1858 C 0.33782 0.08231 0.12876 0.0
H1859 H 0.40832 0.10512 0.20934 0.0
H1860 H 0.39972 0.1139 0.18082 0.0
H1861 H 0.36949 0.01592 0.15214 0.0
H1862 H 0.25233 0.05821 0.0905 0.0
H1863 H 0.28058 0.04823 0.11636 0.0
C1864 C 0.27579 0.38891 0.54123 0.0
C1865 C 0.30501 0.38733 0.53087 0.0
C1866 C 0.2808 0.39568 0.55743 0.0
C1867 C 0.34775 0.39953 0.5898 0.0
H1868 H 0.28728 0.47431 0.60607 0.0
C1869 C 0.35011 0.44787 0.65549 0.0
C1870 C 0.3482 0.48475 0.65784 0.0
C1871 C 0.34564 0.43343 0.64028 0.0
C1872 C 0.30446 0.4535 0.60169 0.0
H1873 H 0.36254 0.38914 0.52959 0.0
H1874 H 0.37121 0.40105 0.55784 0.0
H1875 H 0.27731 0.45134 0.57936 0.0
H1876 H 0.34129 0.53548 0.64601 0.0
H1877 H 0.33347 0.51027 0.61953 0.0
H1878 H 0.37536 0.40236 0.61212 0.0
C1879 C 0.34444 0.39706 0.55345 0.0
C1880 C 0.29845 0.43999 0.58646 0.0
C1881 C 0.33944 0.39039 0.53723 0.0
C1882 C 0.34258 0.50693 0.64463 0.0
C1883 C 0.33794 0.49249 0.62947 0.0
C1884 C 0.35363 0.41292 0.60512 0.0
C1885 C 0.31512 0.40085 0.56363 0.0
C1886 C 0.32019 0.41307 0.58028 0.0
C1887 C 0.33899 0.45557 0.62715 0.0
C1888 C 0.33228 0.44034 0.61114 0.0
H1889 H 0.24892 0.38638 0.53674 0.0
H1890 H 0.25771 0.39783 0.56504 0.0
H1891 H 0.36483 0.37867 0.58539 0.0
H1892 H 0.35453 0.43006 0.66542 0.0
H1893 H 0.34644 0.40487 0.63887 0.0
C1894 C 0.81681 0.11862 0.40705 0.0
C1895 C 0.78538 0.1004 0.41096 0.0
C1896 C 0.83305 0.11325 0.39229 0.0
C1897 C 0.8462 0.0487 0.3614 0.0
H1898 H 0.85371 0.1266 0.33142 0.0
C1899 C 0.86846 0.02474 0.29476 0.0
C1900 C 0.88469 0.05098 0.28536 0.0
C1901 C 0.86222 0.0306 0.3109 0.0
C1902 C 0.85274 0.10464 0.33972 0.0
H1903 H 0.74655 0.06204 0.40268 0.0
H1904 H 0.77571 0.05181 0.37707 0.0
H1905 H 0.83155 0.13759 0.35823 0.0
H1906 H 0.90927 0.10302 0.28572 0.0
H1907 H 0.89988 0.11272 0.31412 0.0
H1908 H 0.86796 0.0157 0.34324 0.0
C1909 C 0.78739 0.07051 0.38536 0.0
C1910 C 0.83976 0.11099 0.35504 0.0
C1911 C 0.77068 0.0765 0.39994 0.0
C1912 C 0.89637 0.08245 0.29265 0.0
C1913 C 0.89068 0.08809 0.30891 0.0
C1914 C 0.85991 0.04243 0.34623 0.0
C1915 C 0.81861 0.08893 0.38141 0.0
C1916 C 0.83563 0.08292 0.36584 0.0
C1917 C 0.87264 0.06263 0.31818 0.0
C1918 C 0.86248 0.07013 0.335 0.0
H1919 H 0.8286 0.13732 0.4153 0.0
H1920 H 0.85711 0.12773 0.38943 0.0
H1921 H 0.84358 0.02674 0.36966 0.0
H1922 H 0.85894 1.00025 0.2895 0.0
H1923 H 0.84772 1.01053 0.31746 0.0
C1924 C 0.1949 0.6498 0.04032 0.0
C1925 C 0.22572 0.63807 0.03258 0.0
C1926 C 0.18933 0.64209 0.0564 0.0
C1927 C 0.23359 0.60447 0.09273 0.0
H1928 H 0.13687 0.57938 0.10404 0.0
C1929 C 0.1963 0.51785 0.14704 0.0
C1930 C 0.17118 0.5326 0.15744 0.0
C1931 C 0.20303 0.53362 0.13229 0.0
C1932 C 0.16393 0.58658 0.10106 0.0
H1933 H 0.27552 0.61023 0.03572 0.0
H1934 H 0.26535 0.59553 0.06348 0.0
H1935 H 0.14936 0.60316 0.07766 0.0
H1936 H 0.13256 0.57464 0.16039 0.0
H1937 H 0.14358 0.60155 0.13429 0.0
H1938 H 0.24808 0.58592 0.11599 0.0
C1939 C 0.24575 0.61154 0.05739 0.0
C1940 C 0.17117 0.60051 0.08598 0.0
C1941 C 0.2516 0.61987 0.0414 0.0
C1942 C 0.15222 0.56285 0.15264 0.0
C1943 C 0.15842 0.57817 0.13773 0.0
C1944 C 0.2264 0.58989 0.10769 0.0
C1945 C 0.21414 0.62182 0.06504 0.0
C1946 C 0.20616 0.60942 0.08154 0.0
C1947 C 0.18421 0.56394 0.12753 0.0
C1948 C 0.19156 0.58061 0.11193 0.0
H1949 H 0.17465 0.6642 0.03383 0.0
H1950 H 0.16515 0.65137 0.06194 0.0
H1951 H 0.26073 0.61168 0.08995 0.0
H1952 H 0.21136 0.49459 0.15046 0.0
H1953 H 0.22281 0.522 0.12455 0.0
C1954 C 0.75897 0.94686 0.90029 0.0
C1955 C 0.74381 0.9231 0.91126 0.0
C1956 C 0.74253 0.95319 0.88565 0.0
C1957 C 0.69039 0.91365 0.85504 0.0
H1958 H 0.66308 1.00924 0.8432 0.0
C1959 C 0.63494 0.94287 0.79241 0.0
C1960 C 0.64646 0.97448 0.78521 0.0
C1961 C 0.6405 0.93709 0.80869 0.0
C1962 C 0.6709 0.98243 0.84619 0.0
H1963 H 0.69998 0.88685 0.91543 0.0
H1964 H 0.67192 0.89701 0.88944 0.0
H1965 H 0.68685 0.99777 0.86973 0.0
H1966 H 0.67188 0.0253 0.78946 0.0
H1967 H 0.68297 0.01479 0.81746 0.0
H1968 H 0.67688 0.89836 0.83133 0.0
C1969 C 0.69615 0.91111 0.89239 0.0
C1970 C 0.68424 0.97591 0.86144 0.0
C1971 C 0.71215 0.9054 0.90722 0.0
C1972 C 0.66245 1.00073 0.79468 0.0
C1973 C 0.66863 0.99471 0.81084 0.0
C1974 C 0.6778 0.92024 0.83965 0.0
C1975 C 0.7111 0.93527 0.88157 0.0
C1976 C 0.69444 0.94157 0.8659 0.0
C1977 C 0.65834 0.96254 0.81805 0.0
C1978 C 0.66835 0.95486 0.83492 0.0
H1979 H 0.7833 0.96095 0.90311 0.0
H1980 H 0.75461 0.97175 0.87741 0.0
H1981 H 0.69835 0.88697 0.85824 0.0
H1982 H 0.62223 0.92229 0.78542 0.0
H1983 H 0.63135 0.91236 0.81383 0.0
C1984 C 0.63296 0.33297 0.99327 0.0
C1985 C 0.62903 0.36927 0.98983 0.0
C1986 C 0.60453 0.30946 0.99119 0.0
C1987 C 0.50786 0.30961 0.99244 0.0
H1988 H 0.51669 0.21259 0.97773 0.0
C1989 C 0.3913 0.2108 -0.00199 0.0
C1990 C 0.40054 0.17713 0.00397 0.0
C1991 C 0.41762 0.23428 0.99269 0.0
C1992 C 0.5138 0.23959 0.98193 0.0
H1993 H 0.59245 0.40885 0.98069 0.0
H1994 H 0.54294 0.36789 0.97722 0.0
H1995 H 0.56676 0.25344 0.97487 0.0
H1996 H 0.44469 0.14156 0.00848 0.0
H1997 H 0.49021 0.18256 -0.00033 0.0
H1998 H 0.45567 0.29558 0.00019 0.0
C1999 C 0.56797 0.35772 0.98164 0.0
C2000 C 0.54246 0.26295 0.98025 0.0
C2001 C 0.5964 0.38114 0.98363 0.0
C2002 C 0.43653 0.1673 0.00406 0.0
C2003 C 0.46272 0.19071 -0.0012 0.0
C2004 C 0.47932 0.28621 0.99424 0.0
C2005 C 0.57146 0.3218 0.98575 0.0
C2006 C 0.54001 0.29801 0.98578 0.0
C2007 C 0.45371 0.2247 0.99326 0.0
C2008 C 0.48221 0.25068 0.98933 0.0
H2009 H 0.65724 0.32287 -0.00164 0.0
H2010 H 0.6079 0.28198 0.99465 0.0
H2011 H 0.50529 0.33636 -0.003 0.0
H2012 H 0.36398 0.21965 -0.00205 0.0
H2013 H 0.40972 0.26017 0.98837 0.0
C2014 C 0.62469 0.6858 0.24253 0.0
C2015 C 0.61048 0.65283 0.24706 0.0
C2016 C 0.60241 0.71372 0.23828 0.0
C2017 C 0.50859 0.73894 0.22988 0.0
H2018 H 0.53574 0.82462 0.25243 0.0
C2019 C 0.40898 0.84364 0.25119 0.0
C2020 C 0.41932 0.87946 0.25202 0.0
C2021 C 0.43274 0.81773 0.24607 0.0
C2022 C 0.52802 0.8013 0.24573 0.0
H2023 H 0.56191 0.62249 0.24985 0.0
H2024 H 0.52273 0.67162 0.24278 0.0
H2025 H 0.57659 0.77518 0.25134 0.0
H2026 H 0.46276 0.91622 0.24757 0.0
H2027 H 0.50403 0.871 0.2384 0.0
H2028 H 0.45926 0.76492 0.22488 0.0
C2029 C 0.55117 0.67574 0.2422 0.0
C2030 C 0.55151 0.77282 0.24509 0.0
C2031 C 0.57358 0.64757 0.24628 0.0
C2032 C 0.45363 0.889 0.24694 0.0
C2033 C 0.47746 0.863 0.24182 0.0
C2034 C 0.485 0.76753 0.23053 0.0
C2035 C 0.56534 0.7095 0.23872 0.0
C2036 C 0.54183 0.741 0.23747 0.0
C2037 C 0.46754 0.82697 0.24171 0.0
C2038 C 0.49417 0.79873 0.23879 0.0
H2039 H 0.6531 0.69039 0.24284 0.0
H2040 H 0.61422 0.73909 0.23527 0.0
H2041 H 0.50053 0.71499 0.22373 0.0
H2042 H 0.38269 0.83538 0.25491 0.0
H2043 H 0.42431 0.79024 0.24632 0.0
C2044 C 0.0924 0.87513 0.5033 0.0
C2045 C 0.126 0.85913 0.50365 0.0
C2046 C 0.06282 0.85641 0.49782 0.0
C2047 C 0.03343 0.77244 0.4781 0.0
H2048 H 0.95259 0.78326 0.5062 0.0
C2049 C 0.93029 0.66317 0.49041 0.0
C2050 C 0.89504 0.67265 0.49385 0.0
C2051 C 0.95575 0.6891 0.48708 0.0
C2052 C 0.97452 0.78038 0.49797 0.0
H2053 H 0.15535 0.81138 0.49803 0.0
H2054 H 0.10348 0.77814 0.48889 0.0
H2055 H 1.00291 0.82296 0.50883 0.0
H2056 H 0.85862 0.71704 0.49555 0.0
H2057 H 0.90301 0.76224 0.48964 0.0
H2058 H 1.00533 0.72846 0.46783 0.0
C2059 C 0.10003 0.80552 0.49245 0.0
C2060 C 1.00351 0.80323 0.49948 0.0
C2061 C 0.1298 0.82451 0.49773 0.0
C2062 C 0.88536 0.70861 0.4929 0.0
C2063 C 0.91091 0.73462 0.48963 0.0
C2064 C 1.0044 0.74938 0.47665 0.0
C2065 C 0.066 0.82093 0.49288 0.0
C2066 C 0.03368 0.79914 0.48979 0.0
C2067 C 0.94661 0.7252 0.4872 0.0
C2068 C 0.97495 0.75266 0.48682 0.0
H2069 H 0.08884 0.90196 0.50763 0.0
H2070 H 0.03722 0.86943 0.49795 0.0
H2071 H 0.05596 0.76889 0.47027 0.0
H2072 H 0.9386 0.63569 0.4909 0.0
H2073 H 0.98303 0.68093 0.48538 0.0
C2074 C 0.08294 0.14788 0.74795 0.0
C2075 C 0.11955 0.15363 0.75 0.0
C2076 C 0.06074 0.17597 0.7435 0.0
C2077 C 0.05836 0.27306 0.74708 0.0
H2078 H 0.97112 0.26422 0.72287 0.0
C2079 C 0.95812 0.38747 0.7454 0.0
C2080 C 0.92314 0.37699 0.74896 0.0
C2081 C 0.98352 0.36217 0.74111 0.0
C2082 C 0.99545 0.26711 0.72964 0.0
H2083 H 0.16197 0.19229 0.74778 0.0
H2084 H 0.12352 0.24085 0.73967 0.0
H2085 H 0.01329 0.215 0.72333 0.0
H2086 H 0.887 0.33209 0.74983 0.0
H2087 H 0.93116 0.28822 0.74264 0.0
H2088 H 0.04015 0.32444 0.75391 0.0
C2089 C 0.11172 0.21509 0.74192 0.0
C2090 C 0.01954 0.2389 0.72993 0.0
C2091 C 0.13377 0.18723 0.7465 0.0
C2092 C 0.91377 0.34104 0.74729 0.0
C2093 C 0.93905 0.31587 0.74299 0.0
C2094 C 0.03434 0.30117 0.7468 0.0
C2095 C 0.07479 0.21018 0.74093 0.0
C2096 C 0.05095 0.24129 0.73893 0.0
C2097 C 0.97446 0.32594 0.74028 0.0
C2098 C 1.0022 0.29825 0.73839 0.0
H2099 H 0.07115 0.12236 0.75071 0.0
H2100 H 0.03237 0.1713 0.74297 0.0
H2101 H 0.08195 0.27567 0.75438 0.0
H2102 H 0.96644 0.41483 0.74669 0.0
H2103 H 1.01053 0.37083 0.73894 0.0
C2104 C 0.59914 0.85799 0.99433 0.0
C2105 C 0.63432 0.84769 0.99127 0.0
C2106 C 0.5731 0.83268 -0.00231 0.0
C2107 C 0.55184 0.74199 0.98732 0.0
H2108 H 0.4724 0.75492 0.01605 0.0
C2109 C 0.43145 0.64981 0.98321 0.0
C2110 C 0.39807 0.66618 0.98385 0.0
C2111 C 0.46188 0.66791 0.98816 0.0
C2112 C 0.4943 0.75099 0.00791 0.0
H2113 H 0.67005 0.80271 0.98998 0.0
H2114 H 0.62436 0.75838 0.9958 0.0
H2115 H 0.52391 0.79436 0.01786 0.0
H2116 H 0.37001 0.71393 0.99063 0.0
H2117 H 0.4233 0.74623 -0.00126 0.0
H2118 H 0.52189 0.70019 0.9767 0.0
C2119 C 0.61708 0.78616 0.99563 0.0
C2120 C 0.52387 0.77346 0.00902 0.0
C2121 C 0.64329 0.81159 0.99242 0.0
C2122 C 0.39542 0.70055 0.99017 0.0
C2123 C 0.42602 0.71899 0.99486 0.0
C2124 C 0.52224 0.71981 0.98611 0.0
C2125 C 0.58154 0.79641 -0.00211 0.0
C2126 C 0.55264 0.7696 -0.00148 0.0
C2127 C 0.45978 0.70321 0.99351 0.0
C2128 C 0.49275 0.7244 -0.00383 0.0
H2129 H 0.59147 0.88563 0.99361 0.0
H2130 H 0.54594 0.84141 -0.00077 0.0
H2131 H 0.57328 0.73872 0.97887 0.0
H2132 H 0.43412 0.62315 0.97855 0.0
H2133 H 0.48722 0.65452 0.98735 0.0
C2134 C 0.61848 0.18489 0.74273 0.0
C2135 C 0.60891 0.14884 0.74195 0.0
C2136 C 0.59375 0.21051 0.74718 0.0
C2137 C 0.49809 0.22531 0.74582 0.0
H2138 H 0.52192 0.31208 0.7683 0.0
C2139 C 0.39781 0.33815 0.7487 0.0
C2140 C 0.41113 0.37183 0.7447 0.0
C2141 C 0.4208 0.31064 0.75276 0.0
C2142 C 0.51489 0.28802 0.76198 0.0
H2143 H 0.56576 0.11141 0.74577 0.0
H2144 H 0.52275 0.15615 0.75378 0.0
H2145 H 0.56445 0.26318 0.76767 0.0
H2146 H 0.45892 0.40367 0.74257 0.0
H2147 H 0.4993 0.35536 0.74935 0.0
H2148 H 0.44928 0.2503 0.73959 0.0
C2149 C 0.54948 0.16454 0.75083 0.0
C2150 C 0.5392 0.26 0.76164 0.0
C2151 C 0.5743 0.13882 0.74639 0.0
C2152 C 0.44785 0.37808 0.74575 0.0
C2153 C 0.47098 0.35035 0.74965 0.0
C2154 C 0.47388 0.25323 0.74615 0.0
C2155 C 0.55872 0.20076 0.75092 0.0
C2156 C 0.53134 0.2286 0.75328 0.0
C2157 C 0.45774 0.316 0.75267 0.0
C2158 C 0.48219 0.28519 0.75398 0.0
H2159 H 0.64496 0.19353 0.73948 0.0
H2160 H 0.60169 0.23815 0.74693 0.0
H2161 H 0.4914 0.20182 0.73902 0.0
H2162 H 0.36956 0.33272 0.74818 0.0
H2163 H 0.40965 0.28478 0.75541 0.0
C2164 C 0.137 0.31329 0.49279 0.0
C2165 C 0.12817 0.34788 0.4879 0.0
C2166 C 0.11043 0.28962 0.49762 0.0
C2167 C 0.01502 0.28282 0.50888 0.0
H2168 H 0.01979 0.19314 0.48648 0.0
C2169 C 0.89184 0.19828 0.49309 0.0
C2170 C 0.89592 0.16141 0.49158 0.0
C2171 C 0.921 0.21965 0.49704 0.0
C2172 C 0.01822 0.21763 0.49317 0.0
H2173 H 0.08489 0.38523 0.48509 0.0
H2174 H 0.03873 0.34395 0.49332 0.0
H2175 H 0.07034 0.23303 0.48588 0.0
H2176 H 0.93267 0.11767 0.49425 0.0
H2177 H 0.98314 0.15467 0.50163 0.0
H2178 H 0.9623 0.2677 0.51574 0.0
C2179 C 0.06608 0.33515 0.49357 0.0
C2180 C 0.04733 0.24056 0.49281 0.0
C2181 C 0.09254 0.35871 0.48868 0.0
C2182 C 0.92894 0.1461 0.49513 0.0
C2183 C 0.95788 0.16733 0.49928 0.0
C2184 C 0.98585 0.25975 0.5093 0.0
C2185 C 0.07459 0.30008 0.49771 0.0
C2186 C 0.04577 0.27378 0.50033 0.0
C2187 C 0.95464 0.20446 0.49969 0.0
C2188 C 0.98683 0.22721 0.50113 0.0
H2189 H 0.16409 0.30388 0.49218 0.0
H2190 H 0.11781 0.26279 0.50084 0.0
H2191 H 0.01321 0.3081 0.51494 0.0
H2192 H 0.86675 0.21083 0.49028 0.0
H2193 H 0.91759 0.24817 0.4971 0.0
C2194 C 0.11364 0.68643 0.24465 0.0
C2195 C 0.1041 0.65041 0.24362 0.0
C2196 C 0.08899 0.71177 0.24949 0.0
C2197 C 0.99367 0.72596 0.24782 0.0
H2198 H 0.01654 0.81295 0.2703 0.0
C2199 C 0.89469 0.84019 0.2483 0.0
C2200 C 0.90896 0.87362 0.24455 0.0
C2201 C 0.9168 0.81236 0.25288 0.0
C2202 C 1.00976 0.78881 0.26399 0.0
H2203 H 0.0613 0.61267 0.24763 0.0
H2204 H 0.01845 0.6569 0.25624 0.0
H2205 H 0.05894 0.76392 0.27029 0.0
H2206 H 0.95749 0.9046 0.24328 0.0
H2207 H 0.99631 0.85575 0.25089 0.0
H2208 H 0.94544 0.75105 0.24084 0.0
C2209 C 0.04506 0.66548 0.25319 0.0
C2210 C 0.03398 0.76072 0.26402 0.0
C2211 C 0.0698 0.64005 0.24838 0.0
C2212 C 0.94567 0.87922 0.24625 0.0
C2213 C 0.96791 0.85118 0.25065 0.0
C2214 C 0.96959 0.75398 0.24774 0.0
C2215 C 0.05411 0.70172 0.25335 0.0
C2216 C 0.02652 0.72931 0.25561 0.0
C2217 C 0.9538 0.81714 0.25355 0.0
C2218 C 0.97764 0.78606 0.25552 0.0
H2219 H 0.13991 0.69528 0.24118 0.0
H2220 H 0.09676 0.73946 0.24932 0.0
H2221 H 0.98733 0.70241 0.24098 0.0
H2222 H 0.86642 0.83528 0.24728 0.0
H2223 H 0.90496 0.78674 0.25539 0.0
loop_
_geom_bond_atom_site_label_1
_geom_bond_atom_site_label_2
_geom_bond_distance
_geom_bond_site_symmetry_2
_ccdc_geom_bond_type
Zn0 N4 2.020 . S
Zn0 O8 2.019 . S
Zn0 N10 2.119 . S
Zn0 O18 1.975 . S
C1 N2 1.334 . S
C1 N5 1.336 . S
N2 C1 1.334 . S
N2 C3 1.334 . S
C3 N2 1.334 . S
C3 N4 1.336 . S
N4 Zn0 2.020 . S
N4 C3 1.336 . S
N4 N5 1.354 . S
N5 C1 1.336 . S
N5 N4 1.354 . S
N5 Zn9 2.020 . S
C6 O7 1.244 . S
C6 O30 1.257 . S
O7 C6 1.244 . S
O8 Zn0 2.019 . S
O8 C28 1.257 . S
Zn9 N5 2.020 . S
Zn9 O16 1.975 . S
Zn9 N25 2.119 . S
Zn9 O30 2.019 1_554 S
N10 Zn0 2.119 . S
N10 C12 1.334 . S
N10 C13 1.328 . S
C11 C12 1.391 . S
C11 N14 1.329 . S
C11 H32 0.930 . S
C12 N10 1.334 . S
C12 C11 1.391 . S
C12 H19 0.930 . S
C13 N10 1.328 . S
C13 C15 1.392 . S
C13 H20 0.930 . S
N14 C11 1.329 . S
N14 C15 1.331 . S
C15 C13 1.392 . S
C15 N14 1.331 . S
O16 Zn9 1.975 . S
O16 C17 1.252 . S
C17 O16 1.252 . S
C17 O18 1.252 . S
O18 Zn0 1.975 . S
O18 C17 1.252 . S
H19 C12 0.930 . S
H20 C13 0.930 . S
C21 C22 1.392 . S
C21 N25 1.328 . S
C21 H27 0.930 1_554 S
C22 C21 1.392 . S
C22 N26 1.331 . S
C23 C24 1.391 . S
C23 N26 1.329 . S
C23 H33 0.930 . S
C24 C23 1.391 . S
C24 N25 1.334 . S
C24 H31 0.930 . S
N25 Zn9 2.119 . S
N25 C21 1.328 . S
N25 C24 1.334 . S
N26 C22 1.331 . S
N26 C23 1.329 . S
H27 C21 0.930 1_556 S
C28 O8 1.257 . S
C28 O29 1.244 . S
O29 C28 1.244 . S
O30 C6 1.257 . S
O30 Zn9 2.019 1_556 S
H31 C24 0.930 . S
H32 C11 0.930 . S
H33 C23 0.930 . S
Zn34 N38 2.020 . S
Zn34 O42 2.019 . S
Zn34 N44 2.119 . S
Zn34 O52 1.975 . S
C35 N36 1.334 . S
C35 N39 1.336 . S
N36 C35 1.334 . S
N36 C37 1.334 . S
C37 N36 1.334 . S
C37 N38 1.336 . S
N38 Zn34 2.020 . S
N38 C37 1.336 . S
N38 N39 1.354 . S
N39 C35 1.336 . S
N39 N38 1.354 . S
N39 Zn43 2.020 . S
C40 O41 1.244 . S
C40 O64 1.257 . S
O41 C40 1.244 . S
O42 Zn34 2.019 . S
O42 C62 1.257 . S
Zn43 N39 2.020 . S
Zn43 O50 1.975 . S
Zn43 N59 2.119 . S
Zn43 O64 2.019 . S
N44 Zn34 2.119 . S
N44 C46 1.334 . S
N44 C47 1.328 . S
C45 C46 1.391 . S
C45 N48 1.329 . S
C45 H66 0.930 . S
C46 N44 1.334 . S
C46 C45 1.391 . S
C46 H53 0.930 . S
C47 N44 1.328 . S
C47 C49 1.392 . S
C47 H54 0.930 . S
N48 C45 1.329 . S
N48 C49 1.331 . S
C49 C47 1.392 . S
C49 N48 1.331 . S
O50 Zn43 1.975 . S
O50 C51 1.252 . S
C51 O50 1.252 . S
C51 O52 1.252 . S
O52 Zn34 1.975 . S
O52 C51 1.252 . S
H53 C46 0.930 . S
H54 C47 0.930 . S
C55 C56 1.392 . S
C55 N59 1.328 . S
C55 H61 0.930 . S
C56 C55 1.392 . S
C56 N60 1.331 . S
C57 C58 1.391 . S
C57 N60 1.329 . S
C57 H67 0.930 . S
C58 C57 1.391 . S
C58 N59 1.334 . S
C58 H65 0.930 . S
N59 Zn43 2.119 . S
N59 C55 1.328 . S
N59 C58 1.334 . S
N60 C56 1.331 . S
N60 C57 1.329 . S
H61 C55 0.930 . S
C62 O42 1.257 . S
C62 O63 1.244 . S
O63 C62 1.244 . S
O64 C40 1.257 . S
O64 Zn43 2.019 . S
H65 C58 0.930 . S
H66 C45 0.930 . S
H67 C57 0.930 . S
Zn68 N72 2.020 . S
Zn68 O76 2.019 . S
Zn68 N78 2.119 . S
Zn68 O86 1.975 . S
C69 N70 1.334 . S
C69 N73 1.336 . S
N70 C69 1.334 . S
N70 C71 1.334 . S
C71 N70 1.334 . S
C71 N72 1.336 . S
N72 Zn68 2.020 . S
N72 C71 1.336 . S
N72 N73 1.354 . S
N73 C69 1.336 . S
N73 N72 1.354 . S
N73 Zn77 2.020 . S
C74 O75 1.244 . S
C74 O98 1.257 . S
O75 C74 1.244 . S
O76 Zn68 2.019 . S
O76 C96 1.257 . S
Zn77 N73 2.020 . S
Zn77 O84 1.975 . S
Zn77 N93 2.119 . S
Zn77 O98 2.019 . S
N78 Zn68 2.119 . S
N78 C80 1.334 . S
N78 C81 1.328 . S
C79 C80 1.391 . S
C79 N82 1.329 . S
C79 H100 0.930 . S
C80 N78 1.334 . S
C80 C79 1.391 . S
C80 H87 0.930 . S
C81 N78 1.328 . S
C81 C83 1.392 . S
C81 H88 0.930 . S
N82 C79 1.329 . S
N82 C83 1.331 . S
C83 C81 1.392 . S
C83 N82 1.331 . S
O84 Zn77 1.975 . S
O84 C85 1.252 . S
C85 O84 1.252 . S
C85 O86 1.252 . S
O86 Zn68 1.975 . S
O86 C85 1.252 . S
H87 C80 0.930 . S
H88 C81 0.930 . S
C89 C90 1.392 . S
C89 N93 1.328 . S
C89 H95 0.930 . S
C90 C89 1.392 . S
C90 N94 1.331 . S
C91 C92 1.391 . S
C91 N94 1.329 . S
C91 H101 0.930 . S
C92 C91 1.391 . S
C92 N93 1.334 . S
C92 H99 0.930 . S
N93 Zn77 2.119 . S
N93 C89 1.328 . S
N93 C92 1.334 . S
N94 C90 1.331 . S
N94 C91 1.329 . S
H95 C89 0.930 . S
C96 O76 1.257 . S
C96 O97 1.244 . S
O97 C96 1.244 . S
O98 C74 1.257 . S
O98 Zn77 2.019 . S
H99 C92 0.930 . S
H100 C79 0.930 . S
H101 C91 0.930 . S
Zn102 N106 2.020 . S
Zn102 O110 2.019 . S
Zn102 N112 2.119 . S
Zn102 O120 1.975 . S
C103 N104 1.334 . S
C103 N107 1.336 . S
N104 C103 1.334 . S
N104 C105 1.334 . S
C105 N104 1.334 . S
C105 N106 1.336 . S
N106 Zn102 2.020 . S
N106 C105 1.336 . S
N106 N107 1.354 . S
N107 C103 1.336 . S
N107 N106 1.354 . S
N107 Zn111 2.020 . S
C108 O109 1.244 . S
C108 O132 1.257 . S
O109 C108 1.244 . S
O110 Zn102 2.019 . S
O110 C130 1.257 . S
Zn111 N107 2.020 . S
Zn111 O118 1.975 . S
Zn111 N127 2.119 . S
Zn111 O132 2.019 . S
N112 Zn102 2.119 . S
N112 C114 1.334 . S
N112 C115 1.328 . S
C113 C114 1.391 . S
C113 N116 1.329 . S
C113 H134 0.930 . S
C114 N112 1.334 . S
C114 C113 1.391 . S
C114 H121 0.930 . S
C115 N112 1.328 . S
C115 C117 1.392 . S
C115 H122 0.930 . S
N116 C113 1.329 . S
N116 C117 1.331 . S
C117 C115 1.392 . S
C117 N116 1.331 . S
O118 Zn111 1.975 . S
O118 C119 1.252 . S
C119 O118 1.252 . S
C119 O120 1.252 . S
O120 Zn102 1.975 . S
O120 C119 1.252 . S
H121 C114 0.930 . S
H122 C115 0.930 . S
C123 C124 1.392 . S
C123 N127 1.328 . S
C123 H129 0.930 . S
C124 C123 1.392 . S
C124 N128 1.331 . S
C125 C126 1.391 . S
C125 N128 1.329 . S
C125 H135 0.930 . S
C126 C125 1.391 . S
C126 N127 1.334 . S
C126 H133 0.930 . S
N127 Zn111 2.119 . S
N127 C123 1.328 . S
N127 C126 1.334 . S
N128 C124 1.331 . S
N128 C125 1.329 . S
H129 C123 0.930 . S
C130 O110 1.257 . S
C130 O131 1.244 . S
O131 C130 1.244 . S
O132 C108 1.257 . S
O132 Zn111 2.019 . S
H133 C126 0.930 . S
H134 C113 0.930 . S
H135 C125 0.930 . S
Zn136 N140 2.020 . S
Zn136 O144 2.019 1_556 S
Zn136 N146 2.119 . S
Zn136 O154 1.975 . S
C137 N138 1.334 . S
C137 N141 1.336 . S
N138 C137 1.334 . S
N138 C139 1.334 . S
C139 N138 1.334 . S
C139 N140 1.336 . S
N140 Zn136 2.020 . S
N140 C139 1.336 . S
N140 N141 1.354 . S
N141 C137 1.336 . S
N141 N140 1.354 . S
N141 Zn145 2.020 . S
C142 O143 1.244 . S
C142 O166 1.257 . S
O143 C142 1.244 . S
O144 Zn136 2.019 1_554 S
O144 C164 1.257 . S
Zn145 N141 2.020 . S
Zn145 O152 1.975 . S
Zn145 N161 2.119 . S
Zn145 O166 2.019 . S
N146 Zn136 2.119 . S
N146 C148 1.334 . S
N146 C149 1.328 . S
C147 C148 1.391 . S
C147 N150 1.329 . S
C147 H168 0.930 . S
C148 N146 1.334 . S
C148 C147 1.391 . S
C148 H155 0.930 . S
C149 N146 1.328 . S
C149 C151 1.392 . S
C149 H156 0.930 1_556 S
N150 C147 1.329 . S
N150 C151 1.331 . S
C151 C149 1.392 . S
C151 N150 1.331 . S
O152 Zn145 1.975 . S
O152 C153 1.252 . S
C153 O152 1.252 . S
C153 O154 1.252 . S
O154 Zn136 1.975 . S
O154 C153 1.252 . S
H155 C148 0.930 . S
H156 C149 0.930 1_554 S
C157 C158 1.392 . S
C157 N161 1.328 . S
C157 H163 0.930 . S
C158 C157 1.392 . S
C158 N162 1.331 . S
C159 C160 1.391 . S
C159 N162 1.329 . S
C159 H169 0.930 . S
C160 C159 1.391 . S
C160 N161 1.334 . S
C160 H167 0.930 . S
N161 Zn145 2.119 . S
N161 C157 1.328 . S
N161 C160 1.334 . S
N162 C158 1.331 . S
N162 C159 1.329 . S
H163 C157 0.930 . S
C164 O144 1.257 . S
C164 O165 1.244 . S
O165 C164 1.244 . S
O166 C142 1.257 . S
O166 Zn145 2.019 . S
H167 C160 0.930 . S
H168 C147 0.930 . S
H169 C159 0.930 . S
Zn170 N174 2.020 . S
Zn170 O178 2.019 . S
Zn170 N180 2.119 . S
Zn170 O188 1.975 . S
C171 N172 1.334 . S
C171 N175 1.336 . S
N172 C171 1.334 . S
N172 C173 1.334 . S
C173 N172 1.334 . S
C173 N174 1.336 . S
N174 Zn170 2.020 . S
N174 C173 1.336 . S
N174 N175 1.354 . S
N175 C171 1.336 . S
N175 N174 1.354 . S
N175 Zn179 2.020 . S
C176 O177 1.244 . S
C176 O200 1.257 . S
O177 C176 1.244 . S
O178 Zn170 2.019 . S
O178 C198 1.257 . S
Zn179 N175 2.020 . S
Zn179 O186 1.975 . S
Zn179 N195 2.119 . S
Zn179 O200 2.019 . S
N180 Zn170 2.119 . S
N180 C182 1.334 . S
N180 C183 1.328 . S
C181 C182 1.391 . S
C181 N184 1.329 . S
C181 H202 0.930 . S
C182 N180 1.334 . S
C182 C181 1.391 . S
C182 H189 0.930 . S
C183 N180 1.328 . S
C183 C185 1.392 . S
C183 H190 0.930 . S
N184 C181 1.329 . S
N184 C185 1.331 . S
C185 C183 1.392 . S
C185 N184 1.331 . S
O186 Zn179 1.975 . S
O186 C187 1.252 . S
C187 O186 1.252 . S
C187 O188 1.252 . S
O188 Zn170 1.975 . S
O188 C187 1.252 . S
H189 C182 0.930 . S
H190 C183 0.930 . S
C191 C192 1.392 . S
C191 N195 1.328 . S
C191 H197 0.930 . S
C192 C191 1.392 . S
C192 N196 1.331 . S
C193 C194 1.391 . S
C193 N196 1.329 . S
C193 H203 0.930 . S
C194 C193 1.391 . S
C194 N195 1.334 . S
C194 H201 0.930 . S
N195 Zn179 2.119 . S
N195 C191 1.328 . S
N195 C194 1.334 . S
N196 C192 1.331 . S
N196 C193 1.329 . S
H197 C191 0.930 . S
C198 O178 1.257 . S
C198 O199 1.244 . S
O199 C198 1.244 . S
O200 C176 1.257 . S
O200 Zn179 2.019 . S
H201 C194 0.930 . S
H202 C181 0.930 . S
H203 C193 0.930 . S
Zn204 N208 2.020 . S
Zn204 O212 2.019 . S
Zn204 N214 2.119 . S
Zn204 O222 1.975 . S
C205 N206 1.334 . S
C205 N209 1.336 . S
N206 C205 1.334 . S
N206 C207 1.334 . S
C207 N206 1.334 . S
C207 N208 1.336 . S
N208 Zn204 2.020 . S
N208 C207 1.336 . S
N208 N209 1.354 . S
N209 C205 1.336 . S
N209 N208 1.354 . S
N209 Zn213 2.020 . S
C210 O211 1.244 . S
C210 O234 1.257 . S
O211 C210 1.244 . S
O212 Zn204 2.019 . S
O212 C232 1.257 . S
Zn213 N209 2.020 . S
Zn213 O220 1.975 . S
Zn213 N229 2.119 . S
Zn213 O234 2.019 . S
N214 Zn204 2.119 . S
N214 C216 1.334 . S
N214 C217 1.328 . S
C215 C216 1.391 . S
C215 N218 1.329 . S
C215 H236 0.930 . S
C216 N214 1.334 . S
C216 C215 1.391 . S
C216 H223 0.930 . S
C217 N214 1.328 . S
C217 C219 1.392 . S
C217 H224 0.930 . S
N218 C215 1.329 . S
N218 C219 1.331 . S
C219 C217 1.392 . S
C219 N218 1.331 . S
O220 Zn213 1.975 . S
O220 C221 1.252 . S
C221 O220 1.252 . S
C221 O222 1.252 . S
O222 Zn204 1.975 . S
O222 C221 1.252 . S
H223 C216 0.930 . S
H224 C217 0.930 . S
C225 C226 1.392 . S
C225 N229 1.328 . S
C225 H231 0.930 . S
C226 C225 1.392 . S
C226 N230 1.331 . S
C227 C228 1.391 . S
C227 N230 1.329 . S
C227 H237 0.930 . S
C228 C227 1.391 . S
C228 N229 1.334 . S
C228 H235 0.930 . S
N229 Zn213 2.119 . S
N229 C225 1.328 . S
N229 C228 1.334 . S
N230 C226 1.331 . S
N230 C227 1.329 . S
H231 C225 0.930 . S
C232 O212 1.257 . S
C232 O233 1.244 . S
O233 C232 1.244 . S
O234 C210 1.257 . S
O234 Zn213 2.019 . S
H235 C228 0.930 . S
H236 C215 0.930 . S
H237 C227 0.930 . S
Zn238 N242 2.020 . S
Zn238 O246 2.019 . S
Zn238 N248 2.119 . S
Zn238 O256 1.975 . S
C239 N240 1.334 . S
C239 N243 1.336 . S
N240 C239 1.334 . S
N240 C241 1.334 . S
C241 N240 1.334 . S
C241 N242 1.336 . S
N242 Zn238 2.020 . S
N242 C241 1.336 . S
N242 N243 1.354 . S
N243 C239 1.336 . S
N243 N242 1.354 . S
N243 Zn247 2.020 . S
C244 O245 1.244 . S
C244 O268 1.257 . S
O245 C244 1.244 . S
O246 Zn238 2.019 . S
O246 C266 1.257 . S
Zn247 N243 2.020 . S
Zn247 O254 1.975 . S
Zn247 N263 2.119 . S
Zn247 O268 2.019 . S
N248 Zn238 2.119 . S
N248 C250 1.334 . S
N248 C251 1.328 . S
C249 C250 1.391 . S
C249 N252 1.329 . S
C249 H270 0.930 . S
C250 N248 1.334 . S
C250 C249 1.391 . S
C250 H257 0.930 . S
C251 N248 1.328 . S
C251 C253 1.392 . S
C251 H258 0.930 . S
N252 C249 1.329 . S
N252 C253 1.331 . S
C253 C251 1.392 . S
C253 N252 1.331 . S
O254 Zn247 1.975 . S
O254 C255 1.252 . S
C255 O254 1.252 . S
C255 O256 1.252 . S
O256 Zn238 1.975 . S
O256 C255 1.252 . S
H257 C250 0.930 . S
H258 C251 0.930 . S
C259 C260 1.392 . S
C259 N263 1.328 . S
C259 H265 0.930 . S
C260 C259 1.392 . S
C260 N264 1.331 . S
C261 C262 1.391 . S
C261 N264 1.329 . S
C261 H271 0.930 . S
C262 C261 1.391 . S
C262 N263 1.334 . S
C262 H269 0.930 . S
N263 Zn247 2.119 . S
N263 C259 1.328 . S
N263 C262 1.334 . S
N264 C260 1.331 . S
N264 C261 1.329 . S
H265 C259 0.930 . S
C266 O246 1.257 . S
C266 O267 1.244 . S
O267 C266 1.244 . S
O268 C244 1.257 . S
O268 Zn247 2.019 . S
H269 C262 0.930 . S
H270 C249 0.930 . S
H271 C261 0.930 . S
Zn272 N276 2.020 . S
Zn272 O280 2.019 . S
Zn272 N282 2.119 . S
Zn272 O290 1.975 . S
C273 N274 1.334 . S
C273 N277 1.336 . S
N274 C273 1.334 . S
N274 C275 1.334 . S
C275 N274 1.334 . S
C275 N276 1.336 . S
N276 Zn272 2.020 . S
N276 C275 1.336 . S
N276 N277 1.354 . S
N277 C273 1.336 . S
N277 N276 1.354 . S
N277 Zn281 2.020 . S
C278 O279 1.244 . S
C278 O302 1.257 . S
O279 C278 1.244 . S
O280 Zn272 2.019 . S
O280 C300 1.257 . S
Zn281 N277 2.020 . S
Zn281 O288 1.975 . S
Zn281 N297 2.119 . S
Zn281 O302 2.019 . S
N282 Zn272 2.119 . S
N282 C284 1.334 . S
N282 C285 1.328 . S
C283 C284 1.391 . S
C283 N286 1.329 . S
C283 H304 0.930 . S
C284 N282 1.334 . S
C284 C283 1.391 . S
C284 H291 0.930 . S
C285 N282 1.328 . S
C285 C287 1.392 . S
C285 H292 0.930 . S
N286 C283 1.329 . S
N286 C287 1.331 . S
C287 C285 1.392 . S
C287 N286 1.331 . S
O288 Zn281 1.975 . S
O288 C289 1.252 . S
C289 O288 1.252 . S
C289 O290 1.252 . S
O290 Zn272 1.975 . S
O290 C289 1.252 . S
H291 C284 0.930 . S
H292 C285 0.930 . S
C293 C294 1.392 . S
C293 N297 1.328 . S
C293 H299 0.930 . S
C294 C293 1.392 . S
C294 N298 1.331 . S
C295 C296 1.391 . S
C295 N298 1.329 . S
C295 H305 0.930 . S
C296 C295 1.391 . S
C296 N297 1.334 . S
C296 H303 0.930 . S
N297 Zn281 2.119 . S
N297 C293 1.328 . S
N297 C296 1.334 . S
N298 C294 1.331 . S
N298 C295 1.329 . S
H299 C293 0.930 . S
C300 O280 1.257 . S
C300 O301 1.244 . S
O301 C300 1.244 . S
O302 C278 1.257 . S
O302 Zn281 2.019 . S
H303 C296 0.930 . S
H304 C283 0.930 . S
H305 C295 0.930 . S
Zn306 N310 2.020 . S
Zn306 O314 2.019 . S
Zn306 N316 2.119 . S
Zn306 O324 1.975 . S
C307 N308 1.334 . S
C307 N311 1.336 . S
N308 C307 1.334 . S
N308 C309 1.334 . S
C309 N308 1.334 . S
C309 N310 1.336 . S
N310 Zn306 2.020 . S
N310 C309 1.336 . S
N310 N311 1.354 . S
N311 C307 1.336 . S
N311 N310 1.354 . S
N311 Zn315 2.020 . S
C312 O313 1.244 . S
C312 O336 1.257 . S
O313 C312 1.244 . S
O314 Zn306 2.019 . S
O314 C334 1.257 . S
Zn315 N311 2.020 . S
Zn315 O322 1.975 . S
Zn315 N331 2.119 1_545 S
Zn315 O336 2.019 . S
N316 Zn306 2.119 . S
N316 C318 1.334 . S
N316 C319 1.328 . S
C317 C318 1.391 . S
C317 N320 1.329 . S
C317 H338 0.930 . S
C318 N316 1.334 . S
C318 C317 1.391 . S
C318 H325 0.930 . S
C319 N316 1.328 . S
C319 C321 1.392 . S
C319 H326 0.930 . S
N320 C317 1.329 . S
N320 C321 1.331 . S
C321 C319 1.392 . S
C321 N320 1.331 . S
O322 Zn315 1.975 . S
O322 C323 1.252 . S
C323 O322 1.252 . S
C323 O324 1.252 . S
O324 Zn306 1.975 . S
O324 C323 1.252 . S
H325 C318 0.930 . S
H326 C319 0.930 . S
C327 C328 1.392 . S
C327 N331 1.328 . S
C327 H333 0.930 . S
C328 C327 1.392 . S
C328 N332 1.331 . S
C329 C330 1.391 . S
C329 N332 1.329 . S
C329 H339 0.930 . S
C330 C329 1.391 . S
C330 N331 1.334 . S
C330 H337 0.930 . S
N331 Zn315 2.119 1_565 S
N331 C327 1.328 . S
N331 C330 1.334 . S
N332 C328 1.331 . S
N332 C329 1.329 . S
H333 C327 0.930 . S
C334 O314 1.257 . S
C334 O335 1.244 1_545 S
O335 C334 1.244 1_565 S
O336 C312 1.257 . S
O336 Zn315 2.019 . S
H337 C330 0.930 . S
H338 C317 0.930 . S
H339 C329 0.930 . S
Zn340 N344 2.020 . S
Zn340 O348 2.019 1_554 S
Zn340 N350 2.119 . S
Zn340 O358 1.975 . S
C341 N342 1.334 . S
C341 N345 1.336 . S
N342 C341 1.334 . S
N342 C343 1.334 . S
C343 N342 1.334 . S
C343 N344 1.336 . S
N344 Zn340 2.020 . S
N344 C343 1.336 . S
N344 N345 1.354 . S
N345 C341 1.336 . S
N345 N344 1.354 . S
N345 Zn349 2.020 . S
C346 O347 1.244 . S
C346 O370 1.257 . S
O347 C346 1.244 . S
O348 Zn340 2.019 1_556 S
O348 C368 1.257 . S
Zn349 N345 2.020 . S
Zn349 O356 1.975 . S
Zn349 N365 2.119 . S
Zn349 O370 2.019 . S
N350 Zn340 2.119 . S
N350 C352 1.334 . S
N350 C353 1.328 . S
C351 C352 1.391 . S
C351 N354 1.329 . S
C351 H372 0.930 . S
C352 N350 1.334 . S
C352 C351 1.391 . S
C352 H359 0.930 . S
C353 N350 1.328 . S
C353 C355 1.392 . S
C353 H360 0.930 1_554 S
N354 C351 1.329 . S
N354 C355 1.331 . S
C355 C353 1.392 . S
C355 N354 1.331 . S
O356 Zn349 1.975 . S
O356 C357 1.252 . S
C357 O356 1.252 . S
C357 O358 1.252 . S
O358 Zn340 1.975 . S
O358 C357 1.252 . S
H359 C352 0.930 . S
H360 C353 0.930 1_556 S
C361 C362 1.392 . S
C361 N365 1.328 . S
C361 H367 0.930 . S
C362 C361 1.392 . S
C362 N366 1.331 . S
C363 C364 1.391 . S
C363 N366 1.329 . S
C363 H373 0.930 . S
C364 C363 1.391 . S
C364 N365 1.334 . S
C364 H371 0.930 . S
N365 Zn349 2.119 . S
N365 C361 1.328 . S
N365 C364 1.334 . S
N366 C362 1.331 . S
N366 C363 1.329 . S
H367 C361 0.930 . S
C368 O348 1.257 . S
C368 O369 1.244 . S
O369 C368 1.244 . S
O370 C346 1.257 . S
O370 Zn349 2.019 . S
H371 C364 0.930 . S
H372 C351 0.930 . S
H373 C363 0.930 . S
Zn374 N378 2.020 . S
Zn374 O382 2.019 . S
Zn374 N384 2.119 . S
Zn374 O392 1.975 . S
C375 N376 1.334 . S
C375 N379 1.336 . S
N376 C375 1.334 . S
N376 C377 1.334 . S
C377 N376 1.334 . S
C377 N378 1.336 . S
N378 Zn374 2.020 . S
N378 C377 1.336 . S
N378 N379 1.354 . S
N379 C375 1.336 . S
N379 N378 1.354 . S
N379 Zn383 2.020 . S
C380 O381 1.244 . S
C380 O404 1.257 . S
O381 C380 1.244 . S
O382 Zn374 2.019 . S
O382 C402 1.257 . S
Zn383 N379 2.020 . S
Zn383 O390 1.975 . S
Zn383 N399 2.119 1_565 S
Zn383 O404 2.019 . S
N384 Zn374 2.119 . S
N384 C386 1.334 . S
N384 C387 1.328 . S
C385 C386 1.391 . S
C385 N388 1.329 . S
C385 H406 0.930 . S
C386 N384 1.334 . S
C386 C385 1.391 . S
C386 H393 0.930 . S
C387 N384 1.328 . S
C387 C389 1.392 . S
C387 H394 0.930 . S
N388 C385 1.329 . S
N388 C389 1.331 . S
C389 C387 1.392 . S
C389 N388 1.331 . S
O390 Zn383 1.975 . S
O390 C391 1.252 . S
C391 O390 1.252 . S
C391 O392 1.252 . S
O392 Zn374 1.975 . S
O392 C391 1.252 . S
H393 C386 0.930 . S
H394 C387 0.930 . S
C395 C396 1.392 . S
C395 N399 1.328 . S
C395 H401 0.930 . S
C396 C395 1.392 . S
C396 N400 1.331 . S
C397 C398 1.391 . S
C397 N400 1.329 . S
C397 H407 0.930 . S
C398 C397 1.391 . S
C398 N399 1.334 . S
C398 H405 0.930 . S
N399 Zn383 2.119 1_545 S
N399 C395 1.328 . S
N399 C398 1.334 . S
N400 C396 1.331 . S
N400 C397 1.329 . S
H401 C395 0.930 . S
C402 O382 1.257 . S
C402 O403 1.244 1_565 S
O403 C402 1.244 1_545 S
O404 C380 1.257 . S
O404 Zn383 2.019 . S
H405 C398 0.930 . S
H406 C385 0.930 . S
H407 C397 0.930 . S
Zn408 N412 2.020 . S
Zn408 O416 2.019 . S
Zn408 N418 2.119 . S
Zn408 O426 1.975 . S
C409 N410 1.334 . S
C409 N413 1.336 . S
N410 C409 1.334 . S
N410 C411 1.334 . S
C411 N410 1.334 . S
C411 N412 1.336 . S
N412 Zn408 2.020 . S
N412 C411 1.336 . S
N412 N413 1.354 . S
N413 C409 1.336 . S
N413 N412 1.354 . S
N413 Zn417 2.020 . S
C414 O415 1.244 . S
C414 O438 1.257 . S
O415 C414 1.244 . S
O416 Zn408 2.019 . S
O416 C436 1.257 . S
Zn417 N413 2.020 . S
Zn417 O424 1.975 . S
Zn417 N433 2.119 . S
Zn417 O438 2.019 . S
N418 Zn408 2.119 . S
N418 C420 1.334 . S
N418 C421 1.328 . S
C419 C420 1.391 . S
C419 N422 1.329 . S
C419 H440 0.930 . S
C420 N418 1.334 . S
C420 C419 1.391 . S
C420 H427 0.930 . S
C421 N418 1.328 . S
C421 C423 1.392 . S
C421 H428 0.930 . S
N422 C419 1.329 . S
N422 C423 1.331 . S
C423 C421 1.392 . S
C423 N422 1.331 . S
O424 Zn417 1.975 . S
O424 C425 1.252 . S
C425 O424 1.252 . S
C425 O426 1.252 . S
O426 Zn408 1.975 . S
O426 C425 1.252 . S
H427 C420 0.930 . S
H428 C421 0.930 . S
C429 C430 1.392 . S
C429 N433 1.328 . S
C429 H435 0.930 . S
C430 C429 1.392 . S
C430 N434 1.331 . S
C431 C432 1.391 . S
C431 N434 1.329 . S
C431 H441 0.930 . S
C432 C431 1.391 . S
C432 N433 1.334 . S
C432 H439 0.930 . S
N433 Zn417 2.119 . S
N433 C429 1.328 . S
N433 C432 1.334 . S
N434 C430 1.331 . S
N434 C431 1.329 . S
H435 C429 0.930 . S
C436 O416 1.257 . S
C436 O437 1.244 . S
O437 C436 1.244 . S
O438 C414 1.257 . S
O438 Zn417 2.019 . S
H439 C432 0.930 . S
H440 C419 0.930 . S
H441 C431 0.930 . S
Zn442 N446 2.020 . S
Zn442 O450 2.019 . S
Zn442 N452 2.119 . S
Zn442 O460 1.975 . S
C443 N444 1.334 . S
C443 N447 1.336 . S
N444 C443 1.334 . S
N444 C445 1.334 . S
C445 N444 1.334 . S
C445 N446 1.336 . S
N446 Zn442 2.020 . S
N446 C445 1.336 . S
N446 N447 1.354 . S
N447 C443 1.336 . S
N447 N446 1.354 . S
N447 Zn451 2.020 . S
C448 O449 1.244 . S
C448 O472 1.257 . S
O449 C448 1.244 . S
O450 Zn442 2.019 . S
O450 C470 1.257 . S
Zn451 N447 2.020 . S
Zn451 O458 1.975 . S
Zn451 N467 2.119 1_565 S
Zn451 O472 2.019 . S
N452 Zn442 2.119 . S
N452 C454 1.334 . S
N452 C455 1.328 . S
C453 C454 1.391 . S
C453 N456 1.329 . S
C453 H474 0.930 . S
C454 N452 1.334 . S
C454 C453 1.391 . S
C454 H461 0.930 . S
C455 N452 1.328 . S
C455 C457 1.392 . S
C455 H462 0.930 . S
N456 C453 1.329 . S
N456 C457 1.331 . S
C457 C455 1.392 . S
C457 N456 1.331 . S
O458 Zn451 1.975 . S
O458 C459 1.252 . S
C459 O458 1.252 . S
C459 O460 1.252 . S
O460 Zn442 1.975 . S
O460 C459 1.252 . S
H461 C454 0.930 . S
H462 C455 0.930 . S
C463 C464 1.392 . S
C463 N467 1.328 . S
C463 H469 0.930 . S
C464 C463 1.392 . S
C464 N468 1.331 . S
C465 C466 1.391 . S
C465 N468 1.329 . S
C465 H475 0.930 . S
C466 C465 1.391 . S
C466 N467 1.334 . S
C466 H473 0.930 . S
N467 Zn451 2.119 1_545 S
N467 C463 1.328 . S
N467 C466 1.334 . S
N468 C464 1.331 . S
N468 C465 1.329 . S
H469 C463 0.930 . S
C470 O450 1.257 . S
C470 O471 1.244 1_565 S
O471 C470 1.244 1_545 S
O472 C448 1.257 . S
O472 Zn451 2.019 . S
H473 C466 0.930 . S
H474 C453 0.930 . S
H475 C465 0.930 . S
Zn476 N480 2.020 . S
Zn476 O484 2.019 1_556 S
Zn476 N486 2.119 . S
Zn476 O494 1.975 . S
C477 N478 1.334 . S
C477 N481 1.336 . S
N478 C477 1.334 . S
N478 C479 1.334 . S
C479 N478 1.334 . S
C479 N480 1.336 . S
N480 Zn476 2.020 . S
N480 C479 1.336 . S
N480 N481 1.354 . S
N481 C477 1.336 . S
N481 N480 1.354 . S
N481 Zn485 2.020 . S
C482 O483 1.244 . S
C482 O506 1.257 . S
O483 C482 1.244 . S
O484 Zn476 2.019 1_554 S
O484 C504 1.257 . S
Zn485 N481 2.020 . S
Zn485 O492 1.975 . S
Zn485 N501 2.119 . S
Zn485 O506 2.019 . S
N486 Zn476 2.119 . S
N486 C488 1.334 . S
N486 C489 1.328 . S
C487 C488 1.391 . S
C487 N490 1.329 . S
C487 H508 0.930 . S
C488 N486 1.334 . S
C488 C487 1.391 . S
C488 H495 0.930 . S
C489 N486 1.328 . S
C489 C491 1.392 . S
C489 H496 0.930 1_556 S
N490 C487 1.329 . S
N490 C491 1.331 . S
C491 C489 1.392 . S
C491 N490 1.331 . S
O492 Zn485 1.975 . S
O492 C493 1.252 . S
C493 O492 1.252 . S
C493 O494 1.252 . S
O494 Zn476 1.975 . S
O494 C493 1.252 . S
H495 C488 0.930 . S
H496 C489 0.930 1_554 S
C497 C498 1.392 . S
C497 N501 1.328 . S
C497 H503 0.930 . S
C498 C497 1.392 . S
C498 N502 1.331 . S
C499 C500 1.391 . S
C499 N502 1.329 . S
C499 H509 0.930 . S
C500 C499 1.391 . S
C500 N501 1.334 . S
C500 H507 0.930 . S
N501 Zn485 2.119 . S
N501 C497 1.328 . S
N501 C500 1.334 . S
N502 C498 1.331 . S
N502 C499 1.329 . S
H503 C497 0.930 . S
C504 O484 1.257 . S
C504 O505 1.244 . S
O505 C504 1.244 . S
O506 C482 1.257 . S
O506 Zn485 2.019 . S
H507 C500 0.930 . S
H508 C487 0.930 . S
H509 C499 0.930 . S
Zn510 N514 2.020 . S
Zn510 O518 2.019 . S
Zn510 N520 2.119 1_545 S
Zn510 O528 1.975 . S
C511 N512 1.334 . S
C511 N515 1.336 . S
N512 C511 1.334 . S
N512 C513 1.334 . S
C513 N512 1.334 . S
C513 N514 1.336 . S
N514 Zn510 2.020 . S
N514 C513 1.336 . S
N514 N515 1.354 . S
N515 C511 1.336 . S
N515 N514 1.354 . S
N515 Zn519 2.020 . S
C516 O517 1.244 1_545 S
C516 O540 1.257 . S
O517 C516 1.244 1_565 S
O518 Zn510 2.019 . S
O518 C538 1.257 . S
Zn519 N515 2.020 . S
Zn519 O526 1.975 . S
Zn519 N535 2.119 . S
Zn519 O540 2.019 . S
N520 Zn510 2.119 1_565 S
N520 C522 1.334 . S
N520 C523 1.328 . S
C521 C522 1.391 . S
C521 N524 1.329 . S
C521 H542 0.930 . S
C522 N520 1.334 . S
C522 C521 1.391 . S
C522 H529 0.930 . S
C523 N520 1.328 . S
C523 C525 1.392 . S
C523 H530 0.930 . S
N524 C521 1.329 . S
N524 C525 1.331 . S
C525 C523 1.392 . S
C525 N524 1.331 . S
O526 Zn519 1.975 . S
O526 C527 1.252 . S
C527 O526 1.252 . S
C527 O528 1.252 . S
O528 Zn510 1.975 . S
O528 C527 1.252 . S
H529 C522 0.930 . S
H530 C523 0.930 . S
C531 C532 1.392 . S
C531 N535 1.328 . S
C531 H537 0.930 . S
C532 C531 1.392 . S
C532 N536 1.331 . S
C533 C534 1.391 . S
C533 N536 1.329 . S
C533 H543 0.930 . S
C534 C533 1.391 . S
C534 N535 1.334 . S
C534 H541 0.930 . S
N535 Zn519 2.119 . S
N535 C531 1.328 . S
N535 C534 1.334 . S
N536 C532 1.331 . S
N536 C533 1.329 . S
H537 C531 0.930 . S
C538 O518 1.257 . S
C538 O539 1.244 . S
O539 C538 1.244 . S
O540 C516 1.257 . S
O540 Zn519 2.019 . S
H541 C534 0.930 . S
H542 C521 0.930 . S
H543 C533 0.930 . S
C544 C545 1.349 . S
C544 C546 1.327 . S
C544 H569 0.950 . S
C545 C544 1.349 . S
C545 C561 1.349 . S
C546 C544 1.327 . S
C546 C565 1.429 . S
C546 H570 0.950 . S
C547 C564 1.574 . S
C547 C566 1.368 . S
C547 H571 0.949 . S
H548 C552 0.949 . S
C549 C550 1.349 . S
C549 C551 1.327 . S
C549 H572 0.950 . S
C550 C549 1.349 . S
C550 C562 1.349 . S
C551 C549 1.327 . S
C551 C567 1.429 . S
C551 H573 0.950 . S
C552 H548 0.949 . S
C552 C560 1.574 . S
C552 C568 1.368 . S
H553 C561 0.950 . S
H554 C559 0.950 . S
H555 C560 0.949 . S
H556 C562 0.950 . S
H557 C563 0.950 . S
H558 C564 0.949 . S
C559 H554 0.950 . S
C559 C561 1.327 . S
C559 C565 1.429 . S
C560 C552 1.574 . S
C560 H555 0.949 . S
C560 C566 1.368 . S
C561 C545 1.349 . S
C561 H553 0.950 . S
C561 C559 1.327 . S
C562 C550 1.349 . S
C562 H556 0.950 . S
C562 C563 1.327 . S
C563 H557 0.950 . S
C563 C562 1.327 . S
C563 C567 1.429 . S
C564 C547 1.574 . S
C564 H558 0.949 . S
C564 C568 1.368 . S
C565 C546 1.429 . S
C565 C559 1.429 . S
C565 C566 1.523 . S
C566 C547 1.368 . S
C566 C560 1.368 . S
C566 C565 1.523 . S
C567 C551 1.429 . S
C567 C563 1.429 . S
C567 C568 1.523 . S
C568 C552 1.368 . S
C568 C564 1.368 . S
C568 C567 1.523 . S
H569 C544 0.950 . S
H570 C546 0.950 . S
H571 C547 0.949 . S
H572 C549 0.950 . S
H573 C551 0.950 . S
C574 C575 1.349 . S
C574 C576 1.327 . S
C574 H599 0.950 . S
C575 C574 1.349 . S
C575 C591 1.349 . S
C576 C574 1.327 . S
C576 C595 1.429 . S
C576 H600 0.950 . S
C577 C594 1.574 . S
C577 C596 1.368 . S
C577 H601 0.949 . S
H578 C582 0.949 . S
C579 C580 1.349 . S
C579 C581 1.327 . S
C579 H602 0.950 . S
C580 C579 1.349 . S
C580 C592 1.349 . S
C581 C579 1.327 . S
C581 C597 1.429 . S
C581 H603 0.950 . S
C582 H578 0.949 . S
C582 C590 1.574 . S
C582 C598 1.368 . S
H583 C591 0.950 . S
H584 C589 0.950 . S
H585 C590 0.949 . S
H586 C592 0.950 . S
H587 C593 0.950 . S
H588 C594 0.949 . S
C589 H584 0.950 . S
C589 C591 1.327 . S
C589 C595 1.429 . S
C590 C582 1.574 . S
C590 H585 0.949 . S
C590 C596 1.368 . S
C591 C575 1.349 . S
C591 H583 0.950 . S
C591 C589 1.327 . S
C592 C580 1.349 . S
C592 H586 0.950 . S
C592 C593 1.327 . S
C593 H587 0.950 . S
C593 C592 1.327 . S
C593 C597 1.429 . S
C594 C577 1.574 . S
C594 H588 0.949 . S
C594 C598 1.368 . S
C595 C576 1.429 . S
C595 C589 1.429 . S
C595 C596 1.523 . S
C596 C577 1.368 . S
C596 C590 1.368 . S
C596 C595 1.523 . S
C597 C581 1.429 . S
C597 C593 1.429 . S
C597 C598 1.523 . S
C598 C582 1.368 . S
C598 C594 1.368 . S
C598 C597 1.523 . S
H599 C574 0.950 . S
H600 C576 0.950 . S
H601 C577 0.949 . S
H602 C579 0.950 . S
H603 C581 0.950 . S
C604 C605 1.349 . S
C604 C606 1.327 . S
C604 H629 0.950 . S
C605 C604 1.349 . S
C605 C621 1.349 . S
C606 C604 1.327 . S
C606 C625 1.429 . S
C606 H630 0.950 . S
C607 C624 1.574 . S
C607 C626 1.368 . S
C607 H631 0.949 . S
H608 C612 0.949 . S
C609 C610 1.349 . S
C609 C611 1.327 . S
C609 H632 0.950 . S
C610 C609 1.349 . S
C610 C622 1.349 . S
C611 C609 1.327 . S
C611 C627 1.429 . S
C611 H633 0.950 . S
C612 H608 0.949 . S
C612 C620 1.574 . S
C612 C628 1.368 . S
H613 C621 0.950 . S
H614 C619 0.950 . S
H615 C620 0.949 . S
H616 C622 0.950 . S
H617 C623 0.950 . S
H618 C624 0.949 . S
C619 H614 0.950 . S
C619 C621 1.327 . S
C619 C625 1.429 . S
C620 C612 1.574 . S
C620 H615 0.949 . S
C620 C626 1.368 . S
C621 C605 1.349 . S
C621 H613 0.950 . S
C621 C619 1.327 . S
C622 C610 1.349 . S
C622 H616 0.950 . S
C622 C623 1.327 . S
C623 H617 0.950 . S
C623 C622 1.327 . S
C623 C627 1.429 . S
C624 C607 1.574 . S
C624 H618 0.949 . S
C624 C628 1.368 . S
C625 C606 1.429 . S
C625 C619 1.429 . S
C625 C626 1.523 . S
C626 C607 1.368 . S
C626 C620 1.368 . S
C626 C625 1.523 . S
C627 C611 1.429 . S
C627 C623 1.429 . S
C627 C628 1.523 . S
C628 C612 1.368 . S
C628 C624 1.368 . S
C628 C627 1.523 . S
H629 C604 0.950 . S
H630 C606 0.950 . S
H631 C607 0.949 . S
H632 C609 0.950 . S
H633 C611 0.950 . S
C634 C635 1.349 . S
C634 C636 1.327 . S
C634 H659 0.950 . S
C635 C634 1.349 . S
C635 C651 1.349 . S
C636 C634 1.327 . S
C636 C655 1.429 . S
C636 H660 0.950 . S
C637 C654 1.574 . S
C637 C656 1.368 . S
C637 H661 0.949 . S
H638 C642 0.949 1_655 S
C639 C640 1.349 . S
C639 C641 1.329 . S
C639 H662 0.950 . S
C640 C639 1.349 . S
C640 C652 1.349 . S
C641 C639 1.329 . S
C641 C657 1.429 . S
C641 H663 0.947 1_655 S
C642 H638 0.949 1_455 S
C642 C650 1.574 . S
C642 C658 1.368 . S
H643 C651 0.950 . S
H644 C649 0.950 . S
H645 C650 0.949 . S
H646 C652 0.950 . S
H647 C653 0.950 . S
H648 C654 0.949 . S
C649 H644 0.950 . S
C649 C651 1.327 . S
C649 C655 1.429 . S
C650 C642 1.574 . S
C650 H645 0.949 . S
C650 C656 1.368 . S
C651 C635 1.349 . S
C651 H643 0.950 . S
C651 C649 1.327 . S
C652 C640 1.349 . S
C652 H646 0.950 . S
C652 C653 1.327 . S
C653 H647 0.950 . S
C653 C652 1.327 . S
C653 C657 1.429 . S
C654 C637 1.574 . S
C654 H648 0.949 . S
C654 C658 1.368 . S
C655 C636 1.429 . S
C655 C649 1.429 . S
C655 C656 1.523 . S
C656 C637 1.368 . S
C656 C650 1.368 . S
C656 C655 1.523 . S
C657 C641 1.429 . S
C657 C653 1.429 . S
C657 C658 1.523 1_655 S
C658 C642 1.368 . S
C658 C654 1.368 . S
C658 C657 1.523 1_455 S
H659 C634 0.950 . S
H660 C636 0.950 . S
H661 C637 0.949 . S
H662 C639 0.950 . S
H663 C641 0.947 1_455 S
C664 C665 1.349 . S
C664 C666 1.327 . S
C664 H689 0.950 . S
C665 C664 1.349 . S
C665 C681 1.349 . S
C666 C664 1.327 . S
C666 C685 1.429 . S
C666 H690 0.950 . S
C667 C684 1.574 . S
C667 C686 1.368 . S
C667 H691 0.949 . S
H668 C672 0.949 . S
C669 C670 1.349 . S
C669 C671 1.327 . S
C669 H692 0.950 . S
C670 C669 1.349 . S
C670 C682 1.349 . S
C671 C669 1.327 . S
C671 C687 1.429 . S
C671 H693 0.950 . S
C672 H668 0.949 . S
C672 C680 1.574 . S
C672 C688 1.368 . S
H673 C681 0.950 . S
H674 C679 0.950 . S
H675 C680 0.949 . S
H676 C682 0.950 . S
H677 C683 0.950 . S
H678 C684 0.949 . S
C679 H674 0.950 . S
C679 C681 1.327 . S
C679 C685 1.429 . S
C680 C672 1.574 . S
C680 H675 0.949 . S
C680 C686 1.368 . S
C681 C665 1.349 . S
C681 H673 0.950 . S
C681 C679 1.327 . S
C682 C670 1.349 . S
C682 H676 0.950 . S
C682 C683 1.327 . S
C683 H677 0.950 . S
C683 C682 1.327 . S
C683 C687 1.429 . S
C684 C667 1.574 . S
C684 H678 0.949 . S
C684 C688 1.368 . S
C685 C666 1.429 . S
C685 C679 1.429 . S
C685 C686 1.523 . S
C686 C667 1.368 . S
C686 C680 1.368 . S
C686 C685 1.523 . S
C687 C671 1.429 . S
C687 C683 1.429 . S
C687 C688 1.523 . S
C688 C672 1.368 . S
C688 C684 1.368 . S
C688 C687 1.523 . S
H689 C664 0.950 . S
H690 C666 0.950 . S
H691 C667 0.949 . S
H692 C669 0.950 . S
H693 C671 0.950 . S
C694 C695 1.349 . S
C694 C696 1.327 . S
C694 H719 0.950 . S
C695 C694 1.349 . S
C695 C711 1.349 . S
C696 C694 1.327 . S
C696 C715 1.429 . S
C696 H720 0.950 . S
C697 C714 1.574 . S
C697 C716 1.368 . S
C697 H721 0.949 . S
H698 C702 0.949 . S
C699 C700 1.349 . S
C699 C701 1.327 . S
C699 H722 0.950 . S
C700 C699 1.349 . S
C700 C712 1.349 . S
C701 C699 1.327 . S
C701 C717 1.429 . S
C701 H723 0.950 . S
C702 H698 0.949 . S
C702 C710 1.574 . S
C702 C718 1.368 . S
H703 C711 0.950 . S
H704 C709 0.950 . S
H705 C710 0.949 . S
H706 C712 0.950 . S
H707 C713 0.950 . S
H708 C714 0.949 . S
C709 H704 0.950 . S
C709 C711 1.327 . S
C709 C715 1.429 . S
C710 C702 1.574 . S
C710 H705 0.949 . S
C710 C716 1.368 . S
C711 C695 1.349 . S
C711 H703 0.950 . S
C711 C709 1.327 . S
C712 C700 1.349 . S
C712 H706 0.950 . S
C712 C713 1.327 . S
C713 H707 0.950 . S
C713 C712 1.327 . S
C713 C717 1.429 . S
C714 C697 1.574 . S
C714 H708 0.949 . S
C714 C718 1.368 . S
C715 C696 1.429 . S
C715 C709 1.429 . S
C715 C716 1.523 . S
C716 C697 1.368 . S
C716 C710 1.368 . S
C716 C715 1.523 . S
C717 C701 1.429 . S
C717 C713 1.429 . S
C717 C718 1.523 . S
C718 C702 1.368 . S
C718 C714 1.368 . S
C718 C717 1.523 . S
H719 C694 0.950 . S
H720 C696 0.950 . S
H721 C697 0.949 . S
H722 C699 0.950 . S
H723 C701 0.950 . S
C724 C725 1.349 . S
C724 C726 1.327 . S
C724 H749 0.950 . S
C725 C724 1.349 . S
C725 C741 1.349 . S
C726 C724 1.327 . S
C726 C745 1.429 . S
C726 H750 0.950 . S
C727 C744 1.574 . S
C727 C746 1.368 . S
C727 H751 0.949 . S
H728 C732 0.949 . S
C729 C730 1.349 . S
C729 C731 1.327 . S
C729 H752 0.950 . S
C730 C729 1.349 . S
C730 C742 1.349 . S
C731 C729 1.327 . S
C731 C747 1.429 . S
C731 H753 0.950 . S
C732 H728 0.949 . S
C732 C740 1.574 . S
C732 C748 1.368 . S
H733 C741 0.950 . S
H734 C739 0.950 . S
H735 C740 0.949 . S
H736 C742 0.950 . S
H737 C743 0.950 . S
H738 C744 0.949 . S
C739 H734 0.950 . S
C739 C741 1.327 . S
C739 C745 1.429 . S
C740 C732 1.574 . S
C740 H735 0.949 . S
C740 C746 1.368 . S
C741 C725 1.349 . S
C741 H733 0.950 . S
C741 C739 1.327 . S
C742 C730 1.349 . S
C742 H736 0.950 . S
C742 C743 1.327 . S
C743 H737 0.950 . S
C743 C742 1.327 . S
C743 C747 1.429 . S
C744 C727 1.574 . S
C744 H738 0.949 . S
C744 C748 1.368 . S
C745 C726 1.429 . S
C745 C739 1.429 . S
C745 C746 1.523 . S
C746 C727 1.368 . S
C746 C740 1.368 . S
C746 C745 1.523 . S
C747 C731 1.429 . S
C747 C743 1.429 . S
C747 C748 1.523 . S
C748 C732 1.368 . S
C748 C744 1.368 . S
C748 C747 1.523 . S
H749 C724 0.950 . S
H750 C726 0.950 . S
H751 C727 0.949 . S
H752 C729 0.950 . S
H753 C731 0.950 . S
C754 C755 1.349 . S
C754 C756 1.327 . S
C754 H779 0.950 . S
C755 C754 1.349 . S
C755 C771 1.349 . S
C756 C754 1.327 . S
C756 C775 1.429 . S
C756 H780 0.950 . S
C757 C774 1.574 . S
C757 C776 1.368 . S
C757 H781 0.949 . S
H758 C762 0.949 1_455 S
C759 C760 1.349 . S
C759 C761 1.327 1_455 S
C759 H782 0.950 . S
C760 C759 1.349 . S
C760 C772 1.349 . S
C761 C759 1.327 1_655 S
C761 C777 1.429 1_655 S
C761 H783 0.950 . S
C762 H758 0.949 1_655 S
C762 C770 1.574 . S
C762 C778 1.368 . S
H763 C771 0.950 . S
H764 C769 0.950 . S
H765 C770 0.949 . S
H766 C772 0.950 . S
H767 C773 0.950 . S
H768 C774 0.949 . S
C769 H764 0.950 . S
C769 C771 1.327 . S
C769 C775 1.429 . S
C770 C762 1.574 . S
C770 H765 0.949 . S
C770 C776 1.368 . S
C771 C755 1.349 . S
C771 H763 0.950 . S
C771 C769 1.327 . S
C772 C760 1.349 . S
C772 H766 0.950 . S
C772 C773 1.327 . S
C773 H767 0.950 . S
C773 C772 1.327 . S
C773 C777 1.429 . S
C774 C757 1.574 . S
C774 H768 0.949 . S
C774 C778 1.368 . S
C775 C756 1.429 . S
C775 C769 1.429 . S
C775 C776 1.523 . S
C776 C757 1.368 . S
C776 C770 1.368 . S
C776 C775 1.523 . S
C777 C761 1.429 1_455 S
C777 C773 1.429 . S
C777 C778 1.523 1_455 S
C778 C762 1.368 . S
C778 C774 1.368 . S
C778 C777 1.523 1_655 S
H779 C754 0.950 . S
H780 C756 0.950 . S
H781 C757 0.949 . S
H782 C759 0.950 . S
H783 C761 0.950 . S
C784 C785 1.349 . S
C784 C786 1.327 . S
C784 H809 0.950 . S
C785 C784 1.349 . S
C785 C801 1.349 . S
C786 C784 1.327 . S
C786 C805 1.429 . S
C786 H810 0.950 . S
C787 C804 1.574 . S
C787 C806 1.368 . S
C787 H811 0.949 . S
H788 C792 0.949 . S
C789 C790 1.349 . S
C789 C791 1.327 . S
C789 H812 0.950 . S
C790 C789 1.349 . S
C790 C802 1.349 . S
C791 C789 1.327 . S
C791 C807 1.429 . S
C791 H813 0.950 . S
C792 H788 0.949 . S
C792 C800 1.574 . S
C792 C808 1.368 . S
H793 C801 0.950 . S
H794 C799 0.950 . S
H795 C800 0.949 . S
H796 C802 0.950 . S
H797 C803 0.950 . S
H798 C804 0.949 . S
C799 H794 0.950 . S
C799 C801 1.327 . S
C799 C805 1.429 . S
C800 C792 1.574 . S
C800 H795 0.949 . S
C800 C806 1.368 . S
C801 C785 1.349 . S
C801 H793 0.950 . S
C801 C799 1.327 . S
C802 C790 1.349 . S
C802 H796 0.950 . S
C802 C803 1.327 . S
C803 H797 0.950 . S
C803 C802 1.327 . S
C803 C807 1.429 . S
C804 C787 1.574 . S
C804 H798 0.949 . S
C804 C808 1.368 . S
C805 C786 1.429 . S
C805 C799 1.429 . S
C805 C806 1.523 . S
C806 C787 1.368 . S
C806 C800 1.368 . S
C806 C805 1.523 . S
C807 C791 1.429 . S
C807 C803 1.429 . S
C807 C808 1.523 . S
C808 C792 1.368 . S
C808 C804 1.368 . S
C808 C807 1.523 . S
H809 C784 0.950 . S
H810 C786 0.950 . S
H811 C787 0.949 . S
H812 C789 0.950 . S
H813 C791 0.950 . S
C814 C815 1.349 . S
C814 C816 1.327 . S
C814 H839 0.950 . S
C815 C814 1.349 . S
C815 C831 1.349 1_565 S
C816 C814 1.327 . S
C816 C835 1.429 . S
C816 H840 0.950 . S
C817 C834 1.574 . S
C817 C836 1.368 . S
C817 H841 0.949 1_565 S
H818 C822 0.949 . S
C819 C820 1.349 . S
C819 C821 1.327 . S
C819 H842 0.950 . S
C820 C819 1.349 . S
C820 C832 1.349 . S
C821 C819 1.327 . S
C821 C837 1.429 . S
C821 H843 0.950 . S
C822 H818 0.949 . S
C822 C830 1.574 . S
C822 C838 1.368 . S
H823 C831 0.950 . S
H824 C829 0.950 . S
H825 C830 0.949 1_455 S
H826 C832 0.950 . S
H827 C833 0.950 . S
H828 C834 0.949 . S
C829 H824 0.950 . S
C829 C831 1.327 1_655 S
C829 C835 1.429 1_645 S
C830 C822 1.574 . S
C830 H825 0.949 1_655 S
C830 C836 1.368 . S
C831 C815 1.349 1_545 S
C831 H823 0.950 . S
C831 C829 1.327 1_455 S
C832 C820 1.349 . S
C832 H826 0.950 . S
C832 C833 1.327 . S
C833 H827 0.950 . S
C833 C832 1.327 . S
C833 C837 1.429 . S
C834 C817 1.574 . S
C834 H828 0.949 . S
C834 C838 1.368 . S
C835 C816 1.429 . S
C835 C829 1.429 1_465 S
C835 C836 1.523 1_455 S
C836 C817 1.368 . S
C836 C830 1.368 . S
C836 C835 1.523 1_655 S
C837 C821 1.429 . S
C837 C833 1.429 . S
C837 C838 1.523 . S
C838 C822 1.368 . S
C838 C834 1.368 . S
C838 C837 1.523 . S
H839 C814 0.950 . S
H840 C816 0.950 . S
H841 C817 0.949 1_545 S
H842 C819 0.950 . S
H843 C821 0.950 . S
C844 C845 1.349 . S
C844 C846 1.327 . S
C844 H869 0.950 . S
C845 C844 1.349 . S
C845 C861 1.349 . S
C846 C844 1.327 . S
C846 C865 1.429 . S
C846 H870 0.950 . S
C847 C864 1.574 . S
C847 C866 1.368 . S
C847 H871 0.949 . S
H848 C852 0.949 . S
C849 C850 1.349 . S
C849 C851 1.327 . S
C849 H872 0.950 . S
C850 C849 1.349 . S
C850 C862 1.349 . S
C851 C849 1.327 . S
C851 C867 1.429 . S
C851 H873 0.950 . S
C852 H848 0.949 . S
C852 C860 1.574 . S
C852 C868 1.368 . S
H853 C861 0.950 . S
H854 C859 0.950 . S
H855 C860 0.949 . S
H856 C862 0.950 . S
H857 C863 0.950 . S
H858 C864 0.949 . S
C859 H854 0.950 . S
C859 C861 1.327 . S
C859 C865 1.429 . S
C860 C852 1.574 . S
C860 H855 0.949 . S
C860 C866 1.368 . S
C861 C845 1.349 . S
C861 H853 0.950 . S
C861 C859 1.327 . S
C862 C850 1.349 . S
C862 H856 0.950 . S
C862 C863 1.327 . S
C863 H857 0.950 . S
C863 C862 1.327 . S
C863 C867 1.429 . S
C864 C847 1.574 . S
C864 H858 0.949 . S
C864 C868 1.368 . S
C865 C846 1.429 . S
C865 C859 1.429 . S
C865 C866 1.523 . S
C866 C847 1.368 . S
C866 C860 1.368 . S
C866 C865 1.523 . S
C867 C851 1.429 . S
C867 C863 1.429 . S
C867 C868 1.523 . S
C868 C852 1.368 . S
C868 C864 1.368 . S
C868 C867 1.523 . S
H869 C844 0.950 . S
H870 C846 0.950 . S
H871 C847 0.949 . S
H872 C849 0.950 . S
H873 C851 0.950 . S
C874 C875 1.349 . S
C874 C876 1.327 . S
C874 H899 0.950 . S
C875 C874 1.349 . S
C875 C891 1.349 . S
C876 C874 1.327 . S
C876 C895 1.429 . S
C876 H900 0.950 . S
C877 C894 1.574 . S
C877 C896 1.368 . S
C877 H901 0.949 . S
H878 C882 0.949 1_565 S
C879 C880 1.349 . S
C879 C881 1.327 . S
C879 H902 0.950 . S
C880 C879 1.349 . S
C880 C892 1.349 1_545 S
C881 C879 1.327 . S
C881 C897 1.429 . S
C881 H903 0.950 . S
C882 H878 0.949 1_545 S
C882 C890 1.574 . S
C882 C898 1.368 . S
H883 C891 0.950 . S
H884 C889 0.950 . S
H885 C890 0.949 . S
H886 C892 0.950 . S
H887 C893 0.950 . S
H888 C894 0.949 . S
C889 H884 0.950 . S
C889 C891 1.327 . S
C889 C895 1.429 . S
C890 C882 1.574 . S
C890 H885 0.949 . S
C890 C896 1.368 . S
C891 C875 1.349 . S
C891 H883 0.950 . S
C891 C889 1.327 . S
C892 C880 1.349 1_565 S
C892 H886 0.950 . S
C892 C893 1.327 . S
C893 H887 0.950 . S
C893 C892 1.327 . S
C893 C897 1.429 1_565 S
C894 C877 1.574 . S
C894 H888 0.949 . S
C894 C898 1.368 . S
C895 C876 1.429 . S
C895 C889 1.429 . S
C895 C896 1.523 . S
C896 C877 1.368 . S
C896 C890 1.368 . S
C896 C895 1.523 . S
C897 C881 1.429 . S
C897 C893 1.429 1_545 S
C897 C898 1.523 . S
C898 C882 1.368 . S
C898 C894 1.368 . S
C898 C897 1.523 . S
H899 C874 0.950 . S
H900 C876 0.950 . S
H901 C877 0.949 . S
H902 C879 0.950 . S
H903 C881 0.950 . S
C904 C905 1.349 . S
C904 C906 1.327 . S
C904 H929 0.950 . S
C905 C904 1.349 . S
C905 C921 1.349 . S
C906 C904 1.327 . S
C906 C925 1.429 . S
C906 H930 0.950 . S
C907 C924 1.574 . S
C907 C926 1.368 . S
C907 H931 0.949 . S
H908 C912 0.949 . S
C909 C910 1.349 . S
C909 C911 1.327 . S
C909 H932 0.950 . S
C910 C909 1.349 . S
C910 C922 1.349 . S
C911 C909 1.327 . S
C911 C927 1.429 . S
C911 H933 0.950 . S
C912 H908 0.949 . S
C912 C920 1.574 . S
C912 C928 1.368 . S
H913 C921 0.950 . S
H914 C919 0.950 . S
H915 C920 0.949 . S
H916 C922 0.950 . S
H917 C923 0.950 . S
H918 C924 0.949 . S
C919 H914 0.950 . S
C919 C921 1.327 . S
C919 C925 1.429 . S
C920 C912 1.574 . S
C920 H915 0.949 . S
C920 C926 1.368 . S
C921 C905 1.349 . S
C921 H913 0.950 . S
C921 C919 1.327 . S
C922 C910 1.349 . S
C922 H916 0.950 . S
C922 C923 1.327 . S
C923 H917 0.950 . S
C923 C922 1.327 . S
C923 C927 1.429 . S
C924 C907 1.574 . S
C924 H918 0.949 . S
C924 C928 1.368 . S
C925 C906 1.429 . S
C925 C919 1.429 . S
C925 C926 1.523 . S
C926 C907 1.368 . S
C926 C920 1.368 . S
C926 C925 1.523 . S
C927 C911 1.429 . S
C927 C923 1.429 . S
C927 C928 1.523 . S
C928 C912 1.368 . S
C928 C924 1.368 . S
C928 C927 1.523 . S
H929 C904 0.950 . S
H930 C906 0.950 . S
H931 C907 0.949 . S
H932 C909 0.950 . S
H933 C911 0.950 . S
C934 C935 1.349 1_565 S
C934 C936 1.327 . S
C934 H959 0.950 . S
C935 C934 1.349 1_545 S
C935 C951 1.349 . S
C936 C934 1.327 . S
C936 C955 1.429 1_565 S
C936 H960 0.950 . S
C937 C954 1.574 . S
C937 C956 1.368 . S
C937 H961 0.949 . S
H938 C942 0.931 1_565 S
C939 C940 1.349 . S
C939 C941 1.327 . S
C939 H962 0.950 . S
C940 C939 1.349 . S
C940 C952 1.349 . S
C941 C939 1.327 . S
C941 C957 1.429 . S
C941 H963 0.950 . S
C942 H938 0.931 1_545 S
C942 C950 1.574 . S
C942 C958 1.368 . S
H943 C951 0.950 . S
H944 C949 0.950 1_455 S
H945 C950 0.949 1_565 S
H946 C952 0.950 . S
H947 C953 0.950 . S
H948 C954 0.949 . S
C949 H944 0.950 1_655 S
C949 C951 1.327 . S
C949 C955 1.429 . S
C950 C942 1.574 . S
C950 H945 0.949 1_545 S
C950 C956 1.368 . S
C951 C935 1.349 . S
C951 H943 0.950 . S
C951 C949 1.327 . S
C952 C940 1.349 . S
C952 H946 0.950 . S
C952 C953 1.327 . S
C953 H947 0.950 . S
C953 C952 1.327 . S
C953 C957 1.429 . S
C954 C937 1.574 . S
C954 H948 0.949 . S
C954 C958 1.368 . S
C955 C936 1.429 1_545 S
C955 C949 1.429 . S
C955 C956 1.523 1_655 S
C956 C937 1.368 . S
C956 C950 1.368 . S
C956 C955 1.523 1_455 S
C957 C941 1.429 . S
C957 C953 1.429 . S
C957 C958 1.523 . S
C958 C942 1.368 . S
C958 C954 1.368 . S
C958 C957 1.523 . S
H959 C934 0.950 . S
H960 C936 0.950 . S
H961 C937 0.949 . S
H962 C939 0.950 . S
H963 C941 0.950 . S
C964 C965 1.349 . S
C964 C966 1.327 . S
C964 H989 0.950 . S
C965 C964 1.349 . S
C965 C981 1.349 . S
C966 C964 1.327 . S
C966 C985 1.429 . S
C966 H990 0.950 . S
C967 C984 1.574 . S
C967 C986 1.368 . S
C967 H991 0.949 . S
H968 C972 0.949 . S
C969 C970 1.349 . S
C969 C971 1.327 . S
C969 H992 0.950 . S
C970 C969 1.349 . S
C970 C982 1.349 . S
C971 C969 1.327 . S
C971 C987 1.429 . S
C971 H993 0.950 . S
C972 H968 0.949 . S
C972 C980 1.574 . S
C972 C988 1.368 . S
H973 C981 0.950 . S
H974 C979 0.950 . S
H975 C980 0.949 . S
H976 C982 0.950 . S
H977 C983 0.950 . S
H978 C984 0.949 . S
C979 H974 0.950 . S
C979 C981 1.327 . S
C979 C985 1.429 . S
C980 C972 1.574 . S
C980 H975 0.949 . S
C980 C986 1.368 . S
C981 C965 1.349 . S
C981 H973 0.950 . S
C981 C979 1.327 . S
C982 C970 1.349 . S
C982 H976 0.950 . S
C982 C983 1.327 . S
C983 H977 0.950 . S
C983 C982 1.327 . S
C983 C987 1.429 . S
C984 C967 1.574 . S
C984 H978 0.949 . S
C984 C988 1.368 . S
C985 C966 1.429 . S
C985 C979 1.429 . S
C985 C986 1.523 . S
C986 C967 1.368 . S
C986 C980 1.368 . S
C986 C985 1.523 . S
C987 C971 1.429 . S
C987 C983 1.429 . S
C987 C988 1.523 . S
C988 C972 1.368 . S
C988 C984 1.368 . S
C988 C987 1.523 . S
H989 C964 0.950 . S
H990 C966 0.950 . S
H991 C967 0.949 . S
H992 C969 0.950 . S
H993 C971 0.950 . S
C994 C995 1.349 . S
C994 C996 1.327 . S
C994 H1019 0.950 . S
C995 C994 1.349 . S
C995 C1011 1.349 . S
C996 C994 1.327 . S
C996 C1015 1.429 . S
C996 H1020 0.950 . S
C997 C1014 1.574 . S
C997 C1016 1.368 . S
C997 H1021 0.949 . S
H998 C1002 0.949 1_545 S
C999 C1000 1.349 . S
C999 C1001 1.327 . S
C999 H1022 0.950 . S
C1000 C999 1.349 . S
C1000 C1012 1.349 1_565 S
C1001 C999 1.327 . S
C1001 C1017 1.429 . S
C1001 H1023 0.950 . S
C1002 H998 0.949 1_565 S
C1002 C1010 1.574 . S
C1002 C1018 1.368 . S
H1003 C1011 0.950 . S
H1004 C1009 0.950 . S
H1005 C1010 0.949 1_545 S
H1006 C1012 0.950 . S
H1007 C1013 0.950 . S
H1008 C1014 0.949 . S
C1009 H1004 0.950 . S
C1009 C1011 1.327 . S
C1009 C1015 1.429 . S
C1010 C1002 1.574 . S
C1010 H1005 0.949 1_565 S
C1010 C1016 1.368 . S
C1011 C995 1.349 . S
C1011 H1003 0.950 . S
C1011 C1009 1.327 . S
C1012 C1000 1.349 1_545 S
C1012 H1006 0.950 . S
C1012 C1013 1.327 . S
C1013 H1007 0.950 . S
C1013 C1012 1.327 . S
C1013 C1017 1.429 1_545 S
C1014 C997 1.574 . S
C1014 H1008 0.949 . S
C1014 C1018 1.368 . S
C1015 C996 1.429 . S
C1015 C1009 1.429 . S
C1015 C1016 1.523 . S
C1016 C997 1.368 . S
C1016 C1010 1.368 . S
C1016 C1015 1.523 . S
C1017 C1001 1.429 . S
C1017 C1013 1.429 1_565 S
C1017 C1018 1.523 . S
C1018 C1002 1.368 . S
C1018 C1014 1.368 . S
C1018 C1017 1.523 . S
H1019 C994 0.950 . S
H1020 C996 0.950 . S
H1021 C997 0.949 . S
H1022 C999 0.950 . S
H1023 C1001 0.950 . S
C1024 C1025 1.349 1_565 S
C1024 C1026 1.327 . S
C1024 H1049 0.950 1_565 S
C1025 C1024 1.349 1_545 S
C1025 C1041 1.349 . S
C1026 C1024 1.327 . S
C1026 C1045 1.429 . S
C1026 H1050 0.950 . S
C1027 C1044 1.574 . S
C1027 C1046 1.368 1_556 S
C1027 H1051 0.949 . S
H1028 C1032 0.949 . S
C1029 C1030 1.349 . S
C1029 C1031 1.327 . S
C1029 H1052 0.950 . S
C1030 C1029 1.349 . S
C1030 C1042 1.349 . S
C1031 C1029 1.327 . S
C1031 C1047 1.429 . S
C1031 H1053 0.950 . S
C1032 H1028 0.949 . S
C1032 C1040 1.574 . S
C1032 C1048 1.368 1_554 S
H1033 C1041 0.950 . S
H1034 C1039 0.950 1_556 S
H1035 C1040 0.949 . S
H1036 C1042 0.983 . S
H1037 C1043 0.914 1_554 S
H1038 C1044 0.949 . S
C1039 H1034 0.950 1_554 S
C1039 C1041 1.327 1_565 S
C1039 C1045 1.429 . S
C1040 C1032 1.574 . S
C1040 H1035 0.949 . S
C1040 C1046 1.368 . S
C1041 C1025 1.349 . S
C1041 H1033 0.950 . S
C1041 C1039 1.327 1_545 S
C1042 C1030 1.349 . S
C1042 H1036 0.983 . S
C1042 C1043 1.343 . S
C1043 H1037 0.914 1_556 S
C1043 C1042 1.343 . S
C1043 C1047 1.449 . S
C1044 C1027 1.574 . S
C1044 H1038 0.949 . S
C1044 C1048 1.368 . S
C1045 C1026 1.429 . S
C1045 C1039 1.429 . S
C1045 C1046 1.523 . S
C1046 C1027 1.368 1_554 S
C1046 C1040 1.368 . S
C1046 C1045 1.523 . S
C1047 C1031 1.429 . S
C1047 C1043 1.449 . S
C1047 C1048 1.523 . S
C1048 C1032 1.368 1_556 S
C1048 C1044 1.368 . S
C1048 C1047 1.523 . S
H1049 C1024 0.950 1_545 S
H1050 C1026 0.950 . S
H1051 C1027 0.949 . S
H1052 C1029 0.950 . S
H1053 C1031 0.950 . S
C1054 C1055 1.349 1_655 S
C1054 C1056 1.327 . S
C1054 H1079 0.950 . S
C1055 C1054 1.349 1_455 S
C1055 C1071 1.349 1_455 S
C1056 C1054 1.327 . S
C1056 C1075 1.429 . S
C1056 H1080 0.950 . S
C1057 C1074 1.574 . S
C1057 C1076 1.368 . S
C1057 H1081 0.949 . S
H1058 C1062 0.949 . S
C1059 C1060 1.349 . S
C1059 C1061 1.327 . S
C1059 H1082 0.950 . S
C1060 C1059 1.349 . S
C1060 C1072 1.349 . S
C1061 C1059 1.327 . S
C1061 C1077 1.429 . S
C1061 H1083 0.950 . S
C1062 H1058 0.949 . S
C1062 C1070 1.574 . S
C1062 C1078 1.368 . S
H1063 C1071 0.950 1_455 S
H1064 C1069 0.950 . S
H1065 C1070 0.949 . S
H1066 C1072 0.950 . S
H1067 C1073 0.950 . S
H1068 C1074 0.949 . S
C1069 H1064 0.950 . S
C1069 C1071 1.327 . S
C1069 C1075 1.429 . S
C1070 C1062 1.574 . S
C1070 H1065 0.949 . S
C1070 C1076 1.368 . S
C1071 C1055 1.349 1_655 S
C1071 H1063 0.950 1_655 S
C1071 C1069 1.327 . S
C1072 C1060 1.349 . S
C1072 H1066 0.950 . S
C1072 C1073 1.327 . S
C1073 H1067 0.950 . S
C1073 C1072 1.327 . S
C1073 C1077 1.429 . S
C1074 C1057 1.574 . S
C1074 H1068 0.949 . S
C1074 C1078 1.368 . S
C1075 C1056 1.429 . S
C1075 C1069 1.429 . S
C1075 C1076 1.523 . S
C1076 C1057 1.368 . S
C1076 C1070 1.368 . S
C1076 C1075 1.523 . S
C1077 C1061 1.429 . S
C1077 C1073 1.429 . S
C1077 C1078 1.523 . S
C1078 C1062 1.368 . S
C1078 C1074 1.368 . S
C1078 C1077 1.523 . S
H1079 C1054 0.950 . S
H1080 C1056 0.950 . S
H1081 C1057 0.949 . S
H1082 C1059 0.950 . S
H1083 C1061 0.950 . S
C1084 C1085 1.349 . S
C1084 C1086 1.327 . S
C1084 H1109 0.950 . S
C1085 C1084 1.349 . S
C1085 C1101 1.349 . S
C1086 C1084 1.327 . S
C1086 C1105 1.429 . S
C1086 H1110 0.950 . S
C1087 C1104 1.574 . S
C1087 C1106 1.368 . S
C1087 H1111 0.949 . S
H1088 C1092 0.949 . S
C1089 C1090 1.349 . S
C1089 C1091 1.327 1_565 S
C1089 H1112 0.950 . S
C1090 C1089 1.349 . S
C1090 C1102 1.349 1_565 S
C1091 C1089 1.327 1_545 S
C1091 C1107 1.429 . S
C1091 H1113 0.950 . S
C1092 H1088 0.949 . S
C1092 C1100 1.574 . S
C1092 C1108 1.368 . S
H1093 C1101 0.950 . S
H1094 C1099 0.950 . S
H1095 C1100 0.949 . S
H1096 C1102 0.953 . S
H1097 C1103 0.950 . S
H1098 C1104 0.949 . S
C1099 H1094 0.950 . S
C1099 C1101 1.327 . S
C1099 C1105 1.429 . S
C1100 C1092 1.574 . S
C1100 H1095 0.949 . S
C1100 C1106 1.368 . S
C1101 C1085 1.349 . S
C1101 H1093 0.950 . S
C1101 C1099 1.327 . S
C1102 C1090 1.349 1_545 S
C1102 H1096 0.953 . S
C1102 C1103 1.327 . S
C1103 H1097 0.950 . S
C1103 C1102 1.327 . S
C1103 C1107 1.429 . S
C1104 C1087 1.574 . S
C1104 H1098 0.949 . S
C1104 C1108 1.368 . S
C1105 C1086 1.429 . S
C1105 C1099 1.429 . S
C1105 C1106 1.523 . S
C1106 C1087 1.368 . S
C1106 C1100 1.368 . S
C1106 C1105 1.523 . S
C1107 C1091 1.429 . S
C1107 C1103 1.429 . S
C1107 C1108 1.523 . S
C1108 C1092 1.368 . S
C1108 C1104 1.368 . S
C1108 C1107 1.523 . S
H1109 C1084 0.950 . S
H1110 C1086 0.950 . S
H1111 C1087 0.949 . S
H1112 C1089 0.950 . S
H1113 C1091 0.950 . S
C1114 C1115 1.349 . S
C1114 C1116 1.327 . S
C1114 H1139 0.950 . S
C1115 C1114 1.349 . S
C1115 C1131 1.349 . S
C1116 C1114 1.327 . S
C1116 C1135 1.429 . S
C1116 H1140 0.950 . S
C1117 C1134 1.574 . S
C1117 C1136 1.368 . S
C1117 H1141 0.949 . S
H1118 C1122 0.949 . S
C1119 C1120 1.349 . S
C1119 C1121 1.327 . S
C1119 H1142 0.950 . S
C1120 C1119 1.349 . S
C1120 C1132 1.349 . S
C1121 C1119 1.327 . S
C1121 C1137 1.429 . S
C1121 H1143 0.950 . S
C1122 H1118 0.949 . S
C1122 C1130 1.574 . S
C1122 C1138 1.368 . S
H1123 C1131 0.950 . S
H1124 C1129 0.950 . S
H1125 C1130 0.949 . S
H1126 C1132 0.950 . S
H1127 C1133 0.950 . S
H1128 C1134 0.949 . S
C1129 H1124 0.950 . S
C1129 C1131 1.327 . S
C1129 C1135 1.429 . S
C1130 C1122 1.574 . S
C1130 H1125 0.949 . S
C1130 C1136 1.368 . S
C1131 C1115 1.349 . S
C1131 H1123 0.950 . S
C1131 C1129 1.327 . S
C1132 C1120 1.349 . S
C1132 H1126 0.950 . S
C1132 C1133 1.327 . S
C1133 H1127 0.950 . S
C1133 C1132 1.327 . S
C1133 C1137 1.429 . S
C1134 C1117 1.574 . S
C1134 H1128 0.949 . S
C1134 C1138 1.368 . S
C1135 C1116 1.429 . S
C1135 C1129 1.429 . S
C1135 C1136 1.523 . S
C1136 C1117 1.368 . S
C1136 C1130 1.368 . S
C1136 C1135 1.523 . S
C1137 C1121 1.429 . S
C1137 C1133 1.429 . S
C1137 C1138 1.523 . S
C1138 C1122 1.368 . S
C1138 C1134 1.368 . S
C1138 C1137 1.523 . S
H1139 C1114 0.950 . S
H1140 C1116 0.950 . S
H1141 C1117 0.949 . S
H1142 C1119 0.950 . S
H1143 C1121 0.950 . S
C1144 C1145 1.349 . S
C1144 C1146 1.327 . S
C1144 H1169 0.950 . S
C1145 C1144 1.349 . S
C1145 C1161 1.349 . S
C1146 C1144 1.327 . S
C1146 C1165 1.429 . S
C1146 H1170 0.950 . S
C1147 C1164 1.574 . S
C1147 C1166 1.368 1_556 S
C1147 H1171 0.949 . S
H1148 C1152 0.949 . S
C1149 C1150 1.349 1_545 S
C1149 C1151 1.327 . S
C1149 H1172 0.950 1_545 S
C1150 C1149 1.349 1_565 S
C1150 C1162 1.349 . S
C1151 C1149 1.327 . S
C1151 C1167 1.429 . S
C1151 H1173 0.950 . S
C1152 H1148 0.949 . S
C1152 C1160 1.574 . S
C1152 C1168 1.368 1_554 S
H1153 C1161 0.950 . S
H1154 C1159 0.950 1_556 S
H1155 C1160 0.949 . S
H1156 C1162 0.950 . S
H1157 C1163 0.950 . S
H1158 C1164 0.949 . S
C1159 H1154 0.950 1_554 S
C1159 C1161 1.327 . S
C1159 C1165 1.429 . S
C1160 C1152 1.574 . S
C1160 H1155 0.949 . S
C1160 C1166 1.368 . S
C1161 C1145 1.349 . S
C1161 H1153 0.950 . S
C1161 C1159 1.327 . S
C1162 C1150 1.349 . S
C1162 H1156 0.950 . S
C1162 C1163 1.327 1_565 S
C1163 H1157 0.950 . S
C1163 C1162 1.327 1_545 S
C1163 C1167 1.429 . S
C1164 C1147 1.574 . S
C1164 H1158 0.949 . S
C1164 C1168 1.368 . S
C1165 C1146 1.429 . S
C1165 C1159 1.429 . S
C1165 C1166 1.523 . S
C1166 C1147 1.368 1_554 S
C1166 C1160 1.368 . S
C1166 C1165 1.523 . S
C1167 C1151 1.429 . S
C1167 C1163 1.429 . S
C1167 C1168 1.523 . S
C1168 C1152 1.368 1_556 S
C1168 C1164 1.368 . S
C1168 C1167 1.523 . S
H1169 C1144 0.950 . S
H1170 C1146 0.950 . S
H1171 C1147 0.949 . S
H1172 C1149 0.950 1_565 S
H1173 C1151 0.950 . S
C1174 C1175 1.349 1_455 S
C1174 C1176 1.327 . S
C1174 H1199 0.950 1_455 S
C1175 C1174 1.349 1_655 S
C1175 C1191 1.349 1_655 S
C1176 C1174 1.327 . S
C1176 C1195 1.429 . S
C1176 H1200 0.950 . S
C1177 C1194 1.574 . S
C1177 C1196 1.368 . S
C1177 H1201 0.949 . S
H1178 C1182 0.949 . S
C1179 C1180 1.349 . S
C1179 C1181 1.327 . S
C1179 H1202 0.950 . S
C1180 C1179 1.349 . S
C1180 C1192 1.349 . S
C1181 C1179 1.327 . S
C1181 C1197 1.429 . S
C1181 H1203 0.950 . S
C1182 H1178 0.949 . S
C1182 C1190 1.574 . S
C1182 C1198 1.368 . S
H1183 C1191 0.950 . S
H1184 C1189 0.950 . S
H1185 C1190 0.949 . S
H1186 C1192 0.950 . S
H1187 C1193 0.950 . S
H1188 C1194 0.949 . S
C1189 H1184 0.950 . S
C1189 C1191 1.327 . S
C1189 C1195 1.429 . S
C1190 C1182 1.574 . S
C1190 H1185 0.949 . S
C1190 C1196 1.368 . S
C1191 C1175 1.349 1_455 S
C1191 H1183 0.950 . S
C1191 C1189 1.327 . S
C1192 C1180 1.349 . S
C1192 H1186 0.950 . S
C1192 C1193 1.327 . S
C1193 H1187 0.950 . S
C1193 C1192 1.327 . S
C1193 C1197 1.429 . S
C1194 C1177 1.574 . S
C1194 H1188 0.949 . S
C1194 C1198 1.368 . S
C1195 C1176 1.429 . S
C1195 C1189 1.429 . S
C1195 C1196 1.523 . S
C1196 C1177 1.368 . S
C1196 C1190 1.368 . S
C1196 C1195 1.523 . S
C1197 C1181 1.429 . S
C1197 C1193 1.429 . S
C1197 C1198 1.523 . S
C1198 C1182 1.368 . S
C1198 C1194 1.368 . S
C1198 C1197 1.523 . S
H1199 C1174 0.950 1_655 S
H1200 C1176 0.950 . S
H1201 C1177 0.949 . S
H1202 C1179 0.950 . S
H1203 C1181 0.950 . S
C1204 C1205 1.349 . S
C1204 C1206 1.327 1_545 S
C1204 H1229 0.950 . S
C1205 C1204 1.349 . S
C1205 C1221 1.349 1_545 S
C1206 C1204 1.327 1_565 S
C1206 C1225 1.429 . S
C1206 H1230 0.950 . S
C1207 C1224 1.574 . S
C1207 C1226 1.368 . S
C1207 H1231 0.949 . S
H1208 C1212 0.949 . S
C1209 C1210 1.349 . S
C1209 C1211 1.327 . S
C1209 H1232 0.950 . S
C1210 C1209 1.349 . S
C1210 C1222 1.349 . S
C1211 C1209 1.327 . S
C1211 C1227 1.429 . S
C1211 H1233 0.950 . S
C1212 H1208 0.949 . S
C1212 C1220 1.574 . S
C1212 C1228 1.368 . S
H1213 C1221 0.950 1_545 S
H1214 C1219 0.950 . S
H1215 C1220 0.949 . S
H1216 C1222 0.950 . S
H1217 C1223 0.950 . S
H1218 C1224 0.949 . S
C1219 H1214 0.950 . S
C1219 C1221 1.327 . S
C1219 C1225 1.429 . S
C1220 C1212 1.574 . S
C1220 H1215 0.949 . S
C1220 C1226 1.368 . S
C1221 C1205 1.349 1_565 S
C1221 H1213 0.950 1_565 S
C1221 C1219 1.327 . S
C1222 C1210 1.349 . S
C1222 H1216 0.950 . S
C1222 C1223 1.327 . S
C1223 H1217 0.950 . S
C1223 C1222 1.327 . S
C1223 C1227 1.429 . S
C1224 C1207 1.574 . S
C1224 H1218 0.949 . S
C1224 C1228 1.368 . S
C1225 C1206 1.429 . S
C1225 C1219 1.429 . S
C1225 C1226 1.523 . S
C1226 C1207 1.368 . S
C1226 C1220 1.368 . S
C1226 C1225 1.523 . S
C1227 C1211 1.429 . S
C1227 C1223 1.429 . S
C1227 C1228 1.523 . S
C1228 C1212 1.368 . S
C1228 C1224 1.368 . S
C1228 C1227 1.523 . S
H1229 C1204 0.950 . S
H1230 C1206 0.950 . S
H1231 C1207 0.949 . S
H1232 C1209 0.950 . S
H1233 C1211 0.950 . S
C1234 C1235 1.349 . S
C1234 C1236 1.327 . S
C1234 H1259 0.950 . S
C1235 C1234 1.349 . S
C1235 C1251 1.349 . S
C1236 C1234 1.327 . S
C1236 C1255 1.429 . S
C1236 H1260 0.950 . S
C1237 C1254 1.574 . S
C1237 C1256 1.368 . S
C1237 H1261 0.949 . S
H1238 C1242 0.949 . S
C1239 C1240 1.349 . S
C1239 C1241 1.327 . S
C1239 H1262 0.950 . S
C1240 C1239 1.349 . S
C1240 C1252 1.349 . S
C1241 C1239 1.327 . S
C1241 C1257 1.429 . S
C1241 H1263 0.950 . S
C1242 H1238 0.949 . S
C1242 C1250 1.574 . S
C1242 C1258 1.368 . S
H1243 C1251 0.950 . S
H1244 C1249 0.950 . S
H1245 C1250 0.949 . S
H1246 C1252 0.950 . S
H1247 C1253 0.950 . S
H1248 C1254 0.949 . S
C1249 H1244 0.950 . S
C1249 C1251 1.327 . S
C1249 C1255 1.429 . S
C1250 C1242 1.574 . S
C1250 H1245 0.949 . S
C1250 C1256 1.368 . S
C1251 C1235 1.349 . S
C1251 H1243 0.950 . S
C1251 C1249 1.327 . S
C1252 C1240 1.349 . S
C1252 H1246 0.950 . S
C1252 C1253 1.327 . S
C1253 H1247 0.950 . S
C1253 C1252 1.327 . S
C1253 C1257 1.429 . S
C1254 C1237 1.574 . S
C1254 H1248 0.949 . S
C1254 C1258 1.368 . S
C1255 C1236 1.429 . S
C1255 C1249 1.429 . S
C1255 C1256 1.523 . S
C1256 C1237 1.368 . S
C1256 C1250 1.368 . S
C1256 C1255 1.523 . S
C1257 C1241 1.429 . S
C1257 C1253 1.429 . S
C1257 C1258 1.523 . S
C1258 C1242 1.368 . S
C1258 C1254 1.368 . S
C1258 C1257 1.523 . S
H1259 C1234 0.950 . S
H1260 C1236 0.950 . S
H1261 C1237 0.949 . S
H1262 C1239 0.950 . S
H1263 C1241 0.950 . S
C1264 C1265 1.349 . S
C1264 C1266 1.327 . S
C1264 H1289 0.950 . S
C1265 C1264 1.349 . S
C1265 C1281 1.349 . S
C1266 C1264 1.327 . S
C1266 C1285 1.429 . S
C1266 H1290 0.950 . S
C1267 C1284 1.574 . S
C1267 C1286 1.368 . S
C1267 H1291 0.949 . S
H1268 C1272 0.949 . S
C1269 C1270 1.349 . S
C1269 C1271 1.327 . S
C1269 H1292 0.950 . S
C1270 C1269 1.349 . S
C1270 C1282 1.349 . S
C1271 C1269 1.327 . S
C1271 C1287 1.429 . S
C1271 H1293 0.950 . S
C1272 H1268 0.949 . S
C1272 C1280 1.574 . S
C1272 C1288 1.368 . S
H1273 C1281 0.950 . S
H1274 C1279 0.950 . S
H1275 C1280 0.949 . S
H1276 C1282 0.950 . S
H1277 C1283 0.950 . S
H1278 C1284 0.949 . S
C1279 H1274 0.950 . S
C1279 C1281 1.327 . S
C1279 C1285 1.429 . S
C1280 C1272 1.574 . S
C1280 H1275 0.949 . S
C1280 C1286 1.368 . S
C1281 C1265 1.349 . S
C1281 H1273 0.950 . S
C1281 C1279 1.327 . S
C1282 C1270 1.349 . S
C1282 H1276 0.950 . S
C1282 C1283 1.327 . S
C1283 H1277 0.950 . S
C1283 C1282 1.327 . S
C1283 C1287 1.429 . S
C1284 C1267 1.574 . S
C1284 H1278 0.949 . S
C1284 C1288 1.368 . S
C1285 C1266 1.429 . S
C1285 C1279 1.429 . S
C1285 C1286 1.523 . S
C1286 C1267 1.368 . S
C1286 C1280 1.368 . S
C1286 C1285 1.523 . S
C1287 C1271 1.429 . S
C1287 C1283 1.429 . S
C1287 C1288 1.523 . S
C1288 C1272 1.368 . S
C1288 C1284 1.368 . S
C1288 C1287 1.523 . S
H1289 C1264 0.950 . S
H1290 C1266 0.950 . S
H1291 C1267 0.949 . S
H1292 C1269 0.950 . S
H1293 C1271 0.950 . S
C1294 C1295 1.349 . S
C1294 C1296 1.327 . S
C1294 H1319 0.950 1_545 S
C1295 C1294 1.349 . S
C1295 C1311 1.349 . S
C1296 C1294 1.327 . S
C1296 C1315 1.429 . S
C1296 H1320 0.950 1_545 S
C1297 C1314 1.574 . S
C1297 C1316 1.368 . S
C1297 H1321 0.949 . S
H1298 C1302 0.949 . S
C1299 C1300 1.349 . S
C1299 C1301 1.327 . S
C1299 H1322 0.950 . S
C1300 C1299 1.349 . S
C1300 C1312 1.349 1_545 S
C1301 C1299 1.327 . S
C1301 C1317 1.429 . S
C1301 H1323 0.950 . S
C1302 H1298 0.949 . S
C1302 C1310 1.574 . S
C1302 C1318 1.368 1_565 S
H1303 C1311 0.950 . S
H1304 C1309 0.950 . S
H1305 C1310 0.949 . S
H1306 C1312 0.950 . S
H1307 C1313 0.950 . S
H1308 C1314 0.949 . S
C1309 H1304 0.950 . S
C1309 C1311 1.327 . S
C1309 C1315 1.429 . S
C1310 C1302 1.574 . S
C1310 H1305 0.949 . S
C1310 C1316 1.368 1_565 S
C1311 C1295 1.349 . S
C1311 H1303 0.950 . S
C1311 C1309 1.327 . S
C1312 C1300 1.349 1_565 S
C1312 H1306 0.950 . S
C1312 C1313 1.327 . S
C1313 H1307 0.950 . S
C1313 C1312 1.327 . S
C1313 C1317 1.429 1_565 S
C1314 C1297 1.574 . S
C1314 H1308 0.949 . S
C1314 C1318 1.368 . S
C1315 C1296 1.429 . S
C1315 C1309 1.429 . S
C1315 C1316 1.523 . S
C1316 C1297 1.368 . S
C1316 C1310 1.368 1_545 S
C1316 C1315 1.523 . S
C1317 C1301 1.429 . S
C1317 C1313 1.429 1_545 S
C1317 C1318 1.523 . S
C1318 C1302 1.368 1_545 S
C1318 C1314 1.368 . S
C1318 C1317 1.523 . S
H1319 C1294 0.950 1_565 S
H1320 C1296 0.950 1_565 S
H1321 C1297 0.949 . S
H1322 C1299 0.950 . S
H1323 C1301 0.950 . S
C1324 C1325 1.349 . S
C1324 C1326 1.327 . S
C1324 H1349 0.950 . S
C1325 C1324 1.349 . S
C1325 C1341 1.349 . S
C1326 C1324 1.327 . S
C1326 C1345 1.429 . S
C1326 H1350 0.950 1_556 S
C1327 C1344 1.581 . S
C1327 C1346 1.368 . S
C1327 H1351 0.949 . S
H1328 C1332 0.949 . S
C1329 C1330 1.349 . S
C1329 C1331 1.327 . S
C1329 H1352 0.950 . S
C1330 C1329 1.349 . S
C1330 C1342 1.349 . S
C1331 C1329 1.327 . S
C1331 C1347 1.429 . S
C1331 H1353 0.950 . S
C1332 H1328 0.949 . S
C1332 C1340 1.574 . S
C1332 C1348 1.368 . S
H1333 C1341 0.950 . S
H1334 C1339 0.950 . S
H1335 C1340 0.949 . S
H1336 C1342 0.950 . S
H1337 C1343 0.950 . S
H1338 C1344 0.954 . S
C1339 H1334 0.950 . S
C1339 C1341 1.327 . S
C1339 C1345 1.429 . S
C1340 C1332 1.574 . S
C1340 H1335 0.949 . S
C1340 C1346 1.368 1_554 S
C1341 C1325 1.349 . S
C1341 H1333 0.950 . S
C1341 C1339 1.327 . S
C1342 C1330 1.349 . S
C1342 H1336 0.950 . S
C1342 C1343 1.327 . S
C1343 H1337 0.950 . S
C1343 C1342 1.327 . S
C1343 C1347 1.429 . S
C1344 C1327 1.581 . S
C1344 H1338 0.954 . S
C1344 C1348 1.356 1_556 S
C1345 C1326 1.429 . S
C1345 C1339 1.429 . S
C1345 C1346 1.523 . S
C1346 C1327 1.368 . S
C1346 C1340 1.368 1_556 S
C1346 C1345 1.523 . S
C1347 C1331 1.429 . S
C1347 C1343 1.429 . S
C1347 C1348 1.523 . S
C1348 C1332 1.368 . S
C1348 C1344 1.356 1_554 S
C1348 C1347 1.523 . S
H1349 C1324 0.950 . S
H1350 C1326 0.950 1_554 S
H1351 C1327 0.949 . S
H1352 C1329 0.950 . S
H1353 C1331 0.950 . S
C1354 C1355 1.349 1_445 S
C1354 C1356 1.327 . S
C1354 H1379 0.950 1_455 S
C1355 C1354 1.349 1_665 S
C1355 C1371 1.349 1_655 S
C1356 C1354 1.327 . S
C1356 C1375 1.429 1_545 S
C1356 H1380 0.950 . S
C1357 C1374 1.574 . S
C1357 C1376 1.368 . S
C1357 H1381 0.949 . S
H1358 C1362 0.949 1_545 S
C1359 C1360 1.349 . S
C1359 C1361 1.327 . S
C1359 H1382 0.950 . S
C1360 C1359 1.349 . S
C1360 C1372 1.349 . S
C1361 C1359 1.327 . S
C1361 C1377 1.429 . S
C1361 H1383 0.950 . S
C1362 H1358 0.949 1_565 S
C1362 C1370 1.572 1_565 S
C1362 C1378 1.368 . S
H1363 C1371 0.950 . S
H1364 C1369 0.950 . S
H1365 C1370 0.968 . S
H1366 C1372 0.950 1_545 S
H1367 C1373 0.950 1_545 S
H1368 C1374 0.949 . S
C1369 H1364 0.950 . S
C1369 C1371 1.327 . S
C1369 C1375 1.429 . S
C1370 C1362 1.572 1_545 S
C1370 H1365 0.968 . S
C1370 C1376 1.349 1_545 S
C1371 C1355 1.349 1_455 S
C1371 H1363 0.950 . S
C1371 C1369 1.327 . S
C1372 C1360 1.349 . S
C1372 H1366 0.950 1_565 S
C1372 C1373 1.327 . S
C1373 H1367 0.950 1_565 S
C1373 C1372 1.327 . S
C1373 C1377 1.429 . S
C1374 C1357 1.574 . S
C1374 H1368 0.949 . S
C1374 C1378 1.368 . S
C1375 C1356 1.429 1_565 S
C1375 C1369 1.429 . S
C1375 C1376 1.523 . S
C1376 C1357 1.368 . S
C1376 C1370 1.349 1_565 S
C1376 C1375 1.523 . S
C1377 C1361 1.429 . S
C1377 C1373 1.429 . S
C1377 C1378 1.523 . S
C1378 C1362 1.368 . S
C1378 C1374 1.368 . S
C1378 C1377 1.523 . S
H1379 C1354 0.950 1_655 S
H1380 C1356 0.950 . S
H1381 C1357 0.949 . S
H1382 C1359 0.950 . S
H1383 C1361 0.950 . S
C1384 C1385 1.349 . S
C1384 C1386 1.327 . S
C1384 H1409 0.950 . S
C1385 C1384 1.349 . S
C1385 C1401 1.349 . S
C1386 C1384 1.327 . S
C1386 C1405 1.429 . S
C1386 H1410 0.950 . S
C1387 C1404 1.574 . S
C1387 C1406 1.368 . S
C1387 H1411 0.949 . S
H1388 C1392 0.949 . S
C1389 C1390 1.349 . S
C1389 C1391 1.327 . S
C1389 H1412 0.950 . S
C1390 C1389 1.349 . S
C1390 C1402 1.349 . S
C1391 C1389 1.327 . S
C1391 C1407 1.429 . S
C1391 H1413 0.950 . S
C1392 H1388 0.949 . S
C1392 C1400 1.574 . S
C1392 C1408 1.368 . S
H1393 C1401 0.950 . S
H1394 C1399 0.950 . S
H1395 C1400 0.949 . S
H1396 C1402 0.950 . S
H1397 C1403 0.950 . S
H1398 C1404 0.949 . S
C1399 H1394 0.950 . S
C1399 C1401 1.327 . S
C1399 C1405 1.429 . S
C1400 C1392 1.574 . S
C1400 H1395 0.949 . S
C1400 C1406 1.368 . S
C1401 C1385 1.349 . S
C1401 H1393 0.950 . S
C1401 C1399 1.327 . S
C1402 C1390 1.349 . S
C1402 H1396 0.950 . S
C1402 C1403 1.327 . S
C1403 H1397 0.950 . S
C1403 C1402 1.327 . S
C1403 C1407 1.429 . S
C1404 C1387 1.574 . S
C1404 H1398 0.949 . S
C1404 C1408 1.368 . S
C1405 C1386 1.429 . S
C1405 C1399 1.429 . S
C1405 C1406 1.523 . S
C1406 C1387 1.368 . S
C1406 C1400 1.368 . S
C1406 C1405 1.523 . S
C1407 C1391 1.429 . S
C1407 C1403 1.429 . S
C1407 C1408 1.523 . S
C1408 C1392 1.368 . S
C1408 C1404 1.368 . S
C1408 C1407 1.523 . S
H1409 C1384 0.950 . S
H1410 C1386 0.950 . S
H1411 C1387 0.949 . S
H1412 C1389 0.950 . S
H1413 C1391 0.950 . S
C1414 C1415 1.349 . S
C1414 C1416 1.327 . S
C1414 H1439 0.950 . S
C1415 C1414 1.349 . S
C1415 C1431 1.349 . S
C1416 C1414 1.327 . S
C1416 C1435 1.429 . S
C1416 H1440 0.950 . S
C1417 C1434 1.574 . S
C1417 C1436 1.368 . S
C1417 H1441 0.949 1_565 S
H1418 C1422 0.949 . S
C1419 C1420 1.349 1_545 S
C1419 C1421 1.328 . S
C1419 H1442 0.950 . S
C1420 C1419 1.349 1_565 S
C1420 C1432 1.349 . S
C1421 C1419 1.328 . S
C1421 C1437 1.410 1_545 S
C1421 H1443 0.967 . S
C1422 H1418 0.949 . S
C1422 C1430 1.574 . S
C1422 C1438 1.368 . S
H1423 C1431 0.950 1_545 S
H1424 C1429 0.950 1_545 S
H1425 C1430 0.949 . S
H1426 C1432 0.950 . S
H1427 C1433 0.950 . S
H1428 C1434 0.949 1_545 S
C1429 H1424 0.950 1_565 S
C1429 C1431 1.327 . S
C1429 C1435 1.429 . S
C1430 C1422 1.574 . S
C1430 H1425 0.949 . S
C1430 C1436 1.368 . S
C1431 C1415 1.349 . S
C1431 H1423 0.950 1_565 S
C1431 C1429 1.327 . S
C1432 C1420 1.349 . S
C1432 H1426 0.950 . S
C1432 C1433 1.327 . S
C1433 H1427 0.950 . S
C1433 C1432 1.327 . S
C1433 C1437 1.429 . S
C1434 C1417 1.574 . S
C1434 H1428 0.949 1_565 S
C1434 C1438 1.368 . S
C1435 C1416 1.429 . S
C1435 C1429 1.429 . S
C1435 C1436 1.523 . S
C1436 C1417 1.368 . S
C1436 C1430 1.368 . S
C1436 C1435 1.523 . S
C1437 C1421 1.410 1_565 S
C1437 C1433 1.429 . S
C1437 C1438 1.523 . S
C1438 C1422 1.368 . S
C1438 C1434 1.368 . S
C1438 C1437 1.523 . S
H1439 C1414 0.950 . S
H1440 C1416 0.950 . S
H1441 C1417 0.949 1_545 S
H1442 C1419 0.950 . S
H1443 C1421 0.967 . S
C1444 C1445 1.349 . S
C1444 C1446 1.327 . S
C1444 H1469 0.950 . S
C1445 C1444 1.349 . S
C1445 C1461 1.349 . S
C1446 C1444 1.327 . S
C1446 C1465 1.429 . S
C1446 H1470 0.950 . S
C1447 C1464 1.574 . S
C1447 C1466 1.368 1_556 S
C1447 H1471 0.949 . S
H1448 C1452 0.949 . S
C1449 C1450 1.349 . S
C1449 C1451 1.327 . S
C1449 H1472 0.950 . S
C1450 C1449 1.349 . S
C1450 C1462 1.349 . S
C1451 C1449 1.327 . S
C1451 C1467 1.429 . S
C1451 H1473 0.950 . S
C1452 H1448 0.949 . S
C1452 C1460 1.574 . S
C1452 C1468 1.368 1_554 S
H1453 C1461 0.950 1_556 S
H1454 C1459 0.950 . S
H1455 C1460 0.949 . S
H1456 C1462 0.950 . S
H1457 C1463 0.950 1_554 S
H1458 C1464 0.949 . S
C1459 H1454 0.950 . S
C1459 C1461 1.327 1_556 S
C1459 C1465 1.429 1_556 S
C1460 C1452 1.574 . S
C1460 H1455 0.949 . S
C1460 C1466 1.368 . S
C1461 C1445 1.349 . S
C1461 H1453 0.950 1_554 S
C1461 C1459 1.327 1_554 S
C1462 C1450 1.349 . S
C1462 H1456 0.950 . S
C1462 C1463 1.327 . S
C1463 H1457 0.950 1_556 S
C1463 C1462 1.327 . S
C1463 C1467 1.429 . S
C1464 C1447 1.574 . S
C1464 H1458 0.949 . S
C1464 C1468 1.368 . S
C1465 C1446 1.429 . S
C1465 C1459 1.429 1_554 S
C1465 C1466 1.523 . S
C1466 C1447 1.368 1_554 S
C1466 C1460 1.368 . S
C1466 C1465 1.523 . S
C1467 C1451 1.429 . S
C1467 C1463 1.429 . S
C1467 C1468 1.523 . S
C1468 C1452 1.368 1_556 S
C1468 C1464 1.368 . S
C1468 C1467 1.523 . S
H1469 C1444 0.950 . S
H1470 C1446 0.950 . S
H1471 C1447 0.949 . S
H1472 C1449 0.950 . S
H1473 C1451 0.950 . S
C1474 C1475 1.349 1_665 S
C1474 C1476 1.327 . S
C1474 H1499 0.950 . S
C1475 C1474 1.349 1_445 S
C1475 C1491 1.349 1_455 S
C1476 C1474 1.327 . S
C1476 C1495 1.429 1_565 S
C1476 H1500 0.950 . S
C1477 C1494 1.574 . S
C1477 C1496 1.368 . S
C1477 H1501 0.949 . S
H1478 C1482 0.949 . S
C1479 C1480 1.349 . S
C1479 C1481 1.327 . S
C1479 H1502 0.950 . S
C1480 C1479 1.349 . S
C1480 C1492 1.349 . S
C1481 C1479 1.327 . S
C1481 C1497 1.429 . S
C1481 H1503 0.950 . S
C1482 H1478 0.949 . S
C1482 C1490 1.574 . S
C1482 C1498 1.368 1_565 S
H1483 C1491 0.950 1_455 S
H1484 C1489 0.950 . S
H1485 C1490 0.949 . S
H1486 C1492 0.950 1_565 S
H1487 C1493 0.950 1_565 S
H1488 C1494 0.949 . S
C1489 H1484 0.950 . S
C1489 C1491 1.327 . S
C1489 C1495 1.429 . S
C1490 C1482 1.574 . S
C1490 H1485 0.949 . S
C1490 C1496 1.368 1_565 S
C1491 C1475 1.349 1_655 S
C1491 H1483 0.950 1_655 S
C1491 C1489 1.327 . S
C1492 C1480 1.349 . S
C1492 H1486 0.950 1_545 S
C1492 C1493 1.327 . S
C1493 H1487 0.950 1_545 S
C1493 C1492 1.327 . S
C1493 C1497 1.429 . S
C1494 C1477 1.574 . S
C1494 H1488 0.949 . S
C1494 C1498 1.368 . S
C1495 C1476 1.429 1_545 S
C1495 C1489 1.429 . S
C1495 C1496 1.523 . S
C1496 C1477 1.368 . S
C1496 C1490 1.368 1_545 S
C1496 C1495 1.523 . S
C1497 C1481 1.429 . S
C1497 C1493 1.429 . S
C1497 C1498 1.523 . S
C1498 C1482 1.368 1_545 S
C1498 C1494 1.368 . S
C1498 C1497 1.523 . S
H1499 C1474 0.950 . S
H1500 C1476 0.950 . S
H1501 C1477 0.949 . S
H1502 C1479 0.950 . S
H1503 C1481 0.950 . S
C1504 C1505 1.349 . S
C1504 C1506 1.327 . S
C1504 H1529 0.950 . S
C1505 C1504 1.349 . S
C1505 C1521 1.349 . S
C1506 C1504 1.327 . S
C1506 C1525 1.429 . S
C1506 H1530 0.950 . S
C1507 C1524 1.574 . S
C1507 C1526 1.368 . S
C1507 H1531 0.949 . S
H1508 C1512 0.949 . S
C1509 C1510 1.349 . S
C1509 C1511 1.327 . S
C1509 H1532 0.954 . S
C1510 C1509 1.349 . S
C1510 C1522 1.349 . S
C1511 C1509 1.327 . S
C1511 C1527 1.429 . S
C1511 H1533 0.950 . S
C1512 H1508 0.949 . S
C1512 C1520 1.574 . S
C1512 C1528 1.368 . S
H1513 C1521 0.950 . S
H1514 C1519 0.950 . S
H1515 C1520 0.949 . S
H1516 C1522 0.950 . S
H1517 C1523 0.950 . S
H1518 C1524 0.949 . S
C1519 H1514 0.950 . S
C1519 C1521 1.327 . S
C1519 C1525 1.429 . S
C1520 C1512 1.574 . S
C1520 H1515 0.949 . S
C1520 C1526 1.368 . S
C1521 C1505 1.349 . S
C1521 H1513 0.950 . S
C1521 C1519 1.327 . S
C1522 C1510 1.349 . S
C1522 H1516 0.950 . S
C1522 C1523 1.327 . S
C1523 H1517 0.950 . S
C1523 C1522 1.327 . S
C1523 C1527 1.429 . S
C1524 C1507 1.574 . S
C1524 H1518 0.949 . S
C1524 C1528 1.368 . S
C1525 C1506 1.429 . S
C1525 C1519 1.429 . S
C1525 C1526 1.523 . S
C1526 C1507 1.368 . S
C1526 C1520 1.368 . S
C1526 C1525 1.523 . S
C1527 C1511 1.429 . S
C1527 C1523 1.429 . S
C1527 C1528 1.523 . S
C1528 C1512 1.368 . S
C1528 C1524 1.368 . S
C1528 C1527 1.523 . S
H1529 C1504 0.950 . S
H1530 C1506 0.950 . S
H1531 C1507 0.949 . S
H1532 C1509 0.954 . S
H1533 C1511 0.950 . S
C1534 C1535 1.349 . S
C1534 C1536 1.327 . S
C1534 H1559 0.950 . S
C1535 C1534 1.349 . S
C1535 C1551 1.349 . S
C1536 C1534 1.327 . S
C1536 C1555 1.429 . S
C1536 H1560 0.950 . S
C1537 C1554 1.574 . S
C1537 C1556 1.368 . S
C1537 H1561 0.949 . S
H1538 C1542 0.949 . S
C1539 C1540 1.349 . S
C1539 C1541 1.327 . S
C1539 H1562 0.950 . S
C1540 C1539 1.349 . S
C1540 C1552 1.349 . S
C1541 C1539 1.327 . S
C1541 C1557 1.429 . S
C1541 H1563 0.950 . S
C1542 H1538 0.949 . S
C1542 C1550 1.574 . S
C1542 C1558 1.368 . S
H1543 C1551 0.950 . S
H1544 C1549 0.950 . S
H1545 C1550 0.949 . S
H1546 C1552 0.950 . S
H1547 C1553 0.950 . S
H1548 C1554 0.949 . S
C1549 H1544 0.950 . S
C1549 C1551 1.327 . S
C1549 C1555 1.429 . S
C1550 C1542 1.574 . S
C1550 H1545 0.949 . S
C1550 C1556 1.368 . S
C1551 C1535 1.349 . S
C1551 H1543 0.950 . S
C1551 C1549 1.327 . S
C1552 C1540 1.349 . S
C1552 H1546 0.950 . S
C1552 C1553 1.327 . S
C1553 H1547 0.950 . S
C1553 C1552 1.327 . S
C1553 C1557 1.429 . S
C1554 C1537 1.574 . S
C1554 H1548 0.949 . S
C1554 C1558 1.368 . S
C1555 C1536 1.429 . S
C1555 C1549 1.429 . S
C1555 C1556 1.523 . S
C1556 C1537 1.368 . S
C1556 C1550 1.368 . S
C1556 C1555 1.523 . S
C1557 C1541 1.429 . S
C1557 C1553 1.429 . S
C1557 C1558 1.523 . S
C1558 C1542 1.368 . S
C1558 C1554 1.368 . S
C1558 C1557 1.523 . S
H1559 C1534 0.950 . S
H1560 C1536 0.950 . S
H1561 C1537 0.949 . S
H1562 C1539 0.950 . S
H1563 C1541 0.950 . S
C1564 C1565 1.349 . S
C1564 C1566 1.327 . S
C1564 H1589 0.950 . S
C1565 C1564 1.349 . S
C1565 C1581 1.349 . S
C1566 C1564 1.327 . S
C1566 C1585 1.429 . S
C1566 H1590 0.950 . S
C1567 C1584 1.574 . S
C1567 C1586 1.368 . S
C1567 H1591 0.949 . S
H1568 C1572 0.949 . S
C1569 C1570 1.349 . S
C1569 C1571 1.327 . S
C1569 H1592 0.950 . S
C1570 C1569 1.349 . S
C1570 C1582 1.349 . S
C1571 C1569 1.327 . S
C1571 C1587 1.429 . S
C1571 H1593 0.950 . S
C1572 H1568 0.949 . S
C1572 C1580 1.574 . S
C1572 C1588 1.368 . S
H1573 C1581 0.950 . S
H1574 C1579 0.950 . S
H1575 C1580 0.949 . S
H1576 C1582 0.950 . S
H1577 C1583 0.950 . S
H1578 C1584 0.949 . S
C1579 H1574 0.950 . S
C1579 C1581 1.327 . S
C1579 C1585 1.429 . S
C1580 C1572 1.574 . S
C1580 H1575 0.949 . S
C1580 C1586 1.368 . S
C1581 C1565 1.349 . S
C1581 H1573 0.950 . S
C1581 C1579 1.327 . S
C1582 C1570 1.349 . S
C1582 H1576 0.950 . S
C1582 C1583 1.327 . S
C1583 H1577 0.950 . S
C1583 C1582 1.327 . S
C1583 C1587 1.429 . S
C1584 C1567 1.574 . S
C1584 H1578 0.949 . S
C1584 C1588 1.368 . S
C1585 C1566 1.429 . S
C1585 C1579 1.429 . S
C1585 C1586 1.523 . S
C1586 C1567 1.368 . S
C1586 C1580 1.368 . S
C1586 C1585 1.523 . S
C1587 C1571 1.429 . S
C1587 C1583 1.429 . S
C1587 C1588 1.523 . S
C1588 C1572 1.368 . S
C1588 C1584 1.368 . S
C1588 C1587 1.523 . S
H1589 C1564 0.950 . S
H1590 C1566 0.950 . S
H1591 C1567 0.949 . S
H1592 C1569 0.950 . S
H1593 C1571 0.950 . S
C1594 C1595 1.349 . S
C1594 C1596 1.327 . S
C1594 H1619 0.950 . S
C1595 C1594 1.349 . S
C1595 C1611 1.349 . S
C1596 C1594 1.327 . S
C1596 C1615 1.429 . S
C1596 H1620 0.950 . S
C1597 C1614 1.574 . S
C1597 C1616 1.368 . S
C1597 H1621 0.949 . S
H1598 C1602 0.949 . S
C1599 C1600 1.349 . S
C1599 C1601 1.327 . S
C1599 H1622 0.950 . S
C1600 C1599 1.349 . S
C1600 C1612 1.349 . S
C1601 C1599 1.327 . S
C1601 C1617 1.429 . S
C1601 H1623 0.950 . S
C1602 H1598 0.949 . S
C1602 C1610 1.574 . S
C1602 C1618 1.368 . S
H1603 C1611 0.950 . S
H1604 C1609 0.950 . S
H1605 C1610 0.949 . S
H1606 C1612 0.950 . S
H1607 C1613 0.950 . S
H1608 C1614 0.949 . S
C1609 H1604 0.950 . S
C1609 C1611 1.327 . S
C1609 C1615 1.429 . S
C1610 C1602 1.574 . S
C1610 H1605 0.949 . S
C1610 C1616 1.368 . S
C1611 C1595 1.349 . S
C1611 H1603 0.950 . S
C1611 C1609 1.327 . S
C1612 C1600 1.349 . S
C1612 H1606 0.950 . S
C1612 C1613 1.327 . S
C1613 H1607 0.950 . S
C1613 C1612 1.327 . S
C1613 C1617 1.429 . S
C1614 C1597 1.574 . S
C1614 H1608 0.949 . S
C1614 C1618 1.368 . S
C1615 C1596 1.429 . S
C1615 C1609 1.429 . S
C1615 C1616 1.523 . S
C1616 C1597 1.368 . S
C1616 C1610 1.368 . S
C1616 C1615 1.523 . S
C1617 C1601 1.429 . S
C1617 C1613 1.429 . S
C1617 C1618 1.523 . S
C1618 C1602 1.368 . S
C1618 C1614 1.368 . S
C1618 C1617 1.523 . S
H1619 C1594 0.950 . S
H1620 C1596 0.950 . S
H1621 C1597 0.949 . S
H1622 C1599 0.950 . S
H1623 C1601 0.950 . S
C1624 C1625 1.349 . S
C1624 C1626 1.327 . S
C1624 H1649 0.950 . S
C1625 C1624 1.349 . S
C1625 C1641 1.349 . S
C1626 C1624 1.327 . S
C1626 C1645 1.429 . S
C1626 H1650 0.950 . S
C1627 C1644 1.574 . S
C1627 C1646 1.368 . S
C1627 H1651 0.949 . S
H1628 C1632 0.949 . S
C1629 C1630 1.349 . S
C1629 C1631 1.327 . S
C1629 H1652 0.950 . S
C1630 C1629 1.349 . S
C1630 C1642 1.349 . S
C1631 C1629 1.327 . S
C1631 C1647 1.429 . S
C1631 H1653 0.950 . S
C1632 H1628 0.949 . S
C1632 C1640 1.574 . S
C1632 C1648 1.368 . S
H1633 C1641 0.950 . S
H1634 C1639 0.950 . S
H1635 C1640 0.949 . S
H1636 C1642 0.950 . S
H1637 C1643 0.950 . S
H1638 C1644 0.949 . S
C1639 H1634 0.950 . S
C1639 C1641 1.327 . S
C1639 C1645 1.429 . S
C1640 C1632 1.574 . S
C1640 H1635 0.949 . S
C1640 C1646 1.368 . S
C1641 C1625 1.349 . S
C1641 H1633 0.950 . S
C1641 C1639 1.327 . S
C1642 C1630 1.349 . S
C1642 H1636 0.950 . S
C1642 C1643 1.327 . S
C1643 H1637 0.950 . S
C1643 C1642 1.327 . S
C1643 C1647 1.429 . S
C1644 C1627 1.574 . S
C1644 H1638 0.949 . S
C1644 C1648 1.368 . S
C1645 C1626 1.429 . S
C1645 C1639 1.429 . S
C1645 C1646 1.523 . S
C1646 C1627 1.368 . S
C1646 C1640 1.368 . S
C1646 C1645 1.523 . S
C1647 C1631 1.429 . S
C1647 C1643 1.429 . S
C1647 C1648 1.523 . S
C1648 C1632 1.368 . S
C1648 C1644 1.368 . S
C1648 C1647 1.523 . S
H1649 C1624 0.950 . S
H1650 C1626 0.950 . S
H1651 C1627 0.949 . S
H1652 C1629 0.950 . S
H1653 C1631 0.950 . S
C1654 C1655 1.349 . S
C1654 C1656 1.327 . S
C1654 H1679 0.950 . S
C1655 C1654 1.349 . S
C1655 C1671 1.349 . S
C1656 C1654 1.327 . S
C1656 C1675 1.429 . S
C1656 H1680 0.950 . S
C1657 C1674 1.574 . S
C1657 C1676 1.368 . S
C1657 H1681 0.949 . S
H1658 C1662 0.949 . S
C1659 C1660 1.349 . S
C1659 C1661 1.327 . S
C1659 H1682 0.950 . S
C1660 C1659 1.349 . S
C1660 C1672 1.349 . S
C1661 C1659 1.327 . S
C1661 C1677 1.429 . S
C1661 H1683 0.950 . S
C1662 H1658 0.949 . S
C1662 C1670 1.574 . S
C1662 C1678 1.368 . S
H1663 C1671 0.950 . S
H1664 C1669 0.950 . S
H1665 C1670 0.949 . S
H1666 C1672 0.950 . S
H1667 C1673 0.950 . S
H1668 C1674 0.949 . S
C1669 H1664 0.950 . S
C1669 C1671 1.327 . S
C1669 C1675 1.429 . S
C1670 C1662 1.574 . S
C1670 H1665 0.949 . S
C1670 C1676 1.368 . S
C1671 C1655 1.349 . S
C1671 H1663 0.950 . S
C1671 C1669 1.327 . S
C1672 C1660 1.349 . S
C1672 H1666 0.950 . S
C1672 C1673 1.327 . S
C1673 H1667 0.950 . S
C1673 C1672 1.327 . S
C1673 C1677 1.429 . S
C1674 C1657 1.574 . S
C1674 H1668 0.949 . S
C1674 C1678 1.368 . S
C1675 C1656 1.429 . S
C1675 C1669 1.429 . S
C1675 C1676 1.523 . S
C1676 C1657 1.368 . S
C1676 C1670 1.368 . S
C1676 C1675 1.523 . S
C1677 C1661 1.429 . S
C1677 C1673 1.429 . S
C1677 C1678 1.523 . S
C1678 C1662 1.368 . S
C1678 C1674 1.368 . S
C1678 C1677 1.523 . S
H1679 C1654 0.950 . S
H1680 C1656 0.950 . S
H1681 C1657 0.949 . S
H1682 C1659 0.950 . S
H1683 C1661 0.950 . S
C1684 C1685 1.349 . S
C1684 C1686 1.327 . S
C1684 H1709 0.950 . S
C1685 C1684 1.349 . S
C1685 C1701 1.349 . S
C1686 C1684 1.327 . S
C1686 C1705 1.429 . S
C1686 H1710 0.950 . S
C1687 C1704 1.574 . S
C1687 C1706 1.368 . S
C1687 H1711 0.949 . S
H1688 C1692 0.949 . S
C1689 C1690 1.349 . S
C1689 C1691 1.327 . S
C1689 H1712 0.950 . S
C1690 C1689 1.349 . S
C1690 C1702 1.349 . S
C1691 C1689 1.327 . S
C1691 C1707 1.429 . S
C1691 H1713 0.950 . S
C1692 H1688 0.949 . S
C1692 C1700 1.574 . S
C1692 C1708 1.368 . S
H1693 C1701 0.950 . S
H1694 C1699 0.950 . S
H1695 C1700 0.949 . S
H1696 C1702 0.950 . S
H1697 C1703 0.950 . S
H1698 C1704 0.949 . S
C1699 H1694 0.950 . S
C1699 C1701 1.327 . S
C1699 C1705 1.429 . S
C1700 C1692 1.574 . S
C1700 H1695 0.949 . S
C1700 C1706 1.368 . S
C1701 C1685 1.349 . S
C1701 H1693 0.950 . S
C1701 C1699 1.327 . S
C1702 C1690 1.349 . S
C1702 H1696 0.950 . S
C1702 C1703 1.327 . S
C1703 H1697 0.950 . S
C1703 C1702 1.327 . S
C1703 C1707 1.429 . S
C1704 C1687 1.574 . S
C1704 H1698 0.949 . S
C1704 C1708 1.368 . S
C1705 C1686 1.429 . S
C1705 C1699 1.429 . S
C1705 C1706 1.523 . S
C1706 C1687 1.368 . S
C1706 C1700 1.368 . S
C1706 C1705 1.523 . S
C1707 C1691 1.429 . S
C1707 C1703 1.429 . S
C1707 C1708 1.523 . S
C1708 C1692 1.368 . S
C1708 C1704 1.368 . S
C1708 C1707 1.523 . S
H1709 C1684 0.950 . S
H1710 C1686 0.950 . S
H1711 C1687 0.949 . S
H1712 C1689 0.950 . S
H1713 C1691 0.950 . S
C1714 C1715 1.349 . S
C1714 C1716 1.327 . S
C1714 H1739 0.950 . S
C1715 C1714 1.349 . S
C1715 C1731 1.349 . S
C1716 C1714 1.327 . S
C1716 C1735 1.429 . S
C1716 H1740 0.950 . S
C1717 C1734 1.574 . S
C1717 C1736 1.368 . S
C1717 H1741 0.949 . S
H1718 C1722 0.949 . S
C1719 C1720 1.349 . S
C1719 C1721 1.327 . S
C1719 H1742 0.950 . S
C1720 C1719 1.349 . S
C1720 C1732 1.349 . S
C1721 C1719 1.327 . S
C1721 C1737 1.429 . S
C1721 H1743 0.950 . S
C1722 H1718 0.949 . S
C1722 C1730 1.574 . S
C1722 C1738 1.368 . S
H1723 C1731 0.950 . S
H1724 C1729 0.950 . S
H1725 C1730 0.949 . S
H1726 C1732 0.950 . S
H1727 C1733 0.950 . S
H1728 C1734 0.949 . S
C1729 H1724 0.950 . S
C1729 C1731 1.327 . S
C1729 C1735 1.429 . S
C1730 C1722 1.574 . S
C1730 H1725 0.949 . S
C1730 C1736 1.368 . S
C1731 C1715 1.349 . S
C1731 H1723 0.950 . S
C1731 C1729 1.327 . S
C1732 C1720 1.349 . S
C1732 H1726 0.950 . S
C1732 C1733 1.327 . S
C1733 H1727 0.950 . S
C1733 C1732 1.327 . S
C1733 C1737 1.429 . S
C1734 C1717 1.574 . S
C1734 H1728 0.949 . S
C1734 C1738 1.368 . S
C1735 C1716 1.429 . S
C1735 C1729 1.429 . S
C1735 C1736 1.523 . S
C1736 C1717 1.368 . S
C1736 C1730 1.368 . S
C1736 C1735 1.523 . S
C1737 C1721 1.429 . S
C1737 C1733 1.429 . S
C1737 C1738 1.523 . S
C1738 C1722 1.368 . S
C1738 C1734 1.368 . S
C1738 C1737 1.523 . S
H1739 C1714 0.950 . S
H1740 C1716 0.950 . S
H1741 C1717 0.949 . S
H1742 C1719 0.950 . S
H1743 C1721 0.950 . S
C1744 C1745 1.349 . S
C1744 C1746 1.327 . S
C1744 H1769 0.950 . S
C1745 C1744 1.349 . S
C1745 C1761 1.349 . S
C1746 C1744 1.327 . S
C1746 C1765 1.429 . S
C1746 H1770 0.950 . S
C1747 C1764 1.574 . S
C1747 C1766 1.368 . S
C1747 H1771 0.949 . S
H1748 C1752 0.949 . S
C1749 C1750 1.349 . S
C1749 C1751 1.327 . S
C1749 H1772 0.950 . S
C1750 C1749 1.349 . S
C1750 C1762 1.349 . S
C1751 C1749 1.327 . S
C1751 C1767 1.429 . S
C1751 H1773 0.950 . S
C1752 H1748 0.949 . S
C1752 C1760 1.574 . S
C1752 C1768 1.368 . S
H1753 C1761 0.950 . S
H1754 C1759 0.950 . S
H1755 C1760 0.949 . S
H1756 C1762 0.950 . S
H1757 C1763 0.950 . S
H1758 C1764 0.949 . S
C1759 H1754 0.950 . S
C1759 C1761 1.327 . S
C1759 C1765 1.429 . S
C1760 C1752 1.574 . S
C1760 H1755 0.949 . S
C1760 C1766 1.368 . S
C1761 C1745 1.349 . S
C1761 H1753 0.950 . S
C1761 C1759 1.327 . S
C1762 C1750 1.349 . S
C1762 H1756 0.950 . S
C1762 C1763 1.327 . S
C1763 H1757 0.950 . S
C1763 C1762 1.327 . S
C1763 C1767 1.429 . S
C1764 C1747 1.574 . S
C1764 H1758 0.949 . S
C1764 C1768 1.368 . S
C1765 C1746 1.429 . S
C1765 C1759 1.429 . S
C1765 C1766 1.523 . S
C1766 C1747 1.368 . S
C1766 C1760 1.368 . S
C1766 C1765 1.523 . S
C1767 C1751 1.429 . S
C1767 C1763 1.429 . S
C1767 C1768 1.523 . S
C1768 C1752 1.368 . S
C1768 C1764 1.368 . S
C1768 C1767 1.523 . S
H1769 C1744 0.950 . S
H1770 C1746 0.950 . S
H1771 C1747 0.949 . S
H1772 C1749 0.950 . S
H1773 C1751 0.950 . S
C1774 C1775 1.349 . S
C1774 C1776 1.327 . S
C1774 H1799 0.950 . S
C1775 C1774 1.349 . S
C1775 C1791 1.349 . S
C1776 C1774 1.327 . S
C1776 C1795 1.429 . S
C1776 H1800 0.950 . S
C1777 C1794 1.574 . S
C1777 C1796 1.368 . S
C1777 H1801 0.949 . S
H1778 C1782 0.949 1_545 S
C1779 C1780 1.340 1_565 S
C1779 C1781 1.327 . S
C1779 H1802 0.950 . S
C1780 C1779 1.340 1_545 S
C1780 C1792 1.354 . S
C1781 C1779 1.327 . S
C1781 C1797 1.429 . S
C1781 H1803 0.950 . S
C1782 H1778 0.949 1_565 S
C1782 C1790 1.574 . S
C1782 C1798 1.368 . S
H1783 C1791 0.950 . S
H1784 C1789 0.950 . S
H1785 C1790 0.949 . S
H1786 C1792 0.950 . S
H1787 C1793 0.950 . S
H1788 C1794 0.949 . S
C1789 H1784 0.950 . S
C1789 C1791 1.327 . S
C1789 C1795 1.429 . S
C1790 C1782 1.574 . S
C1790 H1785 0.949 . S
C1790 C1796 1.368 . S
C1791 C1775 1.349 . S
C1791 H1783 0.950 . S
C1791 C1789 1.327 . S
C1792 C1780 1.354 . S
C1792 H1786 0.950 . S
C1792 C1793 1.327 . S
C1793 H1787 0.950 . S
C1793 C1792 1.327 . S
C1793 C1797 1.429 1_545 S
C1794 C1777 1.574 . S
C1794 H1788 0.949 . S
C1794 C1798 1.368 . S
C1795 C1776 1.429 . S
C1795 C1789 1.429 . S
C1795 C1796 1.523 . S
C1796 C1777 1.368 . S
C1796 C1790 1.368 . S
C1796 C1795 1.523 . S
C1797 C1781 1.429 . S
C1797 C1793 1.429 1_565 S
C1797 C1798 1.523 . S
C1798 C1782 1.368 . S
C1798 C1794 1.368 . S
C1798 C1797 1.523 . S
H1799 C1774 0.950 . S
H1800 C1776 0.950 . S
H1801 C1777 0.949 . S
H1802 C1779 0.950 . S
H1803 C1781 0.950 . S
C1804 C1805 1.349 . S
C1804 C1806 1.327 . S
C1804 H1829 0.950 . S
C1805 C1804 1.349 . S
C1805 C1821 1.349 . S
C1806 C1804 1.327 . S
C1806 C1825 1.429 . S
C1806 H1830 0.950 . S
C1807 C1824 1.574 . S
C1807 C1826 1.368 . S
C1807 H1831 0.949 . S
H1808 C1812 0.949 . S
C1809 C1810 1.349 . S
C1809 C1811 1.327 . S
C1809 H1832 0.950 . S
C1810 C1809 1.349 . S
C1810 C1822 1.349 . S
C1811 C1809 1.327 . S
C1811 C1827 1.429 . S
C1811 H1833 0.950 . S
C1812 H1808 0.949 . S
C1812 C1820 1.574 . S
C1812 C1828 1.368 . S
H1813 C1821 0.950 . S
H1814 C1819 0.950 . S
H1815 C1820 0.949 . S
H1816 C1822 0.950 . S
H1817 C1823 0.950 . S
H1818 C1824 0.949 . S
C1819 H1814 0.950 . S
C1819 C1821 1.327 . S
C1819 C1825 1.429 . S
C1820 C1812 1.574 . S
C1820 H1815 0.949 . S
C1820 C1826 1.368 . S
C1821 C1805 1.349 . S
C1821 H1813 0.950 . S
C1821 C1819 1.327 . S
C1822 C1810 1.349 . S
C1822 H1816 0.950 . S
C1822 C1823 1.327 . S
C1823 H1817 0.950 . S
C1823 C1822 1.327 . S
C1823 C1827 1.429 . S
C1824 C1807 1.574 . S
C1824 H1818 0.949 . S
C1824 C1828 1.368 . S
C1825 C1806 1.429 . S
C1825 C1819 1.429 . S
C1825 C1826 1.523 . S
C1826 C1807 1.368 . S
C1826 C1820 1.368 . S
C1826 C1825 1.523 . S
C1827 C1811 1.429 . S
C1827 C1823 1.429 . S
C1827 C1828 1.523 . S
C1828 C1812 1.368 . S
C1828 C1824 1.368 . S
C1828 C1827 1.523 . S
H1829 C1804 0.950 . S
H1830 C1806 0.950 . S
H1831 C1807 0.949 . S
H1832 C1809 0.950 . S
H1833 C1811 0.950 . S
C1834 C1835 1.339 1_545 S
C1834 C1836 1.327 . S
C1834 H1859 0.950 . S
C1835 C1834 1.339 1_565 S
C1835 C1851 1.355 . S
C1836 C1834 1.327 . S
C1836 C1855 1.429 . S
C1836 H1860 0.950 . S
C1837 C1854 1.574 . S
C1837 C1856 1.368 . S
C1837 H1861 0.949 1_545 S
H1838 C1842 0.949 . S
C1839 C1840 1.349 . S
C1839 C1841 1.327 . S
C1839 H1862 0.950 . S
C1840 C1839 1.349 . S
C1840 C1852 1.349 . S
C1841 C1839 1.327 . S
C1841 C1857 1.429 . S
C1841 H1863 0.950 . S
C1842 H1838 0.949 . S
C1842 C1850 1.574 . S
C1842 C1858 1.368 . S
H1843 C1851 0.950 . S
H1844 C1849 0.950 . S
H1845 C1850 0.949 . S
H1846 C1852 0.950 . S
H1847 C1853 0.950 . S
H1848 C1854 0.949 . S
C1849 H1844 0.950 . S
C1849 C1851 1.327 . S
C1849 C1855 1.429 1_565 S
C1850 C1842 1.574 . S
C1850 H1845 0.949 . S
C1850 C1856 1.368 . S
C1851 C1835 1.355 . S
C1851 H1843 0.950 . S
C1851 C1849 1.327 . S
C1852 C1840 1.349 . S
C1852 H1846 0.950 . S
C1852 C1853 1.327 . S
C1853 H1847 0.950 . S
C1853 C1852 1.327 . S
C1853 C1857 1.429 . S
C1854 C1837 1.574 . S
C1854 H1848 0.949 . S
C1854 C1858 1.368 . S
C1855 C1836 1.429 . S
C1855 C1849 1.429 1_545 S
C1855 C1856 1.523 . S
C1856 C1837 1.368 . S
C1856 C1850 1.368 . S
C1856 C1855 1.523 . S
C1857 C1841 1.429 . S
C1857 C1853 1.429 . S
C1857 C1858 1.523 . S
C1858 C1842 1.368 . S
C1858 C1854 1.368 . S
C1858 C1857 1.523 . S
H1859 C1834 0.950 . S
H1860 C1836 0.950 . S
H1861 C1837 0.949 1_565 S
H1862 C1839 0.950 . S
H1863 C1841 0.950 . S
C1864 C1865 1.349 . S
C1864 C1866 1.327 . S
C1864 H1889 0.950 . S
C1865 C1864 1.349 . S
C1865 C1881 1.349 . S
C1866 C1864 1.327 . S
C1866 C1885 1.429 . S
C1866 H1890 0.950 . S
C1867 C1884 1.574 . S
C1867 C1886 1.368 . S
C1867 H1891 0.949 . S
H1868 C1872 0.949 . S
C1869 C1870 1.349 . S
C1869 C1871 1.327 . S
C1869 H1892 0.950 . S
C1870 C1869 1.349 . S
C1870 C1882 1.349 . S
C1871 C1869 1.327 . S
C1871 C1887 1.429 . S
C1871 H1893 0.950 . S
C1872 H1868 0.949 . S
C1872 C1880 1.574 . S
C1872 C1888 1.368 . S
H1873 C1881 0.950 . S
H1874 C1879 0.950 . S
H1875 C1880 0.949 . S
H1876 C1882 0.950 . S
H1877 C1883 0.950 . S
H1878 C1884 0.949 . S
C1879 H1874 0.950 . S
C1879 C1881 1.327 . S
C1879 C1885 1.429 . S
C1880 C1872 1.574 . S
C1880 H1875 0.949 . S
C1880 C1886 1.368 . S
C1881 C1865 1.349 . S
C1881 H1873 0.950 . S
C1881 C1879 1.327 . S
C1882 C1870 1.349 . S
C1882 H1876 0.950 . S
C1882 C1883 1.327 . S
C1883 H1877 0.950 . S
C1883 C1882 1.327 . S
C1883 C1887 1.429 . S
C1884 C1867 1.574 . S
C1884 H1878 0.949 . S
C1884 C1888 1.368 . S
C1885 C1866 1.429 . S
C1885 C1879 1.429 . S
C1885 C1886 1.523 . S
C1886 C1867 1.368 . S
C1886 C1880 1.368 . S
C1886 C1885 1.523 . S
C1887 C1871 1.429 . S
C1887 C1883 1.429 . S
C1887 C1888 1.523 . S
C1888 C1872 1.368 . S
C1888 C1884 1.368 . S
C1888 C1887 1.523 . S
H1889 C1864 0.950 . S
H1890 C1866 0.950 . S
H1891 C1867 0.949 . S
H1892 C1869 0.950 . S
H1893 C1871 0.950 . S
C1894 C1895 1.349 . S
C1894 C1896 1.327 . S
C1894 H1919 0.950 . S
C1895 C1894 1.349 . S
C1895 C1911 1.349 . S
C1896 C1894 1.327 . S
C1896 C1915 1.429 . S
C1896 H1920 0.950 . S
C1897 C1914 1.574 . S
C1897 C1916 1.368 . S
C1897 H1921 0.949 . S
H1898 C1902 0.949 . S
C1899 C1900 1.356 . S
C1899 C1901 1.327 . S
C1899 H1922 0.950 . S
C1900 C1899 1.356 . S
C1900 C1912 1.338 1_565 S
C1901 C1899 1.327 . S
C1901 C1917 1.429 1_565 S
C1901 H1923 0.950 . S
C1902 H1898 0.949 . S
C1902 C1910 1.574 . S
C1902 C1918 1.368 . S
H1903 C1911 0.950 . S
H1904 C1909 0.950 . S
H1905 C1910 0.949 . S
H1906 C1912 0.950 . S
H1907 C1913 0.950 . S
H1908 C1914 0.949 1_565 S
C1909 H1904 0.950 . S
C1909 C1911 1.327 . S
C1909 C1915 1.429 . S
C1910 C1902 1.574 . S
C1910 H1905 0.949 . S
C1910 C1916 1.368 . S
C1911 C1895 1.349 . S
C1911 H1903 0.950 . S
C1911 C1909 1.327 . S
C1912 C1900 1.338 1_545 S
C1912 H1906 0.950 . S
C1912 C1913 1.327 . S
C1913 H1907 0.950 . S
C1913 C1912 1.327 . S
C1913 C1917 1.429 . S
C1914 C1897 1.574 . S
C1914 H1908 0.949 1_545 S
C1914 C1918 1.368 . S
C1915 C1896 1.429 . S
C1915 C1909 1.429 . S
C1915 C1916 1.523 . S
C1916 C1897 1.368 . S
C1916 C1910 1.368 . S
C1916 C1915 1.523 . S
C1917 C1901 1.429 1_545 S
C1917 C1913 1.429 . S
C1917 C1918 1.523 . S
C1918 C1902 1.368 . S
C1918 C1914 1.368 . S
C1918 C1917 1.523 . S
H1919 C1894 0.950 . S
H1920 C1896 0.950 . S
H1921 C1897 0.949 . S
H1922 C1899 0.950 . S
H1923 C1901 0.950 . S
C1924 C1925 1.349 . S
C1924 C1926 1.327 . S
C1924 H1949 0.950 . S
C1925 C1924 1.349 . S
C1925 C1941 1.349 . S
C1926 C1924 1.327 . S
C1926 C1945 1.429 . S
C1926 H1950 0.950 . S
C1927 C1944 1.574 . S
C1927 C1946 1.368 . S
C1927 H1951 0.949 . S
H1928 C1932 0.949 . S
C1929 C1930 1.349 . S
C1929 C1931 1.327 . S
C1929 H1952 0.950 . S
C1930 C1929 1.349 . S
C1930 C1942 1.349 . S
C1931 C1929 1.327 . S
C1931 C1947 1.429 . S
C1931 H1953 0.950 . S
C1932 H1928 0.949 . S
C1932 C1940 1.574 . S
C1932 C1948 1.368 . S
H1933 C1941 0.950 . S
H1934 C1939 0.950 . S
H1935 C1940 0.949 . S
H1936 C1942 0.950 . S
H1937 C1943 0.950 . S
H1938 C1944 0.949 . S
C1939 H1934 0.950 . S
C1939 C1941 1.327 . S
C1939 C1945 1.429 . S
C1940 C1932 1.574 . S
C1940 H1935 0.949 . S
C1940 C1946 1.368 . S
C1941 C1925 1.349 . S
C1941 H1933 0.950 . S
C1941 C1939 1.327 . S
C1942 C1930 1.349 . S
C1942 H1936 0.950 . S
C1942 C1943 1.327 . S
C1943 H1937 0.950 . S
C1943 C1942 1.327 . S
C1943 C1947 1.429 . S
C1944 C1927 1.574 . S
C1944 H1938 0.949 . S
C1944 C1948 1.368 . S
C1945 C1926 1.429 . S
C1945 C1939 1.429 . S
C1945 C1946 1.523 . S
C1946 C1927 1.368 . S
C1946 C1940 1.368 . S
C1946 C1945 1.523 . S
C1947 C1931 1.429 . S
C1947 C1943 1.429 . S
C1947 C1948 1.523 . S
C1948 C1932 1.368 . S
C1948 C1944 1.368 . S
C1948 C1947 1.523 . S
H1949 C1924 0.950 . S
H1950 C1926 0.950 . S
H1951 C1927 0.949 . S
H1952 C1929 0.950 . S
H1953 C1931 0.950 . S
C1954 C1955 1.349 . S
C1954 C1956 1.327 . S
C1954 H1979 0.950 . S
C1955 C1954 1.349 . S
C1955 C1971 1.349 . S
C1956 C1954 1.327 . S
C1956 C1975 1.429 . S
C1956 H1980 0.950 . S
C1957 C1974 1.574 . S
C1957 C1976 1.368 . S
C1957 H1981 0.949 . S
H1958 C1962 0.949 1_545 S
C1959 C1960 1.338 1_565 S
C1959 C1961 1.327 . S
C1959 H1982 0.950 . S
C1960 C1959 1.338 1_545 S
C1960 C1972 1.356 . S
C1961 C1959 1.327 . S
C1961 C1977 1.429 . S
C1961 H1983 0.950 . S
C1962 H1958 0.949 1_565 S
C1962 C1970 1.574 . S
C1962 C1978 1.368 . S
H1963 C1971 0.950 . S
H1964 C1969 0.950 . S
H1965 C1970 0.949 . S
H1966 C1972 0.950 . S
H1967 C1973 0.950 . S
H1968 C1974 0.949 . S
C1969 H1964 0.950 . S
C1969 C1971 1.327 . S
C1969 C1975 1.429 . S
C1970 C1962 1.574 . S
C1970 H1965 0.949 . S
C1970 C1976 1.368 . S
C1971 C1955 1.349 . S
C1971 H1963 0.950 . S
C1971 C1969 1.327 . S
C1972 C1960 1.356 . S
C1972 H1966 0.950 . S
C1972 C1973 1.327 . S
C1973 H1967 0.950 . S
C1973 C1972 1.327 . S
C1973 C1977 1.429 1_545 S
C1974 C1957 1.574 . S
C1974 H1968 0.949 . S
C1974 C1978 1.368 . S
C1975 C1956 1.429 . S
C1975 C1969 1.429 . S
C1975 C1976 1.523 . S
C1976 C1957 1.368 . S
C1976 C1970 1.368 . S
C1976 C1975 1.523 . S
C1977 C1961 1.429 . S
C1977 C1973 1.429 1_565 S
C1977 C1978 1.523 . S
C1978 C1962 1.368 . S
C1978 C1974 1.368 . S
C1978 C1977 1.523 . S
H1979 C1954 0.950 . S
H1980 C1956 0.950 . S
H1981 C1957 0.949 . S
H1982 C1959 0.950 . S
H1983 C1961 0.950 . S
C1984 C1985 1.349 . S
C1984 C1986 1.327 . S
C1984 H2009 0.950 . S
C1985 C1984 1.349 . S
C1985 C2001 1.349 1_556 S
C1986 C1984 1.327 . S
C1986 C2005 1.429 . S
C1986 H2010 0.950 . S
C1987 C2004 1.574 . S
C1987 C2006 1.368 1_554 S
C1987 H2011 0.949 . S
H1988 C1992 0.949 . S
C1989 C1990 1.349 1_554 S
C1989 C1991 1.327 . S
C1989 H2012 0.950 . S
C1990 C1989 1.349 1_556 S
C1990 C2002 1.349 . S
C1991 C1989 1.327 . S
C1991 C2007 1.429 1_554 S
C1991 H2013 0.950 . S
C1992 H1988 0.949 . S
C1992 C2000 1.574 . S
C1992 C2008 1.368 . S
H1993 C2001 0.950 . S
H1994 C1999 0.950 . S
H1995 C2000 0.949 . S
H1996 C2002 0.950 . S
H1997 C2003 0.950 . S
H1998 C2004 0.949 . S
C1999 H1994 0.950 . S
C1999 C2001 1.327 . S
C1999 C2005 1.429 1_554 S
C2000 C1992 1.574 . S
C2000 H1995 0.949 . S
C2000 C2006 1.368 . S
C2001 C1985 1.349 1_554 S
C2001 H1993 0.950 . S
C2001 C1999 1.327 . S
C2002 C1990 1.349 . S
C2002 H1996 0.950 . S
C2002 C2003 1.327 . S
C2003 H1997 0.950 . S
C2003 C2002 1.327 . S
C2003 C2007 1.429 . S
C2004 C1987 1.574 . S
C2004 H1998 0.949 . S
C2004 C2008 1.368 1_554 S
C2005 C1986 1.429 . S
C2005 C1999 1.429 1_556 S
C2005 C2006 1.523 . S
C2006 C1987 1.368 1_556 S
C2006 C2000 1.368 . S
C2006 C2005 1.523 . S
C2007 C1991 1.429 1_556 S
C2007 C2003 1.429 . S
C2007 C2008 1.523 . S
C2008 C1992 1.368 . S
C2008 C2004 1.368 1_556 S
C2008 C2007 1.523 . S
H2009 C1984 0.950 . S
H2010 C1986 0.950 . S
H2011 C1987 0.949 . S
H2012 C1989 0.950 . S
H2013 C1991 0.950 . S
C2014 C2015 1.349 . S
C2014 C2016 1.327 . S
C2014 H2039 0.950 . S
C2015 C2014 1.349 . S
C2015 C2031 1.349 . S
C2016 C2014 1.327 . S
C2016 C2035 1.429 . S
C2016 H2040 0.950 . S
C2017 C2034 1.574 . S
C2017 C2036 1.368 . S
C2017 H2041 0.949 . S
H2018 C2022 0.949 . S
C2019 C2020 1.349 . S
C2019 C2021 1.327 . S
C2019 H2042 0.950 . S
C2020 C2019 1.349 . S
C2020 C2032 1.349 . S
C2021 C2019 1.327 . S
C2021 C2037 1.429 . S
C2021 H2043 0.950 . S
C2022 H2018 0.949 . S
C2022 C2030 1.574 . S
C2022 C2038 1.368 . S
H2023 C2031 0.950 . S
H2024 C2029 0.950 . S
H2025 C2030 0.949 . S
H2026 C2032 0.950 . S
H2027 C2033 0.950 . S
H2028 C2034 0.949 . S
C2029 H2024 0.950 . S
C2029 C2031 1.327 . S
C2029 C2035 1.429 . S
C2030 C2022 1.574 . S
C2030 H2025 0.949 . S
C2030 C2036 1.368 . S
C2031 C2015 1.349 . S
C2031 H2023 0.950 . S
C2031 C2029 1.327 . S
C2032 C2020 1.349 . S
C2032 H2026 0.950 . S
C2032 C2033 1.327 . S
C2033 H2027 0.950 . S
C2033 C2032 1.327 . S
C2033 C2037 1.429 . S
C2034 C2017 1.574 . S
C2034 H2028 0.949 . S
C2034 C2038 1.368 . S
C2035 C2016 1.429 . S
C2035 C2029 1.429 . S
C2035 C2036 1.523 . S
C2036 C2017 1.368 . S
C2036 C2030 1.368 . S
C2036 C2035 1.523 . S
C2037 C2021 1.429 . S
C2037 C2033 1.429 . S
C2037 C2038 1.523 . S
C2038 C2022 1.368 . S
C2038 C2034 1.368 . S
C2038 C2037 1.523 . S
H2039 C2014 0.950 . S
H2040 C2016 0.950 . S
H2041 C2017 0.949 . S
H2042 C2019 0.950 . S
H2043 C2021 0.950 . S
C2044 C2045 1.349 . S
C2044 C2046 1.327 . S
C2044 H2069 0.950 . S
C2045 C2044 1.349 . S
C2045 C2061 1.349 . S
C2046 C2044 1.327 . S
C2046 C2065 1.429 . S
C2046 H2070 0.950 . S
C2047 C2064 1.574 1_455 S
C2047 C2066 1.368 . S
C2047 H2071 0.949 . S
H2048 C2052 0.949 . S
C2049 C2050 1.349 . S
C2049 C2051 1.327 . S
C2049 H2072 0.950 . S
C2050 C2049 1.349 . S
C2050 C2062 1.349 . S
C2051 C2049 1.327 . S
C2051 C2067 1.429 . S
C2051 H2073 0.950 . S
C2052 H2048 0.949 . S
C2052 C2060 1.574 1_655 S
C2052 C2068 1.368 . S
H2053 C2061 0.950 . S
H2054 C2059 0.950 . S
H2055 C2060 0.949 . S
H2056 C2062 0.950 . S
H2057 C2063 0.950 . S
H2058 C2064 0.949 . S
C2059 H2054 0.950 . S
C2059 C2061 1.327 . S
C2059 C2065 1.429 . S
C2060 C2052 1.574 1_455 S
C2060 H2055 0.949 . S
C2060 C2066 1.368 . S
C2061 C2045 1.349 . S
C2061 H2053 0.950 . S
C2061 C2059 1.327 . S
C2062 C2050 1.349 . S
C2062 H2056 0.950 . S
C2062 C2063 1.327 . S
C2063 H2057 0.950 . S
C2063 C2062 1.327 . S
C2063 C2067 1.429 . S
C2064 C2047 1.574 1_655 S
C2064 H2058 0.949 . S
C2064 C2068 1.368 . S
C2065 C2046 1.429 . S
C2065 C2059 1.429 . S
C2065 C2066 1.523 . S
C2066 C2047 1.368 . S
C2066 C2060 1.368 . S
C2066 C2065 1.523 . S
C2067 C2051 1.429 . S
C2067 C2063 1.429 . S
C2067 C2068 1.523 . S
C2068 C2052 1.368 . S
C2068 C2064 1.368 . S
C2068 C2067 1.523 . S
H2069 C2044 0.950 . S
H2070 C2046 0.950 . S
H2071 C2047 0.949 . S
H2072 C2049 0.950 . S
H2073 C2051 0.950 . S
C2074 C2075 1.349 . S
C2074 C2076 1.327 . S
C2074 H2099 0.950 . S
C2075 C2074 1.349 . S
C2075 C2091 1.349 . S
C2076 C2074 1.327 . S
C2076 C2095 1.429 . S
C2076 H2100 0.950 . S
C2077 C2094 1.550 1_455 S
C2077 C2096 1.368 . S
C2077 H2101 0.949 . S
H2078 C2082 0.949 . S
C2079 C2080 1.349 . S
C2079 C2081 1.327 . S
C2079 H2102 0.950 . S
C2080 C2079 1.349 . S
C2080 C2092 1.349 . S
C2081 C2079 1.327 . S
C2081 C2097 1.429 . S
C2081 H2103 0.950 . S
C2082 H2078 0.949 . S
C2082 C2090 1.550 1_655 S
C2082 C2098 1.368 . S
H2083 C2091 0.950 . S
H2084 C2089 0.950 . S
H2085 C2090 0.951 . S
H2086 C2092 0.950 . S
H2087 C2093 0.950 . S
H2088 C2094 0.951 . S
C2089 H2084 0.950 . S
C2089 C2091 1.327 . S
C2089 C2095 1.429 . S
C2090 C2082 1.550 1_455 S
C2090 H2085 0.951 . S
C2090 C2096 1.391 . S
C2091 C2075 1.349 . S
C2091 H2083 0.950 . S
C2091 C2089 1.327 . S
C2092 C2080 1.349 . S
C2092 H2086 0.950 . S
C2092 C2093 1.327 . S
C2093 H2087 0.950 . S
C2093 C2092 1.327 . S
C2093 C2097 1.429 . S
C2094 C2077 1.550 1_655 S
C2094 H2088 0.951 . S
C2094 C2098 1.391 . S
C2095 C2076 1.429 . S
C2095 C2089 1.429 . S
C2095 C2096 1.523 . S
C2096 C2077 1.368 . S
C2096 C2090 1.391 . S
C2096 C2095 1.523 . S
C2097 C2081 1.429 . S
C2097 C2093 1.429 . S
C2097 C2098 1.523 . S
C2098 C2082 1.368 . S
C2098 C2094 1.391 . S
C2098 C2097 1.523 . S
H2099 C2074 0.950 . S
H2100 C2076 0.950 . S
H2101 C2077 0.949 . S
H2102 C2079 0.950 . S
H2103 C2081 0.950 . S
C2104 C2105 1.349 . S
C2104 C2106 1.327 . S
C2104 H2129 0.950 . S
C2105 C2104 1.349 . S
C2105 C2121 1.349 1_554 S
C2106 C2104 1.327 . S
C2106 C2125 1.429 . S
C2106 H2130 0.950 . S
C2107 C2124 1.574 . S
C2107 C2126 1.368 1_556 S
C2107 H2131 0.949 . S
H2108 C2112 0.949 . S
C2109 C2110 1.349 1_556 S
C2109 C2111 1.327 . S
C2109 H2132 0.950 . S
C2110 C2109 1.349 1_554 S
C2110 C2122 1.349 . S
C2111 C2109 1.327 . S
C2111 C2127 1.429 1_556 S
C2111 H2133 0.950 . S
C2112 H2108 0.949 . S
C2112 C2120 1.574 . S
C2112 C2128 1.368 . S
H2113 C2121 0.950 . S
H2114 C2119 0.950 . S
H2115 C2120 0.949 . S
H2116 C2122 0.950 . S
H2117 C2123 0.950 . S
H2118 C2124 0.949 . S
C2119 H2114 0.950 . S
C2119 C2121 1.327 . S
C2119 C2125 1.429 1_556 S
C2120 C2112 1.574 . S
C2120 H2115 0.949 . S
C2120 C2126 1.368 . S
C2121 C2105 1.349 1_556 S
C2121 H2113 0.950 . S
C2121 C2119 1.327 . S
C2122 C2110 1.349 . S
C2122 H2116 0.950 . S
C2122 C2123 1.327 . S
C2123 H2117 0.950 . S
C2123 C2122 1.327 . S
C2123 C2127 1.429 . S
C2124 C2107 1.574 . S
C2124 H2118 0.949 . S
C2124 C2128 1.368 1_556 S
C2125 C2106 1.429 . S
C2125 C2119 1.429 1_554 S
C2125 C2126 1.523 . S
C2126 C2107 1.368 1_554 S
C2126 C2120 1.368 . S
C2126 C2125 1.523 . S
C2127 C2111 1.429 1_554 S
C2127 C2123 1.429 . S
C2127 C2128 1.523 . S
C2128 C2112 1.368 . S
C2128 C2124 1.368 1_554 S
C2128 C2127 1.523 . S
H2129 C2104 0.950 . S
H2130 C2106 0.950 . S
H2131 C2107 0.949 . S
H2132 C2109 0.950 . S
H2133 C2111 0.950 . S
C2134 C2135 1.349 . S
C2134 C2136 1.327 . S
C2134 H2159 0.950 . S
C2135 C2134 1.349 . S
C2135 C2151 1.349 . S
C2136 C2134 1.327 . S
C2136 C2155 1.429 . S
C2136 H2160 0.950 . S
C2137 C2154 1.574 . S
C2137 C2156 1.368 . S
C2137 H2161 0.949 . S
H2138 C2142 0.949 . S
C2139 C2140 1.349 . S
C2139 C2141 1.327 . S
C2139 H2162 0.950 . S
C2140 C2139 1.349 . S
C2140 C2152 1.349 . S
C2141 C2139 1.327 . S
C2141 C2157 1.429 . S
C2141 H2163 0.950 . S
C2142 H2138 0.949 . S
C2142 C2150 1.574 . S
C2142 C2158 1.368 . S
H2143 C2151 0.950 . S
H2144 C2149 0.950 . S
H2145 C2150 0.949 . S
H2146 C2152 0.950 . S
H2147 C2153 0.950 . S
H2148 C2154 0.949 . S
C2149 H2144 0.950 . S
C2149 C2151 1.327 . S
C2149 C2155 1.429 . S
C2150 C2142 1.574 . S
C2150 H2145 0.949 . S
C2150 C2156 1.368 . S
C2151 C2135 1.349 . S
C2151 H2143 0.950 . S
C2151 C2149 1.327 . S
C2152 C2140 1.349 . S
C2152 H2146 0.950 . S
C2152 C2153 1.327 . S
C2153 H2147 0.950 . S
C2153 C2152 1.327 . S
C2153 C2157 1.429 . S
C2154 C2137 1.574 . S
C2154 H2148 0.949 . S
C2154 C2158 1.368 . S
C2155 C2136 1.429 . S
C2155 C2149 1.429 . S
C2155 C2156 1.523 . S
C2156 C2137 1.368 . S
C2156 C2150 1.368 . S
C2156 C2155 1.523 . S
C2157 C2141 1.429 . S
C2157 C2153 1.429 . S
C2157 C2158 1.523 . S
C2158 C2142 1.368 . S
C2158 C2154 1.368 . S
C2158 C2157 1.523 . S
H2159 C2134 0.950 . S
H2160 C2136 0.950 . S
H2161 C2137 0.949 . S
H2162 C2139 0.950 . S
H2163 C2141 0.950 . S
C2164 C2165 1.349 . S
C2164 C2166 1.327 . S
C2164 H2189 0.950 . S
C2165 C2164 1.349 . S
C2165 C2181 1.349 . S
C2166 C2164 1.327 . S
C2166 C2185 1.429 . S
C2166 H2190 0.950 . S
C2167 C2184 1.574 1_455 S
C2167 C2186 1.368 . S
C2167 H2191 0.949 . S
H2168 C2172 0.949 . S
C2169 C2170 1.349 . S
C2169 C2171 1.327 . S
C2169 H2192 0.950 . S
C2170 C2169 1.349 . S
C2170 C2182 1.349 . S
C2171 C2169 1.327 . S
C2171 C2187 1.429 . S
C2171 H2193 0.950 . S
C2172 H2168 0.949 . S
C2172 C2180 1.574 1_655 S
C2172 C2188 1.368 . S
H2173 C2181 0.950 . S
H2174 C2179 0.950 . S
H2175 C2180 0.949 . S
H2176 C2182 0.950 . S
H2177 C2183 0.950 . S
H2178 C2184 0.949 . S
C2179 H2174 0.950 . S
C2179 C2181 1.327 . S
C2179 C2185 1.429 . S
C2180 C2172 1.574 1_455 S
C2180 H2175 0.949 . S
C2180 C2186 1.368 . S
C2181 C2165 1.349 . S
C2181 H2173 0.950 . S
C2181 C2179 1.327 . S
C2182 C2170 1.349 . S
C2182 H2176 0.950 . S
C2182 C2183 1.327 . S
C2183 H2177 0.950 . S
C2183 C2182 1.327 . S
C2183 C2187 1.429 . S
C2184 C2167 1.574 1_655 S
C2184 H2178 0.949 . S
C2184 C2188 1.368 . S
C2185 C2166 1.429 . S
C2185 C2179 1.429 . S
C2185 C2186 1.523 . S
C2186 C2167 1.368 . S
C2186 C2180 1.368 . S
C2186 C2185 1.523 . S
C2187 C2171 1.429 . S
C2187 C2183 1.429 . S
C2187 C2188 1.523 . S
C2188 C2172 1.368 . S
C2188 C2184 1.368 . S
C2188 C2187 1.523 . S
H2189 C2164 0.950 . S
H2190 C2166 0.950 . S
H2191 C2167 0.949 . S
H2192 C2169 0.950 . S
H2193 C2171 0.950 . S
C2194 C2195 1.349 . S
C2194 C2196 1.327 . S
C2194 H2219 0.950 . S
C2195 C2194 1.349 . S
C2195 C2211 1.349 . S
C2196 C2194 1.327 . S
C2196 C2215 1.429 . S
C2196 H2220 0.950 . S
C2197 C2214 1.550 1_455 S
C2197 C2216 1.391 . S
C2197 H2221 0.951 . S
H2198 C2202 0.951 . S
C2199 C2200 1.349 . S
C2199 C2201 1.327 . S
C2199 H2222 0.950 . S
C2200 C2199 1.349 . S
C2200 C2212 1.349 . S
C2201 C2199 1.327 . S
C2201 C2217 1.429 . S
C2201 H2223 0.950 . S
C2202 H2198 0.951 . S
C2202 C2210 1.550 1_655 S
C2202 C2218 1.391 . S
H2203 C2211 0.950 . S
H2204 C2209 0.950 . S
H2205 C2210 0.949 . S
H2206 C2212 0.950 . S
H2207 C2213 0.950 . S
H2208 C2214 0.949 . S
C2209 H2204 0.950 . S
C2209 C2211 1.327 . S
C2209 C2215 1.429 . S
C2210 C2202 1.550 1_455 S
C2210 H2205 0.949 . S
C2210 C2216 1.368 . S
C2211 C2195 1.349 . S
C2211 H2203 0.950 . S
C2211 C2209 1.327 . S
C2212 C2200 1.349 . S
C2212 H2206 0.950 . S
C2212 C2213 1.327 . S
C2213 H2207 0.950 . S
C2213 C2212 1.327 . S
C2213 C2217 1.429 . S
C2214 C2197 1.550 1_655 S
C2214 H2208 0.949 . S
C2214 C2218 1.368 . S
C2215 C2196 1.429 . S
C2215 C2209 1.429 . S
C2215 C2216 1.523 . S
C2216 C2197 1.391 . S
C2216 C2210 1.368 . S
C2216 C2215 1.523 . S
C2217 C2201 1.429 . S
C2217 C2213 1.429 . S
C2217 C2218 1.523 . S
C2218 C2202 1.391 . S
C2218 C2214 1.368 . S
C2218 C2217 1.523 . S
H2219 C2194 0.950 . S
H2220 C2196 0.950 . S
H2221 C2197 0.951 . S
H2222 C2199 0.950 . S
H2223 C2201 0.950 . S
C545 C253 1.424 . S
C550 C3 1.360 . S
C575 C430 1.424 . S
C580 C37 1.360 . S
C605 C71 1.360 . S
C610 C185 1.424 . S
C635 C498 1.424 . S
C640 C105 1.360 . S
C665 C117 1.424 . S
C670 C137 1.360 . S
C695 C173 1.360 . S
C700 C287 1.424 . S
C725 C205 1.360 . S
C730 C49 1.424 . S
C755 C362 1.424 . S
C760 C241 1.360 . S
C785 C525 1.424 . S
C790 C275 1.359 . S
C815 C307 1.359 1_565 S
C820 C158 1.424 . S
C845 C464 1.424 . S
C850 C341 1.359 . S
C875 C226 1.424 . S
C880 C375 1.359 1_545 S
C905 C396 1.424 . S
C910 C409 1.359 . S
C935 C443 1.359 1_545 S
C940 C15 1.424 . S
C965 C477 1.359 . S
C970 C328 1.424 . S
C995 C83 1.424 . S
C1000 C513 1.359 1_565 S
C1025 C17 2.069 . S
C1030 C479 1.968 . S
C1055 C239 1.968 . S
C1060 C51 2.068 . S
C1085 C411 1.968 . S
C1090 C85 2.069 . S
C1115 C119 2.068 . S
C1120 C171 1.968 . S
C1145 C343 1.968 . S
C1150 C153 2.069 . S
C1175 C103 1.968 . S
C1180 C187 2.068 . S
C1205 C221 2.069 . S
C1210 C273 1.968 . S
C1235 C255 2.068 . S
C1240 C35 1.968 . S
C1265 C289 2.069 . S
C1270 C207 1.968 . S
C1295 C323 2.069 . S
C1300 C511 1.968 . S
C1325 C139 1.968 . S
C1330 C357 2.069 . S
C1355 C445 1.968 . S
C1360 C391 2.069 . S
C1385 C69 1.968 . S
C1390 C425 2.069 . S
C1415 C459 2.069 . S
C1420 C377 1.968 . S
C1445 C1 1.968 . S
C1450 C493 2.069 . S
C1475 C309 1.968 . S
C1480 C527 2.069 . S
C1505 C6 1.299 . S
C1510 C312 1.319 . S
C1535 C346 1.319 . S
C1540 C40 1.299 . S
C1565 C380 1.319 . S
C1570 C74 1.299 . S
C1595 C300 1.319 . S
C1600 C108 1.299 . S
C1625 C164 1.299 . S
C1630 C448 1.319 . S
C1655 C176 1.299 . S
C1660 C482 1.319 . S
C1685 C538 1.319 . S
C1690 C232 1.299 . S
C1715 C414 1.319 . S
C1720 C244 1.299 . S
C1745 C62 1.319 . S
C1750 C278 1.300 . S
C1775 C96 1.319 . S
C1780 C334 1.303 . S
C1805 C368 1.300 . S
C1810 C130 1.319 . S
C1835 C402 1.303 . S
C1840 C28 1.319 . S
C1865 C436 1.300 . S
C1870 C198 1.319 . S
C1895 C210 1.319 . S
C1900 C470 1.303 . S
C1925 C504 1.300 . S
C1930 C266 1.319 . S
C1955 C142 1.319 . S
C1960 C516 1.303 . S
C1985 C355 0.628 1_556 S
C1990 C22 0.628 1_556 S
C2015 C56 0.628 . S
C2020 C389 0.628 . S
C2045 C90 0.628 . S
C2050 C294 0.628 . S
C2075 C321 0.628 . S
C2080 C124 0.628 . S
C2105 C151 0.628 1_554 S
C2110 C491 0.628 1_554 S
C2135 C532 0.628 . S
C2140 C192 0.628 . S
C2165 C423 0.628 . S
C2170 C219 0.628 . S
C2195 C260 0.628 . S
C2200 C457 0.628 . S
