# Generated by pormake.
# Topology sxc, (6)-cn, num edge types: 1
# Building blocks:
#     Node 0, Type 0, BuildingBlock: KUMBOL_clean_sbu_1, # of connection points: 6
#     Node 1, Type 0, BuildingBlock: KUMBOL_clean_sbu_1, # of connection points: 6
#     Node 2, Type 0, BuildingBlock: KUMBOL_clean_sbu_1, # of connection points: 6
#     Edge 3, Type (0, 0), BuildingBlock: ZUJKAS_clean_linker_0, # of connection points: 2
#     Edge 4, Type (0, 0), BuildingBlock: ZUJKAS_clean_linker_0, # of connection points: 2
#     Edge 5, Type (0, 0), BuildingBlock: ZUJKAS_clean_linker_0, # of connection points: 2
#     Edge 6, Type (0, 0), BuildingBlock: ZUJKAS_clean_linker_0, # of connection points: 2
#     Edge 7, Type (0, 0), BuildingBlock: ZUJKAS_clean_linker_0, # of connection points: 2
#     Edge 8, Type (0, 0), BuildingBlock: ZUJKAS_clean_linker_0, # of connection points: 2
#     Edge 9, Type (0, 0), BuildingBlock: ZUJKAS_clean_linker_0, # of connection points: 2
#     Edge 10, Type (0, 0), BuildingBlock: ZUJKAS_clean_linker_0, # of connection points: 2
#     Edge 11, Type (0, 0), BuildingBlock: ZUJKAS_clean_linker_0, # of connection points: 2
# Relax obj value: 0.176
# Max RMSD: 0.145
# Mean RMSD: 0.104
data_MOF--net-sxc--node1-KUMBOL_clean_sbu_1--edge1-ZUJKAS_clean_linker_0
_symmetry_space_group_name_H-M    P1
_symmetry_Int_Tables_number       1
_symmetry_cell_setting            triclinic
loop_
_symmetry_equiv_pos_as_xyz
'x, y, z'
_cell_length_a     20.011128
_cell_length_b     21.778184
_cell_length_c     58.160632
_cell_angle_alpha  109.63918
_cell_angle_beta   97.608367
_cell_angle_gamma 101.086
loop_
_atom_site_label
_atom_site_type_symbol
_atom_site_fract_x
_atom_site_fract_y
_atom_site_fract_z
_atom_type_partial_charge
C0 C 0.26166 0.09389 0.02525 0.0
C1 C 0.32233 0.08012 0.99109 0.0
C2 C 0.27316 0.10677 0.00402 0.0
C3 C 0.35821 1.03943 -0.00061 0.0
C4 C 0.29913 1.05474 0.03405 0.0
C5 C 0.34682 1.02697 0.02084 0.0
N6 N 0.21372 0.11973 0.03734 0.0
C7 C 0.20459 0.11293 0.05929 0.0
C8 C 0.28761 1.04481 0.05594 0.0
C9 C 0.24053 0.07446 0.0687 0.0
Gd10 Gd 0.96478 0.12174 0.99622 0.0
Gd11 Gd 0.16091 0.18817 0.02144 0.0
N12 N 0.23867 0.14746 0.99665 0.0
C13 C 0.3354 0.09651 0.97054 0.0
C14 C 0.25477 0.16699 0.9776 0.0
C15 C 0.30205 0.14072 0.96396 0.0
H16 H 0.23277 0.20406 0.97307 0.0
H17 H 0.31372 0.15559 0.94866 0.0
H18 H 0.89159 0.10872 0.0447 0.0
H19 H 0.16912 0.1368 0.06936 0.0
H20 H 0.81001 0.15824 0.06846 0.0
H21 H 0.37268 0.07695 0.96011 0.0
H22 H 0.39588 1.01836 0.9896 0.0
H23 H 0.96002 0.17252 0.94815 0.0
H24 H 0.31534 1.01498 0.06327 0.0
H25 H 0.23222 0.06803 0.08585 0.0
H26 H 0.73019 0.29347 0.02609 0.0
H27 H 0.37565 0.99629 0.0272 0.0
H28 H 0.81455 0.29486 0.95288 0.0
H29 H 0.89863 0.24134 0.93106 0.0
N30 N 0.91377 0.19023 0.97979 0.0
C31 C 0.86531 0.21637 0.99147 0.0
C32 C 0.92429 0.19673 0.95791 0.0
C33 C 0.84158 0.26506 0.96048 0.0
C34 C 0.88923 0.23516 0.94816 0.0
C35 C 0.82867 0.25545 0.98229 0.0
H36 H 0.75233 0.31431 0.98845 0.0
N37 N 0.88681 0.16393 0.0206 0.0
C38 C 0.8528 0.20425 0.01276 0.0
C39 C 0.7894 0.21611 0.04598 0.0
C40 C 0.80333 0.23152 0.02532 0.0
C41 C 0.87002 0.14551 0.0398 0.0
C42 C 0.82233 0.17235 0.05306 0.0
O43 O 0.12048 0.0675 0.01232 0.0
O44 O 1.00071 1.03519 0.00635 0.0
O45 O 0.86239 1.05276 0.98679 0.0
O46 O 0.92057 1.05315 0.958 0.0
O47 O 0.12259 0.1912 0.98377 0.0
O48 O 1.03993 0.09444 0.97118 0.0
O49 O 1.00558 0.24259 0.00562 0.0
O50 O 0.12521 0.27469 0.01127 0.0
O51 O 0.2631 0.25773 0.03115 0.0
O52 O 0.20411 0.25698 0.0597 0.0
O53 O 1.00146 0.11778 0.03381 0.0
O54 O 0.08587 0.21348 0.04672 0.0
C55 C 0.06195 1.0192 0.00896 0.0
C56 C 0.08098 0.13904 0.9657 0.0
C57 C 0.85739 0.94699 0.9561 0.0
C58 C 0.80196 0.84058 0.95926 0.0
C59 C 0.89016 0.84422 0.93442 0.0
C60 C 0.89746 0.91317 0.94048 0.0
C61 C 0.843 0.80808 0.94379 0.0
C62 C 0.80923 0.91006 0.96519 0.0
C63 C 0.86798 1.02094 0.96402 0.0
C64 C 0.76809 0.27194 0.01659 0.0
C65 C 0.78056 0.28369 0.99511 0.0
H66 H 0.75183 0.23615 0.05612 0.0
C67 C 0.06405 0.29085 0.00887 0.0
C68 C 1.04498 0.16826 0.052 0.0
C69 C 0.26729 0.36338 0.0618 0.0
C70 C 0.32253 0.47012 0.05884 0.0
C71 C 0.23454 0.46599 0.08373 0.0
C72 C 0.22733 0.397 0.07754 0.0
C73 C 0.28155 0.50238 0.0744 0.0
C74 C 0.31531 0.40058 0.05275 0.0
C75 C 0.2569 0.28943 0.05384 0.0
H76 H 0.92142 0.81871 0.92247 0.0
H77 H 0.9351 0.93996 0.93314 0.0
H78 H 0.83809 0.75454 0.9387 0.0
H79 H 0.77875 0.93585 0.97747 0.0
H80 H 0.20336 0.49132 0.09576 0.0
H81 H 0.18989 0.37005 0.08488 0.0
H82 H 0.28644 0.55595 0.0796 0.0
H83 H 0.34579 0.375 0.04042 0.0
C84 C 0.28501 0.32064 0.37565 0.0
C85 C 0.31658 0.3539 0.34194 0.0
C86 C 0.26535 0.32717 0.35293 0.0
C87 C 0.3874 0.3705 0.35341 0.0
C88 C 0.35575 0.3405 0.38787 0.0
C89 C 0.40692 0.36405 0.37635 0.0
N90 N 0.23471 0.29466 0.38584 0.0
C91 C 0.2505 0.29363 0.40928 0.0
C92 C 0.37284 0.33633 0.41136 0.0
C93 C 0.31989 0.31367 0.42225 0.0
Gd94 Gd 0.06519 0.06613 0.32578 0.0
Gd95 Gd 0.11968 0.2641 0.36318 0.0
N96 N 0.19625 0.31115 0.34234 0.0
C97 C 0.29505 0.36552 0.32023 0.0
C98 C 0.1753 0.32934 0.32277 0.0
C99 C 0.22408 0.35461 0.31095 0.0
H100 H 0.12108 0.32577 0.31636 0.0
H101 H 0.20691 0.3669 0.29496 0.0
H102 H 0.97854 1.01092 0.36262 0.0
H103 H 0.20944 0.27577 0.41759 0.0
H104 H 0.86289 0.93963 0.35999 0.0
H105 H 0.33275 0.38588 0.31121 0.0
H106 H 0.42742 0.39019 0.34503 0.0
H107 H 0.0787 1.04021 0.26667 0.0
H108 H 0.4266 0.3512 0.42134 0.0
H109 H 0.33252 0.31131 0.44056 0.0
H110 H 0.74637 0.87026 0.27413 0.0
H111 H 0.46165 0.37844 0.38523 0.0
H112 H 0.87914 0.93153 0.21866 0.0
H113 H 1.00225 0.99149 0.22456 0.0
N114 N 0.99792 1.0154 0.28473 0.0
C115 C 0.93167 0.97995 0.28172 0.0
C116 C 1.02424 1.0174 0.26445 0.0
C117 C 0.91199 0.95468 0.23726 0.0
C118 C 0.9814 0.98854 0.24051 0.0
C119 C 0.88677 0.94855 0.25793 0.0
H120 H 0.78375 0.8862 0.23737 0.0
N121 N 0.95594 1.00132 0.32468 0.0
C122 C 0.91038 0.97156 0.30231 0.0
C123 C 0.82657 0.91986 0.32097 0.0
C124 C 0.84399 0.93072 0.29985 0.0
C125 C 0.94061 0.98883 0.34512 0.0
C126 C 0.87542 0.94853 0.34366 0.0
O127 O 0.19662 0.19704 0.36328 0.0
O128 O 0.16863 0.12499 0.32322 0.0
O129 O 0.09724 0.97738 0.30441 0.0
O130 O 0.10873 1.00814 0.34449 0.0
O131 O 0.06129 0.22959 0.32278 0.0
O132 O 0.10269 0.13715 0.30679 0.0
O133 O 0.97392 0.11015 0.33808 0.0
O134 O 1.00222 0.22558 0.34658 0.0
O135 O 0.10372 0.32375 0.39921 0.0
O136 O 0.12181 0.37011 0.37233 0.0
O137 O 0.10116 0.10256 0.36795 0.0
O138 O 0.07149 0.203 0.3839 0.0
C139 C 0.21659 0.16154 0.34339 0.0
C140 C 0.07337 0.18334 0.30356 0.0
C141 C 0.20078 0.97109 0.32828 0.0
C142 C 0.30423 0.97357 0.35625 0.0
C143 C 0.31332 0.98319 0.31642 0.0
C144 C 0.24174 0.9788 0.31108 0.0
C145 C 0.34465 0.98036 0.33893 0.0
C146 C 0.23266 0.96826 0.35069 0.0
C147 C 0.12633 0.97119 0.32466 0.0
C148 C 0.79795 0.90122 0.27638 0.0
C149 C 0.81921 0.91036 0.25546 0.0
H150 H 0.77611 0.88873 0.31987 0.0
C151 C 0.9561 0.16796 0.34204 0.0
C152 C 0.08713 0.14955 0.38641 0.0
C153 C 0.06217 0.4203 0.40324 0.0
C154 C 1.0474 0.53238 0.42453 0.0
C155 C 0.9474 0.43526 0.40855 0.0
C156 C 0.9906 0.39288 0.39995 0.0
C157 C 0.97548 0.50494 0.42059 0.0
C158 C 0.09028 0.48967 0.41577 0.0
C159 C 0.10971 0.37844 0.39445 0.0
H160 H 0.34463 0.9891 0.30312 0.0
H161 H 0.21891 0.98229 0.29375 0.0
H162 H 0.39988 0.98329 0.34277 0.0
H163 H 0.20141 0.96162 0.36399 0.0
H164 H 0.89206 0.41409 0.40579 0.0
H165 H 0.96848 0.33909 0.39085 0.0
H166 H 0.94136 0.53727 0.42687 0.0
H167 H 0.14569 0.51076 0.41825 0.0
C168 C 0.18405 0.89429 0.6362 0.0
C169 C 0.19319 0.83841 0.66566 0.0
C170 C 0.16554 0.88314 0.6568 0.0
C171 C 0.24189 0.80756 0.65409 0.0
C172 C 0.22972 0.86052 0.62359 0.0
C173 C 0.25992 0.81839 0.63302 0.0
N174 N 0.15454 0.93579 0.62772 0.0
C175 C 0.16339 0.94143 0.60556 0.0
C176 C 0.24194 0.86862 0.60148 0.0
C177 C 0.20775 0.90847 0.59222 0.0
Gd178 Gd 0.14707 0.18448 0.69112 0.0
Gd179 Gd 0.07952 0.98829 0.65051 0.0
N180 N 0.11684 0.91232 0.66704 0.0
C181 C 0.16911 0.82407 0.68527 0.0
C182 C 0.08943 0.89438 0.68487 0.0
C183 C 0.11617 0.85135 0.69463 0.0
H184 H 1.04632 0.91244 0.69154 0.0
H185 H 0.09522 0.83848 0.70912 0.0
H186 H 0.102 0.24423 0.64707 0.0
H187 H 0.13708 0.97245 0.59852 0.0
H188 H 1.02155 0.31052 0.63829 0.0
H189 H 0.18909 0.79007 0.69264 0.0
H190 H 0.26418 0.77355 0.66079 0.0
H191 H 0.14059 0.18853 0.74951 0.0
H192 H 0.27646 0.84331 0.59118 0.0
H193 H 0.21578 0.91404 0.57492 0.0
H194 H 0.90717 0.35563 0.70752 0.0
H195 H 0.29587 0.79264 0.62381 0.0
H196 H 0.976 0.27705 0.77241 0.0
H197 H 0.06788 0.22069 0.78027 0.0
N198 N 0.08351 0.21577 0.7226 0.0
C199 C 1.03709 0.25151 0.71879 0.0
C200 C 0.09718 0.20787 0.74492 0.0
C201 C 1.00612 0.26055 0.75838 0.0
C202 C 0.05756 0.22835 0.76281 0.0
C203 C 0.99655 0.2741 0.73646 0.0
H204 H 0.91734 0.32829 0.74536 0.0
N205 N 0.07046 0.24417 0.68053 0.0
C206 C 1.03162 0.26758 0.6975 0.0
C207 C 0.98131 0.32074 0.67161 0.0
C208 C 0.98514 0.30565 0.69326 0.0
C209 C 0.06858 0.26034 0.65979 0.0
C210 C 1.02352 0.29833 0.6549 0.0
O211 O 0.19516 1.03643 0.65339 0.0
O212 O 0.22821 0.12373 0.69159 0.0
O213 O 0.22524 0.26621 0.68816 0.0
O214 O 0.20534 0.26774 0.72445 0.0
O215 O 0.07076 1.02344 0.69122 0.0
O216 O 0.1655 0.11363 0.71098 0.0
O217 O 1.02985 0.13936 0.67149 0.0
O218 O 1.0061 1.03482 0.67344 0.0
O219 O 0.99773 0.8943 0.63552 0.0
O220 O 1.01191 0.95872 0.61443 0.0
O221 O 0.16493 0.1558 0.65157 0.0
O222 O 0.07023 0.06601 0.63342 0.0
C223 C 0.24433 0.08014 0.6725 0.0
C224 C 0.11959 0.06183 0.71107 0.0
C225 C 0.29389 0.36188 0.72586 0.0
C226 C 0.38073 0.45738 0.72598 0.0
C227 C 0.36312 0.44708 0.76517 0.0
C228 C 0.31152 0.38746 0.75213 0.0
C229 C 0.39776 0.48185 0.75222 0.0
C230 C 0.32847 0.3973 0.71285 0.0
C231 C 0.24078 0.29761 0.71237 0.0
C232 C 0.94358 0.32676 0.71055 0.0
C233 C 0.94917 0.31092 0.73205 0.0
H234 H 0.94623 0.34989 0.66769 0.0
C235 C 0.98481 0.08742 0.67236 0.0
C236 C 0.12124 0.11042 0.63146 0.0
C237 C 0.89597 0.9083 0.61354 0.0
C238 C 0.77877 0.86766 0.61906 0.0
C239 C 0.80136 0.95416 0.60141 0.0
C240 C 0.87106 0.95216 0.60347 0.0
C241 C 0.75538 0.91228 0.60913 0.0
C242 C 0.84932 0.86611 0.62121 0.0
C243 C 0.97071 0.9084 0.61683 0.0
H244 H 0.37636 0.46636 0.78539 0.0
H245 H 0.28579 0.36119 0.76266 0.0
H246 H 0.4373 0.52838 0.76273 0.0
H247 H 0.31558 0.37775 0.6926 0.0
H248 H 0.78288 0.9883 0.59376 0.0
H249 H 0.90543 0.98549 0.59736 0.0
H250 H 0.70135 0.91429 0.60703 0.0
H251 H 0.86839 0.83311 0.62937 0.0
H252 H 0.17309 0.4044 0.013 0.0
H253 H 0.17193 0.51734 0.01315 0.0
H254 H 0.94944 0.46731 0.00431 0.0
H255 H 0.95146 0.35612 0.0053 0.0
H256 H 0.14469 0.59167 0.99012 0.0
H257 H 0.95089 0.64279 0.04785 0.0
H258 H 0.98627 0.57092 0.04414 0.0
H259 H 0.91584 0.56776 0.02052 0.0
C260 C 0.1231 0.41643 0.0112 0.0
C261 C 0.06219 0.36562 0.00897 0.0
C262 C 0.12239 0.48362 0.01125 0.0
C263 C 0.06079 0.50804 0.00932 0.0
C264 C 0.99983 0.45668 0.00683 0.0
H265 H 0.95281 0.90548 0.00463 0.0
H266 H 0.95398 0.79257 0.00451 0.0
C267 C 1.00062 0.38962 0.00689 0.0
C268 C 0.0609 0.58379 0.00944 0.0
H269 H 0.98131 0.71852 0.02779 0.0
C270 C 0.10847 0.61831 -0.00132 0.0
C271 C 1.01541 0.62485 0.02019 0.0
C272 C 0.96466 0.60027 0.03405 0.0
C273 C 0.11061 0.68535 -0.00226 0.0
C274 C 0.0651 0.72638 0.00848 0.0
C275 C 1.01753 0.69187 0.01924 0.0
C276 C 0.0652 0.80211 0.00859 0.0
C277 C 0.16143 0.71001 0.98392 0.0
C278 C 0.1262 0.85358 0.0112 0.0
C279 C 0.12541 0.92063 0.01114 0.0
C280 C 0.06379 0.94448 0.0089 0.0
C281 C 1.00284 0.89356 0.00654 0.0
C282 C 1.00355 0.82639 0.00651 0.0
H283 H 0.17527 0.66753 0.97012 0.0
H284 H 0.13986 0.73939 0.97383 0.0
H285 H 0.2102 0.74253 -0.00253 0.0
H286 H 0.1766 0.84303 0.01382 0.0
H287 H 0.17462 0.95426 0.01285 0.0
H288 H 0.32321 0.18441 0.38316 0.0
H289 H 0.44691 0.18914 0.3834 0.0
H290 H 0.40509 0.13866 0.30374 0.0
H291 H 0.28236 0.13706 0.30376 0.0
H292 H 0.51844 0.10468 0.36488 0.0
H293 H 0.56809 0.29367 0.32142 0.0
H294 H 0.48826 0.2743 0.33167 0.0
H295 H 0.49915 0.22187 0.30169 0.0
C296 C 0.34059 0.1756 0.36576 0.0
C297 C 0.29243 0.16208 0.34357 0.0
C298 C 0.41173 0.1777 0.36583 0.0
C299 C 0.43749 0.16617 0.34368 0.0
C300 C 0.38862 0.15043 0.32136 0.0
H301 H 0.84176 0.06097 0.33168 0.0
H302 H 0.72012 0.06037 0.33156 0.0
C303 C 0.31763 0.14867 0.32133 0.0
C304 C 0.51441 0.16893 0.34386 0.0
H305 H 0.65535 0.23356 0.32338 0.0
C306 C 0.54817 0.13326 0.35586 0.0
C307 C 0.55533 0.20717 0.3327 0.0
C308 C 0.52612 0.25201 0.3214 0.0
C309 C 0.61953 0.13361 0.35662 0.0
C310 C 0.65949 0.16867 0.34419 0.0
C311 C 0.62599 0.20552 0.33264 0.0
C312 C 0.73555 0.16851 0.34318 0.0
C313 C 0.65153 0.09792 0.37163 0.0
C314 C 0.78691 0.22855 0.34815 0.0
C315 C 0.85738 0.2284 0.34733 0.0
C316 C 0.87984 0.16833 0.34182 0.0
C317 C 0.82807 0.10839 0.33633 0.0
C318 C 0.75757 0.10825 0.33664 0.0
H319 H 0.62352 0.09529 0.38668 0.0
H320 H 0.64746 1.04539 0.35919 0.0
H321 H 0.70724 0.12353 0.38033 0.0
H322 H 0.77277 0.27617 0.35296 0.0
H323 H 0.89434 0.27577 0.35115 0.0
H324 H 0.77277 0.73669 0.61353 0.0
H325 H 0.69729 0.666 0.62945 0.0
H326 H 0.59678 0.82562 0.65837 0.0
H327 H 0.67453 0.89808 0.64364 0.0
H328 H 0.63272 0.77384 0.69244 0.0
H329 H 0.49492 0.56562 0.60332 0.0
H330 H 0.58782 0.58058 0.60744 0.0
H331 H 0.54639 0.6448 0.60449 0.0
C332 C 0.73488 0.75699 0.62339 0.0
C333 C 0.73003 0.82325 0.62743 0.0
C334 C 0.69097 0.71605 0.63211 0.0
C335 C 0.64056 0.7401 0.64467 0.0
C336 C 0.63497 0.8059 0.64851 0.0
H337 H 0.3237 0.49076 0.68794 0.0
H338 H 0.38456 0.55991 0.66765 0.0
C339 C 0.67922 0.84711 0.63995 0.0
C340 C 0.59699 0.69821 0.65527 0.0
H341 H 0.48691 0.54357 0.64074 0.0
C342 C 0.60027 0.72376 0.68109 0.0
C343 C 0.55404 0.63323 0.64039 0.0
C344 C 0.54493 0.60471 0.61234 0.0
C345 C 0.5633 0.68536 0.69258 0.0
C346 C 0.52344 0.619 0.67791 0.0
C347 C 0.51836 0.59414 0.65197 0.0
C348 C 0.48709 0.57457 0.68924 0.0
C349 C 0.56697 0.71652 0.7203 0.0
C350 C 0.52489 0.55853 0.70756 0.0
C351 C 0.49034 0.51955 0.71922 0.0
C352 C 0.41748 0.4951 0.71248 0.0
C353 C 0.37994 0.50887 0.69341 0.0
C354 C 0.41454 0.54842 0.68189 0.0
H355 H 0.58184 0.77247 0.72715 0.0
H356 H 0.51629 0.7 0.72502 0.0
H357 H 0.60714 0.70066 0.73044 0.0
H358 H 0.58113 0.57666 0.71299 0.0
H359 H 0.52059 0.50856 0.73354 0.0
H360 H 0.88316 0.99757 0.68099 0.0
H361 H 0.76021 0.99533 0.68024 0.0
H362 H 0.78861 0.1735 0.66206 0.0
H363 H 0.9108 0.17364 0.66152 0.0
H364 H 0.69239 0.07271 0.70649 0.0
H365 H 0.61765 0.0653 0.61065 0.0
H366 H 0.70103 1.05483 0.62234 0.0
H367 H 0.68712 0.13794 0.62927 0.0
C368 C 0.86347 1.03629 0.67668 0.0
C369 C 0.9085 0.08662 0.67174 0.0
C370 C 0.79242 1.035 0.6763 0.0
C371 C 0.76299 0.08362 0.67075 0.0
C372 C 0.80806 0.13409 0.66586 0.0
H373 H 0.36183 0.15743 0.70963 0.0
H374 H 0.48443 0.15893 0.70942 0.0
C375 C 0.8791 0.13508 0.66607 0.0
C376 C 0.68625 0.08205 0.67065 0.0
H377 H 0.53541 0.08863 0.63649 0.0
C378 C 0.65834 0.07608 0.69108 0.0
C379 C 0.63973 0.08479 0.65047 0.0
C380 C 0.66261 0.0853 0.62683 0.0
C381 C 0.58744 0.0742 0.69214 0.0
C382 C 0.54177 0.08042 0.67254 0.0
C383 C 0.56935 0.08498 0.65187 0.0
C384 C 0.46542 0.08058 0.67275 0.0
C385 C 0.56194 0.06324 0.71407 0.0
C386 C 0.41174 1.03832 0.65194 0.0
C387 C 0.34104 1.03835 0.65189 0.0
C388 C 0.32054 0.08029 0.67263 0.0
C389 C 0.37434 0.1234 0.69333 0.0
C390 C 0.44523 0.12383 0.69332 0.0
H391 H 0.59485 1.03771 0.72269 0.0
H392 H 0.56474 0.11278 0.72857 0.0
H393 H 0.50721 1.03239 0.70846 0.0
H394 H 0.42437 1.00464 0.63558 0.0
H395 H 0.30243 1.00573 0.63534 0.0
H396 H 0.82268 0.74571 0.97867 0.0
H397 H 0.74011 0.68202 0.99509 0.0
H398 H 0.58761 0.78697 0.9802 0.0
H399 H 0.66901 0.84938 0.96307 0.0
H400 H 0.67596 0.73192 0.03511 0.0
H401 H 0.48011 0.58831 0.94642 0.0
H402 H 0.56728 0.63215 0.94731 0.0
H403 H 0.50226 0.678 0.9546 0.0
C404 C 0.77123 0.75459 0.97859 0.0
C405 C 0.75219 0.80226 0.96941 0.0
C406 C 0.72434 0.7185 0.98812 0.0
C407 C 0.65746 0.7291 0.9885 0.0
C408 C 0.63854 0.77717 0.97964 0.0
H409 H 0.30167 0.56546 0.0397 0.0
H410 H 0.38419 0.62977 0.02346 0.0
C411 C 0.68538 0.81329 0.97012 0.0
C412 C 0.60801 0.69088 -0.00132 0.0
H413 H 0.44835 0.58016 0.98336 0.0
C414 C 0.62631 0.69847 0.0238 0.0
C415 C 0.54328 0.64747 0.98384 0.0
C416 C 0.52212 0.63536 0.95648 0.0
C417 C 0.58102 0.6646 0.03463 0.0
C418 C 0.51631 0.62117 0.01979 0.0
C419 C 0.49798 0.61361 0.99468 0.0
C420 C 0.46696 0.58273 0.02993 0.0
C421 C 0.60217 0.67668 0.06199 0.0
C422 C 0.48598 0.53449 0.03867 0.0
C423 C 0.43915 0.49797 0.04807 0.0
C424 C 0.37227 0.5088 0.04879 0.0
C425 C 0.35316 0.5567 0.03976 0.0
C426 C 0.40003 0.59316 0.03034 0.0
H427 H 0.64415 0.72376 0.07207 0.0
H428 H 0.55699 0.67983 0.07116 0.0
H429 H 0.62206 0.63405 0.06387 0.0
H430 H 0.53697 0.52483 0.03809 0.0
H431 H 0.45558 0.46174 0.05502 0.0
H432 H 0.15295 0.6015 0.46543 0.0
H433 H 0.2222 0.71763 0.4776 0.0
H434 H 0.08502 0.74086 0.41888 0.0
H435 H 1.01424 0.62694 0.4079 0.0
H436 H 0.29694 0.75485 0.45189 0.0
H437 H 0.12786 0.92652 0.46626 0.0
H438 H 0.09941 0.8435 0.46708 0.0
H439 H 0.08311 0.85734 0.43808 0.0
C440 C 0.13625 0.63283 0.45594 0.0
C441 C 0.0784 0.60581 0.4358 0.0
C442 C 0.17585 0.69903 0.46282 0.0
C443 C 0.15891 0.73881 0.44937 0.0
C444 C 0.09832 0.71272 0.43024 0.0
H445 H 0.34377 0.86519 0.35953 0.0
H446 H 0.33641 0.82842 0.39429 0.0
C447 C 0.05795 0.64715 0.42374 0.0
C448 C 0.21031 0.80084 0.45155 0.0
H449 H 0.21229 0.94214 0.43868 0.0
C450 C 0.27911 0.7972 0.44997 0.0
C451 C 0.18962 0.85844 0.45037 0.0
C452 C 0.12112 0.8718 0.4559 0.0
C453 C 0.32333 0.84384 0.44339 0.0
C454 C 0.29692 0.89315 0.43709 0.0
C455 C 0.23244 0.90303 0.44255 0.0
C456 C 0.32609 0.92342 0.41996 0.0
C457 C 0.39635 0.83707 0.44186 0.0
C458 C 0.3258 0.99008 0.42277 0.0
C459 C 0.32826 1.01043 0.40245 0.0
C460 C 0.33242 0.96481 0.37927 0.0
C461 C 0.34202 0.90151 0.3774 0.0
C462 C 0.33805 0.88063 0.39748 0.0
H463 H 0.41971 0.82645 0.45809 0.0
H464 H 0.39463 0.79353 0.42479 0.0
H465 H 0.4305 0.88328 0.44151 0.0
H466 H 0.31678 1.02419 0.43985 0.0
H467 H 0.31987 0.05931 0.4041 0.0
H468 H 0.98712 0.24376 0.28245 0.0
H469 H 0.97956 0.25215 0.24107 0.0
H470 H 0.14275 0.14906 0.2281 0.0
H471 H 0.15316 0.14432 0.26956 0.0
H472 H 0.16325 0.24713 0.21206 0.0
H473 H 0.88586 0.10537 0.17506 0.0
H474 H 0.89958 0.17992 0.20242 0.0
H475 H 0.93438 0.11117 0.20446 0.0
C476 C 1.02146 0.22323 0.27074 0.0
C477 C 0.0694 0.19176 0.27906 0.0
C478 C 1.01663 0.22735 0.24696 0.0
C479 C 0.05924 0.19952 0.23099 0.0
C480 C 0.10863 0.17027 0.23977 0.0
H481 H 0.99363 0.07142 0.06971 0.0
H482 H 0.99706 0.08311 0.11322 0.0
C483 C 0.11399 0.16692 0.26349 0.0
C484 C 1.05367 0.20067 0.2052 0.0
H485 H 0.94156 0.15007 0.14867 0.0
C486 C 0.11464 0.22602 0.19824 0.0
C487 C 0.99059 0.17221 0.1869 0.0
C488 C 0.924 0.14 0.19244 0.0
C489 C 0.11469 0.22285 0.17366 0.0
C490 C 1.0513 0.1959 0.1555 0.0
C491 C 0.99011 0.1713 0.16252 0.0
C492 C 1.04787 0.18986 0.1289 0.0
C493 C 0.1835 0.24576 0.16726 0.0
C494 C 0.07426 0.24598 0.1229 0.0
C495 C 0.07343 0.23908 0.09799 0.0
C496 C 1.04446 0.17625 0.07841 0.0
C497 C 1.01609 0.12059 0.08433 0.0
C498 C 1.01799 0.12728 0.10925 0.0
H499 H 0.22812 0.24534 0.18074 0.0
H500 H 0.1859 0.21323 0.1482 0.0
H501 H 0.19007 0.29824 0.16806 0.0
H502 H 0.09563 0.2953 0.1375 0.0
H503 H 0.09503 0.28312 0.09407 0.0
H504 H 0.07805 0.24361 0.43034 0.0
H505 H 0.09012 0.23686 0.47159 0.0
H506 H 0.11881 1.03621 0.44093 0.0
H507 H 0.10898 1.04341 0.39954 0.0
H508 H 1.01333 0.15706 0.48852 0.0
H509 H 0.27954 0.11813 0.49982 0.0
H510 H 0.24301 0.14097 0.47474 0.0
H511 H 0.2203 1.0549 0.47264 0.0
C512 C 0.08718 0.19798 0.43226 0.0
C513 C 0.09269 0.14412 0.41146 0.0
C514 C 0.09414 0.19423 0.45599 0.0
C515 C 0.10657 0.13651 0.45966 0.0
C516 C 0.11112 0.08211 0.43887 0.0
H517 H 1.02724 1.03565 0.58746 0.0
H518 H 1.02669 1.04252 0.54657 0.0
C519 C 0.10479 0.08606 0.41509 0.0
C520 C 0.11193 0.13299 0.48508 0.0
H521 H 0.21576 0.10563 0.53053 0.0
C522 C 0.05784 0.14606 0.49767 0.0
C523 C 0.17026 0.11937 0.49733 0.0
C524 C 0.2319 0.1082 0.48556 0.0
C525 C 0.05996 0.14523 0.52184 0.0
C526 C 0.11712 0.12952 0.53375 0.0
C527 C 0.17175 0.11729 0.52138 0.0
C528 C 0.11996 0.1242 0.55879 0.0
C529 C 1.00123 0.16226 0.53455 0.0
C530 C 0.17383 0.16656 0.57937 0.0
C531 C 0.17467 0.16246 0.60303 0.0
C532 C 0.12184 0.11557 0.60652 0.0
C533 C 0.06878 0.0726 0.5857 0.0
C534 C 0.06807 0.07666 0.56218 0.0
H535 H 0.97253 0.19126 0.52622 0.0
H536 H 0.96367 0.1149 0.53231 0.0
H537 H 1.02093 0.19206 0.55484 0.0
H538 H 0.2147 0.20348 0.57721 0.0
H539 H 0.21653 0.19611 0.61855 0.0
H540 H 1.00232 1.04 0.72927 0.0
H541 H 0.99561 1.05084 0.77212 0.0
H542 H 0.2181 0.077 0.79036 0.0
H543 H 0.22527 0.07212 0.74808 0.0
H544 H 1.01549 0.99205 0.80127 0.0
H545 H 0.2103 0.23716 0.8449 0.0
H546 H 0.17919 0.19757 0.81158 0.0
H547 H 0.24897 0.17446 0.82714 0.0
C548 C 1.04965 1.0474 0.74242 0.0
C549 C 0.11441 1.05574 0.73546 0.0
C550 C 1.04591 1.05389 0.76701 0.0
C551 C 0.10666 0.06714 0.78504 0.0
C552 C 0.17073 0.07012 0.77739 0.0
H553 H 0.07214 1.02007 0.92798 0.0
H554 H 0.0804 1.00189 0.8847 0.0
C555 C 0.17478 0.06611 0.75306 0.0
C556 C 0.10279 0.07834 0.81172 0.0
H557 H 0.17966 0.18092 0.87224 0.0
C558 C 1.05112 1.03382 0.81675 0.0
C559 C 0.14772 0.13377 0.8322 0.0
C560 C 0.199 0.18882 0.82867 0.0
C561 C 1.04351 1.0426 0.84132 0.0
C562 C 0.09176 0.09512 0.86186 0.0
C563 C 0.14307 0.13991 0.85679 0.0
C564 C 0.0892 0.10596 0.88864 0.0
C565 C 0.98181 0.99682 0.8447 0.0
C566 C 0.09582 0.17114 0.90612 0.0
C567 C 0.09474 0.18199 0.93123 0.0
C568 C 0.08497 0.12773 0.93936 0.0
C569 C 0.07858 0.06268 0.9221 0.0
C570 C 0.08238 1.05217 0.8972 0.0
H571 H 0.93807 0.97782 0.82813 0.0
H572 H 0.9972 0.95234 0.84676 0.0
H573 H 0.96246 1.02299 0.86141 0.0
H574 H 0.10132 0.21389 0.90034 0.0
H575 H 0.09968 0.23267 0.94416 0.0
loop_
_geom_bond_atom_site_label_1
_geom_bond_atom_site_label_2
_geom_bond_distance
_geom_bond_site_symmetry_2
_ccdc_geom_bond_type
C0 C2 1.422 . S
C0 C4 1.415 . S
C0 N6 1.369 . S
C1 C2 1.421 . S
C1 C3 1.417 . S
C1 C13 1.422 1_554 S
C2 C0 1.422 . S
C2 C1 1.421 . S
C2 N12 1.359 . S
C3 C1 1.417 . S
C3 C5 1.329 . S
C3 H22 0.930 . S
C4 C0 1.415 . S
C4 C5 1.437 . S
C4 C8 1.413 . S
C5 C3 1.329 . S
C5 C4 1.437 . S
C5 H27 0.929 . S
N6 C0 1.369 . S
N6 C7 1.338 . S
N6 Gd11 2.622 . S
C7 N6 1.338 . S
C7 C9 1.378 . S
C7 H19 0.929 . S
C8 C4 1.413 . S
C8 C9 1.348 . S
C8 H24 0.931 . S
C9 C7 1.378 . S
C9 C8 1.348 . S
C9 H25 0.930 . S
Gd10 N30 2.622 1_554 S
Gd10 N37 2.570 . S
Gd10 O44 2.353 . S
Gd10 O45 2.468 . S
Gd10 O46 2.427 1_544 S
Gd10 O48 2.388 1_554 S
Gd10 O49 2.386 . S
Gd10 O53 2.307 . S
Gd10 C63 2.817 1_544 S
Gd11 N6 2.622 . S
Gd11 N12 2.570 . S
Gd11 O43 2.386 . S
Gd11 O47 2.307 1_554 S
Gd11 O50 2.353 . S
Gd11 O51 2.468 . S
Gd11 O52 2.427 . S
Gd11 O54 2.388 . S
Gd11 C75 2.805 . S
N12 C2 1.359 . S
N12 Gd11 2.570 . S
N12 C14 1.343 1_554 S
C13 C1 1.422 1_556 S
C13 C15 1.321 . S
C13 H21 0.931 . S
C14 N12 1.343 1_556 S
C14 C15 1.390 . S
C14 H16 0.931 . S
C15 C13 1.321 . S
C15 C14 1.390 . S
C15 H17 0.930 . S
H16 C14 0.931 . S
H17 C15 0.930 . S
H18 C41 0.931 . S
H19 C7 0.929 . S
H20 C42 0.930 . S
H21 C13 0.931 . S
H22 C3 0.930 . S
H23 C32 0.929 . S
H24 C8 0.931 . S
H25 C9 0.930 . S
H26 C64 0.937 . S
H27 C5 0.929 . S
H28 C33 0.931 . S
H29 C34 0.930 . S
N30 Gd10 2.622 1_556 S
N30 C31 1.369 . S
N30 C32 1.338 . S
C31 N30 1.369 . S
C31 C35 1.415 . S
C31 C38 1.422 1_556 S
C32 H23 0.929 . S
C32 N30 1.338 . S
C32 C34 1.378 . S
C33 H28 0.931 . S
C33 C34 1.348 . S
C33 C35 1.413 . S
C34 H29 0.930 . S
C34 C32 1.378 . S
C34 C33 1.348 . S
C35 C31 1.415 . S
C35 C33 1.413 . S
C35 C65 1.437 . S
H36 C65 0.929 . S
N37 Gd10 2.570 . S
N37 C38 1.359 . S
N37 C41 1.343 . S
C38 C31 1.422 1_554 S
C38 N37 1.359 . S
C38 C40 1.421 . S
C39 C40 1.422 . S
C39 C42 1.321 . S
C39 H66 0.931 . S
C40 C38 1.421 . S
C40 C39 1.422 . S
C40 C64 1.417 1_554 S
C41 H18 0.931 . S
C41 N37 1.343 . S
C41 C42 1.390 . S
C42 H20 0.930 . S
C42 C39 1.321 . S
C42 C41 1.390 . S
O43 Gd11 2.386 . S
O43 C55 1.265 . S
O44 Gd10 2.353 . S
O44 C55 1.242 1_655 S
O45 Gd10 2.468 . S
O45 C63 1.242 1_544 S
O46 Gd10 2.427 1_566 S
O46 C63 1.285 . S
O47 Gd11 2.307 1_556 S
O47 C56 1.261 . S
O48 Gd10 2.388 1_556 S
O48 C56 1.252 1_655 S
O49 Gd10 2.386 . S
O49 C67 1.265 . S
O50 Gd11 2.353 . S
O50 C67 1.242 1_455 S
O51 Gd11 2.468 . S
O51 C75 1.263 . S
O52 Gd11 2.427 . S
O52 C75 1.252 . S
O53 Gd10 2.307 . S
O53 C68 1.261 1_655 S
O54 Gd11 2.388 . S
O54 C68 1.252 . S
C55 O43 1.265 . S
C55 O44 1.242 1_455 S
C56 O47 1.261 . S
C56 O48 1.252 1_455 S
C57 C60 1.394 . S
C57 C62 1.370 1_556 S
C57 C63 1.489 . S
C58 C61 1.383 1_554 S
C58 C62 1.395 . S
C59 C60 1.396 . S
C59 C61 1.365 . S
C59 H76 0.929 . S
C60 C57 1.394 . S
C60 C59 1.396 . S
C60 H77 0.930 . S
C61 C58 1.383 1_556 S
C61 C59 1.365 . S
C61 H78 0.931 . S
C62 C57 1.370 1_554 S
C62 C58 1.395 . S
C62 H79 0.930 . S
C63 Gd10 2.817 1_566 S
C63 O45 1.242 1_566 S
C63 O46 1.285 . S
C63 C57 1.489 . S
C64 H26 0.937 . S
C64 C40 1.417 1_556 S
C64 C65 1.329 . S
C65 C35 1.437 . S
C65 H36 0.929 . S
C65 C64 1.329 . S
H66 C39 0.931 . S
C67 O49 1.265 . S
C67 O50 1.242 1_655 S
C68 O53 1.261 1_455 S
C68 O54 1.252 . S
C69 C72 1.394 . S
C69 C74 1.370 . S
C69 C75 1.500 . S
C70 C73 1.383 . S
C70 C74 1.395 . S
C71 C72 1.396 . S
C71 C73 1.365 . S
C71 H80 0.929 . S
C72 C69 1.394 . S
C72 C71 1.396 . S
C72 H81 0.930 . S
C73 C70 1.383 . S
C73 C71 1.365 . S
C73 H82 0.931 . S
C74 C69 1.370 . S
C74 C70 1.395 . S
C74 H83 0.910 1_554 S
C75 Gd11 2.805 . S
C75 O51 1.263 . S
C75 O52 1.252 . S
C75 C69 1.500 . S
H76 C59 0.929 . S
H77 C60 0.930 . S
H78 C61 0.931 . S
H79 C62 0.930 . S
H80 C71 0.929 . S
H81 C72 0.930 . S
H82 C73 0.931 . S
H83 C74 0.910 1_556 S
C84 C86 1.422 . S
C84 C88 1.415 . S
C84 N90 1.369 . S
C85 C86 1.421 . S
C85 C87 1.417 . S
C85 C97 1.422 . S
C86 C84 1.422 . S
C86 C85 1.421 . S
C86 N96 1.359 . S
C87 C85 1.417 . S
C87 C89 1.329 . S
C87 H106 0.930 . S
C88 C84 1.415 . S
C88 C89 1.437 . S
C88 C92 1.413 . S
C89 C87 1.329 . S
C89 C88 1.437 . S
C89 H111 0.929 . S
N90 C84 1.369 . S
N90 C91 1.338 . S
N90 Gd95 2.622 . S
C91 N90 1.338 . S
C91 C93 1.378 . S
C91 H103 0.929 . S
C92 C88 1.413 . S
C92 C93 1.348 . S
C92 H108 0.931 . S
C93 C91 1.378 . S
C93 C92 1.348 . S
C93 H109 0.930 . S
Gd94 N114 2.622 1_545 S
Gd94 N121 2.570 1_545 S
Gd94 O128 2.353 1_655 S
Gd94 O129 2.468 1_645 S
Gd94 O130 2.427 1_645 S
Gd94 O132 2.388 1_655 S
Gd94 O133 2.386 . S
Gd94 O137 2.307 1_655 S
Gd94 C147 2.805 1_645 S
Gd95 N90 2.622 . S
Gd95 N96 2.570 . S
Gd95 O127 2.386 . S
Gd95 O131 2.307 . S
Gd95 O134 2.353 1_455 S
Gd95 O135 2.468 . S
Gd95 O136 2.427 . S
Gd95 O138 2.388 . S
Gd95 C159 2.805 . S
N96 C86 1.359 . S
N96 Gd95 2.570 . S
N96 C98 1.343 . S
C97 C85 1.422 . S
C97 C99 1.321 . S
C97 H105 0.931 . S
C98 N96 1.343 . S
C98 C99 1.390 . S
C98 H100 0.931 . S
C99 C97 1.321 . S
C99 C98 1.390 . S
C99 H101 0.930 . S
H100 C98 0.931 . S
H101 C99 0.930 . S
H102 C125 0.931 1_545 S
H103 C91 0.929 . S
H104 C126 0.930 . S
H105 C97 0.931 . S
H106 C87 0.930 . S
H107 C116 0.930 . S
H108 C92 0.931 . S
H109 C93 0.930 . S
H110 C148 0.930 . S
H111 C89 0.929 . S
H112 C117 0.931 . S
H113 C118 0.930 . S
N114 Gd94 2.622 1_565 S
N114 C115 1.369 . S
N114 C116 1.338 . S
C115 N114 1.369 . S
C115 C119 1.415 . S
C115 C122 1.422 . S
C116 H107 0.930 . S
C116 N114 1.338 . S
C116 C118 1.378 . S
C117 H112 0.931 . S
C117 C118 1.348 . S
C117 C119 1.413 . S
C118 H113 0.930 . S
C118 C116 1.378 . S
C118 C117 1.348 . S
C119 C115 1.415 . S
C119 C117 1.413 . S
C119 C149 1.437 . S
H120 C149 0.929 . S
N121 Gd94 2.570 1_565 S
N121 C122 1.359 . S
N121 C125 1.343 . S
C122 C115 1.422 . S
C122 N121 1.359 . S
C122 C124 1.421 . S
C123 C124 1.422 . S
C123 C126 1.321 . S
C123 H150 0.931 . S
C124 C122 1.421 . S
C124 C123 1.422 . S
C124 C148 1.417 . S
C125 H102 0.931 1_565 S
C125 N121 1.343 . S
C125 C126 1.390 . S
C126 H104 0.930 . S
C126 C123 1.321 . S
C126 C125 1.390 . S
O127 Gd95 2.386 . S
O127 C139 1.265 . S
O128 Gd94 2.353 1_455 S
O128 C139 1.242 . S
O129 Gd94 2.468 1_465 S
O129 C147 1.263 . S
O130 Gd94 2.427 1_465 S
O130 C147 1.252 . S
O131 Gd95 2.307 . S
O131 C140 1.261 . S
O132 Gd94 2.388 1_455 S
O132 C140 1.252 . S
O133 Gd94 2.386 . S
O133 C151 1.265 . S
O134 Gd95 2.353 1_655 S
O134 C151 1.242 . S
O135 Gd95 2.468 . S
O135 C159 1.263 . S
O136 Gd95 2.427 . S
O136 C159 1.252 . S
O137 Gd94 2.307 1_455 S
O137 C152 1.261 . S
O138 Gd95 2.388 . S
O138 C152 1.252 . S
C139 O127 1.265 . S
C139 O128 1.242 . S
C140 O131 1.261 . S
C140 O132 1.252 . S
C141 C144 1.394 . S
C141 C146 1.370 . S
C141 C147 1.500 . S
C142 C145 1.383 . S
C142 C146 1.395 . S
C143 C144 1.396 . S
C143 C145 1.365 . S
C143 H160 0.929 . S
C144 C141 1.394 . S
C144 C143 1.396 . S
C144 H161 0.930 . S
C145 C142 1.383 . S
C145 C143 1.365 . S
C145 H162 0.931 . S
C146 C141 1.370 . S
C146 C142 1.395 . S
C146 H163 0.930 . S
C147 Gd94 2.805 1_465 S
C147 O129 1.263 . S
C147 O130 1.252 . S
C147 C141 1.500 . S
C148 H110 0.930 . S
C148 C124 1.417 . S
C148 C149 1.329 . S
C149 C119 1.437 . S
C149 H120 0.929 . S
C149 C148 1.329 . S
H150 C123 0.931 . S
C151 O133 1.265 . S
C151 O134 1.242 . S
C152 O137 1.261 . S
C152 O138 1.252 . S
C153 C156 1.394 . S
C153 C158 1.370 . S
C153 C159 1.500 . S
C154 C157 1.383 . S
C154 C158 1.395 . S
C155 C156 1.396 . S
C155 C157 1.365 . S
C155 H164 0.929 . S
C156 C153 1.394 . S
C156 C155 1.396 . S
C156 H165 0.930 . S
C157 C154 1.383 . S
C157 C155 1.365 . S
C157 H166 0.931 . S
C158 C153 1.370 . S
C158 C154 1.395 . S
C158 H167 0.930 . S
C159 Gd95 2.805 . S
C159 O135 1.263 . S
C159 O136 1.252 . S
C159 C153 1.500 . S
H160 C143 0.929 . S
H161 C144 0.930 . S
H162 C145 0.931 . S
H163 C146 0.930 . S
H164 C155 0.929 . S
H165 C156 0.930 . S
H166 C157 0.931 . S
H167 C158 0.930 . S
C168 C170 1.422 . S
C168 C172 1.415 . S
C168 N174 1.369 . S
C169 C170 1.421 . S
C169 C171 1.417 . S
C169 C181 1.422 . S
C170 C168 1.422 . S
C170 C169 1.421 . S
C170 N180 1.359 . S
C171 C169 1.417 . S
C171 C173 1.329 . S
C171 H190 0.930 . S
C172 C168 1.415 . S
C172 C173 1.437 . S
C172 C176 1.413 . S
C173 C171 1.329 . S
C173 C172 1.437 . S
C173 H195 0.929 . S
N174 C168 1.369 . S
N174 C175 1.338 . S
N174 Gd179 2.622 . S
C175 N174 1.338 . S
C175 C177 1.378 . S
C175 H187 0.929 . S
C176 C172 1.413 . S
C176 C177 1.348 . S
C176 H192 0.931 . S
C177 C175 1.378 . S
C177 C176 1.348 . S
C177 H193 0.930 . S
Gd178 N198 2.622 . S
Gd178 N205 2.570 . S
Gd178 O212 2.353 . S
Gd178 O213 2.468 . S
Gd178 O214 2.427 . S
Gd178 O216 2.388 . S
Gd178 O217 2.386 . S
Gd178 O221 2.307 . S
Gd178 C231 2.805 . S
Gd179 N174 2.622 . S
Gd179 N180 2.570 . S
Gd179 O211 2.386 . S
Gd179 O215 2.307 . S
Gd179 O218 2.353 1_455 S
Gd179 O219 2.468 1_455 S
Gd179 O220 2.427 1_455 S
Gd179 O222 2.388 . S
Gd179 C243 2.805 1_455 S
N180 C170 1.359 . S
N180 Gd179 2.570 . S
N180 C182 1.343 . S
C181 C169 1.422 . S
C181 C183 1.321 . S
C181 H189 0.931 . S
C182 N180 1.343 . S
C182 C183 1.390 . S
C182 H184 0.931 . S
C183 C181 1.321 . S
C183 C182 1.390 . S
C183 H185 0.930 . S
H184 C182 0.931 . S
H185 C183 0.930 . S
H186 C209 0.931 . S
H187 C175 0.929 . S
H188 C210 0.930 1_655 S
H189 C181 0.931 . S
H190 C171 0.930 . S
H191 C200 0.929 . S
H192 C176 0.931 . S
H193 C177 0.930 . S
H194 C232 0.930 . S
H195 C173 0.929 . S
H196 C201 0.931 . S
H197 C202 0.930 . S
N198 Gd178 2.622 . S
N198 C199 1.369 . S
N198 C200 1.338 . S
C199 N198 1.369 . S
C199 C203 1.415 . S
C199 C206 1.422 . S
C200 H191 0.929 . S
C200 N198 1.338 . S
C200 C202 1.378 . S
C201 H196 0.931 . S
C201 C202 1.348 . S
C201 C203 1.413 . S
C202 H197 0.930 . S
C202 C200 1.378 . S
C202 C201 1.348 . S
C203 C199 1.415 . S
C203 C201 1.413 . S
C203 C233 1.437 1_455 S
H204 C233 0.929 . S
N205 Gd178 2.570 . S
N205 C206 1.359 . S
N205 C209 1.343 . S
C206 C199 1.422 . S
C206 N205 1.359 . S
C206 C208 1.419 1_455 S
C207 C208 1.422 . S
C207 C210 1.321 1_655 S
C207 H234 0.931 . S
C208 C206 1.419 1_655 S
C208 C207 1.422 . S
C208 C232 1.420 . S
C209 H186 0.931 . S
C209 N205 1.343 . S
C209 C210 1.390 . S
C210 H188 0.930 1_455 S
C210 C207 1.321 1_455 S
C210 C209 1.390 . S
O211 Gd179 2.386 . S
O211 C223 1.265 1_565 S
O212 Gd178 2.353 . S
O212 C223 1.242 . S
O213 Gd178 2.468 . S
O213 C231 1.263 . S
O214 Gd178 2.427 . S
O214 C231 1.252 . S
O215 Gd179 2.307 . S
O215 C224 1.261 1_565 S
O216 Gd178 2.388 . S
O216 C224 1.252 . S
O217 Gd178 2.386 . S
O217 C235 1.265 1_455 S
O218 Gd179 2.353 1_655 S
O218 C235 1.242 1_565 S
O219 Gd179 2.468 1_655 S
O219 C243 1.263 . S
O220 Gd179 2.427 1_655 S
O220 C243 1.252 . S
O221 Gd178 2.307 . S
O221 C236 1.261 . S
O222 Gd179 2.388 . S
O222 C236 1.252 1_565 S
C223 O211 1.265 1_545 S
C223 O212 1.242 . S
C224 O215 1.261 1_545 S
C224 O216 1.252 . S
C225 C228 1.394 . S
C225 C230 1.370 . S
C225 C231 1.500 . S
C226 C229 1.383 . S
C226 C230 1.395 . S
C227 C228 1.396 . S
C227 C229 1.365 . S
C227 H244 0.929 . S
C228 C225 1.394 . S
C228 C227 1.396 . S
C228 H245 0.930 . S
C229 C226 1.383 . S
C229 C227 1.365 . S
C229 H246 0.931 . S
C230 C225 1.370 . S
C230 C226 1.395 . S
C230 H247 0.930 . S
C231 Gd178 2.805 . S
C231 O213 1.263 . S
C231 O214 1.252 . S
C231 C225 1.500 . S
C232 H194 0.930 . S
C232 C208 1.420 . S
C232 C233 1.329 . S
C233 C203 1.437 1_655 S
C233 H204 0.929 . S
C233 C232 1.329 . S
H234 C207 0.931 . S
C235 O217 1.265 1_655 S
C235 O218 1.242 1_545 S
C236 O221 1.261 . S
C236 O222 1.252 1_545 S
C237 C240 1.394 . S
C237 C242 1.370 . S
C237 C243 1.500 . S
C238 C241 1.383 . S
C238 C242 1.395 . S
C239 C240 1.396 . S
C239 C241 1.365 . S
C239 H248 0.929 . S
C240 C237 1.394 . S
C240 C239 1.396 . S
C240 H249 0.930 . S
C241 C238 1.383 . S
C241 C239 1.365 . S
C241 H250 0.931 . S
C242 C237 1.370 . S
C242 C238 1.395 . S
C242 H251 0.930 . S
C243 Gd179 2.805 1_655 S
C243 O219 1.263 . S
C243 O220 1.252 . S
C243 C237 1.500 . S
H244 C227 0.929 . S
H245 C228 0.930 . S
H246 C229 0.931 . S
H247 C230 0.930 . S
H248 C239 0.929 . S
H249 C240 0.930 . S
H250 C241 0.931 . S
H251 C242 0.930 . S
H252 C260 0.929 . S
H253 C262 0.930 . S
H254 C264 0.930 . S
H255 C267 0.929 . S
H256 C270 0.930 . S
H257 C272 0.960 . S
H258 C272 0.960 1_455 S
H259 C272 0.960 . S
C260 H252 0.929 . S
C260 C261 1.377 1_455 S
C260 C262 1.384 . S
C261 C260 1.377 1_655 S
C261 C267 1.390 . S
C262 H253 0.930 . S
C262 C260 1.384 . S
C262 C263 1.372 . S
C263 C262 1.372 . S
C263 C264 1.400 1_455 S
C263 C268 1.490 . S
C264 H254 0.930 . S
C264 C263 1.400 1_655 S
C264 C267 1.386 . S
H265 C281 0.930 . S
H266 C282 0.931 . S
C267 H255 0.929 . S
C267 C261 1.390 . S
C267 C264 1.386 . S
C268 C263 1.490 . S
C268 C270 1.395 1_554 S
C268 C271 1.403 1_455 S
H269 C275 0.930 1_655 S
C270 H256 0.930 . S
C270 C268 1.395 1_556 S
C270 C273 1.403 . S
C271 C268 1.403 1_655 S
C271 C272 1.524 . S
C271 C275 1.400 1_655 S
C272 H257 0.960 . S
C272 H258 0.960 1_655 S
C272 H259 0.960 . S
C272 C271 1.524 . S
C273 C270 1.403 . S
C273 C274 1.392 1_556 S
C273 C277 1.495 . S
C274 C273 1.392 1_554 S
C274 C275 1.385 . S
C274 C276 1.478 . S
C275 H269 0.930 1_455 S
C275 C271 1.400 1_455 S
C275 C274 1.385 . S
C276 C274 1.478 . S
C276 C278 1.381 . S
C276 C282 1.383 1_455 S
C277 C273 1.495 . S
C277 H283 0.959 . S
C277 H284 0.956 1_455 S
C277 H285 0.960 . S
C278 C276 1.381 . S
C278 C279 1.394 . S
C278 H286 0.930 . S
C279 C278 1.394 . S
C279 C280 1.383 . S
C279 H287 0.929 . S
C280 C279 1.383 . S
C280 C281 1.377 1_455 S
C281 H265 0.930 . S
C281 C280 1.377 1_655 S
C281 C282 1.379 . S
C282 H266 0.931 . S
C282 C276 1.383 1_655 S
C282 C281 1.379 . S
H283 C277 0.959 . S
H284 C277 0.956 1_655 S
H285 C277 0.960 . S
H286 C278 0.930 . S
H287 C279 0.929 . S
H288 C296 0.929 . S
H289 C298 0.930 . S
H290 C300 0.930 . S
H291 C303 0.929 . S
H292 C306 0.930 . S
H293 C308 0.960 . S
H294 C308 0.960 . S
H295 C308 0.960 . S
C296 H288 0.929 . S
C296 C297 1.377 . S
C296 C298 1.384 . S
C297 C296 1.377 . S
C297 C303 1.390 . S
C298 H289 0.930 . S
C298 C296 1.384 . S
C298 C299 1.372 . S
C299 C298 1.372 . S
C299 C300 1.400 . S
C299 C304 1.490 . S
C300 H290 0.930 . S
C300 C299 1.400 . S
C300 C303 1.386 . S
H301 C317 0.930 . S
H302 C318 0.931 . S
C303 H291 0.929 . S
C303 C297 1.390 . S
C303 C300 1.386 . S
C304 C299 1.490 . S
C304 C306 1.395 . S
C304 C307 1.403 . S
H305 C311 0.930 . S
C306 H292 0.930 . S
C306 C304 1.395 . S
C306 C309 1.403 . S
C307 C304 1.403 . S
C307 C308 1.524 . S
C307 C311 1.400 . S
C308 H293 0.960 . S
C308 H294 0.960 . S
C308 H295 0.960 . S
C308 C307 1.524 . S
C309 C306 1.403 . S
C309 C310 1.392 . S
C309 C313 1.495 . S
C310 C309 1.392 . S
C310 C311 1.385 . S
C310 C312 1.478 . S
C311 H305 0.930 . S
C311 C307 1.400 . S
C311 C310 1.385 . S
C312 C310 1.478 . S
C312 C314 1.381 . S
C312 C318 1.383 . S
C313 C309 1.495 . S
C313 H319 0.959 1_545 S
C313 H320 0.961 . S
C313 H321 0.960 . S
C314 C312 1.381 . S
C314 C315 1.394 . S
C314 H322 0.930 . S
C315 C314 1.394 . S
C315 C316 1.383 . S
C315 H323 0.929 . S
C316 C315 1.383 . S
C316 C317 1.377 . S
C317 H301 0.930 . S
C317 C316 1.377 . S
C317 C318 1.379 . S
C318 H302 0.931 . S
C318 C312 1.383 . S
C318 C317 1.379 . S
H319 C313 0.959 1_565 S
H320 C313 0.961 . S
H321 C313 0.960 . S
H322 C314 0.930 . S
H323 C315 0.929 . S
H324 C332 0.929 . S
H325 C334 0.930 . S
H326 C336 0.930 . S
H327 C339 0.929 . S
H328 C342 0.930 . S
H329 C344 0.960 . S
H330 C344 0.960 . S
H331 C344 0.960 . S
C332 H324 0.929 . S
C332 C333 1.377 . S
C332 C334 1.384 . S
C333 C332 1.377 . S
C333 C339 1.390 . S
C334 H325 0.930 . S
C334 C332 1.384 . S
C334 C335 1.372 . S
C335 C334 1.372 . S
C335 C336 1.400 . S
C335 C340 1.490 . S
C336 H326 0.930 . S
C336 C335 1.400 . S
C336 C339 1.386 . S
H337 C353 0.930 . S
H338 C354 0.931 . S
C339 H327 0.929 . S
C339 C333 1.390 . S
C339 C336 1.386 . S
C340 C335 1.490 . S
C340 C342 1.395 . S
C340 C343 1.403 . S
H341 C347 0.930 . S
C342 H328 0.930 . S
C342 C340 1.395 . S
C342 C345 1.403 . S
C343 C340 1.403 . S
C343 C344 1.524 . S
C343 C347 1.400 . S
C344 H329 0.960 . S
C344 H330 0.960 . S
C344 H331 0.960 . S
C344 C343 1.524 . S
C345 C342 1.403 . S
C345 C346 1.392 . S
C345 C349 1.495 . S
C346 C345 1.392 . S
C346 C347 1.385 . S
C346 C348 1.478 . S
C347 H341 0.930 . S
C347 C343 1.400 . S
C347 C346 1.385 . S
C348 C346 1.478 . S
C348 C350 1.381 . S
C348 C354 1.383 . S
C349 C345 1.495 . S
C349 H355 0.959 . S
C349 H356 0.961 . S
C349 H357 0.960 . S
C350 C348 1.381 . S
C350 C351 1.394 . S
C350 H358 0.930 . S
C351 C350 1.394 . S
C351 C352 1.383 . S
C351 H359 0.929 . S
C352 C351 1.383 . S
C352 C353 1.377 . S
C353 H337 0.930 . S
C353 C352 1.377 . S
C353 C354 1.379 . S
C354 H338 0.931 . S
C354 C348 1.383 . S
C354 C353 1.379 . S
H355 C349 0.959 . S
H356 C349 0.961 . S
H357 C349 0.960 . S
H358 C350 0.930 . S
H359 C351 0.929 . S
H360 C368 0.929 . S
H361 C370 0.930 . S
H362 C372 0.930 . S
H363 C375 0.929 . S
H364 C378 0.930 . S
H365 C380 0.960 . S
H366 C380 0.960 . S
H367 C380 0.960 . S
C368 H360 0.929 . S
C368 C369 1.377 1_565 S
C368 C370 1.384 . S
C369 C368 1.377 1_545 S
C369 C375 1.390 . S
C370 H361 0.930 . S
C370 C368 1.384 . S
C370 C371 1.372 1_565 S
C371 C370 1.372 1_545 S
C371 C372 1.400 . S
C371 C376 1.490 . S
C372 H362 0.930 . S
C372 C371 1.400 . S
C372 C375 1.386 . S
H373 C389 0.930 . S
H374 C390 0.931 . S
C375 H363 0.929 . S
C375 C369 1.390 . S
C375 C372 1.386 . S
C376 C371 1.490 . S
C376 C378 1.395 1_545 S
C376 C379 1.403 . S
H377 C383 0.930 . S
C378 H364 0.930 . S
C378 C376 1.395 1_565 S
C378 C381 1.403 . S
C379 C376 1.403 . S
C379 C380 1.524 . S
C379 C383 1.400 . S
C380 H365 0.960 . S
C380 H366 0.960 . S
C380 H367 0.960 . S
C380 C379 1.524 . S
C381 C378 1.403 . S
C381 C382 1.392 1_565 S
C381 C385 1.495 . S
C382 C381 1.392 1_545 S
C382 C383 1.385 . S
C382 C384 1.478 . S
C383 H377 0.930 . S
C383 C379 1.400 . S
C383 C382 1.385 . S
C384 C382 1.478 . S
C384 C386 1.381 1_545 S
C384 C390 1.383 . S
C385 C381 1.495 . S
C385 H391 0.959 . S
C385 H392 0.961 1_565 S
C385 H393 0.960 . S
C386 C384 1.381 1_565 S
C386 C387 1.394 . S
C386 H394 0.930 . S
C387 C386 1.394 . S
C387 C388 1.383 1_565 S
C387 H395 0.929 . S
C388 C387 1.383 1_545 S
C388 C389 1.377 . S
C389 H373 0.930 . S
C389 C388 1.377 . S
C389 C390 1.379 . S
C390 H374 0.931 . S
C390 C384 1.383 . S
C390 C389 1.379 . S
H391 C385 0.959 . S
H392 C385 0.961 1_545 S
H393 C385 0.960 . S
H394 C386 0.930 . S
H395 C387 0.929 . S
H396 C404 0.929 . S
H397 C406 0.914 1_556 S
H398 C408 0.930 . S
H399 C411 0.929 . S
H400 C414 0.930 . S
H401 C416 0.963 . S
H402 C416 1.005 . S
H403 C416 0.940 1_554 S
C404 H396 0.929 . S
C404 C405 1.377 . S
C404 C406 1.384 . S
C405 C404 1.377 . S
C405 C411 1.390 . S
C406 H397 0.914 1_554 S
C406 C404 1.384 . S
C406 C407 1.372 . S
C407 C406 1.372 . S
C407 C408 1.400 . S
C407 C412 1.490 . S
C408 H398 0.930 . S
C408 C407 1.400 . S
C408 C411 1.386 . S
H409 C425 0.930 . S
H410 C426 0.931 . S
C411 H399 0.929 . S
C411 C405 1.390 . S
C411 C408 1.386 . S
C412 C407 1.490 . S
C412 C414 1.395 . S
C412 C415 1.403 . S
H413 C419 0.930 . S
C414 H400 0.930 . S
C414 C412 1.395 . S
C414 C417 1.403 . S
C415 C412 1.403 . S
C415 C416 1.499 1_554 S
C415 C419 1.400 . S
C416 H401 0.963 . S
C416 H402 1.005 . S
C416 H403 0.940 1_556 S
C416 C415 1.499 1_556 S
C417 C414 1.403 . S
C417 C418 1.392 . S
C417 C421 1.495 . S
C418 C417 1.392 . S
C418 C419 1.385 . S
C418 C420 1.478 . S
C419 H413 0.930 . S
C419 C415 1.400 . S
C419 C418 1.385 . S
C420 C418 1.478 . S
C420 C422 1.381 1_554 S
C420 C426 1.383 . S
C421 C417 1.495 . S
C421 H427 0.959 . S
C421 H428 0.961 . S
C421 H429 0.960 . S
C422 C420 1.381 1_556 S
C422 C423 1.394 . S
C422 H430 0.930 . S
C423 C422 1.394 . S
C423 C424 1.383 1_556 S
C423 H431 0.929 . S
C424 C423 1.383 1_554 S
C424 C425 1.377 . S
C425 H409 0.930 . S
C425 C424 1.377 . S
C425 C426 1.379 . S
C426 H410 0.931 . S
C426 C420 1.383 . S
C426 C425 1.379 . S
H427 C421 0.959 . S
H428 C421 0.961 . S
H429 C421 0.960 . S
H430 C422 0.930 . S
H431 C423 0.929 . S
H432 C440 0.929 . S
H433 C442 0.930 . S
H434 C444 0.930 . S
H435 C447 0.937 . S
H436 C450 0.930 . S
H437 C452 0.960 . S
H438 C452 0.960 . S
H439 C452 0.960 . S
C440 H432 0.929 . S
C440 C441 1.377 . S
C440 C442 1.384 . S
C441 C440 1.377 . S
C441 C447 1.385 1_655 S
C442 H433 0.930 . S
C442 C440 1.384 . S
C442 C443 1.372 1_655 S
C443 C442 1.372 1_455 S
C443 C444 1.400 . S
C443 C448 1.490 . S
C444 H434 0.930 . S
C444 C443 1.400 . S
C444 C447 1.383 . S
H445 C461 0.930 . S
H446 C462 0.931 . S
C447 H435 0.937 . S
C447 C441 1.385 1_455 S
C447 C444 1.383 . S
C448 C443 1.490 . S
C448 C450 1.395 . S
C448 C451 1.403 1_455 S
H449 C455 0.930 1_655 S
C450 H436 0.930 . S
C450 C448 1.395 . S
C450 C453 1.403 . S
C451 C448 1.403 1_655 S
C451 C452 1.524 . S
C451 C455 1.400 1_655 S
C452 H437 0.960 . S
C452 H438 0.960 . S
C452 H439 0.960 . S
C452 C451 1.524 . S
C453 C450 1.403 . S
C453 C454 1.392 . S
C453 C457 1.495 . S
C454 C453 1.392 . S
C454 C455 1.385 . S
C454 C456 1.478 . S
C455 H449 0.930 1_455 S
C455 C451 1.400 1_455 S
C455 C454 1.385 . S
C456 C454 1.478 . S
C456 C458 1.381 . S
C456 C462 1.383 . S
C457 C453 1.495 . S
C457 H463 0.959 . S
C457 H464 0.961 . S
C457 H465 0.960 . S
C458 C456 1.381 . S
C458 C459 1.394 . S
C458 H466 0.930 . S
C459 C458 1.394 . S
C459 C460 1.383 . S
C459 H467 0.929 . S
C460 C459 1.383 . S
C460 C461 1.377 . S
C461 H445 0.930 . S
C461 C460 1.377 . S
C461 C462 1.379 . S
C462 H446 0.931 . S
C462 C456 1.383 . S
C462 C461 1.379 . S
H463 C457 0.959 . S
H464 C457 0.961 . S
H465 C457 0.960 . S
H466 C458 0.930 . S
H467 C459 0.929 . S
H468 C476 0.929 . S
H469 C478 0.930 . S
H470 C480 0.930 . S
H471 C483 0.929 . S
H472 C486 0.930 . S
H473 C488 0.960 . S
H474 C488 0.960 . S
H475 C488 0.960 . S
C476 H468 0.929 . S
C476 C477 1.377 1_655 S
C476 C478 1.384 . S
C477 C476 1.377 1_455 S
C477 C483 1.390 . S
C478 H469 0.930 . S
C478 C476 1.384 . S
C478 C479 1.372 1_655 S
C479 C478 1.372 1_455 S
C479 C480 1.400 . S
C479 C484 1.490 . S
C480 H470 0.930 . S
C480 C479 1.400 . S
C480 C483 1.386 . S
H481 C497 0.930 . S
H482 C498 0.931 . S
C483 H471 0.929 . S
C483 C477 1.390 . S
C483 C480 1.386 . S
C484 C479 1.490 . S
C484 C486 1.395 . S
C484 C487 1.403 1_455 S
H485 C491 0.930 . S
C486 H472 0.930 . S
C486 C484 1.395 . S
C486 C489 1.403 . S
C487 C484 1.403 1_655 S
C487 C488 1.524 . S
C487 C491 1.400 . S
C488 H473 0.960 . S
C488 H474 0.960 . S
C488 H475 0.960 . S
C488 C487 1.524 . S
C489 C486 1.403 . S
C489 C490 1.392 . S
C489 C493 1.495 . S
C490 C489 1.392 . S
C490 C491 1.385 1_455 S
C490 C492 1.478 . S
C491 H485 0.930 . S
C491 C487 1.400 . S
C491 C490 1.385 1_655 S
C492 C490 1.478 . S
C492 C494 1.381 1_455 S
C492 C498 1.383 . S
C493 C489 1.495 . S
C493 H499 0.959 . S
C493 H500 0.961 . S
C493 H501 0.960 . S
C494 C492 1.381 1_655 S
C494 C495 1.394 . S
C494 H502 0.930 . S
C495 C494 1.394 . S
C495 C496 1.383 . S
C495 H503 0.929 . S
C496 C495 1.383 . S
C496 C497 1.377 1_655 S
C497 H481 0.930 . S
C497 C496 1.377 1_455 S
C497 C498 1.379 . S
C498 H482 0.931 . S
C498 C492 1.383 . S
C498 C497 1.379 . S
H499 C493 0.959 . S
H500 C493 0.961 . S
H501 C493 0.960 . S
H502 C494 0.930 . S
H503 C495 0.929 . S
H504 C512 0.929 . S
H505 C514 0.930 . S
H506 C516 0.930 1_655 S
H507 C519 0.929 1_655 S
H508 C522 0.930 . S
H509 C524 0.960 1_565 S
H510 C524 0.960 . S
H511 C524 0.960 1_565 S
C512 H504 0.929 . S
C512 C513 1.377 . S
C512 C514 1.384 . S
C513 C512 1.377 . S
C513 C519 1.390 . S
C514 H505 0.930 . S
C514 C512 1.384 . S
C514 C515 1.372 . S
C515 C514 1.372 . S
C515 C516 1.400 . S
C515 C520 1.490 . S
C516 H506 0.930 1_455 S
C516 C515 1.400 . S
C516 C519 1.386 . S
H517 C533 0.930 . S
H518 C534 0.931 1_665 S
C519 H507 0.929 1_455 S
C519 C513 1.390 . S
C519 C516 1.386 . S
C520 C515 1.490 . S
C520 C522 1.395 . S
C520 C523 1.403 . S
H521 C527 0.930 . S
C522 H508 0.930 . S
C522 C520 1.395 . S
C522 C525 1.403 . S
C523 C520 1.403 . S
C523 C524 1.524 . S
C523 C527 1.400 . S
C524 H509 0.960 1_545 S
C524 H510 0.960 . S
C524 H511 0.960 1_545 S
C524 C523 1.524 . S
C525 C522 1.403 . S
C525 C526 1.392 . S
C525 C529 1.495 . S
C526 C525 1.392 . S
C526 C527 1.385 . S
C526 C528 1.478 . S
C527 H521 0.930 . S
C527 C523 1.400 . S
C527 C526 1.385 . S
C528 C526 1.478 . S
C528 C530 1.381 . S
C528 C534 1.383 . S
C529 C525 1.495 . S
C529 H535 0.959 . S
C529 H536 0.961 1_455 S
C529 H537 0.960 . S
C530 C528 1.381 . S
C530 C531 1.394 . S
C530 H538 0.930 . S
C531 C530 1.394 . S
C531 C532 1.383 . S
C531 H539 0.929 . S
C532 C531 1.383 . S
C532 C533 1.377 1_545 S
C533 H517 0.930 . S
C533 C532 1.377 1_565 S
C533 C534 1.379 1_565 S
C534 H518 0.931 1_445 S
C534 C528 1.383 . S
C534 C533 1.379 1_545 S
H535 C529 0.959 . S
H536 C529 0.961 1_655 S
H537 C529 0.960 . S
H538 C530 0.930 . S
H539 C531 0.929 . S
H540 C548 0.929 . S
H541 C550 0.930 1_655 S
H542 C552 0.930 . S
H543 C555 0.929 1_565 S
H544 C558 0.930 1_565 S
H545 C560 0.960 . S
H546 C560 0.960 . S
H547 C560 0.960 . S
C548 H540 0.929 . S
C548 C549 1.377 . S
C548 C550 1.384 . S
C549 C548 1.377 . S
C549 C555 1.390 . S
C550 H541 0.930 1_455 S
C550 C548 1.384 . S
C550 C551 1.372 . S
C551 C550 1.372 . S
C551 C552 1.400 . S
C551 C556 1.490 . S
C552 H542 0.930 . S
C552 C551 1.400 . S
C552 C555 1.386 . S
H553 C569 0.930 . S
H554 C570 0.931 . S
C555 H543 0.929 1_545 S
C555 C549 1.390 . S
C555 C552 1.386 . S
C556 C551 1.490 . S
C556 C558 1.395 1_455 S
C556 C559 1.403 . S
H557 C563 0.930 . S
C558 H544 0.930 1_545 S
C558 C556 1.395 1_655 S
C558 C561 1.403 . S
C559 C556 1.403 . S
C559 C560 1.524 . S
C559 C563 1.400 . S
C560 H545 0.960 . S
C560 H546 0.960 . S
C560 H547 0.960 . S
C560 C559 1.524 . S
C561 C558 1.403 . S
C561 C562 1.392 1_655 S
C561 C565 1.495 1_545 S
C562 C561 1.392 1_455 S
C562 C563 1.385 . S
C562 C564 1.478 . S
C563 H557 0.930 . S
C563 C559 1.400 . S
C563 C562 1.385 . S
C564 C562 1.478 . S
C564 C566 1.381 1_455 S
C564 C570 1.383 . S
C565 C561 1.495 1_565 S
C565 H571 0.959 . S
C565 H572 0.961 . S
C565 H573 0.960 1_565 S
C566 C564 1.381 1_655 S
C566 C567 1.394 . S
C566 H574 0.930 . S
C567 C566 1.394 . S
C567 C568 1.383 1_655 S
C567 H575 0.929 . S
C568 C567 1.383 1_455 S
C568 C569 1.377 . S
C569 H553 0.930 . S
C569 C568 1.377 . S
C569 C570 1.379 . S
C570 H554 0.931 . S
C570 C564 1.383 . S
C570 C569 1.379 . S
H571 C565 0.959 . S
H572 C565 0.961 . S
H573 C565 0.960 1_545 S
H574 C566 0.930 . S
H575 C567 0.929 . S
C261 C67 4.226 . S
C280 C55 4.227 1_565 S
C297 C139 2.559 . S
C316 C151 2.553 . S
C333 C238 0.633 . S
C352 C226 0.565 . S
C369 C235 2.539 . S
C388 C223 2.541 . S
C405 C58 0.687 . S
C424 C70 0.674 . S
C441 C154 1.346 1_655 S
C460 C142 1.393 . S
C477 C140 1.520 . S
C496 C68 1.516 1_655 S
C513 C152 1.595 . S
C532 C236 1.564 . S
C549 C224 1.563 . S
C568 C56 1.558 . S
