# Generated by pormake.
# Topology xfe, (7)-cn, num edge types: 1
# Building blocks:
#     Node 0, Type 0, BuildingBlock: NUHQUE_clean_sbu_2, # of connection points: 7
#     Node 1, Type 0, BuildingBlock: NUHQUE_clean_sbu_2, # of connection points: 7
#     Node 2, Type 0, BuildingBlock: NUHQUE_clean_sbu_2, # of connection points: 7
#     Node 3, Type 0, BuildingBlock: NUHQUE_clean_sbu_2, # of connection points: 7
#     Node 4, Type 0, BuildingBlock: NUHQUE_clean_sbu_2, # of connection points: 7
#     Node 5, Type 0, BuildingBlock: NUHQUE_clean_sbu_2, # of connection points: 7
#     Node 6, Type 0, BuildingBlock: NUHQUE_clean_sbu_2, # of connection points: 7
#     Node 7, Type 0, BuildingBlock: NUHQUE_clean_sbu_2, # of connection points: 7
#     Node 8, Type 0, BuildingBlock: NUHQUE_clean_sbu_2, # of connection points: 7
#     Node 9, Type 0, BuildingBlock: NUHQUE_clean_sbu_2, # of connection points: 7
#     Node 10, Type 0, BuildingBlock: NUHQUE_clean_sbu_2, # of connection points: 7
#     Node 11, Type 0, BuildingBlock: NUHQUE_clean_sbu_2, # of connection points: 7
#     Node 12, Type 0, BuildingBlock: NUHQUE_clean_sbu_2, # of connection points: 7
#     Node 13, Type 0, BuildingBlock: NUHQUE_clean_sbu_2, # of connection points: 7
#     Node 14, Type 0, BuildingBlock: NUHQUE_clean_sbu_2, # of connection points: 7
#     Node 15, Type 0, BuildingBlock: NUHQUE_clean_sbu_2, # of connection points: 7
#     Edge 16, Type (0, 0), BuildingBlock: UVAHIK_clean_linker_0, # of connection points: 2
#     Edge 17, Type (0, 0), BuildingBlock: UVAHIK_clean_linker_0, # of connection points: 2
#     Edge 18, Type (0, 0), BuildingBlock: UVAHIK_clean_linker_0, # of connection points: 2
#     Edge 19, Type (0, 0), BuildingBlock: UVAHIK_clean_linker_0, # of connection points: 2
#     Edge 20, Type (0, 0), BuildingBlock: UVAHIK_clean_linker_0, # of connection points: 2
#     Edge 21, Type (0, 0), BuildingBlock: UVAHIK_clean_linker_0, # of connection points: 2
#     Edge 22, Type (0, 0), BuildingBlock: UVAHIK_clean_linker_0, # of connection points: 2
#     Edge 23, Type (0, 0), BuildingBlock: UVAHIK_clean_linker_0, # of connection points: 2
#     Edge 24, Type (0, 0), BuildingBlock: UVAHIK_clean_linker_0, # of connection points: 2
#     Edge 25, Type (0, 0), BuildingBlock: UVAHIK_clean_linker_0, # of connection points: 2
#     Edge 26, Type (0, 0), BuildingBlock: UVAHIK_clean_linker_0, # of connection points: 2
#     Edge 27, Type (0, 0), BuildingBlock: UVAHIK_clean_linker_0, # of connection points: 2
#     Edge 28, Type (0, 0), BuildingBlock: UVAHIK_clean_linker_0, # of connection points: 2
#     Edge 29, Type (0, 0), BuildingBlock: UVAHIK_clean_linker_0, # of connection points: 2
#     Edge 30, Type (0, 0), BuildingBlock: UVAHIK_clean_linker_0, # of connection points: 2
#     Edge 31, Type (0, 0), BuildingBlock: UVAHIK_clean_linker_0, # of connection points: 2
#     Edge 32, Type (0, 0), BuildingBlock: UVAHIK_clean_linker_0, # of connection points: 2
#     Edge 33, Type (0, 0), BuildingBlock: UVAHIK_clean_linker_0, # of connection points: 2
#     Edge 34, Type (0, 0), BuildingBlock: UVAHIK_clean_linker_0, # of connection points: 2
#     Edge 35, Type (0, 0), BuildingBlock: UVAHIK_clean_linker_0, # of connection points: 2
#     Edge 36, Type (0, 0), BuildingBlock: UVAHIK_clean_linker_0, # of connection points: 2
#     Edge 37, Type (0, 0), BuildingBlock: UVAHIK_clean_linker_0, # of connection points: 2
#     Edge 38, Type (0, 0), BuildingBlock: UVAHIK_clean_linker_0, # of connection points: 2
#     Edge 39, Type (0, 0), BuildingBlock: UVAHIK_clean_linker_0, # of connection points: 2
#     Edge 40, Type (0, 0), BuildingBlock: UVAHIK_clean_linker_0, # of connection points: 2
#     Edge 41, Type (0, 0), BuildingBlock: UVAHIK_clean_linker_0, # of connection points: 2
#     Edge 42, Type (0, 0), BuildingBlock: UVAHIK_clean_linker_0, # of connection points: 2
#     Edge 43, Type (0, 0), BuildingBlock: UVAHIK_clean_linker_0, # of connection points: 2
#     Edge 44, Type (0, 0), BuildingBlock: UVAHIK_clean_linker_0, # of connection points: 2
#     Edge 45, Type (0, 0), BuildingBlock: UVAHIK_clean_linker_0, # of connection points: 2
#     Edge 46, Type (0, 0), BuildingBlock: UVAHIK_clean_linker_0, # of connection points: 2
#     Edge 47, Type (0, 0), BuildingBlock: UVAHIK_clean_linker_0, # of connection points: 2
#     Edge 48, Type (0, 0), BuildingBlock: UVAHIK_clean_linker_0, # of connection points: 2
#     Edge 49, Type (0, 0), BuildingBlock: UVAHIK_clean_linker_0, # of connection points: 2
#     Edge 50, Type (0, 0), BuildingBlock: UVAHIK_clean_linker_0, # of connection points: 2
#     Edge 51, Type (0, 0), BuildingBlock: UVAHIK_clean_linker_0, # of connection points: 2
#     Edge 52, Type (0, 0), BuildingBlock: UVAHIK_clean_linker_0, # of connection points: 2
#     Edge 53, Type (0, 0), BuildingBlock: UVAHIK_clean_linker_0, # of connection points: 2
#     Edge 54, Type (0, 0), BuildingBlock: UVAHIK_clean_linker_0, # of connection points: 2
#     Edge 55, Type (0, 0), BuildingBlock: UVAHIK_clean_linker_0, # of connection points: 2
#     Edge 56, Type (0, 0), BuildingBlock: UVAHIK_clean_linker_0, # of connection points: 2
#     Edge 57, Type (0, 0), BuildingBlock: UVAHIK_clean_linker_0, # of connection points: 2
#     Edge 58, Type (0, 0), BuildingBlock: UVAHIK_clean_linker_0, # of connection points: 2
#     Edge 59, Type (0, 0), BuildingBlock: UVAHIK_clean_linker_0, # of connection points: 2
#     Edge 60, Type (0, 0), BuildingBlock: UVAHIK_clean_linker_0, # of connection points: 2
#     Edge 61, Type (0, 0), BuildingBlock: UVAHIK_clean_linker_0, # of connection points: 2
#     Edge 62, Type (0, 0), BuildingBlock: UVAHIK_clean_linker_0, # of connection points: 2
#     Edge 63, Type (0, 0), BuildingBlock: UVAHIK_clean_linker_0, # of connection points: 2
#     Edge 64, Type (0, 0), BuildingBlock: UVAHIK_clean_linker_0, # of connection points: 2
#     Edge 65, Type (0, 0), BuildingBlock: UVAHIK_clean_linker_0, # of connection points: 2
#     Edge 66, Type (0, 0), BuildingBlock: UVAHIK_clean_linker_0, # of connection points: 2
#     Edge 67, Type (0, 0), BuildingBlock: UVAHIK_clean_linker_0, # of connection points: 2
#     Edge 68, Type (0, 0), BuildingBlock: UVAHIK_clean_linker_0, # of connection points: 2
#     Edge 69, Type (0, 0), BuildingBlock: UVAHIK_clean_linker_0, # of connection points: 2
#     Edge 70, Type (0, 0), BuildingBlock: UVAHIK_clean_linker_0, # of connection points: 2
#     Edge 71, Type (0, 0), BuildingBlock: UVAHIK_clean_linker_0, # of connection points: 2
# Relax obj value: 0.198
# Max RMSD: 0.238
# Mean RMSD: 0.238
data_MOF--net-xfe--node1-NUHQUE_clean_sbu_2--edge1-UVAHIK_clean_linker_0
_symmetry_space_group_name_H-M    P1
_symmetry_Int_Tables_number       1
_symmetry_cell_setting            triclinic
loop_
_symmetry_equiv_pos_as_xyz
'x, y, z'
_cell_length_a     49.101918
_cell_length_b     49.136804
_cell_length_c     59.031623
_cell_angle_alpha  90.03926
_cell_angle_beta   90.004139
_cell_angle_gamma 90.012449
loop_
_atom_site_label
_atom_site_type_symbol
_atom_site_fract_x
_atom_site_fract_y
_atom_site_fract_z
_atom_type_partial_charge
O0 O 0.05557 0.0793 0.10703 0.0
Tb1 Tb 1.01987 0.07424 0.12882 0.0
Eu2 Eu 1.0152 0.06424 0.18599 0.0
C3 C 0.07949 0.0856 0.11576 0.0
O4 O 0.0825 0.08491 0.13785 0.0
C5 C 1.0211 0.12226 0.1646 0.0
O6 O 0.99745 0.05109 0.21922 0.0
C7 C 0.06681 0.05296 0.1864 0.0
C8 C 0.97123 0.0532 0.22319 0.0
O9 O 0.95557 0.06495 0.20803 0.0
C10 C 0.99381 0.02149 0.14914 0.0
C11 C 0.08786 0.03217 0.19085 0.0
C12 C 0.11096 0.03205 0.1768 0.0
C13 C 0.13289 1.01477 0.18148 0.0
C14 C 0.13132 0.99687 0.19981 0.0
C15 C 0.10834 0.99617 0.21379 0.0
C16 C 0.08658 1.01416 0.20954 0.0
O17 O 0.03422 0.10944 0.14832 0.0
O18 O 1.007 0.10866 0.17976 0.0
O19 O 0.99755 0.07993 0.09733 0.0
O20 O 0.9786 0.09101 0.12853 0.0
C21 C 0.97557 0.08964 0.10662 0.0
O22 O 0.98796 0.0342 0.16813 0.0
O23 O 1.01317 0.03072 0.13559 0.0
O24 O 0.05369 0.06295 0.20393 0.0
O25 O 0.05162 0.05033 0.16814 0.0
H26 H 0.11225 0.04597 0.16259 0.0
H27 H 0.14816 0.98313 0.20317 0.0
H28 H 0.06898 1.01415 0.2206 0.0
O29 O 0.23445 0.77762 0.35489 0.0
Tb30 Tb 0.24017 0.74427 0.37884 0.0
Eu31 Eu 0.25071 0.73832 0.43522 0.0
C32 C 0.23093 0.8028 0.36203 0.0
O33 O 0.23487 0.80831 0.38356 0.0
C34 C 0.19316 0.74743 0.41449 0.0
O35 O 0.26249 0.71674 0.46724 0.0
C36 C 0.26247 0.78959 0.43891 0.0
C37 C 0.26462 0.6901 0.46729 0.0
O38 O 0.25738 0.67646 0.4491 0.0
C39 C 0.29424 0.71963 0.39754 0.0
C40 C 0.28348 0.81044 0.44346 0.0
C41 C 0.28373 0.83369 0.42959 0.0
C42 C 0.30109 0.85551 0.43449 0.0
C43 C 0.31882 0.85375 0.45293 0.0
C44 C 0.31938 0.83065 0.46672 0.0
C45 C 0.30148 0.80891 0.46217 0.0
O46 O 0.20692 0.76116 0.39915 0.0
O47 O 0.20605 0.73155 0.42879 0.0
O48 O 0.2296 0.72014 0.34921 0.0
O49 O 0.2257 0.7023 0.38197 0.0
C50 C 0.22291 0.69824 0.36027 0.0
O51 O 0.2817 0.71308 0.41645 0.0
O52 O 0.28415 0.73849 0.38392 0.0
O53 O 0.25413 0.77458 0.45598 0.0
O54 O 0.26331 0.77649 0.41944 0.0
H55 H 0.26986 0.83516 0.41535 0.0
H56 H 0.33267 0.87045 0.45647 0.0
H57 H 0.30147 0.7912 0.4731 0.0
O58 O 0.54024 0.95957 0.60453 0.0
Tb59 Tb 0.5733 0.96565 0.62873 0.0
Eu60 Eu 0.57711 0.97764 0.68501 0.0
C61 C 0.51497 0.95581 0.6114 0.0
O62 O 0.50906 0.9597 0.63285 0.0
C63 C 0.56971 0.91944 0.66502 0.0
O64 O 0.59529 0.99103 0.71803 0.0
C65 C 0.52546 0.98873 0.68577 0.0
C66 C 0.62162 0.98941 0.72167 0.0
O67 O 0.63725 0.97809 0.70625 0.0
C68 C 0.59782 1.01984 0.64724 0.0
C69 C 0.50408 1.0094 0.68954 0.0
C70 C 0.48129 1.00886 0.67515 0.0
C71 C 0.459 0.02587 0.67927 0.0
C72 C 0.45986 0.04419 0.69736 0.0
C73 C 0.48252 0.04557 0.71166 0.0
C74 C 0.50465 0.02782 0.708 0.0
O75 O 0.55629 0.93266 0.64918 0.0
O76 O 0.5848 0.93291 0.6796 0.0
O77 O 0.59751 0.95502 0.59919 0.0
O78 O 0.61528 0.95114 0.63199 0.0
C79 C 0.61938 0.94833 0.6103 0.0
O80 O 0.60369 1.00785 0.66657 0.0
O81 O 0.57902 1.00962 0.63361 0.0
O82 O 0.53907 0.98009 0.70353 0.0
O83 O 0.54019 0.99024 0.66718 0.0
H84 H 0.48049 0.9946 0.66114 0.0
H85 H 0.44269 0.05766 0.70028 0.0
H86 H 0.52199 0.02834 0.71934 0.0
O87 O 0.35558 0.2643 0.85308 0.0
Tb88 Tb 0.34961 0.29759 0.8771 0.0
Eu89 Eu 0.33798 0.30257 0.93375 0.0
C90 C 0.35938 0.23916 0.86019 0.0
O91 O 0.3557 0.23364 0.88174 0.0
C92 C 0.39597 0.29434 0.91335 0.0
O93 O 0.32599 0.32355 0.96606 0.0
C94 C 0.32685 0.25109 0.93695 0.0
C95 C 0.32214 0.35 0.96628 0.0
O96 O 0.32754 0.36415 0.94794 0.0
C97 C 0.29507 0.32169 0.89558 0.0
C98 C 0.30688 0.22905 0.94109 0.0
C99 C 0.30555 0.20783 0.92513 0.0
C100 C 0.29048 0.18429 0.92969 0.0
C101 C 0.27613 0.1822 0.95004 0.0
C102 C 0.27664 0.20316 0.96607 0.0
C103 C 0.29199 0.22682 0.96158 0.0
O104 O 0.38259 0.28072 0.89769 0.0
O105 O 0.38269 0.30981 0.92775 0.0
O106 O 0.36057 0.32175 0.84761 0.0
O107 O 0.36405 0.33957 0.88042 0.0
C108 C 0.36714 0.34364 0.85876 0.0
O109 O 0.307 0.32774 0.91489 0.0
O110 O 0.30556 0.30322 0.88179 0.0
O111 O 0.33468 0.26607 0.95422 0.0
O112 O 0.32595 0.26439 0.91758 0.0
H113 H 0.31711 0.20911 0.90952 0.0
H114 H 0.26409 0.1641 0.95334 0.0
H115 H 0.29305 0.2428 0.97421 0.0
O116 O 0.05503 0.96209 0.88079 0.0
Tb117 Tb 1.01936 0.9677 0.85909 0.0
Eu118 Eu 1.01168 0.97691 0.80209 0.0
C119 C 0.07896 0.95623 0.87189 0.0
O120 O 0.08191 0.95772 0.84982 0.0
C121 C 1.01967 0.9194 0.82375 0.0
O122 O 0.98972 0.98887 0.77026 0.0
C123 C 0.063 0.9885 0.79817 0.0
C124 C 0.96308 0.99134 0.77055 0.0
O125 O 0.94967 0.98409 0.78883 0.0
C126 C 0.99368 0.02084 0.83938 0.0
C127 C 0.08392 1.00943 0.79357 0.0
C128 C 0.10703 1.00985 0.80763 0.0
C129 C 0.12886 0.02724 0.80286 0.0
C130 C 0.12719 0.04493 0.78441 0.0
C131 C 0.10424 0.04533 0.7704 0.0
C132 C 0.08258 0.02724 0.77474 0.0
O133 O 0.03361 0.93273 0.83927 0.0
O134 O 1.00445 0.93253 0.80907 0.0
O135 O 0.99684 0.96192 0.89047 0.0
O136 O 0.97797 0.95121 0.85915 0.0
C137 C 0.97484 0.95242 0.88104 0.0
O138 O 0.9865 1.00782 0.82089 0.0
O139 O 1.01333 1.01136 0.85251 0.0
O140 O 0.04787 0.9801 0.78116 0.0
O141 O 0.04998 0.98948 0.81766 0.0
H142 H 0.10841 0.99607 0.82193 0.0
H143 H 0.14394 0.05876 0.78097 0.0
H144 H 0.06501 0.02705 0.76364 0.0
O145 O 0.35376 0.78117 0.13022 0.0
Tb146 Tb 0.34843 0.74545 0.10853 0.0
Eu147 Eu 0.33876 0.73852 0.05143 0.0
C148 C 0.36 0.80501 0.12136 0.0
O149 O 0.35925 0.80782 0.09925 0.0
C150 C 0.39659 0.74577 0.07306 0.0
O151 O 0.32712 0.71825 0.01871 0.0
C152 C 0.32787 0.79009 0.04873 0.0
C153 C 0.32356 0.69177 0.01796 0.0
O154 O 0.32887 0.6772 0.03608 0.0
C155 C 0.29534 0.71952 0.08884 0.0
C156 C 0.30825 0.81235 0.04435 0.0
C157 C 0.30745 0.83392 0.06 0.0
C158 C 0.29273 0.8576 0.05523 0.0
C159 C 0.27814 0.85947 0.03498 0.0
C160 C 0.27807 0.83814 0.01927 0.0
C161 C 0.29311 0.81434 0.02397 0.0
O162 O 0.38347 0.75958 0.08877 0.0
O163 O 0.38322 0.73088 0.05826 0.0
O164 O 0.35425 0.72313 0.13998 0.0
O165 O 0.36492 0.7041 0.10873 0.0
C166 C 0.36373 0.7011 0.13063 0.0
O167 O 0.30798 0.71284 0.07002 0.0
O168 O 0.3048 0.73927 0.10189 0.0
O169 O 0.33637 0.77549 0.03146 0.0
O170 O 0.32605 0.77635 0.06781 0.0
H171 H 0.31915 0.83278 0.07554 0.0
H172 H 0.26631 0.87767 0.03153 0.0
H173 H 0.29373 0.79805 0.01161 0.0
O174 O 0.5368 0.08036 0.38311 0.0
Tb175 Tb 0.57048 0.07426 0.35951 0.0
Eu176 Eu 0.57602 0.06485 0.3026 0.0
C177 C 0.51184 0.08473 0.37575 0.0
O178 O 0.50663 0.08162 0.35409 0.0
C179 C 0.56767 0.12222 0.32433 0.0
O180 O 0.59705 0.05337 0.27022 0.0
C181 C 0.52458 0.05335 0.29961 0.0
C182 C 0.62374 0.05175 0.26978 0.0
O183 O 0.63761 0.05934 0.28774 0.0
C184 C 0.59524 0.02107 0.33956 0.0
C185 C 0.50256 0.03339 0.29541 0.0
C186 C 0.48139 0.03189 0.3114 0.0
C187 C 0.45787 1.01679 0.30684 0.0
C188 C 0.45574 1.00256 0.28643 0.0
C189 C 0.47668 1.00322 0.27036 0.0
C190 C 0.50032 1.0186 0.27487 0.0
O191 O 0.55434 0.10855 0.33999 0.0
O192 O 0.58294 0.10936 0.3095 0.0
O193 O 0.59486 0.07982 0.38989 0.0
O194 O 0.61176 0.09105 0.35794 0.0
C195 C 0.6162 0.08955 0.37967 0.0
O196 O 0.6019 0.03396 0.32087 0.0
O197 O 0.57575 0.03059 0.35282 0.0
O198 O 0.5393 0.06161 0.28233 0.0
O199 O 0.53812 0.05215 0.31885 0.0
H200 H 0.48271 0.04335 0.32706 0.0
H201 H 0.43766 0.99047 0.28312 0.0
H202 H 0.51627 1.01976 0.26222 0.0
O203 O 0.23565 0.26341 0.63301 0.0
Tb204 Tb 0.24208 0.29735 0.60974 0.0
Eu205 Eu 0.25221 0.30192 0.5528 0.0
C206 C 0.23144 0.23852 0.6254 0.0
O207 O 0.23507 0.23351 0.60376 0.0
C208 C 0.19455 0.29466 0.57409 0.0
O209 O 0.26506 0.32009 0.51964 0.0
C210 C 0.26321 0.25029 0.55192 0.0
C211 C 0.26339 0.34641 0.51607 0.0
O212 O 0.25223 0.36198 0.53162 0.0
C213 C 0.29523 0.32247 0.58981 0.0
C214 C 0.28371 0.22891 0.54766 0.0
C215 C 0.2833 0.20589 0.56177 0.0
C216 C 0.30023 0.18366 0.55724 0.0
C217 C 0.3183 0.18479 0.539 0.0
C218 C 0.31954 0.20769 0.52497 0.0
C219 C 0.30189 0.22977 0.52906 0.0
O220 O 0.20799 0.28133 0.58988 0.0
O221 O 0.2077 0.30961 0.55923 0.0
O222 O 0.23643 0.32134 0.64032 0.0
O223 O 0.22507 0.33852 0.60851 0.0
C224 C 0.22658 0.34273 0.63028 0.0
O225 O 0.28255 0.32869 0.57089 0.0
O226 O 0.28575 0.30304 0.60315 0.0
O227 O 0.25386 0.2638 0.53436 0.0
O228 O 0.26555 0.26515 0.57039 0.0
H229 H 0.26924 0.2049 0.5759 0.0
H230 H 0.33175 0.16768 0.53576 0.0
H231 H 0.30231 0.24731 0.51795 0.0
O232 O 0.85822 0.28441 0.62354 0.0
Tb233 Tb 0.85382 0.24768 0.60285 0.0
Eu234 Eu 0.84631 0.237 0.54637 0.0
C235 C 0.86487 0.30785 0.61414 0.0
O236 O 0.86489 0.30977 0.59196 0.0
C237 C 0.90324 0.24711 0.56854 0.0
O238 O 0.83594 0.21382 0.51477 0.0
C239 C 0.83323 0.28781 0.54135 0.0
C240 C 0.83436 0.18715 0.5155 0.0
O241 O 0.84167 0.1745 0.53414 0.0
C242 C 0.80167 0.21991 0.58323 0.0
C243 C 0.81111 0.30772 0.53742 0.0
C244 C 0.80782 0.32867 0.55342 0.0
C245 C 0.78892 0.34949 0.54981 0.0
C246 C 0.77266 0.34903 0.5304 0.0
C247 C 0.77511 0.3282 0.51438 0.0
C248 C 0.79469 0.30759 0.51767 0.0
O249 O 0.88918 0.26149 0.58331 0.0
O250 O 0.89081 0.23118 0.55394 0.0
O251 O 0.85933 0.22659 0.63494 0.0
O252 O 0.871 0.20667 0.60431 0.0
C253 C 0.86942 0.20442 0.62626 0.0
O254 O 0.81548 0.21194 0.56536 0.0
O255 O 0.81041 0.24046 0.59576 0.0
O256 O 0.8409 0.27215 0.52444 0.0
O257 O 0.83413 0.27568 0.56122 0.0
H258 H 0.82038 0.32913 0.56852 0.0
H259 H 0.75759 0.36489 0.52787 0.0
H260 H 0.79697 0.29169 0.50509 0.0
O261 O 0.73055 0.76069 0.12775 0.0
Tb262 Tb 0.73665 0.79511 0.10494 0.0
Eu263 Eu 0.74496 0.80513 0.04852 0.0
C264 C 0.72728 0.73577 0.11993 0.0
O265 O 0.73167 0.73102 0.09834 0.0
C266 C 0.68824 0.79289 0.0702 0.0
O267 O 0.75503 0.82951 0.01748 0.0
C268 C 0.75883 0.75472 0.04223 0.0
C269 C 0.75745 0.85607 0.01899 0.0
O270 O 0.75083 0.86816 0.03808 0.0
C271 C 0.78942 0.82157 0.08587 0.0
C272 C 0.78127 0.73517 0.03816 0.0
C273 C 0.78501 0.71425 0.05411 0.0
C274 C 0.80411 0.69366 0.05031 0.0
C275 C 0.82013 0.69431 0.03077 0.0
C276 C 0.81721 0.71507 0.01478 0.0
C277 C 0.79742 0.73545 0.01825 0.0
O278 O 0.70284 0.77888 0.08485 0.0
O279 O 0.70019 0.80961 0.05593 0.0
O280 O 0.73104 0.81836 0.13591 0.0
O281 O 0.71893 0.83603 0.10448 0.0
C282 C 0.72067 0.83978 0.1263 0.0
O283 O 0.77579 0.82982 0.068 0.0
O284 O 0.78028 0.80111 0.09826 0.0
O285 O 0.75148 0.77101 0.02565 0.0
O286 O 0.75717 0.76598 0.06244 0.0
H287 H 0.77259 0.71359 0.06929 0.0
H288 H 0.83533 0.67859 0.02809 0.0
H289 H 0.79474 0.75126 0.00567 0.0
O290 O 0.73013 0.28004 0.86 0.0
Tb291 Tb 0.73558 0.24601 0.88331 0.0
Eu292 Eu 0.74449 0.23584 0.93926 0.0
C293 C 0.72723 0.30513 0.86753 0.0
O294 O 0.7316 0.31015 0.88908 0.0
C295 C 0.68771 0.24834 0.91813 0.0
O296 O 0.75496 0.21118 0.97005 0.0
C297 C 0.75827 0.28621 0.94598 0.0
C298 C 0.75781 0.18468 0.96831 0.0
O299 O 0.75139 0.17271 0.94913 0.0
C300 C 0.78898 0.22004 0.90155 0.0
C301 C 0.7808 0.30561 0.95046 0.0
C302 C 0.78755 0.3244 0.93336 0.0
C303 C 0.80602 0.34546 0.93764 0.0
C304 C 0.81826 0.3475 0.95891 0.0
C305 C 0.8122 0.32903 0.97615 0.0
C306 C 0.79344 0.3079 0.97199 0.0
O307 O 0.70242 0.26267 0.9038 0.0
O308 O 0.69966 0.23126 0.93207 0.0
O309 O 0.72567 0.22283 0.85302 0.0
O310 O 0.72049 0.20414 0.88531 0.0
C311 C 0.71835 0.20072 0.86349 0.0
O312 O 0.77554 0.21171 0.91952 0.0
O313 O 0.77941 0.2401 0.88892 0.0
O314 O 0.75054 0.26982 0.96237 0.0
O315 O 0.75683 0.27511 0.92569 0.0
H316 H 0.77775 0.32325 0.91693 0.0
H317 H 0.83291 0.36361 0.96208 0.0
H318 H 0.78824 0.29397 0.98554 0.0
O319 O 0.85922 0.76226 0.35889 0.0
Tb320 Tb 0.85397 0.79617 0.38243 0.0
Eu321 Eu 0.84418 0.80236 0.43893 0.0
C322 C 0.86233 0.73716 0.36633 0.0
O323 O 0.85833 0.7321 0.38791 0.0
C324 C 0.90139 0.7929 0.41767 0.0
O325 O 0.83254 0.82235 0.47168 0.0
C326 C 0.83149 0.75119 0.44155 0.0
C327 C 0.83376 0.84888 0.47414 0.0
O328 O 0.84396 0.86373 0.45769 0.0
C329 C 0.80066 0.8219 0.40173 0.0
C330 C 0.8095 0.73119 0.44558 0.0
C331 C 0.80616 0.71025 0.42959 0.0
C332 C 0.78734 0.68937 0.43331 0.0
C333 C 0.77123 0.68978 0.45281 0.0
C334 C 0.77373 0.71062 0.46881 0.0
C335 C 0.79323 0.73128 0.46541 0.0
O336 O 0.88716 0.77913 0.40265 0.0
O337 O 0.8889 0.80871 0.43231 0.0
O338 O 0.8639 0.81965 0.35232 0.0
O339 O 0.86971 0.83777 0.3848 0.0
C340 C 0.87168 0.84147 0.36299 0.0
O341 O 0.81359 0.82847 0.42049 0.0
O342 O 0.81022 0.80267 0.38819 0.0
O343 O 0.84032 0.76547 0.4589 0.0
O344 O 0.83111 0.76488 0.42237 0.0
H345 H 0.81861 0.70985 0.41443 0.0
H346 H 0.75622 0.67386 0.45542 0.0
H347 H 0.79556 0.74722 0.47795 0.0
O348 O 0.55591 0.58451 0.6101 0.0
Tb349 Tb 0.52142 0.57926 0.63306 0.0
Eu350 Eu 0.51481 0.57076 0.68994 0.0
C351 C 0.58078 0.58859 0.6178 0.0
O352 O 0.58553 0.58563 0.63955 0.0
C353 C 0.52407 0.62778 0.66786 0.0
O354 O 0.49477 0.55923 0.72271 0.0
C355 C 0.56592 0.55773 0.69248 0.0
C356 C 0.46817 0.55995 0.72493 0.0
O357 O 0.45334 0.56988 0.70835 0.0
C358 C 0.49512 0.52692 0.65336 0.0
C359 C 0.58572 0.53556 0.69651 0.0
C360 C 0.60662 0.532 0.68052 0.0
C361 C 0.6273 0.51296 0.68423 0.0
C362 C 0.62673 0.49687 0.70372 0.0
C363 C 0.60592 0.4996 0.71972 0.0
C364 C 0.58546 0.51931 0.71634 0.0
O365 O 0.53752 0.61366 0.65253 0.0
O366 O 0.50864 0.61535 0.68283 0.0
O367 O 0.48047 0.59696 0.63316 0.0
O368 O 0.49839 0.58442 0.60193 0.0
C369 C 0.47687 0.59491 0.61134 0.0
O370 O 0.48825 0.54036 0.67176 0.0
O371 O 0.51501 0.53584 0.64022 0.0
O372 O 0.5518 0.56677 0.70983 0.0
O373 O 0.55215 0.55738 0.67334 0.0
H374 H 0.60714 0.54443 0.66536 0.0
H375 H 0.6425 0.4817 0.70632 0.0
H376 H 0.56955 0.5218 0.72888 0.0
O377 O 0.03399 0.45656 0.1119 0.0
Tb378 Tb 0.06959 0.46176 0.1338 0.0
Eu379 Eu 0.07742 0.47083 0.1905 0.0
C380 C 1.00979 0.45192 0.12081 0.0
O381 O 1.00676 0.45442 0.14281 0.0
C382 C 0.06769 0.41368 0.16894 0.0
O383 O 0.09763 0.48254 0.22315 0.0
C384 C 0.02635 0.48408 0.19317 0.0
C385 C 0.12423 0.48192 0.22531 0.0
O386 O 0.13907 0.4721 0.20868 0.0
C387 C 0.09678 0.51426 0.1534 0.0
C388 C 1.0066 0.50633 0.19709 0.0
C389 C 0.98594 0.51004 0.18091 0.0
C390 C 0.96528 0.52914 0.18449 0.0
C391 C 0.96564 0.54516 0.20403 0.0
C392 C 0.98622 0.5423 0.22023 0.0
C393 C 1.00665 0.52252 0.21697 0.0
O394 O 0.05379 0.42784 0.15395 0.0
O395 O 0.08345 0.42614 0.18366 0.0
O396 O 0.09276 0.45469 0.10291 0.0
O397 O 0.11035 0.4439 0.13472 0.0
C398 C 0.11414 0.4446 0.11288 0.0
O399 O 0.10379 0.50097 0.17184 0.0
O400 O 0.0768 0.50526 0.14035 0.0
O401 O 0.04054 0.47517 0.21052 0.0
O402 O 0.04005 0.48421 0.17399 0.0
H403 H 0.98558 0.49768 0.1657 0.0
H404 H 0.94989 0.56037 0.20654 0.0
H405 H 0.02237 0.51992 0.22967 0.0
O406 O 0.55386 0.45569 0.37779 0.0
Tb407 Tb 0.51967 0.46143 0.35464 0.0
Eu408 Eu 0.51029 0.4707 0.29849 0.0
C409 C 0.57888 0.45269 0.3701 0.0
O410 O 0.58369 0.45708 0.34852 0.0
C411 C 0.52163 0.41373 0.3196 0.0
O412 O 0.48608 0.48139 0.26749 0.0
C413 C 0.561 0.48361 0.29233 0.0
C414 C 0.45952 0.484 0.269 0.0
O415 O 0.44737 0.47734 0.28803 0.0
C416 C 0.49413 0.51504 0.33625 0.0
C417 C 0.58101 0.50561 0.28822 0.0
C418 C 0.6022 0.5088 0.30402 0.0
C419 C 0.62314 0.52753 0.30018 0.0
C420 C 0.62258 0.54368 0.28073 0.0
C421 C 0.60154 0.54131 0.26489 0.0
C422 C 0.5808 0.52192 0.26841 0.0
O423 O 0.53602 0.42813 0.33411 0.0
O424 O 0.50491 0.42599 0.30553 0.0
O425 O 0.49651 0.45165 0.38496 0.0
O426 O 0.47773 0.44646 0.35268 0.0
C427 C 0.47435 0.44436 0.37451 0.0
O428 O 0.48614 0.50187 0.31804 0.0
O429 O 0.5139 0.50528 0.34912 0.0
O430 O 0.54464 0.47646 0.27572 0.0
O431 O 0.54961 0.48232 0.31251 0.0
H432 H 0.60278 0.49628 0.31913 0.0
H433 H 0.63854 0.55862 0.27802 0.0
H434 H 0.56474 0.51968 0.25597 0.0
O435 O 0.03701 0.58653 0.87716 0.0
Tb436 Tb 0.07044 0.58001 0.85339 0.0
Eu437 Eu 0.07914 0.57182 0.79688 0.0
C438 C 1.01167 0.58865 0.86998 0.0
O439 O 1.00619 0.58282 0.84875 0.0
C440 C 0.06672 0.62815 0.81889 0.0
O441 O 0.10328 0.56238 0.76557 0.0
C442 C 0.0287 0.55787 0.79061 0.0
C443 C 0.12991 0.56049 0.76678 0.0
O444 O 0.14214 0.56712 0.7858 0.0
C445 C 0.096 0.52708 0.83388 0.0
C446 C 1.00921 0.53542 0.78618 0.0
C447 C 0.99086 0.52831 0.80352 0.0
C448 C 0.96962 0.51002 0.79934 0.0
C449 C 0.96698 0.49827 0.77792 0.0
C450 C 0.98499 0.50471 0.76041 0.0
C451 C 1.00629 0.52332 0.76448 0.0
O452 O 0.05297 0.61325 0.83347 0.0
O453 O 0.08354 0.6165 0.80454 0.0
O454 O 0.09576 0.58657 0.88313 0.0
O455 O 0.11124 0.59766 0.85065 0.0
C456 C 0.11649 0.59665 0.87228 0.0
O457 O 0.10397 0.54073 0.81592 0.0
O458 O 0.07596 0.53637 0.8467 0.0
O459 O 0.04482 0.56581 0.7741 0.0
O460 O 0.04013 0.55913 0.81079 0.0
H461 H 0.99245 0.53775 0.82007 0.0
H462 H 0.95072 0.48376 0.77483 0.0
H463 H 1.01983 0.52885 0.75074 0.0
C464 C 0.03084 0.16783 0.14735 0.0
C465 C 0.02453 0.15228 0.16666 0.0
C466 C 0.03452 0.19604 0.14892 0.0
C467 C 0.05632 0.25056 0.18618 0.0
H468 H 1.01474 0.2979 0.14674 0.0
C469 C 0.06771 0.36882 0.19001 0.0
C470 C 0.06337 0.3837 0.17 0.0
C471 C 0.06238 0.34069 0.19076 0.0
C472 C 0.02702 0.28514 0.15762 0.0
H473 H 1.01746 0.15428 0.20286 0.0
H474 H 0.02484 0.20367 0.2057 0.0
H475 H 1.00699 0.24903 0.14571 0.0
H476 H 0.05107 0.38044 0.13486 0.0
H477 H 0.04329 0.33176 0.1357 0.0
H478 H 0.07738 0.28628 0.19739 0.0
C479 C 0.02654 0.19389 0.18931 0.0
C480 C 0.0223 0.25702 0.15714 0.0
C481 C 0.02217 0.16567 0.18766 0.0
C482 C 0.05427 0.3697 0.15067 0.0
C483 C 0.04953 0.34162 0.15125 0.0
C484 C 0.06152 0.27869 0.18633 0.0
C485 C 0.03261 0.20939 0.16992 0.0
C486 C 0.03694 0.23939 0.17133 0.0
C487 C 0.05309 0.32659 0.17137 0.0
C488 C 0.04708 0.2965 0.17192 0.0
H489 H 0.03273 0.15821 0.13091 0.0
H490 H 0.03929 0.20741 0.13371 0.0
H491 H 0.06807 0.23742 0.1972 0.0
H492 H 0.07459 0.379 0.20525 0.0
H493 H 0.06511 0.3302 0.2067 0.0
C494 C 0.9455 0.78029 0.39922 0.0
C495 C 0.93139 0.78872 0.4187 0.0
C496 C 0.97366 0.77588 0.39976 0.0
C497 C 0.03635 0.78754 0.43543 0.0
H498 H 0.06706 0.73509 0.39349 0.0
C499 C 0.14922 0.74734 0.43678 0.0
C500 C 0.1632 0.75154 0.41627 0.0
C501 C 0.12099 0.75181 0.4382 0.0
C502 C 0.05876 0.74981 0.4053 0.0
H503 H 0.93589 0.79902 0.45415 0.0
H504 H 0.98478 0.79001 0.45555 0.0
H505 H 1.01805 0.74222 0.39435 0.0
H506 H 0.15835 0.76326 0.38109 0.0
H507 H 0.10906 0.76998 0.3834 0.0
H508 H 0.07745 0.79399 0.44688 0.0
C509 C 0.97437 0.78763 0.43952 0.0
C510 C 0.03057 0.75419 0.40569 0.0
C511 C 0.94619 0.79267 0.43881 0.0
C512 C 0.14825 0.75993 0.39717 0.0
C513 C 0.12002 0.76371 0.39845 0.0
C514 C 0.06454 0.78262 0.43539 0.0
C515 C 0.98864 0.77908 0.41998 0.0
C516 C 1.01882 0.77349 0.42049 0.0
C517 C 0.10609 0.75984 0.41898 0.0
C518 C 0.07606 0.76399 0.42009 0.0
H519 H 0.9348 0.77741 0.38335 0.0
H520 H 0.98361 0.77022 0.38411 0.0
H521 H 0.0285 0.80284 0.44688 0.0
H522 H 0.16015 0.74097 0.45181 0.0
H523 H 0.11073 0.7486 0.45421 0.0
C524 C 0.55849 0.87421 0.64774 0.0
C525 C 0.56605 0.88944 0.66694 0.0
C526 C 0.5549 0.84599 0.64911 0.0
C527 C 0.53535 0.79073 0.68626 0.0
H528 H 0.57548 0.74425 0.64506 0.0
C529 C 0.52471 0.67245 0.6892 0.0
C530 C 0.52841 0.65776 0.66899 0.0
C531 C 0.52992 0.70058 0.69004 0.0
C532 C 0.5636 0.75677 0.65644 0.0
H533 H 0.57539 0.88685 0.70275 0.0
H534 H 0.56811 0.83739 0.70528 0.0
H535 H 0.58287 0.79319 0.64436 0.0
H536 H 0.5395 0.66137 0.63361 0.0
H537 H 0.54705 0.71011 0.63462 0.0
H538 H 0.51497 0.75475 0.69765 0.0
C539 C 0.56539 0.84746 0.68912 0.0
C540 C 0.56813 0.78492 0.65615 0.0
C541 C 0.56967 0.87571 0.68764 0.0
C542 C 0.53679 0.67197 0.64956 0.0
C543 C 0.54141 0.70008 0.65024 0.0
C544 C 0.53031 0.76258 0.68622 0.0
C545 C 0.55813 0.83229 0.66981 0.0
C546 C 0.55402 0.80224 0.67099 0.0
C547 C 0.53844 0.71493 0.67055 0.0
C548 C 0.54424 0.74506 0.6712 0.0
H549 H 0.55563 0.8841 0.63152 0.0
H550 H 0.54921 0.83486 0.63398 0.0
H551 H 0.52401 0.80364 0.69777 0.0
H552 H 0.5184 0.6621 0.70452 0.0
H553 H 0.52771 0.7109 0.70613 0.0
C554 C 0.43957 0.29399 0.93614 0.0
C555 C 0.42595 0.29049 0.91536 0.0
C556 C 0.4678 0.28961 0.93776 0.0
C557 C 0.53066 0.2933 0.90594 0.0
H558 H 0.56014 0.23766 0.94543 0.0
C559 C 0.64406 0.26297 0.89989 0.0
C560 C 0.65775 0.25298 0.91906 0.0
C561 C 0.61592 0.26757 0.90031 0.0
C562 C 0.55252 0.25369 0.9346 0.0
H563 H 0.43145 0.28016 0.87994 0.0
H564 H 0.48074 0.27364 0.88263 0.0
H565 H 0.5112 0.24657 0.94522 0.0
H566 H 0.65252 0.24018 0.95386 0.0
H567 H 0.6037 0.24953 0.95513 0.0
H568 H 0.57156 0.30152 0.89586 0.0
C569 C 0.4695 0.27927 0.89771 0.0
C570 C 0.52433 0.25864 0.93443 0.0
C571 C 0.44127 0.28293 0.89622 0.0
C572 C 0.64256 0.24775 0.93875 0.0
C573 C 0.6144 0.25298 0.93937 0.0
C574 C 0.55885 0.28887 0.90648 0.0
C575 C 0.48307 0.28238 0.9185 0.0
C576 C 0.51309 0.27823 0.91986 0.0
C577 C 0.60053 0.263 0.92013 0.0
C578 C 0.57033 0.26864 0.92053 0.0
H579 H 0.42835 0.2997 0.95121 0.0
H580 H 0.47779 0.29222 0.95397 0.0
H581 H 0.52256 0.30873 0.89469 0.0
H582 H 0.65506 0.26687 0.88432 0.0
H583 H 0.6063 0.27442 0.88485 0.0
C584 C 0.0665 0.67327 0.79836 0.0
C585 C 0.06174 0.65802 0.8181 0.0
C586 C 0.06106 0.70135 0.79785 0.0
C587 C 0.0254 0.7566 0.83118 0.0
H588 H 0.06709 0.80438 0.7921 0.0
C589 C 0.03054 0.87418 0.84118 0.0
C590 C 0.02327 0.88941 0.82193 0.0
C591 C 0.03418 0.84596 0.83979 0.0
C592 C 0.05519 0.79121 0.80299 0.0
H593 H 0.04838 0.66052 0.85301 0.0
H594 H 0.04046 0.70922 0.85264 0.0
H595 H 0.07625 0.75555 0.79184 0.0
H596 H 1.01452 0.88685 0.78601 0.0
H597 H 0.02194 0.83745 0.78344 0.0
H598 H 1.00545 0.79277 0.84311 0.0
C599 C 0.04713 0.69966 0.83709 0.0
C600 C 0.06027 0.76309 0.80278 0.0
C601 C 0.05195 0.67158 0.83741 0.0
C602 C 1.01998 0.87571 0.80116 0.0
C603 C 0.02435 0.84749 0.79966 0.0
C604 C 1.02082 0.78474 0.83175 0.0
C605 C 0.05129 0.7151 0.81725 0.0
C606 C 0.04553 0.74523 0.81696 0.0
C607 C 0.03134 0.83232 0.819 0.0
C608 C 0.03567 0.80236 0.8177 0.0
H609 H 0.0739 0.6634 0.78315 0.0
H610 H 0.06417 0.71209 0.78208 0.0
H611 H 1.01292 0.74383 0.84191 0.0
H612 H 0.03315 0.88408 0.85744 0.0
H613 H 0.03965 0.8348 0.85495 0.0
C614 C 0.44035 0.74625 0.05046 0.0
C615 C 0.42665 0.74914 0.07126 0.0
C616 C 0.46862 0.75057 0.04903 0.0
C617 C 0.53143 0.74664 0.08143 0.0
H618 H 0.56088 0.80225 0.04188 0.0
C619 C 0.64447 0.77818 0.08825 0.0
C620 C 0.65831 0.78804 0.06911 0.0
C621 C 0.61637 0.77331 0.08763 0.0
C622 C 0.55327 0.78622 0.05273 0.0
H623 H 0.43207 0.75823 0.10693 0.0
H624 H 0.48137 0.76465 0.10455 0.0
H625 H 0.51203 0.79293 0.04176 0.0
H626 H 0.65337 0.80031 0.03414 0.0
H627 H 0.60465 0.79053 0.03256 0.0
H628 H 0.57229 0.73889 0.09189 0.0
C629 C 0.4702 0.75953 0.0893 0.0
C630 C 0.52513 0.78103 0.05271 0.0
C631 C 0.44194 0.75592 0.09063 0.0
C632 C 0.6433 0.79286 0.04924 0.0
C633 C 0.6152 0.78738 0.04843 0.0
C634 C 0.55958 0.75133 0.08109 0.0
C635 C 0.48384 0.75711 0.06848 0.0
C636 C 0.51387 0.76145 0.0673 0.0
C637 C 0.60119 0.77748 0.06764 0.0
C638 C 0.57105 0.77155 0.06703 0.0
H639 H 0.42916 0.74117 0.03522 0.0
H640 H 0.47865 0.7485 0.03278 0.0
H641 H 0.52335 0.73122 0.09269 0.0
H642 H 0.65532 0.77457 0.10395 0.0
H643 H 0.60662 0.76656 0.10306 0.0
C644 C 0.52057 0.36878 0.29873 0.0
C645 C 0.52573 0.38374 0.31861 0.0
C646 C 0.52501 0.34052 0.29812 0.0
C647 C 0.52469 0.27996 0.3331 0.0
H648 H 0.57608 0.24783 0.29107 0.0
C649 C 0.55569 0.16708 0.34189 0.0
C650 C 0.56341 0.15215 0.32263 0.0
C651 C 0.55118 0.19518 0.34063 0.0
C652 C 0.56121 0.25618 0.30268 0.0
H653 H 0.53912 0.38059 0.35352 0.0
H654 H 0.54579 0.33129 0.35264 0.0
H655 H 0.56701 0.29667 0.28966 0.0
H656 H 0.57227 0.15514 0.2868 0.0
H657 H 0.56306 0.20384 0.28419 0.0
H658 H 0.51774 0.23985 0.34564 0.0
C659 C 0.5388 0.34149 0.33745 0.0
C660 C 0.55618 0.28431 0.3019 0.0
C661 C 0.53505 0.36974 0.3379 0.0
C662 C 0.56651 0.16607 0.302 0.0
C663 C 0.56136 0.19417 0.30059 0.0
C664 C 0.52917 0.25181 0.33355 0.0
C665 C 0.53397 0.32657 0.31755 0.0
C666 C 0.53815 0.29653 0.31732 0.0
C667 C 0.55355 0.20926 0.3199 0.0
C668 C 0.54787 0.23938 0.3186 0.0
H669 H 0.51346 0.37896 0.28358 0.0
H670 H 0.52106 0.32948 0.28257 0.0
H671 H 0.51045 0.28881 0.34505 0.0
H672 H 0.55345 0.15706 0.35813 0.0
H673 H 0.54609 0.2058 0.35611 0.0
C674 C 0.14957 0.28265 0.59134 0.0
C675 C 0.16462 0.29043 0.57217 0.0
C676 C 0.12152 0.27788 0.58989 0.0
C677 C 0.06065 0.28729 0.55174 0.0
H678 H 0.02856 0.23566 0.59361 0.0
C679 C 0.94809 0.24658 0.54747 0.0
C680 C 0.9333 0.2509 0.56757 0.0
C681 C 0.97636 0.25107 0.54684 0.0
C682 C 0.03725 0.25013 0.58181 0.0
H683 H 0.16189 0.29922 0.53632 0.0
H684 H 0.1132 0.28964 0.53341 0.0
H685 H 0.07746 0.24352 0.59434 0.0
H686 H 0.93675 0.26279 0.60284 0.0
H687 H 0.98605 0.26957 0.60189 0.0
H688 H 1.02008 0.29283 0.53877 0.0
C689 C 0.12279 0.28804 0.54986 0.0
C690 C 0.06536 0.25494 0.58233 0.0
C691 C 0.15085 0.29342 0.55145 0.0
C692 C 0.94748 0.25937 0.58706 0.0
C693 C 0.97573 0.26317 0.58656 0.0
C694 C 0.03256 0.28197 0.5509 0.0
C695 C 0.10761 0.28007 0.56907 0.0
C696 C 0.07758 0.27398 0.56759 0.0
C697 C 0.99048 0.25925 0.56644 0.0
C698 C 1.02052 0.26363 0.56616 0.0
H699 H 0.15946 0.28049 0.60765 0.0
H700 H 0.11079 0.27269 0.6053 0.0
H701 H 0.06888 0.30237 0.54028 0.0
H702 H 0.93776 0.24017 0.53216 0.0
H703 H 0.98727 0.24781 0.53112 0.0
C704 C 0.23757 0.21367 0.99209 0.0
C705 C 0.26128 0.19875 0.98741 0.0
C706 C 0.21901 0.2044 0.00849 0.0
C707 C 0.20992 0.15271 0.05484 0.0
H708 H 0.13393 0.15676 0.03745 0.0
C709 C 0.09886 0.09926 0.07782 0.0
C710 C 0.10153 0.09735 0.10148 0.0
C711 C 0.11873 0.11263 0.06483 0.0
C712 C 0.15507 0.15514 0.04248 0.0
H713 H 0.28497 0.16344 -0.00312 0.0
H714 H 0.25298 0.14727 0.0252 0.0
H715 H 0.16818 0.17975 0.01461 0.0
H716 H 0.12746 0.10786 0.12994 0.0
H717 H 0.16143 0.13152 0.10761 0.0
H718 H 0.1971 0.12698 0.08198 0.0
C719 C 0.24853 0.16624 0.01666 0.0
C720 C 0.17475 0.16883 0.02957 0.0
C721 C 0.26698 0.17551 0.0004 0.0
C722 C 0.12475 0.10872 0.11175 0.0
C723 C 0.14441 0.12226 0.09885 0.0
C724 C 0.19032 0.13883 0.0676 0.0
C725 C 0.22381 0.18001 0.02045 0.0
C726 C 0.20252 0.16762 0.03543 0.0
C727 C 0.14168 0.12462 0.0752 0.0
C728 C 0.16258 0.13967 0.06156 0.0
H729 H 0.23253 0.23144 0.98208 0.0
H730 H 0.20045 0.21585 0.0112 0.0
H731 H 0.231 0.15151 0.06013 0.0
H732 H 0.08126 0.09074 0.06934 0.0
H733 H 0.11608 0.11349 0.04664 0.0
C734 C 0.10967 0.94853 0.22776 0.0
C735 C 0.10866 0.97646 0.23275 0.0
C736 C 0.11893 0.92987 0.24389 0.0
C737 C 0.16538 0.92803 0.29293 0.0
H738 H 0.14239 0.85268 0.29651 0.0
C739 C 0.21452 0.85044 0.35485 0.0
C740 C 0.21856 0.8237 0.34699 0.0
C741 C 0.20013 0.86941 0.34181 0.0
C742 C 0.14925 0.8736 0.29555 0.0
H743 H 0.1152 1.0067 0.25879 0.0
H744 H 0.13069 0.97401 0.28739 0.0
H745 H 0.11609 0.88485 0.27391 0.0
H746 H 0.21118 0.79625 0.31887 0.0
H747 H 0.18636 0.82942 0.29603 0.0
H748 H 0.19868 0.91672 0.31439 0.0
C749 C 0.12464 0.96651 0.27089 0.0
C750 C 0.13408 0.8921 0.28264 0.0
C751 C 0.11529 0.9852 0.2547 0.0
C752 C 0.20849 0.81665 0.32547 0.0
C753 C 0.19399 0.83561 0.31246 0.0
C754 C 0.1805 0.90954 0.30588 0.0
C755 C 0.12761 0.93873 0.26539 0.0
C756 C 0.14208 0.91953 0.28094 0.0
C757 C 0.18929 0.86214 0.32059 0.0
C758 C 0.17283 0.882 0.30718 0.0
H759 H 0.10522 0.9414 0.21078 0.0
H760 H 0.12112 0.90878 0.23887 0.0
H761 H 0.17255 0.94882 0.2917 0.0
H762 H 0.22193 0.8566 0.37136 0.0
H763 H 0.19679 0.88957 0.3487 0.0
C764 C 0.33135 0.8414 0.50672 0.0
C765 C 0.33912 0.83072 0.48563 0.0
C766 C 0.35108 0.85105 0.52193 0.0
C767 C 0.41907 0.88194 0.51935 0.0
H768 H 0.41644 0.8788 0.58489 0.0
C769 C 0.50231 0.93171 0.57531 0.0
C770 C 0.49446 0.94318 0.59613 0.0
C771 C 0.48363 0.91696 0.56221 0.0
C772 C 0.41729 0.88021 0.5666 0.0
H773 H 0.37338 0.8204 0.4643 0.0
H774 H 0.40789 0.83648 0.491 0.0
H775 H 0.38397 0.85231 0.56258 0.0
H776 H 0.46044 0.94897 0.61906 0.0
H777 H 0.42774 0.92402 0.59596 0.0
H778 H 0.45181 0.91028 0.52319 0.0
C779 C 0.38664 0.8377 0.4958 0.0
C780 C 0.39874 0.86485 0.55382 0.0
C781 C 0.36694 0.82803 0.48068 0.0
C782 C 0.46724 0.94031 0.60316 0.0
C783 C 0.44852 0.92571 0.59 0.0
C784 C 0.43746 0.8974 0.53209 0.0
C785 C 0.3789 0.85044 0.51616 0.0
C786 C 0.3994 0.86552 0.53002 0.0
C787 C 0.45653 0.91344 0.5695 0.0
C788 C 0.43685 0.89684 0.55591 0.0
H789 H 0.31 0.84438 0.51063 0.0
H790 H 0.34438 0.86086 0.53739 0.0
H791 H 0.4198 0.88347 0.50106 0.0
H792 H 0.52315 0.93331 0.56946 0.0
H793 H 0.49073 0.90762 0.54668 0.0
C794 C 0.38128 0.22531 0.82338 0.0
C795 C 0.37169 0.2183 0.84505 0.0
C796 C 0.3957 0.2064 0.81024 0.0
C797 C 0.40988 0.13249 0.80385 0.0
H798 H 0.47321 0.15766 0.7707 0.0
C799 C 0.47556 0.05717 0.7525 0.0
C800 C 0.48154 0.06566 0.73037 0.0
C801 C 0.46604 0.07593 0.7686 0.0
C802 C 0.45553 0.15028 0.77977 0.0
H803 H 0.36906 0.18551 0.86955 0.0
H804 H 0.39409 0.15265 0.8467 0.0
H805 H 0.447 0.18975 0.79349 0.0
H806 H 0.48364 0.10037 0.70794 0.0
H807 H 0.46748 0.13312 0.73587 0.0
H808 H 0.41809 0.09314 0.78986 0.0
C809 C 0.39043 0.17272 0.83977 0.0
C810 C 0.4404 0.16874 0.79278 0.0
C811 C 0.37611 0.19164 0.85293 0.0
C812 C 0.47966 0.09345 0.72505 0.0
C813 C 0.47027 0.11218 0.74108 0.0
C814 C 0.42498 0.11405 0.79082 0.0
C815 C 0.4008 0.17996 0.81839 0.0
C816 C 0.4172 0.16016 0.80483 0.0
C817 C 0.46231 0.10353 0.76282 0.0
C818 C 0.44788 0.12272 0.77841 0.0
H819 H 0.37828 0.24565 0.81676 0.0
H820 H 0.40294 0.21255 0.79369 0.0
H821 H 0.39199 0.12518 0.81269 0.0
H822 H 0.47635 0.03577 0.75686 0.0
H823 H 0.46052 0.06862 0.78528 0.0
C824 C 0.26797 0.86521 0.98472 0.0
C825 C 0.26233 0.84226 -0.00191 0.0
C826 C 0.24924 0.87439 0.96865 0.0
C827 C 0.20984 0.88784 0.93105 0.0
H828 H 0.13424 0.88461 0.94966 0.0
C829 C 0.12396 0.93253 0.8753 0.0
C830 C 0.10107 0.94412 0.88588 0.0
C831 C 0.14372 0.91875 0.88794 0.0
C832 C 0.15527 0.886 0.94428 0.0
H833 H 0.23339 0.80995 0.00425 0.0
H834 H 0.20081 0.82535 0.97545 0.0
H835 H 0.16879 0.86156 0.9721 0.0
H836 H 0.08144 0.95087 0.91827 0.0
H837 H 0.11645 0.92777 0.9405 0.0
H838 H 0.19665 0.91346 0.90397 0.0
C839 C 0.21953 0.83666 0.97773 0.0
C840 C 0.17512 0.87226 0.95697 0.0
C841 C 0.23838 0.82749 -0.00606 0.0
C842 C 0.09879 0.94216 0.90956 0.0
C843 C 0.11877 0.92861 0.92228 0.0
C844 C 0.19008 0.90178 0.91852 0.0
C845 C 0.22429 0.86081 0.96542 0.0
C846 C 0.20277 0.87319 0.95067 0.0
C847 C 0.14141 0.91642 0.91162 0.0
C848 C 0.16248 0.90125 0.925 0.0
H849 H 0.28615 0.87716 0.98781 0.0
H850 H 0.25368 0.89318 0.95983 0.0
H851 H 0.2308 0.88881 0.9254 0.0
H852 H 0.12634 0.93339 0.85707 0.0
H853 H 0.16046 0.90934 0.87895 0.0
C854 C 0.48752 0.9644 0.2442 0.0
C855 C 0.47231 0.98788 0.24901 0.0
C856 C 0.47838 0.94578 0.2278 0.0
C857 C 0.42646 0.93612 0.18167 0.0
H858 H 0.43131 0.86027 0.19914 0.0
C859 C 0.37371 0.82468 0.15917 0.0
C860 C 0.37168 0.82719 0.13551 0.0
C861 C 0.38701 0.8447 0.17205 0.0
C862 C 0.42948 0.88137 0.19409 0.0
H863 H 0.43664 1.01115 0.23971 0.0
H864 H 0.42067 0.97906 0.21138 0.0
H865 H 0.45418 0.89476 0.22183 0.0
H866 H 0.38185 0.853 0.10692 0.0
H867 H 0.4054 0.88726 0.12907 0.0
H868 H 0.40064 0.92301 0.15466 0.0
C869 C 0.43977 0.97483 0.21984 0.0
C870 C 0.44309 0.90118 0.20691 0.0
C871 C 0.44891 0.99333 0.23611 0.0
C872 C 0.38283 0.85041 0.12512 0.0
C873 C 0.39631 0.87023 0.13791 0.0
C874 C 0.41266 0.91638 0.169 0.0
C875 C 0.45383 0.95031 0.21595 0.0
C876 C 0.44157 0.92891 0.20102 0.0
C877 C 0.3988 0.86764 0.16156 0.0
C878 C 0.41378 0.88869 0.17508 0.0
H879 H 0.50542 0.95956 0.25414 0.0
H880 H 0.49004 0.92739 0.225 0.0
H881 H 0.42502 0.95716 0.17637 0.0
H882 H 0.36534 0.80708 0.16774 0.0
H883 H 0.38799 0.84217 0.19024 0.0
C884 C 0.33071 0.20135 0.484 0.0
C885 C 0.33943 0.20703 0.50614 0.0
C886 C 0.34932 0.19202 0.46771 0.0
C887 C 0.4236 0.18126 0.45614 0.0
H888 H 0.39791 0.11814 0.42297 0.0
C889 C 0.49792 0.10638 0.41261 0.0
C890 C 0.49098 0.09712 0.39082 0.0
C891 C 0.47909 0.12093 0.42571 0.0
C892 C 0.40538 0.13591 0.43188 0.0
H893 H 0.37438 0.20886 0.52837 0.0
H894 H 0.40685 0.19299 0.50011 0.0
H895 H 0.36612 0.14432 0.44598 0.0
H896 H 0.45838 0.09518 0.36606 0.0
H897 H 0.42561 0.1204 0.38889 0.0
H898 H 0.463 0.17248 0.44236 0.0
C899 C 0.38586 0.19588 0.49504 0.0
C900 C 0.38708 0.15106 0.44501 0.0
C901 C 0.36729 0.2051 0.51127 0.0
C902 C 0.46445 0.10197 0.38277 0.0
C903 C 0.44559 0.11641 0.3959 0.0
C904 C 0.44191 0.16607 0.44306 0.0
C905 C 0.37698 0.18817 0.4733 0.0
C906 C 0.39597 0.1738 0.45752 0.0
C907 C 0.45279 0.12647 0.4174 0.0
C908 C 0.43311 0.14301 0.43094 0.0
H909 H 0.30925 0.20219 0.47978 0.0
H910 H 0.34183 0.18671 0.45103 0.0
H911 H 0.43115 0.19883 0.46528 0.0
H912 H 0.51816 0.10305 0.41935 0.0
H913 H 0.48519 0.12795 0.44235 0.0
C914 C 0.10498 0.09282 0.75614 0.0
C915 C 0.10454 0.06484 0.75131 0.0
C916 C 0.11467 0.11146 0.74017 0.0
C917 C 0.16312 0.11319 0.69244 0.0
H918 H 0.14043 0.18857 0.68827 0.0
C919 C 0.21458 0.19092 0.63192 0.0
C920 C 0.21858 0.21754 0.64006 0.0
C921 C 0.19968 0.17191 0.64452 0.0
C922 C 0.14719 0.16764 0.6894 0.0
H923 H 0.11242 0.03448 0.72563 0.0
H924 H 0.12855 0.06711 0.69725 0.0
H925 H 0.11314 0.15641 0.71008 0.0
H926 H 0.21057 0.24476 0.66821 0.0
H927 H 0.18479 0.21154 0.69027 0.0
H928 H 0.19727 0.12449 0.6719 0.0
C929 C 0.12178 0.07468 0.71354 0.0
C930 C 0.13146 0.14914 0.70186 0.0
C931 C 0.11205 0.05601 0.72959 0.0
C932 C 0.20795 0.22445 0.66143 0.0
C933 C 0.1929 0.20547 0.67397 0.0
C934 C 0.17878 0.13166 0.67992 0.0
C935 C 0.12431 0.10253 0.71897 0.0
C936 C 0.13937 0.1217 0.70378 0.0
C937 C 0.18824 0.17906 0.66554 0.0
C938 C 0.1712 0.15921 0.67844 0.0
H939 H 0.09988 0.10002 0.77297 0.0
H940 H 0.11648 0.13259 0.74514 0.0
H941 H 0.17024 0.09241 0.69387 0.0
H942 H 0.22244 0.18488 0.61552 0.0
H943 H 0.19641 0.15184 0.63743 0.0
C944 C 0.92988 0.92871 0.88344 0.0
C945 C 0.94995 0.94507 0.89347 0.0
C946 C 0.90665 0.92127 0.89571 0.0
C947 C 0.88127 0.91738 0.9551 0.0
H948 H 0.81139 0.90585 0.92598 0.0
C949 C 0.78504 0.89612 0.00673 0.0
C950 C 0.77288 0.871 0.00147 0.0
C951 C 0.80385 0.90784 0.99193 0.0
C952 C 0.83081 0.90908 0.93425 0.0
H953 H 0.96123 0.96745 0.92365 0.0
H954 H 0.92034 0.95571 0.94466 0.0
H955 H 0.85026 0.92131 0.90346 0.0
H956 H 0.76925 0.83953 0.97586 0.0
H957 H 0.8018 0.86044 0.94974 0.0
H958 H 0.86161 0.90567 0.98592 0.0
C959 C 0.92277 0.94756 0.92774 0.0
C960 C 0.85315 0.91771 0.92139 0.0
C961 C 0.94617 0.95448 0.91566 0.0
C962 C 0.77839 0.85885 0.9804 0.0
C963 C 0.79692 0.87082 0.96542 0.0
C964 C 0.85889 0.90927 0.96795 0.0
C965 C 0.90286 0.9305 0.9181 0.0
C966 C 0.87874 0.92186 0.93164 0.0
C967 C 0.81049 0.8949 0.97145 0.0
C968 C 0.83352 0.90494 0.95766 0.0
H969 H 0.93242 0.92118 0.86632 0.0
H970 H 0.89202 0.90781 0.88778 0.0
H971 H 0.9007 0.91958 0.96357 0.0
H972 H 0.78125 0.906 0.02283 0.0
H973 H 0.81395 0.92654 -0.00316 0.0
C974 C 0.89398 0.16013 0.63017 0.0
C975 C 0.87702 0.1802 0.63945 0.0
C976 C 0.90158 0.13752 0.64311 0.0
C977 C 0.9044 0.11413 0.70311 0.0
H978 H 0.91753 0.04357 0.67569 0.0
C979 C 0.92388 1.01907 0.75675 0.0
C980 C 0.9493 1.00695 0.75252 0.0
C981 C 0.9129 0.03767 0.74141 0.0
C982 C 0.91387 0.0632 0.68349 0.0
H983 H 0.85378 0.19214 0.66899 0.0
H984 H 0.86581 0.15227 0.69117 0.0
H985 H 0.90227 0.08152 0.65207 0.0
H986 H 0.98223 1.00331 0.72822 0.0
H987 H 0.96258 0.03547 0.70109 0.0
H988 H 0.91538 0.09553 0.73457 0.0
C989 C 0.8743 0.15426 0.67433 0.0
C990 C 0.90535 0.085 0.66999 0.0
C991 C 0.8672 0.17707 0.66158 0.0
C992 C 0.96265 1.01241 0.73195 0.0
C993 C 0.95141 0.03071 0.71641 0.0
C994 C 0.91238 0.09226 0.71659 0.0
C995 C 0.89192 0.13434 0.66543 0.0
C996 C 0.90059 0.11082 0.67963 0.0
C997 C 0.92689 0.04412 0.72138 0.0
C998 C 0.91727 0.06666 0.70691 0.0
H999 H 0.90183 0.16219 0.61311 0.0
H1000 H 0.91548 0.12288 0.63574 0.0
H1001 H 0.90171 0.13376 0.71113 0.0
H1002 H 0.91311 1.01532 0.77245 0.0
H1003 H 0.89387 0.04768 0.7455 0.0
C1004 C 0.66078 0.1142 0.38107 0.0
C1005 C 0.64168 0.09686 0.39124 0.0
C1006 C 0.68434 0.12186 0.39283 0.0
C1007 C 0.71167 0.1244 0.45164 0.0
H1008 H 0.78016 0.13961 0.42146 0.0
C1009 C 0.80836 0.14657 0.50209 0.0
C1010 C 0.81926 0.17246 0.49763 0.0
C1011 C 0.78976 0.13482 0.48712 0.0
C1012 C 0.76112 0.13534 0.43002 0.0
H1013 H 0.6326 0.07277 0.421 0.0
H1014 H 0.67406 0.08486 0.44102 0.0
H1015 H 0.74111 0.12372 0.39927 0.0
H1016 H 0.82099 0.20534 0.47317 0.0
H1017 H 0.78877 0.1844 0.44675 0.0
H1018 H 0.73185 0.1355 0.48238 0.0
C1019 C 0.67058 0.09366 0.42447 0.0
C1020 C 0.7387 0.12646 0.41735 0.0
C1021 C 0.64686 0.08653 0.41294 0.0
C1022 C 0.8128 0.18542 0.47709 0.0
C1023 C 0.79448 0.17344 0.46194 0.0
C1024 C 0.73413 0.13274 0.46426 0.0
C1025 C 0.68941 0.11186 0.4148 0.0
C1026 C 0.71362 0.12093 0.42802 0.0
C1027 C 0.78208 0.14851 0.46726 0.0
C1028 C 0.75901 0.13835 0.45359 0.0
H1029 H 0.65714 0.12241 0.36431 0.0
H1030 H 0.69816 0.13613 0.38491 0.0
H1031 H 0.6926 0.12118 0.46044 0.0
H1032 H 0.81292 0.13604 0.51775 0.0
H1033 H 0.78056 0.11547 0.49147 0.0
C1034 C 0.72355 0.86931 0.16025 0.0
C1035 C 0.7129 0.86463 0.13858 0.0
C1036 C 0.71593 0.89231 0.17252 0.0
C1037 C 0.68088 0.95953 0.16782 0.0
H1038 H 0.67408 0.95 0.2328 0.0
C1039 C 0.62318 0.03049 0.23121 0.0
C1040 C 0.63733 0.03679 0.25125 0.0
C1041 C 0.63448 1.01264 0.21531 0.0
C1042 C 0.67616 0.95301 0.21469 0.0
H1043 H 0.68624 0.88024 0.11245 0.0
H1044 H 0.67168 0.91997 0.13436 0.0
H1045 H 0.68856 0.91197 0.20949 0.0
H1046 H 0.67501 0.03054 0.26976 0.0
H1047 H 0.69438 0.99896 0.24221 0.0
H1048 H 0.66695 1.00048 0.17336 0.0
C1049 C 0.68657 0.90633 0.14169 0.0
C1050 C 0.6846 0.93127 0.20128 0.0
C1051 C 0.69472 0.88351 0.12918 0.0
C1052 C 0.66358 0.02609 0.25451 0.0
C1053 C 0.67465 1.00795 0.23881 0.0
C1054 C 0.67188 0.98122 0.18129 0.0
C1055 C 0.69689 0.91087 0.16365 0.0
C1056 C 0.68737 0.93424 0.17768 0.0
C1057 C 0.65989 1.00055 0.2194 0.0
C1058 C 0.66972 0.97815 0.20485 0.0
H1059 H 0.73794 0.85522 0.16773 0.0
H1060 H 0.72501 0.89545 0.18903 0.0
H1061 H 0.68302 0.96272 0.14977 0.0
H1062 H 0.60296 0.03852 0.22821 0.0
H1063 H 0.62271 1.00713 0.20048 0.0
C1064 C 0.78599 0.14494 0.98032 0.0
C1065 C 0.77342 0.16979 0.98574 0.0
C1066 C 0.80491 0.13334 -0.00491 0.0
C1067 C 0.83155 0.132 0.05292 0.0
H1068 H 0.90166 0.12228 0.02381 0.0
C1069 C 0.93055 0.11321 0.10402 0.0
C1070 C 0.95075 0.09696 0.09407 0.0
C1071 C 0.90734 0.12052 0.09167 0.0
C1072 C 0.88218 0.12427 0.03222 0.0
H1073 H 0.76918 0.20088 0.0116 0.0
H1074 H 0.80192 0.18018 0.03766 0.0
H1075 H 0.86255 0.13588 0.00136 0.0
H1076 H 0.9623 0.07466 0.06393 0.0
H1077 H 0.92148 0.0862 0.04275 0.0
H1078 H 0.85098 0.11988 0.08376 0.0
C1079 C 0.79728 0.16991 0.02187 0.0
C1080 C 0.85978 0.13219 0.01931 0.0
C1081 C 0.77864 0.18177 0.00694 0.0
C1082 C 0.94715 0.08754 0.07186 0.0
C1083 C 0.92378 0.09435 0.05969 0.0
C1084 C 0.85391 0.12356 0.06584 0.0
C1085 C 0.81125 0.14612 0.0157 0.0
C1086 C 0.83432 0.13624 0.02953 0.0
C1087 C 0.90372 0.11127 0.06927 0.0
C1088 C 0.87958 0.11971 0.05566 0.0
H1089 H 0.78243 0.1352 0.96412 0.0
H1090 H 0.81531 0.11485 0.99006 0.0
H1091 H 0.81206 0.135 0.06115 0.0
H1092 H 0.93295 0.12074 0.12116 0.0
H1093 H 0.89259 0.13387 0.09955 0.0
C1094 C 0.66202 1.00404 0.74463 0.0
C1095 C 0.63368 1.00358 0.74138 0.0
C1096 C 0.67352 1.02047 0.76146 0.0
C1097 C 0.65688 0.06359 0.81173 0.0
H1098 H 0.71786 0.10664 0.7904 0.0
C1099 C 0.70416 0.15176 0.86436 0.0
C1100 C 0.71004 0.17544 0.852 0.0
C1101 C 0.69698 0.12772 0.85308 0.0
C1102 C 0.70081 0.09481 0.79662 0.0
H1103 H 0.59508 1.01878 0.75408 0.0
H1104 H 0.61507 0.04773 0.78296 0.0
H1105 H 0.70125 0.06907 0.76748 0.0
H1106 H 0.71282 0.19283 0.81836 0.0
H1107 H 0.6999 0.15126 0.79875 0.0
H1108 H 0.65561 0.09043 0.84032 0.0
C1109 C 0.62849 0.0352 0.7728 0.0
C1110 C 0.69153 0.07297 0.78362 0.0
C1111 C 0.61701 1.01872 0.75607 0.0
C1112 C 0.70849 0.17481 0.82829 0.0
C1113 C 0.70132 0.1509 0.81705 0.0
C1114 C 0.66614 0.08554 0.82471 0.0
C1115 C 0.65691 0.03685 0.77531 0.0
C1116 C 0.66903 0.05748 0.79075 0.0
C1117 C 0.69563 0.12702 0.82927 0.0
C1118 C 0.68777 0.10182 0.81699 0.0
H1119 H 0.67541 0.99243 0.73372 0.0
H1120 H 0.69547 0.0209 0.76322 0.0
H1121 H 0.63975 0.05183 0.81786 0.0
H1122 H 0.70531 0.15175 0.88268 0.0
H1123 H 0.69284 0.10962 0.86296 0.0
C1124 C 0.80533 0.84585 0.50914 0.0
C1125 C 0.81988 0.86186 0.49357 0.0
C1126 C 0.78874 0.858 0.52545 0.0
C1127 C 0.75931 0.88802 0.56289 0.0
H1128 H 0.71503 0.94649 0.53872 0.0
C1129 C 0.66866 0.93537 0.61247 0.0
C1130 C 0.64512 0.94004 0.59954 0.0
C1131 C 0.69316 0.92831 0.60183 0.0
C1132 C 0.7272 0.93015 0.54573 0.0
H1133 H 0.83005 0.90324 0.48401 0.0
H1134 H 0.80146 0.92452 0.51282 0.0
H1135 H 0.75335 0.92958 0.51687 0.0
H1136 H 0.62847 0.94072 0.56555 0.0
H1137 H 0.67081 0.92793 0.54707 0.0
H1138 H 0.73202 0.88763 0.59118 0.0
C1139 C 0.80237 0.90252 0.51204 0.0
C1140 C 0.74947 0.92072 0.53335 0.0
C1141 C 0.81888 0.89033 0.49562 0.0
C1142 C 0.64636 0.93735 0.57592 0.0
C1143 C 0.67071 0.93027 0.56532 0.0
C1144 C 0.73689 0.8974 0.57525 0.0
C1145 C 0.78643 0.88648 0.52668 0.0
C1146 C 0.76542 0.89908 0.5415 0.0
C1147 C 0.69446 0.92583 0.5781 0.0
C1148 C 0.72015 0.91807 0.5665 0.0
H1149 H 0.8057 0.82384 0.5081 0.0
H1150 H 0.77658 0.84497 0.53624 0.0
H1151 H 0.77142 0.8716 0.56982 0.0
H1152 H 0.6682 0.93742 0.63074 0.0
H1153 H 0.71112 0.92515 0.61214 0.0
C1154 C 0.9309 0.0391 0.24644 0.0
C1155 C 0.95919 0.03898 0.24286 0.0
C1156 C 0.9193 0.02259 0.26314 0.0
C1157 C 0.93571 0.97803 0.31253 0.0
H1158 H 0.87344 0.93684 0.29115 0.0
C1159 C 0.88164 0.86778 0.32804 0.0
C1160 C 0.88038 0.86676 0.35176 0.0
C1161 C 0.88924 0.8917 0.31705 0.0
C1162 C 0.89085 0.94815 0.29738 0.0
H1163 H 0.99763 0.02266 0.25489 0.0
H1164 H 0.97746 0.99358 0.28357 0.0
H1165 H 0.89061 0.97448 0.26864 0.0
H1166 H 0.88608 0.88979 0.3827 0.0
H1167 H 0.89931 0.93195 0.36342 0.0
H1168 H 0.93673 0.9506 0.3407 0.0
C1169 C 0.96416 1.00662 0.27375 0.0
C1170 C 0.90046 0.97002 0.28463 0.0
C1171 C 0.97574 0.02319 0.25715 0.0
C1172 C 0.88698 0.89008 0.36436 0.0
C1173 C 0.8946 0.91414 0.35334 0.0
C1174 C 0.92611 0.95604 0.32527 0.0
C1175 C 0.93575 1.00555 0.27655 0.0
C1176 C 0.9234 0.98485 0.29177 0.0
C1177 C 0.89568 0.91522 0.32954 0.0
C1178 C 0.904 0.94044 0.31753 0.0
H1179 H 0.9176 0.05122 0.23585 0.0
H1180 H 0.89738 0.02261 0.26514 0.0
H1181 H 0.95319 0.98927 0.31867 0.0
H1182 H 0.87676 0.85004 0.31792 0.0
H1183 H 0.89042 0.89164 0.29873 0.0
C1184 C 0.72708 0.71055 0.48503 0.0
C1185 C 0.75532 0.70956 0.48867 0.0
C1186 C 0.70897 0.70115 0.50153 0.0
C1187 C 0.70738 0.65182 0.54874 0.0
H1188 H 0.63332 0.67796 0.55538 0.0
C1189 C 0.62897 0.60365 0.61088 0.0
C1190 C 0.6021 0.60059 0.60297 0.0
C1191 C 0.64839 0.61775 0.59805 0.0
C1192 C 0.65388 0.67027 0.55357 0.0
H1193 H 0.78679 0.69939 0.51282 0.0
H1194 H 0.7551 0.68372 0.54217 0.0
H1195 H 0.66586 0.7041 0.53303 0.0
H1196 H 0.57485 0.60943 0.57502 0.0
H1197 H 0.60873 0.63395 0.55264 0.0
H1198 H 0.69527 0.61797 0.56932 0.0
C1199 C 0.74691 0.69135 0.52638 0.0
C1200 C 0.6726 0.68531 0.54078 0.0
C1201 C 0.76508 0.70079 0.50978 0.0
C1202 C 0.59534 0.61133 0.58162 0.0
C1203 C 0.6147 0.62565 0.56889 0.0
C1204 C 0.68869 0.63689 0.56168 0.0
C1205 C 0.71865 0.69042 0.52211 0.0
C1206 C 0.69953 0.6761 0.53787 0.0
C1207 C 0.64137 0.62937 0.57708 0.0
C1208 C 0.66159 0.64571 0.56398 0.0
H1209 H 0.71911 0.71675 0.46871 0.0
H1210 H 0.68749 0.70056 0.4974 0.0
H1211 H 0.72773 0.64374 0.5466 0.0
H1212 H 0.63489 0.59565 0.62725 0.0
H1213 H 0.66869 0.6203 0.60491 0.0
C1214 C 0.61603 0.49081 0.76061 0.0
C1215 C 0.60681 0.4812 0.73958 0.0
C1216 C 0.62535 0.4725 0.77713 0.0
C1217 C 0.63029 0.3982 0.79156 0.0
H1218 H 0.69857 0.41973 0.81929 0.0
C1219 C 0.70357 0.31981 0.83178 0.0
C1220 C 0.71508 0.32653 0.85287 0.0
C1221 C 0.68927 0.33932 0.81921 0.0
C1222 C 0.67938 0.41346 0.81189 0.0
H1223 H 0.59872 0.44514 0.71968 0.0
H1224 H 0.61469 0.41327 0.74826 0.0
H1225 H 0.673 0.45254 0.79681 0.0
H1226 H 0.72128 0.35938 0.87689 0.0
H1227 H 0.69663 0.39342 0.85485 0.0
H1228 H 0.63714 0.35888 0.80617 0.0
C1229 C 0.61454 0.43475 0.75238 0.0
C1230 C 0.66457 0.43236 0.79908 0.0
C1231 C 0.60526 0.453 0.73596 0.0
C1232 C 0.71272 0.35348 0.8607 0.0
C1233 C 0.69861 0.37304 0.84804 0.0
C1234 C 0.64519 0.37927 0.80424 0.0
C1235 C 0.62572 0.44425 0.77287 0.0
C1236 C 0.63995 0.42493 0.78849 0.0
C1237 C 0.6863 0.3661 0.82731 0.0
C1238 C 0.67008 0.38656 0.81436 0.0
H1239 H 0.61788 0.51248 0.76363 0.0
H1240 H 0.63336 0.48057 0.79286 0.0
H1241 H 0.61123 0.39178 0.78401 0.0
H1242 H 0.70492 0.29926 0.82523 0.0
H1243 H 0.68043 0.33339 0.80313 0.0
C1244 C 0.98996 0.43594 0.08364 0.0
C1245 C 0.98736 0.43988 0.10713 0.0
C1246 C 0.96963 0.42224 0.07139 0.0
C1247 C 0.93207 0.37905 0.05151 0.0
H1248 H 0.85624 0.38613 0.06877 0.0
C1249 C 0.849 0.31855 0.00405 0.0
C1250 C 0.82572 0.33355 -0.00174 0.0
C1251 C 0.86731 0.32854 0.02032 0.0
C1252 C 0.87728 0.38394 0.0636 0.0
H1253 H 0.96104 0.43268 0.13605 0.0
H1254 H 0.92628 0.40842 0.11503 0.0
H1255 H 0.89077 0.4117 0.08913 0.0
H1256 H 0.80254 0.3699 0.00557 0.0
H1257 H 0.83409 0.38735 0.03377 0.0
H1258 H 0.91838 0.3524 0.02519 0.0
C1259 C 0.94361 0.41634 0.10581 0.0
C1260 C 0.89724 0.39843 0.07551 0.0
C1261 C 0.96373 0.43023 0.11796 0.0
C1262 C 0.82006 0.35766 0.01013 0.0
C1263 C 0.83832 0.3677 0.02626 0.0
C1264 C 0.91206 0.36475 0.03944 0.0
C1265 C 0.94628 0.41192 0.08236 0.0
C1266 C 0.92496 0.39635 0.06959 0.0
C1267 C 0.86278 0.35387 0.03096 0.0
C1268 C 0.88432 0.36712 0.04519 0.0
H1269 H 1.00787 0.44311 0.07475 0.0
H1270 H 0.97227 0.41976 0.0533 0.0
H1271 H 0.95316 0.37645 0.04662 0.0
H1272 H 0.85408 0.30019 -0.0052 0.0
H1273 H 0.88562 0.317 0.0238 0.0
C1274 C 0.88647 0.72261 0.33074 0.0
C1275 C 0.87444 0.7158 0.35159 0.0
C1276 C 0.9009 0.70308 0.31826 0.0
C1277 C 0.9105 0.6289 0.31068 0.0
H1278 H 0.97973 0.65018 0.28452 0.0
C1279 C 0.97501 0.55112 0.26089 0.0
C1280 C 0.98509 0.56065 0.24012 0.0
C1281 C 0.96529 0.56951 0.2772 0.0
C1282 C 0.96038 0.64388 0.29158 0.0
H1283 H 0.86735 0.68278 0.37524 0.0
H1284 H 0.89221 0.64873 0.35337 0.0
H1285 H 0.95328 0.68322 0.30614 0.0
H1286 H 0.99428 0.59663 0.2205 0.0
H1287 H 0.97762 0.62865 0.24873 0.0
H1288 H 0.91713 0.58982 0.29566 0.0
C1289 C 0.89057 0.66918 0.34667 0.0
C1290 C 0.94517 0.66289 0.30394 0.0
C1291 C 0.87635 0.68875 0.35924 0.0
C1292 C 0.9871 0.58883 0.2366 0.0
C1293 C 0.9774 0.60717 0.25281 0.0
C1294 C 0.92562 0.60993 0.29818 0.0
C1295 C 0.90346 0.6762 0.32622 0.0
C1296 C 0.9199 0.65573 0.31346 0.0
C1297 C 0.96534 0.59777 0.27298 0.0
C1298 C 0.95067 0.61721 0.28824 0.0
H1299 H 0.88549 0.74325 0.32435 0.0
H1300 H 0.91021 0.70908 0.30239 0.0
H1301 H 0.89103 0.62274 0.31761 0.0
H1302 H 0.97278 0.52947 0.26381 0.0
H1303 H 0.95662 0.56152 0.2927 0.0
C1304 C 0.59383 0.42834 0.40544 0.0
C1305 C 0.60041 0.44035 0.38453 0.0
C1306 C 0.61347 0.4138 0.4177 0.0
C1307 C 0.68774 0.40385 0.42453 0.0
H1308 H 0.66644 0.33486 0.451 0.0
C1309 C 0.76586 0.33921 0.47377 0.0
C1310 C 0.75653 0.32926 0.49464 0.0
C1311 C 0.7473 0.34894 0.45759 0.0
C1312 C 0.67275 0.35414 0.44385 0.0
H1313 H 0.63314 0.44726 0.36054 0.0
H1314 H 0.66739 0.4222 0.38202 0.0
H1315 H 0.63324 0.36137 0.42964 0.0
H1316 H 0.72071 0.32032 0.51459 0.0
H1317 H 0.68842 0.33699 0.48661 0.0
H1318 H 0.727 0.39709 0.43922 0.0
C1319 C 0.64703 0.42394 0.38893 0.0
C1320 C 0.65365 0.36939 0.43163 0.0
C1321 C 0.62735 0.43829 0.37659 0.0
C1322 C 0.72836 0.32739 0.49841 0.0
C1323 C 0.70986 0.33709 0.48234 0.0
C1324 C 0.7068 0.38869 0.43689 0.0
C1325 C 0.64023 0.4111 0.40945 0.0
C1326 C 0.66081 0.39458 0.42201 0.0
C1327 C 0.71908 0.34903 0.46207 0.0
C1328 C 0.69952 0.36373 0.44694 0.0
H1329 H 0.57329 0.42945 0.41206 0.0
H1330 H 0.60764 0.40453 0.43362 0.0
H1331 H 0.69391 0.42326 0.41752 0.0
H1332 H 0.7875 0.34134 0.47066 0.0
H1333 H 0.75516 0.35751 0.44202 0.0
C1334 C 0.95504 0.49771 0.72712 0.0
C1335 C 0.9797 0.49185 0.73815 0.0
C1336 C 0.94428 0.47971 0.71111 0.0
C1337 C 0.91707 0.42661 0.69726 0.0
H1338 H 0.95479 0.39033 0.64812 0.0
C1339 C 0.87532 0.33005 0.65171 0.0
C1340 C 0.87632 0.33048 0.62791 0.0
C1341 C 0.88815 0.35051 0.66444 0.0
C1342 C 0.94399 0.40035 0.66178 0.0
H1343 H 1.01329 0.46351 0.74012 0.0
H1344 H 0.99489 0.43226 0.71144 0.0
H1345 H 0.97823 0.42581 0.66997 0.0
H1346 H 0.89149 0.353 0.59888 0.0
H1347 H 0.91402 0.38826 0.62106 0.0
H1348 H 0.88301 0.40096 0.68938 0.0
C1349 C 0.98388 0.4508 0.71524 0.0
C1350 C 0.95745 0.42055 0.67432 0.0
C1351 C 0.99457 0.46879 0.73147 0.0
C1352 C 0.89018 0.352 0.61718 0.0
C1353 C 0.90333 0.37214 0.62987 0.0
C1354 C 0.9038 0.40615 0.685 0.0
C1355 C 0.958 0.45547 0.70571 0.0
C1356 C 0.94404 0.43408 0.69208 0.0
C1357 C 0.90263 0.37156 0.65364 0.0
C1358 C 0.91703 0.39289 0.66703 0.0
H1359 H 0.94299 0.51513 0.73226 0.0
H1360 H 0.92451 0.48406 0.70382 0.0
H1361 H 0.9063 0.43638 0.71107 0.0
H1362 H 0.86491 0.31376 0.66052 0.0
H1363 H 0.88731 0.3495 0.68276 0.0
C1364 C 0.82584 0.70349 0.97419 0.0
C1365 C 0.83541 0.71404 -0.00521 0.0
C1366 C 0.84421 0.69362 0.95792 0.0
C1367 C 0.91855 0.68887 0.94326 0.0
H1368 H 0.89763 0.61881 0.91849 0.0
C1369 C 0.99746 0.61443 0.90489 0.0
C1370 C 0.99044 0.60149 0.88445 0.0
C1371 C 0.978 0.62925 0.91714 0.0
C1372 C 0.90373 0.63848 0.92505 0.0
H1373 H 0.87148 0.7239 0.01413 0.0
H1374 H 0.90347 0.70702 0.98596 0.0
H1375 H 0.86471 0.64521 0.94018 0.0
H1376 H 0.95713 0.59333 0.86128 0.0
H1377 H 0.92322 0.61888 0.88273 0.0
H1378 H 0.95783 0.68169 0.92858 0.0
C1379 C 0.88196 0.70654 0.98198 0.0
C1380 C 0.88476 0.65377 0.93741 0.0
C1381 C 0.86363 0.71638 -0.00185 0.0
C1382 C 0.96327 0.60299 0.87696 0.0
C1383 C 0.94378 0.61762 0.8893 0.0
C1384 C 0.93756 0.67349 0.93102 0.0
C1385 C 0.87252 0.69398 0.96203 0.0
C1386 C 0.89195 0.67908 0.94691 0.0
C1387 C 0.95097 0.63132 0.90936 0.0
C1388 C 0.93049 0.64797 0.92195 0.0
H1389 H 0.80417 0.70097 0.9714 0.0
H1390 H 0.83617 0.68457 0.94258 0.0
H1391 H 0.92479 0.7084 0.94998 0.0
H1392 H 1.01818 0.61378 0.91115 0.0
H1393 H 0.98416 0.63917 0.93271 0.0
C1394 C 0.60097 0.58792 0.24874 0.0
C1395 C 0.60257 0.55973 0.24506 0.0
C1396 C 0.61071 0.60623 0.23253 0.0
C1397 C 0.66197 0.60856 0.18672 0.0
H1398 H 0.63536 0.68233 0.17955 0.0
C1399 C 0.71216 0.68749 0.12624 0.0
C1400 C 0.71464 0.71435 0.13429 0.0
C1401 C 0.69759 0.66796 0.13857 0.0
C1402 C 0.64318 0.66185 0.18151 0.0
H1403 H 0.61418 0.52854 0.22112 0.0
H1404 H 0.63039 0.56053 0.19225 0.0
H1405 H 0.60864 0.64948 0.2011 0.0
H1406 H 0.70423 0.74146 0.16197 0.0
H1407 H 0.67893 0.70737 0.18348 0.0
H1408 H 0.69654 0.62106 0.16712 0.0
C1409 C 0.62202 0.56856 0.20785 0.0
C1410 C 0.62781 0.64296 0.19385 0.0
C1411 C 0.61226 0.5502 0.22416 0.0
C1412 C 0.7028 0.72098 0.15527 0.0
C1413 C 0.68803 0.7015 0.1675 0.0
C1414 C 0.67724 0.62743 0.17425 0.0
C1415 C 0.62239 0.59679 0.21222 0.0
C1416 C 0.63716 0.61612 0.19693 0.0
C1417 C 0.68494 0.67483 0.15917 0.0
C1418 C 0.66824 0.65443 0.17176 0.0
H1419 H 0.59411 0.59572 0.26494 0.0
H1420 H 0.61083 0.62768 0.23673 0.0
H1421 H 0.67018 0.58831 0.18903 0.0
H1422 H 0.72098 0.68166 0.11014 0.0
H1423 H 0.69554 0.64766 0.13161 0.0
C1424 C 0.27781 0.38688 0.49316 0.0
C1425 C 0.27746 0.35855 0.49636 0.0
C1426 C 0.29421 0.39847 0.47638 0.0
C1427 C 0.34669 0.41675 0.45433 0.0
H1428 H 0.36437 0.3811 0.39757 0.0
C1429 C 0.44848 0.43446 0.40971 0.0
C1430 C 0.44909 0.43601 0.386 0.0
C1431 C 0.42461 0.42715 0.42094 0.0
C1432 C 0.35942 0.39156 0.4132 0.0
H1433 H 0.29283 0.32007 0.48359 0.0
H1434 H 0.32173 0.34022 0.45478 0.0
H1435 H 0.32583 0.36498 0.41995 0.0
H1436 H 0.42538 0.43115 0.35531 0.0
H1437 H 0.38332 0.41844 0.37502 0.0
H1438 H 0.38023 0.44328 0.44765 0.0
C1439 C 0.30914 0.35356 0.46495 0.0
C1440 C 0.3375 0.38215 0.42614 0.0
C1441 C 0.29267 0.34198 0.48164 0.0
C1442 C 0.42541 0.43001 0.37364 0.0
C1443 C 0.40141 0.42268 0.38491 0.0
C1444 C 0.36849 0.42619 0.44138 0.0
C1445 C 0.31068 0.38197 0.46251 0.0
C1446 C 0.3313 0.39421 0.44714 0.0
C1447 C 0.40074 0.42131 0.40872 0.0
C1448 C 0.37558 0.41325 0.42098 0.0
H1449 H 0.26613 0.40019 0.5041 0.0
H1450 H 0.29455 0.42041 0.47467 0.0
H1451 H 0.34271 0.42641 0.47049 0.0
H1452 H 0.4665 0.43888 0.41964 0.0
H1453 H 0.42499 0.42572 0.43925 0.0
C1454 C 0.45686 0.50493 0.23042 0.0
C1455 C 0.44469 0.49954 0.2515 0.0
C1456 C 0.44497 0.52348 0.21543 0.0
C1457 C 0.40684 0.5856 0.21784 0.0
H1458 H 0.39452 0.5767 0.15339 0.0
C1459 C 0.36172 0.67267 0.16535 0.0
C1460 C 0.37109 0.6763 0.14314 0.0
C1461 C 0.36862 0.64934 0.1775 0.0
C1462 C 0.3982 0.57966 0.17131 0.0
H1463 H 0.40977 0.50816 0.27287 0.0
H1464 H 0.38938 0.5409 0.24686 0.0
H1465 H 0.40988 0.5379 0.176 0.0
H1466 H 0.39488 0.65859 0.11602 0.0
H1467 H 0.40822 0.61831 0.13759 0.0
H1468 H 0.39671 0.6274 0.21335 0.0
C1469 C 0.40802 0.53069 0.24195 0.0
C1470 C 0.40678 0.55737 0.18423 0.0
C1471 C 0.41965 0.51186 0.25676 0.0
C1472 C 0.38739 0.65616 0.13316 0.0
C1473 C 0.39481 0.633 0.14549 0.0
C1474 C 0.3988 0.60793 0.20493 0.0
C1475 C 0.42096 0.53719 0.22145 0.0
C1476 C 0.41101 0.56017 0.20762 0.0
C1477 C 0.38562 0.62935 0.1679 0.0
C1478 C 0.39421 0.60529 0.18149 0.0
H1479 H 0.47612 0.49567 0.22588 0.0
H1480 H 0.45535 0.52825 0.19973 0.0
H1481 H 0.41052 0.58839 0.2358 0.0
H1482 H 0.3488 0.68778 0.17331 0.0
H1483 H 0.36051 0.64701 0.19444 0.0
C1484 C 0.14819 0.59577 0.90505 0.0
C1485 C 0.14222 0.60486 0.88308 0.0
C1486 C 0.17235 0.60354 0.91566 0.0
C1487 C 0.22016 0.65837 0.91953 0.0
H1488 H 0.26665 0.60567 0.94944 0.0
C1489 C 0.30717 0.69367 0.97783 0.0
C1490 C 0.3099 0.67925 -0.00176 0.0
C1491 C 0.29135 0.68319 0.96016 0.0
C1492 C 0.2538 0.6207 0.94134 0.0
H1493 H 0.15658 0.62907 0.85485 0.0
H1494 H 0.19871 0.64358 0.87389 0.0
H1495 H 0.22938 0.59001 0.92538 0.0
H1496 H 0.29899 0.64213 0.01588 0.0
H1497 H 0.27073 0.62434 0.98561 0.0
H1498 H 0.24313 0.6891 0.93653 0.0
C1499 C 0.1848 0.6301 0.88266 0.0
C1500 C 0.23261 0.61168 0.92745 0.0
C1501 C 0.16082 0.62182 0.87182 0.0
C1502 C 0.29741 0.65368 0.00031 0.0
C1503 C 0.28129 0.64339 0.98282 0.0
C1504 C 0.24105 0.66742 0.93374 0.0
C1505 C 0.19074 0.62095 0.90466 0.0
C1506 C 0.2153 0.63044 0.9168 0.0
C1507 C 0.27758 0.65824 0.96266 0.0
C1508 C 0.25778 0.64869 0.94525 0.0
H1509 H 0.1342 0.5826 0.91405 0.0
H1510 H 0.17635 0.59648 0.93272 0.0
H1511 H 0.20688 0.67321 0.91164 0.0
H1512 H 0.31677 0.71335 0.97567 0.0
H1513 H 0.28948 0.69494 0.94473 0.0
C1514 C 0.20228 0.38747 0.6319 0.0
C1515 C 0.21932 0.36809 0.64205 0.0
C1516 C 0.19481 0.41099 0.64378 0.0
C1517 C 0.19207 0.43786 0.70272 0.0
H1518 H 0.17842 0.50681 0.67286 0.0
C1519 C 0.17047 0.53417 0.75374 0.0
C1520 C 0.14487 0.54559 0.74896 0.0
C1521 C 0.18226 0.51561 0.73876 0.0
C1522 C 0.18226 0.48764 0.68134 0.0
H1523 H 0.24301 0.35843 0.67192 0.0
H1524 H 0.23121 0.39979 0.69217 0.0
H1525 H 0.19388 0.46771 0.65056 0.0
H1526 H 0.11264 0.54831 0.72393 0.0
H1527 H 0.13364 0.51616 0.69752 0.0
H1528 H 0.18094 0.45794 0.73349 0.0
C1529 C 0.22253 0.39658 0.67552 0.0
C1530 C 0.1909 0.46519 0.6686 0.0
C1531 C 0.22948 0.37291 0.66387 0.0
C1532 C 0.13232 0.53972 0.72811 0.0
C1533 C 0.14435 0.52143 0.71296 0.0
C1534 C 0.18397 0.46034 0.71542 0.0
C1535 C 0.20467 0.41573 0.66585 0.0
C1536 C 0.19585 0.43996 0.67915 0.0
C1537 C 0.1689 0.50848 0.71859 0.0
C1538 C 0.17892 0.48539 0.70487 0.0
H1539 H 0.19421 0.38412 0.61505 0.0
H1540 H 0.18079 0.42507 0.63585 0.0
H1541 H 0.19487 0.41868 0.71143 0.0
H1542 H 0.18068 0.53828 0.76964 0.0
H1543 H 0.20134 0.506 0.74335 0.0
C1544 C 0.29096 0.65048 0.48211 0.0
C1545 C 0.27972 0.67643 0.48568 0.0
C1546 C 0.30917 0.63945 0.49776 0.0
C1547 C 0.33527 0.64194 0.55559 0.0
H1548 H 0.40497 0.62614 0.5277 0.0
C1549 C 0.43292 0.62044 0.60814 0.0
C1550 C 0.45207 0.60244 0.59888 0.0
C1551 C 0.41009 0.62829 0.5955 0.0
C1552 C 0.38556 0.62985 0.53581 0.0
H1553 H 0.27712 0.71027 0.5092 0.0
H1554 H 0.30863 0.69058 0.53684 0.0
H1555 H 0.36694 0.64024 0.50423 0.0
H1556 H 0.462 0.57743 0.56981 0.0
H1557 H 0.4218 0.58988 0.54827 0.0
H1558 H 0.35368 0.63098 0.58718 0.0
C1559 C 0.30348 0.67902 0.5218 0.0
C1560 C 0.3638 0.63808 0.52231 0.0
C1561 C 0.28557 0.69028 0.50596 0.0
C1562 C 0.44769 0.59168 0.57719 0.0
C1563 C 0.4247 0.59902 0.56479 0.0
C1564 C 0.35698 0.63319 0.56914 0.0
C1565 C 0.3161 0.65393 0.51744 0.0
C1566 C 0.3385 0.64422 0.53205 0.0
C1567 C 0.40584 0.61785 0.57354 0.0
C1568 C 0.38244 0.62704 0.5594 0.0
H1569 H 0.28688 0.63929 0.46667 0.0
H1570 H 0.31855 0.61997 0.49414 0.0
H1571 H 0.31589 0.64662 0.56345 0.0
H1572 H 0.43595 0.62899 0.62488 0.0
H1573 H 0.39622 0.64304 0.60274 0.0
C1574 C 0.21176 0.67129 0.32588 0.0
C1575 C 0.21464 0.67251 0.34949 0.0
C1576 C 0.20468 0.64693 0.3153 0.0
C1577 C 0.17242 0.58044 0.32548 0.0
H1578 H 0.20407 0.5642 0.26683 0.0
C1579 C 0.16571 0.49778 0.2463 0.0
C1580 C 0.13722 0.49617 0.24457 0.0
C1581 C 0.17781 0.51468 0.2625 0.0
C1582 C 0.19536 0.56802 0.28338 0.0
H1583 H 0.21241 0.64939 0.38067 0.0
H1584 H 0.20021 0.60646 0.3621 0.0
H1585 H 0.22075 0.60282 0.28843 0.0
H1586 H 0.0991 0.50972 0.2594 0.0
H1587 H 0.12007 0.53952 0.28714 0.0
H1588 H 0.14703 0.54553 0.3204 0.0
C1589 C 0.20317 0.62445 0.35179 0.0
C1590 C 0.20465 0.59048 0.29562 0.0
C1591 C 0.2102 0.64895 0.36241 0.0
C1592 C 0.12113 0.51054 0.26022 0.0
C1593 C 0.13319 0.52753 0.27629 0.0
C1594 C 0.16319 0.55784 0.31327 0.0
C1595 C 0.20048 0.62315 0.32808 0.0
C1596 C 0.19277 0.59741 0.31651 0.0
C1597 C 0.16166 0.53043 0.27721 0.0
C1598 C 0.17406 0.55179 0.2918 0.0
H1599 H 0.21495 0.68921 0.31553 0.0
H1600 H 0.20219 0.64683 0.29707 0.0
H1601 H 0.1628 0.58522 0.34151 0.0
H1602 H 0.17868 0.48677 0.23463 0.0
H1603 H 0.19981 0.51603 0.26304 0.0
C1604 C 0.14376 0.44466 0.07872 0.0
C1605 C 0.13918 0.43623 0.1011 0.0
C1606 C 0.16751 0.43703 0.06741 0.0
C1607 C 0.21705 0.38351 0.0635 0.0
H1608 H 0.26116 0.43669 0.03173 0.0
C1609 C 0.30546 0.34918 0.00633 0.0
C1610 C 0.30786 0.36283 0.98554 0.0
C1611 C 0.28905 0.35978 0.02356 0.0
C1612 C 0.24897 0.42152 0.04032 0.0
H1613 H 0.15553 0.41323 0.12929 0.0
H1614 H 0.1969 0.39901 0.10909 0.0
H1615 H 0.2236 0.4519 0.05566 0.0
H1616 H 0.29573 0.39872 0.96672 0.0
H1617 H 0.26644 0.41665 -0.00376 0.0
H1618 H 0.24103 0.353 0.04722 0.0
C1619 C 0.18223 0.41185 0.10051 0.0
C1620 C 0.22759 0.43029 0.05412 0.0
C1621 C 0.15867 0.41997 0.11201 0.0
C1622 C 0.29443 0.38779 0.98262 0.0
C1623 C 0.2777 0.39817 -0.00032 0.0
C1624 C 0.23811 0.37469 0.04937 0.0
C1625 C 0.18686 0.42042 0.07814 0.0
C1626 C 0.21121 0.41133 0.06552 0.0
C1627 C 0.27434 0.38404 0.02023 0.0
C1628 C 0.25405 0.39356 0.03725 0.0
H1629 H 0.12905 0.45729 0.06998 0.0
H1630 H 0.17052 0.44365 0.05008 0.0
H1631 H 0.20451 0.36851 0.07199 0.0
H1632 H 0.31578 0.32999 0.00912 0.0
H1633 H 0.2875 0.34863 0.03932 0.0
C1634 C 0.47117 0.53095 0.75961 0.0
C1635 C 0.45515 0.54562 0.74412 0.0
C1636 C 0.459 0.51387 0.77556 0.0
C1637 C 0.39648 0.47386 0.78244 0.0
H1638 H 0.4288 0.45593 0.84048 0.0
C1639 C 0.38037 0.3928 0.8611 0.0
C1640 C 0.3757 0.36933 0.84809 0.0
C1641 C 0.38778 0.41725 0.85058 0.0
C1642 C 0.41926 0.46092 0.82448 0.0
H1643 H 0.41373 0.55549 0.73437 0.0
H1644 H 0.39245 0.5261 0.76256 0.0
H1645 H 0.44506 0.49556 0.81958 0.0
H1646 H 0.37536 0.35275 0.81407 0.0
H1647 H 0.38873 0.39502 0.79579 0.0
H1648 H 0.37068 0.43934 0.78729 0.0
C1649 C 0.41446 0.52726 0.76198 0.0
C1650 C 0.42877 0.48348 0.81238 0.0
C1651 C 0.42665 0.54424 0.74591 0.0
C1652 C 0.37872 0.37059 0.82449 0.0
C1653 C 0.38615 0.3949 0.81401 0.0
C1654 C 0.38692 0.45144 0.79455 0.0
C1655 C 0.43052 0.51121 0.77651 0.0
C1656 C 0.41795 0.48981 0.79095 0.0
C1657 C 0.39061 0.41858 0.82688 0.0
C1658 C 0.39869 0.44426 0.81542 0.0
H1659 H 0.49319 0.53158 0.75874 0.0
H1660 H 0.47205 0.50165 0.78628 0.0
H1661 H 0.38781 0.4779 0.76591 0.0
H1662 H 0.37807 0.39233 0.87934 0.0
H1663 H 0.39092 0.43516 0.86095 0.0
C1664 C 0.28166 0.87661 0.09328 0.0
C1665 C 0.29166 0.88058 0.07131 0.0
C1666 C 0.27433 0.89897 0.10658 0.0
C1667 C 0.24864 0.96795 0.0972 0.0
H1668 H 0.24188 0.9661 0.16253 0.0
C1669 C 0.15529 1.00718 0.14416 0.0
C1670 C 0.15743 1.0142 0.16709 0.0
C1671 C 0.17851 0.99971 0.13199 0.0
C1672 C 0.24403 0.96751 0.14432 0.0
H1673 H 0.30478 0.91062 0.0468 0.0
H1674 H 0.2928 0.94976 0.07026 0.0
H1675 H 0.27343 0.93541 0.14385 0.0
H1676 H 0.18536 0.02197 0.19472 0.0
H1677 H 0.22612 1.00984 0.17329 0.0
H1678 H 0.21892 0.99976 0.09764 0.0
C1679 C 0.28972 0.9295 0.07701 0.0
C1680 C 0.26191 0.94958 0.13359 0.0
C1681 C 0.29673 0.90715 0.06364 0.0
C1682 C 0.1833 1.01629 0.17706 0.0
C1683 C 0.20655 1.00917 0.16484 0.0
C1684 C 0.23095 0.98606 0.10795 0.0
C1685 C 0.27717 0.92566 0.09817 0.0
C1686 C 0.26347 0.94871 0.10985 0.0
C1687 C 0.20427 0.99943 0.14253 0.0
C1688 C 0.22749 0.98518 0.13155 0.0
H1689 H 0.2775 0.85628 0.09947 0.0
H1690 H 0.26454 0.89516 0.1227 0.0
H1691 H 0.24917 0.96785 0.07886 0.0
H1692 H 0.13549 1.00532 0.1362 0.0
H1693 H 0.17588 0.99214 0.1149 0.0
C1694 C 0.43988 1.00459 0.34499 0.0
C1695 C 0.43527 1.01504 0.32325 0.0
C1696 C 0.4179 0.99676 0.35853 0.0
C1697 C 0.34869 0.97091 0.35005 0.0
H1698 H 0.35184 0.96358 0.4153 0.0
C1699 C 0.30881 0.87784 0.39716 0.0
C1700 C 0.30202 0.88006 0.42014 0.0
C1701 C 0.31663 0.90092 0.38499 0.0
C1702 C 0.35009 0.96588 0.39712 0.0
H1703 H 0.40451 0.02834 0.29943 0.0
H1704 H 0.36603 1.01549 0.32333 0.0
H1705 H 0.38239 0.99508 0.3964 0.0
H1706 H 0.29505 0.90808 0.44785 0.0
H1707 H 0.30783 0.9486 0.42643 0.0
H1708 H 0.31665 0.94141 0.35074 0.0
C1709 C 0.38649 1.01245 0.3297 0.0
C1710 C 0.36794 0.98372 0.38626 0.0
C1711 C 0.40846 1.01997 0.31609 0.0
C1712 C 0.30054 0.90594 0.43016 0.0
C1713 C 0.30804 0.92905 0.41795 0.0
C1714 C 0.33068 0.95324 0.36093 0.0
C1715 C 0.39096 0.99953 0.3506 0.0
C1716 C 0.36826 0.98555 0.36252 0.0
C1717 C 0.31752 0.92663 0.39557 0.0
C1718 C 0.33197 0.94963 0.3845 0.0
H1719 H 0.46041 1.00052 0.35079 0.0
H1720 H 0.42218 0.98669 0.37444 0.0
H1721 H 0.34839 0.97163 0.33172 0.0
H1722 H 0.31021 0.85804 0.38915 0.0
H1723 H 0.32399 0.89819 0.36785 0.0
C1724 C 0.30789 0.16142 0.59455 0.0
C1725 C 0.30025 0.15927 0.57177 0.0
C1726 C 0.31477 0.13809 0.60678 0.0
C1727 C 0.34372 0.0709 0.59439 0.0
H1728 H 0.34725 0.06845 0.65988 0.0
C1729 C 0.43705 0.03349 0.64184 0.0
C1730 C 0.43477 0.02563 0.66455 0.0
C1731 C 0.41375 0.04017 0.62947 0.0
C1732 C 0.34604 0.06816 0.64157 0.0
H1733 H 0.29081 0.1314 0.54448 0.0
H1734 H 0.30169 0.09046 0.56608 0.0
H1735 H 0.31512 0.09878 0.64165 0.0
H1736 H 0.40675 1.01564 0.69158 0.0
H1737 H 0.36585 0.02616 0.66974 0.0
H1738 H 0.37474 0.04039 0.59431 0.0
C1739 C 0.30339 0.11007 0.57435 0.0
C1740 C 0.32781 0.08595 0.6311 0.0
C1741 C 0.29695 0.13342 0.56203 0.0
C1742 C 0.40886 0.02193 0.67407 0.0
C1743 C 0.38553 0.02817 0.66162 0.0
C1744 C 0.36165 0.05281 0.60486 0.0
C1745 C 0.31378 0.11221 0.59647 0.0
C1746 C 0.32748 0.08862 0.60742 0.0
C1747 C 0.38776 0.03878 0.63958 0.0
C1748 C 0.36409 0.05228 0.62856 0.0
H1749 H 0.31068 0.18121 0.60231 0.0
H1750 H 0.32289 0.1407 0.62369 0.0
H1751 H 0.34417 0.0723 0.5761 0.0
H1752 H 0.4569 0.0366 0.63425 0.0
H1753 H 0.41641 0.04847 0.61264 0.0
C1754 C 0.27842 0.16603 0.89158 0.0
C1755 C 0.2889 0.16161 0.91334 0.0
C1756 C 0.27059 0.14396 0.87815 0.0
C1757 C 0.24455 0.07502 0.88709 0.0
H1758 H 0.23719 0.07742 0.82181 0.0
C1759 C 0.15115 0.03528 0.84018 0.0
C1760 C 0.15337 0.02815 0.81728 0.0
C1761 C 0.17429 0.04307 0.85233 0.0
C1762 C 0.2395 0.07588 0.84001 0.0
H1763 H 0.30228 0.13108 0.9373 0.0
H1764 H 0.2894 0.09242 0.9136 0.0
H1765 H 0.26888 0.10803 0.84049 0.0
H1766 H 0.1814 1.02057 0.78968 0.0
H1767 H 0.22201 0.03331 0.81107 0.0
H1768 H 0.21483 0.04318 0.88663 0.0
C1769 C 0.28636 0.11282 0.90713 0.0
C1770 C 0.25745 0.09375 0.85074 0.0
C1771 C 0.29389 0.13488 0.92062 0.0
C1772 C 0.17927 0.02631 0.80732 0.0
C1773 C 0.20243 0.03378 0.81951 0.0
C1774 C 0.22676 0.05699 0.87635 0.0
C1775 C 0.27338 0.11711 0.88622 0.0
C1776 C 0.2593 0.09434 0.87447 0.0
C1777 C 0.20004 0.04359 0.84179 0.0
C1778 C 0.22314 0.05802 0.85277 0.0
H1779 H 0.27431 0.18651 0.88569 0.0
H1780 H 0.26048 0.14809 0.86222 0.0
H1781 H 0.24528 0.07493 0.90542 0.0
H1782 H 0.13133 0.03696 0.84813 0.0
H1783 H 0.17159 0.05068 0.8694 0.0
C1784 C 0.96329 0.06007 0.82898 0.0
C1785 C 0.97775 0.04569 0.84573 0.0
C1786 C 0.94555 0.08136 0.83472 0.0
C1787 C 0.92338 0.12692 0.88295 0.0
H1788 H 0.8591 0.13561 0.84549 0.0
C1789 C 0.8277 0.1885 0.91112 0.0
C1790 C 0.81412 0.20469 0.89497 0.0
C1791 C 0.84946 0.17156 0.90489 0.0
C1792 C 0.87708 0.13376 0.856 0.0
H1793 H 0.98495 0.04293 0.88181 0.0
H1794 H 0.95346 0.07949 0.89202 0.0
H1795 H 0.89291 0.10147 0.8356 0.0
H1796 H 0.81336 0.21583 0.85949 0.0
H1797 H 0.85123 0.18597 0.84851 0.0
H1798 H 0.90669 0.15866 0.90381 0.0
C1799 C 0.95628 0.07484 0.87426 0.0
C1800 C 0.89671 0.1141 0.85029 0.0
C1801 C 0.97444 0.05374 0.86843 0.0
C1802 C 0.82341 0.20385 0.87242 0.0
C1803 C 0.84498 0.18651 0.8661 0.0
C1804 C 0.90352 0.14634 0.88882 0.0
C1805 C 0.94113 0.08878 0.85751 0.0
C1806 C 0.92029 0.11026 0.86363 0.0
C1807 C 0.85816 0.1699 0.88222 0.0
C1808 C 0.88004 0.15005 0.87544 0.0
H1809 H 0.9654 0.05462 0.81128 0.0
H1810 H 0.93515 0.09186 0.82113 0.0
H1811 H 0.94127 0.12518 0.89355 0.0
H1812 H 0.82116 0.18849 0.92864 0.0
H1813 H 0.85885 0.15898 0.91777 0.0
C1814 C 0.76332 0.18818 0.57316 0.0
C1815 C 0.77678 0.20402 0.58959 0.0
C1816 C 0.74187 0.1707 0.57909 0.0
C1817 C 0.694 0.15186 0.62675 0.0
H1818 H 0.6871 0.08512 0.59214 0.0
C1819 C 0.62958 0.05861 0.65665 0.0
C1820 C 0.61427 0.04419 0.64039 0.0
C1821 C 0.64728 0.07972 0.65026 0.0
C1822 C 0.68846 0.10378 0.60185 0.0
H1823 H 0.77773 0.21392 0.62531 0.0
H1824 H 0.74091 0.18289 0.63588 0.0
H1825 H 0.72185 0.11815 0.58194 0.0
H1826 H 0.60557 0.04123 0.6045 0.0
H1827 H 0.63669 0.07788 0.59329 0.0
H1828 H 0.66109 0.13667 0.64716 0.0
C1829 C 0.74641 0.1844 0.61818 0.0
C1830 C 0.70847 0.12297 0.59594 0.0
C1831 C 0.76767 0.2023 0.61214 0.0
C1832 C 0.61683 0.05193 0.61753 0.0
C1833 C 0.6349 0.07282 0.61108 0.0
C1834 C 0.67421 0.13245 0.63284 0.0
C1835 C 0.73336 0.16793 0.60179 0.0
C1836 C 0.71164 0.14746 0.60822 0.0
C1837 C 0.6506 0.08688 0.62734 0.0
C1838 C 0.67111 0.10811 0.62046 0.0
H1839 H 0.76957 0.18904 0.55557 0.0
H1840 H 0.7321 0.15923 0.56571 0.0
H1841 H 0.69521 0.17046 0.63651 0.0
H1842 H 0.62826 0.05327 0.67442 0.0
H1843 H 0.6591 0.08983 0.66327 0.0
C1844 C 0.7617 0.85278 0.4122 0.0
C1845 C 0.77581 0.83795 0.39551 0.0
C1846 C 0.74009 0.87016 0.40647 0.0
C1847 C 0.69289 0.88999 0.35864 0.0
H1848 H 0.68377 0.95516 0.39492 0.0
C1849 C 0.6277 0.98305 0.32991 0.0
C1850 C 0.61168 0.99664 0.34619 0.0
C1851 C 0.64553 0.96202 0.33615 0.0
C1852 C 0.68575 0.93692 0.38474 0.0
H1853 H 0.77776 0.82976 0.35951 0.0
H1854 H 0.74068 0.8606 0.34932 0.0
H1855 H 0.71894 0.92242 0.40484 0.0
H1856 H 0.60189 0.99824 0.38194 0.0
H1857 H 0.63326 0.96168 0.39291 0.0
H1858 H 0.66019 0.9053 0.33808 0.0
C1859 C 0.74579 0.85837 0.36706 0.0
C1860 C 0.706 0.91791 0.39048 0.0
C1861 C 0.76723 0.8406 0.37287 0.0
C1862 C 0.61368 0.98815 0.3689 0.0
C1863 C 0.63189 0.96733 0.37521 0.0
C1864 C 0.67286 0.90921 0.35274 0.0
C1865 C 0.73203 0.87379 0.38374 0.0
C1866 C 0.71 0.89402 0.37757 0.0
C1867 C 0.6483 0.95411 0.35895 0.0
C1868 C 0.66897 0.933 0.3657 0.0
H1869 H 0.76753 0.85117 0.42985 0.0
H1870 H 0.72979 0.88083 0.42003 0.0
H1871 H 0.69472 0.87181 0.34839 0.0
H1872 H 0.62684 0.98901 0.31226 0.0
H1873 H 0.65791 0.95258 0.32315 0.0
C1874 C 0.96237 0.98291 0.15951 0.0
C1875 C 0.97713 0.99708 0.14282 0.0
C1876 C 0.94448 0.96172 0.1537 0.0
C1877 C 0.9228 0.91603 0.10532 0.0
H1878 H 0.85836 0.90677 0.14249 0.0
C1879 C 0.8277 0.85381 0.07656 0.0
C1880 C 0.81432 0.83728 0.09258 0.0
C1881 C 0.84923 0.871 0.08294 0.0
C1882 C 0.87638 0.9088 0.13205 0.0
H1883 H 0.98459 0.99964 0.10675 0.0
H1884 H 0.95287 0.96338 0.09644 0.0
H1885 H 0.89192 0.94111 0.1526 0.0
H1886 H 0.81358 0.82588 0.12801 0.0
H1887 H 0.851 0.8562 0.13924 0.0
H1888 H 0.90641 0.88427 0.0843 0.0
C1889 C 0.95556 0.96805 0.11422 0.0
C1890 C 0.89587 0.92857 0.1379 0.0
C1891 C 0.97384 0.98902 0.1201 0.0
C1892 C 0.8235 0.8381 0.11517 0.0
C1893 C 0.84482 0.8557 0.12164 0.0
C1894 C 0.90308 0.89651 0.09931 0.0
C1895 C 0.94024 0.9542 0.1309 0.0
C1896 C 0.91951 0.93261 0.12467 0.0
C1897 C 0.85785 0.8726 0.10564 0.0
C1898 C 0.87954 0.8926 0.11256 0.0
H1899 H 0.96444 0.98835 0.17721 0.0
H1900 H 0.93391 0.95133 0.16725 0.0
H1901 H 0.94075 0.91787 0.09481 0.0
H1902 H 0.82121 0.85386 0.05902 0.0
H1903 H 0.85851 0.88379 0.07015 0.0
C1904 C 0.6422 0.49989 0.64543 0.0
C1905 C 0.649 0.50827 0.66742 0.0
C1906 C 0.66207 0.48847 0.63144 0.0
C1907 C 0.73484 0.47561 0.62222 0.0
H1908 H 0.71085 0.4022 0.60835 0.0
C1909 C 0.78407 0.39855 0.55967 0.0
C1910 C 0.78453 0.37122 0.56664 0.0
C1911 C 0.77328 0.41857 0.57383 0.0
C1912 C 0.71789 0.42256 0.61229 0.0
H1913 H 0.68198 0.51412 0.6913 0.0
H1914 H 0.71688 0.49449 0.66663 0.0
H1915 H 0.67939 0.43397 0.62617 0.0
H1916 H 0.77642 0.34355 0.59434 0.0
H1917 H 0.7571 0.3786 0.6191 0.0
H1918 H 0.77336 0.46401 0.60783 0.0
C1919 C 0.69627 0.49655 0.66029 0.0
C1920 C 0.69979 0.44084 0.62213 0.0
C1921 C 0.67635 0.50764 0.67439 0.0
C1922 C 0.7763 0.36452 0.58868 0.0
C1923 C 0.76517 0.38448 0.60273 0.0
C1924 C 0.75291 0.45736 0.61191 0.0
C1925 C 0.68899 0.48565 0.63918 0.0
C1926 C 0.70806 0.46749 0.62719 0.0
C1927 C 0.7625 0.4114 0.595 0.0
C1928 C 0.74457 0.43063 0.60707 0.0
H1929 H 0.62121 0.50013 0.63977 0.0
H1930 H 0.65609 0.48031 0.61512 0.0
H1931 H 0.74166 0.49603 0.62618 0.0
H1932 H 0.79046 0.4041 0.54272 0.0
H1933 H 0.77133 0.43916 0.56749 0.0
C1934 C 0.81297 0.39339 0.92537 0.0
C1935 C 0.81335 0.36551 0.9201 0.0
C1936 C 0.82562 0.41213 0.91113 0.0
C1937 C 0.88369 0.41375 0.87355 0.0
H1938 H 0.86037 0.4874 0.86004 0.0
C1939 C 0.95887 0.4907 0.83735 0.0
C1940 C 0.94988 0.50249 0.81707 0.0
C1941 C 0.94027 0.47778 0.85167 0.0
C1942 C 0.86711 0.4669 0.86378 0.0
H1943 H 0.82509 0.33545 0.89514 0.0
H1944 H 0.84725 0.36836 0.87 0.0
H1945 H 0.8287 0.45577 0.87837 0.0
H1946 H 0.91455 0.51252 0.79675 0.0
H1947 H 0.88204 0.49006 0.82176 0.0
H1948 H 0.92195 0.42464 0.85894 0.0
C1949 C 0.83742 0.37563 0.88528 0.0
C1950 C 0.84903 0.44885 0.87421 0.0
C1951 C 0.82457 0.35687 0.89949 0.0
C1952 C 0.92188 0.50333 0.81228 0.0
C1953 C 0.9033 0.49061 0.82663 0.0
C1954 C 0.90176 0.4318 0.86333 0.0
C1955 C 0.83898 0.40324 0.89146 0.0
C1956 C 0.85716 0.42207 0.87909 0.0
C1957 C 0.91247 0.47671 0.84593 0.0
C1958 C 0.89368 0.45853 0.85833 0.0
H1959 H 0.80422 0.40046 0.94116 0.0
H1960 H 0.82655 0.43325 0.91633 0.0
H1961 H 0.89068 0.39339 0.8775 0.0
H1962 H 0.98039 0.48983 0.84133 0.0
H1963 H 0.94777 0.46753 0.86666 0.0
C1964 C 0.95092 0.54249 0.14563 0.0
C1965 C 0.94382 0.53396 0.1675 0.0
C1966 C 0.93125 0.55404 0.13153 0.0
C1967 C 0.85851 0.56711 0.12196 0.0
H1968 H 0.88285 0.64045 0.10837 0.0
C1969 C 0.8092 0.64458 0.05989 0.0
C1970 C 0.80881 0.67187 0.06699 0.0
C1971 C 0.82014 0.62449 0.07388 0.0
C1972 C 0.87572 0.6201 0.11222 0.0
H1973 H 0.91053 0.52795 0.19105 0.0
H1974 H 0.87598 0.54781 0.1662 0.0
H1975 H 0.91414 0.60849 0.12613 0.0
H1976 H 0.81726 0.69942 0.09474 0.0
H1977 H 0.83682 0.66424 0.11921 0.0
H1978 H 0.82006 0.57893 0.10758 0.0
C1979 C 0.89666 0.54578 0.16002 0.0
C1980 C 0.89372 0.60171 0.12202 0.0
C1981 C 0.91638 0.53456 0.17423 0.0
C1982 C 0.81732 0.67848 0.08899 0.0
C1983 C 0.82859 0.65844 0.10287 0.0
C1984 C 0.84054 0.58547 0.11169 0.0
C1985 C 0.90423 0.55684 0.13906 0.0
C1986 C 0.88531 0.5751 0.127 0.0
C1987 C 0.83113 0.63155 0.09501 0.0
C1988 C 0.84901 0.61218 0.10696 0.0
H1989 H 0.97198 0.54227 0.14017 0.0
H1990 H 0.93744 0.56231 0.11532 0.0
H1991 H 0.85159 0.54671 0.12584 0.0
H1992 H 0.80261 0.63911 0.04297 0.0
H1993 H 0.82198 0.60392 0.06745 0.0
C1994 C 0.63869 0.5401 0.33892 0.0
C1995 C 0.64511 0.53184 0.31682 0.0
C1996 C 0.65886 0.55122 0.35278 0.0
C1997 C 0.73187 0.56353 0.36133 0.0
H1998 H 0.70861 0.63708 0.37551 0.0
C1999 C 0.78238 0.64031 0.42345 0.0
C2000 C 0.78285 0.66764 0.41649 0.0
C2001 C 0.77136 0.62033 0.40937 0.0
C2002 C 0.71545 0.61667 0.37148 0.0
H2003 H 0.67771 0.5258 0.29262 0.0
H2004 H 0.71313 0.54492 0.31706 0.0
H2005 H 0.67665 0.60554 0.358 0.0
H2006 H 0.77458 0.69534 0.38883 0.0
H2007 H 0.75488 0.66035 0.36422 0.0
H2008 H 0.77069 0.57486 0.37532 0.0
C2009 C 0.6926 0.54301 0.32358 0.0
C2010 C 0.69706 0.59853 0.36182 0.0
C2011 C 0.67237 0.53222 0.30961 0.0
C2012 C 0.77445 0.67436 0.39449 0.0
C2013 C 0.76311 0.65444 0.38052 0.0
C2014 C 0.75022 0.58165 0.37146 0.0
C2015 C 0.6857 0.55385 0.3448 0.0
C2016 C 0.70507 0.57184 0.35665 0.0
C2017 C 0.76039 0.62754 0.38829 0.0
C2018 C 0.74215 0.60843 0.3764 0.0
H2019 H 0.61777 0.54004 0.34477 0.0
H2020 H 0.65318 0.55934 0.36919 0.0
H2021 H 0.73848 0.54307 0.35728 0.0
H2022 H 0.7889 0.63475 0.44037 0.0
H2023 H 0.76939 0.59975 0.41573 0.0
C2024 C 0.33371 0.68955 0.40804 0.0
C2025 C 0.31909 0.70365 0.39122 0.0
C2026 C 0.35503 0.6718 0.40238 0.0
C2027 C 0.40044 0.64917 0.35426 0.0
H2028 H 0.40943 0.58534 0.39211 0.0
C2029 C 0.46266 0.55378 0.32655 0.0
C2030 C 0.47871 0.54018 0.34279 0.0
C2031 C 0.44563 0.5755 0.33269 0.0
C2032 C 0.4075 0.6032 0.38149 0.0
H2033 H 0.31599 0.71021 0.35506 0.0
H2034 H 0.35264 0.67873 0.34501 0.0
H2035 H 0.37518 0.61913 0.40181 0.0
H2036 H 0.48949 0.53936 0.37835 0.0
H2037 H 0.45951 0.57718 0.38917 0.0
H2038 H 0.43227 0.63244 0.33351 0.0
C2039 C 0.34811 0.68183 0.36277 0.0
C2040 C 0.38778 0.62281 0.38709 0.0
C2041 C 0.32695 0.69997 0.36851 0.0
C2042 C 0.47763 0.54941 0.36535 0.0
C2043 C 0.46021 0.57097 0.37158 0.0
C2044 C 0.41997 0.62936 0.34851 0.0
C2045 C 0.36228 0.66704 0.37961 0.0
C2046 C 0.38382 0.64622 0.3736 0.0
C2047 C 0.44373 0.58416 0.35536 0.0
C2048 C 0.42379 0.60602 0.36202 0.0
H2049 H 0.32843 0.69194 0.42576 0.0
H2050 H 0.36569 0.66166 0.41602 0.0
H2051 H 0.39861 0.66694 0.34355 0.0
H2052 H 0.46283 0.54729 0.309 0.0
H2053 H 0.43316 0.58488 0.31973 0.0
C2054 C 0.12848 0.55272 0.16352 0.0
C2055 C 0.11294 0.53899 0.14704 0.0
C2056 C 0.14584 0.57428 0.15759 0.0
C2057 C 0.16445 0.62194 0.1097 0.0
H2058 H 0.23064 0.63062 0.14479 0.0
C2059 C 0.25712 0.68704 0.07965 0.0
C2060 C 0.27103 0.70303 0.09576 0.0
C2061 C 0.2362 0.66919 0.08616 0.0
C2062 C 0.21212 0.62875 0.13494 0.0
H2063 H 0.10352 0.53762 0.11124 0.0
H2064 H 0.13434 0.57456 0.1007 0.0
H2065 H 0.19807 0.59546 0.1551 0.0
H2066 H 0.27334 0.71272 0.13151 0.0
H2067 H 0.23701 0.6813 0.14294 0.0
H2068 H 0.17934 0.65473 0.08904 0.0
C2069 C 0.13267 0.56923 0.11842 0.0
C2070 C 0.1932 0.60851 0.14091 0.0
C2071 C 0.11491 0.54787 0.12445 0.0
C2072 C 0.26299 0.70097 0.11859 0.0
C2073 C 0.2423 0.68272 0.12517 0.0
C2074 C 0.1836 0.64195 0.10355 0.0
C2075 C 0.14877 0.58265 0.13487 0.0
C2076 C 0.16893 0.60467 0.12844 0.0
C2077 C 0.22875 0.66636 0.10906 0.0
C2078 C 0.20775 0.64568 0.11608 0.0
H2079 H 0.12741 0.54666 0.18114 0.0
H2080 H 0.15703 0.58431 0.171 0.0
H2081 H 0.14599 0.62026 0.09979 0.0
H2082 H 0.26273 0.68794 0.06192 0.0
H2083 H 0.22648 0.65685 0.07327 0.0
C2084 C 0.26323 0.34203 0.86623 0.0
C2085 C 0.2704 0.33783 0.88904 0.0
C2086 C 0.24225 0.36032 0.86035 0.0
C2087 C 0.20177 0.41875 0.88484 0.0
H2088 H 0.15901 0.41038 0.83013 0.0
C2089 C 0.11216 0.4922 0.86263 0.0
C2090 C 0.11163 0.50202 0.84023 0.0
C2091 C 0.1296 0.47064 0.86879 0.0
C2092 C 0.17083 0.41311 0.84545 0.0
H2093 H 0.26002 0.34876 0.92355 0.0
H2094 H 0.22306 0.37927 0.91354 0.0
H2095 H 0.19241 0.37569 0.84027 0.0
H2096 H 0.12856 0.49598 0.80666 0.0
H2097 H 0.15827 0.45836 0.81725 0.0
H2098 H 0.17988 0.45604 0.89007 0.0
C2099 C 0.23414 0.36944 0.89997 0.0
C2100 C 0.19021 0.39319 0.85126 0.0
C2101 C 0.25528 0.35155 0.90578 0.0
C2102 C 0.1283 0.48903 0.82407 0.0
C2103 C 0.14535 0.46729 0.83013 0.0
C2104 C 0.18218 0.43846 0.87916 0.0
C2105 C 0.22758 0.37473 0.87713 0.0
C2106 C 0.2062 0.39568 0.87102 0.0
C2107 C 0.14666 0.45802 0.85265 0.0
C2108 C 0.16652 0.43609 0.8593 0.0
H2109 H 0.27459 0.33211 0.85285 0.0
H2110 H 0.23827 0.36382 0.84256 0.0
H2111 H 0.21389 0.42208 0.89989 0.0
H2112 H 0.09982 0.50177 0.87558 0.0
H2113 H 0.12983 0.46395 0.88626 0.0
C2114 C 0.33337 0.35492 0.58034 0.0
C2115 C 0.31951 0.33909 0.59657 0.0
C2116 C 0.3544 0.37273 0.58671 0.0
C2117 C 0.37896 0.41329 0.6353 0.0
H2118 H 0.44504 0.4211 0.59999 0.0
C2119 C 0.46333 0.48863 0.66362 0.0
C2120 C 0.47884 0.50224 0.64708 0.0
C2121 C 0.4458 0.46718 0.65776 0.0
C2122 C 0.4266 0.4196 0.60994 0.0
H2123 H 0.31738 0.32963 0.63236 0.0
H2124 H 0.35387 0.36099 0.64353 0.0
H2125 H 0.41137 0.38685 0.58937 0.0
H2126 H 0.48806 0.50352 0.61125 0.0
H2127 H 0.45695 0.46677 0.60081 0.0
H2128 H 0.39335 0.44653 0.65538 0.0
C2129 C 0.34847 0.35948 0.62579 0.0
C2130 C 0.40727 0.39973 0.60386 0.0
C2131 C 0.32768 0.34129 0.61936 0.0
C2132 C 0.47669 0.49335 0.62449 0.0
C2133 C 0.45877 0.47211 0.61853 0.0
C2134 C 0.39806 0.43339 0.6412 0.0
C2135 C 0.36199 0.37567 0.60958 0.0
C2136 C 0.38314 0.39625 0.61646 0.0
C2137 C 0.44268 0.45882 0.63503 0.0
C2138 C 0.42232 0.43696 0.62868 0.0
H2139 H 0.32767 0.35389 0.56263 0.0
H2140 H 0.36411 0.38494 0.57375 0.0
H2141 H 0.36046 0.41161 0.64519 0.0
H2142 H 0.46453 0.49471 0.68124 0.0
H2143 H 0.43461 0.45723 0.6712 0.0
loop_
_geom_bond_atom_site_label_1
_geom_bond_atom_site_label_2
_geom_bond_distance
_geom_bond_site_symmetry_2
_ccdc_geom_bond_type
O0 Tb1 2.292 1_455 S
O0 C3 1.255 . S
Tb1 O0 2.292 1_655 S
Tb1 O17 2.326 . S
Tb1 O19 2.500 . S
Tb1 O20 2.473 . S
Tb1 O23 2.324 . S
Eu2 O6 2.292 . S
Eu2 C7 2.852 1_655 S
Eu2 O18 2.324 1_655 S
Eu2 O22 2.326 . S
Eu2 O24 2.500 1_645 S
Eu2 O25 2.473 1_655 S
C3 O0 1.255 . S
C3 O4 1.247 . S
O4 C3 1.247 . S
C5 O17 1.225 1_455 S
C5 O18 1.260 . S
O6 Eu2 2.292 . S
O6 C8 1.255 . S
C7 Eu2 2.852 1_455 S
C7 C11 1.503 1_545 S
C7 O24 1.273 1_545 S
C7 O25 1.257 . S
C8 O6 1.255 . S
C8 O9 1.247 . S
O9 C8 1.247 . S
C10 O22 1.242 1_565 S
C10 O23 1.258 1_565 S
C11 C7 1.503 1_565 S
C11 C12 1.379 . S
C11 C16 1.392 . S
C12 C11 1.379 . S
C12 C13 1.404 . S
C12 H26 0.894 1_565 S
C13 C12 1.404 . S
C13 C14 1.389 . S
C14 C13 1.389 . S
C14 C15 1.399 . S
C14 H27 0.931 . S
C15 C14 1.399 . S
C15 C16 1.390 . S
C16 C11 1.392 . S
C16 C15 1.390 . S
C16 H28 0.929 . S
O17 Tb1 2.326 . S
O17 C5 1.225 1_655 S
O18 Eu2 2.324 1_455 S
O18 C5 1.260 . S
O19 Tb1 2.500 . S
O19 C21 1.273 . S
O20 Tb1 2.473 . S
O20 C21 1.257 . S
C21 O19 1.273 . S
C21 O20 1.257 . S
O22 Eu2 2.326 . S
O22 C10 1.242 1_545 S
O23 Tb1 2.324 . S
O23 C10 1.258 1_545 S
O24 Eu2 2.500 1_465 S
O24 C7 1.273 1_565 S
O25 Eu2 2.473 1_455 S
O25 C7 1.257 . S
H26 C12 0.894 1_545 S
H27 C14 0.931 . S
H28 C16 0.929 . S
O29 Tb30 2.292 . S
O29 C32 1.255 . S
Tb30 O29 2.292 . S
Tb30 O46 2.326 . S
Tb30 O48 2.500 . S
Tb30 O49 2.473 . S
Tb30 O52 2.324 . S
Eu31 O35 2.292 . S
Eu31 C36 2.852 . S
Eu31 O47 2.324 . S
Eu31 O51 2.326 . S
Eu31 O53 2.500 . S
Eu31 O54 2.473 . S
C32 O29 1.255 . S
C32 O33 1.247 . S
O33 C32 1.247 . S
C34 O46 1.242 . S
C34 O47 1.258 . S
O35 Eu31 2.292 . S
O35 C37 1.255 . S
C36 Eu31 2.852 . S
C36 C40 1.503 . S
C36 O53 1.273 . S
C36 O54 1.257 . S
C37 O35 1.255 . S
C37 O38 1.247 . S
O38 C37 1.247 . S
C39 O51 1.242 . S
C39 O52 1.258 . S
C40 C36 1.503 . S
C40 C41 1.379 . S
C40 C45 1.392 . S
C41 C40 1.379 . S
C41 C42 1.404 . S
C41 H55 0.929 . S
C42 C41 1.404 . S
C42 C43 1.389 . S
C43 C42 1.389 . S
C43 C44 1.399 . S
C43 H56 0.931 . S
C44 C43 1.399 . S
C44 C45 1.390 . S
C45 C40 1.392 . S
C45 C44 1.390 . S
C45 H57 0.929 . S
O46 Tb30 2.326 . S
O46 C34 1.242 . S
O47 Eu31 2.324 . S
O47 C34 1.258 . S
O48 Tb30 2.500 . S
O48 C50 1.273 . S
O49 Tb30 2.473 . S
O49 C50 1.257 . S
C50 O48 1.273 . S
C50 O49 1.257 . S
O51 Eu31 2.326 . S
O51 C39 1.242 . S
O52 Tb30 2.324 . S
O52 C39 1.258 . S
O53 Eu31 2.500 . S
O53 C36 1.273 . S
O54 Eu31 2.473 . S
O54 C36 1.257 . S
H55 C41 0.929 . S
H56 C43 0.931 . S
H57 C45 0.929 . S
O58 Tb59 2.292 . S
O58 C61 1.255 . S
Tb59 O58 2.292 . S
Tb59 O75 2.326 . S
Tb59 O77 2.500 . S
Tb59 O78 2.473 . S
Tb59 O81 2.324 . S
Eu60 O64 2.292 . S
Eu60 C65 2.852 . S
Eu60 O76 2.324 . S
Eu60 O80 2.326 . S
Eu60 O82 2.500 1_565 S
Eu60 O83 2.473 . S
C61 O58 1.255 . S
C61 O62 1.247 . S
O62 C61 1.247 . S
C63 O75 1.242 . S
C63 O76 1.258 . S
O64 Eu60 2.292 . S
O64 C66 1.255 . S
C65 Eu60 2.852 . S
C65 C69 1.503 1_565 S
C65 O82 1.273 1_565 S
C65 O83 1.257 . S
C66 O64 1.255 . S
C66 O67 1.247 . S
O67 C66 1.247 . S
C68 O80 1.242 1_545 S
C68 O81 1.258 1_545 S
C69 C65 1.503 1_545 S
C69 C70 1.379 . S
C69 C74 1.392 . S
C70 C69 1.379 . S
C70 C71 1.404 . S
C70 H84 0.894 1_545 S
C71 C70 1.404 . S
C71 C72 1.389 . S
C72 C71 1.389 . S
C72 C73 1.399 . S
C72 H85 0.931 . S
C73 C72 1.399 . S
C73 C74 1.390 . S
C74 C69 1.392 . S
C74 C73 1.390 . S
C74 H86 0.929 . S
O75 Tb59 2.326 . S
O75 C63 1.242 . S
O76 Eu60 2.324 . S
O76 C63 1.258 . S
O77 Tb59 2.500 . S
O77 C79 1.273 . S
O78 Tb59 2.473 . S
O78 C79 1.257 . S
C79 O77 1.273 . S
C79 O78 1.257 . S
O80 Eu60 2.326 . S
O80 C68 1.242 1_565 S
O81 Tb59 2.324 . S
O81 C68 1.258 1_565 S
O82 Eu60 2.500 1_545 S
O82 C65 1.273 1_545 S
O83 Eu60 2.473 . S
O83 C65 1.257 . S
H84 C70 0.894 1_565 S
H85 C72 0.931 . S
H86 C74 0.929 . S
O87 Tb88 2.292 . S
O87 C90 1.255 . S
Tb88 O87 2.292 . S
Tb88 O104 2.326 . S
Tb88 O106 2.500 . S
Tb88 O107 2.473 . S
Tb88 O110 2.324 . S
Eu89 O93 2.292 . S
Eu89 C94 2.852 . S
Eu89 O105 2.324 . S
Eu89 O109 2.326 . S
Eu89 O111 2.500 . S
Eu89 O112 2.473 . S
C90 O87 1.255 . S
C90 O91 1.247 . S
O91 C90 1.247 . S
C92 O104 1.242 . S
C92 O105 1.258 . S
O93 Eu89 2.292 . S
O93 C95 1.255 . S
C94 Eu89 2.852 . S
C94 C98 1.503 . S
C94 O111 1.273 . S
C94 O112 1.257 . S
C95 O93 1.255 . S
C95 O96 1.247 . S
O96 C95 1.247 . S
C97 O109 1.242 . S
C97 O110 1.258 . S
C98 C94 1.503 . S
C98 C99 1.379 . S
C98 C103 1.392 . S
C99 C98 1.379 . S
C99 C100 1.404 . S
C99 H113 0.929 . S
C100 C99 1.404 . S
C100 C101 1.389 . S
C101 C100 1.389 . S
C101 C102 1.399 . S
C101 H114 0.931 . S
C102 C101 1.399 . S
C102 C103 1.390 . S
C103 C98 1.392 . S
C103 C102 1.390 . S
C103 H115 0.929 . S
O104 Tb88 2.326 . S
O104 C92 1.242 . S
O105 Eu89 2.324 . S
O105 C92 1.258 . S
O106 Tb88 2.500 . S
O106 C108 1.273 . S
O107 Tb88 2.473 . S
O107 C108 1.257 . S
C108 O106 1.273 . S
C108 O107 1.257 . S
O109 Eu89 2.326 . S
O109 C97 1.242 . S
O110 Tb88 2.324 . S
O110 C97 1.258 . S
O111 Eu89 2.500 . S
O111 C94 1.273 . S
O112 Eu89 2.473 . S
O112 C94 1.257 . S
H113 C99 0.929 . S
H114 C101 0.931 . S
H115 C103 0.929 . S
O116 Tb117 2.292 1_455 S
O116 C119 1.255 . S
Tb117 O116 2.292 1_655 S
Tb117 O133 2.326 . S
Tb117 O135 2.500 . S
Tb117 O136 2.473 . S
Tb117 O139 2.324 . S
Eu118 O122 2.292 . S
Eu118 C123 2.852 1_655 S
Eu118 O134 2.324 1_655 S
Eu118 O138 2.326 . S
Eu118 O140 2.500 1_665 S
Eu118 O141 2.473 1_655 S
C119 O116 1.255 . S
C119 O120 1.247 . S
O120 C119 1.247 . S
C121 O133 1.225 1_455 S
C121 O134 1.260 . S
O122 Eu118 2.292 . S
O122 C124 1.255 . S
C123 Eu118 2.852 1_455 S
C123 C127 1.503 1_565 S
C123 O140 1.273 1_565 S
C123 O141 1.257 . S
C124 O122 1.255 . S
C124 O125 1.247 . S
O125 C124 1.247 . S
C126 O138 1.242 1_545 S
C126 O139 1.258 1_545 S
C127 C123 1.503 1_545 S
C127 C128 1.379 . S
C127 C132 1.392 . S
C128 C127 1.379 . S
C128 C129 1.404 . S
C128 H142 0.894 1_545 S
C129 C128 1.404 . S
C129 C130 1.389 . S
C130 C129 1.389 . S
C130 C131 1.399 . S
C130 H143 0.931 . S
C131 C130 1.399 . S
C131 C132 1.390 . S
C132 C127 1.392 . S
C132 C131 1.390 . S
C132 H144 0.929 . S
O133 Tb117 2.326 . S
O133 C121 1.225 1_655 S
O134 Eu118 2.324 1_455 S
O134 C121 1.260 . S
O135 Tb117 2.500 . S
O135 C137 1.273 . S
O136 Tb117 2.473 . S
O136 C137 1.257 . S
C137 O135 1.273 . S
C137 O136 1.257 . S
O138 Eu118 2.326 . S
O138 C126 1.242 1_565 S
O139 Tb117 2.324 . S
O139 C126 1.258 1_565 S
O140 Eu118 2.500 1_445 S
O140 C123 1.273 1_545 S
O141 Eu118 2.473 1_455 S
O141 C123 1.257 . S
H142 C128 0.894 1_565 S
H143 C130 0.931 . S
H144 C132 0.929 . S
O145 Tb146 2.292 . S
O145 C148 1.255 . S
Tb146 O145 2.292 . S
Tb146 O162 2.326 . S
Tb146 O164 2.500 . S
Tb146 O165 2.473 . S
Tb146 O168 2.324 . S
Eu147 O151 2.292 . S
Eu147 C152 2.852 . S
Eu147 O163 2.324 . S
Eu147 O167 2.326 . S
Eu147 O169 2.500 . S
Eu147 O170 2.473 . S
C148 O145 1.255 . S
C148 O149 1.247 . S
O149 C148 1.247 . S
C150 O162 1.242 . S
C150 O163 1.258 . S
O151 Eu147 2.292 . S
O151 C153 1.255 . S
C152 Eu147 2.852 . S
C152 C156 1.503 . S
C152 O169 1.273 . S
C152 O170 1.257 . S
C153 O151 1.255 . S
C153 O154 1.247 . S
O154 C153 1.247 . S
C155 O167 1.242 . S
C155 O168 1.258 . S
C156 C152 1.503 . S
C156 C157 1.379 . S
C156 C161 1.392 . S
C157 C156 1.379 . S
C157 C158 1.404 . S
C157 H171 0.929 . S
C158 C157 1.404 . S
C158 C159 1.389 . S
C159 C158 1.389 . S
C159 C160 1.399 . S
C159 H172 0.931 . S
C160 C159 1.399 . S
C160 C161 1.390 . S
C161 C156 1.392 . S
C161 C160 1.390 . S
C161 H173 0.929 . S
O162 Tb146 2.326 . S
O162 C150 1.242 . S
O163 Eu147 2.324 . S
O163 C150 1.258 . S
O164 Tb146 2.500 . S
O164 C166 1.273 . S
O165 Tb146 2.473 . S
O165 C166 1.257 . S
C166 O164 1.273 . S
C166 O165 1.257 . S
O167 Eu147 2.326 . S
O167 C155 1.242 . S
O168 Tb146 2.324 . S
O168 C155 1.258 . S
O169 Eu147 2.500 . S
O169 C152 1.273 . S
O170 Eu147 2.473 . S
O170 C152 1.257 . S
H171 C157 0.929 . S
H172 C159 0.931 . S
H173 C161 0.929 . S
O174 Tb175 2.292 . S
O174 C177 1.255 . S
Tb175 O174 2.292 . S
Tb175 O191 2.326 . S
Tb175 O193 2.500 . S
Tb175 O194 2.473 . S
Tb175 O197 2.324 . S
Eu176 O180 2.292 . S
Eu176 C181 2.852 . S
Eu176 O192 2.324 . S
Eu176 O196 2.326 . S
Eu176 O198 2.500 1_545 S
Eu176 O199 2.473 . S
C177 O174 1.255 . S
C177 O178 1.247 . S
O178 C177 1.247 . S
C179 O191 1.242 . S
C179 O192 1.258 . S
O180 Eu176 2.292 . S
O180 C182 1.255 . S
C181 Eu176 2.852 . S
C181 C185 1.503 1_545 S
C181 O198 1.273 1_545 S
C181 O199 1.257 . S
C182 O180 1.255 . S
C182 O183 1.247 . S
O183 C182 1.247 . S
C184 O196 1.242 1_565 S
C184 O197 1.258 1_565 S
C185 C181 1.503 1_565 S
C185 C186 1.379 . S
C185 C190 1.392 . S
C186 C185 1.379 . S
C186 C187 1.404 . S
C186 H200 0.894 1_565 S
C187 C186 1.404 . S
C187 C188 1.389 . S
C188 C187 1.389 . S
C188 C189 1.399 . S
C188 H201 0.931 . S
C189 C188 1.399 . S
C189 C190 1.390 . S
C190 C185 1.392 . S
C190 C189 1.390 . S
C190 H202 0.929 . S
O191 Tb175 2.326 . S
O191 C179 1.242 . S
O192 Eu176 2.324 . S
O192 C179 1.258 . S
O193 Tb175 2.500 . S
O193 C195 1.273 . S
O194 Tb175 2.473 . S
O194 C195 1.257 . S
C195 O193 1.273 . S
C195 O194 1.257 . S
O196 Eu176 2.326 . S
O196 C184 1.242 1_545 S
O197 Tb175 2.324 . S
O197 C184 1.258 1_545 S
O198 Eu176 2.500 1_565 S
O198 C181 1.273 1_565 S
O199 Eu176 2.473 . S
O199 C181 1.257 . S
H200 C186 0.894 1_545 S
H201 C188 0.931 . S
H202 C190 0.929 . S
O203 Tb204 2.292 . S
O203 C206 1.255 . S
Tb204 O203 2.292 . S
Tb204 O220 2.326 . S
Tb204 O222 2.500 . S
Tb204 O223 2.473 . S
Tb204 O226 2.324 . S
Eu205 O209 2.292 . S
Eu205 C210 2.852 . S
Eu205 O221 2.324 . S
Eu205 O225 2.326 . S
Eu205 O227 2.500 . S
Eu205 O228 2.473 . S
C206 O203 1.255 . S
C206 O207 1.247 . S
O207 C206 1.247 . S
C208 O220 1.242 . S
C208 O221 1.258 . S
O209 Eu205 2.292 . S
O209 C211 1.255 . S
C210 Eu205 2.852 . S
C210 C214 1.503 . S
C210 O227 1.273 . S
C210 O228 1.257 . S
C211 O209 1.255 . S
C211 O212 1.247 . S
O212 C211 1.247 . S
C213 O225 1.242 . S
C213 O226 1.258 . S
C214 C210 1.503 . S
C214 C215 1.379 . S
C214 C219 1.392 . S
C215 C214 1.379 . S
C215 C216 1.404 . S
C215 H229 0.929 . S
C216 C215 1.404 . S
C216 C217 1.389 . S
C217 C216 1.389 . S
C217 C218 1.399 . S
C217 H230 0.931 . S
C218 C217 1.399 . S
C218 C219 1.390 . S
C219 C214 1.392 . S
C219 C218 1.390 . S
C219 H231 0.929 . S
O220 Tb204 2.326 . S
O220 C208 1.242 . S
O221 Eu205 2.324 . S
O221 C208 1.258 . S
O222 Tb204 2.500 . S
O222 C224 1.273 . S
O223 Tb204 2.473 . S
O223 C224 1.257 . S
C224 O222 1.273 . S
C224 O223 1.257 . S
O225 Eu205 2.326 . S
O225 C213 1.242 . S
O226 Tb204 2.324 . S
O226 C213 1.258 . S
O227 Eu205 2.500 . S
O227 C210 1.273 . S
O228 Eu205 2.473 . S
O228 C210 1.257 . S
H229 C215 0.929 . S
H230 C217 0.931 . S
H231 C219 0.929 . S
O232 Tb233 2.292 . S
O232 C235 1.255 . S
Tb233 O232 2.292 . S
Tb233 O249 2.326 . S
Tb233 O251 2.500 . S
Tb233 O252 2.473 . S
Tb233 O255 2.324 . S
Eu234 O238 2.292 . S
Eu234 C239 2.852 . S
Eu234 O250 2.324 . S
Eu234 O254 2.326 . S
Eu234 O256 2.500 . S
Eu234 O257 2.473 . S
C235 O232 1.255 . S
C235 O236 1.247 . S
O236 C235 1.247 . S
C237 O249 1.242 . S
C237 O250 1.258 . S
O238 Eu234 2.292 . S
O238 C240 1.255 . S
C239 Eu234 2.852 . S
C239 C243 1.503 . S
C239 O256 1.273 . S
C239 O257 1.257 . S
C240 O238 1.255 . S
C240 O241 1.247 . S
O241 C240 1.247 . S
C242 O254 1.242 . S
C242 O255 1.258 . S
C243 C239 1.503 . S
C243 C244 1.379 . S
C243 C248 1.392 . S
C244 C243 1.379 . S
C244 C245 1.404 . S
C244 H258 0.929 . S
C245 C244 1.404 . S
C245 C246 1.389 . S
C246 C245 1.389 . S
C246 C247 1.399 . S
C246 H259 0.931 . S
C247 C246 1.399 . S
C247 C248 1.390 . S
C248 C243 1.392 . S
C248 C247 1.390 . S
C248 H260 0.929 . S
O249 Tb233 2.326 . S
O249 C237 1.242 . S
O250 Eu234 2.324 . S
O250 C237 1.258 . S
O251 Tb233 2.500 . S
O251 C253 1.273 . S
O252 Tb233 2.473 . S
O252 C253 1.257 . S
C253 O251 1.273 . S
C253 O252 1.257 . S
O254 Eu234 2.326 . S
O254 C242 1.242 . S
O255 Tb233 2.324 . S
O255 C242 1.258 . S
O256 Eu234 2.500 . S
O256 C239 1.273 . S
O257 Eu234 2.473 . S
O257 C239 1.257 . S
H258 C244 0.929 . S
H259 C246 0.931 . S
H260 C248 0.929 . S
O261 Tb262 2.292 . S
O261 C264 1.255 . S
Tb262 O261 2.292 . S
Tb262 O278 2.326 . S
Tb262 O280 2.500 . S
Tb262 O281 2.473 . S
Tb262 O284 2.324 . S
Eu263 O267 2.292 . S
Eu263 C268 2.852 . S
Eu263 O279 2.324 . S
Eu263 O283 2.326 . S
Eu263 O285 2.500 . S
Eu263 O286 2.473 . S
C264 O261 1.255 . S
C264 O265 1.247 . S
O265 C264 1.247 . S
C266 O278 1.242 . S
C266 O279 1.258 . S
O267 Eu263 2.292 . S
O267 C269 1.255 . S
C268 Eu263 2.852 . S
C268 C272 1.503 . S
C268 O285 1.273 . S
C268 O286 1.257 . S
C269 O267 1.255 . S
C269 O270 1.247 . S
O270 C269 1.247 . S
C271 O283 1.242 . S
C271 O284 1.258 . S
C272 C268 1.503 . S
C272 C273 1.379 . S
C272 C277 1.392 . S
C273 C272 1.379 . S
C273 C274 1.404 . S
C273 H287 0.929 . S
C274 C273 1.404 . S
C274 C275 1.389 . S
C275 C274 1.389 . S
C275 C276 1.399 . S
C275 H288 0.931 . S
C276 C275 1.399 . S
C276 C277 1.390 . S
C277 C272 1.392 . S
C277 C276 1.390 . S
C277 H289 0.929 . S
O278 Tb262 2.326 . S
O278 C266 1.242 . S
O279 Eu263 2.324 . S
O279 C266 1.258 . S
O280 Tb262 2.500 . S
O280 C282 1.273 . S
O281 Tb262 2.473 . S
O281 C282 1.257 . S
C282 O280 1.273 . S
C282 O281 1.257 . S
O283 Eu263 2.326 . S
O283 C271 1.242 . S
O284 Tb262 2.324 . S
O284 C271 1.258 . S
O285 Eu263 2.500 . S
O285 C268 1.273 . S
O286 Eu263 2.473 . S
O286 C268 1.257 . S
H287 C273 0.929 . S
H288 C275 0.931 . S
H289 C277 0.929 . S
O290 Tb291 2.292 . S
O290 C293 1.255 . S
Tb291 O290 2.292 . S
Tb291 O307 2.326 . S
Tb291 O309 2.500 . S
Tb291 O310 2.473 . S
Tb291 O313 2.324 . S
Eu292 O296 2.292 . S
Eu292 C297 2.852 . S
Eu292 O308 2.324 . S
Eu292 O312 2.326 . S
Eu292 O314 2.500 . S
Eu292 O315 2.473 . S
C293 O290 1.255 . S
C293 O294 1.247 . S
O294 C293 1.247 . S
C295 O307 1.242 . S
C295 O308 1.258 . S
O296 Eu292 2.292 . S
O296 C298 1.255 . S
C297 Eu292 2.852 . S
C297 C301 1.503 . S
C297 O314 1.273 . S
C297 O315 1.257 . S
C298 O296 1.255 . S
C298 O299 1.247 . S
O299 C298 1.247 . S
C300 O312 1.242 . S
C300 O313 1.258 . S
C301 C297 1.503 . S
C301 C302 1.379 . S
C301 C306 1.392 . S
C302 C301 1.379 . S
C302 C303 1.404 . S
C302 H316 0.929 . S
C303 C302 1.404 . S
C303 C304 1.389 . S
C304 C303 1.389 . S
C304 C305 1.399 . S
C304 H317 0.931 . S
C305 C304 1.399 . S
C305 C306 1.390 . S
C306 C301 1.392 . S
C306 C305 1.390 . S
C306 H318 0.929 . S
O307 Tb291 2.326 . S
O307 C295 1.242 . S
O308 Eu292 2.324 . S
O308 C295 1.258 . S
O309 Tb291 2.500 . S
O309 C311 1.273 . S
O310 Tb291 2.473 . S
O310 C311 1.257 . S
C311 O309 1.273 . S
C311 O310 1.257 . S
O312 Eu292 2.326 . S
O312 C300 1.242 . S
O313 Tb291 2.324 . S
O313 C300 1.258 . S
O314 Eu292 2.500 . S
O314 C297 1.273 . S
O315 Eu292 2.473 . S
O315 C297 1.257 . S
H316 C302 0.929 . S
H317 C304 0.931 . S
H318 C306 0.929 . S
O319 Tb320 2.292 . S
O319 C322 1.255 . S
Tb320 O319 2.292 . S
Tb320 O336 2.326 . S
Tb320 O338 2.500 . S
Tb320 O339 2.473 . S
Tb320 O342 2.324 . S
Eu321 O325 2.292 . S
Eu321 C326 2.852 . S
Eu321 O337 2.324 . S
Eu321 O341 2.326 . S
Eu321 O343 2.500 . S
Eu321 O344 2.473 . S
C322 O319 1.255 . S
C322 O323 1.247 . S
O323 C322 1.247 . S
C324 O336 1.242 . S
C324 O337 1.258 . S
O325 Eu321 2.292 . S
O325 C327 1.255 . S
C326 Eu321 2.852 . S
C326 C330 1.503 . S
C326 O343 1.273 . S
C326 O344 1.257 . S
C327 O325 1.255 . S
C327 O328 1.247 . S
O328 C327 1.247 . S
C329 O341 1.242 . S
C329 O342 1.258 . S
C330 C326 1.503 . S
C330 C331 1.379 . S
C330 C335 1.392 . S
C331 C330 1.379 . S
C331 C332 1.404 . S
C331 H345 0.929 . S
C332 C331 1.404 . S
C332 C333 1.389 . S
C333 C332 1.389 . S
C333 C334 1.399 . S
C333 H346 0.931 . S
C334 C333 1.399 . S
C334 C335 1.390 . S
C335 C330 1.392 . S
C335 C334 1.390 . S
C335 H347 0.929 . S
O336 Tb320 2.326 . S
O336 C324 1.242 . S
O337 Eu321 2.324 . S
O337 C324 1.258 . S
O338 Tb320 2.500 . S
O338 C340 1.273 . S
O339 Tb320 2.473 . S
O339 C340 1.257 . S
C340 O338 1.273 . S
C340 O339 1.257 . S
O341 Eu321 2.326 . S
O341 C329 1.242 . S
O342 Tb320 2.324 . S
O342 C329 1.258 . S
O343 Eu321 2.500 . S
O343 C326 1.273 . S
O344 Eu321 2.473 . S
O344 C326 1.257 . S
H345 C331 0.929 . S
H346 C333 0.931 . S
H347 C335 0.929 . S
O348 Tb349 2.292 . S
O348 C351 1.255 . S
Tb349 O348 2.292 . S
Tb349 O365 2.326 . S
Tb349 O367 2.500 . S
Tb349 O368 2.473 . S
Tb349 O371 2.324 . S
Eu350 O354 2.292 . S
Eu350 C355 2.852 . S
Eu350 O366 2.324 . S
Eu350 O370 2.326 . S
Eu350 O372 2.500 . S
Eu350 O373 2.473 . S
C351 O348 1.255 . S
C351 O352 1.247 . S
O352 C351 1.247 . S
C353 O365 1.242 . S
C353 O366 1.258 . S
O354 Eu350 2.292 . S
O354 C356 1.255 . S
C355 Eu350 2.852 . S
C355 C359 1.503 . S
C355 O372 1.273 . S
C355 O373 1.257 . S
C356 O354 1.255 . S
C356 O357 1.247 . S
O357 C356 1.247 . S
C358 O370 1.242 . S
C358 O371 1.258 . S
C359 C355 1.503 . S
C359 C360 1.379 . S
C359 C364 1.392 . S
C360 C359 1.379 . S
C360 C361 1.404 . S
C360 H374 0.929 . S
C361 C360 1.404 . S
C361 C362 1.389 . S
C362 C361 1.389 . S
C362 C363 1.399 . S
C362 H375 0.931 . S
C363 C362 1.399 . S
C363 C364 1.390 . S
C364 C359 1.392 . S
C364 C363 1.390 . S
C364 H376 0.929 . S
O365 Tb349 2.326 . S
O365 C353 1.242 . S
O366 Eu350 2.324 . S
O366 C353 1.258 . S
O367 Tb349 2.500 . S
O367 C369 1.273 . S
O368 Tb349 2.473 . S
O368 C369 1.257 . S
C369 O367 1.273 . S
C369 O368 1.257 . S
O370 Eu350 2.326 . S
O370 C358 1.242 . S
O371 Tb349 2.324 . S
O371 C358 1.258 . S
O372 Eu350 2.500 . S
O372 C355 1.273 . S
O373 Eu350 2.473 . S
O373 C355 1.257 . S
H374 C360 0.929 . S
H375 C362 0.931 . S
H376 C364 0.929 . S
O377 Tb378 2.292 . S
O377 C380 1.255 . S
Tb378 O377 2.292 . S
Tb378 O394 2.326 . S
Tb378 O396 2.500 . S
Tb378 O397 2.473 . S
Tb378 O400 2.324 . S
Eu379 O383 2.292 . S
Eu379 C384 2.852 . S
Eu379 O395 2.324 . S
Eu379 O399 2.326 . S
Eu379 O401 2.500 . S
Eu379 O402 2.473 . S
C380 O377 1.255 . S
C380 O381 1.247 1_455 S
O381 C380 1.247 1_655 S
C382 O394 1.242 . S
C382 O395 1.258 . S
O383 Eu379 2.292 . S
O383 C385 1.255 . S
C384 Eu379 2.852 . S
C384 C388 1.530 . S
C384 O401 1.273 . S
C384 O402 1.257 . S
C385 O383 1.255 . S
C385 O386 1.247 . S
O386 C385 1.247 . S
C387 O399 1.242 . S
C387 O400 1.258 . S
C388 C384 1.530 . S
C388 C389 1.352 1_455 S
C388 C393 1.393 . S
C389 C388 1.352 1_655 S
C389 C390 1.404 . S
C389 H403 0.929 . S
C390 C389 1.404 . S
C390 C391 1.389 . S
C391 C390 1.389 . S
C391 C392 1.399 . S
C391 H404 0.931 . S
C392 C391 1.399 . S
C392 C393 1.390 1_655 S
C393 C388 1.393 . S
C393 C392 1.390 1_455 S
C393 H405 0.929 . S
O394 Tb378 2.326 . S
O394 C382 1.242 . S
O395 Eu379 2.324 . S
O395 C382 1.258 . S
O396 Tb378 2.500 . S
O396 C398 1.273 . S
O397 Tb378 2.473 . S
O397 C398 1.257 . S
C398 O396 1.273 . S
C398 O397 1.257 . S
O399 Eu379 2.326 . S
O399 C387 1.242 . S
O400 Tb378 2.324 . S
O400 C387 1.258 . S
O401 Eu379 2.500 . S
O401 C384 1.273 . S
O402 Eu379 2.473 . S
O402 C384 1.257 . S
H403 C389 0.929 . S
H404 C391 0.931 . S
H405 C393 0.929 . S
O406 Tb407 2.292 . S
O406 C409 1.255 . S
Tb407 O406 2.292 . S
Tb407 O423 2.326 . S
Tb407 O425 2.500 . S
Tb407 O426 2.473 . S
Tb407 O429 2.324 . S
Eu408 O412 2.292 . S
Eu408 C413 2.852 . S
Eu408 O424 2.324 . S
Eu408 O428 2.326 . S
Eu408 O430 2.500 . S
Eu408 O431 2.473 . S
C409 O406 1.255 . S
C409 O410 1.247 . S
O410 C409 1.247 . S
C411 O423 1.242 . S
C411 O424 1.258 . S
O412 Eu408 2.292 . S
O412 C414 1.255 . S
C413 Eu408 2.852 . S
C413 C417 1.503 . S
C413 O430 1.273 . S
C413 O431 1.257 . S
C414 O412 1.255 . S
C414 O415 1.247 . S
O415 C414 1.247 . S
C416 O428 1.242 . S
C416 O429 1.258 . S
C417 C413 1.503 . S
C417 C418 1.379 . S
C417 C422 1.392 . S
C418 C417 1.379 . S
C418 C419 1.404 . S
C418 H432 0.929 . S
C419 C418 1.404 . S
C419 C420 1.389 . S
C420 C419 1.389 . S
C420 C421 1.399 . S
C420 H433 0.931 . S
C421 C420 1.399 . S
C421 C422 1.390 . S
C422 C417 1.392 . S
C422 C421 1.390 . S
C422 H434 0.929 . S
O423 Tb407 2.326 . S
O423 C411 1.242 . S
O424 Eu408 2.324 . S
O424 C411 1.258 . S
O425 Tb407 2.500 . S
O425 C427 1.273 . S
O426 Tb407 2.473 . S
O426 C427 1.257 . S
C427 O425 1.273 . S
C427 O426 1.257 . S
O428 Eu408 2.326 . S
O428 C416 1.242 . S
O429 Tb407 2.324 . S
O429 C416 1.258 . S
O430 Eu408 2.500 . S
O430 C413 1.273 . S
O431 Eu408 2.473 . S
O431 C413 1.257 . S
H432 C418 0.929 . S
H433 C420 0.931 . S
H434 C422 0.929 . S
O435 Tb436 2.292 . S
O435 C438 1.255 . S
Tb436 O435 2.292 . S
Tb436 O452 2.326 . S
Tb436 O454 2.500 . S
Tb436 O455 2.473 . S
Tb436 O458 2.324 . S
Eu437 O441 2.292 . S
Eu437 C442 2.852 . S
Eu437 O453 2.324 . S
Eu437 O457 2.326 . S
Eu437 O459 2.500 . S
Eu437 O460 2.473 . S
C438 O435 1.255 . S
C438 O439 1.247 1_455 S
O439 C438 1.247 1_655 S
C440 O452 1.242 . S
C440 O453 1.258 . S
O441 Eu437 2.292 . S
O441 C443 1.255 . S
C442 Eu437 2.852 . S
C442 C446 1.530 . S
C442 O459 1.273 . S
C442 O460 1.257 . S
C443 O441 1.255 . S
C443 O444 1.247 . S
O444 C443 1.247 . S
C445 O457 1.242 . S
C445 O458 1.258 . S
C446 C442 1.530 . S
C446 C447 1.352 1_455 S
C446 C451 1.393 . S
C447 C446 1.352 1_655 S
C447 C448 1.404 . S
C447 H461 0.929 . S
C448 C447 1.404 . S
C448 C449 1.389 . S
C449 C448 1.389 . S
C449 C450 1.399 . S
C449 H462 0.931 . S
C450 C449 1.399 . S
C450 C451 1.390 1_655 S
C451 C446 1.393 . S
C451 C450 1.390 1_455 S
C451 H463 0.929 . S
O452 Tb436 2.326 . S
O452 C440 1.242 . S
O453 Eu437 2.324 . S
O453 C440 1.258 . S
O454 Tb436 2.500 . S
O454 C456 1.273 . S
O455 Tb436 2.473 . S
O455 C456 1.257 . S
C456 O454 1.273 . S
C456 O455 1.257 . S
O457 Eu437 2.326 . S
O457 C445 1.242 . S
O458 Tb436 2.324 . S
O458 C445 1.258 . S
O459 Eu437 2.500 . S
O459 C442 1.273 . S
O460 Eu437 2.473 . S
O460 C442 1.257 . S
H461 C447 0.929 . S
H462 C449 0.931 . S
H463 C451 0.929 . S
C464 C465 1.352 . S
C464 C466 1.328 . S
C464 H489 0.946 1_455 S
C465 C464 1.352 . S
C465 C481 1.349 . S
C466 C464 1.328 . S
C466 C485 1.429 . S
C466 H490 0.950 1_455 S
C467 C484 1.574 . S
C467 C486 1.368 . S
C467 H491 0.949 . S
H468 C472 0.949 . S
C469 C470 1.349 . S
C469 C471 1.327 . S
C469 H492 0.950 . S
C470 C469 1.349 . S
C470 C482 1.349 . S
C471 C469 1.327 . S
C471 C487 1.429 . S
C471 H493 0.950 . S
C472 H468 0.949 . S
C472 C480 1.574 . S
C472 C488 1.368 . S
H473 C481 0.950 . S
H474 C479 0.950 . S
H475 C480 0.949 1_655 S
H476 C482 0.950 . S
H477 C483 0.950 . S
H478 C484 0.949 . S
C479 H474 0.950 . S
C479 C481 1.327 . S
C479 C485 1.429 . S
C480 C472 1.574 . S
C480 H475 0.949 1_455 S
C480 C486 1.368 . S
C481 C465 1.349 . S
C481 H473 0.950 . S
C481 C479 1.327 . S
C482 C470 1.349 . S
C482 H476 0.950 . S
C482 C483 1.327 . S
C483 H477 0.950 . S
C483 C482 1.327 . S
C483 C487 1.429 . S
C484 C467 1.574 . S
C484 H478 0.949 . S
C484 C488 1.368 . S
C485 C466 1.429 . S
C485 C479 1.429 . S
C485 C486 1.523 . S
C486 C467 1.368 . S
C486 C480 1.368 . S
C486 C485 1.523 . S
C487 C471 1.429 . S
C487 C483 1.429 . S
C487 C488 1.523 . S
C488 C472 1.368 . S
C488 C484 1.368 . S
C488 C487 1.523 . S
H489 C464 0.946 1_655 S
H490 C466 0.950 1_655 S
H491 C467 0.949 . S
H492 C469 0.950 . S
H493 C471 0.950 . S
C494 C495 1.349 . S
C494 C496 1.327 . S
C494 H519 0.950 . S
C495 C494 1.349 . S
C495 C511 1.349 . S
C496 C494 1.327 . S
C496 C515 1.429 . S
C496 H520 0.950 . S
C497 C514 1.574 . S
C497 C516 1.368 1_455 S
C497 H521 0.949 . S
H498 C502 0.949 . S
C499 C500 1.349 . S
C499 C501 1.327 . S
C499 H522 0.950 . S
C500 C499 1.349 . S
C500 C512 1.349 . S
C501 C499 1.327 . S
C501 C517 1.429 . S
C501 H523 0.950 . S
C502 H498 0.949 . S
C502 C510 1.574 . S
C502 C518 1.368 . S
H503 C511 0.950 . S
H504 C509 0.950 . S
H505 C510 0.949 1_655 S
H506 C512 0.950 . S
H507 C513 0.950 . S
H508 C514 0.949 . S
C509 H504 0.950 . S
C509 C511 1.327 . S
C509 C515 1.429 . S
C510 C502 1.574 . S
C510 H505 0.949 1_455 S
C510 C516 1.368 1_455 S
C511 C495 1.349 . S
C511 H503 0.950 . S
C511 C509 1.327 . S
C512 C500 1.349 . S
C512 H506 0.950 . S
C512 C513 1.327 . S
C513 H507 0.950 . S
C513 C512 1.327 . S
C513 C517 1.429 . S
C514 C497 1.574 . S
C514 H508 0.949 . S
C514 C518 1.368 . S
C515 C496 1.429 . S
C515 C509 1.429 . S
C515 C516 1.523 . S
C516 C497 1.368 1_655 S
C516 C510 1.368 1_655 S
C516 C515 1.523 . S
C517 C501 1.429 . S
C517 C513 1.429 . S
C517 C518 1.523 . S
C518 C502 1.368 . S
C518 C514 1.368 . S
C518 C517 1.523 . S
H519 C494 0.950 . S
H520 C496 0.950 . S
H521 C497 0.949 . S
H522 C499 0.950 . S
H523 C501 0.950 . S
C524 C525 1.349 . S
C524 C526 1.327 . S
C524 H549 0.950 . S
C525 C524 1.349 . S
C525 C541 1.349 . S
C526 C524 1.327 . S
C526 C545 1.429 . S
C526 H550 0.950 . S
C527 C544 1.574 . S
C527 C546 1.368 . S
C527 H551 0.949 . S
H528 C532 0.949 . S
C529 C530 1.349 . S
C529 C531 1.327 . S
C529 H552 0.950 . S
C530 C529 1.349 . S
C530 C542 1.349 . S
C531 C529 1.327 . S
C531 C547 1.429 . S
C531 H553 0.950 . S
C532 H528 0.949 . S
C532 C540 1.574 . S
C532 C548 1.368 . S
H533 C541 0.950 . S
H534 C539 0.950 . S
H535 C540 0.949 . S
H536 C542 0.950 . S
H537 C543 0.950 . S
H538 C544 0.949 . S
C539 H534 0.950 . S
C539 C541 1.327 . S
C539 C545 1.429 . S
C540 C532 1.574 . S
C540 H535 0.949 . S
C540 C546 1.368 . S
C541 C525 1.349 . S
C541 H533 0.950 . S
C541 C539 1.327 . S
C542 C530 1.349 . S
C542 H536 0.950 . S
C542 C543 1.327 . S
C543 H537 0.950 . S
C543 C542 1.327 . S
C543 C547 1.429 . S
C544 C527 1.574 . S
C544 H538 0.949 . S
C544 C548 1.368 . S
C545 C526 1.429 . S
C545 C539 1.429 . S
C545 C546 1.523 . S
C546 C527 1.368 . S
C546 C540 1.368 . S
C546 C545 1.523 . S
C547 C531 1.429 . S
C547 C543 1.429 . S
C547 C548 1.523 . S
C548 C532 1.368 . S
C548 C544 1.368 . S
C548 C547 1.523 . S
H549 C524 0.950 . S
H550 C526 0.950 . S
H551 C527 0.949 . S
H552 C529 0.950 . S
H553 C531 0.950 . S
C554 C555 1.349 . S
C554 C556 1.327 . S
C554 H579 0.950 . S
C555 C554 1.349 . S
C555 C571 1.349 . S
C556 C554 1.327 . S
C556 C575 1.429 . S
C556 H580 0.950 . S
C557 C574 1.574 . S
C557 C576 1.368 . S
C557 H581 0.949 . S
H558 C562 0.949 . S
C559 C560 1.349 . S
C559 C561 1.327 . S
C559 H582 0.950 . S
C560 C559 1.349 . S
C560 C572 1.349 . S
C561 C559 1.327 . S
C561 C577 1.429 . S
C561 H583 0.950 . S
C562 H558 0.949 . S
C562 C570 1.574 . S
C562 C578 1.368 . S
H563 C571 0.950 . S
H564 C569 0.950 . S
H565 C570 0.949 . S
H566 C572 0.950 . S
H567 C573 0.950 . S
H568 C574 0.949 . S
C569 H564 0.950 . S
C569 C571 1.327 . S
C569 C575 1.429 . S
C570 C562 1.574 . S
C570 H565 0.949 . S
C570 C576 1.368 . S
C571 C555 1.349 . S
C571 H563 0.950 . S
C571 C569 1.327 . S
C572 C560 1.349 . S
C572 H566 0.950 . S
C572 C573 1.327 . S
C573 H567 0.950 . S
C573 C572 1.327 . S
C573 C577 1.429 . S
C574 C557 1.574 . S
C574 H568 0.949 . S
C574 C578 1.368 . S
C575 C556 1.429 . S
C575 C569 1.429 . S
C575 C576 1.523 . S
C576 C557 1.368 . S
C576 C570 1.368 . S
C576 C575 1.523 . S
C577 C561 1.429 . S
C577 C573 1.429 . S
C577 C578 1.523 . S
C578 C562 1.368 . S
C578 C574 1.368 . S
C578 C577 1.523 . S
H579 C554 0.950 . S
H580 C556 0.950 . S
H581 C557 0.949 . S
H582 C559 0.950 . S
H583 C561 0.950 . S
C584 C585 1.349 . S
C584 C586 1.327 . S
C584 H609 0.950 . S
C585 C584 1.349 . S
C585 C601 1.349 . S
C586 C584 1.327 . S
C586 C605 1.429 . S
C586 H610 0.950 . S
C587 C604 1.574 . S
C587 C606 1.368 . S
C587 H611 0.949 1_455 S
H588 C592 0.949 . S
C589 C590 1.349 1_655 S
C589 C591 1.327 . S
C589 H612 0.950 . S
C590 C589 1.349 1_455 S
C590 C602 1.349 . S
C591 C589 1.327 . S
C591 C607 1.429 1_655 S
C591 H613 0.950 . S
C592 H588 0.949 . S
C592 C600 1.574 . S
C592 C608 1.368 . S
H593 C601 0.950 . S
H594 C599 0.950 1_655 S
H595 C600 0.949 . S
H596 C602 0.950 . S
H597 C603 0.950 . S
H598 C604 0.949 1_655 S
C599 H594 0.950 1_455 S
C599 C601 1.327 . S
C599 C605 1.429 . S
C600 C592 1.574 . S
C600 H595 0.949 . S
C600 C606 1.368 . S
C601 C585 1.349 . S
C601 H593 0.950 . S
C601 C599 1.327 . S
C602 C590 1.349 . S
C602 H596 0.950 . S
C602 C603 1.327 . S
C603 H597 0.950 . S
C603 C602 1.327 . S
C603 C607 1.429 . S
C604 C587 1.574 . S
C604 H598 0.949 1_455 S
C604 C608 1.368 . S
C605 C586 1.429 . S
C605 C599 1.429 . S
C605 C606 1.523 . S
C606 C587 1.368 . S
C606 C600 1.368 . S
C606 C605 1.523 . S
C607 C591 1.429 1_455 S
C607 C603 1.429 . S
C607 C608 1.523 . S
C608 C592 1.368 . S
C608 C604 1.368 . S
C608 C607 1.523 . S
H609 C584 0.950 . S
H610 C586 0.950 . S
H611 C587 0.949 1_655 S
H612 C589 0.950 . S
H613 C591 0.950 . S
C614 C615 1.349 . S
C614 C616 1.327 . S
C614 H639 0.950 . S
C615 C614 1.349 . S
C615 C631 1.349 . S
C616 C614 1.327 . S
C616 C635 1.429 . S
C616 H640 0.950 . S
C617 C634 1.574 . S
C617 C636 1.368 . S
C617 H641 0.949 . S
H618 C622 0.949 . S
C619 C620 1.349 . S
C619 C621 1.327 . S
C619 H642 0.950 . S
C620 C619 1.349 . S
C620 C632 1.349 . S
C621 C619 1.327 . S
C621 C637 1.429 . S
C621 H643 0.950 . S
C622 H618 0.949 . S
C622 C630 1.574 . S
C622 C638 1.368 . S
H623 C631 0.950 . S
H624 C629 0.950 . S
H625 C630 0.949 . S
H626 C632 0.950 . S
H627 C633 0.950 . S
H628 C634 0.949 . S
C629 H624 0.950 . S
C629 C631 1.327 . S
C629 C635 1.429 . S
C630 C622 1.574 . S
C630 H625 0.949 . S
C630 C636 1.368 . S
C631 C615 1.349 . S
C631 H623 0.950 . S
C631 C629 1.327 . S
C632 C620 1.349 . S
C632 H626 0.950 . S
C632 C633 1.327 . S
C633 H627 0.950 . S
C633 C632 1.327 . S
C633 C637 1.429 . S
C634 C617 1.574 . S
C634 H628 0.949 . S
C634 C638 1.368 . S
C635 C616 1.429 . S
C635 C629 1.429 . S
C635 C636 1.523 . S
C636 C617 1.368 . S
C636 C630 1.368 . S
C636 C635 1.523 . S
C637 C621 1.429 . S
C637 C633 1.429 . S
C637 C638 1.523 . S
C638 C622 1.368 . S
C638 C634 1.368 . S
C638 C637 1.523 . S
H639 C614 0.950 . S
H640 C616 0.950 . S
H641 C617 0.949 . S
H642 C619 0.950 . S
H643 C621 0.950 . S
C644 C645 1.349 . S
C644 C646 1.327 . S
C644 H669 0.950 . S
C645 C644 1.349 . S
C645 C661 1.349 . S
C646 C644 1.327 . S
C646 C665 1.429 . S
C646 H670 0.950 . S
C647 C664 1.574 . S
C647 C666 1.368 . S
C647 H671 0.949 . S
H648 C652 0.949 . S
C649 C650 1.349 . S
C649 C651 1.327 . S
C649 H672 0.950 . S
C650 C649 1.349 . S
C650 C662 1.349 . S
C651 C649 1.327 . S
C651 C667 1.429 . S
C651 H673 0.950 . S
C652 H648 0.949 . S
C652 C660 1.574 . S
C652 C668 1.368 . S
H653 C661 0.950 . S
H654 C659 0.950 . S
H655 C660 0.949 . S
H656 C662 0.950 . S
H657 C663 0.950 . S
H658 C664 0.949 . S
C659 H654 0.950 . S
C659 C661 1.327 . S
C659 C665 1.429 . S
C660 C652 1.574 . S
C660 H655 0.949 . S
C660 C666 1.368 . S
C661 C645 1.349 . S
C661 H653 0.950 . S
C661 C659 1.327 . S
C662 C650 1.349 . S
C662 H656 0.950 . S
C662 C663 1.327 . S
C663 H657 0.950 . S
C663 C662 1.327 . S
C663 C667 1.429 . S
C664 C647 1.574 . S
C664 H658 0.949 . S
C664 C668 1.368 . S
C665 C646 1.429 . S
C665 C659 1.429 . S
C665 C666 1.523 . S
C666 C647 1.368 . S
C666 C660 1.368 . S
C666 C665 1.523 . S
C667 C651 1.429 . S
C667 C663 1.429 . S
C667 C668 1.523 . S
C668 C652 1.368 . S
C668 C664 1.368 . S
C668 C667 1.523 . S
H669 C644 0.950 . S
H670 C646 0.950 . S
H671 C647 0.949 . S
H672 C649 0.950 . S
H673 C651 0.950 . S
C674 C675 1.349 . S
C674 C676 1.327 . S
C674 H699 0.950 . S
C675 C674 1.349 . S
C675 C691 1.349 . S
C676 C674 1.327 . S
C676 C695 1.429 . S
C676 H700 0.950 . S
C677 C694 1.574 . S
C677 C696 1.368 . S
C677 H701 0.949 . S
H678 C682 0.949 . S
C679 C680 1.349 . S
C679 C681 1.327 . S
C679 H702 0.950 . S
C680 C679 1.349 . S
C680 C692 1.349 . S
C681 C679 1.327 . S
C681 C697 1.429 . S
C681 H703 0.950 . S
C682 H678 0.949 . S
C682 C690 1.574 . S
C682 C698 1.368 1_455 S
H683 C691 0.950 . S
H684 C689 0.950 . S
H685 C690 0.949 . S
H686 C692 0.950 . S
H687 C693 0.950 . S
H688 C694 0.949 1_655 S
C689 H684 0.950 . S
C689 C691 1.327 . S
C689 C695 1.429 . S
C690 C682 1.574 . S
C690 H685 0.949 . S
C690 C696 1.368 . S
C691 C675 1.349 . S
C691 H683 0.950 . S
C691 C689 1.327 . S
C692 C680 1.349 . S
C692 H686 0.950 . S
C692 C693 1.327 . S
C693 H687 0.950 . S
C693 C692 1.327 . S
C693 C697 1.429 . S
C694 C677 1.574 . S
C694 H688 0.949 1_455 S
C694 C698 1.368 1_455 S
C695 C676 1.429 . S
C695 C689 1.429 . S
C695 C696 1.523 . S
C696 C677 1.368 . S
C696 C690 1.368 . S
C696 C695 1.523 . S
C697 C681 1.429 . S
C697 C693 1.429 . S
C697 C698 1.523 . S
C698 C682 1.368 1_655 S
C698 C694 1.368 1_655 S
C698 C697 1.523 . S
H699 C674 0.950 . S
H700 C676 0.950 . S
H701 C677 0.949 . S
H702 C679 0.950 . S
H703 C681 0.950 . S
C704 C705 1.349 . S
C704 C706 1.327 . S
C704 H729 0.950 . S
C705 C704 1.349 . S
C705 C721 1.349 . S
C706 C704 1.327 . S
C706 C725 1.429 . S
C706 H730 0.950 1_556 S
C707 C724 1.574 1_556 S
C707 C726 1.368 . S
C707 H731 0.949 . S
H708 C712 0.949 . S
C709 C710 1.349 . S
C709 C711 1.327 . S
C709 H732 0.950 . S
C710 C709 1.349 . S
C710 C722 1.349 . S
C711 C709 1.327 . S
C711 C727 1.429 . S
C711 H733 0.950 . S
C712 H708 0.949 . S
C712 C720 1.574 . S
C712 C728 1.368 . S
H713 C721 0.950 . S
H714 C719 0.950 . S
H715 C720 0.949 . S
H716 C722 0.950 . S
H717 C723 0.950 . S
H718 C724 0.949 1_556 S
C719 H714 0.950 . S
C719 C721 1.327 . S
C719 C725 1.429 . S
C720 C712 1.574 . S
C720 H715 0.949 . S
C720 C726 1.368 1_554 S
C721 C705 1.349 . S
C721 H713 0.950 . S
C721 C719 1.327 . S
C722 C710 1.349 . S
C722 H716 0.950 . S
C722 C723 1.327 . S
C723 H717 0.950 . S
C723 C722 1.327 . S
C723 C727 1.429 . S
C724 C707 1.574 1_554 S
C724 H718 0.949 1_554 S
C724 C728 1.368 . S
C725 C706 1.429 . S
C725 C719 1.429 . S
C725 C726 1.523 . S
C726 C707 1.368 . S
C726 C720 1.368 1_556 S
C726 C725 1.523 . S
C727 C711 1.429 . S
C727 C723 1.429 . S
C727 C728 1.523 . S
C728 C712 1.368 . S
C728 C724 1.368 . S
C728 C727 1.523 . S
H729 C704 0.950 . S
H730 C706 0.950 1_554 S
H731 C707 0.949 . S
H732 C709 0.950 . S
H733 C711 0.950 . S
C734 C735 1.349 . S
C734 C736 1.327 . S
C734 H759 0.950 . S
C735 C734 1.349 . S
C735 C751 1.349 . S
C736 C734 1.327 . S
C736 C755 1.429 . S
C736 H760 0.950 . S
C737 C754 1.574 . S
C737 C756 1.368 . S
C737 H761 0.949 . S
H738 C742 0.949 . S
C739 C740 1.349 . S
C739 C741 1.327 . S
C739 H762 0.950 . S
C740 C739 1.349 . S
C740 C752 1.349 . S
C741 C739 1.327 . S
C741 C757 1.429 . S
C741 H763 0.950 . S
C742 H738 0.949 . S
C742 C750 1.574 . S
C742 C758 1.368 . S
H743 C751 0.950 . S
H744 C749 0.950 . S
H745 C750 0.949 . S
H746 C752 0.950 . S
H747 C753 0.950 . S
H748 C754 0.949 . S
C749 H744 0.950 . S
C749 C751 1.327 . S
C749 C755 1.429 . S
C750 C742 1.574 . S
C750 H745 0.949 . S
C750 C756 1.368 . S
C751 C735 1.349 . S
C751 H743 0.950 . S
C751 C749 1.327 . S
C752 C740 1.349 . S
C752 H746 0.950 . S
C752 C753 1.327 . S
C753 H747 0.950 . S
C753 C752 1.327 . S
C753 C757 1.429 . S
C754 C737 1.574 . S
C754 H748 0.949 . S
C754 C758 1.368 . S
C755 C736 1.429 . S
C755 C749 1.429 . S
C755 C756 1.523 . S
C756 C737 1.368 . S
C756 C750 1.368 . S
C756 C755 1.523 . S
C757 C741 1.429 . S
C757 C753 1.429 . S
C757 C758 1.523 . S
C758 C742 1.368 . S
C758 C754 1.368 . S
C758 C757 1.523 . S
H759 C734 0.950 . S
H760 C736 0.950 . S
H761 C737 0.949 . S
H762 C739 0.950 . S
H763 C741 0.950 . S
C764 C765 1.349 . S
C764 C766 1.327 . S
C764 H789 0.950 . S
C765 C764 1.349 . S
C765 C781 1.349 . S
C766 C764 1.327 . S
C766 C785 1.429 . S
C766 H790 0.950 . S
C767 C784 1.574 . S
C767 C786 1.368 . S
C767 H791 0.949 . S
H768 C772 0.949 . S
C769 C770 1.349 . S
C769 C771 1.327 . S
C769 H792 0.950 . S
C770 C769 1.349 . S
C770 C782 1.349 . S
C771 C769 1.327 . S
C771 C787 1.429 . S
C771 H793 0.950 . S
C772 H768 0.949 . S
C772 C780 1.574 . S
C772 C788 1.368 . S
H773 C781 0.950 . S
H774 C779 0.950 . S
H775 C780 0.949 . S
H776 C782 0.950 . S
H777 C783 0.950 . S
H778 C784 0.949 . S
C779 H774 0.950 . S
C779 C781 1.327 . S
C779 C785 1.429 . S
C780 C772 1.574 . S
C780 H775 0.949 . S
C780 C786 1.368 . S
C781 C765 1.349 . S
C781 H773 0.950 . S
C781 C779 1.327 . S
C782 C770 1.349 . S
C782 H776 0.950 . S
C782 C783 1.327 . S
C783 H777 0.950 . S
C783 C782 1.327 . S
C783 C787 1.429 . S
C784 C767 1.574 . S
C784 H778 0.949 . S
C784 C788 1.368 . S
C785 C766 1.429 . S
C785 C779 1.429 . S
C785 C786 1.523 . S
C786 C767 1.368 . S
C786 C780 1.368 . S
C786 C785 1.523 . S
C787 C771 1.429 . S
C787 C783 1.429 . S
C787 C788 1.523 . S
C788 C772 1.368 . S
C788 C784 1.368 . S
C788 C787 1.523 . S
H789 C764 0.950 . S
H790 C766 0.950 . S
H791 C767 0.949 . S
H792 C769 0.950 . S
H793 C771 0.950 . S
C794 C795 1.349 . S
C794 C796 1.327 . S
C794 H819 0.950 . S
C795 C794 1.349 . S
C795 C811 1.349 . S
C796 C794 1.327 . S
C796 C815 1.429 . S
C796 H820 0.950 . S
C797 C814 1.574 . S
C797 C816 1.368 . S
C797 H821 0.949 . S
H798 C802 0.949 . S
C799 C800 1.349 . S
C799 C801 1.327 . S
C799 H822 0.950 . S
C800 C799 1.349 . S
C800 C812 1.349 . S
C801 C799 1.327 . S
C801 C817 1.429 . S
C801 H823 0.950 . S
C802 H798 0.949 . S
C802 C810 1.574 . S
C802 C818 1.368 . S
H803 C811 0.950 . S
H804 C809 0.950 . S
H805 C810 0.949 . S
H806 C812 0.950 . S
H807 C813 0.950 . S
H808 C814 0.949 . S
C809 H804 0.950 . S
C809 C811 1.327 . S
C809 C815 1.429 . S
C810 C802 1.574 . S
C810 H805 0.949 . S
C810 C816 1.368 . S
C811 C795 1.349 . S
C811 H803 0.950 . S
C811 C809 1.327 . S
C812 C800 1.349 . S
C812 H806 0.950 . S
C812 C813 1.327 . S
C813 H807 0.950 . S
C813 C812 1.327 . S
C813 C817 1.429 . S
C814 C797 1.574 . S
C814 H808 0.949 . S
C814 C818 1.368 . S
C815 C796 1.429 . S
C815 C809 1.429 . S
C815 C816 1.523 . S
C816 C797 1.368 . S
C816 C810 1.368 . S
C816 C815 1.523 . S
C817 C801 1.429 . S
C817 C813 1.429 . S
C817 C818 1.523 . S
C818 C802 1.368 . S
C818 C814 1.368 . S
C818 C817 1.523 . S
H819 C794 0.950 . S
H820 C796 0.950 . S
H821 C797 0.949 . S
H822 C799 0.950 . S
H823 C801 0.950 . S
C824 C825 1.349 . S
C824 C826 1.327 . S
C824 H849 0.950 . S
C825 C824 1.349 . S
C825 C841 1.349 . S
C826 C824 1.327 . S
C826 C845 1.429 . S
C826 H850 0.950 . S
C827 C844 1.574 . S
C827 C846 1.368 1_556 S
C827 H851 0.949 . S
H828 C832 0.949 . S
C829 C830 1.349 . S
C829 C831 1.327 . S
C829 H852 0.950 . S
C830 C829 1.349 . S
C830 C842 1.349 . S
C831 C829 1.327 . S
C831 C847 1.429 . S
C831 H853 0.950 . S
C832 H828 0.949 . S
C832 C840 1.574 1_556 S
C832 C848 1.368 . S
H833 C841 0.950 . S
H834 C839 0.950 . S
H835 C840 0.949 . S
H836 C842 0.950 . S
H837 C843 0.950 . S
H838 C844 0.949 . S
C839 H834 0.950 . S
C839 C841 1.327 . S
C839 C845 1.429 . S
C840 C832 1.574 1_554 S
C840 H835 0.949 . S
C840 C846 1.368 . S
C841 C825 1.349 . S
C841 H833 0.950 . S
C841 C839 1.327 . S
C842 C830 1.349 . S
C842 H836 0.950 . S
C842 C843 1.327 . S
C843 H837 0.950 . S
C843 C842 1.327 . S
C843 C847 1.429 . S
C844 C827 1.574 . S
C844 H838 0.949 . S
C844 C848 1.368 . S
C845 C826 1.429 . S
C845 C839 1.429 . S
C845 C846 1.523 . S
C846 C827 1.368 1_554 S
C846 C840 1.368 . S
C846 C845 1.523 . S
C847 C831 1.429 . S
C847 C843 1.429 . S
C847 C848 1.523 . S
C848 C832 1.368 . S
C848 C844 1.368 . S
C848 C847 1.523 . S
H849 C824 0.950 . S
H850 C826 0.950 . S
H851 C827 0.949 . S
H852 C829 0.950 . S
H853 C831 0.950 . S
C854 C855 1.349 . S
C854 C856 1.327 . S
C854 H879 0.950 . S
C855 C854 1.349 . S
C855 C871 1.349 . S
C856 C854 1.327 . S
C856 C875 1.429 . S
C856 H880 0.950 . S
C857 C874 1.574 . S
C857 C876 1.368 . S
C857 H881 0.949 . S
H858 C862 0.949 . S
C859 C860 1.349 . S
C859 C861 1.327 . S
C859 H882 0.950 . S
C860 C859 1.349 . S
C860 C872 1.349 . S
C861 C859 1.327 . S
C861 C877 1.429 . S
C861 H883 0.950 . S
C862 H858 0.949 . S
C862 C870 1.574 . S
C862 C878 1.368 . S
H863 C871 0.950 . S
H864 C869 0.950 . S
H865 C870 0.949 . S
H866 C872 0.950 . S
H867 C873 0.950 . S
H868 C874 0.949 . S
C869 H864 0.950 . S
C869 C871 1.327 . S
C869 C875 1.429 . S
C870 C862 1.574 . S
C870 H865 0.949 . S
C870 C876 1.368 . S
C871 C855 1.349 . S
C871 H863 0.950 . S
C871 C869 1.327 . S
C872 C860 1.349 . S
C872 H866 0.950 . S
C872 C873 1.327 . S
C873 H867 0.950 . S
C873 C872 1.327 . S
C873 C877 1.429 . S
C874 C857 1.574 . S
C874 H868 0.949 . S
C874 C878 1.368 . S
C875 C856 1.429 . S
C875 C869 1.429 . S
C875 C876 1.523 . S
C876 C857 1.368 . S
C876 C870 1.368 . S
C876 C875 1.523 . S
C877 C861 1.429 . S
C877 C873 1.429 . S
C877 C878 1.523 . S
C878 C862 1.368 . S
C878 C874 1.368 . S
C878 C877 1.523 . S
H879 C854 0.950 . S
H880 C856 0.950 . S
H881 C857 0.949 . S
H882 C859 0.950 . S
H883 C861 0.950 . S
C884 C885 1.349 . S
C884 C886 1.327 . S
C884 H909 0.950 . S
C885 C884 1.349 . S
C885 C901 1.349 . S
C886 C884 1.327 . S
C886 C905 1.429 . S
C886 H910 0.950 . S
C887 C904 1.574 . S
C887 C906 1.368 . S
C887 H911 0.949 . S
H888 C892 0.949 . S
C889 C890 1.349 . S
C889 C891 1.327 . S
C889 H912 0.950 . S
C890 C889 1.349 . S
C890 C902 1.349 . S
C891 C889 1.327 . S
C891 C907 1.429 . S
C891 H913 0.950 . S
C892 H888 0.949 . S
C892 C900 1.574 . S
C892 C908 1.368 . S
H893 C901 0.950 . S
H894 C899 0.950 . S
H895 C900 0.949 . S
H896 C902 0.950 . S
H897 C903 0.950 . S
H898 C904 0.949 . S
C899 H894 0.950 . S
C899 C901 1.327 . S
C899 C905 1.429 . S
C900 C892 1.574 . S
C900 H895 0.949 . S
C900 C906 1.368 . S
C901 C885 1.349 . S
C901 H893 0.950 . S
C901 C899 1.327 . S
C902 C890 1.349 . S
C902 H896 0.950 . S
C902 C903 1.327 . S
C903 H897 0.950 . S
C903 C902 1.327 . S
C903 C907 1.429 . S
C904 C887 1.574 . S
C904 H898 0.949 . S
C904 C908 1.368 . S
C905 C886 1.429 . S
C905 C899 1.429 . S
C905 C906 1.523 . S
C906 C887 1.368 . S
C906 C900 1.368 . S
C906 C905 1.523 . S
C907 C891 1.429 . S
C907 C903 1.429 . S
C907 C908 1.523 . S
C908 C892 1.368 . S
C908 C904 1.368 . S
C908 C907 1.523 . S
H909 C884 0.950 . S
H910 C886 0.950 . S
H911 C887 0.949 . S
H912 C889 0.950 . S
H913 C891 0.950 . S
C914 C915 1.349 . S
C914 C916 1.327 . S
C914 H939 0.950 . S
C915 C914 1.349 . S
C915 C931 1.349 . S
C916 C914 1.327 . S
C916 C935 1.429 . S
C916 H940 0.950 . S
C917 C934 1.574 . S
C917 C936 1.368 . S
C917 H941 0.949 . S
H918 C922 0.949 . S
C919 C920 1.349 . S
C919 C921 1.327 . S
C919 H942 0.950 . S
C920 C919 1.349 . S
C920 C932 1.349 . S
C921 C919 1.327 . S
C921 C937 1.429 . S
C921 H943 0.950 . S
C922 H918 0.949 . S
C922 C930 1.574 . S
C922 C938 1.368 . S
H923 C931 0.950 . S
H924 C929 0.950 . S
H925 C930 0.949 . S
H926 C932 0.950 . S
H927 C933 0.950 . S
H928 C934 0.949 . S
C929 H924 0.950 . S
C929 C931 1.327 . S
C929 C935 1.429 . S
C930 C922 1.574 . S
C930 H925 0.949 . S
C930 C936 1.368 . S
C931 C915 1.349 . S
C931 H923 0.950 . S
C931 C929 1.327 . S
C932 C920 1.349 . S
C932 H926 0.950 . S
C932 C933 1.327 . S
C933 H927 0.950 . S
C933 C932 1.327 . S
C933 C937 1.429 . S
C934 C917 1.574 . S
C934 H928 0.949 . S
C934 C938 1.368 . S
C935 C916 1.429 . S
C935 C929 1.429 . S
C935 C936 1.523 . S
C936 C917 1.368 . S
C936 C930 1.368 . S
C936 C935 1.523 . S
C937 C921 1.429 . S
C937 C933 1.429 . S
C937 C938 1.523 . S
C938 C922 1.368 . S
C938 C934 1.368 . S
C938 C937 1.523 . S
H939 C914 0.950 . S
H940 C916 0.950 . S
H941 C917 0.949 . S
H942 C919 0.950 . S
H943 C921 0.950 . S
C944 C945 1.349 . S
C944 C946 1.327 . S
C944 H969 0.950 . S
C945 C944 1.349 . S
C945 C961 1.349 . S
C946 C944 1.327 . S
C946 C965 1.429 . S
C946 H970 0.950 . S
C947 C964 1.574 . S
C947 C966 1.368 . S
C947 H971 0.949 . S
H948 C952 0.949 . S
C949 C950 1.349 . S
C949 C951 1.327 . S
C949 H972 0.950 . S
C950 C949 1.349 . S
C950 C962 1.349 . S
C951 C949 1.327 . S
C951 C967 1.429 . S
C951 H973 0.950 . S
C952 H948 0.949 . S
C952 C960 1.574 . S
C952 C968 1.368 . S
H953 C961 0.950 . S
H954 C959 0.950 . S
H955 C960 0.949 . S
H956 C962 0.950 . S
H957 C963 0.950 1_556 S
H958 C964 0.949 1_554 S
C959 H954 0.950 . S
C959 C961 1.327 . S
C959 C965 1.429 . S
C960 C952 1.574 . S
C960 H955 0.949 . S
C960 C966 1.368 . S
C961 C945 1.349 . S
C961 H953 0.950 . S
C961 C959 1.327 . S
C962 C950 1.349 . S
C962 H956 0.950 . S
C962 C963 1.327 . S
C963 H957 0.950 1_554 S
C963 C962 1.327 . S
C963 C967 1.429 . S
C964 C947 1.574 . S
C964 H958 0.949 1_556 S
C964 C968 1.368 . S
C965 C946 1.429 . S
C965 C959 1.429 . S
C965 C966 1.523 . S
C966 C947 1.368 . S
C966 C960 1.368 . S
C966 C965 1.523 . S
C967 C951 1.429 . S
C967 C963 1.429 . S
C967 C968 1.523 1_554 S
C968 C952 1.368 . S
C968 C964 1.368 . S
C968 C967 1.523 1_556 S
H969 C944 0.950 . S
H970 C946 0.950 . S
H971 C947 0.949 . S
H972 C949 0.950 . S
H973 C951 0.950 . S
C974 C975 1.349 . S
C974 C976 1.327 . S
C974 H999 0.950 . S
C975 C974 1.349 . S
C975 C991 1.349 . S
C976 C974 1.327 . S
C976 C995 1.429 . S
C976 H1000 0.950 . S
C977 C994 1.574 . S
C977 C996 1.368 . S
C977 H1001 0.949 . S
H978 C982 0.949 . S
C979 C980 1.349 . S
C979 C981 1.327 . S
C979 H1002 0.950 . S
C980 C979 1.349 . S
C980 C992 1.349 . S
C981 C979 1.327 . S
C981 C997 1.429 . S
C981 H1003 0.950 . S
C982 H978 0.949 . S
C982 C990 1.574 . S
C982 C998 1.368 . S
H983 C991 0.950 . S
H984 C989 0.950 . S
H985 C990 0.949 . S
H986 C992 0.950 . S
H987 C993 0.950 . S
H988 C994 0.949 . S
C989 H984 0.950 . S
C989 C991 1.327 . S
C989 C995 1.429 . S
C990 C982 1.574 . S
C990 H985 0.949 . S
C990 C996 1.368 . S
C991 C975 1.349 . S
C991 H983 0.950 . S
C991 C989 1.327 . S
C992 C980 1.349 . S
C992 H986 0.950 . S
C992 C993 1.327 . S
C993 H987 0.950 . S
C993 C992 1.327 . S
C993 C997 1.429 . S
C994 C977 1.574 . S
C994 H988 0.949 . S
C994 C998 1.368 . S
C995 C976 1.429 . S
C995 C989 1.429 . S
C995 C996 1.523 . S
C996 C977 1.368 . S
C996 C990 1.368 . S
C996 C995 1.523 . S
C997 C981 1.429 . S
C997 C993 1.429 . S
C997 C998 1.523 . S
C998 C982 1.368 . S
C998 C994 1.368 . S
C998 C997 1.523 . S
H999 C974 0.950 . S
H1000 C976 0.950 . S
H1001 C977 0.949 . S
H1002 C979 0.950 . S
H1003 C981 0.950 . S
C1004 C1005 1.349 . S
C1004 C1006 1.327 . S
C1004 H1029 0.950 . S
C1005 C1004 1.349 . S
C1005 C1021 1.349 . S
C1006 C1004 1.327 . S
C1006 C1025 1.429 . S
C1006 H1030 0.950 . S
C1007 C1024 1.574 . S
C1007 C1026 1.368 . S
C1007 H1031 0.949 . S
H1008 C1012 0.949 . S
C1009 C1010 1.349 . S
C1009 C1011 1.327 . S
C1009 H1032 0.950 . S
C1010 C1009 1.349 . S
C1010 C1022 1.349 . S
C1011 C1009 1.327 . S
C1011 C1027 1.429 . S
C1011 H1033 0.950 . S
C1012 H1008 0.949 . S
C1012 C1020 1.574 . S
C1012 C1028 1.368 . S
H1013 C1021 0.950 . S
H1014 C1019 0.950 . S
H1015 C1020 0.949 . S
H1016 C1022 0.950 . S
H1017 C1023 0.950 . S
H1018 C1024 0.949 . S
C1019 H1014 0.950 . S
C1019 C1021 1.327 . S
C1019 C1025 1.429 . S
C1020 C1012 1.574 . S
C1020 H1015 0.949 . S
C1020 C1026 1.368 . S
C1021 C1005 1.349 . S
C1021 H1013 0.950 . S
C1021 C1019 1.327 . S
C1022 C1010 1.349 . S
C1022 H1016 0.950 . S
C1022 C1023 1.327 . S
C1023 H1017 0.950 . S
C1023 C1022 1.327 . S
C1023 C1027 1.429 . S
C1024 C1007 1.574 . S
C1024 H1018 0.949 . S
C1024 C1028 1.368 . S
C1025 C1006 1.429 . S
C1025 C1019 1.429 . S
C1025 C1026 1.523 . S
C1026 C1007 1.368 . S
C1026 C1020 1.368 . S
C1026 C1025 1.523 . S
C1027 C1011 1.429 . S
C1027 C1023 1.429 . S
C1027 C1028 1.523 . S
C1028 C1012 1.368 . S
C1028 C1024 1.368 . S
C1028 C1027 1.523 . S
H1029 C1004 0.950 . S
H1030 C1006 0.950 . S
H1031 C1007 0.949 . S
H1032 C1009 0.950 . S
H1033 C1011 0.950 . S
C1034 C1035 1.349 . S
C1034 C1036 1.327 . S
C1034 H1059 0.950 . S
C1035 C1034 1.349 . S
C1035 C1051 1.349 . S
C1036 C1034 1.327 . S
C1036 C1055 1.429 . S
C1036 H1060 0.950 . S
C1037 C1054 1.574 . S
C1037 C1056 1.368 . S
C1037 H1061 0.949 . S
H1038 C1042 0.949 . S
C1039 C1040 1.349 . S
C1039 C1041 1.327 . S
C1039 H1062 0.950 . S
C1040 C1039 1.349 . S
C1040 C1052 1.349 . S
C1041 C1039 1.327 . S
C1041 C1057 1.429 . S
C1041 H1063 0.950 . S
C1042 H1038 0.949 . S
C1042 C1050 1.574 . S
C1042 C1058 1.368 . S
H1043 C1051 0.950 . S
H1044 C1049 0.950 . S
H1045 C1050 0.949 . S
H1046 C1052 0.950 . S
H1047 C1053 0.950 . S
H1048 C1054 0.949 . S
C1049 H1044 0.950 . S
C1049 C1051 1.327 . S
C1049 C1055 1.429 . S
C1050 C1042 1.574 . S
C1050 H1045 0.949 . S
C1050 C1056 1.368 . S
C1051 C1035 1.349 . S
C1051 H1043 0.950 . S
C1051 C1049 1.327 . S
C1052 C1040 1.349 . S
C1052 H1046 0.950 . S
C1052 C1053 1.327 . S
C1053 H1047 0.950 . S
C1053 C1052 1.327 . S
C1053 C1057 1.429 . S
C1054 C1037 1.574 . S
C1054 H1048 0.949 . S
C1054 C1058 1.368 . S
C1055 C1036 1.429 . S
C1055 C1049 1.429 . S
C1055 C1056 1.523 . S
C1056 C1037 1.368 . S
C1056 C1050 1.368 . S
C1056 C1055 1.523 . S
C1057 C1041 1.429 . S
C1057 C1053 1.429 . S
C1057 C1058 1.523 . S
C1058 C1042 1.368 . S
C1058 C1054 1.368 . S
C1058 C1057 1.523 . S
H1059 C1034 0.950 . S
H1060 C1036 0.950 . S
H1061 C1037 0.949 . S
H1062 C1039 0.950 . S
H1063 C1041 0.950 . S
C1064 C1065 1.349 . S
C1064 C1066 1.327 . S
C1064 H1089 0.950 . S
C1065 C1064 1.349 . S
C1065 C1081 1.349 . S
C1066 C1064 1.327 . S
C1066 C1085 1.429 . S
C1066 H1090 0.950 . S
C1067 C1084 1.574 . S
C1067 C1086 1.368 . S
C1067 H1091 0.949 . S
H1068 C1072 0.949 . S
C1069 C1070 1.349 . S
C1069 C1071 1.327 . S
C1069 H1092 0.950 . S
C1070 C1069 1.349 . S
C1070 C1082 1.349 . S
C1071 C1069 1.327 . S
C1071 C1087 1.429 . S
C1071 H1093 0.950 . S
C1072 H1068 0.949 . S
C1072 C1080 1.574 . S
C1072 C1088 1.368 . S
H1073 C1081 0.950 . S
H1074 C1079 0.950 1_554 S
H1075 C1080 0.949 1_556 S
H1076 C1082 0.950 . S
H1077 C1083 0.950 . S
H1078 C1084 0.949 . S
C1079 H1074 0.950 1_556 S
C1079 C1081 1.327 . S
C1079 C1085 1.429 . S
C1080 C1072 1.574 . S
C1080 H1075 0.949 1_554 S
C1080 C1086 1.368 . S
C1081 C1065 1.349 . S
C1081 H1073 0.950 . S
C1081 C1079 1.327 . S
C1082 C1070 1.349 . S
C1082 H1076 0.950 . S
C1082 C1083 1.327 . S
C1083 H1077 0.950 . S
C1083 C1082 1.327 . S
C1083 C1087 1.429 . S
C1084 C1067 1.574 . S
C1084 H1078 0.949 . S
C1084 C1088 1.368 . S
C1085 C1066 1.429 . S
C1085 C1079 1.429 . S
C1085 C1086 1.523 1_556 S
C1086 C1067 1.368 . S
C1086 C1080 1.368 . S
C1086 C1085 1.523 1_554 S
C1087 C1071 1.429 . S
C1087 C1083 1.429 . S
C1087 C1088 1.523 . S
C1088 C1072 1.368 . S
C1088 C1084 1.368 . S
C1088 C1087 1.523 . S
H1089 C1064 0.950 . S
H1090 C1066 0.950 . S
H1091 C1067 0.949 . S
H1092 C1069 0.950 . S
H1093 C1071 0.950 . S
C1094 C1095 1.349 . S
C1094 C1096 1.327 . S
C1094 H1119 0.950 . S
C1095 C1094 1.349 . S
C1095 C1111 1.355 . S
C1096 C1094 1.327 . S
C1096 C1115 1.429 . S
C1096 H1120 0.950 . S
C1097 C1114 1.574 . S
C1097 C1116 1.368 . S
C1097 H1121 0.949 . S
H1098 C1102 0.949 . S
C1099 C1100 1.349 . S
C1099 C1101 1.327 . S
C1099 H1122 0.950 . S
C1100 C1099 1.349 . S
C1100 C1112 1.349 . S
C1101 C1099 1.327 . S
C1101 C1117 1.429 . S
C1101 H1123 0.950 . S
C1102 H1098 0.949 . S
C1102 C1110 1.574 . S
C1102 C1118 1.368 . S
H1103 C1111 0.927 1_565 S
H1104 C1109 0.950 . S
H1105 C1110 0.949 . S
H1106 C1112 0.950 . S
H1107 C1113 0.950 . S
H1108 C1114 0.949 . S
C1109 H1104 0.950 . S
C1109 C1111 1.343 . S
C1109 C1115 1.429 . S
C1110 C1102 1.574 . S
C1110 H1105 0.949 . S
C1110 C1116 1.368 . S
C1111 C1095 1.355 . S
C1111 H1103 0.927 1_545 S
C1111 C1109 1.343 . S
C1112 C1100 1.349 . S
C1112 H1106 0.950 . S
C1112 C1113 1.327 . S
C1113 H1107 0.950 . S
C1113 C1112 1.327 . S
C1113 C1117 1.429 . S
C1114 C1097 1.574 . S
C1114 H1108 0.949 . S
C1114 C1118 1.368 . S
C1115 C1096 1.429 . S
C1115 C1109 1.429 . S
C1115 C1116 1.523 . S
C1116 C1097 1.368 . S
C1116 C1110 1.368 . S
C1116 C1115 1.523 . S
C1117 C1101 1.429 . S
C1117 C1113 1.429 . S
C1117 C1118 1.523 . S
C1118 C1102 1.368 . S
C1118 C1114 1.368 . S
C1118 C1117 1.523 . S
H1119 C1094 0.950 . S
H1120 C1096 0.950 . S
H1121 C1097 0.949 . S
H1122 C1099 0.950 . S
H1123 C1101 0.950 . S
C1124 C1125 1.349 . S
C1124 C1126 1.327 . S
C1124 H1149 0.950 . S
C1125 C1124 1.349 . S
C1125 C1141 1.349 . S
C1126 C1124 1.327 . S
C1126 C1145 1.429 . S
C1126 H1150 0.950 . S
C1127 C1144 1.574 . S
C1127 C1146 1.368 . S
C1127 H1151 0.949 . S
H1128 C1132 0.949 . S
C1129 C1130 1.349 . S
C1129 C1131 1.327 . S
C1129 H1152 0.950 . S
C1130 C1129 1.349 . S
C1130 C1142 1.349 . S
C1131 C1129 1.327 . S
C1131 C1147 1.429 . S
C1131 H1153 0.950 . S
C1132 H1128 0.949 . S
C1132 C1140 1.574 . S
C1132 C1148 1.368 . S
H1133 C1141 0.950 . S
H1134 C1139 0.950 . S
H1135 C1140 0.949 . S
H1136 C1142 0.950 . S
H1137 C1143 0.950 . S
H1138 C1144 0.949 . S
C1139 H1134 0.950 . S
C1139 C1141 1.327 . S
C1139 C1145 1.429 . S
C1140 C1132 1.574 . S
C1140 H1135 0.949 . S
C1140 C1146 1.368 . S
C1141 C1125 1.349 . S
C1141 H1133 0.950 . S
C1141 C1139 1.327 . S
C1142 C1130 1.349 . S
C1142 H1136 0.950 . S
C1142 C1143 1.327 . S
C1143 H1137 0.950 . S
C1143 C1142 1.327 . S
C1143 C1147 1.429 . S
C1144 C1127 1.574 . S
C1144 H1138 0.949 . S
C1144 C1148 1.368 . S
C1145 C1126 1.429 . S
C1145 C1139 1.429 . S
C1145 C1146 1.523 . S
C1146 C1127 1.368 . S
C1146 C1140 1.368 . S
C1146 C1145 1.523 . S
C1147 C1131 1.429 . S
C1147 C1143 1.429 . S
C1147 C1148 1.523 . S
C1148 C1132 1.368 . S
C1148 C1144 1.368 . S
C1148 C1147 1.523 . S
H1149 C1124 0.950 . S
H1150 C1126 0.950 . S
H1151 C1127 0.949 . S
H1152 C1129 0.950 . S
H1153 C1131 0.950 . S
C1154 C1155 1.349 . S
C1154 C1156 1.327 . S
C1154 H1179 0.950 1_565 S
C1155 C1154 1.349 . S
C1155 C1171 1.349 . S
C1156 C1154 1.327 . S
C1156 C1175 1.429 . S
C1156 H1180 0.950 . S
C1157 C1174 1.574 . S
C1157 C1176 1.368 . S
C1157 H1181 0.949 . S
H1158 C1162 0.949 . S
C1159 C1160 1.349 . S
C1159 C1161 1.327 . S
C1159 H1182 0.950 . S
C1160 C1159 1.349 . S
C1160 C1172 1.349 . S
C1161 C1159 1.327 . S
C1161 C1177 1.429 . S
C1161 H1183 0.950 . S
C1162 H1158 0.949 . S
C1162 C1170 1.574 . S
C1162 C1178 1.368 . S
H1163 C1171 0.950 . S
H1164 C1169 0.950 . S
H1165 C1170 0.949 . S
H1166 C1172 0.950 . S
H1167 C1173 0.950 . S
H1168 C1174 0.949 . S
C1169 H1164 0.950 . S
C1169 C1171 1.327 . S
C1169 C1175 1.429 . S
C1170 C1162 1.574 . S
C1170 H1165 0.949 . S
C1170 C1176 1.368 . S
C1171 C1155 1.349 . S
C1171 H1163 0.950 . S
C1171 C1169 1.327 . S
C1172 C1160 1.349 . S
C1172 H1166 0.950 . S
C1172 C1173 1.327 . S
C1173 H1167 0.950 . S
C1173 C1172 1.327 . S
C1173 C1177 1.429 . S
C1174 C1157 1.574 . S
C1174 H1168 0.949 . S
C1174 C1178 1.368 . S
C1175 C1156 1.429 . S
C1175 C1169 1.429 . S
C1175 C1176 1.523 . S
C1176 C1157 1.368 . S
C1176 C1170 1.368 . S
C1176 C1175 1.523 . S
C1177 C1161 1.429 . S
C1177 C1173 1.429 . S
C1177 C1178 1.523 . S
C1178 C1162 1.368 . S
C1178 C1174 1.368 . S
C1178 C1177 1.523 . S
H1179 C1154 0.950 1_545 S
H1180 C1156 0.950 . S
H1181 C1157 0.949 . S
H1182 C1159 0.950 . S
H1183 C1161 0.950 . S
C1184 C1185 1.349 . S
C1184 C1186 1.327 . S
C1184 H1209 0.950 . S
C1185 C1184 1.349 . S
C1185 C1201 1.349 . S
C1186 C1184 1.327 . S
C1186 C1205 1.429 . S
C1186 H1210 0.950 . S
C1187 C1204 1.574 . S
C1187 C1206 1.368 . S
C1187 H1211 0.949 . S
H1188 C1192 0.949 . S
C1189 C1190 1.349 . S
C1189 C1191 1.327 . S
C1189 H1212 0.950 . S
C1190 C1189 1.349 . S
C1190 C1202 1.349 . S
C1191 C1189 1.327 . S
C1191 C1207 1.429 . S
C1191 H1213 0.950 . S
C1192 H1188 0.949 . S
C1192 C1200 1.574 . S
C1192 C1208 1.368 . S
H1193 C1201 0.950 . S
H1194 C1199 0.950 . S
H1195 C1200 0.949 . S
H1196 C1202 0.950 . S
H1197 C1203 0.950 . S
H1198 C1204 0.949 . S
C1199 H1194 0.950 . S
C1199 C1201 1.327 . S
C1199 C1205 1.429 . S
C1200 C1192 1.574 . S
C1200 H1195 0.949 . S
C1200 C1206 1.368 . S
C1201 C1185 1.349 . S
C1201 H1193 0.950 . S
C1201 C1199 1.327 . S
C1202 C1190 1.349 . S
C1202 H1196 0.950 . S
C1202 C1203 1.327 . S
C1203 H1197 0.950 . S
C1203 C1202 1.327 . S
C1203 C1207 1.429 . S
C1204 C1187 1.574 . S
C1204 H1198 0.949 . S
C1204 C1208 1.368 . S
C1205 C1186 1.429 . S
C1205 C1199 1.429 . S
C1205 C1206 1.523 . S
C1206 C1187 1.368 . S
C1206 C1200 1.368 . S
C1206 C1205 1.523 . S
C1207 C1191 1.429 . S
C1207 C1203 1.429 . S
C1207 C1208 1.523 . S
C1208 C1192 1.368 . S
C1208 C1204 1.368 . S
C1208 C1207 1.523 . S
H1209 C1184 0.950 . S
H1210 C1186 0.950 . S
H1211 C1187 0.949 . S
H1212 C1189 0.950 . S
H1213 C1191 0.950 . S
C1214 C1215 1.349 . S
C1214 C1216 1.327 . S
C1214 H1239 0.950 . S
C1215 C1214 1.349 . S
C1215 C1231 1.349 . S
C1216 C1214 1.327 . S
C1216 C1235 1.429 . S
C1216 H1240 0.950 . S
C1217 C1234 1.574 . S
C1217 C1236 1.368 . S
C1217 H1241 0.949 . S
H1218 C1222 0.949 . S
C1219 C1220 1.349 . S
C1219 C1221 1.327 . S
C1219 H1242 0.950 . S
C1220 C1219 1.349 . S
C1220 C1232 1.349 . S
C1221 C1219 1.327 . S
C1221 C1237 1.429 . S
C1221 H1243 0.950 . S
C1222 H1218 0.949 . S
C1222 C1230 1.574 . S
C1222 C1238 1.368 . S
H1223 C1231 0.950 . S
H1224 C1229 0.950 . S
H1225 C1230 0.949 . S
H1226 C1232 0.950 . S
H1227 C1233 0.950 . S
H1228 C1234 0.949 . S
C1229 H1224 0.950 . S
C1229 C1231 1.327 . S
C1229 C1235 1.429 . S
C1230 C1222 1.574 . S
C1230 H1225 0.949 . S
C1230 C1236 1.368 . S
C1231 C1215 1.349 . S
C1231 H1223 0.950 . S
C1231 C1229 1.327 . S
C1232 C1220 1.349 . S
C1232 H1226 0.950 . S
C1232 C1233 1.327 . S
C1233 H1227 0.950 . S
C1233 C1232 1.327 . S
C1233 C1237 1.429 . S
C1234 C1217 1.574 . S
C1234 H1228 0.949 . S
C1234 C1238 1.368 . S
C1235 C1216 1.429 . S
C1235 C1229 1.429 . S
C1235 C1236 1.523 . S
C1236 C1217 1.368 . S
C1236 C1230 1.368 . S
C1236 C1235 1.523 . S
C1237 C1221 1.429 . S
C1237 C1233 1.429 . S
C1237 C1238 1.523 . S
C1238 C1222 1.368 . S
C1238 C1234 1.368 . S
C1238 C1237 1.523 . S
H1239 C1214 0.950 . S
H1240 C1216 0.950 . S
H1241 C1217 0.949 . S
H1242 C1219 0.950 . S
H1243 C1221 0.950 . S
C1244 C1245 1.349 . S
C1244 C1246 1.327 . S
C1244 H1269 0.950 . S
C1245 C1244 1.349 . S
C1245 C1261 1.349 . S
C1246 C1244 1.327 . S
C1246 C1265 1.429 . S
C1246 H1270 0.950 . S
C1247 C1264 1.574 . S
C1247 C1266 1.368 . S
C1247 H1271 0.949 . S
H1248 C1252 0.949 . S
C1249 C1250 1.349 . S
C1249 C1251 1.327 . S
C1249 H1272 0.950 . S
C1250 C1249 1.349 . S
C1250 C1262 1.349 . S
C1251 C1249 1.327 . S
C1251 C1267 1.429 . S
C1251 H1273 0.980 . S
C1252 H1248 0.949 . S
C1252 C1260 1.574 1_556 S
C1252 C1268 1.368 . S
H1253 C1261 0.950 . S
H1254 C1259 0.950 . S
H1255 C1260 0.949 . S
H1256 C1262 0.950 . S
H1257 C1263 0.950 . S
H1258 C1264 0.949 . S
C1259 H1254 0.950 . S
C1259 C1261 1.327 . S
C1259 C1265 1.429 . S
C1260 C1252 1.574 1_554 S
C1260 H1255 0.949 . S
C1260 C1266 1.368 . S
C1261 C1245 1.349 . S
C1261 H1253 0.950 . S
C1261 C1259 1.327 . S
C1262 C1250 1.349 . S
C1262 H1256 0.950 . S
C1262 C1263 1.327 . S
C1263 H1257 0.950 . S
C1263 C1262 1.327 . S
C1263 C1267 1.429 . S
C1264 C1247 1.574 . S
C1264 H1258 0.949 . S
C1264 C1268 1.368 1_554 S
C1265 C1246 1.429 . S
C1265 C1259 1.429 . S
C1265 C1266 1.523 . S
C1266 C1247 1.368 . S
C1266 C1260 1.368 . S
C1266 C1265 1.523 . S
C1267 C1251 1.429 . S
C1267 C1263 1.429 . S
C1267 C1268 1.523 . S
C1268 C1252 1.368 . S
C1268 C1264 1.368 1_556 S
C1268 C1267 1.523 . S
H1269 C1244 0.950 . S
H1270 C1246 0.950 . S
H1271 C1247 0.949 . S
H1272 C1249 0.950 . S
H1273 C1251 0.980 . S
C1274 C1275 1.349 . S
C1274 C1276 1.327 . S
C1274 H1299 0.950 . S
C1275 C1274 1.349 . S
C1275 C1291 1.349 . S
C1276 C1274 1.327 . S
C1276 C1295 1.429 . S
C1276 H1300 0.950 . S
C1277 C1294 1.574 . S
C1277 C1296 1.368 . S
C1277 H1301 0.949 . S
H1278 C1282 0.949 . S
C1279 C1280 1.349 . S
C1279 C1281 1.327 . S
C1279 H1302 0.950 . S
C1280 C1279 1.349 . S
C1280 C1292 1.349 . S
C1281 C1279 1.327 . S
C1281 C1297 1.429 . S
C1281 H1303 0.950 . S
C1282 H1278 0.949 . S
C1282 C1290 1.574 . S
C1282 C1298 1.368 . S
H1283 C1291 0.950 . S
H1284 C1289 0.950 . S
H1285 C1290 0.949 . S
H1286 C1292 0.950 1_455 S
H1287 C1293 0.950 . S
H1288 C1294 0.949 . S
C1289 H1284 0.950 . S
C1289 C1291 1.327 . S
C1289 C1295 1.429 . S
C1290 C1282 1.574 . S
C1290 H1285 0.949 . S
C1290 C1296 1.368 . S
C1291 C1275 1.349 . S
C1291 H1283 0.950 . S
C1291 C1289 1.327 . S
C1292 C1280 1.349 . S
C1292 H1286 0.950 1_655 S
C1292 C1293 1.327 . S
C1293 H1287 0.950 . S
C1293 C1292 1.327 . S
C1293 C1297 1.429 . S
C1294 C1277 1.574 . S
C1294 H1288 0.949 . S
C1294 C1298 1.368 . S
C1295 C1276 1.429 . S
C1295 C1289 1.429 . S
C1295 C1296 1.523 . S
C1296 C1277 1.368 . S
C1296 C1290 1.368 . S
C1296 C1295 1.523 . S
C1297 C1281 1.429 . S
C1297 C1293 1.429 . S
C1297 C1298 1.523 . S
C1298 C1282 1.368 . S
C1298 C1294 1.368 . S
C1298 C1297 1.523 . S
H1299 C1274 0.950 . S
H1300 C1276 0.950 . S
H1301 C1277 0.949 . S
H1302 C1279 0.950 . S
H1303 C1281 0.950 . S
C1304 C1305 1.349 . S
C1304 C1306 1.327 . S
C1304 H1329 0.950 . S
C1305 C1304 1.349 . S
C1305 C1321 1.349 . S
C1306 C1304 1.327 . S
C1306 C1325 1.429 . S
C1306 H1330 0.950 . S
C1307 C1324 1.574 . S
C1307 C1326 1.368 . S
C1307 H1331 0.949 . S
H1308 C1312 0.949 . S
C1309 C1310 1.349 . S
C1309 C1311 1.327 . S
C1309 H1332 0.950 . S
C1310 C1309 1.349 . S
C1310 C1322 1.349 . S
C1311 C1309 1.327 . S
C1311 C1327 1.429 . S
C1311 H1333 0.950 . S
C1312 H1308 0.949 . S
C1312 C1320 1.574 . S
C1312 C1328 1.368 . S
H1313 C1321 0.950 . S
H1314 C1319 0.950 . S
H1315 C1320 0.949 . S
H1316 C1322 0.950 . S
H1317 C1323 0.950 . S
H1318 C1324 0.949 . S
C1319 H1314 0.950 . S
C1319 C1321 1.327 . S
C1319 C1325 1.429 . S
C1320 C1312 1.574 . S
C1320 H1315 0.949 . S
C1320 C1326 1.368 . S
C1321 C1305 1.349 . S
C1321 H1313 0.950 . S
C1321 C1319 1.327 . S
C1322 C1310 1.349 . S
C1322 H1316 0.950 . S
C1322 C1323 1.327 . S
C1323 H1317 0.950 . S
C1323 C1322 1.327 . S
C1323 C1327 1.429 . S
C1324 C1307 1.574 . S
C1324 H1318 0.949 . S
C1324 C1328 1.368 . S
C1325 C1306 1.429 . S
C1325 C1319 1.429 . S
C1325 C1326 1.523 . S
C1326 C1307 1.368 . S
C1326 C1320 1.368 . S
C1326 C1325 1.523 . S
C1327 C1311 1.429 . S
C1327 C1323 1.429 . S
C1327 C1328 1.523 . S
C1328 C1312 1.368 . S
C1328 C1324 1.368 . S
C1328 C1327 1.523 . S
H1329 C1304 0.950 . S
H1330 C1306 0.950 . S
H1331 C1307 0.949 . S
H1332 C1309 0.950 . S
H1333 C1311 0.950 . S
C1334 C1335 1.349 . S
C1334 C1336 1.327 . S
C1334 H1359 0.950 1_655 S
C1335 C1334 1.349 . S
C1335 C1351 1.349 . S
C1336 C1334 1.327 . S
C1336 C1355 1.429 . S
C1336 H1360 0.950 . S
C1337 C1354 1.574 . S
C1337 C1356 1.368 . S
C1337 H1361 0.949 . S
H1338 C1342 0.949 . S
C1339 C1340 1.349 . S
C1339 C1341 1.327 . S
C1339 H1362 0.950 . S
C1340 C1339 1.349 . S
C1340 C1352 1.349 . S
C1341 C1339 1.327 . S
C1341 C1357 1.429 . S
C1341 H1363 0.950 . S
C1342 H1338 0.949 . S
C1342 C1350 1.574 . S
C1342 C1358 1.368 . S
H1343 C1351 0.950 . S
H1344 C1349 0.950 . S
H1345 C1350 0.949 . S
H1346 C1352 0.950 . S
H1347 C1353 0.950 . S
H1348 C1354 0.949 . S
C1349 H1344 0.950 . S
C1349 C1351 1.327 . S
C1349 C1355 1.429 . S
C1350 C1342 1.574 . S
C1350 H1345 0.949 . S
C1350 C1356 1.368 . S
C1351 C1335 1.349 . S
C1351 H1343 0.950 . S
C1351 C1349 1.327 . S
C1352 C1340 1.349 . S
C1352 H1346 0.950 . S
C1352 C1353 1.327 . S
C1353 H1347 0.950 . S
C1353 C1352 1.327 . S
C1353 C1357 1.429 . S
C1354 C1337 1.574 . S
C1354 H1348 0.949 . S
C1354 C1358 1.368 . S
C1355 C1336 1.429 . S
C1355 C1349 1.429 . S
C1355 C1356 1.523 . S
C1356 C1337 1.368 . S
C1356 C1350 1.368 . S
C1356 C1355 1.523 . S
C1357 C1341 1.429 . S
C1357 C1353 1.429 . S
C1357 C1358 1.523 . S
C1358 C1342 1.368 . S
C1358 C1354 1.368 . S
C1358 C1357 1.523 . S
H1359 C1334 0.950 1_455 S
H1360 C1336 0.950 . S
H1361 C1337 0.949 . S
H1362 C1339 0.950 . S
H1363 C1341 0.950 . S
C1364 C1365 1.349 . S
C1364 C1366 1.327 . S
C1364 H1389 0.950 . S
C1365 C1364 1.349 . S
C1365 C1381 1.349 . S
C1366 C1364 1.327 . S
C1366 C1385 1.429 . S
C1366 H1390 0.950 . S
C1367 C1384 1.574 . S
C1367 C1386 1.368 1_556 S
C1367 H1391 0.949 . S
H1368 C1372 0.949 . S
C1369 C1370 1.349 . S
C1369 C1371 1.327 . S
C1369 H1392 0.950 1_655 S
C1370 C1369 1.349 . S
C1370 C1382 1.349 . S
C1371 C1369 1.327 . S
C1371 C1387 1.429 . S
C1371 H1393 0.950 . S
C1372 H1368 0.949 . S
C1372 C1380 1.574 1_556 S
C1372 C1388 1.368 . S
H1373 C1381 0.950 . S
H1374 C1379 0.950 . S
H1375 C1380 0.949 . S
H1376 C1382 0.950 . S
H1377 C1383 0.950 . S
H1378 C1384 0.949 . S
C1379 H1374 0.950 . S
C1379 C1381 1.327 . S
C1379 C1385 1.429 . S
C1380 C1372 1.574 1_554 S
C1380 H1375 0.949 . S
C1380 C1386 1.368 . S
C1381 C1365 1.349 . S
C1381 H1373 0.950 . S
C1381 C1379 1.327 . S
C1382 C1370 1.349 . S
C1382 H1376 0.950 . S
C1382 C1383 1.327 . S
C1383 H1377 0.950 . S
C1383 C1382 1.327 . S
C1383 C1387 1.429 . S
C1384 C1367 1.574 . S
C1384 H1378 0.949 . S
C1384 C1388 1.368 . S
C1385 C1366 1.429 . S
C1385 C1379 1.429 . S
C1385 C1386 1.523 . S
C1386 C1367 1.368 1_554 S
C1386 C1380 1.368 . S
C1386 C1385 1.523 . S
C1387 C1371 1.429 . S
C1387 C1383 1.429 . S
C1387 C1388 1.523 . S
C1388 C1372 1.368 . S
C1388 C1384 1.368 . S
C1388 C1387 1.523 . S
H1389 C1364 0.950 . S
H1390 C1366 0.950 . S
H1391 C1367 0.949 . S
H1392 C1369 0.950 1_455 S
H1393 C1371 0.950 . S
C1394 C1395 1.349 . S
C1394 C1396 1.327 . S
C1394 H1419 0.950 . S
C1395 C1394 1.349 . S
C1395 C1411 1.349 . S
C1396 C1394 1.327 . S
C1396 C1415 1.429 . S
C1396 H1420 0.950 . S
C1397 C1414 1.574 . S
C1397 C1416 1.368 . S
C1397 H1421 0.949 . S
H1398 C1402 0.949 . S
C1399 C1400 1.349 . S
C1399 C1401 1.327 . S
C1399 H1422 0.950 . S
C1400 C1399 1.349 . S
C1400 C1412 1.349 . S
C1401 C1399 1.327 . S
C1401 C1417 1.429 . S
C1401 H1423 0.950 . S
C1402 H1398 0.949 . S
C1402 C1410 1.574 . S
C1402 C1418 1.368 . S
H1403 C1411 0.950 . S
H1404 C1409 0.950 . S
H1405 C1410 0.949 . S
H1406 C1412 0.950 . S
H1407 C1413 0.950 . S
H1408 C1414 0.949 . S
C1409 H1404 0.950 . S
C1409 C1411 1.327 . S
C1409 C1415 1.429 . S
C1410 C1402 1.574 . S
C1410 H1405 0.949 . S
C1410 C1416 1.368 . S
C1411 C1395 1.349 . S
C1411 H1403 0.950 . S
C1411 C1409 1.327 . S
C1412 C1400 1.349 . S
C1412 H1406 0.950 . S
C1412 C1413 1.327 . S
C1413 H1407 0.950 . S
C1413 C1412 1.327 . S
C1413 C1417 1.429 . S
C1414 C1397 1.574 . S
C1414 H1408 0.949 . S
C1414 C1418 1.368 . S
C1415 C1396 1.429 . S
C1415 C1409 1.429 . S
C1415 C1416 1.523 . S
C1416 C1397 1.368 . S
C1416 C1410 1.368 . S
C1416 C1415 1.523 . S
C1417 C1401 1.429 . S
C1417 C1413 1.429 . S
C1417 C1418 1.523 . S
C1418 C1402 1.368 . S
C1418 C1414 1.368 . S
C1418 C1417 1.523 . S
H1419 C1394 0.950 . S
H1420 C1396 0.950 . S
H1421 C1397 0.949 . S
H1422 C1399 0.950 . S
H1423 C1401 0.950 . S
C1424 C1425 1.349 . S
C1424 C1426 1.327 . S
C1424 H1449 0.950 . S
C1425 C1424 1.349 . S
C1425 C1441 1.349 . S
C1426 C1424 1.327 . S
C1426 C1445 1.429 . S
C1426 H1450 0.950 . S
C1427 C1444 1.574 . S
C1427 C1446 1.368 . S
C1427 H1451 0.949 . S
H1428 C1432 0.949 . S
C1429 C1430 1.349 . S
C1429 C1431 1.327 . S
C1429 H1452 0.950 . S
C1430 C1429 1.349 . S
C1430 C1442 1.349 . S
C1431 C1429 1.327 . S
C1431 C1447 1.429 . S
C1431 H1453 0.950 . S
C1432 H1428 0.949 . S
C1432 C1440 1.574 . S
C1432 C1448 1.368 . S
H1433 C1441 0.950 . S
H1434 C1439 0.950 . S
H1435 C1440 0.949 . S
H1436 C1442 0.950 . S
H1437 C1443 0.950 . S
H1438 C1444 0.949 . S
C1439 H1434 0.950 . S
C1439 C1441 1.327 . S
C1439 C1445 1.429 . S
C1440 C1432 1.574 . S
C1440 H1435 0.949 . S
C1440 C1446 1.368 . S
C1441 C1425 1.349 . S
C1441 H1433 0.950 . S
C1441 C1439 1.327 . S
C1442 C1430 1.349 . S
C1442 H1436 0.950 . S
C1442 C1443 1.327 . S
C1443 H1437 0.950 . S
C1443 C1442 1.327 . S
C1443 C1447 1.429 . S
C1444 C1427 1.574 . S
C1444 H1438 0.949 . S
C1444 C1448 1.368 . S
C1445 C1426 1.429 . S
C1445 C1439 1.429 . S
C1445 C1446 1.523 . S
C1446 C1427 1.368 . S
C1446 C1440 1.368 . S
C1446 C1445 1.523 . S
C1447 C1431 1.429 . S
C1447 C1443 1.429 . S
C1447 C1448 1.523 . S
C1448 C1432 1.368 . S
C1448 C1444 1.368 . S
C1448 C1447 1.523 . S
H1449 C1424 0.950 . S
H1450 C1426 0.950 . S
H1451 C1427 0.949 . S
H1452 C1429 0.950 . S
H1453 C1431 0.950 . S
C1454 C1455 1.349 . S
C1454 C1456 1.327 . S
C1454 H1479 0.950 . S
C1455 C1454 1.349 . S
C1455 C1471 1.349 . S
C1456 C1454 1.327 . S
C1456 C1475 1.429 . S
C1456 H1480 0.950 . S
C1457 C1474 1.574 . S
C1457 C1476 1.368 . S
C1457 H1481 0.949 . S
H1458 C1462 0.949 . S
C1459 C1460 1.349 . S
C1459 C1461 1.327 . S
C1459 H1482 0.950 . S
C1460 C1459 1.349 . S
C1460 C1472 1.349 . S
C1461 C1459 1.327 . S
C1461 C1477 1.429 . S
C1461 H1483 0.950 . S
C1462 H1458 0.949 . S
C1462 C1470 1.574 . S
C1462 C1478 1.368 . S
H1463 C1471 0.950 . S
H1464 C1469 0.950 . S
H1465 C1470 0.949 . S
H1466 C1472 0.950 . S
H1467 C1473 0.950 . S
H1468 C1474 0.949 . S
C1469 H1464 0.950 . S
C1469 C1471 1.327 . S
C1469 C1475 1.429 . S
C1470 C1462 1.574 . S
C1470 H1465 0.949 . S
C1470 C1476 1.368 . S
C1471 C1455 1.349 . S
C1471 H1463 0.950 . S
C1471 C1469 1.327 . S
C1472 C1460 1.349 . S
C1472 H1466 0.950 . S
C1472 C1473 1.327 . S
C1473 H1467 0.950 . S
C1473 C1472 1.327 . S
C1473 C1477 1.429 . S
C1474 C1457 1.574 . S
C1474 H1468 0.949 . S
C1474 C1478 1.368 . S
C1475 C1456 1.429 . S
C1475 C1469 1.429 . S
C1475 C1476 1.523 . S
C1476 C1457 1.368 . S
C1476 C1470 1.368 . S
C1476 C1475 1.523 . S
C1477 C1461 1.429 . S
C1477 C1473 1.429 . S
C1477 C1478 1.523 . S
C1478 C1462 1.368 . S
C1478 C1474 1.368 . S
C1478 C1477 1.523 . S
H1479 C1454 0.950 . S
H1480 C1456 0.950 . S
H1481 C1457 0.949 . S
H1482 C1459 0.950 . S
H1483 C1461 0.950 . S
C1484 C1485 1.349 . S
C1484 C1486 1.327 . S
C1484 H1509 0.950 . S
C1485 C1484 1.349 . S
C1485 C1501 1.349 . S
C1486 C1484 1.327 . S
C1486 C1505 1.429 . S
C1486 H1510 0.950 . S
C1487 C1504 1.574 . S
C1487 C1506 1.368 . S
C1487 H1511 0.949 . S
H1488 C1492 0.949 . S
C1489 C1490 1.349 . S
C1489 C1491 1.327 . S
C1489 H1512 0.950 . S
C1490 C1489 1.349 . S
C1490 C1502 1.349 . S
C1491 C1489 1.327 . S
C1491 C1507 1.429 . S
C1491 H1513 0.950 . S
C1492 H1488 0.949 . S
C1492 C1500 1.574 . S
C1492 C1508 1.368 . S
H1493 C1501 0.950 . S
H1494 C1499 0.950 . S
H1495 C1500 0.949 . S
H1496 C1502 0.950 . S
H1497 C1503 0.950 . S
H1498 C1504 0.949 . S
C1499 H1494 0.950 . S
C1499 C1501 1.327 . S
C1499 C1505 1.429 . S
C1500 C1492 1.574 . S
C1500 H1495 0.949 . S
C1500 C1506 1.368 . S
C1501 C1485 1.349 . S
C1501 H1493 0.950 . S
C1501 C1499 1.327 . S
C1502 C1490 1.349 . S
C1502 H1496 0.950 . S
C1502 C1503 1.327 . S
C1503 H1497 0.950 . S
C1503 C1502 1.327 . S
C1503 C1507 1.429 . S
C1504 C1487 1.574 . S
C1504 H1498 0.949 . S
C1504 C1508 1.368 . S
C1505 C1486 1.429 . S
C1505 C1499 1.429 . S
C1505 C1506 1.523 . S
C1506 C1487 1.368 . S
C1506 C1500 1.368 . S
C1506 C1505 1.523 . S
C1507 C1491 1.429 . S
C1507 C1503 1.429 . S
C1507 C1508 1.523 1_554 S
C1508 C1492 1.368 . S
C1508 C1504 1.368 . S
C1508 C1507 1.523 1_556 S
H1509 C1484 0.950 . S
H1510 C1486 0.950 . S
H1511 C1487 0.949 . S
H1512 C1489 0.950 . S
H1513 C1491 0.950 . S
C1514 C1515 1.349 . S
C1514 C1516 1.327 . S
C1514 H1539 0.950 . S
C1515 C1514 1.349 . S
C1515 C1531 1.349 . S
C1516 C1514 1.327 . S
C1516 C1535 1.429 . S
C1516 H1540 0.950 . S
C1517 C1534 1.574 . S
C1517 C1536 1.368 . S
C1517 H1541 0.949 . S
H1518 C1522 0.949 . S
C1519 C1520 1.349 . S
C1519 C1521 1.327 . S
C1519 H1542 0.950 . S
C1520 C1519 1.349 . S
C1520 C1532 1.349 . S
C1521 C1519 1.327 . S
C1521 C1537 1.429 . S
C1521 H1543 0.950 . S
C1522 H1518 0.949 . S
C1522 C1530 1.574 . S
C1522 C1538 1.368 . S
H1523 C1531 0.950 . S
H1524 C1529 0.950 . S
H1525 C1530 0.949 . S
H1526 C1532 0.950 . S
H1527 C1533 0.950 . S
H1528 C1534 0.949 . S
C1529 H1524 0.950 . S
C1529 C1531 1.327 . S
C1529 C1535 1.429 . S
C1530 C1522 1.574 . S
C1530 H1525 0.949 . S
C1530 C1536 1.368 . S
C1531 C1515 1.349 . S
C1531 H1523 0.950 . S
C1531 C1529 1.327 . S
C1532 C1520 1.349 . S
C1532 H1526 0.950 . S
C1532 C1533 1.327 . S
C1533 H1527 0.950 . S
C1533 C1532 1.327 . S
C1533 C1537 1.429 . S
C1534 C1517 1.574 . S
C1534 H1528 0.949 . S
C1534 C1538 1.368 . S
C1535 C1516 1.429 . S
C1535 C1529 1.429 . S
C1535 C1536 1.523 . S
C1536 C1517 1.368 . S
C1536 C1530 1.368 . S
C1536 C1535 1.523 . S
C1537 C1521 1.429 . S
C1537 C1533 1.429 . S
C1537 C1538 1.523 . S
C1538 C1522 1.368 . S
C1538 C1534 1.368 . S
C1538 C1537 1.523 . S
H1539 C1514 0.950 . S
H1540 C1516 0.950 . S
H1541 C1517 0.949 . S
H1542 C1519 0.950 . S
H1543 C1521 0.950 . S
C1544 C1545 1.349 . S
C1544 C1546 1.327 . S
C1544 H1569 0.950 . S
C1545 C1544 1.349 . S
C1545 C1561 1.349 . S
C1546 C1544 1.327 . S
C1546 C1565 1.429 . S
C1546 H1570 0.950 . S
C1547 C1564 1.574 . S
C1547 C1566 1.368 . S
C1547 H1571 0.949 . S
H1548 C1552 0.949 . S
C1549 C1550 1.349 . S
C1549 C1551 1.327 . S
C1549 H1572 0.950 . S
C1550 C1549 1.349 . S
C1550 C1562 1.349 . S
C1551 C1549 1.327 . S
C1551 C1567 1.429 . S
C1551 H1573 0.950 . S
C1552 H1548 0.949 . S
C1552 C1560 1.574 . S
C1552 C1568 1.368 . S
H1553 C1561 0.950 . S
H1554 C1559 0.950 . S
H1555 C1560 0.949 . S
H1556 C1562 0.950 . S
H1557 C1563 0.950 . S
H1558 C1564 0.949 . S
C1559 H1554 0.950 . S
C1559 C1561 1.327 . S
C1559 C1565 1.429 . S
C1560 C1552 1.574 . S
C1560 H1555 0.949 . S
C1560 C1566 1.368 . S
C1561 C1545 1.349 . S
C1561 H1553 0.950 . S
C1561 C1559 1.327 . S
C1562 C1550 1.349 . S
C1562 H1556 0.950 . S
C1562 C1563 1.327 . S
C1563 H1557 0.950 . S
C1563 C1562 1.327 . S
C1563 C1567 1.429 . S
C1564 C1547 1.574 . S
C1564 H1558 0.949 . S
C1564 C1568 1.368 . S
C1565 C1546 1.429 . S
C1565 C1559 1.429 . S
C1565 C1566 1.523 . S
C1566 C1547 1.368 . S
C1566 C1560 1.368 . S
C1566 C1565 1.523 . S
C1567 C1551 1.429 . S
C1567 C1563 1.429 . S
C1567 C1568 1.523 . S
C1568 C1552 1.368 . S
C1568 C1564 1.368 . S
C1568 C1567 1.523 . S
H1569 C1544 0.950 . S
H1570 C1546 0.950 . S
H1571 C1547 0.949 . S
H1572 C1549 0.950 . S
H1573 C1551 0.950 . S
C1574 C1575 1.349 . S
C1574 C1576 1.327 . S
C1574 H1599 0.950 . S
C1575 C1574 1.349 . S
C1575 C1591 1.349 . S
C1576 C1574 1.327 . S
C1576 C1595 1.429 . S
C1576 H1600 0.950 . S
C1577 C1594 1.574 . S
C1577 C1596 1.368 . S
C1577 H1601 0.949 . S
H1578 C1582 0.949 . S
C1579 C1580 1.349 . S
C1579 C1581 1.327 . S
C1579 H1602 0.950 . S
C1580 C1579 1.349 . S
C1580 C1592 1.349 . S
C1581 C1579 1.327 . S
C1581 C1597 1.429 . S
C1581 H1603 0.950 . S
C1582 H1578 0.949 . S
C1582 C1590 1.574 . S
C1582 C1598 1.368 . S
H1583 C1591 0.950 . S
H1584 C1589 0.950 . S
H1585 C1590 0.949 . S
H1586 C1592 0.950 . S
H1587 C1593 0.950 . S
H1588 C1594 0.949 . S
C1589 H1584 0.950 . S
C1589 C1591 1.327 . S
C1589 C1595 1.429 . S
C1590 C1582 1.574 . S
C1590 H1585 0.949 . S
C1590 C1596 1.368 . S
C1591 C1575 1.349 . S
C1591 H1583 0.950 . S
C1591 C1589 1.327 . S
C1592 C1580 1.349 . S
C1592 H1586 0.950 . S
C1592 C1593 1.327 . S
C1593 H1587 0.950 . S
C1593 C1592 1.327 . S
C1593 C1597 1.429 . S
C1594 C1577 1.574 . S
C1594 H1588 0.949 . S
C1594 C1598 1.368 . S
C1595 C1576 1.429 . S
C1595 C1589 1.429 . S
C1595 C1596 1.523 . S
C1596 C1577 1.368 . S
C1596 C1590 1.368 . S
C1596 C1595 1.523 . S
C1597 C1581 1.429 . S
C1597 C1593 1.429 . S
C1597 C1598 1.523 . S
C1598 C1582 1.368 . S
C1598 C1594 1.368 . S
C1598 C1597 1.523 . S
H1599 C1574 0.950 . S
H1600 C1576 0.950 . S
H1601 C1577 0.949 . S
H1602 C1579 0.950 . S
H1603 C1581 0.950 . S
C1604 C1605 1.349 . S
C1604 C1606 1.327 . S
C1604 H1629 0.950 . S
C1605 C1604 1.349 . S
C1605 C1621 1.349 . S
C1606 C1604 1.327 . S
C1606 C1625 1.429 . S
C1606 H1630 0.950 . S
C1607 C1624 1.574 . S
C1607 C1626 1.368 . S
C1607 H1631 0.949 . S
H1608 C1612 0.949 . S
C1609 C1610 1.349 . S
C1609 C1611 1.327 . S
C1609 H1632 0.950 . S
C1610 C1609 1.349 . S
C1610 C1622 1.349 . S
C1611 C1609 1.327 . S
C1611 C1627 1.429 . S
C1611 H1633 0.950 . S
C1612 H1608 0.949 . S
C1612 C1620 1.574 . S
C1612 C1628 1.368 . S
H1613 C1621 0.950 . S
H1614 C1619 0.950 . S
H1615 C1620 0.949 . S
H1616 C1622 0.950 . S
H1617 C1623 0.950 . S
H1618 C1624 0.949 . S
C1619 H1614 0.950 . S
C1619 C1621 1.327 . S
C1619 C1625 1.429 . S
C1620 C1612 1.574 . S
C1620 H1615 0.949 . S
C1620 C1626 1.368 . S
C1621 C1605 1.349 . S
C1621 H1613 0.950 . S
C1621 C1619 1.327 . S
C1622 C1610 1.349 . S
C1622 H1616 0.950 . S
C1622 C1623 1.327 . S
C1623 H1617 0.950 . S
C1623 C1622 1.327 . S
C1623 C1627 1.429 . S
C1624 C1607 1.574 . S
C1624 H1618 0.949 . S
C1624 C1628 1.368 . S
C1625 C1606 1.429 . S
C1625 C1619 1.429 . S
C1625 C1626 1.523 . S
C1626 C1607 1.368 . S
C1626 C1620 1.368 . S
C1626 C1625 1.523 . S
C1627 C1611 1.429 . S
C1627 C1623 1.429 . S
C1627 C1628 1.523 1_556 S
C1628 C1612 1.368 . S
C1628 C1624 1.368 . S
C1628 C1627 1.523 1_554 S
H1629 C1604 0.950 . S
H1630 C1606 0.950 . S
H1631 C1607 0.949 . S
H1632 C1609 0.950 . S
H1633 C1611 0.950 . S
C1634 C1635 1.349 . S
C1634 C1636 1.327 . S
C1634 H1659 0.950 . S
C1635 C1634 1.349 . S
C1635 C1651 1.349 . S
C1636 C1634 1.327 . S
C1636 C1655 1.429 . S
C1636 H1660 0.950 . S
C1637 C1654 1.574 . S
C1637 C1656 1.368 . S
C1637 H1661 0.949 . S
H1638 C1642 0.949 . S
C1639 C1640 1.349 . S
C1639 C1641 1.327 . S
C1639 H1662 0.950 . S
C1640 C1639 1.349 . S
C1640 C1652 1.349 . S
C1641 C1639 1.327 . S
C1641 C1657 1.429 . S
C1641 H1663 0.950 . S
C1642 H1638 0.949 . S
C1642 C1650 1.574 . S
C1642 C1658 1.368 . S
H1643 C1651 0.950 . S
H1644 C1649 0.950 . S
H1645 C1650 0.949 . S
H1646 C1652 0.950 . S
H1647 C1653 0.950 . S
H1648 C1654 0.949 . S
C1649 H1644 0.950 . S
C1649 C1651 1.327 . S
C1649 C1655 1.429 . S
C1650 C1642 1.574 . S
C1650 H1645 0.949 . S
C1650 C1656 1.368 . S
C1651 C1635 1.349 . S
C1651 H1643 0.950 . S
C1651 C1649 1.327 . S
C1652 C1640 1.349 . S
C1652 H1646 0.950 . S
C1652 C1653 1.327 . S
C1653 H1647 0.950 . S
C1653 C1652 1.327 . S
C1653 C1657 1.429 . S
C1654 C1637 1.574 . S
C1654 H1648 0.949 . S
C1654 C1658 1.368 . S
C1655 C1636 1.429 . S
C1655 C1649 1.429 . S
C1655 C1656 1.523 . S
C1656 C1637 1.368 . S
C1656 C1650 1.368 . S
C1656 C1655 1.523 . S
C1657 C1641 1.429 . S
C1657 C1653 1.429 . S
C1657 C1658 1.523 . S
C1658 C1642 1.368 . S
C1658 C1654 1.368 . S
C1658 C1657 1.523 . S
H1659 C1634 0.950 . S
H1660 C1636 0.950 . S
H1661 C1637 0.949 . S
H1662 C1639 0.950 . S
H1663 C1641 0.950 . S
C1664 C1665 1.349 . S
C1664 C1666 1.327 . S
C1664 H1689 0.950 . S
C1665 C1664 1.349 . S
C1665 C1681 1.349 . S
C1666 C1664 1.327 . S
C1666 C1685 1.429 . S
C1666 H1690 0.950 . S
C1667 C1684 1.574 . S
C1667 C1686 1.368 . S
C1667 H1691 0.949 . S
H1668 C1672 0.949 . S
C1669 C1670 1.349 . S
C1669 C1671 1.327 . S
C1669 H1692 0.950 . S
C1670 C1669 1.349 . S
C1670 C1682 1.349 . S
C1671 C1669 1.327 . S
C1671 C1687 1.429 . S
C1671 H1693 0.950 . S
C1672 H1668 0.949 . S
C1672 C1680 1.574 . S
C1672 C1688 1.368 . S
H1673 C1681 0.950 . S
H1674 C1679 0.950 . S
H1675 C1680 0.949 . S
H1676 C1682 0.950 . S
H1677 C1683 0.950 . S
H1678 C1684 0.949 . S
C1679 H1674 0.950 . S
C1679 C1681 1.327 . S
C1679 C1685 1.429 . S
C1680 C1672 1.574 . S
C1680 H1675 0.949 . S
C1680 C1686 1.368 . S
C1681 C1665 1.349 . S
C1681 H1673 0.950 . S
C1681 C1679 1.327 . S
C1682 C1670 1.349 . S
C1682 H1676 0.950 . S
C1682 C1683 1.327 . S
C1683 H1677 0.950 . S
C1683 C1682 1.327 . S
C1683 C1687 1.429 . S
C1684 C1667 1.574 . S
C1684 H1678 0.949 . S
C1684 C1688 1.368 . S
C1685 C1666 1.429 . S
C1685 C1679 1.429 . S
C1685 C1686 1.523 . S
C1686 C1667 1.368 . S
C1686 C1680 1.368 . S
C1686 C1685 1.523 . S
C1687 C1671 1.429 . S
C1687 C1683 1.429 . S
C1687 C1688 1.523 . S
C1688 C1672 1.368 . S
C1688 C1684 1.368 . S
C1688 C1687 1.523 . S
H1689 C1664 0.950 . S
H1690 C1666 0.950 . S
H1691 C1667 0.949 . S
H1692 C1669 0.950 . S
H1693 C1671 0.950 . S
C1694 C1695 1.349 . S
C1694 C1696 1.327 . S
C1694 H1719 0.950 . S
C1695 C1694 1.349 . S
C1695 C1711 1.349 . S
C1696 C1694 1.327 . S
C1696 C1715 1.429 . S
C1696 H1720 0.950 . S
C1697 C1714 1.574 . S
C1697 C1716 1.368 . S
C1697 H1721 0.949 . S
H1698 C1702 0.949 . S
C1699 C1700 1.349 . S
C1699 C1701 1.327 . S
C1699 H1722 0.950 . S
C1700 C1699 1.349 . S
C1700 C1712 1.349 . S
C1701 C1699 1.327 . S
C1701 C1717 1.429 . S
C1701 H1723 0.950 . S
C1702 H1698 0.949 . S
C1702 C1710 1.574 . S
C1702 C1718 1.368 . S
H1703 C1711 0.950 . S
H1704 C1709 0.950 . S
H1705 C1710 0.949 . S
H1706 C1712 0.950 . S
H1707 C1713 0.950 . S
H1708 C1714 0.949 . S
C1709 H1704 0.950 . S
C1709 C1711 1.327 . S
C1709 C1715 1.429 . S
C1710 C1702 1.574 . S
C1710 H1705 0.949 . S
C1710 C1716 1.368 . S
C1711 C1695 1.349 . S
C1711 H1703 0.950 . S
C1711 C1709 1.327 . S
C1712 C1700 1.349 . S
C1712 H1706 0.950 . S
C1712 C1713 1.327 . S
C1713 H1707 0.950 . S
C1713 C1712 1.327 . S
C1713 C1717 1.429 . S
C1714 C1697 1.574 . S
C1714 H1708 0.949 . S
C1714 C1718 1.368 . S
C1715 C1696 1.429 . S
C1715 C1709 1.429 . S
C1715 C1716 1.523 . S
C1716 C1697 1.368 . S
C1716 C1710 1.368 . S
C1716 C1715 1.523 . S
C1717 C1701 1.429 . S
C1717 C1713 1.429 . S
C1717 C1718 1.523 . S
C1718 C1702 1.368 . S
C1718 C1714 1.368 . S
C1718 C1717 1.523 . S
H1719 C1694 0.950 . S
H1720 C1696 0.950 . S
H1721 C1697 0.949 . S
H1722 C1699 0.950 . S
H1723 C1701 0.950 . S
C1724 C1725 1.349 . S
C1724 C1726 1.327 . S
C1724 H1749 0.950 . S
C1725 C1724 1.349 . S
C1725 C1741 1.349 . S
C1726 C1724 1.327 . S
C1726 C1745 1.429 . S
C1726 H1750 0.950 . S
C1727 C1744 1.574 . S
C1727 C1746 1.368 . S
C1727 H1751 0.949 . S
H1728 C1732 0.949 . S
C1729 C1730 1.349 . S
C1729 C1731 1.327 . S
C1729 H1752 0.950 . S
C1730 C1729 1.349 . S
C1730 C1742 1.349 . S
C1731 C1729 1.327 . S
C1731 C1747 1.429 . S
C1731 H1753 0.950 . S
C1732 H1728 0.949 . S
C1732 C1740 1.574 . S
C1732 C1748 1.368 . S
H1733 C1741 0.950 . S
H1734 C1739 0.950 . S
H1735 C1740 0.949 . S
H1736 C1742 0.950 . S
H1737 C1743 0.950 . S
H1738 C1744 0.949 . S
C1739 H1734 0.950 . S
C1739 C1741 1.327 . S
C1739 C1745 1.429 . S
C1740 C1732 1.574 . S
C1740 H1735 0.949 . S
C1740 C1746 1.368 . S
C1741 C1725 1.349 . S
C1741 H1733 0.950 . S
C1741 C1739 1.327 . S
C1742 C1730 1.349 . S
C1742 H1736 0.950 . S
C1742 C1743 1.327 . S
C1743 H1737 0.950 . S
C1743 C1742 1.327 . S
C1743 C1747 1.429 . S
C1744 C1727 1.574 . S
C1744 H1738 0.949 . S
C1744 C1748 1.368 . S
C1745 C1726 1.429 . S
C1745 C1739 1.429 . S
C1745 C1746 1.523 . S
C1746 C1727 1.368 . S
C1746 C1740 1.368 . S
C1746 C1745 1.523 . S
C1747 C1731 1.429 . S
C1747 C1743 1.429 . S
C1747 C1748 1.523 . S
C1748 C1732 1.368 . S
C1748 C1744 1.368 . S
C1748 C1747 1.523 . S
H1749 C1724 0.950 . S
H1750 C1726 0.950 . S
H1751 C1727 0.949 . S
H1752 C1729 0.950 . S
H1753 C1731 0.950 . S
C1754 C1755 1.349 . S
C1754 C1756 1.327 . S
C1754 H1779 0.950 . S
C1755 C1754 1.349 . S
C1755 C1771 1.349 . S
C1756 C1754 1.327 . S
C1756 C1775 1.429 . S
C1756 H1780 0.950 . S
C1757 C1774 1.574 . S
C1757 C1776 1.368 . S
C1757 H1781 0.949 . S
H1758 C1762 0.949 . S
C1759 C1760 1.349 . S
C1759 C1761 1.327 . S
C1759 H1782 0.950 . S
C1760 C1759 1.349 . S
C1760 C1772 1.349 . S
C1761 C1759 1.327 . S
C1761 C1777 1.429 . S
C1761 H1783 0.950 . S
C1762 H1758 0.949 . S
C1762 C1770 1.574 . S
C1762 C1778 1.368 . S
H1763 C1771 0.950 . S
H1764 C1769 0.950 . S
H1765 C1770 0.949 . S
H1766 C1772 0.950 . S
H1767 C1773 0.950 . S
H1768 C1774 0.949 . S
C1769 H1764 0.950 . S
C1769 C1771 1.327 . S
C1769 C1775 1.429 . S
C1770 C1762 1.574 . S
C1770 H1765 0.949 . S
C1770 C1776 1.368 . S
C1771 C1755 1.349 . S
C1771 H1763 0.950 . S
C1771 C1769 1.327 . S
C1772 C1760 1.349 . S
C1772 H1766 0.950 . S
C1772 C1773 1.327 . S
C1773 H1767 0.950 . S
C1773 C1772 1.327 . S
C1773 C1777 1.429 . S
C1774 C1757 1.574 . S
C1774 H1768 0.949 . S
C1774 C1778 1.368 . S
C1775 C1756 1.429 . S
C1775 C1769 1.429 . S
C1775 C1776 1.523 . S
C1776 C1757 1.368 . S
C1776 C1770 1.368 . S
C1776 C1775 1.523 . S
C1777 C1761 1.429 . S
C1777 C1773 1.429 . S
C1777 C1778 1.523 . S
C1778 C1762 1.368 . S
C1778 C1774 1.368 . S
C1778 C1777 1.523 . S
H1779 C1754 0.950 . S
H1780 C1756 0.950 . S
H1781 C1757 0.949 . S
H1782 C1759 0.950 . S
H1783 C1761 0.950 . S
C1784 C1785 1.349 . S
C1784 C1786 1.327 . S
C1784 H1809 0.950 . S
C1785 C1784 1.349 . S
C1785 C1801 1.349 . S
C1786 C1784 1.327 . S
C1786 C1805 1.429 . S
C1786 H1810 0.950 . S
C1787 C1804 1.574 . S
C1787 C1806 1.368 . S
C1787 H1811 0.949 . S
H1788 C1792 0.949 . S
C1789 C1790 1.349 . S
C1789 C1791 1.327 . S
C1789 H1812 0.950 . S
C1790 C1789 1.349 . S
C1790 C1802 1.349 . S
C1791 C1789 1.327 . S
C1791 C1807 1.429 . S
C1791 H1813 0.950 . S
C1792 H1788 0.949 . S
C1792 C1800 1.574 . S
C1792 C1808 1.368 . S
H1793 C1801 0.950 . S
H1794 C1799 0.950 . S
H1795 C1800 0.949 . S
H1796 C1802 0.950 . S
H1797 C1803 0.950 . S
H1798 C1804 0.949 . S
C1799 H1794 0.950 . S
C1799 C1801 1.327 . S
C1799 C1805 1.429 . S
C1800 C1792 1.574 . S
C1800 H1795 0.949 . S
C1800 C1806 1.368 . S
C1801 C1785 1.349 . S
C1801 H1793 0.950 . S
C1801 C1799 1.327 . S
C1802 C1790 1.349 . S
C1802 H1796 0.950 . S
C1802 C1803 1.327 . S
C1803 H1797 0.950 . S
C1803 C1802 1.327 . S
C1803 C1807 1.429 . S
C1804 C1787 1.574 . S
C1804 H1798 0.949 . S
C1804 C1808 1.368 . S
C1805 C1786 1.429 . S
C1805 C1799 1.429 . S
C1805 C1806 1.523 . S
C1806 C1787 1.368 . S
C1806 C1800 1.368 . S
C1806 C1805 1.523 . S
C1807 C1791 1.429 . S
C1807 C1803 1.429 . S
C1807 C1808 1.523 . S
C1808 C1792 1.368 . S
C1808 C1804 1.368 . S
C1808 C1807 1.523 . S
H1809 C1784 0.950 . S
H1810 C1786 0.950 . S
H1811 C1787 0.949 . S
H1812 C1789 0.950 . S
H1813 C1791 0.950 . S
C1814 C1815 1.349 . S
C1814 C1816 1.327 . S
C1814 H1839 0.950 . S
C1815 C1814 1.349 . S
C1815 C1831 1.349 . S
C1816 C1814 1.327 . S
C1816 C1835 1.429 . S
C1816 H1840 0.950 . S
C1817 C1834 1.574 . S
C1817 C1836 1.368 . S
C1817 H1841 0.949 . S
H1818 C1822 0.949 . S
C1819 C1820 1.349 . S
C1819 C1821 1.327 . S
C1819 H1842 0.950 . S
C1820 C1819 1.349 . S
C1820 C1832 1.349 . S
C1821 C1819 1.327 . S
C1821 C1837 1.429 . S
C1821 H1843 0.950 . S
C1822 H1818 0.949 . S
C1822 C1830 1.574 . S
C1822 C1838 1.368 . S
H1823 C1831 0.950 . S
H1824 C1829 0.950 . S
H1825 C1830 0.949 . S
H1826 C1832 0.950 . S
H1827 C1833 0.950 . S
H1828 C1834 0.949 . S
C1829 H1824 0.950 . S
C1829 C1831 1.327 . S
C1829 C1835 1.429 . S
C1830 C1822 1.574 . S
C1830 H1825 0.949 . S
C1830 C1836 1.368 . S
C1831 C1815 1.349 . S
C1831 H1823 0.950 . S
C1831 C1829 1.327 . S
C1832 C1820 1.349 . S
C1832 H1826 0.950 . S
C1832 C1833 1.327 . S
C1833 H1827 0.950 . S
C1833 C1832 1.327 . S
C1833 C1837 1.429 . S
C1834 C1817 1.574 . S
C1834 H1828 0.949 . S
C1834 C1838 1.368 . S
C1835 C1816 1.429 . S
C1835 C1829 1.429 . S
C1835 C1836 1.523 . S
C1836 C1817 1.368 . S
C1836 C1830 1.368 . S
C1836 C1835 1.523 . S
C1837 C1821 1.429 . S
C1837 C1833 1.429 . S
C1837 C1838 1.523 . S
C1838 C1822 1.368 . S
C1838 C1834 1.368 . S
C1838 C1837 1.523 . S
H1839 C1814 0.950 . S
H1840 C1816 0.950 . S
H1841 C1817 0.949 . S
H1842 C1819 0.950 . S
H1843 C1821 0.950 . S
C1844 C1845 1.349 . S
C1844 C1846 1.327 . S
C1844 H1869 0.950 . S
C1845 C1844 1.349 . S
C1845 C1861 1.349 . S
C1846 C1844 1.327 . S
C1846 C1865 1.429 . S
C1846 H1870 0.950 . S
C1847 C1864 1.574 . S
C1847 C1866 1.368 . S
C1847 H1871 0.949 . S
H1848 C1852 0.949 . S
C1849 C1850 1.349 . S
C1849 C1851 1.327 . S
C1849 H1872 0.950 . S
C1850 C1849 1.349 . S
C1850 C1862 1.349 . S
C1851 C1849 1.327 . S
C1851 C1867 1.429 . S
C1851 H1873 0.950 . S
C1852 H1848 0.949 . S
C1852 C1860 1.574 . S
C1852 C1868 1.368 . S
H1853 C1861 0.950 . S
H1854 C1859 0.950 . S
H1855 C1860 0.949 . S
H1856 C1862 0.950 . S
H1857 C1863 0.950 . S
H1858 C1864 0.949 . S
C1859 H1854 0.950 . S
C1859 C1861 1.327 . S
C1859 C1865 1.429 . S
C1860 C1852 1.574 . S
C1860 H1855 0.949 . S
C1860 C1866 1.368 . S
C1861 C1845 1.349 . S
C1861 H1853 0.950 . S
C1861 C1859 1.327 . S
C1862 C1850 1.349 . S
C1862 H1856 0.950 . S
C1862 C1863 1.327 . S
C1863 H1857 0.950 . S
C1863 C1862 1.327 . S
C1863 C1867 1.429 . S
C1864 C1847 1.574 . S
C1864 H1858 0.949 . S
C1864 C1868 1.368 . S
C1865 C1846 1.429 . S
C1865 C1859 1.429 . S
C1865 C1866 1.523 . S
C1866 C1847 1.368 . S
C1866 C1860 1.368 . S
C1866 C1865 1.523 . S
C1867 C1851 1.429 . S
C1867 C1863 1.429 . S
C1867 C1868 1.523 . S
C1868 C1852 1.368 . S
C1868 C1864 1.368 . S
C1868 C1867 1.523 . S
H1869 C1844 0.950 . S
H1870 C1846 0.950 . S
H1871 C1847 0.949 . S
H1872 C1849 0.950 . S
H1873 C1851 0.950 . S
C1874 C1875 1.349 . S
C1874 C1876 1.327 . S
C1874 H1899 0.950 . S
C1875 C1874 1.349 . S
C1875 C1891 1.349 . S
C1876 C1874 1.327 . S
C1876 C1895 1.429 . S
C1876 H1900 0.950 . S
C1877 C1894 1.574 . S
C1877 C1896 1.368 . S
C1877 H1901 0.949 . S
H1878 C1882 0.949 . S
C1879 C1880 1.349 . S
C1879 C1881 1.327 . S
C1879 H1902 0.950 . S
C1880 C1879 1.349 . S
C1880 C1892 1.349 . S
C1881 C1879 1.327 . S
C1881 C1897 1.429 . S
C1881 H1903 0.950 . S
C1882 H1878 0.949 . S
C1882 C1890 1.574 . S
C1882 C1898 1.368 . S
H1883 C1891 0.950 . S
H1884 C1889 0.950 . S
H1885 C1890 0.949 . S
H1886 C1892 0.950 . S
H1887 C1893 0.950 . S
H1888 C1894 0.949 . S
C1889 H1884 0.950 . S
C1889 C1891 1.327 . S
C1889 C1895 1.429 . S
C1890 C1882 1.574 . S
C1890 H1885 0.949 . S
C1890 C1896 1.368 . S
C1891 C1875 1.349 . S
C1891 H1883 0.950 . S
C1891 C1889 1.327 . S
C1892 C1880 1.349 . S
C1892 H1886 0.950 . S
C1892 C1893 1.327 . S
C1893 H1887 0.950 . S
C1893 C1892 1.327 . S
C1893 C1897 1.429 . S
C1894 C1877 1.574 . S
C1894 H1888 0.949 . S
C1894 C1898 1.368 . S
C1895 C1876 1.429 . S
C1895 C1889 1.429 . S
C1895 C1896 1.523 . S
C1896 C1877 1.368 . S
C1896 C1890 1.368 . S
C1896 C1895 1.523 . S
C1897 C1881 1.429 . S
C1897 C1893 1.429 . S
C1897 C1898 1.523 . S
C1898 C1882 1.368 . S
C1898 C1894 1.368 . S
C1898 C1897 1.523 . S
H1899 C1874 0.950 . S
H1900 C1876 0.950 . S
H1901 C1877 0.949 . S
H1902 C1879 0.950 . S
H1903 C1881 0.950 . S
C1904 C1905 1.349 . S
C1904 C1906 1.327 . S
C1904 H1929 0.950 . S
C1905 C1904 1.349 . S
C1905 C1921 1.349 . S
C1906 C1904 1.327 . S
C1906 C1925 1.429 . S
C1906 H1930 0.950 . S
C1907 C1924 1.574 . S
C1907 C1926 1.368 . S
C1907 H1931 0.949 . S
H1908 C1912 0.949 . S
C1909 C1910 1.349 . S
C1909 C1911 1.327 . S
C1909 H1932 0.950 . S
C1910 C1909 1.349 . S
C1910 C1922 1.349 . S
C1911 C1909 1.327 . S
C1911 C1927 1.429 . S
C1911 H1933 0.950 . S
C1912 H1908 0.949 . S
C1912 C1920 1.574 . S
C1912 C1928 1.368 . S
H1913 C1921 0.950 . S
H1914 C1919 0.950 . S
H1915 C1920 0.949 . S
H1916 C1922 0.950 . S
H1917 C1923 0.950 . S
H1918 C1924 0.949 . S
C1919 H1914 0.950 . S
C1919 C1921 1.327 . S
C1919 C1925 1.429 . S
C1920 C1912 1.574 . S
C1920 H1915 0.949 . S
C1920 C1926 1.368 . S
C1921 C1905 1.349 . S
C1921 H1913 0.950 . S
C1921 C1919 1.327 . S
C1922 C1910 1.349 . S
C1922 H1916 0.950 . S
C1922 C1923 1.327 . S
C1923 H1917 0.950 . S
C1923 C1922 1.327 . S
C1923 C1927 1.429 . S
C1924 C1907 1.574 . S
C1924 H1918 0.949 . S
C1924 C1928 1.368 . S
C1925 C1906 1.429 . S
C1925 C1919 1.429 . S
C1925 C1926 1.523 . S
C1926 C1907 1.368 . S
C1926 C1920 1.368 . S
C1926 C1925 1.523 . S
C1927 C1911 1.429 . S
C1927 C1923 1.429 . S
C1927 C1928 1.523 . S
C1928 C1912 1.368 . S
C1928 C1924 1.368 . S
C1928 C1927 1.523 . S
H1929 C1904 0.950 . S
H1930 C1906 0.950 . S
H1931 C1907 0.949 . S
H1932 C1909 0.950 . S
H1933 C1911 0.950 . S
C1934 C1935 1.349 . S
C1934 C1936 1.327 . S
C1934 H1959 0.950 . S
C1935 C1934 1.349 . S
C1935 C1951 1.349 . S
C1936 C1934 1.327 . S
C1936 C1955 1.429 . S
C1936 H1960 0.950 . S
C1937 C1954 1.574 . S
C1937 C1956 1.368 . S
C1937 H1961 0.949 . S
H1938 C1942 0.949 . S
C1939 C1940 1.349 . S
C1939 C1941 1.327 . S
C1939 H1962 0.950 . S
C1940 C1939 1.349 . S
C1940 C1952 1.349 . S
C1941 C1939 1.327 . S
C1941 C1957 1.429 . S
C1941 H1963 0.950 . S
C1942 H1938 0.949 . S
C1942 C1950 1.574 . S
C1942 C1958 1.368 . S
H1943 C1951 0.950 . S
H1944 C1949 0.950 . S
H1945 C1950 0.949 . S
H1946 C1952 0.950 . S
H1947 C1953 0.950 . S
H1948 C1954 0.949 . S
C1949 H1944 0.950 . S
C1949 C1951 1.327 . S
C1949 C1955 1.429 . S
C1950 C1942 1.574 . S
C1950 H1945 0.949 . S
C1950 C1956 1.368 . S
C1951 C1935 1.349 . S
C1951 H1943 0.950 . S
C1951 C1949 1.327 . S
C1952 C1940 1.349 . S
C1952 H1946 0.950 . S
C1952 C1953 1.327 . S
C1953 H1947 0.950 . S
C1953 C1952 1.327 . S
C1953 C1957 1.429 . S
C1954 C1937 1.574 . S
C1954 H1948 0.949 . S
C1954 C1958 1.368 . S
C1955 C1936 1.429 . S
C1955 C1949 1.429 . S
C1955 C1956 1.523 . S
C1956 C1937 1.368 . S
C1956 C1950 1.368 . S
C1956 C1955 1.523 . S
C1957 C1941 1.429 . S
C1957 C1953 1.429 . S
C1957 C1958 1.523 . S
C1958 C1942 1.368 . S
C1958 C1954 1.368 . S
C1958 C1957 1.523 . S
H1959 C1934 0.950 . S
H1960 C1936 0.950 . S
H1961 C1937 0.949 . S
H1962 C1939 0.950 . S
H1963 C1941 0.950 . S
C1964 C1965 1.349 . S
C1964 C1966 1.327 . S
C1964 H1989 0.950 . S
C1965 C1964 1.349 . S
C1965 C1981 1.349 . S
C1966 C1964 1.327 . S
C1966 C1985 1.429 . S
C1966 H1990 0.950 . S
C1967 C1984 1.574 . S
C1967 C1986 1.368 . S
C1967 H1991 0.949 . S
H1968 C1972 0.949 . S
C1969 C1970 1.349 . S
C1969 C1971 1.327 . S
C1969 H1992 0.950 . S
C1970 C1969 1.349 . S
C1970 C1982 1.349 . S
C1971 C1969 1.327 . S
C1971 C1987 1.429 . S
C1971 H1993 0.950 . S
C1972 H1968 0.949 . S
C1972 C1980 1.574 . S
C1972 C1988 1.368 . S
H1973 C1981 0.950 . S
H1974 C1979 0.950 . S
H1975 C1980 0.949 . S
H1976 C1982 0.950 . S
H1977 C1983 0.950 . S
H1978 C1984 0.949 . S
C1979 H1974 0.950 . S
C1979 C1981 1.327 . S
C1979 C1985 1.429 . S
C1980 C1972 1.574 . S
C1980 H1975 0.949 . S
C1980 C1986 1.368 . S
C1981 C1965 1.349 . S
C1981 H1973 0.950 . S
C1981 C1979 1.327 . S
C1982 C1970 1.349 . S
C1982 H1976 0.950 . S
C1982 C1983 1.327 . S
C1983 H1977 0.950 . S
C1983 C1982 1.327 . S
C1983 C1987 1.429 . S
C1984 C1967 1.574 . S
C1984 H1978 0.949 . S
C1984 C1988 1.368 . S
C1985 C1966 1.429 . S
C1985 C1979 1.429 . S
C1985 C1986 1.523 . S
C1986 C1967 1.368 . S
C1986 C1980 1.368 . S
C1986 C1985 1.523 . S
C1987 C1971 1.429 . S
C1987 C1983 1.429 . S
C1987 C1988 1.523 . S
C1988 C1972 1.368 . S
C1988 C1984 1.368 . S
C1988 C1987 1.523 . S
H1989 C1964 0.950 . S
H1990 C1966 0.950 . S
H1991 C1967 0.949 . S
H1992 C1969 0.950 . S
H1993 C1971 0.950 . S
C1994 C1995 1.349 . S
C1994 C1996 1.327 . S
C1994 H2019 0.950 . S
C1995 C1994 1.349 . S
C1995 C2011 1.349 . S
C1996 C1994 1.327 . S
C1996 C2015 1.429 . S
C1996 H2020 0.950 . S
C1997 C2014 1.574 . S
C1997 C2016 1.368 . S
C1997 H2021 0.949 . S
H1998 C2002 0.949 . S
C1999 C2000 1.349 . S
C1999 C2001 1.327 . S
C1999 H2022 0.950 . S
C2000 C1999 1.349 . S
C2000 C2012 1.349 . S
C2001 C1999 1.327 . S
C2001 C2017 1.429 . S
C2001 H2023 0.950 . S
C2002 H1998 0.949 . S
C2002 C2010 1.574 . S
C2002 C2018 1.368 . S
H2003 C2011 0.950 . S
H2004 C2009 0.950 . S
H2005 C2010 0.949 . S
H2006 C2012 0.950 . S
H2007 C2013 0.950 . S
H2008 C2014 0.949 . S
C2009 H2004 0.950 . S
C2009 C2011 1.327 . S
C2009 C2015 1.429 . S
C2010 C2002 1.574 . S
C2010 H2005 0.949 . S
C2010 C2016 1.368 . S
C2011 C1995 1.349 . S
C2011 H2003 0.950 . S
C2011 C2009 1.327 . S
C2012 C2000 1.349 . S
C2012 H2006 0.950 . S
C2012 C2013 1.327 . S
C2013 H2007 0.950 . S
C2013 C2012 1.327 . S
C2013 C2017 1.429 . S
C2014 C1997 1.574 . S
C2014 H2008 0.949 . S
C2014 C2018 1.368 . S
C2015 C1996 1.429 . S
C2015 C2009 1.429 . S
C2015 C2016 1.523 . S
C2016 C1997 1.368 . S
C2016 C2010 1.368 . S
C2016 C2015 1.523 . S
C2017 C2001 1.429 . S
C2017 C2013 1.429 . S
C2017 C2018 1.523 . S
C2018 C2002 1.368 . S
C2018 C2014 1.368 . S
C2018 C2017 1.523 . S
H2019 C1994 0.950 . S
H2020 C1996 0.950 . S
H2021 C1997 0.949 . S
H2022 C1999 0.950 . S
H2023 C2001 0.950 . S
C2024 C2025 1.349 . S
C2024 C2026 1.327 . S
C2024 H2049 0.950 . S
C2025 C2024 1.349 . S
C2025 C2041 1.349 . S
C2026 C2024 1.327 . S
C2026 C2045 1.429 . S
C2026 H2050 0.950 . S
C2027 C2044 1.574 . S
C2027 C2046 1.368 . S
C2027 H2051 0.949 . S
H2028 C2032 0.949 . S
C2029 C2030 1.349 . S
C2029 C2031 1.327 . S
C2029 H2052 0.950 . S
C2030 C2029 1.349 . S
C2030 C2042 1.349 . S
C2031 C2029 1.327 . S
C2031 C2047 1.429 . S
C2031 H2053 0.950 . S
C2032 H2028 0.949 . S
C2032 C2040 1.574 . S
C2032 C2048 1.368 . S
H2033 C2041 0.950 . S
H2034 C2039 0.950 . S
H2035 C2040 0.949 . S
H2036 C2042 0.950 . S
H2037 C2043 0.950 . S
H2038 C2044 0.949 . S
C2039 H2034 0.950 . S
C2039 C2041 1.327 . S
C2039 C2045 1.429 . S
C2040 C2032 1.574 . S
C2040 H2035 0.949 . S
C2040 C2046 1.368 . S
C2041 C2025 1.349 . S
C2041 H2033 0.950 . S
C2041 C2039 1.327 . S
C2042 C2030 1.349 . S
C2042 H2036 0.950 . S
C2042 C2043 1.327 . S
C2043 H2037 0.950 . S
C2043 C2042 1.327 . S
C2043 C2047 1.429 . S
C2044 C2027 1.574 . S
C2044 H2038 0.949 . S
C2044 C2048 1.368 . S
C2045 C2026 1.429 . S
C2045 C2039 1.429 . S
C2045 C2046 1.523 . S
C2046 C2027 1.368 . S
C2046 C2040 1.368 . S
C2046 C2045 1.523 . S
C2047 C2031 1.429 . S
C2047 C2043 1.429 . S
C2047 C2048 1.523 . S
C2048 C2032 1.368 . S
C2048 C2044 1.368 . S
C2048 C2047 1.523 . S
H2049 C2024 0.950 . S
H2050 C2026 0.950 . S
H2051 C2027 0.949 . S
H2052 C2029 0.950 . S
H2053 C2031 0.950 . S
C2054 C2055 1.349 . S
C2054 C2056 1.327 . S
C2054 H2079 0.950 . S
C2055 C2054 1.349 . S
C2055 C2071 1.349 . S
C2056 C2054 1.327 . S
C2056 C2075 1.429 . S
C2056 H2080 0.950 . S
C2057 C2074 1.574 . S
C2057 C2076 1.368 . S
C2057 H2081 0.949 . S
H2058 C2062 0.949 . S
C2059 C2060 1.349 . S
C2059 C2061 1.327 . S
C2059 H2082 0.950 . S
C2060 C2059 1.349 . S
C2060 C2072 1.349 . S
C2061 C2059 1.327 . S
C2061 C2077 1.429 . S
C2061 H2083 0.950 . S
C2062 H2058 0.949 . S
C2062 C2070 1.574 . S
C2062 C2078 1.368 . S
H2063 C2071 0.950 . S
H2064 C2069 0.950 . S
H2065 C2070 0.949 . S
H2066 C2072 0.950 . S
H2067 C2073 0.950 . S
H2068 C2074 0.949 . S
C2069 H2064 0.950 . S
C2069 C2071 1.327 . S
C2069 C2075 1.429 . S
C2070 C2062 1.574 . S
C2070 H2065 0.949 . S
C2070 C2076 1.368 . S
C2071 C2055 1.349 . S
C2071 H2063 0.950 . S
C2071 C2069 1.327 . S
C2072 C2060 1.349 . S
C2072 H2066 0.950 . S
C2072 C2073 1.327 . S
C2073 H2067 0.950 . S
C2073 C2072 1.327 . S
C2073 C2077 1.429 . S
C2074 C2057 1.574 . S
C2074 H2068 0.949 . S
C2074 C2078 1.368 . S
C2075 C2056 1.429 . S
C2075 C2069 1.429 . S
C2075 C2076 1.523 . S
C2076 C2057 1.368 . S
C2076 C2070 1.368 . S
C2076 C2075 1.523 . S
C2077 C2061 1.429 . S
C2077 C2073 1.429 . S
C2077 C2078 1.523 . S
C2078 C2062 1.368 . S
C2078 C2074 1.368 . S
C2078 C2077 1.523 . S
H2079 C2054 0.950 . S
H2080 C2056 0.950 . S
H2081 C2057 0.949 . S
H2082 C2059 0.950 . S
H2083 C2061 0.950 . S
C2084 C2085 1.349 . S
C2084 C2086 1.327 . S
C2084 H2109 0.950 . S
C2085 C2084 1.349 . S
C2085 C2101 1.349 . S
C2086 C2084 1.327 . S
C2086 C2105 1.429 . S
C2086 H2110 0.950 . S
C2087 C2104 1.574 . S
C2087 C2106 1.368 . S
C2087 H2111 0.949 . S
H2088 C2092 0.949 . S
C2089 C2090 1.349 . S
C2089 C2091 1.327 . S
C2089 H2112 0.950 . S
C2090 C2089 1.349 . S
C2090 C2102 1.349 . S
C2091 C2089 1.327 . S
C2091 C2107 1.429 . S
C2091 H2113 0.950 . S
C2092 H2088 0.949 . S
C2092 C2100 1.574 . S
C2092 C2108 1.368 . S
H2093 C2101 0.950 . S
H2094 C2099 0.950 . S
H2095 C2100 0.949 . S
H2096 C2102 0.950 . S
H2097 C2103 0.950 . S
H2098 C2104 0.949 . S
C2099 H2094 0.950 . S
C2099 C2101 1.327 . S
C2099 C2105 1.429 . S
C2100 C2092 1.574 . S
C2100 H2095 0.949 . S
C2100 C2106 1.368 . S
C2101 C2085 1.349 . S
C2101 H2093 0.950 . S
C2101 C2099 1.327 . S
C2102 C2090 1.349 . S
C2102 H2096 0.950 . S
C2102 C2103 1.327 . S
C2103 H2097 0.950 . S
C2103 C2102 1.327 . S
C2103 C2107 1.429 . S
C2104 C2087 1.574 . S
C2104 H2098 0.949 . S
C2104 C2108 1.368 . S
C2105 C2086 1.429 . S
C2105 C2099 1.429 . S
C2105 C2106 1.523 . S
C2106 C2087 1.368 . S
C2106 C2100 1.368 . S
C2106 C2105 1.523 . S
C2107 C2091 1.429 . S
C2107 C2103 1.429 . S
C2107 C2108 1.523 . S
C2108 C2092 1.368 . S
C2108 C2104 1.368 . S
C2108 C2107 1.523 . S
H2109 C2084 0.950 . S
H2110 C2086 0.950 . S
H2111 C2087 0.949 . S
H2112 C2089 0.950 . S
H2113 C2091 0.950 . S
C2114 C2115 1.349 . S
C2114 C2116 1.327 . S
C2114 H2139 0.950 . S
C2115 C2114 1.349 . S
C2115 C2131 1.349 . S
C2116 C2114 1.327 . S
C2116 C2135 1.429 . S
C2116 H2140 0.950 . S
C2117 C2134 1.574 . S
C2117 C2136 1.368 . S
C2117 H2141 0.949 . S
H2118 C2122 0.949 . S
C2119 C2120 1.349 . S
C2119 C2121 1.327 . S
C2119 H2142 0.950 . S
C2120 C2119 1.349 . S
C2120 C2132 1.349 . S
C2121 C2119 1.327 . S
C2121 C2137 1.429 . S
C2121 H2143 0.950 . S
C2122 H2118 0.949 . S
C2122 C2130 1.574 . S
C2122 C2138 1.368 . S
H2123 C2131 0.950 . S
H2124 C2129 0.950 . S
H2125 C2130 0.949 . S
H2126 C2132 0.950 . S
H2127 C2133 0.950 . S
H2128 C2134 0.949 . S
C2129 H2124 0.950 . S
C2129 C2131 1.327 . S
C2129 C2135 1.429 . S
C2130 C2122 1.574 . S
C2130 H2125 0.949 . S
C2130 C2136 1.368 . S
C2131 C2115 1.349 . S
C2131 H2123 0.950 . S
C2131 C2129 1.327 . S
C2132 C2120 1.349 . S
C2132 H2126 0.950 . S
C2132 C2133 1.327 . S
C2133 H2127 0.950 . S
C2133 C2132 1.327 . S
C2133 C2137 1.429 . S
C2134 C2117 1.574 . S
C2134 H2128 0.949 . S
C2134 C2138 1.368 . S
C2135 C2116 1.429 . S
C2135 C2129 1.429 . S
C2135 C2136 1.523 . S
C2136 C2117 1.368 . S
C2136 C2130 1.368 . S
C2136 C2135 1.523 . S
C2137 C2121 1.429 . S
C2137 C2133 1.429 . S
C2137 C2138 1.523 . S
C2138 C2122 1.368 . S
C2138 C2134 1.368 . S
C2138 C2137 1.523 . S
H2139 C2114 0.950 . S
H2140 C2116 0.950 . S
H2141 C2117 0.949 . S
H2142 C2119 0.950 . S
H2143 C2121 0.950 . S
C465 C5 3.010 . S
C470 C382 3.002 . S
C495 C324 3.002 . S
C500 C34 3.002 . S
C525 C63 3.002 . S
C530 C353 3.002 . S
C555 C92 3.002 . S
C560 C295 3.002 . S
C585 C440 3.002 . S
C590 C121 3.010 . S
C615 C150 3.002 . S
C620 C266 3.002 . S
C645 C411 3.002 . S
C650 C179 3.002 . S
C675 C208 3.002 . S
C680 C237 3.002 . S
C705 C102 1.362 . S
C710 C3 1.414 . S
C735 C15 1.362 . S
C740 C32 1.414 . S
C765 C44 1.362 . S
C770 C61 1.414 . S
C795 C90 1.414 . S
C800 C73 1.362 . S
C825 C160 1.362 . S
C830 C119 1.414 . S
C855 C189 1.362 . S
C860 C148 1.414 . S
C885 C218 1.362 . S
C890 C177 1.414 . S
C915 C131 1.362 . S
C920 C206 1.414 . S
C945 C137 1.032 . S
C950 C269 1.142 . S
C975 C253 1.032 . S
C980 C124 1.142 1_545 S
C1005 C195 1.032 . S
C1010 C240 1.141 . S
C1035 C282 1.032 . S
C1040 C182 1.142 1_565 S
C1065 C298 1.142 . S
C1070 C21 1.032 . S
C1095 C66 1.142 1_545 S
C1100 C311 1.032 . S
C1125 C327 1.141 . S
C1130 C79 1.032 . S
C1155 C8 1.142 1_565 S
C1160 C340 1.032 . S
C1185 C334 1.362 . S
C1190 C351 1.414 . S
C1215 C363 1.362 . S
C1220 C293 1.414 . S
C1245 C380 1.414 1_655 S
C1250 C305 1.362 . S
C1275 C322 1.414 . S
C1280 C392 1.362 . S
C1305 C409 1.414 . S
C1310 C247 1.362 . S
C1335 C450 1.362 . S
C1340 C235 1.414 . S
C1365 C276 1.362 . S
C1370 C438 1.414 1_655 S
C1395 C421 1.362 . S
C1400 C264 1.414 . S
C1425 C211 1.142 . S
C1430 C427 1.032 . S
C1455 C414 1.142 . S
C1460 C166 1.032 . S
C1485 C456 1.032 . S
C1490 C153 1.141 . S
C1515 C224 1.032 . S
C1520 C443 1.141 . S
C1545 C37 1.142 . S
C1550 C369 1.032 . S
C1575 C50 1.032 . S
C1580 C385 1.141 . S
C1605 C398 1.032 . S
C1610 C95 1.141 . S
C1635 C356 1.142 . S
C1640 C108 1.032 . S
C1665 C158 0.678 . S
C1670 C13 0.678 . S
C1695 C187 0.678 . S
C1700 C42 0.678 . S
C1725 C216 0.678 . S
C1730 C71 0.678 . S
C1755 C100 0.678 . S
C1760 C129 0.678 . S
C1785 C126 1.386 . S
C1790 C300 1.386 . S
C1815 C242 1.386 . S
C1820 C68 1.386 . S
C1845 C329 1.386 . S
C1850 C184 1.386 . S
C1875 C10 1.386 . S
C1880 C271 1.386 . S
C1905 C361 0.678 . S
C1910 C245 0.678 . S
C1935 C303 0.678 . S
C1940 C448 0.678 . S
C1965 C390 0.678 . S
C1970 C274 0.678 . S
C1995 C419 0.678 . S
C2000 C332 0.678 . S
C2025 C39 1.386 . S
C2030 C416 1.386 . S
C2055 C387 1.386 . S
C2060 C155 1.386 . S
C2085 C97 1.386 . S
C2090 C445 1.386 . S
C2115 C213 1.386 . S
C2120 C358 1.386 . S
