# Generated by pormake.
# Topology vmf, (6)-cn, num edge types: 1
# Building blocks:
#     Node 0, Type 0, BuildingBlock: IZENUY_clean_sbu_0, # of connection points: 6
#     Node 1, Type 0, BuildingBlock: IZENUY_clean_sbu_0, # of connection points: 6
#     Node 2, Type 0, BuildingBlock: IZENUY_clean_sbu_0, # of connection points: 6
#     Node 3, Type 0, BuildingBlock: IZENUY_clean_sbu_0, # of connection points: 6
#     Node 4, Type 0, BuildingBlock: IZENUY_clean_sbu_0, # of connection points: 6
#     Node 5, Type 0, BuildingBlock: IZENUY_clean_sbu_0, # of connection points: 6
#     Node 6, Type 0, BuildingBlock: IZENUY_clean_sbu_0, # of connection points: 6
#     Node 7, Type 0, BuildingBlock: IZENUY_clean_sbu_0, # of connection points: 6
#     Edge 8, Type (0, 0), BuildingBlock: XUDNAN_clean_linker_2, # of connection points: 2
#     Edge 9, Type (0, 0), BuildingBlock: XUDNAN_clean_linker_2, # of connection points: 2
#     Edge 10, Type (0, 0), BuildingBlock: XUDNAN_clean_linker_2, # of connection points: 2
#     Edge 11, Type (0, 0), BuildingBlock: XUDNAN_clean_linker_2, # of connection points: 2
#     Edge 12, Type (0, 0), BuildingBlock: XUDNAN_clean_linker_2, # of connection points: 2
#     Edge 13, Type (0, 0), BuildingBlock: XUDNAN_clean_linker_2, # of connection points: 2
#     Edge 14, Type (0, 0), BuildingBlock: XUDNAN_clean_linker_2, # of connection points: 2
#     Edge 15, Type (0, 0), BuildingBlock: XUDNAN_clean_linker_2, # of connection points: 2
#     Edge 16, Type (0, 0), BuildingBlock: XUDNAN_clean_linker_2, # of connection points: 2
#     Edge 17, Type (0, 0), BuildingBlock: XUDNAN_clean_linker_2, # of connection points: 2
#     Edge 18, Type (0, 0), BuildingBlock: XUDNAN_clean_linker_2, # of connection points: 2
#     Edge 19, Type (0, 0), BuildingBlock: XUDNAN_clean_linker_2, # of connection points: 2
#     Edge 20, Type (0, 0), BuildingBlock: XUDNAN_clean_linker_2, # of connection points: 2
#     Edge 21, Type (0, 0), BuildingBlock: XUDNAN_clean_linker_2, # of connection points: 2
#     Edge 22, Type (0, 0), BuildingBlock: XUDNAN_clean_linker_2, # of connection points: 2
#     Edge 23, Type (0, 0), BuildingBlock: XUDNAN_clean_linker_2, # of connection points: 2
#     Edge 24, Type (0, 0), BuildingBlock: XUDNAN_clean_linker_2, # of connection points: 2
#     Edge 25, Type (0, 0), BuildingBlock: XUDNAN_clean_linker_2, # of connection points: 2
#     Edge 26, Type (0, 0), BuildingBlock: XUDNAN_clean_linker_2, # of connection points: 2
#     Edge 27, Type (0, 0), BuildingBlock: XUDNAN_clean_linker_2, # of connection points: 2
#     Edge 28, Type (0, 0), BuildingBlock: XUDNAN_clean_linker_2, # of connection points: 2
#     Edge 29, Type (0, 0), BuildingBlock: XUDNAN_clean_linker_2, # of connection points: 2
#     Edge 30, Type (0, 0), BuildingBlock: XUDNAN_clean_linker_2, # of connection points: 2
#     Edge 31, Type (0, 0), BuildingBlock: XUDNAN_clean_linker_2, # of connection points: 2
# Relax obj value: 0.282
# Max RMSD: 0.266
# Mean RMSD: 0.266
data_MOF--net-vmf--node1-IZENUY_clean_sbu_0--edge1-XUDNAN_clean_linker_2
_symmetry_space_group_name_H-M    P1
_symmetry_Int_Tables_number       1
_symmetry_cell_setting            triclinic
loop_
_symmetry_equiv_pos_as_xyz
'x, y, z'
_cell_length_a     28.578399
_cell_length_b     42.92818
_cell_length_c     27.861816
_cell_angle_alpha  90.103116
_cell_angle_beta   105.5916
_cell_angle_gamma 90.254351
loop_
_atom_site_label
_atom_site_type_symbol
_atom_site_fract_x
_atom_site_fract_y
_atom_site_fract_z
_atom_type_partial_charge
Fe0 Fe 0.22963 0.36165 0.2158 0.0
Fe1 Fe 0.22294 0.30155 0.27213 0.0
O2 O 0.20395 0.34053 0.25734 0.0
Fe3 Fe 0.15947 0.35757 0.28327 0.0
O4 O 0.12791 0.37831 0.22479 0.0
O5 O 0.17111 0.36664 0.17246 0.0
O6 O 0.23556 0.32755 0.17879 0.0
C7 C 0.21399 0.30146 0.17295 0.0
C8 C 0.21904 0.40851 0.28449 0.0
O9 O 0.19978 0.28919 0.20777 0.0
C10 C 0.22404 0.32419 0.36404 0.0
O11 O 0.29133 0.35736 0.25592 0.0
O12 O 0.28366 0.30708 0.26418 0.0
O13 O 0.19717 0.39121 0.30792 0.0
O14 O 0.2273 0.39978 0.24429 0.0
C15 C 0.12391 0.29792 0.27079 0.0
O16 O 0.24735 0.31195 0.3364 0.0
O17 O 0.18422 0.33869 0.34565 0.0
C18 C 0.31024 0.33078 0.2654 0.0
O19 O 0.16651 0.28748 0.2838 0.0
O20 O 0.11646 0.32629 0.26103 0.0
C21 C 0.13203 0.37549 0.18049 0.0
Fe22 Fe 0.79333 0.37053 0.82684 0.0
Fe23 Fe 0.80225 0.30185 0.79656 0.0
O24 O 0.8177 0.3418 0.7945 0.0
Fe25 Fe 0.85974 0.35348 0.76119 0.0
O26 O 0.90288 0.36553 0.82017 0.0
O27 O 0.84923 0.39398 0.84304 0.0
O28 O 0.81645 0.35129 0.88582 0.0
C29 C 0.80965 0.32327 0.89524 0.0
C30 C 0.79444 0.40454 0.74547 0.0
O31 O 0.79822 0.30298 0.861 0.0
C32 C 0.7999 0.31321 0.69554 0.0
O33 O 0.73379 0.35162 0.81706 0.0
O34 O 0.73782 0.30947 0.77316 0.0
O35 O 0.83577 0.39314 0.74785 0.0
O36 O 0.76814 0.39258 0.77033 0.0
C37 C 0.89815 0.29555 0.79897 0.0
O38 O 0.80251 0.29477 0.73175 0.0
O39 O 0.81831 0.34048 0.70213 0.0
C40 C 0.71356 0.32875 0.79069 0.0
O41 O 0.86564 0.28988 0.82068 0.0
O42 O 0.89214 0.31678 0.76687 0.0
C43 C 0.89222 0.38387 0.85136 0.0
Fe44 Fe 0.81443 0.73181 0.78719 0.0
Fe45 Fe 0.80802 0.66406 0.82235 0.0
O46 O 0.82902 0.69182 0.78554 0.0
Fe47 Fe 0.86684 0.67942 0.74807 0.0
O48 O 0.89933 0.7161 0.74992 0.0
O49 O 0.87859 0.74356 0.80695 0.0
O50 O 0.81408 0.73218 0.8529 0.0
C51 C 0.82753 0.71283 0.88808 0.0
C52 C 0.8046 0.71898 0.68483 0.0
O53 O 0.83514 0.68484 0.87946 0.0
C54 C 0.80215 0.62799 0.7409 0.0
O55 O 0.74964 0.72371 0.76791 0.0
O56 O 0.74903 0.68295 0.81574 0.0
O57 O 0.82181 0.69152 0.69089 0.0
O58 O 0.81069 0.73786 0.72118 0.0
C59 C 0.90639 0.65048 0.83791 0.0
O60 O 0.77898 0.64045 0.76838 0.0
O61 O 0.84214 0.6396 0.73823 0.0
C62 C 0.72705 0.70488 0.78852 0.0
O63 O 0.86399 0.64086 0.83599 0.0
O64 O 0.91353 0.66837 0.80447 0.0
C65 C 0.90869 0.73729 0.78241 0.0
Fe66 Fe 0.22675 0.66934 0.20748 0.0
Fe67 Fe 0.15332 0.68446 0.26637 0.0
O68 O 0.19868 0.69703 0.23782 0.0
Fe69 Fe 0.21445 0.73708 0.23864 0.0
O70 O 0.22714 0.73694 0.17786 0.0
O71 O 0.20827 0.68965 0.14877 0.0
O72 O 0.17163 0.64527 0.18487 0.0
C73 C 0.12789 0.65409 0.17578 0.0
C74 C 0.30437 0.71047 0.254 0.0
O75 O 0.11489 0.67209 0.2057 0.0
C76 C 0.20274 0.72643 0.33573 0.0
O77 O 0.2479 0.64689 0.26395 0.0
O78 O 0.17784 0.64472 0.28132 0.0
O79 O 0.27783 0.72935 0.26942 0.0
O80 O 0.28621 0.68871 0.22399 0.0
C81 C 0.11655 0.74208 0.22452 0.0
O82 O 0.18924 0.69809 0.32818 0.0
O83 O 0.20519 0.74396 0.29993 0.0
C84 C 0.21975 0.63364 0.28532 0.0
O85 O 0.11947 0.7208 0.25636 0.0
O86 O 0.15223 0.7485 0.20764 0.0
C87 C 0.2184 0.71761 0.14231 0.0
Fe88 Fe 0.73669 0.85676 0.20979 0.0
Fe89 Fe 0.72576 0.79755 0.2669 0.0
O90 O 0.70804 0.83641 0.2495 0.0
Fe91 Fe 0.66154 0.85452 0.27097 0.0
O92 O 0.63564 0.87618 0.21207 0.0
O93 O 0.67998 0.86073 0.16303 0.0
O94 O 0.74637 0.8222 0.17545 0.0
C95 C 0.72647 0.79559 0.16975 0.0
C96 C 0.72321 0.9042 0.27624 0.0
O97 O 0.70848 0.78422 0.20261 0.0
C98 C 0.71676 0.81949 0.35555 0.0
O99 O 0.7962 0.85328 0.25375 0.0
O100 O 0.78896 0.80319 0.26507 0.0
O101 O 0.70032 0.88705 0.29888 0.0
O102 O 0.73175 0.89536 0.23613 0.0
C103 C 0.62368 0.79568 0.2554 0.0
O104 O 0.74458 0.80814 0.33188 0.0
O105 O 0.67939 0.8351 0.33302 0.0
C106 C 0.81545 0.82696 0.26502 0.0
O107 O 0.66577 0.78438 0.27192 0.0
O108 O 0.61823 0.82412 0.24484 0.0
C109 C 0.64105 0.87155 0.16871 0.0
Fe110 Fe 0.30897 0.79924 0.76574 0.0
Fe111 Fe 0.36969 0.85458 0.74609 0.0
O112 O 0.3272 0.83883 0.77569 0.0
Fe113 Fe 0.30449 0.86271 0.81651 0.0
O114 O 0.32827 0.83687 0.86913 0.0
O115 O 0.30392 0.79319 0.82839 0.0
O116 O 0.37144 0.7855 0.78777 0.0
C117 C 0.40597 0.79393 0.77044 0.0
C118 C 0.22226 0.82567 0.76861 0.0
O119 O 0.40238 0.81827 0.74443 0.0
C120 C 0.30433 0.90481 0.74341 0.0
O121 O 0.31116 0.79848 0.70084 0.0
O122 O 0.32883 0.84672 0.68422 0.0
O123 O 0.24512 0.84385 0.80267 0.0
O124 O 0.24457 0.80936 0.74395 0.0
C125 C 0.40315 0.87816 0.84141 0.0
O126 O 0.34514 0.89426 0.74158 0.0
O127 O 0.2791 0.89051 0.76731 0.0
C128 C 0.31159 0.81992 0.66988 0.0
O129 O 0.41306 0.86242 0.80694 0.0
O130 O 0.35987 0.88591 0.83803 0.0
C131 C 0.32069 0.80785 0.86865 0.0
Fe132 Fe 0.29626 0.23549 0.78402 0.0
Fe133 Fe 0.28608 0.17178 0.83042 0.0
O134 O 0.3132 0.1957 0.79319 0.0
Fe135 Fe 0.35775 0.18003 0.76643 0.0
O136 O 0.40272 0.20869 0.79668 0.0
O137 O 0.35591 0.24977 0.77986 0.0
O138 O 0.31623 0.24349 0.8507 0.0
C139 C 0.30122 0.22838 0.88245 0.0
C140 C 0.30198 0.22087 0.69049 0.0
O141 O 0.27813 0.20316 0.87124 0.0
C142 C 0.29636 0.12977 0.75486 0.0
O143 O 0.23354 0.22866 0.78644 0.0
O144 O 0.22534 0.17777 0.78949 0.0
O145 O 0.33883 0.20393 0.70923 0.0
O146 O 0.27527 0.2304 0.71688 0.0
C147 C 0.3824 0.15565 0.86481 0.0
O148 O 0.28984 0.1355 0.79709 0.0
O149 O 0.31685 0.14957 0.73376 0.0
C150 C 0.20669 0.20461 0.78183 0.0
O151 O 0.34432 0.16512 0.87456 0.0
O152 O 0.38502 0.15433 0.81997 0.0
C153 C 0.39779 0.23774 0.7924 0.0
Fe154 Fe 0.72415 0.23527 0.28189 0.0
Fe155 Fe 0.7368 0.17723 0.22314 0.0
O156 O 0.70572 0.19684 0.26136 0.0
Fe157 Fe 0.65656 0.17879 0.2789 0.0
O158 O 0.61547 0.21041 0.25301 0.0
O159 O 0.66466 0.24842 0.28624 0.0
O160 O 0.70875 0.24982 0.21867 0.0
C161 C 0.72677 0.23883 0.18561 0.0
C162 C 0.71148 0.21113 0.36735 0.0
O163 O 0.74731 0.2125 0.19079 0.0
C164 C 0.71852 0.12877 0.28525 0.0
O165 O 0.78747 0.23042 0.28196 0.0
O166 O 0.79527 0.18074 0.26946 0.0
O167 O 0.67328 0.19679 0.34248 0.0
O168 O 0.74084 0.2228 0.34573 0.0
C169 C 0.64173 0.16143 0.17646 0.0
O170 O 0.73102 0.1386 0.24784 0.0
O171 O 0.69261 0.14498 0.30592 0.0
C172 C 0.81411 0.20683 0.2842 0.0
O173 O 0.6819 0.17236 0.17389 0.0
O174 O 0.6317 0.15864 0.21811 0.0
C175 C 0.62247 0.23862 0.26537 0.0
H176 H 0.52536 0.22411 0.23333 0.0
H177 H 0.62489 0.30056 0.29031 0.0
H178 H 0.55557 0.3343 0.29171 0.0
H179 H 0.42651 0.27182 0.15576 0.0
H180 H 0.38021 0.24785 0.17015 0.0
H181 H 0.43736 0.23095 0.16853 0.0
H182 H 0.44945 0.21062 0.25861 0.0
H183 H 0.39255 0.22756 0.26057 0.0
H184 H 0.44741 0.2377 0.30755 0.0
H185 H 0.47439 0.35889 0.29207 0.0
H186 H 0.38923 0.37099 0.29185 0.0
H187 H 0.34585 0.27772 0.23672 0.0
C188 C 0.53264 0.24808 0.24531 0.0
C189 C 0.58062 0.25961 0.26171 0.0
C190 C 0.58844 0.29112 0.27751 0.0
C191 C 0.54928 0.31054 0.27836 0.0
C192 C 0.50246 0.29821 0.26303 0.0
C193 C 0.49407 0.26773 0.24649 0.0
C194 C 0.44079 0.25943 0.23479 0.0
C195 C 0.42001 0.25209 0.179 0.0
C196 C 0.43207 0.23223 0.26734 0.0
C197 C 0.42078 0.28962 0.2488 0.0
C198 C 0.4565 0.31199 0.26427 0.0
C199 C 0.44605 0.34156 0.2798 0.0
C200 C 0.39778 0.34826 0.27968 0.0
C201 C 0.36115 0.32522 0.26502 0.0
C202 C 0.3731 0.29576 0.24899 0.0
H203 H 0.66988 0.27153 0.78272 0.0
H204 H 0.64152 0.37013 0.79327 0.0
H205 H 0.55725 0.35784 0.79519 0.0
H206 H 0.55122 0.24824 0.70647 0.0
H207 H 0.55125 0.21214 0.73942 0.0
H208 H 0.6078 0.22917 0.73549 0.0
H209 H 0.63924 0.22838 0.8319 0.0
H210 H 0.58256 0.21174 0.83618 0.0
H211 H 0.60465 0.24745 0.8687 0.0
H212 H 0.4758 0.33427 0.79627 0.0
H213 H 0.40466 0.30157 0.79763 0.0
H214 H 0.48905 0.21849 0.79177 0.0
C215 C 0.64566 0.29059 0.78441 0.0
C216 C 0.66192 0.32184 0.78699 0.0
C217 C 0.62958 0.34605 0.79077 0.0
C218 C 0.58175 0.33928 0.79199 0.0
C219 C 0.56713 0.30815 0.79022 0.0
C220 C 0.59825 0.28422 0.78672 0.0
C221 C 0.57459 0.2527 0.78791 0.0
C222 C 0.571 0.2345 0.73943 0.0
C223 C 0.60188 0.23398 0.8339 0.0
C224 C 0.525 0.26259 0.79193 0.0
C225 C 0.52127 0.29465 0.79306 0.0
C226 C 0.47842 0.30914 0.7956 0.0
C227 C 0.43821 0.29038 0.79642 0.0
C228 C 0.44124 0.25745 0.79514 0.0
C229 C 0.48555 0.24355 0.79337 0.0
H230 H 0.48696 0.80721 0.7396 0.0
H231 H 0.42556 0.73678 0.81681 0.0
H232 H 0.49973 0.705 0.82685 0.0
H233 H 0.54538 0.75523 0.67292 0.0
H234 H 0.59773 0.78011 0.67955 0.0
H235 H 0.53963 0.79684 0.67792 0.0
H236 H 0.5772 0.8242 0.76267 0.0
H237 H 0.63545 0.80774 0.76441 0.0
H238 H 0.609 0.80131 0.81547 0.0
H239 H 0.5821 0.6814 0.82922 0.0
H240 H 0.66557 0.66887 0.82626 0.0
H241 H 0.67152 0.75512 0.74686 0.0
C242 C 0.48877 0.78503 0.75846 0.0
C243 C 0.45012 0.77444 0.77716 0.0
C244 C 0.45451 0.74538 0.802 0.0
C245 C 0.49649 0.72715 0.80779 0.0
C246 C 0.53373 0.73832 0.7886 0.0
C247 C 0.5302 0.76666 0.76458 0.0
C248 C 0.57554 0.77392 0.74831 0.0
C249 C 0.56385 0.77668 0.69129 0.0
C250 C 0.60078 0.80354 0.77428 0.0
C251 C 0.60534 0.74518 0.76681 0.0
C252 C 0.58068 0.72487 0.78992 0.0
C253 C 0.60158 0.69711 0.81102 0.0
C254 C 0.64905 0.69018 0.80905 0.0
C255 C 0.67526 0.71091 0.78613 0.0
C256 C 0.65255 0.73857 0.76427 0.0
H257 H 0.34771 0.76738 0.25639 0.0
H258 H 0.37803 0.66843 0.26778 0.0
H259 H 0.46402 0.67923 0.27083 0.0
H260 H 0.41886 0.78273 0.17326 0.0
H261 H 0.43917 0.82064 0.19852 0.0
H262 H 0.38165 0.80548 0.20296 0.0
H263 H 0.40835 0.81274 0.29894 0.0
H264 H 0.46571 0.82836 0.29473 0.0
H265 H 0.46433 0.79556 0.33463 0.0
H266 H 0.54632 0.70111 0.26996 0.0
H267 H 0.61792 0.73214 0.26458 0.0
H268 H 0.5313 0.81628 0.24775 0.0
C269 C 0.37284 0.74809 0.26103 0.0
C270 C 0.35673 0.71712 0.26306 0.0
C271 C 0.39006 0.69234 0.26697 0.0
C272 C 0.43881 0.69826 0.26856 0.0
C273 C 0.45335 0.72906 0.26529 0.0
C274 C 0.42128 0.75354 0.26148 0.0
C275 C 0.44502 0.78425 0.25488 0.0
C276 C 0.41967 0.79914 0.20442 0.0
C277 C 0.44591 0.80654 0.2984 0.0
C278 C 0.49559 0.77328 0.256 0.0
C279 C 0.49982 0.74141 0.26229 0.0
C280 C 0.54339 0.72609 0.26498 0.0
C281 C 0.58383 0.74389 0.26178 0.0
C282 C 0.58028 0.77661 0.25545 0.0
C283 C 0.53527 0.79128 0.2521 0.0
H284 H 0.02428 0.72335 0.21175 0.0
H285 H 0.11349 0.80613 0.22164 0.0
H286 H 0.04449 0.83855 0.23058 0.0
H287 H 0.90494 0.76026 0.14604 0.0
H288 H 0.87364 0.7363 0.18062 0.0
H289 H 0.92682 0.7217 0.1652 0.0
H290 H 0.96542 0.71051 0.25908 0.0
H291 H 0.91327 0.72624 0.27484 0.0
H292 H 0.97284 0.74197 0.30352 0.0
H293 H 0.9672 0.86062 0.24919 0.0
H294 H 0.88822 0.87032 0.26777 0.0
H295 H 0.85484 0.77152 0.24984 0.0
C296 C 0.02863 0.74845 0.21386 0.0
C297 C 0.07372 0.7624 0.21545 0.0
C298 C 0.07872 0.79518 0.21924 0.0
C299 C 0.03989 0.81366 0.22483 0.0
C300 C 0.9965 0.79888 0.22593 0.0
C301 C 0.99054 0.76701 0.21941 0.0
C302 C 0.94226 0.7561 0.22573 0.0
C303 C 0.91002 0.74282 0.17647 0.0
C304 C 0.9489 0.73232 0.26833 0.0
C305 C 0.92265 0.78654 0.239 0.0
C306 C 0.95374 0.81115 0.23823 0.0
C307 C 0.94254 0.84147 0.24955 0.0
C308 C 0.89788 0.84674 0.26055 0.0
C309 C 0.86551 0.82168 0.26101 0.0
C310 C 0.87884 0.79124 0.25074 0.0
H311 H 0.98729 0.72109 0.75062 0.0
H312 H 0.93046 0.79648 0.82206 0.0
H313 H 1.00226 0.8288 0.82032 0.0
H314 H 0.11291 0.73271 0.81557 0.0
H315 H 0.13415 0.7224 0.76233 0.0
H316 H 0.07838 0.70592 0.76946 0.0
H317 H 0.03305 0.72651 0.682 0.0
H318 H 0.08855 0.74354 0.67495 0.0
H319 H 0.0356 0.76748 0.66872 0.0
H320 H 0.0799 0.85281 0.80902 0.0
H321 H 0.1608 0.86494 0.79822 0.0
H322 H 0.16667 0.77322 0.73441 0.0
C323 C 0.98978 0.74442 0.766 0.0
C324 C 0.95299 0.75638 0.78621 0.0
C325 C 0.95815 0.78684 0.8065 0.0
C326 C 0.99862 0.80538 0.80529 0.0
C327 C 0.03356 0.79301 0.78393 0.0
C328 C 0.02976 0.76305 0.76527 0.0
C329 C 0.07278 0.75473 0.74569 0.0
C330 C 0.10124 0.72733 0.77503 0.0
C331 C 0.0565 0.74765 0.6895 0.0
C332 C 0.10175 0.78475 0.75619 0.0
C333 C 0.07828 0.80661 0.77789 0.0
C334 C 0.09848 0.83585 0.79209 0.0
C335 C 0.14446 0.84253 0.78559 0.0
C336 C 0.17014 0.82008 0.76524 0.0
C337 C 0.14776 0.79107 0.74924 0.0
H338 H 0.98301 0.31224 0.78116 0.0
H339 H 0.91104 0.23379 0.82917 0.0
H340 H 0.981 0.20007 0.82666 0.0
H341 H 0.03008 0.27218 0.69469 0.0
H342 H 0.08621 0.29397 0.70879 0.0
H343 H 0.03205 0.31164 0.71743 0.0
H344 H 0.07616 0.32362 0.80971 0.0
H345 H 0.13083 0.3063 0.80169 0.0
H346 H 0.1049 0.29244 0.84999 0.0
H347 H 0.05993 0.17483 0.81445 0.0
H348 H 0.14089 0.16251 0.80259 0.0
H349 H 0.15591 0.25845 0.76009 0.0
C350 C 0.98194 0.288 0.7916 0.0
C351 C 0.94152 0.27558 0.80517 0.0
C352 C 0.94185 0.24382 0.81898 0.0
C353 C 0.98122 0.2245 0.81722 0.0
C354 C 0.01982 0.23743 0.80183 0.0
C355 C 0.02045 0.26864 0.78995 0.0
C356 C 0.06551 0.27743 0.77459 0.0
C357 C 0.05267 0.2895 0.72068 0.0
C358 C 0.09618 0.30135 0.81117 0.0
C359 C 0.09031 0.24622 0.77891 0.0
C360 C 0.06379 0.22328 0.79467 0.0
C361 C 0.08081 0.19271 0.8021 0.0
C362 C 0.12665 0.18584 0.79479 0.0
C363 C 0.15484 0.20947 0.78022 0.0
C364 C 0.13544 0.23975 0.77106 0.0
H365 H 0.03575 0.31603 0.28074 0.0
H366 H 0.11992 0.23396 0.26862 0.0
H367 H 0.0517 0.20036 0.27671 0.0
H368 H 0.98175 0.28505 0.3733 0.0
H369 H 0.92452 0.30423 0.34768 0.0
H370 H 0.97987 0.32142 0.34058 0.0
H371 H 0.9439 0.32267 0.24455 0.0
H372 H 0.88828 0.30592 0.25145 0.0
H373 H 0.9204 0.28723 0.21192 0.0
H374 H 0.97078 0.17604 0.28171 0.0
H375 H 0.88617 0.16396 0.28326 0.0
H376 H 0.86072 0.26267 0.2987 0.0
C377 C 0.03984 0.291 0.27947 0.0
C378 C 0.08291 0.27759 0.27363 0.0
C379 C 0.08706 0.2447 0.27294 0.0
C380 C 0.04861 0.22546 0.27763 0.0
C381 C 1.0067 0.23952 0.28378 0.0
C382 C 1.00239 0.27158 0.28495 0.0
C383 C 0.95399 0.28118 0.29203 0.0
C384 C 0.96045 0.29902 0.34134 0.0
C385 C 0.92494 0.30037 0.24733 0.0
C386 C 0.93124 0.24957 0.29386 0.0
C387 C 0.96184 0.22569 0.28895 0.0
C388 C 0.94677 0.19457 0.28625 0.0
C389 C 0.89876 0.1879 0.28734 0.0
C390 C 0.86677 0.21228 0.2914 0.0
C391 C 0.88412 0.24332 0.29612 0.0
H392 H 0.98351 0.35868 0.8933 0.0
H393 H 0.87876 0.42383 0.92289 0.0
H394 H 0.92832 0.42941 1.00955 0.0
H395 H 1.00942 0.31996 1.0087 0.0
H396 H 0.07352 0.31542 1.01527 0.0
H397 H 0.03186 0.31795 0.95416 0.0
H398 H 0.08069 0.36426 0.93292 0.0
H399 H 0.1228 0.36186 0.99387 0.0
H400 H 0.0923 0.39802 0.97307 0.0
H401 H 0.98584 0.42437 0.09635 0.0
H402 H 0.05141 0.41285 0.17298 0.0
H403 H 0.11974 0.35285 0.08632 0.0
C404 C 0.97162 0.37474 0.91759 0.0
C405 C 0.92713 0.39092 0.90071 0.0
C406 C 0.91267 0.41123 0.93439 0.0
C407 C 0.94055 0.41451 0.984 0.0
C408 C 0.98335 0.3976 0.99983 0.0
C409 C 0.99931 0.3785 0.96741 0.0
C410 C 0.04627 0.36247 0.99428 0.0
C411 C 0.03985 0.32684 0.99303 0.0
C412 C 0.08798 0.37225 0.97222 0.0
C413 C 0.0537 0.37527 0.04671 0.0
C414 C 0.01695 0.39536 0.04936 0.0
C415 C 0.01522 0.40897 0.09456 0.0
C416 C 0.05243 0.40222 0.13799 0.0
C417 C 0.09111 0.38231 0.1358 0.0
C418 C 0.09122 0.36865 0.08935 0.0
H419 H 0.06121 0.69191 0.1146 0.0
H420 H 0.12026 0.5986 0.12549 0.0
H421 H 0.07041 0.5872 0.03964 0.0
H422 H 0.93857 0.67451 0.03695 0.0
H423 H 0.93618 0.70978 1.00133 0.0
H424 H 0.97234 0.7085 0.06508 0.0
H425 H 0.04699 0.72644 0.03569 0.0
H426 H 1.01091 0.72659 0.97181 0.0
H427 H 0.06561 0.70375 0.98958 0.0
H428 H 0.0129 0.58614 0.95179 0.0
H429 H 0.95547 0.59635 0.86901 0.0
H430 H 0.94115 0.69189 0.91279 0.0
C431 C 0.0626 0.66881 0.09932 0.0
C432 C 0.09362 0.64581 0.12712 0.0
C433 C 0.09609 0.61632 0.10512 0.0
C434 C 0.06803 0.60971 0.05634 0.0
C435 C 0.03847 0.63309 0.02951 0.0
C436 C 0.03586 0.66213 0.05019 0.0
C437 C 1.00407 0.68391 1.01242 0.0
C438 C 0.96018 0.69479 0.03001 0.0
C439 C 0.03368 0.71182 1.00176 0.0
C440 C 0.98863 0.66251 0.96745 0.0
C441 C 1.00851 0.63319 0.97811 0.0
C442 C 0.99772 0.60914 0.94289 0.0
C443 C 0.96539 0.61511 0.89592 0.0
C444 C 0.94524 0.64506 0.88424 0.0
C445 C 0.95731 0.66903 0.9204 0.0
H446 H 0.62784 0.84575 0.0766 0.0
H447 H 0.56651 0.91398 0.15721 0.0
H448 H 0.50404 0.92674 0.07899 0.0
H449 H 0.60731 0.88733 0.95942 0.0
H450 H 0.59163 0.85247 0.92228 0.0
H451 H 0.633 0.85047 0.98371 0.0
H452 H 0.5781 0.80874 1.00857 0.0
H453 H 0.53673 0.8107 0.94726 0.0
H454 H 0.51482 0.81714 1.00138 0.0
H455 H 0.44832 0.9315 0.99238 0.0
H456 H 0.39668 0.92384 0.90706 0.0
H457 H 0.49239 0.85065 0.88309 0.0
C458 C 0.60157 0.86365 0.0778 0.0
C459 C 0.60238 0.87922 0.12296 0.0
C460 C 0.56666 0.90188 0.12311 0.0
C461 C 0.53132 0.90938 0.07879 0.0
C462 C 0.53199 0.89377 0.03488 0.0
C463 C 0.56581 0.87106 0.03424 0.0
C464 C 0.5567 0.85617 0.98302 0.0
C465 C 0.59972 0.86197 0.9608 0.0
C466 C 0.54593 0.82112 0.98521 0.0
C467 C 0.51206 0.8739 0.95474 0.0
C468 C 0.49897 0.8958 0.98526 0.0
C469 C 0.45829 0.91447 0.96824 0.0
C470 C 0.42923 0.90994 0.91952 0.0
C471 C 0.44045 0.88666 0.8881 0.0
C472 C 0.48325 0.86897 0.90572 0.0
H473 H 0.5407 0.16173 0.14916 0.0
H474 H 0.6654 0.13972 0.09468 0.0
H475 H 0.61158 0.13049 1.0108 0.0
H476 H 0.45432 0.10527 0.06691 0.0
H477 H 0.40411 0.13192 0.05735 0.0
H478 H 0.45162 0.13284 0.11498 0.0
H479 H 0.46595 0.19154 0.10195 0.0
H480 H 0.41844 0.19059 0.04462 0.0
H481 H 0.47831 0.20402 0.04478 0.0
H482 H 0.54625 0.12984 0.9306 0.0
H483 H 0.47305 0.13673 0.86034 0.0
H484 H 0.38918 0.15684 0.96538 0.0
C485 C 0.55638 0.15398 0.11991 0.0
C486 C 0.60733 0.15124 0.12876 0.0
C487 C 0.62654 0.14194 0.089 0.0
C488 C 0.59623 0.13655 0.04109 0.0
C489 C 0.54643 0.14037 0.03308 0.0
C490 C 0.52642 0.14858 0.07138 0.0
C491 C 0.47199 0.15334 0.05153 0.0
C492 C 0.44385 0.12941 0.07404 0.0
C493 C 0.45788 0.18686 0.06129 0.0
C494 C 0.46504 0.14734 0.9962 0.0
C495 C 0.50841 0.13971 0.98645 0.0
C496 C 0.51183 0.13527 0.93783 0.0
C497 C 0.46997 0.13919 0.89806 0.0
C498 C 0.4251 0.14743 0.90696 0.0
C499 C 0.42275 0.15075 0.95698 0.0
H500 H 0.15706 0.58735 0.29828 0.0
H501 H 0.30912 0.60631 0.31057 0.0
H502 H 0.32723 0.55041 0.32348 0.0
H503 H 0.17769 0.52036 0.38971 0.0
H504 H 0.12567 0.49946 0.35242 0.0
H505 H 0.12595 0.54147 0.35314 0.0
H506 H 0.10798 0.54182 0.25696 0.0
H507 H 0.1081 0.49994 0.2559 0.0
H508 H 0.14809 0.52143 0.22772 0.0
H509 H 0.32647 0.49244 0.31871 0.0
H510 H 0.30749 0.43639 0.30317 0.0
H511 H 0.15719 0.45393 0.29825 0.0
C512 C 0.19447 0.57991 0.30568 0.0
C513 C 0.23172 0.60136 0.30372 0.0
C514 C 0.27998 0.59044 0.31211 0.0
C515 C 0.29067 0.55867 0.31953 0.0
C516 C 0.25285 0.53798 0.31906 0.0
C517 C 0.2058 0.54815 0.31317 0.0
C518 C 0.17117 0.52076 0.30948 0.0
C519 C 0.1488 0.5205 0.35384 0.0
C520 C 0.13152 0.52102 0.25955 0.0
C521 C 0.20575 0.49367 0.31217 0.0
C522 C 0.25278 0.50416 0.318 0.0
C523 C 0.29014 0.48386 0.31574 0.0
C524 C 0.2791 0.45213 0.30685 0.0
C525 C 0.23133 0.44091 0.30106 0.0
C526 C 0.1944 0.46186 0.30456 0.0
H527 H 0.74999 0.58366 0.77576 0.0
H528 H 0.82852 0.59943 0.66467 0.0
H529 H 0.8216 0.5435 0.64317 0.0
H530 H 0.80861 0.51733 0.82229 0.0
H531 H 0.75743 0.4972 0.83426 0.0
H532 H 0.75859 0.53903 0.83329 0.0
H533 H 0.6762 0.53942 0.76565 0.0
H534 H 0.67463 0.49742 0.76659 0.0
H535 H 0.66954 0.51765 0.70879 0.0
H536 H 0.81994 0.48556 0.64457 0.0
H537 H 0.82308 0.43007 0.66845 0.0
H538 H 0.74496 0.45108 0.77804 0.0
C539 C 0.76389 0.57556 0.74545 0.0
C540 C 0.78927 0.59601 0.72142 0.0
C541 C 0.80858 0.58426 0.68325 0.0
C542 C 0.80469 0.55251 0.67069 0.0
C543 C 0.78121 0.53273 0.69647 0.0
C544 C 0.76071 0.54382 0.73278 0.0
C545 C 0.74308 0.5172 0.75931 0.0
C546 C 0.76846 0.51773 0.81559 0.0
C547 C 0.68755 0.51797 0.74948 0.0
C548 C 0.75888 0.48943 0.73386 0.0
C549 C 0.78007 0.49892 0.69714 0.0
C550 C 0.80229 0.47779 0.67229 0.0
C551 C 0.80398 0.44632 0.68613 0.0
C552 C 0.78353 0.43618 0.72442 0.0
C553 C 0.75949 0.45796 0.7475 0.0
H554 H 0.66468 0.94814 0.30196 0.0
H555 H 0.80897 0.93355 0.28412 0.0
H556 H 0.82752 0.98952 0.29965 0.0
H557 H 0.64385 1.01612 0.23419 0.0
H558 H 0.60961 0.03559 0.27098 0.0
H559 H 0.61074 0.99374 0.26906 0.0
H560 H 0.64194 0.99212 0.36532 0.0
H561 H 0.64085 0.03409 0.36753 0.0
H562 H 0.69607 1.01351 0.39635 0.0
H563 H 0.82692 0.04687 0.30474 0.0
H564 H 0.80622 0.1026 0.29514 0.0
H565 H 0.66143 0.082 0.3078 0.0
C566 C 0.70075 0.95667 0.30333 0.0
C567 C 0.73594 0.93655 0.29308 0.0
C568 C 0.78195 0.94859 0.29272 0.0
C569 C 0.79279 0.9803 0.30165 0.0
C570 C 0.75703 0.99978 0.31042 0.0
C571 C 0.71183 0.98853 0.31126 0.0
C572 C 0.67792 1.01513 0.31477 0.0
C573 C 0.63289 1.01514 0.26956 0.0
C574 C 0.66334 1.01362 0.36393 0.0
C575 C 0.71057 0.04306 0.31402 0.0
C576 C 0.75633 0.03351 0.31247 0.0
C577 C 0.79161 0.05466 0.307 0.0
C578 C 0.77953 0.08627 0.30157 0.0
C579 C 0.73261 0.0966 0.30167 0.0
C580 C 0.69806 0.0748 0.30929 0.0
H581 H 0.25819 0.94875 0.78546 0.0
H582 H 0.32638 0.93442 0.66583 0.0
H583 H 0.31998 0.99072 0.647 0.0
H584 H 0.17701 1.0154 0.72754 0.0
H585 H 0.18717 0.03491 0.78683 0.0
H586 H 0.18779 0.99295 0.78406 0.0
H587 H 0.27367 0.99275 0.8458 0.0
H588 H 0.27348 0.03457 0.84852 0.0
H589 H 0.32189 1.01472 0.83104 0.0
H590 H 0.31688 0.04925 0.64892 0.0
H591 H 0.31957 0.10478 0.67305 0.0
H592 H 0.2554 0.08111 0.79296 0.0
C593 C 0.26989 0.95731 0.75399 0.0
C594 C 0.29198 0.93717 0.72648 0.0
C595 C 0.30881 0.94943 0.68695 0.0
C596 C 0.30522 0.98137 0.67593 0.0
C597 C 0.28484 1.00084 0.70488 0.0
C598 C 0.26725 0.98925 0.74302 0.0
C599 C 0.25283 1.01544 0.77262 0.0
C600 C 0.19793 1.01462 0.76743 0.0
C601 C 0.28224 1.01429 0.82772 0.0
C602 C 0.26668 0.04352 0.74638 0.0
C603 C 0.28419 0.03467 0.7068 0.0
C604 C 0.30247 0.05647 0.67932 0.0
C605 C 0.30386 0.08802 0.69332 0.0
C606 C 0.28762 0.09748 0.73485 0.0
C607 C 0.2677 0.07484 0.76073 0.0
H608 H 0.21895 0.24294 0.62239 0.0
H609 H 0.37505 0.234 0.64832 0.0
H610 H 0.37126 0.26471 0.5729 0.0
H611 H 0.19194 0.23419 0.48729 0.0
H612 H 0.14216 0.2613 0.47451 0.0
H613 H 0.15708 0.23958 0.53182 0.0
H614 H 0.16537 0.29128 0.58148 0.0
H615 H 0.1514 0.31317 0.52427 0.0
H616 H 0.20686 0.3209 0.57195 0.0
H617 H 0.35242 0.29754 0.49764 0.0
H618 H 0.31791 0.32218 0.41636 0.0
H619 H 0.17245 0.30794 0.43241 0.0
C620 C 0.2522 0.24728 0.61184 0.0
C621 C 0.29737 0.23596 0.6414 0.0
C622 C 0.34001 0.24204 0.62621 0.0
C623 C 0.33832 0.25982 0.58367 0.0
C624 C 0.29359 0.2711 0.55596 0.0
C625 C 0.25103 0.26448 0.56847 0.0
C626 C 0.20752 0.27783 0.52976 0.0
C627 C 0.17262 0.25167 0.50433 0.0
C628 C 0.18124 0.30224 0.55329 0.0
C629 C 0.23244 0.29292 0.49367 0.0
C630 C 0.28222 0.28919 0.51047 0.0
C631 C 0.31352 0.3005 0.48398 0.0
C632 C 0.29351 0.31466 0.43792 0.0
C633 C 0.24252 0.31721 0.41804 0.0
C634 C 0.21155 0.30698 0.44705 0.0
H635 H 0.83859 0.30663 0.61545 0.0
H636 H 0.70938 0.28947 0.6647 0.0
H637 H 0.6729 0.2599 0.58735 0.0
H638 H 0.77835 0.31383 0.48161 0.0
H639 H 0.82614 0.29362 0.46356 0.0
H640 H 0.83982 0.3156 0.52081 0.0
H641 H 0.87814 0.26634 0.56904 0.0
H642 H 0.8636 0.24407 0.51204 0.0
H643 H 0.84235 0.2312 0.56407 0.0
H644 H 0.65174 0.23011 0.50574 0.0
H645 H 0.64568 0.20573 0.42363 0.0
H646 H 0.7903 0.24015 0.42976 0.0
C647 C 0.80207 0.29744 0.60903 0.0
C648 C 0.7762 0.30089 0.64531 0.0
C649 C 0.72929 0.28748 0.63677 0.0
C650 C 0.70843 0.27049 0.59316 0.0
C651 C 0.73525 0.26667 0.5586 0.0
C652 C 0.78093 0.27992 0.56585 0.0
C653 C 0.80284 0.27113 0.52385 0.0
C654 C 0.81232 0.30028 0.49579 0.0
C655 C 0.8495 0.25205 0.54344 0.0
C656 C 0.76226 0.25122 0.49181 0.0
C657 C 0.72364 0.24879 0.5125 0.0
C658 C 0.68182 0.23184 0.48916 0.0
C659 C 0.67882 0.21782 0.44269 0.0
C660 C 0.71742 0.22083 0.42003 0.0
C661 C 0.76003 0.23723 0.44585 0.0
H662 H 0.78735 0.78057 0.41028 0.0
H663 H 0.66051 0.83326 0.41916 0.0
H664 H 0.66683 0.81055 0.50222 0.0
H665 H 0.7586 0.71113 0.46682 0.0
H666 H 0.82064 0.70276 0.49985 0.0
H667 H 0.80754 0.72393 0.44202 0.0
H668 H 0.86337 0.76923 0.48525 0.0
H669 H 0.87731 0.74799 0.54299 0.0
H670 H 0.85336 0.7869 0.54038 0.0
H671 H 0.68682 0.78186 0.58408 0.0
H672 H 0.72172 0.75205 0.66096 0.0
H673 H 0.83392 0.71632 0.59787 0.0
C674 C 0.76107 0.78771 0.42975 0.0
C675 C 0.72341 0.80894 0.40795 0.0
C676 C 0.68981 0.81729 0.43495 0.0
C677 C 0.69296 0.80433 0.48207 0.0
C678 C 0.72978 0.78292 0.5017 0.0
C679 C 0.76347 0.77486 0.47656 0.0
C680 C 0.79951 0.75127 0.5058 0.0
C681 C 0.79636 0.72045 0.47689 0.0
C682 C 0.85146 0.76466 0.51942 0.0
C683 C 0.78102 0.74735 0.55164 0.0
C684 C 0.74067 0.76582 0.54835 0.0
C685 C 0.71814 0.76721 0.58681 0.0
C686 C 0.73809 0.75007 0.63022 0.0
C687 C 0.77994 0.73147 0.63496 0.0
C688 C 0.80114 0.72964 0.5947 0.0
H689 H 0.31383 0.76298 0.62664 0.0
H690 H 0.26767 0.85845 0.59249 0.0
H691 H 0.22945 0.84302 0.50486 0.0
H692 H 0.34373 0.74787 0.51031 0.0
H693 H 0.32361 0.70787 0.50687 0.0
H694 H 0.34643 0.7265 0.56662 0.0
H695 H 0.26655 0.71242 0.58881 0.0
H696 H 0.24311 0.6942 0.52876 0.0
H697 H 0.20928 0.7248 0.54834 0.0
H698 H 0.19342 0.81693 0.42319 0.0
H699 H 0.17265 0.78446 0.34783 0.0
H700 H 0.24577 0.70557 0.43259 0.0
C701 C 0.29582 0.78069 0.60063 0.0
C702 C 0.29339 0.81196 0.61632 0.0
C703 C 0.27011 0.83449 0.58117 0.0
C704 C 0.24798 0.82583 0.53154 0.0
C705 C 0.25009 0.79467 0.51769 0.0
C706 C 0.27428 0.77255 0.55088 0.0
C707 C 0.27311 0.74094 0.52579 0.0
C708 C 0.32479 0.73017 0.52749 0.0
C709 C 0.24642 0.71666 0.54934 0.0
C710 C 0.24426 0.74866 0.47304 0.0
C711 C 0.23085 0.77973 0.46972 0.0
C712 C 0.20411 0.79271 0.42529 0.0
C713 C 0.19246 0.77395 0.38267 0.0
C714 C 0.20788 0.74246 0.38415 0.0
C715 C 0.23307 0.72938 0.43035 0.0
H716 H 0.19144 0.31687 0.07538 0.0
H717 H 0.25689 0.24499 0.18093 0.0
H718 H 0.29343 0.2216 0.11846 0.0
H719 H 0.16538 0.26549 0.96263 0.0
H720 H 0.17783 0.29675 0.92467 0.0
H721 H 0.15354 0.30525 0.97652 0.0
H722 H 0.2259 0.34304 1.01056 0.0
H723 H 0.25163 0.33332 0.96014 0.0
H724 H 0.28716 0.32853 0.02375 0.0
H725 H 0.32977 0.20992 0.04929 0.0
H726 H 0.34753 0.20179 0.96836 0.0
H727 H 0.25698 0.28019 0.90619 0.0
C728 C 0.21179 0.29544 0.08436 0.0
C729 C 0.22088 0.28224 0.13226 0.0
C730 C 0.24859 0.25476 0.14377 0.0
C731 C 0.27013 0.24173 0.10892 0.0
C732 C 0.26278 0.25635 0.06289 0.0
C733 C 0.23283 0.28186 0.04976 0.0
C734 C 0.23072 0.29291 0.99763 0.0
C735 C 0.17878 0.28989 0.96335 0.0
C736 C 0.25002 0.32644 0.9981 0.0
C737 C 0.2648 0.26982 0.98375 0.0
C738 C 0.28346 0.24935 0.02242 0.0
C739 C 0.31527 0.22567 0.01867 0.0
C740 C 0.32575 0.22148 0.97298 0.0
C741 C 0.30448 0.24075 0.93197 0.0
C742 C 0.27494 0.26589 0.9377 0.0
H743 H 0.72441 0.22042 0.09239 0.0
H744 H 0.74651 0.30131 0.18948 0.0
H745 H 0.7735 0.33176 0.1262 0.0
H746 H 0.82576 0.2302 0.04738 0.0
H747 H 0.79661 0.21801 0.98445 0.0
H748 H 0.77526 0.2033 0.03527 0.0
H749 H 0.68837 0.22331 0.99335 0.0
H750 H 0.7091 0.23729 0.94167 0.0
H751 H 0.67981 0.26355 0.97483 0.0
H752 H 0.80488 0.35142 0.05545 0.0
H753 H 0.82625 0.36178 0.97686 0.0
H754 H 0.78195 0.26759 0.9266 0.0
C755 C 0.73393 0.24476 0.09975 0.0
C756 C 0.73335 0.25873 0.14534 0.0
C757 C 0.74615 0.29049 0.15423 0.0
C758 C 0.76194 0.30778 0.11882 0.0
C759 C 0.76388 0.29291 0.07487 0.0
C760 C 0.7491 0.26234 0.06476 0.0
C761 C 0.75475 0.25166 1.01496 0.0
C762 C 0.79022 0.22417 0.02092 0.0
C763 C 0.70506 0.24349 0.97909 0.0
C764 C 0.77599 0.28082 0.99896 0.0
C765 C 0.78123 0.30431 0.03403 0.0
C766 C 0.80045 0.33333 0.02745 0.0
C767 C 0.81276 0.33889 0.98283 0.0
C768 C 0.80548 0.31553 0.94542 0.0
C769 C 0.78806 0.28592 0.9544 0.0
H770 H 0.79797 0.7684 0.91808 0.0
H771 H 0.84467 0.67544 0.97077 0.0
H772 H 0.82041 0.68565 0.04785 0.0
H773 H 0.83536 0.80704 0.0404 0.0
H774 H 0.78368 0.83266 0.02505 0.0
H775 H 0.8091 0.81852 0.97664 0.0
H776 H 0.72408 0.79722 0.92914 0.0
H777 H 0.69884 0.81035 0.97823 0.0
H778 H 0.69347 0.76998 0.95966 0.0
H779 H 0.78361 0.70438 0.11572 0.0
H780 H 0.74975 0.73367 0.17534 0.0
H781 H 0.72755 0.81371 0.07725 0.0
C782 C 0.80423 0.75039 0.94623 0.0
C783 C 0.82306 0.72109 0.93819 0.0
C784 C 0.83024 0.69811 0.97599 0.0
C785 C 0.81631 0.70359 0.0198 0.0
C786 C 0.79542 0.73215 0.02525 0.0
C787 C 0.7904 0.7554 0.98998 0.0
C788 C 0.76623 0.78387 1.00425 0.0
C789 C 0.80066 0.81219 1.01207 0.0
C790 C 0.7178 0.79074 0.9655 0.0
C791 C 0.75799 0.7729 0.05282 0.0
C792 C 0.77466 0.74294 0.06422 0.0
C793 C 0.77057 0.72791 0.10728 0.0
C794 C 0.75072 0.7445 0.14054 0.0
C795 C 0.73576 0.77573 0.13042 0.0
C796 C 0.73847 0.78974 0.08554 0.0
H797 H 0.23142 0.77614 0.109 0.0
H798 H 0.23889 0.67785 0.0742 0.0
H799 H 0.2774 0.69132 1.00786 0.0
H800 H 0.20118 0.80248 0.98182 0.0
H801 H 0.23617 0.83793 0.99681 0.0
H802 H 0.21047 0.82017 0.04243 0.0
H803 H 0.29636 0.81897 0.10461 0.0
H804 H 0.32243 0.83592 0.05848 0.0
H805 H 0.34502 0.7994 0.08718 0.0
H806 H 0.3172 0.7145 0.9484 0.0
H807 H 0.33875 0.74664 0.8845 0.0
H808 H 0.30273 0.83031 0.95444 0.0
C809 C 0.24069 0.75748 0.08704 0.0
C810 C 0.23244 0.72595 0.09692 0.0
C811 C 0.24469 0.70218 0.0672 0.0
C812 C 0.26724 0.70955 0.02993 0.0
C813 C 0.27678 0.74074 0.02268 0.0
C814 C 0.26276 0.76441 0.04931 0.0
C815 C 0.27436 0.79611 0.03154 0.0
C816 C 0.22777 0.81529 1.01197 0.0
C817 C 0.31176 0.81363 0.07293 0.0
C818 C 0.29613 0.78649 0.98991 0.0
C819 C 0.29841 0.75439 0.98664 0.0
C820 C 0.31553 0.73964 0.95038 0.0
C821 C 0.32783 0.75809 0.91444 0.0
C822 C 0.32207 0.79084 0.9146 0.0
C823 C 0.30813 0.80537 0.95402 0.0
loop_
_geom_bond_atom_site_label_1
_geom_bond_atom_site_label_2
_geom_bond_distance
_geom_bond_site_symmetry_2
_ccdc_geom_bond_type
Fe0 O2 1.918 . S
Fe0 O5 1.997 . S
Fe0 O6 2.002 . S
Fe0 O11 1.976 . S
Fe0 O14 1.996 . S
Fe1 O2 1.918 . S
Fe1 O9 1.997 . S
Fe1 O12 1.996 . S
Fe1 O16 1.976 . S
Fe1 O19 2.002 . S
O2 Fe0 1.918 . S
O2 Fe1 1.918 . S
O2 Fe3 1.918 . S
Fe3 O2 1.918 . S
Fe3 O4 2.002 . S
Fe3 O13 1.976 . S
Fe3 O17 1.996 . S
Fe3 O20 1.997 . S
O4 Fe3 2.002 . S
O4 C21 1.295 . S
O5 Fe0 1.997 . S
O5 C21 1.235 . S
O6 Fe0 2.002 . S
O6 C7 1.295 . S
C7 O6 1.295 . S
C7 O9 1.235 . S
C8 O13 1.287 . S
C8 O14 1.255 . S
O9 Fe1 1.997 . S
O9 C7 1.235 . S
C10 O16 1.287 . S
C10 O17 1.255 . S
O11 Fe0 1.976 . S
O11 C18 1.287 . S
O12 Fe1 1.996 . S
O12 C18 1.255 . S
O13 Fe3 1.976 . S
O13 C8 1.287 . S
O14 Fe0 1.996 . S
O14 C8 1.255 . S
C15 O19 1.295 . S
C15 O20 1.235 . S
O16 Fe1 1.976 . S
O16 C10 1.287 . S
O17 Fe3 1.996 . S
O17 C10 1.255 . S
C18 O11 1.287 . S
C18 O12 1.255 . S
O19 Fe1 2.002 . S
O19 C15 1.295 . S
O20 Fe3 1.997 . S
O20 C15 1.235 . S
C21 O4 1.295 . S
C21 O5 1.235 . S
Fe22 O24 1.918 . S
Fe22 O27 1.997 . S
Fe22 O28 2.002 . S
Fe22 O33 1.976 . S
Fe22 O36 1.996 . S
Fe23 O24 1.918 . S
Fe23 O31 1.997 . S
Fe23 O34 1.996 . S
Fe23 O38 1.976 . S
Fe23 O41 2.002 . S
O24 Fe22 1.918 . S
O24 Fe23 1.918 . S
O24 Fe25 1.918 . S
Fe25 O24 1.918 . S
Fe25 O26 2.002 . S
Fe25 O35 1.976 . S
Fe25 O39 1.996 . S
Fe25 O42 1.997 . S
O26 Fe25 2.002 . S
O26 C43 1.295 . S
O27 Fe22 1.997 . S
O27 C43 1.235 . S
O28 Fe22 2.002 . S
O28 C29 1.295 . S
C29 O28 1.295 . S
C29 O31 1.235 . S
C30 O35 1.287 . S
C30 O36 1.255 . S
O31 Fe23 1.997 . S
O31 C29 1.235 . S
C32 O38 1.287 . S
C32 O39 1.255 . S
O33 Fe22 1.976 . S
O33 C40 1.287 . S
O34 Fe23 1.996 . S
O34 C40 1.255 . S
O35 Fe25 1.976 . S
O35 C30 1.287 . S
O36 Fe22 1.996 . S
O36 C30 1.255 . S
C37 O41 1.295 . S
C37 O42 1.235 . S
O38 Fe23 1.976 . S
O38 C32 1.287 . S
O39 Fe25 1.996 . S
O39 C32 1.255 . S
C40 O33 1.287 . S
C40 O34 1.255 . S
O41 Fe23 2.002 . S
O41 C37 1.295 . S
O42 Fe25 1.997 . S
O42 C37 1.235 . S
C43 O26 1.295 . S
C43 O27 1.235 . S
Fe44 O46 1.918 . S
Fe44 O49 1.997 . S
Fe44 O50 2.002 . S
Fe44 O55 1.976 . S
Fe44 O58 1.996 . S
Fe45 O46 1.918 . S
Fe45 O53 1.997 . S
Fe45 O56 1.996 . S
Fe45 O60 1.976 . S
Fe45 O63 2.002 . S
O46 Fe44 1.918 . S
O46 Fe45 1.918 . S
O46 Fe47 1.918 . S
Fe47 O46 1.918 . S
Fe47 O48 2.002 . S
Fe47 O57 1.976 . S
Fe47 O61 1.996 . S
Fe47 O64 1.997 . S
O48 Fe47 2.002 . S
O48 C65 1.295 . S
O49 Fe44 1.997 . S
O49 C65 1.235 . S
O50 Fe44 2.002 . S
O50 C51 1.295 . S
C51 O50 1.295 . S
C51 O53 1.235 . S
C52 O57 1.287 . S
C52 O58 1.255 . S
O53 Fe45 1.997 . S
O53 C51 1.235 . S
C54 O60 1.287 . S
C54 O61 1.255 . S
O55 Fe44 1.976 . S
O55 C62 1.287 . S
O56 Fe45 1.996 . S
O56 C62 1.255 . S
O57 Fe47 1.976 . S
O57 C52 1.287 . S
O58 Fe44 1.996 . S
O58 C52 1.255 . S
C59 O63 1.295 . S
C59 O64 1.235 . S
O60 Fe45 1.976 . S
O60 C54 1.287 . S
O61 Fe47 1.996 . S
O61 C54 1.255 . S
C62 O55 1.287 . S
C62 O56 1.255 . S
O63 Fe45 2.002 . S
O63 C59 1.295 . S
O64 Fe47 1.997 . S
O64 C59 1.235 . S
C65 O48 1.295 . S
C65 O49 1.235 . S
Fe66 O68 1.918 . S
Fe66 O71 1.997 . S
Fe66 O72 2.002 . S
Fe66 O77 1.976 . S
Fe66 O80 1.996 . S
Fe67 O68 1.918 . S
Fe67 O75 1.997 . S
Fe67 O78 1.996 . S
Fe67 O82 1.976 . S
Fe67 O85 2.002 . S
O68 Fe66 1.918 . S
O68 Fe67 1.918 . S
O68 Fe69 1.918 . S
Fe69 O68 1.918 . S
Fe69 O70 2.002 . S
Fe69 O79 1.976 . S
Fe69 O83 1.996 . S
Fe69 O86 1.997 . S
O70 Fe69 2.002 . S
O70 C87 1.295 . S
O71 Fe66 1.997 . S
O71 C87 1.235 . S
O72 Fe66 2.002 . S
O72 C73 1.295 . S
C73 O72 1.295 . S
C73 O75 1.235 . S
C74 O79 1.287 . S
C74 O80 1.255 . S
O75 Fe67 1.997 . S
O75 C73 1.235 . S
C76 O82 1.287 . S
C76 O83 1.255 . S
O77 Fe66 1.976 . S
O77 C84 1.287 . S
O78 Fe67 1.996 . S
O78 C84 1.255 . S
O79 Fe69 1.976 . S
O79 C74 1.287 . S
O80 Fe66 1.996 . S
O80 C74 1.255 . S
C81 O85 1.295 . S
C81 O86 1.235 . S
O82 Fe67 1.976 . S
O82 C76 1.287 . S
O83 Fe69 1.996 . S
O83 C76 1.255 . S
C84 O77 1.287 . S
C84 O78 1.255 . S
O85 Fe67 2.002 . S
O85 C81 1.295 . S
O86 Fe69 1.997 . S
O86 C81 1.235 . S
C87 O70 1.295 . S
C87 O71 1.235 . S
Fe88 O90 1.918 . S
Fe88 O93 1.997 . S
Fe88 O94 2.002 . S
Fe88 O99 1.976 . S
Fe88 O102 1.996 . S
Fe89 O90 1.918 . S
Fe89 O97 1.997 . S
Fe89 O100 1.996 . S
Fe89 O104 1.976 . S
Fe89 O107 2.002 . S
O90 Fe88 1.918 . S
O90 Fe89 1.918 . S
O90 Fe91 1.918 . S
Fe91 O90 1.918 . S
Fe91 O92 2.002 . S
Fe91 O101 1.976 . S
Fe91 O105 1.996 . S
Fe91 O108 1.997 . S
O92 Fe91 2.002 . S
O92 C109 1.295 . S
O93 Fe88 1.997 . S
O93 C109 1.235 . S
O94 Fe88 2.002 . S
O94 C95 1.295 . S
C95 O94 1.295 . S
C95 O97 1.235 . S
C96 O101 1.287 . S
C96 O102 1.255 . S
O97 Fe89 1.997 . S
O97 C95 1.235 . S
C98 O104 1.287 . S
C98 O105 1.255 . S
O99 Fe88 1.976 . S
O99 C106 1.287 . S
O100 Fe89 1.996 . S
O100 C106 1.255 . S
O101 Fe91 1.976 . S
O101 C96 1.287 . S
O102 Fe88 1.996 . S
O102 C96 1.255 . S
C103 O107 1.295 . S
C103 O108 1.235 . S
O104 Fe89 1.976 . S
O104 C98 1.287 . S
O105 Fe91 1.996 . S
O105 C98 1.255 . S
C106 O99 1.287 . S
C106 O100 1.255 . S
O107 Fe89 2.002 . S
O107 C103 1.295 . S
O108 Fe91 1.997 . S
O108 C103 1.235 . S
C109 O92 1.295 . S
C109 O93 1.235 . S
Fe110 O112 1.918 . S
Fe110 O115 1.997 . S
Fe110 O116 2.002 . S
Fe110 O121 1.976 . S
Fe110 O124 1.996 . S
Fe111 O112 1.918 . S
Fe111 O119 1.997 . S
Fe111 O122 1.996 . S
Fe111 O126 1.976 . S
Fe111 O129 2.002 . S
O112 Fe110 1.918 . S
O112 Fe111 1.918 . S
O112 Fe113 1.918 . S
Fe113 O112 1.918 . S
Fe113 O114 2.002 . S
Fe113 O123 1.976 . S
Fe113 O127 1.996 . S
Fe113 O130 1.997 . S
O114 Fe113 2.002 . S
O114 C131 1.295 . S
O115 Fe110 1.997 . S
O115 C131 1.235 . S
O116 Fe110 2.002 . S
O116 C117 1.295 . S
C117 O116 1.295 . S
C117 O119 1.235 . S
C118 O123 1.287 . S
C118 O124 1.255 . S
O119 Fe111 1.997 . S
O119 C117 1.235 . S
C120 O126 1.287 . S
C120 O127 1.255 . S
O121 Fe110 1.976 . S
O121 C128 1.287 . S
O122 Fe111 1.996 . S
O122 C128 1.255 . S
O123 Fe113 1.976 . S
O123 C118 1.287 . S
O124 Fe110 1.996 . S
O124 C118 1.255 . S
C125 O129 1.295 . S
C125 O130 1.235 . S
O126 Fe111 1.976 . S
O126 C120 1.287 . S
O127 Fe113 1.996 . S
O127 C120 1.255 . S
C128 O121 1.287 . S
C128 O122 1.255 . S
O129 Fe111 2.002 . S
O129 C125 1.295 . S
O130 Fe113 1.997 . S
O130 C125 1.235 . S
C131 O114 1.295 . S
C131 O115 1.235 . S
Fe132 O134 1.918 . S
Fe132 O137 1.997 . S
Fe132 O138 2.002 . S
Fe132 O143 1.976 . S
Fe132 O146 1.996 . S
Fe133 O134 1.918 . S
Fe133 O141 1.997 . S
Fe133 O144 1.996 . S
Fe133 O148 1.976 . S
Fe133 O151 2.002 . S
O134 Fe132 1.918 . S
O134 Fe133 1.918 . S
O134 Fe135 1.918 . S
Fe135 O134 1.918 . S
Fe135 O136 2.002 . S
Fe135 O145 1.976 . S
Fe135 O149 1.996 . S
Fe135 O152 1.997 . S
O136 Fe135 2.002 . S
O136 C153 1.295 . S
O137 Fe132 1.997 . S
O137 C153 1.235 . S
O138 Fe132 2.002 . S
O138 C139 1.295 . S
C139 O138 1.295 . S
C139 O141 1.235 . S
C140 O145 1.287 . S
C140 O146 1.255 . S
O141 Fe133 1.997 . S
O141 C139 1.235 . S
C142 O148 1.287 . S
C142 O149 1.255 . S
O143 Fe132 1.976 . S
O143 C150 1.287 . S
O144 Fe133 1.996 . S
O144 C150 1.255 . S
O145 Fe135 1.976 . S
O145 C140 1.287 . S
O146 Fe132 1.996 . S
O146 C140 1.255 . S
C147 O151 1.295 . S
C147 O152 1.235 . S
O148 Fe133 1.976 . S
O148 C142 1.287 . S
O149 Fe135 1.996 . S
O149 C142 1.255 . S
C150 O143 1.287 . S
C150 O144 1.255 . S
O151 Fe133 2.002 . S
O151 C147 1.295 . S
O152 Fe135 1.997 . S
O152 C147 1.235 . S
C153 O136 1.295 . S
C153 O137 1.235 . S
Fe154 O156 1.918 . S
Fe154 O159 1.997 . S
Fe154 O160 2.002 . S
Fe154 O165 1.976 . S
Fe154 O168 1.996 . S
Fe155 O156 1.918 . S
Fe155 O163 1.997 . S
Fe155 O166 1.996 . S
Fe155 O170 1.976 . S
Fe155 O173 2.002 . S
O156 Fe154 1.918 . S
O156 Fe155 1.918 . S
O156 Fe157 1.918 . S
Fe157 O156 1.918 . S
Fe157 O158 2.002 . S
Fe157 O167 1.976 . S
Fe157 O171 1.996 . S
Fe157 O174 1.997 . S
O158 Fe157 2.002 . S
O158 C175 1.295 . S
O159 Fe154 1.997 . S
O159 C175 1.235 . S
O160 Fe154 2.002 . S
O160 C161 1.295 . S
C161 O160 1.295 . S
C161 O163 1.235 . S
C162 O167 1.287 . S
C162 O168 1.255 . S
O163 Fe155 1.997 . S
O163 C161 1.235 . S
C164 O170 1.287 . S
C164 O171 1.255 . S
O165 Fe154 1.976 . S
O165 C172 1.287 . S
O166 Fe155 1.996 . S
O166 C172 1.255 . S
O167 Fe157 1.976 . S
O167 C162 1.287 . S
O168 Fe154 1.996 . S
O168 C162 1.255 . S
C169 O173 1.295 . S
C169 O174 1.235 . S
O170 Fe155 1.976 . S
O170 C164 1.287 . S
O171 Fe157 1.996 . S
O171 C164 1.255 . S
C172 O165 1.287 . S
C172 O166 1.255 . S
O173 Fe155 2.002 . S
O173 C169 1.295 . S
O174 Fe157 1.997 . S
O174 C169 1.235 . S
C175 O158 1.295 . S
C175 O159 1.235 . S
H176 C188 0.930 . S
H177 C190 0.930 . S
H178 C191 0.930 . S
H179 C195 0.959 . S
H180 C195 0.959 . S
H181 C195 0.961 . S
H182 C196 0.960 . S
H183 C196 0.961 . S
H184 C196 0.959 . S
H185 C199 0.929 . S
H186 C200 0.931 . S
H187 C202 0.930 . S
C188 H176 0.930 . S
C188 C189 1.399 . S
C188 C193 1.399 . S
C189 C188 1.399 . S
C189 C190 1.376 . S
C190 H177 0.930 . S
C190 C189 1.376 . S
C190 C191 1.388 . S
C191 H178 0.930 . S
C191 C190 1.388 . S
C191 C192 1.390 . S
C192 C191 1.390 . S
C192 C193 1.394 . S
C192 C198 1.465 . S
C193 C188 1.399 . S
C193 C192 1.394 . S
C193 C194 1.516 . S
C194 C193 1.516 . S
C194 C195 1.502 . S
C194 C196 1.561 . S
C194 C197 1.526 . S
C195 H179 0.959 . S
C195 H180 0.959 . S
C195 H181 0.961 . S
C195 C194 1.502 . S
C196 H182 0.960 . S
C196 H183 0.961 . S
C196 H184 0.959 . S
C196 C194 1.561 . S
C197 C194 1.526 . S
C197 C198 1.396 . S
C197 C202 1.390 . S
C198 C192 1.465 . S
C198 C197 1.396 . S
C198 C199 1.399 . S
C199 H185 0.929 . S
C199 C198 1.399 . S
C199 C200 1.385 . S
C200 H186 0.931 . S
C200 C199 1.385 . S
C200 C201 1.389 . S
C201 C200 1.389 . S
C201 C202 1.387 . S
C202 H187 0.930 . S
C202 C197 1.390 . S
C202 C201 1.387 . S
H203 C215 0.930 . S
H204 C217 0.930 . S
H205 C218 0.930 . S
H206 C222 0.959 . S
H207 C222 0.959 . S
H208 C222 0.961 . S
H209 C223 0.960 . S
H210 C223 0.961 . S
H211 C223 0.959 . S
H212 C226 0.929 . S
H213 C227 0.931 . S
H214 C229 0.930 . S
C215 H203 0.930 . S
C215 C216 1.399 . S
C215 C220 1.399 . S
C216 C215 1.399 . S
C216 C217 1.376 . S
C217 H204 0.930 . S
C217 C216 1.376 . S
C217 C218 1.388 . S
C218 H205 0.930 . S
C218 C217 1.388 . S
C218 C219 1.390 . S
C219 C218 1.390 . S
C219 C220 1.394 . S
C219 C225 1.465 . S
C220 C215 1.399 . S
C220 C219 1.394 . S
C220 C221 1.516 . S
C221 C220 1.516 . S
C221 C222 1.502 . S
C221 C223 1.561 . S
C221 C224 1.526 . S
C222 H206 0.959 . S
C222 H207 0.959 . S
C222 H208 0.961 . S
C222 C221 1.502 . S
C223 H209 0.960 . S
C223 H210 0.961 . S
C223 H211 0.959 . S
C223 C221 1.561 . S
C224 C221 1.526 . S
C224 C225 1.396 . S
C224 C229 1.390 . S
C225 C219 1.465 . S
C225 C224 1.396 . S
C225 C226 1.399 . S
C226 H212 0.929 . S
C226 C225 1.399 . S
C226 C227 1.385 . S
C227 H213 0.931 . S
C227 C226 1.385 . S
C227 C228 1.389 . S
C228 C227 1.389 . S
C228 C229 1.387 . S
C229 H214 0.930 . S
C229 C224 1.390 . S
C229 C228 1.387 . S
H230 C242 0.930 . S
H231 C244 0.930 . S
H232 C245 0.930 . S
H233 C249 0.959 . S
H234 C249 0.959 . S
H235 C249 0.961 . S
H236 C250 0.960 . S
H237 C250 0.961 . S
H238 C250 0.959 . S
H239 C253 0.929 . S
H240 C254 0.931 . S
H241 C256 0.930 . S
C242 H230 0.930 . S
C242 C243 1.399 . S
C242 C247 1.399 . S
C243 C242 1.399 . S
C243 C244 1.376 . S
C244 H231 0.930 . S
C244 C243 1.376 . S
C244 C245 1.388 . S
C245 H232 0.930 . S
C245 C244 1.388 . S
C245 C246 1.390 . S
C246 C245 1.390 . S
C246 C247 1.394 . S
C246 C252 1.465 . S
C247 C242 1.399 . S
C247 C246 1.394 . S
C247 C248 1.516 . S
C248 C247 1.516 . S
C248 C249 1.502 . S
C248 C250 1.561 . S
C248 C251 1.526 . S
C249 H233 0.959 . S
C249 H234 0.959 . S
C249 H235 0.961 . S
C249 C248 1.502 . S
C250 H236 0.960 . S
C250 H237 0.961 . S
C250 H238 0.959 . S
C250 C248 1.561 . S
C251 C248 1.526 . S
C251 C252 1.396 . S
C251 C256 1.390 . S
C252 C246 1.465 . S
C252 C251 1.396 . S
C252 C253 1.399 . S
C253 H239 0.929 . S
C253 C252 1.399 . S
C253 C254 1.385 . S
C254 H240 0.931 . S
C254 C253 1.385 . S
C254 C255 1.389 . S
C255 C254 1.389 . S
C255 C256 1.387 . S
C256 H241 0.930 . S
C256 C251 1.390 . S
C256 C255 1.387 . S
H257 C269 0.930 . S
H258 C271 0.930 . S
H259 C272 0.930 . S
H260 C276 0.959 . S
H261 C276 0.959 . S
H262 C276 0.961 . S
H263 C277 0.960 . S
H264 C277 0.961 . S
H265 C277 0.959 . S
H266 C280 0.929 . S
H267 C281 0.931 . S
H268 C283 0.930 . S
C269 H257 0.930 . S
C269 C270 1.399 . S
C269 C274 1.399 . S
C270 C269 1.399 . S
C270 C271 1.376 . S
C271 H258 0.930 . S
C271 C270 1.376 . S
C271 C272 1.388 . S
C272 H259 0.930 . S
C272 C271 1.388 . S
C272 C273 1.390 . S
C273 C272 1.390 . S
C273 C274 1.394 . S
C273 C279 1.465 . S
C274 C269 1.399 . S
C274 C273 1.394 . S
C274 C275 1.516 . S
C275 C274 1.516 . S
C275 C276 1.502 . S
C275 C277 1.561 . S
C275 C278 1.526 . S
C276 H260 0.959 . S
C276 H261 0.959 . S
C276 H262 0.961 . S
C276 C275 1.502 . S
C277 H263 0.960 . S
C277 H264 0.961 . S
C277 H265 0.959 . S
C277 C275 1.561 . S
C278 C275 1.526 . S
C278 C279 1.396 . S
C278 C283 1.390 . S
C279 C273 1.465 . S
C279 C278 1.396 . S
C279 C280 1.399 . S
C280 H266 0.929 . S
C280 C279 1.399 . S
C280 C281 1.385 . S
C281 H267 0.931 . S
C281 C280 1.385 . S
C281 C282 1.389 . S
C282 C281 1.389 . S
C282 C283 1.387 . S
C283 H268 0.930 . S
C283 C278 1.390 . S
C283 C282 1.387 . S
H284 C296 0.930 . S
H285 C298 0.930 . S
H286 C299 0.930 . S
H287 C303 0.959 . S
H288 C303 0.959 . S
H289 C303 0.961 1_455 S
H290 C304 0.960 . S
H291 C304 0.961 . S
H292 C304 0.959 . S
H293 C307 0.929 . S
H294 C308 0.931 . S
H295 C310 0.930 . S
C296 H284 0.930 . S
C296 C297 1.399 . S
C296 C301 1.399 . S
C297 C296 1.399 . S
C297 C298 1.376 . S
C298 H285 0.930 . S
C298 C297 1.376 . S
C298 C299 1.388 . S
C299 H286 0.930 . S
C299 C298 1.388 . S
C299 C300 1.390 . S
C300 C299 1.390 . S
C300 C301 1.394 . S
C300 C306 1.465 1_455 S
C301 C296 1.399 . S
C301 C300 1.394 . S
C301 C302 1.516 1_455 S
C302 C301 1.516 1_655 S
C302 C303 1.502 . S
C302 C304 1.561 1_655 S
C302 C305 1.526 . S
C303 H287 0.959 . S
C303 H288 0.959 . S
C303 H289 0.961 1_655 S
C303 C302 1.502 . S
C304 H290 0.960 . S
C304 H291 0.961 . S
C304 H292 0.959 . S
C304 C302 1.561 1_455 S
C305 C302 1.526 . S
C305 C306 1.396 . S
C305 C310 1.390 . S
C306 C300 1.465 1_655 S
C306 C305 1.396 . S
C306 C307 1.399 . S
C307 H293 0.929 . S
C307 C306 1.399 . S
C307 C308 1.385 . S
C308 H294 0.931 . S
C308 C307 1.385 . S
C308 C309 1.389 . S
C309 C308 1.389 . S
C309 C310 1.387 . S
C310 H295 0.930 . S
C310 C305 1.390 . S
C310 C309 1.387 . S
H311 C323 0.930 . S
H312 C325 0.930 . S
H313 C326 0.930 . S
H314 C330 0.959 . S
H315 C330 0.959 . S
H316 C330 0.961 1_655 S
H317 C331 0.960 . S
H318 C331 0.961 1_455 S
H319 C331 0.959 . S
H320 C334 0.929 . S
H321 C335 0.931 . S
H322 C337 0.930 . S
C323 H311 0.930 . S
C323 C324 1.399 . S
C323 C328 1.399 . S
C324 C323 1.399 . S
C324 C325 1.376 . S
C325 H312 0.930 . S
C325 C324 1.376 . S
C325 C326 1.388 . S
C326 H313 0.930 . S
C326 C325 1.388 . S
C326 C327 1.390 . S
C327 C326 1.390 . S
C327 C328 1.394 . S
C327 C333 1.465 1_655 S
C328 C323 1.399 . S
C328 C327 1.394 . S
C328 C329 1.516 1_655 S
C329 C328 1.516 1_455 S
C329 C330 1.502 . S
C329 C331 1.561 1_455 S
C329 C332 1.526 . S
C330 H314 0.959 . S
C330 H315 0.959 . S
C330 H316 0.961 1_455 S
C330 C329 1.502 . S
C331 H317 0.960 . S
C331 H318 0.961 1_655 S
C331 H319 0.959 . S
C331 C329 1.561 1_655 S
C332 C329 1.526 . S
C332 C333 1.396 . S
C332 C337 1.390 . S
C333 C327 1.465 1_455 S
C333 C332 1.396 . S
C333 C334 1.399 . S
C334 H320 0.929 . S
C334 C333 1.399 . S
C334 C335 1.385 . S
C335 H321 0.931 . S
C335 C334 1.385 . S
C335 C336 1.389 . S
C336 C335 1.389 . S
C336 C337 1.387 . S
C337 H322 0.930 . S
C337 C332 1.390 . S
C337 C336 1.387 . S
H338 C350 0.930 . S
H339 C352 0.930 . S
H340 C353 0.930 . S
H341 C357 0.959 . S
H342 C357 0.959 . S
H343 C357 0.961 . S
H344 C358 0.960 1_655 S
H345 C358 0.961 . S
H346 C358 0.959 . S
H347 C361 0.929 . S
H348 C362 0.931 . S
H349 C364 0.930 . S
C350 H338 0.930 . S
C350 C351 1.399 . S
C350 C355 1.399 . S
C351 C350 1.399 . S
C351 C352 1.376 . S
C352 H339 0.930 . S
C352 C351 1.376 . S
C352 C353 1.388 . S
C353 H340 0.930 . S
C353 C352 1.388 . S
C353 C354 1.390 . S
C354 C353 1.390 . S
C354 C355 1.394 . S
C354 C360 1.465 1_655 S
C355 C350 1.399 . S
C355 C354 1.394 . S
C355 C356 1.516 1_655 S
C356 C355 1.516 1_455 S
C356 C357 1.502 . S
C356 C358 1.561 . S
C356 C359 1.526 . S
C357 H341 0.959 . S
C357 H342 0.959 . S
C357 H343 0.961 . S
C357 C356 1.502 . S
C358 H344 0.960 1_455 S
C358 H345 0.961 . S
C358 H346 0.959 . S
C358 C356 1.561 . S
C359 C356 1.526 . S
C359 C360 1.396 . S
C359 C364 1.390 . S
C360 C354 1.465 1_455 S
C360 C359 1.396 . S
C360 C361 1.399 . S
C361 H347 0.929 . S
C361 C360 1.399 . S
C361 C362 1.385 . S
C362 H348 0.931 . S
C362 C361 1.385 . S
C362 C363 1.389 . S
C363 C362 1.389 . S
C363 C364 1.387 . S
C364 H349 0.930 . S
C364 C359 1.390 . S
C364 C363 1.387 . S
H365 C377 0.930 . S
H366 C379 0.930 . S
H367 C380 0.930 . S
H368 C384 0.959 . S
H369 C384 0.959 . S
H370 C384 0.961 . S
H371 C385 0.960 . S
H372 C385 0.961 1_655 S
H373 C385 0.959 . S
H374 C388 0.929 . S
H375 C389 0.931 . S
H376 C391 0.930 . S
C377 H365 0.930 . S
C377 C378 1.399 . S
C377 C382 1.399 . S
C378 C377 1.399 . S
C378 C379 1.376 . S
C379 H366 0.930 . S
C379 C378 1.376 . S
C379 C380 1.388 . S
C380 H367 0.930 . S
C380 C379 1.388 . S
C380 C381 1.390 . S
C381 C380 1.390 . S
C381 C382 1.394 . S
C381 C387 1.465 1_455 S
C382 C377 1.399 . S
C382 C381 1.394 . S
C382 C383 1.516 1_455 S
C383 C382 1.516 1_655 S
C383 C384 1.502 . S
C383 C385 1.561 1_655 S
C383 C386 1.526 . S
C384 H368 0.959 . S
C384 H369 0.959 . S
C384 H370 0.961 . S
C384 C383 1.502 . S
C385 H371 0.960 . S
C385 H372 0.961 1_455 S
C385 H373 0.959 . S
C385 C383 1.561 1_455 S
C386 C383 1.526 . S
C386 C387 1.396 . S
C386 C391 1.390 . S
C387 C381 1.465 1_655 S
C387 C386 1.396 . S
C387 C388 1.399 . S
C388 H374 0.929 . S
C388 C387 1.399 . S
C388 C389 1.385 . S
C389 H375 0.931 . S
C389 C388 1.385 . S
C389 C390 1.389 . S
C390 C389 1.389 . S
C390 C391 1.387 . S
C391 H376 0.930 . S
C391 C386 1.390 . S
C391 C390 1.387 . S
H392 C404 0.930 . S
H393 C406 0.930 . S
H394 C407 0.930 1_554 S
H395 C411 0.959 . S
H396 C411 0.959 . S
H397 C411 0.961 . S
H398 C412 0.960 . S
H399 C412 0.961 . S
H400 C412 0.959 . S
H401 C415 0.929 1_655 S
H402 C416 0.931 . S
H403 C418 0.930 . S
C404 H392 0.930 . S
C404 C405 1.399 . S
C404 C409 1.399 . S
C405 C404 1.399 . S
C405 C406 1.376 . S
C406 H393 0.930 . S
C406 C405 1.376 . S
C406 C407 1.388 . S
C407 H394 0.930 1_556 S
C407 C406 1.388 . S
C407 C408 1.390 . S
C408 C407 1.390 . S
C408 C409 1.394 . S
C408 C414 1.465 1_656 S
C409 C404 1.399 . S
C409 C408 1.394 . S
C409 C410 1.516 1_655 S
C410 C409 1.516 1_455 S
C410 C411 1.502 . S
C410 C412 1.561 . S
C410 C413 1.526 1_556 S
C411 H395 0.959 . S
C411 H396 0.959 . S
C411 H397 0.961 . S
C411 C410 1.502 . S
C412 H398 0.960 . S
C412 H399 0.961 . S
C412 H400 0.959 . S
C412 C410 1.561 . S
C413 C410 1.526 1_554 S
C413 C414 1.396 . S
C413 C418 1.390 . S
C414 C408 1.465 1_454 S
C414 C413 1.396 . S
C414 C415 1.399 . S
C415 H401 0.929 1_455 S
C415 C414 1.399 . S
C415 C416 1.385 . S
C416 H402 0.931 . S
C416 C415 1.385 . S
C416 C417 1.389 . S
C417 C416 1.389 . S
C417 C418 1.387 . S
C418 H403 0.930 . S
C418 C413 1.390 . S
C418 C417 1.387 . S
H419 C431 0.930 . S
H420 C433 0.930 . S
H421 C434 0.930 . S
H422 C438 0.959 . S
H423 C438 0.960 . S
H424 C438 0.961 . S
H425 C439 0.960 . S
H426 C439 0.961 . S
H427 C439 0.959 . S
H428 C442 0.929 . S
H429 C443 0.931 . S
H430 C445 0.930 . S
C431 H419 0.930 . S
C431 C432 1.399 . S
C431 C436 1.399 . S
C432 C431 1.399 . S
C432 C433 1.376 . S
C433 H420 0.930 . S
C433 C432 1.376 . S
C433 C434 1.388 . S
C434 H421 0.930 . S
C434 C433 1.388 . S
C434 C435 1.390 . S
C435 C434 1.390 . S
C435 C436 1.394 . S
C435 C441 1.465 1_454 S
C436 C431 1.399 . S
C436 C435 1.394 . S
C436 C437 1.528 1_554 S
C437 C436 1.528 1_556 S
C437 C438 1.486 1_456 S
C437 C439 1.578 . S
C437 C440 1.515 1_455 S
C438 H422 0.959 . S
C438 H423 0.960 . S
C438 H424 0.961 . S
C438 C437 1.486 1_654 S
C439 H425 0.960 . S
C439 H426 0.961 . S
C439 H427 0.959 . S
C439 C437 1.578 . S
C440 C437 1.515 1_655 S
C440 C441 1.396 . S
C440 C445 1.390 . S
C441 C435 1.465 1_656 S
C441 C440 1.396 . S
C441 C442 1.399 . S
C442 H428 0.929 . S
C442 C441 1.399 . S
C442 C443 1.385 . S
C443 H429 0.931 . S
C443 C442 1.385 . S
C443 C444 1.389 . S
C444 C443 1.389 . S
C444 C445 1.387 . S
C445 H430 0.930 . S
C445 C440 1.390 . S
C445 C444 1.387 . S
H446 C458 0.930 . S
H447 C460 0.930 . S
H448 C461 0.930 . S
H449 C465 0.959 . S
H450 C465 0.959 . S
H451 C465 0.961 . S
H452 C466 0.960 . S
H453 C466 0.961 1_556 S
H454 C466 0.959 . S
H455 C469 0.929 . S
H456 C470 0.931 . S
H457 C472 0.930 . S
C458 H446 0.930 . S
C458 C459 1.399 . S
C458 C463 1.399 . S
C459 C458 1.399 . S
C459 C460 1.376 . S
C460 H447 0.930 . S
C460 C459 1.376 . S
C460 C461 1.388 . S
C461 H448 0.930 . S
C461 C460 1.388 . S
C461 C462 1.390 . S
C462 C461 1.390 . S
C462 C463 1.394 . S
C462 C468 1.465 1_554 S
C463 C458 1.399 . S
C463 C462 1.394 . S
C463 C464 1.516 1_554 S
C464 C463 1.516 1_556 S
C464 C465 1.502 . S
C464 C466 1.561 1_556 S
C464 C467 1.526 . S
C465 H449 0.959 . S
C465 H450 0.959 . S
C465 H451 0.961 . S
C465 C464 1.502 . S
C466 H452 0.960 . S
C466 H453 0.961 1_554 S
C466 H454 0.959 . S
C466 C464 1.561 1_554 S
C467 C464 1.526 . S
C467 C468 1.396 . S
C467 C472 1.390 . S
C468 C462 1.465 1_556 S
C468 C467 1.396 . S
C468 C469 1.399 . S
C469 H455 0.929 . S
C469 C468 1.399 . S
C469 C470 1.385 . S
C470 H456 0.931 . S
C470 C469 1.385 . S
C470 C471 1.389 . S
C471 C470 1.389 . S
C471 C472 1.387 . S
C472 H457 0.930 . S
C472 C467 1.390 . S
C472 C471 1.387 . S
H473 C485 0.930 . S
H474 C487 0.930 . S
H475 C488 0.930 . S
H476 C492 0.959 . S
H477 C492 0.959 . S
H478 C492 0.961 . S
H479 C493 0.960 1_554 S
H480 C493 0.961 . S
H481 C493 0.959 . S
H482 C496 0.929 . S
H483 C497 0.931 . S
H484 C499 0.930 . S
C485 H473 0.930 . S
C485 C486 1.399 . S
C485 C490 1.399 . S
C486 C485 1.399 . S
C486 C487 1.376 . S
C487 H474 0.930 . S
C487 C486 1.376 . S
C487 C488 1.388 . S
C488 H475 0.930 . S
C488 C487 1.388 . S
C488 C489 1.390 . S
C489 C488 1.390 . S
C489 C490 1.394 . S
C489 C495 1.465 1_554 S
C490 C485 1.399 . S
C490 C489 1.394 . S
C490 C491 1.516 . S
C491 C490 1.516 . S
C491 C492 1.502 . S
C491 C493 1.561 1_554 S
C491 C494 1.526 1_554 S
C492 H476 0.959 . S
C492 H477 0.959 . S
C492 H478 0.961 . S
C492 C491 1.502 . S
C493 H479 0.960 1_556 S
C493 H480 0.961 . S
C493 H481 0.959 . S
C493 C491 1.561 1_556 S
C494 C491 1.526 1_556 S
C494 C495 1.396 . S
C494 C499 1.390 . S
C495 C489 1.465 1_556 S
C495 C494 1.396 . S
C495 C496 1.399 . S
C496 H482 0.929 . S
C496 C495 1.399 . S
C496 C497 1.385 . S
C497 H483 0.931 . S
C497 C496 1.385 . S
C497 C498 1.389 . S
C498 C497 1.389 . S
C498 C499 1.387 . S
C499 H484 0.930 . S
C499 C494 1.390 . S
C499 C498 1.387 . S
H500 C512 0.930 . S
H501 C514 0.930 . S
H502 C515 0.930 . S
H503 C519 0.959 . S
H504 C519 0.959 . S
H505 C519 0.961 . S
H506 C520 0.960 . S
H507 C520 0.961 . S
H508 C520 0.959 . S
H509 C523 0.929 . S
H510 C524 0.931 . S
H511 C526 0.930 . S
C512 H500 0.930 . S
C512 C513 1.399 . S
C512 C517 1.399 . S
C513 C512 1.399 . S
C513 C514 1.376 . S
C514 H501 0.930 . S
C514 C513 1.376 . S
C514 C515 1.388 . S
C515 H502 0.930 . S
C515 C514 1.388 . S
C515 C516 1.390 . S
C516 C515 1.390 . S
C516 C517 1.394 . S
C516 C522 1.465 . S
C517 C512 1.399 . S
C517 C516 1.394 . S
C517 C518 1.516 . S
C518 C517 1.516 . S
C518 C519 1.502 . S
C518 C520 1.561 . S
C518 C521 1.526 . S
C519 H503 0.959 . S
C519 H504 0.959 . S
C519 H505 0.961 . S
C519 C518 1.502 . S
C520 H506 0.960 . S
C520 H507 0.961 . S
C520 H508 0.959 . S
C520 C518 1.561 . S
C521 C518 1.526 . S
C521 C522 1.396 . S
C521 C526 1.390 . S
C522 C516 1.465 . S
C522 C521 1.396 . S
C522 C523 1.399 . S
C523 H509 0.929 . S
C523 C522 1.399 . S
C523 C524 1.385 . S
C524 H510 0.931 . S
C524 C523 1.385 . S
C524 C525 1.389 . S
C525 C524 1.389 . S
C525 C526 1.387 . S
C526 H511 0.930 . S
C526 C521 1.390 . S
C526 C525 1.387 . S
H527 C539 0.930 . S
H528 C541 0.930 . S
H529 C542 0.930 . S
H530 C546 0.959 . S
H531 C546 0.959 . S
H532 C546 0.961 . S
H533 C547 0.960 . S
H534 C547 0.961 . S
H535 C547 0.959 . S
H536 C550 0.929 . S
H537 C551 0.931 . S
H538 C553 0.930 . S
C539 H527 0.930 . S
C539 C540 1.399 . S
C539 C544 1.399 . S
C540 C539 1.399 . S
C540 C541 1.376 . S
C541 H528 0.930 . S
C541 C540 1.376 . S
C541 C542 1.388 . S
C542 H529 0.930 . S
C542 C541 1.388 . S
C542 C543 1.390 . S
C543 C542 1.390 . S
C543 C544 1.394 . S
C543 C549 1.465 . S
C544 C539 1.399 . S
C544 C543 1.394 . S
C544 C545 1.516 . S
C545 C544 1.516 . S
C545 C546 1.502 . S
C545 C547 1.561 . S
C545 C548 1.526 . S
C546 H530 0.959 . S
C546 H531 0.959 . S
C546 H532 0.961 . S
C546 C545 1.502 . S
C547 H533 0.960 . S
C547 H534 0.961 . S
C547 H535 0.959 . S
C547 C545 1.561 . S
C548 C545 1.526 . S
C548 C549 1.396 . S
C548 C553 1.390 . S
C549 C543 1.465 . S
C549 C548 1.396 . S
C549 C550 1.399 . S
C550 H536 0.929 . S
C550 C549 1.399 . S
C550 C551 1.385 . S
C551 H537 0.931 . S
C551 C550 1.385 . S
C551 C552 1.389 . S
C552 C551 1.389 . S
C552 C553 1.387 . S
C553 H538 0.930 . S
C553 C548 1.390 . S
C553 C552 1.387 . S
H554 C566 0.930 . S
H555 C568 0.930 . S
H556 C569 0.930 . S
H557 C573 0.961 . S
H558 C573 0.973 . S
H559 C573 0.946 1_565 S
H560 C574 0.961 1_565 S
H561 C574 0.960 . S
H562 C574 0.959 . S
H563 C577 0.929 . S
H564 C578 0.931 . S
H565 C580 0.930 . S
C566 H554 0.930 . S
C566 C567 1.399 . S
C566 C571 1.399 . S
C567 C566 1.399 . S
C567 C568 1.376 . S
C568 H555 0.930 . S
C568 C567 1.376 . S
C568 C569 1.388 . S
C569 H556 0.930 . S
C569 C568 1.388 . S
C569 C570 1.390 . S
C570 C569 1.390 . S
C570 C571 1.394 . S
C570 C576 1.465 1_565 S
C571 C566 1.399 . S
C571 C570 1.394 . S
C571 C572 1.519 1_565 S
C572 C571 1.519 1_545 S
C572 C573 1.502 . S
C572 C574 1.561 . S
C572 C575 1.522 . S
C573 H557 0.961 . S
C573 H558 0.973 . S
C573 H559 0.946 1_545 S
C573 C572 1.502 . S
C574 H560 0.961 1_545 S
C574 H561 0.960 . S
C574 H562 0.959 . S
C574 C572 1.561 . S
C575 C572 1.522 . S
C575 C576 1.396 . S
C575 C580 1.390 . S
C576 C570 1.465 1_545 S
C576 C575 1.396 . S
C576 C577 1.399 . S
C577 H563 0.929 . S
C577 C576 1.399 . S
C577 C578 1.385 . S
C578 H564 0.931 . S
C578 C577 1.385 . S
C578 C579 1.389 . S
C579 C578 1.389 . S
C579 C580 1.387 . S
C580 H565 0.930 . S
C580 C575 1.390 . S
C580 C579 1.387 . S
H581 C593 0.930 . S
H582 C595 0.930 . S
H583 C596 0.930 . S
H584 C600 0.963 . S
H585 C600 0.986 . S
H586 C600 0.932 1_565 S
H587 C601 0.951 1_565 S
H588 C601 0.969 . S
H589 C601 0.960 . S
H590 C604 0.929 . S
H591 C605 0.931 . S
H592 C607 0.930 . S
C593 H581 0.930 . S
C593 C594 1.399 . S
C593 C598 1.399 . S
C594 C593 1.399 . S
C594 C595 1.376 . S
C595 H582 0.930 . S
C595 C594 1.376 . S
C595 C596 1.388 . S
C596 H583 0.930 . S
C596 C595 1.388 . S
C596 C597 1.390 . S
C597 C596 1.390 . S
C597 C598 1.394 . S
C597 C603 1.465 1_565 S
C598 C593 1.399 . S
C598 C597 1.394 . S
C598 C599 1.512 1_565 S
C599 C598 1.512 1_545 S
C599 C600 1.501 . S
C599 C601 1.561 . S
C599 C602 1.529 . S
C600 H584 0.963 . S
C600 H585 0.986 . S
C600 H586 0.932 1_545 S
C600 C599 1.501 . S
C601 H587 0.951 1_545 S
C601 H588 0.969 . S
C601 H589 0.960 . S
C601 C599 1.561 . S
C602 C599 1.529 . S
C602 C603 1.396 . S
C602 C607 1.390 . S
C603 C597 1.465 1_545 S
C603 C602 1.396 . S
C603 C604 1.399 . S
C604 H590 0.929 . S
C604 C603 1.399 . S
C604 C605 1.385 . S
C605 H591 0.931 . S
C605 C604 1.385 . S
C605 C606 1.389 . S
C606 C605 1.389 . S
C606 C607 1.387 . S
C607 H592 0.930 . S
C607 C602 1.390 . S
C607 C606 1.387 . S
H608 C620 0.930 . S
H609 C622 0.930 . S
H610 C623 0.930 . S
H611 C627 0.959 . S
H612 C627 0.959 . S
H613 C627 0.961 . S
H614 C628 0.960 . S
H615 C628 0.961 . S
H616 C628 0.959 . S
H617 C631 0.929 . S
H618 C632 0.931 . S
H619 C634 0.930 . S
C620 H608 0.930 . S
C620 C621 1.399 . S
C620 C625 1.399 . S
C621 C620 1.399 . S
C621 C622 1.376 . S
C622 H609 0.930 . S
C622 C621 1.376 . S
C622 C623 1.388 . S
C623 H610 0.930 . S
C623 C622 1.388 . S
C623 C624 1.390 . S
C624 C623 1.390 . S
C624 C625 1.394 . S
C624 C630 1.465 . S
C625 C620 1.399 . S
C625 C624 1.394 . S
C625 C626 1.516 . S
C626 C625 1.516 . S
C626 C627 1.502 . S
C626 C628 1.561 . S
C626 C629 1.526 . S
C627 H611 0.959 . S
C627 H612 0.959 . S
C627 H613 0.961 . S
C627 C626 1.502 . S
C628 H614 0.960 . S
C628 H615 0.961 . S
C628 H616 0.959 . S
C628 C626 1.561 . S
C629 C626 1.526 . S
C629 C630 1.396 . S
C629 C634 1.390 . S
C630 C624 1.465 . S
C630 C629 1.396 . S
C630 C631 1.399 . S
C631 H617 0.929 . S
C631 C630 1.399 . S
C631 C632 1.385 . S
C632 H618 0.931 . S
C632 C631 1.385 . S
C632 C633 1.389 . S
C633 C632 1.389 . S
C633 C634 1.387 . S
C634 H619 0.930 . S
C634 C629 1.390 . S
C634 C633 1.387 . S
H635 C647 0.930 . S
H636 C649 0.930 . S
H637 C650 0.930 . S
H638 C654 0.959 . S
H639 C654 0.959 . S
H640 C654 0.961 . S
H641 C655 0.960 . S
H642 C655 0.961 . S
H643 C655 0.959 . S
H644 C658 0.929 . S
H645 C659 0.931 . S
H646 C661 0.930 . S
C647 H635 0.930 . S
C647 C648 1.399 . S
C647 C652 1.399 . S
C648 C647 1.399 . S
C648 C649 1.376 . S
C649 H636 0.930 . S
C649 C648 1.376 . S
C649 C650 1.388 . S
C650 H637 0.930 . S
C650 C649 1.388 . S
C650 C651 1.390 . S
C651 C650 1.390 . S
C651 C652 1.394 . S
C651 C657 1.465 . S
C652 C647 1.399 . S
C652 C651 1.394 . S
C652 C653 1.516 . S
C653 C652 1.516 . S
C653 C654 1.502 . S
C653 C655 1.561 . S
C653 C656 1.526 . S
C654 H638 0.959 . S
C654 H639 0.959 . S
C654 H640 0.961 . S
C654 C653 1.502 . S
C655 H641 0.960 . S
C655 H642 0.961 . S
C655 H643 0.959 . S
C655 C653 1.561 . S
C656 C653 1.526 . S
C656 C657 1.396 . S
C656 C661 1.390 . S
C657 C651 1.465 . S
C657 C656 1.396 . S
C657 C658 1.399 . S
C658 H644 0.929 . S
C658 C657 1.399 . S
C658 C659 1.385 . S
C659 H645 0.931 . S
C659 C658 1.385 . S
C659 C660 1.389 . S
C660 C659 1.389 . S
C660 C661 1.387 . S
C661 H646 0.930 . S
C661 C656 1.390 . S
C661 C660 1.387 . S
H662 C674 0.930 . S
H663 C676 0.930 . S
H664 C677 0.930 . S
H665 C681 0.959 . S
H666 C681 0.959 . S
H667 C681 0.961 . S
H668 C682 0.960 . S
H669 C682 0.961 . S
H670 C682 0.959 . S
H671 C685 0.929 . S
H672 C686 0.931 . S
H673 C688 0.930 . S
C674 H662 0.930 . S
C674 C675 1.399 . S
C674 C679 1.399 . S
C675 C674 1.399 . S
C675 C676 1.376 . S
C676 H663 0.930 . S
C676 C675 1.376 . S
C676 C677 1.388 . S
C677 H664 0.930 . S
C677 C676 1.388 . S
C677 C678 1.390 . S
C678 C677 1.390 . S
C678 C679 1.394 . S
C678 C684 1.465 . S
C679 C674 1.399 . S
C679 C678 1.394 . S
C679 C680 1.516 . S
C680 C679 1.516 . S
C680 C681 1.502 . S
C680 C682 1.561 . S
C680 C683 1.526 . S
C681 H665 0.959 . S
C681 H666 0.959 . S
C681 H667 0.961 . S
C681 C680 1.502 . S
C682 H668 0.960 . S
C682 H669 0.961 . S
C682 H670 0.959 . S
C682 C680 1.561 . S
C683 C680 1.526 . S
C683 C684 1.396 . S
C683 C688 1.390 . S
C684 C678 1.465 . S
C684 C683 1.396 . S
C684 C685 1.399 . S
C685 H671 0.929 . S
C685 C684 1.399 . S
C685 C686 1.385 . S
C686 H672 0.931 . S
C686 C685 1.385 . S
C686 C687 1.389 . S
C687 C686 1.389 . S
C687 C688 1.387 . S
C688 H673 0.930 . S
C688 C683 1.390 . S
C688 C687 1.387 . S
H689 C701 0.930 . S
H690 C703 0.930 . S
H691 C704 0.930 . S
H692 C708 0.959 . S
H693 C708 0.959 . S
H694 C708 0.961 . S
H695 C709 0.960 . S
H696 C709 0.961 . S
H697 C709 0.959 . S
H698 C712 0.929 . S
H699 C713 0.931 . S
H700 C715 0.930 . S
C701 H689 0.930 . S
C701 C702 1.399 . S
C701 C706 1.399 . S
C702 C701 1.399 . S
C702 C703 1.376 . S
C703 H690 0.930 . S
C703 C702 1.376 . S
C703 C704 1.388 . S
C704 H691 0.930 . S
C704 C703 1.388 . S
C704 C705 1.390 . S
C705 C704 1.390 . S
C705 C706 1.394 . S
C705 C711 1.465 . S
C706 C701 1.399 . S
C706 C705 1.394 . S
C706 C707 1.516 . S
C707 C706 1.516 . S
C707 C708 1.502 . S
C707 C709 1.561 . S
C707 C710 1.526 . S
C708 H692 0.959 . S
C708 H693 0.959 . S
C708 H694 0.961 . S
C708 C707 1.502 . S
C709 H695 0.960 . S
C709 H696 0.961 . S
C709 H697 0.959 . S
C709 C707 1.561 . S
C710 C707 1.526 . S
C710 C711 1.396 . S
C710 C715 1.390 . S
C711 C705 1.465 . S
C711 C710 1.396 . S
C711 C712 1.399 . S
C712 H698 0.929 . S
C712 C711 1.399 . S
C712 C713 1.385 . S
C713 H699 0.931 . S
C713 C712 1.385 . S
C713 C714 1.389 . S
C714 C713 1.389 . S
C714 C715 1.387 . S
C715 H700 0.930 . S
C715 C710 1.390 . S
C715 C714 1.387 . S
H716 C728 0.930 . S
H717 C730 0.930 . S
H718 C731 0.930 . S
H719 C735 0.959 . S
H720 C735 0.959 . S
H721 C735 0.961 . S
H722 C736 0.960 . S
H723 C736 0.961 . S
H724 C736 0.959 . S
H725 C739 0.929 . S
H726 C740 0.931 . S
H727 C742 0.930 . S
C728 H716 0.930 . S
C728 C729 1.399 . S
C728 C733 1.399 . S
C729 C728 1.399 . S
C729 C730 1.376 . S
C730 H717 0.930 . S
C730 C729 1.376 . S
C730 C731 1.388 . S
C731 H718 0.930 . S
C731 C730 1.388 . S
C731 C732 1.390 . S
C732 C731 1.390 . S
C732 C733 1.394 . S
C732 C738 1.465 1_554 S
C733 C728 1.399 . S
C733 C732 1.394 . S
C733 C734 1.516 1_554 S
C734 C733 1.516 1_556 S
C734 C735 1.502 . S
C734 C736 1.561 . S
C734 C737 1.526 . S
C735 H719 0.959 . S
C735 H720 0.959 . S
C735 H721 0.961 . S
C735 C734 1.502 . S
C736 H722 0.960 . S
C736 H723 0.961 . S
C736 H724 0.959 . S
C736 C734 1.561 . S
C737 C734 1.526 . S
C737 C738 1.396 . S
C737 C742 1.390 . S
C738 C732 1.465 1_556 S
C738 C737 1.396 . S
C738 C739 1.399 . S
C739 H725 0.929 . S
C739 C738 1.399 . S
C739 C740 1.385 . S
C740 H726 0.931 . S
C740 C739 1.385 . S
C740 C741 1.389 . S
C741 C740 1.389 . S
C741 C742 1.387 . S
C742 H727 0.930 . S
C742 C737 1.390 . S
C742 C741 1.387 . S
H743 C755 0.930 . S
H744 C757 0.930 . S
H745 C758 0.930 . S
H746 C762 0.959 . S
H747 C762 0.959 1_556 S
H748 C762 0.961 . S
H749 C763 0.960 . S
H750 C763 0.961 . S
H751 C763 0.959 . S
H752 C766 0.929 . S
H753 C767 0.931 . S
H754 C769 0.930 . S
C755 H743 0.930 . S
C755 C756 1.399 . S
C755 C760 1.399 . S
C756 C755 1.399 . S
C756 C757 1.376 . S
C757 H744 0.930 . S
C757 C756 1.376 . S
C757 C758 1.388 . S
C758 H745 0.930 . S
C758 C757 1.388 . S
C758 C759 1.390 . S
C759 C758 1.390 . S
C759 C760 1.394 . S
C759 C765 1.465 1_554 S
C760 C755 1.399 . S
C760 C759 1.394 . S
C760 C761 1.516 1_554 S
C761 C760 1.516 1_556 S
C761 C762 1.502 1_556 S
C761 C763 1.561 . S
C761 C764 1.526 . S
C762 H746 0.959 . S
C762 H747 0.959 1_554 S
C762 H748 0.961 . S
C762 C761 1.502 1_554 S
C763 H749 0.960 . S
C763 H750 0.961 . S
C763 H751 0.959 . S
C763 C761 1.561 . S
C764 C761 1.526 . S
C764 C765 1.396 . S
C764 C769 1.390 . S
C765 C759 1.465 1_556 S
C765 C764 1.396 . S
C765 C766 1.399 . S
C766 H752 0.929 . S
C766 C765 1.399 . S
C766 C767 1.385 . S
C767 H753 0.931 . S
C767 C766 1.385 . S
C767 C768 1.389 . S
C768 C767 1.389 . S
C768 C769 1.387 . S
C769 H754 0.930 . S
C769 C764 1.390 . S
C769 C768 1.387 . S
H770 C782 0.930 . S
H771 C784 0.930 . S
H772 C785 0.930 . S
H773 C789 0.959 . S
H774 C789 0.959 . S
H775 C789 0.961 1_556 S
H776 C790 0.960 . S
H777 C790 0.961 . S
H778 C790 0.959 . S
H779 C793 0.929 . S
H780 C794 0.931 . S
H781 C796 0.930 . S
C782 H770 0.930 . S
C782 C783 1.399 . S
C782 C787 1.399 . S
C783 C782 1.399 . S
C783 C784 1.376 . S
C784 H771 0.930 . S
C784 C783 1.376 . S
C784 C785 1.388 . S
C785 H772 0.930 . S
C785 C784 1.388 . S
C785 C786 1.390 . S
C786 C785 1.390 . S
C786 C787 1.394 . S
C786 C792 1.465 1_556 S
C787 C782 1.399 . S
C787 C786 1.394 . S
C787 C788 1.516 . S
C788 C787 1.516 . S
C788 C789 1.502 1_556 S
C788 C790 1.561 . S
C788 C791 1.526 1_556 S
C789 H773 0.959 . S
C789 H774 0.959 . S
C789 H775 0.961 1_554 S
C789 C788 1.502 1_554 S
C790 H776 0.960 . S
C790 H777 0.961 . S
C790 H778 0.959 . S
C790 C788 1.561 . S
C791 C788 1.526 1_554 S
C791 C792 1.396 . S
C791 C796 1.390 . S
C792 C786 1.465 1_554 S
C792 C791 1.396 . S
C792 C793 1.399 . S
C793 H779 0.929 . S
C793 C792 1.399 . S
C793 C794 1.385 . S
C794 H780 0.931 . S
C794 C793 1.385 . S
C794 C795 1.389 . S
C795 C794 1.389 . S
C795 C796 1.387 . S
C796 H781 0.930 . S
C796 C791 1.390 . S
C796 C795 1.387 . S
H797 C809 0.930 . S
H798 C811 0.930 . S
H799 C812 0.930 . S
H800 C816 0.959 . S
H801 C816 0.959 . S
H802 C816 0.961 1_554 S
H803 C817 0.960 . S
H804 C817 0.960 . S
H805 C817 0.959 . S
H806 C820 0.929 . S
H807 C821 0.931 . S
H808 C823 0.930 . S
C809 H797 0.930 . S
C809 C810 1.399 . S
C809 C814 1.399 . S
C810 C809 1.399 . S
C810 C811 1.376 . S
C811 H798 0.930 . S
C811 C810 1.376 . S
C811 C812 1.388 . S
C812 H799 0.930 . S
C812 C811 1.388 . S
C812 C813 1.390 . S
C813 C812 1.390 . S
C813 C814 1.394 . S
C813 C819 1.465 1_554 S
C814 C809 1.399 . S
C814 C813 1.394 . S
C814 C815 1.516 . S
C815 C814 1.516 . S
C815 C816 1.502 1_554 S
C815 C817 1.561 . S
C815 C818 1.526 1_554 S
C816 H800 0.959 . S
C816 H801 0.959 . S
C816 H802 0.961 1_556 S
C816 C815 1.502 1_556 S
C817 H803 0.960 . S
C817 H804 0.960 . S
C817 H805 0.959 . S
C817 C815 1.561 . S
C818 C815 1.526 1_556 S
C818 C819 1.396 . S
C818 C823 1.390 . S
C819 C813 1.465 1_556 S
C819 C818 1.396 . S
C819 C820 1.399 . S
C820 H806 0.929 . S
C820 C819 1.399 . S
C820 C821 1.385 . S
C821 H807 0.931 . S
C821 C820 1.385 . S
C821 C822 1.389 . S
C822 C821 1.389 . S
C822 C823 1.387 . S
C823 H808 0.930 . S
C823 C818 1.390 . S
C823 C822 1.387 . S
C189 C175 1.345 . S
C201 C18 1.370 . S
C216 C40 1.357 . S
C228 C153 1.338 . S
C243 C117 1.371 . S
C255 C62 1.325 . S
C270 C74 1.376 . S
C282 C103 1.363 . S
C297 C81 1.385 . S
C309 C106 1.338 . S
C324 C65 1.386 . S
C336 C118 1.345 . S
C351 C37 1.363 . S
C363 C150 1.376 . S
C378 C15 1.350 . S
C390 C172 1.357 . S
C405 C43 1.566 . S
C417 C21 1.560 . S
C432 C73 1.586 . S
C444 C59 1.590 . S
C459 C109 1.578 . S
C471 C125 1.582 . S
C486 C169 1.582 . S
C498 C147 1.589 . S
C513 C84 1.405 . S
C525 C8 1.407 . S
C540 C54 1.453 . S
C552 C30 1.452 . S
C567 C96 1.423 . S
C579 C164 1.421 . S
C594 C120 1.429 . S
C606 C142 1.432 . S
C621 C140 1.826 . S
C633 C10 1.817 . S
C648 C32 1.855 . S
C660 C162 1.788 . S
C675 C98 1.856 . S
C687 C52 1.787 . S
C702 C128 1.855 . S
C714 C76 1.788 . S
C729 C7 0.923 . S
C741 C139 0.947 . S
C756 C161 1.002 . S
C768 C29 0.877 . S
C783 C51 0.886 . S
C795 C95 1.001 . S
C810 C87 0.888 . S
C822 C131 1.002 . S
