# Generated by pormake.
# Topology uko, (4)-cn, num edge types: 1
# Building blocks:
#     Node 0, Type 0, BuildingBlock: QUQFOY_clean_sbu_1, # of connection points: 4
#     Node 1, Type 0, BuildingBlock: QUQFOY_clean_sbu_1, # of connection points: 4
#     Node 2, Type 0, BuildingBlock: QUQFOY_clean_sbu_1, # of connection points: 4
#     Node 3, Type 0, BuildingBlock: QUQFOY_clean_sbu_1, # of connection points: 4
#     Node 4, Type 0, BuildingBlock: QUQFOY_clean_sbu_1, # of connection points: 4
#     Node 5, Type 0, BuildingBlock: QUQFOY_clean_sbu_1, # of connection points: 4
#     Node 6, Type 0, BuildingBlock: QUQFOY_clean_sbu_1, # of connection points: 4
#     Node 7, Type 0, BuildingBlock: QUQFOY_clean_sbu_1, # of connection points: 4
#     Node 8, Type 0, BuildingBlock: QUQFOY_clean_sbu_1, # of connection points: 4
#     Node 9, Type 0, BuildingBlock: QUQFOY_clean_sbu_1, # of connection points: 4
#     Node 10, Type 0, BuildingBlock: QUQFOY_clean_sbu_1, # of connection points: 4
#     Node 11, Type 0, BuildingBlock: QUQFOY_clean_sbu_1, # of connection points: 4
#     Node 12, Type 0, BuildingBlock: QUQFOY_clean_sbu_1, # of connection points: 4
#     Node 13, Type 0, BuildingBlock: QUQFOY_clean_sbu_1, # of connection points: 4
#     Node 14, Type 0, BuildingBlock: QUQFOY_clean_sbu_1, # of connection points: 4
#     Node 15, Type 0, BuildingBlock: QUQFOY_clean_sbu_1, # of connection points: 4
#     Node 16, Type 0, BuildingBlock: QUQFOY_clean_sbu_1, # of connection points: 4
#     Node 17, Type 0, BuildingBlock: QUQFOY_clean_sbu_1, # of connection points: 4
#     Node 18, Type 0, BuildingBlock: QUQFOY_clean_sbu_1, # of connection points: 4
#     Node 19, Type 0, BuildingBlock: QUQFOY_clean_sbu_1, # of connection points: 4
#     Node 20, Type 0, BuildingBlock: QUQFOY_clean_sbu_1, # of connection points: 4
#     Node 21, Type 0, BuildingBlock: QUQFOY_clean_sbu_1, # of connection points: 4
#     Node 22, Type 0, BuildingBlock: QUQFOY_clean_sbu_1, # of connection points: 4
#     Node 23, Type 0, BuildingBlock: QUQFOY_clean_sbu_1, # of connection points: 4
#     Node 24, Type 0, BuildingBlock: QUQFOY_clean_sbu_1, # of connection points: 4
#     Node 25, Type 0, BuildingBlock: QUQFOY_clean_sbu_1, # of connection points: 4
#     Node 26, Type 0, BuildingBlock: QUQFOY_clean_sbu_1, # of connection points: 4
#     Node 27, Type 0, BuildingBlock: QUQFOY_clean_sbu_1, # of connection points: 4
#     Node 28, Type 0, BuildingBlock: QUQFOY_clean_sbu_1, # of connection points: 4
#     Node 29, Type 0, BuildingBlock: QUQFOY_clean_sbu_1, # of connection points: 4
#     Node 30, Type 0, BuildingBlock: QUQFOY_clean_sbu_1, # of connection points: 4
#     Node 31, Type 0, BuildingBlock: QUQFOY_clean_sbu_1, # of connection points: 4
#     Node 32, Type 0, BuildingBlock: QUQFOY_clean_sbu_1, # of connection points: 4
#     Node 33, Type 0, BuildingBlock: QUQFOY_clean_sbu_1, # of connection points: 4
#     Node 34, Type 0, BuildingBlock: QUQFOY_clean_sbu_1, # of connection points: 4
#     Node 35, Type 0, BuildingBlock: QUQFOY_clean_sbu_1, # of connection points: 4
#     Node 36, Type 0, BuildingBlock: QUQFOY_clean_sbu_1, # of connection points: 4
#     Node 37, Type 0, BuildingBlock: QUQFOY_clean_sbu_1, # of connection points: 4
#     Node 38, Type 0, BuildingBlock: QUQFOY_clean_sbu_1, # of connection points: 4
#     Node 39, Type 0, BuildingBlock: QUQFOY_clean_sbu_1, # of connection points: 4
#     Node 40, Type 0, BuildingBlock: QUQFOY_clean_sbu_1, # of connection points: 4
#     Node 41, Type 0, BuildingBlock: QUQFOY_clean_sbu_1, # of connection points: 4
#     Node 42, Type 0, BuildingBlock: QUQFOY_clean_sbu_1, # of connection points: 4
#     Node 43, Type 0, BuildingBlock: QUQFOY_clean_sbu_1, # of connection points: 4
#     Node 44, Type 0, BuildingBlock: QUQFOY_clean_sbu_1, # of connection points: 4
#     Node 45, Type 0, BuildingBlock: QUQFOY_clean_sbu_1, # of connection points: 4
#     Node 46, Type 0, BuildingBlock: QUQFOY_clean_sbu_1, # of connection points: 4
#     Node 47, Type 0, BuildingBlock: QUQFOY_clean_sbu_1, # of connection points: 4
#     Edge 48, Type (0, 0), BuildingBlock: EZIPEK_clean_linker_0, # of connection points: 2
#     Edge 49, Type (0, 0), BuildingBlock: EZIPEK_clean_linker_0, # of connection points: 2
#     Edge 50, Type (0, 0), BuildingBlock: EZIPEK_clean_linker_0, # of connection points: 2
#     Edge 51, Type (0, 0), BuildingBlock: EZIPEK_clean_linker_0, # of connection points: 2
#     Edge 52, Type (0, 0), BuildingBlock: EZIPEK_clean_linker_0, # of connection points: 2
#     Edge 53, Type (0, 0), BuildingBlock: EZIPEK_clean_linker_0, # of connection points: 2
#     Edge 54, Type (0, 0), BuildingBlock: EZIPEK_clean_linker_0, # of connection points: 2
#     Edge 55, Type (0, 0), BuildingBlock: EZIPEK_clean_linker_0, # of connection points: 2
#     Edge 56, Type (0, 0), BuildingBlock: EZIPEK_clean_linker_0, # of connection points: 2
#     Edge 57, Type (0, 0), BuildingBlock: EZIPEK_clean_linker_0, # of connection points: 2
#     Edge 58, Type (0, 0), BuildingBlock: EZIPEK_clean_linker_0, # of connection points: 2
#     Edge 59, Type (0, 0), BuildingBlock: EZIPEK_clean_linker_0, # of connection points: 2
#     Edge 60, Type (0, 0), BuildingBlock: EZIPEK_clean_linker_0, # of connection points: 2
#     Edge 61, Type (0, 0), BuildingBlock: EZIPEK_clean_linker_0, # of connection points: 2
#     Edge 62, Type (0, 0), BuildingBlock: EZIPEK_clean_linker_0, # of connection points: 2
#     Edge 63, Type (0, 0), BuildingBlock: EZIPEK_clean_linker_0, # of connection points: 2
#     Edge 64, Type (0, 0), BuildingBlock: EZIPEK_clean_linker_0, # of connection points: 2
#     Edge 65, Type (0, 0), BuildingBlock: EZIPEK_clean_linker_0, # of connection points: 2
#     Edge 66, Type (0, 0), BuildingBlock: EZIPEK_clean_linker_0, # of connection points: 2
#     Edge 67, Type (0, 0), BuildingBlock: EZIPEK_clean_linker_0, # of connection points: 2
#     Edge 68, Type (0, 0), BuildingBlock: EZIPEK_clean_linker_0, # of connection points: 2
#     Edge 69, Type (0, 0), BuildingBlock: EZIPEK_clean_linker_0, # of connection points: 2
#     Edge 70, Type (0, 0), BuildingBlock: EZIPEK_clean_linker_0, # of connection points: 2
#     Edge 71, Type (0, 0), BuildingBlock: EZIPEK_clean_linker_0, # of connection points: 2
#     Edge 72, Type (0, 0), BuildingBlock: EZIPEK_clean_linker_0, # of connection points: 2
#     Edge 73, Type (0, 0), BuildingBlock: EZIPEK_clean_linker_0, # of connection points: 2
#     Edge 74, Type (0, 0), BuildingBlock: EZIPEK_clean_linker_0, # of connection points: 2
#     Edge 75, Type (0, 0), BuildingBlock: EZIPEK_clean_linker_0, # of connection points: 2
#     Edge 76, Type (0, 0), BuildingBlock: EZIPEK_clean_linker_0, # of connection points: 2
#     Edge 77, Type (0, 0), BuildingBlock: EZIPEK_clean_linker_0, # of connection points: 2
#     Edge 78, Type (0, 0), BuildingBlock: EZIPEK_clean_linker_0, # of connection points: 2
#     Edge 79, Type (0, 0), BuildingBlock: EZIPEK_clean_linker_0, # of connection points: 2
#     Edge 80, Type (0, 0), BuildingBlock: EZIPEK_clean_linker_0, # of connection points: 2
#     Edge 81, Type (0, 0), BuildingBlock: EZIPEK_clean_linker_0, # of connection points: 2
#     Edge 82, Type (0, 0), BuildingBlock: EZIPEK_clean_linker_0, # of connection points: 2
#     Edge 83, Type (0, 0), BuildingBlock: EZIPEK_clean_linker_0, # of connection points: 2
#     Edge 84, Type (0, 0), BuildingBlock: EZIPEK_clean_linker_0, # of connection points: 2
#     Edge 85, Type (0, 0), BuildingBlock: EZIPEK_clean_linker_0, # of connection points: 2
#     Edge 86, Type (0, 0), BuildingBlock: EZIPEK_clean_linker_0, # of connection points: 2
#     Edge 87, Type (0, 0), BuildingBlock: EZIPEK_clean_linker_0, # of connection points: 2
#     Edge 88, Type (0, 0), BuildingBlock: EZIPEK_clean_linker_0, # of connection points: 2
#     Edge 89, Type (0, 0), BuildingBlock: EZIPEK_clean_linker_0, # of connection points: 2
#     Edge 90, Type (0, 0), BuildingBlock: EZIPEK_clean_linker_0, # of connection points: 2
#     Edge 91, Type (0, 0), BuildingBlock: EZIPEK_clean_linker_0, # of connection points: 2
#     Edge 92, Type (0, 0), BuildingBlock: EZIPEK_clean_linker_0, # of connection points: 2
#     Edge 93, Type (0, 0), BuildingBlock: EZIPEK_clean_linker_0, # of connection points: 2
#     Edge 94, Type (0, 0), BuildingBlock: EZIPEK_clean_linker_0, # of connection points: 2
#     Edge 95, Type (0, 0), BuildingBlock: EZIPEK_clean_linker_0, # of connection points: 2
#     Edge 96, Type (0, 0), BuildingBlock: EZIPEK_clean_linker_0, # of connection points: 2
#     Edge 97, Type (0, 0), BuildingBlock: EZIPEK_clean_linker_0, # of connection points: 2
#     Edge 98, Type (0, 0), BuildingBlock: EZIPEK_clean_linker_0, # of connection points: 2
#     Edge 99, Type (0, 0), BuildingBlock: EZIPEK_clean_linker_0, # of connection points: 2
#     Edge 100, Type (0, 0), BuildingBlock: EZIPEK_clean_linker_0, # of connection points: 2
#     Edge 101, Type (0, 0), BuildingBlock: EZIPEK_clean_linker_0, # of connection points: 2
#     Edge 102, Type (0, 0), BuildingBlock: EZIPEK_clean_linker_0, # of connection points: 2
#     Edge 103, Type (0, 0), BuildingBlock: EZIPEK_clean_linker_0, # of connection points: 2
#     Edge 104, Type (0, 0), BuildingBlock: EZIPEK_clean_linker_0, # of connection points: 2
#     Edge 105, Type (0, 0), BuildingBlock: EZIPEK_clean_linker_0, # of connection points: 2
#     Edge 106, Type (0, 0), BuildingBlock: EZIPEK_clean_linker_0, # of connection points: 2
#     Edge 107, Type (0, 0), BuildingBlock: EZIPEK_clean_linker_0, # of connection points: 2
#     Edge 108, Type (0, 0), BuildingBlock: EZIPEK_clean_linker_0, # of connection points: 2
#     Edge 109, Type (0, 0), BuildingBlock: EZIPEK_clean_linker_0, # of connection points: 2
#     Edge 110, Type (0, 0), BuildingBlock: EZIPEK_clean_linker_0, # of connection points: 2
#     Edge 111, Type (0, 0), BuildingBlock: EZIPEK_clean_linker_0, # of connection points: 2
#     Edge 112, Type (0, 0), BuildingBlock: EZIPEK_clean_linker_0, # of connection points: 2
#     Edge 113, Type (0, 0), BuildingBlock: EZIPEK_clean_linker_0, # of connection points: 2
#     Edge 114, Type (0, 0), BuildingBlock: EZIPEK_clean_linker_0, # of connection points: 2
#     Edge 115, Type (0, 0), BuildingBlock: EZIPEK_clean_linker_0, # of connection points: 2
#     Edge 116, Type (0, 0), BuildingBlock: EZIPEK_clean_linker_0, # of connection points: 2
#     Edge 117, Type (0, 0), BuildingBlock: EZIPEK_clean_linker_0, # of connection points: 2
#     Edge 118, Type (0, 0), BuildingBlock: EZIPEK_clean_linker_0, # of connection points: 2
#     Edge 119, Type (0, 0), BuildingBlock: EZIPEK_clean_linker_0, # of connection points: 2
#     Edge 120, Type (0, 0), BuildingBlock: EZIPEK_clean_linker_0, # of connection points: 2
#     Edge 121, Type (0, 0), BuildingBlock: EZIPEK_clean_linker_0, # of connection points: 2
#     Edge 122, Type (0, 0), BuildingBlock: EZIPEK_clean_linker_0, # of connection points: 2
#     Edge 123, Type (0, 0), BuildingBlock: EZIPEK_clean_linker_0, # of connection points: 2
#     Edge 124, Type (0, 0), BuildingBlock: EZIPEK_clean_linker_0, # of connection points: 2
#     Edge 125, Type (0, 0), BuildingBlock: EZIPEK_clean_linker_0, # of connection points: 2
#     Edge 126, Type (0, 0), BuildingBlock: EZIPEK_clean_linker_0, # of connection points: 2
#     Edge 127, Type (0, 0), BuildingBlock: EZIPEK_clean_linker_0, # of connection points: 2
#     Edge 128, Type (0, 0), BuildingBlock: EZIPEK_clean_linker_0, # of connection points: 2
#     Edge 129, Type (0, 0), BuildingBlock: EZIPEK_clean_linker_0, # of connection points: 2
#     Edge 130, Type (0, 0), BuildingBlock: EZIPEK_clean_linker_0, # of connection points: 2
#     Edge 131, Type (0, 0), BuildingBlock: EZIPEK_clean_linker_0, # of connection points: 2
#     Edge 132, Type (0, 0), BuildingBlock: EZIPEK_clean_linker_0, # of connection points: 2
#     Edge 133, Type (0, 0), BuildingBlock: EZIPEK_clean_linker_0, # of connection points: 2
#     Edge 134, Type (0, 0), BuildingBlock: EZIPEK_clean_linker_0, # of connection points: 2
#     Edge 135, Type (0, 0), BuildingBlock: EZIPEK_clean_linker_0, # of connection points: 2
#     Edge 136, Type (0, 0), BuildingBlock: EZIPEK_clean_linker_0, # of connection points: 2
#     Edge 137, Type (0, 0), BuildingBlock: EZIPEK_clean_linker_0, # of connection points: 2
#     Edge 138, Type (0, 0), BuildingBlock: EZIPEK_clean_linker_0, # of connection points: 2
#     Edge 139, Type (0, 0), BuildingBlock: EZIPEK_clean_linker_0, # of connection points: 2
#     Edge 140, Type (0, 0), BuildingBlock: EZIPEK_clean_linker_0, # of connection points: 2
#     Edge 141, Type (0, 0), BuildingBlock: EZIPEK_clean_linker_0, # of connection points: 2
#     Edge 142, Type (0, 0), BuildingBlock: EZIPEK_clean_linker_0, # of connection points: 2
#     Edge 143, Type (0, 0), BuildingBlock: EZIPEK_clean_linker_0, # of connection points: 2
# Relax obj value: 0.225
# Max RMSD: 0.105
# Mean RMSD: 0.105
data_MOF--net-uko--node1-QUQFOY_clean_sbu_1--edge1-EZIPEK_clean_linker_0
_symmetry_space_group_name_H-M    P1
_symmetry_Int_Tables_number       1
_symmetry_cell_setting            triclinic
loop_
_symmetry_equiv_pos_as_xyz
'x, y, z'
_cell_length_a     42.137147
_cell_length_b     42.222039
_cell_length_c     42.060997
_cell_angle_alpha  89.994612
_cell_angle_beta   89.971825
_cell_angle_gamma 89.994545
loop_
_atom_site_label
_atom_site_type_symbol
_atom_site_fract_x
_atom_site_fract_y
_atom_site_fract_z
_atom_type_partial_charge
O0 O 0.01945 0.36678 0.31673 0.0
Cd1 Cd 0.00271 0.3704 0.2707 0.0
Cd2 Cd 0.05586 0.40563 0.26407 0.0
O3 O 0.06833 0.37818 0.30226 0.0
O4 O 0.97628 0.33169 0.26528 0.0
O5 O 0.0229 0.33824 0.24163 0.0
C6 C 0.99941 0.3199 0.24895 0.0
C7 C 0.09547 0.41617 0.22751 0.0
C8 C 0.04907 0.3665 0.32221 0.0
C9 C 0.99244 0.43836 0.26054 0.0
O10 O 0.02172 0.44025 0.26732 0.0
O11 O 0.97922 0.41153 0.2567 0.0
O12 O 0.09496 0.42993 0.25482 0.0
O13 O 0.07356 0.39582 0.22085 0.0
O14 O 0.97489 0.13063 0.29985 0.0
Cd15 Cd 0.99904 0.13045 0.25738 0.0
Cd16 Cd 0.94668 0.09643 0.24133 0.0
O17 O 0.92932 0.1275 0.2747 0.0
O18 O 0.02705 0.16828 0.26049 0.0
O19 O 0.98511 0.16602 0.22869 0.0
C20 C 0.00719 0.18264 0.24204 0.0
C21 C 0.91027 0.07795 0.20391 0.0
C22 C 0.94514 0.13505 0.29916 0.0
C23 C 0.0096 0.06337 0.25054 0.0
O24 O 0.97963 0.0625 0.25359 0.0
O25 O 0.0239 0.08957 0.24632 0.0
O26 O 0.90839 0.07037 0.23347 0.0
O27 O 0.93279 0.09685 0.19536 0.0
O28 O 0.02992 0.63754 0.19359 0.0
Cd29 Cd 0.01207 0.63116 0.23904 0.0
Cd30 Cd 0.06057 0.59033 0.24103 0.0
O31 O 0.07602 0.61458 0.202 0.0
O32 O 0.99023 0.67229 0.24723 0.0
O33 O 0.03472 0.65787 0.27143 0.0
C34 C 0.0143 0.67977 0.26468 0.0
C35 C 0.09732 0.57614 0.27964 0.0
C36 C 0.05829 0.63188 0.18502 0.0
C37 C 0.99536 0.56318 0.24397 0.0
O38 O 0.02415 0.55888 0.23631 0.0
O39 O 0.98491 0.59094 0.24973 0.0
O40 O 0.09773 0.56378 0.25165 0.0
O41 O 0.0762 0.59751 0.28558 0.0
O42 O 0.00365 0.8655 0.19084 0.0
Cd43 Cd 0.01778 0.86692 0.23808 0.0
Cd44 Cd 0.96113 0.89176 0.24508 0.0
O45 O 0.95434 0.8619 0.20719 0.0
O46 O 0.0483 0.83179 0.24692 0.0
O47 O 0.9982 0.83084 0.26241 0.0
C48 C 0.02479 0.81598 0.25861 0.0
C49 C 0.91818 0.90057 0.27836 0.0
C50 C 0.9749 0.85809 0.18549 0.0
C51 C 0.01779 0.93423 0.24941 0.0
O52 O 0.98917 0.93142 0.24058 0.0
O53 O 0.03435 0.90983 0.25541 0.0
O54 O 0.91879 0.91161 0.24988 0.0
O55 O 0.9416 0.8833 0.28792 0.0
O56 O 0.3028 0.01645 0.35896 0.0
Cd57 Cd 0.25759 0.99816 0.36196 0.0
Cd58 Cd 0.24884 0.05032 0.39302 0.0
O59 O 0.28236 0.06409 0.35984 0.0
O60 O 0.2483 0.97767 0.32014 0.0
O61 O 0.22562 0.02231 0.3364 0.0
C62 C 0.23096 0.00217 0.31382 0.0
C63 C 0.21114 0.08664 0.41045 0.0
C64 C 0.30512 0.04574 0.35268 0.0
C65 C 0.25287 0.98911 0.42919 0.0
O66 O 0.25981 0.01839 0.42855 0.0
O67 O 0.24601 0.97462 0.40358 0.0
O68 O 0.24076 0.08968 0.41733 0.0
O69 O 0.2029 0.06361 0.39201 0.0
O70 O 0.69284 0.48417 0.36658 0.0
Cd71 Cd 0.73547 0.50776 0.37259 0.0
Cd72 Cd 0.74853 0.45583 0.40793 0.0
O73 O 0.70784 0.43872 0.38756 0.0
O74 O 0.74101 0.53162 0.33159 0.0
O75 O 0.77042 0.4903 0.34511 0.0
C76 C 0.76166 0.51041 0.32362 0.0
C77 C 0.79068 0.42103 0.41124 0.0
C78 C 0.68788 0.45498 0.37204 0.0
C79 C 0.74556 0.51848 0.44213 0.0
O80 O 0.74573 0.48849 0.4436 0.0
O81 O 0.74387 0.53264 0.41534 0.0
O82 O 0.76643 0.4184 0.42966 0.0
O83 O 0.79131 0.4437 0.39066 0.0
O84 O 0.2992 0.99773 0.13779 0.0
Cd85 Cd 0.25328 0.01365 0.13253 0.0
Cd86 Cd 0.24472 0.95831 0.10772 0.0
O87 O 0.28136 0.94898 0.13901 0.0
O88 O 0.24205 0.0398 0.17036 0.0
O89 O 0.22217 0.99238 0.16171 0.0
C90 C 0.2245 0.01666 0.18027 0.0
C91 C 0.20743 0.91886 0.0991 0.0
C92 C 0.30324 0.9688 0.14489 0.0
C93 C 0.24578 0.01541 0.06461 0.0
O94 O 0.25166 0.98609 0.06785 0.0
O95 O 0.24105 0.03269 0.08889 0.0
O96 O 0.23592 0.91652 0.08832 0.0
O97 O 0.20011 0.94323 0.11613 0.0
O98 O 0.69481 0.52597 0.14794 0.0
Cd99 Cd 0.73945 0.50768 0.14025 0.0
Cd100 Cd 0.74574 0.56058 0.10583 0.0
O101 O 0.71174 0.57432 0.13811 0.0
O102 O 0.74879 0.48098 0.17839 0.0
O103 O 0.77225 0.52666 0.16957 0.0
C104 C 0.76772 0.50291 0.18843 0.0
C105 C 0.78234 0.59827 0.08891 0.0
C106 C 0.69116 0.55574 0.14974 0.0
C107 C 0.74225 0.49913 0.07071 0.0
O108 O 0.73563 0.52846 0.07048 0.0
O109 O 0.74867 0.4852 0.09682 0.0
O110 O 0.7527 0.60034 0.08182 0.0
O111 O 0.7912 0.57517 0.10698 0.0
O112 O 0.37369 0.31286 0.00412 0.0
Cd113 Cd 0.37456 0.26574 0.99011 0.0
Cd114 Cd 0.40421 0.26062 0.04311 0.0
O115 O 0.37252 0.29628 0.05332 0.0
O116 O 0.33348 0.25675 0.96768 0.0
O117 O 0.34478 0.23821 0.01568 0.0
C118 C 0.3243 0.24218 0.99312 0.0
C119 C 0.41796 0.22447 0.08239 0.0
C120 C 0.36706 0.31792 0.0331 0.0
C121 C 0.44225 0.25757 0.98378 0.0
O122 O 0.44115 0.26819 0.01199 0.0
O123 O 0.41673 0.24955 0.96968 0.0
O124 O 0.42615 0.2538 0.08415 0.0
O125 O 0.40039 0.21579 0.05878 0.0
O126 O 0.37163 0.68908 0.48174 0.0
Cd127 Cd 0.37109 0.73346 0.5021 0.0
Cd128 Cd 0.40732 0.74684 0.45039 0.0
O129 O 0.38205 0.70856 0.43437 0.0
O130 O 0.33145 0.73332 0.52782 0.0
O131 O 0.33689 0.76118 0.48342 0.0
C132 C 0.31869 0.75023 0.50563 0.0
C133 C 0.41889 0.78465 0.41235 0.0
C134 C 0.37178 0.68628 0.45172 0.0
C135 C 0.43783 0.74601 0.51542 0.0
O136 O 0.44075 0.74254 0.4856 0.0
O137 O 0.41053 0.74732 0.52829 0.0
O138 O 0.4335 0.7579 0.41297 0.0
O139 O 0.39733 0.7902 0.43347 0.0
O140 O 0.63628 0.80449 0.50027 0.0
Cd141 Cd 0.63348 0.75864 0.51785 0.0
Cd142 Cd 0.60437 0.75063 0.46484 0.0
O143 O 0.63815 0.78355 0.45267 0.0
O144 O 0.67055 0.74945 0.54596 0.0
O145 O 0.66671 0.73171 0.49672 0.0
C146 C 0.68392 0.736 0.52184 0.0
C147 C 0.58742 0.71423 0.42716 0.0
C148 C 0.64364 0.80673 0.47103 0.0
C149 C 0.56576 0.75301 0.52312 0.0
O150 O 0.56771 0.76277 0.49469 0.0
O151 O 0.59065 0.74407 0.53762 0.0
O152 O 0.58151 0.744 0.42435 0.0
O153 O 0.60462 0.70503 0.45083 0.0
O154 O 0.13478 0.67986 0.52148 0.0
Cd155 Cd 0.1309 0.72285 0.49859 0.0
Cd156 Cd 0.09631 0.73737 0.55019 0.0
O157 O 0.12485 0.70196 0.56775 0.0
O158 O 0.16994 0.72515 0.47209 0.0
O159 O 0.16265 0.75434 0.51537 0.0
C160 C 0.18146 0.74401 0.49336 0.0
C161 C 0.0849 0.77798 0.58539 0.0
C162 C 0.13614 0.67925 0.5516 0.0
C163 C 0.06292 0.72998 0.48713 0.0
O164 O 0.0614 0.72827 0.51722 0.0
O165 O 0.0896 0.73218 0.47313 0.0
O166 O 0.07192 0.75053 0.58814 0.0
O167 O 0.10477 0.7827 0.5625 0.0
O168 O 0.98422 0.62577 0.6898 0.0
Cd169 Cd 0.00206 0.62448 0.73543 0.0
Cd170 Cd 0.94882 0.59016 0.74534 0.0
O171 O 0.93569 0.61673 0.70685 0.0
O172 O 0.02776 0.66388 0.73892 0.0
O173 O 0.98154 0.65727 0.7634 0.0
C174 C 0.00441 0.67586 0.75483 0.0
C175 C 0.90874 0.57918 0.78121 0.0
C176 C 0.95442 0.62681 0.68557 0.0
C177 C 0.01248 0.55733 0.7473 0.0
O178 O 0.9829 0.55561 0.74197 0.0
O179 O 0.02616 0.58405 0.75 0.0
O180 O 0.91 0.5653 0.75401 0.0
O181 O 0.93031 0.59974 0.78828 0.0
O182 O 0.01141 0.86136 0.68804 0.0
Cd183 Cd 0.99166 0.86348 0.73288 0.0
Cd184 Cd 0.04437 0.89621 0.74547 0.0
O185 O 0.05921 0.87001 0.70715 0.0
O186 O 0.96581 0.82417 0.73625 0.0
O187 O 0.01112 0.83129 0.76223 0.0
C188 C 0.98856 0.81253 0.75324 0.0
C189 C 0.08179 0.90529 0.78464 0.0
C190 C 0.04136 0.86003 0.68507 0.0
C191 C 0.98185 0.93085 0.74405 0.0
O192 O 0.01172 0.93192 0.74042 0.0
O193 O 0.96747 0.90442 0.74582 0.0
O194 O 0.08317 0.9195 0.75762 0.0
O195 O 0.05919 0.88524 0.78962 0.0
O196 O 0.97629 0.36346 0.81505 0.0
Cd197 Cd 0.99659 0.36464 0.77044 0.0
Cd198 Cd 0.94523 0.39929 0.75701 0.0
O199 O 0.929 0.37566 0.7965 0.0
O200 O 0.02178 0.32493 0.76821 0.0
O201 O 0.9774 0.3325 0.74081 0.0
C202 C 0.99952 0.31355 0.75046 0.0
C203 C 0.90885 0.40708 0.71657 0.0
C204 C 0.9464 0.36472 0.8185 0.0
C205 C 0.00936 0.43137 0.75815 0.0
O206 O 0.97945 0.43378 0.76082 0.0
O207 O 0.02267 0.40435 0.75761 0.0
O208 O 0.90762 0.42332 0.74241 0.0
O209 O 0.9308 0.38596 0.71342 0.0
O210 O 0.01509 0.12562 0.8084 0.0
Cd211 Cd 0.99283 0.125 0.76486 0.0
Cd212 Cd 0.0454 0.09365 0.747 0.0
O213 O 0.06161 0.11866 0.78572 0.0
O214 O 0.96607 0.16372 0.76497 0.0
O215 O 0.00984 0.15887 0.73591 0.0
C216 C 0.98753 0.17666 0.74725 0.0
C217 C 0.08241 0.08644 0.70687 0.0
C218 C 0.04512 0.12733 0.80939 0.0
C219 C 0.98291 0.05823 0.75097 0.0
O220 O 0.01302 0.05741 0.75175 0.0
O221 O 0.96814 0.08447 0.75212 0.0
O222 O 0.08413 0.07104 0.7332 0.0
O223 O 0.05948 0.10634 0.70297 0.0
O224 O 0.70205 0.98002 0.63566 0.0
Cd225 Cd 0.74685 0.99757 0.62724 0.0
Cd226 Cd 0.75304 0.94336 0.59567 0.0
O227 O 0.71992 0.93146 0.62953 0.0
O228 O 0.75705 0.02406 0.66527 0.0
O229 O 0.77944 0.97786 0.65609 0.0
C230 C 0.7751 0.00137 0.67529 0.0
C231 C 0.78873 0.90442 0.57986 0.0
C232 C 0.69904 0.95043 0.63992 0.0
C233 C 0.74987 0.00299 0.55766 0.0
O234 O 0.74263 0.97384 0.55897 0.0
O235 O 0.7567 0.01808 0.583 0.0
O236 O 0.75893 0.90245 0.57349 0.0
O237 O 0.79833 0.92824 0.59654 0.0
O238 O 0.31604 0.51479 0.64797 0.0
Cd239 Cd 0.27071 0.49764 0.64074 0.0
Cd240 Cd 0.26342 0.55182 0.61314 0.0
O241 O 0.29846 0.56362 0.64544 0.0
O242 O 0.25997 0.46997 0.67785 0.0
O243 O 0.23816 0.51666 0.67025 0.0
C244 C 0.24119 0.49194 0.68813 0.0
C245 C 0.22282 0.58745 0.60307 0.0
C246 C 0.31984 0.54409 0.65366 0.0
C247 C 0.26672 0.49437 0.57166 0.0
O248 O 0.27327 0.5236 0.57423 0.0
O249 O 0.2603 0.47814 0.59635 0.0
O250 O 0.25122 0.59233 0.59285 0.0
O251 O 0.21753 0.56284 0.62053 0.0
O252 O 0.69314 0.02751 0.84893 0.0
Cd253 Cd 0.73527 0.00386 0.85727 0.0
Cd254 Cd 0.74406 0.05526 0.89675 0.0
O255 O 0.70869 0.07333 0.86864 0.0
O256 O 0.74221 0.97935 0.81704 0.0
O257 O 0.77212 0.02003 0.83134 0.0
C258 C 0.76392 -0.00026 0.8098 0.0
C259 C 0.78116 0.09153 0.91568 0.0
C260 C 0.68917 0.05712 0.85253 0.0
C261 C 0.73653 0.99053 0.92666 0.0
O262 O 0.7343 0.02039 0.92928 0.0
O263 O 0.74016 0.97766 0.89945 0.0
O264 O 0.752 0.09212 0.92469 0.0
O265 O 0.78943 0.07046 0.89504 0.0
O266 O 0.3079 0.47912 0.86797 0.0
Cd267 Cd 0.26407 0.50025 0.87276 0.0
Cd268 Cd 0.2542 0.44844 0.91108 0.0
O269 O 0.29578 0.4337 0.89083 0.0
O270 O 0.25873 0.52316 0.8314 0.0
O271 O 0.23091 0.48059 0.84468 0.0
C272 C 0.2395 0.50078 0.82316 0.0
C273 C 0.21684 0.40918 0.91925 0.0
C274 C 0.31461 0.45054 0.87456 0.0
C275 C 0.25344 0.51344 0.94149 0.0
O276 O 0.2548 0.48358 0.94441 0.0
O277 O 0.25437 0.52646 0.91412 0.0
O278 O 0.24201 0.41097 0.93644 0.0
O279 O 0.21255 0.42985 0.89704 0.0
O280 O 0.63776 0.69692 0.00313 0.0
Cd281 Cd 0.63636 0.74377 0.01801 0.0
Cd282 Cd 0.60913 0.75007 0.96403 0.0
O283 O 0.64175 0.71522 0.95457 0.0
O284 O 0.6734 0.75357 0.04598 0.0
O285 O 0.67047 0.76858 0.99573 0.0
C286 C 0.68728 0.7654 0.02127 0.0
C287 C 0.59516 0.78561 0.92429 0.0
C288 C 0.64558 0.69277 0.97423 0.0
C289 C 0.56877 0.75205 0.021 0.0
O290 O 0.57106 0.74079 0.99315 0.0
O291 O 0.59358 0.76085 0.03571 0.0
O292 O 0.58853 0.75592 0.92218 0.0
O293 O 0.61152 0.79504 0.94846 0.0
O294 O 0.62371 0.31267 0.49736 0.0
Cd295 Cd 0.62135 0.26676 0.47979 0.0
Cd296 Cd 0.59582 0.25773 0.53451 0.0
O297 O 0.62953 0.2916 0.54454 0.0
O298 O 0.65708 0.25885 0.4495 0.0
O299 O 0.6566 0.24076 0.49876 0.0
C300 C 0.67224 0.2458 0.47275 0.0
C301 C 0.58232 0.22044 0.57288 0.0
C302 C 0.63309 0.31504 0.52599 0.0
C303 C 0.55363 0.25947 0.47849 0.0
O304 O 0.55702 0.26889 0.50692 0.0
O305 O 0.57782 0.25128 0.46242 0.0
O306 O 0.57586 0.25003 0.57642 0.0
O307 O 0.59824 0.21199 0.54804 0.0
O308 O 0.35798 0.19759 0.53126 0.0
Cd309 Cd 0.35952 0.24184 0.51034 0.0
Cd310 Cd 0.3996 0.25186 0.55835 0.0
O311 O 0.38159 0.21046 0.57617 0.0
O312 O 0.31742 0.24482 0.4888 0.0
O313 O 0.33016 0.27304 0.53139 0.0
C314 C 0.30875 0.26338 0.5116 0.0
C315 C 0.40548 0.29424 0.59249 0.0
C316 C 0.36564 0.19101 0.55972 0.0
C317 C 0.42636 0.25242 0.49216 0.0
O318 O 0.43134 0.24978 0.52176 0.0
O319 O 0.3982 0.25296 0.48115 0.0
O320 O 0.42442 0.27033 0.59363 0.0
O321 O 0.38273 0.29421 0.57194 0.0
O322 O 0.85589 0.30504 0.47089 0.0
Cd323 Cd 0.85863 0.25987 0.48959 0.0
Cd324 Cd 0.89776 0.25229 0.43988 0.0
O325 O 0.88007 0.29497 0.42555 0.0
O326 O 0.81657 0.25445 0.51082 0.0
O327 O 0.83037 0.22897 0.46681 0.0
C328 C 0.80855 0.23704 0.48689 0.0
C329 C 0.90377 0.21404 0.40119 0.0
C330 C 0.86378 0.31328 0.44292 0.0
C331 C 0.926 0.24812 0.5055 0.0
O332 O 0.93021 0.25133 0.47583 0.0
O333 O 0.89815 0.24801 0.51736 0.0
O334 O 0.92236 0.23818 0.40254 0.0
O335 O 0.88124 0.21145 0.42183 0.0
O336 O 0.52038 0.86593 0.81269 0.0
Cd337 Cd 0.50797 0.86691 0.76511 0.0
Cd338 Cd 0.5612 0.89711 0.76112 0.0
O339 O 0.57054 0.86795 0.79911 0.0
O340 O 0.48712 0.82532 0.75594 0.0
O341 O 0.53501 0.8383 0.73825 0.0
C342 C 0.51343 0.81694 0.74251 0.0
C343 C 0.60076 0.90691 0.72438 0.0
C344 C 0.54933 0.86093 0.81933 0.0
C345 C 0.50102 0.93403 0.75483 0.0
O346 O 0.52936 0.9338 0.76503 0.0
O347 O 0.48702 0.90816 0.74816 0.0
O348 O 0.60168 0.91925 0.75237 0.0
O349 O 0.57787 0.88779 0.71745 0.0
O350 O 0.51062 0.62975 0.81419 0.0
Cd351 Cd 0.52325 0.62915 0.76658 0.0
Cd352 Cd 0.46846 0.60276 0.76182 0.0
O353 O 0.4617 0.63494 0.79813 0.0
O354 O 0.55078 0.66649 0.75771 0.0
O355 O 0.50056 0.66345 0.74234 0.0
C356 C 0.52594 0.6803 0.74612 0.0
C357 C 0.42598 0.59001 0.72859 0.0
C358 C 0.4823 0.63814 0.81993 0.0
C359 C 0.5261 0.5621 0.75721 0.0
O360 O 0.49813 0.56433 0.76823 0.0
O361 O 0.54108 0.58689 0.74894 0.0
O362 O 0.426 0.58261 0.75828 0.0
O363 O 0.44959 0.60636 0.7179 0.0
O364 O 0.50803 0.13662 0.68271 0.0
Cd365 Cd 0.49483 0.13244 0.73009 0.0
Cd366 Cd 0.55046 0.10865 0.73524 0.0
O367 O 0.5578 0.13918 0.69793 0.0
O368 O 0.4645 0.16692 0.74177 0.0
O369 O 0.51512 0.16736 0.75536 0.0
C370 C 0.48838 0.18228 0.75327 0.0
C371 C 0.58855 0.10337 0.77428 0.0
C372 C 0.53671 0.14417 0.67699 0.0
C373 C 0.49651 0.0643 0.73922 0.0
O374 O 0.52454 0.06788 0.72884 0.0
O375 O 0.47994 0.08839 0.74652 0.0
O376 O 0.59305 0.09234 0.7461 0.0
O377 O 0.56283 0.11896 0.78017 0.0
O378 O 0.47615 0.36446 0.69897 0.0
Cd379 Cd 0.49968 0.36788 0.74191 0.0
Cd380 Cd 0.45143 0.4074 0.7539 0.0
O381 O 0.43223 0.38889 0.71333 0.0
O382 O 0.52181 0.32623 0.74477 0.0
O383 O 0.48096 0.33943 0.77532 0.0
C384 C 0.50012 0.31789 0.7648 0.0
C385 C 0.41797 0.41309 0.7969 0.0
C386 C 0.44747 0.37207 0.69362 0.0
C387 C 0.51711 0.4351 0.75077 0.0
O388 O 0.48736 0.4395 0.75029 0.0
O389 O 0.5287 0.40722 0.75034 0.0
O390 O 0.4164 0.43199 0.77294 0.0
O391 O 0.43885 0.3907 0.79675 0.0
O392 O 0.79782 0.51164 0.86282 0.0
Cd393 Cd 0.75179 0.4969 0.87081 0.0
Cd394 Cd 0.74982 0.55048 0.9023 0.0
O395 O 0.78372 0.56143 0.86914 0.0
O396 O 0.7401 0.46999 0.83344 0.0
O397 O 0.72084 0.51781 0.84078 0.0
C398 C 0.72317 0.49317 0.82267 0.0
C399 C 0.71454 0.589 0.9192 0.0
C400 C 0.80331 0.54096 0.85912 0.0
C401 C 0.74938 0.49186 0.94045 0.0
O402 O 0.75994 0.51989 0.93867 0.0
O403 O 0.74008 0.47765 0.91538 0.0
O404 O 0.74434 0.59064 0.92572 0.0
O405 O 0.70477 0.56614 0.9013 0.0
O406 O 0.1859 0.97875 0.8649 0.0
Cd407 Cd 0.23012 0.99949 0.86677 0.0
Cd408 Cd 0.24449 0.94703 0.89867 0.0
O409 O 0.20609 0.9314 0.87312 0.0
O410 O 0.23219 0.02602 0.82772 0.0
O411 O 0.25959 0.9815 0.83371 0.0
C412 C 0.2497 0.00407 0.81541 0.0
C413 C 0.28511 0.91095 0.90605 0.0
C414 C 0.1835 0.94883 0.86366 0.0
C415 C 0.24154 0.00878 0.93448 0.0
O416 O 0.23906 0.97885 0.93521 0.0
O417 O 0.24247 0.02351 0.90811 0.0
O418 O 0.2586 0.90839 0.92104 0.0
O419 O 0.28871 0.934 0.88618 0.0
O420 O 0.79943 0.47788 0.64488 0.0
Cd421 Cd 0.75617 0.50018 0.63863 0.0
Cd422 Cd 0.74836 0.44939 0.59842 0.0
O423 O 0.78555 0.43183 0.62447 0.0
O424 O 0.75009 0.52327 0.67995 0.0
O425 O 0.72122 0.48183 0.66567 0.0
C426 C 0.72962 0.50175 0.68751 0.0
C427 C 0.71002 0.41383 0.58062 0.0
C428 C 0.80473 0.44858 0.64046 0.0
C429 C 0.75236 0.51459 0.56943 0.0
O430 O 0.75622 0.48497 0.56627 0.0
O431 O 0.74846 0.52681 0.59693 0.0
O432 O 0.7387 0.41316 0.57014 0.0
O433 O 0.7031 0.43427 0.60237 0.0
O434 O 0.18918 0.01828 0.62677 0.0
Cd435 Cd 0.23357 0.99786 0.62588 0.0
Cd436 Cd 0.24891 0.05053 0.59596 0.0
O437 O 0.20909 0.06593 0.61959 0.0
O438 O 0.23486 0.97101 0.66477 0.0
O439 O 0.2619 0.01588 0.65985 0.0
C440 C 0.25176 0.99308 0.67771 0.0
C441 C 0.29132 0.0851 0.59354 0.0
C442 C 0.18638 0.04817 0.62819 0.0
C443 C 0.24757 0.9899 0.55842 0.0
O444 O 0.24523 0.01985 0.55826 0.0
O445 O 0.24735 0.97461 0.58449 0.0
O446 O 0.26642 0.08929 0.57635 0.0
O447 O 0.29236 0.06115 0.61261 0.0
O448 O 0.86753 0.79329 0.5037 0.0
Cd449 Cd 0.86817 0.74605 0.4909 0.0
Cd450 Cd 0.90014 0.74151 0.54331 0.0
O451 O 0.87126 0.77935 0.55375 0.0
O452 O 0.82475 0.73657 0.47397 0.0
O453 O 0.84238 0.71921 0.52047 0.0
C454 C 0.81886 0.72373 0.50129 0.0
C455 C 0.91078 0.70506 0.58281 0.0
C456 C 0.86341 0.7996 0.53293 0.0
C457 C 0.93518 0.73596 0.48169 0.0
O458 O 0.93578 0.74551 0.51029 0.0
O459 O 0.90888 0.72943 0.46828 0.0
O460 O 0.9232 0.73292 0.58335 0.0
O461 O 0.89139 0.69791 0.56018 0.0
O462 O 0.86326 0.195 0.99858 0.0
Cd463 Cd 0.86841 0.23967 0.01749 0.0
Cd464 Cd 0.89216 0.2519 0.96164 0.0
O465 O 0.86073 0.21599 0.95096 0.0
O466 O 0.83128 0.24801 0.04586 0.0
O467 O 0.83773 0.27159 0.99965 0.0
C468 C 0.82015 0.26697 0.02443 0.0
C469 C 0.9007 0.28982 0.92258 0.0
C470 C 0.85558 0.19284 0.9695 0.0
C471 C 0.93646 0.24655 0.01778 0.0
O472 O 0.93243 0.24291 0.98811 0.0
O473 O 0.91275 0.25058 0.03606 0.0
O474 O 0.91109 0.26133 0.91962 0.0
O475 O 0.88433 0.29694 0.94753 0.0
O476 O 0.13672 0.29853 0.98474 0.0
Cd477 Cd 0.13495 0.25266 1.00128 0.0
Cd478 Cd 0.10359 0.24385 0.94803 0.0
O479 O 0.13206 0.28137 0.93559 0.0
O480 O 0.17313 0.24834 0.02882 0.0
O481 O 0.1696 0.22665 0.98096 0.0
C482 C 0.18694 0.23463 0.00506 0.0
C483 C 0.09345 0.20569 0.90981 0.0
C484 C 0.13997 0.30288 0.95507 0.0
C485 C 0.06702 0.24396 0.00913 0.0
O486 O 0.06698 0.25036 0.97966 0.0
O487 O 0.09302 0.23868 0.0236 0.0
O488 O 0.0809 0.23344 0.90825 0.0
O489 O 0.11276 0.19954 0.93284 0.0
O490 O 0.64139 0.1916 0.03039 0.0
Cd491 Cd 0.63699 0.23634 0.01105 0.0
Cd492 Cd 0.59571 0.24234 0.06083 0.0
O493 O 0.61736 0.2016 0.07592 0.0
O494 O 0.67904 0.24364 0.99002 0.0
O495 O 0.66342 0.26917 0.03335 0.0
C496 C 0.6858 0.26225 0.01343 0.0
C497 C 0.58361 0.27987 0.09907 0.0
C498 C 0.63422 0.18367 0.05864 0.0
C499 C 0.56909 0.2447 0.99422 0.0
O500 O 0.56447 0.24056 0.02372 0.0
O501 O 0.59714 0.24675 0.983 0.0
O502 O 0.56794 0.2538 0.09703 0.0
O503 O 0.60681 0.28471 0.07959 0.0
O504 O 0.49123 0.14122 0.19297 0.0
Cd505 Cd 0.50316 0.13908 0.24063 0.0
Cd506 Cd 0.45018 0.10908 0.24319 0.0
O507 O 0.44127 0.14075 0.20707 0.0
O508 O 0.52431 0.17996 0.25149 0.0
O509 O 0.47611 0.16688 0.26838 0.0
C510 C 0.49816 0.188 0.26542 0.0
C511 C 0.40915 0.09479 0.27725 0.0
C512 C 0.46244 0.1473 0.18664 0.0
C513 C 0.5107 0.07224 0.24751 0.0
O514 O 0.48248 0.07294 0.23696 0.0
O515 O 0.5244 0.09769 0.25604 0.0
O516 O 0.40929 0.08638 0.24782 0.0
O517 O 0.43188 0.11274 0.28724 0.0
O518 O 0.51158 0.36879 0.20135 0.0
Cd519 Cd 0.49423 0.37441 0.24685 0.0
Cd520 Cd 0.54825 0.40281 0.25606 0.0
O521 O 0.56015 0.37185 0.22022 0.0
O522 O 0.46478 0.33845 0.25361 0.0
O523 O 0.51269 0.34108 0.27537 0.0
C524 C 0.48785 0.32451 0.26827 0.0
C525 C 0.58466 0.4108 0.2964 0.0
C526 C 0.54111 0.36366 0.19837 0.0
C527 C 0.48955 0.44247 0.25319 0.0
O528 O 0.51906 0.44093 0.2473 0.0
O529 O 0.47379 0.41742 0.25879 0.0
O530 O 0.589 0.42252 0.26848 0.0
O531 O 0.55976 0.39373 0.30159 0.0
O532 O 0.48671 0.87212 0.30634 0.0
Cd533 Cd 0.5027 0.87574 0.26017 0.0
Cd534 Cd 0.44873 0.90724 0.25417 0.0
O535 O 0.43768 0.87466 0.28874 0.0
O536 O 0.53135 0.83888 0.25437 0.0
O537 O 0.48319 0.84169 0.23319 0.0
C538 C 0.50785 0.82491 0.24048 0.0
C539 C 0.40916 0.92236 0.21875 0.0
C540 C 0.45732 0.86673 0.31013 0.0
C541 C 0.50958 0.94342 0.25398 0.0
O542 O 0.4808 0.94292 0.2629 0.0
O543 O 0.52359 0.91792 0.24615 0.0
O544 O 0.40831 0.93048 0.24825 0.0
O545 O 0.43225 0.90455 0.20933 0.0
O546 O 0.50646 0.63819 0.3166 0.0
Cd547 Cd 0.49328 0.63835 0.26917 0.0
Cd548 Cd 0.54735 0.61003 0.26299 0.0
O549 O 0.55629 0.63811 0.30188 0.0
O550 O 0.47122 0.67933 0.26049 0.0
O551 O 0.51919 0.66773 0.24193 0.0
C552 C 0.49674 0.68824 0.24593 0.0
C553 C 0.58846 0.60054 0.22775 0.0
C554 C 0.53542 0.6434 0.32296 0.0
C555 C 0.48726 0.57188 0.25778 0.0
O556 O 0.51616 0.57265 0.26621 0.0
O557 O 0.47221 0.5974 0.25233 0.0
O558 O 0.58822 0.58804 0.25565 0.0
O559 O 0.56577 0.61957 0.21995 0.0
O560 O 0.20221 0.48761 0.14589 0.0
Cd561 Cd 0.24719 0.50493 0.13801 0.0
Cd562 Cd 0.25176 0.45337 0.10317 0.0
O563 O 0.21802 0.43901 0.13552 0.0
O564 O 0.25799 0.52957 0.17706 0.0
O565 O 0.28014 0.48387 0.16562 0.0
C566 C 0.27651 0.50672 0.18574 0.0
C567 C 0.28967 0.41741 0.08561 0.0
C568 C 0.1979 0.45792 0.14747 0.0
C569 C 0.24835 0.51524 0.0691 0.0
O570 O 0.24085 0.48613 0.06871 0.0
O571 O 0.2562 0.5285 0.09515 0.0
O572 O 0.26021 0.41466 0.07796 0.0
O573 O 0.29761 0.44008 0.10463 0.0
O574 O 0.8025 0.99797 0.12415 0.0
Cd575 Cd 0.7566 0.98104 0.12353 0.0
Cd576 Cd 0.74495 0.03669 0.09838 0.0
O577 O 0.7842 0.04658 0.12591 0.0
O578 O 0.74979 0.95809 0.16491 0.0
O579 O 0.72785 0.00441 0.15352 0.0
C580 C 0.73406 0.9827 0.17431 0.0
C581 C 0.7064 0.07546 0.09441 0.0
C582 C 0.8066 0.02704 0.13061 0.0
C583 C 0.74276 0.97918 0.05585 0.0
O584 O 0.74815 0.00865 0.05839 0.0
O585 O 0.74067 0.96187 0.0806 0.0
O586 O 0.73331 0.07835 0.08024 0.0
O587 O 0.70128 0.05072 0.11168 0.0
O588 O 0.2037 0.50503 0.36925 0.0
Cd589 Cd 0.2503 0.49005 0.37131 0.0
Cd590 Cd 0.25745 0.54531 0.39678 0.0
O591 O 0.2209 0.55378 0.36547 0.0
O592 O 0.25914 0.46765 0.33 0.0
O593 O 0.279 0.51465 0.34222 0.0
C594 C 0.27408 0.49294 0.3211 0.0
C595 C 0.29472 0.58457 0.40504 0.0
C596 C 0.19921 0.53351 0.36075 0.0
C597 C 0.25967 0.48871 0.4394 0.0
O598 O 0.2511 0.51735 0.43635 0.0
O599 O 0.26594 0.47206 0.4149 0.0
O600 O 0.26627 0.58711 0.41591 0.0
O601 O 0.30195 0.56013 0.38808 0.0
O602 O 0.80594 0.97399 0.35139 0.0
Cd603 Cd 0.76072 0.99157 0.35832 0.0
Cd604 Cd 0.75587 0.93991 0.39295 0.0
O605 O 0.79023 0.92532 0.36163 0.0
O606 O 0.75077 0.01691 0.31941 0.0
O607 O 0.72834 0.97108 0.32961 0.0
C608 C 0.73226 0.99434 0.31003 0.0
C609 C 0.71869 0.90385 0.41139 0.0
C610 C 0.81053 0.94429 0.35014 0.0
C611 C 0.75779 0.00103 0.42749 0.0
O612 O 0.76641 0.97227 0.42771 0.0
O613 O 0.75 0.01427 0.4014 0.0
O614 O 0.74827 0.90147 0.41859 0.0
O615 O 0.71021 0.92597 0.39195 0.0
O616 O 0.12576 0.18617 0.49606 0.0
Cd617 Cd 0.12202 0.23152 0.51459 0.0
Cd618 Cd 0.09655 0.24301 0.45937 0.0
O619 O 0.12724 0.20677 0.44815 0.0
O620 O 0.15708 0.23887 0.54575 0.0
O621 O 0.15726 0.25854 0.49713 0.0
C622 C 0.17249 0.25286 0.52323 0.0
C623 C 0.08908 0.28277 0.42216 0.0
C624 C 0.13286 0.18379 0.46675 0.0
C625 C 0.05379 0.2407 0.51578 0.0
O626 O 0.05669 0.23457 0.48641 0.0
O627 O 0.07826 0.24562 0.53273 0.0
O628 O 0.07784 0.25476 0.41788 0.0
O629 O 0.10574 0.28827 0.44732 0.0
O630 O 0.13306 0.81472 0.02015 0.0
Cd631 Cd 0.13201 0.7712 0.99788 0.0
Cd632 Cd 0.09783 0.75565 0.04858 0.0
O633 O 0.12146 0.79409 0.06679 0.0
O634 O 0.17167 0.77056 0.97217 0.0
O635 O 0.16494 0.74136 0.01552 0.0
C636 C 0.1836 0.75219 0.99365 0.0
C637 C 0.09209 0.71258 0.08193 0.0
C638 C 0.13216 0.8168 0.05023 0.0
C639 C 0.06471 0.75955 0.98536 0.0
O640 O 0.06257 0.76125 0.0154 0.0
O641 O 0.09171 0.75927 0.97179 0.0
O642 O 0.0752 0.73772 0.08563 0.0
O643 O 0.11253 0.71163 0.05906 0.0
O644 O 0.86691 0.70145 0.00785 0.0
Cd645 Cd 0.87025 0.74792 0.99272 0.0
Cd646 Cd 0.90403 0.75196 0.04356 0.0
O647 O 0.87103 0.71854 0.0568 0.0
O648 O 0.82747 0.75906 0.97549 0.0
O649 O 0.84622 0.77746 0.02117 0.0
C650 C 0.82241 0.7734 0.00221 0.0
C651 C 0.92237 0.7878 0.08108 0.0
C652 C 0.86199 0.69745 0.03736 0.0
C653 C 0.93733 0.75227 0.98121 0.0
O654 O 0.93776 0.74219 0.00964 0.0
O655 O 0.91132 0.76131 0.96874 0.0
O656 O 0.92954 0.75818 0.08252 0.0
O657 O 0.90351 0.79708 0.05875 0.0
O658 O 0.37198 0.81185 0.97776 0.0
Cd659 Cd 0.37307 0.76793 0.99921 0.0
Cd660 Cd 0.41036 0.75744 0.94871 0.0
O661 O 0.37975 0.79067 0.93067 0.0
O662 O 0.33413 0.76769 0.02603 0.0
O663 O 0.33896 0.73921 0.98197 0.0
C664 C 0.32112 0.75024 0.00443 0.0
C665 C 0.42864 0.71727 0.91589 0.0
C666 C 0.36964 0.81327 0.94772 0.0
C667 C 0.44033 0.76194 0.01254 0.0
O668 O 0.44259 0.76913 0.98334 0.0
O669 O 0.41346 0.75519 0.0246 0.0
O670 O 0.43787 0.74613 0.91225 0.0
O671 O 0.40787 0.71123 0.93768 0.0
C672 C 0.00729 0.23609 0.21413 0.0
C673 C 0.00546 0.21788 0.24249 0.0
C674 C 0.00375 0.26661 0.27408 0.0
C675 C 0.00226 0.28491 0.24583 0.0
N676 N 0.99963 0.28742 0.18874 0.0
N677 N 0.99357 0.21622 0.29882 0.0
C678 C 0.00331 0.26976 0.21569 0.0
C679 C 0.00138 0.23325 0.27227 0.0
N680 N 0.01373 0.22133 0.18596 0.0
N681 N 0.00873 0.28094 0.30282 0.0
H682 H 0.99041 0.19178 0.2988 0.0
H683 H 0.98665 0.22675 0.32014 0.0
H684 H 0.01132 0.30532 0.3055 0.0
H685 H 0.01376 0.26837 0.32355 0.0
H686 H 0.01843 0.23339 0.16489 0.0
H687 H 0.01666 0.19686 0.18418 0.0
H688 H 0.99696 0.27766 0.16617 0.0
H689 H 0.99704 0.31199 0.18926 0.0
C690 C 0.00482 0.73333 0.2901 0.0
C691 C 0.02225 0.71384 0.26899 0.0
C692 C 0.04343 0.76091 0.2423 0.0
C693 C 0.02706 0.78091 0.26428 0.0
N694 N 0.99994 0.78509 0.31471 0.0
N695 N 0.0654 0.70927 0.23143 0.0
C696 C 0.01008 0.76677 0.28995 0.0
C697 C 0.04419 0.72774 0.2476 0.0
N698 N 0.983 0.71998 0.31 0.0
N699 N 0.05597 0.7726 0.21468 0.0
H700 H 0.06619 0.68473 0.23328 0.0
H701 H 0.08434 0.71871 0.2186 0.0
H702 H 0.05569 0.7962 0.20796 0.0
H703 H 0.06394 0.75811 0.19627 0.0
H704 H 0.96697 0.73319 0.32341 0.0
H705 H 0.97988 0.69551 0.31167 0.0
H706 H 0.98971 0.77579 0.33524 0.0
H707 H 0.00505 0.80921 0.31631 0.0
C708 C 0.20202 0.98771 0.22894 0.0
C709 C 0.21261 0.01615 0.21411 0.0
C710 C 0.22755 0.03796 0.26569 0.0
C711 C 0.22043 0.00848 0.28052 0.0
N712 N 0.19235 0.9589 0.27831 0.0
N713 N 0.21634 0.07249 0.22123 0.0
C714 C 0.20497 0.98437 0.26271 0.0
C715 C 0.21898 0.0427 0.2335 0.0
N716 N 0.18868 0.96437 0.21093 0.0
N717 N 0.24479 0.06065 0.28111 0.0
H718 H 0.20764 0.07644 0.19833 0.0
H719 H 0.21854 0.09287 0.23506 0.0
H720 H 0.25361 0.058 0.30402 0.0
H721 H 0.2532 0.08094 0.26976 0.0
H722 H 0.18485 0.94135 0.21889 0.0
H723 H 0.18017 0.96861 0.18806 0.0
H724 H 0.179 0.94126 0.26744 0.0
H725 H 0.1932 0.95665 0.303 0.0
C726 C 0.78818 0.53088 0.23858 0.0
C727 C 0.77895 0.50267 0.22257 0.0
C728 C 0.767 0.47743 0.27365 0.0
C729 C 0.77173 0.50685 0.28961 0.0
N730 N 0.78965 0.561 0.28804 0.0
N731 N 0.77791 0.446 0.22672 0.0
C732 C 0.78348 0.53337 0.27227 0.0
C733 C 0.77428 0.47492 0.24078 0.0
N734 N 0.8036 0.55409 0.22206 0.0
N735 N 0.75277 0.45255 0.28882 0.0
H736 H 0.78561 0.44374 0.20323 0.0
H737 H 0.77753 0.42476 0.23934 0.0
H738 H 0.74505 0.45333 0.31229 0.0
H739 H 0.74556 0.43206 0.27706 0.0
H740 H 0.81211 0.57492 0.23209 0.0
H741 H 0.81179 0.55065 0.19895 0.0
H742 H 0.79441 0.58245 0.27687 0.0
H743 H 0.78919 0.56267 0.31278 0.0
C744 C 0.2724 0.26222 0.01328 0.0
C745 C 0.28973 0.23725 0.99901 0.0
C746 C 0.23979 0.20755 0.99259 0.0
C747 C 0.22239 0.23458 0.00292 0.0
N748 N 0.22334 0.29119 0.01267 0.0
N749 N 0.28989 0.1869 0.97228 0.0
C750 C 0.239 0.26289 0.0105 0.0
C751 C 0.27339 0.21007 0.98775 0.0
N752 N 0.28773 0.28543 0.02979 0.0
N753 N 0.22448 0.17936 0.98838 0.0
H754 H 0.31451 0.1877 0.96959 0.0
H755 H 0.27904 0.16805 0.96059 0.0
H756 H 0.2002 0.17665 0.99236 0.0
H757 H 0.23622 0.15817 0.98366 0.0
H758 H 0.27581 0.30261 0.04301 0.0
H759 H 0.31216 0.28535 0.03317 0.0
H760 H 0.23512 0.31277 0.01508 0.0
H761 H 0.19925 0.29384 0.0078 0.0
C762 C 0.26554 0.77856 0.50134 0.0
C763 C 0.28356 0.75012 0.50184 0.0
C764 C 0.23461 0.71896 0.50045 0.0
C765 C 0.21651 0.74706 0.49667 0.0
N766 N 0.21466 0.80369 0.49028 0.0
N767 N 0.28516 0.69353 0.49286 0.0
C768 C 0.23194 0.777 0.49629 0.0
C769 C 0.26807 0.72043 0.49879 0.0
N770 N 0.28037 0.80684 0.50656 0.0
N771 N 0.22002 0.69081 0.50723 0.0
H772 H 0.30974 0.69334 0.49033 0.0
H773 H 0.27463 0.672 0.48686 0.0
H774 H 0.19558 0.68848 0.50991 0.0
H775 H 0.23247 0.67049 0.51378 0.0
H776 H 0.26833 0.82815 0.50964 0.0
H777 H 0.30482 0.8086 0.51005 0.0
H778 H 0.22475 0.82589 0.4866 0.0
H779 H 0.19016 0.80317 0.48671 0.0
C780 C 0.76353 0.70082 0.49592 0.0
C781 C 0.78534 0.72045 0.51233 0.0
C782 C 0.74113 0.74922 0.53669 0.0
C783 C 0.71884 0.72862 0.52159 0.0
N784 N 0.71046 0.67858 0.49499 0.0
N785 N 0.79406 0.75516 0.55736 0.0
C786 C 0.73054 0.70246 0.50364 0.0
C787 C 0.77388 0.74163 0.53588 0.0
N788 N 0.77427 0.68067 0.47294 0.0
N789 N 0.73207 0.77751 0.54971 0.0
H790 H 0.81809 0.74999 0.5586 0.0
H791 H 0.7861 0.76851 0.57664 0.0
H792 H 0.70901 0.78595 0.55048 0.0
H793 H 0.74837 0.7947 0.55679 0.0
H794 H 0.7592 0.66839 0.45765 0.0
H795 H 0.79839 0.67753 0.46822 0.0
H796 H 0.71815 0.6578 0.48408 0.0
H797 H 0.68677 0.67787 0.50212 0.0
C798 C 0.99295 0.76119 0.78447 0.0
C799 C 0.9927 0.77757 0.75496 0.0
C800 C 0.99723 0.7272 0.72638 0.0
C801 C 1.00026 0.71084 0.75573 0.0
N802 N 0.00402 0.71203 0.81279 0.0
N803 N 0.00213 0.77661 0.69821 0.0
C804 C 0.99886 0.72777 0.78489 0.0
C805 C 0.99694 0.76069 0.72607 0.0
N806 N 0.98673 0.77744 0.81185 0.0
N807 N 0.99319 0.71079 0.69863 0.0
H808 H 0.00249 0.80118 0.69651 0.0
H809 H 0.00944 0.7655 0.67733 0.0
H810 H 0.99291 0.68619 0.69735 0.0
H811 H 0.98676 0.72152 0.67727 0.0
H812 H 0.9835 0.76665 0.83386 0.0
H813 H 0.98266 0.80182 0.81214 0.0
H814 H 0.0064 0.72323 0.8347 0.0
H815 H 0.00809 0.68767 0.81369 0.0
C816 C 0.99343 0.22792 0.7761 0.0
C817 C 0.99054 0.21176 0.74665 0.0
C818 C 0.99585 0.26262 0.71845 0.0
C819 C 0.99554 0.27866 0.74813 0.0
N820 N 0.98511 0.27665 0.80465 0.0
N821 N 0.98564 0.21361 0.68964 0.0
C822 C 0.99172 0.26132 0.77676 0.0
C823 C 0.99089 0.22907 0.71767 0.0
N824 N 0.99946 0.21156 0.80352 0.0
N825 N 0.00172 0.27929 0.69125 0.0
H826 H 0.98208 0.18918 0.68846 0.0
H827 H 0.98254 0.22512 0.66798 0.0
H828 H 0.00507 0.30377 0.69119 0.0
H829 H 0.0054 0.26873 0.66919 0.0
H830 H 0.00536 0.22265 0.82486 0.0
H831 H 0.00223 0.18708 0.80435 0.0
H832 H 0.97859 0.26479 0.82539 0.0
H833 H 0.9826 0.30113 0.80634 0.0
C834 C 0.78652 0.97301 0.76108 0.0
C835 C 0.77656 0.00126 0.77651 0.0
C836 C 0.78482 0.03003 0.72643 0.0
C837 C 0.7859 0.00106 0.70956 0.0
N838 N 0.79587 0.94463 0.71182 0.0
N839 N 0.76431 0.0573 0.77231 0.0
C840 C 0.78962 0.9724 0.72717 0.0
C841 C 0.77589 0.03013 0.759 0.0
N842 N 0.79404 0.9471 0.77907 0.0
N843 N 0.79252 0.0575 0.71117 0.0
H844 H 0.75607 0.0588 0.79554 0.0
H845 H 0.76006 0.07781 0.7592 0.0
H846 H 0.80063 0.0576 0.6877 0.0
H847 H 0.79466 0.07917 0.72285 0.0
H848 H 0.80406 0.92651 0.76991 0.0
H849 H 0.79303 0.94734 0.80386 0.0
H850 H 0.7928 0.92244 0.72218 0.0
H851 H 0.80523 0.94373 0.68896 0.0
C852 C 0.21828 0.52125 0.77065 0.0
C853 C 0.23134 0.49599 0.78887 0.0
C854 C 0.23426 0.4636 0.74042 0.0
C855 C 0.22836 0.49077 0.72168 0.0
N856 N 0.19901 0.53957 0.71921 0.0
N857 N 0.25491 0.44353 0.78983 0.0
C858 C 0.21568 0.51809 0.73682 0.0
C859 C 0.2395 0.46698 0.77358 0.0
N860 N 0.20899 0.5484 0.7857 0.0
N861 N 0.23346 0.43432 0.72668 0.0
H862 H 0.26105 0.44508 0.81373 0.0
H863 H 0.26456 0.42369 0.77869 0.0
H864 H 0.22666 0.43114 0.70303 0.0
H865 H 0.23501 0.41334 0.73965 0.0
H866 H 0.20296 0.56923 0.77396 0.0
H867 H 0.20821 0.55038 0.81041 0.0
H868 H 0.18781 0.55943 0.72858 0.0
H869 H 0.19273 0.53524 0.69564 0.0
C870 C 0.74392 0.75188 0.0376 0.0
C871 C 0.72231 0.77209 0.02109 0.0
C872 C 0.76801 0.79792 0.99517 0.0
C873 C 0.7891 0.77879 0.01306 0.0
N874 N 0.79613 0.74663 0.06021 0.0
N875 N 0.71533 0.82087 0.99181 0.0
C876 C 0.77674 0.75912 0.03742 0.0
C877 C 0.73482 0.79719 0.00217 0.0
N878 N 0.73414 0.72418 0.05132 0.0
N879 N 0.77962 0.81669 0.97145 0.0
H880 H 0.69147 0.82226 0.99827 0.0
H881 H 0.7236 0.84096 0.98005 0.0
H882 H 0.8039 0.81921 0.96722 0.0
H883 H 0.76512 0.82843 0.95521 0.0
H884 H 0.75002 0.70728 0.05993 0.0
H885 H 0.71104 0.71578 0.05093 0.0
H886 H 0.78746 0.73414 0.07976 0.0
H887 H 0.82004 0.75218 0.06217 0.0
C888 C 0.7283 0.26206 0.45628 0.0
C889 C 0.70741 0.23979 0.47113 0.0
C890 C 0.754 0.2128 0.49426 0.0
C891 C 0.77438 0.23426 0.4784 0.0
N892 N 0.78113 0.27339 0.43709 0.0
N893 N 0.70182 0.18859 0.49612 0.0
C894 C 0.76155 0.25661 0.45682 0.0
C895 C 0.72073 0.21348 0.4877 0.0
N896 N 0.7173 0.28995 0.44392 0.0
N897 N 0.76634 0.19205 0.51586 0.0
H898 H 0.6779 0.18734 0.48988 0.0
H899 H 0.71057 0.16769 0.50595 0.0
H900 H 0.79069 0.1901 0.51998 0.0
H901 H 0.75236 0.17823 0.53086 0.0
H902 H 0.73224 0.30852 0.43739 0.0
H903 H 0.69369 0.29659 0.44272 0.0
H904 H 0.77271 0.28704 0.41824 0.0
H905 H 0.80574 0.27141 0.43742 0.0
C906 C 0.22845 0.23718 0.54073 0.0
C907 C 0.20752 0.25931 0.52571 0.0
C908 C 0.25413 0.28722 0.50374 0.0
C909 C 0.27447 0.26579 0.51963 0.0
N910 N 0.28111 0.22672 0.56092 0.0
N911 N 0.20173 0.31091 0.50155 0.0
C912 C 0.2616 0.24316 0.54087 0.0
C913 C 0.22078 0.28606 0.5098 0.0
N914 N 0.21767 0.209 0.55266 0.0
N915 N 0.26656 0.30837 0.48259 0.0
H916 H 0.17773 0.31184 0.50755 0.0
H917 H 0.21041 0.33205 0.49218 0.0
H918 H 0.29094 0.3106 0.47882 0.0
H919 H 0.25264 0.32225 0.46759 0.0
H920 H 0.23282 0.19071 0.55947 0.0
H921 H 0.19419 0.20177 0.55308 0.0
H922 H 0.2726 0.21269 0.57945 0.0
H923 H 0.30566 0.22952 0.56125 0.0
C924 C 0.50512 0.76367 0.71588 0.0
C925 C 0.52091 0.78266 0.73877 0.0
C926 C 0.53826 0.73494 0.76666 0.0
C927 C 0.52518 0.71554 0.74231 0.0
N928 N 0.50152 0.71222 0.69017 0.0
N929 N 0.56052 0.7856 0.78032 0.0
C930 C 0.51011 0.73013 0.71579 0.0
C931 C 0.54036 0.76804 0.76202 0.0
N932 N 0.48525 0.77761 0.69441 0.0
N933 N 0.5461 0.72244 0.79561 0.0
H934 H 0.5631 0.80994 0.77793 0.0
H935 H 0.57716 0.77541 0.79555 0.0
H936 H 0.54212 0.69893 0.80172 0.0
H937 H 0.55251 0.73636 0.81505 0.0
H938 H 0.47035 0.76483 0.67938 0.0
H939 H 0.48249 0.80213 0.69292 0.0
H940 H 0.49296 0.72187 0.66906 0.0
H941 H 0.50589 0.68794 0.68887 0.0
C942 C 0.46883 0.27102 0.74749 0.0
C943 C 0.49222 0.28373 0.76802 0.0
C944 C 0.50484 0.2299 0.78602 0.0
C945 C 0.48634 0.21702 0.76074 0.0
N946 N 0.45447 0.22777 0.71345 0.0
N947 N 0.53366 0.2755 0.80635 0.0
C948 C 0.46887 0.23811 0.74071 0.0
C949 C 0.51055 0.26322 0.78725 0.0
N950 N 0.44686 0.29045 0.73365 0.0
N951 N 0.51603 0.21046 0.80943 0.0
H952 H 0.53725 0.29984 0.80877 0.0
H953 H 0.55022 0.26155 0.81828 0.0
H954 H 0.51059 0.18638 0.81037 0.0
H955 H 0.5275 0.21879 0.8297 0.0
H956 H 0.42711 0.28185 0.72148 0.0
H957 H 0.4464 0.31487 0.73697 0.0
H958 H 0.4455 0.24317 0.69629 0.0
H959 H 0.45404 0.20451 0.70562 0.0
C960 C 0.70288 0.52149 0.77266 0.0
C961 C 0.71206 0.49315 0.78846 0.0
C962 C 0.72398 0.4683 0.73719 0.0
C963 C 0.7193 0.49783 0.72143 0.0
N964 N 0.7012 0.55192 0.72339 0.0
N965 N 0.7124 0.43648 0.78366 0.0
C966 C 0.7075 0.52421 0.73897 0.0
C967 C 0.71653 0.46552 0.77 0.0
N968 N 0.68751 0.54457 0.78941 0.0
N969 N 0.73827 0.44353 0.7219 0.0
H970 H 0.7042 0.43402 0.80695 0.0
H971 H 0.71274 0.4154 0.77076 0.0
H972 H 0.74605 0.44446 0.69847 0.0
H973 H 0.74544 0.42297 0.73359 0.0
H974 H 0.67896 0.56548 0.77957 0.0
H975 H 0.67952 0.54094 0.81257 0.0
H976 H 0.69635 0.57328 0.73471 0.0
H977 H 0.70158 0.55374 0.69866 0.0
C978 C 0.2816 0.99625 0.73013 0.0
C979 C 0.25257 0.99602 0.71296 0.0
C980 C 0.22281 0.99762 0.76297 0.0
C981 C 0.25158 0.00096 0.78021 0.0
N982 N 0.30841 0.00656 0.78041 0.0
N983 N 0.19582 0.00484 0.71305 0.0
C984 C 0.28109 0.00104 0.76385 0.0
C985 C 0.22328 0.99906 0.72939 0.0
N986 N 0.30945 0.99104 0.71434 0.0
N987 N 0.19494 0.9916 0.77855 0.0
H988 H 0.19481 0.00695 0.68841 0.0
H989 H 0.17459 0.01102 0.72417 0.0
H990 H 0.19325 0.98948 0.80315 0.0
H991 H 0.1741 0.98522 0.76685 0.0
H992 H 0.33116 0.9878 0.72567 0.0
H993 H 0.31044 0.98772 0.68978 0.0
H994 H 0.33041 0.01003 0.76968 0.0
H995 H 0.30867 0.00989 0.80499 0.0
C996 C 0.73727 0.28726 0.99507 0.0
C997 C 0.71942 0.27192 0.01933 0.0
C998 C 0.76734 0.26975 0.05253 0.0
C999 C 0.7861 0.2781 0.02594 0.0
N1000 N 0.78777 0.31027 0.97879 0.0
N1001 N 0.7187 0.24589 0.07077 0.0
C1002 C 0.77076 0.2915 0.99902 0.0
C1003 C 0.73459 0.2631 0.04829 0.0
N1004 N 0.72224 0.29715 0.96805 0.0
N1005 N 0.78058 0.26959 0.08214 0.0
H1006 H 0.69512 0.23895 0.06853 0.0
H1007 H 0.7299 0.23576 0.09037 0.0
H1008 H 0.80374 0.27742 0.0861 0.0
H1009 H 0.76746 0.26619 0.10287 0.0
H1010 H 0.73398 0.30491 0.94773 0.0
H1011 H 0.6976 0.29666 0.96559 0.0
H1012 H 0.77811 0.32217 0.95943 0.0
H1013 H 0.8109 0.31739 0.9839 0.0
C1014 C 0.49951 0.27295 0.29764 0.0
C1015 C 0.48852 0.28924 0.27013 0.0
C1016 C 0.4756 0.2385 0.24543 0.0
C1017 C 0.49109 0.22213 0.27032 0.0
N1018 N 0.5202 0.22366 0.31947 0.0
N1019 N 0.47679 0.28567 0.21371 0.0
C1020 C 0.50383 0.23934 0.29632 0.0
C1021 C 0.47932 0.27158 0.2429 0.0
N1022 N 0.50495 0.28932 0.32509 0.0
N1023 N 0.45749 0.22259 0.22382 0.0
H1024 H 0.48284 0.3092 0.20941 0.0
H1025 H 0.47305 0.27281 0.19288 0.0
H1026 H 0.45329 0.1984 0.22538 0.0
H1027 H 0.44379 0.23407 0.20668 0.0
H1028 H 0.51036 0.2784 0.34662 0.0
H1029 H 0.50121 0.31366 0.32698 0.0
H1030 H 0.53291 0.23514 0.33731 0.0
H1031 H 0.5224 0.19903 0.31967 0.0
C1032 C 0.51427 0.77267 0.26791 0.0
C1033 C 0.50653 0.78962 0.23974 0.0
C1034 C 0.49182 0.73918 0.21422 0.0
C1035 C 0.50293 0.72258 0.24134 0.0
N1036 N 0.53331 0.72365 0.28996 0.0
N1037 N 0.49225 0.78848 0.18423 0.0
C1038 C 0.5171 0.73939 0.26673 0.0
C1039 C 0.49646 0.77272 0.21226 0.0
N1040 N 0.51641 0.78785 0.29657 0.0
N1041 N 0.47662 0.723 0.19062 0.0
H1042 H 0.49607 0.81279 0.18198 0.0
H1043 H 0.48767 0.77714 0.16274 0.0
H1044 H 0.47411 0.6984 0.191 0.0
H1045 H 0.46503 0.73404 0.17177 0.0
H1046 H 0.51882 0.77577 0.31806 0.0
H1047 H 0.51152 0.81183 0.29966 0.0
H1048 H 0.54649 0.73524 0.30742 0.0
H1049 H 0.53642 0.69922 0.28976 0.0
C1050 C 0.27516 0.52748 0.27166 0.0
C1051 C 0.28237 0.49815 0.28678 0.0
C1052 C 0.29754 0.4761 0.23452 0.0
C1053 C 0.28833 0.5051 0.21969 0.0
N1054 N 0.28659 0.56157 0.22695 0.0
N1055 N 0.30978 0.4482 0.28373 0.0
C1056 C 0.2833 0.53185 0.23927 0.0
C1057 C 0.29637 0.47346 0.2685 0.0
N1058 N 0.25819 0.55044 0.287 0.0
N1059 N 0.30774 0.45125 0.2165 0.0
H1060 H 0.31056 0.44637 0.30845 0.0
H1061 H 0.32281 0.43065 0.27224 0.0
H1062 H 0.31595 0.45402 0.19332 0.0
H1063 H 0.30913 0.4281 0.22493 0.0
H1064 H 0.25007 0.57078 0.27553 0.0
H1065 H 0.24887 0.54776 0.30971 0.0
H1066 H 0.28533 0.58196 0.24088 0.0
H1067 H 0.2948 0.5653 0.20382 0.0
C1068 C 0.71202 0.96262 0.22674 0.0
C1069 C 0.72631 0.98735 0.20878 0.0
C1070 C 0.72634 0.02042 0.25672 0.0
C1071 C 0.72066 0.9935 0.27595 0.0
N1072 N 0.69962 0.94026 0.27848 0.0
N1073 N 0.75115 0.03925 0.20885 0.0
C1074 C 0.71072 0.96494 0.26075 0.0
C1075 C 0.73411 0.01634 0.22419 0.0
N1076 N 0.69848 0.93762 0.21117 0.0
N1077 N 0.72371 0.05003 0.26945 0.0
H1078 H 0.75988 0.03678 0.18585 0.0
H1079 H 0.75979 0.05931 0.22042 0.0
H1080 H 0.71551 0.05365 0.29259 0.0
H1081 H 0.72541 0.07059 0.25581 0.0
H1082 H 0.68526 0.92004 0.22235 0.0
H1083 H 0.69801 0.93595 0.18643 0.0
H1084 H 0.69756 0.91722 0.26989 0.0
H1085 H 0.69123 0.94314 0.30158 0.0
C1086 C 0.2358 0.7788 0.00164 0.0
C1087 C 0.2187 0.7502 0.9972 0.0
C1088 C 0.2688 0.72032 1.00079 0.0
C1089 C 0.28587 0.74935 0.00168 0.0
N1090 N 0.28531 0.80621 0.99414 0.0
N1091 N 0.21872 0.6937 0.98962 0.0
C1092 C 0.26929 0.77856 0.99964 0.0
C1093 C 0.23513 0.72084 0.99606 0.0
N1094 N 0.22021 0.80621 0.00918 0.0
N1095 N 0.2846 0.69245 0.00538 0.0
H1096 H 0.19417 0.69344 0.98638 0.0
H1097 H 0.22955 0.67196 0.98531 0.0
H1098 H 0.3091 0.69143 0.00881 0.0
H1099 H 0.2733 0.6707 0.00811 0.0
H1100 H 0.23193 0.82681 0.01614 0.0
H1101 H 0.19569 0.80753 0.01204 0.0
H1102 H 0.2739 0.82748 0.98887 0.0
H1103 H 0.30981 0.80738 0.99115 0.0
C1104 C 0.09324 0.30191 0.36655 0.0
C1105 C 0.08293 0.30745 0.39807 0.0
C1106 C 0.05474 0.35522 0.3806 0.0
C1107 C 0.06156 0.34709 0.34862 0.0
N1108 N 0.08263 0.30943 0.31068 0.0
N1109 N 0.05128 0.33738 0.43532 0.0
C1110 C 0.07977 0.31968 0.34141 0.0
C1111 C 0.06322 0.33378 0.40531 0.0
N1112 N 0.11629 0.27986 0.36073 0.0
N1113 N 0.04069 0.38361 0.38733 0.0
H1114 H 0.05712 0.32236 0.4541 0.0
H1115 H 0.03389 0.35392 0.44113 0.0
H1116 H 0.03409 0.3997 0.3697 0.0
H1117 H 0.03799 0.39234 0.41033 0.0
H1118 H 0.12705 0.27701 0.3386 0.0
H1119 H 0.12698 0.26667 0.37877 0.0
H1120 H 0.09249 0.28763 0.30458 0.0
H1121 H 0.07233 0.32099 0.29137 0.0
C1122 C 0.90323 0.20091 0.34387 0.0
C1123 C 0.9081 0.19077 0.37554 0.0
C1124 C 0.93015 0.14065 0.35642 0.0
C1125 C 0.92989 0.15299 0.32506 0.0
N1126 N 0.91974 0.19659 0.28906 0.0
N1127 N 0.92739 0.15199 0.4129 0.0
C1128 C 0.91697 0.18341 0.31866 0.0
C1129 C 0.9215 0.16069 0.38215 0.0
N1130 N 0.8853 0.22726 0.338 0.0
N1131 N 0.9382 0.10968 0.36143 0.0
H1132 H 0.92068 0.16579 0.43234 0.0
H1133 H 0.94057 0.13207 0.41912 0.0
H1134 H 0.94452 0.09441 0.34297 0.0
H1135 H 0.93597 0.0984 0.38333 0.0
H1136 H 0.87827 0.23412 0.31528 0.0
H1137 H 0.87477 0.2405 0.35613 0.0
H1138 H 0.91421 0.22013 0.28418 0.0
H1139 H 0.93036 0.18512 0.26988 0.0
C1140 C 0.05979 0.6675 0.10254 0.0
C1141 C 0.08785 0.6859 0.10408 0.0
C1142 C 0.09943 0.6655 0.15716 0.0
C1143 C 0.07101 0.64719 0.15593 0.0
N1144 N 0.02978 0.62348 0.12413 0.0
N1145 N 0.13866 0.69602 0.12809 0.0
C1146 C 0.05293 0.64591 0.1275 0.0
C1147 C 0.10924 0.68247 0.12971 0.0
N1148 N 0.03935 0.67129 0.0776 0.0
N1149 N 0.11581 0.6689 0.18503 0.0
H1150 H 0.14621 0.70938 0.10864 0.0
H1151 H 0.15659 0.69155 0.14452 0.0
H1152 H 0.10965 0.65782 0.20622 0.0
H1153 H 0.13415 0.68514 0.18807 0.0
H1154 H 0.01664 0.66158 0.07704 0.0
H1155 H 0.04462 0.68553 0.058 0.0
H1156 H 0.0176 0.61953 0.10296 0.0
H1157 H 0.02499 0.60657 0.14159 0.0
C1158 C 0.98194 0.81985 0.13944 0.0
C1159 C 0.96454 0.84444 0.15459 0.0
C1160 C 0.91918 0.83371 0.11975 0.0
C1161 C 0.93722 0.81026 0.10372 0.0
N1162 N 0.98947 0.79042 0.0908 0.0
N1163 N 0.92126 0.88182 0.15086 0.0
C1164 C 0.96985 0.80644 0.11108 0.0
C1165 C 0.93465 0.85371 0.14198 0.0
N1166 N 0.00867 0.80751 0.15293 0.0
N1167 N 0.88711 0.83583 0.11553 0.0
H1168 H 0.93274 0.89785 0.16584 0.0
H1169 H 0.90071 0.89076 0.14039 0.0
H1170 H 0.87431 0.82079 0.10069 0.0
H1171 H 0.87277 0.85056 0.12928 0.0
H1172 H 0.01998 0.78737 0.14412 0.0
H1173 H 0.01766 0.81504 0.1746 0.0
H1174 H 0.01398 0.78928 0.09403 0.0
H1175 H 0.98182 0.7817 0.06889 0.0
C1176 C 0.34622 0.04007 0.3096 0.0
C1177 C 0.33301 0.05803 0.3349 0.0
C1178 C 0.36881 0.10185 0.32148 0.0
C1179 C 0.3844 0.08221 0.29896 0.0
N1180 N 0.39428 0.02868 0.28089 0.0
N1181 N 0.33847 0.10294 0.37027 0.0
C1182 C 0.37512 0.05006 0.2959 0.0
C1183 C 0.3463 0.08805 0.34253 0.0
N1184 N 0.33052 0.01465 0.29707 0.0
N1185 N 0.37414 0.13375 0.32201 0.0
H1186 H 0.32366 0.0928 0.38733 0.0
H1187 H 0.34968 0.12357 0.37796 0.0
H1188 H 0.3892 0.1452 0.30608 0.0
H1189 H 0.36096 0.14922 0.33612 0.0
H1190 H 0.33869 0.00253 0.27708 0.0
H1191 H 0.3076 0.00824 0.30377 0.0
H1192 H 0.38937 0.00446 0.28068 0.0
H1193 H 0.41679 0.03444 0.27231 0.0
C1194 C 0.63768 0.40089 0.31988 0.0
C1195 C 0.60833 0.41696 0.32142 0.0
C1196 C 0.62918 0.45169 0.3631 0.0
C1197 C 0.65998 0.43931 0.35746 0.0
N1198 N 0.69429 0.40359 0.3281 0.0
N1199 N 0.57531 0.45793 0.34364 0.0
C1200 C 0.66444 0.41388 0.33564 0.0
C1201 C 0.60366 0.4422 0.34313 0.0
N1202 N 0.63989 0.37319 0.30319 0.0
N1203 N 0.62432 0.47203 0.38791 0.0
H1204 H 0.5558 0.4508 0.33015 0.0
H1205 H 0.57162 0.47893 0.35607 0.0
H1206 H 0.6425 0.47892 0.40327 0.0
H1207 H 0.60196 0.47972 0.39508 0.0
H1208 H 0.65979 0.35857 0.30374 0.0
H1209 H 0.62055 0.36325 0.29131 0.0
H1210 H 0.69899 0.38806 0.30945 0.0
H1211 H 0.71489 0.41232 0.33854 0.0
C1212 C 0.34625 0.97671 0.18593 0.0
C1213 C 0.3326 0.95814 0.1613 0.0
C1214 C 0.3694 0.91499 0.17411 0.0
C1215 C 0.38483 0.93484 0.19653 0.0
N1216 N 0.39455 0.98844 0.21424 0.0
N1217 N 0.33852 0.91347 0.12572 0.0
C1218 C 0.3754 0.96696 0.19939 0.0
C1219 C 0.34644 0.92843 0.1534 0.0
N1220 N 0.33075 0.00239 0.19819 0.0
N1221 N 0.37519 0.88317 0.17347 0.0
H1222 H 0.32337 0.92346 0.10888 0.0
H1223 H 0.35 0.89305 0.11782 0.0
H1224 H 0.39068 0.87189 0.1891 0.0
H1225 H 0.36207 0.86753 0.15951 0.0
H1226 H 0.33918 0.01487 0.21784 0.0
H1227 H 0.30784 0.00891 0.19162 0.0
H1228 H 0.38968 0.01267 0.21428 0.0
H1229 H 0.41701 0.98265 0.22292 0.0
C1230 C 0.64592 0.59937 0.21419 0.0
C1231 C 0.61421 0.59247 0.20542 0.0
C1232 C 0.633 0.56528 0.15749 0.0
C1233 C 0.66462 0.5689 0.16838 0.0
N1234 N 0.70129 0.58493 0.20949 0.0
N1235 N 0.5771 0.5655 0.17104 0.0
C1236 C 0.67118 0.5849 0.19731 0.0
C1237 C 0.60752 0.57474 0.17753 0.0
N1238 N 0.65183 0.62031 0.23826 0.0
N1239 N 0.62738 0.55344 0.12777 0.0
H1240 H 0.55772 0.57192 0.18506 0.0
H1241 H 0.5713 0.54947 0.15315 0.0
H1242 H 0.64553 0.54609 0.11258 0.0
H1243 H 0.60506 0.55335 0.11717 0.0
H1244 H 0.67442 0.62874 0.24365 0.0
H1245 H 0.63379 0.63167 0.25087 0.0
H1246 H 0.70675 0.59311 0.2322 0.0
H1247 H 0.7205 0.57417 0.19817 0.0
C1248 C 0.33734 0.381 0.08937 0.0
C1249 C 0.31347 0.39598 0.07099 0.0
C1250 C 0.32602 0.36157 0.02589 0.0
C1251 C 0.35114 0.3476 0.0437 0.0
N1252 N 0.38732 0.35293 0.08797 0.0
N1253 N 0.29417 0.40854 0.01838 0.0
C1254 C 0.35897 0.36023 0.07404 0.0
C1255 C 0.31079 0.38889 0.03812 0.0
N1256 N 0.33849 0.38491 0.12159 0.0
N1257 N 0.31491 0.34803 0.99855 0.0
H1258 H 0.28407 0.42974 0.02615 0.0
H1259 H 0.29386 0.40573 0.99375 0.0
H1260 H 0.32349 0.32703 0.98898 0.0
H1261 H 0.29443 0.35594 0.98713 0.0
H1262 H 0.35362 0.37181 0.13613 0.0
H1263 H 0.32237 0.39876 0.13421 0.0
H1264 H 0.39513 0.36357 0.10891 0.0
H1265 H 0.40459 0.3393 0.0766 0.0
C1266 C 0.36463 0.62814 0.44185 0.0
C1267 C 0.3545 0.65975 0.43686 0.0
C1268 C 0.31081 0.64099 0.40356 0.0
C1269 C 0.31808 0.6095 0.41237 0.0
N1270 N 0.34992 0.57265 0.44259 0.0
N1271 N 0.31453 0.69626 0.41761 0.0
C1272 C 0.34469 0.60281 0.43196 0.0
C1273 C 0.32683 0.66627 0.41871 0.0
N1274 N 0.39344 0.62239 0.4556 0.0
N1275 N 0.28874 0.64668 0.38044 0.0
H1276 H 0.32462 0.71552 0.42934 0.0
H1277 H 0.29246 0.70145 0.40775 0.0
H1278 H 0.27687 0.62852 0.36853 0.0
H1279 H 0.28469 0.66907 0.37083 0.0
H1280 H 0.40354 0.59992 0.457 0.0
H1281 H 0.40852 0.6405 0.46313 0.0
H1282 H 0.36668 0.56705 0.45989 0.0
H1283 H 0.33596 0.5534 0.43588 0.0
C1284 C 0.69902 0.87746 0.4605 0.0
C1285 C 0.69538 0.88302 0.42745 0.0
C1286 C 0.65048 0.8464 0.42714 0.0
C1287 C 0.65925 0.83548 0.45791 0.0
N1288 N 0.69682 0.83801 0.50157 0.0
N1289 N 0.66917 0.8696 0.37806 0.0
C1290 C 0.68465 0.85048 0.47423 0.0
C1291 C 0.67129 0.86691 0.41035 0.0
N1292 N 0.71573 0.89821 0.47897 0.0
N1293 N 0.62201 0.8378 0.41424 0.0
H1294 H 0.68456 0.88343 0.36454 0.0
H1295 H 0.65396 0.85567 0.36443 0.0
H1296 H 0.60535 0.82428 0.42659 0.0
H1297 H 0.61348 0.84724 0.39299 0.0
H1298 H 0.71666 0.89637 0.50368 0.0
H1299 H 0.72528 0.91923 0.47007 0.0
H1300 H 0.71742 0.84666 0.51223 0.0
H1301 H 0.68872 0.81706 0.51161 0.0
C1302 C 0.18345 0.66517 0.58458 0.0
C1303 C 0.1561 0.65522 0.56752 0.0
C1304 C 0.1712 0.59973 0.57549 0.0
C1305 C 0.19732 0.60984 0.5943 0.0
N1306 N 0.22338 0.65143 0.62351 0.0
N1307 N 0.12043 0.61343 0.55196 0.0
C1308 C 0.20179 0.64236 0.60104 0.0
C1309 C 0.14884 0.62257 0.56463 0.0
N1310 N 0.19323 0.69605 0.58342 0.0
N1311 N 0.16869 0.56873 0.56643 0.0
H1312 H 0.10359 0.62963 0.54379 0.0
H1313 H 0.11241 0.5901 0.55214 0.0
H1314 H 0.18458 0.55124 0.57365 0.0
H1315 H 0.15227 0.56077 0.54975 0.0
H1316 H 0.21494 0.70365 0.59248 0.0
H1317 H 0.18148 0.71357 0.57054 0.0
H1318 H 0.22545 0.67467 0.63161 0.0
H1319 H 0.23686 0.63519 0.63646 0.0
C1320 C 0.94711 0.63538 0.62699 0.0
C1321 C 0.94137 0.64513 0.65872 0.0
C1322 C 0.9095 0.68972 0.63969 0.0
C1323 C 0.91854 0.68234 0.60818 0.0
N1324 N 0.94841 0.65027 0.57129 0.0
N1325 N 0.92176 0.68472 0.6955 0.0
C1326 C 0.93782 0.65557 0.60156 0.0
C1327 C 0.92361 0.67303 0.6652 0.0
N1328 N 0.96075 0.60658 0.62121 0.0
N1329 N 0.88699 0.71242 0.64517 0.0
H1330 H 0.93258 0.67401 0.71501 0.0
H1331 H 0.91228 0.70686 0.70088 0.0
H1332 H 0.87597 0.725 0.62688 0.0
H1333 H 0.877 0.71654 0.66745 0.0
H1334 H 0.96263 0.5967 0.5986 0.0
H1335 H 0.96783 0.59129 0.63936 0.0
H1336 H 0.96546 0.63334 0.56561 0.0
H1337 H 0.94178 0.6643 0.55199 0.0
C1338 C 0.07285 0.8135 0.66626 0.0
C1339 C 0.05531 0.84132 0.65887 0.0
C1340 C 0.05951 0.82929 0.60198 0.0
C1341 C 0.07823 0.8024 0.60956 0.0
N1342 N 0.10958 0.77354 0.64764 0.0
N1343 N 0.03695 0.87908 0.62007 0.0
C1344 C 0.08714 0.79608 0.64133 0.0
C1345 C 0.05017 0.85029 0.62677 0.0
N1346 N 0.07411 0.8024 0.69681 0.0
N1347 N 0.04951 0.83394 0.57143 0.0
H1348 H 0.02995 0.89495 0.63774 0.0
H1349 H 0.03538 0.88835 0.59718 0.0
H1350 H 0.05643 0.81937 0.55264 0.0
H1351 H 0.03282 0.85096 0.56502 0.0
H1352 H 0.08341 0.78032 0.70275 0.0
H1353 H 0.06293 0.81344 0.71592 0.0
H1354 H 0.1194 0.77011 0.6701 0.0
H1355 H 0.12076 0.76047 0.62979 0.0
C1356 C 0.91232 0.32127 0.84 0.0
C1357 C 0.93152 0.34834 0.84572 0.0
C1358 C 0.92786 0.33925 0.90316 0.0
C1359 C 0.90751 0.31309 0.89728 0.0
N1360 N 0.87371 0.28446 0.8612 0.0
N1361 N 0.95241 0.38696 0.88229 0.0
C1362 C 0.89755 0.30589 0.866 0.0
C1363 C 0.93765 0.35859 0.87723 0.0
N1364 N 0.90985 0.30888 0.81004 0.0
N1365 N 0.93923 0.34457 0.93312 0.0
H1366 H 0.95987 0.40159 0.86373 0.0
H1367 H 0.95477 0.39723 0.90467 0.0
H1368 H 0.93243 0.33114 0.95277 0.0
H1369 H 0.95705 0.3609 0.93816 0.0
H1370 H 0.89918 0.28713 0.8053 0.0
H1371 H 0.92113 0.31853 0.79022 0.0
H1372 H 0.8633 0.28051 0.83909 0.0
H1373 H 0.86209 0.27306 0.87991 0.0
C1374 C 0.05815 0.1343 0.86726 0.0
C1375 C 0.06049 0.14511 0.83543 0.0
C1376 C 0.09225 0.19037 0.85293 0.0
C1377 C 0.08593 0.1822 0.88493 0.0
N1378 N 0.06044 0.14801 0.92321 0.0
N1379 N 0.07498 0.18662 0.7984 0.0
C1380 C 0.06853 0.15437 0.89238 0.0
C1381 C 0.0765 0.17387 0.82827 0.0
N1382 N 0.04649 0.10472 0.87336 0.0
N1383 N 0.11364 0.21376 0.84614 0.0
H1384 H 0.06268 0.17617 0.77964 0.0
H1385 H 0.08314 0.20929 0.793 0.0
H1386 H 0.12598 0.22604 0.86377 0.0
H1387 H 0.12154 0.21864 0.82318 0.0
H1388 H 0.0471 0.09423 0.89577 0.0
H1389 H 0.03868 0.08953 0.85543 0.0
H1390 H 0.04468 0.13014 0.9297 0.0
H1391 H 0.06776 0.16198 0.94228 0.0
C1392 C 0.61707 0.93189 0.67274 0.0
C1393 C 0.62539 0.91529 0.70091 0.0
C1394 C 0.6817 0.92391 0.68999 0.0
C1395 C 0.67354 0.93826 0.6606 0.0
N1396 N 0.63413 0.95121 0.62117 0.0
N1397 N 0.66517 0.88956 0.73298 0.0
C1398 C 0.64138 0.94086 0.65109 0.0
C1399 C 0.65761 0.9095 0.70851 0.0
N1400 N 0.58625 0.94055 0.66744 0.0
N1401 N 0.71221 0.92539 0.70101 0.0
H1402 H 0.64805 0.8781 0.74674 0.0
H1403 H 0.68822 0.88193 0.73759 0.0
H1404 H 0.73056 0.93638 0.68854 0.0
H1405 H 0.71876 0.91845 0.72385 0.0
H1406 H 0.57938 0.95576 0.6492 0.0
H1407 H 0.5677 0.9347 0.68277 0.0
H1408 H 0.61132 0.95039 0.61169 0.0
H1409 H 0.65138 0.95816 0.60479 0.0
C1410 C 0.38873 0.54676 0.71207 0.0
C1411 C 0.40036 0.57801 0.70745 0.0
C1412 C 0.36361 0.58399 0.66271 0.0
C1413 C 0.34819 0.55532 0.67148 0.0
N1414 N 0.34196 0.5141 0.7112 0.0
N1415 N 0.3938 0.62886 0.68163 0.0
C1416 C 0.35956 0.53791 0.69802 0.0
C1417 C 0.38651 0.5974 0.68359 0.0
N1418 N 0.40593 0.52501 0.72885 0.0
N1419 N 0.35739 0.59793 0.63408 0.0
H1420 H 0.40901 0.64021 0.69746 0.0
H1421 H 0.38195 0.64436 0.66642 0.0
H1422 H 0.34227 0.58793 0.61722 0.0
H1423 H 0.37011 0.61736 0.62563 0.0
H1424 H 0.39922 0.50129 0.73058 0.0
H1425 H 0.42871 0.52953 0.7374 0.0
H1426 H 0.34856 0.50275 0.73221 0.0
H1427 H 0.31907 0.50843 0.70377 0.0
C1428 C 0.66847 0.09681 0.81314 0.0
C1429 C 0.6624 0.07305 0.83634 0.0
C1430 C 0.606 0.07298 0.82224 0.0
C1431 C 0.61217 0.09673 0.7992 0.0
N1432 N 0.6466 0.13697 0.77816 0.0
N1433 N 0.62479 0.04453 0.86867 0.0
C1434 C 0.6426 0.11055 0.79653 0.0
C1435 C 0.6309 0.06303 0.8427 0.0
N1436 N 0.69896 0.10487 0.80546 0.0
N1437 N 0.57684 0.0588 0.82346 0.0
H1438 H 0.64251 0.03722 0.88437 0.0
H1439 H 0.60198 0.03893 0.87635 0.0
H1440 H 0.55776 0.06596 0.8094 0.0
H1441 H 0.57206 0.03869 0.83697 0.0
H1442 H 0.70482 0.11899 0.78603 0.0
H1443 H 0.71878 0.09563 0.81692 0.0
H1444 H 0.6675 0.15013 0.77764 0.0
H1445 H 0.62791 0.14753 0.7658 0.0
C1446 C 0.34037 0.40949 0.83974 0.0
C1447 C 0.34328 0.43612 0.86034 0.0
C1448 C 0.39856 0.44326 0.84399 0.0
C1449 C 0.39536 0.41704 0.82324 0.0
N1450 N 0.3672 0.36996 0.80769 0.0
N1451 N 0.3769 0.47267 0.88858 0.0
C1452 C 0.36765 0.39822 0.82355 0.0
C1453 C 0.37305 0.45119 0.86458 0.0
N1454 N 0.31126 0.39658 0.83341 0.0
N1455 N 0.42564 0.46107 0.84324 0.0
H1456 H 0.35871 0.47837 0.90442 0.0
H1457 H 0.39871 0.48254 0.89467 0.0
H1458 H 0.44542 0.45474 0.82971 0.0
H1459 H 0.42801 0.48272 0.85485 0.0
H1460 H 0.30741 0.37996 0.81553 0.0
H1461 H 0.29023 0.40413 0.84391 0.0
H1462 H 0.34877 0.35363 0.80972 0.0
H1463 H 0.38662 0.36144 0.79492 0.0
C1464 C 0.64967 0.65064 0.9325 0.0
C1465 C 0.65916 0.66236 0.96275 0.0
C1466 C 0.69641 0.61828 0.96721 0.0
C1467 C 0.69241 0.61161 0.93442 0.0
N1468 N 0.66673 0.62411 0.88454 0.0
N1469 N 0.69596 0.6591 0.00703 0.0
C1470 C 0.66918 0.62822 0.91665 0.0
C1471 C 0.68346 0.64649 0.97989 0.0
N1472 N 0.62172 0.66034 0.91923 0.0
N1473 N 0.71205 0.5974 0.98646 0.0
H1474 H 0.68863 0.68054 0.01661 0.0
H1475 H 0.716 0.64976 0.01816 0.0
H1476 H 0.72067 0.57568 0.97831 0.0
H1477 H 0.71298 0.59999 0.01109 0.0
H1478 H 0.61257 0.65052 0.89843 0.0
H1479 H 0.60593 0.67536 0.93099 0.0
H1480 H 0.6523 0.63825 0.87027 0.0
H1481 H 0.68114 0.6087 0.87168 0.0
C1482 C 0.64261 0.35422 0.56987 0.0
C1483 C 0.64876 0.34427 0.53814 0.0
C1484 C 0.68644 0.388 0.53285 0.0
C1485 C 0.6859 0.39259 0.56625 0.0
N1486 N 0.6654 0.37643 0.61757 0.0
N1487 N 0.68162 0.34961 0.49097 0.0
C1488 C 0.66428 0.37499 0.58514 0.0
C1489 C 0.6718 0.36077 0.5198 0.0
N1490 N 0.61575 0.34446 0.5852 0.0
N1491 N 0.70048 0.40986 0.51344 0.0
H1492 H 0.67334 0.32871 0.48101 0.0
H1493 H 0.70069 0.35939 0.47859 0.0
H1494 H 0.70994 0.43105 0.52199 0.0
H1495 H 0.69918 0.40867 0.48871 0.0
H1496 H 0.60904 0.35313 0.60742 0.0
H1497 H 0.59832 0.33083 0.5741 0.0
H1498 H 0.6521 0.36145 0.63209 0.0
H1499 H 0.68172 0.39016 0.63003 0.0
C1500 C 0.33837 0.1062 0.56455 0.0
C1501 C 0.31768 0.10782 0.59101 0.0
C1502 C 0.33353 0.16244 0.60144 0.0
C1503 C 0.35349 0.16137 0.57408 0.0
N1504 N 0.38217 0.13012 0.53575 0.0
N1505 N 0.30243 0.13288 0.63995 0.0
C1506 C 0.35831 0.13243 0.55766 0.0
C1507 C 0.31787 0.13437 0.61141 0.0
N1508 N 0.338 0.08005 0.54539 0.0
N1509 N 0.32732 0.19056 0.61635 0.0
H1510 H 0.29036 0.11264 0.64748 0.0
H1511 H 0.30419 0.15034 0.65735 0.0
H1512 H 0.33756 0.21204 0.60993 0.0
H1513 H 0.30988 0.19321 0.6337 0.0
H1514 H 0.34958 0.07888 0.52355 0.0
H1515 H 0.32482 0.05983 0.55086 0.0
H1516 H 0.38865 0.10899 0.52477 0.0
H1517 H 0.39755 0.14888 0.53085 0.0
C1518 C 0.81744 0.37215 0.39247 0.0
C1519 C 0.8166 0.39786 0.41394 0.0
C1520 C 0.85576 0.37163 0.4478 0.0
C1521 C 0.85152 0.34347 0.42994 0.0
N1522 N 0.82657 0.31612 0.38573 0.0
N1523 N 0.83526 0.42358 0.46145 0.0
C1524 C 0.83252 0.3436 0.40191 0.0
C1525 C 0.8362 0.39821 0.44127 0.0
N1526 N 0.8031 0.37477 0.36345 0.0
N1527 N 0.87883 0.37296 0.47061 0.0
H1528 H 0.82255 0.44417 0.45626 0.0
H1529 H 0.84589 0.42373 0.48379 0.0
H1530 H 0.89402 0.35399 0.47527 0.0
H1531 H 0.88494 0.39359 0.48268 0.0
H1532 H 0.80563 0.35803 0.34544 0.0
H1533 H 0.79116 0.39517 0.35622 0.0
H1534 H 0.8097 0.31429 0.36775 0.0
H1535 H 0.83627 0.29427 0.39171 0.0
C1536 C 0.58679 0.85386 0.86517 0.0
C1537 C 0.55865 0.84447 0.84912 0.0
C1538 C 0.55089 0.8031 0.88895 0.0
C1539 C 0.5822 0.80799 0.90039 0.0
N1540 N 0.63222 0.83579 0.89506 0.0
N1541 N 0.51773 0.80434 0.84252 0.0
C1542 C 0.60081 0.83294 0.88756 0.0
C1543 C 0.54151 0.81761 0.86016 0.0
N1544 N 0.59981 0.88297 0.8596 0.0
N1545 N 0.52972 0.78524 0.90586 0.0
H1546 H 0.51119 0.81222 0.82003 0.0
H1547 H 0.50708 0.78291 0.84869 0.0
H1548 H 0.53483 0.77601 0.92829 0.0
H1549 H 0.50593 0.7831 0.89938 0.0
H1550 H 0.61884 0.89182 0.8727 0.0
H1551 H 0.58926 0.89964 0.84464 0.0
H1552 H 0.64722 0.85188 0.88376 0.0
H1553 H 0.64413 0.82005 0.90991 0.0
C1554 C 0.49122 0.67373 0.8686 0.0
C1555 C 0.47221 0.65182 0.85116 0.0
C1556 C 0.42487 0.66933 0.88014 0.0
C1557 C 0.44349 0.69189 0.89664 0.0
N1558 N 0.49542 0.70686 0.91548 0.0
N1559 N 0.42504 0.61944 0.85197 0.0
C1560 C 0.47703 0.69136 0.89365 0.0
C1561 C 0.44033 0.64655 0.86085 0.0
N1562 N 0.5223 0.67891 0.86101 0.0
N1563 N 0.39249 0.67062 0.88112 0.0
H1564 H 0.43648 0.6014 0.83943 0.0
H1565 H 0.40261 0.61328 0.86041 0.0
H1566 H 0.37994 0.68756 0.89401 0.0
H1567 H 0.37811 0.6566 0.86669 0.0
H1568 H 0.53504 0.69835 0.86939 0.0
H1569 H 0.53554 0.66463 0.84596 0.0
H1570 H 0.52005 0.70486 0.91637 0.0
H1571 H 0.48587 0.71883 0.93497 0.0
C1572 C 0.52795 0.18619 0.63506 0.0
C1573 C 0.54592 0.16032 0.64695 0.0
C1574 C 0.58843 0.17273 0.60905 0.0
C1575 C 0.56935 0.19711 0.59587 0.0
N1576 N 0.51648 0.21835 0.58908 0.0
N1577 N 0.58873 0.12325 0.63811 0.0
C1578 C 0.53762 0.20098 0.60649 0.0
C1579 C 0.57474 0.15171 0.63162 0.0
N1580 N 0.50312 0.1984 0.65194 0.0
N1581 N 0.61992 0.17053 0.60164 0.0
H1582 H 0.57856 0.1066 0.65336 0.0
H1583 H 0.60832 0.11477 0.62558 0.0
H1584 H 0.63136 0.18609 0.58621 0.0
H1585 H 0.63535 0.1551 0.61326 0.0
H1586 H 0.49142 0.21915 0.64533 0.0
H1587 H 0.49668 0.19026 0.67434 0.0
H1588 H 0.49242 0.21966 0.59475 0.0
H1589 H 0.52215 0.22812 0.567 0.0
C1590 C 0.40373 0.33945 0.66906 0.0
C1591 C 0.43133 0.35866 0.6654 0.0
C1592 C 0.43729 0.34069 0.6104 0.0
C1593 C 0.41046 0.32089 0.6145 0.0
N1594 N 0.36291 0.30801 0.64339 0.0
N1595 N 0.46834 0.38475 0.63051 0.0
C1596 C 0.39175 0.32279 0.64231 0.0
C1597 C 0.44615 0.36161 0.63528 0.0
N1598 N 0.39046 0.33484 0.69839 0.0
N1599 N 0.45478 0.33872 0.58309 0.0
H1600 H 0.47463 0.40089 0.64821 0.0
H1601 H 0.47818 0.38992 0.6084 0.0
H1602 H 0.44777 0.32499 0.56368 0.0
H1603 H 0.47679 0.34953 0.58015 0.0
H1604 H 0.37305 0.31793 0.70291 0.0
H1605 H 0.39835 0.34578 0.71907 0.0
H1606 H 0.34665 0.31121 0.66177 0.0
H1607 H 0.35391 0.29489 0.62441 0.0
C1608 C 0.88806 0.55609 0.83213 0.0
C1609 C 0.8823 0.57203 0.80299 0.0
C1610 C 0.82508 0.5653 0.8098 0.0
C1611 C 0.83065 0.55136 0.83996 0.0
N1612 N 0.86656 0.53782 0.88243 0.0
N1613 N 0.84583 0.59778 0.76718 0.0
C1614 C 0.86192 0.548 0.85193 0.0
C1615 C 0.85092 0.57842 0.79275 0.0
N1616 N 0.91827 0.54741 0.84016 0.0
N1617 N 0.7953 0.56477 0.79682 0.0
H1618 H 0.86426 0.60826 0.75437 0.0
H1619 H 0.82345 0.60593 0.76057 0.0
H1620 H 0.7757 0.55498 0.80836 0.0
H1621 H 0.79053 0.57137 0.77345 0.0
H1622 H 0.92357 0.53261 0.85923 0.0
H1623 H 0.93805 0.5531 0.82637 0.0
H1624 H 0.88856 0.53811 0.89369 0.0
H1625 H 0.84793 0.53136 0.89744 0.0
C1626 C 0.12532 0.93828 0.85653 0.0
C1627 C 0.157 0.93446 0.84583 0.0
C1628 C 0.13837 0.90359 0.8003 0.0
C1629 C 0.10675 0.91136 0.8084 0.0
N1630 N 0.06939 0.93782 0.84278 0.0
N1631 N 0.19365 0.91783 0.80469 0.0
C1632 C 0.0999 0.92887 0.83636 0.0
C1633 C 0.16362 0.91799 0.81711 0.0
N1634 N 0.11963 0.95038 0.88613 0.0
N1635 N 0.14421 0.88218 0.77661 0.0
H1636 H 0.21293 0.92895 0.81546 0.0
H1637 H 0.19891 0.90939 0.78202 0.0
H1638 H 0.12608 0.87097 0.764 0.0
H1639 H 0.16671 0.87318 0.77174 0.0
H1640 H 0.09723 0.95092 0.89658 0.0
H1641 H 0.13781 0.95749 0.90138 0.0
H1642 H 0.06334 0.95372 0.86071 0.0
H1643 H 0.05014 0.93085 0.82885 0.0
C1644 C 0.85613 0.3957 0.69288 0.0
C1645 C 0.88498 0.41272 0.69165 0.0
C1646 C 0.86333 0.44712 0.65015 0.0
C1647 C 0.83288 0.43375 0.65546 0.0
N1648 N 0.7995 0.39668 0.6841 0.0
N1649 N 0.91685 0.45484 0.66999 0.0
C1650 C 0.82908 0.40798 0.67698 0.0
C1651 C 0.88894 0.43833 0.67028 0.0
N1652 N 0.85458 0.36795 0.70956 0.0
N1653 N 0.86786 0.4676 0.62538 0.0
H1654 H 0.93659 0.44799 0.68332 0.0
H1655 H 0.91994 0.47612 0.65787 0.0
H1656 H 0.84971 0.47384 0.6097 0.0
H1657 H 0.89005 0.47598 0.61849 0.0
H1658 H 0.83516 0.35272 0.70877 0.0
H1659 H 0.87399 0.35865 0.72183 0.0
H1660 H 0.79508 0.38082 0.70253 0.0
H1661 H 0.77878 0.40489 0.67347 0.0
C1662 C 0.10183 0.0654 0.65446 0.0
C1663 C 0.1077 0.08229 0.683 0.0
C1664 C 0.16489 0.07804 0.67475 0.0
C1665 C 0.15924 0.06195 0.64561 0.0
N1666 N 0.12298 0.04579 0.60444 0.0
N1667 N 0.14364 0.11216 0.71582 0.0
C1668 C 0.12784 0.05737 0.63439 0.0
C1669 C 0.13891 0.09111 0.69158 0.0
N1670 N 0.0717 0.05575 0.64736 0.0
N1671 N 0.1947 0.07894 0.68763 0.0
H1672 H 0.12494 0.12235 0.7285 0.0
H1673 H 0.16572 0.12193 0.72113 0.0
H1674 H 0.21453 0.0687 0.67695 0.0
H1675 H 0.19931 0.08705 0.71055 0.0
H1676 H 0.06636 0.04021 0.62891 0.0
H1677 H 0.05207 0.06187 0.66118 0.0
H1678 H 0.10076 0.04466 0.59369 0.0
H1679 H 0.14163 0.03976 0.58926 0.0
C1680 C 0.83627 0.86777 0.58498 0.0
C1681 C 0.81095 0.88046 0.56669 0.0
C1682 C 0.8193 0.83952 0.52658 0.0
C1683 C 0.84682 0.82897 0.54295 0.0
N1684 N 0.88635 0.83984 0.58316 0.0
N1685 N 0.78706 0.88502 0.51453 0.0
C1686 C 0.85691 0.84528 0.57072 0.0
C1687 C 0.80524 0.86849 0.53569 0.0
N1688 N 0.83975 0.87547 0.61633 0.0
N1689 N 0.80501 0.82124 0.50392 0.0
H1690 H 0.77829 0.90763 0.51933 0.0
H1691 H 0.78427 0.87795 0.49093 0.0
H1692 H 0.81242 0.79843 0.49817 0.0
H1693 H 0.78326 0.82729 0.49376 0.0
H1694 H 0.85618 0.86431 0.6311 0.0
H1695 H 0.82417 0.89025 0.62853 0.0
H1696 H 0.89564 0.85312 0.60186 0.0
H1697 H 0.90278 0.82474 0.57245 0.0
C1698 C 0.82667 0.13066 0.91129 0.0
C1699 C 0.8041 0.11403 0.93002 0.0
C1700 C 0.81492 0.14925 0.9748 0.0
C1701 C 0.8395 0.1641 0.95713 0.0
N1702 N 0.87514 0.16126 0.9121 0.0
N1703 N 0.78613 0.10058 0.98296 0.0
C1704 C 0.84746 0.15236 0.92647 0.0
C1705 C 0.8013 0.12104 0.9629 0.0
N1706 N 0.82726 0.12745 0.87898 0.0
N1707 N 0.80282 0.16287 0.00168 0.0
H1708 H 0.77754 0.07862 0.97551 0.0
H1709 H 0.78572 0.10375 0.00755 0.0
H1710 H 0.80976 0.18501 0.01006 0.0
H1711 H 0.78299 0.15384 0.01343 0.0
H1712 H 0.84135 0.14161 0.86439 0.0
H1713 H 0.8115 0.11319 0.8664 0.0
H1714 H 0.88307 0.15124 0.89088 0.0
H1715 H 0.8919 0.17568 0.9232 0.0
C1716 C 0.14511 0.36128 0.94562 0.0
C1717 C 0.15816 0.3304 0.94359 0.0
C1718 C 0.20605 0.35154 0.91853 0.0
C1719 C 0.19477 0.38261 0.92416 0.0
N1720 N 0.15502 0.41792 0.94523 0.0
N1721 N 0.20294 0.29621 0.93279 0.0
C1722 C 0.16452 0.38781 0.93803 0.0
C1723 C 0.18907 0.32547 0.93111 0.0
N1724 N 0.11406 0.36513 0.95424 0.0
N1725 N 0.23276 0.34698 0.9006 0.0
H1726 H 0.19156 0.27636 0.94212 0.0
H1727 H 0.22678 0.29216 0.92764 0.0
H1728 H 0.24563 0.36566 0.89068 0.0
H1729 H 0.24035 0.32478 0.89295 0.0
H1730 H 0.10217 0.38671 0.9531 0.0
H1731 H 0.09938 0.34614 0.96023 0.0
H1732 H 0.13492 0.42307 0.95866 0.0
H1733 H 0.16841 0.4379 0.93945 0.0
C1734 C 0.6683 0.15556 0.09876 0.0
C1735 C 0.64767 0.15418 0.072 0.0
C1736 C 0.6614 0.09845 0.0636 0.0
C1737 C 0.6821 0.10008 0.09007 0.0
N1738 N 0.69918 0.12642 0.13772 0.0
N1739 N 0.61825 0.12285 0.03429 0.0
C1740 C 0.68335 0.12741 0.10937 0.0
C1741 C 0.64219 0.12507 0.05609 0.0
N1742 N 0.67541 0.18399 0.11264 0.0
N1743 N 0.66104 0.07189 0.04499 0.0
H1744 H 0.60342 0.14187 0.02878 0.0
H1745 H 0.61116 0.10162 0.0239 0.0
H1746 H 0.67377 0.05146 0.05071 0.0
H1747 H 0.64947 0.0706 0.02317 0.0
H1748 H 0.69328 0.18682 0.12949 0.0
H1749 H 0.66532 0.20541 0.10576 0.0
H1750 H 0.69837 0.14459 0.15444 0.0
H1751 H 0.71065 0.10606 0.14584 0.0
C1752 C 0.41071 0.17788 0.11974 0.0
C1753 C 0.43037 0.20152 0.10605 0.0
C1754 C 0.47178 0.18969 0.14495 0.0
C1755 C 0.45332 0.16412 0.15694 0.0
N1756 N 0.40977 0.12792 0.14776 0.0
N1757 N 0.48392 0.22077 0.09842 0.0
C1758 C 0.4242 0.15627 0.14178 0.0
C1759 C 0.46231 0.2045 0.11632 0.0
N1760 N 0.37896 0.17688 0.11333 0.0
N1761 N 0.49704 0.20156 0.1615 0.0
H1762 H 0.47852 0.2302 0.07614 0.0
H1763 H 0.50805 0.22128 0.10392 0.0
H1764 H 0.50389 0.19362 0.18387 0.0
H1765 H 0.50889 0.22213 0.15459 0.0
H1766 H 0.36341 0.1618 0.12528 0.0
H1767 H 0.36752 0.1932 0.09873 0.0
H1768 H 0.38984 0.12019 0.1353 0.0
H1769 H 0.41991 0.11059 0.16224 0.0
C1770 C 0.55376 0.35421 0.1408 0.0
C1771 C 0.55269 0.34302 0.17255 0.0
C1772 C 0.5773 0.29309 0.15628 0.0
C1773 C 0.5754 0.30289 0.12414 0.0
N1774 N 0.55828 0.34088 0.08486 0.0
N1775 N 0.55804 0.29989 0.20997 0.0
C1776 C 0.56285 0.33305 0.11607 0.0
C1777 C 0.56304 0.31194 0.18018 0.0
N1778 N 0.54675 0.38518 0.13444 0.0
N1779 N 0.59361 0.26617 0.16407 0.0
H1780 H 0.54761 0.31283 0.22829 0.0
H1781 H 0.56152 0.27615 0.21573 0.0
H1782 H 0.60491 0.25198 0.1472 0.0
H1783 H 0.59862 0.25958 0.1874 0.0
H1784 H 0.55035 0.3957 0.11234 0.0
H1785 H 0.53955 0.4011 0.15199 0.0
H1786 H 0.54597 0.36098 0.07755 0.0
H1787 H 0.56475 0.32608 0.06611 0.0
C1788 C 0.4481 0.85791 0.36841 0.0
C1789 C 0.44658 0.84663 0.3367 0.0
C1790 C 0.42132 0.79773 0.35486 0.0
C1791 C 0.426 0.80742 0.38675 0.0
N1792 N 0.44726 0.84477 0.42456 0.0
N1793 N 0.4372 0.80357 0.3 0.0
C1794 C 0.44014 0.8371 0.3938 0.0
C1795 C 0.43459 0.81595 0.32995 0.0
N1796 N 0.45643 0.88868 0.37415 0.0
N1797 N 0.40337 0.77152 0.34835 0.0
H1798 H 0.44705 0.81593 0.28097 0.0
H1799 H 0.4324 0.77995 0.29468 0.0
H1800 H 0.39269 0.75784 0.36604 0.0
H1801 H 0.39642 0.76519 0.32545 0.0
H1802 H 0.45475 0.89929 0.39643 0.0
H1803 H 0.46268 0.90441 0.35607 0.0
H1804 H 0.46078 0.86443 0.43088 0.0
H1805 H 0.44165 0.83021 0.44378 0.0
C1806 C 0.54017 0.69631 0.39651 0.0
C1807 C 0.57246 0.69161 0.40478 0.0
C1808 C 0.57459 0.64734 0.36748 0.0
C1809 C 0.54539 0.65735 0.35385 0.0
N1810 N 0.50225 0.6958 0.35386 0.0
N1811 N 0.62188 0.66395 0.3953 0.0
C1812 C 0.52834 0.68278 0.3681 0.0
C1813 C 0.5901 0.66721 0.38982 0.0
N1814 N 0.52061 0.71331 0.41604 0.0
N1815 N 0.58725 0.61861 0.35954 0.0
H1816 H 0.6346 0.67862 0.41057 0.0
H1817 H 0.63616 0.64849 0.3823 0.0
H1818 H 0.57562 0.60266 0.3446 0.0
H1819 H 0.60719 0.6092 0.37076 0.0
H1820 H 0.49621 0.71508 0.41229 0.0
H1821 H 0.52805 0.72227 0.43792 0.0
H1822 H 0.49162 0.71654 0.3621 0.0
H1823 H 0.49308 0.68843 0.33216 0.0
C1824 C 0.13981 0.44833 0.15561 0.0
C1825 C 0.17146 0.44532 0.16662 0.0
C1826 C 0.15294 0.41731 0.21403 0.0
C1827 C 0.12118 0.42357 0.20491 0.0
N1828 N 0.08385 0.44816 0.16907 0.0
N1829 N 0.20832 0.43136 0.2083 0.0
C1830 C 0.11438 0.4397 0.17609 0.0
C1831 C 0.17814 0.43085 0.19631 0.0
N1832 N 0.13416 0.45887 0.1254 0.0
N1833 N 0.15897 0.39774 0.23923 0.0
H1834 H 0.22754 0.44121 0.19619 0.0
H1835 H 0.21389 0.42451 0.23142 0.0
H1836 H 0.14101 0.38702 0.25251 0.0
H1837 H 0.18159 0.3897 0.24506 0.0
H1838 H 0.11185 0.45846 0.11478 0.0
H1839 H 0.1523 0.46568 0.10994 0.0
H1840 H 0.07783 0.4631 0.15032 0.0
H1841 H 0.06455 0.44217 0.18338 0.0
C1842 C 0.84972 0.06767 0.13693 0.0
C1843 C 0.8363 0.03814 0.146 0.0
C1844 C 0.87872 0.03171 0.18497 0.0
C1845 C 0.88754 0.06389 0.18092 0.0
N1846 N 0.87736 0.1143 0.15527 0.0
N1847 N 0.83474 0.99546 0.18473 0.0
C1848 C 0.87221 0.08242 0.15727 0.0
C1849 C 0.84999 0.02082 0.17151 0.0
N1850 N 0.84146 0.0814 0.10871 0.0
N1851 N 0.89792 0.01135 0.20133 0.0
H1852 H 0.81217 0.98805 0.17799 0.0
H1853 H 0.84294 0.98421 0.20522 0.0
H1854 H 0.92014 0.018 0.21 0.0
H1855 H 0.89342 0.9871 0.20274 0.0
H1856 H 0.85262 0.10162 0.0999 0.0
H1857 H 0.82619 0.07057 0.0925 0.0
H1858 H 0.86415 0.12902 0.14043 0.0
H1859 H 0.89237 0.12663 0.17052 0.0
C1860 C 0.13531 0.5859 0.32552 0.0
C1861 C 0.12008 0.5648 0.30408 0.0
C1862 C 0.15699 0.52293 0.31939 0.0
C1863 C 0.17013 0.54291 0.34317 0.0
N1864 N 0.16379 0.59009 0.3752 0.0
N1865 N 0.10925 0.51008 0.29069 0.0
C1866 C 0.1567 0.57336 0.34834 0.0
C1867 C 0.12853 0.53226 0.30431 0.0
N1868 N 0.13122 0.61791 0.32316 0.0
N1869 N 0.17242 0.49632 0.30923 0.0
H1870 H 0.08696 0.51559 0.28141 0.0
H1871 H 0.1137 0.48584 0.29243 0.0
H1872 H 0.195 0.48986 0.31686 0.0
H1873 H 0.16441 0.48288 0.29004 0.0
H1874 H 0.14433 0.63398 0.33662 0.0
H1875 H 0.11762 0.62865 0.30554 0.0
H1876 H 0.15254 0.61131 0.38102 0.0
H1877 H 0.17787 0.58091 0.3934 0.0
C1878 C 0.83367 0.91406 0.30469 0.0
C1879 C 0.83834 0.9316 0.33308 0.0
C1880 C 0.89597 0.92775 0.32654 0.0
C1881 C 0.89121 0.90845 0.29931 0.0
N1882 N 0.85614 0.87764 0.2663 0.0
N1883 N 0.87321 0.95025 0.37446 0.0
C1884 C 0.8602 0.89988 0.28958 0.0
C1885 C 0.86931 0.93698 0.34507 0.0
N1886 N 0.80415 0.91227 0.29128 0.0
N1887 N 0.92566 0.93868 0.33374 0.0
H1888 H 0.85418 0.95742 0.38862 0.0
H1889 H 0.89507 0.95169 0.38592 0.0
H1890 H 0.94586 0.93254 0.32082 0.0
H1891 H 0.92999 0.9558 0.35103 0.0
H1892 H 0.8 0.90285 0.26878 0.0
H1893 H 0.78409 0.92279 0.30127 0.0
H1894 H 0.83414 0.86808 0.26037 0.0
H1895 H 0.87514 0.86643 0.25503 0.0
C1896 C 0.17615 0.14258 0.47071 0.0
C1897 C 0.14979 0.15552 0.45419 0.0
C1898 C 0.16284 0.1225 0.40797 0.0
C1899 C 0.18754 0.10792 0.42565 0.0
N1900 N 0.20911 0.09642 0.47767 0.0
N1901 N 0.11274 0.15045 0.41064 0.0
C1902 C 0.19137 0.11543 0.45829 0.0
C1903 C 0.14139 0.1431 0.42391 0.0
N1904 N 0.18844 0.15731 0.49684 0.0
N1905 N 0.16073 0.11832 0.37584 0.0
H1906 H 0.09582 0.16426 0.42229 0.0
H1907 H 0.10444 0.13987 0.38985 0.0
H1908 H 0.17662 0.10454 0.36286 0.0
H1909 H 0.14501 0.13111 0.36165 0.0
H1910 H 0.20943 0.14999 0.50771 0.0
H1911 H 0.18016 0.17896 0.50517 0.0
H1912 H 0.21043 0.09982 0.50219 0.0
H1913 H 0.21917 0.07519 0.46992 0.0
C1914 C 0.15761 0.90034 0.07192 0.0
C1915 C 0.18421 0.89378 0.09159 0.0
C1916 C 0.17613 0.83692 0.0846 0.0
C1917 C 0.14864 0.8433 0.06612 0.0
N1918 N 0.10938 0.88037 0.04753 0.0
N1919 N 0.21363 0.85661 0.12344 0.0
C1920 C 0.13813 0.87485 0.06149 0.0
C1921 C 0.19171 0.86226 0.10016 0.0
N1922 N 0.15202 0.93056 0.06168 0.0
N1923 N 0.18869 0.80704 0.08564 0.0
H1924 H 0.22517 0.87481 0.13562 0.0
H1925 H 0.21786 0.83419 0.13288 0.0
H1926 H 0.17886 0.78774 0.07374 0.0
H1927 H 0.21068 0.80198 0.09573 0.0
H1928 H 0.13531 0.93616 0.04433 0.0
H1929 H 0.16559 0.94992 0.06883 0.0
H1930 H 0.09895 0.9027 0.04632 0.0
H1931 H 0.09463 0.86214 0.03963 0.0
C1932 C 0.85249 0.65475 0.07802 0.0
C1933 C 0.84361 0.66983 0.04914 0.0
C1934 C 0.80049 0.63174 0.04333 0.0
C1935 C 0.80526 0.62116 0.07501 0.0
N1936 N 0.83322 0.62796 0.12491 0.0
N1937 N 0.80281 0.67719 0.00904 0.0
C1938 C 0.83067 0.63395 0.0931 0.0
C1939 C 0.81589 0.6596 0.03294 0.0
N1940 N 0.88193 0.65956 0.0907 0.0
N1941 N 0.7821 0.61481 0.02269 0.0
H1942 H 0.81136 0.69929 0.0022 0.0
H1943 H 0.78097 0.67155 0.99883 0.0
H1944 H 0.77254 0.59274 0.02841 0.0
H1945 H 0.77993 0.62079 0.99873 0.0
H1946 H 0.89027 0.64698 0.11032 0.0
H1947 H 0.89926 0.67321 0.07948 0.0
H1948 H 0.84979 0.6393 0.13936 0.0
H1949 H 0.81675 0.6146 0.1376 0.0
C1950 C 0.30275 0.85502 0.90436 0.0
C1951 C 0.31 0.88699 0.91129 0.0
C1952 C 0.36006 0.87065 0.93593 0.0
C1953 C 0.35036 0.83861 0.93322 0.0
N1954 N 0.31004 0.80026 0.91911 0.0
N1955 N 0.34417 0.92587 0.93567 0.0
C1956 C 0.32121 0.83068 0.91826 0.0
C1957 C 0.3385 0.89511 0.92728 0.0
N1958 N 0.2783 0.84798 0.8842 0.0
N1959 N 0.38998 0.8776 0.94634 0.0
H1960 H 0.32914 0.94447 0.92938 0.0
H1961 H 0.36262 0.93273 0.95061 0.0
H1962 H 0.40627 0.86014 0.95285 0.0
H1963 H 0.39958 0.90032 0.94593 0.0
H1964 H 0.27384 0.82522 0.87577 0.0
H1965 H 0.2645 0.86542 0.87331 0.0
H1966 H 0.28722 0.79403 0.91197 0.0
H1967 H 0.32222 0.7816 0.9298 0.0
C1968 C 0.97234 0.52161 0.2791 0.0
C1969 C 0.97575 0.53438 0.24814 0.0
C1970 C 0.97286 0.48134 0.2249 0.0
C1971 C 0.97511 0.46852 0.25593 0.0
N1972 N 0.96606 0.47435 0.31182 0.0
N1973 N 0.96792 0.5287 0.19211 0.0
C1974 C 0.97065 0.48813 0.28282 0.0
C1975 C 0.9716 0.51482 0.22118 0.0
N1976 N 0.97336 0.54139 0.30475 0.0
N1977 N 0.9745 0.46158 0.19924 0.0
H1978 H 0.96717 0.55332 0.18961 0.0
H1979 H 0.96318 0.51629 0.17128 0.0
H1980 H 0.97443 0.43699 0.20167 0.0
H1981 H 0.97646 0.46932 0.17584 0.0
H1982 H 0.97451 0.53372 0.32822 0.0
H1983 H 0.97343 0.56598 0.30228 0.0
H1984 H 0.96102 0.48685 0.33253 0.0
H1985 H 0.96488 0.44976 0.3144 0.0
C1986 C 0.03863 0.98335 0.22464 0.0
C1987 C 0.03066 0.96662 0.25269 0.0
C1988 C 0.02633 0.01656 0.28179 0.0
C1989 C 0.02683 0.0329 0.2524 0.0
N1990 N 0.03711 0.03348 0.19619 0.0
N1991 N 0.02046 0.96603 0.30888 0.0
C1992 C 0.03505 0.01687 0.22398 0.0
C1993 C 0.02646 0.98289 0.28181 0.0
N1994 N 0.04868 0.96683 0.1986 0.0
N1995 N 0.02485 0.03355 0.30938 0.0
H1996 H 0.02164 0.94135 0.30951 0.0
H1997 H 0.0135 0.97622 0.33031 0.0
H1998 H 0.02482 0.05829 0.30942 0.0
H1999 H 0.02636 0.02352 0.33193 0.0
H2000 H 0.05683 0.97737 0.17778 0.0
H2001 H 0.0513 0.94223 0.19901 0.0
H2002 H 0.03946 0.02304 0.17392 0.0
H2003 H 0.03562 0.05814 0.19548 0.0
C2004 C 0.27956 0.97188 0.51224 0.0
C2005 C 0.2496 0.97378 0.52726 0.0
C2006 C 0.22294 0.96789 0.47581 0.0
C2007 C 0.25249 0.97329 0.46066 0.0
N2008 N 0.30938 0.9742 0.46264 0.0
N2009 N 0.19293 0.96867 0.52535 0.0
C2010 C 0.28107 0.97257 0.47842 0.0
C2011 C 0.22131 0.96934 0.50962 0.0
N2012 N 0.30627 0.97063 0.53059 0.0
N2013 N 0.19654 0.96259 0.45775 0.0
H2014 H 0.19162 0.96844 0.55014 0.0
H2015 H 0.17088 0.9688 0.51426 0.0
H2016 H 0.19743 0.96152 0.43301 0.0
H2017 H 0.17437 0.95692 0.46699 0.0
H2018 H 0.32917 0.96827 0.52169 0.0
H2019 H 0.30511 0.96995 0.55538 0.0
H2020 H 0.33136 0.97648 0.47362 0.0
H2021 H 0.31065 0.97328 0.43785 0.0
C2022 C 0.77962 0.53587 0.52141 0.0
C2023 C 0.7514 0.53351 0.53961 0.0
C2024 C 0.71939 0.53878 0.49122 0.0
C2025 C 0.74744 0.53565 0.4729 0.0
N2026 N 0.80384 0.54106 0.46895 0.0
N2027 N 0.69541 0.54263 0.54389 0.0
C2028 C 0.77752 0.53807 0.48763 0.0
C2029 C 0.72156 0.53888 0.5251 0.0
N2030 N 0.80819 0.53392 0.5366 0.0
N2031 N 0.69078 0.53936 0.47599 0.0
H2032 H 0.69699 0.5427 0.56865 0.0
H2033 H 0.67287 0.54791 0.53535 0.0
H2034 H 0.68919 0.54036 0.45123 0.0
H2035 H 0.66892 0.53856 0.48744 0.0
H2036 H 0.83 0.53257 0.52511 0.0
H2037 H 0.80978 0.53347 0.56138 0.0
H2038 H 0.82675 0.54406 0.47762 0.0
H2039 H 0.80215 0.54271 0.44423 0.0
C2040 C 0.27224 0.0294 0.98046 0.0
C2041 C 0.24252 0.02555 0.96534 0.0
C2042 C 0.21518 0.03146 0.01646 0.0
C2043 C 0.24487 0.02839 0.03192 0.0
N2044 N 0.30181 0.02966 0.0302 0.0
N2045 N 0.18564 0.02761 0.96682 0.0
C2046 C 0.27354 0.02973 0.01429 0.0
C2047 C 0.21389 0.02888 0.98271 0.0
N2048 N 0.29899 0.03168 0.96225 0.0
N2049 N 0.18838 0.03571 0.03426 0.0
H2050 H 0.1845 0.02708 0.94202 0.0
H2051 H 0.16353 0.02668 0.97778 0.0
H2052 H 0.18905 0.03749 0.05899 0.0
H2053 H 0.16594 0.03968 0.02478 0.0
H2054 H 0.3216 0.03582 0.97123 0.0
H2055 H 0.29806 0.03154 0.93745 0.0
H2056 H 0.32389 0.02766 0.01934 0.0
H2057 H 0.30301 0.03137 0.05494 0.0
C2058 C 0.77249 0.47556 0.02508 0.0
C2059 C 0.74286 0.48242 0.03955 0.0
C2060 C 0.71634 0.47752 0.98773 0.0
C2061 C 0.7465 0.47787 0.9728 0.0
N2062 N 0.803 0.47191 0.97595 0.0
N2063 N 0.68604 0.4851 0.0365 0.0
C2064 C 0.77448 0.47445 0.99123 0.0
C2065 C 0.71451 0.48116 0.0214 0.0
N2066 N 0.79866 0.47122 0.04373 0.0
N2067 N 0.68966 0.47473 0.96951 0.0
H2068 H 0.68426 0.48604 0.06124 0.0
H2069 H 0.66443 0.48794 0.02492 0.0
H2070 H 0.69063 0.47199 0.9449 0.0
H2071 H 0.66682 0.47263 0.97864 0.0
H2072 H 0.82081 0.46452 0.03515 0.0
H2073 H 0.79768 0.47213 0.06847 0.0
H2074 H 0.82495 0.47261 0.9872 0.0
H2075 H 0.8045 0.46946 0.95128 0.0
C2076 C 0.49335 0.28077 0.9659 0.0
C2077 C 0.47415 0.25344 0.96933 0.0
C2078 C 0.52186 0.22025 0.96932 0.0
C2079 C 0.5404 0.24776 0.97409 0.0
N2080 N 0.54568 0.3043 0.97238 0.0
N2081 N 0.46922 0.19667 0.96987 0.0
C2082 C 0.5268 0.27813 0.96997 0.0
C2083 C 0.48815 0.2229 0.96862 0.0
N2084 N 0.47913 0.30918 0.9598 0.0
N2085 N 0.5368 0.19168 0.96671 0.0
H2086 H 0.44457 0.19802 0.9683 0.0
H2087 H 0.4777 0.17376 0.97316 0.0
H2088 H 0.56152 0.18984 0.96738 0.0
H2089 H 0.52526 0.17057 0.96131 0.0
H2090 H 0.49148 0.33003 0.9552 0.0
H2091 H 0.45459 0.31107 0.95677 0.0
H2092 H 0.53713 0.32741 0.97321 0.0
H2093 H 0.57032 0.30257 0.97423 0.0
C2094 C 0.51834 0.72128 0.53977 0.0
C2095 C 0.53374 0.75107 0.53755 0.0
C2096 C 0.48247 0.77829 0.5365 0.0
C2097 C 0.46738 0.74846 0.53414 0.0
N2098 N 0.46832 0.69263 0.54411 0.0
N2099 N 0.53168 0.80738 0.54464 0.0
C2100 C 0.48457 0.72028 0.53985 0.0
C2101 C 0.51602 0.77946 0.53998 0.0
N2102 N 0.5359 0.69409 0.53919 0.0
N2103 N 0.46483 0.80521 0.53311 0.0
H2104 H 0.55631 0.80823 0.5473 0.0
H2105 H 0.5204 0.82897 0.54848 0.0
H2106 H 0.4401 0.8046 0.53173 0.0
H2107 H 0.47447 0.8278 0.53096 0.0
H2108 H 0.52621 0.67155 0.53691 0.0
H2109 H 0.56062 0.69419 0.54017 0.0
H2110 H 0.47895 0.67128 0.55037 0.0
H2111 H 0.44354 0.69194 0.54399 0.0
C2112 C 0.0175 0.75823 0.46154 0.0
C2113 C 0.03258 0.72929 0.46939 0.0
C2114 C 0.9815 0.7017 0.46897 0.0
C2115 C 0.96618 0.73138 0.46583 0.0
N2116 N 0.96808 0.78549 0.44892 0.0
N2117 N 0.03136 0.67254 0.47021 0.0
C2118 C 0.98388 0.75881 0.45817 0.0
C2119 C 0.01525 0.70058 0.46917 0.0
N2120 N 0.03515 0.7853 0.45967 0.0
N2121 N 0.96367 0.6752 0.47424 0.0
H2122 H 0.05614 0.67172 0.47036 0.0
H2123 H 0.02061 0.65044 0.46831 0.0
H2124 H 0.93893 0.67556 0.47304 0.0
H2125 H 0.97308 0.65327 0.48043 0.0
H2126 H 0.02553 0.80787 0.45742 0.0
H2127 H 0.05987 0.78502 0.46107 0.0
H2128 H 0.9792 0.80613 0.44126 0.0
H2129 H 0.9434 0.7858 0.44656 0.0
C2130 C 0.03154 0.47507 0.72529 0.0
C2131 C 0.02769 0.46108 0.75562 0.0
C2132 C 0.03136 0.51296 0.78119 0.0
C2133 C 0.02977 0.5271 0.75073 0.0
N2134 N 0.03899 0.52353 0.69467 0.0
N2135 N 0.03433 0.46421 0.8121 0.0
C2136 C 0.03401 0.5086 0.72303 0.0
C2137 C 0.03165 0.47934 0.78353 0.0
N2138 N 0.03045 0.45634 0.69884 0.0
N2139 N 0.0301 0.53178 0.80757 0.0
H2140 H 0.0345 0.43952 0.81369 0.0
H2141 H 0.03873 0.47565 0.83354 0.0
H2142 H 0.03091 0.55644 0.80598 0.0
H2143 H 0.02787 0.52328 0.83067 0.0
H2144 H 0.02987 0.46494 0.67568 0.0
H2145 H 0.02968 0.43167 0.70039 0.0
H2146 H 0.04372 0.51184 0.67342 0.0
H2147 H 0.04072 0.54817 0.6932 0.0
C2148 C 0.9636 0.00965 0.77817 0.0
C2149 C 0.96598 0.02759 0.7498 0.0
C2150 C 0.96166 0.97947 0.7178 0.0
C2151 C 0.96491 0.96145 0.74601 0.0
N2152 N 0.95937 0.9574 0.80256 0.0
N2153 N 0.95796 0.03182 0.69357 0.0
C2154 C 0.96209 0.97602 0.77615 0.0
C2155 C 0.96134 0.01313 0.71985 0.0
N2156 N 0.96487 0.02493 0.80677 0.0
N2157 N 0.96095 0.96411 0.68923 0.0
H2158 H 0.9576 0.0565 0.69516 0.0
H2159 H 0.95356 0.02331 0.6708 0.0
H2160 H 0.96008 0.93943 0.68778 0.0
H2161 H 0.96124 0.97535 0.66723 0.0
H2162 H 0.96603 0.01361 0.82869 0.0
H2163 H 0.96486 0.04962 0.80836 0.0
H2164 H 0.95623 0.96602 0.8255 0.0
H2165 H 0.9582 0.93275 0.80099 0.0
C2166 C 0.78339 0.02085 0.47711 0.0
C2167 C 0.75539 0.01727 0.45878 0.0
C2168 C 0.72304 0.01896 0.50721 0.0
C2169 C 0.75122 0.01787 0.52562 0.0
N2170 N 0.80737 0.02724 0.52941 0.0
N2171 N 0.69875 0.02247 0.45477 0.0
C2172 C 0.78116 0.02246 0.51092 0.0
C2173 C 0.7252 0.01999 0.47338 0.0
N2174 N 0.81209 0.0209 0.46196 0.0
N2175 N 0.69437 0.01729 0.52235 0.0
H2176 H 0.69998 0.02325 0.43003 0.0
H2177 H 0.67597 0.02618 0.46352 0.0
H2178 H 0.69248 0.01821 0.54709 0.0
H2179 H 0.67271 0.01455 0.51085 0.0
H2180 H 0.83391 0.02003 0.47346 0.0
H2181 H 0.81387 0.02134 0.43719 0.0
H2182 H 0.8298 0.03245 0.52052 0.0
H2183 H 0.80616 0.02836 0.55414 0.0
C2184 C 0.29328 0.47984 0.48759 0.0
C2185 C 0.26351 0.47654 0.47228 0.0
C2186 C 0.23656 0.47451 0.52398 0.0
C2187 C 0.26605 0.48042 0.53919 0.0
N2188 N 0.323 0.47936 0.53717 0.0
N2189 N 0.20871 0.46153 0.47495 0.0
C2190 C 0.29465 0.47974 0.52143 0.0
C2191 C 0.2358 0.47048 0.49033 0.0
N2192 N 0.31985 0.48515 0.46972 0.0
N2193 N 0.20916 0.47503 0.54136 0.0
H2194 H 0.20799 0.45856 0.45031 0.0
H2195 H 0.1881 0.45435 0.48654 0.0
H2196 H 0.20896 0.47715 0.56606 0.0
H2197 H 0.18658 0.47477 0.53134 0.0
H2198 H 0.34166 0.49179 0.47923 0.0
H2199 H 0.31965 0.48406 0.44494 0.0
H2200 H 0.34484 0.47645 0.52597 0.0
H2201 H 0.32433 0.47911 0.56196 0.0
C2202 C 0.76428 0.9622 0.97083 0.0
C2203 C 0.73537 0.97191 0.95665 0.0
C2204 C 0.70878 0.96898 0.00855 0.0
C2205 C 0.73887 0.96632 0.02323 0.0
N2206 N 0.79467 0.95563 0.0197 0.0
N2207 N 0.67902 0.97923 0.95994 0.0
C2208 C 0.76637 0.9606 0.00466 0.0
C2209 C 0.70708 0.97286 0.97491 0.0
N2210 N 0.78977 0.95571 0.95186 0.0
N2211 N 0.68219 0.96888 0.02714 0.0
H2212 H 0.6774 0.98068 0.9352 0.0
H2213 H 0.65762 0.98329 0.97157 0.0
H2214 H 0.6834 0.96592 0.05176 0.0
H2215 H 0.65912 0.96953 0.0184 0.0
H2216 H 0.81131 0.947 0.96015 0.0
H2217 H 0.78844 0.95685 0.92712 0.0
H2218 H 0.81649 0.9544 0.00821 0.0
H2219 H 0.79618 0.95315 0.04436 0.0
C2220 C 0.2217 0.53428 0.98648 0.0
C2221 C 0.25158 0.53194 0.97138 0.0
C2222 C 0.27832 0.53758 0.02286 0.0
C2223 C 0.24879 0.53213 0.03807 0.0
N2224 N 0.19191 0.53216 0.03614 0.0
N2225 N 0.30816 0.53709 0.97316 0.0
C2226 C 0.22021 0.53346 0.02033 0.0
C2227 C 0.27986 0.53638 0.989 0.0
N2228 N 0.19504 0.5358 0.96811 0.0
N2229 N 0.30479 0.54254 0.04091 0.0
H2230 H 0.30925 0.53733 0.94835 0.0
H2231 H 0.33027 0.53709 0.98412 0.0
H2232 H 0.30391 0.54353 0.06565 0.0
H2233 H 0.32701 0.54802 0.03165 0.0
H2234 H 0.17214 0.53828 0.97698 0.0
H2235 H 0.19635 0.53654 0.94332 0.0
H2236 H 0.16987 0.53051 0.02518 0.0
H2237 H 0.19075 0.53283 0.06095 0.0
C2238 C 0.48818 0.78784 0.03454 0.0
C2239 C 0.47021 0.75979 0.03086 0.0
C2240 C 0.51813 0.72809 0.03895 0.0
C2241 C 0.53655 0.75577 0.03455 0.0
N2242 N 0.54011 0.81262 0.03169 0.0
N2243 N 0.46659 0.70298 0.0332 0.0
C2244 C 0.52189 0.786 0.03443 0.0
C2245 C 0.48462 0.72978 0.03519 0.0
N2246 N 0.47267 0.81612 0.03711 0.0
N2247 N 0.53307 0.70022 0.04587 0.0
H2248 H 0.4419 0.7037 0.0316 0.0
H2249 H 0.47596 0.6802 0.03223 0.0
H2250 H 0.55767 0.69894 0.04868 0.0
H2251 H 0.52121 0.67934 0.05152 0.0
H2252 H 0.48392 0.83753 0.04196 0.0
H2253 H 0.44791 0.81744 0.03713 0.0
H2254 H 0.53093 0.83513 0.0276 0.0
H2255 H 0.56483 0.81199 0.03255 0.0
C2256 C 0.46965 0.28463 0.46845 0.0
C2257 C 0.45468 0.25481 0.47154 0.0
C2258 C 0.50548 0.22767 0.46413 0.0
C2259 C 0.52092 0.25749 0.46569 0.0
N2260 N 0.51852 0.31379 0.45855 0.0
N2261 N 0.45535 0.19894 0.46192 0.0
C2262 C 0.50308 0.28585 0.46383 0.0
C2263 C 0.47171 0.22663 0.46532 0.0
N2264 N 0.45206 0.31153 0.47229 0.0
N2265 N 0.52311 0.20053 0.46407 0.0
H2266 H 0.43059 0.19826 0.46301 0.0
H2267 H 0.46575 0.17753 0.45547 0.0
H2268 H 0.54779 0.20071 0.46224 0.0
H2269 H 0.51357 0.17795 0.46664 0.0
H2270 H 0.46169 0.33416 0.47395 0.0
H2271 H 0.42739 0.31082 0.47451 0.0
H2272 H 0.50708 0.33535 0.45508 0.0
H2273 H 0.54305 0.31469 0.45503 0.0
C2274 C 0.97214 0.2731 0.53167 0.0
C2275 C 0.95487 0.24511 0.52524 0.0
C2276 C 0.00346 0.21381 0.5305 0.0
C2277 C 0.02126 0.24222 0.52907 0.0
N2278 N 0.02368 0.29903 0.53233 0.0
N2279 N 0.95211 0.18845 0.52305 0.0
C2280 C 0.00592 0.27197 0.53189 0.0
C2281 C 0.96989 0.2152 0.52701 0.0
N2282 N 0.95595 0.30074 0.53623 0.0
N2283 N 0.01903 0.18569 0.53428 0.0
H2284 H 0.92738 0.18929 0.52166 0.0
H2285 H 0.96158 0.16583 0.52055 0.0
H2286 H 0.04365 0.18464 0.53695 0.0
H2287 H 0.0077 0.16401 0.5373 0.0
H2288 H 0.96659 0.32199 0.54281 0.0
H2289 H 0.93117 0.30151 0.53589 0.0
H2290 H 0.0142 0.32173 0.53077 0.0
H2291 H 0.04841 0.29862 0.53347 0.0
C2292 C 0.48165 0.01214 0.71612 0.0
C2293 C 0.48453 0.03158 0.74343 0.0
C2294 C 0.48136 0.98458 0.77739 0.0
C2295 C 0.48585 0.96532 0.75021 0.0
N2296 N 0.48836 0.95975 0.69331 0.0
N2297 N 0.48561 0.03708 0.80046 0.0
C2298 C 0.48452 0.97871 0.71935 0.0
C2299 C 0.48303 0.01809 0.77428 0.0
N2300 N 0.47664 0.02593 0.68718 0.0
N2301 N 0.47622 0.97051 0.80618 0.0
H2302 H 0.48613 0.06172 0.79905 0.0
H2303 H 0.48872 0.02848 0.82344 0.0
H2304 H 0.47494 0.94592 0.80862 0.0
H2305 H 0.47035 0.98293 0.82674 0.0
H2306 H 0.47187 0.01323 0.66652 0.0
H2307 H 0.47437 0.05043 0.68456 0.0
H2308 H 0.4917 0.96835 0.67036 0.0
H2309 H 0.48946 0.93512 0.69492 0.0
C2310 C 0.54028 0.51475 0.7242 0.0
C2311 C 0.54005 0.53002 0.75422 0.0
C2312 C 0.54185 0.47878 0.78138 0.0
C2313 C 0.53717 0.46377 0.75171 0.0
N2314 N 0.5426 0.46486 0.69509 0.0
N2315 N 0.55128 0.52798 0.81009 0.0
C2316 C 0.54056 0.48104 0.72311 0.0
C2317 C 0.54484 0.51233 0.78242 0.0
N2318 N 0.53776 0.5324 0.69711 0.0
N2319 N 0.54103 0.46099 0.80848 0.0
H2320 H 0.5536 0.5526 0.81084 0.0
H2321 H 0.55678 0.51676 0.83141 0.0
H2322 H 0.53998 0.43629 0.80774 0.0
H2323 H 0.54079 0.47041 0.83133 0.0
H2324 H 0.53427 0.52283 0.67459 0.0
H2325 H 0.53845 0.55709 0.69735 0.0
H2326 H 0.54686 0.4755 0.67318 0.0
H2327 H 0.54258 0.44013 0.69445 0.0
C2328 C 0.01869 0.215 0.02774 0.0
C2329 C 0.03599 0.24369 0.02569 0.0
C2330 C 0.98698 0.27444 0.03144 0.0
C2331 C 0.96945 0.24585 0.02992 0.0
N2332 N 0.96758 0.18941 0.03625 0.0
N2333 N 0.03883 0.29967 0.03501 0.0
C2334 C 0.98513 0.21622 0.03163 0.0
C2335 C 0.02075 0.2731 0.03107 0.0
N2336 N 0.03421 0.18685 0.02385 0.0
N2337 N 0.97124 0.30272 0.03111 0.0
H2338 H 0.0636 0.29882 0.0348 0.0
H2339 H 0.02967 0.32174 0.04107 0.0
H2340 H 0.94655 0.30414 0.03258 0.0
H2341 H 0.98231 0.32459 0.02846 0.0
H2342 H 0.02284 0.16512 0.0214 0.0
H2343 H 0.05888 0.18549 0.02216 0.0
H2344 H 0.97736 0.16706 0.03983 0.0
H2345 H 0.94298 0.19017 0.03916 0.0
C2346 C 0.53105 0.02356 0.22182 0.0
C2347 C 0.52618 0.04093 0.25018 0.0
C2348 C 0.52871 0.99189 0.28099 0.0
C2349 C 0.52547 0.9746 0.25236 0.0
N2350 N 0.5272 0.97267 0.19519 0.0
N2351 N 0.52406 0.04289 0.30731 0.0
C2352 C 0.52875 0.98997 0.22259 0.0
C2353 C 0.52713 0.02553 0.28009 0.0
N2354 N 0.53693 0.03957 0.19423 0.0
N2355 N 0.53239 0.97581 0.30892 0.0
H2356 H 0.52395 0.06759 0.30727 0.0
H2357 H 0.52071 0.033 0.32973 0.0
H2358 H 0.53359 0.95111 0.30962 0.0
H2359 H 0.537 0.98668 0.33064 0.0
H2360 H 0.54282 0.02861 0.17286 0.0
H2361 H 0.53863 0.06425 0.19366 0.0
H2362 H 0.5256 0.98263 0.17262 0.0
H2363 H 0.52657 0.94798 0.19518 0.0
C2364 C 0.47377 0.49104 0.22402 0.0
C2365 C 0.47447 0.47409 0.25307 0.0
C2366 C 0.46549 0.52331 0.2824 0.0
C2367 C 0.4724 0.54042 0.25432 0.0
N2368 N 0.47966 0.54196 0.1977 0.0
N2369 N 0.46779 0.47274 0.30989 0.0
C2370 C 0.47457 0.52469 0.2247 0.0
C2371 C 0.46839 0.48974 0.28225 0.0
N2372 N 0.47307 0.47467 0.19602 0.0
N2373 N 0.45717 0.53954 0.30922 0.0
H2374 H 0.46895 0.44807 0.31027 0.0
H2375 H 0.46717 0.48294 0.3324 0.0
H2376 H 0.4551 0.56419 0.30934 0.0
H2377 H 0.44976 0.52876 0.33019 0.0
H2378 H 0.47047 0.48529 0.17385 0.0
H2379 H 0.47237 0.44995 0.19538 0.0
H2380 H 0.48527 0.53206 0.17576 0.0
H2381 H 0.4791 0.56668 0.19766 0.0
C2382 C 0.01972 0.72801 0.96373 0.0
C2383 C 0.0347 0.75779 0.96722 0.0
C2384 C 0.9835 0.78486 0.96324 0.0
C2385 C 0.96829 0.75494 0.9647 0.0
N2386 N 0.97044 0.69902 0.9554 0.0
N2387 N 0.03332 0.81401 0.95977 0.0
C2388 C 0.98611 0.7268 0.96077 0.0
C2389 C 0.01728 0.78609 0.96292 0.0
N2390 N 0.03756 0.70106 0.96554 0.0
N2391 N 0.9657 0.81185 0.96479 0.0
H2392 H 0.0581 0.81486 0.95967 0.0
H2393 H 0.02252 0.83559 0.95469 0.0
H2394 H 0.94098 0.81148 0.96386 0.0
H2395 H 0.97517 0.83443 0.96759 0.0
H2396 H 0.02809 0.67833 0.96668 0.0
H2397 H 0.06231 0.70176 0.96657 0.0
H2398 H 0.98166 0.6776 0.9506 0.0
H2399 H 0.94575 0.69825 0.95325 0.0
loop_
_geom_bond_atom_site_label_1
_geom_bond_atom_site_label_2
_geom_bond_distance
_geom_bond_site_symmetry_2
_ccdc_geom_bond_type
O0 Cd1 2.223 . S
O0 C8 1.315 . S
Cd1 O0 2.223 . S
Cd1 O4 2.297 1_455 S
Cd1 O5 2.439 . S
Cd1 O11 2.240 . S
Cd2 O3 2.240 . S
Cd2 O10 2.223 . S
Cd2 O12 2.297 . S
Cd2 O13 2.439 . S
O3 Cd2 2.240 . S
O3 C8 1.279 . S
O4 Cd1 2.297 1_655 S
O4 C6 1.247 1_655 S
O5 Cd1 2.439 . S
O5 C6 1.208 . S
C6 O4 1.247 1_455 S
C6 O5 1.208 . S
C7 O12 1.247 . S
C7 O13 1.208 . S
C8 O0 1.315 . S
C8 O3 1.279 . S
C9 O10 1.315 . S
C9 O11 1.279 . S
O10 Cd2 2.223 . S
O10 C9 1.315 . S
O11 Cd1 2.240 . S
O11 C9 1.279 . S
O12 Cd2 2.297 . S
O12 C7 1.247 . S
O13 Cd2 2.439 . S
O13 C7 1.208 . S
O14 Cd15 2.223 . S
O14 C22 1.315 . S
Cd15 O14 2.223 . S
Cd15 O18 2.297 1_655 S
Cd15 O19 2.439 . S
Cd15 O25 2.240 . S
Cd16 O17 2.240 . S
Cd16 O24 2.223 . S
Cd16 O26 2.297 . S
Cd16 O27 2.439 . S
O17 Cd16 2.240 . S
O17 C22 1.279 . S
O18 Cd15 2.297 1_455 S
O18 C20 1.247 1_455 S
O19 Cd15 2.439 . S
O19 C20 1.208 . S
C20 O18 1.247 1_655 S
C20 O19 1.208 . S
C21 O26 1.247 . S
C21 O27 1.208 . S
C22 O14 1.315 . S
C22 O17 1.279 . S
C23 O24 1.315 . S
C23 O25 1.279 . S
O24 Cd16 2.223 . S
O24 C23 1.315 . S
O25 Cd15 2.240 . S
O25 C23 1.279 . S
O26 Cd16 2.297 . S
O26 C21 1.247 . S
O27 Cd16 2.439 . S
O27 C21 1.208 . S
O28 Cd29 2.223 . S
O28 C36 1.315 . S
Cd29 O28 2.223 . S
Cd29 O32 2.297 1_455 S
Cd29 O33 2.439 . S
Cd29 O39 2.240 . S
Cd30 O31 2.240 . S
Cd30 O38 2.223 . S
Cd30 O40 2.297 . S
Cd30 O41 2.439 . S
O31 Cd30 2.240 . S
O31 C36 1.279 . S
O32 Cd29 2.297 1_655 S
O32 C34 1.247 1_655 S
O33 Cd29 2.439 . S
O33 C34 1.208 . S
C34 O32 1.247 1_455 S
C34 O33 1.208 . S
C35 O40 1.247 . S
C35 O41 1.208 . S
C36 O28 1.315 . S
C36 O31 1.279 . S
C37 O38 1.315 . S
C37 O39 1.279 . S
O38 Cd30 2.223 . S
O38 C37 1.315 . S
O39 Cd29 2.240 . S
O39 C37 1.279 . S
O40 Cd30 2.297 . S
O40 C35 1.247 . S
O41 Cd30 2.439 . S
O41 C35 1.208 . S
O42 Cd43 2.223 . S
O42 C50 1.315 . S
Cd43 O42 2.223 . S
Cd43 O46 2.297 1_655 S
Cd43 O47 2.439 . S
Cd43 O53 2.240 . S
Cd44 O45 2.240 . S
Cd44 O52 2.223 . S
Cd44 O54 2.297 . S
Cd44 O55 2.439 . S
O45 Cd44 2.240 . S
O45 C50 1.279 . S
O46 Cd43 2.297 1_455 S
O46 C48 1.247 1_455 S
O47 Cd43 2.439 . S
O47 C48 1.208 . S
C48 O46 1.247 1_655 S
C48 O47 1.208 . S
C49 O54 1.247 . S
C49 O55 1.208 . S
C50 O42 1.315 . S
C50 O45 1.279 . S
C51 O52 1.315 . S
C51 O53 1.279 . S
O52 Cd44 2.223 . S
O52 C51 1.315 . S
O53 Cd43 2.240 . S
O53 C51 1.279 . S
O54 Cd44 2.297 . S
O54 C49 1.247 . S
O55 Cd44 2.439 . S
O55 C49 1.208 . S
O56 Cd57 2.223 . S
O56 C64 1.315 . S
Cd57 O56 2.223 . S
Cd57 O60 2.297 1_545 S
Cd57 O61 2.439 . S
Cd57 O67 2.240 . S
Cd58 O59 2.240 . S
Cd58 O66 2.223 . S
Cd58 O68 2.297 . S
Cd58 O69 2.439 . S
O59 Cd58 2.240 . S
O59 C64 1.279 . S
O60 Cd57 2.297 1_565 S
O60 C62 1.247 1_565 S
O61 Cd57 2.439 . S
O61 C62 1.208 . S
C62 O60 1.247 1_545 S
C62 O61 1.208 . S
C63 O68 1.247 . S
C63 O69 1.208 . S
C64 O56 1.315 . S
C64 O59 1.279 . S
C65 O66 1.315 . S
C65 O67 1.279 . S
O66 Cd58 2.223 . S
O66 C65 1.315 . S
O67 Cd57 2.240 . S
O67 C65 1.279 . S
O68 Cd58 2.297 . S
O68 C63 1.247 . S
O69 Cd58 2.439 . S
O69 C63 1.208 . S
O70 Cd71 2.223 . S
O70 C78 1.315 . S
Cd71 O70 2.223 . S
Cd71 O74 2.297 . S
Cd71 O75 2.439 . S
Cd71 O81 2.240 . S
Cd72 O73 2.240 . S
Cd72 O80 2.223 . S
Cd72 O82 2.297 . S
Cd72 O83 2.439 . S
O73 Cd72 2.240 . S
O73 C78 1.279 . S
O74 Cd71 2.297 . S
O74 C76 1.247 . S
O75 Cd71 2.439 . S
O75 C76 1.208 . S
C76 O74 1.247 . S
C76 O75 1.208 . S
C77 O82 1.247 . S
C77 O83 1.208 . S
C78 O70 1.315 . S
C78 O73 1.279 . S
C79 O80 1.315 . S
C79 O81 1.279 . S
O80 Cd72 2.223 . S
O80 C79 1.315 . S
O81 Cd71 2.240 . S
O81 C79 1.279 . S
O82 Cd72 2.297 . S
O82 C77 1.247 . S
O83 Cd72 2.439 . S
O83 C77 1.208 . S
O84 Cd85 2.223 . S
O84 C92 1.315 . S
Cd85 O84 2.223 . S
Cd85 O88 2.297 1_565 S
Cd85 O89 2.439 . S
Cd85 O95 2.240 . S
Cd86 O87 2.240 . S
Cd86 O94 2.223 . S
Cd86 O96 2.297 . S
Cd86 O97 2.439 . S
O87 Cd86 2.240 . S
O87 C92 1.279 . S
O88 Cd85 2.297 1_545 S
O88 C90 1.247 1_545 S
O89 Cd85 2.439 . S
O89 C90 1.208 . S
C90 O88 1.247 1_565 S
C90 O89 1.208 . S
C91 O96 1.247 . S
C91 O97 1.208 . S
C92 O84 1.315 . S
C92 O87 1.279 . S
C93 O94 1.315 . S
C93 O95 1.279 . S
O94 Cd86 2.223 . S
O94 C93 1.315 . S
O95 Cd85 2.240 . S
O95 C93 1.279 . S
O96 Cd86 2.297 . S
O96 C91 1.247 . S
O97 Cd86 2.439 . S
O97 C91 1.208 . S
O98 Cd99 2.223 . S
O98 C106 1.315 . S
Cd99 O98 2.223 . S
Cd99 O102 2.297 . S
Cd99 O103 2.439 . S
Cd99 O109 2.240 . S
Cd100 O101 2.240 . S
Cd100 O108 2.223 . S
Cd100 O110 2.297 . S
Cd100 O111 2.439 . S
O101 Cd100 2.240 . S
O101 C106 1.279 . S
O102 Cd99 2.297 . S
O102 C104 1.247 . S
O103 Cd99 2.439 . S
O103 C104 1.208 . S
C104 O102 1.247 . S
C104 O103 1.208 . S
C105 O110 1.247 . S
C105 O111 1.208 . S
C106 O98 1.315 . S
C106 O101 1.279 . S
C107 O108 1.315 . S
C107 O109 1.279 . S
O108 Cd100 2.223 . S
O108 C107 1.315 . S
O109 Cd99 2.240 . S
O109 C107 1.279 . S
O110 Cd100 2.297 . S
O110 C105 1.247 . S
O111 Cd100 2.439 . S
O111 C105 1.208 . S
O112 Cd113 2.223 . S
O112 C120 1.315 . S
Cd113 O112 2.223 . S
Cd113 O116 2.297 1_554 S
Cd113 O117 2.439 . S
Cd113 O123 2.240 . S
Cd114 O115 2.240 . S
Cd114 O122 2.223 . S
Cd114 O124 2.297 . S
Cd114 O125 2.439 . S
O115 Cd114 2.240 . S
O115 C120 1.279 . S
O116 Cd113 2.297 1_556 S
O116 C118 1.247 1_556 S
O117 Cd113 2.439 . S
O117 C118 1.208 . S
C118 O116 1.247 1_554 S
C118 O117 1.208 . S
C119 O124 1.247 . S
C119 O125 1.208 . S
C120 O112 1.315 . S
C120 O115 1.279 . S
C121 O122 1.315 . S
C121 O123 1.279 . S
O122 Cd114 2.223 . S
O122 C121 1.315 . S
O123 Cd113 2.240 . S
O123 C121 1.279 . S
O124 Cd114 2.297 . S
O124 C119 1.247 . S
O125 Cd114 2.439 . S
O125 C119 1.208 . S
O126 Cd127 2.223 . S
O126 C134 1.315 . S
Cd127 O126 2.223 . S
Cd127 O130 2.297 . S
Cd127 O131 2.439 . S
Cd127 O137 2.240 . S
Cd128 O129 2.240 . S
Cd128 O136 2.223 . S
Cd128 O138 2.297 . S
Cd128 O139 2.439 . S
O129 Cd128 2.240 . S
O129 C134 1.279 . S
O130 Cd127 2.297 . S
O130 C132 1.247 . S
O131 Cd127 2.439 . S
O131 C132 1.208 . S
C132 O130 1.247 . S
C132 O131 1.208 . S
C133 O138 1.247 . S
C133 O139 1.208 . S
C134 O126 1.315 . S
C134 O129 1.279 . S
C135 O136 1.315 . S
C135 O137 1.279 . S
O136 Cd128 2.223 . S
O136 C135 1.315 . S
O137 Cd127 2.240 . S
O137 C135 1.279 . S
O138 Cd128 2.297 . S
O138 C133 1.247 . S
O139 Cd128 2.439 . S
O139 C133 1.208 . S
O140 Cd141 2.223 . S
O140 C148 1.315 . S
Cd141 O140 2.223 . S
Cd141 O144 2.297 . S
Cd141 O145 2.439 . S
Cd141 O151 2.240 . S
Cd142 O143 2.240 . S
Cd142 O150 2.223 . S
Cd142 O152 2.297 . S
Cd142 O153 2.439 . S
O143 Cd142 2.240 . S
O143 C148 1.279 . S
O144 Cd141 2.297 . S
O144 C146 1.247 . S
O145 Cd141 2.439 . S
O145 C146 1.208 . S
C146 O144 1.247 . S
C146 O145 1.208 . S
C147 O152 1.247 . S
C147 O153 1.208 . S
C148 O140 1.315 . S
C148 O143 1.279 . S
C149 O150 1.315 . S
C149 O151 1.279 . S
O150 Cd142 2.223 . S
O150 C149 1.315 . S
O151 Cd141 2.240 . S
O151 C149 1.279 . S
O152 Cd142 2.297 . S
O152 C147 1.247 . S
O153 Cd142 2.439 . S
O153 C147 1.208 . S
O154 Cd155 2.223 . S
O154 C162 1.315 . S
Cd155 O154 2.223 . S
Cd155 O158 2.297 . S
Cd155 O159 2.439 . S
Cd155 O165 2.240 . S
Cd156 O157 2.240 . S
Cd156 O164 2.223 . S
Cd156 O166 2.297 . S
Cd156 O167 2.439 . S
O157 Cd156 2.240 . S
O157 C162 1.279 . S
O158 Cd155 2.297 . S
O158 C160 1.247 . S
O159 Cd155 2.439 . S
O159 C160 1.208 . S
C160 O158 1.247 . S
C160 O159 1.208 . S
C161 O166 1.247 . S
C161 O167 1.208 . S
C162 O154 1.315 . S
C162 O157 1.279 . S
C163 O164 1.315 . S
C163 O165 1.279 . S
O164 Cd156 2.223 . S
O164 C163 1.315 . S
O165 Cd155 2.240 . S
O165 C163 1.279 . S
O166 Cd156 2.297 . S
O166 C161 1.247 . S
O167 Cd156 2.439 . S
O167 C161 1.208 . S
O168 Cd169 2.223 . S
O168 C176 1.315 . S
Cd169 O168 2.223 . S
Cd169 O172 2.297 1_655 S
Cd169 O173 2.439 . S
Cd169 O179 2.240 . S
Cd170 O171 2.240 . S
Cd170 O178 2.223 . S
Cd170 O180 2.297 . S
Cd170 O181 2.439 . S
O171 Cd170 2.240 . S
O171 C176 1.279 . S
O172 Cd169 2.297 1_455 S
O172 C174 1.247 1_455 S
O173 Cd169 2.439 . S
O173 C174 1.208 . S
C174 O172 1.247 1_655 S
C174 O173 1.208 . S
C175 O180 1.247 . S
C175 O181 1.208 . S
C176 O168 1.315 . S
C176 O171 1.279 . S
C177 O178 1.315 . S
C177 O179 1.279 . S
O178 Cd170 2.223 . S
O178 C177 1.315 . S
O179 Cd169 2.240 . S
O179 C177 1.279 . S
O180 Cd170 2.297 . S
O180 C175 1.247 . S
O181 Cd170 2.439 . S
O181 C175 1.208 . S
O182 Cd183 2.223 . S
O182 C190 1.315 . S
Cd183 O182 2.223 . S
Cd183 O186 2.297 1_455 S
Cd183 O187 2.439 . S
Cd183 O193 2.240 . S
Cd184 O185 2.240 . S
Cd184 O192 2.223 . S
Cd184 O194 2.297 . S
Cd184 O195 2.439 . S
O185 Cd184 2.240 . S
O185 C190 1.279 . S
O186 Cd183 2.297 1_655 S
O186 C188 1.247 1_655 S
O187 Cd183 2.439 . S
O187 C188 1.208 . S
C188 O186 1.247 1_455 S
C188 O187 1.208 . S
C189 O194 1.247 . S
C189 O195 1.208 . S
C190 O182 1.315 . S
C190 O185 1.279 . S
C191 O192 1.315 . S
C191 O193 1.279 . S
O192 Cd184 2.223 . S
O192 C191 1.315 . S
O193 Cd183 2.240 . S
O193 C191 1.279 . S
O194 Cd184 2.297 . S
O194 C189 1.247 . S
O195 Cd184 2.439 . S
O195 C189 1.208 . S
O196 Cd197 2.223 . S
O196 C204 1.315 . S
Cd197 O196 2.223 . S
Cd197 O200 2.297 1_655 S
Cd197 O201 2.439 . S
Cd197 O207 2.240 . S
Cd198 O199 2.240 . S
Cd198 O206 2.223 . S
Cd198 O208 2.297 . S
Cd198 O209 2.439 . S
O199 Cd198 2.240 . S
O199 C204 1.279 . S
O200 Cd197 2.297 1_455 S
O200 C202 1.247 1_455 S
O201 Cd197 2.439 . S
O201 C202 1.208 . S
C202 O200 1.247 1_655 S
C202 O201 1.208 . S
C203 O208 1.247 . S
C203 O209 1.208 . S
C204 O196 1.315 . S
C204 O199 1.279 . S
C205 O206 1.315 . S
C205 O207 1.279 . S
O206 Cd198 2.223 . S
O206 C205 1.315 . S
O207 Cd197 2.240 . S
O207 C205 1.279 . S
O208 Cd198 2.297 . S
O208 C203 1.247 . S
O209 Cd198 2.439 . S
O209 C203 1.208 . S
O210 Cd211 2.223 . S
O210 C218 1.315 . S
Cd211 O210 2.223 . S
Cd211 O214 2.297 1_455 S
Cd211 O215 2.439 . S
Cd211 O221 2.240 . S
Cd212 O213 2.240 . S
Cd212 O220 2.223 . S
Cd212 O222 2.297 . S
Cd212 O223 2.439 . S
O213 Cd212 2.240 . S
O213 C218 1.279 . S
O214 Cd211 2.297 1_655 S
O214 C216 1.247 1_655 S
O215 Cd211 2.439 . S
O215 C216 1.208 . S
C216 O214 1.247 1_455 S
C216 O215 1.208 . S
C217 O222 1.247 . S
C217 O223 1.208 . S
C218 O210 1.315 . S
C218 O213 1.279 . S
C219 O220 1.315 . S
C219 O221 1.279 . S
O220 Cd212 2.223 . S
O220 C219 1.315 . S
O221 Cd211 2.240 . S
O221 C219 1.279 . S
O222 Cd212 2.297 . S
O222 C217 1.247 . S
O223 Cd212 2.439 . S
O223 C217 1.208 . S
O224 Cd225 2.223 . S
O224 C232 1.315 . S
Cd225 O224 2.223 . S
Cd225 O228 2.297 1_565 S
Cd225 O229 2.439 . S
Cd225 O235 2.240 . S
Cd226 O227 2.240 . S
Cd226 O234 2.223 . S
Cd226 O236 2.297 . S
Cd226 O237 2.439 . S
O227 Cd226 2.240 . S
O227 C232 1.279 . S
O228 Cd225 2.297 1_545 S
O228 C230 1.247 1_545 S
O229 Cd225 2.439 . S
O229 C230 1.208 . S
C230 O228 1.247 1_565 S
C230 O229 1.208 . S
C231 O236 1.247 . S
C231 O237 1.208 . S
C232 O224 1.315 . S
C232 O227 1.279 . S
C233 O234 1.315 . S
C233 O235 1.279 . S
O234 Cd226 2.223 . S
O234 C233 1.315 . S
O235 Cd225 2.240 . S
O235 C233 1.279 . S
O236 Cd226 2.297 . S
O236 C231 1.247 . S
O237 Cd226 2.439 . S
O237 C231 1.208 . S
O238 Cd239 2.223 . S
O238 C246 1.315 . S
Cd239 O238 2.223 . S
Cd239 O242 2.297 . S
Cd239 O243 2.439 . S
Cd239 O249 2.240 . S
Cd240 O241 2.240 . S
Cd240 O248 2.223 . S
Cd240 O250 2.297 . S
Cd240 O251 2.439 . S
O241 Cd240 2.240 . S
O241 C246 1.279 . S
O242 Cd239 2.297 . S
O242 C244 1.247 . S
O243 Cd239 2.439 . S
O243 C244 1.208 . S
C244 O242 1.247 . S
C244 O243 1.208 . S
C245 O250 1.247 . S
C245 O251 1.208 . S
C246 O238 1.315 . S
C246 O241 1.279 . S
C247 O248 1.315 . S
C247 O249 1.279 . S
O248 Cd240 2.223 . S
O248 C247 1.315 . S
O249 Cd239 2.240 . S
O249 C247 1.279 . S
O250 Cd240 2.297 . S
O250 C245 1.247 . S
O251 Cd240 2.439 . S
O251 C245 1.208 . S
O252 Cd253 2.223 . S
O252 C260 1.315 . S
Cd253 O252 2.223 . S
Cd253 O256 2.297 1_545 S
Cd253 O257 2.439 . S
Cd253 O263 2.240 . S
Cd254 O255 2.240 . S
Cd254 O262 2.223 . S
Cd254 O264 2.297 . S
Cd254 O265 2.439 . S
O255 Cd254 2.240 . S
O255 C260 1.279 . S
O256 Cd253 2.297 1_565 S
O256 C258 1.247 1_565 S
O257 Cd253 2.439 . S
O257 C258 1.208 . S
C258 O256 1.247 1_545 S
C258 O257 1.208 . S
C259 O264 1.247 . S
C259 O265 1.208 . S
C260 O252 1.315 . S
C260 O255 1.279 . S
C261 O262 1.315 . S
C261 O263 1.279 . S
O262 Cd254 2.223 . S
O262 C261 1.315 . S
O263 Cd253 2.240 . S
O263 C261 1.279 . S
O264 Cd254 2.297 . S
O264 C259 1.247 . S
O265 Cd254 2.439 . S
O265 C259 1.208 . S
O266 Cd267 2.223 . S
O266 C274 1.315 . S
Cd267 O266 2.223 . S
Cd267 O270 2.297 . S
Cd267 O271 2.439 . S
Cd267 O277 2.240 . S
Cd268 O269 2.240 . S
Cd268 O276 2.223 . S
Cd268 O278 2.297 . S
Cd268 O279 2.439 . S
O269 Cd268 2.240 . S
O269 C274 1.279 . S
O270 Cd267 2.297 . S
O270 C272 1.247 . S
O271 Cd267 2.439 . S
O271 C272 1.208 . S
C272 O270 1.247 . S
C272 O271 1.208 . S
C273 O278 1.247 . S
C273 O279 1.208 . S
C274 O266 1.315 . S
C274 O269 1.279 . S
C275 O276 1.315 . S
C275 O277 1.279 . S
O276 Cd268 2.223 . S
O276 C275 1.315 . S
O277 Cd267 2.240 . S
O277 C275 1.279 . S
O278 Cd268 2.297 . S
O278 C273 1.247 . S
O279 Cd268 2.439 . S
O279 C273 1.208 . S
O280 Cd281 2.223 . S
O280 C288 1.315 . S
Cd281 O280 2.223 . S
Cd281 O284 2.297 1_556 S
Cd281 O285 2.439 . S
Cd281 O291 2.240 . S
Cd282 O283 2.240 . S
Cd282 O290 2.223 . S
Cd282 O292 2.297 . S
Cd282 O293 2.439 . S
O283 Cd282 2.240 . S
O283 C288 1.279 . S
O284 Cd281 2.297 1_554 S
O284 C286 1.247 1_554 S
O285 Cd281 2.439 . S
O285 C286 1.208 . S
C286 O284 1.247 1_556 S
C286 O285 1.208 . S
C287 O292 1.247 . S
C287 O293 1.208 . S
C288 O280 1.315 . S
C288 O283 1.279 . S
C289 O290 1.315 . S
C289 O291 1.279 . S
O290 Cd282 2.223 . S
O290 C289 1.315 . S
O291 Cd281 2.240 . S
O291 C289 1.279 . S
O292 Cd282 2.297 . S
O292 C287 1.247 . S
O293 Cd282 2.439 . S
O293 C287 1.208 . S
O294 Cd295 2.223 . S
O294 C302 1.315 . S
Cd295 O294 2.223 . S
Cd295 O298 2.297 . S
Cd295 O299 2.439 . S
Cd295 O305 2.240 . S
Cd296 O297 2.240 . S
Cd296 O304 2.223 . S
Cd296 O306 2.297 . S
Cd296 O307 2.439 . S
O297 Cd296 2.240 . S
O297 C302 1.279 . S
O298 Cd295 2.297 . S
O298 C300 1.247 . S
O299 Cd295 2.439 . S
O299 C300 1.208 . S
C300 O298 1.247 . S
C300 O299 1.208 . S
C301 O306 1.247 . S
C301 O307 1.208 . S
C302 O294 1.315 . S
C302 O297 1.279 . S
C303 O304 1.315 . S
C303 O305 1.279 . S
O304 Cd296 2.223 . S
O304 C303 1.315 . S
O305 Cd295 2.240 . S
O305 C303 1.279 . S
O306 Cd296 2.297 . S
O306 C301 1.247 . S
O307 Cd296 2.439 . S
O307 C301 1.208 . S
O308 Cd309 2.223 . S
O308 C316 1.315 . S
Cd309 O308 2.223 . S
Cd309 O312 2.297 . S
Cd309 O313 2.439 . S
Cd309 O319 2.240 . S
Cd310 O311 2.240 . S
Cd310 O318 2.223 . S
Cd310 O320 2.297 . S
Cd310 O321 2.439 . S
O311 Cd310 2.240 . S
O311 C316 1.279 . S
O312 Cd309 2.297 . S
O312 C314 1.247 . S
O313 Cd309 2.439 . S
O313 C314 1.208 . S
C314 O312 1.247 . S
C314 O313 1.208 . S
C315 O320 1.247 . S
C315 O321 1.208 . S
C316 O308 1.315 . S
C316 O311 1.279 . S
C317 O318 1.315 . S
C317 O319 1.279 . S
O318 Cd310 2.223 . S
O318 C317 1.315 . S
O319 Cd309 2.240 . S
O319 C317 1.279 . S
O320 Cd310 2.297 . S
O320 C315 1.247 . S
O321 Cd310 2.439 . S
O321 C315 1.208 . S
O322 Cd323 2.223 . S
O322 C330 1.315 . S
Cd323 O322 2.223 . S
Cd323 O326 2.297 . S
Cd323 O327 2.439 . S
Cd323 O333 2.240 . S
Cd324 O325 2.240 . S
Cd324 O332 2.223 . S
Cd324 O334 2.297 . S
Cd324 O335 2.439 . S
O325 Cd324 2.240 . S
O325 C330 1.279 . S
O326 Cd323 2.297 . S
O326 C328 1.247 . S
O327 Cd323 2.439 . S
O327 C328 1.208 . S
C328 O326 1.247 . S
C328 O327 1.208 . S
C329 O334 1.247 . S
C329 O335 1.208 . S
C330 O322 1.315 . S
C330 O325 1.279 . S
C331 O332 1.315 . S
C331 O333 1.279 . S
O332 Cd324 2.223 . S
O332 C331 1.315 . S
O333 Cd323 2.240 . S
O333 C331 1.279 . S
O334 Cd324 2.297 . S
O334 C329 1.247 . S
O335 Cd324 2.439 . S
O335 C329 1.208 . S
O336 Cd337 2.223 . S
O336 C344 1.315 . S
Cd337 O336 2.223 . S
Cd337 O340 2.297 . S
Cd337 O341 2.439 . S
Cd337 O347 2.240 . S
Cd338 O339 2.240 . S
Cd338 O346 2.223 . S
Cd338 O348 2.297 . S
Cd338 O349 2.439 . S
O339 Cd338 2.240 . S
O339 C344 1.279 . S
O340 Cd337 2.297 . S
O340 C342 1.247 . S
O341 Cd337 2.439 . S
O341 C342 1.208 . S
C342 O340 1.247 . S
C342 O341 1.208 . S
C343 O348 1.247 . S
C343 O349 1.208 . S
C344 O336 1.315 . S
C344 O339 1.279 . S
C345 O346 1.315 . S
C345 O347 1.279 . S
O346 Cd338 2.223 . S
O346 C345 1.315 . S
O347 Cd337 2.240 . S
O347 C345 1.279 . S
O348 Cd338 2.297 . S
O348 C343 1.247 . S
O349 Cd338 2.439 . S
O349 C343 1.208 . S
O350 Cd351 2.223 . S
O350 C358 1.315 . S
Cd351 O350 2.223 . S
Cd351 O354 2.297 . S
Cd351 O355 2.439 . S
Cd351 O361 2.240 . S
Cd352 O353 2.240 . S
Cd352 O360 2.223 . S
Cd352 O362 2.297 . S
Cd352 O363 2.439 . S
O353 Cd352 2.240 . S
O353 C358 1.279 . S
O354 Cd351 2.297 . S
O354 C356 1.247 . S
O355 Cd351 2.439 . S
O355 C356 1.208 . S
C356 O354 1.247 . S
C356 O355 1.208 . S
C357 O362 1.247 . S
C357 O363 1.208 . S
C358 O350 1.315 . S
C358 O353 1.279 . S
C359 O360 1.315 . S
C359 O361 1.279 . S
O360 Cd352 2.223 . S
O360 C359 1.315 . S
O361 Cd351 2.240 . S
O361 C359 1.279 . S
O362 Cd352 2.297 . S
O362 C357 1.247 . S
O363 Cd352 2.439 . S
O363 C357 1.208 . S
O364 Cd365 2.223 . S
O364 C372 1.315 . S
Cd365 O364 2.223 . S
Cd365 O368 2.297 . S
Cd365 O369 2.439 . S
Cd365 O375 2.240 . S
Cd366 O367 2.240 . S
Cd366 O374 2.223 . S
Cd366 O376 2.297 . S
Cd366 O377 2.439 . S
O367 Cd366 2.240 . S
O367 C372 1.279 . S
O368 Cd365 2.297 . S
O368 C370 1.247 . S
O369 Cd365 2.439 . S
O369 C370 1.208 . S
C370 O368 1.247 . S
C370 O369 1.208 . S
C371 O376 1.247 . S
C371 O377 1.208 . S
C372 O364 1.315 . S
C372 O367 1.279 . S
C373 O374 1.315 . S
C373 O375 1.279 . S
O374 Cd366 2.223 . S
O374 C373 1.315 . S
O375 Cd365 2.240 . S
O375 C373 1.279 . S
O376 Cd366 2.297 . S
O376 C371 1.247 . S
O377 Cd366 2.439 . S
O377 C371 1.208 . S
O378 Cd379 2.223 . S
O378 C386 1.315 . S
Cd379 O378 2.223 . S
Cd379 O382 2.297 . S
Cd379 O383 2.439 . S
Cd379 O389 2.240 . S
Cd380 O381 2.240 . S
Cd380 O388 2.223 . S
Cd380 O390 2.297 . S
Cd380 O391 2.439 . S
O381 Cd380 2.240 . S
O381 C386 1.279 . S
O382 Cd379 2.297 . S
O382 C384 1.247 . S
O383 Cd379 2.439 . S
O383 C384 1.208 . S
C384 O382 1.247 . S
C384 O383 1.208 . S
C385 O390 1.247 . S
C385 O391 1.208 . S
C386 O378 1.315 . S
C386 O381 1.279 . S
C387 O388 1.315 . S
C387 O389 1.279 . S
O388 Cd380 2.223 . S
O388 C387 1.315 . S
O389 Cd379 2.240 . S
O389 C387 1.279 . S
O390 Cd380 2.297 . S
O390 C385 1.247 . S
O391 Cd380 2.439 . S
O391 C385 1.208 . S
O392 Cd393 2.223 . S
O392 C400 1.315 . S
Cd393 O392 2.223 . S
Cd393 O396 2.297 . S
Cd393 O397 2.439 . S
Cd393 O403 2.240 . S
Cd394 O395 2.240 . S
Cd394 O402 2.223 . S
Cd394 O404 2.297 . S
Cd394 O405 2.439 . S
O395 Cd394 2.240 . S
O395 C400 1.279 . S
O396 Cd393 2.297 . S
O396 C398 1.247 . S
O397 Cd393 2.439 . S
O397 C398 1.208 . S
C398 O396 1.247 . S
C398 O397 1.208 . S
C399 O404 1.247 . S
C399 O405 1.208 . S
C400 O392 1.315 . S
C400 O395 1.279 . S
C401 O402 1.315 . S
C401 O403 1.279 . S
O402 Cd394 2.223 . S
O402 C401 1.315 . S
O403 Cd393 2.240 . S
O403 C401 1.279 . S
O404 Cd394 2.297 . S
O404 C399 1.247 . S
O405 Cd394 2.439 . S
O405 C399 1.208 . S
O406 Cd407 2.223 . S
O406 C414 1.315 . S
Cd407 O406 2.223 . S
Cd407 O410 2.297 1_565 S
Cd407 O411 2.439 . S
Cd407 O417 2.240 . S
Cd408 O409 2.240 . S
Cd408 O416 2.223 . S
Cd408 O418 2.297 . S
Cd408 O419 2.439 . S
O409 Cd408 2.240 . S
O409 C414 1.279 . S
O410 Cd407 2.297 1_545 S
O410 C412 1.247 1_545 S
O411 Cd407 2.439 . S
O411 C412 1.208 . S
C412 O410 1.247 1_565 S
C412 O411 1.208 . S
C413 O418 1.247 . S
C413 O419 1.208 . S
C414 O406 1.315 . S
C414 O409 1.279 . S
C415 O416 1.315 . S
C415 O417 1.279 . S
O416 Cd408 2.223 . S
O416 C415 1.315 . S
O417 Cd407 2.240 . S
O417 C415 1.279 . S
O418 Cd408 2.297 . S
O418 C413 1.247 . S
O419 Cd408 2.439 . S
O419 C413 1.208 . S
O420 Cd421 2.223 . S
O420 C428 1.315 . S
Cd421 O420 2.223 . S
Cd421 O424 2.297 . S
Cd421 O425 2.439 . S
Cd421 O431 2.240 . S
Cd422 O423 2.240 . S
Cd422 O430 2.223 . S
Cd422 O432 2.297 . S
Cd422 O433 2.439 . S
O423 Cd422 2.240 . S
O423 C428 1.279 . S
O424 Cd421 2.297 . S
O424 C426 1.247 . S
O425 Cd421 2.439 . S
O425 C426 1.208 . S
C426 O424 1.247 . S
C426 O425 1.208 . S
C427 O432 1.247 . S
C427 O433 1.208 . S
C428 O420 1.315 . S
C428 O423 1.279 . S
C429 O430 1.315 . S
C429 O431 1.279 . S
O430 Cd422 2.223 . S
O430 C429 1.315 . S
O431 Cd421 2.240 . S
O431 C429 1.279 . S
O432 Cd422 2.297 . S
O432 C427 1.247 . S
O433 Cd422 2.439 . S
O433 C427 1.208 . S
O434 Cd435 2.223 . S
O434 C442 1.315 . S
Cd435 O434 2.223 . S
Cd435 O438 2.297 1_545 S
Cd435 O439 2.439 . S
Cd435 O445 2.240 . S
Cd436 O437 2.240 . S
Cd436 O444 2.223 . S
Cd436 O446 2.297 . S
Cd436 O447 2.439 . S
O437 Cd436 2.240 . S
O437 C442 1.279 . S
O438 Cd435 2.297 1_565 S
O438 C440 1.247 1_565 S
O439 Cd435 2.439 . S
O439 C440 1.208 . S
C440 O438 1.247 1_545 S
C440 O439 1.208 . S
C441 O446 1.247 . S
C441 O447 1.208 . S
C442 O434 1.315 . S
C442 O437 1.279 . S
C443 O444 1.315 . S
C443 O445 1.279 . S
O444 Cd436 2.223 . S
O444 C443 1.315 . S
O445 Cd435 2.240 . S
O445 C443 1.279 . S
O446 Cd436 2.297 . S
O446 C441 1.247 . S
O447 Cd436 2.439 . S
O447 C441 1.208 . S
O448 Cd449 2.223 . S
O448 C456 1.315 . S
Cd449 O448 2.223 . S
Cd449 O452 2.297 . S
Cd449 O453 2.439 . S
Cd449 O459 2.240 . S
Cd450 O451 2.240 . S
Cd450 O458 2.223 . S
Cd450 O460 2.297 . S
Cd450 O461 2.439 . S
O451 Cd450 2.240 . S
O451 C456 1.279 . S
O452 Cd449 2.297 . S
O452 C454 1.247 . S
O453 Cd449 2.439 . S
O453 C454 1.208 . S
C454 O452 1.247 . S
C454 O453 1.208 . S
C455 O460 1.247 . S
C455 O461 1.208 . S
C456 O448 1.315 . S
C456 O451 1.279 . S
C457 O458 1.315 . S
C457 O459 1.279 . S
O458 Cd450 2.223 . S
O458 C457 1.315 . S
O459 Cd449 2.240 . S
O459 C457 1.279 . S
O460 Cd450 2.297 . S
O460 C455 1.247 . S
O461 Cd450 2.439 . S
O461 C455 1.208 . S
O462 Cd463 2.223 . S
O462 C470 1.315 . S
Cd463 O462 2.223 . S
Cd463 O466 2.297 1_556 S
Cd463 O467 2.439 . S
Cd463 O473 2.240 . S
Cd464 O465 2.240 . S
Cd464 O472 2.223 . S
Cd464 O474 2.297 . S
Cd464 O475 2.439 . S
O465 Cd464 2.240 . S
O465 C470 1.279 . S
O466 Cd463 2.297 1_554 S
O466 C468 1.247 1_554 S
O467 Cd463 2.439 . S
O467 C468 1.208 . S
C468 O466 1.247 1_556 S
C468 O467 1.208 . S
C469 O474 1.247 . S
C469 O475 1.208 . S
C470 O462 1.315 . S
C470 O465 1.279 . S
C471 O472 1.315 . S
C471 O473 1.279 . S
O472 Cd464 2.223 . S
O472 C471 1.315 . S
O473 Cd463 2.240 . S
O473 C471 1.279 . S
O474 Cd464 2.297 . S
O474 C469 1.247 . S
O475 Cd464 2.439 . S
O475 C469 1.208 . S
O476 Cd477 2.223 . S
O476 C484 1.315 . S
Cd477 O476 2.223 . S
Cd477 O480 2.297 1_556 S
Cd477 O481 2.439 . S
Cd477 O487 2.240 . S
Cd478 O479 2.240 . S
Cd478 O486 2.223 . S
Cd478 O488 2.297 . S
Cd478 O489 2.439 . S
O479 Cd478 2.240 . S
O479 C484 1.279 . S
O480 Cd477 2.297 1_554 S
O480 C482 1.247 1_554 S
O481 Cd477 2.439 . S
O481 C482 1.208 . S
C482 O480 1.247 1_556 S
C482 O481 1.208 . S
C483 O488 1.247 . S
C483 O489 1.208 . S
C484 O476 1.315 . S
C484 O479 1.279 . S
C485 O486 1.315 . S
C485 O487 1.279 . S
O486 Cd478 2.223 . S
O486 C485 1.315 . S
O487 Cd477 2.240 . S
O487 C485 1.279 . S
O488 Cd478 2.297 . S
O488 C483 1.247 . S
O489 Cd478 2.439 . S
O489 C483 1.208 . S
O490 Cd491 2.223 . S
O490 C498 1.315 . S
Cd491 O490 2.223 . S
Cd491 O494 2.297 1_554 S
Cd491 O495 2.439 . S
Cd491 O501 2.240 . S
Cd492 O493 2.240 . S
Cd492 O500 2.223 . S
Cd492 O502 2.297 . S
Cd492 O503 2.439 . S
O493 Cd492 2.240 . S
O493 C498 1.279 . S
O494 Cd491 2.297 1_556 S
O494 C496 1.247 1_556 S
O495 Cd491 2.439 . S
O495 C496 1.208 . S
C496 O494 1.247 1_554 S
C496 O495 1.208 . S
C497 O502 1.247 . S
C497 O503 1.208 . S
C498 O490 1.315 . S
C498 O493 1.279 . S
C499 O500 1.315 . S
C499 O501 1.279 . S
O500 Cd492 2.223 . S
O500 C499 1.315 . S
O501 Cd491 2.240 . S
O501 C499 1.279 . S
O502 Cd492 2.297 . S
O502 C497 1.247 . S
O503 Cd492 2.439 . S
O503 C497 1.208 . S
O504 Cd505 2.223 . S
O504 C512 1.315 . S
Cd505 O504 2.223 . S
Cd505 O508 2.297 . S
Cd505 O509 2.439 . S
Cd505 O515 2.240 . S
Cd506 O507 2.240 . S
Cd506 O514 2.223 . S
Cd506 O516 2.297 . S
Cd506 O517 2.439 . S
O507 Cd506 2.240 . S
O507 C512 1.279 . S
O508 Cd505 2.297 . S
O508 C510 1.247 . S
O509 Cd505 2.439 . S
O509 C510 1.208 . S
C510 O508 1.247 . S
C510 O509 1.208 . S
C511 O516 1.247 . S
C511 O517 1.208 . S
C512 O504 1.315 . S
C512 O507 1.279 . S
C513 O514 1.315 . S
C513 O515 1.279 . S
O514 Cd506 2.223 . S
O514 C513 1.315 . S
O515 Cd505 2.240 . S
O515 C513 1.279 . S
O516 Cd506 2.297 . S
O516 C511 1.247 . S
O517 Cd506 2.439 . S
O517 C511 1.208 . S
O518 Cd519 2.223 . S
O518 C526 1.315 . S
Cd519 O518 2.223 . S
Cd519 O522 2.297 . S
Cd519 O523 2.439 . S
Cd519 O529 2.240 . S
Cd520 O521 2.240 . S
Cd520 O528 2.223 . S
Cd520 O530 2.297 . S
Cd520 O531 2.439 . S
O521 Cd520 2.240 . S
O521 C526 1.279 . S
O522 Cd519 2.297 . S
O522 C524 1.247 . S
O523 Cd519 2.439 . S
O523 C524 1.208 . S
C524 O522 1.247 . S
C524 O523 1.208 . S
C525 O530 1.247 . S
C525 O531 1.208 . S
C526 O518 1.315 . S
C526 O521 1.279 . S
C527 O528 1.315 . S
C527 O529 1.279 . S
O528 Cd520 2.223 . S
O528 C527 1.315 . S
O529 Cd519 2.240 . S
O529 C527 1.279 . S
O530 Cd520 2.297 . S
O530 C525 1.247 . S
O531 Cd520 2.439 . S
O531 C525 1.208 . S
O532 Cd533 2.223 . S
O532 C540 1.315 . S
Cd533 O532 2.223 . S
Cd533 O536 2.297 . S
Cd533 O537 2.439 . S
Cd533 O543 2.240 . S
Cd534 O535 2.240 . S
Cd534 O542 2.223 . S
Cd534 O544 2.297 . S
Cd534 O545 2.439 . S
O535 Cd534 2.240 . S
O535 C540 1.279 . S
O536 Cd533 2.297 . S
O536 C538 1.247 . S
O537 Cd533 2.439 . S
O537 C538 1.208 . S
C538 O536 1.247 . S
C538 O537 1.208 . S
C539 O544 1.247 . S
C539 O545 1.208 . S
C540 O532 1.315 . S
C540 O535 1.279 . S
C541 O542 1.315 . S
C541 O543 1.279 . S
O542 Cd534 2.223 . S
O542 C541 1.315 . S
O543 Cd533 2.240 . S
O543 C541 1.279 . S
O544 Cd534 2.297 . S
O544 C539 1.247 . S
O545 Cd534 2.439 . S
O545 C539 1.208 . S
O546 Cd547 2.223 . S
O546 C554 1.315 . S
Cd547 O546 2.223 . S
Cd547 O550 2.297 . S
Cd547 O551 2.439 . S
Cd547 O557 2.240 . S
Cd548 O549 2.240 . S
Cd548 O556 2.223 . S
Cd548 O558 2.297 . S
Cd548 O559 2.439 . S
O549 Cd548 2.240 . S
O549 C554 1.279 . S
O550 Cd547 2.297 . S
O550 C552 1.247 . S
O551 Cd547 2.439 . S
O551 C552 1.208 . S
C552 O550 1.247 . S
C552 O551 1.208 . S
C553 O558 1.247 . S
C553 O559 1.208 . S
C554 O546 1.315 . S
C554 O549 1.279 . S
C555 O556 1.315 . S
C555 O557 1.279 . S
O556 Cd548 2.223 . S
O556 C555 1.315 . S
O557 Cd547 2.240 . S
O557 C555 1.279 . S
O558 Cd548 2.297 . S
O558 C553 1.247 . S
O559 Cd548 2.439 . S
O559 C553 1.208 . S
O560 Cd561 2.223 . S
O560 C568 1.315 . S
Cd561 O560 2.223 . S
Cd561 O564 2.297 . S
Cd561 O565 2.439 . S
Cd561 O571 2.240 . S
Cd562 O563 2.240 . S
Cd562 O570 2.223 . S
Cd562 O572 2.297 . S
Cd562 O573 2.439 . S
O563 Cd562 2.240 . S
O563 C568 1.279 . S
O564 Cd561 2.297 . S
O564 C566 1.247 . S
O565 Cd561 2.439 . S
O565 C566 1.208 . S
C566 O564 1.247 . S
C566 O565 1.208 . S
C567 O572 1.247 . S
C567 O573 1.208 . S
C568 O560 1.315 . S
C568 O563 1.279 . S
C569 O570 1.315 . S
C569 O571 1.279 . S
O570 Cd562 2.223 . S
O570 C569 1.315 . S
O571 Cd561 2.240 . S
O571 C569 1.279 . S
O572 Cd562 2.297 . S
O572 C567 1.247 . S
O573 Cd562 2.439 . S
O573 C567 1.208 . S
O574 Cd575 2.223 . S
O574 C582 1.315 . S
Cd575 O574 2.223 . S
Cd575 O578 2.297 1_545 S
Cd575 O579 2.439 . S
Cd575 O585 2.240 . S
Cd576 O577 2.240 . S
Cd576 O584 2.223 . S
Cd576 O586 2.297 . S
Cd576 O587 2.439 . S
O577 Cd576 2.240 . S
O577 C582 1.279 . S
O578 Cd575 2.297 1_565 S
O578 C580 1.247 1_565 S
O579 Cd575 2.439 . S
O579 C580 1.208 . S
C580 O578 1.247 1_545 S
C580 O579 1.208 . S
C581 O586 1.247 . S
C581 O587 1.208 . S
C582 O574 1.315 . S
C582 O577 1.279 . S
C583 O584 1.315 . S
C583 O585 1.279 . S
O584 Cd576 2.223 . S
O584 C583 1.315 . S
O585 Cd575 2.240 . S
O585 C583 1.279 . S
O586 Cd576 2.297 . S
O586 C581 1.247 . S
O587 Cd576 2.439 . S
O587 C581 1.208 . S
O588 Cd589 2.223 . S
O588 C596 1.315 . S
Cd589 O588 2.223 . S
Cd589 O592 2.297 . S
Cd589 O593 2.439 . S
Cd589 O599 2.240 . S
Cd590 O591 2.240 . S
Cd590 O598 2.223 . S
Cd590 O600 2.297 . S
Cd590 O601 2.439 . S
O591 Cd590 2.240 . S
O591 C596 1.279 . S
O592 Cd589 2.297 . S
O592 C594 1.247 . S
O593 Cd589 2.439 . S
O593 C594 1.208 . S
C594 O592 1.247 . S
C594 O593 1.208 . S
C595 O600 1.247 . S
C595 O601 1.208 . S
C596 O588 1.315 . S
C596 O591 1.279 . S
C597 O598 1.315 . S
C597 O599 1.279 . S
O598 Cd590 2.223 . S
O598 C597 1.315 . S
O599 Cd589 2.240 . S
O599 C597 1.279 . S
O600 Cd590 2.297 . S
O600 C595 1.247 . S
O601 Cd590 2.439 . S
O601 C595 1.208 . S
O602 Cd603 2.223 . S
O602 C610 1.315 . S
Cd603 O602 2.223 . S
Cd603 O606 2.297 1_565 S
Cd603 O607 2.439 . S
Cd603 O613 2.240 . S
Cd604 O605 2.240 . S
Cd604 O612 2.223 . S
Cd604 O614 2.297 . S
Cd604 O615 2.439 . S
O605 Cd604 2.240 . S
O605 C610 1.279 . S
O606 Cd603 2.297 1_545 S
O606 C608 1.247 1_545 S
O607 Cd603 2.439 . S
O607 C608 1.208 . S
C608 O606 1.247 1_565 S
C608 O607 1.208 . S
C609 O614 1.247 . S
C609 O615 1.208 . S
C610 O602 1.315 . S
C610 O605 1.279 . S
C611 O612 1.315 . S
C611 O613 1.279 . S
O612 Cd604 2.223 . S
O612 C611 1.315 . S
O613 Cd603 2.240 . S
O613 C611 1.279 . S
O614 Cd604 2.297 . S
O614 C609 1.247 . S
O615 Cd604 2.439 . S
O615 C609 1.208 . S
O616 Cd617 2.223 . S
O616 C624 1.315 . S
Cd617 O616 2.223 . S
Cd617 O620 2.297 . S
Cd617 O621 2.439 . S
Cd617 O627 2.240 . S
Cd618 O619 2.240 . S
Cd618 O626 2.223 . S
Cd618 O628 2.297 . S
Cd618 O629 2.439 . S
O619 Cd618 2.240 . S
O619 C624 1.279 . S
O620 Cd617 2.297 . S
O620 C622 1.247 . S
O621 Cd617 2.439 . S
O621 C622 1.208 . S
C622 O620 1.247 . S
C622 O621 1.208 . S
C623 O628 1.247 . S
C623 O629 1.208 . S
C624 O616 1.315 . S
C624 O619 1.279 . S
C625 O626 1.315 . S
C625 O627 1.279 . S
O626 Cd618 2.223 . S
O626 C625 1.315 . S
O627 Cd617 2.240 . S
O627 C625 1.279 . S
O628 Cd618 2.297 . S
O628 C623 1.247 . S
O629 Cd618 2.439 . S
O629 C623 1.208 . S
O630 Cd631 2.223 . S
O630 C638 1.315 . S
Cd631 O630 2.223 . S
Cd631 O634 2.297 1_554 S
Cd631 O635 2.439 . S
Cd631 O641 2.240 . S
Cd632 O633 2.240 . S
Cd632 O640 2.223 . S
Cd632 O642 2.297 . S
Cd632 O643 2.439 . S
O633 Cd632 2.240 . S
O633 C638 1.279 . S
O634 Cd631 2.297 1_556 S
O634 C636 1.247 1_556 S
O635 Cd631 2.439 . S
O635 C636 1.208 . S
C636 O634 1.247 1_554 S
C636 O635 1.208 . S
C637 O642 1.247 . S
C637 O643 1.208 . S
C638 O630 1.315 . S
C638 O633 1.279 . S
C639 O640 1.315 . S
C639 O641 1.279 . S
O640 Cd632 2.223 . S
O640 C639 1.315 . S
O641 Cd631 2.240 . S
O641 C639 1.279 . S
O642 Cd632 2.297 . S
O642 C637 1.247 . S
O643 Cd632 2.439 . S
O643 C637 1.208 . S
O644 Cd645 2.223 . S
O644 C652 1.315 . S
Cd645 O644 2.223 . S
Cd645 O648 2.297 1_554 S
Cd645 O649 2.439 . S
Cd645 O655 2.240 . S
Cd646 O647 2.240 . S
Cd646 O654 2.223 . S
Cd646 O656 2.297 . S
Cd646 O657 2.439 . S
O647 Cd646 2.240 . S
O647 C652 1.279 . S
O648 Cd645 2.297 1_556 S
O648 C650 1.247 1_556 S
O649 Cd645 2.439 . S
O649 C650 1.208 . S
C650 O648 1.247 1_554 S
C650 O649 1.208 . S
C651 O656 1.247 . S
C651 O657 1.208 . S
C652 O644 1.315 . S
C652 O647 1.279 . S
C653 O654 1.315 . S
C653 O655 1.279 . S
O654 Cd646 2.223 . S
O654 C653 1.315 . S
O655 Cd645 2.240 . S
O655 C653 1.279 . S
O656 Cd646 2.297 . S
O656 C651 1.247 . S
O657 Cd646 2.439 . S
O657 C651 1.208 . S
O658 Cd659 2.223 . S
O658 C666 1.315 . S
Cd659 O658 2.223 . S
Cd659 O662 2.297 1_556 S
Cd659 O663 2.439 . S
Cd659 O669 2.240 . S
Cd660 O661 2.240 . S
Cd660 O668 2.223 . S
Cd660 O670 2.297 . S
Cd660 O671 2.439 . S
O661 Cd660 2.240 . S
O661 C666 1.279 . S
O662 Cd659 2.297 1_554 S
O662 C664 1.247 1_554 S
O663 Cd659 2.439 . S
O663 C664 1.208 . S
C664 O662 1.247 1_556 S
C664 O663 1.208 . S
C665 O670 1.247 . S
C665 O671 1.208 . S
C666 O658 1.315 . S
C666 O661 1.279 . S
C667 O668 1.315 . S
C667 O669 1.279 . S
O668 Cd660 2.223 . S
O668 C667 1.315 . S
O669 Cd659 2.240 . S
O669 C667 1.279 . S
O670 Cd660 2.297 . S
O670 C665 1.247 . S
O671 Cd660 2.439 . S
O671 C665 1.208 . S
C672 C673 1.363 1_455 S
C672 C678 1.379 . S
C672 N680 1.356 . S
C673 C672 1.363 1_655 S
C673 C679 1.363 . S
C674 C675 1.363 1_655 S
C674 C679 1.379 . S
C674 N681 1.356 . S
C675 C674 1.363 1_455 S
C675 C678 1.363 . S
N676 C678 1.356 . S
N676 H688 0.984 . S
N676 H689 0.985 . S
N677 C679 1.356 . S
N677 H682 0.984 . S
N677 H683 0.985 . S
C678 C672 1.379 . S
C678 C675 1.363 . S
C678 N676 1.356 . S
C679 C673 1.363 . S
C679 C674 1.379 . S
C679 N677 1.356 . S
N680 C672 1.356 . S
N680 H686 0.984 . S
N680 H687 0.984 . S
N681 C674 1.356 . S
N681 H684 0.984 . S
N681 H685 0.985 . S
H682 N677 0.984 . S
H683 N677 0.985 . S
H684 N681 0.984 . S
H685 N681 0.985 . S
H686 N680 0.984 . S
H687 N680 0.984 . S
H688 N676 0.984 . S
H689 N676 0.985 . S
C690 C691 1.363 1_655 S
C690 C696 1.379 . S
C690 N698 1.356 . S
C691 C690 1.363 1_455 S
C691 C697 1.363 . S
C692 C693 1.363 1_455 S
C692 C697 1.379 . S
C692 N699 1.356 . S
C693 C692 1.363 1_655 S
C693 C696 1.363 . S
N694 C696 1.356 . S
N694 H706 0.984 . S
N694 H707 0.985 . S
N695 C697 1.356 . S
N695 H700 0.984 . S
N695 H701 0.985 . S
C696 C690 1.379 . S
C696 C693 1.363 . S
C696 N694 1.356 . S
C697 C691 1.363 . S
C697 C692 1.379 . S
C697 N695 1.356 . S
N698 C690 1.356 . S
N698 H704 0.984 . S
N698 H705 0.984 . S
N699 C692 1.356 . S
N699 H702 0.984 . S
N699 H703 0.985 . S
H700 N695 0.984 . S
H701 N695 0.985 . S
H702 N699 0.984 . S
H703 N699 0.985 . S
H704 N698 0.984 . S
H705 N698 0.984 . S
H706 N694 0.984 . S
H707 N694 0.985 . S
C708 C709 1.363 . S
C708 C714 1.379 . S
C708 N716 1.356 . S
C709 C708 1.363 . S
C709 C715 1.363 1_565 S
C710 C711 1.363 . S
C710 C715 1.379 . S
C710 N717 1.356 . S
C711 C710 1.363 . S
C711 C714 1.363 1_545 S
N712 C714 1.356 . S
N712 H724 0.984 . S
N712 H725 0.985 . S
N713 C715 1.356 . S
N713 H718 0.984 . S
N713 H719 0.985 . S
C714 C708 1.379 . S
C714 C711 1.363 1_565 S
C714 N712 1.356 . S
C715 C709 1.363 1_545 S
C715 C710 1.379 . S
C715 N713 1.356 . S
N716 C708 1.356 . S
N716 H722 0.984 . S
N716 H723 0.984 . S
N717 C710 1.356 . S
N717 H720 0.984 . S
N717 H721 0.985 . S
H718 N713 0.984 . S
H719 N713 0.985 . S
H720 N717 0.984 . S
H721 N717 0.985 . S
H722 N716 0.984 . S
H723 N716 0.984 . S
H724 N712 0.984 . S
H725 N712 0.985 . S
C726 C727 1.363 . S
C726 C732 1.379 . S
C726 N734 1.356 . S
C727 C726 1.363 . S
C727 C733 1.363 . S
C728 C729 1.363 . S
C728 C733 1.379 . S
C728 N735 1.356 . S
C729 C728 1.363 . S
C729 C732 1.363 . S
N730 C732 1.356 . S
N730 H742 0.984 . S
N730 H743 0.985 . S
N731 C733 1.356 . S
N731 H736 0.984 . S
N731 H737 0.985 . S
C732 C726 1.379 . S
C732 C729 1.363 . S
C732 N730 1.356 . S
C733 C727 1.363 . S
C733 C728 1.379 . S
C733 N731 1.356 . S
N734 C726 1.356 . S
N734 H740 0.984 . S
N734 H741 0.984 . S
N735 C728 1.356 . S
N735 H738 0.984 . S
N735 H739 0.985 . S
H736 N731 0.984 . S
H737 N731 0.985 . S
H738 N735 0.984 . S
H739 N735 0.985 . S
H740 N734 0.984 . S
H741 N734 0.984 . S
H742 N730 0.984 . S
H743 N730 0.985 . S
C744 C745 1.363 . S
C744 C750 1.379 . S
C744 N752 1.356 . S
C745 C744 1.363 . S
C745 C751 1.363 1_554 S
C746 C747 1.363 . S
C746 C751 1.379 . S
C746 N753 1.356 . S
C747 C746 1.363 . S
C747 C750 1.363 1_556 S
N748 C750 1.356 . S
N748 H760 0.984 . S
N748 H761 0.985 . S
N749 C751 1.356 . S
N749 H754 0.984 . S
N749 H755 0.985 . S
C750 C744 1.379 . S
C750 C747 1.363 1_554 S
C750 N748 1.356 . S
C751 C745 1.363 1_556 S
C751 C746 1.379 . S
C751 N749 1.356 . S
N752 C744 1.356 . S
N752 H758 0.984 . S
N752 H759 0.984 . S
N753 C746 1.356 . S
N753 H756 0.984 . S
N753 H757 0.985 . S
H754 N749 0.984 . S
H755 N749 0.985 . S
H756 N753 0.984 . S
H757 N753 0.985 . S
H758 N752 0.984 . S
H759 N752 0.984 . S
H760 N748 0.984 . S
H761 N748 0.985 . S
C762 C763 1.363 . S
C762 C768 1.379 . S
C762 N770 1.356 . S
C763 C762 1.363 . S
C763 C769 1.363 . S
C764 C765 1.363 . S
C764 C769 1.379 . S
C764 N771 1.356 . S
C765 C764 1.363 . S
C765 C768 1.363 . S
N766 C768 1.356 . S
N766 H778 0.984 . S
N766 H779 0.985 . S
N767 C769 1.356 . S
N767 H772 0.984 . S
N767 H773 0.985 . S
C768 C762 1.379 . S
C768 C765 1.363 . S
C768 N766 1.356 . S
C769 C763 1.363 . S
C769 C764 1.379 . S
C769 N767 1.356 . S
N770 C762 1.356 . S
N770 H776 0.984 . S
N770 H777 0.984 . S
N771 C764 1.356 . S
N771 H774 0.984 . S
N771 H775 0.985 . S
H772 N767 0.984 . S
H773 N767 0.985 . S
H774 N771 0.984 . S
H775 N771 0.985 . S
H776 N770 0.984 . S
H777 N770 0.984 . S
H778 N766 0.984 . S
H779 N766 0.985 . S
C780 C781 1.363 . S
C780 C786 1.379 . S
C780 N788 1.356 . S
C781 C780 1.363 . S
C781 C787 1.363 . S
C782 C783 1.363 . S
C782 C787 1.379 . S
C782 N789 1.356 . S
C783 C782 1.363 . S
C783 C786 1.363 . S
N784 C786 1.356 . S
N784 H796 0.984 . S
N784 H797 0.985 . S
N785 C787 1.356 . S
N785 H790 0.984 . S
N785 H791 0.985 . S
C786 C780 1.379 . S
C786 C783 1.363 . S
C786 N784 1.356 . S
C787 C781 1.363 . S
C787 C782 1.379 . S
C787 N785 1.356 . S
N788 C780 1.356 . S
N788 H794 0.984 . S
N788 H795 0.984 . S
N789 C782 1.356 . S
N789 H792 0.984 . S
N789 H793 0.985 . S
H790 N785 0.984 . S
H791 N785 0.985 . S
H792 N789 0.984 . S
H793 N789 0.985 . S
H794 N788 0.984 . S
H795 N788 0.984 . S
H796 N784 0.984 . S
H797 N784 0.985 . S
C798 C799 1.363 . S
C798 C804 1.379 . S
C798 N806 1.356 . S
C799 C798 1.363 . S
C799 C805 1.363 1_455 S
C800 C801 1.363 . S
C800 C805 1.379 . S
C800 N807 1.356 . S
C801 C800 1.363 . S
C801 C804 1.363 1_655 S
N802 C804 1.356 . S
N802 H814 0.984 . S
N802 H815 0.985 . S
N803 C805 1.356 . S
N803 H808 0.984 . S
N803 H809 0.985 . S
C804 C798 1.379 . S
C804 C801 1.363 1_455 S
C804 N802 1.356 . S
C805 C799 1.363 1_655 S
C805 C800 1.379 . S
C805 N803 1.356 . S
N806 C798 1.356 . S
N806 H812 0.984 . S
N806 H813 0.984 . S
N807 C800 1.356 . S
N807 H810 0.984 . S
N807 H811 0.985 . S
H808 N803 0.984 . S
H809 N803 0.985 . S
H810 N807 0.984 . S
H811 N807 0.985 . S
H812 N806 0.984 . S
H813 N806 0.984 . S
H814 N802 0.984 . S
H815 N802 0.985 . S
C816 C817 1.363 1_655 S
C816 C822 1.379 . S
C816 N824 1.356 . S
C817 C816 1.363 1_455 S
C817 C823 1.363 . S
C818 C819 1.363 1_455 S
C818 C823 1.379 . S
C818 N825 1.356 . S
C819 C818 1.363 1_655 S
C819 C822 1.363 . S
N820 C822 1.356 . S
N820 H832 0.984 . S
N820 H833 0.985 . S
N821 C823 1.356 . S
N821 H826 0.984 . S
N821 H827 0.985 . S
C822 C816 1.379 . S
C822 C819 1.363 . S
C822 N820 1.356 . S
C823 C817 1.363 . S
C823 C818 1.379 . S
C823 N821 1.356 . S
N824 C816 1.356 . S
N824 H830 0.984 . S
N824 H831 0.984 . S
N825 C818 1.356 . S
N825 H828 0.984 . S
N825 H829 0.985 . S
H826 N821 0.984 . S
H827 N821 0.985 . S
H828 N825 0.984 . S
H829 N825 0.985 . S
H830 N824 0.984 . S
H831 N824 0.984 . S
H832 N820 0.984 . S
H833 N820 0.985 . S
C834 C835 1.363 1_565 S
C834 C840 1.379 . S
C834 N842 1.356 . S
C835 C834 1.363 1_545 S
C835 C841 1.363 . S
C836 C837 1.363 1_545 S
C836 C841 1.379 . S
C836 N843 1.356 . S
C837 C836 1.363 1_565 S
C837 C840 1.363 . S
N838 C840 1.356 . S
N838 H850 0.984 . S
N838 H851 0.985 . S
N839 C841 1.356 . S
N839 H844 0.984 . S
N839 H845 0.985 . S
C840 C834 1.379 . S
C840 C837 1.363 . S
C840 N838 1.356 . S
C841 C835 1.363 . S
C841 C836 1.379 . S
C841 N839 1.356 . S
N842 C834 1.356 . S
N842 H848 0.984 . S
N842 H849 0.984 . S
N843 C836 1.356 . S
N843 H846 0.984 . S
N843 H847 0.985 . S
H844 N839 0.984 . S
H845 N839 0.985 . S
H846 N843 0.984 . S
H847 N843 0.985 . S
H848 N842 0.984 . S
H849 N842 0.984 . S
H850 N838 0.984 . S
H851 N838 0.985 . S
C852 C853 1.363 . S
C852 C858 1.379 . S
C852 N860 1.356 . S
C853 C852 1.363 . S
C853 C859 1.363 . S
C854 C855 1.363 . S
C854 C859 1.379 . S
C854 N861 1.356 . S
C855 C854 1.363 . S
C855 C858 1.363 . S
N856 C858 1.356 . S
N856 H868 0.984 . S
N856 H869 0.985 . S
N857 C859 1.356 . S
N857 H862 0.984 . S
N857 H863 0.985 . S
C858 C852 1.379 . S
C858 C855 1.363 . S
C858 N856 1.356 . S
C859 C853 1.363 . S
C859 C854 1.379 . S
C859 N857 1.356 . S
N860 C852 1.356 . S
N860 H866 0.984 . S
N860 H867 0.984 . S
N861 C854 1.356 . S
N861 H864 0.984 . S
N861 H865 0.985 . S
H862 N857 0.984 . S
H863 N857 0.985 . S
H864 N861 0.984 . S
H865 N861 0.985 . S
H866 N860 0.984 . S
H867 N860 0.984 . S
H868 N856 0.984 . S
H869 N856 0.985 . S
C870 C871 1.363 1_554 S
C870 C876 1.379 . S
C870 N878 1.356 . S
C871 C870 1.363 1_556 S
C871 C877 1.363 . S
C872 C873 1.363 1_556 S
C872 C877 1.379 . S
C872 N879 1.356 . S
C873 C872 1.363 1_554 S
C873 C876 1.363 . S
N874 C876 1.356 . S
N874 H886 0.984 . S
N874 H887 0.985 . S
N875 C877 1.356 . S
N875 H880 0.984 . S
N875 H881 0.985 . S
C876 C870 1.379 . S
C876 C873 1.363 . S
C876 N874 1.356 . S
C877 C871 1.363 . S
C877 C872 1.379 . S
C877 N875 1.356 . S
N878 C870 1.356 . S
N878 H884 0.984 . S
N878 H885 0.984 . S
N879 C872 1.356 . S
N879 H882 0.984 . S
N879 H883 0.985 . S
H880 N875 0.984 . S
H881 N875 0.985 . S
H882 N879 0.984 . S
H883 N879 0.985 . S
H884 N878 0.984 . S
H885 N878 0.984 . S
H886 N874 0.984 . S
H887 N874 0.985 . S
C888 C889 1.363 . S
C888 C894 1.379 . S
C888 N896 1.356 . S
C889 C888 1.363 . S
C889 C895 1.363 . S
C890 C891 1.363 . S
C890 C895 1.379 . S
C890 N897 1.356 . S
C891 C890 1.363 . S
C891 C894 1.363 . S
N892 C894 1.356 . S
N892 H904 0.984 . S
N892 H905 0.985 . S
N893 C895 1.356 . S
N893 H898 0.984 . S
N893 H899 0.985 . S
C894 C888 1.379 . S
C894 C891 1.363 . S
C894 N892 1.356 . S
C895 C889 1.363 . S
C895 C890 1.379 . S
C895 N893 1.356 . S
N896 C888 1.356 . S
N896 H902 0.984 . S
N896 H903 0.984 . S
N897 C890 1.356 . S
N897 H900 0.984 . S
N897 H901 0.985 . S
H898 N893 0.984 . S
H899 N893 0.985 . S
H900 N897 0.984 . S
H901 N897 0.985 . S
H902 N896 0.984 . S
H903 N896 0.984 . S
H904 N892 0.984 . S
H905 N892 0.985 . S
C906 C907 1.363 . S
C906 C912 1.379 . S
C906 N914 1.356 . S
C907 C906 1.363 . S
C907 C913 1.363 . S
C908 C909 1.363 . S
C908 C913 1.379 . S
C908 N915 1.356 . S
C909 C908 1.363 . S
C909 C912 1.363 . S
N910 C912 1.356 . S
N910 H922 0.984 . S
N910 H923 0.985 . S
N911 C913 1.356 . S
N911 H916 0.984 . S
N911 H917 0.985 . S
C912 C906 1.379 . S
C912 C909 1.363 . S
C912 N910 1.356 . S
C913 C907 1.363 . S
C913 C908 1.379 . S
C913 N911 1.356 . S
N914 C906 1.356 . S
N914 H920 0.984 . S
N914 H921 0.984 . S
N915 C908 1.356 . S
N915 H918 0.984 . S
N915 H919 0.985 . S
H916 N911 0.984 . S
H917 N911 0.985 . S
H918 N915 0.984 . S
H919 N915 0.985 . S
H920 N914 0.984 . S
H921 N914 0.984 . S
H922 N910 0.984 . S
H923 N910 0.985 . S
C924 C925 1.363 . S
C924 C930 1.379 . S
C924 N932 1.356 . S
C925 C924 1.363 . S
C925 C931 1.363 . S
C926 C927 1.363 . S
C926 C931 1.379 . S
C926 N933 1.356 . S
C927 C926 1.363 . S
C927 C930 1.363 . S
N928 C930 1.356 . S
N928 H940 0.984 . S
N928 H941 0.985 . S
N929 C931 1.356 . S
N929 H934 0.984 . S
N929 H935 0.985 . S
C930 C924 1.379 . S
C930 C927 1.363 . S
C930 N928 1.356 . S
C931 C925 1.363 . S
C931 C926 1.379 . S
C931 N929 1.356 . S
N932 C924 1.356 . S
N932 H938 0.984 . S
N932 H939 0.984 . S
N933 C926 1.356 . S
N933 H936 0.984 . S
N933 H937 0.985 . S
H934 N929 0.984 . S
H935 N929 0.985 . S
H936 N933 0.984 . S
H937 N933 0.985 . S
H938 N932 0.984 . S
H939 N932 0.984 . S
H940 N928 0.984 . S
H941 N928 0.985 . S
C942 C943 1.363 . S
C942 C948 1.379 . S
C942 N950 1.356 . S
C943 C942 1.363 . S
C943 C949 1.363 . S
C944 C945 1.363 . S
C944 C949 1.379 . S
C944 N951 1.356 . S
C945 C944 1.363 . S
C945 C948 1.363 . S
N946 C948 1.356 . S
N946 H958 0.984 . S
N946 H959 0.985 . S
N947 C949 1.356 . S
N947 H952 0.984 . S
N947 H953 0.985 . S
C948 C942 1.379 . S
C948 C945 1.363 . S
C948 N946 1.356 . S
C949 C943 1.363 . S
C949 C944 1.379 . S
C949 N947 1.356 . S
N950 C942 1.356 . S
N950 H956 0.984 . S
N950 H957 0.984 . S
N951 C944 1.356 . S
N951 H954 0.984 . S
N951 H955 0.985 . S
H952 N947 0.984 . S
H953 N947 0.985 . S
H954 N951 0.984 . S
H955 N951 0.985 . S
H956 N950 0.984 . S
H957 N950 0.984 . S
H958 N946 0.984 . S
H959 N946 0.985 . S
C960 C961 1.363 . S
C960 C966 1.379 . S
C960 N968 1.356 . S
C961 C960 1.363 . S
C961 C967 1.363 . S
C962 C963 1.363 . S
C962 C967 1.379 . S
C962 N969 1.356 . S
C963 C962 1.363 . S
C963 C966 1.363 . S
N964 C966 1.356 . S
N964 H976 0.984 . S
N964 H977 0.985 . S
N965 C967 1.356 . S
N965 H970 0.984 . S
N965 H971 0.985 . S
C966 C960 1.379 . S
C966 C963 1.363 . S
C966 N964 1.356 . S
C967 C961 1.363 . S
C967 C962 1.379 . S
C967 N965 1.356 . S
N968 C960 1.356 . S
N968 H974 0.984 . S
N968 H975 0.984 . S
N969 C962 1.356 . S
N969 H972 0.984 . S
N969 H973 0.985 . S
H970 N965 0.984 . S
H971 N965 0.985 . S
H972 N969 0.984 . S
H973 N969 0.985 . S
H974 N968 0.984 . S
H975 N968 0.984 . S
H976 N964 0.984 . S
H977 N964 0.985 . S
C978 C979 1.363 . S
C978 C984 1.379 . S
C978 N986 1.356 . S
C979 C978 1.363 . S
C979 C985 1.363 1_545 S
C980 C981 1.363 . S
C980 C985 1.379 . S
C980 N987 1.356 . S
C981 C980 1.363 . S
C981 C984 1.363 1_565 S
N982 C984 1.356 . S
N982 H994 0.984 . S
N982 H995 0.985 . S
N983 C985 1.356 . S
N983 H988 0.984 . S
N983 H989 0.985 . S
C984 C978 1.379 . S
C984 C981 1.363 1_545 S
C984 N982 1.356 . S
C985 C979 1.363 1_565 S
C985 C980 1.379 . S
C985 N983 1.356 . S
N986 C978 1.356 . S
N986 H992 0.984 . S
N986 H993 0.984 . S
N987 C980 1.356 . S
N987 H990 0.984 . S
N987 H991 0.985 . S
H988 N983 0.984 . S
H989 N983 0.985 . S
H990 N987 0.984 . S
H991 N987 0.985 . S
H992 N986 0.984 . S
H993 N986 0.984 . S
H994 N982 0.984 . S
H995 N982 0.985 . S
C996 C997 1.363 1_556 S
C996 C1002 1.379 . S
C996 N1004 1.356 . S
C997 C996 1.363 1_554 S
C997 C1003 1.363 . S
C998 C999 1.363 1_554 S
C998 C1003 1.379 . S
C998 N1005 1.356 . S
C999 C998 1.363 1_556 S
C999 C1002 1.363 . S
N1000 C1002 1.356 . S
N1000 H1012 0.984 . S
N1000 H1013 0.985 . S
N1001 C1003 1.356 . S
N1001 H1006 0.984 . S
N1001 H1007 0.985 . S
C1002 C996 1.379 . S
C1002 C999 1.363 . S
C1002 N1000 1.356 . S
C1003 C997 1.363 . S
C1003 C998 1.379 . S
C1003 N1001 1.356 . S
N1004 C996 1.356 . S
N1004 H1010 0.984 . S
N1004 H1011 0.984 . S
N1005 C998 1.356 . S
N1005 H1008 0.984 . S
N1005 H1009 0.985 . S
H1006 N1001 0.984 . S
H1007 N1001 0.985 . S
H1008 N1005 0.984 . S
H1009 N1005 0.985 . S
H1010 N1004 0.984 . S
H1011 N1004 0.984 . S
H1012 N1000 0.984 . S
H1013 N1000 0.985 . S
C1014 C1015 1.363 . S
C1014 C1020 1.379 . S
C1014 N1022 1.356 . S
C1015 C1014 1.363 . S
C1015 C1021 1.363 . S
C1016 C1017 1.363 . S
C1016 C1021 1.379 . S
C1016 N1023 1.356 . S
C1017 C1016 1.363 . S
C1017 C1020 1.363 . S
N1018 C1020 1.356 . S
N1018 H1030 0.984 . S
N1018 H1031 0.985 . S
N1019 C1021 1.356 . S
N1019 H1024 0.984 . S
N1019 H1025 0.985 . S
C1020 C1014 1.379 . S
C1020 C1017 1.363 . S
C1020 N1018 1.356 . S
C1021 C1015 1.363 . S
C1021 C1016 1.379 . S
C1021 N1019 1.356 . S
N1022 C1014 1.356 . S
N1022 H1028 0.984 . S
N1022 H1029 0.984 . S
N1023 C1016 1.356 . S
N1023 H1026 0.984 . S
N1023 H1027 0.985 . S
H1024 N1019 0.984 . S
H1025 N1019 0.985 . S
H1026 N1023 0.984 . S
H1027 N1023 0.985 . S
H1028 N1022 0.984 . S
H1029 N1022 0.984 . S
H1030 N1018 0.984 . S
H1031 N1018 0.985 . S
C1032 C1033 1.363 . S
C1032 C1038 1.379 . S
C1032 N1040 1.356 . S
C1033 C1032 1.363 . S
C1033 C1039 1.363 . S
C1034 C1035 1.363 . S
C1034 C1039 1.379 . S
C1034 N1041 1.356 . S
C1035 C1034 1.363 . S
C1035 C1038 1.363 . S
N1036 C1038 1.356 . S
N1036 H1048 0.984 . S
N1036 H1049 0.985 . S
N1037 C1039 1.356 . S
N1037 H1042 0.984 . S
N1037 H1043 0.985 . S
C1038 C1032 1.379 . S
C1038 C1035 1.363 . S
C1038 N1036 1.356 . S
C1039 C1033 1.363 . S
C1039 C1034 1.379 . S
C1039 N1037 1.356 . S
N1040 C1032 1.356 . S
N1040 H1046 0.984 . S
N1040 H1047 0.984 . S
N1041 C1034 1.356 . S
N1041 H1044 0.984 . S
N1041 H1045 0.985 . S
H1042 N1037 0.984 . S
H1043 N1037 0.985 . S
H1044 N1041 0.984 . S
H1045 N1041 0.985 . S
H1046 N1040 0.984 . S
H1047 N1040 0.984 . S
H1048 N1036 0.984 . S
H1049 N1036 0.985 . S
C1050 C1051 1.363 . S
C1050 C1056 1.379 . S
C1050 N1058 1.356 . S
C1051 C1050 1.363 . S
C1051 C1057 1.363 . S
C1052 C1053 1.363 . S
C1052 C1057 1.379 . S
C1052 N1059 1.356 . S
C1053 C1052 1.363 . S
C1053 C1056 1.363 . S
N1054 C1056 1.356 . S
N1054 H1066 0.984 . S
N1054 H1067 0.985 . S
N1055 C1057 1.356 . S
N1055 H1060 0.984 . S
N1055 H1061 0.985 . S
C1056 C1050 1.379 . S
C1056 C1053 1.363 . S
C1056 N1054 1.356 . S
C1057 C1051 1.363 . S
C1057 C1052 1.379 . S
C1057 N1055 1.356 . S
N1058 C1050 1.356 . S
N1058 H1064 0.984 . S
N1058 H1065 0.984 . S
N1059 C1052 1.356 . S
N1059 H1062 0.984 . S
N1059 H1063 0.985 . S
H1060 N1055 0.984 . S
H1061 N1055 0.985 . S
H1062 N1059 0.984 . S
H1063 N1059 0.985 . S
H1064 N1058 0.984 . S
H1065 N1058 0.984 . S
H1066 N1054 0.984 . S
H1067 N1054 0.985 . S
C1068 C1069 1.363 1_565 S
C1068 C1074 1.379 . S
C1068 N1076 1.356 . S
C1069 C1068 1.363 1_545 S
C1069 C1075 1.363 . S
C1070 C1071 1.363 1_545 S
C1070 C1075 1.379 . S
C1070 N1077 1.356 . S
C1071 C1070 1.363 1_565 S
C1071 C1074 1.363 . S
N1072 C1074 1.356 . S
N1072 H1084 0.984 . S
N1072 H1085 0.985 . S
N1073 C1075 1.356 . S
N1073 H1078 0.984 . S
N1073 H1079 0.985 . S
C1074 C1068 1.379 . S
C1074 C1071 1.363 . S
C1074 N1072 1.356 . S
C1075 C1069 1.363 . S
C1075 C1070 1.379 . S
C1075 N1073 1.356 . S
N1076 C1068 1.356 . S
N1076 H1082 0.984 . S
N1076 H1083 0.984 . S
N1077 C1070 1.356 . S
N1077 H1080 0.984 . S
N1077 H1081 0.985 . S
H1078 N1073 0.984 . S
H1079 N1073 0.985 . S
H1080 N1077 0.984 . S
H1081 N1077 0.985 . S
H1082 N1076 0.984 . S
H1083 N1076 0.984 . S
H1084 N1072 0.984 . S
H1085 N1072 0.985 . S
C1086 C1087 1.363 1_556 S
C1086 C1092 1.379 . S
C1086 N1094 1.356 . S
C1087 C1086 1.363 1_554 S
C1087 C1093 1.363 . S
C1088 C1089 1.363 1_554 S
C1088 C1093 1.379 . S
C1088 N1095 1.356 . S
C1089 C1088 1.363 1_556 S
C1089 C1092 1.363 . S
N1090 C1092 1.356 . S
N1090 H1102 0.984 . S
N1090 H1103 0.985 . S
N1091 C1093 1.356 . S
N1091 H1096 0.984 . S
N1091 H1097 0.985 . S
C1092 C1086 1.379 . S
C1092 C1089 1.363 . S
C1092 N1090 1.356 . S
C1093 C1087 1.363 . S
C1093 C1088 1.379 . S
C1093 N1091 1.356 . S
N1094 C1086 1.356 . S
N1094 H1100 0.984 . S
N1094 H1101 0.984 . S
N1095 C1088 1.356 . S
N1095 H1098 0.984 . S
N1095 H1099 0.985 . S
H1096 N1091 0.984 . S
H1097 N1091 0.985 . S
H1098 N1095 0.984 . S
H1099 N1095 0.985 . S
H1100 N1094 0.984 . S
H1101 N1094 0.984 . S
H1102 N1090 0.984 . S
H1103 N1090 0.985 . S
C1104 C1105 1.363 . S
C1104 C1110 1.379 . S
C1104 N1112 1.356 . S
C1105 C1104 1.363 . S
C1105 C1111 1.363 . S
C1106 C1107 1.363 . S
C1106 C1111 1.379 . S
C1106 N1113 1.356 . S
C1107 C1106 1.363 . S
C1107 C1110 1.363 . S
N1108 C1110 1.356 . S
N1108 H1120 0.984 . S
N1108 H1121 0.985 . S
N1109 C1111 1.356 . S
N1109 H1114 0.984 . S
N1109 H1115 0.985 . S
C1110 C1104 1.379 . S
C1110 C1107 1.363 . S
C1110 N1108 1.356 . S
C1111 C1105 1.363 . S
C1111 C1106 1.379 . S
C1111 N1109 1.356 . S
N1112 C1104 1.356 . S
N1112 H1118 0.984 . S
N1112 H1119 0.984 . S
N1113 C1106 1.356 . S
N1113 H1116 0.984 . S
N1113 H1117 0.985 . S
H1114 N1109 0.984 . S
H1115 N1109 0.985 . S
H1116 N1113 0.984 . S
H1117 N1113 0.985 . S
H1118 N1112 0.984 . S
H1119 N1112 0.984 . S
H1120 N1108 0.984 . S
H1121 N1108 0.985 . S
C1122 C1123 1.363 . S
C1122 C1128 1.379 . S
C1122 N1130 1.356 . S
C1123 C1122 1.363 . S
C1123 C1129 1.363 . S
C1124 C1125 1.363 . S
C1124 C1129 1.379 . S
C1124 N1131 1.356 . S
C1125 C1124 1.363 . S
C1125 C1128 1.363 . S
N1126 C1128 1.356 . S
N1126 H1138 0.984 . S
N1126 H1139 0.985 . S
N1127 C1129 1.356 . S
N1127 H1132 0.984 . S
N1127 H1133 0.985 . S
C1128 C1122 1.379 . S
C1128 C1125 1.363 . S
C1128 N1126 1.356 . S
C1129 C1123 1.363 . S
C1129 C1124 1.379 . S
C1129 N1127 1.356 . S
N1130 C1122 1.356 . S
N1130 H1136 0.984 . S
N1130 H1137 0.984 . S
N1131 C1124 1.356 . S
N1131 H1134 0.984 . S
N1131 H1135 0.985 1_655 S
H1132 N1127 0.984 . S
H1133 N1127 0.985 . S
H1134 N1131 0.984 . S
H1135 N1131 0.985 1_455 S
H1136 N1130 0.984 . S
H1137 N1130 0.984 . S
H1138 N1126 0.984 . S
H1139 N1126 0.985 . S
C1140 C1141 1.363 . S
C1140 C1146 1.379 . S
C1140 N1148 1.356 . S
C1141 C1140 1.363 . S
C1141 C1147 1.363 . S
C1142 C1143 1.363 . S
C1142 C1147 1.379 . S
C1142 N1149 1.356 . S
C1143 C1142 1.363 . S
C1143 C1146 1.363 . S
N1144 C1146 1.356 . S
N1144 H1156 0.984 . S
N1144 H1157 0.985 . S
N1145 C1147 1.356 . S
N1145 H1150 0.984 . S
N1145 H1151 0.985 . S
C1146 C1140 1.379 . S
C1146 C1143 1.363 . S
C1146 N1144 1.356 . S
C1147 C1141 1.363 . S
C1147 C1142 1.379 . S
C1147 N1145 1.356 . S
N1148 C1140 1.356 . S
N1148 H1154 0.984 . S
N1148 H1155 0.984 . S
N1149 C1142 1.356 . S
N1149 H1152 0.984 . S
N1149 H1153 0.985 . S
H1150 N1145 0.984 . S
H1151 N1145 0.985 . S
H1152 N1149 0.984 . S
H1153 N1149 0.985 . S
H1154 N1148 0.984 . S
H1155 N1148 0.984 . S
H1156 N1144 0.984 . S
H1157 N1144 0.985 . S
C1158 C1159 1.363 . S
C1158 C1164 1.379 . S
C1158 N1166 1.356 . S
C1159 C1158 1.363 . S
C1159 C1165 1.363 . S
C1160 C1161 1.363 . S
C1160 C1165 1.379 . S
C1160 N1167 1.356 . S
C1161 C1160 1.363 . S
C1161 C1164 1.363 . S
N1162 C1164 1.356 . S
N1162 H1174 0.984 . S
N1162 H1175 0.985 . S
N1163 C1165 1.356 . S
N1163 H1168 0.984 . S
N1163 H1169 0.985 . S
C1164 C1158 1.379 . S
C1164 C1161 1.363 . S
C1164 N1162 1.356 . S
C1165 C1159 1.363 . S
C1165 C1160 1.379 . S
C1165 N1163 1.356 . S
N1166 C1158 1.356 . S
N1166 H1172 0.984 . S
N1166 H1173 0.984 . S
N1167 C1160 1.356 . S
N1167 H1170 0.984 . S
N1167 H1171 0.985 . S
H1168 N1163 0.984 . S
H1169 N1163 0.985 . S
H1170 N1167 0.984 . S
H1171 N1167 0.985 . S
H1172 N1166 0.984 . S
H1173 N1166 0.984 . S
H1174 N1162 0.984 . S
H1175 N1162 0.985 . S
C1176 C1177 1.363 . S
C1176 C1182 1.379 . S
C1176 N1184 1.356 . S
C1177 C1176 1.363 . S
C1177 C1183 1.363 . S
C1178 C1179 1.363 . S
C1178 C1183 1.379 . S
C1178 N1185 1.356 . S
C1179 C1178 1.363 . S
C1179 C1182 1.363 . S
N1180 C1182 1.356 . S
N1180 H1192 0.984 . S
N1180 H1193 0.985 . S
N1181 C1183 1.356 . S
N1181 H1186 0.984 . S
N1181 H1187 0.985 . S
C1182 C1176 1.379 . S
C1182 C1179 1.363 . S
C1182 N1180 1.356 . S
C1183 C1177 1.363 . S
C1183 C1178 1.379 . S
C1183 N1181 1.356 . S
N1184 C1176 1.356 . S
N1184 H1190 0.984 . S
N1184 H1191 0.984 . S
N1185 C1178 1.356 . S
N1185 H1188 0.984 . S
N1185 H1189 0.985 . S
H1186 N1181 0.984 . S
H1187 N1181 0.985 . S
H1188 N1185 0.984 . S
H1189 N1185 0.985 . S
H1190 N1184 0.984 . S
H1191 N1184 0.984 . S
H1192 N1180 0.984 . S
H1193 N1180 0.985 . S
C1194 C1195 1.363 . S
C1194 C1200 1.379 . S
C1194 N1202 1.356 . S
C1195 C1194 1.363 . S
C1195 C1201 1.363 . S
C1196 C1197 1.363 . S
C1196 C1201 1.379 . S
C1196 N1203 1.356 . S
C1197 C1196 1.363 . S
C1197 C1200 1.363 . S
N1198 C1200 1.356 . S
N1198 H1210 0.984 . S
N1198 H1211 0.985 . S
N1199 C1201 1.356 . S
N1199 H1204 0.984 . S
N1199 H1205 0.985 . S
C1200 C1194 1.379 . S
C1200 C1197 1.363 . S
C1200 N1198 1.356 . S
C1201 C1195 1.363 . S
C1201 C1196 1.379 . S
C1201 N1199 1.356 . S
N1202 C1194 1.356 . S
N1202 H1208 0.984 . S
N1202 H1209 0.984 . S
N1203 C1196 1.356 . S
N1203 H1206 0.984 . S
N1203 H1207 0.985 . S
H1204 N1199 0.984 . S
H1205 N1199 0.985 . S
H1206 N1203 0.984 . S
H1207 N1203 0.985 . S
H1208 N1202 0.984 . S
H1209 N1202 0.984 . S
H1210 N1198 0.984 . S
H1211 N1198 0.985 . S
C1212 C1213 1.363 . S
C1212 C1218 1.379 . S
C1212 N1220 1.356 . S
C1213 C1212 1.363 . S
C1213 C1219 1.363 . S
C1214 C1215 1.363 . S
C1214 C1219 1.379 . S
C1214 N1221 1.356 . S
C1215 C1214 1.363 . S
C1215 C1218 1.363 . S
N1216 C1218 1.356 . S
N1216 H1228 0.984 . S
N1216 H1229 0.985 . S
N1217 C1219 1.356 . S
N1217 H1222 0.984 . S
N1217 H1223 0.985 . S
C1218 C1212 1.379 . S
C1218 C1215 1.363 . S
C1218 N1216 1.356 . S
C1219 C1213 1.363 . S
C1219 C1214 1.379 . S
C1219 N1217 1.356 . S
N1220 C1212 1.356 . S
N1220 H1226 0.984 1_565 S
N1220 H1227 0.984 . S
N1221 C1214 1.356 . S
N1221 H1224 0.984 . S
N1221 H1225 0.985 . S
H1222 N1217 0.984 . S
H1223 N1217 0.985 . S
H1224 N1221 0.984 . S
H1225 N1221 0.985 . S
H1226 N1220 0.984 1_545 S
H1227 N1220 0.984 . S
H1228 N1216 0.984 . S
H1229 N1216 0.985 . S
C1230 C1231 1.363 . S
C1230 C1236 1.379 . S
C1230 N1238 1.356 . S
C1231 C1230 1.363 . S
C1231 C1237 1.363 . S
C1232 C1233 1.363 . S
C1232 C1237 1.379 . S
C1232 N1239 1.356 . S
C1233 C1232 1.363 . S
C1233 C1236 1.363 . S
N1234 C1236 1.356 . S
N1234 H1246 0.984 . S
N1234 H1247 0.985 . S
N1235 C1237 1.356 . S
N1235 H1240 0.984 . S
N1235 H1241 0.985 . S
C1236 C1230 1.379 . S
C1236 C1233 1.363 . S
C1236 N1234 1.356 . S
C1237 C1231 1.363 . S
C1237 C1232 1.379 . S
C1237 N1235 1.356 . S
N1238 C1230 1.356 . S
N1238 H1244 0.984 . S
N1238 H1245 0.984 . S
N1239 C1232 1.356 . S
N1239 H1242 0.984 . S
N1239 H1243 0.985 . S
H1240 N1235 0.984 . S
H1241 N1235 0.985 . S
H1242 N1239 0.984 . S
H1243 N1239 0.985 . S
H1244 N1238 0.984 . S
H1245 N1238 0.984 . S
H1246 N1234 0.984 . S
H1247 N1234 0.985 . S
C1248 C1249 1.363 . S
C1248 C1254 1.379 . S
C1248 N1256 1.356 . S
C1249 C1248 1.363 . S
C1249 C1255 1.363 . S
C1250 C1251 1.363 . S
C1250 C1255 1.379 . S
C1250 N1257 1.356 . S
C1251 C1250 1.363 . S
C1251 C1254 1.363 . S
N1252 C1254 1.356 . S
N1252 H1264 0.984 . S
N1252 H1265 0.985 . S
N1253 C1255 1.356 . S
N1253 H1258 0.984 . S
N1253 H1259 0.985 . S
C1254 C1248 1.379 . S
C1254 C1251 1.363 . S
C1254 N1252 1.356 . S
C1255 C1249 1.363 . S
C1255 C1250 1.379 . S
C1255 N1253 1.356 . S
N1256 C1248 1.356 . S
N1256 H1262 0.984 . S
N1256 H1263 0.984 . S
N1257 C1250 1.356 . S
N1257 H1260 0.984 . S
N1257 H1261 0.985 1_554 S
H1258 N1253 0.984 . S
H1259 N1253 0.985 . S
H1260 N1257 0.984 . S
H1261 N1257 0.985 1_556 S
H1262 N1256 0.984 . S
H1263 N1256 0.984 . S
H1264 N1252 0.984 . S
H1265 N1252 0.985 . S
C1266 C1267 1.363 . S
C1266 C1272 1.379 . S
C1266 N1274 1.356 . S
C1267 C1266 1.363 . S
C1267 C1273 1.363 . S
C1268 C1269 1.363 . S
C1268 C1273 1.379 . S
C1268 N1275 1.356 . S
C1269 C1268 1.363 . S
C1269 C1272 1.363 . S
N1270 C1272 1.356 . S
N1270 H1282 0.984 . S
N1270 H1283 0.985 . S
N1271 C1273 1.356 . S
N1271 H1276 0.984 . S
N1271 H1277 0.985 . S
C1272 C1266 1.379 . S
C1272 C1269 1.363 . S
C1272 N1270 1.356 . S
C1273 C1267 1.363 . S
C1273 C1268 1.379 . S
C1273 N1271 1.356 . S
N1274 C1266 1.356 . S
N1274 H1280 0.984 . S
N1274 H1281 0.984 . S
N1275 C1268 1.356 . S
N1275 H1278 0.984 . S
N1275 H1279 0.985 . S
H1276 N1271 0.984 . S
H1277 N1271 0.985 . S
H1278 N1275 0.984 . S
H1279 N1275 0.985 . S
H1280 N1274 0.984 . S
H1281 N1274 0.984 . S
H1282 N1270 0.984 . S
H1283 N1270 0.985 . S
C1284 C1285 1.363 . S
C1284 C1290 1.379 . S
C1284 N1292 1.356 . S
C1285 C1284 1.363 . S
C1285 C1291 1.363 . S
C1286 C1287 1.363 . S
C1286 C1291 1.379 . S
C1286 N1293 1.356 . S
C1287 C1286 1.363 . S
C1287 C1290 1.363 . S
N1288 C1290 1.356 . S
N1288 H1300 0.984 . S
N1288 H1301 0.985 . S
N1289 C1291 1.356 . S
N1289 H1294 0.984 . S
N1289 H1295 0.985 . S
C1290 C1284 1.379 . S
C1290 C1287 1.363 . S
C1290 N1288 1.356 . S
C1291 C1285 1.363 . S
C1291 C1286 1.379 . S
C1291 N1289 1.356 . S
N1292 C1284 1.356 . S
N1292 H1298 0.984 . S
N1292 H1299 0.984 . S
N1293 C1286 1.356 . S
N1293 H1296 0.984 . S
N1293 H1297 0.985 . S
H1294 N1289 0.984 . S
H1295 N1289 0.985 . S
H1296 N1293 0.984 . S
H1297 N1293 0.985 . S
H1298 N1292 0.984 . S
H1299 N1292 0.984 . S
H1300 N1288 0.984 . S
H1301 N1288 0.985 . S
C1302 C1303 1.363 . S
C1302 C1308 1.379 . S
C1302 N1310 1.356 . S
C1303 C1302 1.363 . S
C1303 C1309 1.363 . S
C1304 C1305 1.363 . S
C1304 C1309 1.379 . S
C1304 N1311 1.356 . S
C1305 C1304 1.363 . S
C1305 C1308 1.363 . S
N1306 C1308 1.356 . S
N1306 H1318 0.984 . S
N1306 H1319 0.985 . S
N1307 C1309 1.356 . S
N1307 H1312 0.984 . S
N1307 H1313 0.985 . S
C1308 C1302 1.379 . S
C1308 C1305 1.363 . S
C1308 N1306 1.356 . S
C1309 C1303 1.363 . S
C1309 C1304 1.379 . S
C1309 N1307 1.356 . S
N1310 C1302 1.356 . S
N1310 H1316 0.984 . S
N1310 H1317 0.984 . S
N1311 C1304 1.356 . S
N1311 H1314 0.984 . S
N1311 H1315 0.985 . S
H1312 N1307 0.984 . S
H1313 N1307 0.985 . S
H1314 N1311 0.984 . S
H1315 N1311 0.985 . S
H1316 N1310 0.984 . S
H1317 N1310 0.984 . S
H1318 N1306 0.984 . S
H1319 N1306 0.985 . S
C1320 C1321 1.363 . S
C1320 C1326 1.379 . S
C1320 N1328 1.356 . S
C1321 C1320 1.363 . S
C1321 C1327 1.363 . S
C1322 C1323 1.363 . S
C1322 C1327 1.379 . S
C1322 N1329 1.356 . S
C1323 C1322 1.363 . S
C1323 C1326 1.363 . S
N1324 C1326 1.356 . S
N1324 H1336 0.984 . S
N1324 H1337 0.985 . S
N1325 C1327 1.356 . S
N1325 H1330 0.984 . S
N1325 H1331 0.985 . S
C1326 C1320 1.379 . S
C1326 C1323 1.363 . S
C1326 N1324 1.356 . S
C1327 C1321 1.363 . S
C1327 C1322 1.379 . S
C1327 N1325 1.356 . S
N1328 C1320 1.356 . S
N1328 H1334 0.984 . S
N1328 H1335 0.984 . S
N1329 C1322 1.356 . S
N1329 H1332 0.984 . S
N1329 H1333 0.985 . S
H1330 N1325 0.984 . S
H1331 N1325 0.985 . S
H1332 N1329 0.984 . S
H1333 N1329 0.985 . S
H1334 N1328 0.984 . S
H1335 N1328 0.984 . S
H1336 N1324 0.984 . S
H1337 N1324 0.985 . S
C1338 C1339 1.363 . S
C1338 C1344 1.379 . S
C1338 N1346 1.356 . S
C1339 C1338 1.363 . S
C1339 C1345 1.363 . S
C1340 C1341 1.363 . S
C1340 C1345 1.379 . S
C1340 N1347 1.356 . S
C1341 C1340 1.363 . S
C1341 C1344 1.363 . S
N1342 C1344 1.356 . S
N1342 H1354 0.984 . S
N1342 H1355 0.985 . S
N1343 C1345 1.356 . S
N1343 H1348 0.984 . S
N1343 H1349 0.985 . S
C1344 C1338 1.379 . S
C1344 C1341 1.363 . S
C1344 N1342 1.356 . S
C1345 C1339 1.363 . S
C1345 C1340 1.379 . S
C1345 N1343 1.356 . S
N1346 C1338 1.356 . S
N1346 H1352 0.984 . S
N1346 H1353 0.984 . S
N1347 C1340 1.356 . S
N1347 H1350 0.984 . S
N1347 H1351 0.985 . S
H1348 N1343 0.984 . S
H1349 N1343 0.985 . S
H1350 N1347 0.984 . S
H1351 N1347 0.985 . S
H1352 N1346 0.984 . S
H1353 N1346 0.984 . S
H1354 N1342 0.984 . S
H1355 N1342 0.985 . S
C1356 C1357 1.363 . S
C1356 C1362 1.379 . S
C1356 N1364 1.356 . S
C1357 C1356 1.363 . S
C1357 C1363 1.363 . S
C1358 C1359 1.363 . S
C1358 C1363 1.379 . S
C1358 N1365 1.356 . S
C1359 C1358 1.363 . S
C1359 C1362 1.363 . S
N1360 C1362 1.356 . S
N1360 H1372 0.984 . S
N1360 H1373 0.985 . S
N1361 C1363 1.356 . S
N1361 H1366 0.984 . S
N1361 H1367 0.985 . S
C1362 C1356 1.379 . S
C1362 C1359 1.363 . S
C1362 N1360 1.356 . S
C1363 C1357 1.363 . S
C1363 C1358 1.379 . S
C1363 N1361 1.356 . S
N1364 C1356 1.356 . S
N1364 H1370 0.984 . S
N1364 H1371 0.984 . S
N1365 C1358 1.356 . S
N1365 H1368 0.984 . S
N1365 H1369 0.985 . S
H1366 N1361 0.984 . S
H1367 N1361 0.985 . S
H1368 N1365 0.984 . S
H1369 N1365 0.985 . S
H1370 N1364 0.984 . S
H1371 N1364 0.984 . S
H1372 N1360 0.984 . S
H1373 N1360 0.985 . S
C1374 C1375 1.363 . S
C1374 C1380 1.379 . S
C1374 N1382 1.356 . S
C1375 C1374 1.363 . S
C1375 C1381 1.363 . S
C1376 C1377 1.363 . S
C1376 C1381 1.379 . S
C1376 N1383 1.356 . S
C1377 C1376 1.363 . S
C1377 C1380 1.363 . S
N1378 C1380 1.356 . S
N1378 H1390 0.984 . S
N1378 H1391 0.985 . S
N1379 C1381 1.356 . S
N1379 H1384 0.984 . S
N1379 H1385 0.985 . S
C1380 C1374 1.379 . S
C1380 C1377 1.363 . S
C1380 N1378 1.356 . S
C1381 C1375 1.363 . S
C1381 C1376 1.379 . S
C1381 N1379 1.356 . S
N1382 C1374 1.356 . S
N1382 H1388 0.984 . S
N1382 H1389 0.984 . S
N1383 C1376 1.356 . S
N1383 H1386 0.984 . S
N1383 H1387 0.985 . S
H1384 N1379 0.984 . S
H1385 N1379 0.985 . S
H1386 N1383 0.984 . S
H1387 N1383 0.985 . S
H1388 N1382 0.984 . S
H1389 N1382 0.984 . S
H1390 N1378 0.984 . S
H1391 N1378 0.985 . S
C1392 C1393 1.363 . S
C1392 C1398 1.379 . S
C1392 N1400 1.356 . S
C1393 C1392 1.363 . S
C1393 C1399 1.363 . S
C1394 C1395 1.363 . S
C1394 C1399 1.379 . S
C1394 N1401 1.356 . S
C1395 C1394 1.363 . S
C1395 C1398 1.363 . S
N1396 C1398 1.356 . S
N1396 H1408 0.984 1_565 S
N1396 H1409 0.985 . S
N1397 C1399 1.356 . S
N1397 H1402 0.984 . S
N1397 H1403 0.985 . S
C1398 C1392 1.379 . S
C1398 C1395 1.363 . S
C1398 N1396 1.356 . S
C1399 C1393 1.363 . S
C1399 C1394 1.379 . S
C1399 N1397 1.356 . S
N1400 C1392 1.356 . S
N1400 H1406 0.984 . S
N1400 H1407 0.984 . S
N1401 C1394 1.356 . S
N1401 H1404 0.984 . S
N1401 H1405 0.985 . S
H1402 N1397 0.984 . S
H1403 N1397 0.985 . S
H1404 N1401 0.984 . S
H1405 N1401 0.985 . S
H1406 N1400 0.984 . S
H1407 N1400 0.984 . S
H1408 N1396 0.984 1_545 S
H1409 N1396 0.985 . S
C1410 C1411 1.363 . S
C1410 C1416 1.379 . S
C1410 N1418 1.356 . S
C1411 C1410 1.363 . S
C1411 C1417 1.363 . S
C1412 C1413 1.363 . S
C1412 C1417 1.379 . S
C1412 N1419 1.356 . S
C1413 C1412 1.363 . S
C1413 C1416 1.363 . S
N1414 C1416 1.356 . S
N1414 H1426 0.984 . S
N1414 H1427 0.985 . S
N1415 C1417 1.356 . S
N1415 H1420 0.984 . S
N1415 H1421 0.985 . S
C1416 C1410 1.379 . S
C1416 C1413 1.363 . S
C1416 N1414 1.356 . S
C1417 C1411 1.363 . S
C1417 C1412 1.379 . S
C1417 N1415 1.356 . S
N1418 C1410 1.356 . S
N1418 H1424 0.984 . S
N1418 H1425 0.984 . S
N1419 C1412 1.356 . S
N1419 H1422 0.984 . S
N1419 H1423 0.985 . S
H1420 N1415 0.984 . S
H1421 N1415 0.985 . S
H1422 N1419 0.984 . S
H1423 N1419 0.985 . S
H1424 N1418 0.984 . S
H1425 N1418 0.984 . S
H1426 N1414 0.984 . S
H1427 N1414 0.985 . S
C1428 C1429 1.363 . S
C1428 C1434 1.379 . S
C1428 N1436 1.356 . S
C1429 C1428 1.363 . S
C1429 C1435 1.363 . S
C1430 C1431 1.363 . S
C1430 C1435 1.379 . S
C1430 N1437 1.356 . S
C1431 C1430 1.363 . S
C1431 C1434 1.363 . S
N1432 C1434 1.356 . S
N1432 H1444 0.984 . S
N1432 H1445 0.985 . S
N1433 C1435 1.356 . S
N1433 H1438 0.984 . S
N1433 H1439 0.985 . S
C1434 C1428 1.379 . S
C1434 C1431 1.363 . S
C1434 N1432 1.356 . S
C1435 C1429 1.363 . S
C1435 C1430 1.379 . S
C1435 N1433 1.356 . S
N1436 C1428 1.356 . S
N1436 H1442 0.984 . S
N1436 H1443 0.984 . S
N1437 C1430 1.356 . S
N1437 H1440 0.984 . S
N1437 H1441 0.985 . S
H1438 N1433 0.984 . S
H1439 N1433 0.985 . S
H1440 N1437 0.984 . S
H1441 N1437 0.985 . S
H1442 N1436 0.984 . S
H1443 N1436 0.984 . S
H1444 N1432 0.984 . S
H1445 N1432 0.985 . S
C1446 C1447 1.363 . S
C1446 C1452 1.379 . S
C1446 N1454 1.356 . S
C1447 C1446 1.363 . S
C1447 C1453 1.363 . S
C1448 C1449 1.363 . S
C1448 C1453 1.379 . S
C1448 N1455 1.356 . S
C1449 C1448 1.363 . S
C1449 C1452 1.363 . S
N1450 C1452 1.356 . S
N1450 H1462 0.984 . S
N1450 H1463 0.985 . S
N1451 C1453 1.356 . S
N1451 H1456 0.984 . S
N1451 H1457 0.985 . S
C1452 C1446 1.379 . S
C1452 C1449 1.363 . S
C1452 N1450 1.356 . S
C1453 C1447 1.363 . S
C1453 C1448 1.379 . S
C1453 N1451 1.356 . S
N1454 C1446 1.356 . S
N1454 H1460 0.984 . S
N1454 H1461 0.984 . S
N1455 C1448 1.356 . S
N1455 H1458 0.984 . S
N1455 H1459 0.985 . S
H1456 N1451 0.984 . S
H1457 N1451 0.985 . S
H1458 N1455 0.984 . S
H1459 N1455 0.985 . S
H1460 N1454 0.984 . S
H1461 N1454 0.984 . S
H1462 N1450 0.984 . S
H1463 N1450 0.985 . S
C1464 C1465 1.363 . S
C1464 C1470 1.379 . S
C1464 N1472 1.356 . S
C1465 C1464 1.363 . S
C1465 C1471 1.363 . S
C1466 C1467 1.363 . S
C1466 C1471 1.379 . S
C1466 N1473 1.356 . S
C1467 C1466 1.363 . S
C1467 C1470 1.363 . S
N1468 C1470 1.356 . S
N1468 H1480 0.984 . S
N1468 H1481 0.985 . S
N1469 C1471 1.356 . S
N1469 H1474 0.984 . S
N1469 H1475 0.985 1_556 S
C1470 C1464 1.379 . S
C1470 C1467 1.363 . S
C1470 N1468 1.356 . S
C1471 C1465 1.363 . S
C1471 C1466 1.379 . S
C1471 N1469 1.356 . S
N1472 C1464 1.356 . S
N1472 H1478 0.984 . S
N1472 H1479 0.984 . S
N1473 C1466 1.356 . S
N1473 H1476 0.984 . S
N1473 H1477 0.985 . S
H1474 N1469 0.984 . S
H1475 N1469 0.985 1_554 S
H1476 N1473 0.984 . S
H1477 N1473 0.985 . S
H1478 N1472 0.984 . S
H1479 N1472 0.984 . S
H1480 N1468 0.984 . S
H1481 N1468 0.985 . S
C1482 C1483 1.363 . S
C1482 C1488 1.379 . S
C1482 N1490 1.356 . S
C1483 C1482 1.363 . S
C1483 C1489 1.363 . S
C1484 C1485 1.363 . S
C1484 C1489 1.379 . S
C1484 N1491 1.356 . S
C1485 C1484 1.363 . S
C1485 C1488 1.363 . S
N1486 C1488 1.356 . S
N1486 H1498 0.984 . S
N1486 H1499 0.985 . S
N1487 C1489 1.356 . S
N1487 H1492 0.984 . S
N1487 H1493 0.985 . S
C1488 C1482 1.379 . S
C1488 C1485 1.363 . S
C1488 N1486 1.356 . S
C1489 C1483 1.363 . S
C1489 C1484 1.379 . S
C1489 N1487 1.356 . S
N1490 C1482 1.356 . S
N1490 H1496 0.984 . S
N1490 H1497 0.984 . S
N1491 C1484 1.356 . S
N1491 H1494 0.984 . S
N1491 H1495 0.985 . S
H1492 N1487 0.984 . S
H1493 N1487 0.985 . S
H1494 N1491 0.984 . S
H1495 N1491 0.985 . S
H1496 N1490 0.984 . S
H1497 N1490 0.984 . S
H1498 N1486 0.984 . S
H1499 N1486 0.985 . S
C1500 C1501 1.363 . S
C1500 C1506 1.379 . S
C1500 N1508 1.356 . S
C1501 C1500 1.363 . S
C1501 C1507 1.363 . S
C1502 C1503 1.363 . S
C1502 C1507 1.379 . S
C1502 N1509 1.356 . S
C1503 C1502 1.363 . S
C1503 C1506 1.363 . S
N1504 C1506 1.356 . S
N1504 H1516 0.984 . S
N1504 H1517 0.985 . S
N1505 C1507 1.356 . S
N1505 H1510 0.984 . S
N1505 H1511 0.985 . S
C1506 C1500 1.379 . S
C1506 C1503 1.363 . S
C1506 N1504 1.356 . S
C1507 C1501 1.363 . S
C1507 C1502 1.379 . S
C1507 N1505 1.356 . S
N1508 C1500 1.356 . S
N1508 H1514 0.984 . S
N1508 H1515 0.984 . S
N1509 C1502 1.356 . S
N1509 H1512 0.984 . S
N1509 H1513 0.985 . S
H1510 N1505 0.984 . S
H1511 N1505 0.985 . S
H1512 N1509 0.984 . S
H1513 N1509 0.985 . S
H1514 N1508 0.984 . S
H1515 N1508 0.984 . S
H1516 N1504 0.984 . S
H1517 N1504 0.985 . S
C1518 C1519 1.363 . S
C1518 C1524 1.379 . S
C1518 N1526 1.356 . S
C1519 C1518 1.363 . S
C1519 C1525 1.363 . S
C1520 C1521 1.363 . S
C1520 C1525 1.379 . S
C1520 N1527 1.356 . S
C1521 C1520 1.363 . S
C1521 C1524 1.363 . S
N1522 C1524 1.356 . S
N1522 H1534 0.984 . S
N1522 H1535 0.985 . S
N1523 C1525 1.356 . S
N1523 H1528 0.984 . S
N1523 H1529 0.985 . S
C1524 C1518 1.379 . S
C1524 C1521 1.363 . S
C1524 N1522 1.356 . S
C1525 C1519 1.363 . S
C1525 C1520 1.379 . S
C1525 N1523 1.356 . S
N1526 C1518 1.356 . S
N1526 H1532 0.984 . S
N1526 H1533 0.984 . S
N1527 C1520 1.356 . S
N1527 H1530 0.984 . S
N1527 H1531 0.985 . S
H1528 N1523 0.984 . S
H1529 N1523 0.985 . S
H1530 N1527 0.984 . S
H1531 N1527 0.985 . S
H1532 N1526 0.984 . S
H1533 N1526 0.984 . S
H1534 N1522 0.984 . S
H1535 N1522 0.985 . S
C1536 C1537 1.363 . S
C1536 C1542 1.379 . S
C1536 N1544 1.356 . S
C1537 C1536 1.363 . S
C1537 C1543 1.363 . S
C1538 C1539 1.363 . S
C1538 C1543 1.379 . S
C1538 N1545 1.356 . S
C1539 C1538 1.363 . S
C1539 C1542 1.363 . S
N1540 C1542 1.356 . S
N1540 H1552 0.984 . S
N1540 H1553 0.985 . S
N1541 C1543 1.356 . S
N1541 H1546 0.984 . S
N1541 H1547 0.985 . S
C1542 C1536 1.379 . S
C1542 C1539 1.363 . S
C1542 N1540 1.356 . S
C1543 C1537 1.363 . S
C1543 C1538 1.379 . S
C1543 N1541 1.356 . S
N1544 C1536 1.356 . S
N1544 H1550 0.984 . S
N1544 H1551 0.984 . S
N1545 C1538 1.356 . S
N1545 H1548 0.984 . S
N1545 H1549 0.985 . S
H1546 N1541 0.984 . S
H1547 N1541 0.985 . S
H1548 N1545 0.984 . S
H1549 N1545 0.985 . S
H1550 N1544 0.984 . S
H1551 N1544 0.984 . S
H1552 N1540 0.984 . S
H1553 N1540 0.985 . S
C1554 C1555 1.363 . S
C1554 C1560 1.379 . S
C1554 N1562 1.356 . S
C1555 C1554 1.363 . S
C1555 C1561 1.363 . S
C1556 C1557 1.363 . S
C1556 C1561 1.379 . S
C1556 N1563 1.356 . S
C1557 C1556 1.363 . S
C1557 C1560 1.363 . S
N1558 C1560 1.356 . S
N1558 H1570 0.984 . S
N1558 H1571 0.985 . S
N1559 C1561 1.356 . S
N1559 H1564 0.984 . S
N1559 H1565 0.985 . S
C1560 C1554 1.379 . S
C1560 C1557 1.363 . S
C1560 N1558 1.356 . S
C1561 C1555 1.363 . S
C1561 C1556 1.379 . S
C1561 N1559 1.356 . S
N1562 C1554 1.356 . S
N1562 H1568 0.984 . S
N1562 H1569 0.984 . S
N1563 C1556 1.356 . S
N1563 H1566 0.984 . S
N1563 H1567 0.985 . S
H1564 N1559 0.984 . S
H1565 N1559 0.985 . S
H1566 N1563 0.984 . S
H1567 N1563 0.985 . S
H1568 N1562 0.984 . S
H1569 N1562 0.984 . S
H1570 N1558 0.984 . S
H1571 N1558 0.985 . S
C1572 C1573 1.363 . S
C1572 C1578 1.379 . S
C1572 N1580 1.356 . S
C1573 C1572 1.363 . S
C1573 C1579 1.363 . S
C1574 C1575 1.363 . S
C1574 C1579 1.379 . S
C1574 N1581 1.356 . S
C1575 C1574 1.363 . S
C1575 C1578 1.363 . S
N1576 C1578 1.356 . S
N1576 H1588 0.984 . S
N1576 H1589 0.985 . S
N1577 C1579 1.356 . S
N1577 H1582 0.984 . S
N1577 H1583 0.985 . S
C1578 C1572 1.379 . S
C1578 C1575 1.363 . S
C1578 N1576 1.356 . S
C1579 C1573 1.363 . S
C1579 C1574 1.379 . S
C1579 N1577 1.356 . S
N1580 C1572 1.356 . S
N1580 H1586 0.984 . S
N1580 H1587 0.984 . S
N1581 C1574 1.356 . S
N1581 H1584 0.984 . S
N1581 H1585 0.985 . S
H1582 N1577 0.984 . S
H1583 N1577 0.985 . S
H1584 N1581 0.984 . S
H1585 N1581 0.985 . S
H1586 N1580 0.984 . S
H1587 N1580 0.984 . S
H1588 N1576 0.984 . S
H1589 N1576 0.985 . S
C1590 C1591 1.363 . S
C1590 C1596 1.379 . S
C1590 N1598 1.356 . S
C1591 C1590 1.363 . S
C1591 C1597 1.363 . S
C1592 C1593 1.363 . S
C1592 C1597 1.379 . S
C1592 N1599 1.356 . S
C1593 C1592 1.363 . S
C1593 C1596 1.363 . S
N1594 C1596 1.356 . S
N1594 H1606 0.984 . S
N1594 H1607 0.985 . S
N1595 C1597 1.356 . S
N1595 H1600 0.984 . S
N1595 H1601 0.985 . S
C1596 C1590 1.379 . S
C1596 C1593 1.363 . S
C1596 N1594 1.356 . S
C1597 C1591 1.363 . S
C1597 C1592 1.379 . S
C1597 N1595 1.356 . S
N1598 C1590 1.356 . S
N1598 H1604 0.984 . S
N1598 H1605 0.984 . S
N1599 C1592 1.356 . S
N1599 H1602 0.984 . S
N1599 H1603 0.985 . S
H1600 N1595 0.984 . S
H1601 N1595 0.985 . S
H1602 N1599 0.984 . S
H1603 N1599 0.985 . S
H1604 N1598 0.984 . S
H1605 N1598 0.984 . S
H1606 N1594 0.984 . S
H1607 N1594 0.985 . S
C1608 C1609 1.363 . S
C1608 C1614 1.379 . S
C1608 N1616 1.356 . S
C1609 C1608 1.363 . S
C1609 C1615 1.363 . S
C1610 C1611 1.363 . S
C1610 C1615 1.379 . S
C1610 N1617 1.356 . S
C1611 C1610 1.363 . S
C1611 C1614 1.363 . S
N1612 C1614 1.356 . S
N1612 H1624 0.984 . S
N1612 H1625 0.985 . S
N1613 C1615 1.356 . S
N1613 H1618 0.984 . S
N1613 H1619 0.985 . S
C1614 C1608 1.379 . S
C1614 C1611 1.363 . S
C1614 N1612 1.356 . S
C1615 C1609 1.363 . S
C1615 C1610 1.379 . S
C1615 N1613 1.356 . S
N1616 C1608 1.356 . S
N1616 H1622 0.984 . S
N1616 H1623 0.984 . S
N1617 C1610 1.356 . S
N1617 H1620 0.984 . S
N1617 H1621 0.985 . S
H1618 N1613 0.984 . S
H1619 N1613 0.985 . S
H1620 N1617 0.984 . S
H1621 N1617 0.985 . S
H1622 N1616 0.984 . S
H1623 N1616 0.984 . S
H1624 N1612 0.984 . S
H1625 N1612 0.985 . S
C1626 C1627 1.363 . S
C1626 C1632 1.379 . S
C1626 N1634 1.356 . S
C1627 C1626 1.363 . S
C1627 C1633 1.363 . S
C1628 C1629 1.363 . S
C1628 C1633 1.379 . S
C1628 N1635 1.356 . S
C1629 C1628 1.363 . S
C1629 C1632 1.363 . S
N1630 C1632 1.356 . S
N1630 H1642 0.984 . S
N1630 H1643 0.985 . S
N1631 C1633 1.356 . S
N1631 H1636 0.984 . S
N1631 H1637 0.985 . S
C1632 C1626 1.379 . S
C1632 C1629 1.363 . S
C1632 N1630 1.356 . S
C1633 C1627 1.363 . S
C1633 C1628 1.379 . S
C1633 N1631 1.356 . S
N1634 C1626 1.356 . S
N1634 H1640 0.984 . S
N1634 H1641 0.984 . S
N1635 C1628 1.356 . S
N1635 H1638 0.984 . S
N1635 H1639 0.985 . S
H1636 N1631 0.984 . S
H1637 N1631 0.985 . S
H1638 N1635 0.984 . S
H1639 N1635 0.985 . S
H1640 N1634 0.984 . S
H1641 N1634 0.984 . S
H1642 N1630 0.984 . S
H1643 N1630 0.985 . S
C1644 C1645 1.363 . S
C1644 C1650 1.379 . S
C1644 N1652 1.356 . S
C1645 C1644 1.363 . S
C1645 C1651 1.363 . S
C1646 C1647 1.363 . S
C1646 C1651 1.379 . S
C1646 N1653 1.356 . S
C1647 C1646 1.363 . S
C1647 C1650 1.363 . S
N1648 C1650 1.356 . S
N1648 H1660 0.984 . S
N1648 H1661 0.985 . S
N1649 C1651 1.356 . S
N1649 H1654 0.984 . S
N1649 H1655 0.985 . S
C1650 C1644 1.379 . S
C1650 C1647 1.363 . S
C1650 N1648 1.356 . S
C1651 C1645 1.363 . S
C1651 C1646 1.379 . S
C1651 N1649 1.356 . S
N1652 C1644 1.356 . S
N1652 H1658 0.984 . S
N1652 H1659 0.984 . S
N1653 C1646 1.356 . S
N1653 H1656 0.984 . S
N1653 H1657 0.985 . S
H1654 N1649 0.984 . S
H1655 N1649 0.985 . S
H1656 N1653 0.984 . S
H1657 N1653 0.985 . S
H1658 N1652 0.984 . S
H1659 N1652 0.984 . S
H1660 N1648 0.984 . S
H1661 N1648 0.985 . S
C1662 C1663 1.363 . S
C1662 C1668 1.379 . S
C1662 N1670 1.356 . S
C1663 C1662 1.363 . S
C1663 C1669 1.363 . S
C1664 C1665 1.363 . S
C1664 C1669 1.379 . S
C1664 N1671 1.356 . S
C1665 C1664 1.363 . S
C1665 C1668 1.363 . S
N1666 C1668 1.356 . S
N1666 H1678 0.984 1_545 S
N1666 H1679 0.985 . S
N1667 C1669 1.356 . S
N1667 H1672 0.984 . S
N1667 H1673 0.985 . S
C1668 C1662 1.379 . S
C1668 C1665 1.363 . S
C1668 N1666 1.356 . S
C1669 C1663 1.363 . S
C1669 C1664 1.379 . S
C1669 N1667 1.356 . S
N1670 C1662 1.356 . S
N1670 H1676 0.984 . S
N1670 H1677 0.984 . S
N1671 C1664 1.356 . S
N1671 H1674 0.984 . S
N1671 H1675 0.985 . S
H1672 N1667 0.984 . S
H1673 N1667 0.985 . S
H1674 N1671 0.984 . S
H1675 N1671 0.985 . S
H1676 N1670 0.984 . S
H1677 N1670 0.984 . S
H1678 N1666 0.984 1_565 S
H1679 N1666 0.985 . S
C1680 C1681 1.363 . S
C1680 C1686 1.379 . S
C1680 N1688 1.356 . S
C1681 C1680 1.363 . S
C1681 C1687 1.363 . S
C1682 C1683 1.363 . S
C1682 C1687 1.379 . S
C1682 N1689 1.356 . S
C1683 C1682 1.363 . S
C1683 C1686 1.363 . S
N1684 C1686 1.356 . S
N1684 H1696 0.984 . S
N1684 H1697 0.985 . S
N1685 C1687 1.356 . S
N1685 H1690 0.984 . S
N1685 H1691 0.985 . S
C1686 C1680 1.379 . S
C1686 C1683 1.363 . S
C1686 N1684 1.356 . S
C1687 C1681 1.363 . S
C1687 C1682 1.379 . S
C1687 N1685 1.356 . S
N1688 C1680 1.356 . S
N1688 H1694 0.984 . S
N1688 H1695 0.984 . S
N1689 C1682 1.356 . S
N1689 H1692 0.984 . S
N1689 H1693 0.985 . S
H1690 N1685 0.984 . S
H1691 N1685 0.985 . S
H1692 N1689 0.984 . S
H1693 N1689 0.985 . S
H1694 N1688 0.984 . S
H1695 N1688 0.984 . S
H1696 N1684 0.984 . S
H1697 N1684 0.985 . S
C1698 C1699 1.363 . S
C1698 C1704 1.379 . S
C1698 N1706 1.356 . S
C1699 C1698 1.363 . S
C1699 C1705 1.363 . S
C1700 C1701 1.363 . S
C1700 C1705 1.379 . S
C1700 N1707 1.356 . S
C1701 C1700 1.363 . S
C1701 C1704 1.363 . S
N1702 C1704 1.356 . S
N1702 H1714 0.984 . S
N1702 H1715 0.985 . S
N1703 C1705 1.356 . S
N1703 H1708 0.984 . S
N1703 H1709 0.985 . S
C1704 C1698 1.379 . S
C1704 C1701 1.363 . S
C1704 N1702 1.356 . S
C1705 C1699 1.363 . S
C1705 C1700 1.379 . S
C1705 N1703 1.356 . S
N1706 C1698 1.356 . S
N1706 H1712 0.984 . S
N1706 H1713 0.984 . S
N1707 C1700 1.356 . S
N1707 H1710 0.984 . S
N1707 H1711 0.985 1_556 S
H1708 N1703 0.984 . S
H1709 N1703 0.985 . S
H1710 N1707 0.984 . S
H1711 N1707 0.985 1_554 S
H1712 N1706 0.984 . S
H1713 N1706 0.984 . S
H1714 N1702 0.984 . S
H1715 N1702 0.985 . S
C1716 C1717 1.363 . S
C1716 C1722 1.379 . S
C1716 N1724 1.356 . S
C1717 C1716 1.363 . S
C1717 C1723 1.363 . S
C1718 C1719 1.363 . S
C1718 C1723 1.379 . S
C1718 N1725 1.356 . S
C1719 C1718 1.363 . S
C1719 C1722 1.363 . S
N1720 C1722 1.356 . S
N1720 H1732 0.984 . S
N1720 H1733 0.985 . S
N1721 C1723 1.356 . S
N1721 H1726 0.984 . S
N1721 H1727 0.985 . S
C1722 C1716 1.379 . S
C1722 C1719 1.363 . S
C1722 N1720 1.356 . S
C1723 C1717 1.363 . S
C1723 C1718 1.379 . S
C1723 N1721 1.356 . S
N1724 C1716 1.356 . S
N1724 H1730 0.984 . S
N1724 H1731 0.984 . S
N1725 C1718 1.356 . S
N1725 H1728 0.984 . S
N1725 H1729 0.985 . S
H1726 N1721 0.984 . S
H1727 N1721 0.985 . S
H1728 N1725 0.984 . S
H1729 N1725 0.985 . S
H1730 N1724 0.984 . S
H1731 N1724 0.984 . S
H1732 N1720 0.984 . S
H1733 N1720 0.985 . S
C1734 C1735 1.363 . S
C1734 C1740 1.379 . S
C1734 N1742 1.356 . S
C1735 C1734 1.363 . S
C1735 C1741 1.363 . S
C1736 C1737 1.363 . S
C1736 C1741 1.379 . S
C1736 N1743 1.356 . S
C1737 C1736 1.363 . S
C1737 C1740 1.363 . S
N1738 C1740 1.356 . S
N1738 H1750 0.984 . S
N1738 H1751 0.985 . S
N1739 C1741 1.356 . S
N1739 H1744 0.984 . S
N1739 H1745 0.985 . S
C1740 C1734 1.379 . S
C1740 C1737 1.363 . S
C1740 N1738 1.356 . S
C1741 C1735 1.363 . S
C1741 C1736 1.379 . S
C1741 N1739 1.356 . S
N1742 C1734 1.356 . S
N1742 H1748 0.984 . S
N1742 H1749 0.984 . S
N1743 C1736 1.356 . S
N1743 H1746 0.984 . S
N1743 H1747 0.985 . S
H1744 N1739 0.984 . S
H1745 N1739 0.985 . S
H1746 N1743 0.984 . S
H1747 N1743 0.985 . S
H1748 N1742 0.984 . S
H1749 N1742 0.984 . S
H1750 N1738 0.984 . S
H1751 N1738 0.985 . S
C1752 C1753 1.363 . S
C1752 C1758 1.379 . S
C1752 N1760 1.356 . S
C1753 C1752 1.363 . S
C1753 C1759 1.363 . S
C1754 C1755 1.363 . S
C1754 C1759 1.379 . S
C1754 N1761 1.356 . S
C1755 C1754 1.363 . S
C1755 C1758 1.363 . S
N1756 C1758 1.356 . S
N1756 H1768 0.984 . S
N1756 H1769 0.985 . S
N1757 C1759 1.356 . S
N1757 H1762 0.984 . S
N1757 H1763 0.985 . S
C1758 C1752 1.379 . S
C1758 C1755 1.363 . S
C1758 N1756 1.356 . S
C1759 C1753 1.363 . S
C1759 C1754 1.379 . S
C1759 N1757 1.356 . S
N1760 C1752 1.356 . S
N1760 H1766 0.984 . S
N1760 H1767 0.984 . S
N1761 C1754 1.356 . S
N1761 H1764 0.984 . S
N1761 H1765 0.985 . S
H1762 N1757 0.984 . S
H1763 N1757 0.985 . S
H1764 N1761 0.984 . S
H1765 N1761 0.985 . S
H1766 N1760 0.984 . S
H1767 N1760 0.984 . S
H1768 N1756 0.984 . S
H1769 N1756 0.985 . S
C1770 C1771 1.363 . S
C1770 C1776 1.379 . S
C1770 N1778 1.356 . S
C1771 C1770 1.363 . S
C1771 C1777 1.363 . S
C1772 C1773 1.363 . S
C1772 C1777 1.379 . S
C1772 N1779 1.356 . S
C1773 C1772 1.363 . S
C1773 C1776 1.363 . S
N1774 C1776 1.356 . S
N1774 H1786 0.984 . S
N1774 H1787 0.985 . S
N1775 C1777 1.356 . S
N1775 H1780 0.984 . S
N1775 H1781 0.985 . S
C1776 C1770 1.379 . S
C1776 C1773 1.363 . S
C1776 N1774 1.356 . S
C1777 C1771 1.363 . S
C1777 C1772 1.379 . S
C1777 N1775 1.356 . S
N1778 C1770 1.356 . S
N1778 H1784 0.984 . S
N1778 H1785 0.984 . S
N1779 C1772 1.356 . S
N1779 H1782 0.984 . S
N1779 H1783 0.985 . S
H1780 N1775 0.984 . S
H1781 N1775 0.985 . S
H1782 N1779 0.984 . S
H1783 N1779 0.985 . S
H1784 N1778 0.984 . S
H1785 N1778 0.984 . S
H1786 N1774 0.984 . S
H1787 N1774 0.985 . S
C1788 C1789 1.363 . S
C1788 C1794 1.379 . S
C1788 N1796 1.356 . S
C1789 C1788 1.363 . S
C1789 C1795 1.363 . S
C1790 C1791 1.363 . S
C1790 C1795 1.379 . S
C1790 N1797 1.356 . S
C1791 C1790 1.363 . S
C1791 C1794 1.363 . S
N1792 C1794 1.356 . S
N1792 H1804 0.984 . S
N1792 H1805 0.985 . S
N1793 C1795 1.356 . S
N1793 H1798 0.984 . S
N1793 H1799 0.985 . S
C1794 C1788 1.379 . S
C1794 C1791 1.363 . S
C1794 N1792 1.356 . S
C1795 C1789 1.363 . S
C1795 C1790 1.379 . S
C1795 N1793 1.356 . S
N1796 C1788 1.356 . S
N1796 H1802 0.984 . S
N1796 H1803 0.984 . S
N1797 C1790 1.356 . S
N1797 H1800 0.984 . S
N1797 H1801 0.985 . S
H1798 N1793 0.984 . S
H1799 N1793 0.985 . S
H1800 N1797 0.984 . S
H1801 N1797 0.985 . S
H1802 N1796 0.984 . S
H1803 N1796 0.984 . S
H1804 N1792 0.984 . S
H1805 N1792 0.985 . S
C1806 C1807 1.363 . S
C1806 C1812 1.379 . S
C1806 N1814 1.356 . S
C1807 C1806 1.363 . S
C1807 C1813 1.363 . S
C1808 C1809 1.363 . S
C1808 C1813 1.379 . S
C1808 N1815 1.356 . S
C1809 C1808 1.363 . S
C1809 C1812 1.363 . S
N1810 C1812 1.356 . S
N1810 H1822 0.984 . S
N1810 H1823 0.985 . S
N1811 C1813 1.356 . S
N1811 H1816 0.984 . S
N1811 H1817 0.985 . S
C1812 C1806 1.379 . S
C1812 C1809 1.363 . S
C1812 N1810 1.356 . S
C1813 C1807 1.363 . S
C1813 C1808 1.379 . S
C1813 N1811 1.356 . S
N1814 C1806 1.356 . S
N1814 H1820 0.984 . S
N1814 H1821 0.984 . S
N1815 C1808 1.356 . S
N1815 H1818 0.984 . S
N1815 H1819 0.985 . S
H1816 N1811 0.984 . S
H1817 N1811 0.985 . S
H1818 N1815 0.984 . S
H1819 N1815 0.985 . S
H1820 N1814 0.984 . S
H1821 N1814 0.984 . S
H1822 N1810 0.984 . S
H1823 N1810 0.985 . S
C1824 C1825 1.363 . S
C1824 C1830 1.379 . S
C1824 N1832 1.356 . S
C1825 C1824 1.363 . S
C1825 C1831 1.363 . S
C1826 C1827 1.363 . S
C1826 C1831 1.379 . S
C1826 N1833 1.356 . S
C1827 C1826 1.363 . S
C1827 C1830 1.363 . S
N1828 C1830 1.356 . S
N1828 H1840 0.984 . S
N1828 H1841 0.985 . S
N1829 C1831 1.356 . S
N1829 H1834 0.984 . S
N1829 H1835 0.985 . S
C1830 C1824 1.379 . S
C1830 C1827 1.363 . S
C1830 N1828 1.356 . S
C1831 C1825 1.363 . S
C1831 C1826 1.379 . S
C1831 N1829 1.356 . S
N1832 C1824 1.356 . S
N1832 H1838 0.984 . S
N1832 H1839 0.984 . S
N1833 C1826 1.356 . S
N1833 H1836 0.984 . S
N1833 H1837 0.985 . S
H1834 N1829 0.984 . S
H1835 N1829 0.985 . S
H1836 N1833 0.984 . S
H1837 N1833 0.985 . S
H1838 N1832 0.984 . S
H1839 N1832 0.984 . S
H1840 N1828 0.984 . S
H1841 N1828 0.985 . S
C1842 C1843 1.363 . S
C1842 C1848 1.379 . S
C1842 N1850 1.356 . S
C1843 C1842 1.363 . S
C1843 C1849 1.363 . S
C1844 C1845 1.363 . S
C1844 C1849 1.379 . S
C1844 N1851 1.356 . S
C1845 C1844 1.363 . S
C1845 C1848 1.363 . S
N1846 C1848 1.356 . S
N1846 H1858 0.984 . S
N1846 H1859 0.985 . S
N1847 C1849 1.356 . S
N1847 H1852 0.984 . S
N1847 H1853 0.985 . S
C1848 C1842 1.379 . S
C1848 C1845 1.363 . S
C1848 N1846 1.356 . S
C1849 C1843 1.363 . S
C1849 C1844 1.379 . S
C1849 N1847 1.356 . S
N1850 C1842 1.356 . S
N1850 H1856 0.984 . S
N1850 H1857 0.984 . S
N1851 C1844 1.356 . S
N1851 H1854 0.984 . S
N1851 H1855 0.985 . S
H1852 N1847 0.984 . S
H1853 N1847 0.985 . S
H1854 N1851 0.984 . S
H1855 N1851 0.985 . S
H1856 N1850 0.984 . S
H1857 N1850 0.984 . S
H1858 N1846 0.984 . S
H1859 N1846 0.985 . S
C1860 C1861 1.363 . S
C1860 C1866 1.379 . S
C1860 N1868 1.356 . S
C1861 C1860 1.363 . S
C1861 C1867 1.363 . S
C1862 C1863 1.363 . S
C1862 C1867 1.379 . S
C1862 N1869 1.356 . S
C1863 C1862 1.363 . S
C1863 C1866 1.363 . S
N1864 C1866 1.356 . S
N1864 H1876 0.984 . S
N1864 H1877 0.985 . S
N1865 C1867 1.356 . S
N1865 H1870 0.984 . S
N1865 H1871 0.985 . S
C1866 C1860 1.379 . S
C1866 C1863 1.363 . S
C1866 N1864 1.356 . S
C1867 C1861 1.363 . S
C1867 C1862 1.379 . S
C1867 N1865 1.356 . S
N1868 C1860 1.356 . S
N1868 H1874 0.984 . S
N1868 H1875 0.984 . S
N1869 C1862 1.356 . S
N1869 H1872 0.984 . S
N1869 H1873 0.985 . S
H1870 N1865 0.984 . S
H1871 N1865 0.985 . S
H1872 N1869 0.984 . S
H1873 N1869 0.985 . S
H1874 N1868 0.984 . S
H1875 N1868 0.984 . S
H1876 N1864 0.984 . S
H1877 N1864 0.985 . S
C1878 C1879 1.363 . S
C1878 C1884 1.379 . S
C1878 N1886 1.356 . S
C1879 C1878 1.363 . S
C1879 C1885 1.363 . S
C1880 C1881 1.363 . S
C1880 C1885 1.379 . S
C1880 N1887 1.356 . S
C1881 C1880 1.363 . S
C1881 C1884 1.363 . S
N1882 C1884 1.356 . S
N1882 H1894 0.984 . S
N1882 H1895 0.985 . S
N1883 C1885 1.356 . S
N1883 H1888 0.984 . S
N1883 H1889 0.985 . S
C1884 C1878 1.379 . S
C1884 C1881 1.363 . S
C1884 N1882 1.356 . S
C1885 C1879 1.363 . S
C1885 C1880 1.379 . S
C1885 N1883 1.356 . S
N1886 C1878 1.356 . S
N1886 H1892 0.984 . S
N1886 H1893 0.984 . S
N1887 C1880 1.356 . S
N1887 H1890 0.984 . S
N1887 H1891 0.985 . S
H1888 N1883 0.984 . S
H1889 N1883 0.985 . S
H1890 N1887 0.984 . S
H1891 N1887 0.985 . S
H1892 N1886 0.984 . S
H1893 N1886 0.984 . S
H1894 N1882 0.984 . S
H1895 N1882 0.985 . S
C1896 C1897 1.363 . S
C1896 C1902 1.379 . S
C1896 N1904 1.356 . S
C1897 C1896 1.363 . S
C1897 C1903 1.363 . S
C1898 C1899 1.363 . S
C1898 C1903 1.379 . S
C1898 N1905 1.356 . S
C1899 C1898 1.363 . S
C1899 C1902 1.363 . S
N1900 C1902 1.356 . S
N1900 H1912 0.984 . S
N1900 H1913 0.985 . S
N1901 C1903 1.356 . S
N1901 H1906 0.984 . S
N1901 H1907 0.985 . S
C1902 C1896 1.379 . S
C1902 C1899 1.363 . S
C1902 N1900 1.356 . S
C1903 C1897 1.363 . S
C1903 C1898 1.379 . S
C1903 N1901 1.356 . S
N1904 C1896 1.356 . S
N1904 H1910 0.984 . S
N1904 H1911 0.984 . S
N1905 C1898 1.356 . S
N1905 H1908 0.984 . S
N1905 H1909 0.985 . S
H1906 N1901 0.984 . S
H1907 N1901 0.985 . S
H1908 N1905 0.984 . S
H1909 N1905 0.985 . S
H1910 N1904 0.984 . S
H1911 N1904 0.984 . S
H1912 N1900 0.984 . S
H1913 N1900 0.985 . S
C1914 C1915 1.363 . S
C1914 C1920 1.379 . S
C1914 N1922 1.356 . S
C1915 C1914 1.363 . S
C1915 C1921 1.363 . S
C1916 C1917 1.363 . S
C1916 C1921 1.379 . S
C1916 N1923 1.356 . S
C1917 C1916 1.363 . S
C1917 C1920 1.363 . S
N1918 C1920 1.356 . S
N1918 H1930 0.984 . S
N1918 H1931 0.985 . S
N1919 C1921 1.356 . S
N1919 H1924 0.984 . S
N1919 H1925 0.985 . S
C1920 C1914 1.379 . S
C1920 C1917 1.363 . S
C1920 N1918 1.356 . S
C1921 C1915 1.363 . S
C1921 C1916 1.379 . S
C1921 N1919 1.356 . S
N1922 C1914 1.356 . S
N1922 H1928 0.984 . S
N1922 H1929 0.984 . S
N1923 C1916 1.356 . S
N1923 H1926 0.984 . S
N1923 H1927 0.985 . S
H1924 N1919 0.984 . S
H1925 N1919 0.985 . S
H1926 N1923 0.984 . S
H1927 N1923 0.985 . S
H1928 N1922 0.984 . S
H1929 N1922 0.984 . S
H1930 N1918 0.984 . S
H1931 N1918 0.985 . S
C1932 C1933 1.363 . S
C1932 C1938 1.379 . S
C1932 N1940 1.356 . S
C1933 C1932 1.363 . S
C1933 C1939 1.363 . S
C1934 C1935 1.363 . S
C1934 C1939 1.379 . S
C1934 N1941 1.356 . S
C1935 C1934 1.363 . S
C1935 C1938 1.363 . S
N1936 C1938 1.356 . S
N1936 H1948 0.984 . S
N1936 H1949 0.985 . S
N1937 C1939 1.356 . S
N1937 H1942 0.984 . S
N1937 H1943 0.985 . S
C1938 C1932 1.379 . S
C1938 C1935 1.363 . S
C1938 N1936 1.356 . S
C1939 C1933 1.363 . S
C1939 C1934 1.379 . S
C1939 N1937 1.356 . S
N1940 C1932 1.356 . S
N1940 H1946 0.984 . S
N1940 H1947 0.984 . S
N1941 C1934 1.356 . S
N1941 H1944 0.984 . S
N1941 H1945 0.985 . S
H1942 N1937 0.984 . S
H1943 N1937 0.985 . S
H1944 N1941 0.984 . S
H1945 N1941 0.985 . S
H1946 N1940 0.984 . S
H1947 N1940 0.984 . S
H1948 N1936 0.984 . S
H1949 N1936 0.985 . S
C1950 C1951 1.363 . S
C1950 C1956 1.379 . S
C1950 N1958 1.356 . S
C1951 C1950 1.363 . S
C1951 C1957 1.363 . S
C1952 C1953 1.363 . S
C1952 C1957 1.379 . S
C1952 N1959 1.356 . S
C1953 C1952 1.363 . S
C1953 C1956 1.363 . S
N1954 C1956 1.356 . S
N1954 H1966 0.984 . S
N1954 H1967 0.985 . S
N1955 C1957 1.356 . S
N1955 H1960 0.984 . S
N1955 H1961 0.985 . S
C1956 C1950 1.379 . S
C1956 C1953 1.363 . S
C1956 N1954 1.356 . S
C1957 C1951 1.363 . S
C1957 C1952 1.379 . S
C1957 N1955 1.356 . S
N1958 C1950 1.356 . S
N1958 H1964 0.984 . S
N1958 H1965 0.984 . S
N1959 C1952 1.356 . S
N1959 H1962 0.984 . S
N1959 H1963 0.987 1_556 S
H1960 N1955 0.984 . S
H1961 N1955 0.985 . S
H1962 N1959 0.984 . S
H1963 N1959 0.987 1_554 S
H1964 N1958 0.984 . S
H1965 N1958 0.984 . S
H1966 N1954 0.984 . S
H1967 N1954 0.985 . S
C1968 C1969 1.363 . S
C1968 C1974 1.379 . S
C1968 N1976 1.356 . S
C1969 C1968 1.363 . S
C1969 C1975 1.363 . S
C1970 C1971 1.363 . S
C1970 C1975 1.379 . S
C1970 N1977 1.356 1_455 S
C1971 C1970 1.363 . S
C1971 C1974 1.363 . S
N1972 C1974 1.356 . S
N1972 H1984 0.984 . S
N1972 H1985 0.985 . S
N1973 C1975 1.356 1_655 S
N1973 H1978 0.979 1_655 S
N1973 H1979 0.985 . S
C1974 C1968 1.379 . S
C1974 C1971 1.363 . S
C1974 N1972 1.356 . S
C1975 C1969 1.363 . S
C1975 C1970 1.379 . S
C1975 N1973 1.356 1_455 S
N1976 C1968 1.356 . S
N1976 H1982 0.984 . S
N1976 H1983 0.984 . S
N1977 C1970 1.356 1_655 S
N1977 H1980 0.979 1_655 S
N1977 H1981 0.985 . S
H1978 N1973 0.979 1_455 S
H1979 N1973 0.985 . S
H1980 N1977 0.979 1_455 S
H1981 N1977 0.985 . S
H1982 N1976 0.984 . S
H1983 N1976 0.984 . S
H1984 N1972 0.984 . S
H1985 N1972 0.985 . S
C1986 C1987 1.363 . S
C1986 C1992 1.379 . S
C1986 N1994 1.356 . S
C1987 C1986 1.363 . S
C1987 C1993 1.363 1_565 S
C1988 C1989 1.363 . S
C1988 C1993 1.379 . S
C1988 N1995 1.356 . S
C1989 C1988 1.363 . S
C1989 C1992 1.363 1_545 S
N1990 C1992 1.356 1_545 S
N1990 H2002 0.984 1_645 S
N1990 H2003 0.985 . S
N1991 C1993 1.356 1_565 S
N1991 H1996 0.984 . S
N1991 H1997 0.985 1_565 S
C1992 C1986 1.379 . S
C1992 C1989 1.363 1_565 S
C1992 N1990 1.356 1_565 S
C1993 C1987 1.363 1_545 S
C1993 C1988 1.379 . S
C1993 N1991 1.356 1_545 S
N1994 C1986 1.356 . S
N1994 H2000 0.984 1_655 S
N1994 H2001 0.984 . S
N1995 C1988 1.356 . S
N1995 H1998 0.984 . S
N1995 H1999 0.985 . S
H1996 N1991 0.984 . S
H1997 N1991 0.985 1_545 S
H1998 N1995 0.984 . S
H1999 N1995 0.985 . S
H2000 N1994 0.984 1_455 S
H2001 N1994 0.984 . S
H2002 N1990 0.984 1_465 S
H2003 N1990 0.985 . S
C2004 C2005 1.363 . S
C2004 C2010 1.379 . S
C2004 N2012 1.356 1_545 S
C2005 C2004 1.363 . S
C2005 C2011 1.363 . S
C2006 C2007 1.363 . S
C2006 C2011 1.379 . S
C2006 N2013 1.356 . S
C2007 C2006 1.363 . S
C2007 C2010 1.363 . S
N2008 C2010 1.356 1_565 S
N2008 H2020 0.984 . S
N2008 H2021 0.985 1_565 S
N2009 C2011 1.356 . S
N2009 H2014 0.984 . S
N2009 H2015 0.985 . S
C2010 C2004 1.379 . S
C2010 C2007 1.363 . S
C2010 N2008 1.356 1_545 S
C2011 C2005 1.363 . S
C2011 C2006 1.379 . S
C2011 N2009 1.356 . S
N2012 C2004 1.356 1_565 S
N2012 H2018 0.984 . S
N2012 H2019 0.984 1_565 S
N2013 C2006 1.356 . S
N2013 H2016 0.984 . S
N2013 H2017 0.985 . S
H2014 N2009 0.984 . S
H2015 N2009 0.985 . S
H2016 N2013 0.984 . S
H2017 N2013 0.985 . S
H2018 N2012 0.984 . S
H2019 N2012 0.984 1_545 S
H2020 N2008 0.984 . S
H2021 N2008 0.985 1_545 S
C2022 C2023 1.363 . S
C2022 C2028 1.379 . S
C2022 N2030 1.356 . S
C2023 C2022 1.363 . S
C2023 C2029 1.363 . S
C2024 C2025 1.363 . S
C2024 C2029 1.379 . S
C2024 N2031 1.356 . S
C2025 C2024 1.363 . S
C2025 C2028 1.363 . S
N2026 C2028 1.356 . S
N2026 H2038 0.984 . S
N2026 H2039 0.985 . S
N2027 C2029 1.356 . S
N2027 H2032 0.984 . S
N2027 H2033 0.985 . S
C2028 C2022 1.379 . S
C2028 C2025 1.363 . S
C2028 N2026 1.356 . S
C2029 C2023 1.363 . S
C2029 C2024 1.379 . S
C2029 N2027 1.356 . S
N2030 C2022 1.356 . S
N2030 H2036 0.984 . S
N2030 H2037 0.984 . S
N2031 C2024 1.356 . S
N2031 H2034 0.984 . S
N2031 H2035 0.985 . S
H2032 N2027 0.984 . S
H2033 N2027 0.985 . S
H2034 N2031 0.984 . S
H2035 N2031 0.985 . S
H2036 N2030 0.984 . S
H2037 N2030 0.984 . S
H2038 N2026 0.984 . S
H2039 N2026 0.985 . S
C2040 C2041 1.363 . S
C2040 C2046 1.379 1_556 S
C2040 N2048 1.356 1_565 S
C2041 C2040 1.363 . S
C2041 C2047 1.363 . S
C2042 C2043 1.363 . S
C2042 C2047 1.379 1_554 S
C2042 N2049 1.356 . S
C2043 C2042 1.363 . S
C2043 C2046 1.363 . S
N2044 C2046 1.356 1_545 S
N2044 H2056 0.984 . S
N2044 H2057 0.985 1_545 S
N2045 C2047 1.356 . S
N2045 H2050 0.984 . S
N2045 H2051 0.985 . S
C2046 C2040 1.379 1_554 S
C2046 C2043 1.363 . S
C2046 N2044 1.356 1_565 S
C2047 C2041 1.363 . S
C2047 C2042 1.379 1_556 S
C2047 N2045 1.356 . S
N2048 C2040 1.356 1_545 S
N2048 H2054 0.984 1_556 S
N2048 H2055 0.984 1_545 S
N2049 C2042 1.356 . S
N2049 H2052 0.984 . S
N2049 H2053 0.985 1_554 S
H2050 N2045 0.984 . S
H2051 N2045 0.985 . S
H2052 N2049 0.984 . S
H2053 N2049 0.985 1_556 S
H2054 N2048 0.984 1_554 S
H2055 N2048 0.984 1_565 S
H2056 N2044 0.984 . S
H2057 N2044 0.985 1_565 S
C2058 C2059 1.363 . S
C2058 C2064 1.379 1_554 S
C2058 N2066 1.356 . S
C2059 C2058 1.363 . S
C2059 C2065 1.363 . S
C2060 C2061 1.363 . S
C2060 C2065 1.379 1_556 S
C2060 N2067 1.356 . S
C2061 C2060 1.363 . S
C2061 C2064 1.363 . S
N2062 C2064 1.356 . S
N2062 H2074 0.984 . S
N2062 H2075 0.985 . S
N2063 C2065 1.356 . S
N2063 H2068 0.984 . S
N2063 H2069 0.985 . S
C2064 C2058 1.379 1_556 S
C2064 C2061 1.363 . S
C2064 N2062 1.356 . S
C2065 C2059 1.363 . S
C2065 C2060 1.379 1_554 S
C2065 N2063 1.356 . S
N2066 C2058 1.356 . S
N2066 H2072 0.984 1_554 S
N2066 H2073 0.984 . S
N2067 C2060 1.356 . S
N2067 H2070 0.984 . S
N2067 H2071 0.985 1_556 S
H2068 N2063 0.984 . S
H2069 N2063 0.985 . S
H2070 N2067 0.984 . S
H2071 N2067 0.985 1_554 S
H2072 N2066 0.984 1_556 S
H2073 N2066 0.984 . S
H2074 N2062 0.984 . S
H2075 N2062 0.985 . S
C2076 C2077 1.363 . S
C2076 C2082 1.379 . S
C2076 N2084 1.356 . S
C2077 C2076 1.363 . S
C2077 C2083 1.363 . S
C2078 C2079 1.363 . S
C2078 C2083 1.379 . S
C2078 N2085 1.356 1_554 S
C2079 C2078 1.363 . S
C2079 C2082 1.363 . S
N2080 C2082 1.356 . S
N2080 H2092 0.984 . S
N2080 H2093 0.985 . S
N2081 C2083 1.356 1_556 S
N2081 H2086 0.984 1_556 S
N2081 H2087 0.985 . S
C2082 C2076 1.379 . S
C2082 C2079 1.363 . S
C2082 N2080 1.356 . S
C2083 C2077 1.363 . S
C2083 C2078 1.379 . S
C2083 N2081 1.356 1_554 S
N2084 C2076 1.356 . S
N2084 H2090 0.984 . S
N2084 H2091 0.984 . S
N2085 C2078 1.356 1_556 S
N2085 H2088 0.984 1_556 S
N2085 H2089 0.985 . S
H2086 N2081 0.984 1_554 S
H2087 N2081 0.985 . S
H2088 N2085 0.984 1_554 S
H2089 N2085 0.985 . S
H2090 N2084 0.984 . S
H2091 N2084 0.984 . S
H2092 N2080 0.984 . S
H2093 N2080 0.985 . S
C2094 C2095 1.363 . S
C2094 C2100 1.379 . S
C2094 N2102 1.356 . S
C2095 C2094 1.363 . S
C2095 C2101 1.363 . S
C2096 C2097 1.363 . S
C2096 C2101 1.379 . S
C2096 N2103 1.356 . S
C2097 C2096 1.363 . S
C2097 C2100 1.363 . S
N2098 C2100 1.356 . S
N2098 H2110 0.984 . S
N2098 H2111 0.985 . S
N2099 C2101 1.356 . S
N2099 H2104 0.984 . S
N2099 H2105 0.985 . S
C2100 C2094 1.379 . S
C2100 C2097 1.363 . S
C2100 N2098 1.356 . S
C2101 C2095 1.363 . S
C2101 C2096 1.379 . S
C2101 N2099 1.356 . S
N2102 C2094 1.356 . S
N2102 H2108 0.984 . S
N2102 H2109 0.984 . S
N2103 C2096 1.356 . S
N2103 H2106 0.984 . S
N2103 H2107 0.985 . S
H2104 N2099 0.984 . S
H2105 N2099 0.985 . S
H2106 N2103 0.984 . S
H2107 N2103 0.985 . S
H2108 N2102 0.984 . S
H2109 N2102 0.984 . S
H2110 N2098 0.984 . S
H2111 N2098 0.985 . S
C2112 C2113 1.363 . S
C2112 C2118 1.379 1_455 S
C2112 N2120 1.356 . S
C2113 C2112 1.363 . S
C2113 C2119 1.363 . S
C2114 C2115 1.363 . S
C2114 C2119 1.379 1_655 S
C2114 N2121 1.356 . S
C2115 C2114 1.363 . S
C2115 C2118 1.363 . S
N2116 C2118 1.356 . S
N2116 H2128 0.984 . S
N2116 H2129 0.985 . S
N2117 C2119 1.356 . S
N2117 H2122 0.984 . S
N2117 H2123 0.985 . S
C2118 C2112 1.379 1_655 S
C2118 C2115 1.363 . S
C2118 N2116 1.356 . S
C2119 C2113 1.363 . S
C2119 C2114 1.379 1_455 S
C2119 N2117 1.356 . S
N2120 C2112 1.356 . S
N2120 H2126 0.984 1_455 S
N2120 H2127 0.984 . S
N2121 C2114 1.356 . S
N2121 H2124 0.984 . S
N2121 H2125 0.985 1_655 S
H2122 N2117 0.984 . S
H2123 N2117 0.985 . S
H2124 N2121 0.984 . S
H2125 N2121 0.985 1_455 S
H2126 N2120 0.984 1_655 S
H2127 N2120 0.984 . S
H2128 N2116 0.984 . S
H2129 N2116 0.985 . S
C2130 C2131 1.363 . S
C2130 C2136 1.379 . S
C2130 N2138 1.356 . S
C2131 C2130 1.363 . S
C2131 C2137 1.363 . S
C2132 C2133 1.363 . S
C2132 C2137 1.379 . S
C2132 N2139 1.356 . S
C2133 C2132 1.363 . S
C2133 C2136 1.363 . S
N2134 C2136 1.356 . S
N2134 H2146 0.984 . S
N2134 H2147 0.985 . S
N2135 C2137 1.356 . S
N2135 H2140 0.984 . S
N2135 H2141 0.985 . S
C2136 C2130 1.379 . S
C2136 C2133 1.363 . S
C2136 N2134 1.356 . S
C2137 C2131 1.363 . S
C2137 C2132 1.379 . S
C2137 N2135 1.356 . S
N2138 C2130 1.356 . S
N2138 H2144 0.984 . S
N2138 H2145 0.984 . S
N2139 C2132 1.356 . S
N2139 H2142 0.984 . S
N2139 H2143 0.985 . S
H2140 N2135 0.984 . S
H2141 N2135 0.985 . S
H2142 N2139 0.984 . S
H2143 N2139 0.985 . S
H2144 N2138 0.984 . S
H2145 N2138 0.984 . S
H2146 N2134 0.984 . S
H2147 N2134 0.985 . S
C2148 C2149 1.363 . S
C2148 C2154 1.379 1_545 S
C2148 N2156 1.356 . S
C2149 C2148 1.363 . S
C2149 C2155 1.363 . S
C2150 C2151 1.363 . S
C2150 C2155 1.379 1_565 S
C2150 N2157 1.356 1_455 S
C2151 C2150 1.363 . S
C2151 C2154 1.363 . S
N2152 C2154 1.356 . S
N2152 H2164 0.984 . S
N2152 H2165 0.985 . S
N2153 C2155 1.356 1_655 S
N2153 H2158 0.984 . S
N2153 H2159 0.985 . S
C2154 C2148 1.379 1_565 S
C2154 C2151 1.363 . S
C2154 N2152 1.356 . S
C2155 C2149 1.363 . S
C2155 C2150 1.379 1_545 S
C2155 N2153 1.356 1_455 S
N2156 C2148 1.356 . S
N2156 H2162 0.984 . S
N2156 H2163 0.984 . S
N2157 C2150 1.356 1_655 S
N2157 H2160 0.984 . S
N2157 H2161 0.985 . S
H2158 N2153 0.984 . S
H2159 N2153 0.985 . S
H2160 N2157 0.984 . S
H2161 N2157 0.985 . S
H2162 N2156 0.984 . S
H2163 N2156 0.984 . S
H2164 N2152 0.984 . S
H2165 N2152 0.985 . S
C2166 C2167 1.363 . S
C2166 C2172 1.379 . S
C2166 N2174 1.356 1_565 S
C2167 C2166 1.363 . S
C2167 C2173 1.363 . S
C2168 C2169 1.363 . S
C2168 C2173 1.379 . S
C2168 N2175 1.356 . S
C2169 C2168 1.363 . S
C2169 C2172 1.363 . S
N2170 C2172 1.356 1_545 S
N2170 H2182 0.984 . S
N2170 H2183 0.985 1_545 S
N2171 C2173 1.356 . S
N2171 H2176 0.984 . S
N2171 H2177 0.985 . S
C2172 C2166 1.379 . S
C2172 C2169 1.363 . S
C2172 N2170 1.356 1_565 S
C2173 C2167 1.363 . S
C2173 C2168 1.379 . S
C2173 N2171 1.356 . S
N2174 C2166 1.356 1_545 S
N2174 H2180 0.984 . S
N2174 H2181 0.984 1_545 S
N2175 C2168 1.356 . S
N2175 H2178 0.984 . S
N2175 H2179 0.985 . S
H2176 N2171 0.984 . S
H2177 N2171 0.985 . S
H2178 N2175 0.984 . S
H2179 N2175 0.985 . S
H2180 N2174 0.984 . S
H2181 N2174 0.984 1_565 S
H2182 N2170 0.984 . S
H2183 N2170 0.985 1_565 S
C2184 C2185 1.363 . S
C2184 C2190 1.379 . S
C2184 N2192 1.356 . S
C2185 C2184 1.363 . S
C2185 C2191 1.363 . S
C2186 C2187 1.363 . S
C2186 C2191 1.379 . S
C2186 N2193 1.356 . S
C2187 C2186 1.363 . S
C2187 C2190 1.363 . S
N2188 C2190 1.356 . S
N2188 H2200 0.984 . S
N2188 H2201 0.985 . S
N2189 C2191 1.356 . S
N2189 H2194 0.984 . S
N2189 H2195 0.985 . S
C2190 C2184 1.379 . S
C2190 C2187 1.363 . S
C2190 N2188 1.356 . S
C2191 C2185 1.363 . S
C2191 C2186 1.379 . S
C2191 N2189 1.356 . S
N2192 C2184 1.356 . S
N2192 H2198 0.984 . S
N2192 H2199 0.984 . S
N2193 C2186 1.356 . S
N2193 H2196 0.984 . S
N2193 H2197 0.985 . S
H2194 N2189 0.984 . S
H2195 N2189 0.985 . S
H2196 N2193 0.984 . S
H2197 N2193 0.985 . S
H2198 N2192 0.984 . S
H2199 N2192 0.984 . S
H2200 N2188 0.984 . S
H2201 N2188 0.985 . S
C2202 C2203 1.363 . S
C2202 C2208 1.379 1_556 S
C2202 N2210 1.356 . S
C2203 C2202 1.363 . S
C2203 C2209 1.363 . S
C2204 C2205 1.363 . S
C2204 C2209 1.379 1_554 S
C2204 N2211 1.356 1_545 S
C2205 C2204 1.363 . S
C2205 C2208 1.363 . S
N2206 C2208 1.356 . S
N2206 H2218 0.984 . S
N2206 H2219 0.985 . S
N2207 C2209 1.356 1_565 S
N2207 H2212 0.984 1_565 S
N2207 H2213 0.985 . S
C2208 C2202 1.379 1_554 S
C2208 C2205 1.363 . S
C2208 N2206 1.356 . S
C2209 C2203 1.363 . S
C2209 C2204 1.379 1_556 S
C2209 N2207 1.356 1_545 S
N2210 C2202 1.356 . S
N2210 H2216 0.984 1_556 S
N2210 H2217 0.984 . S
N2211 C2204 1.356 1_565 S
N2211 H2214 0.984 1_565 S
N2211 H2215 0.985 1_554 S
H2212 N2207 0.984 1_545 S
H2213 N2207 0.985 . S
H2214 N2211 0.984 1_545 S
H2215 N2211 0.985 1_556 S
H2216 N2210 0.984 1_554 S
H2217 N2210 0.984 . S
H2218 N2206 0.984 . S
H2219 N2206 0.985 . S
C2220 C2221 1.363 . S
C2220 C2226 1.379 1_556 S
C2220 N2228 1.356 . S
C2221 C2220 1.363 . S
C2221 C2227 1.363 . S
C2222 C2223 1.363 . S
C2222 C2227 1.379 1_554 S
C2222 N2229 1.356 . S
C2223 C2222 1.363 . S
C2223 C2226 1.363 . S
N2224 C2226 1.356 . S
N2224 H2236 0.984 . S
N2224 H2237 0.985 . S
N2225 C2227 1.356 . S
N2225 H2230 0.984 . S
N2225 H2231 0.985 . S
C2226 C2220 1.379 1_554 S
C2226 C2223 1.363 . S
C2226 N2224 1.356 . S
C2227 C2221 1.363 . S
C2227 C2222 1.379 1_556 S
C2227 N2225 1.356 . S
N2228 C2220 1.356 . S
N2228 H2234 0.984 1_556 S
N2228 H2235 0.984 . S
N2229 C2222 1.356 . S
N2229 H2232 0.984 . S
N2229 H2233 0.985 1_554 S
H2230 N2225 0.984 . S
H2231 N2225 0.985 . S
H2232 N2229 0.984 . S
H2233 N2229 0.985 1_556 S
H2234 N2228 0.984 1_554 S
H2235 N2228 0.984 . S
H2236 N2224 0.984 . S
H2237 N2224 0.985 . S
C2238 C2239 1.363 . S
C2238 C2244 1.379 . S
C2238 N2246 1.356 1_556 S
C2239 C2238 1.363 . S
C2239 C2245 1.363 . S
C2240 C2241 1.363 . S
C2240 C2245 1.379 . S
C2240 N2247 1.356 . S
C2241 C2240 1.363 . S
C2241 C2244 1.363 . S
N2242 C2244 1.356 1_554 S
N2242 H2254 0.984 . S
N2242 H2255 0.985 1_554 S
N2243 C2245 1.356 . S
N2243 H2248 0.984 . S
N2243 H2249 0.985 . S
C2244 C2238 1.379 . S
C2244 C2241 1.363 . S
C2244 N2242 1.356 1_556 S
C2245 C2239 1.363 . S
C2245 C2240 1.379 . S
C2245 N2243 1.356 . S
N2246 C2238 1.356 1_554 S
N2246 H2252 0.984 . S
N2246 H2253 0.984 1_554 S
N2247 C2240 1.356 . S
N2247 H2250 0.984 . S
N2247 H2251 0.985 . S
H2248 N2243 0.984 . S
H2249 N2243 0.985 . S
H2250 N2247 0.984 . S
H2251 N2247 0.985 . S
H2252 N2246 0.984 . S
H2253 N2246 0.984 1_556 S
H2254 N2242 0.984 . S
H2255 N2242 0.985 1_556 S
C2256 C2257 1.363 . S
C2256 C2262 1.379 . S
C2256 N2264 1.356 . S
C2257 C2256 1.363 . S
C2257 C2263 1.363 . S
C2258 C2259 1.363 . S
C2258 C2263 1.379 . S
C2258 N2265 1.356 . S
C2259 C2258 1.363 . S
C2259 C2262 1.363 . S
N2260 C2262 1.356 . S
N2260 H2272 0.984 . S
N2260 H2273 0.985 . S
N2261 C2263 1.356 . S
N2261 H2266 0.984 . S
N2261 H2267 0.985 . S
C2262 C2256 1.379 . S
C2262 C2259 1.363 . S
C2262 N2260 1.356 . S
C2263 C2257 1.363 . S
C2263 C2258 1.379 . S
C2263 N2261 1.356 . S
N2264 C2256 1.356 . S
N2264 H2270 0.984 . S
N2264 H2271 0.984 . S
N2265 C2258 1.356 . S
N2265 H2268 0.984 . S
N2265 H2269 0.985 . S
H2266 N2261 0.984 . S
H2267 N2261 0.985 . S
H2268 N2265 0.984 . S
H2269 N2265 0.985 . S
H2270 N2264 0.984 . S
H2271 N2264 0.984 . S
H2272 N2260 0.984 . S
H2273 N2260 0.985 . S
C2274 C2275 1.363 . S
C2274 C2280 1.379 1_655 S
C2274 N2282 1.356 . S
C2275 C2274 1.363 . S
C2275 C2281 1.363 . S
C2276 C2277 1.363 . S
C2276 C2281 1.379 1_455 S
C2276 N2283 1.356 . S
C2277 C2276 1.363 . S
C2277 C2280 1.363 . S
N2278 C2280 1.356 . S
N2278 H2290 0.984 1_455 S
N2278 H2291 0.985 . S
N2279 C2281 1.356 . S
N2279 H2284 0.984 . S
N2279 H2285 0.985 1_655 S
C2280 C2274 1.379 1_455 S
C2280 C2277 1.363 . S
C2280 N2278 1.356 . S
C2281 C2275 1.363 . S
C2281 C2276 1.379 1_655 S
C2281 N2279 1.356 . S
N2282 C2274 1.356 . S
N2282 H2288 0.984 . S
N2282 H2289 0.984 . S
N2283 C2276 1.356 . S
N2283 H2286 0.984 . S
N2283 H2287 0.985 . S
H2284 N2279 0.984 . S
H2285 N2279 0.985 1_455 S
H2286 N2283 0.984 . S
H2287 N2283 0.985 . S
H2288 N2282 0.984 . S
H2289 N2282 0.984 . S
H2290 N2278 0.984 1_655 S
H2291 N2278 0.985 . S
C2292 C2293 1.363 . S
C2292 C2298 1.379 1_545 S
C2292 N2300 1.356 . S
C2293 C2292 1.363 . S
C2293 C2299 1.363 . S
C2294 C2295 1.363 . S
C2294 C2299 1.379 1_565 S
C2294 N2301 1.356 . S
C2295 C2294 1.363 . S
C2295 C2298 1.363 . S
N2296 C2298 1.356 . S
N2296 H2308 0.996 . S
N2296 H2309 0.985 . S
N2297 C2299 1.356 . S
N2297 H2302 0.984 . S
N2297 H2303 0.996 . S
C2298 C2292 1.379 1_565 S
C2298 C2295 1.363 . S
C2298 N2296 1.356 . S
C2299 C2293 1.363 . S
C2299 C2294 1.379 1_545 S
C2299 N2297 1.356 . S
N2300 C2292 1.356 . S
N2300 H2306 0.984 . S
N2300 H2307 0.984 . S
N2301 C2294 1.356 . S
N2301 H2304 0.984 . S
N2301 H2305 0.985 . S
H2302 N2297 0.984 . S
H2303 N2297 0.996 . S
H2304 N2301 0.984 . S
H2305 N2301 0.985 . S
H2306 N2300 0.984 . S
H2307 N2300 0.984 . S
H2308 N2296 0.996 . S
H2309 N2296 0.985 . S
C2310 C2311 1.363 . S
C2310 C2316 1.379 . S
C2310 N2318 1.356 . S
C2311 C2310 1.363 . S
C2311 C2317 1.363 . S
C2312 C2313 1.363 . S
C2312 C2317 1.379 . S
C2312 N2319 1.356 . S
C2313 C2312 1.363 . S
C2313 C2316 1.363 . S
N2314 C2316 1.356 . S
N2314 H2326 0.984 . S
N2314 H2327 0.985 . S
N2315 C2317 1.356 . S
N2315 H2320 0.984 . S
N2315 H2321 0.985 . S
C2316 C2310 1.379 . S
C2316 C2313 1.363 . S
C2316 N2314 1.356 . S
C2317 C2311 1.363 . S
C2317 C2312 1.379 . S
C2317 N2315 1.356 . S
N2318 C2310 1.356 . S
N2318 H2324 0.984 . S
N2318 H2325 0.984 . S
N2319 C2312 1.356 . S
N2319 H2322 0.984 . S
N2319 H2323 0.985 . S
H2320 N2315 0.984 . S
H2321 N2315 0.985 . S
H2322 N2319 0.984 . S
H2323 N2319 0.985 . S
H2324 N2318 0.984 . S
H2325 N2318 0.984 . S
H2326 N2314 0.984 . S
H2327 N2314 0.985 . S
C2328 C2329 1.363 . S
C2328 C2334 1.379 1_455 S
C2328 N2336 1.356 1_556 S
C2329 C2328 1.363 . S
C2329 C2335 1.363 . S
C2330 C2331 1.363 . S
C2330 C2335 1.379 1_655 S
C2330 N2337 1.356 . S
C2331 C2330 1.363 . S
C2331 C2334 1.363 . S
N2332 C2334 1.356 1_554 S
N2332 H2344 0.984 . S
N2332 H2345 0.985 1_554 S
N2333 C2335 1.356 . S
N2333 H2338 0.984 . S
N2333 H2339 0.985 . S
C2334 C2328 1.379 1_655 S
C2334 C2331 1.363 . S
C2334 N2332 1.356 1_556 S
C2335 C2329 1.363 . S
C2335 C2330 1.379 1_455 S
C2335 N2333 1.356 . S
N2336 C2328 1.356 1_554 S
N2336 H2342 0.984 1_455 S
N2336 H2343 0.984 1_554 S
N2337 C2330 1.356 . S
N2337 H2340 0.984 . S
N2337 H2341 0.985 1_655 S
H2338 N2333 0.984 . S
H2339 N2333 0.985 . S
H2340 N2337 0.984 . S
H2341 N2337 0.985 1_455 S
H2342 N2336 0.984 1_655 S
H2343 N2336 0.984 1_556 S
H2344 N2332 0.984 . S
H2345 N2332 0.985 1_556 S
C2346 C2347 1.363 . S
C2346 C2352 1.379 . S
C2346 N2354 1.356 . S
C2347 C2346 1.363 . S
C2347 C2353 1.363 1_545 S
C2348 C2349 1.363 . S
C2348 C2353 1.379 . S
C2348 N2355 1.356 . S
C2349 C2348 1.363 . S
C2349 C2352 1.363 1_565 S
N2350 C2352 1.356 1_565 S
N2350 H2362 0.984 1_565 S
N2350 H2363 0.985 . S
N2351 C2353 1.356 1_545 S
N2351 H2356 0.984 . S
N2351 H2357 0.985 1_545 S
C2352 C2346 1.379 . S
C2352 C2349 1.363 1_545 S
C2352 N2350 1.356 1_545 S
C2353 C2347 1.363 1_565 S
C2353 C2348 1.379 . S
C2353 N2351 1.356 1_565 S
N2354 C2346 1.356 . S
N2354 H2360 0.984 . S
N2354 H2361 0.984 . S
N2355 C2348 1.356 . S
N2355 H2358 0.984 . S
N2355 H2359 0.985 . S
H2356 N2351 0.984 . S
H2357 N2351 0.985 1_565 S
H2358 N2355 0.984 . S
H2359 N2355 0.985 . S
H2360 N2354 0.984 . S
H2361 N2354 0.984 . S
H2362 N2350 0.984 1_545 S
H2363 N2350 0.985 . S
C2364 C2365 1.363 . S
C2364 C2370 1.379 . S
C2364 N2372 1.356 . S
C2365 C2364 1.363 . S
C2365 C2371 1.363 . S
C2366 C2367 1.363 . S
C2366 C2371 1.379 . S
C2366 N2373 1.356 . S
C2367 C2366 1.363 . S
C2367 C2370 1.363 . S
N2368 C2370 1.356 . S
N2368 H2380 0.984 . S
N2368 H2381 0.985 . S
N2369 C2371 1.356 . S
N2369 H2374 0.984 . S
N2369 H2375 0.985 . S
C2370 C2364 1.379 . S
C2370 C2367 1.363 . S
C2370 N2368 1.356 . S
C2371 C2365 1.363 . S
C2371 C2366 1.379 . S
C2371 N2369 1.356 . S
N2372 C2364 1.356 . S
N2372 H2378 0.984 . S
N2372 H2379 0.984 . S
N2373 C2366 1.356 . S
N2373 H2376 0.984 . S
N2373 H2377 0.985 . S
H2374 N2369 0.984 . S
H2375 N2369 0.985 . S
H2376 N2373 0.984 . S
H2377 N2373 0.985 . S
H2378 N2372 0.984 . S
H2379 N2372 0.984 . S
H2380 N2368 0.984 . S
H2381 N2368 0.985 . S
C2382 C2383 1.363 . S
C2382 C2388 1.379 1_455 S
C2382 N2390 1.356 . S
C2383 C2382 1.363 . S
C2383 C2389 1.363 . S
C2384 C2385 1.363 . S
C2384 C2389 1.379 1_655 S
C2384 N2391 1.356 1_554 S
C2385 C2384 1.363 . S
C2385 C2388 1.363 . S
N2386 C2388 1.356 . S
N2386 H2398 0.984 . S
N2386 H2399 0.985 . S
N2387 C2389 1.356 1_556 S
N2387 H2392 0.984 1_556 S
N2387 H2393 0.985 . S
C2388 C2382 1.379 1_655 S
C2388 C2385 1.363 . S
C2388 N2386 1.356 . S
C2389 C2383 1.363 . S
C2389 C2384 1.379 1_455 S
C2389 N2387 1.356 1_554 S
N2390 C2382 1.356 . S
N2390 H2396 0.984 1_455 S
N2390 H2397 0.984 . S
N2391 C2384 1.356 1_556 S
N2391 H2394 0.984 1_556 S
N2391 H2395 0.985 1_655 S
H2392 N2387 0.984 1_554 S
H2393 N2387 0.985 . S
H2394 N2391 0.984 1_554 S
H2395 N2391 0.985 1_455 S
H2396 N2390 0.984 1_655 S
H2397 N2390 0.984 . S
H2398 N2386 0.984 . S
H2399 N2386 0.985 . S
C673 C20 1.912 . S
C675 C6 1.912 . S
C691 C34 1.912 . S
C693 C48 1.912 . S
C709 C90 1.912 . S
C711 C62 1.912 . S
C727 C104 1.912 . S
C729 C76 1.912 . S
C745 C118 1.912 . S
C747 C482 1.912 . S
C763 C132 1.912 . S
C765 C160 1.912 . S
C781 C454 1.912 . S
C783 C146 1.912 . S
C799 C188 1.912 . S
C801 C174 1.912 . S
C817 C216 1.912 . S
C819 C202 1.912 . S
C835 C258 1.912 . S
C837 C230 1.912 . S
C853 C272 1.912 . S
C855 C244 1.912 . S
C871 C286 1.912 . S
C873 C650 1.912 . S
C889 C300 1.912 . S
C891 C328 1.912 . S
C907 C622 1.912 . S
C909 C314 1.912 . S
C925 C342 1.912 . S
C927 C356 1.912 . S
C943 C384 1.912 . S
C945 C370 1.912 . S
C961 C398 1.912 . S
C963 C426 1.912 . S
C979 C440 1.912 . S
C981 C412 1.912 . S
C997 C496 1.912 . S
C999 C468 1.912 . S
C1015 C524 1.912 . S
C1017 C510 1.912 . S
C1033 C538 1.912 . S
C1035 C552 1.912 . S
C1051 C594 1.912 . S
C1053 C566 1.912 . S
C1069 C580 1.912 . S
C1071 C608 1.912 . S
C1087 C636 1.912 . S
C1089 C664 1.912 . S
C1105 C623 1.453 . S
C1107 C8 1.661 . S
C1123 C329 1.453 . S
C1125 C22 1.661 . S
C1141 C637 1.453 . S
C1143 C36 1.661 . S
C1159 C50 1.661 . S
C1161 C651 1.453 . S
C1177 C64 1.661 . S
C1179 C511 1.453 . S
C1195 C525 1.453 . S
C1197 C78 1.661 . S
C1213 C92 1.661 . S
C1215 C539 1.453 . S
C1231 C553 1.453 . S
C1233 C106 1.661 . S
C1249 C567 1.453 . S
C1251 C120 1.661 . S
C1267 C134 1.661 . S
C1269 C595 1.453 . S
C1285 C609 1.453 . S
C1287 C148 1.661 . S
C1303 C162 1.661 . S
C1305 C245 1.453 . S
C1321 C176 1.661 . S
C1323 C455 1.453 . S
C1339 C190 1.661 . S
C1341 C161 1.453 . S
C1357 C204 1.661 . S
C1359 C469 1.453 . S
C1375 C218 1.661 . S
C1377 C483 1.453 . S
C1393 C343 1.453 . S
C1395 C232 1.661 . S
C1411 C357 1.453 . S
C1413 C246 1.661 . S
C1429 C260 1.661 . S
C1431 C371 1.453 . S
C1447 C274 1.661 . S
C1449 C385 1.453 . S
C1465 C288 1.661 . S
C1467 C399 1.453 . S
C1483 C302 1.661 . S
C1485 C427 1.453 . S
C1501 C441 1.453 . S
C1503 C316 1.661 . S
C1519 C77 1.453 . S
C1521 C330 1.661 . S
C1537 C344 1.661 . S
C1539 C287 1.453 . S
C1555 C358 1.661 . S
C1557 C665 1.453 . S
C1573 C372 1.661 . S
C1575 C301 1.453 . S
C1591 C386 1.661 . S
C1593 C315 1.453 . S
C1609 C175 1.453 . S
C1611 C400 1.661 . S
C1627 C414 1.661 . S
C1629 C189 1.453 . S
C1645 C203 1.453 . S
C1647 C428 1.661 . S
C1663 C217 1.453 . S
C1665 C442 1.661 . S
C1681 C231 1.453 . S
C1683 C456 1.661 . S
C1699 C259 1.453 . S
C1701 C470 1.661 . S
C1717 C484 1.661 . S
C1719 C273 1.453 . S
C1735 C498 1.661 . S
C1737 C581 1.453 . S
C1753 C119 1.453 . S
C1755 C512 1.661 . S
C1771 C526 1.661 . S
C1773 C497 1.453 . S
C1789 C540 1.661 . S
C1791 C133 1.453 . S
C1807 C147 1.453 . S
C1809 C554 1.661 . S
C1825 C568 1.661 . S
C1827 C7 1.453 . S
C1843 C582 1.661 . S
C1845 C21 1.453 . S
C1861 C35 1.453 . S
C1863 C596 1.661 . S
C1879 C610 1.661 . S
C1881 C49 1.453 . S
C1897 C624 1.661 . S
C1899 C63 1.453 . S
C1915 C91 1.453 . S
C1917 C638 1.661 . S
C1933 C652 1.661 . S
C1935 C105 1.453 . S
C1951 C413 1.453 . S
C1953 C666 1.661 . S
C1969 C37 1.288 . S
C1971 C9 1.288 . S
C1987 C51 1.288 . S
C1989 C23 1.288 . S
C2005 C443 1.288 . S
C2007 C65 1.288 . S
C2023 C429 1.288 . S
C2025 C79 1.288 . S
C2041 C415 1.288 . S
C2043 C93 1.288 . S
C2059 C107 1.288 . S
C2061 C401 1.288 . S
C2077 C121 1.288 . S
C2079 C499 1.288 . S
C2095 C149 1.288 . S
C2097 C135 1.288 . S
C2113 C163 1.288 . S
C2115 C457 1.288 . S
C2131 C205 1.288 . S
C2133 C177 1.288 . S
C2149 C219 1.288 . S
C2151 C191 1.288 . S
C2167 C611 1.288 . S
C2169 C233 1.288 . S
C2185 C597 1.288 . S
C2187 C247 1.288 . S
C2203 C261 1.288 . S
C2205 C583 1.288 . S
C2221 C275 1.288 . S
C2223 C569 1.288 . S
C2239 C667 1.288 . S
C2241 C289 1.288 . S
C2257 C317 1.288 . S
C2259 C303 1.288 . S
C2275 C331 1.288 . S
C2277 C625 1.288 . S
C2293 C373 1.288 . S
C2295 C345 1.288 . S
C2311 C359 1.288 . S
C2313 C387 1.288 . S
C2329 C485 1.288 . S
C2331 C471 1.288 . S
C2347 C513 1.288 . S
C2349 C541 1.288 . S
C2365 C527 1.288 . S
C2367 C555 1.288 . S
C2383 C639 1.288 . S
C2385 C653 1.288 . S
