# Generated by pormake.
# Topology umx, (4)-cn, num edge types: 1
# Building blocks:
#     Node 0, Type 0, BuildingBlock: KUFVIS_clean_sbu_0, # of connection points: 4
#     Node 1, Type 0, BuildingBlock: KUFVIS_clean_sbu_0, # of connection points: 4
#     Node 2, Type 0, BuildingBlock: KUFVIS_clean_sbu_0, # of connection points: 4
#     Node 3, Type 0, BuildingBlock: KUFVIS_clean_sbu_0, # of connection points: 4
#     Node 4, Type 0, BuildingBlock: KUFVIS_clean_sbu_0, # of connection points: 4
#     Node 5, Type 0, BuildingBlock: KUFVIS_clean_sbu_0, # of connection points: 4
#     Node 6, Type 0, BuildingBlock: KUFVIS_clean_sbu_0, # of connection points: 4
#     Node 7, Type 0, BuildingBlock: KUFVIS_clean_sbu_0, # of connection points: 4
#     Edge 8, Type (0, 0), BuildingBlock: TEMPAE_clean_linker_10, # of connection points: 2
#     Edge 9, Type (0, 0), BuildingBlock: TEMPAE_clean_linker_10, # of connection points: 2
#     Edge 10, Type (0, 0), BuildingBlock: TEMPAE_clean_linker_10, # of connection points: 2
#     Edge 11, Type (0, 0), BuildingBlock: TEMPAE_clean_linker_10, # of connection points: 2
#     Edge 12, Type (0, 0), BuildingBlock: TEMPAE_clean_linker_10, # of connection points: 2
#     Edge 13, Type (0, 0), BuildingBlock: TEMPAE_clean_linker_10, # of connection points: 2
#     Edge 14, Type (0, 0), BuildingBlock: TEMPAE_clean_linker_10, # of connection points: 2
#     Edge 15, Type (0, 0), BuildingBlock: TEMPAE_clean_linker_10, # of connection points: 2
#     Edge 16, Type (0, 0), BuildingBlock: TEMPAE_clean_linker_10, # of connection points: 2
#     Edge 17, Type (0, 0), BuildingBlock: TEMPAE_clean_linker_10, # of connection points: 2
#     Edge 18, Type (0, 0), BuildingBlock: TEMPAE_clean_linker_10, # of connection points: 2
#     Edge 19, Type (0, 0), BuildingBlock: TEMPAE_clean_linker_10, # of connection points: 2
#     Edge 20, Type (0, 0), BuildingBlock: TEMPAE_clean_linker_10, # of connection points: 2
#     Edge 21, Type (0, 0), BuildingBlock: TEMPAE_clean_linker_10, # of connection points: 2
#     Edge 22, Type (0, 0), BuildingBlock: TEMPAE_clean_linker_10, # of connection points: 2
#     Edge 23, Type (0, 0), BuildingBlock: TEMPAE_clean_linker_10, # of connection points: 2
# Relax obj value: 0.123
# Max RMSD: 0.264
# Mean RMSD: 0.232
data_MOF--net-umx--node1-KUFVIS_clean_sbu_0--edge1-TEMPAE_clean_linker_10
_symmetry_space_group_name_H-M    P1
_symmetry_Int_Tables_number       1
_symmetry_cell_setting            triclinic
loop_
_symmetry_equiv_pos_as_xyz
'x, y, z'
_cell_length_a     35.039786
_cell_length_b     42.298509
_cell_length_c     28.556998
_cell_angle_alpha  90.018621
_cell_angle_beta   89.968837
_cell_angle_gamma 90.158178
loop_
_atom_site_label
_atom_site_type_symbol
_atom_site_fract_x
_atom_site_fract_y
_atom_site_fract_z
_atom_type_partial_charge
Mn0 Mn 0.19752 0.44711 0.00631 0.0
Mn1 Mn 0.15705 0.39733 0.92839 0.0
C2 C 0.13804 0.45822 0.97666 0.0
C3 C 0.2096 0.45932 0.08472 0.0
C4 C 0.21874 0.44485 0.90276 0.0
O5 O 0.23021 0.40775 0.01027 0.0
O6 O 0.19673 0.37458 0.96428 0.0
C7 C 0.11863 0.35462 0.99569 0.0
N8 N 0.11677 0.37449 0.95826 0.0
C9 C 0.0493 0.3655 0.94994 0.0
C10 C 0.05048 0.3448 0.98827 0.0
C11 C 0.08527 0.33947 0.01138 0.0
C12 C 0.08335 0.38025 0.93634 0.0
H13 H 0.14536 0.3504 0.0134 0.0
C14 C 0.22413 0.38055 0.99252 0.0
O15 O 0.23156 0.4699 0.05148 0.0
O16 O 0.1812 0.44153 0.07227 0.0
N17 N 0.11792 0.41577 0.89064 0.0
C18 C 0.12163 0.43656 0.85444 0.0
C19 C 0.08957 0.44418 0.82728 0.0
C20 C 0.05425 0.42988 0.83698 0.0
C21 C 0.05115 0.4084 0.8742 0.0
C22 C 0.08408 0.40172 0.90004 0.0
H23 H 0.14886 0.44716 0.84614 0.0
O24 O 0.15788 0.48017 0.99711 0.0
O25 O 0.1528 0.4301 0.9763 0.0
O26 O 0.22122 0.45847 0.94264 0.0
O27 O 0.19741 0.42084 0.89484 0.0
C28 C 0.01681 0.39305 0.88632 0.0
C29 C 0.01575 0.37198 0.92459 0.0
H30 H 0.02487 0.33291 0.00027 0.0
H31 H 0.0864 0.32361 0.04108 0.0
H32 H 0.09214 0.46077 0.79862 0.0
H33 H 0.02975 0.43547 0.81545 0.0
H34 H 0.99104 0.39724 0.86641 0.0
H35 H 0.98904 0.36068 0.93396 0.0
Mn36 Mn 0.50386 0.17124 0.53481 0.0
Mn37 Mn 0.46464 0.24319 0.54486 0.0
C38 C 0.49751 0.19295 0.6073 0.0
C39 C 0.49502 0.11706 0.52624 0.0
C40 C 0.5479 0.23445 0.52699 0.0
O41 O 0.48214 0.17841 0.47089 0.0
O42 O 0.46552 0.22914 0.47774 0.0
C43 C 0.38749 0.21923 0.52129 0.0
N44 N 0.41153 0.23374 0.55206 0.0
C45 C 0.36215 0.23662 0.61054 0.0
C46 C 0.33688 0.22175 0.57944 0.0
C47 C 0.34962 0.21303 0.53462 0.0
C48 C 0.39964 0.24195 0.59543 0.0
H49 H 0.39715 0.21231 0.48691 0.0
C50 C 0.47181 0.20442 0.45308 0.0
O51 O 0.52643 0.1306 0.51225 0.0
O52 O 0.46931 0.135 0.54488 0.0
N53 N 0.46126 0.26107 0.60623 0.0
C54 C 0.4869 0.28021 0.62828 0.0
C55 C 0.47814 0.29247 0.67272 0.0
C56 C 0.4425 0.28594 0.69313 0.0
C57 C 0.41546 0.26823 0.66811 0.0
C58 C 0.42588 0.25671 0.62396 0.0
H59 H 0.51411 0.28552 0.61239 0.0
O60 O 0.52023 0.16928 0.6007 0.0
O61 O 0.47662 0.20176 0.57165 0.0
O62 O 0.54595 0.20436 0.52085 0.0
O63 O 0.51962 0.25182 0.53936 0.0
C64 C 0.37812 0.26259 0.68446 0.0
C65 C 0.35152 0.24665 0.65577 0.0
H66 H 0.3076 0.21704 0.58952 0.0
H67 H 0.33029 0.20154 0.51041 0.0
H68 H 0.49878 0.30691 0.69117 0.0
H69 H 0.43573 0.29554 0.72728 0.0
H70 H 0.36935 0.27092 0.71868 0.0
H71 H 0.32276 0.24276 0.66849 0.0
Mn72 Mn 0.8103 0.53954 0.00125 0.0
Mn73 Mn 0.85457 0.59157 0.92934 0.0
C74 C 0.87125 0.52959 0.97521 0.0
C75 C 0.79443 0.52452 0.07747 0.0
C76 C 0.79794 0.54236 0.8951 0.0
O77 O 0.7767 0.57813 0.00611 0.0
O78 O 0.80873 0.61083 0.95819 0.0
C79 C 0.87901 0.63512 0.00493 0.0
N80 N 0.88788 0.6165 0.96755 0.0
C81 C 0.95452 0.62954 0.97439 0.0
C82 C 0.94606 0.64901 0.01274 0.0
C83 C 0.90815 0.65169 0.0282 0.0
C84 C 0.92436 0.61322 0.95307 0.0
H85 H 0.84994 0.63726 0.01703 0.0
C86 C 0.78126 0.60477 0.98626 0.0
O87 O 0.77433 0.51496 0.04189 0.0
O88 O 0.82327 0.54279 0.06856 0.0
N89 N 0.90002 0.57765 0.89843 0.0
C90 C 0.903 0.55996 0.85873 0.0
C91 C 0.93875 0.556 0.83742 0.0
C92 C 0.97093 0.57119 0.85619 0.0
C93 C 0.96712 0.59001 0.89631 0.0
C94 C 0.93068 0.59315 0.91589 0.0
H95 H 0.87815 0.54966 0.84272 0.0
O96 O 0.85044 0.50701 0.99237 0.0
O97 O 0.85669 0.55783 0.97607 0.0
O98 O 0.78976 0.53052 0.93509 0.0
O99 O 0.82168 0.56507 0.88875 0.0
C100 C -0.00214 0.60647 0.91686 0.0
C101 C 0.99164 0.6259 0.95625 0.0
H102 H 0.96843 0.66202 0.03054 0.0
H103 H 0.90139 0.66658 0.05787 0.0
H104 H 0.94134 0.54189 0.80596 0.0
H105 H -0.00178 0.5689 0.83878 0.0
H106 H 0.02637 0.6045 0.90252 0.0
H107 H 0.01552 0.63832 0.97189 0.0
Mn108 Mn 0.46465 0.8264 0.53982 0.0
Mn109 Mn 0.51777 0.76043 0.54634 0.0
C110 C 0.47516 0.80358 0.61102 0.0
C111 C 0.46355 0.88117 0.53488 0.0
C112 C 0.434 0.75919 0.52252 0.0
O113 O 0.4885 0.82411 0.47618 0.0
O114 O 0.52056 0.77855 0.48178 0.0
C115 C 0.59167 0.79387 0.53669 0.0
N116 N 0.56808 0.77459 0.56172 0.0
C117 C 0.61401 0.77037 0.624 0.0
C118 C 0.63887 0.79006 0.59879 0.0
C119 C 0.6276 0.8019 0.55499 0.0
C120 C 0.57842 0.76342 0.60418 0.0
H121 H 0.58309 0.80312 0.50309 0.0
C122 C 0.5087 0.8024 0.4584 0.0
O123 O 0.4351 0.86436 0.51927 0.0
O124 O 0.49191 0.86615 0.55335 0.0
N125 N 0.51854 0.73956 0.60575 0.0
C126 C 0.49247 0.71892 0.62378 0.0
C127 C 0.49993 0.70401 0.66673 0.0
C128 C 0.53439 0.71 0.69021 0.0
C129 C 0.56133 0.73052 0.67022 0.0
C130 C 0.55241 0.74451 0.62719 0.0
H131 H 0.46606 0.7141 0.60572 0.0
O132 O 0.44768 0.82373 0.60571 0.0
O133 O 0.49727 0.79884 0.57495 0.0
O134 O 0.42931 0.78926 0.52238 0.0
O135 O 0.4657 0.74562 0.53222 0.0
C136 C 0.59703 0.73709 0.69078 0.0
C137 C 0.62322 0.75722 0.66788 0.0
H138 H 0.66668 0.7962 0.61269 0.0
H139 H 0.64658 0.81718 0.53536 0.0
H140 H 0.4792 0.68788 0.68163 0.0
H141 H 0.54018 0.69823 0.72309 0.0
H142 H 0.60476 0.72661 0.72404 0.0
H143 H 0.65056 0.76212 0.68405 0.0
Mn144 Mn 0.18084 0.54744 0.49465 0.0
Mn145 Mn 0.13572 0.59777 0.56795 0.0
C146 C 0.12011 0.53625 0.52018 0.0
C147 C 0.19726 0.53311 0.41825 0.0
C148 C 0.19148 0.54844 0.60165 0.0
O149 O 0.21369 0.58657 0.4904 0.0
O150 O 0.18335 0.61693 0.54293 0.0
C151 C 0.11519 0.64324 0.49324 0.0
N152 N 0.10445 0.62383 0.52898 0.0
C153 C 0.03829 0.63697 0.51789 0.0
C154 C 0.04867 0.6572 0.48112 0.0
C155 C 0.08729 0.66025 0.46865 0.0
C156 C 0.06731 0.62025 0.54064 0.0
H157 H 0.1448 0.64569 0.48343 0.0
C158 C 0.21042 0.61194 0.51386 0.0
O159 O 0.21742 0.52373 0.45383 0.0
O160 O 0.16805 0.5508 0.42726 0.0
N161 N 0.08885 0.58396 0.59577 0.0
C162 C 0.08405 0.56614 0.63508 0.0
C163 C 0.04742 0.56218 0.65407 0.0
C164 C 0.01622 0.57745 0.63336 0.0
C165 C 0.02187 0.5964 0.59372 0.0
C166 C 0.05914 0.59966 0.57664 0.0
H167 H 0.1081 0.55567 0.65244 0.0
O168 O 0.14143 0.51416 0.50282 0.0
O169 O 0.13406 0.56481 0.51987 0.0
O170 O 0.20142 0.53839 0.56111 0.0
O171 O 0.1665 0.57001 0.60866 0.0
C172 C 0.99219 0.61297 0.5714 0.0
C173 C 0.00034 0.63297 0.53316 0.0
H174 H 0.02726 0.67055 0.46231 0.0
H175 H 0.09553 0.67577 0.44024 0.0
H176 H 0.04338 0.54797 0.6852 0.0
H177 H 0.98823 0.57524 0.64907 0.0
H178 H 0.96303 0.61068 0.58359 0.0
H179 H 0.97729 0.64561 0.51627 0.0
Mn180 Mn 0.48679 0.17064 0.01842 0.0
Mn181 Mn 0.53266 0.2408 0.01327 0.0
C182 C 0.50729 0.18853 0.94752 0.0
C183 C 0.4907 0.11715 0.03503 0.0
C184 C 0.44713 0.23545 0.01045 0.0
O185 O 0.49498 0.18113 0.08602 0.0
O186 O 0.52225 0.22892 0.08006 0.0
C187 C 0.60359 0.21422 0.05324 0.0
N188 N 0.58518 0.22891 0.01735 0.0
C189 C 0.64159 0.22739 0.96927 0.0
C190 C 0.66119 0.21238 0.00579 0.0
C191 C 0.64209 0.20577 0.04795 0.0
C192 C 0.60316 0.23499 0.97643 0.0
H193 H 0.58896 0.20881 0.08554 0.0
C194 C 0.5077 0.20638 0.10406 0.0
O195 O 0.45811 0.13174 0.03701 0.0
O196 O 0.52054 0.13352 0.02364 0.0
N197 N 0.54554 0.25677 0.9526 0.0
C198 C 0.52531 0.27729 0.92557 0.0
C199 C 0.54068 0.28767 0.88279 0.0
C200 C 0.57754 0.27823 0.86956 0.0
C201 C 0.59928 0.25974 0.90027 0.0
C202 C 0.58225 0.25001 0.94226 0.0
H203 H 0.49728 0.28499 0.93616 0.0
O204 O 0.48378 0.16498 0.95012 0.0
O205 O 0.52134 0.19902 0.98711 0.0
O206 O 0.44554 0.2053 0.01611 0.0
O207 O 0.47818 0.25161 0.00691 0.0
C208 C 0.63768 0.25174 0.89183 0.0
C209 C 0.65877 0.23542 0.92623 0.0
H210 H 0.69092 0.20595 0.00193 0.0
H211 H 0.65699 0.19413 0.07627 0.0
H212 H 0.52422 0.30297 0.86017 0.0
H213 H 0.58942 0.28638 0.83666 0.0
H214 H 0.6515 0.25863 0.85945 0.0
H215 H 0.68842 0.22975 0.91961 0.0
Mn216 Mn 0.79829 0.44047 0.48947 0.0
Mn217 Mn 0.84079 0.39341 0.56907 0.0
C218 C 0.85711 0.45427 0.51886 0.0
C219 C 0.78547 0.45113 0.41089 0.0
C220 C 0.77691 0.43902 0.59288 0.0
O221 O 0.76745 0.3999 0.48681 0.0
O222 O 0.80243 0.36856 0.53363 0.0
C223 C 0.88165 0.35114 0.50355 0.0
N224 N 0.88233 0.37169 0.54024 0.0
C225 C 0.95013 0.36548 0.54931 0.0
C226 C 0.95018 0.34411 0.51175 0.0
C227 C 0.9158 0.33704 0.48862 0.0
C228 C 0.91532 0.37911 0.56217 0.0
H229 H 0.85524 0.34557 0.48584 0.0
C230 C 0.77479 0.37314 0.50519 0.0
O231 O 0.76311 0.46131 0.44393 0.0
O232 O 0.81476 0.43457 0.42364 0.0
N233 N 0.87878 0.41394 0.60644 0.0
C234 C 0.87386 0.43518 0.64185 0.0
C235 C 0.90538 0.44451 0.66889 0.0
C236 C 0.94143 0.43146 0.6599 0.0
C237 C 0.94578 0.40951 0.62348 0.0
C238 C 0.91334 0.40111 0.5977 0.0
H239 H 0.84609 0.44483 0.64963 0.0
O240 O 0.83628 0.47511 0.49758 0.0
O241 O 0.84375 0.4256 0.52009 0.0
O242 O 0.77411 0.452 0.55263 0.0
O243 O 0.7991 0.41581 0.60171 0.0
C244 C 0.98091 0.39532 0.61211 0.0
C245 C 0.98321 0.37368 0.57462 0.0
H246 H 0.97642 0.33303 0.50034 0.0
H247 H 0.91562 0.32064 0.45953 0.0
H248 H 0.90185 0.46147 0.69692 0.0
H249 H 0.96553 0.43836 0.68136 0.0
H250 H 0.00636 0.40087 0.632 0.0
H251 H 0.01051 0.36329 0.56582 0.0
Mn252 Mn 0.53787 0.83064 0.01726 0.0
Mn253 Mn 0.48855 0.76191 0.01952 0.0
C254 C 0.51408 0.81093 0.94875 0.0
C255 C 0.53583 0.88455 0.03071 0.0
C256 C 0.57485 0.76543 0.01816 0.0
O257 O 0.53046 0.82243 0.08579 0.0
O258 O 0.49369 0.77895 0.08448 0.0
C259 C 0.41496 0.79097 0.04627 0.0
N260 N 0.43591 0.77338 0.01574 0.0
C261 C 0.38287 0.76906 0.96256 0.0
C262 C 0.36064 0.78695 0.99359 0.0
C263 C 0.37679 0.79798 0.03559 0.0
C264 C 0.42083 0.76308 0.97489 0.0
H265 H 0.42738 0.79975 0.07836 0.0
C266 C 0.51163 0.80086 0.10629 0.0
O267 O 0.56809 0.86945 0.03217 0.0
O268 O 0.5053 0.86854 0.02116 0.0
N269 N 0.48067 0.74153 0.96054 0.0
C270 C 0.50393 0.7204 0.93865 0.0
C271 C 0.49151 0.70551 0.89741 0.0
C272 C 0.45482 0.7117 0.88001 0.0
C273 C 0.43045 0.73191 0.90488 0.0
C274 C 0.44435 0.74576 0.94604 0.0
H275 H 0.53179 0.71503 0.95251 0.0
O276 O 0.53897 0.83361 0.94819 0.0
O277 O 0.5014 0.80218 0.98971 0.0
O278 O 0.5782 0.79557 0.01593 0.0
O279 O 0.54311 0.75033 0.02061 0.0
C280 C 0.3925 0.73796 0.89139 0.0
C281 C 0.3688 0.75672 0.92005 0.0
H282 H 0.33115 0.7923 0.98557 0.0
H283 H 0.35985 0.81191 0.05962 0.0
H284 H 0.51011 0.68923 0.8792 0.0
H285 H 0.44526 0.70002 0.84835 0.0
H286 H 0.38109 0.72791 0.85941 0.0
H287 H 0.33959 0.76103 0.9095 0.0
C288 C 0.19232 0.4539 0.16908 0.0
C289 C 0.21512 0.46807 0.13453 0.0
C290 C 0.19414 0.46378 0.21589 0.0
C291 C 0.21932 0.48855 0.22862 0.0
C292 C 0.24367 0.50204 0.19433 0.0
C293 C 0.24131 0.4916 0.14761 0.0
C294 C 0.16779 0.44864 0.25132 0.0
C295 C 0.27093 0.52845 0.20657 0.0
C296 C 0.18502 0.53658 0.33242 0.0
C297 C 0.20593 0.52349 0.36949 0.0
C298 C 0.19034 0.52629 0.28622 0.0
C299 C 0.21718 0.50218 0.27668 0.0
C300 C 0.23942 0.48963 0.31366 0.0
C301 C 0.23357 0.50047 0.35972 0.0
C302 C 0.16609 0.54042 0.24786 0.0
C303 C 0.26834 0.46393 0.30484 0.0
H304 H 0.17222 0.43551 0.15937 0.0
H305 H 0.2591 0.50259 0.12113 0.0
H306 H 0.18415 0.44081 0.28246 0.0
H307 H 0.14652 0.46623 0.26345 0.0
H308 H 0.15224 0.42796 0.23668 0.0
H309 H 0.29077 0.534 0.17733 0.0
H310 H 0.25453 0.55009 0.2152 0.0
H311 H 0.28791 0.52218 0.23798 0.0
H312 H 0.16382 0.55456 0.33957 0.0
H313 H 0.24989 0.49031 0.38818 0.0
H314 H 0.14679 0.52204 0.23335 0.0
H315 H 0.18441 0.54894 0.21876 0.0
H316 H 0.14845 0.56045 0.26056 0.0
H317 H 0.2534 0.44189 0.29431 0.0
H318 H 0.2859 0.45887 0.33633 0.0
H319 H 0.28756 0.47068 0.2756 0.0
C320 C 0.4673 0.1912 0.68489 0.0
C321 C 0.49401 0.20518 0.65503 0.0
C322 C 0.47096 0.19397 0.73363 0.0
C323 C 0.50063 0.21299 0.75259 0.0
C324 C 0.52559 0.22941 0.72213 0.0
C325 C 0.52347 0.22366 0.67381 0.0
C326 C 0.4452 0.17431 0.7646 0.0
C327 C 0.55496 0.25241 0.74058 0.0
C328 C 0.48565 0.22257 0.88284 0.0
C329 C 0.5134 0.20227 0.90113 0.0
C330 C 0.48437 0.22943 0.83483 0.0
C331 C 0.50812 0.21237 0.80384 0.0
C332 C 0.53593 0.1914 0.82216 0.0
C333 C 0.53896 0.1874 0.8708 0.0
C334 C 0.45719 0.25437 0.81724 0.0
C335 C 0.55993 0.17084 0.7905 0.0
H336 H 0.44562 0.17576 0.67021 0.0
H337 H 0.5449 0.23355 0.65059 0.0
H338 H 0.46266 0.15878 0.7874 0.0
H339 H 0.42808 0.18976 0.78779 0.0
H340 H 0.42526 0.15927 0.74407 0.0
H341 H 0.56799 0.26667 0.71206 0.0
H342 H 0.54156 0.26865 0.76628 0.0
H343 H 0.57801 0.2396 0.75907 0.0
H344 H 0.46469 0.23291 0.90618 0.0
H345 H 0.55894 0.17034 0.8849 0.0
H346 H 0.4354 0.2438 0.79385 0.0
H347 H 0.47325 0.27204 0.79627 0.0
H348 H 0.44244 0.2668 0.84633 0.0
H349 H 0.54111 0.15636 0.76767 0.0
H350 H 0.57886 0.1547 0.81048 0.0
H351 H 0.57798 0.18562 0.76734 0.0
C352 C 0.75201 0.48158 0.3477 0.0
C353 C 0.7794 0.4592 0.36099 0.0
C354 C 0.74911 0.49168 0.3009 0.0
C355 C 0.7741 0.47899 0.26676 0.0
C356 C 0.80046 0.45524 0.27967 0.0
C357 C 0.80282 0.44569 0.32658 0.0
C358 C 0.7206 0.517 0.28848 0.0
C359 C 0.82752 0.44096 0.24436 0.0
C360 C 0.75955 0.49051 0.13571 0.0
C361 C 0.78612 0.51452 0.12613 0.0
C362 C 0.75416 0.47937 0.18169 0.0
C363 C 0.77577 0.49266 0.21875 0.0
C364 C 0.80148 0.51774 0.2094 0.0
C365 C 0.80638 0.52829 0.16328 0.0
C366 C 0.72647 0.45261 0.19033 0.0
C367 C 0.82496 0.53271 0.24789 0.0
H368 H 0.73374 0.49204 0.37409 0.0
H369 H 0.82383 0.42816 0.33647 0.0
H370 H 0.73594 0.53926 0.28004 0.0
H371 H 0.70411 0.51009 0.25692 0.0
H372 H 0.70034 0.52175 0.31757 0.0
H373 H 0.84386 0.42082 0.25909 0.0
H374 H 0.81161 0.4326 0.21313 0.0
H375 H 0.84809 0.45924 0.23235 0.0
H376 H 0.74375 0.47982 0.10716 0.0
H377 H 0.82674 0.54704 0.15626 0.0
H378 H 0.70688 0.45861 0.21951 0.0
H379 H 0.74242 0.43113 0.20087 0.0
H380 H 0.70925 0.44692 0.15877 0.0
H381 H 0.80619 0.54058 0.27691 0.0
H382 H 0.84175 0.55335 0.2353 0.0
H383 H 0.84502 0.51502 0.26249 0.0
C384 C 0.47078 0.81102 0.88098 0.0
C385 C 0.50196 0.7977 0.904 0.0
C386 C 0.46553 0.80623 0.83281 0.0
C387 C 0.49115 0.78637 0.80802 0.0
C388 C 0.52034 0.77041 0.83257 0.0
C389 C 0.52679 0.77778 0.87969 0.0
C390 C 0.434 0.82391 0.80821 0.0
C391 C 0.54461 0.74565 0.80913 0.0
C392 C 0.45784 0.77439 0.68295 0.0
C393 C 0.48407 0.79306 0.65846 0.0
C394 C 0.46172 0.76947 0.73123 0.0
C395 C 0.49066 0.7859 0.756 0.0
C396 C 0.51719 0.80499 0.73101 0.0
C397 C 0.5142 0.80748 0.68223 0.0
C398 C 0.43362 0.74764 0.75493 0.0
C399 C 0.54686 0.82488 0.75585 0.0
H400 H 0.45231 0.82713 0.89988 0.0
H401 H 0.55143 0.76813 0.8976 0.0
H402 H 0.44507 0.83591 0.77639 0.0
H403 H 0.41158 0.80697 0.79708 0.0
H404 H 0.4205 0.8419 0.83119 0.0
H405 H 0.56518 0.7346 0.83374 0.0
H406 H 0.52571 0.72694 0.79473 0.0
H407 H 0.56066 0.75594 0.77942 0.0
H408 H 0.43402 0.76382 0.66435 0.0
H409 H 0.53362 0.82275 0.66308 0.0
H410 H 0.40437 0.75738 0.75137 0.0
H411 H 0.4398 0.74384 0.79249 0.0
H412 H 0.43367 0.72436 0.73696 0.0
H413 H 0.53356 0.83844 0.78485 0.0
H414 H 0.56119 0.84185 0.73185 0.0
H415 H 0.5691 0.80952 0.77127 0.0
C416 C 0.74968 0.43688 0.6734 0.0
C417 C 0.75942 0.4547 0.63376 0.0
C418 C 0.74511 0.45141 0.7172 0.0
C419 C 0.75158 0.48433 0.72149 0.0
C420 C 0.75713 0.5028 0.68065 0.0
C421 C 0.76059 0.48774 0.63705 0.0
C422 C 0.73775 0.43098 0.75958 0.0
C423 C 0.76442 0.53793 0.68357 0.0
C424 C 0.746 0.52734 0.83886 0.0
C425 C 0.78419 0.52592 0.85305 0.0
C426 C 0.73433 0.51317 0.79653 0.0
C427 C 0.76174 0.49779 0.76799 0.0
C428 C 0.80011 0.49565 0.78332 0.0
C429 C 0.81061 0.50933 0.82596 0.0
C430 C 0.69305 0.51524 0.78192 0.0
C431 C 0.83044 0.4795 0.75425 0.0
H432 H 0.74837 0.41132 0.67082 0.0
H433 H 0.76827 0.50161 0.60652 0.0
H434 H 0.76516 0.42623 0.77767 0.0
H435 H 0.71865 0.4431 0.7848 0.0
H436 H 0.72478 0.40793 0.74968 0.0
H437 H 0.76133 0.54959 0.64893 0.0
H438 H 0.74465 0.54928 0.70875 0.0
H439 H 0.79395 0.54205 0.69629 0.0
H440 H 0.72557 0.53999 0.86032 0.0
H441 H 0.83973 0.50711 0.83816 0.0
H442 H 0.68254 0.49189 0.76967 0.0
H443 H 0.69031 0.53199 0.75224 0.0
H444 H 0.6745 0.52357 0.81094 0.0
H445 H 0.82276 0.45433 0.74863 0.0
H446 H 0.85903 0.48049 0.771 0.0
H447 H 0.83245 0.49085 0.7193 0.0
C448 C 0.54197 0.81654 0.18166 0.0
C449 C 0.51262 0.80045 0.15802 0.0
C450 C 0.54434 0.81613 0.23056 0.0
C451 C 0.51636 0.79963 0.25656 0.0
C452 C 0.48675 0.78318 0.23305 0.0
C453 C 0.48539 0.78358 0.18391 0.0
C454 C 0.57655 0.83368 0.25439 0.0
C455 C 0.45611 0.7657 0.25985 0.0
C456 C 0.53472 0.77913 0.38405 0.0
C457 C 0.51486 0.80335 0.40708 0.0
C458 C 0.53608 0.77787 0.33493 0.0
C459 C 0.51686 0.80119 0.30842 0.0
C460 C 0.49784 0.8262 0.3314 0.0
C461 C 0.49733 0.82711 0.38034 0.0
C462 C 0.55727 0.7512 0.31139 0.0
C463 C 0.47701 0.85153 0.30429 0.0
H464 H 0.56351 0.82927 0.1619 0.0
H465 H 0.46269 0.77111 0.16583 0.0
H466 H 0.56488 0.8532 0.27597 0.0
H467 H 0.59209 0.81759 0.27836 0.0
H468 H 0.59722 0.84381 0.22895 0.0
H469 H 0.4357 0.75335 0.23632 0.0
H470 H 0.46923 0.74805 0.28356 0.0
H471 H 0.43998 0.78256 0.28204 0.0
H472 H 0.54842 0.76072 0.40432 0.0
H473 H 0.48193 0.84601 0.39759 0.0
H474 H 0.57841 0.76082 0.28616 0.0
H475 H 0.53696 0.73637 0.29119 0.0
H476 H 0.57239 0.73591 0.33694 0.0
H477 H 0.49689 0.86363 0.2799 0.0
H478 H 0.46393 0.86957 0.32754 0.0
H479 H 0.45412 0.8406 0.28279 0.0
C480 C 0.23642 0.49335 0.85816 0.0
C481 C 0.23569 0.46028 0.86118 0.0
C482 C 0.23929 0.50844 0.81449 0.0
C483 C 0.24196 0.48993 0.77324 0.0
C484 C 0.2466 0.45681 0.77693 0.0
C485 C 0.24309 0.44232 0.8209 0.0
C486 C 0.23447 0.54384 0.81221 0.0
C487 C 0.25057 0.43623 0.73404 0.0
C488 C 0.17969 0.51729 0.67315 0.0
C489 C 0.20595 0.5319 0.6433 0.0
C490 C 0.19128 0.50351 0.71524 0.0
C491 C 0.23045 0.50385 0.72753 0.0
C492 C 0.2575 0.51747 0.69651 0.0
C493 C 0.24485 0.53146 0.6545 0.0
C494 C 0.16134 0.48893 0.74679 0.0
C495 C 0.29948 0.51791 0.70814 0.0
H496 H 0.23076 0.50739 0.88916 0.0
H497 H 0.24313 0.41673 0.82317 0.0
H498 H 0.25363 0.55432 0.78545 0.0
H499 H 0.20465 0.54935 0.802 0.0
H500 H 0.24032 0.55521 0.84654 0.0
H501 H 0.26238 0.41263 0.74291 0.0
H502 H 0.22205 0.43272 0.71793 0.0
H503 H 0.26925 0.44759 0.70753 0.0
H504 H 0.14987 0.51649 0.66341 0.0
H505 H 0.26513 0.54268 0.63107 0.0
H506 H 0.16192 0.50048 0.78169 0.0
H507 H 0.16746 0.46347 0.75213 0.0
H508 H 0.13208 0.49116 0.73223 0.0
H509 H 0.30467 0.53451 0.73754 0.0
H510 H 0.31716 0.52549 0.67783 0.0
H511 H 0.30903 0.49418 0.71971 0.0
C512 C 0.48895 0.18236 0.37485 0.0
C513 C 0.47235 0.20681 0.40119 0.0
C514 C 0.49462 0.18529 0.32655 0.0
C515 C 0.48272 0.21311 0.30342 0.0
C516 C 0.46499 0.23761 0.3293 0.0
C517 C 0.46029 0.23429 0.37803 0.0
C518 C 0.51382 0.15864 0.30035 0.0
C519 C 0.45114 0.26729 0.30552 0.0
C520 C 0.52776 0.22584 0.18353 0.0
C521 C 0.50106 0.21073 0.15468 0.0
C522 C 0.52158 0.22798 0.23216 0.0
C523 C 0.48751 0.21548 0.25177 0.0
C524 C 0.45962 0.20187 0.22218 0.0
C525 C 0.46695 0.19933 0.17417 0.0
C526 C 0.55225 0.24219 0.26276 0.0
C527 C 0.42261 0.18882 0.24141 0.0
H528 H 0.49873 0.16108 0.39217 0.0
H529 H 0.44757 0.25334 0.39801 0.0
H530 H 0.49408 0.14879 0.2737 0.0
H531 H 0.53933 0.16768 0.28154 0.0
H532 H 0.52285 0.13916 0.32391 0.0
H533 H 0.4374 0.28392 0.33045 0.0
H534 H 0.47541 0.27955 0.28833 0.0
H535 H 0.43031 0.26115 0.27769 0.0
H536 H 0.55401 0.23482 0.16837 0.0
H537 H 0.44583 0.18827 0.1517 0.0
H538 H 0.56479 0.22347 0.28516 0.0
H539 H 0.53989 0.26027 0.28642 0.0
H540 H 0.57549 0.25325 0.24191 0.0
H541 H 0.42845 0.16729 0.26237 0.0
H542 H 0.40211 0.18253 0.21322 0.0
H543 H 0.40895 0.20628 0.26504 0.0
C544 C 0.94064 0.53642 0.98718 0.0
C545 C 0.91068 0.52293 0.96184 0.0
C546 C 0.97817 0.52586 0.98083 0.0
C547 C 0.9856 0.50118 0.94844 0.0
C548 C 0.95545 0.48906 0.92067 0.0
C549 C 0.91813 0.49955 0.92858 0.0
C550 C 0.00943 0.53978 0.01087 0.0
C551 C 0.96169 0.4638 0.88443 0.0
C552 C 0.09154 0.48899 0.93046 0.0
C553 C 0.0988 0.46485 0.96253 0.0
C554 C 0.05413 0.49902 0.92194 0.0
C555 C 0.02377 0.4859 0.94829 0.0
C556 C 0.03099 0.46037 0.97917 0.0
C557 C 0.06859 0.4501 0.98588 0.0
C558 C 0.04733 0.52434 0.88601 0.0
C559 C -0.00066 0.44508 0.00704 0.0
H560 H 0.93444 0.55418 0.01349 0.0
H561 H 0.89462 0.48906 0.9093 0.0
H562 H 0.0208 0.52131 0.03463 0.0
H563 H 0.03336 0.54811 0.98861 0.0
H564 H -0.00078 0.55996 0.03236 0.0
H565 H 0.99106 0.4645 0.8703 0.0
H566 H 0.95651 0.44042 0.90077 0.0
H567 H 0.94126 0.46637 0.85494 0.0
H568 H 0.11523 0.50024 0.91247 0.0
H569 H 0.0746 0.4316 0.01109 0.0
H570 H 0.04002 0.54668 0.90407 0.0
H571 H 0.02301 0.51757 0.86323 0.0
H572 H 0.07282 0.52857 0.86368 0.0
H573 H 0.9866 0.46271 0.03121 0.0
H574 H 0.00956 0.42462 0.0279 0.0
H575 H 0.97644 0.43679 0.9832 0.0
C576 C 0.48916 0.93285 0.56124 0.0
C577 C 0.46491 0.91591 0.5313 0.0
C578 C 0.49298 0.96567 0.55744 0.0
C579 C 0.47253 0.98193 0.52226 0.0
C580 C 0.44795 0.96499 0.4918 0.0
C581 C 0.44411 0.93207 0.497 0.0
C582 C 0.51881 0.98293 0.59131 0.0
C583 C 0.42612 0.98159 0.45351 0.0
C584 C 0.4577 0.06891 0.5465 0.0
C585 C 0.4884 0.08267 0.52233 0.0
C586 C 0.45141 0.03623 0.54538 0.0
C587 C 0.47614 0.01683 0.5189 0.0
C588 C 0.50636 0.03067 0.49296 0.0
C589 C 0.51236 0.0635 0.4953 0.0
C590 C 0.41929 0.02236 0.57419 0.0
C591 C 0.53296 0.01069 0.46382 0.0
H592 H 0.50515 0.9204 0.58796 0.0
H593 H 0.42566 0.91891 0.47353 0.0
H594 H 0.54162 0.99556 0.57185 0.0
H595 H 0.50227 0.00096 0.61087 0.0
H596 H 0.53241 0.96674 0.61694 0.0
H597 H 0.40886 0.96492 0.43212 0.0
H598 H 0.4068 -0.00047 0.46894 0.0
H599 H 0.44626 0.99431 0.43012 0.0
H600 H 0.43902 0.08361 0.56748 0.0
H601 H 0.53588 0.07409 0.4762 0.0
H602 H 0.43127 0.00733 0.6024 0.0
H603 H 0.40093 0.00702 0.55212 0.0
H604 H 0.4012 0.04087 0.5905 0.0
H605 H 0.55041 0.9955 0.48709 0.0
H606 H 0.55251 0.02528 0.44205 0.0
H607 H 0.51636 0.9948 0.44051 0.0
C608 C 0.0505 0.54078 0.50778 0.0
C609 C 0.0809 0.52858 0.53361 0.0
C610 C 0.01345 0.52884 0.51386 0.0
C611 C 0.00692 0.50427 0.54676 0.0
C612 C 0.03739 0.4936 0.57516 0.0
C613 C 0.07427 0.50527 0.56727 0.0
C614 C 0.98187 0.5411 0.48293 0.0
C615 C 0.03198 0.4687 0.61215 0.0
C616 C 0.90153 0.48791 0.56413 0.0
C617 C 0.89586 0.46277 0.53317 0.0
C618 C 0.93825 0.49983 0.57237 0.0
C619 C 0.96951 0.48752 0.54689 0.0
C620 C 0.96395 0.46108 0.5171 0.0
C621 C 0.92704 0.44896 0.51066 0.0
C622 C 0.94332 0.52624 0.6071 0.0
C623 C 0.99658 0.4467 0.49005 0.0
H624 H 0.05607 0.55851 0.48119 0.0
H625 H 0.09811 0.49579 0.58696 0.0
H626 H 0.9716 0.52184 0.45967 0.0
H627 H 0.95734 0.5489 0.50454 0.0
H628 H 0.99133 0.56129 0.46086 0.0
H629 H 0.05222 0.47229 0.64163 0.0
H630 H 0.00255 0.46875 0.62616 0.0
H631 H 0.03804 0.44525 0.59656 0.0
H632 H 0.87711 0.49847 0.58142 0.0
H633 H 0.92225 0.42972 0.48623 0.0
H634 H 0.91753 0.52968 0.62917 0.0
H635 H 0.9492 0.54855 0.58805 0.0
H636 H 0.96796 0.52117 0.63025 0.0
H637 H 0.00878 0.46453 0.46571 0.0
H638 H 0.98757 0.42566 0.46948 0.0
H639 H 0.01957 0.43949 0.51444 0.0
C640 C 0.50741 0.92988 0.07262 0.0
C641 C 0.53314 0.91861 0.03911 0.0
C642 C 0.50064 0.96236 0.07741 0.0
C643 C 0.5188 0.98375 0.04645 0.0
C644 C 0.54532 0.97237 0.01293 0.0
C645 C 0.55269 0.93982 0.01024 0.0
C646 C 0.47339 0.97368 0.11477 0.0
C647 C 0.56446 0.99437 0.97847 0.0
C648 C 0.47007 0.06182 0.02042 0.0
C649 C 0.4943 0.08308 0.0433 0.0
C650 C 0.47746 0.02923 0.02159 0.0
C651 C 0.50897 0.01785 0.0477 0.0
C652 C 0.53208 0.03926 0.07319 0.0
C653 C 0.52494 0.07176 0.06981 0.0
C654 C 0.45281 0.0072 0.99292 0.0
C655 C 0.56494 0.02795 0.10292 0.0
H656 H 0.49232 0.91319 0.09479 0.0
H657 H 0.57212 0.93079 0.98389 0.0
H658 H 0.48661 0.99307 0.13538 0.0
H659 H 0.44727 0.98331 0.09823 0.0
H660 H 0.46489 0.9544 0.13908 0.0
H661 H 0.58445 0.98174 0.95479 0.0
H662 H 0.5425 0.00633 0.95685 0.0
H663 H 0.58052 0.01305 0.99734 0.0
H664 H 0.44674 0.07082 -0.0006 0.0
H665 H 0.54359 0.08843 0.08749 0.0
H666 H 0.44049 0.98846 0.0155 0.0
H667 H 0.47054 0.99532 0.96595 0.0
H668 H 0.42912 0.01979 0.97511 0.0
H669 H 0.55542 0.00857 0.12641 0.0
H670 H 0.5773 0.04724 0.1246 0.0
H671 H 0.58777 0.01831 0.08015 0.0
C672 C 0.27986 0.35874 0.03657 0.0
C673 C 0.25161 0.35494 0.00224 0.0
C674 C 0.30898 0.33638 0.04172 0.0
C675 C 0.30998 0.30987 0.01149 0.0
C676 C 0.28034 0.30492 0.97874 0.0
C677 C 0.25136 0.32744 0.97469 0.0
C678 C 0.33987 0.34209 0.07762 0.0
C679 C 0.28063 0.27701 0.94572 0.0
C680 C 0.40845 0.28026 0.98108 0.0
C681 C 0.41107 0.25305 0.0087 0.0
C682 C 0.37532 0.29857 0.98108 0.0
C683 C 0.34434 0.28965 0.01005 0.0
C684 C 0.34655 0.26192 0.03759 0.0
C685 C 0.37992 0.24369 0.03626 0.0
C686 C 0.37371 0.32768 0.95048 0.0
C687 C 0.31415 0.252 0.06924 0.0
H688 H 0.27995 0.37968 0.05847 0.0
H689 H 0.22954 0.32416 0.94823 0.0
H690 H 0.3455 0.32023 0.0979 0.0
H691 H 0.36678 0.34869 0.05956 0.0
H692 H 0.33228 0.36134 0.10238 0.0
H693 H 0.25331 0.27455 0.9263 0.0
H694 H 0.30405 0.27999 0.91992 0.0
H695 H 0.28609 0.25476 0.9651 0.0
H696 H 0.43235 0.28726 0.95935 0.0
H697 H 0.38213 0.22273 0.05793 0.0
H698 H 0.37041 0.34907 0.9726 0.0
H699 H 0.34856 0.32644 0.92696 0.0
H700 H 0.39976 0.33056 0.92867 0.0
H701 H 0.30929 0.27044 0.09622 0.0
H702 H 0.31989 0.22919 0.08714 0.0
H703 H 0.28735 0.24969 0.04885 0.0
C704 C 0.7502 0.31921 0.52445 0.0
C705 C 0.74799 0.34664 0.49689 0.0
C706 C 0.72088 0.29667 0.52385 0.0
C707 C 0.68887 0.30155 0.49466 0.0
C708 C 0.68831 0.32745 0.46331 0.0
C709 C 0.71785 0.34983 0.46495 0.0
C710 C 0.72253 0.26933 0.5578 0.0
C711 C 0.65494 0.33306 0.43097 0.0
C712 C 0.61162 0.23849 0.48768 0.0
C713 C 0.58483 0.25041 0.51959 0.0
C714 C 0.64584 0.25483 0.4789 0.0
C715 C 0.6534 0.28333 0.5032 0.0
C716 C 0.62678 0.29498 0.53621 0.0
C717 C 0.59276 0.27849 0.54373 0.0
C718 C 0.67347 0.24201 0.44309 0.0
C719 C 0.63406 0.32505 0.56348 0.0
H720 H 0.77362 0.31623 0.54881 0.0
H721 H 0.71626 0.3706 0.44282 0.0
H722 H 0.70292 0.27401 0.58753 0.0
H723 H 0.71303 0.24708 0.54083 0.0
H724 H 0.75172 0.26585 0.57203 0.0
H725 H 0.66187 0.35062 0.40329 0.0
H726 H 0.64577 0.31069 0.41406 0.0
H727 H 0.63042 0.34211 0.45156 0.0
H728 H 0.60539 0.21688 0.46873 0.0
H729 H 0.57235 0.28759 0.56878 0.0
H730 H 0.70221 0.23929 0.4588 0.0
H731 H 0.67628 0.25899 0.41368 0.0
H732 H 0.66415 0.21881 0.42881 0.0
H733 H 0.6613 0.32317 0.58307 0.0
H734 H 0.61084 0.33031 0.5888 0.0
H735 H 0.63681 0.34531 0.53905 0.0
C736 C 0.76287 0.6617 0.98524 0.0
C737 C 0.75356 0.6302 0.99581 0.0
C738 C 0.73633 0.68598 0.99179 0.0
C739 C 0.69953 0.67849 0.00882 0.0
C740 C 0.69028 0.64693 0.02091 0.0
C741 C 0.71753 0.62313 0.01448 0.0
C742 C 0.74725 0.71945 0.97903 0.0
C743 C 0.65114 0.63811 0.03891 0.0
C744 C 0.63321 0.74253 0.05336 0.0
C745 C 0.60929 0.74632 0.01467 0.0
C746 C 0.66354 0.72096 0.05174 0.0
C747 C 0.66966 0.70314 0.0104 0.0
C748 C 0.64618 0.70793 0.97072 0.0
C749 C 0.61611 0.72949 0.97345 0.0
C750 C 0.68808 0.7164 0.09461 0.0
C751 C 0.65201 0.68958 0.9259 0.0
H752 H 0.79088 0.66741 0.97143 0.0
H753 H 0.71019 0.59886 0.02276 0.0
H754 H 0.73024 0.7273 0.94843 0.0
H755 H 0.7407 0.73574 0.0084 0.0
H756 H 0.77802 0.72171 0.97017 0.0
H757 H 0.64933 0.61288 0.04952 0.0
H758 H 0.6435 0.65307 0.0694 0.0
H759 H 0.62955 0.64249 0.01126 0.0
H760 H 0.62738 0.75559 0.08525 0.0
H761 H 0.59744 0.73282 0.94361 0.0
H762 H 0.71871 0.71881 0.08535 0.0
H763 H 0.68388 0.69217 0.10858 0.0
H764 H 0.68123 0.73364 0.12272 0.0
H765 H 0.68172 0.69262 0.91322 0.0
H766 H 0.63215 0.69713 0.89774 0.0
H767 H 0.64756 0.66399 0.93254 0.0
C768 C 0.40209 0.70645 0.52503 0.0
C769 C 0.40058 0.73865 0.51338 0.0
C770 C 0.36993 0.68704 0.52071 0.0
C771 C 0.33557 0.69994 0.50327 0.0
C772 C 0.33422 0.73199 0.48924 0.0
C773 C 0.3667 0.75111 0.49491 0.0
C774 C 0.37234 0.65303 0.53667 0.0
C775 C 0.29822 0.74626 0.46949 0.0
C776 C 0.26287 0.63789 0.46844 0.0
C777 C 0.24012 0.63647 0.5088 0.0
C778 C 0.29282 0.65983 0.4649 0.0
C779 C 0.3006 0.68019 0.50306 0.0
C780 C 0.27699 0.67951 0.54326 0.0
C781 C 0.24677 0.65785 0.54543 0.0
C782 C 0.31694 0.66043 0.42108 0.0
C783 C 0.28483 0.70048 0.58502 0.0
H784 H 0.42813 0.69647 0.53902 0.0
H785 H 0.36541 0.77587 0.48528 0.0
H786 H 0.35238 0.64907 0.5663 0.0
H787 H 0.36362 0.63691 0.50797 0.0
H788 H 0.40155 0.64647 0.54819 0.0
H789 H 0.30303 0.7705 0.45566 0.0
H790 H 0.28676 0.73119 0.44094 0.0
H791 H 0.27607 0.74743 0.4972 0.0
H792 H 0.25748 0.62166 0.43979 0.0
H793 H 0.22933 0.6568 0.57677 0.0
H794 H 0.34578 0.65109 0.42897 0.0
H795 H 0.32059 0.68507 0.40846 0.0
H796 H 0.30428 0.64599 0.39251 0.0
H797 H 0.31273 0.69409 0.60071 0.0
H798 H 0.26246 0.69831 0.61243 0.0
H799 H 0.28671 0.72557 0.57401 0.0
loop_
_geom_bond_atom_site_label_1
_geom_bond_atom_site_label_2
_geom_bond_distance
_geom_bond_site_symmetry_2
_ccdc_geom_bond_type
Mn0 O5 2.095 . S
Mn0 O15 2.162 . S
Mn0 O16 2.297 . S
Mn0 O24 2.385 . S
Mn0 O25 2.209 . S
Mn0 O26 2.094 1_554 S
Mn1 O6 2.121 . S
Mn1 N8 2.257 . S
Mn1 N17 2.282 . S
Mn1 O25 2.215 1_556 S
Mn1 O27 2.117 . S
C2 O24 1.234 . S
C2 O25 1.283 . S
C3 O15 1.281 . S
C3 O16 1.236 . S
C4 O26 1.240 . S
C4 O27 1.264 . S
O5 Mn0 2.095 . S
O5 C14 1.250 . S
O6 Mn1 2.121 . S
O6 C14 1.258 1_556 S
C7 N8 1.326 . S
C7 C11 1.460 . S
C7 H13 0.929 . S
N8 Mn1 2.257 . S
N8 C7 1.326 . S
N8 C12 1.362 . S
C9 C10 1.258 . S
C9 C12 1.431 . S
C9 C29 1.449 . S
C10 C9 1.258 . S
C10 C11 1.477 . S
C10 H30 0.931 . S
C11 C7 1.460 . S
C11 C10 1.477 . S
C11 H31 0.930 . S
C12 N8 1.362 . S
C12 C9 1.431 . S
C12 C22 1.476 . S
H13 C7 0.929 . S
C14 O5 1.250 . S
C14 O6 1.258 1_554 S
O15 Mn0 2.162 . S
O15 C3 1.281 . S
O16 Mn0 2.297 . S
O16 C3 1.236 . S
N17 Mn1 2.282 . S
N17 C18 1.328 . S
N17 C22 1.318 . S
C18 N17 1.328 . S
C18 C19 1.457 . S
C18 H23 0.929 . S
C19 C18 1.457 . S
C19 C20 1.291 . S
C19 H32 0.931 . S
C20 C19 1.291 . S
C20 C21 1.373 . S
C20 H33 0.929 . S
C21 C20 1.373 . S
C21 C22 1.396 . S
C21 C28 1.403 . S
C22 C12 1.476 . S
C22 N17 1.318 . S
C22 C21 1.396 . S
H23 C18 0.929 . S
O24 Mn0 2.385 . S
O24 C2 1.234 . S
O25 Mn0 2.209 . S
O25 Mn1 2.215 1_554 S
O25 C2 1.283 . S
O26 Mn0 2.094 1_556 S
O26 C4 1.240 . S
O27 Mn1 2.117 . S
O27 C4 1.264 . S
C28 C21 1.403 . S
C28 C29 1.399 . S
C28 H34 0.929 1_455 S
C29 C9 1.449 . S
C29 C28 1.399 . S
C29 H35 0.946 . S
H30 C10 0.931 . S
H31 C11 0.930 . S
H32 C19 0.931 . S
H33 C20 0.929 . S
H34 C28 0.929 1_655 S
H35 C29 0.946 . S
Mn36 O41 2.095 . S
Mn36 O51 2.162 . S
Mn36 O52 2.297 . S
Mn36 O60 2.385 . S
Mn36 O61 2.209 . S
Mn36 O62 2.094 . S
Mn37 O42 2.121 . S
Mn37 N44 2.257 . S
Mn37 N53 2.282 . S
Mn37 O61 2.215 . S
Mn37 O63 2.117 . S
C38 O60 1.234 . S
C38 O61 1.283 . S
C39 O51 1.281 . S
C39 O52 1.236 . S
C40 O62 1.240 . S
C40 O63 1.264 . S
O41 Mn36 2.095 . S
O41 C50 1.250 . S
O42 Mn37 2.121 . S
O42 C50 1.258 . S
C43 N44 1.326 . S
C43 C47 1.460 . S
C43 H49 0.929 . S
N44 Mn37 2.257 . S
N44 C43 1.326 . S
N44 C48 1.362 . S
C45 C46 1.258 . S
C45 C48 1.431 . S
C45 C65 1.449 . S
C46 C45 1.258 . S
C46 C47 1.477 . S
C46 H66 0.931 . S
C47 C43 1.460 . S
C47 C46 1.477 . S
C47 H67 0.930 . S
C48 N44 1.362 . S
C48 C45 1.431 . S
C48 C58 1.476 . S
H49 C43 0.929 . S
C50 O41 1.250 . S
C50 O42 1.258 . S
O51 Mn36 2.162 . S
O51 C39 1.281 . S
O52 Mn36 2.297 . S
O52 C39 1.236 . S
N53 Mn37 2.282 . S
N53 C54 1.328 . S
N53 C58 1.318 . S
C54 N53 1.328 . S
C54 C55 1.457 . S
C54 H59 0.929 . S
C55 C54 1.457 . S
C55 C56 1.291 . S
C55 H68 0.931 . S
C56 C55 1.291 . S
C56 C57 1.373 . S
C56 H69 0.929 . S
C57 C56 1.373 . S
C57 C58 1.396 . S
C57 C64 1.403 . S
C58 C48 1.476 . S
C58 N53 1.318 . S
C58 C57 1.396 . S
H59 C54 0.929 . S
O60 Mn36 2.385 . S
O60 C38 1.234 . S
O61 Mn36 2.209 . S
O61 Mn37 2.215 . S
O61 C38 1.283 . S
O62 Mn36 2.094 . S
O62 C40 1.240 . S
O63 Mn37 2.117 . S
O63 C40 1.264 . S
C64 C57 1.403 . S
C64 C65 1.399 . S
C64 H70 0.929 . S
C65 C45 1.449 . S
C65 C64 1.399 . S
C65 H71 0.930 . S
H66 C46 0.931 . S
H67 C47 0.930 . S
H68 C55 0.931 . S
H69 C56 0.929 . S
H70 C64 0.929 . S
H71 C65 0.930 . S
Mn72 O77 2.095 . S
Mn72 O87 2.162 . S
Mn72 O88 2.297 . S
Mn72 O96 2.385 . S
Mn72 O97 2.209 . S
Mn72 O98 2.094 1_554 S
Mn73 O78 2.121 . S
Mn73 N80 2.257 . S
Mn73 N89 2.282 . S
Mn73 O97 2.215 1_556 S
Mn73 O99 2.117 . S
C74 O96 1.234 . S
C74 O97 1.283 . S
C75 O87 1.281 . S
C75 O88 1.236 . S
C76 O98 1.240 . S
C76 O99 1.264 . S
O77 Mn72 2.095 . S
O77 C86 1.250 . S
O78 Mn73 2.121 . S
O78 C86 1.258 1_556 S
C79 N80 1.326 . S
C79 C83 1.460 . S
C79 H85 0.929 . S
N80 Mn73 2.257 . S
N80 C79 1.326 . S
N80 C84 1.362 . S
C81 C82 1.258 . S
C81 C84 1.431 . S
C81 C101 1.449 . S
C82 C81 1.258 . S
C82 C83 1.477 . S
C82 H102 0.931 . S
C83 C79 1.460 . S
C83 C82 1.477 . S
C83 H103 0.930 . S
C84 N80 1.362 . S
C84 C81 1.431 . S
C84 C94 1.476 . S
H85 C79 0.929 . S
C86 O77 1.250 . S
C86 O78 1.258 1_554 S
O87 Mn72 2.162 . S
O87 C75 1.281 . S
O88 Mn72 2.297 . S
O88 C75 1.236 . S
N89 Mn73 2.282 . S
N89 C90 1.328 . S
N89 C94 1.318 . S
C90 N89 1.328 . S
C90 C91 1.457 . S
C90 H95 0.929 . S
C91 C90 1.457 . S
C91 C92 1.291 . S
C91 H104 0.931 . S
C92 C91 1.291 . S
C92 C93 1.373 . S
C92 H105 0.929 . S
C93 C92 1.373 . S
C93 C94 1.396 . S
C93 C100 1.403 . S
C94 C84 1.476 . S
C94 N89 1.318 . S
C94 C93 1.396 . S
H95 C90 0.929 . S
O96 Mn72 2.385 . S
O96 C74 1.234 . S
O97 Mn72 2.209 . S
O97 Mn73 2.215 1_554 S
O97 C74 1.283 . S
O98 Mn72 2.094 1_556 S
O98 C76 1.240 . S
O99 Mn73 2.117 . S
O99 C76 1.264 . S
C100 C93 1.403 . S
C100 C101 1.399 . S
C100 H106 0.929 1_655 S
C101 C81 1.449 . S
C101 C100 1.399 . S
C101 H107 0.946 . S
H102 C82 0.931 . S
H103 C83 0.930 . S
H104 C91 0.931 . S
H105 C92 0.929 . S
H106 C100 0.929 1_455 S
H107 C101 0.946 . S
Mn108 O113 2.095 . S
Mn108 O123 2.162 . S
Mn108 O124 2.297 . S
Mn108 O132 2.385 . S
Mn108 O133 2.209 . S
Mn108 O134 2.094 . S
Mn109 O114 2.121 . S
Mn109 N116 2.257 . S
Mn109 N125 2.282 . S
Mn109 O133 2.215 . S
Mn109 O135 2.117 . S
C110 O132 1.234 . S
C110 O133 1.283 . S
C111 O123 1.281 . S
C111 O124 1.236 . S
C112 O134 1.240 . S
C112 O135 1.264 . S
O113 Mn108 2.095 . S
O113 C122 1.250 . S
O114 Mn109 2.121 . S
O114 C122 1.258 . S
C115 N116 1.326 . S
C115 C119 1.460 . S
C115 H121 0.929 . S
N116 Mn109 2.257 . S
N116 C115 1.326 . S
N116 C120 1.362 . S
C117 C118 1.258 . S
C117 C120 1.431 . S
C117 C137 1.449 . S
C118 C117 1.258 . S
C118 C119 1.477 . S
C118 H138 0.931 . S
C119 C115 1.460 . S
C119 C118 1.477 . S
C119 H139 0.930 . S
C120 N116 1.362 . S
C120 C117 1.431 . S
C120 C130 1.476 . S
H121 C115 0.929 . S
C122 O113 1.250 . S
C122 O114 1.258 . S
O123 Mn108 2.162 . S
O123 C111 1.281 . S
O124 Mn108 2.297 . S
O124 C111 1.236 . S
N125 Mn109 2.282 . S
N125 C126 1.328 . S
N125 C130 1.318 . S
C126 N125 1.328 . S
C126 C127 1.457 . S
C126 H131 0.929 . S
C127 C126 1.457 . S
C127 C128 1.291 . S
C127 H140 0.931 . S
C128 C127 1.291 . S
C128 C129 1.373 . S
C128 H141 0.929 . S
C129 C128 1.373 . S
C129 C130 1.396 . S
C129 C136 1.403 . S
C130 C120 1.476 . S
C130 N125 1.318 . S
C130 C129 1.396 . S
H131 C126 0.929 . S
O132 Mn108 2.385 . S
O132 C110 1.234 . S
O133 Mn108 2.209 . S
O133 Mn109 2.215 . S
O133 C110 1.283 . S
O134 Mn108 2.094 . S
O134 C112 1.240 . S
O135 Mn109 2.117 . S
O135 C112 1.264 . S
C136 C129 1.403 . S
C136 C137 1.399 . S
C136 H142 0.929 . S
C137 C117 1.449 . S
C137 C136 1.399 . S
C137 H143 0.930 . S
H138 C118 0.931 . S
H139 C119 0.930 . S
H140 C127 0.931 . S
H141 C128 0.929 . S
H142 C136 0.929 . S
H143 C137 0.930 . S
Mn144 O149 2.095 . S
Mn144 O159 2.162 . S
Mn144 O160 2.297 . S
Mn144 O168 2.385 . S
Mn144 O169 2.209 . S
Mn144 O170 2.094 . S
Mn145 O150 2.121 . S
Mn145 N152 2.257 . S
Mn145 N161 2.282 . S
Mn145 O169 2.215 . S
Mn145 O171 2.117 . S
C146 O168 1.234 . S
C146 O169 1.283 . S
C147 O159 1.281 . S
C147 O160 1.236 . S
C148 O170 1.240 . S
C148 O171 1.264 . S
O149 Mn144 2.095 . S
O149 C158 1.250 . S
O150 Mn145 2.121 . S
O150 C158 1.258 . S
C151 N152 1.326 . S
C151 C155 1.460 . S
C151 H157 0.929 . S
N152 Mn145 2.257 . S
N152 C151 1.326 . S
N152 C156 1.362 . S
C153 C154 1.258 . S
C153 C156 1.431 . S
C153 C173 1.449 . S
C154 C153 1.258 . S
C154 C155 1.477 . S
C154 H174 0.931 . S
C155 C151 1.460 . S
C155 C154 1.477 . S
C155 H175 0.930 . S
C156 N152 1.362 . S
C156 C153 1.431 . S
C156 C166 1.476 . S
H157 C151 0.929 . S
C158 O149 1.250 . S
C158 O150 1.258 . S
O159 Mn144 2.162 . S
O159 C147 1.281 . S
O160 Mn144 2.297 . S
O160 C147 1.236 . S
N161 Mn145 2.282 . S
N161 C162 1.328 . S
N161 C166 1.318 . S
C162 N161 1.328 . S
C162 C163 1.457 . S
C162 H167 0.929 . S
C163 C162 1.457 . S
C163 C164 1.291 . S
C163 H176 0.931 . S
C164 C163 1.291 . S
C164 C165 1.373 . S
C164 H177 0.929 . S
C165 C164 1.373 . S
C165 C166 1.396 . S
C165 C172 1.403 . S
C166 C156 1.476 . S
C166 N161 1.318 . S
C166 C165 1.396 . S
H167 C162 0.929 . S
O168 Mn144 2.385 . S
O168 C146 1.234 . S
O169 Mn144 2.209 . S
O169 Mn145 2.215 . S
O169 C146 1.283 . S
O170 Mn144 2.094 . S
O170 C148 1.240 . S
O171 Mn145 2.117 . S
O171 C148 1.264 . S
C172 C165 1.403 . S
C172 C173 1.399 . S
C172 H178 0.929 1_455 S
C173 C153 1.449 . S
C173 C172 1.399 . S
C173 H179 0.930 . S
H174 C154 0.931 . S
H175 C155 0.930 . S
H176 C163 0.931 . S
H177 C164 0.929 . S
H178 C172 0.929 1_655 S
H179 C173 0.930 . S
Mn180 O185 2.095 . S
Mn180 O195 2.162 . S
Mn180 O196 2.297 . S
Mn180 O204 2.385 1_554 S
Mn180 O205 2.209 1_554 S
Mn180 O206 2.094 . S
Mn181 O186 2.121 . S
Mn181 N188 2.257 1_554 S
Mn181 N197 2.282 1_554 S
Mn181 O205 2.215 1_554 S
Mn181 O207 2.117 . S
C182 O204 1.234 . S
C182 O205 1.283 . S
C183 O195 1.281 . S
C183 O196 1.236 . S
C184 O206 1.240 . S
C184 O207 1.264 . S
O185 Mn180 2.095 . S
O185 C194 1.250 . S
O186 Mn181 2.121 . S
O186 C194 1.258 . S
C187 N188 1.326 1_554 S
C187 C191 1.465 . S
C187 H193 0.929 . S
N188 Mn181 2.257 1_556 S
N188 C187 1.326 1_556 S
N188 C192 1.362 . S
C189 C190 1.258 . S
C189 C192 1.431 . S
C189 C209 1.449 . S
C190 C189 1.258 . S
C190 C191 1.462 1_556 S
C190 H210 0.931 . S
C191 C187 1.465 . S
C191 C190 1.462 1_554 S
C191 H211 0.940 . S
C192 N188 1.362 . S
C192 C189 1.431 . S
C192 C202 1.476 . S
H193 C187 0.929 . S
C194 O185 1.250 . S
C194 O186 1.258 . S
O195 Mn180 2.162 . S
O195 C183 1.281 . S
O196 Mn180 2.297 . S
O196 C183 1.236 . S
N197 Mn181 2.282 1_556 S
N197 C198 1.328 . S
N197 C202 1.318 . S
C198 N197 1.328 . S
C198 C199 1.457 . S
C198 H203 0.929 . S
C199 C198 1.457 . S
C199 C200 1.291 . S
C199 H212 0.931 . S
C200 C199 1.291 . S
C200 C201 1.373 . S
C200 H213 0.929 . S
C201 C200 1.373 . S
C201 C202 1.396 . S
C201 C208 1.403 . S
C202 C192 1.476 . S
C202 N197 1.318 . S
C202 C201 1.396 . S
H203 C198 0.929 . S
O204 Mn180 2.385 1_556 S
O204 C182 1.234 . S
O205 Mn180 2.209 1_556 S
O205 Mn181 2.215 1_556 S
O205 C182 1.283 . S
O206 Mn180 2.094 . S
O206 C184 1.240 . S
O207 Mn181 2.117 . S
O207 C184 1.264 . S
C208 C201 1.403 . S
C208 C209 1.399 . S
C208 H214 0.929 . S
C209 C189 1.449 . S
C209 C208 1.399 . S
C209 H215 0.930 . S
H210 C190 0.931 . S
H211 C191 0.940 . S
H212 C199 0.931 . S
H213 C200 0.929 . S
H214 C208 0.929 . S
H215 C209 0.930 . S
Mn216 O221 2.095 . S
Mn216 O231 2.162 . S
Mn216 O232 2.297 . S
Mn216 O240 2.385 . S
Mn216 O241 2.209 . S
Mn216 O242 2.094 . S
Mn217 O222 2.121 . S
Mn217 N224 2.257 . S
Mn217 N233 2.282 . S
Mn217 O241 2.215 . S
Mn217 O243 2.117 . S
C218 O240 1.234 . S
C218 O241 1.283 . S
C219 O231 1.281 . S
C219 O232 1.236 . S
C220 O242 1.240 . S
C220 O243 1.264 . S
O221 Mn216 2.095 . S
O221 C230 1.250 . S
O222 Mn217 2.121 . S
O222 C230 1.258 . S
C223 N224 1.326 . S
C223 C227 1.460 . S
C223 H229 0.929 . S
N224 Mn217 2.257 . S
N224 C223 1.326 . S
N224 C228 1.362 . S
C225 C226 1.258 . S
C225 C228 1.431 . S
C225 C245 1.449 . S
C226 C225 1.258 . S
C226 C227 1.477 . S
C226 H246 0.931 . S
C227 C223 1.460 . S
C227 C226 1.477 . S
C227 H247 0.930 . S
C228 N224 1.362 . S
C228 C225 1.431 . S
C228 C238 1.476 . S
H229 C223 0.929 . S
C230 O221 1.250 . S
C230 O222 1.258 . S
O231 Mn216 2.162 . S
O231 C219 1.281 . S
O232 Mn216 2.297 . S
O232 C219 1.236 . S
N233 Mn217 2.282 . S
N233 C234 1.328 . S
N233 C238 1.318 . S
C234 N233 1.328 . S
C234 C235 1.457 . S
C234 H239 0.929 . S
C235 C234 1.457 . S
C235 C236 1.291 . S
C235 H248 0.931 . S
C236 C235 1.291 . S
C236 C237 1.373 . S
C236 H249 0.929 . S
C237 C236 1.373 . S
C237 C238 1.396 . S
C237 C244 1.403 . S
C238 C228 1.476 . S
C238 N233 1.318 . S
C238 C237 1.396 . S
H239 C234 0.929 . S
O240 Mn216 2.385 . S
O240 C218 1.234 . S
O241 Mn216 2.209 . S
O241 Mn217 2.215 . S
O241 C218 1.283 . S
O242 Mn216 2.094 . S
O242 C220 1.240 . S
O243 Mn217 2.117 . S
O243 C220 1.264 . S
C244 C237 1.403 . S
C244 C245 1.399 . S
C244 H250 0.929 1_655 S
C245 C225 1.449 . S
C245 C244 1.399 . S
C245 H251 0.930 . S
H246 C226 0.931 . S
H247 C227 0.930 . S
H248 C235 0.931 . S
H249 C236 0.929 . S
H250 C244 0.929 1_455 S
H251 C245 0.930 . S
Mn252 O257 2.095 . S
Mn252 O267 2.162 . S
Mn252 O268 2.297 . S
Mn252 O276 2.385 1_554 S
Mn252 O277 2.209 1_554 S
Mn252 O278 2.094 . S
Mn253 O258 2.121 . S
Mn253 N260 2.257 1_554 S
Mn253 N269 2.282 1_554 S
Mn253 O277 2.215 1_554 S
Mn253 O279 2.117 . S
C254 O276 1.234 . S
C254 O277 1.283 . S
C255 O267 1.281 . S
C255 O268 1.236 . S
C256 O278 1.240 . S
C256 O279 1.264 . S
O257 Mn252 2.095 . S
O257 C266 1.250 . S
O258 Mn253 2.121 . S
O258 C266 1.258 . S
C259 N260 1.326 1_554 S
C259 C263 1.465 . S
C259 H265 0.929 . S
N260 Mn253 2.257 1_556 S
N260 C259 1.326 1_556 S
N260 C264 1.362 . S
C261 C262 1.258 . S
C261 C264 1.431 . S
C261 C281 1.449 . S
C262 C261 1.258 . S
C262 C263 1.462 1_556 S
C262 H282 0.931 . S
C263 C259 1.465 . S
C263 C262 1.462 1_554 S
C263 H283 0.940 . S
C264 N260 1.362 . S
C264 C261 1.431 . S
C264 C274 1.476 . S
H265 C259 0.929 . S
C266 O257 1.250 . S
C266 O258 1.258 . S
O267 Mn252 2.162 . S
O267 C255 1.281 . S
O268 Mn252 2.297 . S
O268 C255 1.236 . S
N269 Mn253 2.282 1_556 S
N269 C270 1.328 . S
N269 C274 1.318 . S
C270 N269 1.328 . S
C270 C271 1.457 . S
C270 H275 0.929 . S
C271 C270 1.457 . S
C271 C272 1.291 . S
C271 H284 0.931 . S
C272 C271 1.291 . S
C272 C273 1.373 . S
C272 H285 0.929 . S
C273 C272 1.373 . S
C273 C274 1.396 . S
C273 C280 1.403 . S
C274 C264 1.476 . S
C274 N269 1.318 . S
C274 C273 1.396 . S
H275 C270 0.929 . S
O276 Mn252 2.385 1_556 S
O276 C254 1.234 . S
O277 Mn252 2.209 1_556 S
O277 Mn253 2.215 1_556 S
O277 C254 1.283 . S
O278 Mn252 2.094 . S
O278 C256 1.240 . S
O279 Mn253 2.117 . S
O279 C256 1.264 . S
C280 C273 1.403 . S
C280 C281 1.399 . S
C280 H286 0.929 . S
C281 C261 1.449 . S
C281 C280 1.399 . S
C281 H287 0.930 . S
H282 C262 0.931 . S
H283 C263 0.940 . S
H284 C271 0.931 . S
H285 C272 0.929 . S
H286 C280 0.929 . S
H287 C281 0.930 . S
C288 C289 1.391 . S
C288 C290 1.394 . S
C288 H304 0.931 . S
C289 C288 1.391 . S
C289 C293 1.376 . S
C290 C288 1.394 . S
C290 C291 1.369 . S
C290 C294 1.531 . S
C291 C290 1.369 . S
C291 C292 1.410 . S
C291 C299 1.503 . S
C292 C291 1.410 . S
C292 C293 1.392 . S
C292 C295 1.511 . S
C293 C289 1.376 . S
C293 C292 1.392 . S
C293 H305 0.929 . S
C294 C290 1.531 . S
C294 H306 0.960 . S
C294 H307 0.962 . S
C294 H308 0.960 . S
C295 C292 1.511 . S
C295 H309 0.961 . S
C295 H310 0.961 . S
C295 H311 0.961 . S
C296 C297 1.370 . S
C296 C298 1.363 . S
C296 H312 0.931 . S
C297 C296 1.370 . S
C297 C301 1.408 . S
C298 C296 1.363 . S
C298 C299 1.370 . S
C298 C302 1.524 . S
C299 C291 1.503 . S
C299 C298 1.370 . S
C299 C300 1.403 . S
C300 C299 1.403 . S
C300 C301 1.404 . S
C300 C303 1.539 . S
C301 C297 1.408 . S
C301 C300 1.404 . S
C301 H313 0.930 . S
C302 C298 1.524 . S
C302 H314 0.956 . S
C302 H315 0.961 . S
C302 H316 0.961 . S
C303 C300 1.539 . S
C303 H317 0.958 . S
C303 H318 0.961 . S
C303 H319 0.960 . S
H304 C288 0.931 . S
H305 C293 0.929 . S
H306 C294 0.960 . S
H307 C294 0.962 . S
H308 C294 0.960 . S
H309 C295 0.961 . S
H310 C295 0.961 . S
H311 C295 0.961 . S
H312 C296 0.931 . S
H313 C301 0.930 . S
H314 C302 0.956 . S
H315 C302 0.961 . S
H316 C302 0.961 . S
H317 C303 0.958 . S
H318 C303 0.961 . S
H319 C303 0.960 . S
C320 C321 1.391 . S
C320 C322 1.394 . S
C320 H336 0.931 . S
C321 C320 1.391 . S
C321 C325 1.376 . S
C322 C320 1.394 . S
C322 C323 1.369 . S
C322 C326 1.531 . S
C323 C322 1.369 . S
C323 C324 1.410 . S
C323 C331 1.503 . S
C324 C323 1.410 . S
C324 C325 1.392 . S
C324 C327 1.511 . S
C325 C321 1.376 . S
C325 C324 1.392 . S
C325 H337 0.929 . S
C326 C322 1.531 . S
C326 H338 0.960 . S
C326 H339 0.962 . S
C326 H340 0.960 . S
C327 C324 1.511 . S
C327 H341 0.961 . S
C327 H342 0.961 . S
C327 H343 0.961 . S
C328 C329 1.370 . S
C328 C330 1.363 . S
C328 H344 0.931 . S
C329 C328 1.370 . S
C329 C333 1.408 . S
C330 C328 1.363 . S
C330 C331 1.370 . S
C330 C334 1.524 . S
C331 C323 1.503 . S
C331 C330 1.370 . S
C331 C332 1.403 . S
C332 C331 1.403 . S
C332 C333 1.404 . S
C332 C335 1.539 . S
C333 C329 1.408 . S
C333 C332 1.404 . S
C333 H345 0.930 . S
C334 C330 1.524 . S
C334 H346 0.956 . S
C334 H347 0.961 . S
C334 H348 0.961 . S
C335 C332 1.539 . S
C335 H349 0.958 . S
C335 H350 0.961 . S
C335 H351 0.960 . S
H336 C320 0.931 . S
H337 C325 0.929 . S
H338 C326 0.960 . S
H339 C326 0.962 . S
H340 C326 0.960 . S
H341 C327 0.961 . S
H342 C327 0.961 . S
H343 C327 0.961 . S
H344 C328 0.931 . S
H345 C333 0.930 . S
H346 C334 0.956 . S
H347 C334 0.961 . S
H348 C334 0.961 . S
H349 C335 0.958 . S
H350 C335 0.961 . S
H351 C335 0.960 . S
C352 C353 1.391 . S
C352 C354 1.394 . S
C352 H368 0.931 . S
C353 C352 1.391 . S
C353 C357 1.376 . S
C354 C352 1.394 . S
C354 C355 1.369 . S
C354 C358 1.531 . S
C355 C354 1.369 . S
C355 C356 1.410 . S
C355 C363 1.503 . S
C356 C355 1.410 . S
C356 C357 1.392 . S
C356 C359 1.511 . S
C357 C353 1.376 . S
C357 C356 1.392 . S
C357 H369 0.929 . S
C358 C354 1.531 . S
C358 H370 0.960 . S
C358 H371 0.962 . S
C358 H372 0.960 . S
C359 C356 1.511 . S
C359 H373 0.961 . S
C359 H374 0.961 . S
C359 H375 0.961 . S
C360 C361 1.370 . S
C360 C362 1.363 . S
C360 H376 0.931 . S
C361 C360 1.370 . S
C361 C365 1.408 . S
C362 C360 1.363 . S
C362 C363 1.370 . S
C362 C366 1.524 . S
C363 C355 1.503 . S
C363 C362 1.370 . S
C363 C364 1.403 . S
C364 C363 1.403 . S
C364 C365 1.404 . S
C364 C367 1.539 . S
C365 C361 1.408 . S
C365 C364 1.404 . S
C365 H377 0.930 . S
C366 C362 1.524 . S
C366 H378 0.956 . S
C366 H379 0.961 . S
C366 H380 0.961 . S
C367 C364 1.539 . S
C367 H381 0.958 . S
C367 H382 0.961 . S
C367 H383 0.960 . S
H368 C352 0.931 . S
H369 C357 0.929 . S
H370 C358 0.960 . S
H371 C358 0.962 . S
H372 C358 0.960 . S
H373 C359 0.961 . S
H374 C359 0.961 . S
H375 C359 0.961 . S
H376 C360 0.931 . S
H377 C365 0.930 . S
H378 C366 0.956 . S
H379 C366 0.961 . S
H380 C366 0.961 . S
H381 C367 0.958 . S
H382 C367 0.961 . S
H383 C367 0.960 . S
C384 C385 1.391 . S
C384 C386 1.394 . S
C384 H400 0.931 . S
C385 C384 1.391 . S
C385 C389 1.376 . S
C386 C384 1.394 . S
C386 C387 1.369 . S
C386 C390 1.531 . S
C387 C386 1.369 . S
C387 C388 1.410 . S
C387 C395 1.503 . S
C388 C387 1.410 . S
C388 C389 1.392 . S
C388 C391 1.511 . S
C389 C385 1.376 . S
C389 C388 1.392 . S
C389 H401 0.929 . S
C390 C386 1.531 . S
C390 H402 0.960 . S
C390 H403 0.962 . S
C390 H404 0.960 . S
C391 C388 1.511 . S
C391 H405 0.961 . S
C391 H406 0.961 . S
C391 H407 0.961 . S
C392 C393 1.370 . S
C392 C394 1.363 . S
C392 H408 0.931 . S
C393 C392 1.370 . S
C393 C397 1.408 . S
C394 C392 1.363 . S
C394 C395 1.370 . S
C394 C398 1.524 . S
C395 C387 1.503 . S
C395 C394 1.370 . S
C395 C396 1.403 . S
C396 C395 1.403 . S
C396 C397 1.404 . S
C396 C399 1.539 . S
C397 C393 1.408 . S
C397 C396 1.404 . S
C397 H409 0.930 . S
C398 C394 1.524 . S
C398 H410 0.956 . S
C398 H411 0.961 . S
C398 H412 0.961 . S
C399 C396 1.539 . S
C399 H413 0.958 . S
C399 H414 0.961 . S
C399 H415 0.960 . S
H400 C384 0.931 . S
H401 C389 0.929 . S
H402 C390 0.960 . S
H403 C390 0.962 . S
H404 C390 0.960 . S
H405 C391 0.961 . S
H406 C391 0.961 . S
H407 C391 0.961 . S
H408 C392 0.931 . S
H409 C397 0.930 . S
H410 C398 0.956 . S
H411 C398 0.961 . S
H412 C398 0.961 . S
H413 C399 0.958 . S
H414 C399 0.961 . S
H415 C399 0.960 . S
C416 C417 1.391 . S
C416 C418 1.394 . S
C416 H432 0.931 . S
C417 C416 1.391 . S
C417 C421 1.376 . S
C418 C416 1.394 . S
C418 C419 1.369 . S
C418 C422 1.531 . S
C419 C418 1.369 . S
C419 C420 1.410 . S
C419 C427 1.503 . S
C420 C419 1.410 . S
C420 C421 1.392 . S
C420 C423 1.511 . S
C421 C417 1.376 . S
C421 C420 1.392 . S
C421 H433 0.929 . S
C422 C418 1.531 . S
C422 H434 0.960 . S
C422 H435 0.962 . S
C422 H436 0.960 . S
C423 C420 1.511 . S
C423 H437 0.961 . S
C423 H438 0.961 . S
C423 H439 0.961 . S
C424 C425 1.370 . S
C424 C426 1.363 . S
C424 H440 0.931 . S
C425 C424 1.370 . S
C425 C429 1.408 . S
C426 C424 1.363 . S
C426 C427 1.370 . S
C426 C430 1.524 . S
C427 C419 1.503 . S
C427 C426 1.370 . S
C427 C428 1.403 . S
C428 C427 1.403 . S
C428 C429 1.404 . S
C428 C431 1.539 . S
C429 C425 1.408 . S
C429 C428 1.404 . S
C429 H441 0.930 . S
C430 C426 1.524 . S
C430 H442 0.956 . S
C430 H443 0.961 . S
C430 H444 0.961 . S
C431 C428 1.539 . S
C431 H445 0.958 . S
C431 H446 0.961 . S
C431 H447 0.960 . S
H432 C416 0.931 . S
H433 C421 0.929 . S
H434 C422 0.960 . S
H435 C422 0.962 . S
H436 C422 0.960 . S
H437 C423 0.961 . S
H438 C423 0.961 . S
H439 C423 0.961 . S
H440 C424 0.931 . S
H441 C429 0.930 . S
H442 C430 0.956 . S
H443 C430 0.961 . S
H444 C430 0.961 . S
H445 C431 0.958 . S
H446 C431 0.961 . S
H447 C431 0.960 . S
C448 C449 1.391 . S
C448 C450 1.394 . S
C448 H464 0.931 . S
C449 C448 1.391 . S
C449 C453 1.376 . S
C450 C448 1.394 . S
C450 C451 1.369 . S
C450 C454 1.531 . S
C451 C450 1.369 . S
C451 C452 1.410 . S
C451 C459 1.503 . S
C452 C451 1.410 . S
C452 C453 1.392 . S
C452 C455 1.511 . S
C453 C449 1.376 . S
C453 C452 1.392 . S
C453 H465 0.929 . S
C454 C450 1.531 . S
C454 H466 0.960 . S
C454 H467 0.962 . S
C454 H468 0.960 . S
C455 C452 1.511 . S
C455 H469 0.961 . S
C455 H470 0.961 . S
C455 H471 0.961 . S
C456 C457 1.370 . S
C456 C458 1.363 . S
C456 H472 0.931 . S
C457 C456 1.370 . S
C457 C461 1.408 . S
C458 C456 1.363 . S
C458 C459 1.370 . S
C458 C462 1.524 . S
C459 C451 1.503 . S
C459 C458 1.370 . S
C459 C460 1.403 . S
C460 C459 1.403 . S
C460 C461 1.404 . S
C460 C463 1.539 . S
C461 C457 1.408 . S
C461 C460 1.404 . S
C461 H473 0.930 . S
C462 C458 1.524 . S
C462 H474 0.956 . S
C462 H475 0.961 . S
C462 H476 0.961 . S
C463 C460 1.539 . S
C463 H477 0.958 . S
C463 H478 0.961 . S
C463 H479 0.960 . S
H464 C448 0.931 . S
H465 C453 0.929 . S
H466 C454 0.960 . S
H467 C454 0.962 . S
H468 C454 0.960 . S
H469 C455 0.961 . S
H470 C455 0.961 . S
H471 C455 0.961 . S
H472 C456 0.931 . S
H473 C461 0.930 . S
H474 C462 0.956 . S
H475 C462 0.961 . S
H476 C462 0.961 . S
H477 C463 0.958 . S
H478 C463 0.961 . S
H479 C463 0.960 . S
C480 C481 1.391 . S
C480 C482 1.394 . S
C480 H496 0.931 . S
C481 C480 1.391 . S
C481 C485 1.376 . S
C482 C480 1.394 . S
C482 C483 1.369 . S
C482 C486 1.531 . S
C483 C482 1.369 . S
C483 C484 1.410 . S
C483 C491 1.503 . S
C484 C483 1.410 . S
C484 C485 1.392 . S
C484 C487 1.511 . S
C485 C481 1.376 . S
C485 C484 1.392 . S
C485 H497 0.929 . S
C486 C482 1.531 . S
C486 H498 0.960 . S
C486 H499 0.962 . S
C486 H500 0.960 . S
C487 C484 1.511 . S
C487 H501 0.961 . S
C487 H502 0.961 . S
C487 H503 0.961 . S
C488 C489 1.370 . S
C488 C490 1.363 . S
C488 H504 0.931 . S
C489 C488 1.370 . S
C489 C493 1.408 . S
C490 C488 1.363 . S
C490 C491 1.370 . S
C490 C494 1.524 . S
C491 C483 1.503 . S
C491 C490 1.370 . S
C491 C492 1.403 . S
C492 C491 1.403 . S
C492 C493 1.404 . S
C492 C495 1.539 . S
C493 C489 1.408 . S
C493 C492 1.404 . S
C493 H505 0.930 . S
C494 C490 1.524 . S
C494 H506 0.956 . S
C494 H507 0.961 . S
C494 H508 0.961 . S
C495 C492 1.539 . S
C495 H509 0.958 . S
C495 H510 0.961 . S
C495 H511 0.960 . S
H496 C480 0.931 . S
H497 C485 0.929 . S
H498 C486 0.960 . S
H499 C486 0.962 . S
H500 C486 0.960 . S
H501 C487 0.961 . S
H502 C487 0.961 . S
H503 C487 0.961 . S
H504 C488 0.931 . S
H505 C493 0.930 . S
H506 C494 0.956 . S
H507 C494 0.961 . S
H508 C494 0.961 . S
H509 C495 0.958 . S
H510 C495 0.961 . S
H511 C495 0.960 . S
C512 C513 1.391 . S
C512 C514 1.394 . S
C512 H528 0.931 . S
C513 C512 1.391 . S
C513 C517 1.376 . S
C514 C512 1.394 . S
C514 C515 1.369 . S
C514 C518 1.531 . S
C515 C514 1.369 . S
C515 C516 1.410 . S
C515 C523 1.503 . S
C516 C515 1.410 . S
C516 C517 1.392 . S
C516 C519 1.511 . S
C517 C513 1.376 . S
C517 C516 1.392 . S
C517 H529 0.929 . S
C518 C514 1.531 . S
C518 H530 0.960 . S
C518 H531 0.962 . S
C518 H532 0.960 . S
C519 C516 1.511 . S
C519 H533 0.961 . S
C519 H534 0.961 . S
C519 H535 0.961 . S
C520 C521 1.370 . S
C520 C522 1.363 . S
C520 H536 0.931 . S
C521 C520 1.370 . S
C521 C525 1.408 . S
C522 C520 1.363 . S
C522 C523 1.370 . S
C522 C526 1.524 . S
C523 C515 1.503 . S
C523 C522 1.370 . S
C523 C524 1.403 . S
C524 C523 1.403 . S
C524 C525 1.404 . S
C524 C527 1.539 . S
C525 C521 1.408 . S
C525 C524 1.404 . S
C525 H537 0.930 . S
C526 C522 1.524 . S
C526 H538 0.956 . S
C526 H539 0.961 . S
C526 H540 0.961 . S
C527 C524 1.539 . S
C527 H541 0.958 . S
C527 H542 0.961 . S
C527 H543 0.960 . S
H528 C512 0.931 . S
H529 C517 0.929 . S
H530 C518 0.960 . S
H531 C518 0.962 . S
H532 C518 0.960 . S
H533 C519 0.961 . S
H534 C519 0.961 . S
H535 C519 0.961 . S
H536 C520 0.931 . S
H537 C525 0.930 . S
H538 C526 0.956 . S
H539 C526 0.961 . S
H540 C526 0.961 . S
H541 C527 0.958 . S
H542 C527 0.961 . S
H543 C527 0.960 . S
C544 C545 1.391 . S
C544 C546 1.394 . S
C544 H560 0.931 . S
C545 C544 1.391 . S
C545 C549 1.376 . S
C546 C544 1.394 . S
C546 C547 1.369 . S
C546 C550 1.531 1_655 S
C547 C546 1.369 . S
C547 C548 1.410 . S
C547 C555 1.503 1_655 S
C548 C547 1.410 . S
C548 C549 1.392 . S
C548 C551 1.511 1_554 S
C549 C545 1.376 . S
C549 C548 1.392 . S
C549 H561 0.929 1_554 S
C550 C546 1.531 1_455 S
C550 H562 0.960 . S
C550 H563 0.962 . S
C550 H564 0.960 1_455 S
C551 C548 1.511 1_556 S
C551 H565 0.961 . S
C551 H566 0.961 . S
C551 H567 0.961 1_556 S
C552 C553 1.370 1_556 S
C552 C554 1.363 . S
C552 H568 0.931 . S
C553 C552 1.370 1_554 S
C553 C557 1.408 . S
C554 C552 1.363 . S
C554 C555 1.370 1_556 S
C554 C558 1.524 . S
C555 C547 1.503 1_455 S
C555 C554 1.370 1_554 S
C555 C556 1.403 . S
C556 C555 1.403 . S
C556 C557 1.404 . S
C556 C559 1.539 . S
C557 C553 1.408 . S
C557 C556 1.404 . S
C557 H569 0.930 . S
C558 C554 1.524 . S
C558 H570 0.956 . S
C558 H571 0.961 1_455 S
C558 H572 0.961 . S
C559 C556 1.539 . S
C559 H573 0.958 . S
C559 H574 0.961 . S
C559 H575 0.960 1_455 S
H560 C544 0.931 . S
H561 C549 0.929 1_556 S
H562 C550 0.960 . S
H563 C550 0.962 . S
H564 C550 0.960 1_655 S
H565 C551 0.961 . S
H566 C551 0.961 . S
H567 C551 0.961 1_554 S
H568 C552 0.931 . S
H569 C557 0.930 . S
H570 C558 0.956 . S
H571 C558 0.961 1_655 S
H572 C558 0.961 . S
H573 C559 0.958 . S
H574 C559 0.961 . S
H575 C559 0.960 1_655 S
C576 C577 1.391 . S
C576 C578 1.394 . S
C576 H592 0.931 . S
C577 C576 1.391 . S
C577 C581 1.376 . S
C578 C576 1.394 . S
C578 C579 1.369 . S
C578 C582 1.531 . S
C579 C578 1.369 . S
C579 C580 1.410 . S
C579 C587 1.503 1_565 S
C580 C579 1.410 . S
C580 C581 1.392 . S
C580 C583 1.511 . S
C581 C577 1.376 . S
C581 C580 1.392 . S
C581 H593 0.929 . S
C582 C578 1.531 . S
C582 H594 0.960 1_565 S
C582 H595 0.962 1_565 S
C582 H596 0.960 . S
C583 C580 1.511 . S
C583 H597 0.961 . S
C583 H598 0.961 . S
C583 H599 0.961 . S
C584 C585 1.370 . S
C584 C586 1.363 . S
C584 H600 0.931 . S
C585 C584 1.370 . S
C585 C589 1.408 . S
C586 C584 1.363 . S
C586 C587 1.370 . S
C586 C590 1.524 . S
C587 C579 1.503 1_545 S
C587 C586 1.370 . S
C587 C588 1.403 . S
C588 C587 1.403 . S
C588 C589 1.404 . S
C588 C591 1.539 1_545 S
C589 C585 1.408 . S
C589 C588 1.404 . S
C589 H601 0.930 . S
C590 C586 1.524 . S
C590 H602 0.956 . S
C590 H603 0.961 . S
C590 H604 0.961 . S
C591 C588 1.539 1_565 S
C591 H605 0.958 . S
C591 H606 0.961 1_565 S
C591 H607 0.960 . S
H592 C576 0.931 . S
H593 C581 0.929 . S
H594 C582 0.960 1_545 S
H595 C582 0.962 1_545 S
H596 C582 0.960 . S
H597 C583 0.961 . S
H598 C583 0.961 . S
H599 C583 0.961 . S
H600 C584 0.931 . S
H601 C589 0.930 . S
H602 C590 0.956 . S
H603 C590 0.961 . S
H604 C590 0.961 . S
H605 C591 0.958 . S
H606 C591 0.961 1_545 S
H607 C591 0.960 . S
C608 C609 1.391 . S
C608 C610 1.394 . S
C608 H624 0.931 . S
C609 C608 1.391 . S
C609 C613 1.376 . S
C610 C608 1.394 . S
C610 C611 1.369 . S
C610 C614 1.531 1_455 S
C611 C610 1.369 . S
C611 C612 1.410 . S
C611 C619 1.503 1_455 S
C612 C611 1.410 . S
C612 C613 1.392 . S
C612 C615 1.511 . S
C613 C609 1.376 . S
C613 C612 1.392 . S
C613 H625 0.929 . S
C614 C610 1.531 1_655 S
C614 H626 0.960 . S
C614 H627 0.962 . S
C614 H628 0.960 1_655 S
C615 C612 1.511 . S
C615 H629 0.961 . S
C615 H630 0.961 . S
C615 H631 0.961 . S
C616 C617 1.370 . S
C616 C618 1.363 . S
C616 H632 0.931 . S
C617 C616 1.370 . S
C617 C621 1.408 . S
C618 C616 1.363 . S
C618 C619 1.370 . S
C618 C622 1.524 . S
C619 C611 1.503 1_655 S
C619 C618 1.370 . S
C619 C620 1.403 . S
C620 C619 1.403 . S
C620 C621 1.404 . S
C620 C623 1.539 . S
C621 C617 1.408 . S
C621 C620 1.404 . S
C621 H633 0.930 . S
C622 C618 1.524 . S
C622 H634 0.955 1_655 S
C622 H635 0.961 1_655 S
C622 H636 0.961 . S
C623 C620 1.539 . S
C623 H637 0.958 . S
C623 H638 0.961 . S
C623 H639 0.960 . S
H624 C608 0.931 . S
H625 C613 0.929 . S
H626 C614 0.960 . S
H627 C614 0.962 . S
H628 C614 0.960 1_455 S
H629 C615 0.961 . S
H630 C615 0.961 . S
H631 C615 0.961 . S
H632 C616 0.931 . S
H633 C621 0.930 . S
H634 C622 0.955 1_455 S
H635 C622 0.961 1_455 S
H636 C622 0.961 . S
H637 C623 0.958 . S
H638 C623 0.961 . S
H639 C623 0.960 . S
C640 C641 1.391 . S
C640 C642 1.394 . S
C640 H656 0.931 . S
C641 C640 1.391 . S
C641 C645 1.376 1_554 S
C642 C640 1.394 . S
C642 C643 1.369 . S
C642 C646 1.531 . S
C643 C642 1.369 . S
C643 C644 1.410 1_554 S
C643 C651 1.503 1_565 S
C644 C643 1.410 1_556 S
C644 C645 1.392 . S
C644 C647 1.511 1_565 S
C645 C641 1.376 1_556 S
C645 C644 1.392 . S
C645 H657 0.929 . S
C646 C642 1.531 . S
C646 H658 0.960 . S
C646 H659 0.962 . S
C646 H660 0.960 . S
C647 C644 1.511 1_545 S
C647 H661 0.961 1_545 S
C647 H662 0.961 . S
C647 H663 0.961 . S
C648 C649 1.370 1_556 S
C648 C650 1.363 . S
C648 H664 0.931 . S
C649 C648 1.370 1_554 S
C649 C653 1.408 . S
C650 C648 1.363 . S
C650 C651 1.370 1_556 S
C650 C654 1.524 1_545 S
C651 C643 1.503 1_545 S
C651 C650 1.370 1_554 S
C651 C652 1.403 . S
C652 C651 1.403 . S
C652 C653 1.404 . S
C652 C655 1.539 . S
C653 C649 1.408 . S
C653 C652 1.404 . S
C653 H665 0.930 . S
C654 C650 1.524 1_565 S
C654 H666 0.956 . S
C654 H667 0.961 . S
C654 H668 0.961 1_565 S
C655 C652 1.539 . S
C655 H669 0.958 . S
C655 H670 0.961 . S
C655 H671 0.960 . S
H656 C640 0.931 . S
H657 C645 0.929 . S
H658 C646 0.960 . S
H659 C646 0.962 . S
H660 C646 0.960 . S
H661 C647 0.961 1_565 S
H662 C647 0.961 . S
H663 C647 0.961 . S
H664 C648 0.931 . S
H665 C653 0.930 . S
H666 C654 0.956 . S
H667 C654 0.961 . S
H668 C654 0.961 1_545 S
H669 C655 0.958 . S
H670 C655 0.961 . S
H671 C655 0.960 . S
C672 C673 1.391 . S
C672 C674 1.394 . S
C672 H688 0.931 . S
C673 C672 1.391 . S
C673 C677 1.376 . S
C674 C672 1.394 . S
C674 C675 1.369 . S
C674 C678 1.531 . S
C675 C674 1.369 . S
C675 C676 1.410 . S
C675 C683 1.503 . S
C676 C675 1.410 . S
C676 C677 1.392 . S
C676 C679 1.511 . S
C677 C673 1.376 . S
C677 C676 1.392 . S
C677 H689 0.929 . S
C678 C674 1.531 . S
C678 H690 0.960 . S
C678 H691 0.962 . S
C678 H692 0.960 . S
C679 C676 1.511 . S
C679 H693 0.961 1_554 S
C679 H694 0.961 1_554 S
C679 H695 0.961 . S
C680 C681 1.370 1_556 S
C680 C682 1.363 . S
C680 H696 0.931 . S
C681 C680 1.370 1_554 S
C681 C685 1.408 . S
C682 C680 1.363 . S
C682 C683 1.370 1_556 S
C682 C686 1.524 . S
C683 C675 1.503 . S
C683 C682 1.370 1_554 S
C683 C684 1.403 . S
C684 C683 1.403 . S
C684 C685 1.404 . S
C684 C687 1.539 . S
C685 C681 1.408 . S
C685 C684 1.404 . S
C685 H697 0.930 . S
C686 C682 1.524 . S
C686 H698 0.956 . S
C686 H699 0.961 . S
C686 H700 0.961 . S
C687 C684 1.539 . S
C687 H701 0.958 . S
C687 H702 0.961 . S
C687 H703 0.960 . S
H688 C672 0.931 . S
H689 C677 0.929 . S
H690 C678 0.960 . S
H691 C678 0.962 . S
H692 C678 0.960 . S
H693 C679 0.961 1_556 S
H694 C679 0.961 1_556 S
H695 C679 0.961 . S
H696 C680 0.931 . S
H697 C685 0.930 . S
H698 C686 0.956 . S
H699 C686 0.961 . S
H700 C686 0.961 . S
H701 C687 0.958 . S
H702 C687 0.961 . S
H703 C687 0.960 . S
C704 C705 1.391 . S
C704 C706 1.394 . S
C704 H720 0.931 . S
C705 C704 1.391 . S
C705 C709 1.376 . S
C706 C704 1.394 . S
C706 C707 1.369 . S
C706 C710 1.531 . S
C707 C706 1.369 . S
C707 C708 1.410 . S
C707 C715 1.503 . S
C708 C707 1.410 . S
C708 C709 1.392 . S
C708 C711 1.511 . S
C709 C705 1.376 . S
C709 C708 1.392 . S
C709 H721 0.929 . S
C710 C706 1.531 . S
C710 H722 0.960 . S
C710 H723 0.962 . S
C710 H724 0.960 . S
C711 C708 1.511 . S
C711 H725 0.961 . S
C711 H726 0.961 . S
C711 H727 0.961 . S
C712 C713 1.370 . S
C712 C714 1.363 . S
C712 H728 0.931 . S
C713 C712 1.370 . S
C713 C717 1.408 . S
C714 C712 1.363 . S
C714 C715 1.370 . S
C714 C718 1.524 . S
C715 C707 1.503 . S
C715 C714 1.370 . S
C715 C716 1.403 . S
C716 C715 1.403 . S
C716 C717 1.404 . S
C716 C719 1.539 . S
C717 C713 1.408 . S
C717 C716 1.404 . S
C717 H729 0.930 . S
C718 C714 1.524 . S
C718 H730 0.956 . S
C718 H731 0.961 . S
C718 H732 0.961 . S
C719 C716 1.539 . S
C719 H733 0.958 . S
C719 H734 0.961 . S
C719 H735 0.960 . S
H720 C704 0.931 . S
H721 C709 0.929 . S
H722 C710 0.960 . S
H723 C710 0.962 . S
H724 C710 0.960 . S
H725 C711 0.961 . S
H726 C711 0.961 . S
H727 C711 0.961 . S
H728 C712 0.931 . S
H729 C717 0.930 . S
H730 C718 0.956 . S
H731 C718 0.961 . S
H732 C718 0.961 . S
H733 C719 0.958 . S
H734 C719 0.961 . S
H735 C719 0.960 . S
C736 C737 1.391 . S
C736 C738 1.394 . S
C736 H752 0.931 . S
C737 C736 1.391 . S
C737 C741 1.376 1_554 S
C738 C736 1.394 . S
C738 C739 1.369 . S
C738 C742 1.531 . S
C739 C738 1.369 . S
C739 C740 1.410 1_554 S
C739 C747 1.503 . S
C740 C739 1.410 1_556 S
C740 C741 1.392 . S
C740 C743 1.511 . S
C741 C737 1.376 1_556 S
C741 C740 1.392 . S
C741 H753 0.929 . S
C742 C738 1.531 . S
C742 H754 0.960 . S
C742 H755 0.962 . S
C742 H756 0.960 . S
C743 C740 1.511 . S
C743 H757 0.961 . S
C743 H758 0.961 . S
C743 H759 0.961 . S
C744 C745 1.370 . S
C744 C746 1.363 . S
C744 H760 0.931 . S
C745 C744 1.370 . S
C745 C749 1.408 1_554 S
C746 C744 1.363 . S
C746 C747 1.370 . S
C746 C750 1.524 . S
C747 C739 1.503 . S
C747 C746 1.370 . S
C747 C748 1.403 1_554 S
C748 C747 1.403 1_556 S
C748 C749 1.404 . S
C748 C751 1.539 . S
C749 C745 1.408 1_556 S
C749 C748 1.404 . S
C749 H761 0.930 . S
C750 C746 1.524 . S
C750 H762 0.956 . S
C750 H763 0.961 . S
C750 H764 0.961 . S
C751 C748 1.539 . S
C751 H765 0.958 . S
C751 H766 0.961 . S
C751 H767 0.960 . S
H752 C736 0.931 . S
H753 C741 0.929 . S
H754 C742 0.960 . S
H755 C742 0.962 . S
H756 C742 0.960 . S
H757 C743 0.961 . S
H758 C743 0.961 . S
H759 C743 0.961 . S
H760 C744 0.931 . S
H761 C749 0.930 . S
H762 C750 0.956 . S
H763 C750 0.961 . S
H764 C750 0.961 . S
H765 C751 0.958 . S
H766 C751 0.961 . S
H767 C751 0.960 . S
C768 C769 1.391 . S
C768 C770 1.394 . S
C768 H784 0.931 . S
C769 C768 1.391 . S
C769 C773 1.376 . S
C770 C768 1.394 . S
C770 C771 1.369 . S
C770 C774 1.531 . S
C771 C770 1.369 . S
C771 C772 1.410 . S
C771 C779 1.503 . S
C772 C771 1.410 . S
C772 C773 1.392 . S
C772 C775 1.511 . S
C773 C769 1.376 . S
C773 C772 1.392 . S
C773 H785 0.929 . S
C774 C770 1.531 . S
C774 H786 0.960 . S
C774 H787 0.962 . S
C774 H788 0.960 . S
C775 C772 1.511 . S
C775 H789 0.961 . S
C775 H790 0.961 . S
C775 H791 0.961 . S
C776 C777 1.370 . S
C776 C778 1.363 . S
C776 H792 0.931 . S
C777 C776 1.370 . S
C777 C781 1.408 . S
C778 C776 1.363 . S
C778 C779 1.370 . S
C778 C782 1.524 . S
C779 C771 1.503 . S
C779 C778 1.370 . S
C779 C780 1.403 . S
C780 C779 1.403 . S
C780 C781 1.404 . S
C780 C783 1.539 . S
C781 C777 1.408 . S
C781 C780 1.404 . S
C781 H793 0.930 . S
C782 C778 1.524 . S
C782 H794 0.956 . S
C782 H795 0.961 . S
C782 H796 0.961 . S
C783 C780 1.539 . S
C783 H797 0.958 . S
C783 H798 0.961 . S
C783 H799 0.960 . S
H784 C768 0.931 . S
H785 C773 0.929 . S
H786 C774 0.960 . S
H787 C774 0.962 . S
H788 C774 0.960 . S
H789 C775 0.961 . S
H790 C775 0.961 . S
H791 C775 0.961 . S
H792 C776 0.931 . S
H793 C781 0.930 . S
H794 C782 0.956 . S
H795 C782 0.961 . S
H796 C782 0.961 . S
H797 C783 0.958 . S
H798 C783 0.961 . S
H799 C783 0.960 . S
C289 C3 1.014 . S
C297 C147 1.048 . S
C321 C38 1.327 . S
C329 C182 1.381 . S
C353 C219 1.053 . S
C361 C75 1.024 . S
C385 C254 1.336 . S
C393 C110 1.375 . S
C417 C220 0.991 . S
C425 C76 1.041 . S
C449 C266 1.514 . S
C457 C122 1.482 . S
C481 C4 1.082 . S
C489 C148 1.047 . S
C513 C50 1.503 . S
C521 C194 1.477 . S
C545 C74 1.316 . S
C553 C2 1.337 . S
C577 C111 1.324 . S
C585 C39 1.360 . S
C609 C146 1.341 . S
C617 C218 1.327 . S
C641 C255 1.362 . S
C649 C183 1.342 . S
C673 C14 1.281 . S
C681 C184 1.271 . S
C705 C230 1.235 . S
C713 C40 1.257 . S
C737 C86 1.220 . S
C745 C256 1.265 . S
C769 C112 1.263 . S
C777 C158 1.244 . S
