# Generated by pormake.
# Topology smm, (6)-cn, num edge types: 1
# Building blocks:
#     Node 0, Type 0, BuildingBlock: BETFAJ_clean_sbu_0, # of connection points: 6
#     Node 1, Type 0, BuildingBlock: BETFAJ_clean_sbu_0, # of connection points: 6
#     Node 2, Type 0, BuildingBlock: BETFAJ_clean_sbu_0, # of connection points: 6
#     Node 3, Type 0, BuildingBlock: BETFAJ_clean_sbu_0, # of connection points: 6
#     Node 4, Type 0, BuildingBlock: BETFAJ_clean_sbu_0, # of connection points: 6
#     Node 5, Type 0, BuildingBlock: BETFAJ_clean_sbu_0, # of connection points: 6
#     Node 6, Type 0, BuildingBlock: BETFAJ_clean_sbu_0, # of connection points: 6
#     Node 7, Type 0, BuildingBlock: BETFAJ_clean_sbu_0, # of connection points: 6
#     Node 8, Type 0, BuildingBlock: BETFAJ_clean_sbu_0, # of connection points: 6
#     Edge 9, Type (0, 0), BuildingBlock: EZIPEK_clean_linker_0, # of connection points: 2
#     Edge 10, Type (0, 0), BuildingBlock: EZIPEK_clean_linker_0, # of connection points: 2
#     Edge 11, Type (0, 0), BuildingBlock: EZIPEK_clean_linker_0, # of connection points: 2
#     Edge 12, Type (0, 0), BuildingBlock: EZIPEK_clean_linker_0, # of connection points: 2
#     Edge 13, Type (0, 0), BuildingBlock: EZIPEK_clean_linker_0, # of connection points: 2
#     Edge 14, Type (0, 0), BuildingBlock: EZIPEK_clean_linker_0, # of connection points: 2
#     Edge 15, Type (0, 0), BuildingBlock: EZIPEK_clean_linker_0, # of connection points: 2
#     Edge 16, Type (0, 0), BuildingBlock: EZIPEK_clean_linker_0, # of connection points: 2
#     Edge 17, Type (0, 0), BuildingBlock: EZIPEK_clean_linker_0, # of connection points: 2
#     Edge 18, Type (0, 0), BuildingBlock: EZIPEK_clean_linker_0, # of connection points: 2
#     Edge 19, Type (0, 0), BuildingBlock: EZIPEK_clean_linker_0, # of connection points: 2
#     Edge 20, Type (0, 0), BuildingBlock: EZIPEK_clean_linker_0, # of connection points: 2
#     Edge 21, Type (0, 0), BuildingBlock: EZIPEK_clean_linker_0, # of connection points: 2
#     Edge 22, Type (0, 0), BuildingBlock: EZIPEK_clean_linker_0, # of connection points: 2
#     Edge 23, Type (0, 0), BuildingBlock: EZIPEK_clean_linker_0, # of connection points: 2
#     Edge 24, Type (0, 0), BuildingBlock: EZIPEK_clean_linker_0, # of connection points: 2
#     Edge 25, Type (0, 0), BuildingBlock: EZIPEK_clean_linker_0, # of connection points: 2
#     Edge 26, Type (0, 0), BuildingBlock: EZIPEK_clean_linker_0, # of connection points: 2
#     Edge 27, Type (0, 0), BuildingBlock: EZIPEK_clean_linker_0, # of connection points: 2
#     Edge 28, Type (0, 0), BuildingBlock: EZIPEK_clean_linker_0, # of connection points: 2
#     Edge 29, Type (0, 0), BuildingBlock: EZIPEK_clean_linker_0, # of connection points: 2
#     Edge 30, Type (0, 0), BuildingBlock: EZIPEK_clean_linker_0, # of connection points: 2
#     Edge 31, Type (0, 0), BuildingBlock: EZIPEK_clean_linker_0, # of connection points: 2
#     Edge 32, Type (0, 0), BuildingBlock: EZIPEK_clean_linker_0, # of connection points: 2
#     Edge 33, Type (0, 0), BuildingBlock: EZIPEK_clean_linker_0, # of connection points: 2
#     Edge 34, Type (0, 0), BuildingBlock: EZIPEK_clean_linker_0, # of connection points: 2
#     Edge 35, Type (0, 0), BuildingBlock: EZIPEK_clean_linker_0, # of connection points: 2
# Relax obj value: 0.035
# Max RMSD: 0.113
# Mean RMSD: 0.113
data_MOF--net-smm--node1-BETFAJ_clean_sbu_0--edge1-EZIPEK_clean_linker_0
_symmetry_space_group_name_H-M    P1
_symmetry_Int_Tables_number       1
_symmetry_cell_setting            triclinic
loop_
_symmetry_equiv_pos_as_xyz
'x, y, z'
_cell_length_a     57.338222
_cell_length_b     57.739906
_cell_length_c     10.381806
_cell_angle_alpha  89.854481
_cell_angle_beta   90.15744
_cell_angle_gamma 119.91023
loop_
_atom_site_label
_atom_site_type_symbol
_atom_site_fract_x
_atom_site_fract_y
_atom_site_fract_z
_atom_type_partial_charge
Sm0 Sm 0.06586 0.22122 0.02411 0.0
Sm1 Sm 1.01359 0.16575 0.04756 0.0
C2 C 0.10372 0.26953 0.94569 0.0
C3 C 0.11075 0.29733 0.90931 0.0
C4 C 0.11374 0.30489 0.77865 0.0
C5 C 0.12406 0.33171 0.74306 0.0
C6 C 0.13173 0.35167 0.83709 0.0
C7 C 0.12804 0.34419 0.96759 0.0
C8 C 0.11776 0.31733 0.00338 0.0
C9 C 0.05512 0.20111 0.26814 0.0
C10 C 1.0064 0.2174 0.07837 0.0
C11 C 0.97648 0.11611 0.10976 0.0
C12 C 0.9672 0.08743 0.08221 0.0
C13 C 0.98009 0.07436 0.13657 0.0
C14 C 0.96949 0.04676 0.11945 0.0
C15 C 0.94578 0.03164 0.04785 0.0
C16 C 0.9332 0.04472 -0.00857 0.0
C17 C 0.94372 0.07224 0.00878 0.0
C18 C 1.02682 0.18666 0.80374 0.0
C19 C 0.07261 0.16803 0.01242 0.0
O20 O 0.08886 0.24994 0.86669 0.0
O21 O 0.0991 0.26238 0.06691 0.0
O22 O 0.03761 0.19936 0.18833 0.0
O23 O 0.07935 0.21541 0.22286 0.0
O24 O 1.03124 0.23166 0.03203 0.0
O25 O 0.99579 0.19183 0.10725 0.0
O26 O 0.9989 0.13007 0.17479 0.0
O27 O 0.97309 0.13007 0.0195 0.0
O28 O 0.04285 0.18738 0.88811 0.0
O29 O 1.00211 0.17232 0.84263 0.0
O30 O 0.04622 0.15375 0.02648 0.0
O31 O 0.08529 0.1945 0.00438 0.0
H32 H 0.10892 0.29016 0.70363 0.0
H33 H 0.12673 0.33701 0.64186 0.0
H34 H 0.13381 0.35924 0.04176 0.0
H35 H 0.11607 0.31239 0.10489 0.0
H36 H 0.99807 0.08529 0.19457 0.0
H37 H 0.97949 0.03709 0.16416 0.0
H38 H 0.91487 0.03347 0.93617 0.0
H39 H 0.93309 0.08154 0.96688 0.0
Sm40 Sm 0.84457 0.85553 0.97573 0.0
Sm41 Sm 0.90035 0.85985 0.02202 0.0
C42 C 0.79828 0.84428 0.86392 0.0
C43 C 0.76959 0.82396 0.83832 0.0
C44 C 0.76196 0.81202 0.71579 0.0
C45 C 0.73476 0.79532 0.68421 0.0
C46 C 0.71452 0.79029 0.77414 0.0
C47 C 0.72202 0.80169 0.89744 0.0
C48 C 0.74925 0.81842 0.92915 0.0
C49 C 0.85982 0.86098 0.22917 0.0
C50 C 0.84727 0.79991 0.03918 0.0
C51 C 0.94884 0.87052 0.10327 0.0
C52 C 0.97807 0.8891 0.08843 0.0
C53 C 0.99619 0.88132 0.13433 0.0
C54 C 1.02401 0.89836 0.12267 0.0
C55 C 0.03427 0.92358 0.06474 0.0
C56 C 1.01616 0.93142 0.01823 0.0
C57 C 0.98824 0.91429 0.02993 0.0
C58 C 0.88528 0.85739 0.76735 0.0
C59 C 0.89632 0.9154 0.00206 0.0
O60 O 0.81698 0.84126 0.80699 0.0
O61 O 0.80533 0.8548 0.97927 0.0
O62 O 0.86376 0.84716 0.147 0.0
O63 O 0.84495 0.87019 0.18224 0.0
O64 O 0.8331 0.81078 -0.00457 0.0
O65 O 0.87329 0.81478 0.06471 0.0
O66 O 0.93455 0.87949 0.16008 0.0
O67 O 0.93624 0.85471 0.00643 0.0
O68 O 0.88169 0.87003 0.85596 0.0
O69 O 0.89954 0.8472 0.80908 0.0
O70 O 0.90972 0.90377 0.04592 0.0
O71 O 0.87187 0.90123 0.95209 0.0
H72 H 0.77702 0.81614 0.64284 0.0
H73 H 0.72945 0.78674 0.58864 0.0
H74 H 0.70673 0.79806 0.96835 0.0
H75 H 0.75428 0.82748 0.02377 0.0
H76 H 0.98879 0.86198 0.17969 0.0
H77 H 0.03757 0.89192 0.15923 0.0
H78 H 1.02365 0.9508 0.97331 0.0
H79 H 0.97463 0.92069 -0.00629 0.0
Sm80 Sm 0.21301 1.00229 0.00565 0.0
Sm81 Sm 0.20408 0.05168 0.02724 0.0
C82 C 0.21649 0.96053 0.92341 0.0
C83 C 0.23574 0.95073 0.90577 0.0
C84 C 0.26273 0.96797 0.87091 0.0
C85 C 0.27997 0.95776 0.84625 0.0
C86 C 0.27049 0.93018 0.85608 0.0
C87 C 0.2437 0.91309 0.89311 0.0
C88 C 0.2265 0.92327 0.91759 0.0
C89 C 0.21495 0.02046 0.24984 0.0
C90 C 0.26652 0.06046 0.04215 0.0
C91 C 0.19963 0.0946 0.07275 0.0
C92 C 0.17947 0.10345 0.05481 0.0
C93 C 0.15582 0.09266 0.12796 0.0
C94 C 0.13686 0.10086 0.10753 0.0
C95 C 0.13991 0.11905 0.00781 0.0
C96 C 0.16538 0.13205 0.94659 0.0
C97 C 0.18444 0.12392 0.96718 0.0
C98 C 0.19952 0.03053 0.78728 0.0
C99 C 0.15055 0.99307 0.02877 0.0
O100 O 0.21937 0.98007 0.8486 0.0
O101 O 0.20966 0.96257 0.04129 0.0
O102 O 0.19901 1.01927 0.1632 0.0
O103 O 0.2284 1.00895 0.21334 0.0
O104 O 0.25743 0.03523 0.0103 0.0
O105 O 0.25043 0.07057 0.05841 0.0
O106 O 0.19465 0.07617 0.15955 0.0
O107 O 0.21048 0.09151 0.96819 0.0
O108 O 0.21721 0.03418 0.86929 0.0
O109 O 0.18459 0.04006 0.82715 0.0
O110 O 0.16048 1.0185 0.05872 0.0
O111 O 0.1661 0.983 -0.00397 0.0
H112 H 0.27036 0.98924 0.86115 0.0
H113 H 0.3006 0.97129 0.81823 0.0
H114 H 0.23601 0.89179 0.90154 0.0
H115 H 0.20579 0.90959 0.94389 0.0
H116 H 0.15197 0.07799 0.20234 0.0
H117 H 0.12017 0.09302 0.17365 0.0
H118 H 0.17135 0.14903 0.88404 0.0
H119 H 0.20328 0.1339 0.91496 0.0
Sm120 Sm 0.72937 0.55644 0.32042 0.0
Sm121 Sm 0.68118 0.4973 0.34707 0.0
C122 C 0.77024 0.60248 0.23698 0.0
C123 C 0.77824 0.63099 0.21271 0.0
C124 C 0.77159 0.63907 0.0973 0.0
C125 C 0.78002 0.66609 0.07399 0.0
C126 C 0.79426 0.68612 0.16799 0.0
C127 C 0.80342 0.67787 0.27648 0.0
C128 C 0.79503 0.65091 0.2999 0.0
C129 C 0.71195 0.54007 0.56635 0.0
C130 C 0.67002 0.54919 0.35629 0.0
C131 C 0.63947 0.44951 0.40321 0.0
C132 C 0.63027 0.42068 0.38686 0.0
C133 C 0.61286 0.40229 0.4785 0.0
C134 C 0.60341 0.37487 0.4644 0.0
C135 C 0.61112 0.36524 0.35805 0.0
C136 C 0.62866 0.38362 0.26638 0.0
C137 C 0.63818 0.41112 0.28066 0.0
C138 C 0.70079 0.51388 0.1046 0.0
C139 C 0.74156 0.50551 0.34123 0.0
O140 O 0.75231 0.58422 0.16038 0.0
O141 O 0.76753 0.59447 0.35699 0.0
O142 O 0.71387 0.52578 0.48027 0.0
O143 O 0.72174 0.56464 0.52754 0.0
O144 O 0.69487 0.56569 0.31793 0.0
O145 O 0.66102 0.5235 0.37982 0.0
O146 O 0.6595 0.46302 0.48282 0.0
O147 O 0.64087 0.46308 0.29946 0.0
O148 O 0.69723 0.52767 0.18741 0.0
O149 O 0.69133 0.4895 0.1441 0.0
O150 O 0.71599 0.48879 0.36744 0.0
O151 O 0.75083 0.53112 0.31362 0.0
H152 H 0.7603 0.62457 0.02309 0.0
H153 H 0.77585 0.67082 0.9793 0.0
H154 H 0.81781 0.69206 0.34361 0.0
H155 H 0.80225 0.64573 0.38569 0.0
H156 H 0.6065 0.40915 0.56114 0.0
H157 H 0.59006 0.36111 0.53667 0.0
H158 H 0.63505 0.37668 0.1842 0.0
H159 H 0.65168 0.42489 0.20885 0.0
Sm160 Sm 0.51149 0.18992 0.33891 0.0
Sm161 Sm 0.5664 0.19199 0.3727 0.0
C162 C 0.46472 0.18119 0.2423 0.0
C163 C 0.43608 0.1613 0.21419 0.0
C164 C 0.42876 0.1431 0.11118 0.0
C165 C 0.40157 0.12637 0.07864 0.0
C166 C 0.3812 0.12766 0.1477 0.0
C167 C 0.38845 0.14562 0.25098 0.0
C168 C 0.41555 0.16229 0.28357 0.0
C169 C 0.52926 0.19725 0.58736 0.0
C170 C 0.51266 0.13328 0.4008 0.0
C171 C 0.61513 0.20236 0.44713 0.0
C172 C 0.64416 0.22182 0.43198 0.0
C173 C 0.66286 0.21885 0.50737 0.0
C174 C 0.69052 0.23654 0.49382 0.0
C175 C 0.70004 0.2576 0.40445 0.0
C176 C 0.68132 0.26072 0.32925 0.0
C177 C 0.65356 0.24295 0.34286 0.0
C178 C 0.54808 0.18738 0.12438 0.0
C179 C 0.5655 0.24934 0.34471 0.0
O180 O 0.48355 0.18066 0.17328 0.0
O181 O 0.47188 0.18792 0.36245 0.0
O182 O 0.53159 0.18205 0.50715 0.0
O183 O 0.515 0.20716 0.54074 0.0
O184 O 0.49893 0.14462 0.35632 0.0
O185 O 0.53877 0.14756 0.42488 0.0
O186 O 0.60063 0.21015 0.51143 0.0
O187 O 0.6025 0.18762 0.34706 0.0
O188 O 0.54691 0.20192 0.2106 0.0
O189 O 0.56119 0.17577 0.16434 0.0
O190 O 0.57953 0.2371 0.36461 0.0
O191 O 0.53918 0.23568 0.32348 0.0
H192 H 0.444 0.14201 0.05445 0.0
H193 H 0.39642 0.11255 -0.00094 0.0
H194 H 0.37307 0.14686 0.30592 0.0
H195 H 0.42048 0.17634 0.36196 0.0
H196 H 0.65606 0.2027 0.57666 0.0
H197 H 0.70455 0.23379 0.553 0.0
H198 H 0.68821 0.27688 0.26007 0.0
H199 H 0.63947 0.24562 0.28379 0.0
Sm200 Sm 0.87737 0.33489 0.33559 0.0
Sm201 Sm 0.87238 0.38668 0.37104 0.0
C202 C 0.88796 0.29841 0.23996 0.0
C203 C 0.90769 0.28895 0.22957 0.0
C204 C 0.93385 0.3054 0.18145 0.0
C205 C 0.95105 0.29503 0.16005 0.0
C206 C 0.9423 0.26799 0.18513 0.0
C207 C 0.9164 0.25171 0.23543 0.0
C208 C 0.89929 0.26209 0.25739 0.0
C209 C 0.8744 0.34834 0.58468 0.0
C210 C 0.93309 0.39494 0.35713 0.0
C211 C 0.86199 0.42465 0.44493 0.0
C212 C 0.84334 0.43516 0.42155 0.0
C213 C 0.82524 0.43303 0.51833 0.0
C214 C 0.8089 0.44452 0.50175 0.0
C215 C 0.81046 0.45854 0.38838 0.0
C216 C 0.82834 0.46056 0.29108 0.0
C217 C 0.84462 0.449 0.30737 0.0
C218 C 0.87464 0.37181 0.12249 0.0
C219 C 0.81663 0.32701 0.36567 0.0
O220 O 0.89324 0.32042 0.17932 0.0
O221 O 0.87575 0.29551 0.35024 0.0
O222 O 0.88693 0.36464 0.49551 0.0
O223 O 0.86713 0.32413 0.54804 0.0
O224 O 0.92179 0.36947 0.32315 0.0
O225 O 0.91808 0.40468 0.40131 0.0
O226 O 0.85255 0.40172 0.50515 0.0
O227 O 0.87905 0.42782 0.3536 0.0
O228 O 0.86209 0.3564 0.21379 0.0
O229 O 0.88336 0.39638 0.15708 0.0
O230 O 0.82805 0.35286 0.39136 0.0
O231 O 0.83085 0.31575 0.32892 0.0
H232 H 0.94082 0.32607 0.15755 0.0
H233 H 0.97098 0.30794 0.12144 0.0
H234 H 0.90926 0.23081 0.25557 0.0
H235 H 0.87916 0.2489 0.29315 0.0
H236 H 0.82401 0.4228 0.60787 0.0
H237 H 0.79525 0.44275 0.57803 0.0
H238 H 0.82987 0.47131 0.20297 0.0
H239 H 0.85845 0.45125 0.23112 0.0
Sm240 Sm 0.39676 0.88747 0.68788 0.0
Sm241 Sm 0.34578 0.83091 0.71573 0.0
C242 C 0.43318 0.93598 0.6039 0.0
C243 C 0.43973 0.96419 0.58121 0.0
C244 C 0.43572 0.97244 0.45995 0.0
C245 C 0.44424 0.99944 0.43477 0.0
C246 C 0.45596 1.01938 0.5317 0.0
C247 C 0.46212 1.01092 0.64916 0.0
C248 C 0.45364 0.98396 0.67437 0.0
C249 C 0.38683 0.86843 0.9339 0.0
C250 C 0.33623 0.88144 0.74454 0.0
C251 C 0.30962 0.78132 0.78438 0.0
C252 C 0.30094 0.75257 0.76616 0.0
C253 C 0.294 0.7358 0.87458 0.0
C254 C 0.28333 0.70817 0.86053 0.0
C255 C 0.27932 0.69667 0.73758 0.0
C256 C 0.2868 0.71345 0.62888 0.0
C257 C 0.29752 0.74115 0.64294 0.0
C258 C 0.35866 0.85092 0.47002 0.0
C259 C 0.40586 0.83554 0.6853 0.0
O260 O 0.41553 0.91716 0.52875 0.0
O261 O 0.4321 0.92787 0.72275 0.0
O262 O 0.36893 0.86548 0.85343 0.0
O263 O 0.41089 0.88364 0.88855 0.0
O264 O 0.36122 0.89661 0.70126 0.0
O265 O 0.32623 0.85579 0.7701 0.0
O266 O 0.33175 0.79615 0.84982 0.0
O267 O 0.30628 0.79411 0.68815 0.0
O268 O 0.37493 0.85269 0.55567 0.0
O269 O 0.33402 0.83598 0.5085 0.0
O270 O 0.37966 0.82041 0.70341 0.0
O271 O 0.41731 0.86177 0.66738 0.0
H272 H 0.42681 0.95813 0.38227 0.0
H273 H 0.44247 1.00425 0.33626 0.0
H274 H 0.47455 0.02496 0.72207 0.0
H275 H 0.45889 0.97877 0.76607 0.0
H276 H 0.29627 0.74402 0.9705 0.0
H277 H 0.27773 0.69566 0.94567 0.0
H278 H 0.2839 0.70503 0.53312 0.0
H279 H 0.30264 0.75351 0.55743 0.0
Sm280 Sm 0.17834 0.52038 0.66739 0.0
Sm281 Sm 0.23369 0.52519 0.71536 0.0
C282 C 0.13123 0.50966 0.56711 0.0
C283 C 0.10273 0.48942 0.53926 0.0
C284 C 0.09399 0.48466 0.41042 0.0
C285 C 0.06672 0.46835 0.38027 0.0
C286 C 0.0475 0.45643 0.47823 0.0
C287 C 0.05616 0.46039 0.60725 0.0
C288 C 0.08354 0.47683 0.63762 0.0
C289 C 0.19254 0.52368 0.92235 0.0
C290 C 0.18244 0.46508 0.7064 0.0
C291 C 0.28284 0.53692 0.79001 0.0
C292 C 0.31187 0.55645 0.76849 0.0
C293 C 0.32356 0.58341 0.80622 0.0
C294 C 0.35133 0.60091 0.79187 0.0
C295 C 0.36791 0.59183 0.73956 0.0
C296 C 0.35625 0.56508 0.7005 0.0
C297 C 0.32858 0.54758 0.7152 0.0
C298 C 0.21891 0.52225 0.46069 0.0
C299 C 0.22917 0.58034 0.6967 0.0
O300 O 0.1501 0.50862 0.50097 0.0
O301 O 0.13839 0.51772 0.68592 0.0
O302 O 0.19674 0.51059 0.83756 0.0
O303 O 0.17844 0.5338 0.87652 0.0
O304 O 0.1692 0.47633 0.65659 0.0
O305 O 0.20628 0.48033 0.76062 0.0
O306 O 0.2682 0.54488 0.85174 0.0
O307 O 0.26972 0.52039 0.69614 0.0
O308 O 0.2156 0.53562 0.54674 0.0
O309 O 0.23215 0.5112 0.50518 0.0
O310 O 0.24238 0.56878 0.74347 0.0
O311 O 0.20507 0.56605 0.6438 0.0
H312 H 0.1082 0.49426 0.33266 0.0
H313 H 0.06049 0.46556 0.28021 0.0
H314 H 0.04164 0.45135 0.68428 0.0
H315 H 0.08955 0.48018 0.7379 0.0
H316 H 0.31135 0.59094 0.84797 0.0
H317 H 0.35993 0.6215 0.82242 0.0
H318 H 0.36867 0.55767 0.65988 0.0
H319 H 0.32025 0.52692 0.68621 0.0
Sm320 Sm 0.54348 0.66856 0.62796 0.0
Sm321 Sm 0.53936 0.71901 0.66978 0.0
C322 C 0.55255 0.63136 0.52792 0.0
C323 C 0.57159 0.62116 0.50957 0.0
C324 C 0.59291 0.63306 0.42043 0.0
C325 C 0.60886 0.62149 0.39402 0.0
C326 C 0.60372 0.59768 0.45529 0.0
C327 C 0.58265 0.5859 0.54497 0.0
C328 C 0.56673 0.59746 0.57155 0.0
C329 C 0.54414 0.68185 0.883 0.0
C330 C 0.59993 0.72702 0.65603 0.0
C331 C 0.52958 0.75771 0.73989 0.0
C332 C 0.51128 0.7684 0.71426 0.0
C333 C 0.48373 0.75152 0.68915 0.0
C334 C 0.46664 0.76222 0.67338 0.0
C335 C 0.47683 0.78994 0.682 0.0
C336 C 0.50446 0.80682 0.70359 0.0
C337 C 0.52152 0.79613 0.71953 0.0
C338 C 0.53551 0.70342 0.41603 0.0
C339 C 0.48389 0.65968 0.68219 0.0
O340 O 0.55734 0.6532 0.4671 0.0
O341 O 0.54178 0.62914 0.64168 0.0
O342 O 0.55579 0.69815 0.79255 0.0
O343 O 0.5328 0.65745 0.84035 0.0
O344 O 0.5885 0.70205 0.61425 0.0
O345 O 0.58535 0.73762 0.69433 0.0
O346 O 0.51966 0.73472 0.79959 0.0
O347 O 0.54644 0.76046 0.64871 0.0
O348 O 0.52496 0.68812 0.51041 0.0
O349 O 0.54836 0.72802 0.45424 0.0
O350 O 0.49595 0.68511 0.71671 0.0
O351 O 0.49727 0.64899 0.62933 0.0
H352 H 0.59702 0.65108 0.36931 0.0
H353 H 0.62508 0.63096 0.32491 0.0
H354 H 0.57839 0.56759 0.59367 0.0
H355 H 0.55024 0.58754 0.63894 0.0
H356 H 0.47534 0.73007 0.68411 0.0
H357 H 0.44535 0.74885 0.65748 0.0
H358 H 0.51269 0.82821 0.71143 0.0
H359 H 0.54268 0.80953 0.7387 0.0
C360 C 0.17318 0.39647 0.79497 0.0
C361 C 0.1447 0.38048 0.7976 0.0
C362 C 0.14105 0.41753 0.70051 0.0
C363 C 0.16942 0.43481 0.71441 0.0
N364 N 0.21208 0.43613 0.71175 0.0
N365 N 0.10126 0.37654 0.76681 0.0
C366 C 0.18547 0.42303 0.74477 0.0
C367 C 0.12859 0.39125 0.75419 0.0
N368 N 0.18859 0.38643 0.84277 0.0
N369 N 0.12631 0.42475 0.62386 0.0
H370 H 0.09138 0.3571 0.80322 0.0
H371 H 0.0886 0.38443 0.75223 0.0
H372 H 0.13502 0.44078 0.56018 0.0
H373 H 0.10594 0.41229 0.60446 0.0
H374 H 0.20918 0.39808 0.85952 0.0
H375 H 0.1805 0.36678 0.87491 0.0
H376 H 0.22458 0.42795 0.72117 0.0
H377 H 0.22076 0.45361 0.65692 0.0
C378 C 0.67015 0.74708 0.78653 0.0
C379 C 0.68541 0.77353 0.73837 0.0
C380 C 0.64555 0.76768 0.61952 0.0
C381 C 0.62965 0.74235 0.67866 0.0
N382 N 0.626 0.71004 0.83768 0.0
N383 N 0.68693 0.81052 0.62265 0.0
C384 C 0.64175 0.73251 0.76681 0.0
C385 C 0.67292 0.78423 0.65818 0.0
N386 N 0.68288 0.73564 0.84913 0.0
N387 N 0.63469 0.7756 0.52351 0.0
H388 H 0.70697 0.82322 0.64837 0.0
H389 H 0.67815 0.82033 0.57664 0.0
H390 H 0.61485 0.76392 0.49218 0.0
H391 H 0.64591 0.79253 0.46712 0.0
H392 H 0.67338 0.71547 0.87384 0.0
H393 H 0.70357 0.74573 0.86629 0.0
H394 H 0.63334 0.7037 0.91373 0.0
H395 H 0.60513 0.69899 0.82915 0.0
C396 C 0.29888 0.91051 0.92898 0.0
C397 C 0.28837 0.91888 0.82658 0.0
C398 C 0.30998 0.90361 0.66965 0.0
C399 C 0.31924 0.89387 0.77225 0.0
N400 N 0.31757 0.88309 -0.00156 0.0
N401 N 0.28094 0.92076 0.5993 0.0
C402 C 0.31223 0.89586 0.90158 0.0
C403 C 0.2933 0.9149 0.69667 0.0
N404 N 0.2968 0.91731 0.0528 0.0
N405 N 0.31656 0.90137 0.54579 0.0
H406 H 0.26883 0.92922 0.61528 0.0
H407 H 0.28116 0.9158 0.50325 0.0
H408 H 0.3254 0.89002 0.5215 0.0
H409 H 0.31387 0.91112 0.46764 0.0
H410 H 0.30671 0.91459 0.1305 0.0
H411 H 0.28709 0.92793 0.07664 0.0
H412 H 0.31019 0.88119 0.09174 0.0
H413 H 0.32758 0.87245 -0.01587 0.0
C414 C 0.34051 0.11487 0.00511 0.0
C415 C 0.35211 0.10978 0.11523 0.0
C416 C 0.30731 0.07463 0.18316 0.0
C417 C 0.29596 0.07787 0.06735 0.0
N418 N 0.30219 0.09883 0.85974 0.0
N419 N 0.34731 0.08121 0.29481 0.0
C420 C 0.31272 0.09737 0.97576 0.0
C421 C 0.33571 0.08853 0.19979 0.0
N422 N 0.3558 0.13697 0.93125 0.0
N423 N 0.2909 0.05939 0.28079 0.0
H424 H 0.36806 0.09082 0.30979 0.0
H425 H 0.33662 0.06405 0.35053 0.0
H426 H 0.27009 0.05021 0.27503 0.0
H427 H 0.29787 0.05841 0.37228 0.0
H428 H 0.34792 0.14346 0.85829 0.0
H429 H 0.37615 0.15006 0.94922 0.0
H430 H 0.31384 0.11059 0.78335 0.0
H431 H 0.28191 0.08671 0.83638 0.0
C432 C 0.97122 0.24904 0.25972 0.0
C433 C 0.95989 0.25632 0.15661 0.0
C434 C 0.98069 0.23986 0.00126 0.0
C435 C 0.9903 0.23075 0.1049 0.0
N436 N 0.99031 0.2222 0.33293 0.0
N437 N 0.95052 0.25551 0.92966 0.0
C438 C 0.98425 0.23401 0.23418 0.0
C439 C 0.96391 0.25107 0.02725 0.0
N440 N 0.97028 0.25724 0.38209 0.0
N441 N 0.98714 0.23728 0.87756 0.0
H442 H 0.93805 0.26359 0.94466 0.0
H443 H 0.95008 0.24944 0.83498 0.0
H444 H 0.99674 0.22659 0.85402 0.0
H445 H 0.98397 0.24657 0.79878 0.0
H446 H 0.98075 0.25522 0.45938 0.0
H447 H 0.96101 0.26835 0.40441 0.0
H448 H 0.98368 0.22126 0.42709 0.0
H449 H 1.00015 0.21135 0.31963 0.0
C450 C 0.81281 0.75154 -0.00952 0.0
C451 C 0.8324 0.77076 0.07573 0.0
C452 C 0.817 0.73544 0.24119 0.0
C453 C 0.80234 0.71562 0.14708 0.0
N454 N 0.77064 0.71019 0.98112 0.0
N455 N 0.85294 0.77975 0.28896 0.0
C456 C 0.79566 0.72486 0.03367 0.0
C457 C 0.83459 0.76236 0.20265 0.0
N458 N 0.81083 0.75827 0.86649 0.0
N459 N 0.81026 0.7298 0.36797 0.0
H460 H 0.86478 0.80019 0.27394 0.0
H461 H 0.85717 0.77331 0.37534 0.0
H462 H 0.79369 0.71175 0.39676 0.0
H463 H 0.81819 0.74417 0.44053 0.0
H464 H 0.79862 0.74416 0.79819 0.0
H465 H 0.82311 0.77728 0.82895 0.0
H466 H 0.76375 0.71705 0.90518 0.0
H467 H 0.75552 0.69336 0.02778 0.0
C468 C 1.00249 0.45352 0.44436 0.0
C469 C 1.01828 0.44084 0.4436 0.0
C470 C 0.98064 0.40115 0.34389 0.0
C471 C 0.96355 0.41222 0.36213 0.0
N472 N 0.96313 0.45377 0.36111 0.0
N473 N 1.02174 0.40158 0.40451 0.0
C474 C 0.97577 0.43983 0.39391 0.0
C475 C 1.00715 0.41437 0.39657 0.0
N476 N 1.01291 0.47861 0.49476 0.0
N477 N 0.97297 0.37996 0.26288 0.0
H478 H 0.04131 0.4107 0.44104 0.0
H479 H 1.0136 0.38127 0.38582 0.0
H480 H 0.95659 0.37348 0.20086 0.0
H481 H 0.98526 0.37207 0.23945 0.0
H482 H 1.00137 0.48756 0.51334 0.0
H483 H 1.0327 0.48978 0.52734 0.0
H484 H 0.97172 0.47434 0.37238 0.0
H485 H 0.94592 0.44559 0.30361 0.0
C486 C 0.618 0.57179 0.30951 0.0
C487 C 0.62069 0.58525 0.428 0.0
C488 C 0.6526 0.5716 0.50448 0.0
C489 C 0.65204 0.56048 0.38177 0.0
N490 N 0.63646 0.55237 0.1621 0.0
N491 N 0.64422 0.60213 0.62906 0.0
C492 C 0.63537 0.56128 0.28257 0.0
C493 C 0.63903 0.5863 0.52292 0.0
N494 N 0.59821 0.56824 0.22472 0.0
N495 N 0.66544 0.56741 0.60508 0.0
H496 H 0.63484 0.61336 0.6458 0.0
H497 H 0.65959 0.6061 0.69437 0.0
H498 H 0.67512 0.55637 0.59579 0.0
H499 H 0.66416 0.57249 0.69996 0.0
H500 H 0.59327 0.55622 0.14322 0.0
H501 H 0.58519 0.57564 0.24111 0.0
H502 H 0.62714 0.55507 0.08185 0.0
H503 H 0.64824 0.54377 0.14046 0.0
C504 C 0.49645 0.09576 0.56647 0.0
C505 C 0.49743 0.10409 0.43627 0.0
C506 C 0.46175 0.05837 0.38405 0.0
C507 C 0.46493 0.04901 0.50598 0.0
N508 N 0.4681 0.06355 0.72545 0.0
N509 N 0.48299 0.09135 0.21663 0.0
C510 C 0.47764 0.06894 0.60236 0.0
C511 C 0.48048 0.08485 0.34406 0.0
N512 N 0.51328 0.11315 0.65735 0.0
N513 N 0.43843 0.04401 0.31665 0.0
H514 H 0.49808 0.10974 0.18283 0.0
H515 H 0.47239 0.07734 0.14491 0.0
H516 H 0.42187 0.02738 0.35702 0.0
H517 H 0.43415 0.05103 0.23228 0.0
H518 H 0.51501 0.10696 0.74961 0.0
H519 H 0.52668 0.13323 0.63933 0.0
H520 H 0.47467 0.07801 0.79755 0.0
H521 H 0.45073 0.0457 0.74907 0.0
C522 C 0.12091 0.14517 0.88252 0.0
C523 C 0.11817 0.12653 0.97941 0.0
C524 C 0.08091 0.12993 0.0728 0.0
C525 C 0.08775 0.15313 -0.00334 0.0
N526 N 0.11154 0.17962 0.80977 0.0
N527 N 0.07997 0.08786 0.06922 0.0
C528 C 0.10706 0.15992 0.89597 0.0
C529 C 0.09361 0.11475 0.04785 0.0
N530 N 0.13212 0.14482 0.76723 0.0
N531 N 0.06285 0.12227 0.17145 0.0
H532 H 0.08645 0.0754 0.0299 0.0
H533 H 0.06062 0.07783 0.10799 0.0
H534 H 0.05269 0.13219 0.19741 0.0
H535 H 0.05968 0.10691 0.23485 0.0
H536 H 0.13268 0.15604 0.68739 0.0
H537 H 0.13706 0.13013 0.74591 0.0
H538 H 0.12801 0.188 0.7478 0.0
H539 H 0.09906 0.18784 0.80075 0.0
C540 C 0.89612 0.95665 0.08507 0.0
C541 C 0.90903 0.94527 0.01272 0.0
C542 C 0.94526 0.99074 0.95662 0.0
C543 C 0.93336 1.00189 0.0365 0.0
N544 N 0.90026 0.99551 0.19603 0.0
N545 N 0.94843 0.95193 0.89604 0.0
C546 C 0.9095 0.98484 0.10563 0.0
C547 C 0.93441 0.96245 0.95392 0.0
N548 N 0.87108 0.94063 0.13545 0.0
N549 N 0.96638 1.00716 0.87905 0.0
H550 H 0.94099 0.93153 0.88524 0.0
H551 H 0.96837 0.9634 0.86673 0.0
H552 H 0.97492 0.02789 0.87865 0.0
H553 H 0.97398 1.0002 0.80729 0.0
H554 H 0.85919 0.94794 0.17297 0.0
H555 H 0.86132 0.91988 0.13358 0.0
H556 H 0.88493 0.98407 0.26086 0.0
H557 H 0.90952 1.01595 0.21468 0.0
C558 C 0.0793 0.95485 0.16626 0.0
C559 C 0.06407 0.94176 0.05454 0.0
C560 C 0.10531 0.96405 0.92398 0.0
C561 C 0.12083 0.97503 0.03744 0.0
N562 N 0.12316 0.97794 0.26921 0.0
N563 N 0.06301 0.93053 0.83026 0.0
C564 C 0.10795 0.96964 0.1594 0.0
C565 C 0.07721 0.94541 0.93419 0.0
N566 N 0.0663 0.95385 0.27816 0.0
N567 N 0.11715 0.97236 0.80605 0.0
H568 H 0.04242 0.91687 0.8336 0.0
H569 H 0.07198 0.93008 0.74393 0.0
H570 H 0.13742 0.98655 0.79508 0.0
H571 H 0.10646 0.96722 0.71971 0.0
H572 H 0.07602 0.96529 0.35899 0.0
H573 H 0.0454 0.94328 0.28692 0.0
H574 H 0.1152 0.97209 0.36134 0.0
H575 H 0.14413 0.98893 0.26819 0.0
C576 C 0.78138 0.50473 0.44112 0.0
C577 C 0.76061 0.49501 0.347 0.0
C578 C 0.77155 0.46045 0.28497 0.0
C579 C 0.79356 0.47141 0.3723 0.0
N580 N 0.82271 0.50715 0.51518 0.0
N581 N 0.73972 0.46743 0.16077 0.0
C582 C 0.79946 0.49452 0.44495 0.0
C583 C 0.75679 0.47394 0.26355 0.0
N584 N 0.7831 0.52278 0.53096 0.0
N585 N 0.76411 0.43663 0.22581 0.0
H586 H 0.7292 0.47738 0.14007 0.0
H587 H 0.7381 0.45414 0.08897 0.0
H588 H 0.77434 0.4261 0.23911 0.0
H589 H 0.74646 0.42616 0.17245 0.0
H590 H 0.7958 0.52829 0.61076 0.0
H591 H 0.77017 0.53059 0.53213 0.0
H592 H 0.82954 0.52564 0.559 0.0
H593 H 0.83645 0.50033 0.52019 0.0
C594 C 0.58104 0.32003 0.25584 0.0
C595 C 0.60141 0.33595 0.34597 0.0
C596 C 0.59992 0.29552 0.43295 0.0
C597 C 0.5799 0.27947 0.33984 0.0
N598 N 0.5591 0.27859 0.13585 0.0
N599 N 0.63508 0.3398 0.49681 0.0
C600 C 0.57267 0.29236 0.24346 0.0
C601 C 0.61233 0.32395 0.42714 0.0
N602 N 0.56911 0.33113 0.184 0.0
N603 N 0.60648 0.28396 0.53098 0.0
H604 H 0.64463 0.36062 0.49553 0.0
H605 H 0.64597 0.33252 0.54581 0.0
H606 H 0.5992 0.2636 0.53968 0.0
H607 H 0.61786 0.29456 0.61059 0.0
H608 H 0.5521 0.31985 0.12742 0.0
H609 H 0.57486 0.35132 0.18903 0.0
H610 H 0.55548 0.28758 0.05714 0.0
H611 H 0.55443 0.25896 0.11807 0.0
C612 C 0.74385 0.29538 0.48968 0.0
C613 C 0.72969 0.27642 0.3913 0.0
C614 C 0.77164 0.29406 0.26745 0.0
C615 C 0.78652 0.31033 0.37346 0.0
N616 N 0.78658 0.32447 0.59289 0.0
N617 N 0.73078 0.25511 0.19376 0.0
C618 C 0.77255 0.31057 0.48643 0.0
C619 C 0.74379 0.27502 0.28218 0.0
N620 N 0.7298 0.29943 0.58464 0.0
N621 N 0.7837 0.29794 0.14997 0.0
H622 H 0.7104 0.24091 0.20046 0.0
H623 H 0.74073 0.25134 0.12002 0.0
H624 H 0.80334 0.31317 0.13327 0.0
H625 H 0.77334 0.2884 0.06624 0.0
H626 H 0.73866 0.31501 0.65082 0.0
H627 H 0.70884 0.28873 0.59019 0.0
H628 H 0.77771 0.3226 0.68258 0.0
H629 H 0.80743 0.33632 0.59543 0.0
C630 C 0.44216 0.79786 0.78868 0.0
C631 C 0.45822 0.8011 0.67937 0.0
C632 C 0.43967 0.8265 0.57115 0.0
C633 C 0.42269 0.82225 0.67933 0.0
N634 N 0.40246 0.79637 0.87383 0.0
N635 N 0.46964 0.8148 0.45878 0.0
C636 C 0.42224 0.80563 0.78261 0.0
C637 C 0.45631 0.81449 0.56838 0.0
N638 N 0.4466 0.78822 0.9011 0.0
N639 N 0.4394 0.84146 0.46941 0.0
H640 H 0.48201 0.80636 0.45416 0.0
H641 H 0.46711 0.82167 0.37001 0.0
H642 H 0.42519 0.84758 0.45934 0.0
H643 H 0.4536 0.84837 0.3959 0.0
H644 H 0.43795 0.78866 -0.01143 0.0
H645 H 0.46089 0.78217 0.91028 0.0
H646 H 0.39955 0.78166 0.94057 0.0
H647 H 0.38721 0.80105 0.8771 0.0
C648 C 0.26915 0.62704 0.66515 0.0
C649 C 0.24192 0.61024 0.70423 0.0
C650 C 0.23854 0.6504 0.74865 0.0
C651 C 0.26642 0.66693 0.72323 0.0
N652 N 0.30935 0.67073 0.67749 0.0
N653 N 0.2026 0.60655 0.80944 0.0
C654 C 0.28203 0.65516 0.68716 0.0
C655 C 0.22708 0.62209 0.75266 0.0
N656 N 0.28248 0.61641 0.60162 0.0
N657 N 0.22277 0.66171 0.76614 0.0
H658 H 0.1937 0.58591 0.81919 0.0
H659 H 0.19235 0.6144 0.85907 0.0
H660 H 0.23035 0.68231 0.76406 0.0
H661 H 0.20184 0.65063 0.77064 0.0
H662 H 0.30121 0.628 0.55859 0.0
H663 H 0.27387 0.59618 0.58049 0.0
H664 H 0.32216 0.66294 0.66644 0.0
H665 H 0.31947 0.69136 0.69172 0.0
C666 C 0.43705 0.63711 0.58891 0.0
C667 C 0.45416 0.643 0.69783 0.0
C668 C 0.41483 0.61505 0.83394 0.0
C669 C 0.39761 0.61017 0.72631 0.0
N670 N 0.39157 0.61949 0.5064 0.0
N671 N 0.45956 0.64089 0.92709 0.0
C672 C 0.40854 0.62202 0.60505 0.0
C673 C 0.44307 0.63301 0.82142 0.0
N674 N 0.4481 0.64581 0.46964 0.0
N675 N 0.40426 0.60173 0.94699 0.0
H676 H 0.48039 0.65312 0.92113 0.0
H677 H 0.45257 0.63687 0.02149 0.0
H678 H 0.38371 0.58883 0.96044 0.0
H679 H 0.41586 0.60192 0.02467 0.0
H680 H 0.43718 0.63958 0.38417 0.0
H681 H 0.46867 0.6583 0.45502 0.0
H682 H 0.39795 0.62988 0.41978 0.0
H683 H 0.37067 0.60842 0.51448 0.0
C684 C 0.04058 0.21527 0.60643 0.0
C685 C 0.03433 0.1908 0.66693 0.0
C686 C 0.04828 0.17666 0.47458 0.0
C687 C 0.05018 0.19886 0.40777 0.0
N688 N 0.05027 0.24068 0.40772 0.0
N689 N 1.03026 0.1471 0.6581 0.0
C690 C 0.04696 0.21864 0.47307 0.0
C691 C 0.03762 0.17114 0.60088 0.0
N692 N 0.0414 0.23554 0.67771 0.0
N693 N 0.05797 0.16172 0.41943 0.0
H694 H 1.02274 0.14237 0.75168 0.0
H695 H 1.02962 0.13106 0.60929 0.0
H696 H 0.06781 0.16686 0.33086 0.0
H697 H 0.05929 0.14655 0.46732 0.0
H698 H 0.04825 0.25479 0.64309 0.0
H699 H 0.03728 0.23373 0.77598 0.0
H700 H 0.04538 0.25441 0.44531 0.0
H701 H 0.05665 0.24464 0.31216 0.0
C702 C 0.86125 0.83465 0.56298 0.0
C703 C 0.87887 0.85861 0.62929 0.0
C704 C 0.88366 0.88451 0.4326 0.0
C705 C 0.86509 0.8606 0.36897 0.0
N706 N 0.83046 0.81443 0.38395 0.0
N707 N 0.90522 0.90681 0.63166 0.0
C708 C 0.85225 0.83606 0.43705 0.0
C709 C 0.88943 0.88371 0.56558 0.0
N710 N 0.8533 0.81045 0.61946 0.0
N711 N 0.89655 0.90787 0.36459 0.0
H712 H 0.91243 0.90709 0.7239 0.0
H713 H 0.91041 0.92573 0.5974 0.0
H714 H 0.89177 0.90948 0.26953 0.0
H715 H 0.91285 0.92536 0.39943 0.0
H716 H 0.84269 0.79234 0.57082 0.0
H717 H 0.85923 0.80851 0.71187 0.0
H718 H 0.81836 0.79683 0.43445 0.0
H719 H 0.82297 0.81489 0.29284 0.0
C720 C 0.1913 1.00194 0.59367 0.0
C721 C 0.20319 0.02771 0.64993 0.0
C722 C 0.22119 0.04878 0.44218 0.0
C723 C 0.21014 0.02305 0.38633 0.0
N724 N 0.1807 0.97533 0.39903 0.0
N725 N 0.23291 0.07541 0.63626 0.0
C726 C 0.19416 0.99961 0.45947 0.0
C727 C 0.21902 0.05109 0.57651 0.0
N728 N 0.17815 0.97976 0.66968 0.0
N729 N 0.23269 0.07099 0.36582 0.0
H730 H 0.23149 0.07816 0.73454 0.0
H731 H 0.24755 0.09266 0.59103 0.0
H732 H 0.23416 0.06991 0.26688 0.0
H733 H 0.23838 0.09016 0.39777 0.0
H734 H 0.17143 0.96032 0.63871 0.0
H735 H 0.17553 0.98088 0.76794 0.0
H736 H 0.16644 0.95777 0.44329 0.0
H737 H 0.18213 0.97286 0.30045 0.0
C738 C 0.68327 0.51701 0.75783 0.0
C739 C 0.70922 0.53281 0.70366 0.0
C740 C 0.72981 0.53351 0.91103 0.0
C741 C 0.7039 0.52066 0.96748 0.0
N742 N 0.65609 0.50375 0.95058 0.0
N743 N 0.75752 0.55854 0.73007 0.0
C744 C 0.68065 0.51352 0.89273 0.0
C745 C 0.73264 0.5419 0.7808 0.0
N746 N 0.66118 0.5045 0.68038 0.0
N747 N 0.75153 0.53676 0.98024 0.0
H748 H 0.76069 0.56401 0.63321 0.0
H749 H 0.77492 0.56828 0.78572 0.0
H750 H 0.75001 0.53047 0.07533 0.0
H751 H 0.77048 0.5434 0.9404 0.0
H752 H 0.64212 0.49055 0.71356 0.0
H753 H 0.66255 0.50587 0.58098 0.0
H754 H 0.63906 0.50127 0.90212 0.0
H755 H 0.6531 0.50019 0.04935 0.0
C756 C 0.51477 0.17133 0.79409 0.0
C757 C 0.5323 0.19528 0.72751 0.0
C758 C 0.55973 0.21391 0.92074 0.0
C759 C 0.54259 0.1899 -0.01238 0.0
N760 N 0.5008 0.14831 -0.00012 0.0
N761 N 0.56458 0.24221 0.73876 0.0
C762 C 0.51921 0.16923 0.92752 0.0
C763 C 0.55274 0.21748 0.7942 0.0
N764 N 0.49346 0.15107 0.73044 0.0
N765 N 0.58306 0.23301 0.97664 0.0
H766 H 0.5587 0.24557 0.64874 0.0
H767 H 0.57781 0.25966 0.78748 0.0
H768 H 0.58895 0.23121 0.06955 0.0
H769 H 0.59765 0.24963 0.92706 0.0
H770 H 0.48109 0.13218 0.76896 0.0
H771 H 0.48845 0.15284 0.63569 0.0
H772 H 0.48242 0.13317 0.96583 0.0
H773 H 0.50305 0.14727 0.09882 0.0
C774 C 0.85395 0.335 0.80386 0.0
C775 C 0.8723 0.3554 0.72019 0.0
C776 C 0.89553 0.38354 0.90533 0.0
C777 C 0.87668 0.36371 -0.01105 0.0
N778 N 0.84542 0.31641 0.01717 0.0
N779 N 0.90242 0.40296 0.69479 0.0
C780 C 0.85787 0.33821 0.93873 0.0
C781 C 0.89093 0.38081 0.77126 0.0
N782 N 0.83154 0.31328 0.75515 0.0
N783 N 0.91879 0.40425 0.9535 0.0
H784 H 0.89543 0.40296 0.6026 0.0
H785 H 0.91497 0.42216 0.73023 0.0
H786 H 0.92418 0.40533 0.05034 0.0
H787 H 0.9343 0.418 0.89498 0.0
H788 H 0.81586 0.29946 0.81256 0.0
H789 H 0.82672 0.31091 0.65752 0.0
H790 H 0.83375 0.29697 0.98298 0.0
H791 H 0.84975 0.31685 0.11418 0.0
C792 C 0.37276 0.83846 0.26718 0.0
C793 C 0.36643 0.85604 0.33344 0.0
C794 C 0.37592 0.88357 0.13951 0.0
C795 C 0.3819 0.86566 0.07374 0.0
N796 N 0.39621 0.83308 0.08676 0.0
N797 N 0.36793 0.89842 0.34483 0.0
C798 C 0.38336 0.84514 0.14101 0.0
C799 C 0.36967 0.87954 0.27304 0.0
N800 N 0.36825 0.81516 0.32373 0.0
N801 N 0.37687 0.9047 0.07485 0.0
H802 H 0.36449 0.89635 0.44365 0.0
H803 H 0.37215 0.91704 0.31032 0.0
H804 H 0.3833 0.90932 0.97958 0.0
H805 H 0.37021 0.91704 0.1128 0.0
H806 H 0.36995 0.80038 0.27446 0.0
H807 H 0.36069 0.80957 0.41687 0.0
H808 H 0.40009 0.81958 0.13571 0.0
H809 H 0.40593 0.8392 -0.00185 0.0
C810 C 0.1882 0.49837 0.12708 0.0
C811 C 0.19843 0.52321 0.06141 0.0
C812 C 0.2236 0.54706 0.25483 0.0
C813 C 0.21224 0.52246 0.32264 0.0
N814 N 0.1818 0.47491 0.32983 0.0
N815 N 0.22279 0.57146 0.06649 0.0
C816 C 0.19419 0.49812 0.2602 0.0
C817 C 0.21504 0.54763 0.12678 0.0
N818 N 0.17247 0.47499 0.06257 0.0
N819 N 0.24388 0.56966 0.31009 0.0
H820 H 0.21848 0.57293 0.97045 0.0
H821 H 0.23193 0.58978 0.11384 0.0
H822 H 0.25141 0.56982 0.40165 0.0
H823 H 0.25511 0.58766 0.2613 0.0
H824 H 0.1677 0.45625 0.09791 0.0
H825 H 0.16464 0.47417 0.97093 0.0
H826 H 0.16593 0.45706 0.29556 0.0
H827 H 0.18629 0.47372 0.42599 0.0
C828 C 0.5364 0.71495 0.18432 0.0
C829 C 0.53196 0.69543 0.27798 0.0
C830 C 0.53852 0.66877 0.11578 0.0
C831 C 0.54413 0.68878 0.02172 0.0
N832 N 0.55768 0.73543 -0.01488 0.0
N833 N 0.51509 0.64838 0.31231 0.0
C834 C 0.54552 0.71313 0.06028 0.0
C835 C 0.52897 0.67068 0.23846 0.0
N836 N 0.53 0.73427 0.21129 0.0
N837 N 0.54464 0.64912 0.09259 0.0
H838 H 0.50486 0.64819 0.3949 0.0
H839 H 0.51046 0.62939 0.28143 0.0
H840 H 0.55505 0.64897 0.01068 0.0
H841 H 0.5431 0.63549 0.16284 0.0
H842 H 0.53013 0.74747 0.14224 0.0
H843 H 0.52082 0.73452 0.29753 0.0
H844 H 0.56123 0.7541 0.01548 0.0
H845 H 0.56798 0.7366 0.90188 0.0
loop_
_geom_bond_atom_site_label_1
_geom_bond_atom_site_label_2
_geom_bond_distance
_geom_bond_site_symmetry_2
_ccdc_geom_bond_type
Sm0 C2 2.846 1_554 S
Sm0 O20 2.543 1_554 S
Sm0 O21 2.450 . S
Sm0 O22 2.681 . S
Sm0 O23 2.464 . S
Sm0 O24 2.396 . S
Sm0 O28 2.386 1_554 S
Sm0 O31 2.408 . S
Sm1 C11 2.846 1_556 S
Sm1 O22 2.386 1_656 S
Sm1 O25 2.408 1_556 S
Sm1 O26 2.543 1_556 S
Sm1 O27 2.450 . S
Sm1 O28 2.681 1_655 S
Sm1 O29 2.464 . S
Sm1 O30 2.396 1_655 S
C2 Sm0 2.846 1_556 S
C2 C3 1.506 . S
C2 O20 1.261 . S
C2 O21 1.242 1_556 S
C3 C2 1.506 . S
C3 C4 1.358 . S
C3 C8 1.382 1_556 S
C4 C3 1.358 . S
C4 C5 1.385 . S
C4 H32 0.930 . S
C5 C4 1.385 . S
C5 C6 1.395 . S
C5 H33 0.929 . S
C6 C5 1.395 . S
C6 C7 1.335 1_556 S
C7 C6 1.335 1_554 S
C7 C8 1.398 . S
C7 H34 0.930 . S
C8 C3 1.382 1_554 S
C8 C7 1.398 . S
C8 H35 0.929 . S
C9 O22 1.271 . S
C9 O23 1.251 . S
C10 O24 1.252 1_655 S
C10 O25 1.272 . S
C11 Sm1 2.846 1_554 S
C11 C12 1.506 . S
C11 O26 1.261 . S
C11 O27 1.242 1_554 S
C12 C11 1.506 . S
C12 C13 1.358 . S
C12 C17 1.382 1_554 S
C13 C12 1.358 . S
C13 C14 1.385 . S
C13 H36 0.930 . S
C14 C13 1.385 . S
C14 C15 1.395 . S
C14 H37 0.929 . S
C15 C14 1.395 . S
C15 C16 1.335 1_554 S
C16 C15 1.335 1_556 S
C16 C17 1.398 . S
C16 H38 0.930 . S
C17 C12 1.382 1_556 S
C17 C16 1.398 . S
C17 H39 0.929 . S
C18 O28 1.271 1_655 S
C18 O29 1.251 . S
C19 O30 1.252 . S
C19 O31 1.272 1_556 S
O20 Sm0 2.543 1_556 S
O20 C2 1.261 . S
O21 Sm0 2.450 . S
O21 C2 1.242 1_554 S
O22 Sm0 2.681 . S
O22 Sm1 2.386 1_454 S
O22 C9 1.271 . S
O23 Sm0 2.464 . S
O23 C9 1.251 . S
O24 Sm0 2.396 . S
O24 C10 1.252 1_455 S
O25 Sm1 2.408 1_554 S
O25 C10 1.272 . S
O26 Sm1 2.543 1_554 S
O26 C11 1.261 . S
O27 Sm1 2.450 . S
O27 C11 1.242 1_556 S
O28 Sm0 2.386 1_556 S
O28 Sm1 2.681 1_455 S
O28 C18 1.271 1_455 S
O29 Sm1 2.464 . S
O29 C18 1.251 . S
O30 Sm1 2.396 1_455 S
O30 C19 1.252 . S
O31 Sm0 2.408 . S
O31 C19 1.272 1_554 S
H32 C4 0.930 . S
H33 C5 0.929 . S
H34 C7 0.930 . S
H35 C8 0.929 . S
H36 C13 0.930 . S
H37 C14 0.929 . S
H38 C16 0.930 . S
H39 C17 0.929 . S
Sm40 C42 2.846 1_554 S
Sm40 O60 2.543 1_554 S
Sm40 O61 2.450 . S
Sm40 O62 2.681 . S
Sm40 O63 2.464 . S
Sm40 O64 2.396 . S
Sm40 O68 2.386 1_554 S
Sm40 O71 2.408 . S
Sm41 C51 2.846 1_556 S
Sm41 O62 2.386 1_556 S
Sm41 O65 2.408 1_556 S
Sm41 O66 2.543 1_556 S
Sm41 O67 2.450 . S
Sm41 O68 2.681 . S
Sm41 O69 2.464 . S
Sm41 O70 2.396 . S
C42 Sm40 2.846 1_556 S
C42 C43 1.506 . S
C42 O60 1.261 . S
C42 O61 1.242 1_556 S
C43 C42 1.506 . S
C43 C44 1.358 . S
C43 C48 1.382 1_556 S
C44 C43 1.358 . S
C44 C45 1.385 . S
C44 H72 0.930 . S
C45 C44 1.385 . S
C45 C46 1.395 . S
C45 H73 0.929 . S
C46 C45 1.395 . S
C46 C47 1.335 1_556 S
C47 C46 1.335 1_554 S
C47 C48 1.398 . S
C47 H74 0.930 . S
C48 C43 1.382 1_554 S
C48 C47 1.398 . S
C48 H75 0.929 . S
C49 O62 1.271 . S
C49 O63 1.251 . S
C50 O64 1.252 . S
C50 O65 1.272 . S
C51 Sm41 2.846 1_554 S
C51 C52 1.506 . S
C51 O66 1.261 . S
C51 O67 1.242 1_554 S
C52 C51 1.506 . S
C52 C53 1.358 . S
C52 C57 1.382 1_554 S
C53 C52 1.358 . S
C53 C54 1.385 . S
C53 H76 0.930 . S
C54 C53 1.385 . S
C54 C55 1.395 1_655 S
C54 H77 0.929 . S
C55 C54 1.395 1_455 S
C55 C56 1.335 1_454 S
C56 C55 1.335 1_656 S
C56 C57 1.398 . S
C56 H78 0.930 1_655 S
C57 C52 1.382 1_556 S
C57 C56 1.398 . S
C57 H79 0.929 . S
C58 O68 1.271 . S
C58 O69 1.251 . S
C59 O70 1.252 . S
C59 O71 1.272 1_556 S
O60 Sm40 2.543 1_556 S
O60 C42 1.261 . S
O61 Sm40 2.450 . S
O61 C42 1.242 1_554 S
O62 Sm40 2.681 . S
O62 Sm41 2.386 1_554 S
O62 C49 1.271 . S
O63 Sm40 2.464 . S
O63 C49 1.251 . S
O64 Sm40 2.396 . S
O64 C50 1.252 . S
O65 Sm41 2.408 1_554 S
O65 C50 1.272 . S
O66 Sm41 2.543 1_554 S
O66 C51 1.261 . S
O67 Sm41 2.450 . S
O67 C51 1.242 1_556 S
O68 Sm40 2.386 1_556 S
O68 Sm41 2.681 . S
O68 C58 1.271 . S
O69 Sm41 2.464 . S
O69 C58 1.251 . S
O70 Sm41 2.396 . S
O70 C59 1.252 . S
O71 Sm40 2.408 . S
O71 C59 1.272 1_554 S
H72 C44 0.930 . S
H73 C45 0.929 . S
H74 C47 0.930 . S
H75 C48 0.929 . S
H76 C53 0.930 . S
H77 C54 0.929 . S
H78 C56 0.930 1_455 S
H79 C57 0.929 . S
Sm80 C82 2.846 1_554 S
Sm80 O100 2.543 1_554 S
Sm80 O101 2.450 . S
Sm80 O102 2.681 1_565 S
Sm80 O103 2.464 . S
Sm80 O104 2.396 1_565 S
Sm80 O108 2.386 1_564 S
Sm80 O111 2.408 . S
Sm81 C91 2.846 1_556 S
Sm81 O102 2.386 1_556 S
Sm81 O105 2.408 1_556 S
Sm81 O106 2.543 1_556 S
Sm81 O107 2.450 . S
Sm81 O108 2.681 . S
Sm81 O109 2.464 . S
Sm81 O110 2.396 . S
C82 Sm80 2.846 1_556 S
C82 C83 1.506 . S
C82 O100 1.261 . S
C82 O101 1.242 1_556 S
C83 C82 1.506 . S
C83 C84 1.358 . S
C83 C88 1.382 1_556 S
C84 C83 1.358 . S
C84 C85 1.385 . S
C84 H112 0.930 . S
C85 C84 1.385 . S
C85 C86 1.395 . S
C85 H113 0.929 . S
C86 C85 1.395 . S
C86 C87 1.335 1_556 S
C87 C86 1.335 1_554 S
C87 C88 1.398 . S
C87 H114 0.930 . S
C88 C83 1.382 1_554 S
C88 C87 1.398 . S
C88 H115 0.929 . S
C89 O102 1.271 1_565 S
C89 O103 1.251 . S
C90 O104 1.252 . S
C90 O105 1.272 . S
C91 Sm81 2.846 1_554 S
C91 C92 1.506 . S
C91 O106 1.261 . S
C91 O107 1.242 1_554 S
C92 C91 1.506 . S
C92 C93 1.358 . S
C92 C97 1.382 1_554 S
C93 C92 1.358 . S
C93 C94 1.385 . S
C93 H116 0.930 . S
C94 C93 1.385 . S
C94 C95 1.395 . S
C94 H117 0.929 . S
C95 C94 1.395 . S
C95 C96 1.335 1_554 S
C96 C95 1.335 1_556 S
C96 C97 1.398 . S
C96 H118 0.930 . S
C97 C92 1.382 1_556 S
C97 C96 1.398 . S
C97 H119 0.929 . S
C98 O108 1.271 . S
C98 O109 1.251 . S
C99 O110 1.252 1_565 S
C99 O111 1.272 1_556 S
O100 Sm80 2.543 1_556 S
O100 C82 1.261 . S
O101 Sm80 2.450 . S
O101 C82 1.242 1_554 S
O102 Sm80 2.681 1_545 S
O102 Sm81 2.386 1_554 S
O102 C89 1.271 1_545 S
O103 Sm80 2.464 . S
O103 C89 1.251 . S
O104 Sm80 2.396 1_545 S
O104 C90 1.252 . S
O105 Sm81 2.408 1_554 S
O105 C90 1.272 . S
O106 Sm81 2.543 1_554 S
O106 C91 1.261 . S
O107 Sm81 2.450 . S
O107 C91 1.242 1_556 S
O108 Sm80 2.386 1_546 S
O108 Sm81 2.681 . S
O108 C98 1.271 . S
O109 Sm81 2.464 . S
O109 C98 1.251 . S
O110 Sm81 2.396 . S
O110 C99 1.252 1_545 S
O111 Sm80 2.408 . S
O111 C99 1.272 1_554 S
H112 C84 0.930 . S
H113 C85 0.929 . S
H114 C87 0.930 . S
H115 C88 0.929 . S
H116 C93 0.930 . S
H117 C94 0.929 . S
H118 C96 0.930 . S
H119 C97 0.929 . S
Sm120 C122 2.846 . S
Sm120 O140 2.543 . S
Sm120 O141 2.450 . S
Sm120 O142 2.681 . S
Sm120 O143 2.464 . S
Sm120 O144 2.396 . S
Sm120 O148 2.386 . S
Sm120 O151 2.408 . S
Sm121 C131 2.846 . S
Sm121 O142 2.386 . S
Sm121 O145 2.408 . S
Sm121 O146 2.543 . S
Sm121 O147 2.450 . S
Sm121 O148 2.681 . S
Sm121 O149 2.464 . S
Sm121 O150 2.396 . S
C122 Sm120 2.846 . S
C122 C123 1.506 . S
C122 O140 1.261 . S
C122 O141 1.242 . S
C123 C122 1.506 . S
C123 C124 1.358 . S
C123 C128 1.382 . S
C124 C123 1.358 . S
C124 C125 1.385 . S
C124 H152 0.930 . S
C125 C124 1.385 . S
C125 C126 1.395 . S
C125 H153 0.929 . S
C126 C125 1.395 . S
C126 C127 1.335 . S
C127 C126 1.335 . S
C127 C128 1.398 . S
C127 H154 0.930 . S
C128 C123 1.382 . S
C128 C127 1.398 . S
C128 H155 0.929 . S
C129 O142 1.271 . S
C129 O143 1.251 . S
C130 O144 1.252 . S
C130 O145 1.272 . S
C131 Sm121 2.846 . S
C131 C132 1.506 . S
C131 O146 1.261 . S
C131 O147 1.242 . S
C132 C131 1.506 . S
C132 C133 1.358 . S
C132 C137 1.382 . S
C133 C132 1.358 . S
C133 C134 1.385 . S
C133 H156 0.930 . S
C134 C133 1.385 . S
C134 C135 1.395 . S
C134 H157 0.929 . S
C135 C134 1.395 . S
C135 C136 1.335 . S
C136 C135 1.335 . S
C136 C137 1.398 . S
C136 H158 0.930 . S
C137 C132 1.382 . S
C137 C136 1.398 . S
C137 H159 0.929 . S
C138 O148 1.271 . S
C138 O149 1.251 . S
C139 O150 1.252 . S
C139 O151 1.272 . S
O140 Sm120 2.543 . S
O140 C122 1.261 . S
O141 Sm120 2.450 . S
O141 C122 1.242 . S
O142 Sm120 2.681 . S
O142 Sm121 2.386 . S
O142 C129 1.271 . S
O143 Sm120 2.464 . S
O143 C129 1.251 . S
O144 Sm120 2.396 . S
O144 C130 1.252 . S
O145 Sm121 2.408 . S
O145 C130 1.272 . S
O146 Sm121 2.543 . S
O146 C131 1.261 . S
O147 Sm121 2.450 . S
O147 C131 1.242 . S
O148 Sm120 2.386 . S
O148 Sm121 2.681 . S
O148 C138 1.271 . S
O149 Sm121 2.464 . S
O149 C138 1.251 . S
O150 Sm121 2.396 . S
O150 C139 1.252 . S
O151 Sm120 2.408 . S
O151 C139 1.272 . S
H152 C124 0.930 . S
H153 C125 0.929 . S
H154 C127 0.930 . S
H155 C128 0.929 . S
H156 C133 0.930 . S
H157 C134 0.929 . S
H158 C136 0.930 . S
H159 C137 0.929 . S
Sm160 C162 2.846 . S
Sm160 O180 2.543 . S
Sm160 O181 2.450 . S
Sm160 O182 2.681 . S
Sm160 O183 2.464 . S
Sm160 O184 2.396 . S
Sm160 O188 2.386 . S
Sm160 O191 2.408 . S
Sm161 C171 2.846 . S
Sm161 O182 2.386 . S
Sm161 O185 2.408 . S
Sm161 O186 2.543 . S
Sm161 O187 2.450 . S
Sm161 O188 2.681 . S
Sm161 O189 2.464 . S
Sm161 O190 2.396 . S
C162 Sm160 2.846 . S
C162 C163 1.506 . S
C162 O180 1.261 . S
C162 O181 1.242 . S
C163 C162 1.506 . S
C163 C164 1.358 . S
C163 C168 1.382 . S
C164 C163 1.358 . S
C164 C165 1.385 . S
C164 H192 0.930 . S
C165 C164 1.385 . S
C165 C166 1.395 . S
C165 H193 0.929 . S
C166 C165 1.395 . S
C166 C167 1.335 . S
C167 C166 1.335 . S
C167 C168 1.398 . S
C167 H194 0.930 . S
C168 C163 1.382 . S
C168 C167 1.398 . S
C168 H195 0.929 . S
C169 O182 1.271 . S
C169 O183 1.251 . S
C170 O184 1.252 . S
C170 O185 1.272 . S
C171 Sm161 2.846 . S
C171 C172 1.506 . S
C171 O186 1.261 . S
C171 O187 1.242 . S
C172 C171 1.506 . S
C172 C173 1.358 . S
C172 C177 1.382 . S
C173 C172 1.358 . S
C173 C174 1.385 . S
C173 H196 0.930 . S
C174 C173 1.385 . S
C174 C175 1.395 . S
C174 H197 0.929 . S
C175 C174 1.395 . S
C175 C176 1.335 . S
C176 C175 1.335 . S
C176 C177 1.398 . S
C176 H198 0.930 . S
C177 C172 1.382 . S
C177 C176 1.398 . S
C177 H199 0.929 . S
C178 O188 1.271 . S
C178 O189 1.251 . S
C179 O190 1.252 . S
C179 O191 1.272 . S
O180 Sm160 2.543 . S
O180 C162 1.261 . S
O181 Sm160 2.450 . S
O181 C162 1.242 . S
O182 Sm160 2.681 . S
O182 Sm161 2.386 . S
O182 C169 1.271 . S
O183 Sm160 2.464 . S
O183 C169 1.251 . S
O184 Sm160 2.396 . S
O184 C170 1.252 . S
O185 Sm161 2.408 . S
O185 C170 1.272 . S
O186 Sm161 2.543 . S
O186 C171 1.261 . S
O187 Sm161 2.450 . S
O187 C171 1.242 . S
O188 Sm160 2.386 . S
O188 Sm161 2.681 . S
O188 C178 1.271 . S
O189 Sm161 2.464 . S
O189 C178 1.251 . S
O190 Sm161 2.396 . S
O190 C179 1.252 . S
O191 Sm160 2.408 . S
O191 C179 1.272 . S
H192 C164 0.930 . S
H193 C165 0.929 . S
H194 C167 0.930 . S
H195 C168 0.929 . S
H196 C173 0.930 . S
H197 C174 0.929 . S
H198 C176 0.930 . S
H199 C177 0.929 . S
Sm200 C202 2.846 . S
Sm200 O220 2.543 . S
Sm200 O221 2.450 . S
Sm200 O222 2.681 . S
Sm200 O223 2.464 . S
Sm200 O224 2.396 . S
Sm200 O228 2.386 . S
Sm200 O231 2.408 . S
Sm201 C211 2.846 . S
Sm201 O222 2.386 . S
Sm201 O225 2.408 . S
Sm201 O226 2.543 . S
Sm201 O227 2.450 . S
Sm201 O228 2.681 . S
Sm201 O229 2.464 . S
Sm201 O230 2.396 . S
C202 Sm200 2.846 . S
C202 C203 1.506 . S
C202 O220 1.261 . S
C202 O221 1.242 . S
C203 C202 1.506 . S
C203 C204 1.358 . S
C203 C208 1.382 . S
C204 C203 1.358 . S
C204 C205 1.385 . S
C204 H232 0.930 . S
C205 C204 1.385 . S
C205 C206 1.395 . S
C205 H233 0.929 . S
C206 C205 1.395 . S
C206 C207 1.335 . S
C207 C206 1.335 . S
C207 C208 1.398 . S
C207 H234 0.930 . S
C208 C203 1.382 . S
C208 C207 1.398 . S
C208 H235 0.929 . S
C209 O222 1.271 . S
C209 O223 1.251 . S
C210 O224 1.252 . S
C210 O225 1.272 . S
C211 Sm201 2.846 . S
C211 C212 1.506 . S
C211 O226 1.261 . S
C211 O227 1.242 . S
C212 C211 1.506 . S
C212 C213 1.358 . S
C212 C217 1.382 . S
C213 C212 1.358 . S
C213 C214 1.385 . S
C213 H236 0.930 . S
C214 C213 1.385 . S
C214 C215 1.395 . S
C214 H237 0.929 . S
C215 C214 1.395 . S
C215 C216 1.335 . S
C216 C215 1.335 . S
C216 C217 1.398 . S
C216 H238 0.930 . S
C217 C212 1.382 . S
C217 C216 1.398 . S
C217 H239 0.929 . S
C218 O228 1.271 . S
C218 O229 1.251 . S
C219 O230 1.252 . S
C219 O231 1.272 . S
O220 Sm200 2.543 . S
O220 C202 1.261 . S
O221 Sm200 2.450 . S
O221 C202 1.242 . S
O222 Sm200 2.681 . S
O222 Sm201 2.386 . S
O222 C209 1.271 . S
O223 Sm200 2.464 . S
O223 C209 1.251 . S
O224 Sm200 2.396 . S
O224 C210 1.252 . S
O225 Sm201 2.408 . S
O225 C210 1.272 . S
O226 Sm201 2.543 . S
O226 C211 1.261 . S
O227 Sm201 2.450 . S
O227 C211 1.242 . S
O228 Sm200 2.386 . S
O228 Sm201 2.681 . S
O228 C218 1.271 . S
O229 Sm201 2.464 . S
O229 C218 1.251 . S
O230 Sm201 2.396 . S
O230 C219 1.252 . S
O231 Sm200 2.408 . S
O231 C219 1.272 . S
H232 C204 0.930 . S
H233 C205 0.929 . S
H234 C207 0.930 . S
H235 C208 0.929 . S
H236 C213 0.930 . S
H237 C214 0.929 . S
H238 C216 0.930 . S
H239 C217 0.929 . S
Sm240 C242 2.846 . S
Sm240 O260 2.543 . S
Sm240 O261 2.450 . S
Sm240 O262 2.681 . S
Sm240 O263 2.464 . S
Sm240 O264 2.396 . S
Sm240 O268 2.386 . S
Sm240 O271 2.408 . S
Sm241 C251 2.846 . S
Sm241 O262 2.386 . S
Sm241 O265 2.408 . S
Sm241 O266 2.543 . S
Sm241 O267 2.450 . S
Sm241 O268 2.681 . S
Sm241 O269 2.464 . S
Sm241 O270 2.396 . S
C242 Sm240 2.846 . S
C242 C243 1.506 . S
C242 O260 1.261 . S
C242 O261 1.242 . S
C243 C242 1.506 . S
C243 C244 1.358 . S
C243 C248 1.382 . S
C244 C243 1.358 . S
C244 C245 1.385 . S
C244 H272 0.930 . S
C245 C244 1.385 . S
C245 C246 1.395 1_565 S
C245 H273 0.929 . S
C246 C245 1.395 1_545 S
C246 C247 1.335 1_545 S
C247 C246 1.335 1_565 S
C247 C248 1.398 . S
C247 H274 0.930 1_565 S
C248 C243 1.382 . S
C248 C247 1.398 . S
C248 H275 0.929 . S
C249 O262 1.271 . S
C249 O263 1.251 . S
C250 O264 1.252 . S
C250 O265 1.272 . S
C251 Sm241 2.846 . S
C251 C252 1.506 . S
C251 O266 1.261 . S
C251 O267 1.242 . S
C252 C251 1.506 . S
C252 C253 1.358 . S
C252 C257 1.382 . S
C253 C252 1.358 . S
C253 C254 1.385 . S
C253 H276 0.930 . S
C254 C253 1.385 . S
C254 C255 1.395 . S
C254 H277 0.929 . S
C255 C254 1.395 . S
C255 C256 1.335 . S
C256 C255 1.335 . S
C256 C257 1.398 . S
C256 H278 0.930 . S
C257 C252 1.382 . S
C257 C256 1.398 . S
C257 H279 0.929 . S
C258 O268 1.271 . S
C258 O269 1.251 . S
C259 O270 1.252 . S
C259 O271 1.272 . S
O260 Sm240 2.543 . S
O260 C242 1.261 . S
O261 Sm240 2.450 . S
O261 C242 1.242 . S
O262 Sm240 2.681 . S
O262 Sm241 2.386 . S
O262 C249 1.271 . S
O263 Sm240 2.464 . S
O263 C249 1.251 . S
O264 Sm240 2.396 . S
O264 C250 1.252 . S
O265 Sm241 2.408 . S
O265 C250 1.272 . S
O266 Sm241 2.543 . S
O266 C251 1.261 . S
O267 Sm241 2.450 . S
O267 C251 1.242 . S
O268 Sm240 2.386 . S
O268 Sm241 2.681 . S
O268 C258 1.271 . S
O269 Sm241 2.464 . S
O269 C258 1.251 . S
O270 Sm241 2.396 . S
O270 C259 1.252 . S
O271 Sm240 2.408 . S
O271 C259 1.272 . S
H272 C244 0.930 . S
H273 C245 0.929 . S
H274 C247 0.930 1_545 S
H275 C248 0.929 . S
H276 C253 0.930 . S
H277 C254 0.929 . S
H278 C256 0.930 . S
H279 C257 0.929 . S
Sm280 C282 2.846 . S
Sm280 O300 2.543 . S
Sm280 O301 2.450 . S
Sm280 O302 2.681 . S
Sm280 O303 2.464 . S
Sm280 O304 2.396 . S
Sm280 O308 2.386 . S
Sm280 O311 2.408 . S
Sm281 C291 2.846 . S
Sm281 O302 2.386 . S
Sm281 O305 2.408 . S
Sm281 O306 2.543 . S
Sm281 O307 2.450 . S
Sm281 O308 2.681 . S
Sm281 O309 2.464 . S
Sm281 O310 2.396 . S
C282 Sm280 2.846 . S
C282 C283 1.506 . S
C282 O300 1.261 . S
C282 O301 1.242 . S
C283 C282 1.506 . S
C283 C284 1.358 . S
C283 C288 1.382 . S
C284 C283 1.358 . S
C284 C285 1.385 . S
C284 H312 0.930 . S
C285 C284 1.385 . S
C285 C286 1.395 . S
C285 H313 0.929 . S
C286 C285 1.395 . S
C286 C287 1.335 . S
C287 C286 1.335 . S
C287 C288 1.398 . S
C287 H314 0.930 . S
C288 C283 1.382 . S
C288 C287 1.398 . S
C288 H315 0.929 . S
C289 O302 1.271 . S
C289 O303 1.251 . S
C290 O304 1.252 . S
C290 O305 1.272 . S
C291 Sm281 2.846 . S
C291 C292 1.506 . S
C291 O306 1.261 . S
C291 O307 1.242 . S
C292 C291 1.506 . S
C292 C293 1.358 . S
C292 C297 1.382 . S
C293 C292 1.358 . S
C293 C294 1.385 . S
C293 H316 0.930 . S
C294 C293 1.385 . S
C294 C295 1.395 . S
C294 H317 0.929 . S
C295 C294 1.395 . S
C295 C296 1.335 . S
C296 C295 1.335 . S
C296 C297 1.398 . S
C296 H318 0.930 . S
C297 C292 1.382 . S
C297 C296 1.398 . S
C297 H319 0.929 . S
C298 O308 1.271 . S
C298 O309 1.251 . S
C299 O310 1.252 . S
C299 O311 1.272 . S
O300 Sm280 2.543 . S
O300 C282 1.261 . S
O301 Sm280 2.450 . S
O301 C282 1.242 . S
O302 Sm280 2.681 . S
O302 Sm281 2.386 . S
O302 C289 1.271 . S
O303 Sm280 2.464 . S
O303 C289 1.251 . S
O304 Sm280 2.396 . S
O304 C290 1.252 . S
O305 Sm281 2.408 . S
O305 C290 1.272 . S
O306 Sm281 2.543 . S
O306 C291 1.261 . S
O307 Sm281 2.450 . S
O307 C291 1.242 . S
O308 Sm280 2.386 . S
O308 Sm281 2.681 . S
O308 C298 1.271 . S
O309 Sm281 2.464 . S
O309 C298 1.251 . S
O310 Sm281 2.396 . S
O310 C299 1.252 . S
O311 Sm280 2.408 . S
O311 C299 1.272 . S
H312 C284 0.930 . S
H313 C285 0.929 . S
H314 C287 0.930 . S
H315 C288 0.929 . S
H316 C293 0.930 . S
H317 C294 0.929 . S
H318 C296 0.930 . S
H319 C297 0.929 . S
Sm320 C322 2.846 . S
Sm320 O340 2.543 . S
Sm320 O341 2.450 . S
Sm320 O342 2.681 . S
Sm320 O343 2.464 . S
Sm320 O344 2.396 . S
Sm320 O348 2.386 . S
Sm320 O351 2.408 . S
Sm321 C331 2.846 . S
Sm321 O342 2.386 . S
Sm321 O345 2.408 . S
Sm321 O346 2.543 . S
Sm321 O347 2.450 . S
Sm321 O348 2.681 . S
Sm321 O349 2.464 . S
Sm321 O350 2.396 . S
C322 Sm320 2.846 . S
C322 C323 1.506 . S
C322 O340 1.261 . S
C322 O341 1.242 . S
C323 C322 1.506 . S
C323 C324 1.358 . S
C323 C328 1.382 . S
C324 C323 1.358 . S
C324 C325 1.385 . S
C324 H352 0.930 . S
C325 C324 1.385 . S
C325 C326 1.395 . S
C325 H353 0.929 . S
C326 C325 1.395 . S
C326 C327 1.335 . S
C327 C326 1.335 . S
C327 C328 1.398 . S
C327 H354 0.930 . S
C328 C323 1.382 . S
C328 C327 1.398 . S
C328 H355 0.929 . S
C329 O342 1.271 . S
C329 O343 1.251 . S
C330 O344 1.252 . S
C330 O345 1.272 . S
C331 Sm321 2.846 . S
C331 C332 1.506 . S
C331 O346 1.261 . S
C331 O347 1.242 . S
C332 C331 1.506 . S
C332 C333 1.358 . S
C332 C337 1.382 . S
C333 C332 1.358 . S
C333 C334 1.385 . S
C333 H356 0.930 . S
C334 C333 1.385 . S
C334 C335 1.395 . S
C334 H357 0.929 . S
C335 C334 1.395 . S
C335 C336 1.335 . S
C336 C335 1.335 . S
C336 C337 1.398 . S
C336 H358 0.930 . S
C337 C332 1.382 . S
C337 C336 1.398 . S
C337 H359 0.929 . S
C338 O348 1.271 . S
C338 O349 1.251 . S
C339 O350 1.252 . S
C339 O351 1.272 . S
O340 Sm320 2.543 . S
O340 C322 1.261 . S
O341 Sm320 2.450 . S
O341 C322 1.242 . S
O342 Sm320 2.681 . S
O342 Sm321 2.386 . S
O342 C329 1.271 . S
O343 Sm320 2.464 . S
O343 C329 1.251 . S
O344 Sm320 2.396 . S
O344 C330 1.252 . S
O345 Sm321 2.408 . S
O345 C330 1.272 . S
O346 Sm321 2.543 . S
O346 C331 1.261 . S
O347 Sm321 2.450 . S
O347 C331 1.242 . S
O348 Sm320 2.386 . S
O348 Sm321 2.681 . S
O348 C338 1.271 . S
O349 Sm321 2.464 . S
O349 C338 1.251 . S
O350 Sm321 2.396 . S
O350 C339 1.252 . S
O351 Sm320 2.408 . S
O351 C339 1.272 . S
H352 C324 0.930 . S
H353 C325 0.929 . S
H354 C327 0.930 . S
H355 C328 0.929 . S
H356 C333 0.930 . S
H357 C334 0.929 . S
H358 C336 0.930 . S
H359 C337 0.929 . S
C360 C361 1.363 . S
C360 C366 1.379 . S
C360 N368 1.356 . S
C361 C360 1.363 . S
C361 C367 1.363 . S
C362 C363 1.363 . S
C362 C367 1.379 . S
C362 N369 1.356 . S
C363 C362 1.363 . S
C363 C366 1.363 . S
N364 C366 1.356 . S
N364 H376 0.984 . S
N364 H377 0.985 . S
N365 C367 1.356 . S
N365 H370 0.984 . S
N365 H371 0.985 . S
C366 C360 1.379 . S
C366 C363 1.363 . S
C366 N364 1.356 . S
C367 C361 1.363 . S
C367 C362 1.379 . S
C367 N365 1.356 . S
N368 C360 1.356 . S
N368 H374 0.984 . S
N368 H375 0.984 . S
N369 C362 1.356 . S
N369 H372 0.984 . S
N369 H373 0.985 . S
H370 N365 0.984 . S
H371 N365 0.985 . S
H372 N369 0.984 . S
H373 N369 0.985 . S
H374 N368 0.984 . S
H375 N368 0.984 . S
H376 N364 0.984 . S
H377 N364 0.985 . S
C378 C379 1.363 . S
C378 C384 1.379 . S
C378 N386 1.356 . S
C379 C378 1.363 . S
C379 C385 1.363 . S
C380 C381 1.363 . S
C380 C385 1.379 . S
C380 N387 1.356 . S
C381 C380 1.363 . S
C381 C384 1.363 . S
N382 C384 1.356 . S
N382 H394 0.984 . S
N382 H395 0.985 . S
N383 C385 1.356 . S
N383 H388 0.984 . S
N383 H389 0.985 . S
C384 C378 1.379 . S
C384 C381 1.363 . S
C384 N382 1.356 . S
C385 C379 1.363 . S
C385 C380 1.379 . S
C385 N383 1.356 . S
N386 C378 1.356 . S
N386 H392 0.984 1_556 S
N386 H393 0.984 1_556 S
N387 C380 1.356 . S
N387 H390 0.984 . S
N387 H391 0.985 . S
H388 N383 0.984 . S
H389 N383 0.985 . S
H390 N387 0.984 . S
H391 N387 0.985 . S
H392 N386 0.984 1_554 S
H393 N386 0.984 1_554 S
H394 N382 0.984 . S
H395 N382 0.985 . S
C396 C397 1.363 . S
C396 C402 1.379 . S
C396 N404 1.356 1_556 S
C397 C396 1.363 . S
C397 C403 1.363 . S
C398 C399 1.363 . S
C398 C403 1.379 . S
C398 N405 1.356 . S
C399 C398 1.363 . S
C399 C402 1.363 . S
N400 C402 1.356 . S
N400 H412 0.984 . S
N400 H413 0.985 . S
N401 C403 1.356 . S
N401 H406 0.984 . S
N401 H407 0.985 . S
C402 C396 1.379 . S
C402 C399 1.363 . S
C402 N400 1.356 . S
C403 C397 1.363 . S
C403 C398 1.379 . S
C403 N401 1.356 . S
N404 C396 1.356 1_554 S
N404 H410 0.984 . S
N404 H411 0.984 . S
N405 C398 1.356 . S
N405 H408 0.984 . S
N405 H409 0.985 . S
H406 N401 0.984 . S
H407 N401 0.985 . S
H408 N405 0.984 . S
H409 N405 0.985 . S
H410 N404 0.984 . S
H411 N404 0.984 . S
H412 N400 0.984 . S
H413 N400 0.985 . S
C414 C415 1.363 . S
C414 C420 1.379 . S
C414 N422 1.356 . S
C415 C414 1.363 . S
C415 C421 1.363 . S
C416 C417 1.363 . S
C416 C421 1.379 . S
C416 N423 1.356 . S
C417 C416 1.363 . S
C417 C420 1.363 . S
N418 C420 1.356 . S
N418 H430 0.984 . S
N418 H431 0.985 1_554 S
N419 C421 1.356 . S
N419 H424 0.984 . S
N419 H425 0.985 . S
C420 C414 1.379 . S
C420 C417 1.363 . S
C420 N418 1.356 . S
C421 C415 1.363 . S
C421 C416 1.379 . S
C421 N419 1.356 . S
N422 C414 1.356 . S
N422 H428 0.984 . S
N422 H429 0.984 . S
N423 C416 1.356 . S
N423 H426 0.984 . S
N423 H427 0.985 1_545 S
H424 N419 0.984 . S
H425 N419 0.985 . S
H426 N423 0.984 . S
H427 N423 0.985 1_565 S
H428 N422 0.984 . S
H429 N422 0.984 . S
H430 N418 0.984 . S
H431 N418 0.985 1_556 S
C432 C433 1.363 . S
C432 C438 1.379 . S
C432 N440 1.356 . S
C433 C432 1.363 . S
C433 C439 1.363 . S
C434 C435 1.363 . S
C434 C439 1.379 . S
C434 N441 1.356 1_554 S
C435 C434 1.363 . S
C435 C438 1.363 . S
N436 C438 1.356 . S
N436 H448 0.984 . S
N436 H449 0.985 . S
N437 C439 1.356 . S
N437 H442 0.984 . S
N437 H443 0.985 1_554 S
C438 C432 1.379 . S
C438 C435 1.363 . S
C438 N436 1.356 . S
C439 C433 1.363 . S
C439 C434 1.379 . S
C439 N437 1.356 . S
N440 C432 1.356 . S
N440 H446 0.984 . S
N440 H447 0.984 . S
N441 C434 1.356 1_556 S
N441 H444 0.984 . S
N441 H445 0.985 . S
H442 N437 0.984 . S
H443 N437 0.985 1_556 S
H444 N441 0.984 . S
H445 N441 0.985 . S
H446 N440 0.984 . S
H447 N440 0.984 . S
H448 N436 0.984 . S
H449 N436 0.985 . S
C450 C451 1.363 . S
C450 C456 1.379 . S
C450 N458 1.356 1_554 S
C451 C450 1.363 . S
C451 C457 1.363 . S
C452 C453 1.363 . S
C452 C457 1.379 . S
C452 N459 1.356 . S
C453 C452 1.363 . S
C453 C456 1.363 . S
N454 C456 1.356 . S
N454 H466 0.984 1_554 S
N454 H467 0.985 . S
N455 C457 1.356 . S
N455 H460 0.984 . S
N455 H461 0.985 . S
C456 C450 1.379 . S
C456 C453 1.363 . S
C456 N454 1.356 . S
C457 C451 1.363 . S
C457 C452 1.379 . S
C457 N455 1.356 . S
N458 C450 1.356 1_556 S
N458 H464 0.984 . S
N458 H465 0.984 . S
N459 C452 1.356 . S
N459 H462 0.984 . S
N459 H463 0.985 . S
H460 N455 0.984 . S
H461 N455 0.985 . S
H462 N459 0.984 . S
H463 N459 0.985 . S
H464 N458 0.984 . S
H465 N458 0.984 . S
H466 N454 0.984 1_556 S
H467 N454 0.985 . S
C468 C469 1.363 . S
C468 C474 1.379 . S
C468 N476 1.356 . S
C469 C468 1.363 . S
C469 C475 1.363 . S
C470 C471 1.363 . S
C470 C475 1.379 . S
C470 N477 1.356 . S
C471 C470 1.363 . S
C471 C474 1.363 . S
N472 C474 1.356 . S
N472 H484 0.984 . S
N472 H485 0.985 . S
N473 C475 1.356 . S
N473 H478 0.984 . S
N473 H479 0.985 . S
C474 C468 1.379 . S
C474 C471 1.363 . S
C474 N472 1.356 . S
C475 C469 1.363 . S
C475 C470 1.379 . S
C475 N473 1.356 . S
N476 C468 1.356 . S
N476 H482 0.984 . S
N476 H483 0.984 . S
N477 C470 1.356 . S
N477 H480 0.984 . S
N477 H481 0.985 . S
H478 N473 0.984 . S
H479 N473 0.985 . S
H480 N477 0.984 . S
H481 N477 0.985 . S
H482 N476 0.984 . S
H483 N476 0.984 . S
H484 N472 0.984 . S
H485 N472 0.985 . S
C486 C487 1.363 . S
C486 C492 1.379 . S
C486 N494 1.356 . S
C487 C486 1.363 . S
C487 C493 1.363 . S
C488 C489 1.363 . S
C488 C493 1.379 . S
C488 N495 1.356 . S
C489 C488 1.363 . S
C489 C492 1.363 . S
N490 C492 1.356 . S
N490 H502 0.984 . S
N490 H503 0.985 . S
N491 C493 1.356 . S
N491 H496 0.984 . S
N491 H497 0.985 . S
C492 C486 1.379 . S
C492 C489 1.363 . S
C492 N490 1.356 . S
C493 C487 1.363 . S
C493 C488 1.379 . S
C493 N491 1.356 . S
N494 C486 1.356 . S
N494 H500 0.984 . S
N494 H501 0.984 . S
N495 C488 1.356 . S
N495 H498 0.984 . S
N495 H499 0.985 . S
H496 N491 0.984 . S
H497 N491 0.985 . S
H498 N495 0.984 . S
H499 N495 0.985 . S
H500 N494 0.984 . S
H501 N494 0.984 . S
H502 N490 0.984 . S
H503 N490 0.985 . S
C504 C505 1.363 . S
C504 C510 1.379 . S
C504 N512 1.356 . S
C505 C504 1.363 . S
C505 C511 1.363 . S
C506 C507 1.363 . S
C506 C511 1.379 . S
C506 N513 1.356 . S
C507 C506 1.363 . S
C507 C510 1.363 . S
N508 C510 1.356 . S
N508 H520 0.984 . S
N508 H521 0.985 . S
N509 C511 1.356 . S
N509 H514 0.984 . S
N509 H515 0.985 . S
C510 C504 1.379 . S
C510 C507 1.363 . S
C510 N508 1.356 . S
C511 C505 1.363 . S
C511 C506 1.379 . S
C511 N509 1.356 . S
N512 C504 1.356 . S
N512 H518 0.984 . S
N512 H519 0.984 . S
N513 C506 1.356 . S
N513 H516 0.984 . S
N513 H517 0.985 . S
H514 N509 0.984 . S
H515 N509 0.985 . S
H516 N513 0.984 . S
H517 N513 0.985 . S
H518 N512 0.984 . S
H519 N512 0.984 . S
H520 N508 0.984 . S
H521 N508 0.985 . S
C522 C523 1.363 1_556 S
C522 C528 1.379 . S
C522 N530 1.356 . S
C523 C522 1.363 1_554 S
C523 C529 1.363 . S
C524 C525 1.363 . S
C524 C529 1.379 . S
C524 N531 1.356 . S
C525 C524 1.363 . S
C525 C528 1.363 1_554 S
N526 C528 1.356 . S
N526 H538 0.984 . S
N526 H539 0.985 . S
N527 C529 1.356 . S
N527 H532 0.984 . S
N527 H533 0.985 . S
C528 C522 1.379 . S
C528 C525 1.363 1_556 S
C528 N526 1.356 . S
C529 C523 1.363 . S
C529 C524 1.379 . S
C529 N527 1.356 . S
N530 C522 1.356 . S
N530 H536 0.984 . S
N530 H537 0.984 . S
N531 C524 1.356 . S
N531 H534 0.984 . S
N531 H535 0.985 . S
H532 N527 0.984 . S
H533 N527 0.985 . S
H534 N531 0.984 . S
H535 N531 0.985 . S
H536 N530 0.984 . S
H537 N530 0.984 . S
H538 N526 0.984 . S
H539 N526 0.985 . S
C540 C541 1.363 . S
C540 C546 1.379 . S
C540 N548 1.356 . S
C541 C540 1.363 . S
C541 C547 1.363 1_554 S
C542 C543 1.363 1_556 S
C542 C547 1.379 . S
C542 N549 1.356 . S
C543 C542 1.363 1_554 S
C543 C546 1.363 . S
N544 C546 1.356 . S
N544 H556 0.984 . S
N544 H557 0.985 . S
N545 C547 1.356 . S
N545 H550 0.984 . S
N545 H551 0.985 . S
C546 C540 1.379 . S
C546 C543 1.363 . S
C546 N544 1.356 . S
C547 C541 1.363 1_556 S
C547 C542 1.379 . S
C547 N545 1.356 . S
N548 C540 1.356 . S
N548 H554 0.984 . S
N548 H555 0.984 . S
N549 C542 1.356 . S
N549 H552 0.984 1_565 S
N549 H553 0.985 . S
H550 N545 0.984 . S
H551 N545 0.985 . S
H552 N549 0.984 1_545 S
H553 N549 0.985 . S
H554 N548 0.984 . S
H555 N548 0.984 . S
H556 N544 0.984 . S
H557 N544 0.985 . S
C558 C559 1.363 . S
C558 C564 1.379 . S
C558 N566 1.356 . S
C559 C558 1.363 . S
C559 C565 1.363 1_554 S
C560 C561 1.363 1_556 S
C560 C565 1.379 . S
C560 N567 1.356 . S
C561 C560 1.363 1_554 S
C561 C564 1.363 . S
N562 C564 1.333 1_545 S
N562 H574 1.023 . S
N562 H575 0.971 . S
N563 C565 1.356 . S
N563 H568 0.984 . S
N563 H569 0.985 . S
C564 C558 1.379 . S
C564 C561 1.363 . S
C564 N562 1.333 1_565 S
C565 C559 1.363 1_556 S
C565 C560 1.379 . S
C565 N563 1.356 . S
N566 C558 1.356 . S
N566 H572 0.984 . S
N566 H573 0.984 . S
N567 C560 1.356 . S
N567 H570 0.984 . S
N567 H571 0.985 . S
H568 N563 0.984 . S
H569 N563 0.985 . S
H570 N567 0.984 . S
H571 N567 0.985 . S
H572 N566 0.984 . S
H573 N566 0.984 . S
H574 N562 1.023 . S
H575 N562 0.971 . S
C576 C577 1.363 . S
C576 C582 1.379 . S
C576 N584 1.356 . S
C577 C576 1.363 . S
C577 C583 1.363 . S
C578 C579 1.363 . S
C578 C583 1.379 . S
C578 N585 1.356 . S
C579 C578 1.363 . S
C579 C582 1.363 . S
N580 C582 1.356 . S
N580 H592 0.984 . S
N580 H593 0.985 . S
N581 C583 1.356 . S
N581 H586 0.984 . S
N581 H587 0.985 . S
C582 C576 1.379 . S
C582 C579 1.363 . S
C582 N580 1.356 . S
C583 C577 1.363 . S
C583 C578 1.379 . S
C583 N581 1.356 . S
N584 C576 1.356 . S
N584 H590 0.984 . S
N584 H591 0.984 . S
N585 C578 1.356 . S
N585 H588 0.984 . S
N585 H589 0.985 . S
H586 N581 0.984 . S
H587 N581 0.985 . S
H588 N585 0.984 . S
H589 N585 0.985 . S
H590 N584 0.984 . S
H591 N584 0.984 . S
H592 N580 0.984 . S
H593 N580 0.985 . S
C594 C595 1.363 . S
C594 C600 1.379 . S
C594 N602 1.356 . S
C595 C594 1.363 . S
C595 C601 1.363 . S
C596 C597 1.363 . S
C596 C601 1.379 . S
C596 N603 1.356 . S
C597 C596 1.363 . S
C597 C600 1.363 . S
N598 C600 1.356 . S
N598 H610 0.984 . S
N598 H611 0.985 . S
N599 C601 1.356 . S
N599 H604 0.984 . S
N599 H605 0.985 . S
C600 C594 1.379 . S
C600 C597 1.363 . S
C600 N598 1.356 . S
C601 C595 1.363 . S
C601 C596 1.379 . S
C601 N599 1.356 . S
N602 C594 1.356 . S
N602 H608 0.984 . S
N602 H609 0.984 . S
N603 C596 1.356 . S
N603 H606 0.984 . S
N603 H607 0.985 . S
H604 N599 0.984 . S
H605 N599 0.985 . S
H606 N603 0.984 . S
H607 N603 0.985 . S
H608 N602 0.984 . S
H609 N602 0.984 . S
H610 N598 0.984 . S
H611 N598 0.985 . S
C612 C613 1.363 . S
C612 C618 1.379 . S
C612 N620 1.356 . S
C613 C612 1.363 . S
C613 C619 1.363 . S
C614 C615 1.363 . S
C614 C619 1.379 . S
C614 N621 1.356 . S
C615 C614 1.363 . S
C615 C618 1.363 . S
N616 C618 1.356 . S
N616 H628 0.984 . S
N616 H629 0.985 . S
N617 C619 1.356 . S
N617 H622 0.984 . S
N617 H623 0.985 . S
C618 C612 1.379 . S
C618 C615 1.363 . S
C618 N616 1.356 . S
C619 C613 1.363 . S
C619 C614 1.379 . S
C619 N617 1.356 . S
N620 C612 1.356 . S
N620 H626 0.984 . S
N620 H627 0.984 . S
N621 C614 1.356 . S
N621 H624 0.984 . S
N621 H625 0.985 . S
H622 N617 0.984 . S
H623 N617 0.985 . S
H624 N621 0.984 . S
H625 N621 0.985 . S
H626 N620 0.984 . S
H627 N620 0.984 . S
H628 N616 0.984 . S
H629 N616 0.985 . S
C630 C631 1.363 . S
C630 C636 1.379 . S
C630 N638 1.356 . S
C631 C630 1.363 . S
C631 C637 1.363 . S
C632 C633 1.363 . S
C632 C637 1.379 . S
C632 N639 1.356 . S
C633 C632 1.363 . S
C633 C636 1.363 . S
N634 C636 1.356 . S
N634 H646 0.984 . S
N634 H647 0.985 . S
N635 C637 1.356 . S
N635 H640 0.984 . S
N635 H641 0.985 . S
C636 C630 1.379 . S
C636 C633 1.363 . S
C636 N634 1.356 . S
C637 C631 1.363 . S
C637 C632 1.379 . S
C637 N635 1.356 . S
N638 C630 1.356 . S
N638 H644 0.984 . S
N638 H645 0.984 . S
N639 C632 1.356 . S
N639 H642 0.984 . S
N639 H643 0.985 . S
H640 N635 0.984 . S
H641 N635 0.985 . S
H642 N639 0.984 . S
H643 N639 0.985 . S
H644 N638 0.984 . S
H645 N638 0.984 . S
H646 N634 0.984 . S
H647 N634 0.985 . S
C648 C649 1.363 . S
C648 C654 1.379 . S
C648 N656 1.356 . S
C649 C648 1.363 . S
C649 C655 1.363 . S
C650 C651 1.363 . S
C650 C655 1.379 . S
C650 N657 1.356 . S
C651 C650 1.363 . S
C651 C654 1.363 . S
N652 C654 1.356 . S
N652 H664 0.984 . S
N652 H665 0.985 . S
N653 C655 1.356 . S
N653 H658 0.984 . S
N653 H659 0.985 . S
C654 C648 1.379 . S
C654 C651 1.363 . S
C654 N652 1.356 . S
C655 C649 1.363 . S
C655 C650 1.379 . S
C655 N653 1.356 . S
N656 C648 1.356 . S
N656 H662 0.984 . S
N656 H663 0.984 . S
N657 C650 1.356 . S
N657 H660 0.984 . S
N657 H661 0.985 . S
H658 N653 0.984 . S
H659 N653 0.985 . S
H660 N657 0.984 . S
H661 N657 0.985 . S
H662 N656 0.984 . S
H663 N656 0.984 . S
H664 N652 0.984 . S
H665 N652 0.985 . S
C666 C667 1.363 . S
C666 C672 1.379 . S
C666 N674 1.356 . S
C667 C666 1.363 . S
C667 C673 1.363 . S
C668 C669 1.363 . S
C668 C673 1.379 . S
C668 N675 1.356 . S
C669 C668 1.363 . S
C669 C672 1.363 . S
N670 C672 1.356 . S
N670 H682 0.984 . S
N670 H683 0.985 . S
N671 C673 1.356 . S
N671 H676 0.984 . S
N671 H677 0.985 . S
C672 C666 1.379 . S
C672 C669 1.363 . S
C672 N670 1.356 . S
C673 C667 1.363 . S
C673 C668 1.379 . S
C673 N671 1.356 . S
N674 C666 1.356 . S
N674 H680 0.984 . S
N674 H681 0.984 . S
N675 C668 1.356 . S
N675 H678 0.984 . S
N675 H679 0.985 1_556 S
H676 N671 0.984 . S
H677 N671 0.985 . S
H678 N675 0.984 . S
H679 N675 0.985 1_554 S
H680 N674 0.984 . S
H681 N674 0.984 . S
H682 N670 0.984 . S
H683 N670 0.985 . S
C684 C685 1.384 . S
C684 C690 1.385 . S
C684 N692 1.334 1_455 S
C685 C684 1.384 . S
C685 C691 1.363 . S
C686 C687 1.363 . S
C686 C691 1.379 . S
C686 N693 1.356 . S
C687 C686 1.363 . S
C687 C690 1.363 . S
N688 C690 1.356 . S
N688 H700 0.975 1_455 S
N688 H701 0.985 . S
N689 C691 1.356 . S
N689 H694 0.984 . S
N689 H695 0.985 . S
C690 C684 1.385 . S
C690 C687 1.363 . S
C690 N688 1.356 . S
C691 C685 1.363 . S
C691 C686 1.379 . S
C691 N689 1.356 . S
N692 C684 1.334 1_655 S
N692 H698 0.984 . S
N692 H699 0.984 . S
N693 C686 1.356 . S
N693 H696 0.984 . S
N693 H697 0.985 . S
H694 N689 0.984 . S
H695 N689 0.985 . S
H696 N693 0.984 . S
H697 N693 0.985 . S
H698 N692 0.984 . S
H699 N692 0.984 . S
H700 N688 0.975 1_655 S
H701 N688 0.985 . S
C702 C703 1.363 . S
C702 C708 1.379 . S
C702 N710 1.356 . S
C703 C702 1.363 . S
C703 C709 1.363 . S
C704 C705 1.363 . S
C704 C709 1.379 . S
C704 N711 1.356 . S
C705 C704 1.363 . S
C705 C708 1.363 . S
N706 C708 1.356 . S
N706 H718 0.984 . S
N706 H719 0.985 . S
N707 C709 1.356 . S
N707 H712 0.984 . S
N707 H713 0.985 . S
C708 C702 1.379 . S
C708 C705 1.363 . S
C708 N706 1.356 . S
C709 C703 1.363 . S
C709 C704 1.379 . S
C709 N707 1.356 . S
N710 C702 1.356 . S
N710 H716 0.984 . S
N710 H717 0.984 . S
N711 C704 1.356 . S
N711 H714 0.984 . S
N711 H715 0.985 . S
H712 N707 0.984 . S
H713 N707 0.985 . S
H714 N711 0.984 . S
H715 N711 0.985 . S
H716 N710 0.984 . S
H717 N710 0.984 . S
H718 N706 0.984 . S
H719 N706 0.985 . S
C720 C721 1.363 1_565 S
C720 C726 1.379 . S
C720 N728 1.356 . S
C721 C720 1.363 1_545 S
C721 C727 1.363 . S
C722 C723 1.363 . S
C722 C727 1.379 . S
C722 N729 1.356 . S
C723 C722 1.363 . S
C723 C726 1.363 1_545 S
N724 C726 1.356 . S
N724 H736 0.984 . S
N724 H737 0.985 . S
N725 C727 1.356 . S
N725 H730 0.984 . S
N725 H731 0.985 . S
C726 C720 1.379 . S
C726 C723 1.363 1_565 S
C726 N724 1.356 . S
C727 C721 1.363 . S
C727 C722 1.379 . S
C727 N725 1.356 . S
N728 C720 1.356 . S
N728 H734 0.984 . S
N728 H735 0.984 . S
N729 C722 1.356 . S
N729 H732 0.984 . S
N729 H733 0.985 . S
H730 N725 0.984 . S
H731 N725 0.985 . S
H732 N729 0.984 . S
H733 N729 0.985 . S
H734 N728 0.984 . S
H735 N728 0.984 . S
H736 N724 0.984 . S
H737 N724 0.985 . S
C738 C739 1.363 . S
C738 C744 1.379 . S
C738 N746 1.356 . S
C739 C738 1.363 . S
C739 C745 1.363 . S
C740 C741 1.363 . S
C740 C745 1.379 . S
C740 N747 1.356 1_556 S
C741 C740 1.363 . S
C741 C744 1.363 . S
N742 C744 1.356 . S
N742 H754 0.984 . S
N742 H755 0.985 1_556 S
N743 C745 1.356 . S
N743 H748 0.984 . S
N743 H749 0.985 . S
C744 C738 1.379 . S
C744 C741 1.363 . S
C744 N742 1.356 . S
C745 C739 1.363 . S
C745 C740 1.379 . S
C745 N743 1.356 . S
N746 C738 1.356 . S
N746 H752 0.984 . S
N746 H753 0.984 . S
N747 C740 1.356 1_554 S
N747 H750 0.984 . S
N747 H751 0.985 1_554 S
H748 N743 0.984 . S
H749 N743 0.985 . S
H750 N747 0.984 . S
H751 N747 0.985 1_556 S
H752 N746 0.984 . S
H753 N746 0.984 . S
H754 N742 0.984 . S
H755 N742 0.985 1_554 S
C756 C757 1.363 . S
C756 C762 1.379 . S
C756 N764 1.356 . S
C757 C756 1.363 . S
C757 C763 1.363 . S
C758 C759 1.363 . S
C758 C763 1.379 . S
C758 N765 1.356 1_556 S
C759 C758 1.363 . S
C759 C762 1.363 . S
N760 C762 1.356 . S
N760 H772 0.984 . S
N760 H773 0.985 1_556 S
N761 C763 1.356 . S
N761 H766 0.984 . S
N761 H767 0.985 . S
C762 C756 1.379 . S
C762 C759 1.363 . S
C762 N760 1.356 . S
C763 C757 1.363 . S
C763 C758 1.379 . S
C763 N761 1.356 . S
N764 C756 1.356 . S
N764 H770 0.984 . S
N764 H771 0.984 . S
N765 C758 1.356 1_554 S
N765 H768 0.984 . S
N765 H769 0.985 . S
H766 N761 0.984 . S
H767 N761 0.985 . S
H768 N765 0.984 . S
H769 N765 0.985 . S
H770 N764 0.984 . S
H771 N764 0.984 . S
H772 N760 0.984 . S
H773 N760 0.985 1_554 S
C774 C775 1.363 . S
C774 C780 1.379 . S
C774 N782 1.356 . S
C775 C774 1.363 . S
C775 C781 1.363 . S
C776 C777 1.363 . S
C776 C781 1.379 . S
C776 N783 1.356 . S
C777 C776 1.363 . S
C777 C780 1.363 . S
N778 C780 1.356 1_554 S
N778 H790 0.984 . S
N778 H791 0.985 . S
N779 C781 1.356 . S
N779 H784 0.984 . S
N779 H785 0.985 . S
C780 C774 1.379 . S
C780 C777 1.363 . S
C780 N778 1.356 1_556 S
C781 C775 1.363 . S
C781 C776 1.379 . S
C781 N779 1.356 . S
N782 C774 1.356 . S
N782 H788 0.984 . S
N782 H789 0.984 . S
N783 C776 1.356 . S
N783 H786 0.984 1_556 S
N783 H787 0.985 . S
H784 N779 0.984 . S
H785 N779 0.985 . S
H786 N783 0.984 1_554 S
H787 N783 0.985 . S
H788 N782 0.984 . S
H789 N782 0.984 . S
H790 N778 0.984 . S
H791 N778 0.985 . S
C792 C793 1.363 . S
C792 C798 1.379 . S
C792 N800 1.356 . S
C793 C792 1.363 . S
C793 C799 1.363 . S
C794 C795 1.363 . S
C794 C799 1.379 . S
C794 N801 1.356 1_554 S
C795 C794 1.363 . S
C795 C798 1.363 . S
N796 C798 1.356 . S
N796 H808 0.984 . S
N796 H809 0.985 1_554 S
N797 C799 1.356 . S
N797 H802 0.984 . S
N797 H803 0.985 . S
C798 C792 1.379 . S
C798 C795 1.363 . S
C798 N796 1.356 . S
C799 C793 1.363 . S
C799 C794 1.379 . S
C799 N797 1.356 . S
N800 C792 1.356 . S
N800 H806 0.984 . S
N800 H807 0.984 . S
N801 C794 1.356 1_556 S
N801 H804 0.984 . S
N801 H805 0.985 . S
H802 N797 0.984 . S
H803 N797 0.985 . S
H804 N801 0.984 . S
H805 N801 0.985 . S
H806 N800 0.984 . S
H807 N800 0.984 . S
H808 N796 0.984 . S
H809 N796 0.985 1_556 S
C810 C811 1.363 . S
C810 C816 1.379 . S
C810 N818 1.356 1_554 S
C811 C810 1.363 . S
C811 C817 1.363 . S
C812 C813 1.363 . S
C812 C817 1.379 . S
C812 N819 1.356 . S
C813 C812 1.363 . S
C813 C816 1.363 . S
N814 C816 1.356 . S
N814 H826 0.984 . S
N814 H827 0.985 . S
N815 C817 1.356 . S
N815 H820 0.984 1_554 S
N815 H821 0.985 . S
C816 C810 1.379 . S
C816 C813 1.363 . S
C816 N814 1.356 . S
C817 C811 1.363 . S
C817 C812 1.379 . S
C817 N815 1.356 . S
N818 C810 1.356 1_556 S
N818 H824 0.984 . S
N818 H825 0.984 . S
N819 C812 1.356 . S
N819 H822 0.984 . S
N819 H823 0.985 . S
H820 N815 0.984 1_556 S
H821 N815 0.985 . S
H822 N819 0.984 . S
H823 N819 0.985 . S
H824 N818 0.984 . S
H825 N818 0.984 . S
H826 N814 0.984 . S
H827 N814 0.985 . S
C828 C829 1.363 . S
C828 C834 1.379 . S
C828 N836 1.356 . S
C829 C828 1.363 . S
C829 C835 1.363 . S
C830 C831 1.363 . S
C830 C835 1.379 . S
C830 N837 1.356 . S
C831 C830 1.363 . S
C831 C834 1.363 . S
N832 C834 1.356 . S
N832 H844 0.984 . S
N832 H845 0.985 1_554 S
N833 C835 1.356 . S
N833 H838 0.984 . S
N833 H839 0.985 . S
C834 C828 1.379 . S
C834 C831 1.363 . S
C834 N832 1.356 . S
C835 C829 1.363 . S
C835 C830 1.379 . S
C835 N833 1.356 . S
N836 C828 1.356 . S
N836 H842 0.984 . S
N836 H843 0.984 . S
N837 C830 1.356 . S
N837 H840 0.984 1_554 S
N837 H841 0.985 . S
H838 N833 0.984 . S
H839 N833 0.985 . S
H840 N837 0.984 1_556 S
H841 N837 0.985 . S
H842 N836 0.984 . S
H843 N836 0.984 . S
H844 N832 0.984 . S
H845 N832 0.985 1_556 S
C361 C6 1.871 . S
C363 C290 1.793 . S
C379 C46 1.870 . S
C381 C330 1.793 . S
C397 C86 1.871 . S
C399 C250 1.793 . S
C415 C166 1.872 . S
C417 C90 1.794 . S
C433 C206 1.871 . S
C435 C10 1.794 . S
C451 C50 1.793 . S
C453 C126 1.871 . S
C469 C286 1.871 1_655 S
C471 C210 1.793 . S
C487 C326 1.870 . S
C489 C130 1.793 . S
C505 C170 1.793 . S
C507 C246 1.871 . S
C523 C95 1.659 . S
C525 C19 1.677 1_554 S
C541 C59 1.676 1_554 S
C543 C15 1.659 1_565 S
C559 C55 1.659 . S
C561 C99 1.676 1_554 S
C577 C139 1.677 . S
C579 C215 1.660 . S
C595 C135 1.659 . S
C597 C179 1.676 . S
C613 C175 1.659 . S
C615 C219 1.676 . S
C631 C335 1.660 . S
C633 C259 1.677 . S
C649 C299 1.676 . S
C651 C255 1.659 . S
C667 C339 1.676 . S
C669 C295 1.659 . S
C685 C18 1.111 1_455 S
C687 C9 1.111 . S
C703 C58 1.111 . S
C705 C49 1.111 . S
C721 C98 1.111 . S
C723 C89 1.111 1_545 S
C739 C129 1.111 . S
C741 C138 1.111 1_556 S
C757 C169 1.111 . S
C759 C178 1.111 1_556 S
C775 C209 1.111 . S
C777 C218 1.111 1_556 S
C793 C258 1.111 . S
C795 C249 1.111 1_554 S
C811 C289 1.111 1_554 S
C813 C298 1.111 . S
C829 C338 1.111 . S
C831 C329 1.111 1_554 S
