# Generated by pormake.
# Topology umf, (4)-cn, num edge types: 1
# Building blocks:
#     Node 0, Type 0, BuildingBlock: CEKHIL_clean_sbu_0, # of connection points: 4
#     Node 1, Type 0, BuildingBlock: CEKHIL_clean_sbu_0, # of connection points: 4
#     Node 2, Type 0, BuildingBlock: CEKHIL_clean_sbu_0, # of connection points: 4
#     Node 3, Type 0, BuildingBlock: CEKHIL_clean_sbu_0, # of connection points: 4
#     Node 4, Type 0, BuildingBlock: CEKHIL_clean_sbu_0, # of connection points: 4
#     Node 5, Type 0, BuildingBlock: CEKHIL_clean_sbu_0, # of connection points: 4
#     Node 6, Type 0, BuildingBlock: CEKHIL_clean_sbu_0, # of connection points: 4
#     Node 7, Type 0, BuildingBlock: CEKHIL_clean_sbu_0, # of connection points: 4
#     Edge 8, Type (0, 0), BuildingBlock: KIFKEQ_clean_linker_1, # of connection points: 2
#     Edge 9, Type (0, 0), BuildingBlock: KIFKEQ_clean_linker_1, # of connection points: 2
#     Edge 10, Type (0, 0), BuildingBlock: KIFKEQ_clean_linker_1, # of connection points: 2
#     Edge 11, Type (0, 0), BuildingBlock: KIFKEQ_clean_linker_1, # of connection points: 2
#     Edge 12, Type (0, 0), BuildingBlock: KIFKEQ_clean_linker_1, # of connection points: 2
#     Edge 13, Type (0, 0), BuildingBlock: KIFKEQ_clean_linker_1, # of connection points: 2
#     Edge 14, Type (0, 0), BuildingBlock: KIFKEQ_clean_linker_1, # of connection points: 2
#     Edge 15, Type (0, 0), BuildingBlock: KIFKEQ_clean_linker_1, # of connection points: 2
#     Edge 16, Type (0, 0), BuildingBlock: KIFKEQ_clean_linker_1, # of connection points: 2
#     Edge 17, Type (0, 0), BuildingBlock: KIFKEQ_clean_linker_1, # of connection points: 2
#     Edge 18, Type (0, 0), BuildingBlock: KIFKEQ_clean_linker_1, # of connection points: 2
#     Edge 19, Type (0, 0), BuildingBlock: KIFKEQ_clean_linker_1, # of connection points: 2
#     Edge 20, Type (0, 0), BuildingBlock: KIFKEQ_clean_linker_1, # of connection points: 2
#     Edge 21, Type (0, 0), BuildingBlock: KIFKEQ_clean_linker_1, # of connection points: 2
#     Edge 22, Type (0, 0), BuildingBlock: KIFKEQ_clean_linker_1, # of connection points: 2
#     Edge 23, Type (0, 0), BuildingBlock: KIFKEQ_clean_linker_1, # of connection points: 2
# Relax obj value: 0.165
# Max RMSD: 0.288
# Mean RMSD: 0.281
data_MOF--net-umf--node1-CEKHIL_clean_sbu_0--edge1-KIFKEQ_clean_linker_1
_symmetry_space_group_name_H-M    P1
_symmetry_Int_Tables_number       1
_symmetry_cell_setting            triclinic
loop_
_symmetry_equiv_pos_as_xyz
'x, y, z'
_cell_length_a     28.426533
_cell_length_b     27.072532
_cell_length_c     53.300645
_cell_angle_alpha  90.004616
_cell_angle_beta   89.991237
_cell_angle_gamma 90.008868
loop_
_atom_site_label
_atom_site_type_symbol
_atom_site_fract_x
_atom_site_fract_y
_atom_site_fract_z
_atom_type_partial_charge
Co0 Co 0.06681 0.24535 0.14879 0.0
O1 O 0.09326 0.26885 0.17944 0.0
O2 O 0.12794 0.21438 0.15464 0.0
C3 C 0.04393 0.31928 0.1348 0.0
O4 O 0.04735 0.21635 0.11457 0.0
Co5 Co 0.95949 0.25479 0.14528 0.0
O6 O 0.97045 0.23526 0.11007 0.0
C7 C 0.99735 0.17459 0.17494 0.0
C8 C 0.12838 0.2397 0.17552 0.0
C9 C 0.00893 0.21795 0.10151 0.0
O10 O 0.03784 0.18868 0.1673 0.0
O11 O 0.95947 0.1975 0.16934 0.0
O12 O 0.08684 0.30414 0.13148 0.0
O13 O 0.01796 0.29186 0.14921 0.0
Co14 Co 0.74517 0.08292 0.64108 0.0
O15 O 0.67976 0.09572 0.63727 0.0
O16 O 0.71021 0.02111 0.64236 0.0
C17 C 0.75903 0.14039 0.6703 0.0
O18 O 0.81306 0.05927 0.64637 0.0
Co19 Co 0.8097 0.16492 0.62182 0.0
O20 O 0.85707 0.12772 0.64105 0.0
C21 C 0.77328 0.09461 0.58527 0.0
C22 C 0.673 0.04872 0.6393 0.0
C23 C 0.85274 0.0826 0.64739 0.0
O24 O 0.75157 0.0744 0.60369 0.0
O25 O 0.79854 0.13337 0.58797 0.0
O26 O 0.74195 0.09774 0.67628 0.0
O27 O 0.76065 0.15033 0.64639 0.0
Co28 Co 0.94952 0.74811 0.15211 0.0
O29 O 0.92662 0.72447 0.1835 0.0
O30 O 0.88781 0.7768 0.15933 0.0
C31 C 0.97285 0.6746 0.13773 0.0
O32 O 0.96526 0.77699 0.11732 0.0
Co33 Co 0.05667 0.74096 0.14602 0.0
O34 O 0.04147 0.7574 0.11085 0.0
C35 C 0.01948 0.82133 0.17596 0.0
C36 C 0.88994 0.75175 0.18026 0.0
C37 C 0.00228 0.77457 0.10317 0.0
O38 O 0.97863 0.80597 0.16958 0.0
O39 O 0.0573 0.79915 0.16952 0.0
O40 O 0.92937 0.68857 0.13554 0.0
O41 O -0.00059 0.70275 0.15146 0.0
Co42 Co 0.26334 0.90177 0.64637 0.0
O43 O 0.32804 0.8874 0.64072 0.0
O44 O 0.30007 0.96233 0.64812 0.0
C45 C 0.25023 0.84198 0.67465 0.0
O46 O 0.19674 0.9269 0.65359 0.0
Co47 Co 0.19553 0.82241 0.62673 0.0
O48 O 0.15008 0.86088 0.64683 0.0
C49 C 0.23211 0.89412 0.59084 0.0
C50 C 0.33624 0.93398 0.64364 0.0
C51 C 0.15633 0.90501 0.65449 0.0
O52 O 0.25371 0.91388 0.60942 0.0
O53 O 0.20827 0.85424 0.59309 0.0
O54 O 0.26919 0.88343 0.68118 0.0
O55 O 0.24611 0.83473 0.6506 0.0
Co56 Co 0.07625 0.74667 0.8673 0.0
O57 O 0.10275 0.72823 0.83582 0.0
O58 O 0.13868 0.77614 0.86351 0.0
C59 C 0.05055 0.67159 0.87723 0.0
O60 O 0.05612 0.76957 0.90257 0.0
Co61 Co 0.96763 0.73869 0.86932 0.0
O62 O 0.98048 0.74478 0.90575 0.0
C63 C 0.00934 0.82218 0.84327 0.0
C64 C 0.13905 0.75438 0.84163 0.0
C65 C 0.01825 0.76153 0.9155 0.0
O66 O 0.04911 0.80747 0.85171 0.0
O67 O 0.97128 0.79771 0.8464 0.0
O68 O 0.09408 0.68356 0.88143 0.0
O69 O 0.02611 0.70295 0.86435 0.0
Co70 Co 0.24548 0.07695 0.3715 0.0
O71 O 0.31137 0.08789 0.37391 0.0
O72 O 0.27832 0.01405 0.36975 0.0
C73 C 0.23115 0.13513 0.34273 0.0
O74 O 0.17701 0.05515 0.36722 0.0
Co75 Co 0.18367 0.15937 0.39229 0.0
O76 O 0.13568 0.12553 0.37168 0.0
C77 C 0.22239 0.08901 0.42799 0.0
C78 C 0.31642 0.04066 0.37169 0.0
C79 C 0.13861 0.08037 0.36515 0.0
O80 O 0.24107 0.06799 0.4089 0.0
O81 O 0.19881 0.1291 0.42605 0.0
O82 O 0.24692 0.09212 0.33633 0.0
O83 O 0.23109 0.14477 0.36671 0.0
Co84 Co 0.91226 0.25135 0.86672 0.0
O85 O 0.88791 0.26912 0.83468 0.0
O86 O 0.85125 0.21952 0.86126 0.0
C87 C 0.93463 0.32725 0.87734 0.0
O88 O 0.93057 0.22893 0.9024 0.0
Co89 Co 0.02046 0.26337 0.87066 0.0
O90 O 0.00499 0.25717 0.90678 0.0
C91 C 0.98335 0.17858 0.84382 0.0
C92 C 0.85217 0.24135 0.8394 0.0
C93 C 0.96732 0.23886 0.91591 0.0
O94 O 0.94266 0.19177 0.85164 0.0
O95 O 0.02038 0.20435 0.84764 0.0
O96 O 0.89118 0.31378 0.88052 0.0
O97 O 0.96099 0.29684 0.86497 0.0
Co98 Co 0.72784 0.90534 0.37142 0.0
O99 O 0.66464 0.88588 0.37827 0.0
O100 O 0.68813 0.96338 0.37336 0.0
C101 C 0.74021 0.85093 0.34035 0.0
O102 O 0.79143 0.93695 0.36297 0.0
Co103 Co 0.80554 0.83223 0.38416 0.0
O104 O 0.84113 0.87272 0.35996 0.0
C105 C 0.7696 0.89455 0.42456 0.0
C106 C 0.65386 0.93226 0.37722 0.0
C107 C 0.83113 0.91791 0.35623 0.0
O108 O 0.74077 0.91195 0.40834 0.0
O109 O 0.79943 0.86078 0.41914 0.0
O110 O 0.71855 0.89222 0.33644 0.0
O111 O 0.74881 0.84027 0.36379 0.0
H112 H 0.09751 0.38574 0.10957 0.0
H113 H 0.96042 0.36653 0.14336 0.0
H114 H 0.08173 0.47347 0.10394 0.0
H115 H 0.9446 0.45453 0.13746 0.0
H116 H 0.92013 0.6096 0.1112 0.0
H117 H 0.93646 0.52246 0.10409 0.0
H118 H 0.07321 0.53996 0.13821 0.0
H119 H 0.05683 0.6275 0.14558 0.0
C120 C 0.06363 0.40006 0.11537 0.0
C121 C 0.03039 0.36956 0.1273 0.0
C122 C 0.05478 0.45026 0.11217 0.0
C123 C 0.01229 0.47062 0.12051 0.0
C124 C 0.97764 0.43952 0.13078 0.0
C125 C 0.98669 0.38929 0.13423 0.0
C126 C 0.95405 0.59513 0.11683 0.0
C127 C 0.98699 0.62503 0.12937 0.0
C128 C 0.96323 0.54527 0.11277 0.0
C129 C 0.00573 0.52461 0.12087 0.0
C130 C 0.04017 0.55523 0.13171 0.0
C131 C 0.0308 0.60518 0.136 0.0
H132 H 0.41253 0.88224 0.62843 0.0
H133 H 0.37053 0.02591 0.65579 0.0
H134 H 0.49391 0.90874 0.62719 0.0
H135 H 0.45293 0.05233 0.65511 0.0
H136 H 0.59542 0.09799 0.62413 0.0
H137 H 0.5143 0.07073 0.62519 0.0
H138 H 0.55869 0.92949 0.65466 0.0
H139 H 0.64089 0.95671 0.65304 0.0
C140 C 0.42072 0.91958 0.63428 0.0
C141 C 0.38509 0.95211 0.64222 0.0
C142 C 0.46754 0.93457 0.63376 0.0
C143 C 0.48 0.98244 0.64122 0.0
C144 C 0.44435 0.01525 0.64901 0.0
C145 C 0.39722 0.00023 0.64945 0.0
C146 C 0.58804 0.06098 0.63079 0.0
C147 C 0.62453 0.02943 0.6386 0.0
C148 C 0.54139 0.04557 0.63158 0.0
C149 C 0.52993 -0.00175 0.6403 0.0
C150 C 0.56647 0.96617 0.6477 0.0
C151 C 0.61348 0.98162 0.64679 0.0
H152 H 0.88408 0.41054 0.87262 0.0
H153 H 0.01928 0.35543 0.89633 0.0
H154 H 0.91134 0.49457 0.8777 0.0
H155 H 0.04574 0.43962 0.90419 0.0
H156 H 0.10045 0.58745 0.87635 0.0
H157 H 0.0716 0.50422 0.88155 0.0
H158 H 0.93337 0.56191 0.89962 0.0
H159 H 0.96209 0.64539 0.89174 0.0
C160 C 0.91936 0.41672 0.87967 0.0
C161 C 0.95001 0.37708 0.88372 0.0
C162 C 0.93496 0.46498 0.88291 0.0
C163 C 0.98115 0.47446 0.89113 0.0
C164 C 0.01055 0.4341 0.89698 0.0
C165 C 0.99544 0.38581 0.89273 0.0
C166 C 0.06396 0.58213 0.88159 0.0
C167 C 0.03318 0.62231 0.88334 0.0
C168 C 0.04737 0.5343 0.88492 0.0
C169 C -0.00015 0.52574 0.89093 0.0
C170 C 0.9698 0.56669 0.89426 0.0
C171 C 0.98614 0.61457 0.88996 0.0
H172 H 0.3474 0.95235 0.39076 0.0
H173 H 0.3928 0.0839 0.35197 0.0
H174 H 0.42956 0.92584 0.39456 0.0
H175 H 0.47392 0.05688 0.35453 0.0
H176 H 0.6181 0.02534 0.38378 0.0
H177 H 0.53527 0.04924 0.3837 0.0
H178 H 0.49544 0.89669 0.37213 0.0
H179 H 0.57755 0.87286 0.37352 0.0
C180 C 0.37491 0.97489 0.3826 0.0
C181 C 0.36411 0.02007 0.37118 0.0
C182 C 0.42191 0.95995 0.38478 0.0
C183 C 0.45852 0.98969 0.3752 0.0
C184 C 0.44698 0.03383 0.36285 0.0
C185 C 0.40041 0.04902 0.36109 0.0
C186 C 0.5915 -0.00295 0.38148 0.0
C187 C 0.60421 0.9474 0.37858 0.0
C188 C 0.54407 0.01063 0.38124 0.0
C189 C 0.5086 0.97488 0.37763 0.0
C190 C 0.52158 0.92511 0.37528 0.0
C191 C 0.5688 0.91152 0.37592 0.0
H192 H 0.92997 0.16143 0.9436 0.0
H193 H 0.00794 0.29759 0.95029 0.0
H194 H 0.94444 0.1445 0.98838 0.0
H195 H 0.02183 0.28134 0.99435 0.0
H196 H 0.07859 0.229 0.06626 0.0
H197 H 0.06806 0.22661 0.02067 0.0
H198 H 0.92545 0.17513 0.03063 0.0
H199 H 0.93638 0.17658 0.07593 0.0
C200 C 0.94938 0.18803 0.9547 0.0
C201 C 0.96801 0.23066 0.94342 0.0
C202 C 0.95809 0.17822 0.98024 0.0
C203 C 0.98552 0.21091 0.99484 0.0
C204 C 0.00213 0.25441 0.98359 0.0
C205 C 0.99358 0.26406 0.95834 0.0
C206 C 0.04568 0.21547 0.05866 0.0
C207 C 0.00823 0.20347 0.07467 0.0
C208 C 0.03929 0.21474 0.03256 0.0
C209 C 0.99543 0.20182 0.02197 0.0
C210 C 0.95957 0.18538 0.03802 0.0
C211 C 0.96587 0.18635 0.06404 0.0
H212 H 0.70546 0.03112 0.56904 0.0
H213 H 0.83681 0.09749 0.54618 0.0
H214 H 0.70549 0.98019 0.53143 0.0
H215 H 0.83673 0.0461 0.50822 0.0
H216 H 0.84296 0.90461 0.45802 0.0
H217 H 0.84407 0.9548 0.49643 0.0
H218 H 0.69743 0.99019 0.48557 0.0
H219 H 0.69628 0.94051 0.44755 0.0
C220 C 0.73416 0.03529 0.55583 0.0
C221 C 0.77103 0.0687 0.56064 0.0
C222 C 0.73415 0.00599 0.53423 0.0
C223 C 0.77125 0.00876 0.51686 0.0
C224 C 0.8079 0.04265 0.52139 0.0
C225 C 0.80762 0.07258 0.54295 0.0
C226 C 0.81081 0.92238 0.46413 0.0
C227 C 0.76949 0.91828 0.44975 0.0
C228 C 0.8116 0.95169 0.48592 0.0
C229 C 0.77091 0.97682 0.49399 0.0
C230 C 0.72933 0.97122 0.48002 0.0
C231 C 0.7287 0.94264 0.45818 0.0
H232 H 0.92569 0.7788 0.07132 0.0
H233 H 0.07596 0.80168 0.07384 0.0
H234 H 0.92808 0.78521 0.02551 0.0
H235 H 0.0788 0.80567 0.02855 0.0
H236 H 0.07136 0.82613 0.94423 0.0
H237 H 0.06324 0.8421 0.98936 0.0
H238 H 0.95378 0.73152 0.99363 0.0
H239 H 0.96083 0.71709 0.94911 0.0
C240 C 0.959 0.78616 0.06219 0.0
C241 C 0.00064 0.78889 0.07625 0.0
C242 C 0.96061 0.78918 0.03588 0.0
C243 C 0.00389 0.79481 0.02313 0.0
C244 C 0.04481 0.80145 0.03746 0.0
C245 C 0.04316 0.7987 0.06359 0.0
C246 C 0.04569 0.80537 0.95492 0.0
C247 C 0.0167 0.77054 0.943 0.0
C248 C 0.04084 0.81451 0.98078 0.0
C249 C 0.00729 0.78859 0.99527 0.0
C250 C 0.97892 0.75344 0.98319 0.0
C251 C 0.98342 0.74474 0.95754 0.0
H252 H 0.25675 -0.00372 0.43629 0.0
H253 H 0.19523 0.12053 0.47529 0.0
H254 H 0.25844 0.94951 0.47511 0.0
H255 H 0.19751 0.07312 0.51453 0.0
H256 H 0.26157 0.98885 0.58266 0.0
H257 H 0.25868 0.0366 0.54404 0.0
H258 H 0.19992 0.91116 0.50516 0.0
H259 H 0.20232 0.86294 0.54407 0.0
C260 C 0.2438 0.01395 0.45316 0.0
C261 C 0.22585 0.06254 0.45251 0.0
C262 C 0.24446 0.98673 0.47544 0.0
C263 C 0.2278 0.00733 0.49788 0.0
C264 C 0.21072 0.05623 0.49751 0.0
C265 C 0.20941 0.08341 0.47504 0.0
C266 C 0.24818 0.97107 0.56591 0.0
C267 C 0.23237 0.92168 0.56657 0.0
C268 C 0.24616 -0.00119 0.54379 0.0
C269 C 0.2289 0.97786 0.52155 0.0
C270 C 0.21363 0.92832 0.522 0.0
C271 C 0.21499 0.90066 0.54429 0.0
H272 H 0.16299 0.1511 0.19122 0.0
H273 H 0.16231 0.30676 0.20853 0.0
H274 H 0.18959 0.13317 0.23395 0.0
H275 H 0.18909 0.28895 0.25117 0.0
H276 H 0.26843 0.21963 0.32293 0.0
H277 H 0.2534 0.24893 0.27993 0.0
H278 H 0.13901 0.14488 0.27335 0.0
H279 H 0.15397 0.11616 0.31578 0.0
C280 C 0.1707 0.18156 0.20375 0.0
C281 C 0.16073 0.23025 0.1966 0.0
C282 C 0.1851 0.17134 0.22834 0.0
C283 C 0.1903 0.2097 0.24602 0.0
C284 C 0.18518 0.25872 0.23802 0.0
C285 C 0.17017 0.26886 0.21357 0.0
C286 C 0.23863 0.20502 0.31266 0.0
C287 C 0.21152 0.1666 0.32289 0.0
C288 C 0.23061 0.22102 0.28794 0.0
C289 C 0.19596 0.19804 0.27309 0.0
C290 C 0.16672 0.16237 0.28412 0.0
C291 C 0.17448 0.14682 0.30868 0.0
H292 H 0.81273 0.30715 0.80775 0.0
H293 H 0.82441 0.15106 0.82255 0.0
H294 H 0.78868 0.2898 0.76463 0.0
H295 H 0.80045 0.13348 0.77932 0.0
H296 H 0.83697 0.12404 0.69715 0.0
H297 H 0.84927 0.15031 0.74033 0.0
H298 H 0.72979 0.2481 0.73472 0.0
H299 H 0.71752 0.22129 0.69113 0.0
C300 C 0.80792 0.26904 0.80207 0.0
C301 C 0.81998 0.23038 0.8185 0.0
C302 C 0.79462 0.25916 0.77731 0.0
C303 C 0.79387 0.2104 0.76845 0.0
C304 C 0.80163 0.17154 0.78557 0.0
C305 C 0.81437 0.18145 0.81046 0.0
C306 C 0.81474 0.15292 0.70472 0.0
C307 C 0.77713 0.17168 0.69059 0.0
C308 C 0.82097 0.16699 0.72967 0.0
C309 C 0.78961 0.20013 0.74113 0.0
C310 C 0.75427 0.22217 0.72641 0.0
C311 C 0.7478 0.20766 0.70134 0.0
H312 H 0.81737 0.78988 0.3341 0.0
H313 H 0.69384 0.84583 0.29656 0.0
H314 H 0.84724 0.7594 0.29375 0.0
H315 H 0.72287 0.81491 0.2567 0.0
H316 H 0.82833 0.82779 0.18982 0.0
H317 H 0.78661 0.84276 0.22929 0.0
H318 H 0.83586 0.7028 0.25799 0.0
H319 H 0.87749 0.6881 0.21882 0.0
C320 C 0.79605 0.79434 0.31743 0.0
C321 C 0.75372 0.82082 0.31839 0.0
C322 C 0.81308 0.77705 0.29429 0.0
C323 C 0.78779 0.78576 0.27191 0.0
C324 C 0.74375 0.80876 0.27341 0.0
C325 C 0.72699 0.82606 0.29633 0.0
C326 C 0.82909 0.79973 0.2043 0.0
C327 C 0.8563 0.75698 0.20126 0.0
C328 C 0.80539 0.80826 0.22697 0.0
C329 C 0.80849 0.77415 0.24694 0.0
C330 C 0.83353 0.73018 0.24323 0.0
C331 C 0.85703 0.72167 0.22066 0.0
H332 H 0.29784 0.77124 0.70011 0.0
H333 H 0.16475 0.84706 0.69637 0.0
H334 H 0.2808 0.74713 0.74364 0.0
H335 H 0.14811 0.82394 0.73953 0.0
H336 H 0.16541 0.84305 0.8227 0.0
H337 H 0.19441 0.85578 0.77989 0.0
H338 H 0.2154 0.69878 0.77165 0.0
H339 H 0.18552 0.68608 0.81427 0.0
C340 C 0.26392 0.78046 0.70812 0.0
C341 C 0.23199 0.80977 0.69456 0.0
C342 C 0.25462 0.76755 0.73314 0.0
C343 C 0.21375 0.78489 0.74506 0.0
C344 C 0.18032 0.81092 0.7309 0.0
C345 C 0.18933 0.82313 0.70592 0.0
C346 C 0.17852 0.81163 0.81221 0.0
C347 C 0.17392 0.76371 0.82183 0.0
C348 C 0.19421 0.81873 0.78757 0.0
C349 C 0.2062 0.77806 0.77238 0.0
C350 C 0.20627 0.73065 0.78294 0.0
C351 C 0.18973 0.7235 0.8074 0.0
H352 H 0.0664 0.13255 0.20301 0.0
H353 H 0.9256 0.10717 0.17543 0.0
H354 H 0.07365 0.0454 0.21363 0.0
H355 H 0.93304 0.01983 0.18567 0.0
H356 H 0.95132 0.86421 0.20441 0.0
H357 H 0.94443 0.95158 0.21462 0.0
H358 H 0.0838 0.97669 0.18483 0.0
H359 H 0.09094 0.88914 0.17501 0.0
C360 C 0.03649 0.10853 0.19984 0.0
C361 C 0.99568 0.12644 0.18795 0.0
C362 C 0.04078 0.05856 0.20582 0.0
C363 C 0.0044 0.02545 0.20001 0.0
C364 C 0.96175 0.04433 0.19051 0.0
C365 C 0.95737 0.09448 0.18461 0.0
C366 C 0.98107 0.88818 0.20072 0.0
C367 C 0.02141 0.87003 0.18847 0.0
C368 C 0.97696 0.93827 0.20647 0.0
C369 C 0.01307 0.9713 0.20006 0.0
C370 C 0.05532 0.95226 0.19014 0.0
C371 C 0.05951 0.90199 0.18446 0.0
H372 H 0.06894 0.86641 0.66162 0.0
H373 H 0.14646 0.00343 0.66703 0.0
H374 H 0.99594 0.9104 0.66622 0.0
H375 H 0.07258 0.04771 0.67346 0.0
H376 H 0.94133 0.11077 0.63587 0.0
H377 H 0.01422 0.07017 0.6454 0.0
H378 H 0.93859 0.95706 0.6862 0.0
H379 H 0.86407 -0.00259 0.6754 0.0
C380 C 0.07057 0.90601 0.66439 0.0
C381 C 0.11366 0.93164 0.66304 0.0
C382 C 0.02833 0.93129 0.66742 0.0
C383 C 0.02792 0.9829 0.66961 0.0
C384 C 0.0714 0.00805 0.67094 0.0
C385 C 0.11388 0.9827 0.66748 0.0
C386 C 0.93993 0.07744 0.6471 0.0
C387 C 0.89667 0.05709 0.65471 0.0
C388 C 0.98218 0.05436 0.65289 0.0
C389 C 0.98278 0.01036 0.66679 0.0
C390 C 0.93954 0.99062 0.67518 0.0
C391 C 0.8968 0.01359 0.66901 0.0
H392 H 0.06062 0.13373 0.82229 0.0
H393 H 0.9134 0.1107 0.83899 0.0
H394 H 0.06762 0.0471 0.81028 0.0
H395 H 0.92098 0.02472 0.82911 0.0
H396 H 0.07977 0.89009 0.84266 0.0
H397 H 0.07405 0.97636 0.83297 0.0
H398 H 0.93158 0.95459 0.80644 0.0
H399 H 0.93634 0.86767 0.81822 0.0
C400 C 0.02974 0.11038 0.82322 0.0
C401 C 0.9869 0.12891 0.83232 0.0
C402 C 0.03371 0.06054 0.81651 0.0
C403 C 0.99526 0.02803 0.8194 0.0
C404 C 0.95153 0.04794 0.82641 0.0
C405 C 0.94733 0.09769 0.8325 0.0
C406 C 0.04723 0.90332 0.83448 0.0
C407 C 0.00789 0.87216 0.83203 0.0
C408 C 0.04415 0.95323 0.82853 0.0
C409 C 0.00192 0.97335 0.8194 0.0
C410 C 0.96417 0.94097 0.81433 0.0
C411 C 0.96689 0.89098 0.82091 0.0
H412 H 0.84906 0.01457 0.36781 0.0
H413 H 0.9024 0.89063 0.32546 0.0
H414 H 0.92497 0.05597 0.36344 0.0
H415 H 0.97804 0.932 0.32096 0.0
H416 H 0.11598 0.98172 0.36302 0.0
H417 H 0.03879 0.94656 0.35342 0.0
H418 H 0.98584 0.09216 0.33607 0.0
H419 H 0.06241 0.12721 0.34575 0.0
C420 C 0.87636 -0.00292 0.35675 0.0
C421 C 0.87015 0.94918 0.34732 0.0
C422 C 0.91994 0.02062 0.35431 0.0
C423 C 0.95776 -0.00337 0.34231 0.0
C424 C 0.94991 0.95082 0.33079 0.0
C425 C 0.90651 0.92738 0.33323 0.0
C426 C 0.08811 0.00598 0.35669 0.0
C427 C 0.09501 0.05723 0.35566 0.0
C428 C 0.04394 0.98593 0.3511 0.0
C429 C 0.00611 0.01681 0.34428 0.0
C430 C 0.01402 0.06762 0.34171 0.0
C431 C 0.05796 0.08758 0.34728 0.0
loop_
_geom_bond_atom_site_label_1
_geom_bond_atom_site_label_2
_geom_bond_distance
_geom_bond_site_symmetry_2
_ccdc_geom_bond_type
Co0 O1 2.216 . S
Co0 O2 2.091 . S
Co0 O4 2.004 . S
Co0 O10 2.021 . S
Co0 O12 2.137 . S
Co0 O13 2.244 . S
O1 Co0 2.216 . S
O1 C8 1.247 . S
O2 Co0 2.091 . S
O2 C8 1.261 . S
C3 O12 1.247 . S
C3 O13 1.272 . S
O4 Co0 2.004 . S
O4 C9 1.259 . S
Co5 O6 2.061 1_655 S
Co5 O11 2.052 1_655 S
Co5 O13 2.135 1_655 S
O6 Co5 2.061 1_455 S
O6 C9 1.235 . S
C7 O10 1.238 . S
C7 O11 1.241 . S
C8 O1 1.247 . S
C8 O2 1.261 . S
C9 O4 1.259 . S
C9 O6 1.235 . S
O10 Co0 2.021 . S
O10 C7 1.238 . S
O11 Co5 2.052 1_455 S
O11 C7 1.241 . S
O12 Co0 2.137 . S
O12 C3 1.247 . S
O13 Co0 2.244 . S
O13 C3 1.272 . S
O13 Co5 2.135 1_455 S
Co14 O15 2.216 . S
Co14 O16 2.091 . S
Co14 O18 2.004 . S
Co14 O24 2.021 . S
Co14 O26 2.137 . S
Co14 O27 2.244 . S
O15 Co14 2.216 . S
O15 C22 1.247 . S
O16 Co14 2.091 . S
O16 C22 1.261 . S
C17 O26 1.247 . S
C17 O27 1.272 . S
O18 Co14 2.004 . S
O18 C23 1.259 . S
Co19 O20 2.061 . S
Co19 O25 2.052 . S
Co19 O27 2.135 . S
O20 Co19 2.061 . S
O20 C23 1.235 . S
C21 O24 1.238 . S
C21 O25 1.241 . S
C22 O15 1.247 . S
C22 O16 1.261 . S
C23 O18 1.259 . S
C23 O20 1.235 . S
O24 Co14 2.021 . S
O24 C21 1.238 . S
O25 Co19 2.052 . S
O25 C21 1.241 . S
O26 Co14 2.137 . S
O26 C17 1.247 . S
O27 Co14 2.244 . S
O27 C17 1.272 . S
O27 Co19 2.135 . S
Co28 O29 2.216 . S
Co28 O30 2.091 . S
Co28 O32 2.004 . S
Co28 O38 2.021 . S
Co28 O40 2.137 . S
Co28 O41 2.244 . S
O29 Co28 2.216 . S
O29 C36 1.247 . S
O30 Co28 2.091 . S
O30 C36 1.261 . S
C31 O40 1.247 . S
C31 O41 1.272 . S
O32 Co28 2.004 . S
O32 C37 1.259 . S
Co33 O34 2.061 1_455 S
Co33 O39 2.052 1_455 S
Co33 O41 2.135 1_455 S
O34 Co33 2.061 1_655 S
O34 C37 1.235 . S
C35 O38 1.238 . S
C35 O39 1.241 . S
C36 O29 1.247 . S
C36 O30 1.261 . S
C37 O32 1.259 . S
C37 O34 1.235 . S
O38 Co28 2.021 . S
O38 C35 1.238 . S
O39 Co33 2.052 1_655 S
O39 C35 1.241 . S
O40 Co28 2.137 . S
O40 C31 1.247 . S
O41 Co28 2.244 . S
O41 C31 1.272 . S
O41 Co33 2.135 1_655 S
Co42 O43 2.216 . S
Co42 O44 2.091 . S
Co42 O46 2.004 . S
Co42 O52 2.021 . S
Co42 O54 2.137 . S
Co42 O55 2.244 . S
O43 Co42 2.216 . S
O43 C50 1.247 . S
O44 Co42 2.091 . S
O44 C50 1.261 . S
C45 O54 1.247 . S
C45 O55 1.272 . S
O46 Co42 2.004 . S
O46 C51 1.259 . S
Co47 O48 2.061 . S
Co47 O53 2.052 . S
Co47 O55 2.135 . S
O48 Co47 2.061 . S
O48 C51 1.235 . S
C49 O52 1.238 . S
C49 O53 1.241 . S
C50 O43 1.247 . S
C50 O44 1.261 . S
C51 O46 1.259 . S
C51 O48 1.235 . S
O52 Co42 2.021 . S
O52 C49 1.238 . S
O53 Co47 2.052 . S
O53 C49 1.241 . S
O54 Co42 2.137 . S
O54 C45 1.247 . S
O55 Co42 2.244 . S
O55 C45 1.272 . S
O55 Co47 2.135 . S
Co56 O57 2.216 . S
Co56 O58 2.091 . S
Co56 O60 2.004 . S
Co56 O66 2.021 . S
Co56 O68 2.137 . S
Co56 O69 2.244 . S
O57 Co56 2.216 . S
O57 C64 1.247 . S
O58 Co56 2.091 . S
O58 C64 1.261 . S
C59 O68 1.247 . S
C59 O69 1.272 . S
O60 Co56 2.004 . S
O60 C65 1.259 . S
Co61 O62 2.061 1_655 S
Co61 O67 2.052 1_655 S
Co61 O69 2.135 1_655 S
O62 Co61 2.061 1_455 S
O62 C65 1.235 . S
C63 O66 1.238 . S
C63 O67 1.241 . S
C64 O57 1.247 . S
C64 O58 1.261 . S
C65 O60 1.259 . S
C65 O62 1.235 . S
O66 Co56 2.021 . S
O66 C63 1.238 . S
O67 Co61 2.052 1_455 S
O67 C63 1.241 . S
O68 Co56 2.137 . S
O68 C59 1.247 . S
O69 Co56 2.244 . S
O69 C59 1.272 . S
O69 Co61 2.135 1_455 S
Co70 O71 2.216 . S
Co70 O72 2.091 . S
Co70 O74 2.004 . S
Co70 O80 2.021 . S
Co70 O82 2.137 . S
Co70 O83 2.244 . S
O71 Co70 2.216 . S
O71 C78 1.247 . S
O72 Co70 2.091 . S
O72 C78 1.261 . S
C73 O82 1.247 . S
C73 O83 1.272 . S
O74 Co70 2.004 . S
O74 C79 1.259 . S
Co75 O76 2.061 . S
Co75 O81 2.052 . S
Co75 O83 2.135 . S
O76 Co75 2.061 . S
O76 C79 1.235 . S
C77 O80 1.238 . S
C77 O81 1.241 . S
C78 O71 1.247 . S
C78 O72 1.261 . S
C79 O74 1.259 . S
C79 O76 1.235 . S
O80 Co70 2.021 . S
O80 C77 1.238 . S
O81 Co75 2.052 . S
O81 C77 1.241 . S
O82 Co70 2.137 . S
O82 C73 1.247 . S
O83 Co70 2.244 . S
O83 C73 1.272 . S
O83 Co75 2.135 . S
Co84 O85 2.216 . S
Co84 O86 2.091 . S
Co84 O88 2.004 . S
Co84 O94 2.021 . S
Co84 O96 2.137 . S
Co84 O97 2.244 . S
O85 Co84 2.216 . S
O85 C92 1.247 . S
O86 Co84 2.091 . S
O86 C92 1.261 . S
C87 O96 1.247 . S
C87 O97 1.272 . S
O88 Co84 2.004 . S
O88 C93 1.259 . S
Co89 O90 2.061 1_455 S
Co89 O95 2.052 1_455 S
Co89 O97 2.135 1_455 S
O90 Co89 2.061 1_655 S
O90 C93 1.235 . S
C91 O94 1.238 . S
C91 O95 1.241 . S
C92 O85 1.247 . S
C92 O86 1.261 . S
C93 O88 1.259 . S
C93 O90 1.235 . S
O94 Co84 2.021 . S
O94 C91 1.238 . S
O95 Co89 2.052 1_655 S
O95 C91 1.241 . S
O96 Co84 2.137 . S
O96 C87 1.247 . S
O97 Co84 2.244 . S
O97 C87 1.272 . S
O97 Co89 2.135 1_655 S
Co98 O99 2.216 . S
Co98 O100 2.091 . S
Co98 O102 2.004 . S
Co98 O108 2.021 . S
Co98 O110 2.137 . S
Co98 O111 2.244 . S
O99 Co98 2.216 . S
O99 C106 1.247 . S
O100 Co98 2.091 . S
O100 C106 1.261 . S
C101 O110 1.247 . S
C101 O111 1.272 . S
O102 Co98 2.004 . S
O102 C107 1.259 . S
Co103 O104 2.061 . S
Co103 O109 2.052 . S
Co103 O111 2.135 . S
O104 Co103 2.061 . S
O104 C107 1.235 . S
C105 O108 1.238 . S
C105 O109 1.241 . S
C106 O99 1.247 . S
C106 O100 1.261 . S
C107 O102 1.259 . S
C107 O104 1.235 . S
O108 Co98 2.021 . S
O108 C105 1.238 . S
O109 Co103 2.052 . S
O109 C105 1.241 . S
O110 Co98 2.137 . S
O110 C101 1.247 . S
O111 Co98 2.244 . S
O111 C101 1.272 . S
O111 Co103 2.135 . S
H112 C120 0.950 . S
H113 C125 0.950 1_655 S
H114 C122 0.950 . S
H115 C124 0.950 . S
H116 C126 0.950 . S
H117 C128 0.950 . S
H118 C130 0.950 . S
H119 C131 0.950 1_455 S
C120 H112 0.950 . S
C120 C121 1.386 . S
C120 C122 1.391 . S
C121 C120 1.386 . S
C121 C125 1.393 . S
C122 H114 0.950 . S
C122 C120 1.391 . S
C122 C123 1.400 . S
C123 C122 1.400 . S
C123 C124 1.398 1_455 S
C123 C129 1.491 1_455 S
C124 H115 0.950 . S
C124 C123 1.398 1_655 S
C124 C125 1.391 1_655 S
C125 H113 0.950 1_455 S
C125 C121 1.393 . S
C125 C124 1.391 1_455 S
C126 H116 0.950 . S
C126 C127 1.386 . S
C126 C128 1.391 . S
C127 C126 1.386 . S
C127 C131 1.393 . S
C128 H117 0.950 . S
C128 C126 1.391 . S
C128 C129 1.400 . S
C129 C123 1.491 1_655 S
C129 C128 1.400 . S
C129 C130 1.398 1_655 S
C130 H118 0.950 . S
C130 C129 1.398 1_455 S
C130 C131 1.391 1_455 S
C131 H119 0.950 1_655 S
C131 C127 1.393 . S
C131 C130 1.391 1_655 S
H132 C140 0.950 . S
H133 C145 0.950 1_545 S
H134 C142 0.950 . S
H135 C144 0.950 . S
H136 C146 0.950 . S
H137 C148 0.950 . S
H138 C150 0.950 . S
H139 C151 0.950 1_565 S
C140 H132 0.950 . S
C140 C141 1.386 . S
C140 C142 1.391 . S
C141 C140 1.386 . S
C141 C145 1.393 . S
C142 H134 0.950 . S
C142 C140 1.391 . S
C142 C143 1.400 . S
C143 C142 1.400 . S
C143 C144 1.398 1_565 S
C143 C149 1.491 1_565 S
C144 H135 0.950 . S
C144 C143 1.398 1_545 S
C144 C145 1.391 1_545 S
C145 H133 0.950 1_565 S
C145 C141 1.393 . S
C145 C144 1.391 1_565 S
C146 H136 0.950 . S
C146 C147 1.386 . S
C146 C148 1.391 . S
C147 C146 1.386 . S
C147 C151 1.393 . S
C148 H137 0.950 . S
C148 C146 1.391 . S
C148 C149 1.400 . S
C149 C143 1.491 1_545 S
C149 C148 1.400 . S
C149 C150 1.398 1_545 S
C150 H138 0.950 . S
C150 C149 1.398 1_565 S
C150 C151 1.391 1_565 S
C151 H139 0.950 1_545 S
C151 C147 1.393 . S
C151 C150 1.391 1_545 S
H152 C160 0.950 . S
H153 C165 0.950 1_455 S
H154 C162 0.950 . S
H155 C164 0.950 . S
H156 C166 0.950 . S
H157 C168 0.950 . S
H158 C170 0.950 . S
H159 C171 0.950 1_655 S
C160 H152 0.950 . S
C160 C161 1.386 . S
C160 C162 1.391 . S
C161 C160 1.386 . S
C161 C165 1.393 . S
C162 H154 0.950 . S
C162 C160 1.391 . S
C162 C163 1.400 . S
C163 C162 1.400 . S
C163 C164 1.398 1_655 S
C163 C169 1.491 1_655 S
C164 H155 0.950 . S
C164 C163 1.398 1_455 S
C164 C165 1.391 1_455 S
C165 H153 0.950 1_655 S
C165 C161 1.393 . S
C165 C164 1.391 1_655 S
C166 H156 0.950 . S
C166 C167 1.386 . S
C166 C168 1.391 . S
C167 C166 1.386 . S
C167 C171 1.393 . S
C168 H157 0.950 . S
C168 C166 1.391 . S
C168 C169 1.400 . S
C169 C163 1.491 1_455 S
C169 C168 1.400 . S
C169 C170 1.398 1_455 S
C170 H158 0.950 . S
C170 C169 1.398 1_655 S
C170 C171 1.391 1_655 S
C171 H159 0.950 1_455 S
C171 C167 1.393 . S
C171 C170 1.391 1_455 S
H172 C180 0.950 . S
H173 C185 0.950 . S
H174 C182 0.950 . S
H175 C184 0.950 . S
H176 C186 0.950 . S
H177 C188 0.950 . S
H178 C190 0.950 . S
H179 C191 0.950 . S
C180 H172 0.950 . S
C180 C181 1.386 1_565 S
C180 C182 1.391 . S
C181 C180 1.386 1_545 S
C181 C185 1.393 . S
C182 H174 0.950 . S
C182 C180 1.391 . S
C182 C183 1.400 1_565 S
C183 C182 1.400 1_545 S
C183 C184 1.398 . S
C183 C189 1.491 1_545 S
C184 H175 0.950 . S
C184 C183 1.398 . S
C184 C185 1.391 . S
C185 H173 0.950 . S
C185 C181 1.393 . S
C185 C184 1.391 . S
C186 H176 0.950 . S
C186 C187 1.386 1_545 S
C186 C188 1.391 . S
C187 C186 1.386 1_565 S
C187 C191 1.393 . S
C188 H177 0.950 . S
C188 C186 1.391 . S
C188 C189 1.400 1_545 S
C189 C183 1.491 1_565 S
C189 C188 1.400 1_565 S
C189 C190 1.398 . S
C190 H178 0.950 . S
C190 C189 1.398 . S
C190 C191 1.391 . S
C191 H179 0.950 . S
C191 C187 1.393 . S
C191 C190 1.391 . S
H192 C200 0.950 . S
H193 C205 0.950 . S
H194 C202 0.950 . S
H195 C204 0.950 1_455 S
H196 C206 0.950 . S
H197 C208 0.950 . S
H198 C210 0.950 1_655 S
H199 C211 0.950 . S
C200 H192 0.950 . S
C200 C201 1.386 . S
C200 C202 1.391 . S
C201 C200 1.386 . S
C201 C205 1.393 . S
C202 H194 0.950 . S
C202 C200 1.391 . S
C202 C203 1.400 . S
C203 C202 1.400 . S
C203 C204 1.398 . S
C203 C209 1.491 1_656 S
C204 H195 0.950 1_655 S
C204 C203 1.398 . S
C204 C205 1.391 . S
C205 H193 0.950 . S
C205 C201 1.393 . S
C205 C204 1.391 . S
C206 H196 0.950 . S
C206 C207 1.386 . S
C206 C208 1.391 . S
C207 C206 1.386 . S
C207 C211 1.393 . S
C208 H197 0.950 . S
C208 C206 1.391 . S
C208 C209 1.400 . S
C209 C203 1.491 1_454 S
C209 C208 1.400 . S
C209 C210 1.398 . S
C210 H198 0.950 1_455 S
C210 C209 1.398 . S
C210 C211 1.391 . S
C211 H199 0.950 . S
C211 C207 1.393 . S
C211 C210 1.391 . S
H212 C220 0.950 . S
H213 C225 0.950 . S
H214 C222 0.950 1_565 S
H215 C224 0.950 . S
H216 C226 0.950 . S
H217 C228 0.950 1_545 S
H218 C230 0.950 . S
H219 C231 0.950 . S
C220 H212 0.950 . S
C220 C221 1.386 . S
C220 C222 1.391 . S
C221 C220 1.386 . S
C221 C225 1.393 . S
C222 H214 0.950 1_545 S
C222 C220 1.391 . S
C222 C223 1.400 . S
C223 C222 1.400 . S
C223 C224 1.398 . S
C223 C229 1.491 1_545 S
C224 H215 0.950 . S
C224 C223 1.398 . S
C224 C225 1.391 . S
C225 H213 0.950 . S
C225 C221 1.393 . S
C225 C224 1.391 . S
C226 H216 0.950 . S
C226 C227 1.386 . S
C226 C228 1.391 . S
C227 C226 1.386 . S
C227 C231 1.393 . S
C228 H217 0.950 1_565 S
C228 C226 1.391 . S
C228 C229 1.400 . S
C229 C223 1.491 1_565 S
C229 C228 1.400 . S
C229 C230 1.398 . S
C230 H218 0.950 . S
C230 C229 1.398 . S
C230 C231 1.391 . S
C231 H219 0.950 . S
C231 C227 1.393 . S
C231 C230 1.391 . S
H232 C240 0.950 . S
H233 C245 0.950 . S
H234 C242 0.950 1_556 S
H235 C244 0.950 1_455 S
H236 C246 0.950 . S
H237 C248 0.950 1_554 S
H238 C250 0.950 1_655 S
H239 C251 0.950 . S
C240 H232 0.950 . S
C240 C241 1.386 . S
C240 C242 1.391 . S
C241 C240 1.386 . S
C241 C245 1.393 . S
C242 H234 0.950 1_554 S
C242 C240 1.391 . S
C242 C243 1.400 . S
C243 C242 1.400 . S
C243 C244 1.398 . S
C243 C249 1.491 1_654 S
C244 H235 0.950 1_655 S
C244 C243 1.398 . S
C244 C245 1.390 . S
C245 H233 0.950 . S
C245 C241 1.393 . S
C245 C244 1.390 . S
C246 H236 0.950 . S
C246 C247 1.386 . S
C246 C248 1.391 . S
C247 C246 1.386 . S
C247 C251 1.393 . S
C248 H237 0.950 1_556 S
C248 C246 1.391 . S
C248 C249 1.400 . S
C249 C243 1.491 1_456 S
C249 C248 1.400 . S
C249 C250 1.398 . S
C250 H238 0.950 1_455 S
C250 C249 1.398 . S
C250 C251 1.390 . S
C251 H239 0.950 . S
C251 C247 1.393 . S
C251 C250 1.390 . S
H252 C260 0.950 . S
H253 C265 0.950 . S
H254 C262 0.950 1_565 S
H255 C264 0.950 . S
H256 C266 0.950 . S
H257 C268 0.950 1_545 S
H258 C270 0.950 . S
H259 C271 0.950 . S
C260 H252 0.950 . S
C260 C261 1.386 . S
C260 C262 1.391 . S
C261 C260 1.386 . S
C261 C265 1.393 . S
C262 H254 0.950 1_545 S
C262 C260 1.391 . S
C262 C263 1.400 . S
C263 C262 1.400 . S
C263 C264 1.398 . S
C263 C269 1.491 1_545 S
C264 H255 0.950 . S
C264 C263 1.398 . S
C264 C265 1.391 . S
C265 H253 0.950 . S
C265 C261 1.393 . S
C265 C264 1.391 . S
C266 H256 0.950 . S
C266 C267 1.386 . S
C266 C268 1.391 . S
C267 C266 1.386 . S
C267 C271 1.393 . S
C268 H257 0.950 1_565 S
C268 C266 1.391 . S
C268 C269 1.400 . S
C269 C263 1.491 1_565 S
C269 C268 1.400 . S
C269 C270 1.398 . S
C270 H258 0.950 . S
C270 C269 1.398 . S
C270 C271 1.391 . S
C271 H259 0.950 . S
C271 C267 1.393 . S
C271 C270 1.391 . S
H272 C280 0.950 . S
H273 C285 0.950 . S
H274 C282 0.950 . S
H275 C284 0.950 . S
H276 C286 0.950 . S
H277 C288 0.950 . S
H278 C290 0.950 . S
H279 C291 0.950 . S
C280 H272 0.950 . S
C280 C281 1.386 . S
C280 C282 1.391 . S
C281 C280 1.386 . S
C281 C285 1.393 . S
C282 H274 0.950 . S
C282 C280 1.391 . S
C282 C283 1.400 . S
C283 C282 1.400 . S
C283 C284 1.398 . S
C283 C289 1.491 . S
C284 H275 0.950 . S
C284 C283 1.398 . S
C284 C285 1.391 . S
C285 H273 0.950 . S
C285 C281 1.393 . S
C285 C284 1.391 . S
C286 H276 0.950 . S
C286 C287 1.386 . S
C286 C288 1.391 . S
C287 C286 1.386 . S
C287 C291 1.393 . S
C288 H277 0.950 . S
C288 C286 1.391 . S
C288 C289 1.400 . S
C289 C283 1.491 . S
C289 C288 1.400 . S
C289 C290 1.398 . S
C290 H278 0.950 . S
C290 C289 1.398 . S
C290 C291 1.391 . S
C291 H279 0.950 . S
C291 C287 1.393 . S
C291 C290 1.391 . S
H292 C300 0.950 . S
H293 C305 0.950 . S
H294 C302 0.950 . S
H295 C304 0.950 . S
H296 C306 0.950 . S
H297 C308 0.950 . S
H298 C310 0.950 . S
H299 C311 0.950 . S
C300 H292 0.950 . S
C300 C301 1.386 . S
C300 C302 1.391 . S
C301 C300 1.386 . S
C301 C305 1.393 . S
C302 H294 0.950 . S
C302 C300 1.391 . S
C302 C303 1.400 . S
C303 C302 1.400 . S
C303 C304 1.398 . S
C303 C309 1.491 . S
C304 H295 0.950 . S
C304 C303 1.398 . S
C304 C305 1.391 . S
C305 H293 0.950 . S
C305 C301 1.393 . S
C305 C304 1.391 . S
C306 H296 0.950 . S
C306 C307 1.386 . S
C306 C308 1.391 . S
C307 C306 1.386 . S
C307 C311 1.393 . S
C308 H297 0.950 . S
C308 C306 1.391 . S
C308 C309 1.400 . S
C309 C303 1.491 . S
C309 C308 1.400 . S
C309 C310 1.398 . S
C310 H298 0.950 . S
C310 C309 1.398 . S
C310 C311 1.391 . S
C311 H299 0.950 . S
C311 C307 1.393 . S
C311 C310 1.391 . S
H312 C320 0.950 . S
H313 C325 0.950 . S
H314 C322 0.950 . S
H315 C324 0.950 . S
H316 C326 0.950 . S
H317 C328 0.950 . S
H318 C330 0.950 . S
H319 C331 0.950 . S
C320 H312 0.950 . S
C320 C321 1.386 . S
C320 C322 1.391 . S
C321 C320 1.386 . S
C321 C325 1.393 . S
C322 H314 0.950 . S
C322 C320 1.391 . S
C322 C323 1.400 . S
C323 C322 1.400 . S
C323 C324 1.398 . S
C323 C329 1.491 . S
C324 H315 0.950 . S
C324 C323 1.398 . S
C324 C325 1.391 . S
C325 H313 0.950 . S
C325 C321 1.393 . S
C325 C324 1.391 . S
C326 H316 0.950 . S
C326 C327 1.386 . S
C326 C328 1.391 . S
C327 C326 1.386 . S
C327 C331 1.393 . S
C328 H317 0.950 . S
C328 C326 1.391 . S
C328 C329 1.400 . S
C329 C323 1.491 . S
C329 C328 1.400 . S
C329 C330 1.398 . S
C330 H318 0.950 . S
C330 C329 1.398 . S
C330 C331 1.391 . S
C331 H319 0.950 . S
C331 C327 1.393 . S
C331 C330 1.391 . S
H332 C340 0.950 . S
H333 C345 0.950 . S
H334 C342 0.950 . S
H335 C344 0.950 . S
H336 C346 0.950 . S
H337 C348 0.950 . S
H338 C350 0.950 . S
H339 C351 0.950 . S
C340 H332 0.950 . S
C340 C341 1.386 . S
C340 C342 1.391 . S
C341 C340 1.386 . S
C341 C345 1.393 . S
C342 H334 0.950 . S
C342 C340 1.391 . S
C342 C343 1.400 . S
C343 C342 1.400 . S
C343 C344 1.398 . S
C343 C349 1.491 . S
C344 H335 0.950 . S
C344 C343 1.398 . S
C344 C345 1.391 . S
C345 H333 0.950 . S
C345 C341 1.393 . S
C345 C344 1.391 . S
C346 H336 0.950 . S
C346 C347 1.386 . S
C346 C348 1.391 . S
C347 C346 1.386 . S
C347 C351 1.393 . S
C348 H337 0.950 . S
C348 C346 1.391 . S
C348 C349 1.400 . S
C349 C343 1.491 . S
C349 C348 1.400 . S
C349 C350 1.398 . S
C350 H338 0.950 . S
C350 C349 1.398 . S
C350 C351 1.391 . S
C351 H339 0.950 . S
C351 C347 1.393 . S
C351 C350 1.391 . S
H352 C360 0.950 . S
H353 C365 0.950 . S
H354 C362 0.950 . S
H355 C364 0.950 . S
H356 C366 0.950 . S
H357 C368 0.950 . S
H358 C370 0.950 . S
H359 C371 0.950 . S
C360 H352 0.950 . S
C360 C361 1.386 . S
C360 C362 1.391 . S
C361 C360 1.386 . S
C361 C365 1.393 1_455 S
C362 H354 0.950 . S
C362 C360 1.391 . S
C362 C363 1.400 . S
C363 C362 1.400 . S
C363 C364 1.398 1_455 S
C363 C369 1.491 1_445 S
C364 H355 0.950 . S
C364 C363 1.398 1_655 S
C364 C365 1.391 . S
C365 H353 0.950 . S
C365 C361 1.393 1_655 S
C365 C364 1.391 . S
C366 H356 0.950 . S
C366 C367 1.386 . S
C366 C368 1.391 . S
C367 C366 1.386 . S
C367 C371 1.393 1_655 S
C368 H357 0.950 . S
C368 C366 1.391 . S
C368 C369 1.400 . S
C369 C363 1.491 1_665 S
C369 C368 1.400 . S
C369 C370 1.398 1_655 S
C370 H358 0.950 . S
C370 C369 1.398 1_455 S
C370 C371 1.391 . S
C371 H359 0.950 . S
C371 C367 1.393 1_455 S
C371 C370 1.391 . S
H372 C380 0.950 . S
H373 C385 0.950 1_545 S
H374 C382 0.950 . S
H375 C384 0.950 . S
H376 C386 0.950 . S
H377 C388 0.950 . S
H378 C390 0.950 . S
H379 C391 0.950 1_565 S
C380 H372 0.950 . S
C380 C381 1.386 . S
C380 C382 1.391 . S
C381 C380 1.386 . S
C381 C385 1.393 . S
C382 H374 0.950 . S
C382 C380 1.391 . S
C382 C383 1.400 . S
C383 C382 1.400 . S
C383 C384 1.398 1_565 S
C383 C389 1.491 1_465 S
C384 H375 0.950 . S
C384 C383 1.398 1_545 S
C384 C385 1.391 1_545 S
C385 H373 0.950 1_565 S
C385 C381 1.393 . S
C385 C384 1.391 1_565 S
C386 H376 0.950 . S
C386 C387 1.386 . S
C386 C388 1.391 . S
C387 C386 1.386 . S
C387 C391 1.393 . S
C388 H377 0.950 . S
C388 C386 1.391 . S
C388 C389 1.400 . S
C389 C383 1.491 1_645 S
C389 C388 1.400 . S
C389 C390 1.398 1_545 S
C390 H378 0.950 . S
C390 C389 1.398 1_565 S
C390 C391 1.391 1_565 S
C391 H379 0.950 1_545 S
C391 C387 1.393 . S
C391 C390 1.391 1_545 S
H392 C400 0.950 . S
H393 C405 0.950 . S
H394 C402 0.950 . S
H395 C404 0.950 . S
H396 C406 0.950 . S
H397 C408 0.950 . S
H398 C410 0.950 . S
H399 C411 0.950 . S
C400 H392 0.950 . S
C400 C401 1.386 . S
C400 C402 1.391 . S
C401 C400 1.386 . S
C401 C405 1.393 . S
C402 H394 0.950 . S
C402 C400 1.391 . S
C402 C403 1.400 . S
C403 C402 1.400 . S
C403 C404 1.398 . S
C403 C409 1.491 1_645 S
C404 H395 0.950 . S
C404 C403 1.398 . S
C404 C405 1.391 . S
C405 H393 0.950 . S
C405 C401 1.393 . S
C405 C404 1.391 . S
C406 H396 0.950 . S
C406 C407 1.386 . S
C406 C408 1.391 . S
C407 C406 1.386 . S
C407 C411 1.393 . S
C408 H397 0.950 . S
C408 C406 1.391 . S
C408 C409 1.400 . S
C409 C403 1.491 1_465 S
C409 C408 1.400 . S
C409 C410 1.398 . S
C410 H398 0.950 . S
C410 C409 1.398 . S
C410 C411 1.391 . S
C411 H399 0.950 . S
C411 C407 1.393 . S
C411 C410 1.391 . S
H412 C420 0.950 . S
H413 C425 0.950 . S
H414 C422 0.950 . S
H415 C424 0.950 . S
H416 C426 0.950 . S
H417 C428 0.950 . S
H418 C430 0.950 . S
H419 C431 0.950 . S
C420 H412 0.950 . S
C420 C421 1.386 1_545 S
C420 C422 1.391 . S
C421 C420 1.386 1_565 S
C421 C425 1.393 . S
C422 H414 0.950 . S
C422 C420 1.391 . S
C422 C423 1.400 1_545 S
C423 C422 1.400 1_565 S
C423 C424 1.398 . S
C423 C429 1.491 1_665 S
C424 H415 0.950 . S
C424 C423 1.398 . S
C424 C425 1.391 . S
C425 H413 0.950 . S
C425 C421 1.393 . S
C425 C424 1.391 . S
C426 H416 0.950 . S
C426 C427 1.386 1_565 S
C426 C428 1.391 . S
C427 C426 1.386 1_545 S
C427 C431 1.393 . S
C428 H417 0.950 . S
C428 C426 1.391 . S
C428 C429 1.400 1_565 S
C429 C423 1.491 1_445 S
C429 C428 1.400 1_545 S
C429 C430 1.398 . S
C430 H418 0.950 . S
C430 C429 1.398 . S
C430 C431 1.391 . S
C431 H419 0.950 . S
C431 C427 1.393 . S
C431 C430 1.391 . S
C121 C3 1.376 . S
C127 C31 1.381 . S
C141 C50 1.400 . S
C147 C22 1.402 . S
C161 C87 1.369 . S
C167 C59 1.376 . S
C181 C78 1.403 . S
C187 C106 1.399 . S
C201 C93 1.499 . S
C207 C9 1.499 . S
C221 C21 1.609 . S
C227 C105 1.602 . S
C241 C37 1.517 . S
C247 C65 1.516 . S
C261 C77 1.595 . S
C267 C49 1.581 . S
C281 C8 1.463 . S
C287 C73 1.427 . S
C301 C92 1.449 . S
C307 C17 1.401 . S
C321 C101 1.429 . S
C327 C36 1.449 . S
C341 C45 1.399 . S
C347 C64 1.457 . S
C361 C7 0.949 . S
C367 C35 0.927 . S
C381 C51 0.962 . S
C387 C23 0.960 . S
C401 C91 0.932 . S
C407 C63 0.933 . S
C421 C107 0.935 . S
C427 C79 0.943 . S
