# Generated by pormake.
# Topology smc, (6)-cn, num edge types: 1
# Building blocks:
#     Node 0, Type 0, BuildingBlock: KUMBUR_clean_sbu_0, # of connection points: 6
#     Node 1, Type 0, BuildingBlock: KUMBUR_clean_sbu_0, # of connection points: 6
#     Node 2, Type 0, BuildingBlock: KUMBUR_clean_sbu_0, # of connection points: 6
#     Node 3, Type 0, BuildingBlock: KUMBUR_clean_sbu_0, # of connection points: 6
#     Node 4, Type 0, BuildingBlock: KUMBUR_clean_sbu_0, # of connection points: 6
#     Node 5, Type 0, BuildingBlock: KUMBUR_clean_sbu_0, # of connection points: 6
#     Node 6, Type 0, BuildingBlock: KUMBUR_clean_sbu_0, # of connection points: 6
#     Node 7, Type 0, BuildingBlock: KUMBUR_clean_sbu_0, # of connection points: 6
#     Node 8, Type 0, BuildingBlock: KUMBUR_clean_sbu_0, # of connection points: 6
#     Edge 9, Type (0, 0), BuildingBlock: UVAHIK_clean_linker_0, # of connection points: 2
#     Edge 10, Type (0, 0), BuildingBlock: UVAHIK_clean_linker_0, # of connection points: 2
#     Edge 11, Type (0, 0), BuildingBlock: UVAHIK_clean_linker_0, # of connection points: 2
#     Edge 12, Type (0, 0), BuildingBlock: UVAHIK_clean_linker_0, # of connection points: 2
#     Edge 13, Type (0, 0), BuildingBlock: UVAHIK_clean_linker_0, # of connection points: 2
#     Edge 14, Type (0, 0), BuildingBlock: UVAHIK_clean_linker_0, # of connection points: 2
#     Edge 15, Type (0, 0), BuildingBlock: UVAHIK_clean_linker_0, # of connection points: 2
#     Edge 16, Type (0, 0), BuildingBlock: UVAHIK_clean_linker_0, # of connection points: 2
#     Edge 17, Type (0, 0), BuildingBlock: UVAHIK_clean_linker_0, # of connection points: 2
#     Edge 18, Type (0, 0), BuildingBlock: UVAHIK_clean_linker_0, # of connection points: 2
#     Edge 19, Type (0, 0), BuildingBlock: UVAHIK_clean_linker_0, # of connection points: 2
#     Edge 20, Type (0, 0), BuildingBlock: UVAHIK_clean_linker_0, # of connection points: 2
#     Edge 21, Type (0, 0), BuildingBlock: UVAHIK_clean_linker_0, # of connection points: 2
#     Edge 22, Type (0, 0), BuildingBlock: UVAHIK_clean_linker_0, # of connection points: 2
#     Edge 23, Type (0, 0), BuildingBlock: UVAHIK_clean_linker_0, # of connection points: 2
#     Edge 24, Type (0, 0), BuildingBlock: UVAHIK_clean_linker_0, # of connection points: 2
#     Edge 25, Type (0, 0), BuildingBlock: UVAHIK_clean_linker_0, # of connection points: 2
#     Edge 26, Type (0, 0), BuildingBlock: UVAHIK_clean_linker_0, # of connection points: 2
#     Edge 27, Type (0, 0), BuildingBlock: UVAHIK_clean_linker_0, # of connection points: 2
#     Edge 28, Type (0, 0), BuildingBlock: UVAHIK_clean_linker_0, # of connection points: 2
#     Edge 29, Type (0, 0), BuildingBlock: UVAHIK_clean_linker_0, # of connection points: 2
#     Edge 30, Type (0, 0), BuildingBlock: UVAHIK_clean_linker_0, # of connection points: 2
#     Edge 31, Type (0, 0), BuildingBlock: UVAHIK_clean_linker_0, # of connection points: 2
#     Edge 32, Type (0, 0), BuildingBlock: UVAHIK_clean_linker_0, # of connection points: 2
#     Edge 33, Type (0, 0), BuildingBlock: UVAHIK_clean_linker_0, # of connection points: 2
#     Edge 34, Type (0, 0), BuildingBlock: UVAHIK_clean_linker_0, # of connection points: 2
#     Edge 35, Type (0, 0), BuildingBlock: UVAHIK_clean_linker_0, # of connection points: 2
# Relax obj value: 0.108
# Max RMSD: 0.278
# Mean RMSD: 0.278
data_MOF--net-smc--node1-KUMBUR_clean_sbu_0--edge1-UVAHIK_clean_linker_0
_symmetry_space_group_name_H-M    P1
_symmetry_Int_Tables_number       1
_symmetry_cell_setting            triclinic
loop_
_symmetry_equiv_pos_as_xyz
'x, y, z'
_cell_length_a     46.297461
_cell_length_b     46.294244
_cell_length_c     52.588942
_cell_angle_alpha  89.987486
_cell_angle_beta   89.957495
_cell_angle_gamma 119.96801
loop_
_atom_site_label
_atom_site_type_symbol
_atom_site_fract_x
_atom_site_fract_y
_atom_site_fract_z
_atom_type_partial_charge
Tb0 Tb 0.04822 0.49572 0.9994 0.0
C1 C 0.02837 0.37424 0.05895 0.0
C2 C 0.06637 0.36092 0.03751 0.0
C3 C 0.05557 0.3495 0.08271 0.0
C4 C 0.04496 0.37437 0.03725 0.0
C5 C 0.03265 0.36097 0.08182 0.0
C6 C 0.07242 0.34945 0.06054 0.0
C7 C 0.98861 0.36788 0.10013 0.0
N8 N 1.00642 0.38543 0.05715 0.0
C9 C 0.98524 0.38074 0.07694 0.0
C10 C 1.01288 0.35856 0.10275 0.0
Tb11 Tb 1.00469 0.40889 0.01903 0.0
N12 N 0.03802 0.38533 0.01545 0.0
C13 C 0.04902 0.38015 0.99268 0.0
C14 C 0.0799 0.35818 0.01447 0.0
C15 C 0.0706 0.36718 0.99189 0.0
H16 H 0.9665 0.38799 0.07518 0.0
H17 H 0.08011 0.36423 0.97385 0.0
H18 H 0.08916 0.33946 0.06122 0.0
H19 H 0.97254 0.36523 0.11598 0.0
H20 H 0.04219 0.38696 0.97501 0.0
H21 H 1.01447 0.54203 0.08255 0.0
H22 H 0.09652 0.34804 0.0138 0.0
H23 H 0.04201 0.50834 0.93702 0.0
H24 H 0.03661 0.51126 0.06032 0.0
H25 H 1.01623 0.53291 0.91036 0.0
H26 H 0.05961 0.33963 0.10019 0.0
H27 H 0.98952 0.56992 0.0585 0.0
H28 H 0.9739 0.58355 0.01657 0.0
H29 H 1.0154 0.34855 0.12071 0.0
H30 H 0.9728 0.57958 0.96998 0.0
N31 N 0.02491 0.52087 0.02303 0.0
C32 C 0.02617 0.52305 0.04904 0.0
C33 C 0.99951 0.55646 0.04838 0.0
C34 C 0.9984 0.5545 0.02187 0.0
C35 C 1.01352 0.54071 0.06199 0.0
C36 C 1.0117 0.53656 0.00956 0.0
H37 H 0.98788 0.56032 0.93036 0.0
N38 N 0.02457 0.51738 0.97214 0.0
C39 C 1.01403 0.53299 0.93085 0.0
C40 C 1.01105 0.53431 0.98334 0.0
C41 C 0.02795 0.51838 0.9461 0.0
C42 C 0.99825 0.54858 0.9422 0.0
C43 C 0.99727 0.55008 0.96871 0.0
O44 O 0.08913 0.52931 0.97696 0.0
O45 O 0.05256 0.45236 0.00786 0.0
O46 O 0.03203 0.43507 0.05246 0.0
O47 O 0.06578 0.49022 0.03834 0.0
O48 O 0.07684 0.47987 0.97638 0.0
O49 O 0.08595 0.5403 0.01616 0.0
O50 O 0.95233 0.37987 0.02273 0.0
O51 O 1.0016 0.45281 0.00936 0.0
O52 O 1.0156 0.46417 0.96787 0.0
O53 O 1.00677 0.41135 0.97765 0.0
O54 O 0.97241 0.42413 0.03857 0.0
O55 O 0.97879 0.36356 0.99888 0.0
C56 C 0.07304 0.45543 0.99051 0.0
C57 C 0.11211 0.58692 0.98797 0.0
C58 C 0.14643 0.64773 0.99412 0.0
C59 C 0.13815 0.61473 1.00086 0.0
C60 C 0.12835 0.65235 0.97467 0.0
C61 C 0.09593 0.5931 0.9679 0.0
C62 C 0.10351 0.62529 0.96162 0.0
C63 C 0.05547 0.46623 0.05612 0.0
C64 C 0.10218 0.55177 0.99487 0.0
C65 C 0.98359 0.56748 0.9809 0.0
C66 C 0.98429 0.5698 0.00742 0.0
C67 C 0.98008 0.45023 0.02526 0.0
C68 C 0.92921 0.32181 0.01861 0.0
C69 C 0.89453 0.30379 0.01382 0.0
C70 C 0.87438 0.27132 0.02385 0.0
C71 C 0.88972 0.25771 0.03904 0.0
C72 C 0.94366 0.30724 0.03345 0.0
C73 C 0.92398 0.27547 0.04366 0.0
C74 C 1.00539 0.43264 0.96178 0.0
C75 C 0.94992 0.35595 0.00846 0.0
H76 H 0.15178 0.61076 0.01589 0.0
H77 H 0.13427 0.67719 0.96889 0.0
H78 H 0.07775 0.57322 0.95656 0.0
H79 H 0.09043 0.62929 0.9462 0.0
H80 H 0.88346 0.31494 1.0021 0.0
H81 H 0.8752 0.23337 0.0477 0.0
H82 H 0.97016 0.3204 0.03721 0.0
H83 H 0.93533 0.26456 0.05532 0.0
Tb84 Tb 0.55459 0.56577 0.99458 0.0
C85 C 0.67997 0.66377 0.0522 0.0
C86 C 0.69905 0.71488 0.02858 0.0
C87 C 0.70932 0.717 0.07407 0.0
C88 C 0.68202 0.67976 0.02966 0.0
C89 C 0.69411 0.68208 0.07462 0.0
C90 C 0.71188 0.7334 0.05104 0.0
C91 C 0.67981 0.63024 0.09568 0.0
N92 N 0.66508 0.63002 0.05182 0.0
C93 C 0.6663 0.61321 0.07289 0.0
C94 C 0.69328 0.66478 0.09667 0.0
Tb95 Tb 0.64114 0.60404 0.01402 0.0
N96 N 0.66949 0.66087 0.00844 0.0
C97 C 0.67607 0.67584 0.98509 0.0
C98 C 0.70383 0.73025 1.00485 0.0
C99 C 0.69296 0.71064 0.98297 0.0
H100 H 0.65582 0.58651 0.0724 0.0
H101 H 0.69737 0.72227 0.96444 0.0
H102 H 0.72466 0.76041 0.05066 0.0
H103 H 0.67979 0.61672 0.11247 0.0
H104 H 0.6678 0.66117 0.96794 0.0
H105 H 0.50764 0.48533 0.07766 0.0
H106 H 0.71685 0.75718 1.00315 0.0
H107 H 0.53783 0.54866 0.93289 0.0
H108 H 0.53978 0.53818 0.05557 0.0
H109 H 0.50787 0.49895 0.90577 0.0
H110 H 0.72003 0.73157 0.09114 0.0
H111 H 0.47664 0.43295 0.0534 0.0
H112 H 0.45993 0.40424 0.01126 0.0
H113 H 0.70377 0.67791 0.11434 0.0
H114 H 0.4609 0.40778 0.96461 0.0
N115 N 0.52721 0.51735 0.01815 0.0
C116 C 0.52617 0.51621 0.04422 0.0
C117 C 0.4905 0.45641 0.04335 0.0
C118 C 0.49121 0.45752 0.0168 0.0
C119 C 0.50794 0.48591 0.05708 0.0
C120 C 0.50975 0.48874 1.0046 0.0
H121 H 0.47877 0.44281 0.92519 0.0
N122 N 0.52863 0.52105 0.9673 0.0
C123 C 0.50888 0.49614 0.92612 0.0
C124 C 0.51073 0.49064 0.97836 0.0
C125 C 0.52621 0.52421 0.94156 0.0
C126 C 0.49241 0.46456 0.93716 0.0
C127 C 0.49262 0.46151 0.96359 0.0
O128 O 0.52659 0.58175 0.97356 0.0
O129 O 0.6 0.61172 1.0025 0.0
O130 O 0.6169 0.61232 0.0459 0.0
O131 O 0.56072 0.58807 0.03383 0.0
O132 O 0.57388 0.61049 0.97105 0.0
O133 O 0.50879 0.55818 0.0098 0.0
O134 O 0.6683 0.57939 0.02119 0.0
O135 O 0.59551 0.55858 1.00471 0.0
O136 O 0.58347 0.56062 0.96281 0.0
O137 O 0.63817 0.60127 0.9725 0.0
O138 O 0.62244 0.55674 0.03465 0.0
O139 O 0.68489 0.61773 0.9929 0.0
C140 C 0.59904 0.63011 0.98496 0.0
C141 C 0.46754 0.54851 0.97817 0.0
C142 C 0.40623 0.51964 0.98121 0.0
C143 C 0.43811 0.53922 0.99247 0.0
C144 C 0.40426 0.50924 0.95587 0.0
C145 C 0.46421 0.53923 0.95239 0.0
C146 C 0.43298 0.5192 0.94159 0.0
C147 C 0.58578 0.60407 0.05045 0.0
C148 C 0.50156 0.56926 0.98938 0.0
C149 C 0.47467 0.4304 0.97565 0.0
C150 C 0.47401 0.42841 1.0022 0.0
C151 C 0.59643 0.53918 0.02107 0.0
C152 C 0.72628 0.61101 0.01436 0.0
C153 C 0.74325 0.59302 0.01089 0.0
C154 C 0.77606 0.60555 0.02027 0.0
C155 C 0.79104 0.63612 0.03349 0.0
C156 C 0.74227 0.64165 0.02714 0.0
C157 C 0.77435 0.65397 0.03673 0.0
C158 C 0.61549 0.57972 0.95667 0.0
C159 C 0.69174 0.59738 1.00507 0.0
H160 H 0.43998 0.54736 0.01201 0.0
H161 H 0.38027 0.49444 0.94673 0.0
H162 H 0.48569 0.54797 0.94019 0.0
H163 H 0.43103 0.51199 0.9218 0.0
H164 H 0.73102 0.56957 1.00069 0.0
H165 H 0.81566 0.64623 0.04169 0.0
H166 H 0.72998 0.65604 0.02977 0.0
H167 H 0.78632 0.67748 0.04684 0.0
Tb168 Tb 0.48629 0.99859 0.99895 0.0
C169 C 0.39271 0.0272 0.06007 0.0
C170 C 0.34036 0.9913 0.03916 0.0
C171 C 0.34125 1.00245 0.08442 0.0
C172 C 0.37539 1.01113 0.03853 0.0
C173 C 0.3759 0.02398 0.08314 0.0
C174 C 0.32347 0.98612 0.06241 0.0
C175 C 0.42814 0.06651 0.1008 0.0
N176 N 0.42605 0.04788 0.05784 0.0
C177 C 0.44362 0.06888 0.07741 0.0
C178 C 0.39425 0.04346 0.10386 0.0
Tb179 Tb 0.44989 0.04785 0.01948 0.0
N180 N 0.39272 0.01737 0.0165 0.0
C181 C 0.37599 1.00739 0.99388 0.0
C182 C 0.32337 0.97858 0.01625 0.0
C183 C 0.34124 0.98729 0.99345 0.0
H184 H 0.46988 0.08655 0.07531 0.0
H185 H 0.32828 0.9785 0.97552 0.0
H186 H 0.29659 0.97057 0.06339 0.0
H187 H 0.44237 0.08237 0.11648 0.0
H188 H 0.38935 1.01386 0.97606 0.0
H189 H 0.57351 0.03373 0.07777 0.0
H190 H 0.29646 0.96317 0.01586 0.0
H191 H 0.49684 0.99231 0.93736 0.0
H192 H 0.51879 1.01245 0.05858 0.0
H193 H 0.54372 1.00863 0.90748 0.0
H194 H 0.32785 0.99922 0.10206 0.0
H195 H 0.6236 0.05409 0.05074 0.0
H196 H 0.64845 0.06418 1.00714 0.0
H197 H 0.38231 0.04171 0.12197 0.0
H198 H 0.64057 0.05853 0.96081 0.0
N199 N 0.53636 0.01989 0.02015 0.0
C200 C 0.53975 0.02065 0.04608 0.0
C201 C 0.59932 0.04439 0.04197 0.0
C202 C 0.59587 0.04306 0.01555 0.0
C203 C 0.57111 0.0329 0.05727 0.0
C204 C 0.56368 0.03025 1.00505 0.0
H205 H 0.6017 0.03774 0.9235 0.0
N206 N 0.52801 1.01439 0.96952 0.0
C207 C 0.54858 1.01464 0.92747 0.0
C208 C 0.55936 0.02766 0.97894 0.0
C209 C 0.52214 1.00565 0.94439 0.0
C210 C 0.58122 0.03101 0.93659 0.0
C211 C 0.58693 0.037 0.96268 0.0
O212 O 0.46362 0.95189 0.98109 0.0
O213 O 0.4409 0.9981 0.0094 0.0
O214 O 0.4485 0.02053 0.05314 0.0
O215 O 0.4667 0.98409 0.03904 0.0
O216 O 0.44089 0.97438 0.97648 0.0
O217 O 0.49871 0.96217 0.01103 0.0
O218 O 0.47458 0.1002 0.02405 0.0
O219 O 0.49464 0.04726 0.00856 0.0
O220 O 0.49139 0.03268 0.96705 0.0
O221 O 0.45013 0.04533 0.9779 0.0
O222 O 0.49858 0.07801 0.0378 0.0
O223 O 0.43319 0.07558 0.99867 0.0
C224 C 0.42192 0.97884 0.9921 0.0
C225 C 0.49658 0.92596 0.97721 0.0
C226 C 0.52642 0.89461 0.97216 0.0
C227 C 0.51289 0.90978 0.98803 0.0
C228 C 0.52331 0.89595 0.94564 0.0
C229 C 0.49312 0.92549 0.95057 0.0
C230 C 0.5068 0.91114 0.93504 0.0
C231 C 0.45504 0.99625 0.057 0.0
C232 C 0.48097 0.94126 0.9932 0.0
C233 C 0.61908 0.05084 0.97302 0.0
C234 C 0.62355 0.0539 0.9994 0.0
C235 C 0.5151 0.06845 0.02398 0.0
C236 C 0.44116 0.12499 0.01855 0.0
C237 C 0.4587 0.15974 0.0141 0.0
C238 C 0.446 0.1801 0.02291 0.0
C239 C 0.41577 0.165 0.03656 0.0
C240 C 0.411 0.11074 0.03203 0.0
C241 C 0.39851 0.13068 0.04103 0.0
C242 C 0.47167 0.04516 0.96144 0.0
C243 C 0.45444 0.10386 0.00902 0.0
H244 H 0.5149 0.90887 0.0085 0.0
H245 H 0.53281 0.88419 0.93293 0.0
H246 H 0.47933 0.93578 0.94148 0.0
H247 H 0.50402 0.91125 0.9146 0.0
H248 H 0.48185 0.17073 1.00346 0.0
H249 H 0.40556 0.17978 0.0441 0.0
H250 H 0.397 0.08419 0.03553 0.0
H251 H 0.37529 0.11947 0.05154 0.0
Tb252 Tb 0.71179 0.82694 0.33238 0.0
C253 C 0.69504 0.70693 0.39279 0.0
C254 C 0.73322 0.69396 0.37121 0.0
C255 C 0.72302 0.68296 0.4165 0.0
C256 C 0.71145 0.707 0.37099 0.0
C257 C 0.69984 0.69412 0.4157 0.0
C258 C 0.7397 0.68287 0.39425 0.0
C259 C 0.65586 0.70086 0.4343 0.0
N260 N 0.6728 0.71778 0.39108 0.0
C261 C 0.65191 0.71322 0.41107 0.0
C262 C 0.68037 0.69185 0.43678 0.0
Tb263 Tb 0.67009 0.74037 0.35281 0.0
N264 N 0.70414 0.71761 0.34917 0.0
C265 C 0.71518 0.71249 0.32639 0.0
C266 C 0.74672 0.69126 0.34815 0.0
C267 C 0.7371 0.69992 0.32558 0.0
H268 H 0.63291 0.72012 0.40941 0.0
H269 H 0.74661 0.69702 0.30753 0.0
H270 H 0.75669 0.67318 0.39489 0.0
H271 H 0.64001 0.69831 0.45028 0.0
H272 H 0.70816 0.71904 0.3087 0.0
H273 H 0.67977 0.87408 0.41619 0.0
H274 H 0.76361 0.68144 0.34747 0.0
H275 H 0.70467 0.84042 0.27061 0.0
H276 H 0.70265 0.8444 0.39369 0.0
H277 H 0.67538 0.86156 0.24433 0.0
H278 H 0.72741 0.67339 0.43399 0.0
H279 H 0.65168 0.89924 0.39271 0.0
H280 H 0.63295 0.91036 0.35119 0.0
H281 H 0.6833 0.6822 0.45477 0.0
H282 H 0.62942 0.90466 0.30472 0.0
N283 N 0.68793 0.85131 0.35658 0.0
C284 C 0.69062 0.85466 0.38253 0.0
C285 C 0.66183 0.88604 0.38241 0.0
C286 C 0.65924 0.88295 0.356 0.0
C287 C 0.6776 0.87183 0.3957 0.0
C288 C 0.67282 0.86541 0.34345 0.0
H289 H 0.64429 0.88576 0.26484 0.0
N290 N 0.68528 0.84634 0.30586 0.0
C291 C 0.67313 0.86119 0.26483 0.0
C292 C 0.67077 0.86215 0.31733 0.0
C293 C 0.6888 0.84815 0.27983 0.0
C294 C 0.65583 0.875 0.27647 0.0
C295 C 0.65544 0.87666 0.30298 0.0
O296 O 0.75074 0.86167 0.30889 0.0
O297 O 0.71717 0.78433 0.34131 0.0
O298 O 0.69767 0.76735 0.38594 0.0
O299 O 0.73004 0.82249 0.37133 0.0
O300 O 0.74215 0.81223 0.31026 0.0
O301 O 0.74993 0.87176 0.34853 0.0
O302 O 0.61772 0.71118 0.35652 0.0
O303 O 0.66545 0.78337 0.34242 0.0
O304 O 0.68202 0.79468 0.30002 0.0
O305 O 0.67181 0.74179 0.31144 0.0
O306 O 0.6381 0.7554 0.37277 0.0
O307 O 0.6445 0.69418 0.33375 0.0
C308 C 0.73828 0.78778 0.3244 0.0
C309 C 0.77354 0.91891 0.32079 0.0
C310 C 0.81016 0.97976 0.32446 0.0
C311 C 0.80308 0.94684 0.33016 0.0
C312 C 0.78764 0.98423 0.30944 0.0
C313 C 0.75246 0.92488 0.30523 0.0
C314 C 0.75916 0.95702 0.29984 0.0
C315 C 0.7204 0.79883 0.38932 0.0
C316 C 0.76474 0.88383 0.32686 0.0
C317 C 0.64137 0.89351 0.31542 0.0
C318 C 0.64347 0.89684 0.34186 0.0
C319 C 0.64442 0.7807 0.3589 0.0
C320 C 0.59483 0.65304 0.35382 0.0
C321 C 0.56011 0.635 0.34925 0.0
C322 C 0.53991 0.60296 0.35996 0.0
C323 C 0.55527 0.58977 0.37557 0.0
C324 C 0.60931 0.63888 0.36911 0.0
C325 C 0.58958 0.60753 0.37997 0.0
C326 C 0.67148 0.76283 0.29473 0.0
C327 C 0.61553 0.68679 0.34299 0.0
H328 H 0.8202 0.94305 0.34181 0.0
H329 H 0.79253 1.00903 0.30455 0.0
H330 H 0.73086 0.90492 0.29677 0.0
H331 H 0.74233 0.96083 0.28788 0.0
H332 H 0.54905 0.64582 0.33717 0.0
H333 H 0.54072 0.56578 0.38475 0.0
H334 H 0.63584 0.65207 0.37273 0.0
H335 H 0.60094 0.59695 0.39197 0.0
Tb336 Tb 0.22056 0.89423 0.33222 0.0
C337 C 0.34385 0.99471 0.39064 0.0
C338 C 0.35915 0.04594 0.36826 0.0
C339 C 0.3707 0.04734 0.41347 0.0
C340 C 0.34441 1.01094 0.3686 0.0
C341 C 0.35775 1.01268 0.41324 0.0
C342 C 0.37141 0.06398 0.39098 0.0
C343 C 0.34833 0.96138 0.43265 0.0
N344 N 0.33127 0.96128 0.38948 0.0
C345 C 0.33497 0.94473 0.4097 0.0
C346 C 0.35922 0.9954 0.43458 0.0
Tb347 Tb 0.30737 0.93564 0.35164 0.0
N348 N 0.33264 0.99255 0.34709 0.0
C349 C 0.33802 1.0082 0.32406 0.0
C350 C 0.36225 0.0618 0.34495 0.0
C351 C 0.35223 0.04287 0.32269 0.0
H352 H 0.32653 0.91842 0.40845 0.0
H353 H 0.35538 0.05495 0.30446 0.0
H354 H 0.38244 0.09085 0.39119 0.0
H355 H 0.3502 0.94796 0.44883 0.0
H356 H 0.33045 0.9941 0.30661 0.0
H357 H 0.17459 0.81605 0.41657 0.0
H358 H 0.37336 0.08864 0.34384 0.0
H359 H 0.20638 0.87377 0.27019 0.0
H360 H 0.20537 0.86827 0.39369 0.0
H361 H 0.18076 0.82287 0.24429 0.0
H362 H 0.38115 0.06161 0.43071 0.0
H363 H 0.14578 0.76273 0.39327 0.0
H364 H 0.13108 0.73255 0.35176 0.0
H365 H 0.36966 1.00826 0.45234 0.0
H366 H 0.13422 0.73428 0.30514 0.0
N367 N 0.19487 0.84628 0.35658 0.0
C368 C 0.19317 0.84591 0.38264 0.0
C369 C 0.15924 0.78592 0.38281 0.0
C370 C 0.16069 0.78616 0.3563 0.0
C371 C 0.1755 0.81594 0.39601 0.0
C372 C 0.17865 0.81708 0.34354 0.0
H373 H 0.15306 0.76762 0.26506 0.0
N374 N 0.19759 0.84816 0.30569 0.0
C375 C 0.18098 0.82105 0.2648 0.0
C376 C 0.18045 0.81803 0.31731 0.0
C377 C 0.19623 0.8499 0.27964 0.0
C378 C 0.16522 0.78998 0.27658 0.0
C379 C 0.16414 0.78815 0.3031 0.0
O380 O 0.18868 0.90382 0.30971 0.0
O381 O 0.2647 0.94127 0.34059 0.0
O382 O 0.28175 0.93859 0.38491 0.0
O383 O 0.22656 0.91767 0.37106 0.0
O384 O 0.23744 0.93889 0.30925 0.0
O385 O 0.17552 0.8874 0.34828 0.0
O386 O 0.33512 0.9111 0.35629 0.0
O387 O 0.26289 0.88925 0.34182 0.0
O388 O 0.2512 0.89292 0.30008 0.0
O389 O 0.30517 0.93453 0.3102 0.0
O390 O 0.29062 0.88816 0.37156 0.0
O391 O 0.35259 0.95327 0.33157 0.0
C392 C 0.26225 0.95905 0.32326 0.0
C393 C 0.13046 0.86967 0.31874 0.0
C394 C 0.06946 0.84242 0.32417 0.0
C395 C 0.10222 0.86575 0.33243 0.0
C396 C 0.0655 0.82301 0.30252 0.0
C397 C 0.12498 0.85111 0.29634 0.0
C398 C 0.09301 0.82755 0.28867 0.0
C399 C 0.25073 0.93132 0.38868 0.0
C400 C 0.16537 0.89375 0.32699 0.0
C401 C 0.14671 0.75742 0.31573 0.0
C402 C 0.14487 0.75644 0.34227 0.0
C403 C 0.26473 0.87013 0.35796 0.0
C404 C 0.39327 0.94443 0.35204 0.0
C405 C 0.41004 0.92632 0.34827 0.0
C406 C 0.44216 0.9377 0.3586 0.0
C407 C 0.45675 0.96731 0.37303 0.0
C408 C 0.40878 0.97408 0.36612 0.0
C409 C 0.44025 0.98531 0.37661 0.0
C410 C 0.28305 0.91306 0.2941 0.0
C411 C 0.35933 0.9317 0.34178 0.0
H412 H 0.10567 0.88077 0.34917 0.0
H413 H 0.04086 0.80517 0.29563 0.0
H414 H 0.14527 0.85523 0.28419 0.0
H415 H 0.0895 0.81326 0.2715 0.0
H416 H 0.39815 0.90363 0.3371 0.0
H417 H 0.48086 0.9765 0.38192 0.0
H418 H 0.39655 0.9885 0.3691 0.0
H419 H 0.45188 1.00804 0.3877 0.0
Tb420 Tb 0.15501 0.33151 0.32976 0.0
C421 C 0.05404 0.3593 0.38295 0.0
C422 C 1.0041 0.32554 0.35851 0.0
C423 C 0.99981 0.33603 0.40327 0.0
C424 C 0.03914 0.34423 0.36038 0.0
C425 C 0.03466 0.35605 0.40457 0.0
C426 C 0.98454 0.32078 0.38025 0.0
C427 C 0.08541 0.39468 0.42633 0.0
N428 N 0.08776 0.3783 0.38336 0.0
C429 C 0.10354 0.39719 0.40433 0.0
C430 C 0.05086 0.37363 0.42659 0.0
Tb431 Tb 0.11554 0.37948 0.34678 0.0
N432 N 0.05898 0.34993 0.33981 0.0
C433 C 0.04503 0.34015 0.31621 0.0
C434 C 0.98983 0.31331 0.33469 0.0
C435 C 1.01039 0.32119 0.31337 0.0
H436 H 0.13024 0.41345 0.40437 0.0
H437 H 0.9996 0.31269 0.29472 0.0
H438 H 0.95758 0.30619 0.37928 0.0
H439 H 0.0981 0.40898 0.44307 0.0
H440 H 0.06041 0.34607 0.29946 0.0
H441 H 0.23608 0.36621 0.41237 0.0
H442 H 0.96301 0.29878 0.33242 0.0
H443 H 0.17118 0.32913 0.26825 0.0
H444 H 0.18302 0.34541 0.39054 0.0
H445 H 0.22055 0.34732 0.24083 0.0
H446 H 0.98443 0.33289 0.41975 0.0
H447 H 0.28823 0.38696 0.38781 0.0
H448 H 0.31655 0.39807 0.3455 0.0
H449 H 0.03688 0.37178 0.44364 0.0
H450 H 0.3125 0.39407 0.2989 0.0
N451 N 0.20358 0.35298 0.35304 0.0
C452 C 0.20492 0.35351 0.37909 0.0
C453 C 0.26469 0.37732 0.37789 0.0
C454 C 0.26335 0.37647 0.35135 0.0
C455 C 0.23532 0.36561 0.39179 0.0
C456 C 0.23204 0.36371 0.33932 0.0
H457 H 0.27695 0.37521 0.25977 0.0
N458 N 0.19931 0.34891 0.30222 0.0
C459 C 0.22363 0.35205 0.26108 0.0
C460 C 0.22985 0.36189 0.31309 0.0
C461 C 0.19576 0.34205 0.27666 0.0
C462 C 0.25536 0.36769 0.27185 0.0
C463 C 0.25877 0.37219 0.29819 0.0
O464 O 0.13709 0.2861 0.31036 0.0
O465 O 0.10858 0.33051 0.33659 0.0
O466 O 0.10688 0.34818 0.37956 0.0
O467 O 0.13278 0.31709 0.36932 0.0
O468 O 0.11154 0.3063 0.3051 0.0
O469 O 0.16377 0.29419 0.34535 0.0
O470 O 0.13936 0.43139 0.35314 0.0
O471 O 0.16139 0.37939 0.33917 0.0
O472 O 0.16213 0.36607 0.29784 0.0
O473 O 0.12001 0.37872 0.30544 0.0
O474 O 0.16221 0.40894 0.36811 0.0
O475 O 0.10209 0.40855 0.32421 0.0
C476 C 0.09118 0.31115 0.31872 0.0
C477 C 0.17058 0.26055 0.31378 0.0
C478 C 0.19966 0.22828 0.31582 0.0
C479 C 0.18127 0.24143 0.32787 0.0
C480 C 0.20748 0.23484 0.2899 0.0
C481 C 0.17723 0.26463 0.28749 0.0
C482 C 0.19611 0.2526 0.27586 0.0
C483 C 0.11592 0.3261 0.38523 0.0
C484 C 0.15091 0.27456 0.32579 0.0
C485 C 0.29002 0.38574 0.31005 0.0
C486 C 0.29231 0.38788 0.33658 0.0
C487 C 0.18024 0.40008 0.35551 0.0
C488 C 0.10697 0.45655 0.34461 0.0
C489 C 0.12497 0.49157 0.34168 0.0
C490 C 0.11146 0.5114 0.35018 0.0
C491 C 0.07992 0.49532 0.36203 0.0
C492 C 0.07533 0.44141 0.35591 0.0
C493 C 0.06204 0.46071 0.36469 0.0
C494 C 0.14278 0.37828 0.29058 0.0
C495 C 0.1216 0.43609 0.33631 0.0
H496 H 0.1751 0.23656 0.34787 0.0
H497 H 0.2213 0.22492 0.28017 0.0
H498 H 0.16731 0.27657 0.27558 0.0
H499 H 0.2013 0.25641 0.25569 0.0
H500 H 0.14919 0.50317 0.33255 0.0
H501 H 0.06901 0.50946 0.36958 0.0
H502 H 0.06085 0.41467 0.358 0.0
H503 H 0.03776 0.44879 0.3737 0.0
Tb504 Tb 0.3902 0.16504 0.66314 0.0
C505 C 0.3637 0.04143 0.72319 0.0
C506 C 0.39615 0.02222 0.70032 0.0
C507 C 0.38808 1.01312 0.74593 0.0
C508 C 0.37776 0.03897 0.70085 0.0
C509 C 0.36805 0.02801 0.74595 0.0
C510 C 0.40205 1.01014 0.7231 0.0
C511 C 0.33004 0.04225 0.76629 0.0
N512 N 0.34457 0.05602 0.72229 0.0
C513 C 0.32638 0.05508 0.74318 0.0
C514 C 0.35141 0.02917 0.7678 0.0
Tb515 Tb 0.34248 0.07906 0.68399 0.0
N516 N 0.37127 0.05085 0.67932 0.0
C517 C 0.37971 0.04372 0.6562 0.0
C518 C 0.40684 0.01693 0.6768 0.0
C519 C 0.39787 0.02703 0.65461 0.0
H520 H 0.30989 0.06523 0.74231 0.0
H521 H 0.40514 0.02218 0.63624 0.0
H522 H 0.41651 0.9976 0.72315 0.0
H523 H 0.31638 0.04249 0.78292 0.0
H524 H 0.37311 0.05137 0.63882 0.0
H525 H 0.36135 0.21451 0.74713 0.0
H526 H 0.42095 1.00407 0.67551 0.0
H527 H 0.38614 0.17994 0.60138 0.0
H528 H 0.38074 0.18166 0.72449 0.0
H529 H 0.36442 0.20873 0.57495 0.0
H530 H 0.39209 1.00299 0.76328 0.0
H531 H 0.3386 0.24481 0.72351 0.0
H532 H 0.32401 0.26006 0.6818 0.0
H533 H 0.35416 0.01922 0.78571 0.0
H534 H 0.3236 0.25742 0.63513 0.0
N535 N 0.3703 0.19299 0.68732 0.0
C536 C 0.37165 0.19482 0.71336 0.0
C537 C 0.3476 0.2306 0.71319 0.0
C538 C 0.34641 0.22901 0.68667 0.0
C539 C 0.3604 0.21354 0.72656 0.0
C540 C 0.35837 0.21006 0.6741 0.0
H541 H 0.33838 0.23829 0.59522 0.0
N542 N 0.3697 0.19007 0.63643 0.0
C543 C 0.36185 0.20837 0.59542 0.0
C544 C 0.35775 0.20825 0.64786 0.0
C545 C 0.37368 0.19166 0.6105 0.0
C546 C 0.34732 0.22512 0.60693 0.0
C547 C 0.34572 0.2258 0.63344 0.0
O548 O 0.43273 0.19314 0.64057 0.0
O549 O 0.39115 0.11992 0.67153 0.0
O550 O 0.3749 0.10407 0.7157 0.0
O551 O 0.40796 0.15945 0.70196 0.0
O552 O 0.41521 0.14533 0.63957 0.0
O553 O 0.42918 0.21093 0.67746 0.0
O554 O 0.29057 0.05238 0.69074 0.0
O555 O 0.34238 0.12445 0.67408 0.0
O556 O 0.35535 0.1351 0.63209 0.0
O557 O 0.34253 0.08096 0.64246 0.0
O558 O 0.31409 0.09819 0.70444 0.0
O559 O 0.31261 0.03444 0.66383 0.0
C560 C 0.41022 0.12059 0.65383 0.0
C561 C 0.45858 0.25222 0.64532 0.0
C562 C 0.49114 0.31356 0.6482 0.0
C563 C 0.47974 0.28166 0.65923 0.0
C564 C 0.4808 0.31552 0.62347 0.0
C565 C 0.45068 0.25556 0.62005 0.0
C566 C 0.46101 0.28679 0.60951 0.0
C567 C 0.39871 0.13503 0.71927 0.0
C568 C 0.44617 0.2182 0.65634 0.0
C569 C 0.33319 0.24407 0.64588 0.0
C570 C 0.33355 0.24568 0.67244 0.0
C571 C 0.32239 0.12395 0.69056 0.0
C572 C 0.26388 0.99412 0.68535 0.0
C573 C 0.22904 0.97713 0.68121 0.0
C574 C 0.20836 0.94469 0.69115 0.0
C575 C 0.22338 0.93012 0.70563 0.0
C576 C 0.27795 0.97853 0.69942 0.0
C577 C 0.25778 0.94683 0.70957 0.0
C578 C 0.34269 0.10298 0.6264 0.0
C579 C 0.28523 0.02826 0.67539 0.0
H580 H 0.48744 0.27978 0.67832 0.0
H581 H 0.48926 0.33949 0.61447 0.0
H582 H 0.43706 0.23409 0.60803 0.0
H583 H 0.45426 0.28874 0.59014 0.0
H584 H 0.21826 0.98904 0.67004 0.0
H585 H 0.20851 0.9058 0.71426 0.0
H586 H 0.30452 0.99084 0.70262 0.0
H587 H 0.26886 0.93516 0.72066 0.0
Tb588 Tb 0.89232 0.23367 0.66453 0.0
C589 C 1.01248 0.32724 0.72743 0.0
C590 C 0.03001 0.37963 0.7061 0.0
C591 C 0.03864 0.37878 0.75164 0.0
C592 C 1.01468 0.34458 0.70563 0.0
C593 C 0.02527 0.34408 0.7506 0.0
C594 C 0.04101 0.39656 0.72939 0.0
C595 C 1.01433 0.29171 0.76895 0.0
N596 N 0.99968 0.29385 0.72544 0.0
C597 C 1.00211 0.27621 0.74544 0.0
C598 C 0.02537 0.32568 0.77168 0.0
Tb599 Tb 0.97741 0.27007 0.68674 0.0
N600 N 1.00428 0.32723 0.68358 0.0
C601 C 1.01169 0.3439 0.66089 0.0
C602 C 0.03508 0.39659 0.68306 0.0
C603 C 0.02651 0.37868 0.6603 0.0
H604 H 0.9934 0.24989 0.74356 0.0
H605 H 0.03126 0.39161 0.6423 0.0
H606 H 0.05245 0.42346 0.73023 0.0
H607 H 1.01516 0.27743 0.78495 0.0
H608 H 1.00526 0.33051 0.64311 0.0
H609 H 0.83841 0.14359 0.74142 0.0
H610 H 0.04671 0.42352 0.68256 0.0
H611 H 0.87801 0.22546 0.60256 0.0
H612 H 0.87228 0.19907 0.72334 0.0
H613 H 0.84846 0.1797 0.57164 0.0
H614 H 0.04823 0.39221 0.76933 0.0
H615 H 0.80936 0.09452 0.71336 0.0
H616 H 0.79542 0.07134 0.66924 0.0
H617 H 0.03493 0.33765 0.78988 0.0
H618 H 0.79908 0.08094 0.62307 0.0
N619 N 0.86302 0.18283 0.6846 0.0
C620 C 0.85974 0.17852 0.71044 0.0
C621 C 0.82411 0.11911 0.7051 0.0
C622 C 0.82682 0.12355 0.67876 0.0
C623 C 0.84044 0.14675 0.72099 0.0
C624 C 0.84647 0.15611 0.66894 0.0
H625 H 0.81868 0.12117 0.58652 0.0
N626 N 0.86747 0.19308 0.63419 0.0
C627 C 0.84882 0.17411 0.59158 0.0
C628 C 0.84899 0.1614 0.64293 0.0
C629 C 0.86571 0.1999 0.60908 0.0
C630 C 0.832 0.14114 0.60006 0.0
C631 C 0.83129 0.13447 0.62607 0.0
O632 O 0.86833 0.25636 0.64656 0.0
O633 O 0.93689 0.2789 0.67562 0.0
O634 O 0.95035 0.27158 0.71967 0.0
O635 O 0.8958 0.25193 0.7048 0.0
O636 O 0.91408 0.27944 0.64238 0.0
O637 O 0.84354 0.22133 0.67662 0.0
O638 O 1.00491 0.24541 0.69247 0.0
O639 O 0.93243 0.22542 0.67521 0.0
O640 O 0.92232 0.22901 0.63327 0.0
O641 O 0.97603 0.26981 0.64509 0.0
O642 O 0.95833 0.22126 0.70502 0.0
O643 O 0.02257 0.28671 0.66687 0.0
C644 C 0.93713 0.29814 0.6583 0.0
C645 C 0.80936 0.22344 0.64291 0.0
C646 C 0.74814 0.1941 0.63816 0.0
C647 C 0.77694 0.20769 0.65389 0.0
C648 C 0.75242 0.1966 0.61161 0.0
C649 C 0.81217 0.22627 0.61624 0.0
C650 C 0.78405 0.21256 0.60084 0.0
C651 C 0.91916 0.26406 0.72302 0.0
C652 C 0.84037 0.23907 0.65876 0.0
C653 C 0.81253 0.10196 0.63574 0.0
C654 C 0.81033 0.09652 0.66202 0.0
C655 C 0.93272 0.20482 0.69076 0.0
C656 C 0.06325 0.27868 0.68801 0.0
C657 C 0.08137 0.26208 0.68327 0.0
C658 C 0.11391 0.27459 0.69319 0.0
C659 C 0.12743 0.30359 0.7083 0.0
C660 C 0.0778 0.3078 0.70272 0.0
C661 C 0.10958 0.32001 0.7129 0.0
C662 C 0.95473 0.24857 0.62832 0.0
C663 C 0.02921 0.26544 0.67772 0.0
H664 H 0.77417 0.20614 0.67438 0.0
H665 H 0.73111 0.18705 0.59899 0.0
H666 H 0.8362 0.23964 0.60702 0.0
H667 H 0.78681 0.21487 0.58038 0.0
H668 H 0.07031 0.23983 0.67159 0.0
H669 H 0.15182 0.31354 0.71688 0.0
H670 H 0.06465 0.32117 0.70635 0.0
H671 H 0.12044 0.34234 0.72445 0.0
Tb672 Tb 0.82766 0.67215 0.66486 0.0
C673 C 0.72404 0.69143 0.7228 0.0
C674 C 0.67321 0.65308 0.70107 0.0
C675 C 0.6717 0.66438 0.74606 0.0
C676 C 0.70804 0.67457 0.70109 0.0
C677 C 0.70608 0.68732 0.74543 0.0
C678 C 0.65525 0.64728 0.72387 0.0
C679 C 0.75665 0.73138 0.76403 0.0
N680 N 0.7572 0.71337 0.72125 0.0
C681 C 0.77332 0.7346 0.74107 0.0
C682 C 0.72302 0.70719 0.76639 0.0
Tb683 Tb 0.78315 0.71484 0.68357 0.0
N684 N 0.72635 0.68125 0.67952 0.0
C685 C 0.71061 0.66986 0.65665 0.0
C686 C 0.6574 0.63918 0.67799 0.0
C687 C 0.67611 0.64818 0.6556 0.0
H688 H 0.79932 0.7533 0.73953 0.0
H689 H 0.66402 0.63838 0.63751 0.0
H690 H 0.62854 0.6305 0.72435 0.0
H691 H 0.76978 0.74751 0.7799 0.0
H692 H 0.72454 0.67645 0.63911 0.0
H693 H 0.90837 0.70716 0.74757 0.0
H694 H 0.63069 0.62248 0.67712 0.0
H695 H 0.84594 0.67732 0.60245 0.0
H696 H 0.85524 0.68434 0.72563 0.0
H697 H 0.89606 0.70323 0.57546 0.0
H698 H 0.65746 0.66049 0.76335 0.0
H699 H 0.96102 0.73264 0.72324 0.0
H700 H 0.98992 0.74851 0.68114 0.0
H701 H 0.71016 0.70479 0.78417 0.0
H702 H 0.98664 0.74906 0.63455 0.0
N703 N 0.87626 0.69613 0.68821 0.0
C704 C 0.87739 0.69498 0.71423 0.0
C705 C 0.93747 0.72235 0.71324 0.0
C706 C 0.93641 0.72336 0.68674 0.0
C707 C 0.90783 0.70803 0.72702 0.0
C708 C 0.90506 0.70962 0.67459 0.0
H709 H 0.95194 0.73283 0.59511 0.0
N710 N 0.87267 0.69585 0.63733 0.0
C711 C 0.89848 0.70587 0.59591 0.0
C712 C 0.90323 0.71001 0.64837 0.0
C713 C 0.8701 0.69182 0.61132 0.0
C714 C 0.92994 0.72239 0.60708 0.0
C715 C 0.93266 0.72392 0.63357 0.0
O716 O 0.8212 0.63119 0.64288 0.0
O717 O 0.77962 0.66721 0.67293 0.0
O718 O 0.78131 0.6875 0.71716 0.0
O719 O 0.80505 0.65535 0.70405 0.0
O720 O 0.78344 0.64277 0.64181 0.0
O721 O 0.83466 0.63484 0.68226 0.0
O722 O 0.80614 0.76719 0.68703 0.0
O723 O 0.83061 0.7185 0.67458 0.0
O724 O 0.82899 0.70492 0.63328 0.0
O725 O 0.78391 0.71226 0.64224 0.0
O726 O 0.83011 0.74736 0.70361 0.0
O727 O 0.76402 0.74042 0.66263 0.0
C728 C 0.76251 0.64643 0.65569 0.0
C729 C 0.85607 0.60883 0.65486 0.0
C730 C 0.88213 0.57416 0.66133 0.0
C731 C 0.85695 0.58207 0.66738 0.0
C732 C 0.9061 0.59325 0.64287 0.0
C733 C 0.87986 0.62619 0.63587 0.0
C734 C 0.90481 0.61887 0.6302 0.0
C735 C 0.79034 0.66511 0.72139 0.0
C736 C 0.83044 0.61845 0.66115 0.0
C737 C 0.96383 0.73814 0.6456 0.0
C738 C 0.96569 0.73773 0.67212 0.0
C739 C 0.84905 0.74002 0.69065 0.0
C740 C 0.77124 0.79018 0.6816 0.0
C741 C 0.78898 0.82499 0.67756 0.0
C742 C 0.77635 0.84534 0.68648 0.0
C743 C 0.7458 0.83008 0.69973 0.0
C744 C 0.74084 0.77576 0.69477 0.0
C745 C 0.72829 0.79566 0.70378 0.0
C746 C 0.80721 0.71436 0.62674 0.0
C747 C 0.78493 0.76936 0.67224 0.0
H748 H 0.83836 0.56764 0.68164 0.0
H749 H 0.92539 0.58762 0.63759 0.0
H750 H 0.87912 0.64517 0.62491 0.0
H751 H 0.92298 0.63284 0.61558 0.0
H752 H 0.81237 0.83608 0.66723 0.0
H753 H 0.73558 0.84483 0.70734 0.0
H754 H 0.72679 0.74915 0.69809 0.0
H755 H 0.70489 0.78435 0.71405 0.0
C756 C 0.36746 0.53684 1.00051 0.0
C757 C 0.37436 0.51142 0.9942 0.0
C758 C 0.33462 0.5293 1.00571 0.0
C759 C 0.26256 0.50791 0.99188 0.0
H760 H 0.19545 0.43016 0.02813 0.0
C761 C 0.12358 0.45679 0.97297 0.0
C762 C 0.10303 0.45181 0.99412 0.0
C763 C 0.15568 0.46156 0.97599 0.0
C764 C 0.21394 0.45205 0.01805 0.0
H765 H 0.35263 0.45804 0.99003 0.0
H766 H 0.29564 0.44478 0.99968 0.0
H767 H 0.25432 0.44495 0.03024 0.0
H768 H 0.09951 0.44572 0.03503 0.0
H769 H 0.15567 0.4534 0.04034 0.0
H770 H 0.22238 0.51465 0.97915 0.0
C771 C 0.31541 0.47056 1.0006 0.0
C772 C 0.24765 0.46047 0.01916 0.0
C773 C 0.34812 0.47814 0.9951 0.0
C774 C 0.11463 0.44945 0.01834 0.0
C775 C 0.14686 0.45392 0.02137 0.0
C776 C 0.22897 0.49925 0.99047 0.0
C777 C 0.30796 0.49612 1.00496 0.0
C778 C 0.27242 0.48843 1.00592 0.0
C779 C 0.16822 0.46132 1.00027 0.0
C780 C 0.20412 0.47099 1.00325 0.0
H781 H 0.38702 0.56272 0.99959 0.0
H782 H 0.32989 0.54961 0.00929 0.0
H783 H 0.2807 0.52933 0.98117 0.0
H784 H 0.1154 0.45869 0.95406 0.0
H785 H 0.17115 0.46649 0.95927 0.0
C786 C 0.5716 0.87975 0.97026 0.0
C787 C 0.5425 0.87572 0.98209 0.0
C788 C 0.58253 0.85689 0.97434 0.0
C789 C 0.57783 0.78973 0.01468 0.0
H790 H 0.58688 0.75297 0.95094 0.0
C791 C 0.58787 0.66932 0.01031 0.0
C792 C 0.60337 0.66378 0.98941 0.0
C793 C 0.58466 0.69786 0.01172 0.0
C794 C 0.58538 0.76328 0.96903 0.0
H795 H 0.50372 0.8458 0.0092 0.0
H796 H 0.52352 0.80616 0.01699 0.0
H797 H 0.57433 0.79792 0.95063 0.0
H798 H 0.62655 0.68351 0.95301 0.0
H799 H 0.62357 0.73448 0.95611 0.0
H800 H 0.5897 0.75572 0.03318 0.0
C801 C 0.53754 0.82697 1.00425 0.0
C802 C 0.57783 0.78904 0.96879 0.0
C803 C 0.52631 0.84979 0.99992 0.0
C804 C 0.61571 0.68767 0.9699 0.0
C805 C 0.61325 0.71664 0.97149 0.0
C806 C 0.58609 0.7643 0.01496 0.0
C807 C 0.565 0.82953 0.99068 0.0
C808 C 0.57377 0.80252 0.99156 0.0
C809 C 0.59671 0.7218 0.99207 0.0
C810 C 0.58981 0.75042 0.99209 0.0
H811 H 0.58498 0.89969 0.95668 0.0
H812 H 0.60411 0.85996 0.96397 0.0
H813 H 0.57507 0.79972 0.03256 0.0
H814 H 0.5758 0.65039 0.0247 0.0
H815 H 0.57091 0.69995 0.02757 0.0
C816 C 0.37689 0.93732 0.02152 0.0
C817 C 0.38842 0.94925 0.99684 0.0
C818 C 0.34976 0.90494 0.02528 0.0
C819 C 0.30718 0.82345 0.99147 0.0
H820 H 0.24036 0.79634 0.0444 0.0
C821 C 0.20767 0.68466 1.00297 0.0
C822 C 0.1748 0.67829 1.00549 0.0
C823 C 0.23478 0.71701 1.00671 0.0
C824 C 0.25882 0.80344 0.02948 0.0
H825 H 0.37868 0.93777 0.95681 0.0
H826 H 0.33107 0.88217 0.96319 0.0
H827 H 0.28314 0.85513 0.04023 0.0
H828 H 0.14467 0.70023 0.0158 0.0
H829 H 0.1915 0.75623 0.02238 0.0
H830 H 0.28258 0.77228 0.98012 0.0
C831 C 0.34353 0.89709 0.97976 0.0
C832 C 0.28354 0.83721 0.02722 0.0
C833 C 0.37058 0.9292 0.97607 0.0
C834 C 0.16974 0.70433 0.01382 0.0
C835 C 0.19672 0.73654 0.0176 0.0
C836 C 0.28262 0.78983 0.99375 0.0
C837 C 0.33356 0.88387 1.00439 0.0
C838 C 0.30776 0.8478 0.00787 0.0
C839 C 0.22962 0.74374 0.0131 0.0
C840 C 0.25775 0.77925 0.01257 0.0
H841 H 0.38991 0.9522 0.03792 0.0
H842 H 0.34272 0.89583 0.04454 0.0
H843 H 0.32577 0.83036 0.97666 0.0
H844 H 0.21239 0.66525 0.99633 0.0
H845 H 0.25974 0.72134 1.00356 0.0
C846 C 0.49871 0.23651 0.02086 0.0
C847 C 0.46388 0.21697 0.01829 0.0
C848 C 0.51483 0.27139 0.0186 0.0
C849 C 0.50285 0.3414 0.99576 0.0
H850 H 0.57273 0.39347 0.04428 0.0
C851 C 0.57543 0.48676 0.99491 0.0
C852 C 0.58198 0.50256 0.01872 0.0
C853 C 0.56244 0.45215 0.99325 0.0
C854 C 0.55312 0.37938 0.03066 0.0
H855 H 0.41905 0.21905 0.00999 0.0
H856 H 0.44686 0.27944 1.00659 0.0
H857 H 0.54739 0.33305 0.04388 0.0
H858 H 0.58229 0.49508 0.05927 0.0
H859 H 0.55926 0.4349 0.05657 0.0
H860 H 0.50795 0.38773 0.98306 0.0
C861 C 0.4619 0.26798 0.01024 0.0
C862 C 0.53886 0.34461 0.03019 0.0
C863 C 0.44583 0.23322 0.01251 0.0
C864 C 0.57685 0.4834 0.0407 0.0
C865 C 0.56389 0.44891 0.03909 0.0
C866 C 0.51715 0.37621 0.99621 0.0
C867 C 0.49659 0.28769 0.0136 0.0
C868 C 0.51325 0.32502 0.01292 0.0
C869 C 0.55637 0.43269 0.01536 0.0
C870 C 0.54223 0.3957 0.01389 0.0
H871 H 0.51344 0.22496 0.0254 0.0
H872 H 0.54163 0.28561 0.02096 0.0
H873 H 0.48351 0.3273 0.98195 0.0
H874 H 0.5803 0.50112 0.97759 0.0
H875 H 0.55754 0.44073 0.97461 0.0
C876 C 0.56712 0.0986 0.99701 0.0
C877 C 0.55179 0.08945 0.02104 0.0
C878 C 0.60191 0.11906 0.99497 0.0
C879 C 0.67895 0.14294 0.03045 0.0
H880 H 0.72124 0.22068 0.98663 0.0
C881 C 0.82159 0.21652 0.01618 0.0
C882 C 0.83751 0.25143 0.01902 0.0
C883 C 0.78688 0.19721 0.01412 0.0
C884 C 0.70978 0.19906 0.99897 0.0
H885 H 0.56028 0.09669 0.06155 0.0
H886 H 0.62084 0.13157 0.05809 0.0
H887 H 0.66017 0.18605 0.98739 0.0
H888 H 0.82875 0.29325 0.02075 0.0
H889 H 0.76807 0.25947 0.01658 0.0
H890 H 0.72823 0.1557 0.0421 0.0
C891 C 0.60624 0.1225 0.04084 0.0
C892 C 0.67485 0.1791 0.99925 0.0
C893 C 0.57159 0.10258 0.04284 0.0
C894 C 0.81759 0.26655 0.01846 0.0
C895 C 0.78272 0.24715 0.01612 0.0
C896 C 0.71376 0.16252 0.02989 0.0
C897 C 0.62192 0.13074 0.01692 0.0
C898 C 0.65902 0.15103 0.01524 0.0
C899 C 0.76689 0.21215 0.01448 0.0
C900 C 0.72969 0.19101 0.01432 0.0
H901 H 0.55228 0.08976 0.97987 0.0
H902 H 0.61323 0.12509 0.97627 0.0
H903 H 0.66755 0.12135 0.04283 0.0
H904 H 0.83596 0.2039 0.01577 0.0
H905 H 0.77561 0.17041 0.01235 0.0
C906 C 0.94591 0.46788 0.99905 0.0
C907 C 0.95696 0.46354 0.02288 0.0
C908 C 0.92419 0.48076 0.99734 0.0
C909 C 0.90002 0.53376 0.03291 0.0
H910 H 0.82323 0.49848 0.98821 0.0
C911 C 0.8298 0.60506 0.01332 0.0
C912 C 0.79493 0.58722 0.01676 0.0
C913 C 0.84824 0.58863 0.01251 0.0
C914 C 0.84457 0.50856 1.00079 0.0
H915 H 0.9515 0.46604 0.06353 0.0
H916 H 0.91426 0.48917 0.06064 0.0
H917 H 0.85747 0.4716 0.98998 0.0
H918 H 0.75223 0.53747 0.02085 0.0
H919 H 0.78452 0.50873 0.01865 0.0
H920 H 0.8876 0.57092 0.04351 0.0
C921 C 0.92289 0.48342 0.04325 0.0
C922 C 0.8643 0.49332 1.00168 0.0
C923 C 0.94417 0.47016 0.04492 0.0
C924 C 0.77893 0.55215 0.01804 0.0
C925 C 0.79745 0.53563 0.01687 0.0
C926 C 0.88076 0.54931 0.03166 0.0
C927 C 0.91302 0.4894 0.01944 0.0
C928 C 0.89215 0.50564 0.0179 0.0
C929 C 0.83242 0.55378 0.01466 0.0
C930 C 0.85272 0.53688 0.01568 0.0
H931 H 0.95447 0.46181 0.98177 0.0
H932 H 0.91699 0.48496 0.97872 0.0
H933 H 0.92141 0.54404 0.04547 0.0
H934 H 0.84308 0.63194 0.01144 0.0
H935 H 0.87506 0.60331 0.01029 0.0
C936 C 0.77958 0.78254 0.35301 0.0
C937 C 0.76827 0.78434 0.32856 0.0
C938 C 0.81184 0.78736 0.35658 0.0
C939 C 0.89441 0.82909 0.32425 0.0
H940 H 0.91915 0.78273 0.37322 0.0
C941 C 0.03248 0.8657 0.33612 0.0
C942 C 0.03856 0.83885 0.33609 0.0
C943 C 1.00007 0.86022 0.34011 0.0
C944 C 0.91271 0.79597 0.35943 0.0
H945 H 0.78107 0.7902 0.28859 0.0
H946 H 0.83656 0.7977 0.29459 0.0
H947 H 0.86066 0.768 0.36915 0.0
H948 H 1.01591 0.78565 0.34208 0.0
H949 H 0.95977 0.77609 0.34923 0.0
H950 H 0.94597 0.8564 0.31394 0.0
C951 C 0.82111 0.79357 0.31119 0.0
C952 C 0.87912 0.78763 0.35723 0.0
C953 C 0.78908 0.78883 0.3077 0.0
C954 C 1.01205 0.80689 0.34215 0.0
C955 C 0.97977 0.80142 0.34624 0.0
C956 C 0.92786 0.83747 0.3265 0.0
C957 C 0.83352 0.79419 0.33573 0.0
C958 C 0.86939 0.80369 0.33926 0.0
C959 C 0.97297 0.82777 0.34424 0.0
C960 C 0.93758 0.82081 0.34389 0.0
H961 H 0.76416 0.77894 0.36946 0.0
H962 H 0.82033 0.78742 0.37577 0.0
H963 H 0.88816 0.84256 0.31055 0.0
H964 H 0.05224 0.89053 0.33123 0.0
H965 H 0.99602 0.88129 0.33891 0.0
C966 C 0.1842 0.17364 0.33663 0.0
C967 C 0.20903 0.20547 0.32872 0.0
C968 C 0.19214 0.14861 0.34172 0.0
C969 C 0.21228 0.09731 0.32681 0.0
H970 H 0.29233 0.10891 0.35986 0.0
C971 C 0.26194 1.00879 0.30586 0.0
C972 C 0.26703 0.99309 0.32687 0.0
C973 C 0.2579 0.03654 0.30907 0.0
C974 C 0.26981 0.10528 0.35068 0.0
H975 H 0.26189 0.23666 0.32159 0.0
H976 H 0.27591 0.19341 0.33109 0.0
H977 H 0.27791 0.15329 0.36244 0.0
H978 H 0.27438 0.996 0.36764 0.0
H979 H 0.26802 0.04523 0.37328 0.0
H980 H 0.20458 0.04991 0.31442 0.0
C981 C 0.2503 0.18761 0.33333 0.0
C982 C 0.26159 0.1307 0.35207 0.0
C983 C 0.2423 0.21245 0.32793 0.0
C984 C 0.27047 1.00743 0.35107 0.0
C985 C 0.26677 0.03562 0.3543 0.0
C986 C 0.22075 0.07227 0.32509 0.0
C987 C 0.22515 0.15497 0.33928 0.0
C988 C 0.23279 0.12711 0.34 0.0
C989 C 0.25909 0.04963 0.3334 0.0
C990 C 0.24979 0.07603 0.33672 0.0
H991 H 0.15831 0.16738 0.33703 0.0
H992 H 0.17218 0.12385 0.34652 0.0
H993 H 0.19018 0.09376 0.317 0.0
H994 H 0.25926 0.99844 0.28695 0.0
H995 H 0.25268 0.04711 0.29253 0.0
C996 C 0.04731 0.26622 0.34616 0.0
C997 C 0.05736 0.28162 0.32231 0.0
C998 C 1.01969 0.23411 0.34864 0.0
C999 C 0.96972 0.15716 0.31028 0.0
H1000 H 0.91419 0.12696 0.37057 0.0
C1001 C 0.87248 0.01732 0.32389 0.0
C1002 C 0.84104 1.01042 0.33274 0.0
C1003 C 0.90002 0.04982 0.32541 0.0
C1004 C 0.9293 0.13488 0.3535 0.0
H1005 H 0.04557 0.27553 0.2822 0.0
H1006 H 0.99653 0.21994 0.28639 0.0
H1007 H 0.95626 0.18555 0.36627 0.0
H1008 H 0.81428 0.03159 0.35154 0.0
H1009 H 0.86177 0.08778 0.35425 0.0
H1010 H 0.94201 0.10675 0.2971 0.0
C1011 C 1.01036 0.23243 0.30336 0.0
C1012 C 0.95377 0.16862 0.35113 0.0
C1013 C 0.03818 0.26455 0.30096 0.0
C1014 C 0.83829 0.03609 0.34475 0.0
C1015 C 0.86566 0.06844 0.34627 0.0
C1016 C 0.94515 0.12347 0.31259 0.0
C1017 C 1.00129 0.21625 0.32717 0.0
C1018 C 0.97435 0.18036 0.32944 0.0
C1019 C 0.89671 0.07615 0.33582 0.0
C1020 C 0.92445 0.11176 0.3342 0.0
H1021 H 0.0623 0.27775 0.36264 0.0
H1022 H 1.01413 0.22259 0.36727 0.0
H1023 H 0.98536 0.16488 0.29349 0.0
H1024 H 0.87526 0.99817 0.31426 0.0
H1025 H 0.92363 0.05452 0.31762 0.0
C1026 C 0.24445 0.8141 0.37732 0.0
C1027 C 0.25125 0.83373 0.35539 0.0
C1028 C 0.23125 0.77961 0.37544 0.0
C1029 C 0.22284 0.71203 0.33378 0.0
H1030 H 0.14417 0.65658 0.37431 0.0
C1031 C 0.16467 0.56785 0.34973 0.0
C1032 C 0.12974 0.54864 0.34713 0.0
C1033 C 0.18101 0.60288 0.34889 0.0
C1034 C 0.16611 0.6717 0.36285 0.0
H1035 H 0.25314 0.8334 0.31426 0.0
H1036 H 0.23018 0.77285 0.31087 0.0
H1037 H 0.17048 0.71722 0.37676 0.0
H1038 H 0.08522 0.55183 0.33984 0.0
H1039 H 0.11349 0.61242 0.33938 0.0
H1040 H 0.21867 0.66622 0.32028 0.0
C1041 C 0.2342 0.78405 0.32955 0.0
C1042 C 0.18128 0.70645 0.36435 0.0
C1043 C 0.24699 0.8186 0.33146 0.0
C1044 C 0.11193 0.56553 0.34275 0.0
C1045 C 0.12815 0.60037 0.34232 0.0
C1046 C 0.20801 0.67715 0.33267 0.0
C1047 C 0.22556 0.76407 0.35154 0.0
C1048 C 0.20974 0.72707 0.34977 0.0
C1049 C 0.16279 0.6195 0.34574 0.0
C1050 C 0.17932 0.65659 0.34708 0.0
H1051 H 0.24846 0.82536 0.39599 0.0
H1052 H 0.2254 0.76503 0.39274 0.0
H1053 H 0.24485 0.72725 0.32243 0.0
H1054 H 0.17932 0.55596 0.35329 0.0
H1055 H 0.20776 0.61699 0.35165 0.0
C1056 C 0.23348 0.43125 0.3302 0.0
C1057 C 0.21698 0.42186 0.35379 0.0
C1058 C 0.26829 0.45187 0.32909 0.0
C1059 C 0.34377 0.47614 0.36681 0.0
H1060 H 0.38757 0.55249 0.32175 0.0
C1061 C 0.48673 0.54809 0.35345 0.0
C1062 C 0.50297 0.58312 0.35538 0.0
C1063 C 0.45198 0.52899 0.35146 0.0
C1064 C 0.37569 0.53128 0.33447 0.0
H1065 H 0.22341 0.42889 0.39446 0.0
H1066 H 0.28413 0.4642 0.39264 0.0
H1067 H 0.3265 0.51827 0.32182 0.0
H1068 H 0.49473 0.62532 0.35568 0.0
H1069 H 0.43403 0.59189 0.35159 0.0
H1070 H 0.3927 0.48886 0.37944 0.0
C1071 C 0.27039 0.45515 0.37503 0.0
C1072 C 0.34075 0.51155 0.33436 0.0
C1073 C 0.23565 0.43502 0.37609 0.0
C1074 C 0.48333 0.59851 0.35407 0.0
C1075 C 0.44845 0.57932 0.35179 0.0
C1076 C 0.37862 0.4955 0.36664 0.0
C1077 C 0.28721 0.46355 0.35154 0.0
C1078 C 0.32437 0.48394 0.35073 0.0
C1079 C 0.4323 0.54426 0.35097 0.0
C1080 C 0.39508 0.52346 0.3506 0.0
H1081 H 0.21956 0.42239 0.31266 0.0
H1082 H 0.28048 0.45797 0.31071 0.0
H1083 H 0.33195 0.45487 0.37948 0.0
H1084 H 0.50086 0.53522 0.35364 0.0
H1085 H 0.44047 0.50211 0.35034 0.0
C1086 C 0.44397 0.88389 0.35483 0.0
C1087 C 0.46062 0.91903 0.35485 0.0
C1088 C 0.46193 0.86684 0.3533 0.0
C1089 C 0.54421 0.87808 0.36888 0.0
H1090 H 0.52028 0.80177 0.32537 0.0
C1091 C 0.60832 0.79963 0.3795 0.0
C1092 C 0.62039 0.79294 0.3571 0.0
C1093 C 0.58647 0.81223 0.37846 0.0
C1094 C 0.5273 0.82309 0.33759 0.0
H1095 H 0.50941 0.96344 0.35154 0.0
H1096 H 0.54042 0.93383 0.34964 0.0
H1097 H 0.48713 0.82981 0.32424 0.0
H1098 H 0.61575 0.78993 0.31611 0.0
H1099 H 0.57753 0.81231 0.31414 0.0
H1100 H 0.58406 0.87144 0.38246 0.0
C1101 C 0.5135 0.91948 0.35115 0.0
C1102 C 0.50818 0.83899 0.33707 0.0
C1103 C 0.49562 0.93647 0.35237 0.0
C1104 C 0.6078 0.79618 0.33363 0.0
C1105 C 0.58563 0.80859 0.33255 0.0
C1106 C 0.56289 0.86191 0.36972 0.0
C1107 C 0.49698 0.88449 0.35198 0.0
C1108 C 0.51659 0.86685 0.3526 0.0
C1109 C 0.57543 0.81767 0.35497 0.0
C1110 C 0.55483 0.83428 0.35404 0.0
H1111 H 0.41713 0.8695 0.35689 0.0
H1112 H 0.44846 0.83985 0.35408 0.0
H1113 H 0.55122 0.89927 0.38125 0.0
H1114 H 0.61674 0.79619 0.39788 0.0
H1115 H 0.57851 0.81814 0.39612 0.0
C1116 C 0.7038 0.19515 0.66586 0.0
C1117 C 0.71324 0.17848 0.64824 0.0
C1118 C 0.66983 0.18415 0.67039 0.0
C1119 C 0.59057 0.14222 0.63594 0.0
H1120 H 0.54744 0.13398 0.70079 0.0
C1121 C 0.45104 0.1036 0.63902 0.0
C1122 C 0.44004 0.11698 0.65816 0.0
C1123 C 0.48269 0.10648 0.64029 0.0
C1124 C 0.55904 0.13655 0.68243 0.0
H1125 H 0.69427 0.13547 0.62338 0.0
H1126 H 0.63559 0.1167 0.63105 0.0
H1127 H 0.60604 0.14865 0.69951 0.0
H1128 H 0.45557 0.14707 0.6922 0.0
H1129 H 0.51028 0.15255 0.69455 0.0
H1130 H 0.5448 0.13194 0.61856 0.0
C1131 C 0.65425 0.13851 0.64109 0.0
C1132 C 0.59273 0.14485 0.68178 0.0
C1133 C 0.68795 0.14922 0.63679 0.0
C1134 C 0.46196 0.13412 0.67825 0.0
C1135 C 0.49386 0.13767 0.67934 0.0
C1136 C 0.55722 0.13456 0.63653 0.0
C1137 C 0.64468 0.15643 0.65724 0.0
C1138 C 0.60887 0.14763 0.6585 0.0
C1139 C 0.50513 0.12444 0.66012 0.0
C1140 C 0.54068 0.13145 0.65977 0.0
H1141 H 0.72256 0.21787 0.67485 0.0
H1142 H 0.66329 0.1985 0.68299 0.0
H1143 H 0.60235 0.1447 0.61763 0.0
H1144 H 0.43542 0.09158 0.62264 0.0
H1145 H 0.48976 0.09531 0.62524 0.0
C1146 C 0.93927 0.34978 0.64237 0.0
C1147 C 0.94109 0.33164 0.66311 0.0
C1148 C 0.93418 0.37682 0.6461 0.0
C1149 C 0.93303 0.43583 0.69397 0.0
H1150 H 0.87068 0.43815 0.64596 0.0
C1151 C 0.91432 0.54996 0.68156 0.0
C1152 C 0.88369 0.5453 0.67244 0.0
C1153 C 0.91936 0.52283 0.68517 0.0
C1154 C 0.88771 0.43772 0.65985 0.0
H1155 H 0.94192 0.32965 0.70419 0.0
H1156 H 0.93257 0.37671 0.71088 0.0
H1157 H 0.88569 0.39506 0.64238 0.0
H1158 H 0.83356 0.50815 0.66178 0.0
H1159 H 0.84188 0.46046 0.66878 0.0
H1160 H 0.93463 0.47842 0.71159 0.0
C1161 C 0.93498 0.36995 0.69161 0.0
C1162 C 0.89687 0.41322 0.65749 0.0
C1163 C 0.9403 0.34287 0.68781 0.0
C1164 C 0.85733 0.51256 0.66901 0.0
C1165 C 0.86236 0.48528 0.67262 0.0
C1166 C 0.92383 0.46043 0.69633 0.0
C1167 C 0.93047 0.38644 0.67073 0.0
C1168 C 0.9201 0.41218 0.67422 0.0
C1169 C 0.89389 0.49013 0.67976 0.0
C1170 C 0.90131 0.46201 0.6791 0.0
H1171 H 0.94005 0.34192 0.6231 0.0
H1172 H 0.93205 0.38953 0.62953 0.0
H1173 H 0.95092 0.43588 0.70725 0.0
H1174 H 0.93517 0.57493 0.68429 0.0
H1175 H 0.94401 0.52784 0.69055 0.0
C1176 C 0.7136 0.59571 0.63819 0.0
C1177 C 0.72897 0.61638 0.65928 0.0
C1178 C 0.68622 0.56365 0.64124 0.0
C1179 C 0.61839 0.50572 0.68378 0.0
H1180 H 0.62749 0.4386 0.64616 0.0
C1181 C 0.54812 0.35207 0.66605 0.0
C1182 C 0.51565 0.34546 0.66073 0.0
C1183 C 0.5738 0.38483 0.67093 0.0
C1184 C 0.62461 0.45684 0.65709 0.0
H1185 H 0.72605 0.62011 0.70014 0.0
H1186 H 0.67757 0.564 0.70553 0.0
H1187 H 0.67142 0.49675 0.64394 0.0
H1188 H 0.48422 0.36764 0.65802 0.0
H1189 H 0.52863 0.42445 0.66704 0.0
H1190 H 0.57108 0.46559 0.69649 0.0
C1191 C 0.68705 0.57269 0.68656 0.0
C1192 C 0.6497 0.49036 0.65555 0.0
C1193 C 0.71481 0.60491 0.68349 0.0
C1194 C 0.50894 0.37191 0.66228 0.0
C1195 C 0.53447 0.40453 0.66743 0.0
C1196 C 0.59296 0.47208 0.68506 0.0
C1197 C 0.67321 0.55121 0.66552 0.0
C1198 C 0.64681 0.51537 0.66858 0.0
C1199 C 0.56755 0.4117 0.67083 0.0
C1200 C 0.59562 0.44718 0.67156 0.0
H1201 H 0.72383 0.6038 0.61929 0.0
H1202 H 0.67578 0.54814 0.62455 0.0
H1203 H 0.61536 0.5243 0.69407 0.0
H1204 H 0.55417 0.33235 0.66465 0.0
H1205 H 0.59887 0.3893 0.6738 0.0
C1206 C 0.77732 0.89929 0.67699 0.0
C1207 C 0.79477 0.88235 0.6825 0.0
C1208 C 0.794 0.93413 0.67514 0.0
C1209 C 0.87163 1.00937 0.69604 0.0
H1210 H 0.84282 0.05492 0.64947 0.0
C1211 C 0.91169 0.14817 0.70902 0.0
C1212 C 0.91764 0.16824 0.68746 0.0
C1213 C 0.89826 0.1137 0.70668 0.0
C1214 C 0.85142 0.04269 0.66247 0.0
H1215 H 0.84392 0.88924 0.68969 0.0
H1216 H 0.87312 0.94995 0.686 0.0
H1217 H 0.81714 0.99435 0.64756 0.0
H1218 H 0.91699 0.16841 0.64632 0.0
H1219 H 0.89334 0.10795 0.64205 0.0
H1220 H 0.90609 0.05762 0.7108 0.0
C1221 C 0.84634 0.93623 0.68349 0.0
C1222 C 0.83642 1.00782 0.66156 0.0
C1223 C 0.82962 0.9013 0.68532 0.0
C1224 C 0.91147 0.15334 0.66331 0.0
C1225 C 0.89799 0.11871 0.66091 0.0
C1226 C 0.88657 0.04417 0.69697 0.0
C1227 C 0.82871 0.95321 0.67871 0.0
C1228 C 0.84606 0.99059 0.67852 0.0
C1229 C 0.89109 0.09836 0.68262 0.0
C1230 C 0.87641 0.06136 0.68044 0.0
H1231 H 0.75056 0.8856 0.67429 0.0
H1232 H 0.77943 0.94613 0.67166 0.0
H1233 H 0.8796 0.99715 0.70958 0.0
H1234 H 0.91685 0.15913 0.72785 0.0
H1235 H 0.893 0.09901 0.72386 0.0
C1236 C 0.90428 0.77621 0.71102 0.0
C1237 C 0.88548 0.76345 0.68873 0.0
C1238 C 0.93882 0.79765 0.70981 0.0
C1239 C 1.00849 0.85636 0.66896 0.0
H1240 H 0.06148 0.83313 0.71241 0.0
C1241 C 0.15222 0.94181 0.68696 0.0
C1242 C 0.1713 0.92576 0.68694 0.0
C1243 C 0.11723 0.92327 0.68522 0.0
C1244 C 0.04709 0.83996 0.7001 0.0
H1245 H 0.8873 0.7663 0.64763 0.0
H1246 H 0.94794 0.80402 0.6454 0.0
H1247 H 1.0008 0.79935 0.7134 0.0
H1248 H 0.168 0.87747 0.68322 0.0
H1249 H 0.10749 0.84549 0.68097 0.0
H1250 H 0.05509 0.89732 0.65592 0.0
C1251 C 0.93607 0.79667 0.66386 0.0
C1252 C 1.01226 0.82071 0.7008 0.0
C1253 C 0.90146 0.77479 0.66511 0.0
C1254 C 0.15436 0.89081 0.68412 0.0
C1255 C 0.11955 0.87236 0.6827 0.0
C1256 C 0.04346 0.87604 0.66858 0.0
C1257 C 0.9553 0.80771 0.68624 0.0
C1258 C 0.99246 0.82857 0.68522 0.0
C1259 C 0.10044 0.88823 0.68364 0.0
C1260 C 0.0632 0.86794 0.68406 0.0
H1261 H 0.89237 0.76868 0.72947 0.0
H1262 H 0.95271 0.8062 0.72741 0.0
H1263 H 0.99397 0.86318 0.6568 0.0
H1264 H 0.16417 0.96858 0.68924 0.0
H1265 H 0.10324 0.93627 0.68606 0.0
C1266 C 0.28974 0.14378 0.66463 0.0
C1267 C 0.3005 0.13875 0.68836 0.0
C1268 C 0.26863 0.15742 0.66316 0.0
C1269 C 0.24457 0.21024 0.69921 0.0
H1270 H 0.16584 0.17287 0.65646 0.0
C1271 C 0.16891 0.27719 0.68511 0.0
C1272 C 0.13407 0.25791 0.68828 0.0
C1273 C 0.18856 0.26214 0.68306 0.0
C1274 C 0.18771 0.18355 0.66852 0.0
H1275 H 0.29556 0.1414 0.72906 0.0
H1276 H 0.25944 0.16584 0.72658 0.0
H1277 H 0.20138 0.14743 0.65692 0.0
H1278 H 0.0927 0.20718 0.69058 0.0
H1279 H 0.1271 0.18086 0.68646 0.0
H1280 H 0.23117 0.24633 0.71084 0.0
C1281 C 0.26776 0.15995 0.70909 0.0
C1282 C 0.2082 0.16915 0.66862 0.0
C1283 C 0.28838 0.14592 0.71053 0.0
C1284 C 0.11935 0.22292 0.68804 0.0
C1285 C 0.13909 0.20779 0.68574 0.0
C1286 C 0.22444 0.22489 0.69882 0.0
C1287 C 0.25784 0.16617 0.6854 0.0
C1288 C 0.2367 0.18214 0.68419 0.0
C1289 C 0.17405 0.22728 0.68379 0.0
C1290 C 0.19561 0.21166 0.68361 0.0
H1291 H 0.29782 0.13741 0.64724 0.0
H1292 H 0.26137 0.16181 0.64463 0.0
H1293 H 0.26648 0.22103 0.71125 0.0
H1294 H 0.1812 0.30414 0.68443 0.0
H1295 H 0.21529 0.27791 0.68102 0.0
C1296 C 0.14309 0.3746 0.24268 0.0
C1297 C 0.14606 0.39283 0.26483 0.0
C1298 C 0.13967 0.38627 0.21877 0.0
C1299 C 0.14965 0.46099 0.18373 0.0
H1300 H 0.07385 0.39681 0.14438 0.0
C1301 C 0.10689 0.48392 0.08287 0.0
C1302 C 0.07239 0.4718 0.0811 0.0
C1303 C 0.12049 0.47809 0.10498 0.0
C1304 C 0.09521 0.41503 0.15509 0.0
H1305 H 0.1491 0.43807 0.27922 0.0
H1306 H 0.14412 0.45879 0.23771 0.0
H1307 H 0.09062 0.37857 0.18239 0.0
H1308 H 0.02574 0.44655 0.10175 0.0
H1309 H 0.04918 0.4364 0.13986 0.0
H1310 H 0.15381 0.49751 0.15636 0.0
C1311 C 0.14436 0.43554 0.23861 0.0
C1312 C 0.10502 0.4045 0.17677 0.0
C1313 C 0.14715 0.42362 0.26244 0.0
C1314 C 0.0524 0.45618 0.10252 0.0
C1315 C 0.06576 0.45002 0.12428 0.0
C1316 C 0.14014 0.47144 0.16172 0.0
C1317 C 0.13967 0.41665 0.21648 0.0
C1318 C 0.13197 0.42741 0.19171 0.0
C1319 C 0.09972 0.45977 0.12549 0.0
C1320 C 0.1123 0.4487 0.14748 0.0
H1321 H 0.14143 0.35049 0.24396 0.0
H1322 H 0.13619 0.37111 0.20212 0.0
H1323 H 0.17063 0.47928 0.1947 0.0
H1324 H 0.12285 0.4955 0.06655 0.0
H1325 H 0.14681 0.48602 0.1054 0.0
C1326 C 0.66976 0.76785 0.2467 0.0
C1327 C 0.65808 0.74879 0.26905 0.0
C1328 C 0.65821 0.75304 0.22273 0.0
C1329 C 0.59033 0.67699 0.19065 0.0
H1330 H 0.65551 0.70154 0.13673 0.0
C1331 C 0.56606 0.60161 0.09557 0.0
C1332 C 0.58195 0.62006 0.07364 0.0
C1333 C 0.57168 0.61766 0.11935 0.0
C1334 C 0.63674 0.69466 0.15138 0.0
H1335 H 0.62438 0.69915 0.28351 0.0
H1336 H 0.60467 0.67354 0.24212 0.0
H1337 H 0.67247 0.72963 0.17759 0.0
H1338 H 0.61576 0.66971 0.05944 0.0
H1339 H 0.62407 0.69754 0.09998 0.0
H1340 H 0.55466 0.6417 0.16435 0.0
C1341 C 0.62248 0.69999 0.24293 0.0
C1342 C 0.64655 0.71088 0.17493 0.0
C1343 C 0.6341 0.71472 0.26677 0.0
C1344 C 0.60222 0.65485 0.07579 0.0
C1345 C 0.60765 0.67078 0.09926 0.0
C1346 C 0.58047 0.66075 0.16701 0.0
C1347 C 0.63458 0.71879 0.22048 0.0
C1348 C 0.62356 0.7023 0.19497 0.0
C1349 C 0.59352 0.65239 0.12159 0.0
C1350 C 0.60352 0.66941 0.14698 0.0
H1351 H 0.68865 0.79385 0.24755 0.0
H1352 H 0.66799 0.76845 0.20591 0.0
H1353 H 0.57178 0.66986 0.2055 0.0
H1354 H 0.55123 0.57468 0.09469 0.0
H1355 H 0.5605 0.60259 0.13613 0.0
C1356 C 0.44944 1.00116 0.10343 0.0
C1357 C 0.44427 0.98034 0.08241 0.0
C1358 C 0.43063 0.98869 0.12563 0.0
C1359 C 0.37976 0.91643 0.16537 0.0
H1360 H 0.3349 0.96511 0.18449 0.0
C1361 C 0.32674 0.91312 0.26623 0.0
C1362 C 0.29582 0.91182 0.26841 0.0
C1363 C 0.34153 0.91595 0.24242 0.0
C1364 C 0.34691 0.95099 0.17932 0.0
H1365 H 0.41701 0.92933 0.0691 0.0
H1366 H 0.38493 0.90696 0.10876 0.0
H1367 H 0.36888 0.98052 0.14586 0.0
H1368 H 0.25617 0.91248 0.24717 0.0
H1369 H 0.28233 0.91806 0.20536 0.0
H1370 H 0.35876 0.88773 0.19943 0.0
C1371 C 0.40329 0.93323 0.10764 0.0
C1372 C 0.36661 0.95999 0.15728 0.0
C1373 C 0.42195 0.94593 0.08506 0.0
C1374 C 0.27967 0.9128 0.24609 0.0
C1375 C 0.29485 0.91634 0.22219 0.0
C1376 C 0.36052 0.90781 0.18774 0.0
C1377 C 0.40647 0.95482 0.12772 0.0
C1378 C 0.38361 0.94313 0.15019 0.0
C1379 C 0.32617 0.91831 0.22009 0.0
C1380 C 0.34409 0.9252 0.19513 0.0
H1381 H 0.46661 0.02773 0.10205 0.0
H1382 H 0.43413 1.00586 0.14089 0.0
H1383 H 0.39256 0.90301 0.16042 0.0
H1384 H 0.33987 0.91255 0.2831 0.0
H1385 H 0.36575 0.91774 0.24162 0.0
C1386 C 0.48321 0.05071 0.91372 0.0
C1387 C 0.47249 0.05971 0.93583 0.0
C1388 C 0.48066 0.06282 0.88973 0.0
C1389 C 0.46909 0.12895 0.85815 0.0
H1390 H 0.43263 0.06556 0.80281 0.0
C1391 C 0.41633 0.15369 0.76443 0.0
C1392 C 0.41934 0.13901 0.74197 0.0
C1393 C 0.42741 0.14779 0.78781 0.0
C1394 C 0.44342 0.08391 0.81784 0.0
H1395 H 0.45214 0.09006 0.94977 0.0
H1396 H 0.44783 0.11083 0.90855 0.0
H1397 H 0.44447 0.04829 0.84333 0.0
H1398 H 0.43615 0.10654 0.72656 0.0
H1399 H 0.45711 0.09805 0.76635 0.0
H1400 H 0.46778 0.16452 0.83266 0.0
C1401 C 0.45816 0.09441 0.90953 0.0
C1402 C 0.45021 0.07389 0.84119 0.0
C1403 C 0.46039 0.08212 0.9333 0.0
C1404 C 0.43476 0.11947 0.74326 0.0
C1405 C 0.44599 0.11381 0.76634 0.0
C1406 C 0.46245 0.13905 0.83472 0.0
C1407 C 0.46779 0.08464 0.88729 0.0
C1408 C 0.4629 0.09615 0.86178 0.0
C1409 C 0.44146 0.12684 0.78918 0.0
C1410 C 0.4494 0.11665 0.81419 0.0
H1411 H 0.49262 0.03362 0.91471 0.0
H1412 H 0.48865 0.05497 0.87304 0.0
H1413 H 0.47918 0.14695 0.87346 0.0
H1414 H 0.40338 0.16775 0.76424 0.0
H1415 H 0.42315 0.15805 0.80496 0.0
C1416 C 0.96041 0.38781 0.93589 0.0
C1417 C 0.98988 0.4189 0.93667 0.0
C1418 C 0.94732 0.37156 0.91278 0.0
C1419 C 0.95405 0.38123 0.84169 0.0
H1420 H 0.91662 0.2854 0.8445 0.0
C1421 C 0.90274 0.29762 0.75103 0.0
C1422 C 0.91266 0.27361 0.7484 0.0
C1423 C 0.90737 0.31456 0.77427 0.0
C1424 C 0.92705 0.31213 0.84322 0.0
H1425 H 0.02847 0.45768 0.91364 0.0
H1426 H 1.00609 0.42901 0.87302 0.0
H1427 H 0.93573 0.31783 0.88322 0.0
H1428 H 0.9335 0.24735 0.76828 0.0
H1429 H 0.94113 0.27607 0.80844 0.0
H1430 H 0.94668 0.37532 0.80127 0.0
C1431 C 0.99254 0.41742 0.89032 0.0
C1432 C 0.93769 0.33087 0.86565 0.0
C1433 C 1.00543 0.434 0.91361 0.0
C1434 C 0.92515 0.26537 0.76984 0.0
C1435 C 0.92961 0.28202 0.79293 0.0
C1436 C 0.94349 0.3624 0.81912 0.0
C1437 C 0.96367 0.3855 0.88962 0.0
C1438 C 0.95153 0.36578 0.86534 0.0
C1439 C 0.92171 0.30756 0.79539 0.0
C1440 C 0.93015 0.32755 0.81953 0.0
H1441 H 0.94766 0.37567 0.95334 0.0
H1442 H 0.92455 0.34764 0.91322 0.0
H1443 H 0.96423 0.40794 0.84056 0.0
H1444 H 0.89362 0.30495 0.73472 0.0
H1445 H 0.90058 0.33376 0.77547 0.0
C1446 C 0.75748 0.61429 0.74894 0.0
C1447 C 0.77955 0.64879 0.74663 0.0
C1448 C 0.73836 0.60111 0.77126 0.0
C1449 C 0.70025 0.62685 0.82067 0.0
H1450 H 0.69123 0.55352 0.86206 0.0
C1451 C 0.61221 0.57932 0.90866 0.0
C1452 C 0.62785 0.57757 0.93102 0.0
C1453 C 0.62752 0.58278 0.88483 0.0
C1454 C 0.69332 0.57391 0.85059 0.0
H1455 H 0.80062 0.69597 0.76648 0.0
H1456 H 0.76754 0.67324 0.80495 0.0
H1457 H 0.72592 0.56963 0.8235 0.0
H1458 H 0.67103 0.57667 0.94584 0.0
H1459 H 0.69714 0.58177 0.90449 0.0
H1460 H 0.66807 0.63151 0.84767 0.0
C1461 C 0.76465 0.65633 0.78966 0.0
C1462 C 0.71307 0.58301 0.82846 0.0
C1463 C 0.78389 0.66928 0.7677 0.0
C1464 C 0.65827 0.57782 0.92893 0.0
C1465 C 0.6732 0.58062 0.90519 0.0
C1466 C 0.68009 0.61741 0.84246 0.0
C1467 C 0.74077 0.62232 0.79141 0.0
C1468 C 0.71737 0.6101 0.81357 0.0
C1469 C 0.65849 0.58395 0.88283 0.0
C1470 C 0.67683 0.59124 0.85803 0.0
H1471 H 0.75306 0.59798 0.73287 0.0
H1472 H 0.7202 0.57476 0.7721 0.0
H1473 H 0.7028 0.64765 0.80946 0.0
H1474 H 0.58913 0.57984 0.90967 0.0
H1475 H 0.61545 0.58522 0.86799 0.0
C1476 C 0.77107 0.81627 0.41678 0.0
C1477 C 0.73693 0.80557 0.41451 0.0
C1478 C 0.78397 0.81184 0.43982 0.0
C1479 C 0.76332 0.79197 0.50888 0.0
H1480 H 0.82249 0.75544 0.50532 0.0
C1481 C 0.80787 0.75964 0.60087 0.0
C1482 C 0.80924 0.73002 0.60163 0.0
C1483 C 0.80439 0.77263 0.5778 0.0
C1484 C 0.80585 0.76547 0.5067 0.0
H1485 H 0.69002 0.7834 0.43479 0.0
H1486 H 0.71219 0.77634 0.47462 0.0
H1487 H 0.80647 0.77268 0.46627 0.0
H1488 H 0.80876 0.6911 0.5786 0.0
H1489 H 0.80201 0.71339 0.53804 0.0
H1490 H 0.76123 0.78353 0.5489 0.0
C1491 C 0.72933 0.78827 0.45899 0.0
C1492 C 0.79701 0.77583 0.48427 0.0
C1493 C 0.71655 0.79246 0.43609 0.0
C1494 C 0.80833 0.71426 0.57858 0.0
C1495 C 0.80436 0.72709 0.55532 0.0
C1496 C 0.77202 0.78159 0.53117 0.0
C1497 C 0.76303 0.79699 0.46108 0.0
C1498 C 0.77527 0.7889 0.48502 0.0
C1499 C 0.80144 0.75605 0.55467 0.0
C1500 C 0.7933 0.76799 0.53053 0.0
H1501 H 0.78729 0.82591 0.40037 0.0
H1502 H 0.81012 0.81922 0.44076 0.0
H1503 H 0.74681 0.80215 0.51039 0.0
H1504 H 0.80878 0.7725 0.61832 0.0
H1505 H 0.80333 0.79546 0.57825 0.0
C1506 C 0.2575 0.93378 0.43541 0.0
C1507 C 0.24515 0.94205 0.4139 0.0
C1508 C 0.26272 0.95102 0.45831 0.0
C1509 C 0.27913 0.03259 0.4839 0.0
H1510 H 0.27004 0.98824 0.54832 0.0
C1511 C 0.34244 0.10423 0.5782 0.0
C1512 C 0.32674 0.08954 0.60133 0.0
C1513 C 0.32917 0.08765 0.55496 0.0
C1514 C 0.2724 1.00125 0.53066 0.0
H1515 H 0.22755 0.97443 0.39983 0.0
H1516 H 0.23588 1.00434 0.44026 0.0
H1517 H 0.25017 0.95552 0.50979 0.0
H1518 H 0.28382 0.0471 0.6181 0.0
H1519 H 0.26008 0.01915 0.57808 0.0
H1520 H 0.30105 0.07841 0.50506 0.0
C1521 C 0.24184 0.98453 0.43928 0.0
C1522 C 0.26131 0.98233 0.50833 0.0
C1523 C 0.23643 0.96698 0.41623 0.0
C1524 C 0.2967 0.05894 0.60062 0.0
C1525 C 0.28325 0.0427 0.57756 0.0
C1526 C 0.29016 0.05163 0.50637 0.0
C1527 C 0.25583 0.97729 0.46051 0.0
C1528 C 0.26486 0.99763 0.48452 0.0
C1529 C 0.29975 0.05614 0.55435 0.0
C1530 C 0.28716 0.03626 0.53015 0.0
H1531 H 0.26512 0.91518 0.43404 0.0
H1532 H 0.27399 0.94488 0.47388 0.0
H1533 H 0.28268 0.04542 0.46596 0.0
H1534 H 0.36587 0.12753 0.57814 0.0
H1535 H 0.34284 0.09887 0.53762 0.0
C1536 C 0.95163 0.24155 0.58021 0.0
C1537 C 0.96927 0.24764 0.60316 0.0
C1538 C 0.96763 0.24475 0.55672 0.0
C1539 C 0.05338 0.28491 0.5281 0.0
H1540 H 1.00656 0.23186 0.46927 0.0
C1541 C 0.11843 0.30394 0.42902 0.0
C1542 C 0.10013 0.30708 0.40897 0.0
C1543 C 0.1033 0.29198 0.453 0.0
C1544 C 1.02007 0.24691 0.48553 0.0
H1545 H 1.01721 0.25991 0.61923 0.0
H1546 H 0.04451 0.26455 0.57888 0.0
H1547 H 0.97791 0.22031 0.51015 0.0
H1548 H 0.05142 0.29927 0.39843 0.0
H1549 H 0.02542 0.27802 0.43911 0.0
H1550 H 0.09542 0.3117 0.50329 0.0
C1551 C 1.01869 0.25847 0.5787 0.0
C1552 C 1.00351 0.24041 0.50901 0.0
C1553 C 1.00285 0.25558 0.602 0.0
C1554 C 0.06627 0.29671 0.41317 0.0
C1555 C 0.05118 0.28441 0.43668 0.0
C1556 C 0.06999 0.29126 0.50463 0.0
C1557 C 1.00165 0.25385 0.55559 0.0
C1558 C 1.01971 0.25961 0.53064 0.0
C1559 C 0.0695 0.28246 0.45717 0.0
C1560 C 0.05342 0.27273 0.4829 0.0
H1561 H 0.92596 0.23576 0.58024 0.0
H1562 H 0.95358 0.24123 0.53943 0.0
H1563 H 0.06675 0.3007 0.54406 0.0
H1564 H 0.14467 0.3123 0.42661 0.0
H1565 H 0.11817 0.29077 0.4684 0.0
loop_
_geom_bond_atom_site_label_1
_geom_bond_atom_site_label_2
_geom_bond_distance
_geom_bond_site_symmetry_2
_ccdc_geom_bond_type
Tb0 N31 2.660 1_556 S
Tb0 N38 2.600 . S
Tb0 O44 2.546 . S
Tb0 O45 2.610 1_556 S
Tb0 O47 2.320 1_556 S
Tb0 O48 2.552 . S
Tb0 O49 2.413 1_556 S
Tb0 O51 2.362 1_456 S
Tb0 O52 2.421 . S
Tb0 C64 2.833 . S
C1 C4 1.432 . S
C1 C5 1.414 . S
C1 N8 1.359 . S
C2 C4 1.417 1_556 S
C2 C6 1.432 1_556 S
C2 C14 1.410 . S
C3 C5 1.444 . S
C3 C6 1.317 . S
C3 H26 0.929 . S
C4 C1 1.432 . S
C4 C2 1.417 1_554 S
C4 N12 1.360 1_554 S
C5 C1 1.414 . S
C5 C3 1.444 . S
C5 C10 1.385 . S
C6 C2 1.432 1_554 S
C6 C3 1.317 . S
C6 H18 0.930 . S
C7 C9 1.384 1_455 S
C7 C10 1.382 . S
C7 H19 0.927 1_455 S
N8 C1 1.359 . S
N8 C9 1.327 1_455 S
N8 Tb11 2.600 1_455 S
C9 C7 1.384 1_655 S
C9 N8 1.327 1_655 S
C9 H16 0.930 . S
C10 C5 1.385 . S
C10 C7 1.382 . S
C10 H29 0.930 . S
Tb11 N8 2.600 1_655 S
Tb11 N12 2.660 1_654 S
Tb11 O45 2.362 1_655 S
Tb11 O46 2.421 1_655 S
Tb11 O50 2.546 . S
Tb11 O51 2.610 . S
Tb11 O53 2.320 1_554 S
Tb11 O54 2.552 . S
Tb11 O55 2.413 1_554 S
Tb11 C75 2.833 . S
N12 C4 1.360 1_556 S
N12 Tb11 2.660 1_456 S
N12 C13 1.305 . S
C13 N12 1.305 . S
C13 C15 1.407 . S
C13 H20 0.930 . S
C14 C2 1.410 . S
C14 C15 1.345 . S
C14 H22 0.930 . S
C15 C13 1.407 . S
C15 C14 1.345 . S
C15 H17 0.930 . S
H16 C9 0.930 . S
H17 C15 0.930 . S
H18 C6 0.930 . S
H19 C7 0.927 1_655 S
H20 C13 0.930 . S
H21 C35 0.930 . S
H22 C14 0.930 . S
H23 C41 0.930 . S
H24 C32 0.930 1_455 S
H25 C39 0.931 . S
H26 C3 0.929 . S
H27 C33 0.930 . S
H28 C66 0.931 . S
H29 C10 0.930 . S
H30 C65 0.929 . S
N31 Tb0 2.660 1_554 S
N31 C32 1.305 1_455 S
N31 C36 1.352 1_454 S
C32 H24 0.930 1_655 S
C32 N31 1.305 1_655 S
C32 C35 1.407 . S
C33 H27 0.930 . S
C33 C34 1.410 . S
C33 C35 1.345 . S
C34 C33 1.410 . S
C34 C36 1.412 1_554 S
C34 C66 1.432 1_554 S
C35 H21 0.930 . S
C35 C32 1.407 . S
C35 C33 1.345 . S
C36 N31 1.352 1_656 S
C36 C34 1.412 1_556 S
C36 C40 1.445 1_655 S
H37 C42 0.930 1_655 S
N38 Tb0 2.600 . S
N38 C40 1.359 . S
N38 C41 1.327 . S
C39 H25 0.931 . S
C39 C41 1.392 . S
C39 C42 1.370 . S
C40 C36 1.445 1_455 S
C40 N38 1.359 . S
C40 C43 1.414 1_455 S
C41 H23 0.930 . S
C41 N38 1.327 . S
C41 C39 1.392 . S
C42 H37 0.930 1_455 S
C42 C39 1.370 . S
C42 C43 1.385 1_455 S
C43 C40 1.414 1_655 S
C43 C42 1.385 1_655 S
C43 C65 1.444 . S
O44 Tb0 2.546 . S
O44 C64 1.251 . S
O45 Tb0 2.610 1_554 S
O45 Tb11 2.362 1_455 S
O45 C56 1.275 1_554 S
O46 Tb11 2.421 1_455 S
O46 C63 1.262 . S
O47 Tb0 2.320 1_554 S
O47 C63 1.260 . S
O48 Tb0 2.552 . S
O48 C56 1.259 . S
O49 Tb0 2.413 1_554 S
O49 C64 1.256 1_554 S
O50 Tb11 2.546 . S
O50 C75 1.251 . S
O51 Tb0 2.362 1_654 S
O51 Tb11 2.610 . S
O51 C67 1.283 . S
O52 Tb0 2.421 . S
O52 C74 1.262 1_455 S
O53 Tb11 2.320 1_556 S
O53 C74 1.260 . S
O54 Tb11 2.552 . S
O54 C67 1.243 . S
O55 Tb11 2.413 1_556 S
O55 C75 1.256 1_556 S
C56 O45 1.275 1_556 S
C56 O48 1.259 . S
C57 C59 1.382 1_556 S
C57 C61 1.393 . S
C57 C64 1.500 . S
C58 C59 1.400 . S
C58 C60 1.384 1_554 S
C59 C57 1.382 1_554 S
C59 C58 1.400 . S
C59 H76 0.930 . S
C60 C58 1.384 1_556 S
C60 C62 1.392 . S
C60 H77 0.931 . S
C61 C57 1.393 . S
C61 C62 1.401 . S
C61 H78 0.930 . S
C62 C60 1.392 . S
C62 C61 1.401 . S
C62 H79 0.930 . S
C63 O46 1.262 . S
C63 O47 1.260 . S
C64 Tb0 2.833 . S
C64 O44 1.251 . S
C64 O49 1.256 1_556 S
C64 C57 1.500 . S
C65 H30 0.929 . S
C65 C43 1.444 . S
C65 C66 1.317 . S
C66 H28 0.931 . S
C66 C34 1.432 1_556 S
C66 C65 1.317 . S
C67 O51 1.283 . S
C67 O54 1.243 . S
C68 C69 1.382 1_554 S
C68 C72 1.393 . S
C68 C75 1.500 . S
C69 C68 1.382 1_556 S
C69 C70 1.402 . S
C69 H80 0.930 . S
C70 C69 1.402 . S
C70 C71 1.356 1_556 S
C71 C70 1.356 1_554 S
C71 C73 1.392 . S
C71 H81 0.931 . S
C72 C68 1.393 . S
C72 C73 1.401 . S
C72 H82 0.930 . S
C73 C71 1.392 . S
C73 C72 1.401 . S
C73 H83 0.930 . S
C74 O52 1.262 1_655 S
C74 O53 1.260 . S
C75 Tb11 2.833 . S
C75 O50 1.251 . S
C75 O55 1.256 1_554 S
C75 C68 1.500 . S
H76 C59 0.930 . S
H77 C60 0.931 . S
H78 C61 0.930 . S
H79 C62 0.930 . S
H80 C69 0.930 . S
H81 C71 0.931 . S
H82 C72 0.930 . S
H83 C73 0.930 . S
Tb84 N115 2.660 1_556 S
Tb84 N122 2.600 . S
Tb84 O128 2.546 . S
Tb84 O129 2.610 1_556 S
Tb84 O131 2.320 1_556 S
Tb84 O132 2.552 . S
Tb84 O133 2.413 1_556 S
Tb84 O135 2.362 1_556 S
Tb84 O136 2.421 . S
Tb84 C148 2.833 . S
C85 C88 1.432 . S
C85 C89 1.414 . S
C85 N92 1.359 . S
C86 C88 1.417 1_556 S
C86 C90 1.432 1_556 S
C86 C98 1.410 . S
C87 C89 1.444 . S
C87 C90 1.317 . S
C87 H110 0.929 . S
C88 C85 1.432 . S
C88 C86 1.417 1_554 S
C88 N96 1.360 1_554 S
C89 C85 1.414 . S
C89 C87 1.444 . S
C89 C94 1.385 . S
C90 C86 1.432 1_554 S
C90 C87 1.317 . S
C90 H102 0.930 . S
C91 C93 1.392 . S
C91 C94 1.370 . S
C91 H103 0.931 . S
N92 C85 1.359 . S
N92 C93 1.327 . S
N92 Tb95 2.600 . S
C93 C91 1.392 . S
C93 N92 1.327 . S
C93 H100 0.930 . S
C94 C89 1.385 . S
C94 C91 1.370 . S
C94 H113 0.930 . S
Tb95 N92 2.600 . S
Tb95 N96 2.660 1_554 S
Tb95 O129 2.362 . S
Tb95 O130 2.421 . S
Tb95 O134 2.546 . S
Tb95 O135 2.610 . S
Tb95 O137 2.320 1_554 S
Tb95 O138 2.552 . S
Tb95 O139 2.413 1_554 S
Tb95 C159 2.833 . S
N96 C88 1.360 1_556 S
N96 Tb95 2.660 1_556 S
N96 C97 1.305 . S
C97 N96 1.305 . S
C97 C99 1.407 . S
C97 H104 0.930 . S
C98 C86 1.410 . S
C98 C99 1.345 . S
C98 H106 0.930 . S
C99 C97 1.407 . S
C99 C98 1.345 . S
C99 H101 0.930 . S
H100 C93 0.930 . S
H101 C99 0.930 . S
H102 C90 0.930 . S
H103 C91 0.931 . S
H104 C97 0.930 . S
H105 C119 0.930 . S
H106 C98 0.930 . S
H107 C125 0.930 . S
H108 C116 0.930 . S
H109 C123 0.931 . S
H110 C87 0.929 . S
H111 C117 0.930 . S
H112 C150 0.930 . S
H113 C94 0.930 . S
H114 C149 0.929 . S
N115 Tb84 2.660 1_554 S
N115 C116 1.305 . S
N115 C120 1.353 1_554 S
C116 H108 0.930 . S
C116 N115 1.305 . S
C116 C119 1.407 . S
C117 H111 0.930 . S
C117 C118 1.410 . S
C117 C119 1.345 . S
C118 C117 1.410 . S
C118 C120 1.412 1_554 S
C118 C150 1.432 1_554 S
C119 H105 0.930 . S
C119 C116 1.407 . S
C119 C117 1.345 . S
C120 N115 1.353 1_556 S
C120 C118 1.412 1_556 S
C120 C124 1.444 . S
H121 C126 0.930 . S
N122 Tb84 2.600 . S
N122 C124 1.359 . S
N122 C125 1.327 . S
C123 H109 0.931 . S
C123 C125 1.392 . S
C123 C126 1.370 . S
C124 C120 1.444 . S
C124 N122 1.359 . S
C124 C127 1.414 . S
C125 H107 0.930 . S
C125 N122 1.327 . S
C125 C123 1.392 . S
C126 H121 0.930 . S
C126 C123 1.370 . S
C126 C127 1.385 . S
C127 C124 1.414 . S
C127 C126 1.385 . S
C127 C149 1.444 . S
O128 Tb84 2.546 . S
O128 C148 1.251 . S
O129 Tb84 2.610 1_554 S
O129 Tb95 2.362 . S
O129 C140 1.275 1_554 S
O130 Tb95 2.421 . S
O130 C147 1.262 . S
O131 Tb84 2.320 1_554 S
O131 C147 1.260 . S
O132 Tb84 2.552 . S
O132 C140 1.259 . S
O133 Tb84 2.413 1_554 S
O133 C148 1.256 1_554 S
O134 Tb95 2.546 . S
O134 C159 1.251 . S
O135 Tb84 2.362 1_554 S
O135 Tb95 2.610 . S
O135 C151 1.283 . S
O136 Tb84 2.421 . S
O136 C158 1.262 . S
O137 Tb95 2.320 1_556 S
O137 C158 1.260 . S
O138 Tb95 2.552 . S
O138 C151 1.243 . S
O139 Tb95 2.413 1_556 S
O139 C159 1.256 1_556 S
C140 O129 1.275 1_556 S
C140 O132 1.259 . S
C141 C143 1.382 1_556 S
C141 C145 1.393 . S
C141 C148 1.500 . S
C142 C143 1.400 . S
C142 C144 1.384 1_554 S
C143 C141 1.382 1_554 S
C143 C142 1.400 . S
C143 H160 0.930 . S
C144 C142 1.384 1_556 S
C144 C146 1.392 . S
C144 H161 0.931 . S
C145 C141 1.393 . S
C145 C146 1.401 . S
C145 H162 0.930 . S
C146 C144 1.392 . S
C146 C145 1.401 . S
C146 H163 0.930 . S
C147 O130 1.262 . S
C147 O131 1.260 . S
C148 Tb84 2.833 . S
C148 O128 1.251 . S
C148 O133 1.256 1_556 S
C148 C141 1.500 . S
C149 H114 0.929 . S
C149 C127 1.444 . S
C149 C150 1.317 . S
C150 H112 0.930 . S
C150 C118 1.432 1_556 S
C150 C149 1.317 . S
C151 O135 1.283 . S
C151 O138 1.243 . S
C152 C153 1.382 1_554 S
C152 C156 1.393 . S
C152 C159 1.500 . S
C153 C152 1.382 1_556 S
C153 C154 1.402 . S
C153 H164 0.930 . S
C154 C153 1.402 . S
C154 C155 1.356 1_556 S
C155 C154 1.356 1_554 S
C155 C157 1.392 . S
C155 H165 0.931 . S
C156 C152 1.393 . S
C156 C157 1.401 . S
C156 H166 0.930 . S
C157 C155 1.392 . S
C157 C156 1.401 . S
C157 H167 0.930 . S
C158 O136 1.262 . S
C158 O137 1.260 . S
C159 Tb95 2.833 . S
C159 O134 1.251 . S
C159 O139 1.256 1_554 S
C159 C152 1.500 . S
H160 C143 0.930 . S
H161 C144 0.931 . S
H162 C145 0.930 . S
H163 C146 0.930 . S
H164 C153 0.930 . S
H165 C155 0.931 . S
H166 C156 0.930 . S
H167 C157 0.930 . S
Tb168 N199 2.660 1_566 S
Tb168 N206 2.601 1_565 S
Tb168 O212 2.546 . S
Tb168 O213 2.610 1_556 S
Tb168 O215 2.320 1_556 S
Tb168 O216 2.552 . S
Tb168 O217 2.413 1_556 S
Tb168 O219 2.362 1_566 S
Tb168 O220 2.421 1_565 S
Tb168 C232 2.833 . S
C169 C172 1.429 1_545 S
C169 C173 1.418 1_545 S
C169 N176 1.357 . S
C170 C172 1.417 1_556 S
C170 C174 1.432 1_556 S
C170 C182 1.410 . S
C171 C173 1.444 . S
C171 C174 1.317 . S
C171 H194 0.929 . S
C172 C169 1.429 1_565 S
C172 C170 1.417 1_554 S
C172 N180 1.360 1_564 S
C173 C169 1.418 1_565 S
C173 C171 1.444 . S
C173 C178 1.381 1_565 S
C174 C170 1.432 1_554 S
C174 C171 1.317 . S
C174 H186 0.930 . S
C175 C177 1.392 . S
C175 C178 1.369 . S
C175 H187 0.931 . S
N176 C169 1.357 . S
N176 C177 1.327 . S
N176 Tb179 2.600 . S
C177 C175 1.392 . S
C177 N176 1.327 . S
C177 H184 0.930 . S
C178 C173 1.381 1_545 S
C178 C175 1.369 . S
C178 H197 0.934 1_545 S
Tb179 N176 2.600 . S
Tb179 N180 2.660 1_554 S
Tb179 O213 2.362 1_545 S
Tb179 O214 2.421 . S
Tb179 O218 2.546 . S
Tb179 O219 2.610 . S
Tb179 O221 2.320 1_554 S
Tb179 O222 2.552 . S
Tb179 O223 2.413 1_554 S
Tb179 C243 2.833 . S
N180 C172 1.360 1_546 S
N180 Tb179 2.660 1_556 S
N180 C181 1.305 1_545 S
C181 N180 1.305 1_565 S
C181 C183 1.407 . S
C181 H188 0.930 1_565 S
C182 C170 1.410 . S
C182 C183 1.345 . S
C182 H190 0.930 . S
C183 C181 1.407 . S
C183 C182 1.345 . S
C183 H185 0.930 . S
H184 C177 0.930 . S
H185 C183 0.930 . S
H186 C174 0.930 . S
H187 C175 0.931 . S
H188 C181 0.930 1_545 S
H189 C203 0.930 . S
H190 C182 0.930 . S
H191 C209 0.930 . S
H192 C200 0.930 . S
H193 C207 0.936 . S
H194 C171 0.929 . S
H195 C201 0.930 . S
H196 C234 0.931 . S
H197 C178 0.934 1_565 S
H198 C233 0.929 . S
N199 Tb168 2.660 1_544 S
N199 C200 1.305 . S
N199 C204 1.352 1_554 S
C200 H192 0.930 . S
C200 N199 1.305 . S
C200 C203 1.407 . S
C201 H195 0.930 . S
C201 C202 1.410 . S
C201 C203 1.345 . S
C202 C201 1.410 . S
C202 C204 1.412 1_554 S
C202 C234 1.432 1_554 S
C203 H189 0.930 . S
C203 C200 1.407 . S
C203 C201 1.345 . S
C204 N199 1.352 1_556 S
C204 C202 1.412 1_556 S
C204 C208 1.445 . S
H205 C210 0.930 . S
N206 Tb168 2.601 1_545 S
N206 C208 1.358 . S
N206 C209 1.326 1_545 S
C207 H193 0.936 . S
C207 C209 1.386 . S
C207 C210 1.371 1_565 S
C208 C204 1.445 . S
C208 N206 1.358 . S
C208 C211 1.414 . S
C209 H191 0.930 . S
C209 N206 1.326 1_565 S
C209 C207 1.386 . S
C210 H205 0.930 . S
C210 C207 1.371 1_545 S
C210 C211 1.385 . S
C211 C208 1.414 . S
C211 C210 1.385 . S
C211 C233 1.444 . S
O212 Tb168 2.546 . S
O212 C232 1.251 . S
O213 Tb168 2.610 1_554 S
O213 Tb179 2.362 1_565 S
O213 C224 1.275 1_554 S
O214 Tb179 2.421 . S
O214 C231 1.262 1_545 S
O215 Tb168 2.320 1_554 S
O215 C231 1.260 . S
O216 Tb168 2.552 . S
O216 C224 1.259 . S
O217 Tb168 2.413 1_554 S
O217 C232 1.256 1_554 S
O218 Tb179 2.546 . S
O218 C243 1.251 . S
O219 Tb168 2.362 1_544 S
O219 Tb179 2.610 . S
O219 C235 1.283 . S
O220 Tb168 2.421 1_545 S
O220 C242 1.262 . S
O221 Tb179 2.320 1_556 S
O221 C242 1.260 . S
O222 Tb179 2.552 . S
O222 C235 1.243 . S
O223 Tb179 2.413 1_556 S
O223 C243 1.256 1_556 S
C224 O213 1.275 1_556 S
C224 O216 1.259 . S
C225 C227 1.382 1_556 S
C225 C229 1.393 . S
C225 C232 1.500 . S
C226 C227 1.400 . S
C226 C228 1.384 1_554 S
C227 C225 1.382 1_554 S
C227 C226 1.400 . S
C227 H244 0.930 . S
C228 C226 1.384 1_556 S
C228 C230 1.392 . S
C228 H245 0.931 . S
C229 C225 1.393 . S
C229 C230 1.401 . S
C229 H246 0.930 . S
C230 C228 1.392 . S
C230 C229 1.401 . S
C230 H247 0.930 . S
C231 O214 1.262 1_565 S
C231 O215 1.260 . S
C232 Tb168 2.833 . S
C232 O212 1.251 . S
C232 O217 1.256 1_556 S
C232 C225 1.500 . S
C233 H198 0.929 . S
C233 C211 1.444 . S
C233 C234 1.317 . S
C234 H196 0.931 . S
C234 C202 1.432 1_556 S
C234 C233 1.317 . S
C235 O219 1.283 . S
C235 O222 1.243 . S
C236 C237 1.382 1_554 S
C236 C240 1.393 . S
C236 C243 1.500 . S
C237 C236 1.382 1_556 S
C237 C238 1.402 . S
C237 H248 0.930 . S
C238 C237 1.402 . S
C238 C239 1.356 1_556 S
C239 C238 1.356 1_554 S
C239 C241 1.392 . S
C239 H249 0.931 . S
C240 C236 1.393 . S
C240 C241 1.401 . S
C240 H250 0.930 . S
C241 C239 1.392 . S
C241 C240 1.401 . S
C241 H251 0.930 . S
C242 O220 1.262 . S
C242 O221 1.260 . S
C243 Tb179 2.833 . S
C243 O218 1.251 . S
C243 O223 1.256 1_554 S
C243 C236 1.500 . S
H244 C227 0.930 . S
H245 C228 0.931 . S
H246 C229 0.930 . S
H247 C230 0.930 . S
H248 C237 0.930 . S
H249 C239 0.931 . S
H250 C240 0.930 . S
H251 C241 0.930 . S
Tb252 N283 2.660 . S
Tb252 N290 2.600 . S
Tb252 O296 2.546 . S
Tb252 O297 2.610 . S
Tb252 O299 2.320 . S
Tb252 O300 2.552 . S
Tb252 O301 2.413 . S
Tb252 O303 2.362 . S
Tb252 O304 2.421 . S
Tb252 C316 2.833 . S
C253 C256 1.432 . S
C253 C257 1.414 . S
C253 N260 1.359 . S
C254 C256 1.417 . S
C254 C258 1.432 . S
C254 C266 1.410 . S
C255 C257 1.444 . S
C255 C258 1.317 . S
C255 H278 0.929 . S
C256 C253 1.432 . S
C256 C254 1.417 . S
C256 N264 1.360 . S
C257 C253 1.414 . S
C257 C255 1.444 . S
C257 C262 1.385 . S
C258 C254 1.432 . S
C258 C255 1.317 . S
C258 H270 0.930 . S
C259 C261 1.392 . S
C259 C262 1.370 . S
C259 H271 0.931 . S
N260 C253 1.359 . S
N260 C261 1.327 . S
N260 Tb263 2.600 . S
C261 C259 1.392 . S
C261 N260 1.327 . S
C261 H268 0.930 . S
C262 C257 1.385 . S
C262 C259 1.370 . S
C262 H281 0.930 . S
Tb263 N260 2.600 . S
Tb263 N264 2.660 . S
Tb263 O297 2.362 . S
Tb263 O298 2.421 . S
Tb263 O302 2.546 . S
Tb263 O303 2.610 . S
Tb263 O305 2.320 . S
Tb263 O306 2.552 . S
Tb263 O307 2.413 . S
Tb263 C327 2.833 . S
N264 C256 1.360 . S
N264 Tb263 2.660 . S
N264 C265 1.305 . S
C265 N264 1.305 . S
C265 C267 1.407 . S
C265 H272 0.930 . S
C266 C254 1.410 . S
C266 C267 1.345 . S
C266 H274 0.930 . S
C267 C265 1.407 . S
C267 C266 1.345 . S
C267 H269 0.930 . S
H268 C261 0.930 . S
H269 C267 0.930 . S
H270 C258 0.930 . S
H271 C259 0.931 . S
H272 C265 0.930 . S
H273 C287 0.930 . S
H274 C266 0.930 . S
H275 C293 0.930 . S
H276 C284 0.930 . S
H277 C291 0.931 . S
H278 C255 0.929 . S
H279 C285 0.930 . S
H280 C318 0.930 . S
H281 C262 0.930 . S
H282 C317 0.929 . S
N283 Tb252 2.660 . S
N283 C284 1.305 . S
N283 C288 1.360 . S
C284 H276 0.930 . S
C284 N283 1.305 . S
C284 C287 1.407 . S
C285 H279 0.930 . S
C285 C286 1.410 . S
C285 C287 1.345 . S
C286 C285 1.410 . S
C286 C288 1.417 . S
C286 C318 1.432 . S
C287 H273 0.930 . S
C287 C284 1.407 . S
C287 C285 1.345 . S
C288 N283 1.360 . S
C288 C286 1.417 . S
C288 C292 1.432 . S
H289 C294 0.930 . S
N290 Tb252 2.600 . S
N290 C292 1.359 . S
N290 C293 1.327 . S
C291 H277 0.931 . S
C291 C293 1.392 . S
C291 C294 1.370 . S
C292 C288 1.432 . S
C292 N290 1.359 . S
C292 C295 1.414 . S
C293 H275 0.930 . S
C293 N290 1.327 . S
C293 C291 1.392 . S
C294 H289 0.930 . S
C294 C291 1.370 . S
C294 C295 1.385 . S
C295 C292 1.414 . S
C295 C294 1.385 . S
C295 C317 1.444 . S
O296 Tb252 2.546 . S
O296 C316 1.251 . S
O297 Tb252 2.610 . S
O297 Tb263 2.362 . S
O297 C308 1.283 . S
O298 Tb263 2.421 . S
O298 C315 1.262 . S
O299 Tb252 2.320 . S
O299 C315 1.260 . S
O300 Tb252 2.552 . S
O300 C308 1.243 . S
O301 Tb252 2.413 . S
O301 C316 1.256 . S
O302 Tb263 2.546 . S
O302 C327 1.251 . S
O303 Tb252 2.362 . S
O303 Tb263 2.610 . S
O303 C319 1.283 . S
O304 Tb252 2.421 . S
O304 C326 1.262 . S
O305 Tb263 2.320 . S
O305 C326 1.260 . S
O306 Tb263 2.552 . S
O306 C319 1.243 . S
O307 Tb263 2.413 . S
O307 C327 1.256 . S
C308 O297 1.283 . S
C308 O300 1.243 . S
C309 C311 1.382 . S
C309 C313 1.393 . S
C309 C316 1.500 . S
C310 C311 1.400 . S
C310 C312 1.384 1_565 S
C311 C309 1.382 . S
C311 C310 1.400 . S
C311 H328 0.930 . S
C312 C310 1.384 1_545 S
C312 C314 1.392 1_545 S
C312 H329 0.931 . S
C313 C309 1.393 . S
C313 C314 1.401 . S
C313 H330 0.930 . S
C314 C312 1.392 1_565 S
C314 C313 1.401 . S
C314 H331 0.930 1_565 S
C315 O298 1.262 . S
C315 O299 1.260 . S
C316 Tb252 2.833 . S
C316 O296 1.251 . S
C316 O301 1.256 . S
C316 C309 1.500 . S
C317 H282 0.929 . S
C317 C295 1.444 . S
C317 C318 1.317 . S
C318 H280 0.930 . S
C318 C286 1.432 . S
C318 C317 1.317 . S
C319 O303 1.283 . S
C319 O306 1.243 . S
C320 C321 1.382 . S
C320 C324 1.393 . S
C320 C327 1.500 . S
C321 C320 1.382 . S
C321 C322 1.400 . S
C321 H332 0.930 . S
C322 C321 1.400 . S
C322 C323 1.384 . S
C323 C322 1.384 . S
C323 C325 1.392 . S
C323 H333 0.931 . S
C324 C320 1.393 . S
C324 C325 1.401 . S
C324 H334 0.930 . S
C325 C323 1.392 . S
C325 C324 1.401 . S
C325 H335 0.930 . S
C326 O304 1.262 . S
C326 O305 1.260 . S
C327 Tb263 2.833 . S
C327 O302 1.251 . S
C327 O307 1.256 . S
C327 C320 1.500 . S
H328 C311 0.930 . S
H329 C312 0.931 . S
H330 C313 0.930 . S
H331 C314 0.930 1_545 S
H332 C321 0.930 . S
H333 C323 0.931 . S
H334 C324 0.930 . S
H335 C325 0.930 . S
Tb336 N367 2.660 . S
Tb336 N374 2.600 . S
Tb336 O380 2.546 . S
Tb336 O381 2.610 . S
Tb336 O383 2.320 . S
Tb336 O384 2.552 . S
Tb336 O385 2.413 . S
Tb336 O387 2.362 . S
Tb336 O388 2.421 . S
Tb336 C400 2.833 . S
C337 C340 1.432 . S
C337 C341 1.414 . S
C337 N344 1.359 . S
C338 C340 1.417 1_545 S
C338 C342 1.432 . S
C338 C350 1.410 . S
C339 C341 1.444 1_545 S
C339 C342 1.317 . S
C339 H362 0.929 . S
C340 C337 1.432 . S
C340 C338 1.417 1_565 S
C340 N348 1.360 . S
C341 C337 1.414 . S
C341 C339 1.444 1_565 S
C341 C346 1.385 . S
C342 C338 1.432 . S
C342 C339 1.317 . S
C342 H354 0.930 . S
C343 C345 1.392 . S
C343 C346 1.370 . S
C343 H355 0.931 . S
N344 C337 1.359 . S
N344 C345 1.327 . S
N344 Tb347 2.600 . S
C345 C343 1.392 . S
C345 N344 1.327 . S
C345 H352 0.930 . S
C346 C341 1.385 . S
C346 C343 1.370 . S
C346 H365 0.930 1_565 S
Tb347 N344 2.600 . S
Tb347 N348 2.660 . S
Tb347 O381 2.362 . S
Tb347 O382 2.421 . S
Tb347 O386 2.546 . S
Tb347 O387 2.610 . S
Tb347 O389 2.320 . S
Tb347 O390 2.552 . S
Tb347 O391 2.413 . S
Tb347 C411 2.833 . S
N348 C340 1.360 . S
N348 Tb347 2.660 . S
N348 C349 1.305 . S
C349 N348 1.305 . S
C349 C351 1.407 . S
C349 H356 0.930 . S
C350 C338 1.410 . S
C350 C351 1.345 1_545 S
C350 H358 0.930 . S
C351 C349 1.407 . S
C351 C350 1.345 1_565 S
C351 H353 0.930 . S
H352 C345 0.930 . S
H353 C351 0.930 . S
H354 C342 0.930 . S
H355 C343 0.931 . S
H356 C349 0.930 . S
H357 C371 0.930 . S
H358 C350 0.930 . S
H359 C377 0.930 . S
H360 C368 0.930 . S
H361 C375 0.931 . S
H362 C339 0.929 . S
H363 C369 0.930 . S
H364 C402 0.930 . S
H365 C346 0.930 1_545 S
H366 C401 0.929 . S
N367 Tb336 2.660 . S
N367 C368 1.305 . S
N367 C372 1.360 . S
C368 H360 0.930 . S
C368 N367 1.305 . S
C368 C371 1.407 . S
C369 H363 0.930 . S
C369 C370 1.410 . S
C369 C371 1.345 . S
C370 C369 1.410 . S
C370 C372 1.417 . S
C370 C402 1.432 . S
C371 H357 0.930 . S
C371 C368 1.407 . S
C371 C369 1.345 . S
C372 N367 1.360 . S
C372 C370 1.417 . S
C372 C376 1.432 . S
H373 C378 0.930 . S
N374 Tb336 2.600 . S
N374 C376 1.359 . S
N374 C377 1.327 . S
C375 H361 0.931 . S
C375 C377 1.392 . S
C375 C378 1.370 . S
C376 C372 1.432 . S
C376 N374 1.359 . S
C376 C379 1.414 . S
C377 H359 0.930 . S
C377 N374 1.327 . S
C377 C375 1.392 . S
C378 H373 0.930 . S
C378 C375 1.370 . S
C378 C379 1.385 . S
C379 C376 1.414 . S
C379 C378 1.385 . S
C379 C401 1.444 . S
O380 Tb336 2.546 . S
O380 C400 1.251 . S
O381 Tb336 2.610 . S
O381 Tb347 2.362 . S
O381 C392 1.283 . S
O382 Tb347 2.421 . S
O382 C399 1.262 . S
O383 Tb336 2.320 . S
O383 C399 1.260 . S
O384 Tb336 2.552 . S
O384 C392 1.243 . S
O385 Tb336 2.413 . S
O385 C400 1.256 . S
O386 Tb347 2.546 . S
O386 C411 1.251 . S
O387 Tb336 2.362 . S
O387 Tb347 2.610 . S
O387 C403 1.283 . S
O388 Tb336 2.421 . S
O388 C410 1.262 . S
O389 Tb347 2.320 . S
O389 C410 1.260 . S
O390 Tb347 2.552 . S
O390 C403 1.243 . S
O391 Tb347 2.413 . S
O391 C411 1.256 . S
C392 O381 1.283 . S
C392 O384 1.243 . S
C393 C395 1.382 . S
C393 C397 1.393 . S
C393 C400 1.500 . S
C394 C395 1.400 . S
C394 C396 1.384 . S
C395 C393 1.382 . S
C395 C394 1.400 . S
C395 H412 0.930 . S
C396 C394 1.384 . S
C396 C398 1.392 . S
C396 H413 0.931 1_455 S
C397 C393 1.393 . S
C397 C398 1.401 . S
C397 H414 0.930 . S
C398 C396 1.392 . S
C398 C397 1.401 . S
C398 H415 0.930 . S
C399 O382 1.262 . S
C399 O383 1.260 . S
C400 Tb336 2.833 . S
C400 O380 1.251 . S
C400 O385 1.256 . S
C400 C393 1.500 . S
C401 H366 0.929 . S
C401 C379 1.444 . S
C401 C402 1.317 . S
C402 H364 0.930 . S
C402 C370 1.432 . S
C402 C401 1.317 . S
C403 O387 1.283 . S
C403 O390 1.243 . S
C404 C405 1.382 . S
C404 C408 1.393 . S
C404 C411 1.500 . S
C405 C404 1.382 . S
C405 C406 1.400 . S
C405 H416 0.930 . S
C406 C405 1.400 . S
C406 C407 1.384 . S
C407 C406 1.384 . S
C407 C409 1.392 . S
C407 H417 0.931 . S
C408 C404 1.393 . S
C408 C409 1.401 . S
C408 H418 0.930 . S
C409 C407 1.392 . S
C409 C408 1.401 . S
C409 H419 0.930 . S
C410 O388 1.262 . S
C410 O389 1.260 . S
C411 Tb347 2.833 . S
C411 O386 1.251 . S
C411 O391 1.256 . S
C411 C404 1.500 . S
H412 C395 0.930 . S
H413 C396 0.931 1_655 S
H414 C397 0.930 . S
H415 C398 0.930 . S
H416 C405 0.930 . S
H417 C407 0.931 . S
H418 C408 0.930 . S
H419 C409 0.930 . S
Tb420 N451 2.660 . S
Tb420 N458 2.600 . S
Tb420 O464 2.546 . S
Tb420 O465 2.610 . S
Tb420 O467 2.320 . S
Tb420 O468 2.552 . S
Tb420 O469 2.413 . S
Tb420 O471 2.362 . S
Tb420 O472 2.421 . S
Tb420 C484 2.833 . S
C421 C424 1.432 . S
C421 C425 1.414 . S
C421 N428 1.359 . S
C422 C424 1.417 . S
C422 C426 1.432 1_455 S
C422 C434 1.410 . S
C423 C425 1.444 1_655 S
C423 C426 1.317 . S
C423 H446 0.929 . S
C424 C421 1.432 . S
C424 C422 1.417 . S
C424 N432 1.360 . S
C425 C421 1.414 . S
C425 C423 1.444 1_455 S
C425 C430 1.385 . S
C426 C422 1.432 1_655 S
C426 C423 1.317 . S
C426 H438 0.930 . S
C427 C429 1.392 . S
C427 C430 1.370 . S
C427 H439 0.931 . S
N428 C421 1.359 . S
N428 C429 1.327 . S
N428 Tb431 2.600 . S
C429 C427 1.392 . S
C429 N428 1.327 . S
C429 H436 0.930 . S
C430 C425 1.385 . S
C430 C427 1.370 . S
C430 H449 0.930 . S
Tb431 N428 2.600 . S
Tb431 N432 2.660 . S
Tb431 O465 2.362 . S
Tb431 O466 2.421 . S
Tb431 O470 2.546 . S
Tb431 O471 2.610 . S
Tb431 O473 2.320 . S
Tb431 O474 2.552 . S
Tb431 O475 2.413 . S
Tb431 C495 2.833 . S
N432 C424 1.360 . S
N432 Tb431 2.660 . S
N432 C433 1.305 . S
C433 N432 1.305 . S
C433 C435 1.407 . S
C433 H440 0.930 . S
C434 C422 1.410 . S
C434 C435 1.345 . S
C434 H442 0.930 1_455 S
C435 C433 1.407 . S
C435 C434 1.345 . S
C435 H437 0.930 . S
H436 C429 0.930 . S
H437 C435 0.930 . S
H438 C426 0.930 . S
H439 C427 0.931 . S
H440 C433 0.930 . S
H441 C455 0.930 . S
H442 C434 0.930 1_655 S
H443 C461 0.930 . S
H444 C452 0.930 . S
H445 C459 0.931 . S
H446 C423 0.929 . S
H447 C453 0.930 . S
H448 C486 0.930 . S
H449 C430 0.930 . S
H450 C485 0.929 . S
N451 Tb420 2.660 . S
N451 C452 1.305 . S
N451 C456 1.360 . S
C452 H444 0.930 . S
C452 N451 1.305 . S
C452 C455 1.407 . S
C453 H447 0.930 . S
C453 C454 1.410 . S
C453 C455 1.345 . S
C454 C453 1.410 . S
C454 C456 1.417 . S
C454 C486 1.432 . S
C455 H441 0.930 . S
C455 C452 1.407 . S
C455 C453 1.345 . S
C456 N451 1.360 . S
C456 C454 1.417 . S
C456 C460 1.432 . S
H457 C462 0.930 . S
N458 Tb420 2.600 . S
N458 C460 1.359 . S
N458 C461 1.327 . S
C459 H445 0.931 . S
C459 C461 1.392 . S
C459 C462 1.370 . S
C460 C456 1.432 . S
C460 N458 1.359 . S
C460 C463 1.414 . S
C461 H443 0.930 . S
C461 N458 1.327 . S
C461 C459 1.392 . S
C462 H457 0.930 . S
C462 C459 1.370 . S
C462 C463 1.385 . S
C463 C460 1.414 . S
C463 C462 1.385 . S
C463 C485 1.444 . S
O464 Tb420 2.546 . S
O464 C484 1.251 . S
O465 Tb420 2.610 . S
O465 Tb431 2.362 . S
O465 C476 1.283 . S
O466 Tb431 2.421 . S
O466 C483 1.262 . S
O467 Tb420 2.320 . S
O467 C483 1.260 . S
O468 Tb420 2.552 . S
O468 C476 1.243 . S
O469 Tb420 2.413 . S
O469 C484 1.256 . S
O470 Tb431 2.546 . S
O470 C495 1.251 . S
O471 Tb420 2.362 . S
O471 Tb431 2.610 . S
O471 C487 1.283 . S
O472 Tb420 2.421 . S
O472 C494 1.262 . S
O473 Tb431 2.320 . S
O473 C494 1.260 . S
O474 Tb431 2.552 . S
O474 C487 1.243 . S
O475 Tb431 2.413 . S
O475 C495 1.256 . S
C476 O465 1.283 . S
C476 O468 1.243 . S
C477 C479 1.382 . S
C477 C481 1.393 . S
C477 C484 1.500 . S
C478 C479 1.400 . S
C478 C480 1.384 . S
C479 C477 1.382 . S
C479 C478 1.400 . S
C479 H496 0.930 . S
C480 C478 1.384 . S
C480 C482 1.392 . S
C480 H497 0.931 . S
C481 C477 1.393 . S
C481 C482 1.401 . S
C481 H498 0.930 . S
C482 C480 1.392 . S
C482 C481 1.401 . S
C482 H499 0.930 . S
C483 O466 1.262 . S
C483 O467 1.260 . S
C484 Tb420 2.833 . S
C484 O464 1.251 . S
C484 O469 1.256 . S
C484 C477 1.500 . S
C485 H450 0.929 . S
C485 C463 1.444 . S
C485 C486 1.317 . S
C486 H448 0.930 . S
C486 C454 1.432 . S
C486 C485 1.317 . S
C487 O471 1.283 . S
C487 O474 1.243 . S
C488 C489 1.382 . S
C488 C492 1.393 . S
C488 C495 1.500 . S
C489 C488 1.382 . S
C489 C490 1.400 . S
C489 H500 0.930 . S
C490 C489 1.400 . S
C490 C491 1.384 . S
C491 C490 1.384 . S
C491 C493 1.392 . S
C491 H501 0.931 . S
C492 C488 1.393 . S
C492 C493 1.401 . S
C492 H502 0.930 . S
C493 C491 1.392 . S
C493 C492 1.401 . S
C493 H503 0.930 . S
C494 O472 1.262 . S
C494 O473 1.260 . S
C495 Tb431 2.833 . S
C495 O470 1.251 . S
C495 O475 1.256 . S
C495 C488 1.500 . S
H496 C479 0.930 . S
H497 C480 0.931 . S
H498 C481 0.930 . S
H499 C482 0.930 . S
H500 C489 0.930 . S
H501 C491 0.931 . S
H502 C492 0.930 . S
H503 C493 0.930 . S
Tb504 N535 2.660 . S
Tb504 N542 2.600 . S
Tb504 O548 2.546 . S
Tb504 O549 2.610 . S
Tb504 O551 2.320 . S
Tb504 O552 2.552 . S
Tb504 O553 2.413 . S
Tb504 O555 2.362 . S
Tb504 O556 2.421 . S
Tb504 C568 2.833 . S
C505 C508 1.432 . S
C505 C509 1.414 . S
C505 N512 1.359 . S
C506 C508 1.417 . S
C506 C510 1.432 . S
C506 C518 1.410 . S
C507 C509 1.444 . S
C507 C510 1.317 . S
C507 H530 0.929 1_545 S
C508 C505 1.432 . S
C508 C506 1.417 . S
C508 N516 1.360 . S
C509 C505 1.414 . S
C509 C507 1.444 . S
C509 C514 1.385 . S
C510 C506 1.432 . S
C510 C507 1.317 . S
C510 H522 0.930 . S
C511 C513 1.392 . S
C511 C514 1.370 . S
C511 H523 0.931 . S
N512 C505 1.359 . S
N512 C513 1.327 . S
N512 Tb515 2.600 . S
C513 C511 1.392 . S
C513 N512 1.327 . S
C513 H520 0.930 . S
C514 C509 1.385 . S
C514 C511 1.370 . S
C514 H533 0.930 . S
Tb515 N512 2.600 . S
Tb515 N516 2.660 . S
Tb515 O549 2.362 . S
Tb515 O550 2.421 . S
Tb515 O554 2.546 . S
Tb515 O555 2.610 . S
Tb515 O557 2.320 . S
Tb515 O558 2.552 . S
Tb515 O559 2.413 . S
Tb515 C579 2.833 . S
N516 C508 1.360 . S
N516 Tb515 2.660 . S
N516 C517 1.305 . S
C517 N516 1.305 . S
C517 C519 1.407 . S
C517 H524 0.930 . S
C518 C506 1.410 . S
C518 C519 1.345 . S
C518 H526 0.930 . S
C519 C517 1.407 . S
C519 C518 1.345 . S
C519 H521 0.930 . S
H520 C513 0.930 . S
H521 C519 0.930 . S
H522 C510 0.930 . S
H523 C511 0.931 . S
H524 C517 0.930 . S
H525 C539 0.930 . S
H526 C518 0.930 . S
H527 C545 0.930 . S
H528 C536 0.930 . S
H529 C543 0.931 . S
H530 C507 0.929 1_565 S
H531 C537 0.930 . S
H532 C570 0.930 . S
H533 C514 0.930 . S
H534 C569 0.929 . S
N535 Tb504 2.660 . S
N535 C536 1.305 . S
N535 C540 1.360 . S
C536 H528 0.930 . S
C536 N535 1.305 . S
C536 C539 1.407 . S
C537 H531 0.930 . S
C537 C538 1.410 . S
C537 C539 1.345 . S
C538 C537 1.410 . S
C538 C540 1.417 . S
C538 C570 1.432 . S
C539 H525 0.930 . S
C539 C536 1.407 . S
C539 C537 1.345 . S
C540 N535 1.360 . S
C540 C538 1.417 . S
C540 C544 1.432 . S
H541 C546 0.930 . S
N542 Tb504 2.600 . S
N542 C544 1.359 . S
N542 C545 1.327 . S
C543 H529 0.931 . S
C543 C545 1.392 . S
C543 C546 1.370 . S
C544 C540 1.432 . S
C544 N542 1.359 . S
C544 C547 1.414 . S
C545 H527 0.930 . S
C545 N542 1.327 . S
C545 C543 1.392 . S
C546 H541 0.930 . S
C546 C543 1.370 . S
C546 C547 1.385 . S
C547 C544 1.414 . S
C547 C546 1.385 . S
C547 C569 1.444 . S
O548 Tb504 2.546 . S
O548 C568 1.251 . S
O549 Tb504 2.610 . S
O549 Tb515 2.362 . S
O549 C560 1.283 . S
O550 Tb515 2.421 . S
O550 C567 1.262 . S
O551 Tb504 2.320 . S
O551 C567 1.260 . S
O552 Tb504 2.552 . S
O552 C560 1.243 . S
O553 Tb504 2.413 . S
O553 C568 1.256 . S
O554 Tb515 2.546 . S
O554 C579 1.251 . S
O555 Tb504 2.362 . S
O555 Tb515 2.610 . S
O555 C571 1.283 . S
O556 Tb504 2.421 . S
O556 C578 1.262 . S
O557 Tb515 2.320 . S
O557 C578 1.260 . S
O558 Tb515 2.552 . S
O558 C571 1.243 . S
O559 Tb515 2.413 . S
O559 C579 1.256 . S
C560 O549 1.283 . S
C560 O552 1.243 . S
C561 C563 1.382 . S
C561 C565 1.393 . S
C561 C568 1.500 . S
C562 C563 1.400 . S
C562 C564 1.384 . S
C563 C561 1.382 . S
C563 C562 1.400 . S
C563 H580 0.930 . S
C564 C562 1.384 . S
C564 C566 1.392 . S
C564 H581 0.931 . S
C565 C561 1.393 . S
C565 C566 1.401 . S
C565 H582 0.930 . S
C566 C564 1.392 . S
C566 C565 1.401 . S
C566 H583 0.930 . S
C567 O550 1.262 . S
C567 O551 1.260 . S
C568 Tb504 2.833 . S
C568 O548 1.251 . S
C568 O553 1.256 . S
C568 C561 1.500 . S
C569 H534 0.929 . S
C569 C547 1.444 . S
C569 C570 1.317 . S
C570 H532 0.930 . S
C570 C538 1.432 . S
C570 C569 1.317 . S
C571 O555 1.283 . S
C571 O558 1.243 . S
C572 C573 1.382 1_545 S
C572 C576 1.393 1_545 S
C572 C579 1.500 . S
C573 C572 1.382 1_565 S
C573 C574 1.400 . S
C573 H584 0.930 1_565 S
C574 C573 1.400 . S
C574 C575 1.384 . S
C575 C574 1.384 . S
C575 C577 1.392 . S
C575 H585 0.931 . S
C576 C572 1.393 1_565 S
C576 C577 1.401 . S
C576 H586 0.930 . S
C577 C575 1.392 . S
C577 C576 1.401 . S
C577 H587 0.930 . S
C578 O556 1.262 . S
C578 O557 1.260 . S
C579 Tb515 2.833 . S
C579 O554 1.251 . S
C579 O559 1.256 . S
C579 C572 1.500 . S
H580 C563 0.930 . S
H581 C564 0.931 . S
H582 C565 0.930 . S
H583 C566 0.930 . S
H584 C573 0.930 1_545 S
H585 C575 0.931 . S
H586 C576 0.930 . S
H587 C577 0.930 . S
Tb588 N619 2.660 . S
Tb588 N626 2.600 . S
Tb588 O632 2.546 . S
Tb588 O633 2.610 . S
Tb588 O635 2.320 . S
Tb588 O636 2.552 . S
Tb588 O637 2.413 . S
Tb588 O639 2.362 . S
Tb588 O640 2.421 . S
Tb588 C652 2.833 . S
C589 C592 1.432 . S
C589 C593 1.414 . S
C589 N596 1.359 . S
C590 C592 1.417 . S
C590 C594 1.432 1_655 S
C590 C602 1.410 . S
C591 C593 1.444 1_455 S
C591 C594 1.317 . S
C591 H614 0.929 . S
C592 C589 1.432 . S
C592 C590 1.417 . S
C592 N600 1.360 . S
C593 C589 1.414 . S
C593 C591 1.444 1_655 S
C593 C598 1.385 . S
C594 C590 1.432 1_455 S
C594 C591 1.317 . S
C594 H606 0.930 . S
C595 C597 1.392 . S
C595 C598 1.370 . S
C595 H607 0.931 . S
N596 C589 1.359 . S
N596 C597 1.327 . S
N596 Tb599 2.600 . S
C597 C595 1.392 . S
C597 N596 1.327 . S
C597 H604 0.930 . S
C598 C593 1.385 . S
C598 C595 1.370 . S
C598 H617 0.930 1_655 S
Tb599 N596 2.600 . S
Tb599 N600 2.660 . S
Tb599 O633 2.362 . S
Tb599 O634 2.421 . S
Tb599 O638 2.546 . S
Tb599 O639 2.610 . S
Tb599 O641 2.320 . S
Tb599 O642 2.552 . S
Tb599 O643 2.413 . S
Tb599 C663 2.833 . S
N600 C592 1.360 . S
N600 Tb599 2.660 . S
N600 C601 1.305 . S
C601 N600 1.305 . S
C601 C603 1.407 . S
C601 H608 0.930 . S
C602 C590 1.410 . S
C602 C603 1.345 . S
C602 H610 0.930 . S
C603 C601 1.407 . S
C603 C602 1.345 . S
C603 H605 0.930 . S
H604 C597 0.930 . S
H605 C603 0.930 . S
H606 C594 0.930 . S
H607 C595 0.931 . S
H608 C601 0.930 . S
H609 C623 0.930 . S
H610 C602 0.930 . S
H611 C629 0.930 . S
H612 C620 0.930 . S
H613 C627 0.931 . S
H614 C591 0.929 . S
H615 C621 0.930 . S
H616 C654 0.930 . S
H617 C598 0.930 1_455 S
H618 C653 0.929 . S
N619 Tb588 2.660 . S
N619 C620 1.305 . S
N619 C624 1.360 . S
C620 H612 0.930 . S
C620 N619 1.305 . S
C620 C623 1.407 . S
C621 H615 0.930 . S
C621 C622 1.410 . S
C621 C623 1.345 . S
C622 C621 1.410 . S
C622 C624 1.417 . S
C622 C654 1.432 . S
C623 H609 0.930 . S
C623 C620 1.407 . S
C623 C621 1.345 . S
C624 N619 1.360 . S
C624 C622 1.417 . S
C624 C628 1.432 . S
H625 C630 0.930 . S
N626 Tb588 2.600 . S
N626 C628 1.359 . S
N626 C629 1.327 . S
C627 H613 0.931 . S
C627 C629 1.392 . S
C627 C630 1.370 . S
C628 C624 1.432 . S
C628 N626 1.359 . S
C628 C631 1.414 . S
C629 H611 0.930 . S
C629 N626 1.327 . S
C629 C627 1.392 . S
C630 H625 0.930 . S
C630 C627 1.370 . S
C630 C631 1.385 . S
C631 C628 1.414 . S
C631 C630 1.385 . S
C631 C653 1.444 . S
O632 Tb588 2.546 . S
O632 C652 1.251 . S
O633 Tb588 2.610 . S
O633 Tb599 2.362 . S
O633 C644 1.283 . S
O634 Tb599 2.421 . S
O634 C651 1.262 . S
O635 Tb588 2.320 . S
O635 C651 1.260 . S
O636 Tb588 2.552 . S
O636 C644 1.243 . S
O637 Tb588 2.413 . S
O637 C652 1.256 . S
O638 Tb599 2.546 . S
O638 C663 1.251 . S
O639 Tb588 2.362 . S
O639 Tb599 2.610 . S
O639 C655 1.283 . S
O640 Tb588 2.421 . S
O640 C662 1.262 . S
O641 Tb599 2.320 . S
O641 C662 1.260 . S
O642 Tb599 2.552 . S
O642 C655 1.243 . S
O643 Tb599 2.413 . S
O643 C663 1.256 . S
C644 O633 1.283 . S
C644 O636 1.243 . S
C645 C647 1.382 . S
C645 C649 1.393 . S
C645 C652 1.500 . S
C646 C647 1.400 . S
C646 C648 1.384 . S
C647 C645 1.382 . S
C647 C646 1.400 . S
C647 H664 0.930 . S
C648 C646 1.384 . S
C648 C650 1.392 . S
C648 H665 0.931 . S
C649 C645 1.393 . S
C649 C650 1.401 . S
C649 H666 0.930 . S
C650 C648 1.392 . S
C650 C649 1.401 . S
C650 H667 0.930 . S
C651 O634 1.262 . S
C651 O635 1.260 . S
C652 Tb588 2.833 . S
C652 O632 1.251 . S
C652 O637 1.256 . S
C652 C645 1.500 . S
C653 H618 0.929 . S
C653 C631 1.444 . S
C653 C654 1.317 . S
C654 H616 0.930 . S
C654 C622 1.432 . S
C654 C653 1.317 . S
C655 O639 1.283 . S
C655 O642 1.243 . S
C656 C657 1.382 . S
C656 C660 1.393 . S
C656 C663 1.500 1_455 S
C657 C656 1.382 . S
C657 C658 1.400 . S
C657 H668 0.930 . S
C658 C657 1.400 . S
C658 C659 1.384 . S
C659 C658 1.384 . S
C659 C661 1.392 . S
C659 H669 0.931 . S
C660 C656 1.393 . S
C660 C661 1.401 . S
C660 H670 0.930 . S
C661 C659 1.392 . S
C661 C660 1.401 . S
C661 H671 0.930 . S
C662 O640 1.262 . S
C662 O641 1.260 . S
C663 Tb599 2.833 . S
C663 O638 1.251 . S
C663 O643 1.256 . S
C663 C656 1.500 1_655 S
H664 C647 0.930 . S
H665 C648 0.931 . S
H666 C649 0.930 . S
H667 C650 0.930 . S
H668 C657 0.930 . S
H669 C659 0.931 . S
H670 C660 0.930 . S
H671 C661 0.930 . S
Tb672 N703 2.660 . S
Tb672 N710 2.600 . S
Tb672 O716 2.546 . S
Tb672 O717 2.610 . S
Tb672 O719 2.320 . S
Tb672 O720 2.552 . S
Tb672 O721 2.413 . S
Tb672 O723 2.362 . S
Tb672 O724 2.421 . S
Tb672 C736 2.833 . S
C673 C676 1.432 . S
C673 C677 1.414 . S
C673 N680 1.359 . S
C674 C676 1.417 . S
C674 C678 1.432 . S
C674 C686 1.410 . S
C675 C677 1.444 . S
C675 C678 1.317 . S
C675 H698 0.929 . S
C676 C673 1.432 . S
C676 C674 1.417 . S
C676 N684 1.360 . S
C677 C673 1.414 . S
C677 C675 1.444 . S
C677 C682 1.385 . S
C678 C674 1.432 . S
C678 C675 1.317 . S
C678 H690 0.930 . S
C679 C681 1.392 . S
C679 C682 1.370 . S
C679 H691 0.931 . S
N680 C673 1.359 . S
N680 C681 1.327 . S
N680 Tb683 2.600 . S
C681 C679 1.392 . S
C681 N680 1.327 . S
C681 H688 0.930 . S
C682 C677 1.385 . S
C682 C679 1.370 . S
C682 H701 0.930 . S
Tb683 N680 2.600 . S
Tb683 N684 2.660 . S
Tb683 O717 2.362 . S
Tb683 O718 2.421 . S
Tb683 O722 2.546 . S
Tb683 O723 2.610 . S
Tb683 O725 2.320 . S
Tb683 O726 2.552 . S
Tb683 O727 2.413 . S
Tb683 C747 2.833 . S
N684 C676 1.360 . S
N684 Tb683 2.660 . S
N684 C685 1.305 . S
C685 N684 1.305 . S
C685 C687 1.407 . S
C685 H692 0.930 . S
C686 C674 1.410 . S
C686 C687 1.345 . S
C686 H694 0.930 . S
C687 C685 1.407 . S
C687 C686 1.345 . S
C687 H689 0.930 . S
H688 C681 0.930 . S
H689 C687 0.930 . S
H690 C678 0.930 . S
H691 C679 0.931 . S
H692 C685 0.930 . S
H693 C707 0.930 . S
H694 C686 0.930 . S
H695 C713 0.930 . S
H696 C704 0.930 . S
H697 C711 0.931 . S
H698 C675 0.929 . S
H699 C705 0.930 . S
H700 C738 0.937 . S
H701 C682 0.930 . S
H702 C737 0.929 . S
N703 Tb672 2.660 . S
N703 C704 1.305 . S
N703 C708 1.360 . S
C704 H696 0.930 . S
C704 N703 1.305 . S
C704 C707 1.407 . S
C705 H699 0.930 . S
C705 C706 1.410 . S
C705 C707 1.345 . S
C706 C705 1.410 . S
C706 C708 1.417 . S
C706 C738 1.432 . S
C707 H693 0.930 . S
C707 C704 1.407 . S
C707 C705 1.345 . S
C708 N703 1.360 . S
C708 C706 1.417 . S
C708 C712 1.432 . S
H709 C714 0.930 . S
N710 Tb672 2.600 . S
N710 C712 1.359 . S
N710 C713 1.327 . S
C711 H697 0.931 . S
C711 C713 1.392 . S
C711 C714 1.370 . S
C712 C708 1.432 . S
C712 N710 1.359 . S
C712 C715 1.414 . S
C713 H695 0.930 . S
C713 N710 1.327 . S
C713 C711 1.392 . S
C714 H709 0.930 . S
C714 C711 1.370 . S
C714 C715 1.385 . S
C715 C712 1.414 . S
C715 C714 1.385 . S
C715 C737 1.444 . S
O716 Tb672 2.546 . S
O716 C736 1.251 . S
O717 Tb672 2.610 . S
O717 Tb683 2.362 . S
O717 C728 1.283 . S
O718 Tb683 2.421 . S
O718 C735 1.262 . S
O719 Tb672 2.320 . S
O719 C735 1.260 . S
O720 Tb672 2.552 . S
O720 C728 1.243 . S
O721 Tb672 2.413 . S
O721 C736 1.256 . S
O722 Tb683 2.546 . S
O722 C747 1.251 . S
O723 Tb672 2.362 . S
O723 Tb683 2.610 . S
O723 C739 1.283 . S
O724 Tb672 2.421 . S
O724 C746 1.262 . S
O725 Tb683 2.320 . S
O725 C746 1.260 . S
O726 Tb683 2.552 . S
O726 C739 1.243 . S
O727 Tb683 2.413 . S
O727 C747 1.256 . S
C728 O717 1.283 . S
C728 O720 1.243 . S
C729 C731 1.382 . S
C729 C733 1.393 . S
C729 C736 1.500 . S
C730 C731 1.400 . S
C730 C732 1.384 . S
C731 C729 1.382 . S
C731 C730 1.400 . S
C731 H748 0.930 . S
C732 C730 1.384 . S
C732 C734 1.392 . S
C732 H749 0.931 . S
C733 C729 1.393 . S
C733 C734 1.401 . S
C733 H750 0.930 . S
C734 C732 1.392 . S
C734 C733 1.401 . S
C734 H751 0.930 . S
C735 O718 1.262 . S
C735 O719 1.260 . S
C736 Tb672 2.833 . S
C736 O716 1.251 . S
C736 O721 1.256 . S
C736 C729 1.500 . S
C737 H702 0.929 . S
C737 C715 1.444 . S
C737 C738 1.317 . S
C738 H700 0.937 . S
C738 C706 1.432 . S
C738 C737 1.317 . S
C739 O723 1.283 . S
C739 O726 1.243 . S
C740 C741 1.382 . S
C740 C744 1.393 . S
C740 C747 1.500 . S
C741 C740 1.382 . S
C741 C742 1.400 . S
C741 H752 0.930 . S
C742 C741 1.400 . S
C742 C743 1.384 . S
C743 C742 1.384 . S
C743 C745 1.392 . S
C743 H753 0.931 . S
C744 C740 1.393 . S
C744 C745 1.401 . S
C744 H754 0.930 . S
C745 C743 1.392 . S
C745 C744 1.401 . S
C745 H755 0.930 . S
C746 O724 1.262 . S
C746 O725 1.260 . S
C747 Tb683 2.833 . S
C747 O722 1.251 . S
C747 O727 1.256 . S
C747 C740 1.500 . S
H748 C731 0.930 . S
H749 C732 0.931 . S
H750 C733 0.930 . S
H751 C734 0.930 . S
H752 C741 0.930 . S
H753 C743 0.931 . S
H754 C744 0.930 . S
H755 C745 0.930 . S
C756 C757 1.349 . S
C756 C758 1.327 . S
C756 H781 0.950 . S
C757 C756 1.349 . S
C757 C773 1.349 1_554 S
C758 C756 1.327 . S
C758 C777 1.429 . S
C758 H782 0.950 . S
C759 C776 1.574 . S
C759 C778 1.368 1_556 S
C759 H783 0.949 . S
H760 C764 0.949 . S
C761 C762 1.349 1_556 S
C761 C763 1.327 . S
C761 H784 0.950 . S
C762 C761 1.349 1_554 S
C762 C774 1.349 . S
C763 C761 1.327 . S
C763 C779 1.429 1_556 S
C763 H785 0.950 . S
C764 H760 0.949 . S
C764 C772 1.574 . S
C764 C780 1.368 . S
H765 C773 0.950 . S
H766 C771 0.950 . S
H767 C772 0.949 . S
H768 C774 0.950 . S
H769 C775 0.950 . S
H770 C776 0.949 . S
C771 H766 0.950 . S
C771 C773 1.327 . S
C771 C777 1.429 1_556 S
C772 C764 1.574 . S
C772 H767 0.949 . S
C772 C778 1.368 . S
C773 C757 1.349 1_556 S
C773 H765 0.950 . S
C773 C771 1.327 . S
C774 C762 1.349 . S
C774 H768 0.950 . S
C774 C775 1.327 . S
C775 H769 0.950 . S
C775 C774 1.327 . S
C775 C779 1.429 . S
C776 C759 1.574 . S
C776 H770 0.949 . S
C776 C780 1.368 1_556 S
C777 C758 1.429 . S
C777 C771 1.429 1_554 S
C777 C778 1.523 . S
C778 C759 1.368 1_554 S
C778 C772 1.368 . S
C778 C777 1.523 . S
C779 C763 1.429 1_554 S
C779 C775 1.429 . S
C779 C780 1.523 . S
C780 C764 1.368 . S
C780 C776 1.368 1_554 S
C780 C779 1.523 . S
H781 C756 0.950 . S
H782 C758 0.950 . S
H783 C759 0.949 . S
H784 C761 0.950 . S
H785 C763 0.950 . S
C786 C787 1.349 1_556 S
C786 C788 1.327 . S
C786 H811 0.950 . S
C787 C786 1.349 1_554 S
C787 C803 1.349 . S
C788 C786 1.327 . S
C788 C807 1.429 1_556 S
C788 H812 0.950 . S
C789 C806 1.574 . S
C789 C808 1.368 . S
C789 H813 0.949 . S
H790 C794 0.949 . S
C791 C792 1.349 . S
C791 C793 1.327 . S
C791 H814 0.950 . S
C792 C791 1.349 . S
C792 C804 1.349 1_554 S
C793 C791 1.327 . S
C793 C809 1.429 . S
C793 H815 0.950 . S
C794 H790 0.949 . S
C794 C802 1.574 . S
C794 C810 1.368 1_556 S
H795 C803 0.950 . S
H796 C801 0.950 . S
H797 C802 0.949 . S
H798 C804 0.950 . S
H799 C805 0.950 . S
H800 C806 0.949 . S
C801 H796 0.950 . S
C801 C803 1.327 . S
C801 C807 1.429 . S
C802 C794 1.574 . S
C802 H797 0.949 . S
C802 C808 1.368 1_556 S
C803 C787 1.349 . S
C803 H795 0.950 . S
C803 C801 1.327 . S
C804 C792 1.349 1_556 S
C804 H798 0.950 . S
C804 C805 1.327 . S
C805 H799 0.950 . S
C805 C804 1.327 . S
C805 C809 1.429 1_556 S
C806 C789 1.574 . S
C806 H800 0.949 . S
C806 C810 1.368 . S
C807 C788 1.429 1_554 S
C807 C801 1.429 . S
C807 C808 1.523 . S
C808 C789 1.368 . S
C808 C802 1.368 1_554 S
C808 C807 1.523 . S
C809 C793 1.429 . S
C809 C805 1.429 1_554 S
C809 C810 1.523 . S
C810 C794 1.368 1_554 S
C810 C806 1.368 . S
C810 C809 1.523 . S
H811 C786 0.950 . S
H812 C788 0.950 . S
H813 C789 0.949 . S
H814 C791 0.950 . S
H815 C793 0.950 . S
C816 C817 1.349 . S
C816 C818 1.327 . S
C816 H841 0.950 . S
C817 C816 1.349 . S
C817 C833 1.349 1_554 S
C818 C816 1.327 . S
C818 C837 1.429 . S
C818 H842 0.950 . S
C819 C836 1.574 . S
C819 C838 1.368 1_556 S
C819 H843 0.949 . S
H820 C824 0.949 . S
C821 C822 1.349 1_556 S
C821 C823 1.327 . S
C821 H844 0.950 . S
C822 C821 1.349 1_554 S
C822 C834 1.349 . S
C823 C821 1.327 . S
C823 C839 1.429 1_556 S
C823 H845 0.950 . S
C824 H820 0.949 . S
C824 C832 1.574 . S
C824 C840 1.368 . S
H825 C833 0.950 . S
H826 C831 0.950 . S
H827 C832 0.949 . S
H828 C834 0.950 . S
H829 C835 0.950 . S
H830 C836 0.949 . S
C831 H826 0.950 . S
C831 C833 1.327 . S
C831 C837 1.429 1_556 S
C832 C824 1.574 . S
C832 H827 0.949 . S
C832 C838 1.368 . S
C833 C817 1.349 1_556 S
C833 H825 0.950 . S
C833 C831 1.327 . S
C834 C822 1.349 . S
C834 H828 0.950 . S
C834 C835 1.327 . S
C835 H829 0.950 . S
C835 C834 1.327 . S
C835 C839 1.429 . S
C836 C819 1.574 . S
C836 H830 0.949 . S
C836 C840 1.368 1_556 S
C837 C818 1.429 . S
C837 C831 1.429 1_554 S
C837 C838 1.523 . S
C838 C819 1.368 1_554 S
C838 C832 1.368 . S
C838 C837 1.523 . S
C839 C823 1.429 1_554 S
C839 C835 1.429 . S
C839 C840 1.523 . S
C840 C824 1.368 . S
C840 C836 1.368 1_554 S
C840 C839 1.523 . S
H841 C816 0.950 . S
H842 C818 0.950 . S
H843 C819 0.949 . S
H844 C821 0.950 . S
H845 C823 0.950 . S
C846 C847 1.349 1_554 S
C846 C848 1.327 . S
C846 H871 0.950 . S
C847 C846 1.349 1_556 S
C847 C863 1.349 . S
C848 C846 1.327 . S
C848 C867 1.429 1_554 S
C848 H872 0.950 . S
C849 C866 1.574 . S
C849 C868 1.368 . S
C849 H873 0.949 . S
H850 C854 0.949 . S
C851 C852 1.349 1_556 S
C851 C853 1.327 . S
C851 H874 0.950 . S
C852 C851 1.349 1_554 S
C852 C864 1.349 . S
C853 C851 1.327 . S
C853 C869 1.451 . S
C853 H875 0.950 . S
C854 H850 0.949 . S
C854 C862 1.574 . S
C854 C870 1.368 1_554 S
H855 C863 0.950 . S
H856 C861 0.950 . S
H857 C862 0.949 . S
H858 C864 0.950 . S
H859 C865 0.950 . S
H860 C866 0.949 . S
C861 H856 0.950 . S
C861 C863 1.327 . S
C861 C867 1.429 . S
C862 C854 1.574 . S
C862 H857 0.949 . S
C862 C868 1.368 1_554 S
C863 C847 1.349 . S
C863 H855 0.950 . S
C863 C861 1.327 . S
C864 C852 1.349 . S
C864 H858 0.950 . S
C864 C865 1.327 . S
C865 H859 0.950 . S
C865 C864 1.327 . S
C865 C869 1.404 1_554 S
C866 C849 1.574 . S
C866 H860 0.949 . S
C866 C870 1.368 . S
C867 C848 1.429 1_556 S
C867 C861 1.429 . S
C867 C868 1.523 . S
C868 C849 1.368 . S
C868 C862 1.368 1_556 S
C868 C867 1.523 . S
C869 C853 1.451 . S
C869 C865 1.404 1_556 S
C869 C870 1.525 . S
C870 C854 1.368 1_556 S
C870 C866 1.368 . S
C870 C869 1.525 . S
H871 C846 0.950 . S
H872 C848 0.950 . S
H873 C849 0.949 . S
H874 C851 0.950 . S
H875 C853 0.950 . S
C876 C877 1.349 1_556 S
C876 C878 1.327 . S
C876 H901 0.950 . S
C877 C876 1.349 1_554 S
C877 C893 1.349 . S
C878 C876 1.327 . S
C878 C897 1.452 . S
C878 H902 0.950 . S
C879 C896 1.574 . S
C879 C898 1.368 1_554 S
C879 H903 0.949 . S
H880 C884 0.949 . S
C881 C882 1.349 1_554 S
C881 C883 1.327 . S
C881 H904 0.950 . S
C882 C881 1.349 1_556 S
C882 C894 1.349 . S
C883 C881 1.327 . S
C883 C899 1.429 1_554 S
C883 H905 0.950 . S
C884 H880 0.949 . S
C884 C892 1.574 . S
C884 C900 1.368 . S
H885 C893 0.950 . S
H886 C891 0.950 . S
H887 C892 0.949 . S
H888 C894 0.950 . S
H889 C895 0.950 . S
H890 C896 0.949 . S
C891 H886 0.950 . S
C891 C893 1.327 . S
C891 C897 1.403 1_554 S
C892 C884 1.574 . S
C892 H887 0.949 . S
C892 C898 1.368 . S
C893 C877 1.349 . S
C893 H885 0.950 . S
C893 C891 1.327 . S
C894 C882 1.349 . S
C894 H888 0.950 . S
C894 C895 1.327 . S
C895 H889 0.950 . S
C895 C894 1.327 . S
C895 C899 1.429 . S
C896 C879 1.574 . S
C896 H890 0.949 . S
C896 C900 1.368 1_554 S
C897 C878 1.452 . S
C897 C891 1.403 1_556 S
C897 C898 1.525 . S
C898 C879 1.368 1_556 S
C898 C892 1.368 . S
C898 C897 1.525 . S
C899 C883 1.429 1_556 S
C899 C895 1.429 . S
C899 C900 1.523 . S
C900 C884 1.368 . S
C900 C896 1.368 1_556 S
C900 C899 1.523 . S
H901 C876 0.950 . S
H902 C878 0.950 . S
H903 C879 0.949 . S
H904 C881 0.950 . S
H905 C883 0.950 . S
C906 C907 1.349 1_556 S
C906 C908 1.327 . S
C906 H931 0.950 . S
C907 C906 1.349 1_554 S
C907 C923 1.349 . S
C908 C906 1.327 . S
C908 C927 1.450 . S
C908 H932 0.950 . S
C909 C926 1.574 . S
C909 C928 1.368 1_554 S
C909 H933 0.949 . S
H910 C914 0.949 . S
C911 C912 1.349 1_554 S
C911 C913 1.327 . S
C911 H934 0.950 . S
C912 C911 1.349 1_556 S
C912 C924 1.349 . S
C913 C911 1.327 . S
C913 C929 1.429 1_554 S
C913 H935 0.950 . S
C914 H910 0.949 . S
C914 C922 1.574 . S
C914 C930 1.368 . S
H915 C923 0.950 . S
H916 C921 0.950 . S
H917 C922 0.949 . S
H918 C924 0.950 . S
H919 C925 0.950 . S
H920 C926 0.949 . S
C921 H916 0.950 . S
C921 C923 1.327 . S
C921 C927 1.405 1_554 S
C922 C914 1.574 . S
C922 H917 0.949 . S
C922 C928 1.368 . S
C923 C907 1.349 . S
C923 H915 0.950 . S
C923 C921 1.327 . S
C924 C912 1.349 . S
C924 H918 0.950 . S
C924 C925 1.327 . S
C925 H919 0.950 . S
C925 C924 1.327 . S
C925 C929 1.429 . S
C926 C909 1.574 . S
C926 H920 0.949 . S
C926 C930 1.368 1_554 S
C927 C908 1.450 . S
C927 C921 1.405 1_556 S
C927 C928 1.525 . S
C928 C909 1.368 1_556 S
C928 C922 1.368 . S
C928 C927 1.525 . S
C929 C913 1.429 1_556 S
C929 C925 1.429 . S
C929 C930 1.523 . S
C930 C914 1.368 . S
C930 C926 1.368 1_556 S
C930 C929 1.523 . S
H931 C906 0.950 . S
H932 C908 0.950 . S
H933 C909 0.949 . S
H934 C911 0.950 . S
H935 C913 0.950 . S
C936 C937 1.349 . S
C936 C938 1.327 . S
C936 H961 0.950 . S
C937 C936 1.349 . S
C937 C953 1.349 . S
C938 C936 1.327 . S
C938 C957 1.429 . S
C938 H962 0.950 . S
C939 C956 1.574 . S
C939 C958 1.368 . S
C939 H963 0.949 . S
H940 C944 0.949 . S
C941 C942 1.349 . S
C941 C943 1.327 1_455 S
C941 H964 0.950 . S
C942 C941 1.349 . S
C942 C954 1.349 1_455 S
C943 C941 1.327 1_655 S
C943 C959 1.429 . S
C943 H965 0.950 . S
C944 H940 0.949 . S
C944 C952 1.574 . S
C944 C960 1.368 . S
H945 C953 0.950 . S
H946 C951 0.950 . S
H947 C952 0.949 . S
H948 C954 0.950 . S
H949 C955 0.950 . S
H950 C956 0.949 . S
C951 H946 0.950 . S
C951 C953 1.327 . S
C951 C957 1.429 . S
C952 C944 1.574 . S
C952 H947 0.949 . S
C952 C958 1.368 . S
C953 C937 1.349 . S
C953 H945 0.950 . S
C953 C951 1.327 . S
C954 C942 1.349 1_655 S
C954 H948 0.950 . S
C954 C955 1.327 . S
C955 H949 0.950 . S
C955 C954 1.327 . S
C955 C959 1.429 . S
C956 C939 1.574 . S
C956 H950 0.949 . S
C956 C960 1.368 . S
C957 C938 1.429 . S
C957 C951 1.429 . S
C957 C958 1.523 . S
C958 C939 1.368 . S
C958 C952 1.368 . S
C958 C957 1.523 . S
C959 C943 1.429 . S
C959 C955 1.429 . S
C959 C960 1.523 . S
C960 C944 1.368 . S
C960 C956 1.368 . S
C960 C959 1.523 . S
H961 C936 0.950 . S
H962 C938 0.950 . S
H963 C939 0.949 . S
H964 C941 0.950 . S
H965 C943 0.950 . S
C966 C967 1.349 . S
C966 C968 1.327 . S
C966 H991 0.950 . S
C967 C966 1.349 . S
C967 C983 1.349 . S
C968 C966 1.327 . S
C968 C987 1.429 . S
C968 H992 0.950 . S
C969 C986 1.574 . S
C969 C988 1.368 . S
C969 H993 0.949 . S
H970 C974 0.949 . S
C971 C972 1.349 . S
C971 C973 1.327 . S
C971 H994 0.950 . S
C972 C971 1.349 . S
C972 C984 1.349 . S
C973 C971 1.327 . S
C973 C989 1.429 . S
C973 H995 0.950 1_565 S
C974 H970 0.949 . S
C974 C982 1.574 . S
C974 C990 1.368 . S
H975 C983 0.950 . S
H976 C981 0.950 . S
H977 C982 0.949 . S
H978 C984 0.950 . S
H979 C985 0.950 . S
H980 C986 0.949 . S
C981 H976 0.950 . S
C981 C983 1.327 . S
C981 C987 1.429 . S
C982 C974 1.574 . S
C982 H977 0.949 . S
C982 C988 1.368 . S
C983 C967 1.349 . S
C983 H975 0.950 . S
C983 C981 1.327 . S
C984 C972 1.349 . S
C984 H978 0.950 . S
C984 C985 1.327 . S
C985 H979 0.950 . S
C985 C984 1.327 . S
C985 C989 1.429 . S
C986 C969 1.574 . S
C986 H980 0.949 . S
C986 C990 1.368 . S
C987 C968 1.429 . S
C987 C981 1.429 . S
C987 C988 1.523 . S
C988 C969 1.368 . S
C988 C982 1.368 . S
C988 C987 1.523 . S
C989 C973 1.429 . S
C989 C985 1.429 . S
C989 C990 1.523 1_565 S
C990 C974 1.368 . S
C990 C986 1.368 . S
C990 C989 1.523 1_545 S
H991 C966 0.950 . S
H992 C968 0.950 . S
H993 C969 0.949 . S
H994 C971 0.950 . S
H995 C973 0.950 1_545 S
C996 C997 1.349 . S
C996 C998 1.327 . S
C996 H1021 0.950 . S
C997 C996 1.349 . S
C997 C1013 1.349 . S
C998 C996 1.327 . S
C998 C1017 1.429 . S
C998 H1022 0.950 . S
C999 C1016 1.574 . S
C999 C1018 1.368 . S
C999 H1023 0.949 1_655 S
H1000 C1004 0.949 . S
C1001 C1002 1.347 . S
C1001 C1003 1.327 . S
C1001 H1024 0.950 1_545 S
C1002 C1001 1.347 . S
C1002 C1014 1.371 . S
C1003 C1001 1.327 . S
C1003 C1019 1.429 . S
C1003 H1025 0.950 . S
C1004 H1000 0.949 . S
C1004 C1012 1.574 . S
C1004 C1020 1.368 . S
H1005 C1013 0.950 . S
H1006 C1011 0.950 . S
H1007 C1012 0.949 . S
H1008 C1014 0.950 . S
H1009 C1015 0.950 . S
H1010 C1016 0.949 . S
C1011 H1006 0.950 . S
C1011 C1013 1.327 . S
C1011 C1017 1.429 . S
C1012 C1004 1.574 . S
C1012 H1007 0.949 . S
C1012 C1018 1.368 . S
C1013 C997 1.349 . S
C1013 H1005 0.950 . S
C1013 C1011 1.327 . S
C1014 C1002 1.371 . S
C1014 H1008 0.950 . S
C1014 C1015 1.327 . S
C1015 H1009 0.950 . S
C1015 C1014 1.327 . S
C1015 C1019 1.429 . S
C1016 C999 1.574 . S
C1016 H1010 0.949 . S
C1016 C1020 1.368 . S
C1017 C998 1.429 . S
C1017 C1011 1.429 . S
C1017 C1018 1.523 1_455 S
C1018 C999 1.368 . S
C1018 C1012 1.368 . S
C1018 C1017 1.523 1_655 S
C1019 C1003 1.429 . S
C1019 C1015 1.429 . S
C1019 C1020 1.523 . S
C1020 C1004 1.368 . S
C1020 C1016 1.368 . S
C1020 C1019 1.523 . S
H1021 C996 0.950 . S
H1022 C998 0.950 . S
H1023 C999 0.949 1_455 S
H1024 C1001 0.950 1_565 S
H1025 C1003 0.950 . S
C1026 C1027 1.349 . S
C1026 C1028 1.327 . S
C1026 H1051 0.950 . S
C1027 C1026 1.349 . S
C1027 C1043 1.349 . S
C1028 C1026 1.327 . S
C1028 C1047 1.429 . S
C1028 H1052 0.950 . S
C1029 C1046 1.574 . S
C1029 C1048 1.368 . S
C1029 H1053 0.949 . S
H1030 C1034 0.949 . S
C1031 C1032 1.349 . S
C1031 C1033 1.327 . S
C1031 H1054 0.950 . S
C1032 C1031 1.349 . S
C1032 C1044 1.349 . S
C1033 C1031 1.327 . S
C1033 C1049 1.429 . S
C1033 H1055 0.950 . S
C1034 H1030 0.949 . S
C1034 C1042 1.574 . S
C1034 C1050 1.368 . S
H1035 C1043 0.950 . S
H1036 C1041 0.950 . S
H1037 C1042 0.949 . S
H1038 C1044 0.950 . S
H1039 C1045 0.950 . S
H1040 C1046 0.949 . S
C1041 H1036 0.950 . S
C1041 C1043 1.327 . S
C1041 C1047 1.429 . S
C1042 C1034 1.574 . S
C1042 H1037 0.949 . S
C1042 C1048 1.368 . S
C1043 C1027 1.349 . S
C1043 H1035 0.950 . S
C1043 C1041 1.327 . S
C1044 C1032 1.349 . S
C1044 H1038 0.950 . S
C1044 C1045 1.327 . S
C1045 H1039 0.950 . S
C1045 C1044 1.327 . S
C1045 C1049 1.429 . S
C1046 C1029 1.574 . S
C1046 H1040 0.949 . S
C1046 C1050 1.368 . S
C1047 C1028 1.429 . S
C1047 C1041 1.429 . S
C1047 C1048 1.523 . S
C1048 C1029 1.368 . S
C1048 C1042 1.368 . S
C1048 C1047 1.523 . S
C1049 C1033 1.429 . S
C1049 C1045 1.429 . S
C1049 C1050 1.523 . S
C1050 C1034 1.368 . S
C1050 C1046 1.368 . S
C1050 C1049 1.523 . S
H1051 C1026 0.950 . S
H1052 C1028 0.950 . S
H1053 C1029 0.949 . S
H1054 C1031 0.950 . S
H1055 C1033 0.950 . S
C1056 C1057 1.349 . S
C1056 C1058 1.327 . S
C1056 H1081 0.950 . S
C1057 C1056 1.349 . S
C1057 C1073 1.349 . S
C1058 C1056 1.327 . S
C1058 C1077 1.429 . S
C1058 H1082 0.950 . S
C1059 C1076 1.574 . S
C1059 C1078 1.368 . S
C1059 H1083 0.949 . S
H1060 C1064 0.949 . S
C1061 C1062 1.349 . S
C1061 C1063 1.327 . S
C1061 H1084 0.950 . S
C1062 C1061 1.349 . S
C1062 C1074 1.349 . S
C1063 C1061 1.327 . S
C1063 C1079 1.429 . S
C1063 H1085 0.950 . S
C1064 H1060 0.949 . S
C1064 C1072 1.574 . S
C1064 C1080 1.368 . S
H1065 C1073 0.950 . S
H1066 C1071 0.950 . S
H1067 C1072 0.949 . S
H1068 C1074 0.950 . S
H1069 C1075 0.950 . S
H1070 C1076 0.949 . S
C1071 H1066 0.950 . S
C1071 C1073 1.327 . S
C1071 C1077 1.429 . S
C1072 C1064 1.574 . S
C1072 H1067 0.949 . S
C1072 C1078 1.368 . S
C1073 C1057 1.349 . S
C1073 H1065 0.950 . S
C1073 C1071 1.327 . S
C1074 C1062 1.349 . S
C1074 H1068 0.950 . S
C1074 C1075 1.327 . S
C1075 H1069 0.950 . S
C1075 C1074 1.327 . S
C1075 C1079 1.429 . S
C1076 C1059 1.574 . S
C1076 H1070 0.949 . S
C1076 C1080 1.368 . S
C1077 C1058 1.429 . S
C1077 C1071 1.429 . S
C1077 C1078 1.523 . S
C1078 C1059 1.368 . S
C1078 C1072 1.368 . S
C1078 C1077 1.523 . S
C1079 C1063 1.429 . S
C1079 C1075 1.429 . S
C1079 C1080 1.523 . S
C1080 C1064 1.368 . S
C1080 C1076 1.368 . S
C1080 C1079 1.523 . S
H1081 C1056 0.950 . S
H1082 C1058 0.950 . S
H1083 C1059 0.949 . S
H1084 C1061 0.950 . S
H1085 C1063 0.950 . S
C1086 C1087 1.349 . S
C1086 C1088 1.327 . S
C1086 H1111 0.950 . S
C1087 C1086 1.349 . S
C1087 C1103 1.349 . S
C1088 C1086 1.327 . S
C1088 C1107 1.429 . S
C1088 H1112 0.950 . S
C1089 C1106 1.574 . S
C1089 C1108 1.368 . S
C1089 H1113 0.949 . S
H1090 C1094 0.949 . S
C1091 C1092 1.349 . S
C1091 C1093 1.327 . S
C1091 H1114 0.950 . S
C1092 C1091 1.349 . S
C1092 C1104 1.349 . S
C1093 C1091 1.327 . S
C1093 C1109 1.429 . S
C1093 H1115 0.950 . S
C1094 H1090 0.949 . S
C1094 C1102 1.574 . S
C1094 C1110 1.368 . S
H1095 C1103 0.950 . S
H1096 C1101 0.950 . S
H1097 C1102 0.949 . S
H1098 C1104 0.950 . S
H1099 C1105 0.950 . S
H1100 C1106 0.949 . S
C1101 H1096 0.950 . S
C1101 C1103 1.327 . S
C1101 C1107 1.429 . S
C1102 C1094 1.574 . S
C1102 H1097 0.949 . S
C1102 C1108 1.368 . S
C1103 C1087 1.349 . S
C1103 H1095 0.950 . S
C1103 C1101 1.327 . S
C1104 C1092 1.349 . S
C1104 H1098 0.950 . S
C1104 C1105 1.327 . S
C1105 H1099 0.950 . S
C1105 C1104 1.327 . S
C1105 C1109 1.429 . S
C1106 C1089 1.574 . S
C1106 H1100 0.949 . S
C1106 C1110 1.368 . S
C1107 C1088 1.429 . S
C1107 C1101 1.429 . S
C1107 C1108 1.523 . S
C1108 C1089 1.368 . S
C1108 C1102 1.368 . S
C1108 C1107 1.523 . S
C1109 C1093 1.429 . S
C1109 C1105 1.429 . S
C1109 C1110 1.523 . S
C1110 C1094 1.368 . S
C1110 C1106 1.368 . S
C1110 C1109 1.523 . S
H1111 C1086 0.950 . S
H1112 C1088 0.950 . S
H1113 C1089 0.949 . S
H1114 C1091 0.950 . S
H1115 C1093 0.950 . S
C1116 C1117 1.349 . S
C1116 C1118 1.327 . S
C1116 H1141 0.950 . S
C1117 C1116 1.349 . S
C1117 C1133 1.349 . S
C1118 C1116 1.327 . S
C1118 C1137 1.429 . S
C1118 H1142 0.950 . S
C1119 C1136 1.574 . S
C1119 C1138 1.368 . S
C1119 H1143 0.949 . S
H1120 C1124 0.949 . S
C1121 C1122 1.349 . S
C1121 C1123 1.327 . S
C1121 H1144 0.950 . S
C1122 C1121 1.349 . S
C1122 C1134 1.349 . S
C1123 C1121 1.327 . S
C1123 C1139 1.429 . S
C1123 H1145 0.950 . S
C1124 H1120 0.949 . S
C1124 C1132 1.574 . S
C1124 C1140 1.368 . S
H1125 C1133 0.950 . S
H1126 C1131 0.950 . S
H1127 C1132 0.949 . S
H1128 C1134 0.950 . S
H1129 C1135 0.950 . S
H1130 C1136 0.949 . S
C1131 H1126 0.950 . S
C1131 C1133 1.327 . S
C1131 C1137 1.429 . S
C1132 C1124 1.574 . S
C1132 H1127 0.949 . S
C1132 C1138 1.368 . S
C1133 C1117 1.349 . S
C1133 H1125 0.950 . S
C1133 C1131 1.327 . S
C1134 C1122 1.349 . S
C1134 H1128 0.950 . S
C1134 C1135 1.327 . S
C1135 H1129 0.950 . S
C1135 C1134 1.327 . S
C1135 C1139 1.429 . S
C1136 C1119 1.574 . S
C1136 H1130 0.949 . S
C1136 C1140 1.368 . S
C1137 C1118 1.429 . S
C1137 C1131 1.429 . S
C1137 C1138 1.523 . S
C1138 C1119 1.368 . S
C1138 C1132 1.368 . S
C1138 C1137 1.523 . S
C1139 C1123 1.429 . S
C1139 C1135 1.429 . S
C1139 C1140 1.523 . S
C1140 C1124 1.368 . S
C1140 C1136 1.368 . S
C1140 C1139 1.523 . S
H1141 C1116 0.950 . S
H1142 C1118 0.950 . S
H1143 C1119 0.949 . S
H1144 C1121 0.950 . S
H1145 C1123 0.950 . S
C1146 C1147 1.349 . S
C1146 C1148 1.327 . S
C1146 H1171 0.950 . S
C1147 C1146 1.349 . S
C1147 C1163 1.349 . S
C1148 C1146 1.327 . S
C1148 C1167 1.429 . S
C1148 H1172 0.950 . S
C1149 C1166 1.574 . S
C1149 C1168 1.368 . S
C1149 H1173 0.949 . S
H1150 C1154 0.949 . S
C1151 C1152 1.349 . S
C1151 C1153 1.327 . S
C1151 H1174 0.950 . S
C1152 C1151 1.349 . S
C1152 C1164 1.349 . S
C1153 C1151 1.327 . S
C1153 C1169 1.429 . S
C1153 H1175 0.950 . S
C1154 H1150 0.949 . S
C1154 C1162 1.574 . S
C1154 C1170 1.368 . S
H1155 C1163 0.950 . S
H1156 C1161 0.950 . S
H1157 C1162 0.949 . S
H1158 C1164 0.950 . S
H1159 C1165 0.950 . S
H1160 C1166 0.949 . S
C1161 H1156 0.950 . S
C1161 C1163 1.327 . S
C1161 C1167 1.429 . S
C1162 C1154 1.574 . S
C1162 H1157 0.949 . S
C1162 C1168 1.368 . S
C1163 C1147 1.349 . S
C1163 H1155 0.950 . S
C1163 C1161 1.327 . S
C1164 C1152 1.349 . S
C1164 H1158 0.950 . S
C1164 C1165 1.327 . S
C1165 H1159 0.950 . S
C1165 C1164 1.327 . S
C1165 C1169 1.429 . S
C1166 C1149 1.574 . S
C1166 H1160 0.949 . S
C1166 C1170 1.368 . S
C1167 C1148 1.429 . S
C1167 C1161 1.429 . S
C1167 C1168 1.523 . S
C1168 C1149 1.368 . S
C1168 C1162 1.368 . S
C1168 C1167 1.523 . S
C1169 C1153 1.429 . S
C1169 C1165 1.429 . S
C1169 C1170 1.523 . S
C1170 C1154 1.368 . S
C1170 C1166 1.368 . S
C1170 C1169 1.523 . S
H1171 C1146 0.950 . S
H1172 C1148 0.950 . S
H1173 C1149 0.949 . S
H1174 C1151 0.950 . S
H1175 C1153 0.950 . S
C1176 C1177 1.349 . S
C1176 C1178 1.327 . S
C1176 H1201 0.950 . S
C1177 C1176 1.349 . S
C1177 C1193 1.349 . S
C1178 C1176 1.327 . S
C1178 C1197 1.429 . S
C1178 H1202 0.950 . S
C1179 C1196 1.574 . S
C1179 C1198 1.368 . S
C1179 H1203 0.949 . S
H1180 C1184 0.949 . S
C1181 C1182 1.349 . S
C1181 C1183 1.327 . S
C1181 H1204 0.950 . S
C1182 C1181 1.349 . S
C1182 C1194 1.349 . S
C1183 C1181 1.327 . S
C1183 C1199 1.429 . S
C1183 H1205 0.950 . S
C1184 H1180 0.949 . S
C1184 C1192 1.574 . S
C1184 C1200 1.368 . S
H1185 C1193 0.950 . S
H1186 C1191 0.950 . S
H1187 C1192 0.949 . S
H1188 C1194 0.950 . S
H1189 C1195 0.950 . S
H1190 C1196 0.949 . S
C1191 H1186 0.950 . S
C1191 C1193 1.327 . S
C1191 C1197 1.429 . S
C1192 C1184 1.574 . S
C1192 H1187 0.949 . S
C1192 C1198 1.368 . S
C1193 C1177 1.349 . S
C1193 H1185 0.950 . S
C1193 C1191 1.327 . S
C1194 C1182 1.349 . S
C1194 H1188 0.950 . S
C1194 C1195 1.327 . S
C1195 H1189 0.950 . S
C1195 C1194 1.327 . S
C1195 C1199 1.429 . S
C1196 C1179 1.574 . S
C1196 H1190 0.949 . S
C1196 C1200 1.368 . S
C1197 C1178 1.429 . S
C1197 C1191 1.429 . S
C1197 C1198 1.523 . S
C1198 C1179 1.368 . S
C1198 C1192 1.368 . S
C1198 C1197 1.523 . S
C1199 C1183 1.429 . S
C1199 C1195 1.429 . S
C1199 C1200 1.523 . S
C1200 C1184 1.368 . S
C1200 C1196 1.368 . S
C1200 C1199 1.523 . S
H1201 C1176 0.950 . S
H1202 C1178 0.950 . S
H1203 C1179 0.949 . S
H1204 C1181 0.950 . S
H1205 C1183 0.950 . S
C1206 C1207 1.349 . S
C1206 C1208 1.327 . S
C1206 H1231 0.950 . S
C1207 C1206 1.349 . S
C1207 C1223 1.349 . S
C1208 C1206 1.327 . S
C1208 C1227 1.429 . S
C1208 H1232 0.950 . S
C1209 C1226 1.574 1_565 S
C1209 C1228 1.368 . S
C1209 H1233 0.949 . S
H1210 C1214 0.949 . S
C1211 C1212 1.349 . S
C1211 C1213 1.327 . S
C1211 H1234 0.950 . S
C1212 C1211 1.349 . S
C1212 C1224 1.349 . S
C1213 C1211 1.327 . S
C1213 C1229 1.429 . S
C1213 H1235 0.950 . S
C1214 H1210 0.949 . S
C1214 C1222 1.574 1_545 S
C1214 C1230 1.368 . S
H1215 C1223 0.950 . S
H1216 C1221 0.950 . S
H1217 C1222 0.949 . S
H1218 C1224 0.950 . S
H1219 C1225 0.950 . S
H1220 C1226 0.949 . S
C1221 H1216 0.950 . S
C1221 C1223 1.327 . S
C1221 C1227 1.429 . S
C1222 C1214 1.574 1_565 S
C1222 H1217 0.949 . S
C1222 C1228 1.368 . S
C1223 C1207 1.349 . S
C1223 H1215 0.950 . S
C1223 C1221 1.327 . S
C1224 C1212 1.349 . S
C1224 H1218 0.950 . S
C1224 C1225 1.327 . S
C1225 H1219 0.950 . S
C1225 C1224 1.327 . S
C1225 C1229 1.429 . S
C1226 C1209 1.574 1_545 S
C1226 H1220 0.949 . S
C1226 C1230 1.368 . S
C1227 C1208 1.429 . S
C1227 C1221 1.429 . S
C1227 C1228 1.523 . S
C1228 C1209 1.368 . S
C1228 C1222 1.368 . S
C1228 C1227 1.523 . S
C1229 C1213 1.429 . S
C1229 C1225 1.429 . S
C1229 C1230 1.523 . S
C1230 C1214 1.368 . S
C1230 C1226 1.368 . S
C1230 C1229 1.523 . S
H1231 C1206 0.950 . S
H1232 C1208 0.950 . S
H1233 C1209 0.949 . S
H1234 C1211 0.950 . S
H1235 C1213 0.950 . S
C1236 C1237 1.349 . S
C1236 C1238 1.327 . S
C1236 H1261 0.950 . S
C1237 C1236 1.349 . S
C1237 C1253 1.349 . S
C1238 C1236 1.327 . S
C1238 C1257 1.429 . S
C1238 H1262 0.950 . S
C1239 C1256 1.574 1_655 S
C1239 C1258 1.368 . S
C1239 H1263 0.949 . S
H1240 C1244 0.949 . S
C1241 C1242 1.349 . S
C1241 C1243 1.327 . S
C1241 H1264 0.950 . S
C1242 C1241 1.349 . S
C1242 C1254 1.349 . S
C1243 C1241 1.327 . S
C1243 C1259 1.429 . S
C1243 H1265 0.950 . S
C1244 H1240 0.949 . S
C1244 C1252 1.574 . S
C1244 C1260 1.368 . S
H1245 C1253 0.950 . S
H1246 C1251 0.950 . S
H1247 C1252 0.949 . S
H1248 C1254 0.950 . S
H1249 C1255 0.950 . S
H1250 C1256 0.949 . S
C1251 H1246 0.950 . S
C1251 C1253 1.327 . S
C1251 C1257 1.429 . S
C1252 C1244 1.574 . S
C1252 H1247 0.949 . S
C1252 C1258 1.368 1_455 S
C1253 C1237 1.349 . S
C1253 H1245 0.950 . S
C1253 C1251 1.327 . S
C1254 C1242 1.349 . S
C1254 H1248 0.950 . S
C1254 C1255 1.327 . S
C1255 H1249 0.950 . S
C1255 C1254 1.327 . S
C1255 C1259 1.429 . S
C1256 C1239 1.574 1_455 S
C1256 H1250 0.949 . S
C1256 C1260 1.368 . S
C1257 C1238 1.429 . S
C1257 C1251 1.429 . S
C1257 C1258 1.523 . S
C1258 C1239 1.368 . S
C1258 C1252 1.368 1_655 S
C1258 C1257 1.523 . S
C1259 C1243 1.429 . S
C1259 C1255 1.429 . S
C1259 C1260 1.523 . S
C1260 C1244 1.368 . S
C1260 C1256 1.368 . S
C1260 C1259 1.523 . S
H1261 C1236 0.950 . S
H1262 C1238 0.950 . S
H1263 C1239 0.949 . S
H1264 C1241 0.950 . S
H1265 C1243 0.950 . S
C1266 C1267 1.349 . S
C1266 C1268 1.327 . S
C1266 H1291 0.950 . S
C1267 C1266 1.349 . S
C1267 C1283 1.349 . S
C1268 C1266 1.327 . S
C1268 C1287 1.429 . S
C1268 H1292 0.950 . S
C1269 C1286 1.574 . S
C1269 C1288 1.368 . S
C1269 H1293 0.949 . S
H1270 C1274 0.949 . S
C1271 C1272 1.349 . S
C1271 C1273 1.327 . S
C1271 H1294 0.950 . S
C1272 C1271 1.349 . S
C1272 C1284 1.349 . S
C1273 C1271 1.327 . S
C1273 C1289 1.429 . S
C1273 H1295 0.950 . S
C1274 H1270 0.949 . S
C1274 C1282 1.574 . S
C1274 C1290 1.368 . S
H1275 C1283 0.950 . S
H1276 C1281 0.950 . S
H1277 C1282 0.949 . S
H1278 C1284 0.950 . S
H1279 C1285 0.950 . S
H1280 C1286 0.949 . S
C1281 H1276 0.950 . S
C1281 C1283 1.327 . S
C1281 C1287 1.429 . S
C1282 C1274 1.574 . S
C1282 H1277 0.949 . S
C1282 C1288 1.368 . S
C1283 C1267 1.349 . S
C1283 H1275 0.950 . S
C1283 C1281 1.327 . S
C1284 C1272 1.349 . S
C1284 H1278 0.950 . S
C1284 C1285 1.327 . S
C1285 H1279 0.950 . S
C1285 C1284 1.327 . S
C1285 C1289 1.429 . S
C1286 C1269 1.574 . S
C1286 H1280 0.949 . S
C1286 C1290 1.368 . S
C1287 C1268 1.429 . S
C1287 C1281 1.429 . S
C1287 C1288 1.523 . S
C1288 C1269 1.368 . S
C1288 C1282 1.368 . S
C1288 C1287 1.523 . S
C1289 C1273 1.429 . S
C1289 C1285 1.429 . S
C1289 C1290 1.523 . S
C1290 C1274 1.368 . S
C1290 C1286 1.368 . S
C1290 C1289 1.523 . S
H1291 C1266 0.950 . S
H1292 C1268 0.950 . S
H1293 C1269 0.949 . S
H1294 C1271 0.950 . S
H1295 C1273 0.950 . S
C1296 C1297 1.349 . S
C1296 C1298 1.327 . S
C1296 H1321 0.950 . S
C1297 C1296 1.349 . S
C1297 C1313 1.349 . S
C1298 C1296 1.327 . S
C1298 C1317 1.429 . S
C1298 H1322 0.950 . S
C1299 C1316 1.574 . S
C1299 C1318 1.368 . S
C1299 H1323 0.949 . S
H1300 C1304 0.949 . S
C1301 C1302 1.349 . S
C1301 C1303 1.327 . S
C1301 H1324 0.950 . S
C1302 C1301 1.349 . S
C1302 C1314 1.349 . S
C1303 C1301 1.327 . S
C1303 C1319 1.429 . S
C1303 H1325 0.950 . S
C1304 H1300 0.949 . S
C1304 C1312 1.574 . S
C1304 C1320 1.368 . S
H1305 C1313 0.950 . S
H1306 C1311 0.950 . S
H1307 C1312 0.949 . S
H1308 C1314 0.950 . S
H1309 C1315 0.950 . S
H1310 C1316 0.949 . S
C1311 H1306 0.950 . S
C1311 C1313 1.327 . S
C1311 C1317 1.429 . S
C1312 C1304 1.574 . S
C1312 H1307 0.949 . S
C1312 C1318 1.368 . S
C1313 C1297 1.349 . S
C1313 H1305 0.950 . S
C1313 C1311 1.327 . S
C1314 C1302 1.349 . S
C1314 H1308 0.950 . S
C1314 C1315 1.327 . S
C1315 H1309 0.950 . S
C1315 C1314 1.327 . S
C1315 C1319 1.429 . S
C1316 C1299 1.574 . S
C1316 H1310 0.949 . S
C1316 C1320 1.368 . S
C1317 C1298 1.429 . S
C1317 C1311 1.429 . S
C1317 C1318 1.523 . S
C1318 C1299 1.368 . S
C1318 C1312 1.368 . S
C1318 C1317 1.523 . S
C1319 C1303 1.429 . S
C1319 C1315 1.429 . S
C1319 C1320 1.523 . S
C1320 C1304 1.368 . S
C1320 C1316 1.368 . S
C1320 C1319 1.523 . S
H1321 C1296 0.950 . S
H1322 C1298 0.950 . S
H1323 C1299 0.949 . S
H1324 C1301 0.950 . S
H1325 C1303 0.950 . S
C1326 C1327 1.349 . S
C1326 C1328 1.327 . S
C1326 H1351 0.950 . S
C1327 C1326 1.349 . S
C1327 C1343 1.349 . S
C1328 C1326 1.327 . S
C1328 C1347 1.429 . S
C1328 H1352 0.950 . S
C1329 C1346 1.574 . S
C1329 C1348 1.368 . S
C1329 H1353 0.949 . S
H1330 C1334 0.949 . S
C1331 C1332 1.349 . S
C1331 C1333 1.327 . S
C1331 H1354 0.950 . S
C1332 C1331 1.349 . S
C1332 C1344 1.349 . S
C1333 C1331 1.327 . S
C1333 C1349 1.429 . S
C1333 H1355 0.950 . S
C1334 H1330 0.949 . S
C1334 C1342 1.574 . S
C1334 C1350 1.368 . S
H1335 C1343 0.950 . S
H1336 C1341 0.950 . S
H1337 C1342 0.949 . S
H1338 C1344 0.950 . S
H1339 C1345 0.950 . S
H1340 C1346 0.949 . S
C1341 H1336 0.950 . S
C1341 C1343 1.327 . S
C1341 C1347 1.429 . S
C1342 C1334 1.574 . S
C1342 H1337 0.949 . S
C1342 C1348 1.368 . S
C1343 C1327 1.349 . S
C1343 H1335 0.950 . S
C1343 C1341 1.327 . S
C1344 C1332 1.349 . S
C1344 H1338 0.950 . S
C1344 C1345 1.327 . S
C1345 H1339 0.950 . S
C1345 C1344 1.327 . S
C1345 C1349 1.429 . S
C1346 C1329 1.574 . S
C1346 H1340 0.949 . S
C1346 C1350 1.368 . S
C1347 C1328 1.429 . S
C1347 C1341 1.429 . S
C1347 C1348 1.523 . S
C1348 C1329 1.368 . S
C1348 C1342 1.368 . S
C1348 C1347 1.523 . S
C1349 C1333 1.429 . S
C1349 C1345 1.429 . S
C1349 C1350 1.523 . S
C1350 C1334 1.368 . S
C1350 C1346 1.368 . S
C1350 C1349 1.523 . S
H1351 C1326 0.950 . S
H1352 C1328 0.950 . S
H1353 C1329 0.949 . S
H1354 C1331 0.950 . S
H1355 C1333 0.950 . S
C1356 C1357 1.349 . S
C1356 C1358 1.327 . S
C1356 H1381 0.950 1_565 S
C1357 C1356 1.349 . S
C1357 C1373 1.349 . S
C1358 C1356 1.327 . S
C1358 C1377 1.429 . S
C1358 H1382 0.950 . S
C1359 C1376 1.574 . S
C1359 C1378 1.368 . S
C1359 H1383 0.949 . S
H1360 C1364 0.949 . S
C1361 C1362 1.349 . S
C1361 C1363 1.327 . S
C1361 H1384 0.950 . S
C1362 C1361 1.349 . S
C1362 C1374 1.349 . S
C1363 C1361 1.327 . S
C1363 C1379 1.429 . S
C1363 H1385 0.950 . S
C1364 H1360 0.949 . S
C1364 C1372 1.574 . S
C1364 C1380 1.368 . S
H1365 C1373 0.950 . S
H1366 C1371 0.950 . S
H1367 C1372 0.949 . S
H1368 C1374 0.950 . S
H1369 C1375 0.950 . S
H1370 C1376 0.949 . S
C1371 H1366 0.950 . S
C1371 C1373 1.327 . S
C1371 C1377 1.429 . S
C1372 C1364 1.574 . S
C1372 H1367 0.949 . S
C1372 C1378 1.368 . S
C1373 C1357 1.349 . S
C1373 H1365 0.950 . S
C1373 C1371 1.327 . S
C1374 C1362 1.349 . S
C1374 H1368 0.950 . S
C1374 C1375 1.327 . S
C1375 H1369 0.950 . S
C1375 C1374 1.327 . S
C1375 C1379 1.429 . S
C1376 C1359 1.574 . S
C1376 H1370 0.949 . S
C1376 C1380 1.368 . S
C1377 C1358 1.429 . S
C1377 C1371 1.429 . S
C1377 C1378 1.523 . S
C1378 C1359 1.368 . S
C1378 C1372 1.368 . S
C1378 C1377 1.523 . S
C1379 C1363 1.429 . S
C1379 C1375 1.429 . S
C1379 C1380 1.523 . S
C1380 C1364 1.368 . S
C1380 C1376 1.368 . S
C1380 C1379 1.523 . S
H1381 C1356 0.950 1_545 S
H1382 C1358 0.950 . S
H1383 C1359 0.949 . S
H1384 C1361 0.950 . S
H1385 C1363 0.950 . S
C1386 C1387 1.349 . S
C1386 C1388 1.327 . S
C1386 H1411 0.950 . S
C1387 C1386 1.349 . S
C1387 C1403 1.349 . S
C1388 C1386 1.327 . S
C1388 C1407 1.429 . S
C1388 H1412 0.950 . S
C1389 C1406 1.574 . S
C1389 C1408 1.368 . S
C1389 H1413 0.949 . S
H1390 C1394 0.949 . S
C1391 C1392 1.349 . S
C1391 C1393 1.327 . S
C1391 H1414 0.950 . S
C1392 C1391 1.349 . S
C1392 C1404 1.349 . S
C1393 C1391 1.327 . S
C1393 C1409 1.429 . S
C1393 H1415 0.950 . S
C1394 H1390 0.949 . S
C1394 C1402 1.574 . S
C1394 C1410 1.368 . S
H1395 C1403 0.950 . S
H1396 C1401 0.950 . S
H1397 C1402 0.949 . S
H1398 C1404 0.950 . S
H1399 C1405 0.950 . S
H1400 C1406 0.949 . S
C1401 H1396 0.950 . S
C1401 C1403 1.327 . S
C1401 C1407 1.429 . S
C1402 C1394 1.574 . S
C1402 H1397 0.949 . S
C1402 C1408 1.368 . S
C1403 C1387 1.349 . S
C1403 H1395 0.950 . S
C1403 C1401 1.327 . S
C1404 C1392 1.349 . S
C1404 H1398 0.950 . S
C1404 C1405 1.327 . S
C1405 H1399 0.950 . S
C1405 C1404 1.327 . S
C1405 C1409 1.429 . S
C1406 C1389 1.574 . S
C1406 H1400 0.949 . S
C1406 C1410 1.368 . S
C1407 C1388 1.429 . S
C1407 C1401 1.429 . S
C1407 C1408 1.523 . S
C1408 C1389 1.368 . S
C1408 C1402 1.368 . S
C1408 C1407 1.523 . S
C1409 C1393 1.429 . S
C1409 C1405 1.429 . S
C1409 C1410 1.523 . S
C1410 C1394 1.368 . S
C1410 C1406 1.368 . S
C1410 C1409 1.523 . S
H1411 C1386 0.950 . S
H1412 C1388 0.950 . S
H1413 C1389 0.949 . S
H1414 C1391 0.950 . S
H1415 C1393 0.950 . S
C1416 C1417 1.349 . S
C1416 C1418 1.327 . S
C1416 H1441 0.950 . S
C1417 C1416 1.349 . S
C1417 C1433 1.349 . S
C1418 C1416 1.327 . S
C1418 C1437 1.429 . S
C1418 H1442 0.950 . S
C1419 C1436 1.574 . S
C1419 C1438 1.368 . S
C1419 H1443 0.949 . S
H1420 C1424 0.949 . S
C1421 C1422 1.349 . S
C1421 C1423 1.327 . S
C1421 H1444 0.950 . S
C1422 C1421 1.349 . S
C1422 C1434 1.349 . S
C1423 C1421 1.327 . S
C1423 C1439 1.429 . S
C1423 H1445 0.950 . S
C1424 H1420 0.949 . S
C1424 C1432 1.574 . S
C1424 C1440 1.368 . S
H1425 C1433 0.950 . S
H1426 C1431 0.950 . S
H1427 C1432 0.949 . S
H1428 C1434 0.950 . S
H1429 C1435 0.950 . S
H1430 C1436 0.949 . S
C1431 H1426 0.950 . S
C1431 C1433 1.327 . S
C1431 C1437 1.429 . S
C1432 C1424 1.574 . S
C1432 H1427 0.949 . S
C1432 C1438 1.368 . S
C1433 C1417 1.349 . S
C1433 H1425 0.950 . S
C1433 C1431 1.327 . S
C1434 C1422 1.349 . S
C1434 H1428 0.950 . S
C1434 C1435 1.327 . S
C1435 H1429 0.950 . S
C1435 C1434 1.327 . S
C1435 C1439 1.429 . S
C1436 C1419 1.574 . S
C1436 H1430 0.949 . S
C1436 C1440 1.368 . S
C1437 C1418 1.429 . S
C1437 C1431 1.429 . S
C1437 C1438 1.523 . S
C1438 C1419 1.368 . S
C1438 C1432 1.368 . S
C1438 C1437 1.523 . S
C1439 C1423 1.429 . S
C1439 C1435 1.429 . S
C1439 C1440 1.523 . S
C1440 C1424 1.368 . S
C1440 C1436 1.368 . S
C1440 C1439 1.523 . S
H1441 C1416 0.950 . S
H1442 C1418 0.950 . S
H1443 C1419 0.949 . S
H1444 C1421 0.950 . S
H1445 C1423 0.950 . S
C1446 C1447 1.349 . S
C1446 C1448 1.327 . S
C1446 H1471 0.950 . S
C1447 C1446 1.349 . S
C1447 C1463 1.349 . S
C1448 C1446 1.327 . S
C1448 C1467 1.429 . S
C1448 H1472 0.950 . S
C1449 C1466 1.574 . S
C1449 C1468 1.368 . S
C1449 H1473 0.949 . S
H1450 C1454 0.949 . S
C1451 C1452 1.349 . S
C1451 C1453 1.327 . S
C1451 H1474 0.950 . S
C1452 C1451 1.349 . S
C1452 C1464 1.349 . S
C1453 C1451 1.327 . S
C1453 C1469 1.429 . S
C1453 H1475 0.950 . S
C1454 H1450 0.949 . S
C1454 C1462 1.574 . S
C1454 C1470 1.368 . S
H1455 C1463 0.950 . S
H1456 C1461 0.950 . S
H1457 C1462 0.949 . S
H1458 C1464 0.950 . S
H1459 C1465 0.950 . S
H1460 C1466 0.949 . S
C1461 H1456 0.950 . S
C1461 C1463 1.327 . S
C1461 C1467 1.429 . S
C1462 C1454 1.574 . S
C1462 H1457 0.949 . S
C1462 C1468 1.368 . S
C1463 C1447 1.349 . S
C1463 H1455 0.950 . S
C1463 C1461 1.327 . S
C1464 C1452 1.349 . S
C1464 H1458 0.950 . S
C1464 C1465 1.327 . S
C1465 H1459 0.950 . S
C1465 C1464 1.327 . S
C1465 C1469 1.429 . S
C1466 C1449 1.574 . S
C1466 H1460 0.949 . S
C1466 C1470 1.368 . S
C1467 C1448 1.429 . S
C1467 C1461 1.429 . S
C1467 C1468 1.523 . S
C1468 C1449 1.368 . S
C1468 C1462 1.368 . S
C1468 C1467 1.523 . S
C1469 C1453 1.429 . S
C1469 C1465 1.429 . S
C1469 C1470 1.523 . S
C1470 C1454 1.368 . S
C1470 C1466 1.368 . S
C1470 C1469 1.523 . S
H1471 C1446 0.950 . S
H1472 C1448 0.950 . S
H1473 C1449 0.949 . S
H1474 C1451 0.950 . S
H1475 C1453 0.950 . S
C1476 C1477 1.349 . S
C1476 C1478 1.327 . S
C1476 H1501 0.950 . S
C1477 C1476 1.349 . S
C1477 C1493 1.349 . S
C1478 C1476 1.327 . S
C1478 C1497 1.429 . S
C1478 H1502 0.950 . S
C1479 C1496 1.574 . S
C1479 C1498 1.368 . S
C1479 H1503 0.949 . S
H1480 C1484 0.949 . S
C1481 C1482 1.349 . S
C1481 C1483 1.327 . S
C1481 H1504 0.950 . S
C1482 C1481 1.349 . S
C1482 C1494 1.349 . S
C1483 C1481 1.327 . S
C1483 C1499 1.429 . S
C1483 H1505 0.950 . S
C1484 H1480 0.949 . S
C1484 C1492 1.574 . S
C1484 C1500 1.368 . S
H1485 C1493 0.950 . S
H1486 C1491 0.950 . S
H1487 C1492 0.949 . S
H1488 C1494 0.950 . S
H1489 C1495 0.950 . S
H1490 C1496 0.949 . S
C1491 H1486 0.950 . S
C1491 C1493 1.327 . S
C1491 C1497 1.429 . S
C1492 C1484 1.574 . S
C1492 H1487 0.949 . S
C1492 C1498 1.368 . S
C1493 C1477 1.349 . S
C1493 H1485 0.950 . S
C1493 C1491 1.327 . S
C1494 C1482 1.349 . S
C1494 H1488 0.950 . S
C1494 C1495 1.327 . S
C1495 H1489 0.950 . S
C1495 C1494 1.327 . S
C1495 C1499 1.429 . S
C1496 C1479 1.574 . S
C1496 H1490 0.949 . S
C1496 C1500 1.368 . S
C1497 C1478 1.429 . S
C1497 C1491 1.429 . S
C1497 C1498 1.523 . S
C1498 C1479 1.368 . S
C1498 C1492 1.368 . S
C1498 C1497 1.523 . S
C1499 C1483 1.429 . S
C1499 C1495 1.429 . S
C1499 C1500 1.523 . S
C1500 C1484 1.368 . S
C1500 C1496 1.368 . S
C1500 C1499 1.523 . S
H1501 C1476 0.950 . S
H1502 C1478 0.950 . S
H1503 C1479 0.949 . S
H1504 C1481 0.950 . S
H1505 C1483 0.950 . S
C1506 C1507 1.349 . S
C1506 C1508 1.327 . S
C1506 H1531 0.950 . S
C1507 C1506 1.349 . S
C1507 C1523 1.349 . S
C1508 C1506 1.327 . S
C1508 C1527 1.429 . S
C1508 H1532 0.950 . S
C1509 C1526 1.574 . S
C1509 C1528 1.368 1_545 S
C1509 H1533 0.949 . S
H1510 C1514 0.949 . S
C1511 C1512 1.349 . S
C1511 C1513 1.327 . S
C1511 H1534 0.950 . S
C1512 C1511 1.349 . S
C1512 C1524 1.349 . S
C1513 C1511 1.327 . S
C1513 C1529 1.429 . S
C1513 H1535 0.950 . S
C1514 H1510 0.949 . S
C1514 C1522 1.574 . S
C1514 C1530 1.368 1_565 S
H1515 C1523 0.950 . S
H1516 C1521 0.950 . S
H1517 C1522 0.949 . S
H1518 C1524 0.950 . S
H1519 C1525 0.950 . S
H1520 C1526 0.949 . S
C1521 H1516 0.950 . S
C1521 C1523 1.327 . S
C1521 C1527 1.429 . S
C1522 C1514 1.574 . S
C1522 H1517 0.949 . S
C1522 C1528 1.368 . S
C1523 C1507 1.349 . S
C1523 H1515 0.950 . S
C1523 C1521 1.327 . S
C1524 C1512 1.349 . S
C1524 H1518 0.950 . S
C1524 C1525 1.327 . S
C1525 H1519 0.950 . S
C1525 C1524 1.327 . S
C1525 C1529 1.429 . S
C1526 C1509 1.574 . S
C1526 H1520 0.949 . S
C1526 C1530 1.368 . S
C1527 C1508 1.429 . S
C1527 C1521 1.429 . S
C1527 C1528 1.523 . S
C1528 C1509 1.368 1_565 S
C1528 C1522 1.368 . S
C1528 C1527 1.523 . S
C1529 C1513 1.429 . S
C1529 C1525 1.429 . S
C1529 C1530 1.523 . S
C1530 C1514 1.368 1_545 S
C1530 C1526 1.368 . S
C1530 C1529 1.523 . S
H1531 C1506 0.950 . S
H1532 C1508 0.950 . S
H1533 C1509 0.949 . S
H1534 C1511 0.950 . S
H1535 C1513 0.950 . S
C1536 C1537 1.349 . S
C1536 C1538 1.327 . S
C1536 H1561 0.950 . S
C1537 C1536 1.349 . S
C1537 C1553 1.349 . S
C1538 C1536 1.327 . S
C1538 C1557 1.429 . S
C1538 H1562 0.950 . S
C1539 C1556 1.574 . S
C1539 C1558 1.368 1_455 S
C1539 H1563 0.949 . S
H1540 C1544 0.949 1_655 S
C1541 C1542 1.349 . S
C1541 C1543 1.327 . S
C1541 H1564 0.950 . S
C1542 C1541 1.349 . S
C1542 C1554 1.349 . S
C1543 C1541 1.327 . S
C1543 C1559 1.429 . S
C1543 H1565 0.950 . S
C1544 H1540 0.949 1_455 S
C1544 C1552 1.574 1_455 S
C1544 C1560 1.368 . S
H1545 C1553 0.950 . S
H1546 C1551 0.937 1_455 S
H1547 C1552 0.949 . S
H1548 C1554 0.950 . S
H1549 C1555 0.950 . S
H1550 C1556 0.949 . S
C1551 H1546 0.937 1_655 S
C1551 C1553 1.327 . S
C1551 C1557 1.429 . S
C1552 C1544 1.574 1_655 S
C1552 H1547 0.949 . S
C1552 C1558 1.368 . S
C1553 C1537 1.349 . S
C1553 H1545 0.950 . S
C1553 C1551 1.327 . S
C1554 C1542 1.349 . S
C1554 H1548 0.950 . S
C1554 C1555 1.327 . S
C1555 H1549 0.950 . S
C1555 C1554 1.327 . S
C1555 C1559 1.429 . S
C1556 C1539 1.574 . S
C1556 H1550 0.949 . S
C1556 C1560 1.368 . S
C1557 C1538 1.429 . S
C1557 C1551 1.429 . S
C1557 C1558 1.523 . S
C1558 C1539 1.368 1_655 S
C1558 C1552 1.368 . S
C1558 C1557 1.523 . S
C1559 C1543 1.429 . S
C1559 C1555 1.429 . S
C1559 C1560 1.523 . S
C1560 C1544 1.368 . S
C1560 C1556 1.368 . S
C1560 C1559 1.523 . S
H1561 C1536 0.950 . S
H1562 C1538 0.950 . S
H1563 C1539 0.949 . S
H1564 C1541 0.950 . S
H1565 C1543 0.950 . S
C757 C142 1.160 . S
C762 C56 1.310 1_554 S
C787 C226 1.160 . S
C792 C140 1.310 1_554 S
C817 C224 1.310 1_554 S
C822 C58 1.160 . S
C847 C238 1.140 . S
C852 C151 1.261 . S
C877 C235 1.260 . S
C882 C70 1.140 . S
C907 C67 1.260 . S
C912 C154 1.140 . S
C937 C308 1.316 . S
C942 C394 1.160 . S
C967 C478 1.160 . S
C972 C392 1.316 . S
C997 C476 1.316 . S
C1002 C310 1.152 1_545 S
C1027 C403 1.261 . S
C1032 C490 1.123 . S
C1057 C487 1.260 . S
C1062 C322 1.123 . S
C1087 C406 1.123 . S
C1092 C319 1.260 . S
C1117 C646 1.160 . S
C1122 C560 1.316 . S
C1147 C644 1.316 . S
C1152 C730 1.160 . S
C1177 C728 1.316 . S
C1182 C562 1.160 . S
C1207 C742 1.123 . S
C1212 C655 1.261 . S
C1237 C739 1.260 . S
C1242 C574 1.123 . S
C1267 C571 1.260 . S
C1272 C658 1.123 . S
C1297 C494 2.623 . S
C1302 C63 2.684 . S
C1327 C326 2.623 . S
C1332 C147 2.684 . S
C1357 C231 2.684 . S
C1362 C410 2.622 . S
C1387 C242 2.623 . S
C1392 C567 2.684 . S
C1417 C74 2.623 . S
C1422 C651 2.684 . S
C1447 C735 2.684 . S
C1452 C158 2.622 . S
C1477 C315 2.684 . S
C1482 C746 2.623 . S
C1507 C399 2.684 . S
C1512 C578 2.623 . S
C1537 C662 2.622 . S
C1542 C483 2.684 . S
