# Generated by pormake.
# Topology mon, (4)-cn, num edge types: 1
# Building blocks:
#     Node 0, Type 0, BuildingBlock: QUQFOY_clean_sbu_3, # of connection points: 4
#     Node 1, Type 0, BuildingBlock: QUQFOY_clean_sbu_3, # of connection points: 4
#     Node 2, Type 0, BuildingBlock: QUQFOY_clean_sbu_3, # of connection points: 4
#     Node 3, Type 0, BuildingBlock: QUQFOY_clean_sbu_3, # of connection points: 4
#     Node 4, Type 0, BuildingBlock: QUQFOY_clean_sbu_3, # of connection points: 4
#     Node 5, Type 0, BuildingBlock: QUQFOY_clean_sbu_3, # of connection points: 4
#     Node 6, Type 0, BuildingBlock: QUQFOY_clean_sbu_3, # of connection points: 4
#     Node 7, Type 0, BuildingBlock: QUQFOY_clean_sbu_3, # of connection points: 4
#     Node 8, Type 0, BuildingBlock: QUQFOY_clean_sbu_3, # of connection points: 4
#     Node 9, Type 0, BuildingBlock: QUQFOY_clean_sbu_3, # of connection points: 4
#     Node 10, Type 0, BuildingBlock: QUQFOY_clean_sbu_3, # of connection points: 4
#     Node 11, Type 0, BuildingBlock: QUQFOY_clean_sbu_3, # of connection points: 4
#     Node 12, Type 0, BuildingBlock: QUQFOY_clean_sbu_3, # of connection points: 4
#     Node 13, Type 0, BuildingBlock: QUQFOY_clean_sbu_3, # of connection points: 4
#     Node 14, Type 0, BuildingBlock: QUQFOY_clean_sbu_3, # of connection points: 4
#     Node 15, Type 0, BuildingBlock: QUQFOY_clean_sbu_3, # of connection points: 4
#     Edge 16, Type (0, 0), BuildingBlock: AJUNOK_clean_linker_0, # of connection points: 2
#     Edge 17, Type (0, 0), BuildingBlock: AJUNOK_clean_linker_0, # of connection points: 2
#     Edge 18, Type (0, 0), BuildingBlock: AJUNOK_clean_linker_0, # of connection points: 2
#     Edge 19, Type (0, 0), BuildingBlock: AJUNOK_clean_linker_0, # of connection points: 2
#     Edge 20, Type (0, 0), BuildingBlock: AJUNOK_clean_linker_0, # of connection points: 2
#     Edge 21, Type (0, 0), BuildingBlock: AJUNOK_clean_linker_0, # of connection points: 2
#     Edge 22, Type (0, 0), BuildingBlock: AJUNOK_clean_linker_0, # of connection points: 2
#     Edge 23, Type (0, 0), BuildingBlock: AJUNOK_clean_linker_0, # of connection points: 2
#     Edge 24, Type (0, 0), BuildingBlock: AJUNOK_clean_linker_0, # of connection points: 2
#     Edge 25, Type (0, 0), BuildingBlock: AJUNOK_clean_linker_0, # of connection points: 2
#     Edge 26, Type (0, 0), BuildingBlock: AJUNOK_clean_linker_0, # of connection points: 2
#     Edge 27, Type (0, 0), BuildingBlock: AJUNOK_clean_linker_0, # of connection points: 2
#     Edge 28, Type (0, 0), BuildingBlock: AJUNOK_clean_linker_0, # of connection points: 2
#     Edge 29, Type (0, 0), BuildingBlock: AJUNOK_clean_linker_0, # of connection points: 2
#     Edge 30, Type (0, 0), BuildingBlock: AJUNOK_clean_linker_0, # of connection points: 2
#     Edge 31, Type (0, 0), BuildingBlock: AJUNOK_clean_linker_0, # of connection points: 2
#     Edge 32, Type (0, 0), BuildingBlock: AJUNOK_clean_linker_0, # of connection points: 2
#     Edge 33, Type (0, 0), BuildingBlock: AJUNOK_clean_linker_0, # of connection points: 2
#     Edge 34, Type (0, 0), BuildingBlock: AJUNOK_clean_linker_0, # of connection points: 2
#     Edge 35, Type (0, 0), BuildingBlock: AJUNOK_clean_linker_0, # of connection points: 2
#     Edge 36, Type (0, 0), BuildingBlock: AJUNOK_clean_linker_0, # of connection points: 2
#     Edge 37, Type (0, 0), BuildingBlock: AJUNOK_clean_linker_0, # of connection points: 2
#     Edge 38, Type (0, 0), BuildingBlock: AJUNOK_clean_linker_0, # of connection points: 2
#     Edge 39, Type (0, 0), BuildingBlock: AJUNOK_clean_linker_0, # of connection points: 2
#     Edge 40, Type (0, 0), BuildingBlock: AJUNOK_clean_linker_0, # of connection points: 2
#     Edge 41, Type (0, 0), BuildingBlock: AJUNOK_clean_linker_0, # of connection points: 2
#     Edge 42, Type (0, 0), BuildingBlock: AJUNOK_clean_linker_0, # of connection points: 2
#     Edge 43, Type (0, 0), BuildingBlock: AJUNOK_clean_linker_0, # of connection points: 2
#     Edge 44, Type (0, 0), BuildingBlock: AJUNOK_clean_linker_0, # of connection points: 2
#     Edge 45, Type (0, 0), BuildingBlock: AJUNOK_clean_linker_0, # of connection points: 2
#     Edge 46, Type (0, 0), BuildingBlock: AJUNOK_clean_linker_0, # of connection points: 2
#     Edge 47, Type (0, 0), BuildingBlock: AJUNOK_clean_linker_0, # of connection points: 2
# Relax obj value: 0.180
# Max RMSD: 0.174
# Mean RMSD: 0.174
data_MOF--net-mon--node1-QUQFOY_clean_sbu_3--edge1-AJUNOK_clean_linker_0
_symmetry_space_group_name_H-M    P1
_symmetry_Int_Tables_number       1
_symmetry_cell_setting            triclinic
loop_
_symmetry_equiv_pos_as_xyz
'x, y, z'
_cell_length_a     26.046292
_cell_length_b     26.198883
_cell_length_c     64.349014
_cell_angle_alpha  89.789618
_cell_angle_beta   89.887217
_cell_angle_gamma 89.877597
loop_
_atom_site_label
_atom_site_type_symbol
_atom_site_fract_x
_atom_site_fract_y
_atom_site_fract_z
_atom_type_partial_charge
C0 C 0.09835 0.95647 0.56277 0.0
O1 O 0.0854 0.93348 0.54628 0.0
Cd2 Cd -0.00086 0.93817 0.53416 0.0
O3 O 0.06667 0.98604 0.57186 0.0
Cd4 Cd 0.98075 0.02356 0.56868 0.0
C5 C 0.93791 0.90792 0.58054 0.0
O6 O 0.97766 0.02648 0.53204 0.0
O7 O 0.90303 0.02714 0.54637 0.0
O8 O 0.02023 0.10417 0.5759 0.0
C9 C 0.92963 0.03058 0.52991 0.0
O10 O 0.94904 0.89575 0.56188 0.0
C11 C 0.98619 0.1191 0.58865 0.0
O12 O 0.94855 0.95185 0.58763 0.0
O13 O 0.9496 0.08851 0.59257 0.0
C14 C 0.28507 0.8748 0.81657 0.0
O15 O 0.31482 0.86793 0.80117 0.0
Cd16 Cd 0.31389 0.79101 0.78181 0.0
O17 O 0.25129 0.84158 0.82123 0.0
Cd18 Cd 0.21404 0.76086 0.80899 0.0
C19 C 0.32415 0.70535 0.82295 0.0
O20 O 0.22578 0.78197 0.7737 0.0
O21 O 0.21137 0.7021 0.77849 0.0
O22 O 0.13419 0.80344 0.81649 0.0
C23 C 0.21805 0.73868 0.76583 0.0
O24 O 0.34346 0.72555 0.80666 0.0
C25 C 0.11164 0.76445 0.8238 0.0
O26 O 0.27799 0.71424 0.82833 0.0
O27 O 0.13732 0.72317 0.82459 0.0
C28 C 0.37628 -0.00725 0.08254 0.0
O29 O 0.37468 0.02142 0.0666 0.0
Cd30 Cd 0.44267 0.028 0.04243 0.0
O31 O 0.41242 0.96025 0.08492 0.0
Cd32 Cd 0.48619 0.92312 0.0653 0.0
C33 C 0.54432 0.03219 0.078 0.0
O34 O 0.4542 0.94301 0.03204 0.0
O35 O 0.53496 0.92724 0.03205 0.0
O36 O 0.44847 0.84045 0.07146 0.0
C37 C 0.49533 0.93948 0.02176 0.0
O38 O 0.51437 0.05375 0.06496 0.0
C39 C 0.48993 0.81864 0.07685 0.0
O40 O 0.54187 0.98445 0.08163 0.0
O41 O 0.53022 0.84595 0.07718 0.0
C42 C 0.23295 0.12561 0.35328 0.0
O43 O 0.20596 0.12166 0.33696 0.0
Cd44 Cd 0.19699 0.18863 0.31262 0.0
O45 O 0.26274 0.16364 0.35581 0.0
Cd46 Cd 0.29561 0.23769 0.33544 0.0
C47 C 0.18262 0.29026 0.34708 0.0
O48 O 0.28244 0.20251 0.30197 0.0
O49 O 0.292 0.28383 0.30151 0.0
O50 O 0.37983 0.20475 0.34307 0.0
C51 C 0.28582 0.24295 0.29134 0.0
O52 O 0.16358 0.25885 0.33413 0.0
C53 C 0.39945 0.24741 0.34782 0.0
O54 O 0.23048 0.29068 0.35096 0.0
O55 O 0.36991 0.28609 0.3474 0.0
C56 C 0.11269 0.02942 0.41323 0.0
O57 O 0.0986 0.05823 0.428 0.0
Cd58 Cd 0.01249 0.05911 0.44069 0.0
O59 O 0.08197 -0.00377 0.40593 0.0
Cd60 Cd -0.00378 0.95862 0.41111 0.0
C61 C 0.95047 0.06966 0.393 0.0
O62 O -0.00963 0.97309 0.44728 0.0
O63 O 0.91763 0.95586 0.43306 0.0
O64 O 0.03856 0.87688 0.40988 0.0
C65 C 0.94267 0.96583 0.4494 0.0
O66 O 0.96207 0.08839 0.41066 0.0
C67 C 0.00692 0.85671 0.3974 0.0
O68 O 0.9613 0.02362 0.38843 0.0
O69 O 0.9702 0.88459 0.39094 0.0
C70 C 0.21529 0.84741 0.62007 0.0
O71 O 0.18708 0.84779 0.63619 0.0
Cd72 Cd 0.182 0.78055 0.66082 0.0
O73 O 0.24732 0.81148 0.61688 0.0
Cd74 Cd 0.28197 0.73581 0.63501 0.0
C75 C 0.16881 0.68164 0.62526 0.0
O76 O 0.26883 0.7682 0.66859 0.0
O77 O 0.28342 0.68764 0.6687 0.0
O78 O 0.36264 0.77386 0.62639 0.0
C79 C 0.27437 0.72778 0.67904 0.0
O80 O 0.15089 0.70817 0.6402 0.0
C81 C 0.38485 0.73256 0.62139 0.0
O82 O 0.21509 0.68606 0.61914 0.0
O83 O 0.35824 0.69191 0.62212 0.0
C84 C 0.37562 0.98459 0.88136 0.0
O85 O 0.37351 0.95602 0.89732 0.0
Cd86 Cd 0.44133 0.94827 0.92151 0.0
O87 O 0.41255 0.01586 0.87876 0.0
Cd88 Cd 0.4874 0.05112 0.89747 0.0
C89 C 0.54319 0.9391 0.88632 0.0
O90 O 0.45481 0.03398 0.93081 0.0
O91 O 0.53524 0.0512 0.93091 0.0
O92 O 0.45226 0.13371 0.8893 0.0
C93 C 0.49559 0.03864 0.94116 0.0
O94 O 0.51275 0.91823 0.89938 0.0
C95 C 0.49408 0.15252 0.88267 0.0
O96 O 0.54131 0.98671 0.88244 0.0
O97 O 0.53349 0.12382 0.88304 0.0
C98 C 0.28684 0.10179 0.14874 0.0
O99 O 0.31979 0.11046 0.16281 0.0
Cd100 Cd 0.31926 0.18447 0.18398 0.0
O101 O 0.2489 0.13193 0.14607 0.0
Cd102 Cd 0.2103 0.20938 0.16172 0.0
C103 C 0.31339 0.27379 0.14424 0.0
O104 O 0.23359 0.18633 0.19606 0.0
O105 O 0.21112 0.26484 0.19327 0.0
O106 O 0.12862 0.16629 0.15752 0.0
C107 C 0.22473 0.22821 0.20497 0.0
O108 O 0.33802 0.25415 0.1594 0.0
C109 C 0.10437 0.20531 0.15108 0.0
O110 O 0.26698 0.26169 0.14061 0.0
O111 O 0.12982 0.24644 0.14927 0.0
C112 C 0.71398 0.32249 0.13873 0.0
O113 O 0.67996 0.32077 0.15286 0.0
Cd114 Cd 0.66199 0.24641 0.17195 0.0
O115 O 0.74596 0.28592 0.13643 0.0
Cd116 Cd 0.77411 0.20571 0.15435 0.0
C117 C 0.6687 0.15605 0.13241 0.0
O118 O 0.74194 0.23007 0.18723 0.0
O119 O 0.76481 0.15122 0.18624 0.0
O120 O 0.85876 0.24354 0.1539 0.0
C121 C 0.7459 0.18786 0.19657 0.0
O122 O 0.6434 0.18403 0.14495 0.0
C123 C 0.88211 0.20376 0.14777 0.0
O124 O 0.7176 0.15589 0.13228 0.0
O125 O 0.85478 0.16456 0.14428 0.0
C126 C 0.76571 0.62553 0.65412 0.0
O127 O 0.79216 0.63699 0.66996 0.0
Cd128 Cd 0.79059 0.72262 0.68259 0.0
O129 O 0.7353 0.65821 0.64617 0.0
Cd130 Cd 0.69998 0.74378 0.65062 0.0
C131 C 0.81535 0.78405 0.63594 0.0
O132 O 0.70234 0.74471 0.68733 0.0
O133 O 0.69961 0.81976 0.67354 0.0
O134 O 0.61859 0.7037 0.64486 0.0
C135 C 0.69829 0.79236 0.68981 0.0
O136 O 0.83031 0.77276 0.65426 0.0
C137 C 0.60192 0.73705 0.63221 0.0
O138 O 0.76978 0.77481 0.63006 0.0
O139 O 0.63139 0.77433 0.62802 0.0
C140 C 0.79032 0.35867 0.32091 0.0
O141 O 0.81678 0.34503 0.30531 0.0
Cd142 Cd 0.80698 0.26124 0.29153 0.0
O143 O 0.75694 0.32857 0.32861 0.0
Cd144 Cd 0.71719 0.24486 0.32317 0.0
C145 C 0.8285 0.19083 0.33599 0.0
O146 O 0.71664 0.25074 0.28656 0.0
O147 O 0.70947 0.17353 0.29789 0.0
O148 O 0.63754 0.28828 0.33065 0.0
C149 C 0.70709 0.2045 0.28275 0.0
O150 O 0.84379 0.20311 0.31782 0.0
C151 C 0.61863 0.25287 0.34172 0.0
O152 O 0.78456 0.20451 0.34257 0.0
O153 O 0.64644 0.21359 0.34465 0.0
C154 C 0.72465 0.65473 0.82359 0.0
O155 O 0.69297 0.65842 0.80869 0.0
Cd156 Cd 0.67725 0.73578 0.79081 0.0
O157 O 0.75535 0.69113 0.82777 0.0
Cd158 Cd 0.78621 0.77417 0.8139 0.0
C159 C 0.67482 0.81839 0.83333 0.0
O160 O 0.75976 0.7589 0.77963 0.0
O161 O 0.78505 0.83627 0.78422 0.0
O162 O 0.86914 0.73427 0.81584 0.0
C163 C 0.76609 0.8031 0.77219 0.0
O164 O 0.6522 0.79327 0.8191 0.0
C165 C 0.89126 0.77124 0.82483 0.0
O166 O 0.72352 0.81802 0.83513 0.0
O167 O 0.86396 0.81025 0.82894 0.0
C168 C 0.60786 0.42059 0.07632 0.0
O169 O 0.59558 0.38596 0.06349 0.0
Cd170 Cd 0.51845 0.38236 0.04401 0.0
O171 O 0.57823 0.45859 0.07964 0.0
Cd172 Cd 0.49602 0.4936 0.06615 0.0
C173 C 0.43308 0.3901 0.085 0.0
O174 O 0.51709 0.4675 0.03228 0.0
O175 O 0.44095 0.49835 0.03404 0.0
O176 O 0.53583 0.57678 0.06994 0.0
C177 C 0.47645 0.47954 0.02294 0.0
O178 O 0.45126 0.36448 0.06988 0.0
C179 C 0.49612 0.59841 0.0773 0.0
O180 O 0.44527 0.43659 0.08773 0.0
O181 O 0.45678 0.57059 0.07999 0.0
C182 C 0.86006 0.50392 0.59398 0.0
O183 O 0.85834 0.53077 0.57752 0.0
Cd184 Cd 0.9228 0.53171 0.55125 0.0
O185 O 0.89559 0.47124 0.59677 0.0
Cd186 Cd 0.96836 0.43466 0.57762 0.0
C187 C 0.02687 0.54692 0.58415 0.0
O188 O 0.93406 0.44468 0.54367 0.0
O189 O 0.01509 0.43019 0.54406 0.0
O190 O 0.93437 0.3535 0.58804 0.0
C191 C 0.97491 0.43815 0.53342 0.0
O192 O -0.00085 0.56418 0.56938 0.0
C193 C 0.97707 0.33493 0.59383 0.0
O194 O 0.02112 0.50186 0.5912 0.0
O195 O 0.01629 0.36356 0.59237 0.0
C196 C 0.62091 0.54323 0.88403 0.0
O197 O 0.61188 0.57165 0.89955 0.0
Cd198 Cd 0.53297 0.56705 0.91811 0.0
O199 O 0.58897 0.50886 0.87888 0.0
Cd200 Cd 0.50768 0.47258 0.89157 0.0
C201 C 0.45047 0.58019 0.87683 0.0
O202 O 0.52623 0.47925 0.92761 0.0
O203 O 0.4455 0.47062 0.92092 0.0
O204 O 0.5461 0.39025 0.88527 0.0
C205 C 0.48152 0.4696 0.93413 0.0
O206 O 0.46738 0.5991 0.89369 0.0
C207 C 0.5063 0.37052 0.87733 0.0
O208 O 0.46184 0.53494 0.87151 0.0
O209 O 0.46748 0.39945 0.87512 0.0
C210 C 0.88115 0.47399 0.38297 0.0
O211 O 0.87379 0.44491 0.39851 0.0
Cd212 Cd 0.93534 0.43068 0.42474 0.0
O213 O 0.91983 0.50367 0.38215 0.0
Cd214 Cd 0.98977 0.53339 0.4053 0.0
C215 C 0.04383 0.42174 0.39285 0.0
O216 O 0.94801 0.51391 0.43706 0.0
O217 O 0.0288 0.52655 0.44047 0.0
O218 O 0.95814 0.61799 0.39817 0.0
C219 C 0.98615 0.51626 0.44905 0.0
O220 O 0.00975 0.40105 0.40438 0.0
C221 C 0.00187 0.63764 0.39477 0.0
O222 O 0.0453 0.46986 0.39017 0.0
O223 O 0.04058 0.60812 0.3959 0.0
C224 C 0.03056 0.20201 0.59335 0.0
C225 C 0.98615 0.17224 0.59606 0.0
C226 C 0.0285 0.25517 0.59478 0.0
C227 C 0.98179 0.28022 0.59873 0.0
H228 H 0.06649 0.18446 0.58871 0.0
H229 H 0.06276 0.27673 0.59103 0.0
S230 S 0.85737 0.21927 0.61173 0.0
N231 N 0.89629 0.17112 0.60655 0.0
N232 N 0.89232 0.27137 0.609 0.0
C233 C 0.93848 0.25073 0.60377 0.0
C234 C 0.94069 0.1965 0.60252 0.0
C235 C 0.97352 0.72296 0.82673 0.0
C236 C 0.9471 0.76963 0.8287 0.0
C237 C 0.02716 0.72107 0.82678 0.0
C238 C 0.05627 0.76589 0.82853 0.0
H239 H 0.95269 0.68775 0.82427 0.0
H240 H 0.04578 0.68465 0.82411 0.0
S241 S 0.00594 0.89658 0.83748 0.0
N242 N 0.95415 0.86085 0.83512 0.0
N243 N 0.05522 0.85733 0.83495 0.0
C244 C 0.03048 0.81226 0.8321 0.0
C245 C 0.97578 0.81413 0.83227 0.0
C246 C 0.53978 0.68312 0.07801 0.0
C247 C 0.49473 0.65423 0.08071 0.0
C248 C 0.5384 0.73654 0.07803 0.0
C249 C 0.49184 0.76301 0.08055 0.0
H250 H 0.57621 0.66444 0.07507 0.0
H251 H 0.5737 0.75708 0.07499 0.0
S252 S 0.36424 0.70566 0.09112 0.0
N253 N 0.40308 0.65631 0.08826 0.0
N254 N 0.40052 0.75673 0.08808 0.0
C255 C 0.44706 0.73474 0.08458 0.0
C256 C 0.4485 0.68033 0.08474 0.0
C257 C 0.53841 0.20846 0.35233 0.0
C258 C 0.56432 0.25441 0.34826 0.0
C259 C 0.48484 0.20717 0.35366 0.0
C260 C 0.45534 0.25184 0.3512 0.0
H261 H 0.55923 0.17265 0.35306 0.0
H262 H 0.46638 0.17042 0.35553 0.0
S263 S 0.50564 0.3833 0.34449 0.0
N264 N 0.5573 0.34668 0.34484 0.0
N265 N 0.45644 0.34434 0.34754 0.0
C266 C 0.48108 0.29873 0.3492 0.0
C267 C 0.53568 0.29997 0.34766 0.0
C268 C 0.96424 0.77569 0.38737 0.0
C269 C 0.00939 0.80173 0.39272 0.0
C270 C 0.96298 0.72236 0.38694 0.0
C271 C 0.00697 0.69321 0.39155 0.0
H272 H 0.9288 0.79642 0.38474 0.0
H273 H 0.92665 0.70387 0.38381 0.0
S274 S 0.13688 0.74357 0.403 0.0
N275 N 0.10064 0.79492 0.40025 0.0
N276 N 0.09846 0.69447 0.39916 0.0
C277 C 0.05342 0.71888 0.3952 0.0
C278 C 0.05455 0.77325 0.39588 0.0
C279 C 0.46818 0.6869 0.62375 0.0
C280 C 0.44088 0.73131 0.61844 0.0
C281 C 0.52125 0.68842 0.62682 0.0
C282 C 0.54881 0.73421 0.62443 0.0
H283 H 0.44809 0.65167 0.62716 0.0
H284 H 0.5403 0.65404 0.6322 0.0
S285 S 0.4963 0.85835 0.60635 0.0
N286 N 0.44592 0.82034 0.60777 0.0
N287 N 0.54602 0.82309 0.61332 0.0
C288 C 0.52273 0.77754 0.61698 0.0
C289 C 0.46856 0.77611 0.61404 0.0
C290 C 0.54805 0.28502 0.8764 0.0
C291 C 0.50359 0.31496 0.87372 0.0
C292 C 0.5451 0.23185 0.87782 0.0
C293 C 0.49755 0.20683 0.8768 0.0
H294 H 0.58515 0.30284 0.87854 0.0
H295 H 0.57995 0.21063 0.88106 0.0
S296 S 0.37118 0.26669 0.86586 0.0
N297 N 0.4116 0.31503 0.86702 0.0
N298 N 0.40609 0.21494 0.86988 0.0
C299 C 0.45344 0.23582 0.87229 0.0
C300 C 0.45647 0.28999 0.87066 0.0
C301 C 0.01993 0.24959 0.1478 0.0
C302 C 0.0483 0.2039 0.14755 0.0
C303 C 0.96622 0.24911 0.14716 0.0
C304 C 0.93879 0.20298 0.146 0.0
H305 H 0.03916 0.286 0.14934 0.0
H306 H 0.94608 0.28526 0.14809 0.0
S307 S -0.00466 0.07309 0.14255 0.0
N308 N 0.04533 0.11143 0.14441 0.0
N309 N 0.9443 0.11055 0.14299 0.0
C310 C 0.96679 0.15713 0.14459 0.0
C311 C 0.02156 0.15759 0.14545 0.0
C312 C 0.92062 0.03629 0.47288 0.0
C313 C 0.91729 0.98406 0.46823 0.0
C314 C 0.9166 0.05325 0.49337 0.0
C315 C 0.90819 0.01846 0.50961 0.0
H316 H 0.9315 0.06347 0.46095 0.0
H317 H 0.92556 0.09274 0.49675 0.0
S318 S 0.887 0.87931 0.50487 0.0
N319 N 0.89812 0.89883 0.48082 0.0
N320 N 0.88881 0.93102 0.51948 0.0
C321 C 0.89794 0.96726 0.50478 0.0
C322 C 0.90299 0.94985 0.48394 0.0
C323 C 0.22403 0.77432 0.73049 0.0
C324 C 0.22779 0.73141 0.7435 0.0
C325 C 0.23924 0.7722 0.7098 0.0
C326 C 0.25878 0.72696 0.70111 0.0
H327 H 0.21008 0.81044 0.73644 0.0
H328 H 0.23588 0.8068 0.70063 0.0
S329 S 0.27469 0.60298 0.72843 0.0
N330 N 0.25107 0.64166 0.7463 0.0
N331 N 0.27959 0.63742 0.70695 0.0
C332 C 0.2615 0.68309 0.71375 0.0
C333 C 0.24586 0.68532 0.73504 0.0
C334 C 0.45216 0.97696 -0.00893 0.0
C335 C 0.49824 0.96293 0.0009 0.0
C336 C 0.45225 0.00301 0.97218 0.0
C337 C 0.49841 0.016 0.96216 0.0
H338 H 0.41536 0.96806 -0.00194 0.0
H339 H 0.41552 0.01256 0.96529 0.0
S340 S 0.6299 -0.01181 0.98129 0.0
N341 N 0.59163 0.96414 -0.00069 0.0
N342 N 0.59178 0.01302 0.96342 0.0
C343 C 0.54501 0.00245 0.97176 0.0
C344 C 0.54493 0.97572 -0.00884 0.0
C345 C 0.25206 0.19115 0.23861 0.0
C346 C 0.23935 0.23485 0.22696 0.0
C347 C 0.26815 0.19477 0.25916 0.0
C348 C 0.27223 0.24227 0.26908 0.0
H349 H 0.24958 0.15343 0.23183 0.0
H350 H 0.27715 0.1597 0.26737 0.0
S351 S 0.24415 0.36873 0.24547 0.0
N352 N 0.2324 0.32751 0.22671 0.0
N353 N 0.2627 0.33439 0.26569 0.0
C354 C 0.26007 0.28659 0.25766 0.0
C355 C 0.24343 0.28285 0.23655 0.0
C356 C 0.75198 0.14956 0.23215 0.0
C357 C 0.72692 0.18223 0.21802 0.0
C358 C 0.74157 0.15263 0.25354 0.0
C359 C 0.70559 0.18809 0.2611 0.0
H360 H 0.78246 0.12452 0.22688 0.0
H361 H 0.76475 0.13046 0.26425 0.0
S362 S 0.62198 0.27361 0.23024 0.0
N363 N 0.65882 0.24489 0.21296 0.0
N364 N 0.63951 0.25017 0.25298 0.0
C365 C 0.67672 0.21678 0.24698 0.0
C366 C 0.68736 0.214 0.22541 0.0
C367 C 0.67708 0.79674 0.72681 0.0
C368 C 0.70847 0.81307 0.71042 0.0
C369 C 0.69452 0.79848 0.74726 0.0
C370 C 0.74408 0.81608 0.7519 0.0
H371 H 0.64051 0.77869 0.72365 0.0
H372 H 0.67023 0.78279 0.75931 0.0
S373 S 0.83873 0.86845 0.71461 0.0
N374 N 0.78918 0.85208 0.70008 0.0
N375 N 0.82223 0.85519 0.73885 0.0
C376 C 0.774 0.83703 0.73589 0.0
C377 C 0.75608 0.83546 0.71497 0.0
C378 C 0.4349 0.49276 0.96673 0.0
C379 C 0.47271 0.46391 0.95648 0.0
C380 C 0.43425 0.49572 -0.01147 0.0
C381 C 0.47129 0.46975 0.00048 0.0
H382 H 0.40793 0.51562 0.95788 0.0
H383 H 0.40647 0.52055 -0.00406 0.0
S384 S 0.57197 0.38167 0.98059 0.0
N385 N 0.5434 0.40403 0.95958 0.0
N386 N 0.54202 0.40853 0.00035 0.0
C387 C 0.50646 0.43749 -0.00974 0.0
C388 C 0.50722 0.43487 0.96826 0.0
C389 C 0.02503 0.46726 0.50235 0.0
C390 C 0.97761 0.45431 0.51144 0.0
C391 C 0.02755 0.48805 0.48227 0.0
C392 C 0.98276 0.49636 0.47054 0.0
H393 H 0.06043 0.46243 0.51095 0.0
H394 H 0.06488 0.49759 0.47592 0.0
S395 S 0.84916 0.46695 0.48701 0.0
N396 N 0.88502 0.44969 0.50695 0.0
N397 N 0.88956 0.489 0.46938 0.0
C398 C 0.93515 0.48284 0.47937 0.0
C399 C 0.93264 0.46167 0.49974 0.0
C400 C 0.1812 0.93131 0.6089 0.0
C401 C 0.20382 0.88451 0.60351 0.0
C402 C 0.1526 0.95903 0.59441 0.0
C403 C 0.14485 0.94017 0.5742 0.0
H404 H 0.18165 0.94427 0.62487 0.0
H405 H 0.13206 -0.00756 0.59984 0.0
S406 S 0.20944 0.82759 0.55088 0.0
N407 N 0.22716 0.82675 0.5755 0.0
N408 N 0.17275 0.87865 0.54817 0.0
C409 C 0.17413 0.8978 0.56777 0.0
C410 C 0.20378 0.86982 0.58253 0.0
C411 C 0.33829 0.94888 0.82742 0.0
C412 C 0.296 0.91675 0.83121 0.0
C413 C 0.36053 0.97676 0.84352 0.0
C414 C 0.34128 0.97308 0.86388 0.0
H415 H 0.35732 0.94903 0.81244 0.0
H416 H 0.39608 -0.00321 0.84037 0.0
S417 S 0.22134 0.9086 0.88033 0.0
N418 N 0.22798 0.89367 0.85557 0.0
N419 N 0.27062 0.94561 0.88591 0.0
C420 C 0.29459 0.9476 0.86714 0.0
C421 C 0.27163 0.91951 0.85073 0.0
C422 C 0.36118 0.00015 0.12049 0.0
C423 C 0.34233 0.00534 0.10015 0.0
C424 C 0.33938 0.02783 0.13683 0.0
C425 C 0.29783 0.06129 0.13337 0.0
H426 H 0.39601 0.97871 0.1235 0.0
H427 H 0.35793 0.02604 0.15187 0.0
S428 S 0.22526 0.0758 0.08408 0.0
N429 N 0.27323 0.03708 0.07827 0.0
N430 N 0.2317 0.08887 0.10902 0.0
C431 C 0.27413 0.06085 0.11373 0.0
C432 C 0.29661 0.03291 0.09707 0.0
C433 C 0.16672 0.02012 0.38158 0.0
C434 C 0.15969 0.04211 0.40131 0.0
C435 C 0.19673 0.04435 0.36651 0.0
C436 C 0.22117 0.09092 0.37075 0.0
H437 H 0.14469 0.98707 0.37692 0.0
H438 H 0.19661 0.02911 0.35087 0.0
S439 S 0.22981 0.15398 0.42212 0.0
N440 N 0.19065 0.10534 0.42594 0.0
N441 N 0.24736 0.15086 0.39749 0.0
C442 C 0.22183 0.1083 0.39139 0.0
C443 C 0.19092 0.08378 0.40676 0.0
C444 C 0.88765 0.13873 0.3853 0.0
C445 C 0.92196 0.10143 0.37797 0.0
C446 C 0.85783 0.16755 0.37153 0.0
C447 C 0.86202 0.16092 0.34992 0.0
H448 H 0.88277 0.14486 0.40183 0.0
H449 H 0.83129 0.19533 0.3779 0.0
S450 S 0.94826 0.07004 0.32279 0.0
N451 N 0.95966 0.06026 0.34773 0.0
N452 N 0.90426 0.11546 0.32176 0.0
C453 C 0.89723 0.12476 0.34233 0.0
C454 C 0.92697 0.09467 0.35639 0.0
C455 C 0.56372 0.11355 0.09603 0.0
C456 C 0.57915 0.06402 0.09047 0.0
C457 C 0.59334 0.14309 0.10948 0.0
C458 C 0.64006 0.12465 0.11747 0.0
H459 H 0.52756 0.12903 0.09055 0.0
H460 H 0.57941 0.18065 0.11372 0.0
S461 S 0.69925 -0.00126 0.10655 0.0
N462 N 0.64498 -0.00161 0.09331 0.0
N463 N 0.70159 0.05477 0.11821 0.0
C464 C 0.65698 0.07597 0.11142 0.0
C465 C 0.62622 0.04537 0.09805 0.0
C466 C 0.59482 0.83057 0.85396 0.0
C467 C 0.64357 0.84838 0.84797 0.0
C468 C 0.56337 0.85923 0.86719 0.0
C469 C 0.57918 0.9072 0.87442 0.0
H470 H 0.58077 0.79427 0.84832 0.0
H471 H 0.52572 0.84458 0.87115 0.0
S472 S 0.70388 0.97023 0.86382 0.0
N473 N 0.707 0.91595 0.85091 0.0
N474 N 0.64712 0.97062 0.87531 0.0
C475 C 0.62811 0.92511 0.86883 0.0
C476 C 0.66057 0.89543 0.85573 0.0
C477 C 0.88646 0.84532 0.62932 0.0
C478 C 0.8503 0.81068 0.62153 0.0
C479 C 0.91571 0.87564 0.61586 0.0
C480 C 0.91053 0.87165 0.59416 0.0
H481 H 0.89067 0.85065 0.64592 0.0
H482 H 0.94197 0.90307 0.62254 0.0
S483 S 0.82475 0.78285 0.566 0.0
N484 N 0.81324 0.77141 0.59083 0.0
N485 N 0.86895 0.82791 0.56549 0.0
C486 C 0.87643 0.83522 0.58617 0.0
C487 C 0.84604 0.80491 0.59988 0.0
C488 C 0.67675 0.40442 0.12662 0.0
C489 C 0.70734 0.36136 0.1223 0.0
C490 C 0.64925 0.42893 0.11083 0.0
C491 C 0.65159 0.41086 0.09032 0.0
H492 H 0.66929 0.41557 0.14255 0.0
H493 H 0.62163 0.45796 0.11521 0.0
S494 S 0.74077 0.31241 0.07 0.0
N495 N 0.74952 0.3113 0.0954 0.0
N496 N 0.69767 0.3575 0.06565 0.0
C497 C 0.68909 0.37418 0.08534 0.0
C498 C 0.71731 0.3494 0.10141 0.0
C499 C 0.77783 0.41552 0.3513 0.0
C500 C 0.80454 0.40476 0.33278 0.0
C501 C 0.80043 0.44472 0.36689 0.0
C502 C 0.85004 0.46464 0.36432 0.0
H503 H 0.7416 0.39708 0.35476 0.0
H504 H 0.78112 0.44732 0.38178 0.0
S505 S 0.92837 0.46189 0.31618 0.0
N506 N 0.8774 0.42706 0.31075 0.0
N507 N 0.91976 0.48237 0.34017 0.0
C508 C 0.87319 0.46165 0.34462 0.0
C509 C 0.85036 0.43149 0.32875 0.0
C510 C 0.7801 0.54402 0.60698 0.0
C511 C 0.82596 0.51793 0.61134 0.0
C512 C 0.75622 0.57381 0.62212 0.0
C513 C 0.77811 0.57926 0.64199 0.0
H514 H 0.76502 0.54509 0.5913 0.0
H515 H 0.7235 0.5967 0.61746 0.0
S516 S 0.88877 0.50596 0.66283 0.0
N517 N 0.88538 0.48934 0.63815 0.0
N518 N 0.84079 0.54614 0.66666 0.0
C519 C 0.81925 0.54704 0.64743 0.0
C520 C 0.84327 0.51613 0.63202 0.0
C521 C 0.72349 0.62435 0.86008 0.0
C522 C 0.7167 0.61354 0.83889 0.0
C523 C 0.69684 0.5967 0.87525 0.0
C524 C 0.663 0.55727 0.86965 0.0
H525 H 0.74456 0.65789 0.8649 0.0
H526 H 0.69893 0.60971 0.89119 0.0
S527 S 0.64728 0.50306 0.81681 0.0
N528 N 0.68512 0.55291 0.81348 0.0
N529 N 0.63543 0.50017 0.842 0.0
C530 C 0.66324 0.54057 0.84888 0.0
C531 C 0.69007 0.56904 0.83343 0.0
C532 C 0.38153 0.64485 0.87112 0.0
C533 C 0.41858 0.61155 0.86288 0.0
C534 C 0.3504 0.6744 0.85802 0.0
C535 C 0.35637 0.67266 0.8363 0.0
H536 H 0.37607 0.64754 0.88778 0.0
H537 H 0.32209 0.69948 0.86497 0.0
S538 S 0.44903 0.59261 0.80709 0.0
N539 N 0.45983 0.57858 0.83174 0.0
N540 N 0.40235 0.63539 0.80714 0.0
C541 C 0.39376 0.64 0.82789 0.0
C542 C 0.42459 0.60906 0.84119 0.0
C543 C 0.06942 0.57991 0.61585 0.0
C544 C 0.06449 0.58057 0.5941 0.0
C545 C 0.10334 0.61297 0.62588 0.0
C546 C 0.13448 0.64646 0.6144 0.0
H547 H 0.04599 0.55455 0.62522 0.0
H548 H 0.10548 0.61212 0.64269 0.0
S549 S 0.13689 0.66214 0.55716 0.0
N550 N 0.09337 0.61748 0.5614 0.0
N551 N 0.15881 0.67838 0.58028 0.0
C552 C 0.1307 0.64685 0.59265 0.0
C553 C 0.09515 0.6142 0.58247 0.0
C554 C 0.06496 0.34024 0.37497 0.0
C555 C 0.08041 0.38897 0.38153 0.0
C556 C 0.09803 0.309 0.36347 0.0
C557 C 0.14811 0.32493 0.35853 0.0
H558 H 0.0267 0.32641 0.37843 0.0
H559 H 0.0845 0.27176 0.35871 0.0
S560 S 0.20738 0.44886 0.3723 0.0
N561 N 0.14895 0.45183 0.38224 0.0
N562 N 0.21169 0.39246 0.36105 0.0
C563 C 0.16425 0.37336 0.36516 0.0
C564 C 0.13021 0.40559 0.37652 0.0
C565 C 0.36306 0.32879 0.09367 0.0
C566 C 0.39982 0.36432 0.10032 0.0
C567 C 0.33342 0.30136 0.10806 0.0
C568 C 0.34074 0.30745 0.12956 0.0
H569 H 0.35743 0.32191 0.07724 0.0
H570 H 0.30608 0.27372 0.10231 0.0
S571 S 0.43153 0.39627 0.15491 0.0
N572 N 0.44077 0.4054 0.12976 0.0
N573 N 0.38637 0.35232 0.15682 0.0
C574 C 0.3769 0.34327 0.1364 0.0
C575 C 0.4061 0.37217 0.12176 0.0
loop_
_geom_bond_atom_site_label_1
_geom_bond_atom_site_label_2
_geom_bond_distance
_geom_bond_site_symmetry_2
_ccdc_geom_bond_type
C0 O1 1.306 . S
C0 O3 1.160 1_565 S
O1 C0 1.306 . S
O1 Cd2 2.228 . S
Cd2 O1 2.228 . S
Cd2 O6 2.277 . S
Cd2 O10 2.277 1_455 S
O3 C0 1.160 1_545 S
O3 Cd4 2.203 1_455 S
Cd4 O3 2.203 1_655 S
Cd4 O6 2.409 1_645 S
Cd4 O7 2.333 . S
Cd4 O8 2.352 1_655 S
Cd4 O12 2.277 . S
Cd4 O13 2.356 . S
C5 O10 1.209 . S
C5 O12 1.226 1_565 S
O6 Cd2 2.277 . S
O6 Cd4 2.409 1_465 S
O6 C9 1.318 1_465 S
O7 Cd4 2.333 . S
O7 C9 1.214 . S
O8 Cd4 2.352 1_455 S
O8 C11 1.258 . S
C9 O6 1.318 1_645 S
C9 O7 1.214 . S
O10 Cd2 2.277 1_655 S
O10 C5 1.209 . S
C11 O8 1.258 . S
C11 O13 1.282 1_455 S
O12 Cd4 2.277 . S
O12 C5 1.226 1_545 S
O13 Cd4 2.356 . S
O13 C11 1.282 1_655 S
C14 O15 1.306 . S
C14 O17 1.160 . S
O15 C14 1.306 . S
O15 Cd16 2.228 . S
Cd16 O15 2.228 . S
Cd16 O20 2.273 . S
Cd16 O24 2.277 . S
O17 C14 1.160 . S
O17 Cd18 2.203 . S
Cd18 O17 2.203 . S
Cd18 O20 2.411 . S
Cd18 O21 2.333 . S
Cd18 O22 2.352 . S
Cd18 O26 2.277 . S
Cd18 O27 2.356 . S
C19 O24 1.209 . S
C19 O26 1.226 . S
O20 Cd16 2.273 . S
O20 Cd18 2.411 . S
O20 C23 1.320 . S
O21 Cd18 2.333 . S
O21 C23 1.214 . S
O22 Cd18 2.352 . S
O22 C25 1.258 . S
C23 O20 1.320 . S
C23 O21 1.214 . S
O24 Cd16 2.277 . S
O24 C19 1.209 . S
C25 O22 1.258 . S
C25 O27 1.282 . S
O26 Cd18 2.277 . S
O26 C19 1.226 . S
O27 Cd18 2.356 . S
O27 C25 1.282 . S
C28 O29 1.306 . S
C28 O31 1.160 1_545 S
O29 C28 1.306 . S
O29 Cd30 2.228 . S
Cd30 O29 2.228 . S
Cd30 O34 2.277 . S
Cd30 O38 2.277 . S
O31 C28 1.160 1_565 S
O31 Cd32 2.203 . S
Cd32 O31 2.203 . S
Cd32 O34 2.409 1_565 S
Cd32 O35 2.333 . S
Cd32 O36 2.352 . S
Cd32 O40 2.277 . S
Cd32 O41 2.356 . S
C33 O38 1.209 . S
C33 O40 1.226 1_545 S
O34 Cd30 2.277 . S
O34 Cd32 2.409 1_545 S
O34 C37 1.318 1_545 S
O35 Cd32 2.333 . S
O35 C37 1.214 . S
O36 Cd32 2.352 . S
O36 C39 1.258 . S
C37 O34 1.318 1_565 S
C37 O35 1.214 . S
O38 Cd30 2.277 . S
O38 C33 1.209 . S
C39 O36 1.258 . S
C39 O41 1.282 . S
O40 Cd32 2.277 . S
O40 C33 1.226 1_565 S
O41 Cd32 2.356 . S
O41 C39 1.282 . S
C42 O43 1.306 . S
C42 O45 1.160 . S
O43 C42 1.306 . S
O43 Cd44 2.228 . S
Cd44 O43 2.228 . S
Cd44 O48 2.273 . S
Cd44 O52 2.277 . S
O45 C42 1.160 . S
O45 Cd46 2.203 . S
Cd46 O45 2.203 . S
Cd46 O48 2.411 . S
Cd46 O49 2.333 . S
Cd46 O50 2.352 . S
Cd46 O54 2.277 . S
Cd46 O55 2.356 . S
C47 O52 1.209 . S
C47 O54 1.226 . S
O48 Cd44 2.273 . S
O48 Cd46 2.411 . S
O48 C51 1.320 . S
O49 Cd46 2.333 . S
O49 C51 1.214 . S
O50 Cd46 2.352 . S
O50 C53 1.258 . S
C51 O48 1.320 . S
C51 O49 1.214 . S
O52 Cd44 2.277 . S
O52 C47 1.209 . S
C53 O50 1.258 . S
C53 O55 1.282 . S
O54 Cd46 2.277 . S
O54 C47 1.226 . S
O55 Cd46 2.356 . S
O55 C53 1.282 . S
C56 O57 1.306 . S
C56 O59 1.160 1_545 S
O57 C56 1.306 . S
O57 Cd58 2.228 . S
Cd58 O57 2.228 . S
Cd58 O62 2.277 . S
Cd58 O66 2.277 1_455 S
O59 C56 1.160 1_565 S
O59 Cd60 2.203 1_455 S
Cd60 O59 2.203 1_655 S
Cd60 O62 2.409 1_665 S
Cd60 O63 2.333 . S
Cd60 O64 2.352 1_655 S
Cd60 O68 2.277 . S
Cd60 O69 2.356 . S
C61 O66 1.209 . S
C61 O68 1.226 1_545 S
O62 Cd58 2.277 . S
O62 Cd60 2.409 1_445 S
O62 C65 1.318 1_445 S
O63 Cd60 2.333 . S
O63 C65 1.214 . S
O64 Cd60 2.352 1_455 S
O64 C67 1.258 . S
C65 O62 1.318 1_665 S
C65 O63 1.214 . S
O66 Cd58 2.277 1_655 S
O66 C61 1.209 . S
C67 O64 1.258 . S
C67 O69 1.282 1_455 S
O68 Cd60 2.277 . S
O68 C61 1.226 1_565 S
O69 Cd60 2.356 . S
O69 C67 1.282 1_655 S
C70 O71 1.306 . S
C70 O73 1.160 . S
O71 C70 1.306 . S
O71 Cd72 2.228 . S
Cd72 O71 2.228 . S
Cd72 O76 2.273 . S
Cd72 O80 2.277 . S
O73 C70 1.160 . S
O73 Cd74 2.203 . S
Cd74 O73 2.203 . S
Cd74 O76 2.411 . S
Cd74 O77 2.333 . S
Cd74 O78 2.352 . S
Cd74 O82 2.277 . S
Cd74 O83 2.356 . S
C75 O80 1.209 . S
C75 O82 1.226 . S
O76 Cd72 2.273 . S
O76 Cd74 2.411 . S
O76 C79 1.320 . S
O77 Cd74 2.333 . S
O77 C79 1.214 . S
O78 Cd74 2.352 . S
O78 C81 1.258 . S
C79 O76 1.320 . S
C79 O77 1.214 . S
O80 Cd72 2.277 . S
O80 C75 1.209 . S
C81 O78 1.258 . S
C81 O83 1.282 . S
O82 Cd74 2.277 . S
O82 C75 1.226 . S
O83 Cd74 2.356 . S
O83 C81 1.282 . S
C84 O85 1.306 . S
C84 O87 1.160 1_565 S
O85 C84 1.306 . S
O85 Cd86 2.228 . S
Cd86 O85 2.228 . S
Cd86 O90 2.277 . S
Cd86 O94 2.277 . S
O87 C84 1.160 1_545 S
O87 Cd88 2.203 . S
Cd88 O87 2.203 . S
Cd88 O90 2.409 1_545 S
Cd88 O91 2.333 . S
Cd88 O92 2.352 . S
Cd88 O96 2.277 . S
Cd88 O97 2.356 . S
C89 O94 1.209 . S
C89 O96 1.226 1_565 S
O90 Cd86 2.277 . S
O90 Cd88 2.409 1_565 S
O90 C93 1.318 1_565 S
O91 Cd88 2.333 . S
O91 C93 1.214 . S
O92 Cd88 2.352 . S
O92 C95 1.258 . S
C93 O90 1.318 1_545 S
C93 O91 1.214 . S
O94 Cd86 2.277 . S
O94 C89 1.209 . S
C95 O92 1.258 . S
C95 O97 1.282 . S
O96 Cd88 2.277 . S
O96 C89 1.226 1_545 S
O97 Cd88 2.356 . S
O97 C95 1.282 . S
C98 O99 1.306 . S
C98 O101 1.160 . S
O99 C98 1.306 . S
O99 Cd100 2.228 . S
Cd100 O99 2.228 . S
Cd100 O104 2.273 . S
Cd100 O108 2.277 . S
O101 C98 1.160 . S
O101 Cd102 2.203 . S
Cd102 O101 2.203 . S
Cd102 O104 2.411 . S
Cd102 O105 2.333 . S
Cd102 O106 2.352 . S
Cd102 O110 2.277 . S
Cd102 O111 2.356 . S
C103 O108 1.209 . S
C103 O110 1.226 . S
O104 Cd100 2.273 . S
O104 Cd102 2.411 . S
O104 C107 1.320 . S
O105 Cd102 2.333 . S
O105 C107 1.214 . S
O106 Cd102 2.352 . S
O106 C109 1.258 . S
C107 O104 1.320 . S
C107 O105 1.214 . S
O108 Cd100 2.277 . S
O108 C103 1.209 . S
C109 O106 1.258 . S
C109 O111 1.282 . S
O110 Cd102 2.277 . S
O110 C103 1.226 . S
O111 Cd102 2.356 . S
O111 C109 1.282 . S
C112 O113 1.306 . S
C112 O115 1.160 . S
O113 C112 1.306 . S
O113 Cd114 2.228 . S
Cd114 O113 2.228 . S
Cd114 O118 2.273 . S
Cd114 O122 2.277 . S
O115 C112 1.160 . S
O115 Cd116 2.203 . S
Cd116 O115 2.203 . S
Cd116 O118 2.411 . S
Cd116 O119 2.333 . S
Cd116 O120 2.352 . S
Cd116 O124 2.277 . S
Cd116 O125 2.356 . S
C117 O122 1.209 . S
C117 O124 1.226 . S
O118 Cd114 2.273 . S
O118 Cd116 2.411 . S
O118 C121 1.320 . S
O119 Cd116 2.333 . S
O119 C121 1.214 . S
O120 Cd116 2.352 . S
O120 C123 1.258 . S
C121 O118 1.320 . S
C121 O119 1.214 . S
O122 Cd114 2.277 . S
O122 C117 1.209 . S
C123 O120 1.258 . S
C123 O125 1.282 . S
O124 Cd116 2.277 . S
O124 C117 1.226 . S
O125 Cd116 2.356 . S
O125 C123 1.282 . S
C126 O127 1.306 . S
C126 O129 1.160 . S
O127 C126 1.306 . S
O127 Cd128 2.228 . S
Cd128 O127 2.228 . S
Cd128 O132 2.273 . S
Cd128 O136 2.277 . S
O129 C126 1.160 . S
O129 Cd130 2.203 . S
Cd130 O129 2.203 . S
Cd130 O132 2.411 . S
Cd130 O133 2.333 . S
Cd130 O134 2.352 . S
Cd130 O138 2.277 . S
Cd130 O139 2.356 . S
C131 O136 1.209 . S
C131 O138 1.226 . S
O132 Cd128 2.273 . S
O132 Cd130 2.411 . S
O132 C135 1.320 . S
O133 Cd130 2.333 . S
O133 C135 1.214 . S
O134 Cd130 2.352 . S
O134 C137 1.258 . S
C135 O132 1.320 . S
C135 O133 1.214 . S
O136 Cd128 2.277 . S
O136 C131 1.209 . S
C137 O134 1.258 . S
C137 O139 1.282 . S
O138 Cd130 2.277 . S
O138 C131 1.226 . S
O139 Cd130 2.356 . S
O139 C137 1.282 . S
C140 O141 1.306 . S
C140 O143 1.160 . S
O141 C140 1.306 . S
O141 Cd142 2.228 . S
Cd142 O141 2.228 . S
Cd142 O146 2.273 . S
Cd142 O150 2.277 . S
O143 C140 1.160 . S
O143 Cd144 2.203 . S
Cd144 O143 2.203 . S
Cd144 O146 2.411 . S
Cd144 O147 2.333 . S
Cd144 O148 2.352 . S
Cd144 O152 2.277 . S
Cd144 O153 2.356 . S
C145 O150 1.209 . S
C145 O152 1.226 . S
O146 Cd142 2.273 . S
O146 Cd144 2.411 . S
O146 C149 1.320 . S
O147 Cd144 2.333 . S
O147 C149 1.214 . S
O148 Cd144 2.352 . S
O148 C151 1.258 . S
C149 O146 1.320 . S
C149 O147 1.214 . S
O150 Cd142 2.277 . S
O150 C145 1.209 . S
C151 O148 1.258 . S
C151 O153 1.282 . S
O152 Cd144 2.277 . S
O152 C145 1.226 . S
O153 Cd144 2.356 . S
O153 C151 1.282 . S
C154 O155 1.306 . S
C154 O157 1.160 . S
O155 C154 1.306 . S
O155 Cd156 2.228 . S
Cd156 O155 2.228 . S
Cd156 O160 2.273 . S
Cd156 O164 2.277 . S
O157 C154 1.160 . S
O157 Cd158 2.203 . S
Cd158 O157 2.203 . S
Cd158 O160 2.411 . S
Cd158 O161 2.333 . S
Cd158 O162 2.352 . S
Cd158 O166 2.277 . S
Cd158 O167 2.356 . S
C159 O164 1.209 . S
C159 O166 1.226 . S
O160 Cd156 2.273 . S
O160 Cd158 2.411 . S
O160 C163 1.320 . S
O161 Cd158 2.333 . S
O161 C163 1.214 . S
O162 Cd158 2.352 . S
O162 C165 1.258 . S
C163 O160 1.320 . S
C163 O161 1.214 . S
O164 Cd156 2.277 . S
O164 C159 1.209 . S
C165 O162 1.258 . S
C165 O167 1.282 . S
O166 Cd158 2.277 . S
O166 C159 1.226 . S
O167 Cd158 2.356 . S
O167 C165 1.282 . S
C168 O169 1.306 . S
C168 O171 1.160 . S
O169 C168 1.306 . S
O169 Cd170 2.228 . S
Cd170 O169 2.228 . S
Cd170 O174 2.273 . S
Cd170 O178 2.277 . S
O171 C168 1.160 . S
O171 Cd172 2.203 . S
Cd172 O171 2.203 . S
Cd172 O174 2.411 . S
Cd172 O175 2.333 . S
Cd172 O176 2.352 . S
Cd172 O180 2.277 . S
Cd172 O181 2.356 . S
C173 O178 1.209 . S
C173 O180 1.226 . S
O174 Cd170 2.273 . S
O174 Cd172 2.411 . S
O174 C177 1.320 . S
O175 Cd172 2.333 . S
O175 C177 1.214 . S
O176 Cd172 2.352 . S
O176 C179 1.258 . S
C177 O174 1.320 . S
C177 O175 1.214 . S
O178 Cd170 2.277 . S
O178 C173 1.209 . S
C179 O176 1.258 . S
C179 O181 1.282 . S
O180 Cd172 2.277 . S
O180 C173 1.226 . S
O181 Cd172 2.356 . S
O181 C179 1.282 . S
C182 O183 1.306 . S
C182 O185 1.160 . S
O183 C182 1.306 . S
O183 Cd184 2.228 . S
Cd184 O183 2.228 . S
Cd184 O188 2.273 . S
Cd184 O192 2.277 1_655 S
O185 C182 1.160 . S
O185 Cd186 2.203 1_655 S
Cd186 O185 2.203 1_455 S
Cd186 O188 2.411 1_455 S
Cd186 O189 2.333 . S
Cd186 O190 2.352 1_455 S
Cd186 O194 2.277 . S
Cd186 O195 2.356 . S
C187 O192 1.209 . S
C187 O194 1.226 . S
O188 Cd184 2.273 . S
O188 Cd186 2.411 1_655 S
O188 C191 1.320 1_655 S
O189 Cd186 2.333 . S
O189 C191 1.214 . S
O190 Cd186 2.352 1_655 S
O190 C193 1.258 . S
C191 O188 1.320 1_455 S
C191 O189 1.214 . S
O192 Cd184 2.277 1_455 S
O192 C187 1.209 . S
C193 O190 1.258 . S
C193 O195 1.282 1_655 S
O194 Cd186 2.277 . S
O194 C187 1.226 . S
O195 Cd186 2.356 . S
O195 C193 1.282 1_455 S
C196 O197 1.306 . S
C196 O199 1.160 . S
O197 C196 1.306 . S
O197 Cd198 2.228 . S
Cd198 O197 2.228 . S
Cd198 O202 2.273 . S
Cd198 O206 2.277 . S
O199 C196 1.160 . S
O199 Cd200 2.203 . S
Cd200 O199 2.203 . S
Cd200 O202 2.411 . S
Cd200 O203 2.333 . S
Cd200 O204 2.352 . S
Cd200 O208 2.277 . S
Cd200 O209 2.356 . S
C201 O206 1.209 . S
C201 O208 1.226 . S
O202 Cd198 2.273 . S
O202 Cd200 2.411 . S
O202 C205 1.320 . S
O203 Cd200 2.333 . S
O203 C205 1.214 . S
O204 Cd200 2.352 . S
O204 C207 1.258 . S
C205 O202 1.320 . S
C205 O203 1.214 . S
O206 Cd198 2.277 . S
O206 C201 1.209 . S
C207 O204 1.258 . S
C207 O209 1.282 . S
O208 Cd200 2.277 . S
O208 C201 1.226 . S
O209 Cd200 2.356 . S
O209 C207 1.282 . S
C210 O211 1.306 . S
C210 O213 1.160 . S
O211 C210 1.306 . S
O211 Cd212 2.228 . S
Cd212 O211 2.228 . S
Cd212 O216 2.273 . S
Cd212 O220 2.277 1_655 S
O213 C210 1.160 . S
O213 Cd214 2.203 1_655 S
Cd214 O213 2.203 1_455 S
Cd214 O216 2.411 1_455 S
Cd214 O217 2.333 . S
Cd214 O218 2.352 1_455 S
Cd214 O222 2.277 . S
Cd214 O223 2.356 . S
C215 O220 1.209 . S
C215 O222 1.226 . S
O216 Cd212 2.273 . S
O216 Cd214 2.411 1_655 S
O216 C219 1.320 1_655 S
O217 Cd214 2.333 . S
O217 C219 1.214 . S
O218 Cd214 2.352 1_655 S
O218 C221 1.258 . S
C219 O216 1.320 1_455 S
C219 O217 1.214 . S
O220 Cd212 2.277 1_455 S
O220 C215 1.209 . S
C221 O218 1.258 . S
C221 O223 1.282 1_655 S
O222 Cd214 2.277 . S
O222 C215 1.226 . S
O223 Cd214 2.356 . S
O223 C221 1.282 1_455 S
C224 C225 1.369 . S
C224 C226 1.419 . S
C224 H228 0.930 . S
C225 C224 1.369 . S
C225 C234 1.429 1_455 S
C226 C224 1.419 . S
C226 C227 1.363 1_455 S
C226 H229 0.929 . S
C227 C226 1.363 1_655 S
C227 C233 1.428 . S
H228 C224 0.930 . S
H229 C226 0.929 . S
S230 N231 1.613 . S
S230 N232 1.610 . S
N231 S230 1.613 . S
N231 C234 1.350 . S
N232 S230 1.610 . S
N232 C233 1.351 . S
C233 C227 1.428 . S
C233 N232 1.351 . S
C233 C234 1.434 . S
C234 C225 1.429 1_655 S
C234 N231 1.350 . S
C234 C233 1.434 . S
C235 C236 1.369 . S
C235 C237 1.419 1_655 S
C235 H239 0.930 . S
C236 C235 1.369 . S
C236 C245 1.429 . S
C237 C235 1.419 1_455 S
C237 C238 1.363 . S
C237 H240 0.929 . S
C238 C237 1.363 . S
C238 C244 1.428 . S
H239 C235 0.930 . S
H240 C237 0.929 . S
S241 N242 1.613 . S
S241 N243 1.610 1_655 S
N242 S241 1.613 . S
N242 C245 1.350 . S
N243 S241 1.610 1_455 S
N243 C244 1.351 . S
C244 C238 1.428 . S
C244 N243 1.351 . S
C244 C245 1.434 1_455 S
C245 C236 1.429 . S
C245 N242 1.350 . S
C245 C244 1.434 1_655 S
C246 C247 1.369 . S
C246 C248 1.419 . S
C246 H250 0.930 . S
C247 C246 1.369 . S
C247 C256 1.429 . S
C248 C246 1.419 . S
C248 C249 1.363 . S
C248 H251 0.929 . S
C249 C248 1.363 . S
C249 C255 1.428 . S
H250 C246 0.930 . S
H251 C248 0.929 . S
S252 N253 1.613 . S
S252 N254 1.610 . S
N253 S252 1.613 . S
N253 C256 1.350 . S
N254 S252 1.610 . S
N254 C255 1.351 . S
C255 C249 1.428 . S
C255 N254 1.351 . S
C255 C256 1.434 . S
C256 C247 1.429 . S
C256 N253 1.350 . S
C256 C255 1.434 . S
C257 C258 1.369 . S
C257 C259 1.419 . S
C257 H261 0.930 . S
C258 C257 1.369 . S
C258 C267 1.429 . S
C259 C257 1.419 . S
C259 C260 1.363 . S
C259 H262 0.929 . S
C260 C259 1.363 . S
C260 C266 1.428 . S
H261 C257 0.930 . S
H262 C259 0.929 . S
S263 N264 1.613 . S
S263 N265 1.610 . S
N264 S263 1.613 . S
N264 C267 1.350 . S
N265 S263 1.610 . S
N265 C266 1.351 . S
C266 C260 1.428 . S
C266 N265 1.351 . S
C266 C267 1.434 . S
C267 C258 1.429 . S
C267 N264 1.350 . S
C267 C266 1.434 . S
C268 C269 1.369 1_655 S
C268 C270 1.419 . S
C268 H272 0.930 . S
C269 C268 1.369 1_455 S
C269 C278 1.429 . S
C270 C268 1.419 . S
C270 C271 1.363 . S
C270 H273 0.929 . S
C271 C270 1.363 . S
C271 C277 1.428 1_655 S
H272 C268 0.930 . S
H273 C270 0.929 . S
S274 N275 1.613 . S
S274 N276 1.610 . S
N275 S274 1.613 . S
N275 C278 1.350 . S
N276 S274 1.610 . S
N276 C277 1.351 . S
C277 C271 1.428 1_455 S
C277 N276 1.351 . S
C277 C278 1.434 . S
C278 C269 1.429 . S
C278 N275 1.350 . S
C278 C277 1.434 . S
C279 C280 1.369 . S
C279 C281 1.419 . S
C279 H283 0.930 . S
C280 C279 1.369 . S
C280 C289 1.429 . S
C281 C279 1.419 . S
C281 C282 1.363 . S
C281 H284 0.929 . S
C282 C281 1.363 . S
C282 C288 1.428 . S
H283 C279 0.930 . S
H284 C281 0.929 . S
S285 N286 1.613 . S
S285 N287 1.610 . S
N286 S285 1.613 . S
N286 C289 1.350 . S
N287 S285 1.610 . S
N287 C288 1.351 . S
C288 C282 1.428 . S
C288 N287 1.351 . S
C288 C289 1.434 . S
C289 C280 1.429 . S
C289 N286 1.350 . S
C289 C288 1.434 . S
C290 C291 1.369 . S
C290 C292 1.419 . S
C290 H294 0.930 . S
C291 C290 1.369 . S
C291 C300 1.429 . S
C292 C290 1.419 . S
C292 C293 1.363 . S
C292 H295 0.929 . S
C293 C292 1.363 . S
C293 C299 1.428 . S
H294 C290 0.930 . S
H295 C292 0.929 . S
S296 N297 1.613 . S
S296 N298 1.610 . S
N297 S296 1.613 . S
N297 C300 1.350 . S
N298 S296 1.610 . S
N298 C299 1.351 . S
C299 C293 1.428 . S
C299 N298 1.351 . S
C299 C300 1.434 . S
C300 C291 1.429 . S
C300 N297 1.350 . S
C300 C299 1.434 . S
C301 C302 1.369 . S
C301 C303 1.419 1_455 S
C301 H305 0.930 . S
C302 C301 1.369 . S
C302 C311 1.429 . S
C303 C301 1.419 1_655 S
C303 C304 1.363 . S
C303 H306 0.929 . S
C304 C303 1.363 . S
C304 C310 1.428 . S
H305 C301 0.930 . S
H306 C303 0.929 . S
S307 N308 1.613 1_655 S
S307 N309 1.610 . S
N308 S307 1.613 1_455 S
N308 C311 1.350 . S
N309 S307 1.610 . S
N309 C310 1.351 . S
C310 C304 1.428 . S
C310 N309 1.351 . S
C310 C311 1.434 1_655 S
C311 C302 1.429 . S
C311 N308 1.350 . S
C311 C310 1.434 1_455 S
C312 C313 1.369 1_545 S
C312 C314 1.419 . S
C312 H316 0.930 . S
C313 C312 1.369 1_565 S
C313 C322 1.429 1_655 S
C314 C312 1.419 . S
C314 C315 1.363 . S
C314 H317 0.929 . S
C315 C314 1.363 . S
C315 C321 1.428 1_645 S
H316 C312 0.930 . S
H317 C314 0.929 . S
S318 N319 1.613 . S
S318 N320 1.610 . S
N319 S318 1.613 . S
N319 C322 1.350 . S
N320 S318 1.610 . S
N320 C321 1.351 . S
C321 C315 1.428 1_465 S
C321 N320 1.351 . S
C321 C322 1.434 . S
C322 C313 1.429 1_455 S
C322 N319 1.350 . S
C322 C321 1.434 . S
C323 C324 1.369 . S
C323 C325 1.419 . S
C323 H327 0.930 . S
C324 C323 1.369 . S
C324 C333 1.429 . S
C325 C323 1.419 . S
C325 C326 1.363 . S
C325 H328 0.929 . S
C326 C325 1.363 . S
C326 C332 1.428 . S
H327 C323 0.930 . S
H328 C325 0.929 . S
S329 N330 1.613 . S
S329 N331 1.610 . S
N330 S329 1.613 . S
N330 C333 1.350 . S
N331 S329 1.610 . S
N331 C332 1.351 . S
C332 C326 1.428 . S
C332 N331 1.351 . S
C332 C333 1.434 . S
C333 C324 1.429 . S
C333 N330 1.350 . S
C333 C332 1.434 . S
C334 C335 1.369 1_545 S
C334 C336 1.419 1_554 S
C334 H338 0.930 . S
C335 C334 1.369 1_565 S
C335 C344 1.429 . S
C336 C334 1.419 1_556 S
C336 C337 1.363 . S
C336 H339 0.929 . S
C337 C336 1.363 . S
C337 C343 1.428 1_545 S
H338 C334 0.930 . S
H339 C336 0.929 . S
S340 N341 1.613 1_556 S
S340 N342 1.610 . S
N341 S340 1.613 1_554 S
N341 C344 1.350 . S
N342 S340 1.610 . S
N342 C343 1.351 . S
C343 C337 1.428 1_565 S
C343 N342 1.351 . S
C343 C344 1.434 1_556 S
C344 C335 1.429 . S
C344 N341 1.350 . S
C344 C343 1.434 1_554 S
C345 C346 1.369 . S
C345 C347 1.419 . S
C345 H349 0.930 . S
C346 C345 1.369 . S
C346 C355 1.429 . S
C347 C345 1.419 . S
C347 C348 1.363 . S
C347 H350 0.929 . S
C348 C347 1.363 . S
C348 C354 1.428 . S
H349 C345 0.930 . S
H350 C347 0.929 . S
S351 N352 1.613 . S
S351 N353 1.610 . S
N352 S351 1.613 . S
N352 C355 1.350 . S
N353 S351 1.610 . S
N353 C354 1.351 . S
C354 C348 1.428 . S
C354 N353 1.351 . S
C354 C355 1.434 . S
C355 C346 1.429 . S
C355 N352 1.350 . S
C355 C354 1.434 . S
C356 C357 1.369 . S
C356 C358 1.419 . S
C356 H360 0.930 . S
C357 C356 1.369 . S
C357 C366 1.429 . S
C358 C356 1.419 . S
C358 C359 1.363 . S
C358 H361 0.929 . S
C359 C358 1.363 . S
C359 C365 1.428 . S
H360 C356 0.930 . S
H361 C358 0.929 . S
S362 N363 1.613 . S
S362 N364 1.610 . S
N363 S362 1.613 . S
N363 C366 1.350 . S
N364 S362 1.610 . S
N364 C365 1.351 . S
C365 C359 1.428 . S
C365 N364 1.351 . S
C365 C366 1.434 . S
C366 C357 1.429 . S
C366 N363 1.350 . S
C366 C365 1.434 . S
C367 C368 1.369 . S
C367 C369 1.419 . S
C367 H371 0.930 . S
C368 C367 1.369 . S
C368 C377 1.429 . S
C369 C367 1.419 . S
C369 C370 1.363 . S
C369 H372 0.929 . S
C370 C369 1.363 . S
C370 C376 1.428 . S
H371 C367 0.930 . S
H372 C369 0.929 . S
S373 N374 1.613 . S
S373 N375 1.610 . S
N374 S373 1.613 . S
N374 C377 1.350 . S
N375 S373 1.610 . S
N375 C376 1.351 . S
C376 C370 1.428 . S
C376 N375 1.351 . S
C376 C377 1.434 . S
C377 C368 1.429 . S
C377 N374 1.350 . S
C377 C376 1.434 . S
C378 C379 1.369 . S
C378 C380 1.419 1_556 S
C378 H382 0.930 . S
C379 C378 1.369 . S
C379 C388 1.429 . S
C380 C378 1.419 1_554 S
C380 C381 1.363 . S
C380 H383 0.929 . S
C381 C380 1.363 . S
C381 C387 1.428 . S
H382 C378 0.930 . S
H383 C380 0.929 . S
S384 N385 1.613 1_554 S
S384 N386 1.610 . S
N385 S384 1.613 1_556 S
N385 C388 1.350 . S
N386 S384 1.610 . S
N386 C387 1.351 . S
C387 C381 1.428 . S
C387 N386 1.351 . S
C387 C388 1.434 1_554 S
C388 C379 1.429 . S
C388 N385 1.350 . S
C388 C387 1.434 1_556 S
C389 C390 1.369 . S
C389 C391 1.419 . S
C389 H393 0.930 . S
C390 C389 1.369 . S
C390 C399 1.429 1_455 S
C391 C389 1.419 . S
C391 C392 1.363 . S
C391 H394 0.929 . S
C392 C391 1.363 . S
C392 C398 1.428 1_455 S
H393 C389 0.930 . S
H394 C391 0.929 . S
S395 N396 1.613 . S
S395 N397 1.610 . S
N396 S395 1.613 . S
N396 C399 1.350 . S
N397 S395 1.610 . S
N397 C398 1.351 . S
C398 C392 1.428 1_655 S
C398 N397 1.351 . S
C398 C399 1.434 . S
C399 C390 1.429 1_655 S
C399 N396 1.350 . S
C399 C398 1.434 . S
C400 C401 1.369 . S
C400 C402 1.419 . S
C400 H404 0.930 . S
C401 C400 1.369 . S
C401 C410 1.429 . S
C402 C400 1.419 . S
C402 C403 1.363 . S
C402 H405 0.929 . S
C403 C402 1.363 . S
C403 C409 1.428 . S
H404 C400 0.930 . S
H405 C402 0.929 . S
S406 N407 1.613 . S
S406 N408 1.610 . S
N407 S406 1.613 . S
N407 C410 1.350 . S
N408 S406 1.610 . S
N408 C409 1.351 . S
C409 C403 1.428 . S
C409 N408 1.351 . S
C409 C410 1.434 . S
C410 C401 1.429 . S
C410 N407 1.350 . S
C410 C409 1.434 . S
C411 C412 1.369 . S
C411 C413 1.419 . S
C411 H415 0.930 . S
C412 C411 1.369 . S
C412 C421 1.429 . S
C413 C411 1.419 . S
C413 C414 1.363 . S
C413 H416 0.929 . S
C414 C413 1.363 . S
C414 C420 1.428 . S
H415 C411 0.930 . S
H416 C413 0.929 . S
S417 N418 1.613 1_545 S
S417 N419 1.610 . S
N418 S417 1.613 1_565 S
N418 C421 1.350 . S
N419 S417 1.610 . S
N419 C420 1.351 1_545 S
C420 C414 1.428 . S
C420 N419 1.351 1_565 S
C420 C421 1.434 . S
C421 C412 1.429 . S
C421 N418 1.350 . S
C421 C420 1.434 . S
C422 C423 1.369 . S
C422 C424 1.419 . S
C422 H426 0.930 . S
C423 C422 1.369 . S
C423 C432 1.429 . S
C424 C422 1.419 . S
C424 C425 1.363 . S
C424 H427 0.929 . S
C425 C424 1.363 . S
C425 C431 1.428 . S
H426 C422 0.930 . S
H427 C424 0.929 . S
S428 N429 1.613 . S
S428 N430 1.610 . S
N429 S428 1.613 . S
N429 C432 1.350 . S
N430 S428 1.610 . S
N430 C431 1.351 . S
C431 C425 1.428 . S
C431 N430 1.351 . S
C431 C432 1.434 . S
C432 C423 1.429 . S
C432 N429 1.350 . S
C432 C431 1.434 . S
C433 C434 1.369 . S
C433 C435 1.419 . S
C433 H437 0.930 . S
C434 C433 1.369 . S
C434 C443 1.429 . S
C435 C433 1.419 . S
C435 C436 1.363 . S
C435 H438 0.929 . S
C436 C435 1.363 . S
C436 C442 1.428 . S
H437 C433 0.930 . S
H438 C435 0.929 . S
S439 N440 1.613 . S
S439 N441 1.610 . S
N440 S439 1.613 . S
N440 C443 1.350 . S
N441 S439 1.610 . S
N441 C442 1.351 . S
C442 C436 1.428 . S
C442 N441 1.351 . S
C442 C443 1.434 . S
C443 C434 1.429 . S
C443 N440 1.350 . S
C443 C442 1.434 . S
C444 C445 1.369 . S
C444 C446 1.419 . S
C444 H448 0.930 . S
C445 C444 1.369 . S
C445 C454 1.429 . S
C446 C444 1.419 . S
C446 C447 1.363 . S
C446 H449 0.929 . S
C447 C446 1.363 . S
C447 C453 1.428 . S
H448 C444 0.930 . S
H449 C446 0.929 . S
S450 N451 1.613 . S
S450 N452 1.610 . S
N451 S450 1.613 . S
N451 C454 1.350 . S
N452 S450 1.610 . S
N452 C453 1.351 . S
C453 C447 1.428 . S
C453 N452 1.351 . S
C453 C454 1.434 . S
C454 C445 1.429 . S
C454 N451 1.350 . S
C454 C453 1.434 . S
C455 C456 1.369 . S
C455 C457 1.419 . S
C455 H459 0.930 . S
C456 C455 1.369 . S
C456 C465 1.429 . S
C457 C455 1.419 . S
C457 C458 1.363 . S
C457 H460 0.929 . S
C458 C457 1.363 . S
C458 C464 1.428 . S
H459 C455 0.930 . S
H460 C457 0.929 . S
S461 N462 1.613 . S
S461 N463 1.610 . S
N462 S461 1.613 . S
N462 C465 1.350 . S
N463 S461 1.610 . S
N463 C464 1.351 . S
C464 C458 1.428 . S
C464 N463 1.351 . S
C464 C465 1.434 . S
C465 C456 1.429 . S
C465 N462 1.350 . S
C465 C464 1.434 . S
C466 C467 1.369 . S
C466 C468 1.419 . S
C466 H470 0.930 . S
C467 C466 1.369 . S
C467 C476 1.429 . S
C468 C466 1.419 . S
C468 C469 1.363 . S
C468 H471 0.929 . S
C469 C468 1.363 . S
C469 C475 1.428 . S
H470 C466 0.930 . S
H471 C468 0.929 . S
S472 N473 1.613 1_545 S
S472 N474 1.610 . S
N473 S472 1.613 1_565 S
N473 C476 1.350 . S
N474 S472 1.610 . S
N474 C475 1.351 1_545 S
C475 C469 1.428 . S
C475 N474 1.351 1_565 S
C475 C476 1.434 . S
C476 C467 1.429 . S
C476 N473 1.350 . S
C476 C475 1.434 . S
C477 C478 1.369 . S
C477 C479 1.419 . S
C477 H481 0.930 . S
C478 C477 1.369 . S
C478 C487 1.429 . S
C479 C477 1.419 . S
C479 C480 1.363 . S
C479 H482 0.929 . S
C480 C479 1.363 . S
C480 C486 1.428 . S
H481 C477 0.930 . S
H482 C479 0.929 . S
S483 N484 1.613 . S
S483 N485 1.610 . S
N484 S483 1.613 . S
N484 C487 1.350 . S
N485 S483 1.610 . S
N485 C486 1.351 . S
C486 C480 1.428 . S
C486 N485 1.351 . S
C486 C487 1.434 . S
C487 C478 1.429 . S
C487 N484 1.350 . S
C487 C486 1.434 . S
C488 C489 1.369 . S
C488 C490 1.419 . S
C488 H492 0.930 . S
C489 C488 1.369 . S
C489 C498 1.429 . S
C490 C488 1.419 . S
C490 C491 1.363 . S
C490 H493 0.929 . S
C491 C490 1.363 . S
C491 C497 1.428 . S
H492 C488 0.930 . S
H493 C490 0.929 . S
S494 N495 1.613 . S
S494 N496 1.610 . S
N495 S494 1.613 . S
N495 C498 1.350 . S
N496 S494 1.610 . S
N496 C497 1.351 . S
C497 C491 1.428 . S
C497 N496 1.351 . S
C497 C498 1.434 . S
C498 C489 1.429 . S
C498 N495 1.350 . S
C498 C497 1.434 . S
C499 C500 1.369 . S
C499 C501 1.419 . S
C499 H503 0.930 . S
C500 C499 1.369 . S
C500 C509 1.429 . S
C501 C499 1.419 . S
C501 C502 1.363 . S
C501 H504 0.929 . S
C502 C501 1.363 . S
C502 C508 1.428 . S
H503 C499 0.930 . S
H504 C501 0.929 . S
S505 N506 1.613 . S
S505 N507 1.610 . S
N506 S505 1.613 . S
N506 C509 1.350 . S
N507 S505 1.610 . S
N507 C508 1.351 . S
C508 C502 1.428 . S
C508 N507 1.351 . S
C508 C509 1.434 . S
C509 C500 1.429 . S
C509 N506 1.350 . S
C509 C508 1.434 . S
C510 C511 1.369 . S
C510 C512 1.419 . S
C510 H514 0.930 . S
C511 C510 1.369 . S
C511 C520 1.429 . S
C512 C510 1.419 . S
C512 C513 1.363 . S
C512 H515 0.929 . S
C513 C512 1.363 . S
C513 C519 1.428 . S
H514 C510 0.930 . S
H515 C512 0.929 . S
S516 N517 1.613 . S
S516 N518 1.610 . S
N517 S516 1.613 . S
N517 C520 1.350 . S
N518 S516 1.610 . S
N518 C519 1.351 . S
C519 C513 1.428 . S
C519 N518 1.351 . S
C519 C520 1.434 . S
C520 C511 1.429 . S
C520 N517 1.350 . S
C520 C519 1.434 . S
C521 C522 1.369 . S
C521 C523 1.419 . S
C521 H525 0.930 . S
C522 C521 1.369 . S
C522 C531 1.429 . S
C523 C521 1.419 . S
C523 C524 1.363 . S
C523 H526 0.929 . S
C524 C523 1.363 . S
C524 C530 1.428 . S
H525 C521 0.930 . S
H526 C523 0.929 . S
S527 N528 1.613 . S
S527 N529 1.610 . S
N528 S527 1.613 . S
N528 C531 1.350 . S
N529 S527 1.610 . S
N529 C530 1.351 . S
C530 C524 1.428 . S
C530 N529 1.351 . S
C530 C531 1.434 . S
C531 C522 1.429 . S
C531 N528 1.350 . S
C531 C530 1.434 . S
C532 C533 1.369 . S
C532 C534 1.419 . S
C532 H536 0.930 . S
C533 C532 1.369 . S
C533 C542 1.429 . S
C534 C532 1.419 . S
C534 C535 1.363 . S
C534 H537 0.929 . S
C535 C534 1.363 . S
C535 C541 1.428 . S
H536 C532 0.930 . S
H537 C534 0.929 . S
S538 N539 1.613 . S
S538 N540 1.610 . S
N539 S538 1.613 . S
N539 C542 1.350 . S
N540 S538 1.610 . S
N540 C541 1.351 . S
C541 C535 1.428 . S
C541 N540 1.351 . S
C541 C542 1.434 . S
C542 C533 1.429 . S
C542 N539 1.350 . S
C542 C541 1.434 . S
C543 C544 1.369 . S
C543 C545 1.419 . S
C543 H547 0.930 . S
C544 C543 1.369 . S
C544 C553 1.429 . S
C545 C543 1.419 . S
C545 C546 1.363 . S
C545 H548 0.929 . S
C546 C545 1.363 . S
C546 C552 1.428 . S
H547 C543 0.930 . S
H548 C545 0.929 . S
S549 N550 1.613 . S
S549 N551 1.610 . S
N550 S549 1.613 . S
N550 C553 1.350 . S
N551 S549 1.610 . S
N551 C552 1.351 . S
C552 C546 1.428 . S
C552 N551 1.351 . S
C552 C553 1.434 . S
C553 C544 1.429 . S
C553 N550 1.350 . S
C553 C552 1.434 . S
C554 C555 1.369 . S
C554 C556 1.419 . S
C554 H558 0.930 . S
C555 C554 1.369 . S
C555 C564 1.429 . S
C556 C554 1.419 . S
C556 C557 1.363 . S
C556 H559 0.929 . S
C557 C556 1.363 . S
C557 C563 1.428 . S
H558 C554 0.930 . S
H559 C556 0.929 . S
S560 N561 1.613 . S
S560 N562 1.610 . S
N561 S560 1.613 . S
N561 C564 1.350 . S
N562 S560 1.610 . S
N562 C563 1.351 . S
C563 C557 1.428 . S
C563 N562 1.351 . S
C563 C564 1.434 . S
C564 C555 1.429 . S
C564 N561 1.350 . S
C564 C563 1.434 . S
C565 C566 1.369 . S
C565 C567 1.419 . S
C565 H569 0.930 . S
C566 C565 1.369 . S
C566 C575 1.429 . S
C567 C565 1.419 . S
C567 C568 1.363 . S
C567 H570 0.929 . S
C568 C567 1.363 . S
C568 C574 1.428 . S
H569 C565 0.930 . S
H570 C567 0.929 . S
S571 N572 1.613 . S
S571 N573 1.610 . S
N572 S571 1.613 . S
N572 C575 1.350 . S
N573 S571 1.610 . S
N573 C574 1.351 . S
C574 C568 1.428 . S
C574 N573 1.351 . S
C574 C575 1.434 . S
C575 C566 1.429 . S
C575 N572 1.350 . S
C575 C574 1.434 . S
C225 C11 1.335 . S
C227 C193 1.340 . S
C236 C165 1.334 . S
C238 C25 1.342 . S
C247 C179 1.337 . S
C249 C39 1.340 . S
C258 C151 1.343 . S
C260 C53 1.336 . S
C269 C67 1.342 . S
C271 C221 1.335 . S
C280 C81 1.340 . S
C282 C137 1.338 . S
C291 C207 1.336 . S
C293 C95 1.341 . S
C302 C109 1.343 . S
C304 C123 1.335 . S
C313 C65 1.617 . S
C315 C9 1.617 . S
C324 C23 1.618 . S
C326 C79 1.617 . S
C335 C37 1.618 . S
C337 C93 1.618 . S
C346 C107 1.617 . S
C348 C51 1.617 . S
C357 C121 1.617 . S
C359 C149 1.617 . S
C368 C135 1.617 . S
C370 C163 1.617 . S
C379 C205 1.617 . S
C381 C177 1.618 . S
C390 C191 1.617 . S
C392 C219 1.617 . S
C401 C70 1.482 . S
C403 C0 1.477 . S
C412 C14 1.483 . S
C414 C84 1.484 . S
C423 C28 1.480 . S
C425 C98 1.485 . S
C434 C56 1.477 . S
C436 C42 1.480 . S
C445 C61 1.324 . S
C447 C145 1.327 . S
C456 C33 1.327 . S
C458 C117 1.328 . S
C467 C159 1.327 . S
C469 C89 1.328 . S
C478 C131 1.323 . S
C480 C5 1.328 . S
C489 C112 1.486 . S
C491 C168 1.479 . S
C500 C140 1.478 . S
C502 C210 1.485 . S
C511 C182 1.482 . S
C513 C126 1.477 . S
C522 C154 1.476 . S
C524 C196 1.480 . S
C533 C201 1.324 . S
C535 C19 1.329 . S
C544 C187 1.329 . S
C546 C75 1.325 . S
C555 C215 1.326 . S
C557 C47 1.328 . S
C566 C173 1.324 . S
C568 C103 1.329 . S
