# Generated by pormake.
# Topology wjf, (4)-cn, num edge types: 1
# Building blocks:
#     Node 0, Type 0, BuildingBlock: TATPOV_clean_sbu_0, # of connection points: 4
#     Node 1, Type 0, BuildingBlock: TATPOV_clean_sbu_0, # of connection points: 4
#     Node 2, Type 0, BuildingBlock: TATPOV_clean_sbu_0, # of connection points: 4
#     Node 3, Type 0, BuildingBlock: TATPOV_clean_sbu_0, # of connection points: 4
#     Node 4, Type 0, BuildingBlock: TATPOV_clean_sbu_0, # of connection points: 4
#     Node 5, Type 0, BuildingBlock: TATPOV_clean_sbu_0, # of connection points: 4
#     Node 6, Type 0, BuildingBlock: TATPOV_clean_sbu_0, # of connection points: 4
#     Node 7, Type 0, BuildingBlock: TATPOV_clean_sbu_0, # of connection points: 4
#     Node 8, Type 0, BuildingBlock: TATPOV_clean_sbu_0, # of connection points: 4
#     Node 9, Type 0, BuildingBlock: TATPOV_clean_sbu_0, # of connection points: 4
#     Node 10, Type 0, BuildingBlock: TATPOV_clean_sbu_0, # of connection points: 4
#     Node 11, Type 0, BuildingBlock: TATPOV_clean_sbu_0, # of connection points: 4
#     Edge 12, Type (0, 0), BuildingBlock: AJUNOK_clean_linker_0, # of connection points: 2
#     Edge 13, Type (0, 0), BuildingBlock: AJUNOK_clean_linker_0, # of connection points: 2
#     Edge 14, Type (0, 0), BuildingBlock: AJUNOK_clean_linker_0, # of connection points: 2
#     Edge 15, Type (0, 0), BuildingBlock: AJUNOK_clean_linker_0, # of connection points: 2
#     Edge 16, Type (0, 0), BuildingBlock: AJUNOK_clean_linker_0, # of connection points: 2
#     Edge 17, Type (0, 0), BuildingBlock: AJUNOK_clean_linker_0, # of connection points: 2
#     Edge 18, Type (0, 0), BuildingBlock: AJUNOK_clean_linker_0, # of connection points: 2
#     Edge 19, Type (0, 0), BuildingBlock: AJUNOK_clean_linker_0, # of connection points: 2
#     Edge 20, Type (0, 0), BuildingBlock: AJUNOK_clean_linker_0, # of connection points: 2
#     Edge 21, Type (0, 0), BuildingBlock: AJUNOK_clean_linker_0, # of connection points: 2
#     Edge 22, Type (0, 0), BuildingBlock: AJUNOK_clean_linker_0, # of connection points: 2
#     Edge 23, Type (0, 0), BuildingBlock: AJUNOK_clean_linker_0, # of connection points: 2
#     Edge 24, Type (0, 0), BuildingBlock: AJUNOK_clean_linker_0, # of connection points: 2
#     Edge 25, Type (0, 0), BuildingBlock: AJUNOK_clean_linker_0, # of connection points: 2
#     Edge 26, Type (0, 0), BuildingBlock: AJUNOK_clean_linker_0, # of connection points: 2
#     Edge 27, Type (0, 0), BuildingBlock: AJUNOK_clean_linker_0, # of connection points: 2
#     Edge 28, Type (0, 0), BuildingBlock: AJUNOK_clean_linker_0, # of connection points: 2
#     Edge 29, Type (0, 0), BuildingBlock: AJUNOK_clean_linker_0, # of connection points: 2
#     Edge 30, Type (0, 0), BuildingBlock: AJUNOK_clean_linker_0, # of connection points: 2
#     Edge 31, Type (0, 0), BuildingBlock: AJUNOK_clean_linker_0, # of connection points: 2
#     Edge 32, Type (0, 0), BuildingBlock: AJUNOK_clean_linker_0, # of connection points: 2
#     Edge 33, Type (0, 0), BuildingBlock: AJUNOK_clean_linker_0, # of connection points: 2
#     Edge 34, Type (0, 0), BuildingBlock: AJUNOK_clean_linker_0, # of connection points: 2
#     Edge 35, Type (0, 0), BuildingBlock: AJUNOK_clean_linker_0, # of connection points: 2
# Relax obj value: 0.223
# Max RMSD: 0.251
# Mean RMSD: 0.251
data_MOF--net-wjf--node1-TATPOV_clean_sbu_0--edge1-AJUNOK_clean_linker_0
_symmetry_space_group_name_H-M    P1
_symmetry_Int_Tables_number       1
_symmetry_cell_setting            triclinic
loop_
_symmetry_equiv_pos_as_xyz
'x, y, z'
_cell_length_a     37.645303
_cell_length_b     37.664893
_cell_length_c     20.277639
_cell_angle_alpha  89.933422
_cell_angle_beta   90.143565
_cell_angle_gamma 120.07999
loop_
_atom_site_label
_atom_site_type_symbol
_atom_site_fract_x
_atom_site_fract_y
_atom_site_fract_z
_atom_type_partial_charge
Zn0 Zn 0.37765 0.33409 0.05954 0.0
Zn1 Zn 0.3327 0.37215 0.04596 0.0
O2 O 0.32174 0.35363 0.14087 0.0
O3 O 0.33997 0.30633 0.13787 0.0
O4 O 0.29726 0.39542 0.0135 0.0
O5 O 0.36254 0.31725 0.96318 0.0
O6 O 0.30958 0.32411 -0.01415 0.0
C7 C 0.32415 0.3244 0.16844 0.0
C8 C 0.42536 0.42101 0.05256 0.0
O9 O 0.39196 0.41766 0.03133 0.0
O10 O 0.42643 0.39044 0.07611 0.0
C11 C 0.27927 0.41222 0.04145 0.0
O12 O 0.28325 0.4183 0.10549 0.0
C13 C 0.32825 0.31306 0.94672 0.0
Zn14 Zn 0.0383 0.37417 0.38776 0.0
Zn15 Zn 0.95259 0.33729 0.39195 0.0
O16 O 0.9629 0.3236 0.48557 0.0
O17 O 0.0304 0.35455 0.48038 0.0
O18 O 0.89151 0.30367 0.36774 0.0
O19 O 0.04067 0.33931 0.3162 0.0
O20 O 0.97469 0.31723 0.31912 0.0
C21 C 0.99749 0.33421 0.51254 0.0
C22 C 0.00624 0.42931 0.37088 0.0
O23 O 0.97122 0.39823 0.3834 0.0
O24 O 0.0382 0.42637 0.36658 0.0
C25 C 0.86421 0.27581 0.40394 0.0
O26 O 0.87361 0.27266 0.46523 0.0
C27 C 0.00512 0.31684 0.29286 0.0
Zn28 Zn 0.66497 0.03162 0.71933 0.0
Zn29 Zn 0.62491 0.94937 0.72077 0.0
O30 O 0.65464 0.96859 0.80962 0.0
O31 O 0.69266 0.03575 0.80558 0.0
O32 O 0.61133 0.89021 0.7102 0.0
O33 O 0.69293 0.03917 0.63185 0.0
O34 O 0.6538 0.9721 0.63339 0.0
C35 C 0.67993 0.00253 0.8369 0.0
C36 C 0.57307 0.98806 0.72126 0.0
O37 O 0.57351 0.95438 0.7222 0.0
O38 O 0.60658 0.0221 0.72013 0.0
C39 C 0.57721 0.85675 0.70773 0.0
O40 O 0.54306 0.85733 0.71781 0.0
C41 C 0.67891 0.00485 0.60361 0.0
Zn42 Zn 0.62195 0.66632 0.06355 0.0
Zn43 Zn 0.66685 0.62715 0.03912 0.0
O44 O 0.68224 0.64788 0.133 0.0
O45 O 0.65317 0.68544 0.14995 0.0
O46 O 0.70548 0.60807 0.00901 0.0
O47 O 0.6412 0.699 0.97854 0.0
O48 O 0.67643 0.66732 0.96698 0.0
C49 C 0.67498 0.67068 0.17026 0.0
C50 C 0.57534 0.57617 0.04633 0.0
O51 O 0.60954 0.57813 0.03556 0.0
O52 O 0.5732 0.6079 0.05992 0.0
C53 C 0.72301 0.59302 0.04326 0.0
O54 O 0.71465 0.58647 0.10645 0.0
C55 C 0.66614 0.69263 0.94612 0.0
Zn56 Zn 0.96645 0.62376 0.38231 0.0
Zn57 Zn 0.0472 0.67523 0.3866 0.0
O58 O 0.02785 0.68285 0.47778 0.0
O59 O 0.96254 0.63487 0.47682 0.0
O60 O 0.10646 0.72071 0.37475 0.0
O61 O 0.95452 0.65361 0.31296 0.0
O62 O 0.02172 0.68561 0.30561 0.0
C63 C 0.9932 0.6631 0.50676 0.0
C64 C 0.01563 0.58549 0.36247 0.0
O65 O 0.0456 0.62022 0.37946 0.0
O66 O 0.9798 0.58009 0.35631 0.0
C67 C 0.13789 0.71704 0.36508 0.0
O68 O 0.13417 0.68052 0.36918 0.0
C69 C 0.98709 0.67779 0.28264 0.0
Zn70 Zn 0.33438 0.96495 0.72709 0.0
Zn71 Zn 0.38078 0.04854 0.71333 0.0
O72 O 0.35854 0.04299 0.80736 0.0
O73 O 0.31935 0.97588 0.81629 0.0
O74 O 0.40693 0.10847 0.68443 0.0
O75 O 0.29833 0.95714 0.64915 0.0
O76 O 0.33756 0.02391 0.64073 0.0
C77 C 0.33412 0.01141 0.84096 0.0
C78 C 0.42229 0.99621 0.71243 0.0
O79 O 0.42494 0.03137 0.70971 0.0
O80 O 0.38747 0.96404 0.71763 0.0
C81 C 0.4158 0.14081 0.71686 0.0
O82 O 0.41251 0.13865 0.78143 0.0
C83 C 0.30766 0.99033 0.61988 0.0
Zn84 Zn 0.67091 0.62101 0.58081 0.0
Zn85 Zn 0.62448 0.67006 0.5658 0.0
O86 O 0.64988 0.67691 0.47608 0.0
O87 O 0.68665 0.64574 0.48764 0.0
O88 O 0.61367 0.71613 0.59016 0.0
O89 O 0.70307 0.65247 0.66637 0.0
O90 O 0.66123 0.67173 0.63251 0.0
C91 C 0.67413 0.66557 0.45294 0.0
C92 C 0.57527 0.58086 0.58392 0.0
O93 O 0.57518 0.61422 0.57385 0.0
O94 O 0.60832 0.57935 0.58826 0.0
C95 C 0.57961 0.71165 0.61001 0.0
O96 O 0.54707 0.67476 0.61004 0.0
C97 C 0.6853 0.67289 0.67641 0.0
Zn98 Zn 0.04446 0.67247 0.90171 0.0
Zn99 Zn 0.94923 0.61898 0.91091 0.0
O100 O 0.95592 0.64139 0.81953 0.0
O101 O 0.02344 0.68387 0.81451 0.0
O102 O 0.89348 0.60136 0.95156 0.0
O103 O 0.05091 0.70669 -0.01231 0.0
O104 O 0.98843 0.66028 0.96854 0.0
C105 C 0.9878 0.66782 0.78865 0.0
C106 C 0.99775 0.57689 0.91505 0.0
O107 O 0.96265 0.57423 0.91271 0.0
O108 O 0.03099 0.61153 0.9126 0.0
C109 C 0.86106 0.59074 0.91831 0.0
O110 O 0.86274 0.5892 0.85373 0.0
C111 C 0.01398 0.6873 0.00659 0.0
Zn112 Zn 0.37567 0.03623 0.25014 0.0
Zn113 Zn 0.32741 0.95061 0.23758 0.0
O114 O 0.32103 0.97202 0.14831 0.0
O115 O 0.35726 0.0394 0.15811 0.0
O116 O 0.28306 0.89066 0.24488 0.0
O117 O 0.34441 0.03804 0.33001 0.0
O118 O 0.31127 0.97131 0.31698 0.0
C119 C 0.33471 0.0078 0.12391 0.0
C120 C 0.41846 0.98813 0.25345 0.0
O121 O 0.38374 0.95581 0.2455 0.0
O122 O 0.42176 0.02324 0.25802 0.0
C123 C 0.28643 0.8606 0.26589 0.0
O124 O 0.32317 0.86565 0.27595 0.0
C125 C 0.31703 0.00278 0.34876 0.0
Zn126 Zn 0.33513 0.3771 0.57096 0.0
Zn127 Zn 0.38112 0.33348 0.57426 0.0
O128 O 0.35733 0.31735 0.4812 0.0
O129 O 0.32387 0.35178 0.48062 0.0
O130 O 0.40225 0.29665 0.61076 0.0
O131 O 0.29813 0.34726 0.64717 0.0
O132 O 0.3403 0.32328 0.64374 0.0
C133 C 0.33498 0.32909 0.45171 0.0
C134 C 0.42532 0.42583 0.58497 0.0
O135 O 0.42639 0.39288 0.57594 0.0
O136 O 0.39171 0.42585 0.58907 0.0
C137 C 0.41829 0.27881 0.58005 0.0
O138 O 0.42549 0.28581 0.51668 0.0
C139 C 0.31137 0.32526 0.67181 0.0
Zn140 Zn 0.97199 0.34001 0.91443 0.0
Zn141 Zn 0.05303 0.38146 0.91878 0.0
O142 O 0.04 0.3552 0.82612 0.0
O143 O 0.97239 0.32133 0.82363 0.0
O144 O 0.11389 0.40644 0.93853 0.0
O145 O 0.96421 0.30335 -0.01036 0.0
O146 O 0.03099 0.34238 -0.00233 0.0
C147 C 0.0063 0.33261 0.79543 0.0
C148 C 0.00671 0.42768 0.92788 0.0
O149 O 0.04099 0.42876 0.92309 0.0
O150 O 0.97347 0.39362 0.92802 0.0
C151 C 0.14343 0.41121 0.90217 0.0
O152 O 0.13667 0.40248 0.83908 0.0
C153 C 0.99725 0.31333 0.01982 0.0
Zn154 Zn 0.62107 0.95461 0.22473 0.0
Zn155 Zn 0.66861 0.05237 0.2371 0.0
O156 O 0.691 0.05134 0.14761 0.0
O157 O 0.64634 0.98513 0.14336 0.0
O158 O 0.70488 0.10586 0.288 0.0
O159 O 0.65509 0.94841 0.29893 0.0
O160 O 0.67132 0.01194 0.29144 0.0
C161 C 0.67227 0.01785 0.11556 0.0
C162 C 0.57491 0.99822 0.23965 0.0
O163 O 0.60726 0.03342 0.23184 0.0
O164 O 0.57569 0.96504 0.24555 0.0
C165 C 0.72513 0.14199 0.26453 0.0
O166 O 0.72017 0.14778 0.20208 0.0
C167 C 0.6723 0.98393 0.32366 0.0
C168 C 0.31371 0.34757 0.2772 0.0
C169 C 0.31759 0.31816 0.24042 0.0
C170 C 0.31789 0.34943 0.34551 0.0
C171 C 0.32593 0.32186 0.38044 0.0
H172 H 0.30992 0.37113 0.25303 0.0
H173 H 0.31678 0.37423 0.37061 0.0
S174 S 0.33115 0.2341 0.30884 0.0
N175 N 0.32412 0.25697 0.24467 0.0
N176 N 0.3326 0.26102 0.37412 0.0
C177 C 0.32701 0.29038 0.34509 0.0
C178 C 0.32242 0.28826 0.27492 0.0
C179 C 0.96526 0.30422 0.62172 0.0
C180 C 0.0007 0.32694 0.58355 0.0
C181 C 0.9678 0.30309 0.69053 0.0
C182 C 0.0058 0.3251 0.72373 0.0
H183 H 0.9352 0.28875 0.59875 0.0
H184 H 0.93939 0.28684 0.71794 0.0
S185 S 0.10828 0.38421 0.64574 0.0
N186 N 0.07556 0.36774 0.58364 0.0
N187 N 0.07993 0.36593 0.71256 0.0
C188 C 0.04168 0.34495 0.6858 0.0
C189 C 0.0392 0.3459 0.61581 0.0
C190 C 0.71053 0.04284 0.94008 0.0
C191 C 0.68704 0.00433 0.90891 0.0
C192 C 0.70781 0.04739 0.00815 0.0
C193 C 0.68187 0.01338 0.04692 0.0
H194 H 0.72884 0.07025 0.91115 0.0
H195 H 0.72416 0.07783 0.02956 0.0
S196 S 0.62102 0.90433 -0.00774 0.0
N197 N 0.6417 0.93077 0.92438 0.0
N198 N 0.63851 0.9386 0.05164 0.0
C199 C 0.66232 0.97397 0.01759 0.0
C200 C 0.66441 0.96954 0.94865 0.0
C201 C 0.68904 0.7064 0.27888 0.0
C202 C 0.68417 0.67284 0.24138 0.0
C203 C 0.6882 0.70492 0.34797 0.0
C204 C 0.68262 0.6699 0.38169 0.0
H205 H 0.69154 0.73321 0.25462 0.0
H206 H 0.6903 0.73067 0.37511 0.0
S207 S 0.66668 0.5732 0.30655 0.0
N208 N 0.67315 0.60342 0.24325 0.0
N209 N 0.67157 0.6007 0.37282 0.0
C210 C 0.67923 0.63672 0.34492 0.0
C211 C 0.68008 0.6382 0.27473 0.0
C212 C 0.95346 0.64044 0.68126 0.0
C213 C 0.98471 0.67306 0.71718 0.0
C214 C 0.95558 0.63872 0.61277 0.0
C215 C 0.98892 0.66966 0.57742 0.0
H216 H 0.92866 0.61441 0.70631 0.0
H217 H 0.93198 0.61163 0.58797 0.0
S218 S 0.07342 0.76627 0.6471 0.0
N219 N 0.04622 0.74036 0.71189 0.0
N220 N 0.05019 0.73713 0.58236 0.0
C221 C 0.01831 0.70433 0.61207 0.0
C222 C 0.01614 0.70608 0.68214 0.0
C223 C 0.30128 0.97751 0.01614 0.0
C224 C 0.32839 0.01231 0.0529 0.0
C225 C 0.30073 0.97866 0.94729 0.0
C226 C 0.32755 0.01458 0.91225 0.0
H227 H 0.28175 0.94846 0.0404 0.0
H228 H 0.2808 0.95033 0.92143 0.0
S229 S 0.39927 0.11613 -0.01453 0.0
N230 N 0.3787 0.08542 0.04944 0.0
N231 N 0.37775 0.08736 0.91978 0.0
C232 C 0.35198 0.05064 0.94843 0.0
C233 C 0.35245 0.04954 0.01883 0.0
C234 C 0.18741 0.42505 0.00291 0.0
C235 C 0.18245 0.41894 0.93411 0.0
C236 C 0.22006 0.42514 0.03661 0.0
C237 C 0.24924 0.41901 0.00314 0.0
H238 H 0.16488 0.42806 0.03175 0.0
H239 H 0.2212 0.42809 0.08981 0.0
S240 S 0.25473 0.4094 0.82131 0.0
N241 N 0.21283 0.41221 0.83259 0.0
N242 N 0.27418 0.41243 0.89557 0.0
C243 C 0.24652 0.41609 0.93363 0.0
C244 C 0.21323 0.41611 0.89926 0.0
C245 C 0.81143 0.24899 0.31263 0.0
C246 C 0.82561 0.24262 0.3734 0.0
C247 C 0.77803 0.21668 0.2793 0.0
C248 C 0.7575 0.17641 0.30483 0.0
H249 H 0.82679 0.27905 0.28983 0.0
H250 H 0.76893 0.22324 0.2322 0.0
S251 S 0.78319 0.14327 0.46212 0.0
N252 N 0.81637 0.19288 0.45785 0.0
N253 N 0.75426 0.13233 0.39548 0.0
C254 C 0.77092 0.16983 0.36635 0.0
C255 C 0.80472 0.20283 0.40046 0.0
C256 C 0.61337 0.82044 0.66657 0.0
C257 C 0.57657 0.81849 0.68636 0.0
C258 C 0.61387 0.78592 0.64198 0.0
C259 C 0.57761 0.74764 0.63616 0.0
H260 H 0.64225 0.84909 0.66909 0.0
H261 H 0.64312 0.78947 0.62729 0.0
S262 S 0.47314 0.72518 0.68424 0.0
N263 N 0.50289 0.77446 0.70054 0.0
N264 N 0.50381 0.70954 0.65465 0.0
C265 C 0.54061 0.74491 0.65703 0.0
C266 C 0.54009 0.78025 0.682 0.0
C267 C 0.76253 0.59318 0.94395 0.0
C268 C 0.75569 0.58737 0.01243 0.0
C269 C 0.79561 0.59242 0.9139 0.0
C270 C 0.82365 0.58622 0.95098 0.0
H271 H 0.74272 0.59939 0.91313 0.0
H272 H 0.80003 0.59833 0.86141 0.0
S273 S 0.81713 0.56489 0.13095 0.0
N274 N 0.77789 0.57173 0.11571 0.0
N275 N 0.84031 0.57065 0.05939 0.0
C276 C 0.81624 0.57857 0.01912 0.0
C277 C 0.78221 0.57899 0.04972 0.0
C278 C 0.17743 0.7898 0.32564 0.0
C279 C 0.17684 0.75312 0.34162 0.0
C280 C 0.21256 0.82369 0.29979 0.0
C281 C 0.24906 0.82278 0.28917 0.0
H282 H 0.15032 0.79245 0.33249 0.0
H283 H 0.21111 0.85111 0.28898 0.0
S284 S 0.26429 0.73439 0.32301 0.0
N285 N 0.21631 0.71801 0.34489 0.0
N286 N 0.28248 0.78191 0.2968 0.0
C287 C 0.24915 0.78642 0.30519 0.0
C288 C 0.21311 0.75163 0.33125 0.0
C289 C 0.42394 0.21148 0.71622 0.0
C290 C 0.4226 0.17853 0.68109 0.0
C291 C 0.4241 0.24454 0.68338 0.0
C292 C 0.42332 0.24632 0.61395 0.0
H293 H 0.42328 0.21113 0.76963 0.0
H294 H 0.4239 0.26844 0.71277 0.0
S295 S 0.42342 0.17006 0.49831 0.0
N296 N 0.42336 0.15158 0.57218 0.0
N297 N 0.42372 0.21342 0.51128 0.0
C298 C 0.42413 0.21473 0.57827 0.0
C299 C 0.42375 0.18098 0.61154 0.0
C300 C 0.29436 0.33471 0.78518 0.0
C301 C 0.30292 0.31168 0.74052 0.0
C302 C 0.30054 0.33279 0.85248 0.0
C303 C 0.31559 0.30791 0.8774 0.0
H304 H 0.2864 0.35701 0.76779 0.0
H305 H 0.29625 0.35324 0.88469 0.0
S306 S 0.33694 0.23731 0.78126 0.0
N307 N 0.32197 0.25926 0.72584 0.0
N308 N 0.33524 0.25701 0.85317 0.0
C309 C 0.32169 0.28271 0.83384 0.0
C310 C 0.31455 0.28401 0.76519 0.0
C311 C 0.03508 0.30897 0.18862 0.0
C312 C 1.00004 0.29881 0.22659 0.0
C313 C 0.03311 0.30867 0.11976 0.0
C314 C 0.99602 0.29794 0.08717 0.0
H315 H 0.06499 0.32161 0.21167 0.0
H316 H 0.06152 0.32082 0.09236 0.0
S317 S 0.89349 0.25651 0.16473 0.0
N318 N 0.92561 0.26779 0.22705 0.0
N319 N 0.92194 0.26775 0.09777 0.0
C320 C 0.95971 0.28108 0.12455 0.0
C321 C 0.96172 0.28126 0.19456 0.0
C322 C 0.71182 0.0013 0.49866 0.0
C323 C 0.68004 0.00309 0.53189 0.0
C324 C 0.70937 0.99438 0.43029 0.0
C325 C 0.675 0.98888 0.39474 0.0
H326 H 0.73808 0.00446 0.52573 0.0
H327 H 0.73419 0.99329 0.40528 0.0
S328 S 0.58471 0.99233 0.45921 0.0
N329 N 0.61403 0.99985 0.52443 0.0
N330 N 0.60956 0.98723 0.39631 0.0
C331 C 0.64363 0.99159 0.42737 0.0
C332 C 0.64611 0.99855 0.49616 0.0
C333 C 0.71686 0.70636 0.7839 0.0
C334 C 0.68259 0.68745 0.7422 0.0
C335 C 0.71238 0.71421 0.85001 0.0
C336 C 0.67351 0.70301 0.87606 0.0
H337 H 0.74677 0.71315 0.76632 0.0
H338 H 0.7388 0.72563 0.88241 0.0
S339 S 0.57434 0.65299 0.78618 0.0
N340 N 0.60876 0.65885 0.73057 0.0
N341 N 0.60059 0.67361 0.85448 0.0
C342 C 0.63957 0.68688 0.83343 0.0
C343 C 0.64402 0.6788 0.76648 0.0
C344 C 0.01474 0.72103 0.18258 0.0
C345 C 0.98498 0.68423 0.21201 0.0
C346 C 0.02297 0.72286 0.11485 0.0
C347 C 0.00182 0.68778 0.07523 0.0
H348 H 0.03359 0.7477 0.21286 0.0
H349 H 0.04719 0.75119 0.09407 0.0
S350 S 0.92335 0.58328 0.13049 0.0
N351 N 0.93479 0.61207 0.19702 0.0
N352 N 0.95084 0.61487 0.07095 0.0
C353 C 0.9709 0.65118 0.10397 0.0
C354 C 0.96217 0.6496 0.1722 0.0
C355 C 0.28297 0.95829 0.44531 0.0
C356 C 0.29811 0.99676 0.41452 0.0
C357 C 0.27982 0.95469 0.51382 0.0
C358 C 0.29153 0.98944 0.55328 0.0
H359 H 0.27801 0.93164 0.41743 0.0
H360 H 0.27314 0.92573 0.53569 0.0
S361 S 0.31365 0.0918 0.49506 0.0
N362 N 0.31126 0.06661 0.42695 0.0
N363 N 0.30461 0.05954 0.55651 0.0
C364 C 0.29841 0.02582 0.52255 0.0
C365 C 0.30202 0.02964 0.45265 0.0
C366 C 0.48446 0.4791 0.10825 0.0
C367 C 0.46326 0.46063 0.0497 0.0
C368 C 0.52106 0.51683 0.10664 0.0
C369 C 0.53774 0.53636 0.04635 0.0
H370 H 0.4724 0.46454 0.15546 0.0
H371 H 0.53648 0.53077 0.15262 0.0
S372 S 0.49502 0.49927 0.8796 0.0
N373 N 0.46164 0.46384 0.93016 0.0
N374 N 0.53149 0.53439 0.927 0.0
C375 C 0.51728 0.51787 -0.0125 0.0
C376 C 0.4796 0.47994 -0.01077 0.0
C377 C 0.01524 0.529 0.4232 0.0
C378 C 0.01985 0.54908 0.36282 0.0
C379 C 0.01056 0.48982 0.42522 0.0
C380 C 0.01076 0.46998 0.36691 0.0
H381 H 0.01355 0.54301 0.46887 0.0
H382 H 0.00642 0.4748 0.4725 0.0
S383 S 0.02383 0.51029 0.19677 0.0
N384 N 0.02516 0.5469 0.24355 0.0
N385 N 0.01788 0.47341 0.24772 0.0
C386 C 0.01683 0.49023 0.30641 0.0
C387 C 0.02092 0.52989 0.30422 0.0
C388 C 0.53489 0.02643 0.71479 0.0
C389 C 0.53387 0.98857 0.71962 0.0
C390 C 0.49884 0.02849 0.71161 0.0
C391 C 0.46001 0.9928 0.71321 0.0
H392 H 0.56387 0.05502 0.71325 0.0
H393 H 0.50158 0.05847 0.70822 0.0
S394 S 0.44012 0.88578 0.72699 0.0
N395 N 0.49061 0.91445 0.72689 0.0
N396 N 0.42271 0.91809 0.72079 0.0
C397 C 0.45843 0.9546 0.71832 0.0
C398 C 0.49531 0.95255 0.72162 0.0
C399 C 0.50792 0.53224 0.63424 0.0
C400 C 0.53648 0.5422 0.5832 0.0
C401 C 0.47164 0.49408 0.6349 0.0
C402 C 0.46353 0.46519 0.5848 0.0
H403 H 0.51396 0.55371 0.67408 0.0
H404 H 0.45013 0.4869 0.67503 0.0
S405 S 0.5261 0.47975 0.43582 0.0
N406 N 0.5528 0.52246 0.47863 0.0
N407 N 0.48457 0.45066 0.47984 0.0
C408 C 0.49129 0.47553 0.53258 0.0
C409 C 0.52793 0.51421 0.53181 0.0
C410 C 0.0354 0.53847 0.90031 0.0
C411 C 0.99998 0.53895 0.92095 0.0
C412 C 0.03785 0.50262 0.90429 0.0
C413 C 0.00497 0.46601 0.92914 0.0
H414 H 0.06118 0.56577 0.87976 0.0
H415 H 0.06531 0.50341 0.88628 0.0
S416 S 0.9067 0.45198 -0.00522 0.0
N417 N 0.93221 0.50027 0.9705 0.0
N418 N 0.93683 0.43304 0.97821 0.0
C419 C 0.96976 0.46636 0.95139 0.0
C420 C 0.96723 0.50276 0.94717 0.0
C421 C 0.50948 0.97679 0.29658 0.0
C422 C 0.5348 0.99484 0.24148 0.0
C423 C 0.4706 0.97298 0.2997 0.0
C424 C 0.45613 0.98644 0.2471 0.0
H425 H 0.52022 0.96649 0.338 0.0
H426 H 0.45236 0.96063 0.34391 0.0
S427 S 0.50768 0.02831 0.08711 0.0
N428 N 0.54092 0.02111 0.13006 0.0
N429 N 0.46759 0.01395 0.13578 0.0
C430 C 0.48022 0.0022 0.19023 0.0
C431 C 0.51977 0.00634 0.18729 0.0
loop_
_geom_bond_atom_site_label_1
_geom_bond_atom_site_label_2
_geom_bond_distance
_geom_bond_site_symmetry_2
_ccdc_geom_bond_type
Zn0 O3 2.031 . S
Zn0 O5 2.049 1_554 S
Zn0 O10 2.067 . S
Zn1 O2 1.962 . S
Zn1 O4 1.986 . S
Zn1 O6 1.996 . S
Zn1 O9 1.943 . S
O2 Zn1 1.962 . S
O2 C7 1.254 . S
O3 Zn0 2.031 . S
O3 C7 1.269 . S
O4 Zn1 1.986 . S
O4 C11 1.262 . S
O5 Zn0 2.049 1_556 S
O5 C13 1.260 . S
O6 Zn1 1.996 . S
O6 C13 1.257 1_554 S
C7 O2 1.254 . S
C7 O3 1.269 . S
C8 O9 1.249 . S
C8 O10 1.270 . S
O9 Zn1 1.943 . S
O9 C8 1.249 . S
O10 Zn0 2.067 . S
O10 C8 1.270 . S
C11 O4 1.262 . S
C11 O12 1.232 . S
O12 C11 1.232 . S
C13 O5 1.260 . S
C13 O6 1.257 1_556 S
Zn14 O17 2.031 . S
Zn14 O19 2.049 . S
Zn14 O24 2.075 . S
Zn15 O16 1.962 . S
Zn15 O18 1.986 . S
Zn15 O20 1.996 . S
Zn15 O23 1.943 . S
O16 Zn15 1.962 . S
O16 C21 1.254 . S
O17 Zn14 2.031 . S
O17 C21 1.269 1_455 S
O18 Zn15 1.986 . S
O18 C25 1.262 . S
O19 Zn14 2.049 . S
O19 C27 1.260 . S
O20 Zn15 1.996 . S
O20 C27 1.257 1_655 S
C21 O16 1.254 . S
C21 O17 1.269 1_655 S
C22 O23 1.249 . S
C22 O24 1.263 1_655 S
O23 Zn15 1.943 . S
O23 C22 1.249 . S
O24 Zn14 2.075 . S
O24 C22 1.263 1_455 S
C25 O18 1.262 . S
C25 O26 1.232 . S
O26 C25 1.232 . S
C27 O19 1.260 . S
C27 O20 1.257 1_455 S
Zn28 O31 2.031 . S
Zn28 O33 2.049 . S
Zn28 O38 2.068 . S
Zn29 O30 1.962 . S
Zn29 O32 1.986 . S
Zn29 O34 1.996 . S
Zn29 O37 1.943 . S
O30 Zn29 1.962 . S
O30 C35 1.254 . S
O31 Zn28 2.031 . S
O31 C35 1.269 1_545 S
O32 Zn29 1.986 . S
O32 C39 1.262 . S
O33 Zn28 2.049 . S
O33 C41 1.260 . S
O34 Zn29 1.996 . S
O34 C41 1.257 1_565 S
C35 O30 1.254 . S
C35 O31 1.269 1_565 S
C36 O37 1.249 . S
C36 O38 1.264 1_565 S
O37 Zn29 1.943 . S
O37 C36 1.249 . S
O38 Zn28 2.068 . S
O38 C36 1.264 1_545 S
C39 O32 1.262 . S
C39 O40 1.232 . S
O40 C39 1.232 . S
C41 O33 1.260 . S
C41 O34 1.257 1_545 S
Zn42 O45 2.031 . S
Zn42 O47 2.049 1_554 S
Zn42 O52 2.067 . S
Zn43 O44 1.962 . S
Zn43 O46 1.986 . S
Zn43 O48 1.996 . S
Zn43 O51 1.943 . S
O44 Zn43 1.962 . S
O44 C49 1.254 . S
O45 Zn42 2.031 . S
O45 C49 1.269 . S
O46 Zn43 1.986 . S
O46 C53 1.262 . S
O47 Zn42 2.049 1_556 S
O47 C55 1.260 . S
O48 Zn43 1.996 . S
O48 C55 1.257 1_554 S
C49 O44 1.254 . S
C49 O45 1.269 . S
C50 O51 1.249 . S
C50 O52 1.270 . S
O51 Zn43 1.943 . S
O51 C50 1.249 . S
O52 Zn42 2.067 . S
O52 C50 1.270 . S
C53 O46 1.262 . S
C53 O54 1.232 . S
O54 C53 1.232 . S
C55 O47 1.260 . S
C55 O48 1.257 1_556 S
Zn56 O59 2.031 . S
Zn56 O61 2.049 . S
Zn56 O66 2.075 . S
Zn57 O58 1.962 . S
Zn57 O60 1.986 . S
Zn57 O62 1.996 . S
Zn57 O65 1.943 . S
O58 Zn57 1.962 . S
O58 C63 1.254 . S
O59 Zn56 2.031 . S
O59 C63 1.269 1_655 S
O60 Zn57 1.986 . S
O60 C67 1.262 . S
O61 Zn56 2.049 . S
O61 C69 1.260 . S
O62 Zn57 1.996 . S
O62 C69 1.257 1_455 S
C63 O58 1.254 . S
C63 O59 1.269 1_455 S
C64 O65 1.249 . S
C64 O66 1.263 1_455 S
O65 Zn57 1.943 . S
O65 C64 1.249 . S
O66 Zn56 2.075 . S
O66 C64 1.263 1_655 S
C67 O60 1.262 . S
C67 O68 1.232 . S
O68 C67 1.232 . S
C69 O61 1.260 . S
C69 O62 1.257 1_655 S
Zn70 O73 2.031 . S
Zn70 O75 2.049 . S
Zn70 O80 2.068 . S
Zn71 O72 1.962 . S
Zn71 O74 1.986 . S
Zn71 O76 1.996 . S
Zn71 O79 1.943 . S
O72 Zn71 1.962 . S
O72 C77 1.254 . S
O73 Zn70 2.031 . S
O73 C77 1.269 1_565 S
O74 Zn71 1.986 . S
O74 C81 1.262 . S
O75 Zn70 2.049 . S
O75 C83 1.260 . S
O76 Zn71 1.996 . S
O76 C83 1.257 1_545 S
C77 O72 1.254 . S
C77 O73 1.269 1_545 S
C78 O79 1.249 . S
C78 O80 1.264 1_545 S
O79 Zn71 1.943 . S
O79 C78 1.249 . S
O80 Zn70 2.068 . S
O80 C78 1.264 1_565 S
C81 O74 1.262 . S
C81 O82 1.232 . S
O82 C81 1.232 . S
C83 O75 1.260 . S
C83 O76 1.257 1_565 S
Zn84 O87 2.031 . S
Zn84 O89 2.049 . S
Zn84 O94 2.067 . S
Zn85 O86 1.962 . S
Zn85 O88 1.986 . S
Zn85 O90 1.996 . S
Zn85 O93 1.943 . S
O86 Zn85 1.962 . S
O86 C91 1.254 . S
O87 Zn84 2.031 . S
O87 C91 1.269 . S
O88 Zn85 1.986 . S
O88 C95 1.262 . S
O89 Zn84 2.049 . S
O89 C97 1.260 . S
O90 Zn85 1.996 . S
O90 C97 1.257 . S
C91 O86 1.254 . S
C91 O87 1.269 . S
C92 O93 1.249 . S
C92 O94 1.270 . S
O93 Zn85 1.943 . S
O93 C92 1.249 . S
O94 Zn84 2.067 . S
O94 C92 1.270 . S
C95 O88 1.262 . S
C95 O96 1.232 . S
O96 C95 1.232 . S
C97 O89 1.260 . S
C97 O90 1.257 . S
Zn98 O101 2.031 . S
Zn98 O103 2.049 1_556 S
Zn98 O108 2.068 . S
Zn99 O100 1.962 . S
Zn99 O102 1.986 . S
Zn99 O104 1.996 . S
Zn99 O107 1.943 . S
O100 Zn99 1.962 . S
O100 C105 1.254 . S
O101 Zn98 2.031 . S
O101 C105 1.269 1_455 S
O102 Zn99 1.986 . S
O102 C109 1.262 . S
O103 Zn98 2.049 1_554 S
O103 C111 1.260 . S
O104 Zn99 1.996 . S
O104 C111 1.257 1_656 S
C105 O100 1.254 . S
C105 O101 1.269 1_655 S
C106 O107 1.249 . S
C106 O108 1.264 1_655 S
O107 Zn99 1.943 . S
O107 C106 1.249 . S
O108 Zn98 2.068 . S
O108 C106 1.264 1_455 S
C109 O102 1.262 . S
C109 O110 1.232 . S
O110 C109 1.232 . S
C111 O103 1.260 . S
C111 O104 1.257 1_454 S
Zn112 O115 2.031 . S
Zn112 O117 2.049 . S
Zn112 O122 2.075 . S
Zn113 O114 1.962 . S
Zn113 O116 1.986 . S
Zn113 O118 1.996 . S
Zn113 O121 1.943 . S
O114 Zn113 1.962 . S
O114 C119 1.254 . S
O115 Zn112 2.031 . S
O115 C119 1.269 1_545 S
O116 Zn113 1.986 . S
O116 C123 1.262 . S
O117 Zn112 2.049 . S
O117 C125 1.260 . S
O118 Zn113 1.996 . S
O118 C125 1.257 1_565 S
C119 O114 1.254 . S
C119 O115 1.269 1_565 S
C120 O121 1.249 . S
C120 O122 1.263 1_565 S
O121 Zn113 1.943 . S
O121 C120 1.249 . S
O122 Zn112 2.075 . S
O122 C120 1.263 1_545 S
C123 O116 1.262 . S
C123 O124 1.232 . S
O124 C123 1.232 . S
C125 O117 1.260 . S
C125 O118 1.257 1_545 S
Zn126 O129 2.031 . S
Zn126 O131 2.049 . S
Zn126 O136 2.067 . S
Zn127 O128 1.962 . S
Zn127 O130 1.986 . S
Zn127 O132 1.996 . S
Zn127 O135 1.943 . S
O128 Zn127 1.962 . S
O128 C133 1.254 . S
O129 Zn126 2.031 . S
O129 C133 1.269 . S
O130 Zn127 1.986 . S
O130 C137 1.262 . S
O131 Zn126 2.049 . S
O131 C139 1.260 . S
O132 Zn127 1.996 . S
O132 C139 1.257 . S
C133 O128 1.254 . S
C133 O129 1.269 . S
C134 O135 1.249 . S
C134 O136 1.270 . S
O135 Zn127 1.943 . S
O135 C134 1.249 . S
O136 Zn126 2.067 . S
O136 C134 1.270 . S
C137 O130 1.262 . S
C137 O138 1.232 . S
O138 C137 1.232 . S
C139 O131 1.260 . S
C139 O132 1.257 . S
Zn140 O143 2.031 . S
Zn140 O145 2.049 1_556 S
Zn140 O150 2.068 . S
Zn141 O142 1.962 . S
Zn141 O144 1.986 . S
Zn141 O146 1.996 . S
Zn141 O149 1.943 . S
O142 Zn141 1.962 . S
O142 C147 1.254 . S
O143 Zn140 2.031 . S
O143 C147 1.269 1_655 S
O144 Zn141 1.986 . S
O144 C151 1.262 . S
O145 Zn140 2.049 1_554 S
O145 C153 1.260 . S
O146 Zn141 1.996 . S
O146 C153 1.257 1_456 S
C147 O142 1.254 . S
C147 O143 1.269 1_455 S
C148 O149 1.249 . S
C148 O150 1.264 1_455 S
O149 Zn141 1.943 . S
O149 C148 1.249 . S
O150 Zn140 2.068 . S
O150 C148 1.264 1_655 S
C151 O144 1.262 . S
C151 O152 1.232 . S
O152 C151 1.232 . S
C153 O145 1.260 . S
C153 O146 1.257 1_654 S
Zn154 O157 2.031 . S
Zn154 O159 2.049 . S
Zn154 O164 2.075 . S
Zn155 O156 1.962 . S
Zn155 O158 1.986 . S
Zn155 O160 1.996 . S
Zn155 O163 1.943 . S
O156 Zn155 1.962 . S
O156 C161 1.254 . S
O157 Zn154 2.031 . S
O157 C161 1.269 1_565 S
O158 Zn155 1.986 . S
O158 C165 1.262 . S
O159 Zn154 2.049 . S
O159 C167 1.260 . S
O160 Zn155 1.996 . S
O160 C167 1.257 1_545 S
C161 O156 1.254 . S
C161 O157 1.269 1_545 S
C162 O163 1.249 . S
C162 O164 1.263 1_545 S
O163 Zn155 1.943 . S
O163 C162 1.249 . S
O164 Zn154 2.075 . S
O164 C162 1.263 1_565 S
C165 O158 1.262 . S
C165 O166 1.232 . S
O166 C165 1.232 . S
C167 O159 1.260 . S
C167 O160 1.257 1_565 S
C168 C169 1.369 . S
C168 C170 1.419 . S
C168 H172 0.930 . S
C169 C168 1.369 . S
C169 C178 1.429 . S
C170 C168 1.419 . S
C170 C171 1.363 . S
C170 H173 0.929 . S
C171 C170 1.363 . S
C171 C177 1.428 . S
H172 C168 0.930 . S
H173 C170 0.929 . S
S174 N175 1.613 . S
S174 N176 1.610 . S
N175 S174 1.613 . S
N175 C178 1.350 . S
N176 S174 1.610 . S
N176 C177 1.351 . S
C177 C171 1.428 . S
C177 N176 1.351 . S
C177 C178 1.434 . S
C178 C169 1.429 . S
C178 N175 1.350 . S
C178 C177 1.434 . S
C179 C180 1.369 . S
C179 C181 1.419 . S
C179 H183 0.930 . S
C180 C179 1.369 . S
C180 C189 1.429 1_655 S
C181 C179 1.419 . S
C181 C182 1.363 1_655 S
C181 H184 0.929 . S
C182 C181 1.363 1_455 S
C182 C188 1.428 . S
H183 C179 0.930 . S
H184 C181 0.929 . S
S185 N186 1.613 . S
S185 N187 1.610 . S
N186 S185 1.613 . S
N186 C189 1.350 . S
N187 S185 1.610 . S
N187 C188 1.351 . S
C188 C182 1.428 . S
C188 N187 1.351 . S
C188 C189 1.434 . S
C189 C180 1.429 1_455 S
C189 N186 1.350 . S
C189 C188 1.434 . S
C190 C191 1.369 1_545 S
C190 C192 1.419 1_556 S
C190 H194 0.930 . S
C191 C190 1.369 1_565 S
C191 C200 1.429 . S
C192 C190 1.419 1_554 S
C192 C193 1.363 . S
C192 H195 0.929 . S
C193 C192 1.363 . S
C193 C199 1.428 1_545 S
H194 C190 0.930 . S
H195 C192 0.929 . S
S196 N197 1.613 1_554 S
S196 N198 1.610 . S
N197 S196 1.613 1_556 S
N197 C200 1.350 . S
N198 S196 1.610 . S
N198 C199 1.351 . S
C199 C193 1.428 1_565 S
C199 N198 1.351 . S
C199 C200 1.434 1_554 S
C200 C191 1.429 . S
C200 N197 1.350 . S
C200 C199 1.434 1_556 S
C201 C202 1.369 . S
C201 C203 1.419 . S
C201 H205 0.930 . S
C202 C201 1.369 . S
C202 C211 1.429 . S
C203 C201 1.419 . S
C203 C204 1.363 . S
C203 H206 0.929 . S
C204 C203 1.363 . S
C204 C210 1.428 . S
H205 C201 0.930 . S
H206 C203 0.929 . S
S207 N208 1.613 . S
S207 N209 1.610 . S
N208 S207 1.613 . S
N208 C211 1.350 . S
N209 S207 1.610 . S
N209 C210 1.351 . S
C210 C204 1.428 . S
C210 N209 1.351 . S
C210 C211 1.434 . S
C211 C202 1.429 . S
C211 N208 1.350 . S
C211 C210 1.434 . S
C212 C213 1.369 . S
C212 C214 1.419 . S
C212 H216 0.930 . S
C213 C212 1.369 . S
C213 C222 1.429 1_655 S
C214 C212 1.419 . S
C214 C215 1.363 1_655 S
C214 H217 0.929 . S
C215 C214 1.363 1_455 S
C215 C221 1.428 . S
H216 C212 0.930 . S
H217 C214 0.929 . S
S218 N219 1.613 . S
S218 N220 1.610 . S
N219 S218 1.613 . S
N219 C222 1.350 . S
N220 S218 1.610 . S
N220 C221 1.351 . S
C221 C215 1.428 . S
C221 N220 1.351 . S
C221 C222 1.434 . S
C222 C213 1.429 1_455 S
C222 N219 1.350 . S
C222 C221 1.434 . S
C223 C224 1.369 . S
C223 C225 1.419 1_554 S
C223 H227 0.930 . S
C224 C223 1.369 . S
C224 C233 1.429 1_565 S
C225 C223 1.419 1_556 S
C225 C226 1.363 1_565 S
C225 H228 0.929 . S
C226 C225 1.363 1_545 S
C226 C232 1.428 . S
H227 C223 0.930 . S
H228 C225 0.929 . S
S229 N230 1.613 . S
S229 N231 1.610 1_554 S
N230 S229 1.613 . S
N230 C233 1.350 . S
N231 S229 1.610 1_556 S
N231 C232 1.351 . S
C232 C226 1.428 . S
C232 N231 1.351 . S
C232 C233 1.434 1_556 S
C233 C224 1.429 1_545 S
C233 N230 1.350 . S
C233 C232 1.434 1_554 S
C234 C235 1.369 1_554 S
C234 C236 1.419 . S
C234 H238 0.930 . S
C235 C234 1.369 1_556 S
C235 C244 1.429 . S
C236 C234 1.419 . S
C236 C237 1.363 . S
C236 H239 0.929 . S
C237 C236 1.363 . S
C237 C243 1.428 1_554 S
H238 C234 0.930 . S
H239 C236 0.929 . S
S240 N241 1.613 . S
S240 N242 1.610 . S
N241 S240 1.613 . S
N241 C244 1.350 . S
N242 S240 1.610 . S
N242 C243 1.351 . S
C243 C237 1.428 1_556 S
C243 N242 1.351 . S
C243 C244 1.434 . S
C244 C235 1.429 . S
C244 N241 1.350 . S
C244 C243 1.434 . S
C245 C246 1.369 . S
C245 C247 1.419 . S
C245 H249 0.930 . S
C246 C245 1.369 . S
C246 C255 1.429 . S
C247 C245 1.419 . S
C247 C248 1.363 . S
C247 H250 0.929 . S
C248 C247 1.363 . S
C248 C254 1.428 . S
H249 C245 0.930 . S
H250 C247 0.929 . S
S251 N252 1.613 . S
S251 N253 1.610 . S
N252 S251 1.613 . S
N252 C255 1.350 . S
N253 S251 1.610 . S
N253 C254 1.351 . S
C254 C248 1.428 . S
C254 N253 1.351 . S
C254 C255 1.434 . S
C255 C246 1.429 . S
C255 N252 1.350 . S
C255 C254 1.434 . S
C256 C257 1.369 . S
C256 C258 1.419 . S
C256 H260 0.930 . S
C257 C256 1.369 . S
C257 C266 1.429 . S
C258 C256 1.419 . S
C258 C259 1.363 . S
C258 H261 0.929 . S
C259 C258 1.363 . S
C259 C265 1.428 . S
H260 C256 0.930 . S
H261 C258 0.929 . S
S262 N263 1.613 . S
S262 N264 1.610 . S
N263 S262 1.613 . S
N263 C266 1.350 . S
N264 S262 1.610 . S
N264 C265 1.351 . S
C265 C259 1.428 . S
C265 N264 1.351 . S
C265 C266 1.434 . S
C266 C257 1.429 . S
C266 N263 1.350 . S
C266 C265 1.434 . S
C267 C268 1.369 1_556 S
C267 C269 1.419 . S
C267 H271 0.930 . S
C268 C267 1.369 1_554 S
C268 C277 1.429 . S
C269 C267 1.419 . S
C269 C270 1.363 . S
C269 H272 0.929 . S
C270 C269 1.363 . S
C270 C276 1.428 1_556 S
H271 C267 0.930 . S
H272 C269 0.929 . S
S273 N274 1.613 . S
S273 N275 1.610 . S
N274 S273 1.613 . S
N274 C277 1.350 . S
N275 S273 1.610 . S
N275 C276 1.351 . S
C276 C270 1.428 1_554 S
C276 N275 1.351 . S
C276 C277 1.434 . S
C277 C268 1.429 . S
C277 N274 1.350 . S
C277 C276 1.434 . S
C278 C279 1.369 . S
C278 C280 1.419 . S
C278 H282 0.930 . S
C279 C278 1.369 . S
C279 C288 1.429 . S
C280 C278 1.419 . S
C280 C281 1.363 . S
C280 H283 0.929 . S
C281 C280 1.363 . S
C281 C287 1.428 . S
H282 C278 0.930 . S
H283 C280 0.929 . S
S284 N285 1.613 . S
S284 N286 1.610 . S
N285 S284 1.613 . S
N285 C288 1.350 . S
N286 S284 1.610 . S
N286 C287 1.351 . S
C287 C281 1.428 . S
C287 N286 1.351 . S
C287 C288 1.434 . S
C288 C279 1.429 . S
C288 N285 1.350 . S
C288 C287 1.434 . S
C289 C290 1.369 . S
C289 C291 1.419 . S
C289 H293 0.930 . S
C290 C289 1.369 . S
C290 C299 1.429 . S
C291 C289 1.419 . S
C291 C292 1.363 . S
C291 H294 0.929 . S
C292 C291 1.363 . S
C292 C298 1.428 . S
H293 C289 0.930 . S
H294 C291 0.929 . S
S295 N296 1.613 . S
S295 N297 1.610 . S
N296 S295 1.613 . S
N296 C299 1.350 . S
N297 S295 1.610 . S
N297 C298 1.351 . S
C298 C292 1.428 . S
C298 N297 1.351 . S
C298 C299 1.434 . S
C299 C290 1.429 . S
C299 N296 1.350 . S
C299 C298 1.434 . S
C300 C301 1.369 . S
C300 C302 1.419 . S
C300 H304 0.930 . S
C301 C300 1.369 . S
C301 C310 1.429 . S
C302 C300 1.419 . S
C302 C303 1.363 . S
C302 H305 0.929 . S
C303 C302 1.363 . S
C303 C309 1.428 . S
H304 C300 0.930 . S
H305 C302 0.929 . S
S306 N307 1.613 . S
S306 N308 1.610 . S
N307 S306 1.613 . S
N307 C310 1.350 . S
N308 S306 1.610 . S
N308 C309 1.351 . S
C309 C303 1.428 . S
C309 N308 1.351 . S
C309 C310 1.434 . S
C310 C301 1.429 . S
C310 N307 1.350 . S
C310 C309 1.434 . S
C311 C312 1.369 . S
C311 C313 1.419 . S
C311 H315 0.930 . S
C312 C311 1.369 . S
C312 C321 1.429 1_455 S
C313 C311 1.419 . S
C313 C314 1.363 1_455 S
C313 H316 0.929 . S
C314 C313 1.363 1_655 S
C314 C320 1.428 . S
H315 C311 0.930 . S
H316 C313 0.929 . S
S317 N318 1.613 . S
S317 N319 1.610 . S
N318 S317 1.613 . S
N318 C321 1.350 . S
N319 S317 1.610 . S
N319 C320 1.351 . S
C320 C314 1.428 . S
C320 N319 1.351 . S
C320 C321 1.434 . S
C321 C312 1.429 1_655 S
C321 N318 1.350 . S
C321 C320 1.434 . S
C322 C323 1.369 . S
C322 C324 1.419 . S
C322 H326 0.930 . S
C323 C322 1.369 . S
C323 C332 1.429 1_545 S
C324 C322 1.419 . S
C324 C325 1.363 1_545 S
C324 H327 0.929 . S
C325 C324 1.363 1_565 S
C325 C331 1.428 . S
H326 C322 0.930 . S
H327 C324 0.929 . S
S328 N329 1.613 . S
S328 N330 1.610 . S
N329 S328 1.613 . S
N329 C332 1.350 . S
N330 S328 1.610 . S
N330 C331 1.351 . S
C331 C325 1.428 . S
C331 N330 1.351 . S
C331 C332 1.434 . S
C332 C323 1.429 1_565 S
C332 N329 1.350 . S
C332 C331 1.434 . S
C333 C334 1.369 . S
C333 C335 1.419 . S
C333 H337 0.930 . S
C334 C333 1.369 . S
C334 C343 1.429 . S
C335 C333 1.419 . S
C335 C336 1.363 . S
C335 H338 0.929 . S
C336 C335 1.363 . S
C336 C342 1.428 . S
H337 C333 0.930 . S
H338 C335 0.929 . S
S339 N340 1.613 . S
S339 N341 1.610 . S
N340 S339 1.613 . S
N340 C343 1.350 . S
N341 S339 1.610 . S
N341 C342 1.351 . S
C342 C336 1.428 . S
C342 N341 1.351 . S
C342 C343 1.434 . S
C343 C334 1.429 . S
C343 N340 1.350 . S
C343 C342 1.434 . S
C344 C345 1.369 1_455 S
C344 C346 1.419 . S
C344 H348 0.930 . S
C345 C344 1.369 1_655 S
C345 C354 1.429 . S
C346 C344 1.419 . S
C346 C347 1.363 . S
C346 H349 0.929 . S
C347 C346 1.363 . S
C347 C353 1.428 1_455 S
H348 C344 0.930 . S
H349 C346 0.929 . S
S350 N351 1.613 . S
S350 N352 1.610 . S
N351 S350 1.613 . S
N351 C354 1.350 . S
N352 S350 1.610 . S
N352 C353 1.351 . S
C353 C347 1.428 1_655 S
C353 N352 1.351 . S
C353 C354 1.434 . S
C354 C345 1.429 . S
C354 N351 1.350 . S
C354 C353 1.434 . S
C355 C356 1.369 1_565 S
C355 C357 1.419 . S
C355 H359 0.930 . S
C356 C355 1.369 1_545 S
C356 C365 1.429 . S
C357 C355 1.419 . S
C357 C358 1.363 . S
C357 H360 0.929 . S
C358 C357 1.363 . S
C358 C364 1.428 1_565 S
H359 C355 0.930 . S
H360 C357 0.929 . S
S361 N362 1.613 . S
S361 N363 1.610 . S
N362 S361 1.613 . S
N362 C365 1.350 . S
N363 S361 1.610 . S
N363 C364 1.351 . S
C364 C358 1.428 1_545 S
C364 N363 1.351 . S
C364 C365 1.434 . S
C365 C356 1.429 . S
C365 N362 1.350 . S
C365 C364 1.434 . S
C366 C367 1.369 . S
C366 C368 1.419 . S
C366 H370 0.930 . S
C367 C366 1.369 . S
C367 C376 1.429 . S
C368 C366 1.419 . S
C368 C369 1.363 . S
C368 H371 0.929 . S
C369 C368 1.363 . S
C369 C375 1.428 . S
H370 C366 0.930 . S
H371 C368 0.929 . S
S372 N373 1.613 . S
S372 N374 1.610 . S
N373 S372 1.613 . S
N373 C376 1.350 1_556 S
N374 S372 1.610 . S
N374 C375 1.351 1_556 S
C375 C369 1.428 . S
C375 N374 1.351 1_554 S
C375 C376 1.434 . S
C376 C367 1.429 . S
C376 N373 1.350 1_554 S
C376 C375 1.434 . S
C377 C378 1.369 . S
C377 C379 1.419 1_455 S
C377 H381 0.930 . S
C378 C377 1.369 . S
C378 C387 1.429 . S
C379 C377 1.419 1_655 S
C379 C380 1.363 . S
C379 H382 0.929 . S
C380 C379 1.363 . S
C380 C386 1.428 . S
H381 C377 0.930 . S
H382 C379 0.929 . S
S383 N384 1.613 . S
S383 N385 1.599 1_455 S
N384 S383 1.613 . S
N384 C387 1.350 . S
N385 S383 1.599 1_655 S
N385 C386 1.360 . S
C386 C380 1.428 . S
C386 N385 1.360 . S
C386 C387 1.434 1_655 S
C387 C378 1.429 . S
C387 N384 1.350 . S
C387 C386 1.434 1_455 S
C388 C389 1.369 1_545 S
C388 C390 1.419 . S
C388 H392 0.930 . S
C389 C388 1.369 1_565 S
C389 C398 1.429 . S
C390 C388 1.419 . S
C390 C391 1.363 . S
C390 H393 0.929 . S
C391 C390 1.363 . S
C391 C397 1.428 1_545 S
H392 C388 0.930 . S
H393 C390 0.929 . S
S394 N395 1.613 . S
S394 N396 1.610 . S
N395 S394 1.613 . S
N395 C398 1.350 . S
N396 S394 1.610 . S
N396 C397 1.351 . S
C397 C391 1.428 1_565 S
C397 N396 1.351 . S
C397 C398 1.434 . S
C398 C389 1.429 . S
C398 N395 1.350 . S
C398 C397 1.434 . S
C399 C400 1.369 . S
C399 C401 1.419 . S
C399 H403 0.930 . S
C400 C399 1.369 . S
C400 C409 1.429 . S
C401 C399 1.419 . S
C401 C402 1.363 . S
C401 H404 0.929 . S
C402 C401 1.363 . S
C402 C408 1.428 . S
H403 C399 0.930 . S
H404 C401 0.929 . S
S405 N406 1.613 . S
S405 N407 1.610 . S
N406 S405 1.613 . S
N406 C409 1.350 . S
N407 S405 1.610 . S
N407 C408 1.351 . S
C408 C402 1.428 . S
C408 N407 1.351 . S
C408 C409 1.434 . S
C409 C400 1.429 . S
C409 N406 1.350 . S
C409 C408 1.434 . S
C410 C411 1.369 1_455 S
C410 C412 1.419 . S
C410 H414 0.930 . S
C411 C410 1.369 1_655 S
C411 C420 1.429 . S
C412 C410 1.419 . S
C412 C413 1.363 . S
C412 H415 0.929 . S
C413 C412 1.363 . S
C413 C419 1.428 1_455 S
H414 C410 0.930 . S
H415 C412 0.929 . S
S416 N417 1.613 . S
S416 N418 1.610 . S
N417 S416 1.613 . S
N417 C420 1.350 . S
N418 S416 1.610 . S
N418 C419 1.351 . S
C419 C413 1.428 1_655 S
C419 N418 1.351 . S
C419 C420 1.434 . S
C420 C411 1.429 . S
C420 N417 1.350 . S
C420 C419 1.434 . S
C421 C422 1.371 . S
C421 C423 1.418 1_545 S
C421 H425 0.929 1_545 S
C422 C421 1.371 . S
C422 C431 1.429 . S
C423 C421 1.418 1_565 S
C423 C424 1.363 . S
C423 H426 0.929 . S
C424 C423 1.363 . S
C424 C430 1.428 1_565 S
H425 C421 0.929 1_565 S
H426 C423 0.929 . S
S427 N428 1.613 . S
S427 N429 1.610 . S
N428 S427 1.613 . S
N428 C431 1.350 . S
N429 S427 1.610 . S
N429 C430 1.351 . S
C430 C424 1.428 1_545 S
C430 N429 1.351 . S
C430 C431 1.434 . S
C431 C422 1.429 . S
C431 N428 1.350 . S
C431 C430 1.434 . S
C169 C7 1.475 . S
C171 C133 1.473 . S
C180 C21 1.474 . S
C182 C147 1.473 . S
C191 C35 1.471 . S
C193 C161 1.473 . S
C202 C49 1.470 . S
C204 C91 1.471 . S
C213 C105 1.475 . S
C215 C63 1.474 . S
C224 C119 1.474 . S
C226 C77 1.472 . S
C235 C151 1.462 . S
C237 C11 1.460 . S
C246 C25 1.461 . S
C248 C165 1.460 . S
C257 C39 1.464 . S
C259 C95 1.462 . S
C268 C53 1.463 . S
C270 C109 1.460 . S
C279 C67 1.464 . S
C281 C123 1.462 . S
C290 C81 1.460 . S
C292 C137 1.463 . S
C301 C139 1.057 . S
C303 C13 1.055 . S
C312 C27 1.056 . S
C314 C153 1.053 . S
C323 C41 1.049 . S
C325 C167 1.049 . S
C334 C97 1.050 . S
C336 C55 1.050 . S
C345 C69 1.048 . S
C347 C111 1.050 . S
C356 C125 1.053 . S
C358 C83 1.054 . S
C367 C8 1.326 . S
C369 C50 1.332 . S
C378 C64 1.329 . S
C380 C22 1.329 . S
C389 C36 1.338 . S
C391 C78 1.325 . S
C400 C92 1.333 . S
C402 C134 1.336 . S
C411 C106 1.336 . S
C413 C148 1.326 . S
C422 C162 1.340 . S
C424 C120 1.329 . S
