# Generated by pormake.
# Topology sth, (5)-cn, num edge types: 1
# Building blocks:
#     Node 0, Type 0, BuildingBlock: BEQFEK_clean_sbu_0, # of connection points: 5
#     Node 1, Type 0, BuildingBlock: BEQFEK_clean_sbu_0, # of connection points: 5
#     Node 2, Type 0, BuildingBlock: BEQFEK_clean_sbu_0, # of connection points: 5
#     Node 3, Type 0, BuildingBlock: BEQFEK_clean_sbu_0, # of connection points: 5
#     Node 4, Type 0, BuildingBlock: BEQFEK_clean_sbu_0, # of connection points: 5
#     Node 5, Type 0, BuildingBlock: BEQFEK_clean_sbu_0, # of connection points: 5
#     Node 6, Type 0, BuildingBlock: BEQFEK_clean_sbu_0, # of connection points: 5
#     Node 7, Type 0, BuildingBlock: BEQFEK_clean_sbu_0, # of connection points: 5
#     Node 8, Type 0, BuildingBlock: BEQFEK_clean_sbu_0, # of connection points: 5
#     Node 9, Type 0, BuildingBlock: BEQFEK_clean_sbu_0, # of connection points: 5
#     Node 10, Type 0, BuildingBlock: BEQFEK_clean_sbu_0, # of connection points: 5
#     Node 11, Type 0, BuildingBlock: BEQFEK_clean_sbu_0, # of connection points: 5
#     Node 12, Type 0, BuildingBlock: BEQFEK_clean_sbu_0, # of connection points: 5
#     Node 13, Type 0, BuildingBlock: BEQFEK_clean_sbu_0, # of connection points: 5
#     Node 14, Type 0, BuildingBlock: BEQFEK_clean_sbu_0, # of connection points: 5
#     Node 15, Type 0, BuildingBlock: BEQFEK_clean_sbu_0, # of connection points: 5
#     Node 16, Type 0, BuildingBlock: BEQFEK_clean_sbu_0, # of connection points: 5
#     Node 17, Type 0, BuildingBlock: BEQFEK_clean_sbu_0, # of connection points: 5
#     Edge 18, Type (0, 0), BuildingBlock: MIFKUJ_clean_linker_0, # of connection points: 2
#     Edge 19, Type (0, 0), BuildingBlock: MIFKUJ_clean_linker_0, # of connection points: 2
#     Edge 20, Type (0, 0), BuildingBlock: MIFKUJ_clean_linker_0, # of connection points: 2
#     Edge 21, Type (0, 0), BuildingBlock: MIFKUJ_clean_linker_0, # of connection points: 2
#     Edge 22, Type (0, 0), BuildingBlock: MIFKUJ_clean_linker_0, # of connection points: 2
#     Edge 23, Type (0, 0), BuildingBlock: MIFKUJ_clean_linker_0, # of connection points: 2
#     Edge 24, Type (0, 0), BuildingBlock: MIFKUJ_clean_linker_0, # of connection points: 2
#     Edge 25, Type (0, 0), BuildingBlock: MIFKUJ_clean_linker_0, # of connection points: 2
#     Edge 26, Type (0, 0), BuildingBlock: MIFKUJ_clean_linker_0, # of connection points: 2
#     Edge 27, Type (0, 0), BuildingBlock: MIFKUJ_clean_linker_0, # of connection points: 2
#     Edge 28, Type (0, 0), BuildingBlock: MIFKUJ_clean_linker_0, # of connection points: 2
#     Edge 29, Type (0, 0), BuildingBlock: MIFKUJ_clean_linker_0, # of connection points: 2
#     Edge 30, Type (0, 0), BuildingBlock: MIFKUJ_clean_linker_0, # of connection points: 2
#     Edge 31, Type (0, 0), BuildingBlock: MIFKUJ_clean_linker_0, # of connection points: 2
#     Edge 32, Type (0, 0), BuildingBlock: MIFKUJ_clean_linker_0, # of connection points: 2
#     Edge 33, Type (0, 0), BuildingBlock: MIFKUJ_clean_linker_0, # of connection points: 2
#     Edge 34, Type (0, 0), BuildingBlock: MIFKUJ_clean_linker_0, # of connection points: 2
#     Edge 35, Type (0, 0), BuildingBlock: MIFKUJ_clean_linker_0, # of connection points: 2
#     Edge 36, Type (0, 0), BuildingBlock: MIFKUJ_clean_linker_0, # of connection points: 2
#     Edge 37, Type (0, 0), BuildingBlock: MIFKUJ_clean_linker_0, # of connection points: 2
#     Edge 38, Type (0, 0), BuildingBlock: MIFKUJ_clean_linker_0, # of connection points: 2
#     Edge 39, Type (0, 0), BuildingBlock: MIFKUJ_clean_linker_0, # of connection points: 2
#     Edge 40, Type (0, 0), BuildingBlock: MIFKUJ_clean_linker_0, # of connection points: 2
#     Edge 41, Type (0, 0), BuildingBlock: MIFKUJ_clean_linker_0, # of connection points: 2
#     Edge 42, Type (0, 0), BuildingBlock: MIFKUJ_clean_linker_0, # of connection points: 2
#     Edge 43, Type (0, 0), BuildingBlock: MIFKUJ_clean_linker_0, # of connection points: 2
#     Edge 44, Type (0, 0), BuildingBlock: MIFKUJ_clean_linker_0, # of connection points: 2
#     Edge 45, Type (0, 0), BuildingBlock: MIFKUJ_clean_linker_0, # of connection points: 2
#     Edge 46, Type (0, 0), BuildingBlock: MIFKUJ_clean_linker_0, # of connection points: 2
#     Edge 47, Type (0, 0), BuildingBlock: MIFKUJ_clean_linker_0, # of connection points: 2
#     Edge 48, Type (0, 0), BuildingBlock: MIFKUJ_clean_linker_0, # of connection points: 2
#     Edge 49, Type (0, 0), BuildingBlock: MIFKUJ_clean_linker_0, # of connection points: 2
#     Edge 50, Type (0, 0), BuildingBlock: MIFKUJ_clean_linker_0, # of connection points: 2
#     Edge 51, Type (0, 0), BuildingBlock: MIFKUJ_clean_linker_0, # of connection points: 2
#     Edge 52, Type (0, 0), BuildingBlock: MIFKUJ_clean_linker_0, # of connection points: 2
#     Edge 53, Type (0, 0), BuildingBlock: MIFKUJ_clean_linker_0, # of connection points: 2
#     Edge 54, Type (0, 0), BuildingBlock: MIFKUJ_clean_linker_0, # of connection points: 2
#     Edge 55, Type (0, 0), BuildingBlock: MIFKUJ_clean_linker_0, # of connection points: 2
#     Edge 56, Type (0, 0), BuildingBlock: MIFKUJ_clean_linker_0, # of connection points: 2
#     Edge 57, Type (0, 0), BuildingBlock: MIFKUJ_clean_linker_0, # of connection points: 2
#     Edge 58, Type (0, 0), BuildingBlock: MIFKUJ_clean_linker_0, # of connection points: 2
#     Edge 59, Type (0, 0), BuildingBlock: MIFKUJ_clean_linker_0, # of connection points: 2
#     Edge 60, Type (0, 0), BuildingBlock: MIFKUJ_clean_linker_0, # of connection points: 2
#     Edge 61, Type (0, 0), BuildingBlock: MIFKUJ_clean_linker_0, # of connection points: 2
#     Edge 62, Type (0, 0), BuildingBlock: MIFKUJ_clean_linker_0, # of connection points: 2
# Relax obj value: 0.246
# Max RMSD: 0.164
# Mean RMSD: 0.164
data_MOF--net-sth--node1-BEQFEK_clean_sbu_0--edge1-MIFKUJ_clean_linker_0
_symmetry_space_group_name_H-M    P1
_symmetry_Int_Tables_number       1
_symmetry_cell_setting            triclinic
loop_
_symmetry_equiv_pos_as_xyz
'x, y, z'
_cell_length_a     56.067919
_cell_length_b     56.112804
_cell_length_c     85.267458
_cell_angle_alpha  90.002035
_cell_angle_beta   90.015359
_cell_angle_gamma 120.0259
loop_
_atom_site_label
_atom_site_type_symbol
_atom_site_fract_x
_atom_site_fract_y
_atom_site_fract_z
_atom_type_partial_charge
Co0 Co 0.07188 0.23996 0.23122 0.0
Co1 Co 0.13224 0.28905 0.22536 0.0
C2 C 0.08486 0.28634 0.20817 0.0
O3 O 0.06838 0.26429 0.21545 0.0
O4 O 0.1108 0.29819 0.2104 0.0
C5 C 0.02538 0.1924 0.21917 0.0
O6 O 0.03902 0.20284 0.20607 0.0
C7 C 0.18624 0.32432 0.21009 0.0
C8 C 0.21359 0.34006 0.23076 0.0
C9 C 0.21376 0.34046 0.2145 0.0
N10 N 0.17082 0.31474 0.22316 0.0
N11 N 0.18729 0.32457 0.23545 0.0
C12 C 0.17485 0.31588 0.19389 0.0
H13 H 0.1543 0.29694 0.19428 0.0
H14 H 0.18906 0.31232 0.18649 0.0
H15 H 0.17248 0.33257 0.18851 0.0
C16 C 0.09986 0.20773 0.2253 0.0
N17 N 0.0999 0.23179 0.22569 0.0
N18 N 0.12515 0.25215 0.22315 0.0
C19 C 0.14191 0.24154 0.22109 0.0
C20 C 0.12636 0.2131 0.22226 0.0
C21 C 0.07577 0.18041 0.22967 0.0
H22 H 0.06389 0.18293 0.23927 0.0
H23 H 0.06219 0.1715 0.21931 0.0
H24 H 0.08249 0.16578 0.23351 0.0
O25 O 0.08069 0.25854 0.25209 0.0
O26 O 0.12215 0.29425 0.24685 0.0
H27 H 0.18189 0.27274 0.22865 0.0
H28 H 0.18193 0.24514 0.21772 0.0
C29 C 0.17239 0.25827 0.2187 0.0
H30 H 0.17669 0.27039 0.20778 0.0
H31 H 0.18066 0.32 0.24706 0.0
O32 O 0.03546 0.20522 0.23196 0.0
C33 C 0.10195 0.28102 0.25617 0.0
Co34 Co 0.76957 0.83853 0.23218 0.0
Co35 Co 0.71898 0.84682 0.22493 0.0
C36 C 0.7236 0.80065 0.21031 0.0
O37 O 0.74599 0.80774 0.21767 0.0
O38 O 0.71125 0.81447 0.21155 0.0
C39 C 0.81143 0.82148 0.23321 0.0
O40 O 0.79118 0.79624 0.23087 0.0
C41 C 0.68264 0.86261 0.20785 0.0
C42 C 0.66387 0.8725 0.22776 0.0
C43 C 0.66469 0.87222 0.21152 0.0
N44 N 0.6922 0.85796 0.22132 0.0
N45 N 0.68068 0.86372 0.23314 0.0
C46 C 0.68977 0.85682 0.19192 0.0
H47 H 0.69615 0.84107 0.19265 0.0
H48 H 0.70725 0.87588 0.18704 0.0
H49 H 0.67195 0.8497 0.18385 0.0
C50 C 0.79983 0.89677 0.22229 0.0
N51 N 0.77602 0.87291 0.22429 0.0
N52 N 0.75522 0.87712 0.22187 0.0
C53 C 0.76531 0.90411 0.21871 0.0
C54 C 0.79388 0.91728 0.21867 0.0
C55 C 0.82773 0.90041 0.22541 0.0
H56 H 0.82862 0.89446 0.23771 0.0
H57 H 0.83111 0.88665 0.21752 0.0
H58 H 0.84443 0.92194 0.22356 0.0
O59 O 0.75125 0.83119 0.25311 0.0
O60 O 0.71458 0.83479 0.2471 0.0
H61 H 0.73321 0.91134 0.22658 0.0
H62 H 0.7609 0.94017 0.21633 0.0
C63 C 0.74808 0.9174 0.21676 0.0
H64 H 0.73631 0.91021 0.20567 0.0
H65 H 0.68466 0.86209 0.24493 0.0
O66 O 0.80612 0.84094 0.23439 0.0
C67 C 0.72857 0.82975 0.25695 0.0
Co68 Co 0.17803 0.94039 0.23353 0.0
Co69 Co 0.16296 0.88044 0.22351 0.0
C70 C 0.21114 0.92823 0.20947 0.0
O71 O 0.2063 0.94381 0.21815 0.0
O72 O 0.19521 0.90219 0.20946 0.0
C73 C 0.17815 0.9875 0.22281 0.0
O74 O 0.17277 0.97316 0.20979 0.0
C75 C 0.14313 0.82666 0.20709 0.0
C76 C 0.1231 0.79818 0.22693 0.0
C77 C 0.1279 0.79878 0.21095 0.0
N78 N 0.14676 0.84155 0.22019 0.0
N79 N 0.13498 0.82433 0.23199 0.0
C80 C 0.15199 0.83912 0.19114 0.0
H81 H 0.15592 0.86057 0.19108 0.0
H82 H 0.13605 0.82668 0.18228 0.0
H83 H 0.17138 0.83955 0.18793 0.0
C84 C 0.11813 0.91637 0.22817 0.0
N85 N 0.14145 0.91508 0.22709 0.0
N86 N 0.1355 0.89085 0.22157 0.0
C87 C 0.10831 0.87637 0.21827 0.0
C88 C 0.09622 0.89195 0.22247 0.0
C89 C 0.11632 0.93874 0.23673 0.0
H90 H 0.13295 0.94841 0.24559 0.0
H91 H 0.11854 0.95469 0.22823 0.0
H92 H 0.09616 0.93054 0.24274 0.0
O93 O 0.18555 0.92803 0.25359 0.0
O94 O 0.17617 0.88638 0.24583 0.0
H95 H 0.09061 0.83277 0.22035 0.0
H96 H 0.0744 0.84327 0.20568 0.0
C97 C 0.09431 0.84822 0.21115 0.0
H98 H 0.10769 0.84704 0.20202 0.0
H99 H 0.13443 0.83045 0.24348 0.0
O100 O 0.18203 0.97762 0.23535 0.0
C101 C 0.184 0.90498 0.25637 0.0
Co102 Co 0.24045 0.07202 0.77125 0.0
Co103 Co 0.29122 0.13145 0.7773 0.0
C104 C 0.28686 0.08147 0.79301 0.0
O105 O 0.2639 0.06568 0.7863 0.0
O106 O 0.2995 0.10744 0.7908 0.0
C107 C 0.19878 0.0132 0.76746 0.0
O108 O 0.21933 0.00871 0.76497 0.0
C109 C 0.32801 0.18397 0.79384 0.0
C110 C 0.34559 0.21238 0.77374 0.0
C111 C 0.3454 0.21154 0.78998 0.0
N112 N 0.31807 0.1695 0.78047 0.0
N113 N 0.32892 0.18662 0.76853 0.0
C114 C 0.32155 0.17128 0.80984 0.0
H115 H 0.31601 0.14938 0.8092 0.0
H116 H 0.30369 0.1721 0.81477 0.0
H117 H 0.33941 0.18261 0.81781 0.0
C118 C 0.2105 0.10109 0.77988 0.0
N119 N 0.23419 0.10066 0.77824 0.0
N120 N 0.25512 0.12565 0.78048 0.0
C121 C 0.24527 0.14287 0.78326 0.0
C122 C 0.21669 0.12776 0.78315 0.0
C123 C 0.18254 0.07694 0.77677 0.0
H124 H 0.18229 0.06833 0.76502 0.0
H125 H 0.17812 0.06084 0.78567 0.0
H126 H 0.16617 0.08253 0.77723 0.0
O127 O 0.25885 0.08152 0.75018 0.0
O128 O 0.29469 0.12289 0.75525 0.0
H129 H 0.27698 0.182 0.77493 0.0
H130 H 0.25016 0.18352 0.78591 0.0
C131 C 0.26277 0.1734 0.78506 0.0
H132 H 0.27525 0.17804 0.79587 0.0
H133 H 0.3245 0.18081 0.75679 0.0
O134 O 0.20382 0.03764 0.76995 0.0
C135 C 0.28098 0.10299 0.74583 0.0
Co136 Co 0.94107 0.17472 0.77048 0.0
Co137 Co 0.87978 0.16041 0.77667 0.0
C138 C 0.92713 0.208 0.79273 0.0
O139 O 0.94406 0.20257 0.78591 0.0
O140 O 0.90126 0.19329 0.7904 0.0
C141 C 0.98877 0.17627 0.78227 0.0
O142 O 0.97508 0.1728 0.79538 0.0
C143 C 0.82575 0.14136 0.79254 0.0
C144 C 0.79784 0.12716 0.77207 0.0
C145 C 0.7981 0.12921 0.78826 0.0
N146 N 0.8409 0.1458 0.77945 0.0
N147 N 0.82402 0.13741 0.76729 0.0
C148 C 0.83775 0.14951 0.80865 0.0
H149 H 0.85937 0.16654 0.80807 0.0
H150 H 0.8376 0.13173 0.81442 0.0
H151 H 0.82541 0.15586 0.81588 0.0
C152 C 0.91582 0.11491 0.77739 0.0
N153 N 0.9145 0.13825 0.77674 0.0
N154 N 0.88905 0.13233 0.77974 0.0
C155 C 0.87346 0.10499 0.78239 0.0
C156 C 0.88997 0.09315 0.7811 0.0
C157 C 0.94032 0.11271 0.77254 0.0
H158 H 0.95133 0.12714 0.76279 0.0
H159 H 0.9545 0.118 0.78267 0.0
H160 H 0.93417 0.09149 0.76873 0.0
O161 O 0.9308 0.18313 0.74964 0.0
O162 O 0.88759 0.17251 0.7545 0.0
H163 H 0.83242 0.09246 0.77494 0.0
H164 H 0.83482 0.06806 0.78777 0.0
C165 C 0.84308 0.09025 0.78532 0.0
H166 H 0.83871 0.09963 0.79553 0.0
H167 H 0.83037 0.13836 0.75569 0.0
O168 O 0.9782 0.17815 0.76945 0.0
C169 C 0.90803 0.1809 0.74519 0.0
Co170 Co 0.83262 0.7662 0.77063 0.0
Co171 Co 0.84743 0.71997 0.77797 0.0
C172 C 0.80018 0.72013 0.79389 0.0
O173 O 0.8053 0.742 0.78659 0.0
O174 O 0.81504 0.70909 0.79188 0.0
C175 C 0.83332 0.81344 0.78196 0.0
O176 O 0.8384 0.80405 0.7949 0.0
C177 C 0.8658 0.68439 0.79393 0.0
C178 C 0.88196 0.67243 0.77361 0.0
C179 C 0.87843 0.66936 0.7897 0.0
N180 N 0.86245 0.69607 0.78092 0.0
N181 N 0.87205 0.68866 0.76885 0.0
C182 C 0.85626 0.68688 0.80993 0.0
H183 H 0.83892 0.69095 0.80911 0.0
H184 H 0.87341 0.70437 0.81622 0.0
H185 H 0.84982 0.66783 0.81682 0.0
C186 C 0.89303 0.80112 0.77548 0.0
N187 N 0.8695 0.7766 0.77623 0.0
N188 N 0.87537 0.75756 0.78045 0.0
C189 C 0.90275 0.76955 0.78303 0.0
C190 C 0.91496 0.79761 0.77989 0.0
C191 C 0.89499 0.82649 0.7684 0.0
H192 H 0.87849 0.82086 0.75958 0.0
H193 H 0.89268 0.83889 0.77778 0.0
H194 H 0.91522 0.83935 0.76262 0.0
O195 O 0.82324 0.74642 0.75027 0.0
O196 O 0.83445 0.71448 0.7558 0.0
H197 H 0.91852 0.74266 0.77815 0.0
H198 H 0.9378 0.76847 0.79288 0.0
C199 C 0.91691 0.75431 0.78822 0.0
H200 H 0.90466 0.7395 0.79754 0.0
H201 H 0.87204 0.69487 0.75732 0.0
O202 O 0.82935 0.7999 0.76932 0.0
C203 C 0.82549 0.72572 0.74627 0.0
Co204 Co 0.73602 0.57147 0.5659 0.0
Co205 Co 0.7974 0.61821 0.5601 0.0
C206 C 0.75087 0.61851 0.54327 0.0
O207 O 0.7337 0.59628 0.55012 0.0
O208 O 0.77667 0.62964 0.54583 0.0
C209 C 0.68855 0.52524 0.55386 0.0
O210 O 0.70219 0.53566 0.54076 0.0
C211 C 0.85149 0.65223 0.54461 0.0
C212 C 0.87924 0.66643 0.56515 0.0
C213 C 0.87913 0.66748 0.54891 0.0
N214 N 0.83621 0.64257 0.55771 0.0
N215 N 0.85294 0.65145 0.56993 0.0
C216 C 0.83975 0.64482 0.52842 0.0
H217 H 0.81897 0.62618 0.52871 0.0
H218 H 0.85355 0.64123 0.52066 0.0
H219 H 0.83778 0.66207 0.52351 0.0
C220 C 0.76164 0.53684 0.56013 0.0
N221 N 0.76285 0.56147 0.56029 0.0
N222 N 0.78824 0.58091 0.55711 0.0
C223 C 0.80384 0.56913 0.55459 0.0
C224 C 0.78747 0.54086 0.55638 0.0
C225 C 0.73649 0.51002 0.56412 0.0
H226 H 0.72264 0.50272 0.55379 0.0
H227 H 0.74157 0.49386 0.56712 0.0
H228 H 0.72544 0.51282 0.57408 0.0
O229 O 0.7454 0.59022 0.58671 0.0
O230 O 0.78892 0.62236 0.58215 0.0
H231 H 0.84316 0.57084 0.55191 0.0
H232 H 0.8395 0.5967 0.54139 0.0
C233 C 0.83443 0.58473 0.55243 0.0
H234 H 0.84414 0.59929 0.5623 0.0
H235 H 0.84646 0.64665 0.58155 0.0
O236 O 0.69896 0.53769 0.5667 0.0
C237 C 0.76821 0.61055 0.59127 0.0
Co238 Co 0.43392 0.16229 0.56538 0.0
Co239 Co 0.38834 0.17787 0.55795 0.0
C240 C 0.3879 0.13098 0.54163 0.0
O241 O 0.40916 0.13532 0.54937 0.0
O242 O 0.37737 0.14637 0.54334 0.0
C243 C 0.47976 0.16077 0.55358 0.0
O244 O 0.46944 0.16466 0.54064 0.0
C245 C 0.35481 0.19843 0.54225 0.0
C246 C 0.34392 0.21556 0.56256 0.0
C247 C 0.34124 0.2126 0.54642 0.0
N248 N 0.36514 0.19359 0.55535 0.0
N249 N 0.35822 0.20358 0.56744 0.0
C250 C 0.36022 0.19186 0.5261 0.0
H251 H 0.37844 0.18902 0.52612 0.0
H252 H 0.36359 0.20848 0.51778 0.0
H253 H 0.34209 0.1724 0.52209 0.0
C254 C 0.47002 0.22231 0.55941 0.0
N255 N 0.44505 0.19921 0.55955 0.0
N256 N 0.42612 0.20562 0.55591 0.0
C257 C 0.43855 0.23299 0.55324 0.0
C258 C 0.46673 0.24439 0.55531 0.0
C259 C 0.49618 0.22392 0.56488 0.0
H260 H 0.49184 0.20877 0.57436 0.0
H261 H 0.50592 0.21934 0.5549 0.0
H262 H 0.51102 0.24483 0.56928 0.0
O263 O 0.41424 0.15341 0.58595 0.0
O264 O 0.38174 0.16337 0.57967 0.0
H265 H 0.4108 0.24726 0.55921 0.0
H266 H 0.43825 0.26996 0.54617 0.0
C267 C 0.42373 0.24812 0.54915 0.0
H268 H 0.41013 0.23811 0.53895 0.0
H269 H 0.36396 0.20292 0.579 0.0
O270 O 0.46726 0.15825 0.56647 0.0
C271 C 0.39282 0.15475 0.58951 0.0
Co272 Co 0.84235 0.27038 0.56538 0.0
Co273 Co 0.82699 0.20901 0.55839 0.0
C274 C 0.87568 0.25668 0.54309 0.0
O275 O 0.87046 0.27359 0.55011 0.0
O276 O 0.86049 0.23076 0.54505 0.0
C277 C 0.85007 0.32205 0.55528 0.0
O278 O 0.85367 0.31313 0.54174 0.0
C279 C 0.80848 0.1551 0.54223 0.0
C280 C 0.78793 0.12668 0.56201 0.0
C281 C 0.79341 0.12717 0.54612 0.0
N282 N 0.81112 0.17004 0.55519 0.0
N283 N 0.79899 0.15282 0.56695 0.0
C284 C 0.82069 0.16762 0.52669 0.0
H285 H 0.83797 0.18891 0.52815 0.0
H286 H 0.80474 0.1684 0.51935 0.0
H287 H 0.82821 0.1552 0.52055 0.0
C288 C 0.78322 0.24693 0.55748 0.0
N289 N 0.80608 0.24478 0.55851 0.0
N290 N 0.79968 0.21933 0.55521 0.0
C291 C 0.77248 0.20454 0.55196 0.0
C292 C 0.76119 0.22153 0.55328 0.0
C293 C 0.78188 0.27197 0.56214 0.0
H294 H 0.79376 0.28076 0.57309 0.0
H295 H 0.79121 0.28765 0.55274 0.0
H296 H 0.76036 0.2672 0.564 0.0
O297 O 0.85011 0.25891 0.58597 0.0
O298 O 0.83856 0.21559 0.58073 0.0
H299 H 0.75655 0.16262 0.55876 0.0
H300 H 0.73597 0.16747 0.54419 0.0
C301 C 0.75731 0.17446 0.54818 0.0
H302 H 0.76836 0.17024 0.5388 0.0
H303 H 0.79781 0.15895 0.57835 0.0
O304 O 0.84564 0.30724 0.56743 0.0
C305 C 0.84732 0.23585 0.59019 0.0
Co306 Co 0.90704 0.40501 0.10559 0.0
Co307 Co 0.95724 0.46481 0.11136 0.0
C308 C 0.95392 0.41581 0.12745 0.0
O309 O 0.9313 0.39977 0.12051 0.0
O310 O 0.96608 0.4418 0.12539 0.0
C311 C 0.86689 0.34599 0.10175 0.0
O312 O 0.88787 0.34267 0.09828 0.0
C313 C 0.99338 0.51831 0.12719 0.0
C314 C 0.01091 0.54575 0.10669 0.0
C315 C 0.01063 0.54571 0.12294 0.0
N316 N 0.98363 0.50315 0.11403 0.0
N317 N 0.99444 0.5197 0.10185 0.0
C318 C 0.98702 0.50644 0.14339 0.0
H319 H 0.98153 0.48453 0.14318 0.0
H320 H 0.96917 0.50748 0.14816 0.0
H321 H 1.00491 0.51824 0.15129 0.0
C322 C 0.87622 0.43319 0.11373 0.0
N323 N 0.90019 0.43327 0.11231 0.0
N324 N 0.9208 0.45851 0.11432 0.0
C325 C 0.91044 0.4754 0.11676 0.0
C326 C 0.88185 0.4598 0.11664 0.0
C327 C 0.84854 0.40855 0.1107 0.0
H328 H 0.8487 0.39946 0.09917 0.0
H329 H 0.84424 0.39296 0.11992 0.0
H330 H 0.83187 0.41372 0.11071 0.0
O331 O 0.92466 0.41428 0.08441 0.0
O332 O 0.96109 0.45536 0.08949 0.0
H333 H 0.94175 0.51456 0.1082 0.0
H334 H 0.91451 0.5158 0.11891 0.0
C335 C 0.92746 0.50602 0.11831 0.0
H336 H 0.93988 0.51115 0.12916 0.0
H337 H 0.99015 0.51329 0.09019 0.0
O338 O 0.87108 0.36997 0.1048 0.0
C339 C 0.94708 0.43544 0.08013 0.0
Co340 Co 0.60654 0.50802 0.10344 0.0
Co341 Co 0.54657 0.49497 0.11236 0.0
C342 C 0.59521 0.54189 0.1272 0.0
O343 O 0.61083 0.53642 0.11898 0.0
O344 O 0.56908 0.52688 0.12646 0.0
C345 C 0.65336 0.50776 0.11454 0.0
O346 O 0.63922 0.50336 0.12756 0.0
C347 C 0.49287 0.47681 0.12875 0.0
C348 C 0.46444 0.46091 0.10854 0.0
C349 C 0.46509 0.46411 0.12466 0.0
N350 N 0.50774 0.48043 0.11562 0.0
N351 N 0.49053 0.47102 0.10362 0.0
C352 C 0.50517 0.48614 0.14471 0.0
H353 H 0.52656 0.50354 0.14383 0.0
H354 H 0.50571 0.46897 0.15083 0.0
H355 H 0.49262 0.49241 0.1518 0.0
C356 C 0.58049 0.44787 0.10882 0.0
N357 N 0.58001 0.47164 0.10966 0.0
N358 N 0.55543 0.46633 0.11426 0.0
C359 C 0.53973 0.43902 0.11694 0.0
C360 C 0.55501 0.42631 0.11351 0.0
C361 C 0.6034 0.44538 0.10145 0.0
H362 H 0.61399 0.46156 0.09244 0.0
H363 H 0.61853 0.4479 0.11063 0.0
H364 H 0.59559 0.42494 0.09587 0.0
O365 O 0.59516 0.51645 0.08319 0.0
O366 O 0.55367 0.50869 0.09022 0.0
H367 H 0.49701 0.42423 0.11266 0.0
H368 H 0.5035 0.40431 0.12696 0.0
C369 C 0.51051 0.42535 0.12248 0.0
H370 H 0.50867 0.43766 0.13203 0.0
H371 H 0.49659 0.47119 0.09203 0.0
O372 O 0.64338 0.51093 0.10183 0.0
C373 C 0.57274 0.51606 0.08001 0.0
Co374 Co 0.50402 0.10189 0.10085 0.0
Co375 Co 0.51436 0.05306 0.10939 0.0
C376 C 0.46873 0.05663 0.12438 0.0
O377 O 0.47476 0.07795 0.11619 0.0
O378 O 0.48319 0.04491 0.12369 0.0
C379 C 0.48512 0.14267 0.09797 0.0
O380 O 0.46005 0.12201 0.09572 0.0
C381 C 0.53094 0.01619 0.12514 0.0
C382 C 0.54667 0.00387 0.10477 0.0
C383 C 0.5436 1.00115 0.12091 0.0
N384 N 0.52714 0.02741 0.11209 0.0
N385 N 0.53623 0.01959 0.09996 0.0
C386 C 0.52493 0.0221 0.14132 0.0
H387 H 0.52263 0.04063 0.14129 0.0
H388 H 0.54162 0.02518 0.14953 0.0
H389 H 0.50534 0.00433 0.14548 0.0
C390 C 0.56399 0.13354 0.10701 0.0
N391 N 0.53978 0.10968 0.10721 0.0
N392 N 0.54413 0.08969 0.11158 0.0
C393 C 0.57124 0.10039 0.11466 0.0
C394 C 0.58477 0.12859 0.11187 0.0
C395 C 0.56762 0.15985 0.10038 0.0
H396 H 0.55302 0.15548 0.09056 0.0
H397 H 0.56342 0.17099 0.10972 0.0
H398 H 0.58887 0.17327 0.09597 0.0
O399 O 0.49482 0.08263 0.08027 0.0
O400 O 0.50058 0.04772 0.08741 0.0
H401 H 0.58377 0.07073 0.11031 0.0
H402 H 0.60544 0.09724 0.12416 0.0
C403 C 0.58397 0.0839 0.12007 0.0
H404 H 0.57176 0.07043 0.12989 0.0
H405 H 0.53613 0.02576 0.08843 0.0
O406 O 0.50485 0.13791 0.09987 0.0
C407 C 0.49402 0.05999 0.07715 0.0
Co408 Co 0.40545 0.90443 0.89651 0.0
Co409 Co 0.46555 0.95355 0.89001 0.0
C410 C 0.41662 0.95048 0.87389 0.0
O411 O 0.40045 0.92824 0.88112 0.0
O412 O 0.44267 0.96244 0.87583 0.0
C413 C 0.34584 0.86439 0.89928 0.0
O414 O 0.34186 0.8855 0.90037 0.0
C415 C 0.51897 0.98838 0.87396 0.0
C416 C 0.54705 0.00432 0.89432 0.0
C417 C 0.54667 0.00428 0.87807 0.0
N418 N 0.50396 0.9793 0.8872 0.0
N419 N 0.52088 0.98927 0.8993 0.0
C420 C 0.50702 0.97965 0.85789 0.0
H421 H 0.48628 0.961 0.85853 0.0
H422 H 0.52076 0.97554 0.85041 0.0
H423 H 0.5049 0.99645 0.85243 0.0
C424 C 0.43265 0.87247 0.88854 0.0
N425 N 0.43325 0.89669 0.88986 0.0
N426 N 0.45854 0.9169 0.88736 0.0
C427 C 0.47492 0.90603 0.88468 0.0
C428 C 0.45895 0.87753 0.88518 0.0
C429 C 0.40786 0.8451 0.89189 0.0
H430 H 0.3993 0.84572 0.90351 0.0
H431 H 0.39201 0.84084 0.88283 0.0
H432 H 0.4127 0.82821 0.89186 0.0
O433 O 0.41528 0.92322 0.9174 0.0
O434 O 0.45695 0.95818 0.9119 0.0
H435 H 0.51501 0.93725 0.89212 0.0
H436 H 0.51481 0.90921 0.88153 0.0
C437 C 0.50543 0.9225 0.8823 0.0
H438 H 0.50982 0.93432 0.87125 0.0
H439 H 0.51464 0.98499 0.91098 0.0
O440 O 0.37024 0.8686 0.89792 0.0
C441 C 0.4371 0.94525 0.92147 0.0
Co442 Co 0.09955 0.49893 0.89999 0.0
Co443 Co 0.05236 0.51197 0.89216 0.0
C444 C 0.05396 0.46612 0.87608 0.0
O445 O 0.0754 0.47134 0.88394 0.0
O446 O 0.04261 0.48079 0.87761 0.0
C447 C 0.14763 0.50147 0.88852 0.0
O448 O 0.13813 0.50679 0.8757 0.0
C449 C 0.01684 0.53021 0.8764 0.0
C450 C 0.00579 0.54735 0.89663 0.0
C451 C 1.00256 0.54371 0.88053 0.0
N452 N 0.02806 0.52643 0.88947 0.0
N453 N 0.02106 0.53644 0.90151 0.0
C454 C 0.02204 0.52324 0.86029 0.0
H455 H 0.04039 0.52062 0.86029 0.0
H456 H 0.02514 0.53959 0.85184 0.0
H457 H 1.00396 0.50358 0.85648 0.0
C458 C 0.13344 0.55928 0.8953 0.0
N459 N 0.10919 0.53549 0.8945 0.0
N460 N 0.08982 0.54076 0.89008 0.0
C461 C 0.10141 0.56803 0.88729 0.0
C462 C 0.12949 0.58078 0.8906 0.0
C463 C 0.15892 0.56185 0.90264 0.0
H464 H 0.15343 0.54531 0.9114 0.0
H465 H 0.1719 0.56012 0.8934 0.0
H466 H 0.17116 0.58206 0.90854 0.0
O467 O 0.08009 0.48968 0.9204 0.0
O468 O 0.04599 0.49733 0.91405 0.0
H469 H 0.07364 0.58313 0.89116 0.0
H470 H 0.0999 0.60231 0.87664 0.0
C471 C 0.08588 0.58151 0.88143 0.0
H472 H 0.0716 0.56882 0.87201 0.0
H473 H 0.02735 0.53648 0.91303 0.0
O474 O 0.13381 0.49654 0.90113 0.0
C475 C 0.05801 0.48976 0.92391 0.0
Co476 Co 0.50881 0.60435 0.8988 0.0
Co477 Co 0.49329 0.54313 0.89201 0.0
C478 C 0.54083 0.5895 0.87584 0.0
O479 O 0.5362 0.6065 0.88324 0.0
O480 O 0.52549 0.5636 0.87773 0.0
C481 C 0.51171 0.65222 0.8868 0.0
O482 O 0.50835 0.63831 0.8738 0.0
C483 C 0.47351 0.48927 0.87627 0.0
C484 C 0.45727 0.46107 0.89654 0.0
C485 C 0.46028 0.46151 0.88039 0.0
N486 N 0.47785 0.50426 0.88939 0.0
N487 N 0.46831 0.48725 0.90145 0.0
C488 C 0.4799 0.50146 0.86016 0.0
H489 H 0.48194 0.52218 0.86025 0.0
H490 H 0.46356 0.4879 0.85177 0.0
H491 H 0.49976 0.50366 0.85621 0.0
C492 C 0.44912 0.58066 0.89208 0.0
N493 N 0.4721 0.57864 0.89261 0.0
N494 N 0.46559 0.55313 0.88936 0.0
C495 C 0.43821 0.53819 0.88662 0.0
C496 C 0.42695 0.5552 0.88816 0.0
C497 C 0.44766 0.60548 0.89712 0.0
H498 H 0.46233 0.61617 0.90683 0.0
H499 H 0.45309 0.61979 0.88705 0.0
H500 H 0.42659 0.59977 0.90106 0.0
O501 O 0.51676 0.59367 0.91962 0.0
O502 O 0.50673 0.55098 0.91397 0.0
H503 H 0.42428 0.49661 0.89346 0.0
H504 H 0.40092 0.50044 0.88045 0.0
C505 C 0.42291 0.50799 0.88319 0.0
H506 H 0.43251 0.50375 0.87302 0.0
H507 H 0.46885 0.49351 0.91304 0.0
O508 O 0.51317 0.64175 0.89975 0.0
C509 C 0.51502 0.57093 0.92361 0.0
Co510 Co 0.57396 0.73208 0.43629 0.0
Co511 Co 0.61941 0.7929 0.44508 0.0
C512 C 0.62008 0.74532 0.45978 0.0
O513 O 0.59891 0.72886 0.45181 0.0
O514 O 0.63039 0.77132 0.45878 0.0
C515 C 0.5309 0.67882 0.44563 0.0
O516 O 0.54414 0.68625 0.45906 0.0
C517 C 0.6548 0.84713 0.46113 0.0
C518 C 0.6609 0.87525 0.44147 0.0
C519 C 0.66692 0.87497 0.4572 0.0
N520 N 0.64192 0.83197 0.44833 0.0
N521 N 0.64591 0.84902 0.43664 0.0
C522 C 0.65597 0.83502 0.47654 0.0
H523 H 0.65373 0.81445 0.47487 0.0
H524 H 0.63874 0.83263 0.48405 0.0
H525 H 0.67574 0.84859 0.48262 0.0
C526 C 0.53776 0.75519 0.44283 0.0
N527 N 0.56275 0.75718 0.44296 0.0
N528 N 0.5814 0.7821 0.44742 0.0
C529 C 0.56869 0.79654 0.45073 0.0
C530 C 0.5406 0.7801 0.44779 0.0
C531 C 0.51246 0.73114 0.43609 0.0
H532 H 0.51808 0.72286 0.42581 0.0
H533 H 0.50299 0.71467 0.44507 0.0
H534 H 0.49708 0.73689 0.43233 0.0
O535 O 0.59351 0.74469 0.41595 0.0
O536 O 0.62648 0.78659 0.42295 0.0
H537 H 0.59383 0.83977 0.44671 0.0
H538 H 0.56856 0.83098 0.46206 0.0
C539 C 0.58319 0.82556 0.45662 0.0
H540 H 0.59878 0.82818 0.46547 0.0
H541 H 0.63799 0.84269 0.42537 0.0
O542 O 0.54051 0.69502 0.43395 0.0
C543 C 0.61508 0.7675 0.41276 0.0
Co544 Co 0.27025 0.83725 0.4372 0.0
Co545 Co 0.20962 0.82395 0.44451 0.0
C546 C 0.2583 0.87189 0.45953 0.0
O547 O 0.27472 0.86611 0.45237 0.0
O548 O 0.23229 0.85712 0.4578 0.0
C549 C 0.32101 0.84249 0.4473 0.0
O550 O 0.31181 0.84531 0.46094 0.0
C551 C 0.15682 0.80504 0.46165 0.0
C552 C 0.12788 0.79384 0.44177 0.0
C553 C 0.12907 0.79433 0.458 0.0
N554 N 0.17111 0.8102 0.44817 0.0
N555 N 0.15363 0.80357 0.43637 0.0
C556 C 0.16983 0.81143 0.47757 0.0
H557 H 0.19188 0.82741 0.47679 0.0
H558 H 0.16854 0.79262 0.48263 0.0
H559 H 0.1589 0.81846 0.48552 0.0
C560 C 0.24486 0.77782 0.44449 0.0
N561 N 0.24377 0.80128 0.4441 0.0
N562 N 0.21853 0.7956 0.44747 0.0
C563 C 0.20282 0.76828 0.45014 0.0
C564 C 0.21904 0.7562 0.44839 0.0
C565 C 0.26983 0.77593 0.44036 0.0
H566 H 0.27843 0.78651 0.42904 0.0
H567 H 0.28566 0.78639 0.44958 0.0
H568 H 0.26523 0.75431 0.43957 0.0
O569 O 0.25876 0.8448 0.41652 0.0
O570 O 0.21621 0.83537 0.42219 0.0
H571 H 0.16272 0.75892 0.44245 0.0
H572 H 0.16331 0.73081 0.4524 0.0
C573 C 0.17221 0.75347 0.45219 0.0
H574 H 0.16713 0.76 0.46334 0.0
H575 H 0.15926 0.80545 0.42457 0.0
O576 O 0.30668 0.83937 0.43508 0.0
C577 C 0.23599 0.84297 0.41248 0.0
Co578 Co 0.16762 0.4311 0.43776 0.0
Co579 Co 0.18026 0.38295 0.44344 0.0
C580 C 0.13396 0.38437 0.46014 0.0
O581 O 0.13937 0.40663 0.4532 0.0
O582 O 0.14848 0.37305 0.45776 0.0
C583 C 0.16045 0.47568 0.44807 0.0
O584 O 0.15509 0.46237 0.46145 0.0
C585 C 0.20101 0.35028 0.4598 0.0
C586 C 0.20758 0.32917 0.43981 0.0
C587 C 0.21034 0.33219 0.45596 0.0
N588 N 0.19353 0.35776 0.44651 0.0
N589 N 0.19739 0.34492 0.43464 0.0
C590 C 0.19793 0.35939 0.4758 0.0
H591 H 0.18239 0.36608 0.47567 0.0
H592 H 0.21785 0.37716 0.47955 0.0
H593 H 0.1919 0.3425 0.48442 0.0
C594 C 0.22724 0.46444 0.44465 0.0
N595 N 0.20374 0.43995 0.44395 0.0
N596 N 0.20949 0.42009 0.44591 0.0
C597 C 0.23704 0.43143 0.44763 0.0
C598 C 0.24918 0.45992 0.44695 0.0
C599 C 0.2286 0.49164 0.44285 0.0
H600 H 0.21535 0.49342 0.45186 0.0
H601 H 0.24981 0.5092 0.44436 0.0
H602 H 0.22067 0.49279 0.43112 0.0
O603 O 0.15891 0.41241 0.41688 0.0
O604 O 0.1663 0.37765 0.42166 0.0
H605 H 0.24277 0.39896 0.43863 0.0
H606 H 0.27412 0.42873 0.44515 0.0
C607 C 0.25183 0.4154 0.44762 0.0
H608 H 0.24948 0.40569 0.45926 0.0
H609 H 0.1933 0.34713 0.42295 0.0
O610 O 0.16591 0.46571 0.4361 0.0
C611 C 0.15892 0.39068 0.41246 0.0
H612 H 0.4174 0.46308 0.11751 0.0
H613 H 0.3748 0.44311 0.13276 0.0
H614 H 0.41358 0.42173 0.16952 0.0
H615 H 0.45596 0.44088 0.1541 0.0
H616 H 0.36348 0.37923 0.16253 0.0
H617 H 0.40104 0.47517 0.17395 0.0
H618 H 0.42066 0.52439 0.16771 0.0
H619 H 0.34703 0.50631 0.14267 0.0
H620 H 0.3271 0.45691 0.14858 0.0
H621 H 0.26338 0.34587 0.22162 0.0
H622 H 0.30559 0.36752 0.20611 0.0
H623 H 0.26397 0.38626 0.16978 0.0
H624 H 0.22172 0.36524 0.18549 0.0
H625 H 0.31483 0.42991 0.17604 0.0
H626 H 0.27694 0.33419 0.16488 0.0
H627 H 0.25703 0.28496 0.17117 0.0
H628 H 0.33108 0.30247 0.19555 0.0
H629 H 0.35129 0.35189 0.18962 0.0
C630 C 0.41695 0.45439 0.12893 0.0
C631 C 0.44032 0.45418 0.13474 0.0
C632 C 0.39261 0.44308 0.13766 0.0
C633 C 0.39107 0.43124 0.1524 0.0
C634 C 0.41436 0.43097 0.15824 0.0
C635 C 0.43877 0.44234 0.1495 0.0
C636 C 0.36484 0.41824 0.16141 0.0
C637 C 0.35306 0.39044 0.16569 0.0
C638 C 0.35078 0.4326 0.16512 0.0
C639 C 0.36268 0.4623 0.16158 0.0
C640 C 0.38912 0.48166 0.16701 0.0
C641 C 0.40028 0.5096 0.16355 0.0
C642 C 0.38513 0.51846 0.15477 0.0
C643 C 0.35875 0.49941 0.14946 0.0
C644 C 0.3475 0.47144 0.15287 0.0
C645 C 0.26314 0.35456 0.21032 0.0
C646 C 0.23898 0.35331 0.20466 0.0
C647 C 0.28728 0.3668 0.20142 0.0
C648 C 0.28785 0.37812 0.18666 0.0
C649 C 0.26392 0.3774 0.18108 0.0
C650 C 0.23966 0.36505 0.18998 0.0
C651 C 0.31361 0.39099 0.17724 0.0
C652 C 0.32526 0.41872 0.17287 0.0
C653 C 0.32755 0.37656 0.17342 0.0
C654 C 0.31553 0.3468 0.17692 0.0
C655 C 0.2889 0.32758 0.17169 0.0
C656 C 0.27757 0.29963 0.17518 0.0
C657 C 0.29275 0.2906 0.18379 0.0
C658 C 0.31933 0.3095 0.1889 0.0
C659 C 0.33074 0.33748 0.18546 0.0
H660 H 0.28394 0.26895 0.18648 0.0
H661 H 0.39381 0.5401 0.15211 0.0
H662 H 0.61526 0.86877 0.21662 0.0
H663 H 0.59339 0.88931 0.20123 0.0
H664 H 0.66003 0.91969 0.16783 0.0
H665 H 0.68253 0.90016 0.1835 0.0
H666 H 0.64916 0.95901 0.17571 0.0
H667 H 0.59532 0.86506 0.15916 0.0
H668 H 0.56623 0.81487 0.1626 0.0
H669 H 0.50514 0.82645 0.18622 0.0
H670 H 0.53406 0.87675 0.18311 0.0
H671 H 0.58954 0.99801 0.11543 0.0
H672 H 0.60854 0.97508 0.13107 0.0
H673 H 0.54258 0.95018 0.16453 0.0
H674 H 0.5229 0.97251 0.14861 0.0
H675 H 0.55223 0.90817 0.15728 0.0
H676 H 0.60611 1.00243 0.17315 0.0
H677 H 0.63525 0.05249 0.16919 0.0
H678 H 0.69649 0.04012 0.14641 0.0
H679 H 0.66754 0.98993 0.15002 0.0
C680 C 0.62511 0.87955 0.20589 0.0
C681 C 0.65035 0.88224 0.20111 0.0
C682 C 0.6125 0.89117 0.19706 0.0
C683 C 0.62484 0.90573 0.18324 0.0
C684 C 0.64998 0.90833 0.17838 0.0
C685 C 0.66264 0.89673 0.18724 0.0
C686 C 0.61221 0.91938 0.17428 0.0
C687 C 0.62809 0.94779 0.17148 0.0
C688 C 0.58445 0.90494 0.16917 0.0
C689 C 0.56699 0.87469 0.17103 0.0
C690 C 0.57579 0.85692 0.1652 0.0
C691 C 0.55931 0.82845 0.16707 0.0
C692 C 0.53389 0.81748 0.17466 0.0
C693 C 0.52486 0.83497 0.18036 0.0
C694 C 0.54127 0.86346 0.17854 0.0
C695 C 0.57903 0.98769 0.12612 0.0
C696 C 0.55496 0.98756 0.13092 0.0
C697 C 0.59003 0.97472 0.13511 0.0
C698 C 0.57725 0.9613 0.14911 0.0
C699 C 0.55293 0.96067 0.15383 0.0
C700 C 0.5419 0.97375 0.14483 0.0
C701 C 0.58927 0.9477 0.15862 0.0
C702 C 0.57328 0.91935 0.16154 0.0
C703 C 0.61696 0.96217 0.16381 0.0
C704 C 0.63453 0.99238 0.16174 0.0
C705 C 0.6257 0.01036 0.16719 0.0
C706 C 0.6422 0.03876 0.16503 0.0
C707 C 0.66767 0.04946 0.15753 0.0
C708 C 0.67674 0.03179 0.15221 0.0
C709 C 0.66031 0.00336 0.15432 0.0
H710 H 0.68041 0.07144 0.15587 0.0
H711 H 0.52116 0.79543 0.1761 0.0
H712 H 0.99256 0.55679 0.15057 0.0
H713 H 0.01407 0.59985 0.16529 0.0
H714 H 0.08034 0.63559 0.13165 0.0
H715 H 0.05943 0.59212 0.11718 0.0
H716 H 0.09969 0.65064 0.16111 0.0
H717 H 0.0272 0.64841 0.12986 0.0
H718 H 0.97959 0.62823 0.12004 0.0
H719 H 0.95092 0.6285 0.16669 0.0
H720 H 0.99832 0.64832 0.17683 0.0
H721 H 0.15015 0.78994 0.18408 0.0
H722 H 0.13096 0.74781 0.1684 0.0
H723 H 0.06161 0.70859 0.19987 0.0
H724 H 0.08005 0.75082 0.21519 0.0
H725 H 0.04455 0.69614 0.1705 0.0
H726 H 0.116 0.69655 0.202 0.0
H727 H 0.1632 0.71566 0.21228 0.0
H728 H 0.19339 0.71815 0.16568 0.0
H729 H 0.14639 0.69937 0.15509 0.0
C730 C 0.01214 0.57342 0.14655 0.0
C731 C 0.02454 0.57078 0.13284 0.0
C732 C 0.0242 0.59826 0.15485 0.0
C733 C 0.04867 0.62109 0.14948 0.0
C734 C 0.06147 0.61829 0.13603 0.0
C735 C 0.04944 0.59345 0.12774 0.0
C736 C 0.06047 0.64814 0.15756 0.0
C737 C 0.08776 0.66078 0.16298 0.0
C738 C 0.04476 0.66117 0.16024 0.0
C739 C 0.01629 0.64962 0.15413 0.0
C740 C 0.01072 0.64401 0.13804 0.0
C741 C 0.98377 0.63265 0.13242 0.0
C742 C 0.96223 0.62702 0.14274 0.0
C743 C 0.96762 0.63284 0.15871 0.0
C744 C 0.99453 0.64416 0.1644 0.0
C745 C 0.13051 0.77262 0.18746 0.0
C746 C 0.11647 0.77395 0.20079 0.0
C747 C 0.11974 0.74836 0.1786 0.0
C748 C 0.09491 0.7249 0.18302 0.0
C749 C 0.08075 0.72637 0.19619 0.0
C750 C 0.09144 0.75053 0.205 0.0
C751 C 0.08373 0.69858 0.17418 0.0
C752 C 0.05654 0.68608 0.16859 0.0
C753 C 0.09949 0.68564 0.17139 0.0
C754 C 0.12774 0.69685 0.17774 0.0
C755 C 0.13274 0.70137 0.19393 0.0
C756 C 0.15945 0.71211 0.19982 0.0
C757 C 0.1813 0.71819 0.18964 0.0
C758 C 0.17646 0.71348 0.17355 0.0
C759 C 0.14979 0.70277 0.1676 0.0
H760 H 0.20196 0.7265 0.19422 0.0
H761 H 0.94138 0.6182 0.13837 0.0
H762 H 0.41491 0.4118 0.88564 0.0
H763 H 0.39768 0.36974 0.87022 0.0
H764 H 0.46426 0.41216 0.83729 0.0
H765 H 0.48187 0.45438 0.8528 0.0
H766 H 0.41513 0.37983 0.82245 0.0
H767 H 0.46668 0.36897 0.86375 0.0
H768 H 0.48061 0.36842 0.89111 0.0
H769 H 0.39876 0.30373 0.90206 0.0
H770 H 0.38422 0.30417 0.8748 0.0
H771 H 0.39391 0.25834 0.78435 0.0
H772 H 0.41538 0.30093 0.79964 0.0
H773 H 0.34991 0.26363 0.83368 0.0
H774 H 0.32807 0.22124 0.81832 0.0
H775 H 0.40076 0.29388 0.84764 0.0
H776 H 0.34877 0.306 0.80681 0.0
H777 H 0.33445 0.30656 0.77953 0.0
H778 H 0.41695 0.36888 0.76781 0.0
H779 H 0.43186 0.3684 0.79498 0.0
C780 C 0.42592 0.41225 0.8751 0.0
C781 C 0.44958 0.43662 0.87036 0.0
C782 C 0.41605 0.38814 0.86631 0.0
C783 C 0.42983 0.38771 0.85268 0.0
C784 C 0.45325 0.41207 0.84775 0.0
C785 C 0.46316 0.43628 0.85656 0.0
C786 C 0.4197 0.36172 0.84368 0.0
C787 C 0.41244 0.36115 0.82788 0.0
C788 C 0.41561 0.33718 0.85086 0.0
C789 C 0.42431 0.33677 0.86726 0.0
C790 C 0.45159 0.35477 0.87202 0.0
C791 C 0.45961 0.35446 0.88751 0.0
C792 C 0.44057 0.3361 0.89833 0.0
C793 C 0.41348 0.31796 0.89367 0.0
C794 C 0.40535 0.31822 0.87819 0.0
C795 C 0.38422 0.2591 0.79518 0.0
C796 C 0.35953 0.23613 0.80025 0.0
C797 C 0.39648 0.28349 0.80388 0.0
C798 C 0.38416 0.28552 0.81775 0.0
C799 C 0.35988 0.26244 0.82306 0.0
C800 C 0.34756 0.23804 0.81434 0.0
C801 C 0.39608 0.31197 0.82645 0.0
C802 C 0.40364 0.31261 0.84219 0.0
C803 C 0.40042 0.33656 0.81922 0.0
C804 C 0.3915 0.33694 0.80288 0.0
C805 C 0.36391 0.31966 0.79838 0.0
C806 C 0.35568 0.31999 0.78295 0.0
C807 C 0.37479 0.33768 0.77193 0.0
C808 C 0.40217 0.35514 0.77634 0.0
C809 C 0.41053 0.35486 0.79176 0.0
H810 H 0.36837 0.33792 0.75999 0.0
H811 H 0.44682 0.33588 0.91031 0.0
H812 H 0.78832 0.10471 0.81738 0.0
H813 H 0.74561 0.08473 0.83244 0.0
H814 H 0.70753 0.10758 0.79598 0.0
H815 H 0.75061 0.12862 0.78113 0.0
H816 H 0.69308 0.11677 0.82434 0.0
H817 H 0.69617 0.04211 0.79879 0.0
H818 H 0.71682 0.01379 0.7916 0.0
H819 H 0.71863 0.99412 0.84009 0.0
H820 H 0.69837 0.02267 0.8476 0.0
H821 H 0.55431 0.02867 0.84897 0.0
H822 H 0.59645 0.04968 0.83318 0.0
H823 H 0.63798 0.02989 0.86907 0.0
H824 H 0.59585 0.0083 0.88468 0.0
H825 H 0.64991 0.01877 0.84027 0.0
H826 H 0.6481 0.09431 0.86583 0.0
H827 H 0.62802 0.12308 0.87316 0.0
H828 H 0.6239 0.14104 0.82461 0.0
H829 H 0.64362 0.11205 0.81698 0.0
C830 C 0.77122 0.1063 0.81277 0.0
C831 C 0.7731 0.11878 0.79817 0.0
C832 C 0.74659 0.09441 0.82128 0.0
C833 C 0.72323 0.09437 0.81526 0.0
C834 C 0.72525 0.10734 0.80086 0.0
C835 C 0.74986 0.11927 0.79237 0.0
C836 C 0.69649 0.08021 0.82375 0.0
C837 C 0.68346 0.09524 0.82763 0.0
C838 C 0.68412 0.05222 0.82828 0.0
C839 C 0.69599 0.03475 0.82377 0.0
C840 C 0.70114 0.0319 0.80793 0.0
C841 C 0.71276 0.01578 0.8038 0.0
C842 C 0.7191 1.00223 0.81538 0.0
C843 C 0.71375 0.00467 0.83113 0.0
C844 C 0.70217 0.02079 0.83533 0.0
C845 C 0.57221 0.02829 0.85335 0.0
C846 C 0.5716 0.0165 0.868 0.0
C847 C 0.59642 0.04061 0.8444 0.0
C848 C 0.62045 0.0415 0.84998 0.0
C849 C 0.61971 0.02942 0.8645 0.0
C850 C 0.59563 0.01723 0.87345 0.0
C851 C 0.64658 0.05538 0.84091 0.0
C852 C 0.65949 0.04027 0.83691 0.0
C853 C 0.65883 0.08328 0.83627 0.0
C854 C 0.64705 0.10077 0.84083 0.0
C855 C 0.6427 0.10421 0.85671 0.0
C856 C 0.63143 0.12059 0.86092 0.0
C857 C 0.62462 0.13381 0.84935 0.0
C858 C 0.62914 0.13075 0.83355 0.0
C859 C 0.64038 0.11436 0.82928 0.0
H860 H 0.6159 0.14649 0.85263 0.0
H861 H 0.72812 0.98978 0.81216 0.0
H862 H 0.999 0.58946 0.88591 0.0
H863 H 0.97554 0.60793 0.87029 0.0
H864 H 0.9509 0.54186 0.83697 0.0
H865 H 0.97399 0.52287 0.85273 0.0
H866 H 0.97071 0.59253 0.82261 0.0
H867 H 0.90466 0.54001 0.8623 0.0
H868 H 0.88828 0.52509 0.88931 0.0
H869 H 0.90716 0.6071 0.90113 0.0
H870 H 0.92403 0.62261 0.87424 0.0
H871 H 0.87785 0.62198 0.78238 0.0
H872 H 0.89656 0.59813 0.7976 0.0
H873 H 0.92025 0.65875 0.83432 0.0
H874 H 0.90161 0.68267 0.81914 0.0
H875 H 0.89892 0.60806 0.84652 0.0
H876 H 0.96717 0.66142 0.80781 0.0
H877 H 0.98482 0.67751 0.78112 0.0
H878 H 0.96315 0.5953 0.76778 0.0
H879 H 0.945 0.57864 0.79435 0.0
C880 C 0.98857 0.57876 0.87527 0.0
C881 C 0.98876 0.55486 0.87048 0.0
C882 C 0.97513 0.58936 0.86636 0.0
C883 C 0.96128 0.57617 0.85253 0.0
C884 C 0.96158 0.55243 0.84759 0.0
C885 C 0.97503 0.54174 0.85655 0.0
C886 C 0.94659 0.58734 0.8433 0.0
C887 C 0.95466 0.59547 0.82774 0.0
C888 C 0.92613 0.59181 0.85012 0.0
C889 C 0.91582 0.58251 0.86628 0.0
C890 C 0.90551 0.55491 0.87069 0.0
C891 C 0.89611 0.54634 0.88597 0.0
C892 C 0.89673 0.56515 0.89694 0.0
C893 C 0.9067 0.59256 0.89263 0.0
C894 C 0.91616 0.60124 0.87736 0.0
C895 C 0.88683 0.63008 0.79377 0.0
C896 C 0.88781 0.65396 0.79966 0.0
C897 C 0.89761 0.6165 0.80243 0.0
C898 C 0.91007 0.62679 0.81705 0.0
C899 C 0.9106 0.65033 0.82311 0.0
C900 C 0.89969 0.66387 0.81447 0.0
C901 C 0.92316 0.61344 0.82584 0.0
C902 C 0.91481 0.60493 0.84134 0.0
C903 C 0.94348 0.60876 0.81898 0.0
C904 C 0.95445 0.61874 0.80302 0.0
C905 C 0.96597 0.64673 0.79915 0.0
C906 C 0.9761 0.65596 0.78405 0.0
C907 C 0.97504 0.63742 0.77275 0.0
C908 C 0.96391 0.60963 0.77654 0.0
C909 C 0.95372 0.60028 0.79162 0.0
H910 H 0.98289 0.64461 0.76107 0.0
H911 H 0.88945 0.55847 0.90876 0.0
H912 H 0.77638 0.66853 0.80704 0.0
H913 H 0.73272 0.6445 0.82137 0.0
H914 H 0.72355 0.71613 0.81756 0.0
H915 H 0.76706 0.74031 0.80331 0.0
H916 H 0.70999 0.69313 0.84679 0.0
H917 H 0.68932 0.66257 0.79297 0.0
H918 H 0.69464 0.64208 0.76857 0.0
H919 H 0.67237 0.56688 0.79302 0.0
H920 H 0.66729 0.58708 0.81763 0.0
H921 H 0.57069 0.64124 0.8637 0.0
H922 H 0.61457 0.66119 0.84986 0.0
H923 H 0.61232 0.58328 0.85202 0.0
H924 H 0.56775 0.56285 0.86549 0.0
H925 H 0.63281 0.60719 0.82473 0.0
H926 H 0.65135 0.63625 0.87823 0.0
H927 H 0.64642 0.65634 0.9029 0.0
H928 H 0.67354 0.73365 0.87972 0.0
H929 H 0.67828 0.71391 0.85486 0.0
C930 C 0.76523 0.67929 0.80939 0.0
C931 C 0.7752 0.70633 0.80393 0.0
C932 C 0.74018 0.66545 0.81751 0.0
C933 C 0.72467 0.67839 0.82036 0.0
C934 C 0.7351 0.7057 0.81545 0.0
C935 C 0.76 0.71948 0.80727 0.0
C936 C 0.69728 0.66344 0.82812 0.0
C937 C 0.69304 0.67447 0.8419 0.0
C938 C 0.67537 0.63866 0.82198 0.0
C939 C 0.67822 0.62644 0.80717 0.0
C940 C 0.68577 0.64174 0.79317 0.0
C941 C 0.68871 0.63017 0.7793 0.0
C942 C 0.68393 0.60323 0.77926 0.0
C943 C 0.67612 0.58777 0.79308 0.0
C944 C 0.67319 0.59926 0.80699 0.0
C945 C 0.57935 0.62822 0.86111 0.0
C946 C 0.56582 0.6005 0.86585 0.0
C947 C 0.60457 0.63973 0.85326 0.0
C948 C 0.6172 0.62398 0.85026 0.0
C949 C 0.60313 0.59593 0.85431 0.0
C950 C 0.57763 0.58427 0.862 0.0
C951 C 0.64536 0.63711 0.84331 0.0
C952 C 0.64977 0.62573 0.82971 0.0
C953 C 0.66755 0.66151 0.84968 0.0
C954 C 0.66496 0.67353 0.86465 0.0
C955 C 0.65611 0.65749 0.87837 0.0
C956 C 0.65336 0.66882 0.89239 0.0
C957 C 0.65961 0.69624 0.89287 0.0
C958 C 0.66869 0.71241 0.87933 0.0
C959 C 0.67144 0.70117 0.86528 0.0
H960 H 0.65746 0.70497 0.90373 0.0
H961 H 0.68622 0.5943 0.76851 0.0
H962 H 0.36266 0.92918 0.86535 0.0
H963 H 0.34201 0.95215 0.85119 0.0
H964 H 0.42203 0.02458 0.84605 0.0
H965 H 0.44298 1.00177 0.86031 0.0
H966 H 0.38308 0.0369 0.85657 0.0
H967 H 0.39116 0.98386 0.81488 0.0
H968 H 0.38512 0.94172 0.80215 0.0
H969 H 0.29729 0.90441 0.80626 0.0
H970 H 0.30281 0.9462 0.8192 0.0
H971 H 0.34021 0.1061 0.80344 0.0
H972 H 0.36295 0.08448 0.81689 0.0
H973 H 0.28624 0.00731 0.81788 0.0
H974 H 0.26358 0.02857 0.80392 0.0
H975 H 0.32501 0.99812 0.80913 0.0
H976 H 0.31583 0.04926 0.85141 0.0
H977 H 0.32064 0.09037 0.86483 0.0
H978 H 0.40864 0.13001 0.86063 0.0
H979 H 0.40433 0.08925 0.84699 0.0
C980 C 0.37599 0.9499 0.86108 0.0
C981 C 0.40454 0.96359 0.86399 0.0
C982 C 0.36411 0.963 0.85294 0.0
C983 C 0.38047 0.99006 0.84749 0.0
C984 C 0.40901 0.00369 0.85016 0.0
C985 C 0.42097 0.99055 0.85824 0.0
C986 C 0.36757 0.00434 0.83945 0.0
C987 C 0.37073 0.02868 0.84605 0.0
C988 C 0.3508 0.99318 0.826 0.0
C989 C 0.34742 0.96808 0.81813 0.0
C990 C 0.37056 0.96659 0.81317 0.0
C991 C 0.36723 0.94278 0.8059 0.0
C992 C 0.34084 0.92038 0.80343 0.0
C993 C 0.31772 0.92177 0.80819 0.0
C994 C 0.32094 0.94552 0.81548 0.0
C995 C 0.32807 0.0846 0.80667 0.0
C996 C 0.30003 0.0691 0.80259 0.0
C997 C 0.34112 0.07225 0.81442 0.0
C998 C 0.32632 0.04425 0.81857 0.0
C999 C 0.29818 0.0289 0.81479 0.0
C1000 C 0.2852 0.04114 0.80686 0.0
C1001 C 0.34031 0.03069 0.82629 0.0
C1002 C 0.33738 0.00645 0.81964 0.0
C1003 C 0.35708 0.04181 0.83979 0.0
C1004 C 0.35973 0.0663 0.84804 0.0
C1005 C 0.33619 0.06682 0.85324 0.0
C1006 C 0.33884 0.09005 0.86091 0.0
C1007 C 0.36493 0.11282 0.86354 0.0
C1008 C 0.38844 0.11237 0.85856 0.0
C1009 C 0.38591 0.0892 0.85087 0.0
H1010 H 0.36693 0.13078 0.86948 0.0
H1011 H 0.33831 0.90196 0.7978 0.0
H1012 H 0.07471 0.43289 0.86787 0.0
H1013 H 0.05175 0.38975 0.85324 0.0
H1014 H 0.98063 0.3992 0.84686 0.0
H1015 H 1.00345 0.4425 0.86158 0.0
H1016 H 0.9667 0.34708 0.857 0.0
H1017 H 0.02244 0.40937 0.81644 0.0
H1018 H 0.06544 0.44565 0.80452 0.0
H1019 H 0.10171 0.39432 0.80897 0.0
H1020 H 0.05905 0.35786 0.82112 0.0
H1021 H 0.90074 0.23543 0.80257 0.0
H1022 H 0.9209 0.27949 0.81642 0.0
H1023 H 0.99859 0.2812 0.81933 0.0
H1024 H 0.97886 0.23775 0.80506 0.0
H1025 H 0.00771 0.32884 0.81023 0.0
H1026 H 0.95416 0.26765 0.85179 0.0
H1027 H 0.9122 0.23116 0.8645 0.0
H1028 H 0.87303 0.27971 0.85919 0.0
H1029 H 0.91464 0.31635 0.84625 0.0
C1030 C 0.05429 0.42601 0.86325 0.0
C1031 C 0.04096 0.44125 0.86593 0.0
C1032 C 0.0412 0.40131 0.85484 0.0
C1033 C 0.0145 0.39127 0.84889 0.0
C1034 C 1.00123 0.40655 0.85136 0.0
C1035 C 0.01439 0.43139 0.8597 0.0
C1036 C 1.00026 0.36442 0.8405 0.0
C1037 C 0.97541 0.34318 0.84662 0.0
C1038 C 0.01198 0.35913 0.82721 0.0
C1039 C 0.03761 0.38097 0.81981 0.0
C1040 C 0.03966 0.40589 0.81499 0.0
C1041 C 0.06396 0.42648 0.80817 0.0
C1042 C 0.08632 0.42232 0.80602 0.0
C1043 C 0.08439 0.39753 0.81065 0.0
C1044 C 0.06014 0.37688 0.81748 0.0
C1045 C 0.92202 0.24503 0.80633 0.0
C1046 C 0.93819 0.23306 0.80266 0.0
C1047 C 0.93354 0.27023 0.8143 0.0
C1048 C 0.9613 0.28373 0.81904 0.0
C1049 C 0.97719 0.27137 0.81574 0.0
C1050 C 0.96583 0.24641 0.80763 0.0
C1051 C 0.97423 0.31121 0.82683 0.0
C1052 C 0.99886 0.33265 0.82058 0.0
C1053 C 0.96243 0.31658 0.8401 0.0
C1054 C 0.93741 0.29461 0.8479 0.0
C1055 C 0.93652 0.27045 0.85322 0.0
C1056 C 0.91281 0.24976 0.86049 0.0
C1057 C 0.88993 0.25308 0.86261 0.0
C1058 C 0.89075 0.27714 0.85751 0.0
C1059 C 0.91439 0.29789 0.85023 0.0
H1060 H 0.8716 0.23704 0.86824 0.0
H1061 H 0.10512 0.43829 0.80074 0.0
H1062 H 0.73855 0.76113 0.20943 0.0
H1063 H 0.71586 0.71721 0.1955 0.0
H1064 H 0.65675 0.73706 0.17633 0.0
H1065 H 0.67927 0.78114 0.19031 0.0
H1066 H 0.6621 0.67396 0.19814 0.0
H1067 H 0.64127 0.70879 0.13874 0.0
H1068 H 0.66057 0.75031 0.12209 0.0
H1069 H 0.74071 0.7785 0.14195 0.0
H1070 H 0.72196 0.737 0.15854 0.0
H1071 H 0.57063 0.55834 0.14936 0.0
H1072 H 0.59171 0.60207 0.1638 0.0
H1073 H 0.66925 0.6272 0.14087 0.0
H1074 H 0.64866 0.58372 0.1266 0.0
H1075 H 0.65385 0.66768 0.14016 0.0
H1076 H 0.66265 0.6074 0.17714 0.0
H1077 H 0.64538 0.56594 0.19366 0.0
H1078 H 0.59326 0.5888 0.21853 0.0
H1079 H 0.60996 0.63023 0.20199 0.0
C1080 C 0.72085 0.75633 0.20218 0.0
C1081 C 0.71079 0.77477 0.20099 0.0
C1082 C 0.70778 0.73108 0.1943 0.0
C1083 C 0.68461 0.72382 0.18489 0.0
C1084 C 0.67469 0.74229 0.18348 0.0
C1085 C 0.6876 0.76748 0.19148 0.0
C1086 C 0.6709 0.69689 0.17659 0.0
C1087 C 0.66017 0.67259 0.18547 0.0
C1088 C 0.66852 0.69507 0.16006 0.0
C1089 C 0.68012 0.71994 0.15 0.0
C1090 C 0.66302 0.72382 0.13951 0.0
C1091 C 0.67386 0.74735 0.13009 0.0
C1092 C 0.70183 0.76708 0.131 0.0
C1093 C 0.71903 0.76327 0.1413 0.0
C1094 C 0.70829 0.73976 0.15073 0.0
C1095 C 0.59222 0.57309 0.14748 0.0
C1096 C 0.60792 0.56743 0.13682 0.0
C1097 C 0.60422 0.59806 0.15574 0.0
C1098 C 0.63203 0.61792 0.15336 0.0
C1099 C 0.64773 0.61224 0.14282 0.0
C1100 C 0.63591 0.58724 0.13475 0.0
C1101 C 0.64493 0.64477 0.16172 0.0
C1102 C 0.65549 0.66905 0.15285 0.0
C1103 C 0.64732 0.64658 0.17825 0.0
C1104 C 0.63732 0.62173 0.18821 0.0
C1105 C 0.64732 0.60345 0.18603 0.0
C1106 C 0.63768 0.57999 0.19542 0.0
C1107 C 0.61817 0.57469 0.2071 0.0
C1108 C 0.60833 0.5929 0.20945 0.0
C1109 C 0.61789 0.61638 0.20009 0.0
H1110 H 0.61074 0.55652 0.21436 0.0
H1111 H 0.71018 0.78529 0.12371 0.0
H1112 H 0.22275 0.90944 0.1823 0.0
H1113 H 0.2663 0.93104 0.1677 0.0
H1114 H 0.30211 0.99597 0.20223 0.0
H1115 H 0.25843 0.97555 0.21612 0.0
H1116 H 0.31916 0.01851 0.17679 0.0
H1117 H 0.31505 0.93852 0.19942 0.0
H1118 H 0.295 0.88908 0.20522 0.0
H1119 H 0.29476 0.87192 0.15612 0.0
H1120 H 0.3145 0.92124 0.15001 0.0
H1121 H 0.45532 0.02162 0.14953 0.0
H1122 H 0.41219 1.00008 0.16448 0.0
H1123 H 0.38041 0.0399 0.13462 0.0
H1124 H 0.4238 0.06256 0.12033 0.0
H1125 H 0.36249 0.9651 0.15858 0.0
H1126 H 0.33506 0.05195 0.15233 0.0
H1127 H 0.35894 0.10261 0.15052 0.0
H1128 H 0.42911 0.10835 0.17434 0.0
H1129 H 0.40552 0.05776 0.17648 0.0
C1130 C 0.23993 0.9284 0.18668 0.0
C1131 C 0.23711 0.94085 0.20031 0.0
C1132 C 0.26494 0.94065 0.17841 0.0
C1133 C 0.28787 0.96505 0.18393 0.0
C1134 C 0.28488 0.97733 0.19758 0.0
C1135 C 0.25981 0.96556 0.20556 0.0
C1136 C 0.31494 0.97819 0.17556 0.0
C1137 C 0.32856 0.00673 0.17285 0.0
C1138 C 0.32778 0.96317 0.17063 0.0
C1139 C 0.31599 0.93353 0.17425 0.0
C1140 C 0.31055 0.92417 0.18985 0.0
C1141 C 0.29927 0.89618 0.1932 0.0
C1142 C 0.29354 0.87736 0.18104 0.0
C1143 C 0.29916 0.88652 0.16552 0.0
C1144 C 0.31042 0.91449 0.16211 0.0
C1145 C 0.43922 0.02602 0.14631 0.0
C1146 C 0.44314 0.04411 0.13389 0.0
C1147 C 0.41449 0.01356 0.1548 0.0
C1148 C 0.39302 0.01861 0.1509 0.0
C1149 C 0.3968 0.03622 0.13825 0.0
C1150 C 0.42168 0.04915 0.13002 0.0
C1151 C 0.36661 0.00535 0.15989 0.0
C1152 C 0.35308 0.97683 0.16261 0.0
C1153 C 0.35439 0.02056 0.16547 0.0
C1154 C 0.36861 0.05105 0.16442 0.0
C1155 C 0.35554 0.06403 0.15724 0.0
C1156 C 0.36903 0.09273 0.15614 0.0
C1157 C 0.39556 0.10868 0.16226 0.0
C1158 C 0.40861 0.09597 0.16955 0.0
C1159 C 0.39519 0.06728 0.17069 0.0
H1160 H 0.40599 0.13089 0.16138 0.0
H1161 H 0.2848 0.8557 0.18365 0.0
H1162 H 0.03221 0.26375 0.19697 0.0
H1163 H 0.01183 0.28688 0.18263 0.0
H1164 H 0.09032 0.36209 0.18236 0.0
H1165 H 0.111 0.33908 0.19669 0.0
H1166 H 0.04701 0.36946 0.19243 0.0
H1167 H 0.06718 0.32762 0.14928 0.0
H1168 H 0.06681 0.28953 0.13466 0.0
H1169 H 0.97838 0.24647 0.13355 0.0
H1170 H 0.97821 0.28415 0.14836 0.0
H1171 H 0.00583 0.4419 0.14026 0.0
H1172 H 0.02915 0.4208 0.1537 0.0
H1173 H 0.95571 0.34117 0.14991 0.0
H1174 H 0.93247 0.36196 0.13615 0.0
H1175 H 0.99849 0.33727 0.14149 0.0
H1176 H 0.97726 0.37692 0.18525 0.0
H1177 H 0.97628 0.41372 0.20054 0.0
H1178 H 0.06471 0.45936 0.20137 0.0
H1179 H 0.06622 0.42298 0.1859 0.0
C1180 C 0.04527 0.28513 0.19372 0.0
C1181 C 0.07327 0.29955 0.198 0.0
C1182 C 0.03357 0.29831 0.18549 0.0
C1183 C 0.04955 0.32621 0.18142 0.0
C1184 C 0.07761 0.34056 0.18541 0.0
C1185 C 0.08942 0.32731 0.19351 0.0
C1186 C 0.03665 0.34054 0.17349 0.0
C1187 C 0.03678 0.36275 0.18117 0.0
C1188 C 0.02265 0.33126 0.15902 0.0
C1189 C 0.02268 0.3086 0.15006 0.0
C1190 C 0.04764 0.30993 0.14603 0.0
C1191 C 0.04753 0.28843 0.13769 0.0
C1192 C 0.02259 0.26556 0.13321 0.0
C1193 C 0.99769 0.26418 0.13704 0.0
C1194 C 0.99769 0.28562 0.14539 0.0
C1195 C 0.99451 0.41994 0.14244 0.0
C1196 C 0.96725 0.40365 0.13709 0.0
C1197 C 0.00788 0.40789 0.15017 0.0
C1198 C 0.99418 0.37936 0.15291 0.0
C1199 C 0.96678 0.36319 0.14789 0.0
C1200 C 0.95346 0.37516 0.14008 0.0
C1201 C 0.00862 0.36615 0.16048 0.0
C1202 C 0.00878 0.34412 0.15273 0.0
C1203 C 0.02268 0.37545 0.17496 0.0
C1204 C 0.02185 0.39736 0.18427 0.0
C1205 C 0.9965 0.39491 0.18858 0.0
C1206 C 0.99585 0.41568 0.1973 0.0
C1207 C 0.02042 0.43891 0.20188 0.0
C1208 C 0.0457 0.44138 0.19779 0.0
C1209 C 0.04646 0.42068 0.18906 0.0
H1210 H 0.01987 0.45496 0.20864 0.0
H1211 H 0.02254 0.24894 0.12675 0.0
H1212 H 0.08252 0.79667 0.45281 0.0
H1213 H 0.04039 0.7763 0.46844 0.0
H1214 H 0.07782 0.74774 0.50217 0.0
H1215 H 0.11965 0.76719 0.48628 0.0
H1216 H 0.02728 0.70779 0.49478 0.0
H1217 H 0.06765 0.80212 0.51036 0.0
H1218 H 0.08876 0.8522 0.50649 0.0
H1219 H 0.01574 0.84002 0.48299 0.0
H1220 H 0.99432 0.7898 0.48653 0.0
H1221 H 0.92811 0.6707 0.55502 0.0
H1222 H 0.97028 0.69299 0.53945 0.0
H1223 H 0.92955 0.71642 0.50495 0.0
H1224 H 0.88731 0.6946 0.5207 0.0
H1225 H 0.98125 0.759 0.51248 0.0
H1226 H 0.94087 0.66444 0.49727 0.0
H1227 H 0.91988 0.61447 0.50157 0.0
H1228 H 0.99336 0.62736 0.52481 0.0
H1229 H 0.01466 0.67748 0.52086 0.0
C1230 C 0.0819 0.7863 0.46365 0.0
C1231 C 0.10473 0.78412 0.46846 0.0
C1232 C 0.05783 0.77478 0.47262 0.0
C1233 C 0.05603 0.76081 0.48662 0.0
C1234 C 0.07881 0.75865 0.49148 0.0
C1235 C 0.10293 0.77018 0.4825 0.0
C1236 C 0.02995 0.74742 0.49576 0.0
C1237 C 0.01745 0.7191 0.49885 0.0
C1238 C 0.01667 0.76197 0.5007 0.0
C1239 C 0.02948 0.79217 0.49858 0.0
C1240 C 0.05617 0.8101 0.50425 0.0
C1241 C 0.06818 0.83852 0.50214 0.0
C1242 C 0.05363 0.84928 0.49446 0.0
C1243 C 0.02701 0.83165 0.48891 0.0
C1244 C 0.01491 0.80321 0.49098 0.0
C1245 C 0.92807 0.68053 0.54409 0.0
C1246 C 0.90418 0.68042 0.53895 0.0
C1247 C 0.95216 0.69315 0.53517 0.0
C1248 C 0.95297 0.70604 0.52093 0.0
C1249 C 0.92929 0.70637 0.51585 0.0
C1250 C 0.90506 0.69358 0.52476 0.0
C1251 C 0.97873 0.71947 0.51153 0.0
C1252 C 0.99112 0.74774 0.50839 0.0
C1253 C 0.99196 0.7049 0.50657 0.0
C1254 C 0.97927 0.67475 0.50889 0.0
C1255 C 0.95248 0.65664 0.50341 0.0
C1256 C 0.94054 0.62829 0.50576 0.0
C1257 C 0.95525 0.61775 0.51349 0.0
C1258 C 0.98197 0.63555 0.51884 0.0
C1259 C 0.994 0.66394 0.51653 0.0
H1260 H 0.94597 0.59579 0.5153 0.0
H1261 H 0.06296 0.87129 0.49284 0.0
H1262 H 0.24206 0.35274 0.48266 0.0
H1263 H 0.26313 0.33152 0.49806 0.0
H1264 H 0.22848 0.26175 0.46676 0.0
H1265 H 0.20627 0.28233 0.4517 0.0
H1266 H 0.22454 0.24499 0.49634 0.0
H1267 H 0.296 0.31355 0.46383 0.0
H1268 H 0.32525 0.3601 0.45297 0.0
H1269 H 0.35588 0.39119 0.49906 0.0
H1270 H 0.32651 0.3449 0.51024 0.0
H1271 H 0.31084 0.19143 0.51938 0.0
H1272 H 0.28874 0.21151 0.50364 0.0
H1273 H 0.31939 0.28038 0.53548 0.0
H1274 H 0.34196 0.26075 0.55102 0.0
H1275 H 0.32555 0.29719 0.50518 0.0
H1276 H 0.25367 0.22934 0.53774 0.0
H1277 H 0.22431 0.18304 0.54886 0.0
H1278 H 0.19457 0.15087 0.50281 0.0
H1279 H 0.22408 0.19694 0.49139 0.0
C1280 C 0.23815 0.33253 0.4793 0.0
C1281 C 0.22196 0.319 0.46611 0.0
C1282 C 0.25067 0.32061 0.48798 0.0
C1283 C 0.24767 0.29516 0.48347 0.0
C1284 C 0.23112 0.2814 0.47047 0.0
C1285 C 0.21852 0.29325 0.46184 0.0
C1286 C 0.26219 0.28309 0.49208 0.0
C1287 C 0.24668 0.25628 0.49808 0.0
C1288 C 0.29103 0.29797 0.49461 0.0
C1289 C 0.30885 0.32579 0.48789 0.0
C1290 C 0.30882 0.33035 0.47167 0.0
C1291 C 0.32544 0.35669 0.46545 0.0
C1292 C 0.34235 0.3786 0.47533 0.0
C1293 C 0.34274 0.3742 0.49143 0.0
C1294 C 0.32612 0.34792 0.49771 0.0
C1295 C 0.31334 0.21109 0.52284 0.0
C1296 C 0.32845 0.22467 0.53634 0.0
C1297 C 0.30041 0.2224 0.51395 0.0
C1298 C 0.30229 0.24739 0.51844 0.0
C1299 C 0.31769 0.26112 0.53177 0.0
C1300 C 0.33046 0.24979 0.54069 0.0
C1301 C 0.28789 0.25915 0.50945 0.0
C1302 C 0.30343 0.28589 0.50338 0.0
C1303 C 0.2591 0.24422 0.50685 0.0
C1304 C 0.24132 0.21652 0.51369 0.0
C1305 C 0.24105 0.21234 0.52997 0.0
C1306 C 0.22435 0.18615 0.53633 0.0
C1307 C 0.20765 0.16401 0.52655 0.0
C1308 C 0.20756 0.16803 0.51038 0.0
C1309 C 0.22426 0.19418 0.50395 0.0
H1310 H 0.19472 0.14375 0.5315 0.0
H1311 H 0.35522 0.39897 0.47051 0.0
H1312 H 0.70563 0.92589 0.4474 0.0
H1313 H 0.72852 0.96842 0.46246 0.0
H1314 H 0.68618 0.92408 0.50424 0.0
H1315 H 0.66163 0.88184 0.48899 0.0
H1316 H 0.68505 0.96898 0.5035 0.0
H1317 H 0.75747 0.94863 0.49708 0.0
H1318 H 0.78853 0.93683 0.48294 0.0
H1319 H 0.82088 0.01165 0.45635 0.0
H1320 H 0.78974 0.02373 0.47019 0.0
H1321 H 0.77976 0.07579 0.5559 0.0
H1322 H 0.75969 0.03326 0.54066 0.0
H1323 H 0.76413 0.07828 0.49883 0.0
H1324 H 0.78236 0.1206 0.51404 0.0
H1325 H 0.7858 0.03359 0.50028 0.0
H1326 H 0.70896 0.05078 0.50683 0.0
H1327 H 0.6793 0.06184 0.523 0.0
H1328 H 0.65717 0.99093 0.55174 0.0
H1329 H 0.68711 0.97974 0.53589 0.0
C1330 C 0.70127 0.92508 0.45983 0.0
C1331 C 0.6823 0.9001 0.46702 0.0
C1332 C 0.71461 0.94947 0.46847 0.0
C1333 C 0.70966 0.94949 0.48462 0.0
C1334 C 0.69066 0.92461 0.49185 0.0
C1335 C 0.67697 0.90023 0.48313 0.0
C1336 C 0.72345 0.97566 0.49374 0.0
C1337 C 0.70713 0.98285 0.50289 0.0
C1338 C 0.75228 0.99412 0.49292 0.0
C1339 C 0.77108 0.98696 0.48458 0.0
C1340 C 0.77106 0.96247 0.48814 0.0
C1341 C 0.78871 0.95575 0.48019 0.0
C1342 C 0.80662 0.97345 0.46873 0.0
C1343 C 0.80697 0.99794 0.46522 0.0
C1344 C 0.78935 0.00476 0.47313 0.0
C1345 C 0.77662 0.07682 0.54344 0.0
C1346 C 0.78346 0.10205 0.53622 0.0
C1347 C 0.76522 0.05244 0.53476 0.0
C1348 C 0.76066 0.05276 0.51865 0.0
C1349 C 0.76788 0.07779 0.51126 0.0
C1350 C 0.77875 0.10215 0.52 0.0
C1351 C 0.74731 0.02667 0.50971 0.0
C1352 C 0.76374 0.01955 0.50074 0.0
C1353 C 0.71872 0.00808 0.51087 0.0
C1354 C 0.70054 0.01464 0.52031 0.0
C1355 C 0.69801 0.03773 0.51671 0.0
C1356 C 0.6811 0.04398 0.52579 0.0
C1357 C 0.66643 0.02715 0.53842 0.0
C1358 C 0.66859 0.00398 0.54197 0.0
C1359 C 0.68551 0.99767 0.53294 0.0
H1360 H 0.65334 0.03202 0.54543 0.0
H1361 H 0.82026 0.9682 0.46259 0.0
H1362 H 0.40911 0.09952 0.53092 0.0
H1363 H 0.38537 0.05643 0.51625 0.0
H1364 H 0.31185 0.06273 0.51477 0.0
H1365 H 0.33554 0.1061 0.52945 0.0
H1366 H 0.30219 0.01084 0.52455 0.0
H1367 H 0.34743 0.07382 0.48225 0.0
H1368 H 0.3868 0.1115 0.46836 0.0
H1369 H 0.42815 0.06454 0.46784 0.0
H1370 H 0.38918 0.02671 0.48195 0.0
H1371 H 0.23156 0.89752 0.47167 0.0
H1372 H 0.25205 0.94188 0.48519 0.0
H1373 H 0.33193 0.94832 0.48273 0.0
H1374 H 0.31178 0.90444 0.46887 0.0
H1375 H 0.33643 0.99493 0.47424 0.0
H1376 H 0.29387 0.93344 0.51756 0.0
H1377 H 0.2559 0.89566 0.53225 0.0
H1378 H 0.21113 0.93927 0.53181 0.0
H1379 H 0.2487 0.97717 0.51693 0.0
C1380 C 0.38797 0.09195 0.52735 0.0
C1381 C 0.37424 0.10631 0.53138 0.0
C1382 C 0.37444 0.0673 0.51893 0.0
C1383 C 0.34685 0.05638 0.51438 0.0
C1384 C 0.33314 0.0708 0.51817 0.0
C1385 C 0.34678 0.09567 0.52647 0.0
C1386 C 0.33222 0.02945 0.50613 0.0
C1387 C 0.30934 0.00743 0.51341 0.0
C1388 C 0.34204 0.02485 0.49183 0.0
C1389 C 0.36547 0.04752 0.48328 0.0
C1390 C 0.36501 0.07161 0.47929 0.0
C1391 C 0.38724 0.09298 0.47135 0.0
C1392 C 0.40999 0.09044 0.46725 0.0
C1393 C 0.41053 0.06649 0.47104 0.0
C1394 C 0.38836 0.04506 0.47899 0.0
C1395 C 0.25344 0.90822 0.47416 0.0
C1396 C 0.27001 0.89738 0.46914 0.0
C1397 C 0.26514 0.93361 0.48193 0.0
C1398 C 0.29357 0.94849 0.48507 0.0
C1399 C 0.30999 0.93737 0.48038 0.0
C1400 C 0.29838 0.91216 0.47251 0.0
C1401 C 0.30649 0.97607 0.49273 0.0
C1402 C 0.3291 0.99827 0.48534 0.0
C1403 C 0.29657 0.98074 0.50702 0.0
C1404 C 0.27396 0.958 0.51597 0.0
C1405 C 0.27583 0.93487 0.52048 0.0
C1406 C 0.2544 0.91346 0.52886 0.0
C1407 C 0.23108 0.91503 0.53292 0.0
C1408 C 0.22918 0.93806 0.52864 0.0
C1409 C 0.25055 0.95952 0.52024 0.0
H1410 H 0.21451 0.89843 0.53941 0.0
H1411 H 0.42718 0.10701 0.46111 0.0
H1412 H 0.10305 0.40579 0.47155 0.0
H1413 H 0.05994 0.38195 0.48622 0.0
H1414 H 0.06478 0.30765 0.48602 0.0
H1415 H 0.10812 0.33139 0.47133 0.0
H1416 H 0.01306 0.29903 0.47699 0.0
H1417 H 0.07707 0.34212 0.51912 0.0
H1418 H 0.11541 0.38063 0.53319 0.0
H1419 H 0.06963 0.42315 0.53522 0.0
H1420 H 0.03115 0.38505 0.52096 0.0
H1421 H 0.90011 0.22892 0.53063 0.0
H1422 H 0.94425 0.24863 0.51681 0.0
H1423 H 0.95252 0.3292 0.51962 0.0
H1424 H 0.90892 0.30985 0.53367 0.0
H1425 H 0.9988 0.33223 0.52811 0.0
H1426 H 0.93634 0.29171 0.48487 0.0
H1427 H 0.89795 0.25448 0.4701 0.0
H1428 H 0.94036 0.20853 0.46939 0.0
H1429 H 0.97886 0.24535 0.48435 0.0
C1430 C 0.09514 0.38444 0.47474 0.0
C1431 C 0.1091 0.37053 0.47025 0.0
C1432 C 0.07049 0.37086 0.48316 0.0
C1433 C 0.05917 0.34303 0.48725 0.0
C1434 C 0.07315 0.32912 0.48297 0.0
C1435 C 0.09801 0.34278 0.47466 0.0
C1436 C 0.03237 0.32844 0.49564 0.0
C1437 C 0.01001 0.30595 0.4883 0.0
C1438 C 0.02826 0.33792 0.5102 0.0
C1439 C 0.05132 0.36082 0.51885 0.0
C1440 C 0.07526 0.35978 0.52245 0.0
C1441 C 0.097 0.38151 0.53049 0.0
C1442 C 0.09498 0.40435 0.53507 0.0
C1443 C 0.07118 0.40546 0.53166 0.0
C1444 C 0.04938 0.38378 0.52361 0.0
C1445 C 0.91119 0.25078 0.52815 0.0
C1446 C 0.90096 0.26778 0.53332 0.0
C1447 C 0.93643 0.26204 0.52022 0.0
C1448 C 0.95177 0.29044 0.51712 0.0
C1449 C 0.94122 0.30728 0.52194 0.0
C1450 C 0.91616 0.29612 0.52994 0.0
C1451 C 0.97924 0.30298 0.50937 0.0
C1452 C 1.00179 0.32512 0.51685 0.0
C1453 C 0.98344 0.29331 0.49487 0.0
C1454 C 0.96033 0.27114 0.48589 0.0
C1455 C 0.93737 0.27356 0.48168 0.0
C1456 C 0.91561 0.25255 0.47326 0.0
C1457 C 0.91668 0.22911 0.46886 0.0
C1458 C 0.93954 0.22667 0.47284 0.0
C1459 C 0.96134 0.24761 0.48128 0.0
H1460 H 0.89982 0.21288 0.46233 0.0
H1461 H 0.11184 0.42116 0.54128 0.0
H1462 H 0.69946 0.59644 0.53047 0.0
H1463 H 0.68022 0.62009 0.51563 0.0
H1464 H 0.7581 0.69576 0.51824 0.0
H1465 H 0.77769 0.67215 0.53309 0.0
H1466 H 0.71275 0.70163 0.52675 0.0
H1467 H 0.73955 0.66406 0.48437 0.0
H1468 H 0.74227 0.62767 0.46966 0.0
H1469 H 0.65418 0.58241 0.46518 0.0
H1470 H 0.65089 0.61836 0.48006 0.0
H1471 H 0.67082 0.77306 0.47397 0.0
H1472 H 0.69514 0.75333 0.48778 0.0
H1473 H 0.62509 0.67194 0.48153 0.0
H1474 H 0.60096 0.69139 0.4674 0.0
H1475 H 0.66996 0.67137 0.47424 0.0
H1476 H 0.64205 0.70616 0.51765 0.0
H1477 H 0.63787 0.74111 0.53303 0.0
H1478 H 0.72596 0.78991 0.53634 0.0
H1479 H 0.73068 0.7554 0.5208 0.0
C1480 C 0.71264 0.61806 0.52777 0.0
C1481 C 0.74014 0.63239 0.53299 0.0
C1482 C 0.7016 0.63153 0.51925 0.0
C1483 C 0.71773 0.65968 0.5158 0.0
C1484 C 0.74529 0.67403 0.52079 0.0
C1485 C 0.75649 0.66046 0.52919 0.0
C1486 C 0.70535 0.6741 0.50742 0.0
C1487 C 0.70382 0.69539 0.51514 0.0
C1488 C 0.69306 0.66543 0.49246 0.0
C1489 C 0.69497 0.64381 0.48345 0.0
C1490 C 0.72074 0.64624 0.48036 0.0
C1491 C 0.72239 0.62571 0.47197 0.0
C1492 C 0.69841 0.60271 0.46652 0.0
C1493 C 0.67274 0.60023 0.46942 0.0
C1494 C 0.67097 0.62069 0.47782 0.0
C1495 C 0.66046 0.75098 0.47568 0.0
C1496 C 0.63392 0.73383 0.46953 0.0
C1497 C 0.67439 0.73971 0.48362 0.0
C1498 C 0.66194 0.7111 0.48579 0.0
C1499 C 0.63522 0.69404 0.47996 0.0
C1500 C 0.62139 0.70524 0.47192 0.0
C1501 C 0.67696 0.69874 0.49364 0.0
C1502 C 0.67902 0.67781 0.4858 0.0
C1503 C 0.68949 0.70758 0.50855 0.0
C1504 C 0.68672 0.72834 0.51791 0.0
C1505 C 0.66053 0.72445 0.52155 0.0
C1506 C 0.65807 0.74416 0.53032 0.0
C1507 C 0.68164 0.76776 0.53562 0.0
C1508 C 0.70773 0.77165 0.5322 0.0
C1509 C 0.71031 0.75201 0.52342 0.0
H1510 H 0.67968 0.78299 0.54241 0.0
H1511 H 0.69973 0.58684 0.46002 0.0
H1512 H 0.12722 0.33484 0.26455 0.0
H1513 H 0.13336 0.35404 0.29088 0.0
H1514 H 0.08858 0.27196 0.31014 0.0
H1515 H 0.08093 0.25271 0.28357 0.0
H1516 H 0.07616 0.30251 0.3262 0.0
H1517 H 0.1621 0.31269 0.30964 0.0
H1518 H 0.20192 0.32651 0.29215 0.0
H1519 H 0.22388 0.41128 0.29678 0.0
H1520 H 0.18393 0.39792 0.31413 0.0
H1521 H 0.1398 0.33825 0.40216 0.0
H1522 H 0.12681 0.32062 0.37545 0.0
H1523 H 0.14603 0.40117 0.35944 0.0
H1524 H 0.15854 0.41898 0.38631 0.0
H1525 H 0.171 0.37255 0.34206 0.0
H1526 H 0.08365 0.359 0.36068 0.0
H1527 H 0.04498 0.34204 0.37936 0.0
H1528 H 0.02786 0.25915 0.37236 0.0
H1529 H 0.06671 0.27568 0.35381 0.0
C1530 C 0.11849 0.3209 0.27441 0.0
C1531 C 0.10381 0.29228 0.27206 0.0
C1532 C 0.12217 0.33189 0.28948 0.0
C1533 C 0.11218 0.31449 0.30261 0.0
C1534 C 0.09666 0.28586 0.30024 0.0
C1535 C 0.09231 0.27485 0.28507 0.0
C1536 C 0.11853 0.3262 0.31876 0.0
C1537 C 0.09697 0.3176 0.32967 0.0
C1538 C 0.14565 0.34613 0.32337 0.0
C1539 C 0.16986 0.35427 0.31306 0.0
C1540 C 0.17532 0.33426 0.30685 0.0
C1541 C 0.19792 0.34201 0.29697 0.0
C1542 C 0.21538 0.36974 0.29332 0.0
C1543 C 0.21031 0.3898 0.2996 0.0
C1544 C 0.1877 0.38215 0.30946 0.0
C1545 C 0.14114 0.35223 0.39299 0.0
C1546 C 0.15023 0.38004 0.39634 0.0
C1547 C 0.13362 0.34207 0.37775 0.0
C1548 C 0.13541 0.35959 0.36553 0.0
C1549 C 0.14447 0.38736 0.36877 0.0
C1550 C 0.15151 0.39745 0.3841 0.0
C1551 C 0.12867 0.34892 0.34929 0.0
C1552 C 0.15021 0.35761 0.33846 0.0
C1553 C 0.10173 0.3286 0.3449 0.0
C1554 C 0.07825 0.31862 0.35596 0.0
C1555 C 0.07179 0.33718 0.36323 0.0
C1556 C 0.04981 0.32764 0.37377 0.0
C1557 C 0.03402 0.29954 0.37707 0.0
C1558 C 0.04013 0.28092 0.3698 0.0
C1559 C 0.06211 0.29036 0.35926 0.0
H1560 H 0.01701 0.2922 0.38524 0.0
H1561 H 0.23286 0.3757 0.28566 0.0
H1562 H 0.75733 0.83512 0.28402 0.0
H1563 H 0.73895 0.82364 0.31073 0.0
H1564 H 0.65676 0.79367 0.29278 0.0
H1565 H 0.67519 0.80644 0.26631 0.0
H1566 H 0.66159 0.82139 0.31684 0.0
H1567 H 0.68284 0.7503 0.30634 0.0
H1568 H 0.71167 0.73047 0.29865 0.0
H1569 H 0.76668 0.77223 0.33696 0.0
H1570 H 0.73835 0.7926 0.34477 0.0
H1571 H 0.58943 0.74326 0.38517 0.0
H1572 H 0.60973 0.75291 0.3588 0.0
H1573 H 0.68872 0.81136 0.37823 0.0
H1574 H 0.66851 0.80247 0.40454 0.0
H1575 H 0.6857 0.76888 0.35415 0.0
H1576 H 0.66175 0.83986 0.36365 0.0
H1577 H 0.62961 0.8559 0.37107 0.0
H1578 H 0.5753 0.8086 0.33358 0.0
H1579 H 0.60695 0.79193 0.3261 0.0
C1580 C 0.73534 0.82598 0.28581 0.0
C1581 C 0.71772 0.82174 0.27308 0.0
C1582 C 0.7248 0.81926 0.30107 0.0
C1583 C 0.69634 0.80741 0.30383 0.0
C1584 C 0.67877 0.80287 0.29104 0.0
C1585 C 0.68934 0.81013 0.27588 0.0
C1586 C 0.68478 0.8005 0.32001 0.0
C1587 C 0.66667 0.80957 0.32486 0.0
C1588 C 0.69156 0.78541 0.33069 0.0
C1589 C 0.70863 0.7732 0.32604 0.0
C1590 C 0.7012 0.75542 0.31305 0.0
C1591 C 0.71743 0.74405 0.30869 0.0
C1592 C 0.74104 0.75015 0.31728 0.0
C1593 C 0.74842 0.76756 0.3303 0.0
C1594 C 0.73227 0.77901 0.33471 0.0
C1595 C 0.61114 0.75805 0.38382 0.0
C1596 C 0.62735 0.77219 0.3969 0.0
C1597 C 0.62268 0.76353 0.36878 0.0
C1598 C 0.65068 0.7828 0.36664 0.0
C1599 C 0.66709 0.79637 0.3797 0.0
C1600 C 0.65546 0.79136 0.39468 0.0
C1601 C 0.66263 0.78963 0.35069 0.0
C1602 C 0.68075 0.78061 0.34599 0.0
C1603 C 0.65547 0.80425 0.34001 0.0
C1604 C 0.63654 0.8144 0.34444 0.0
C1605 C 0.64282 0.83266 0.35709 0.0
C1606 C 0.62472 0.84192 0.36129 0.0
C1607 C 0.60038 0.83321 0.35283 0.0
C1608 C 0.59413 0.81529 0.34014 0.0
C1609 C 0.61215 0.80594 0.33591 0.0
H1610 H 0.5864 0.8404 0.3561 0.0
H1611 H 0.75357 0.74133 0.31388 0.0
H1612 H 0.17556 0.85589 0.26797 0.0
H1613 H 0.18586 0.8463 0.29426 0.0
H1614 H 0.21954 0.93172 0.30676 0.0
H1615 H 0.20861 0.94137 0.2806 0.0
H1616 H 0.23085 0.86247 0.31045 0.0
H1617 H 0.20717 0.93707 0.34505 0.0
H1618 H 0.17762 0.95793 0.34288 0.0
H1619 H 0.12025 0.89013 0.31446 0.0
H1620 H 0.14926 0.86871 0.31664 0.0
H1621 H 0.27514 0.86919 0.3896 0.0
H1622 H 0.26805 0.88077 0.36296 0.0
H1623 H 0.18077 0.84276 0.37183 0.0
H1624 H 0.18777 0.83193 0.39848 0.0
H1625 H 0.19655 0.88839 0.35734 0.0
H1626 H 0.20963 0.8111 0.34951 0.0
H1627 H 0.23371 0.78456 0.35156 0.0
H1628 H 0.30264 0.84767 0.32626 0.0
H1629 H 0.2791 0.87476 0.32423 0.0
C1630 C 0.18518 0.87269 0.27629 0.0
C1631 C 0.19107 0.89938 0.27219 0.0
C1632 C 0.19116 0.86717 0.29132 0.0
C1633 C 0.20321 0.8882 0.30256 0.0
C1634 C 0.20977 0.91503 0.29838 0.0
C1635 C 0.20357 0.92053 0.2834 0.0
C1636 C 0.20839 0.88187 0.31872 0.0
C1637 C 0.22343 0.86822 0.3207 0.0
C1638 C 0.1983 0.8889 0.33213 0.0
C1639 C 0.18056 0.90147 0.33087 0.0
C1640 C 0.18821 0.92659 0.33838 0.0
C1641 C 0.17155 0.93851 0.33715 0.0
C1642 C 0.14712 0.92541 0.32849 0.0
C1643 C 0.13923 0.90031 0.32111 0.0
C1644 C 0.15579 0.88829 0.32233 0.0
C1645 C 0.25444 0.86327 0.38586 0.0
C1646 C 0.23204 0.84963 0.39619 0.0
C1647 C 0.25039 0.86982 0.3706 0.0
C1648 C 0.22382 0.86244 0.36531 0.0
C1649 C 0.20148 0.8488 0.37562 0.0
C1650 C 0.20553 0.84254 0.39088 0.0
C1651 C 0.21906 0.86899 0.3491 0.0
C1652 C 0.20416 0.88279 0.3471 0.0
C1653 C 0.22854 0.86132 0.33568 0.0
C1654 C 0.24273 0.84508 0.33686 0.0
C1655 C 0.23001 0.81941 0.34449 0.0
C1656 C 0.24355 0.80425 0.34563 0.0
C1657 C 0.26972 0.81446 0.33908 0.0
C1658 C 0.28238 0.83981 0.33134 0.0
C1659 C 0.26895 0.85506 0.33018 0.0
H1660 H 0.28017 0.80269 0.33998 0.0
H1661 H 0.13427 0.93469 0.32754 0.0
H1662 H 0.41176 0.13916 0.61516 0.0
H1663 H 0.39105 0.12704 0.64136 0.0
H1664 H 0.32457 0.13893 0.62569 0.0
H1665 H 0.34519 0.15146 0.59975 0.0
H1666 H 0.34303 0.16358 0.6525 0.0
H1667 H 0.31552 0.07413 0.63181 0.0
H1668 H 0.32235 0.03815 0.61961 0.0
H1669 H 0.373 0.04189 0.65838 0.0
H1670 H 0.36677 0.07818 0.67072 0.0
H1671 H 0.25703 0.06706 0.72109 0.0
H1672 H 0.27436 0.07269 0.69411 0.0
H1673 H 0.34607 0.14946 0.70702 0.0
H1674 H 0.32893 0.14433 0.73371 0.0
H1675 H 0.3215 0.07797 0.68097 0.0
H1676 H 0.36227 0.19527 0.6779 0.0
H1677 H 0.35181 0.22945 0.68927 0.0
H1678 H 0.26755 0.16648 0.69608 0.0
H1679 H 0.27741 0.13201 0.68455 0.0
C1680 C 0.39268 0.13907 0.61728 0.0
C1681 C 0.38024 0.14639 0.60533 0.0
C1682 C 0.38078 0.13201 0.63225 0.0
C1683 C 0.35614 0.13192 0.63549 0.0
C1684 C 0.34362 0.13894 0.62352 0.0
C1685 C 0.35548 0.14607 0.60864 0.0
C1686 C 0.34375 0.12557 0.65144 0.0
C1687 C 0.33836 0.14484 0.6587 0.0
C1688 C 0.33717 0.10093 0.65947 0.0
C1689 C 0.34089 0.07906 0.65211 0.0
C1690 C 0.32829 0.06743 0.63768 0.0
C1691 C 0.33202 0.04695 0.63075 0.0
C1692 C 0.34816 0.03778 0.6382 0.0
C1693 C 0.36054 0.04903 0.65262 0.0
C1694 C 0.35689 0.06954 0.65959 0.0
C1695 C 0.2765 0.08511 0.71818 0.0
C1696 C 0.29141 0.10535 0.72956 0.0
C1697 C 0.28643 0.08823 0.70278 0.0
C1698 C 0.31134 0.11167 0.69851 0.0
C1699 C 0.32658 0.13143 0.70997 0.0
C1700 C 0.3167 0.12841 0.72527 0.0
C1701 C 0.32121 0.11617 0.68202 0.0
C1702 C 0.32618 0.09665 0.67472 0.0
C1703 C 0.32693 0.14036 0.67377 0.0
C1704 C 0.32067 0.16103 0.68049 0.0
C1705 C 0.34149 0.18875 0.68175 0.0
C1706 C 0.33567 0.20816 0.68824 0.0
C1707 C 0.30906 0.20012 0.69343 0.0
C1708 C 0.28818 0.17266 0.6921 0.0
C1709 C 0.29388 0.15317 0.68561 0.0
H1710 H 0.3046 0.21518 0.69847 0.0
H1711 H 0.35102 0.02193 0.63281 0.0
H1712 H 0.86016 0.16336 0.7291 0.0
H1713 H 0.85424 0.1755 0.70243 0.0
H1714 H 0.94217 0.22727 0.69782 0.0
H1715 H 0.94847 0.21464 0.72449 0.0
H1716 H 0.89131 0.24451 0.69016 0.0
H1717 H 0.9363 0.1901 0.67735 0.0
H1718 H 0.94039 0.14861 0.68071 0.0
H1719 H 0.85527 0.09748 0.66817 0.0
H1720 H 0.85062 0.13871 0.66497 0.0
H1721 H 0.88619 0.27504 0.60945 0.0
H1722 H 0.90029 0.26822 0.63546 0.0
H1723 H 0.83841 0.18205 0.63351 0.0
H1724 H 0.82553 0.18854 0.60719 0.0
H1725 H 0.8807 0.18463 0.64479 0.0
H1726 H 0.83309 0.23357 0.65647 0.0
H1727 H 0.82266 0.2713 0.65475 0.0
H1728 H 0.9041 0.32872 0.67107 0.0
H1729 H 0.91512 0.29137 0.6727 0.0
C1730 C 0.8783 0.17728 0.72243 0.0
C1731 C 0.90481 0.18803 0.72891 0.0
C1732 C 0.87485 0.18417 0.70721 0.0
C1733 C 0.89776 0.2022 0.69823 0.0
C1734 C 0.92427 0.21321 0.70461 0.0
C1735 C 0.92782 0.20592 0.7198 0.0
C1736 C 0.89358 0.20936 0.68218 0.0
C1737 C 0.88956 0.23187 0.68011 0.0
C1738 C 0.89019 0.19212 0.66933 0.0
C1739 C 0.89305 0.16742 0.67111 0.0
C1740 C 0.9184 0.16999 0.67547 0.0
C1741 C 0.92083 0.14654 0.67731 0.0
C1742 C 0.89808 0.12042 0.6747 0.0
C1743 C 0.87287 0.11772 0.67021 0.0
C1744 C 0.87033 0.14111 0.66837 0.0
C1745 C 0.87554 0.25471 0.61465 0.0
C1746 C 0.85474 0.23233 0.60632 0.0
C1747 C 0.88351 0.25081 0.62955 0.0
C1748 C 0.87021 0.22465 0.63664 0.0
C1749 C 0.84916 0.20241 0.62834 0.0
C1750 C 0.84169 0.20615 0.61331 0.0
C1751 C 0.87843 0.22012 0.6525 0.0
C1752 C 0.88292 0.19781 0.65465 0.0
C1753 C 0.8816 0.23726 0.6655 0.0
C1754 C 0.87502 0.25974 0.66454 0.0
C1755 C 0.84884 0.25428 0.65958 0.0
C1756 C 0.84281 0.27559 0.65864 0.0
C1757 C 0.86274 0.30241 0.66275 0.0
C1758 C 0.88871 0.30795 0.66786 0.0
C1759 C 0.89485 0.28672 0.6688 0.0
H1760 H 0.85803 0.31887 0.66202 0.0
H1761 H 0.9 0.10229 0.67613 0.0
H1762 H 0.78986 0.72991 0.72594 0.0
H1763 H 0.77675 0.71005 0.69949 0.0
H1764 H 0.83117 0.67694 0.70382 0.0
H1765 H 0.84378 0.69592 0.73032 0.0
H1766 H 0.83075 0.71502 0.67369 0.0
H1767 H 0.78083 0.631 0.70651 0.0
H1768 H 0.74828 0.60553 0.72788 0.0
H1769 H 0.68594 0.6164 0.70526 0.0
H1770 H 0.71833 0.64231 0.68386 0.0
H1771 H 0.81442 0.63265 0.60908 0.0
H1772 H 0.82092 0.65181 0.63539 0.0
H1773 H 0.73604 0.63235 0.63627 0.0
H1774 H 0.72906 0.61151 0.61012 0.0
H1775 H 0.74825 0.62375 0.66367 0.0
H1776 H 0.7924 0.70008 0.62912 0.0
H1777 H 0.82288 0.72842 0.60765 0.0
H1778 H 0.89327 0.73713 0.63268 0.0
H1779 H 0.86318 0.70852 0.65421 0.0
C1780 C 0.799 0.71839 0.72124 0.0
C1781 C 0.81779 0.71441 0.73021 0.0
C1782 C 0.79144 0.70703 0.7062 0.0
C1783 C 0.80293 0.69197 0.69984 0.0
C1784 C 0.82201 0.68839 0.70863 0.0
C1785 C 0.82914 0.69921 0.72375 0.0
C1786 C 0.79547 0.68025 0.6839 0.0
C1787 C 0.81286 0.695 0.67143 0.0
C1788 C 0.77155 0.6547 0.68099 0.0
C1789 C 0.75207 0.63887 0.69373 0.0
C1790 C 0.76028 0.6282 0.70619 0.0
C1791 C 0.74184 0.61363 0.71828 0.0
C1792 C 0.71509 0.60944 0.71796 0.0
C1793 C 0.70668 0.61971 0.70551 0.0
C1794 C 0.72506 0.63433 0.6934 0.0
C1795 C 0.7971 0.63236 0.6149 0.0
C1796 C 0.7713 0.62085 0.60751 0.0
C1797 C 0.80088 0.64352 0.62992 0.0
C1798 C 0.77923 0.64439 0.63769 0.0
C1799 C 0.75316 0.63216 0.6305 0.0
C1800 C 0.74916 0.62028 0.61557 0.0
C1801 C 0.78407 0.65811 0.65326 0.0
C1802 C 0.76611 0.64387 0.66572 0.0
C1803 C 0.80724 0.68453 0.65609 0.0
C1804 C 0.82549 0.70199 0.64323 0.0
C1805 C 0.81436 0.70791 0.63001 0.0
C1806 C 0.83157 0.72404 0.61783 0.0
C1807 C 0.85998 0.73453 0.61879 0.0
C1808 C 0.87126 0.72898 0.63195 0.0
C1809 C 0.85414 0.71284 0.64416 0.0
H1810 H 0.87327 0.74699 0.60935 0.0
H1811 H 0.70085 0.59817 0.72734 0.0
H1812 H 1.00046 0.46146 0.0708 0.0
H1813 H 0.01835 0.46745 0.04417 0.0
H1814 H 0.93536 0.42124 0.02622 0.0
H1815 H 0.9174 0.41382 0.05312 0.0
H1816 H 0.96592 0.40902 0.00971 0.0
H1817 H 0.97471 0.49435 0.02566 0.0
H1818 H 0.988 0.53449 0.04279 0.0
H1819 H 0.07328 0.55836 0.03769 0.0
H1820 H 0.06047 0.51812 0.02071 0.0
H1821 H 1.00481 0.4711 0.93282 0.0
H1822 H 0.98535 0.45873 0.95926 0.0
H1823 H 0.0647 0.47779 0.97745 0.0
H1824 H 0.08428 0.4896 0.95095 0.0
H1825 H 0.03511 0.50365 0.99311 0.0
H1826 H 0.02288 0.41582 0.97608 0.0
H1827 H 0.00658 0.3766 0.95786 0.0
H1828 H 0.92335 0.35942 0.96353 0.0
H1829 H 0.93923 0.39882 0.98162 0.0
C1830 C 0.98602 0.45242 0.06118 0.0
C1831 C 0.95752 0.43741 0.06399 0.0
C1832 C 0.99626 0.45601 0.04593 0.0
C1833 C 0.97822 0.44553 0.03309 0.0
C1834 C 0.94972 0.42971 0.03591 0.0
C1835 C 0.93946 0.4255 0.05126 0.0
C1836 C 0.98923 0.4516 0.01678 0.0
C1837 C 0.98077 0.42979 0.00607 0.0
C1838 C 0.00877 0.47868 0.01193 0.0
C1839 C 0.0166 0.50307 0.02202 0.0
C1840 C 0.99628 0.50807 0.02827 0.0
C1841 C 1.00373 0.53084 0.03794 0.0
C1842 C 0.03146 0.54893 0.04136 0.0
C1843 C 0.05181 0.54432 0.03505 0.0
C1844 C 0.04447 0.52154 0.02539 0.0
C1845 C 0.01811 0.4725 0.94243 0.0
C1846 C 0.0461 0.48133 0.93981 0.0
C1847 C 0.00692 0.46536 0.95749 0.0
C1848 C 0.02361 0.46732 0.97024 0.0
C1849 C 0.05153 0.47611 0.96771 0.0
C1850 C 0.06263 0.48275 0.95258 0.0
C1851 C 0.01204 0.46109 0.9863 0.0
C1852 C 0.0203 0.48293 0.99687 0.0
C1853 C 0.99186 0.43423 0.99087 0.0
C1854 C 0.98229 0.41045 0.98007 0.0
C1855 C 1.00114 0.40385 0.97333 0.0
C1856 C 0.99196 0.38154 0.96305 0.0
C1857 C 0.96395 0.36557 0.9595 0.0
C1858 C 0.94504 0.37183 0.96627 0.0
C1859 C 0.95412 0.39413 0.97655 0.0
H1860 H 0.95689 0.34831 0.95154 0.0
H1861 H 0.03718 0.56654 0.04886 0.0
H1862 H 0.52963 0.52186 0.06986 0.0
H1863 H 0.52162 0.53349 0.04357 0.0
H1864 H 0.59744 0.53941 0.02769 0.0
H1865 H 0.60597 0.52834 0.05411 0.0
H1866 H 0.59155 0.57991 0.01528 0.0
H1867 H 0.53548 0.48194 0.0203 0.0
H1868 H 0.50093 0.4385 0.03268 0.0
H1869 H 0.43933 0.462 0.02725 0.0
H1870 H 0.47363 0.50577 0.01503 0.0
H1871 H 0.51589 0.5261 0.9353 0.0
H1872 H 0.5275 0.51906 0.96174 0.0
H1873 H 0.5421 0.59937 0.97523 0.0
H1874 H 0.53092 0.60688 0.94856 0.0
H1875 H 0.50369 0.51572 0.98868 0.0
H1876 H 0.592 0.6251 0.00398 0.0
H1877 H 0.62863 0.6661 0.99056 0.0
H1878 H 0.6294 0.61523 0.95317 0.0
H1879 H 0.59307 0.57392 0.96646 0.0
C1880 C 0.54471 0.52572 0.06082 0.0
C1881 C 0.56838 0.52395 0.06411 0.0
C1882 C 0.54004 0.53233 0.04576 0.0
C1883 C 0.55874 0.53697 0.03359 0.0
C1884 C 0.58272 0.5359 0.0369 0.0
C1885 C 0.58751 0.52945 0.052 0.0
C1886 C 0.5528 0.54208 0.01734 0.0
C1887 C 0.57232 0.56592 0.00947 0.0
C1888 C 0.52791 0.52362 0.00964 0.0
C1889 C 0.50719 0.49724 0.01689 0.0
C1890 C 0.51461 0.47792 0.02185 0.0
C1891 C 0.49507 0.45323 0.02882 0.0
C1892 C 0.46797 0.44753 0.03078 0.0
C1893 C 0.46034 0.46647 0.02574 0.0
C1894 C 0.47982 0.49121 0.01878 0.0
C1895 C 0.52165 0.54239 0.94383 0.0
C1896 C 0.52249 0.56711 0.93975 0.0
C1897 C 0.52822 0.53826 0.95899 0.0
C1898 C 0.5358 0.55869 0.97047 0.0
C1899 C 0.53665 0.58342 0.96651 0.0
C1900 C 0.53015 0.58765 0.95127 0.0
C1901 C 0.54233 0.55368 0.98662 0.0
C1902 C 0.52288 0.52984 0.9945 0.0
C1903 C 0.56754 0.57182 0.99415 0.0
C1904 C 0.5896 0.59648 0.98614 0.0
C1905 C 0.60006 0.62267 0.99292 0.0
C1906 C 0.62076 0.64596 0.98533 0.0
C1907 C 0.63126 0.64328 0.971 0.0
C1908 C 0.62117 0.61729 0.96424 0.0
C1909 C 0.6005 0.59394 0.97179 0.0
H1910 H 0.64727 0.66133 0.96514 0.0
H1911 H 0.45287 0.4284 0.03619 0.0
H1912 H 0.47987 0.07972 0.05129 0.0
H1913 H 0.46706 0.05872 0.02518 0.0
H1914 H 0.47584 0.99063 0.04128 0.0
H1915 H 0.48899 0.01149 0.06715 0.0
H1916 H 0.50064 0.00824 0.0142 0.0
H1917 H 0.4122 0.9838 0.03536 0.0
H1918 H 0.37734 0.99225 0.0477 0.0
H1919 H 0.38206 0.04296 0.00876 0.0
H1920 H 0.41724 0.03511 0.99628 0.0
H1921 H 0.40146 0.92282 0.94646 0.0
H1922 H 0.40816 0.94089 0.9733 0.0
H1923 H 0.48569 0.01092 0.95966 0.0
H1924 H 0.47947 0.99305 0.93308 0.0
H1925 H 0.41521 0.98891 0.98617 0.0
H1926 H 0.53197 0.02639 0.98858 0.0
H1927 H 0.56502 0.01447 0.97706 0.0
H1928 H 0.50016 0.93089 0.97078 0.0
H1929 H 0.46681 0.94221 0.98246 0.0
C1930 C 0.47899 0.06024 0.04928 0.0
C1931 C 0.48554 0.04737 0.06134 0.0
C1932 C 0.47153 0.04819 0.03437 0.0
C1933 C 0.47031 0.02298 0.03129 0.0
C1934 C 0.47669 0.01009 0.04334 0.0
C1935 C 0.48417 0.02209 0.05818 0.0
C1936 C 0.46334 0.01032 0.01542 0.0
C1937 C 0.48196 0.00406 0.0081 0.0
C1938 C 0.43875 0.00439 0.00752 0.0
C1939 C 0.41754 0.00908 0.01496 0.0
C1940 C 0.40596 0.99693 0.02949 0.0
C1941 C 0.38611 1.00158 0.0365 0.0
C1942 C 0.37754 0.01819 0.02904 0.0
C1943 C 0.38875 0.03012 0.01454 0.0
C1944 C 0.40862 0.02556 0.00748 0.0
C1945 C 0.41989 0.9421 0.94917 0.0
C1946 C 0.44003 0.9563 0.93762 0.0
C1947 C 0.42363 0.95245 0.9645 0.0
C1948 C 0.44759 0.97707 0.96852 0.0
C1949 C 0.46725 0.99166 0.95689 0.0
C1950 C 0.4636 0.98136 0.94166 0.0
C1951 C 0.45274 0.98728 0.98494 0.0
C1952 C 0.43386 0.99312 0.99232 0.0
C1953 C 0.47687 0.99238 0.99307 0.0
C1954 C 0.49686 0.98524 0.98626 0.0
C1955 C 0.52479 0.00544 0.98481 0.0
C1956 C 0.54357 0.99879 0.97824 0.0
C1957 C 0.53468 0.97196 0.97315 0.0
C1958 C 0.50701 0.95169 0.97468 0.0
C1959 C 0.48815 0.95822 0.98125 0.0
H1960 H 0.54925 0.96686 0.96805 0.0
H1961 H 0.36217 0.02176 0.03449 0.0
H1962 H 0.19424 0.02591 0.24633 0.0
H1963 H 0.19038 0.0675 0.24674 0.0
H1964 H 0.15456 0.04824 0.20042 0.0
H1965 H 0.15927 0.00738 0.19972 0.0
H1966 H 0.18824 0.10066 0.20207 0.0
H1967 H 0.11535 0.0346 0.23489 0.0
H1968 H 0.09528 1.00171 0.25679 0.0
H1969 H 0.14257 0.06638 0.28971 0.0
H1970 H 0.16323 0.09958 0.26797 0.0
H1971 H 0.11103 0.17038 0.20222 0.0
H1972 H 0.12491 0.13523 0.20282 0.0
H1973 H 0.17593 0.1746 0.24323 0.0
H1974 H 0.1624 0.2101 0.24244 0.0
H1975 H 0.13866 0.1154 0.2458 0.0
H1976 H 0.20812 0.18213 0.21169 0.0
H1977 H 0.22515 0.2137 0.18907 0.0
H1978 H 0.1803 0.14569 0.15768 0.0
H1979 H 0.16267 0.11375 0.18015 0.0
C1980 C 0.18571 0.03067 0.23621 0.0
C1981 C 0.177 0.0133 0.22302 0.0
C1982 C 0.18339 0.05438 0.23648 0.0
C1983 C 0.17179 0.06086 0.2237 0.0
C1984 C 0.16361 0.04378 0.21042 0.0
C1985 C 0.16626 0.02033 0.21006 0.0
C1986 C 0.16753 0.085 0.22417 0.0
C1987 C 0.17721 0.10371 0.2116 0.0
C1988 C 0.15357 0.08939 0.23671 0.0
C1989 C 0.14107 0.0695 0.2498 0.0
C1990 C 0.12162 0.04176 0.2468 0.0
C1991 C 0.11012 0.02307 0.25918 0.0
C1992 C 0.1177 0.03193 0.27463 0.0
C1993 C 0.13675 0.05953 0.27774 0.0
C1994 C 0.14836 0.0783 0.26539 0.0
C1995 C 0.12545 0.17161 0.21109 0.0
C1996 C 0.13597 0.19295 0.22217 0.0
C1997 C 0.13334 0.15161 0.21144 0.0
C1998 C 0.15154 0.15245 0.22303 0.0
C1999 C 0.16194 0.1737 0.23418 0.0
C2000 C 0.15437 0.19397 0.23367 0.0
C2001 C 0.15907 0.13064 0.22365 0.0
C2002 C 0.14994 0.11241 0.2364 0.0
C2003 C 0.17314 0.12644 0.21117 0.0
C2004 C 0.18389 0.14557 0.19762 0.0
C2005 C 0.2017 0.17393 0.19998 0.0
C2006 C 0.2115 0.19189 0.18718 0.0
C2007 C 0.20376 0.18171 0.17195 0.0
C2008 C 0.18626 0.15355 0.16949 0.0
C2009 C 0.17639 0.1355 0.18225 0.0
H2010 H 0.21136 0.19565 0.16206 0.0
H2011 H 0.10877 0.01744 0.28421 0.0
H2012 H 0.83165 0.94325 0.19577 0.0
H2013 H 0.86917 0.99126 0.19557 0.0
H2014 H 0.83976 0.00543 0.23941 0.0
H2015 H 0.80168 0.95755 0.23928 0.0
H2016 H 0.858 0.04949 0.22143 0.0
H2017 H 0.89281 0.99162 0.23809 0.0
H2018 H 0.90071 0.95224 0.2364 0.0
H2019 H 0.94653 0.98481 0.19382 0.0
H2020 H 0.93848 0.02418 0.19509 0.0
H2021 H 0.98756 0.1677 0.24278 0.0
H2022 H 0.94648 0.12167 0.24261 0.0
H2023 H 0.96547 0.10877 0.19546 0.0
H2024 H 0.00625 0.15471 0.19546 0.0
H2025 H 0.95266 0.06436 0.21616 0.0
H2026 H 0.91608 0.12249 0.20025 0.0
H2027 H 0.90761 0.16136 0.20316 0.0
H2028 H 0.86561 0.12781 0.24669 0.0
H2029 H 0.87417 0.08891 0.24415 0.0
C2030 C 0.83298 0.95688 0.20516 0.0
C2031 C 0.81393 0.94699 0.2175 0.0
C2032 C 0.85449 0.98418 0.20513 0.0
C2033 C 0.85766 1.00184 0.21765 0.0
C2034 C 0.83781 0.99221 0.22965 0.0
C2035 C 0.81609 0.96495 0.22957 0.0
C2036 C 0.88235 0.02985 0.21857 0.0
C2037 C 0.87869 0.05268 0.22048 0.0
C2038 C 0.90942 0.0341 0.21726 0.0
C2039 C 0.91483 0.01075 0.21661 0.0
C2040 C 0.90444 0.99032 0.22831 0.0
C2041 C 0.90895 0.968 0.22743 0.0
C2042 C 0.92407 0.966 0.215 0.0
C2043 C 0.93479 0.98638 0.20344 0.0
C2044 C 0.93028 0.00872 0.20423 0.0
C2045 C 0.98291 0.1551 0.23236 0.0
C2046 C 1.00011 0.16491 0.21911 0.0
C2047 C 0.95943 0.12884 0.23227 0.0
C2048 C 0.95291 0.11186 0.219 0.0
C2049 C 0.97014 0.12154 0.20582 0.0
C2050 C 0.99337 0.14787 0.20582 0.0
C2051 C 0.92822 0.0839 0.21882 0.0
C2052 C 0.93193 0.06108 0.21713 0.0
C2053 C 0.90127 0.07964 0.22059 0.0
C2054 C 0.89603 0.10295 0.2221 0.0
C2055 C 0.90525 0.12353 0.21052 0.0
C2056 C 0.90039 0.14554 0.21208 0.0
C2057 C 0.88615 0.14709 0.22512 0.0
C2058 C 0.87667 0.1266 0.23661 0.0
C2059 C 0.88151 0.10456 0.23511 0.0
H2060 H 0.8824 0.16415 0.22631 0.0
H2061 H 0.92752 0.94869 0.21434 0.0
H2062 H 0.85808 0.87207 0.23507 0.0
H2063 H 0.90586 0.88283 0.23336 0.0
H2064 H 0.87898 0.79633 0.23021 0.0
H2065 H 0.83082 0.78527 0.23166 0.0
H2066 H 0.92508 0.82867 0.25164 0.0
H2067 H 0.8967 0.83062 0.19774 0.0
H2068 H 0.87672 0.84658 0.17734 0.0
H2069 H 0.93877 0.9304 0.18638 0.0
H2070 H 0.95892 0.91494 0.20696 0.0
H2071 H 0.0523 0.84187 0.23084 0.0
H2072 H 1.00382 0.82859 0.23184 0.0
H2073 H 0.02465 0.9108 0.21796 0.0
H2074 H 0.07274 0.92301 0.21504 0.0
H2075 H 0.98042 0.88009 0.20529 0.0
H2076 H 0.00935 0.88365 0.25817 0.0
H2077 H 0.02987 0.87335 0.2809 0.0
H2078 H 0.96901 0.78764 0.27738 0.0
H2079 H 0.94833 0.79739 0.25448 0.0
C2080 C 0.86219 0.85525 0.23403 0.0
C2081 C 0.8405 0.82778 0.23333 0.0
C2082 C 0.88958 0.86148 0.23307 0.0
C2083 C 0.89592 0.84039 0.23151 0.0
C2084 C 0.87447 0.81289 0.23137 0.0
C2085 C 0.84697 0.80663 0.23216 0.0
C2086 C 0.92494 0.84718 0.2296 0.0
C2087 C 0.93717 0.83956 0.24142 0.0
C2088 C 0.94092 0.86242 0.21659 0.0
C2089 C 0.92921 0.87162 0.20393 0.0
C2090 C 0.90601 0.85245 0.19541 0.0
C2091 C 0.89466 0.86141 0.18382 0.0
C2092 C 0.90645 0.88949 0.18058 0.0
C2093 C 0.92967 0.90866 0.18889 0.0
C2094 C 0.94109 0.89981 0.2005 0.0
C2095 C 0.0465 0.85688 0.22753 0.0
C2096 C 0.06647 0.88351 0.22279 0.0
C2097 C 0.01872 0.84946 0.22848 0.0
C2098 C 0.01039 0.86886 0.22544 0.0
C2099 C 0.03033 0.89537 0.22048 0.0
C2100 C 0.05796 0.90249 0.219 0.0
C2101 C 0.98102 0.8616 0.22739 0.0
C2102 C 0.96858 0.86915 0.21556 0.0
C2103 C 0.96514 0.84717 0.24072 0.0
C2104 C 0.97746 0.84122 0.25451 0.0
C2105 C 1.00045 0.86258 0.26218 0.0
C2106 C 0.0121 0.85684 0.2751 0.0
C2107 C 1.00079 0.82985 0.28055 0.0
C2108 C 0.97777 0.80854 0.27312 0.0
C2109 C 0.96606 0.81416 0.26018 0.0
H2110 H 0.00984 0.82545 0.29056 0.0
H2111 H 0.8976 0.89639 0.17162 0.0
H2112 H 0.00865 0.15842 0.8059 0.0
H2113 H 0.04991 0.15437 0.80585 0.0
H2114 H 0.06907 0.18784 0.75899 0.0
H2115 H 0.02697 0.1909 0.75876 0.0
H2116 H 0.07729 0.14658 0.76058 0.0
H2117 H 0.10526 0.22588 0.79274 0.0
H2118 H 0.10184 0.25328 0.81431 0.0
H2119 H 0.10283 0.19687 0.84798 0.0
H2120 H 0.10588 0.16892 0.82659 0.0
H2121 H 0.21165 0.16236 0.76284 0.0
H2122 H 0.17566 0.17518 0.76272 0.0
H2123 H 0.14114 0.12807 0.805 0.0
H2124 H 0.17702 0.11511 0.80503 0.0
H2125 H 0.14357 0.18 0.8049 0.0
H2126 H 0.11315 0.09982 0.77199 0.0
H2127 H 0.11792 0.0737 0.75016 0.0
H2128 H 0.12316 0.1343 0.71742 0.0
H2129 H 0.11891 0.16105 0.73912 0.0
C2130 C 0.02173 0.16514 0.79562 0.0
C2131 C 0.01461 0.17515 0.78236 0.0
C2132 C 0.04546 0.16294 0.79563 0.0
C2133 C 0.06302 0.17131 0.78254 0.0
C2134 C 0.05596 0.18135 0.76927 0.0
C2135 C 0.03194 0.18317 0.76916 0.0
C2136 C 0.08814 0.16859 0.78255 0.0
C2137 C 0.09202 0.1544 0.77015 0.0
C2138 C 0.10725 0.17833 0.79514 0.0
C2139 C 0.10559 0.19519 0.80804 0.0
C2140 C 0.10457 0.21922 0.80474 0.0
C2141 C 0.10272 0.23487 0.81693 0.0
C2142 C 0.10206 0.2268 0.8325 0.0
C2143 C 0.10332 0.20309 0.83591 0.0
C2144 C 0.10515 0.18736 0.82375 0.0
C2145 C 0.1966 0.15518 0.77221 0.0
C2146 C 0.197 0.13793 0.78399 0.0
C2147 C 0.17604 0.16238 0.77211 0.0
C2148 C 0.15568 0.15245 0.78381 0.0
C2149 C 0.15671 0.136 0.7959 0.0
C2150 C 0.1771 0.1286 0.79591 0.0
C2151 C 0.13244 0.15795 0.78303 0.0
C2152 C 0.12892 0.17256 0.79529 0.0
C2153 C 0.11382 0.14884 0.77026 0.0
C2154 C 0.11602 0.13259 0.7572 0.0
C2155 C 0.11555 0.10769 0.76015 0.0
C2156 C 0.11813 0.09276 0.7478 0.0
C2157 C 0.12091 0.10237 0.73241 0.0
C2158 C 0.12105 0.1269 0.72935 0.0
C2159 C 0.11855 0.14196 0.74167 0.0
H2160 H 0.12289 0.09077 0.72286 0.0
H2161 H 0.10062 0.23893 0.84193 0.0
H2162 H 0.85218 0.05208 0.76254 0.0
H2163 H 0.84036 0.00371 0.7622 0.0
H2164 H 0.89723 0.01972 0.80029 0.0
H2165 H 0.90977 0.06832 0.80014 0.0
H2166 H 0.90333 0.98947 0.78008 0.0
H2167 H 0.82438 0.98474 0.80487 0.0
H2168 H 0.78514 0.99275 0.80753 0.0
H2169 H 0.74872 0.94576 0.76572 0.0
H2170 H 0.78795 0.9378 0.76268 0.0
H2171 H 0.85447 0.8525 0.80486 0.0
H2172 H 0.86127 0.89901 0.8041 0.0
H2173 H 0.82385 0.88317 0.75829 0.0
H2174 H 0.81729 0.83648 0.75881 0.0
H2175 H 0.80678 0.91215 0.78136 0.0
H2176 H 0.88716 0.9164 0.75787 0.0
H2177 H 0.92556 0.90686 0.75735 0.0
H2178 H 0.95881 0.95437 0.79936 0.0
H2179 H 0.92025 0.9637 0.80032 0.0
C2180 C 0.86186 0.04508 0.77092 0.0
C2181 C 0.88157 0.06364 0.7815 0.0
C2182 C 0.85509 0.01746 0.77076 0.0
C2183 C 0.86754 0.00783 0.7814 0.0
C2184 C 0.88728 0.02654 0.79198 0.0
C2185 C 0.89434 0.05423 0.79196 0.0
C2186 C 0.86058 0.97849 0.78128 0.0
C2187 C 0.8822 0.97265 0.78055 0.0
C2188 C 0.83299 0.95635 0.78158 0.0
C2189 C 0.80925 0.96091 0.78346 0.0
C2190 C 0.8081 0.97628 0.79618 0.0
C2191 C 0.78585 0.98079 0.79777 0.0
C2192 C 0.76449 0.96984 0.78678 0.0
C2193 C 0.7653 0.95427 0.77421 0.0
C2194 C 0.78752 0.94973 0.77256 0.0
C2195 C 0.8474 0.85874 0.79466 0.0
C2196 C 0.83541 0.84082 0.78186 0.0
C2197 C 0.85134 0.88534 0.79426 0.0
C2198 C 0.84314 0.89449 0.78113 0.0
C2199 C 0.83026 0.8764 0.76854 0.0
C2200 C 0.82665 0.84983 0.76883 0.0
C2201 C 0.8495 0.92346 0.7803 0.0
C2202 C 0.82783 0.92913 0.78084 0.0
C2203 C 0.87701 0.94547 0.78006 0.0
C2204 C 0.90065 0.94053 0.77925 0.0
C2205 C 0.90254 0.92465 0.76707 0.0
C2206 C 0.92435 0.91928 0.76669 0.0
C2207 C 0.94458 0.92994 0.77834 0.0
C2208 C 0.9431 0.94609 0.79036 0.0
C2209 C 0.92128 0.95143 0.79082 0.0
H2210 H 0.96143 0.92573 0.77803 0.0
H2211 H 0.74729 0.97337 0.78802 0.0
H2212 H 0.1523 0.01547 0.77429 0.0
H2213 H 0.10515 0.97743 0.77648 0.0
H2214 H 0.13205 0.92013 0.76409 0.0
H2215 H 0.17967 0.95828 0.76197 0.0
H2216 H 0.08328 0.911 0.74832 0.0
H2217 H 0.11902 0.92436 0.801 0.0
H2218 H 0.14209 0.95184 0.82454 0.0
H2219 H 0.07959 0.97433 0.82895 0.0
H2220 H 0.05635 0.94729 0.8053 0.0
H2221 H 0.95708 0.7922 0.76746 0.0
H2222 H 0.00583 0.82701 0.76597 0.0
H2223 H 0.98853 0.88603 0.78796 0.0
H2224 H 0.9401 0.8505 0.79064 0.0
H2225 H 0.03387 0.89326 0.79905 0.0
H2226 H 0.99902 0.8836 0.74675 0.0
H2227 H 0.97555 0.85896 0.72254 0.0
H2228 H 0.03513 0.83297 0.71639 0.0
H2229 H 0.05876 0.85717 0.74068 0.0
C2230 C 0.14835 0.99485 0.77202 0.0
C2231 C 0.16992 0.98999 0.76808 0.0
C2232 C 0.1213 0.97308 0.7733 0.0
C2233 C 0.11514 0.94593 0.77062 0.0
C2234 C 0.13641 0.94096 0.76626 0.0
C2235 C 0.16361 0.96278 0.76509 0.0
C2236 C 0.08647 0.92285 0.77256 0.0
C2237 C 0.07255 0.90676 0.75946 0.0
C2238 C 0.07228 0.91796 0.78698 0.0
C2239 C 0.08607 0.93397 0.80131 0.0
C2240 C 0.1103 0.93532 0.80693 0.0
C2241 C 0.12339 0.9508 0.8203 0.0
C2242 C 0.11235 0.96487 0.82821 0.0
C2243 C 0.08814 0.96343 0.8228 0.0
C2244 C 0.07498 0.94801 0.80942 0.0
C2245 C 0.96377 0.81239 0.77233 0.0
C2246 C 0.94477 0.81854 0.77929 0.0
C2247 C 0.99162 0.83248 0.77121 0.0
C2248 C 1.00093 0.85943 0.77657 0.0
C2249 C 0.98197 0.86548 0.78369 0.0
C2250 C 0.95422 0.84522 0.7851 0.0
C2251 C 0.03035 0.88132 0.77475 0.0
C2252 C 0.04449 0.89727 0.78789 0.0
C2253 C 0.04457 0.88641 0.76027 0.0
C2254 C 0.03049 0.87196 0.74562 0.0
C2255 C 0.00701 0.87248 0.74029 0.0
C2256 C 0.99369 0.85861 0.72655 0.0
C2257 C 1.0038 0.84435 0.71796 0.0
C2258 C 0.0273 0.84399 0.72307 0.0
C2259 C 0.04068 0.85779 0.73682 0.0
H2260 H 0.99345 0.83362 0.70732 0.0
H2261 H 0.12252 0.97685 0.83856 0.0
H2262 H 0.7872 0.50978 0.58089 0.0
H2263 H 0.80087 0.47454 0.58074 0.0
H2264 H 0.82222 0.49083 0.53175 0.0
H2265 H 0.80811 0.52588 0.53189 0.0
H2266 H 0.79161 0.43585 0.53778 0.0
H2267 H 0.87195 0.51349 0.55936 0.0
H2268 H 0.89751 0.55216 0.57764 0.0
H2269 H 0.8707 0.49596 0.61648 0.0
H2270 H 0.84461 0.45695 0.59846 0.0
H2271 H 0.85814 0.35788 0.53146 0.0
H2272 H 0.85059 0.39712 0.53196 0.0
H2273 H 0.82907 0.38246 0.58096 0.0
H2274 H 0.83686 0.34325 0.58063 0.0
H2275 H 0.86081 0.43733 0.57469 0.0
H2276 H 0.7794 0.36022 0.55381 0.0
H2277 H 0.75294 0.32099 0.53602 0.0
H2278 H 0.78053 0.37564 0.49644 0.0
H2279 H 0.80755 0.41517 0.51399 0.0
C2280 C 0.79476 0.50571 0.57011 0.0
C2281 C 0.7964 0.52017 0.55636 0.0
C2282 C 0.80274 0.48577 0.57005 0.0
C2283 C 0.81274 0.48017 0.55626 0.0
C2284 C 0.81454 0.49481 0.54251 0.0
C2285 C 0.80659 0.5148 0.54259 0.0
C2286 C 0.82065 0.45857 0.5561 0.0
C2287 C 0.80707 0.43642 0.54567 0.0
C2288 C 0.84027 0.45892 0.56671 0.0
C2289 C 0.85612 0.48232 0.57756 0.0
C2290 C 0.87133 0.50939 0.57181 0.0
C2291 C 0.88594 0.53137 0.58212 0.0
C2292 C 0.88568 0.52653 0.59821 0.0
C2293 C 0.87086 0.49968 0.60402 0.0
C2294 C 0.85618 0.47762 0.59376 0.0
C2295 C 0.85205 0.36311 0.5424 0.0
C2296 C 0.84793 0.3473 0.55599 0.0
C2297 C 0.84766 0.38552 0.54264 0.0
C2298 C 0.83887 0.39246 0.55643 0.0
C2299 C 0.83578 0.37741 0.57018 0.0
C2300 C 0.84021 0.35499 0.56996 0.0
C2301 C 0.83183 0.4147 0.55633 0.0
C2302 C 0.84548 0.43688 0.56674 0.0
C2303 C 0.81214 0.41433 0.54577 0.0
C2304 C 0.79573 0.39062 0.5352 0.0
C2305 C 0.78 0.36385 0.5413 0.0
C2306 C 0.76488 0.34156 0.53126 0.0
C2307 C 0.76511 0.34581 0.5151 0.0
C2308 C 0.78041 0.37237 0.50896 0.0
C2309 C 0.79562 0.39473 0.51894 0.0
H2310 H 0.75338 0.32853 0.50735 0.0
H2311 H 0.897 0.54357 0.60618 0.0
H2312 H 0.64877 0.5018 0.57653 0.0
H2313 H 0.60907 0.45504 0.57686 0.0
H2314 H 0.63366 0.43892 0.53194 0.0
H2315 H 0.67237 0.48593 0.53121 0.0
H2316 H 0.58173 0.416 0.53181 0.0
H2317 H 0.64638 0.41641 0.56866 0.0
H2318 H 0.67736 0.43229 0.59159 0.0
H2319 H 0.60885 0.41333 0.6218 0.0
H2320 H 0.5775 0.39769 0.59901 0.0
H2321 H 0.51329 0.26859 0.53764 0.0
H2322 H 0.54945 0.31736 0.53754 0.0
H2323 H 0.50517 0.3346 0.57291 0.0
H2324 H 0.46875 0.28593 0.5728 0.0
H2325 H 0.56513 0.35659 0.57834 0.0
H2326 H 0.50071 0.35369 0.53958 0.0
H2327 H 0.47196 0.33565 0.51585 0.0
H2328 H 0.54396 0.35693 0.48826 0.0
H2329 H 0.5731 0.3747 0.51188 0.0
C2330 C 0.64552 0.48831 0.56668 0.0
C2331 C 0.6637 0.49753 0.55386 0.0
C2332 C 0.62294 0.4615 0.56692 0.0
C2333 C 0.61857 0.44312 0.55456 0.0
C2334 C 0.63647 0.45258 0.54162 0.0
C2335 C 0.65866 0.47952 0.54123 0.0
C2336 C 0.59566 0.41398 0.55511 0.0
C2337 C 0.57837 0.40303 0.54196 0.0
C2338 C 0.59088 0.3969 0.56837 0.0
C2339 C 0.60965 0.40616 0.58211 0.0
C2340 C 0.63795 0.41581 0.58018 0.0
C2341 C 0.65557 0.42474 0.59315 0.0
C2342 C 0.64509 0.42388 0.60814 0.0
C2343 C 0.61695 0.41402 0.61019 0.0
C2344 C 0.59924 0.40511 0.59725 0.0
C2345 C 0.5113 0.28291 0.5453 0.0
C2346 C 0.48823 0.27379 0.55509 0.0
C2347 C 0.53188 0.31064 0.54525 0.0
C2348 C 0.52985 0.32952 0.55517 0.0
C2349 C 0.50702 0.32031 0.56516 0.0
C2350 C 0.48623 0.29266 0.56502 0.0
C2351 C 0.5516 0.35892 0.55508 0.0
C2352 C 0.56859 0.36978 0.56829 0.0
C2353 C 0.55651 0.37572 0.54176 0.0
C2354 C 0.53904 0.36528 0.52753 0.0
C2355 C 0.51038 0.3543 0.52848 0.0
C2356 C 0.49402 0.34417 0.51504 0.0
C2357 C 0.50612 0.34508 0.50056 0.0
C2358 C 0.53461 0.3562 0.49948 0.0
C2359 C 0.55106 0.36633 0.51289 0.0
H2360 H 0.49342 0.33723 0.49017 0.0
H2361 H 0.65876 0.43081 0.61817 0.0
H2362 H 0.71993 0.18332 0.57141 0.0
H2363 H 0.6715 0.17129 0.57164 0.0
H2364 H 0.68785 0.22956 0.53433 0.0
H2365 H 0.73662 0.24237 0.53463 0.0
H2366 H 0.65626 0.23402 0.55427 0.0
H2367 H 0.65373 0.15718 0.52864 0.0
H2368 H 0.6629 0.11885 0.52522 0.0
H2369 H 0.61567 0.07967 0.56654 0.0
H2370 H 0.60656 0.118 0.57034 0.0
H2371 H 0.51769 0.18132 0.53008 0.0
H2372 H 0.56467 0.18922 0.53033 0.0
H2373 H 0.55153 0.15386 0.57659 0.0
H2374 H 0.50441 0.14631 0.5766 0.0
H2375 H 0.58036 0.13685 0.55247 0.0
H2376 H 0.58307 0.21621 0.57677 0.0
H2377 H 0.57228 0.25374 0.57748 0.0
H2378 H 0.61868 0.28767 0.5352 0.0
H2379 H 0.62923 0.24996 0.53404 0.0
C2380 C 0.71302 0.19334 0.5632 0.0
C2381 C 0.73174 0.2135 0.55288 0.0
C2382 C 0.68536 0.18643 0.56328 0.0
C2383 C 0.67577 0.19911 0.55279 0.0
C2384 C 0.69464 0.2194 0.54251 0.0
C2385 C 0.72242 0.22663 0.54262 0.0
C2386 C 0.64622 0.1916 0.55274 0.0
C2387 C 0.63976 0.21276 0.55369 0.0
C2388 C 0.62448 0.16384 0.55219 0.0
C2389 C 0.62969 0.14061 0.54986 0.0
C2390 C 0.64545 0.14049 0.53706 0.0
C2391 C 0.65063 0.11875 0.53504 0.0
C2392 C 0.63993 0.09687 0.54568 0.0
C2393 C 0.62397 0.09665 0.55832 0.0
C2394 C 0.61878 0.11837 0.56041 0.0
C2395 C 0.52461 0.17491 0.54026 0.0
C2396 C 0.50733 0.16323 0.55335 0.0
C2397 C 0.55149 0.17949 0.54037 0.0
C2398 C 0.56152 0.17218 0.55348 0.0
C2399 C 0.54407 0.15957 0.56635 0.0
C2400 C 0.51724 0.15538 0.56636 0.0
C2401 C 0.59074 0.17922 0.55399 0.0
C2402 C 0.59703 0.15803 0.55311 0.0
C2403 C 0.61234 0.20692 0.55429 0.0
C2404 C 0.60671 0.23009 0.55523 0.0
C2405 C 0.5908 0.23154 0.56755 0.0
C2406 C 0.58473 0.25286 0.56804 0.0
C2407 C 0.59473 0.27304 0.55637 0.0
C2408 C 0.61091 0.272 0.54422 0.0
C2409 C 0.61695 0.25066 0.54364 0.0
H2410 H 0.58998 0.2895 0.55675 0.0
H2411 H 0.64397 0.08007 0.5441 0.0
H2412 H 0.87644 0.49429 0.09637 0.0
H2413 H 0.83956 0.50574 0.09585 0.0
H2414 H 0.80461 0.45749 0.13777 0.0
H2415 H 0.84113 0.44555 0.13799 0.0
H2416 H 0.76582 0.445 0.11724 0.0
H2417 H 0.83941 0.52957 0.1376 0.0
H2418 H 0.88596 0.57044 0.13808 0.0
H2419 H 0.87 0.59775 0.09433 0.0
H2420 H 0.82347 0.55681 0.09347 0.0
H2421 H 0.67343 0.49033 0.13827 0.0
H2422 H 0.71445 0.48568 0.1381 0.0
H2423 H 0.73301 0.51782 0.09101 0.0
H2424 H 0.69159 0.52228 0.09098 0.0
H2425 H 0.78018 0.53951 0.11295 0.0
H2426 H 0.70546 0.45412 0.09351 0.0
H2427 H 0.65852 0.41393 0.09438 0.0
H2428 H 0.67695 0.38871 0.13811 0.0
H2429 H 0.72386 0.42909 0.13766 0.0
C2430 C 0.8611 0.48661 0.10559 0.0
C2431 C 0.86161 0.46931 0.11731 0.0
C2432 C 0.84006 0.49313 0.10531 0.0
C2433 C 0.81937 0.48269 0.11686 0.0
C2434 C 0.82028 0.46579 0.12873 0.0
C2435 C 0.84118 0.4591 0.12893 0.0
C2436 C 0.79606 0.48824 0.11619 0.0
C2437 C 0.76906 0.46572 0.1165 0.0
C2438 C 0.80015 0.51522 0.11484 0.0
C2439 C 0.82804 0.53997 0.11539 0.0
C2440 C 0.84589 0.54418 0.12802 0.0
C2441 C 0.87227 0.56737 0.12837 0.0
C2442 C 0.88095 0.58663 0.11622 0.0
C2443 C 0.86325 0.58278 0.10372 0.0
C2444 C 0.83687 0.5596 0.1033 0.0
C2445 C 0.6863 0.49664 0.12789 0.0
C2446 C 0.67917 0.50658 0.1146 0.0
C2447 C 0.70973 0.49395 0.12783 0.0
C2448 C 0.72666 0.50131 0.11453 0.0
C2449 C 0.72019 0.51208 0.10139 0.0
C2450 C 0.69648 0.51448 0.10137 0.0
C2451 C 0.75024 0.49633 0.11418 0.0
C2452 C 0.77715 0.51886 0.11365 0.0
C2453 C 0.74614 0.4694 0.11548 0.0
C2454 C 0.7181 0.44479 0.11562 0.0
C2455 C 0.69944 0.44013 0.10338 0.0
C2456 C 0.67284 0.4173 0.10378 0.0
C2457 C 0.66473 0.39881 0.11631 0.0
C2458 C 0.68325 0.40307 0.12842 0.0
C2459 C 0.70985 0.42592 0.1281 0.0
H2460 H 0.64412 0.38116 0.11661 0.0
H2461 H 0.90138 0.60457 0.11651 0.0
H2462 H 0.53311 0.1887 0.10632 0.0
H2463 H 0.54191 0.2356 0.10919 0.0
H2464 H 0.45839 0.20919 0.09525 0.0
H2465 H 0.44932 0.16183 0.09235 0.0
H2466 H 0.49833 0.25863 0.08065 0.0
H2467 H 0.47385 0.22076 0.13262 0.0
H2468 H 0.47694 0.19657 0.156 0.0
H2469 H 0.5618 0.25856 0.16203 0.0
H2470 H 0.55934 0.28292 0.13855 0.0
H2471 H 0.5069 0.38494 0.10114 0.0
H2472 H 0.49212 0.33603 0.09931 0.0
H2473 H 0.56805 0.35154 0.12114 0.0
H2474 H 0.58195 0.40019 0.12401 0.0
H2475 H 0.52873 0.30603 0.13202 0.0
H2476 H 0.55566 0.34255 0.08006 0.0
H2477 H 0.55522 0.36701 0.05613 0.0
H2478 H 0.46947 0.30846 0.0493 0.0
H2479 H 0.4693 0.28385 0.07332 0.0
C2480 C 0.51657 0.19274 0.10379 0.0
C2481 C 0.49047 0.17137 0.09914 0.0
C2482 C 0.52163 0.21962 0.10551 0.0
C2483 C 0.50074 0.22586 0.1026 0.0
C2484 C 0.47479 0.20479 0.09761 0.0
C2485 C 0.46963 0.17774 0.09599 0.0
C2486 C 0.50618 0.25441 0.1049 0.0
C2487 C 0.50451 0.26889 0.09193 0.0
C2488 C 0.51501 0.268 0.11952 0.0
C2489 C 0.51646 0.25355 0.13375 0.0
C2490 C 0.49323 0.22913 0.13887 0.0
C2491 C 0.49486 0.2154 0.15215 0.0
C2492 C 0.51957 0.22599 0.16048 0.0
C2493 C 0.54268 0.25037 0.15556 0.0
C2494 C 0.54117 0.26417 0.14228 0.0
C2495 C 0.52015 0.37782 0.10589 0.0
C2496 C 0.54551 0.39639 0.11283 0.0
C2497 C 0.51188 0.34988 0.10459 0.0
C2498 C 0.52915 0.34002 0.10981 0.0
C2499 C 0.55434 0.35853 0.11697 0.0
C2500 C 0.56238 0.38639 0.1185 0.0
C2501 C 0.52118 0.31055 0.10772 0.0
C2502 C 0.52238 0.29583 0.12073 0.0
C2503 C 0.51231 0.29687 0.09307 0.0
C2504 C 0.5124 0.31152 0.07857 0.0
C2505 C 0.53666 0.335 0.07351 0.0
C2506 C 0.53653 0.34888 0.05993 0.0
C2507 C 0.51232 0.33934 0.05122 0.0
C2508 C 0.4882 0.31585 0.05606 0.0
C2509 C 0.48821 0.30191 0.06966 0.0
H2510 H 0.51226 0.35011 0.04071 0.0
H2511 H 0.52079 0.21533 0.17075 0.0
H2512 H 0.6266 0.12293 0.09926 0.0
H2513 H 0.67568 0.15776 0.09808 0.0
H2514 H 0.65927 0.21493 0.12296 0.0
H2515 H 0.61041 0.17983 0.12473 0.0
H2516 H 0.6893 0.23534 0.09427 0.0
H2517 H 0.69069 0.18968 0.14182 0.0
H2518 H 0.68236 0.14982 0.15799 0.0
H2519 H 0.73447 0.13459 0.12772 0.0
H2520 H 0.74279 0.17415 0.11121 0.0
H2521 H 0.82027 0.3456 0.1114 0.0
H2522 H 0.77365 0.30669 0.1129 0.0
H2523 H 0.80181 0.25302 0.09517 0.0
H2524 H 0.84905 0.29207 0.09401 0.0
H2525 H 0.76614 0.22863 0.1186 0.0
H2526 H 0.76651 0.27445 0.0715 0.0
H2527 H 0.77492 0.31368 0.05472 0.0
H2528 H 0.71927 0.32738 0.08274 0.0
H2529 H 0.71081 0.28845 0.09983 0.0
C2530 C 0.6336 0.14268 0.10483 0.0
C2531 C 0.61476 0.14867 0.11217 0.0
C2532 C 0.66158 0.1626 0.10405 0.0
C2533 C 0.67105 0.1889 0.11042 0.0
C2534 C 0.65233 0.19477 0.11793 0.0
C2535 C 0.62448 0.17476 0.11892 0.0
C2536 C 0.70025 0.21076 0.10865 0.0
C2537 C 0.70611 0.23405 0.09972 0.0
C2538 C 0.72215 0.20852 0.1153 0.0
C2539 C 0.7171 0.18468 0.12517 0.0
C2540 C 0.70014 0.17766 0.13851 0.0
C2541 C 0.69547 0.15516 0.14776 0.0
C2542 C 0.70782 0.13965 0.14386 0.0
C2543 C 0.72489 0.1466 0.13071 0.0
C2544 C 0.7296 0.16907 0.1214 0.0
C2545 C 0.81669 0.3256 0.10778 0.0
C2546 C 0.83847 0.32207 0.10248 0.0
C2547 C 0.78989 0.30331 0.10859 0.0
C2548 C 0.78406 0.27696 0.10389 0.0
C2549 C 0.80578 0.27319 0.0988 0.0
C2550 C 0.83275 0.29554 0.09809 0.0
C2551 C 0.75525 0.25355 0.1044 0.0
C2552 C 0.74941 0.22991 0.11304 0.0
C2553 C 0.7333 0.25529 0.09733 0.0
C2554 C 0.7382 0.27865 0.08702 0.0
C2555 C 0.75621 0.28595 0.07415 0.0
C2556 C 0.76097 0.30811 0.06457 0.0
C2557 C 0.74768 0.32305 0.06768 0.0
C2558 C 0.72956 0.3158 0.08035 0.0
C2559 C 0.72476 0.29366 0.08998 0.0
H2560 H 0.7514 0.34021 0.06025 0.0
H2561 H 0.70427 0.12231 0.15107 0.0
H2562 H 0.49392 0.87219 0.90506 0.0
H2563 H 0.50545 0.8354 0.90534 0.0
H2564 H 0.45546 0.79975 0.86403 0.0
H2565 H 0.44334 0.83613 0.86411 0.0
H2566 H 0.44471 0.76103 0.88412 0.0
H2567 H 0.52781 0.83555 0.8632 0.0
H2568 H 0.56809 0.88242 0.86232 0.0
H2569 H 0.59768 0.86786 0.90567 0.0
H2570 H 0.55734 0.82101 0.90694 0.0
H2571 H 0.49404 0.67147 0.86276 0.0
H2572 H 0.48782 0.71156 0.86279 0.0
H2573 H 0.51942 0.73099 0.90998 0.0
H2574 H 0.52533 0.69047 0.91018 0.0
H2575 H 0.54025 0.77775 0.88762 0.0
H2576 H 0.45601 0.70164 0.90739 0.0
H2577 H 0.41653 0.6543 0.90656 0.0
H2578 H 0.3896 0.67203 0.86321 0.0
H2579 H 0.42932 0.71934 0.86359 0.0
C2580 C 0.4858 0.85667 0.89594 0.0
C2581 C 0.46804 0.85698 0.88446 0.0
C2582 C 0.49237 0.83569 0.89607 0.0
C2583 C 0.48159 0.8149 0.88459 0.0
C2584 C 0.46405 0.8155 0.87301 0.0
C2585 C 0.45727 0.83632 0.87298 0.0
C2586 C 0.48776 0.792 0.88495 0.0
C2587 C 0.46564 0.76478 0.88468 0.0
C2588 C 0.51504 0.79675 0.88601 0.0
C2589 C 0.5394 0.82486 0.88524 0.0
C2590 C 0.54279 0.84241 0.87261 0.0
C2591 C 0.56565 0.86897 0.87203 0.0
C2592 C 0.58539 0.87814 0.88395 0.0
C2593 C 0.58235 0.86074 0.89645 0.0
C2594 C 0.5595 0.83417 0.89711 0.0
C2595 C 0.49995 0.68438 0.87311 0.0
C2596 C 0.51011 0.67776 0.8865 0.0
C2597 C 0.49631 0.70724 0.8731 0.0
C2598 C 0.50304 0.72409 0.88641 0.0
C2599 C 0.51414 0.71819 0.8996 0.0
C2600 C 0.5174 0.69502 0.89971 0.0
C2601 C 0.49725 0.7471 0.88668 0.0
C2602 C 0.51938 0.77421 0.88709 0.0
C2603 C 0.47003 0.74229 0.88555 0.0
C2604 C 0.44583 0.71398 0.88544 0.0
C2605 C 0.44183 0.69539 0.8976 0.0
C2606 C 0.41938 0.66856 0.89722 0.0
C2607 C 0.4006 0.66014 0.88482 0.0
C2608 C 0.40419 0.67857 0.87279 0.0
C2609 C 0.42667 0.7054 0.87309 0.0
H2610 H 0.38323 0.63936 0.88454 0.0
H2611 H 0.60308 0.8987 0.88348 0.0
H2612 H 0.29074 0.84686 0.90295 0.0
H2613 H 0.25197 0.7995 0.90133 0.0
H2614 H 0.3086 0.77007 0.89283 0.0
H2615 H 0.34721 0.81691 0.89462 0.0
H2616 H 0.2642 0.74905 0.87173 0.0
H2617 H 0.28078 0.76145 0.92777 0.0
H2618 H 0.28549 0.78469 0.95307 0.0
H2619 H 0.20288 0.77 0.94882 0.0
H2620 H 0.19782 0.74698 0.92337 0.0
H2621 H 0.18276 0.6056 0.88045 0.0
H2622 H 0.21778 0.65414 0.88217 0.0
H2623 H 0.15768 0.67245 0.90168 0.0
H2624 H 0.12339 0.62344 0.90149 0.0
H2625 H 0.20168 0.70101 0.91638 0.0
H2626 H 0.18287 0.68734 0.86144 0.0
H2627 H 0.17689 0.66509 0.83566 0.0
H2628 H 0.26106 0.68369 0.83664 0.0
H2629 H 0.26746 0.70576 0.86252 0.0
C2630 C 0.29494 0.83029 0.9008 0.0
C2631 C 0.32216 0.83579 0.89885 0.0
C2632 C 0.27277 0.80325 0.89989 0.0
C2633 C 0.27744 0.78129 0.89694 0.0
C2634 C 0.30453 0.78672 0.89504 0.0
C2635 C 0.32663 0.8136 0.8961 0.0
C2636 C 0.25425 0.75255 0.89568 0.0
C2637 C 0.2506 0.73842 0.88151 0.0
C2638 C 0.23602 0.73905 0.90827 0.0
C2639 C 0.23904 0.75277 0.92359 0.0
C2640 C 0.26371 0.76339 0.93217 0.0
C2641 C 0.26642 0.77648 0.94655 0.0
C2642 C 0.24453 0.7789 0.95253 0.0
C2643 C 0.21984 0.76815 0.94416 0.0
C2644 C 0.21703 0.75507 0.92976 0.0
C2645 C 0.17707 0.61995 0.88523 0.0
C2646 C 0.15019 0.61067 0.89068 0.0
C2647 C 0.19703 0.64784 0.88598 0.0
C2648 C 0.19033 0.6673 0.89167 0.0
C2649 C 0.16343 0.65801 0.89711 0.0
C2650 C 0.14366 0.62999 0.89676 0.0
C2651 C 0.21157 0.69713 0.8924 0.0
C2652 C 0.21495 0.71156 0.90648 0.0
C2653 C 0.22929 0.71108 0.8796 0.0
C2654 C 0.22558 0.69803 0.86397 0.0
C2655 C 0.20006 0.68656 0.85619 0.0
C2656 C 0.1966 0.67399 0.84156 0.0
C2657 C 0.21857 0.67294 0.83453 0.0
C2658 C 0.24407 0.68452 0.8421 0.0
C2659 C 0.24763 0.69709 0.85674 0.0
H2660 H 0.21584 0.66318 0.82321 0.0
H2661 H 0.24666 0.78904 0.96366 0.0
H2662 H 0.38528 0.51728 0.90631 0.0
H2663 H 0.33731 0.50683 0.9069 0.0
H2664 H 0.35487 0.56565 0.86973 0.0
H2665 H 0.40313 0.57688 0.86971 0.0
H2666 H 0.32483 0.57164 0.88989 0.0
H2667 H 0.31812 0.49269 0.86424 0.0
H2668 H 0.32499 0.45288 0.86089 0.0
H2669 H 0.27798 0.41594 0.90262 0.0
H2670 H 0.27117 0.45574 0.90634 0.0
H2671 H 0.18717 0.52489 0.86597 0.0
H2672 H 0.23394 0.53226 0.86651 0.0
H2673 H 0.21794 0.49199 0.91148 0.0
H2674 H 0.17099 0.48483 0.91116 0.0
H2675 H 0.24618 0.47588 0.88823 0.0
H2676 H 0.25181 0.55641 0.91217 0.0
H2677 H 0.24362 0.59565 0.91312 0.0
H2678 H 0.29227 0.62936 0.87153 0.0
H2679 H 0.30028 0.58999 0.87014 0.0
C2680 C 0.3787 0.52769 0.89818 0.0
C2681 C 0.39761 0.54756 0.88781 0.0
C2682 C 0.3513 0.5217 0.89848 0.0
C2683 C 0.34219 0.53505 0.88816 0.0
C2684 C 0.36126 0.55498 0.87779 0.0
C2685 C 0.38876 0.56129 0.8777 0.0
C2686 C 0.313 0.52874 0.88836 0.0
C2687 C 0.30771 0.55068 0.88933 0.0
C2688 C 0.29046 0.50138 0.88791 0.0
C2689 C 0.29437 0.47733 0.88565 0.0
C2690 C 0.30941 0.47617 0.87276 0.0
C2691 C 0.31327 0.45359 0.87079 0.0
C2692 C 0.30199 0.43193 0.88156 0.0
C2693 C 0.28674 0.43276 0.8943 0.0
C2694 C 0.28286 0.45531 0.89634 0.0
C2695 C 0.19345 0.51739 0.87594 0.0
C2696 C 0.17536 0.5043 0.88855 0.0
C2697 C 0.22023 0.5217 0.87624 0.0
C2698 C 0.2294 0.5128 0.88906 0.0
C2699 C 0.2112 0.499 0.90147 0.0
C2700 C 0.18445 0.49501 0.90129 0.0
C2701 C 0.25829 0.51874 0.88964 0.0
C2702 C 0.26344 0.49676 0.88883 0.0
C2703 C 0.28069 0.54605 0.88994 0.0
C2704 C 0.2764 0.57007 0.89096 0.0
C2705 C 0.26058 0.57206 0.90315 0.0
C2706 C 0.25598 0.59434 0.90377 0.0
C2707 C 0.26735 0.61494 0.89236 0.0
C2708 C 0.28343 0.61336 0.88034 0.0
C2709 C 0.28801 0.59106 0.87963 0.0
H2710 H 0.26374 0.63216 0.89285 0.0
H2711 H 0.305 0.41447 0.88001 0.0
H2712 H 0.48814 0.75154 0.45937 0.0
H2713 H 0.45216 0.76419 0.45788 0.0
H2714 H 0.509 0.84003 0.4347 0.0
H2715 H 0.54461 0.82699 0.4356 0.0
H2716 H 0.47991 0.8479 0.45825 0.0
H2717 H 0.46338 0.79064 0.41401 0.0
H2718 H 0.45437 0.74968 0.39876 0.0
H2719 H 0.37794 0.70148 0.42322 0.0
H2720 H 0.38694 0.74192 0.43902 0.0
H2721 H 0.34543 0.8356 0.42116 0.0
H2722 H 0.38494 0.8283 0.42017 0.0
H2723 H 0.39154 0.83441 0.4706 0.0
H2724 H 0.35263 0.84239 0.47165 0.0
H2725 H 0.39118 0.78841 0.43113 0.0
H2726 H 0.45736 0.85945 0.48216 0.0
H2727 H 0.46774 0.90349 0.49436 0.0
H2728 H 0.44783 0.9292 0.45126 0.0
H2729 H 0.4377 0.8855 0.43875 0.0
C2730 C 0.49289 0.77085 0.45391 0.0
C2731 C 0.51922 0.78835 0.44768 0.0
C2732 C 0.47237 0.77807 0.45309 0.0
C2733 C 0.47791 0.80303 0.44615 0.0
C2734 C 0.50434 0.82075 0.44019 0.0
C2735 C 0.52472 0.81336 0.44081 0.0
C2736 C 0.45612 0.81062 0.44502 0.0
C2737 C 0.46047 0.83486 0.45236 0.0
C2738 C 0.43106 0.79398 0.43696 0.0
C2739 C 0.42604 0.7693 0.42788 0.0
C2740 C 0.44489 0.77121 0.41635 0.0
C2741 C 0.43975 0.74808 0.40758 0.0
C2742 C 0.41564 0.72298 0.41004 0.0
C2743 C 0.39665 0.72093 0.42134 0.0
C2744 C 0.40181 0.74393 0.43026 0.0
C2745 C 0.35551 0.83572 0.43203 0.0
C2746 C 0.34593 0.83971 0.44648 0.0
C2747 C 0.37802 0.83142 0.43145 0.0
C2748 C 0.39142 0.83103 0.44529 0.0
C2749 C 0.38194 0.83513 0.45972 0.0
C2750 C 0.35957 0.8396 0.46031 0.0
C2751 C 0.41462 0.82531 0.44474 0.0
C2752 C 0.41057 0.80141 0.43707 0.0
C2753 C 0.44018 0.84258 0.4522 0.0
C2754 C 0.44653 0.86907 0.45957 0.0
C2755 C 0.45531 0.87455 0.47527 0.0
C2756 C 0.46113 0.89945 0.48224 0.0
C2757 C 0.45836 0.91909 0.4736 0.0
C2758 C 0.44986 0.91392 0.45796 0.0
C2759 C 0.44404 0.88908 0.45093 0.0
H2760 H 0.46286 0.93834 0.47903 0.0
H2761 H 0.41163 0.70516 0.40315 0.0
H2762 H 0.15478 0.50455 0.47219 0.0
H2763 H 0.16225 0.55127 0.47161 0.0
H2764 H 0.17968 0.55636 0.42206 0.0
H2765 H 0.17282 0.50973 0.42261 0.0
H2766 H 0.21706 0.60161 0.43668 0.0
H2767 H 0.11813 0.54858 0.43634 0.0
H2768 H 0.07236 0.51329 0.44586 0.0
H2769 H 0.08796 0.55509 0.4901 0.0
H2770 H 0.13398 0.59044 0.48091 0.0
H2771 H 0.21808 0.72624 0.42319 0.0
H2772 H 0.20525 0.67759 0.42258 0.0
H2773 H 0.18696 0.67103 0.4721 0.0
H2774 H 0.19918 0.71967 0.47255 0.0
H2775 H 0.14943 0.62633 0.45716 0.0
H2776 H 0.24814 0.67871 0.45804 0.0
H2777 H 0.29418 0.71417 0.44899 0.0
H2778 H 0.27964 0.67361 0.4044 0.0
H2779 H 0.23329 0.63814 0.4131 0.0
C2780 C 0.15997 0.51547 0.46112 0.0
C2781 C 0.16313 0.50333 0.44743 0.0
C2782 C 0.16414 0.5422 0.4608 0.0
C2783 C 0.17123 0.55728 0.44675 0.0
C2784 C 0.17418 0.54513 0.43303 0.0
C2785 C 0.17014 0.51842 0.43335 0.0
C2786 C 0.17655 0.58605 0.44651 0.0
C2787 C 0.20208 0.60694 0.44092 0.0
C2788 C 0.15735 0.59317 0.45247 0.0
C2789 C 0.1296 0.57203 0.45797 0.0
C2790 C 0.11188 0.55014 0.44813 0.0
C2791 C 0.08587 0.53015 0.45347 0.0
C2792 C 0.07728 0.53192 0.46859 0.0
C2793 C 0.09465 0.55373 0.47839 0.0
C2794 C 0.12068 0.57377 0.47312 0.0
C2795 C 0.21121 0.71428 0.4339 0.0
C2796 C 0.2099 0.72654 0.44796 0.0
C2797 C 0.20398 0.68658 0.43357 0.0
C2798 C 0.19567 0.67076 0.44737 0.0
C2799 C 0.19344 0.68284 0.46133 0.0
C2800 C 0.20046 0.71055 0.46161 0.0
C2801 C 0.18988 0.64184 0.44728 0.0
C2802 C 0.16434 0.62096 0.45285 0.0
C2803 C 0.20913 0.63473 0.44137 0.0
C2804 C 0.23713 0.6559 0.43618 0.0
C2805 C 0.25467 0.67745 0.44627 0.0
C2806 C 0.28084 0.69755 0.4412 0.0
C2807 C 0.28981 0.69618 0.42612 0.0
C2808 C 0.27265 0.67467 0.41608 0.0
C2809 C 0.24643 0.65455 0.42107 0.0
H2810 H 0.31008 0.71175 0.42222 0.0
H2811 H 0.05715 0.51641 0.4727 0.0
H2812 H 0.49325 0.66232 0.42176 0.0
H2813 H 0.44655 0.62259 0.42147 0.0
H2814 H 0.46011 0.59801 0.46699 0.0
H2815 H 0.50689 0.63765 0.46738 0.0
H2816 H 0.43046 0.55319 0.44664 0.0
H2817 H 0.42843 0.63292 0.4652 0.0
H2818 H 0.43917 0.68118 0.46369 0.0
H2819 H 0.39216 0.66332 0.42118 0.0
H2820 H 0.38175 0.61518 0.42223 0.0
H2821 H 0.28879 0.46788 0.46826 0.0
H2822 H 0.33788 0.50308 0.46759 0.0
H2823 H 0.32539 0.53323 0.42358 0.0
H2824 H 0.27649 0.49807 0.42423 0.0
H2825 H 0.35498 0.57495 0.44359 0.0
H2826 H 0.35715 0.4955 0.42479 0.0
H2827 H 0.34732 0.4475 0.4257 0.0
H2828 H 0.39358 0.46441 0.46843 0.0
H2829 H 0.4034 0.51248 0.46789 0.0
C2830 C 0.48647 0.64826 0.43161 0.0
C2831 C 0.50373 0.65328 0.44465 0.0
C2832 C 0.45975 0.6256 0.43144 0.0
C2833 C 0.44978 0.60752 0.44429 0.0
C2834 C 0.46739 0.61171 0.45697 0.0
C2835 C 0.49407 0.63447 0.45719 0.0
C2836 C 0.42044 0.58548 0.44496 0.0
C2837 C 0.41393 0.55791 0.44615 0.0
C2838 C 0.39891 0.59167 0.44412 0.0
C2839 C 0.40455 0.62049 0.4437 0.0
C2840 C 0.42056 0.63935 0.45547 0.0
C2841 C 0.42661 0.6667 0.45469 0.0
C2842 C 0.41647 0.67538 0.44232 0.0
C2843 C 0.40013 0.65667 0.43074 0.0
C2844 C 0.39414 0.62933 0.43141 0.0
C2845 C 0.29667 0.48198 0.45843 0.0
C2846 C 0.27894 0.48056 0.44639 0.0
C2847 C 0.32465 0.50201 0.45803 0.0
C2848 C 0.33534 0.52078 0.44551 0.0
C2849 C 0.3176 0.51911 0.4334 0.0
C2850 C 0.2897 0.49909 0.43379 0.0
C2851 C 0.36487 0.54253 0.44511 0.0
C2852 C 0.37145 0.57013 0.44406 0.0
C2853 C 0.38641 0.53632 0.44608 0.0
C2854 C 0.38078 0.50752 0.44638 0.0
C2855 C 0.36507 0.48894 0.43444 0.0
C2856 C 0.35952 0.46173 0.43488 0.0
C2857 C 0.36977 0.4529 0.44714 0.0
C2858 C 0.38564 0.47128 0.45896 0.0
C2859 C 0.39122 0.49852 0.45858 0.0
H2860 H 0.36548 0.43183 0.44743 0.0
H2861 H 0.42125 0.69659 0.44175 0.0
loop_
_geom_bond_atom_site_label_1
_geom_bond_atom_site_label_2
_geom_bond_distance
_geom_bond_site_symmetry_2
_ccdc_geom_bond_type
Co0 O3 1.970 . S
Co0 N17 1.989 . S
Co0 O25 1.967 . S
Co0 O32 1.920 . S
Co1 O4 1.966 . S
Co1 N10 2.022 . S
Co1 N18 1.993 . S
Co1 O26 1.941 . S
C2 O3 1.258 . S
C2 O4 1.263 . S
O3 Co0 1.970 . S
O3 C2 1.258 . S
O4 Co1 1.966 . S
O4 C2 1.263 . S
C5 O6 1.235 . S
C5 O32 1.289 . S
O6 C5 1.235 . S
C7 C9 1.400 . S
C7 N10 1.351 . S
C7 C12 1.501 . S
C8 C9 1.387 . S
C8 N11 1.341 . S
C9 C7 1.400 . S
C9 C8 1.387 . S
N10 Co1 2.022 . S
N10 C7 1.351 . S
N10 N11 1.365 . S
N11 C8 1.341 . S
N11 N10 1.365 . S
N11 H31 0.862 . S
C12 C7 1.501 . S
C12 H13 0.961 . S
C12 H14 0.961 . S
C12 H15 0.960 . S
H13 C12 0.961 . S
H14 C12 0.961 . S
H15 C12 0.960 . S
C16 N17 1.342 . S
C16 C20 1.401 . S
C16 C21 1.499 . S
N17 Co0 1.989 . S
N17 C16 1.342 . S
N17 N18 1.388 . S
N18 Co1 1.993 . S
N18 N17 1.388 . S
N18 C19 1.346 . S
C19 N18 1.346 . S
C19 C20 1.396 . S
C19 C29 1.510 . S
C20 C16 1.401 . S
C20 C19 1.396 . S
C21 C16 1.499 . S
C21 H22 0.959 . S
C21 H23 0.960 . S
C21 H24 0.961 . S
H22 C21 0.959 . S
H23 C21 0.960 . S
H24 C21 0.961 . S
O25 Co0 1.967 . S
O25 C33 1.258 . S
O26 Co1 1.941 . S
O26 C33 1.266 . S
H27 C29 0.959 . S
H28 C29 0.961 . S
C29 C19 1.510 . S
C29 H27 0.959 . S
C29 H28 0.961 . S
C29 H30 0.960 . S
H30 C29 0.960 . S
H31 N11 0.862 . S
O32 Co0 1.920 . S
O32 C5 1.289 . S
C33 O25 1.258 . S
C33 O26 1.266 . S
Co34 O37 1.970 . S
Co34 N51 1.989 . S
Co34 O59 1.967 . S
Co34 O66 1.920 . S
Co35 O38 1.966 . S
Co35 N44 2.022 . S
Co35 N52 1.993 . S
Co35 O60 1.941 . S
C36 O37 1.258 . S
C36 O38 1.263 . S
O37 Co34 1.970 . S
O37 C36 1.258 . S
O38 Co35 1.966 . S
O38 C36 1.263 . S
C39 O40 1.235 . S
C39 O66 1.289 . S
O40 C39 1.235 . S
C41 C43 1.400 . S
C41 N44 1.351 . S
C41 C46 1.501 . S
C42 C43 1.387 . S
C42 N45 1.341 . S
C43 C41 1.400 . S
C43 C42 1.387 . S
N44 Co35 2.022 . S
N44 C41 1.351 . S
N44 N45 1.365 . S
N45 C42 1.341 . S
N45 N44 1.365 . S
N45 H65 0.862 . S
C46 C41 1.501 . S
C46 H47 0.961 . S
C46 H48 0.961 . S
C46 H49 0.960 . S
H47 C46 0.961 . S
H48 C46 0.961 . S
H49 C46 0.960 . S
C50 N51 1.342 . S
C50 C54 1.401 . S
C50 C55 1.499 . S
N51 Co34 1.989 . S
N51 C50 1.342 . S
N51 N52 1.388 . S
N52 Co35 1.993 . S
N52 N51 1.388 . S
N52 C53 1.346 . S
C53 N52 1.346 . S
C53 C54 1.396 . S
C53 C63 1.510 . S
C54 C50 1.401 . S
C54 C53 1.396 . S
C55 C50 1.499 . S
C55 H56 0.959 . S
C55 H57 0.960 . S
C55 H58 0.961 . S
H56 C55 0.959 . S
H57 C55 0.960 . S
H58 C55 0.961 . S
O59 Co34 1.967 . S
O59 C67 1.258 . S
O60 Co35 1.941 . S
O60 C67 1.266 . S
H61 C63 0.959 . S
H62 C63 0.961 . S
C63 C53 1.510 . S
C63 H61 0.959 . S
C63 H62 0.961 . S
C63 H64 0.960 . S
H64 C63 0.960 . S
H65 N45 0.862 . S
O66 Co34 1.920 . S
O66 C39 1.289 . S
C67 O59 1.258 . S
C67 O60 1.266 . S
Co68 O71 1.970 . S
Co68 N85 1.989 . S
Co68 O93 1.967 . S
Co68 O100 1.920 . S
Co69 O72 1.966 . S
Co69 N78 2.022 . S
Co69 N86 1.993 . S
Co69 O94 1.941 . S
C70 O71 1.258 . S
C70 O72 1.263 . S
O71 Co68 1.970 . S
O71 C70 1.258 . S
O72 Co69 1.966 . S
O72 C70 1.263 . S
C73 O74 1.235 . S
C73 O100 1.289 . S
O74 C73 1.235 . S
C75 C77 1.400 . S
C75 N78 1.351 . S
C75 C80 1.501 . S
C76 C77 1.387 . S
C76 N79 1.341 . S
C77 C75 1.400 . S
C77 C76 1.387 . S
N78 Co69 2.022 . S
N78 C75 1.351 . S
N78 N79 1.365 . S
N79 C76 1.341 . S
N79 N78 1.365 . S
N79 H99 0.862 . S
C80 C75 1.501 . S
C80 H81 0.961 . S
C80 H82 0.961 . S
C80 H83 0.960 . S
H81 C80 0.961 . S
H82 C80 0.961 . S
H83 C80 0.960 . S
C84 N85 1.342 . S
C84 C88 1.401 . S
C84 C89 1.499 . S
N85 Co68 1.989 . S
N85 C84 1.342 . S
N85 N86 1.388 . S
N86 Co69 1.993 . S
N86 N85 1.388 . S
N86 C87 1.346 . S
C87 N86 1.346 . S
C87 C88 1.396 . S
C87 C97 1.510 . S
C88 C84 1.401 . S
C88 C87 1.396 . S
C89 C84 1.499 . S
C89 H90 0.959 . S
C89 H91 0.960 . S
C89 H92 0.961 . S
H90 C89 0.959 . S
H91 C89 0.960 . S
H92 C89 0.961 . S
O93 Co68 1.967 . S
O93 C101 1.258 . S
O94 Co69 1.941 . S
O94 C101 1.266 . S
H95 C97 0.959 . S
H96 C97 0.961 . S
C97 C87 1.510 . S
C97 H95 0.959 . S
C97 H96 0.961 . S
C97 H98 0.960 . S
H98 C97 0.960 . S
H99 N79 0.862 . S
O100 Co68 1.920 . S
O100 C73 1.289 . S
C101 O93 1.258 . S
C101 O94 1.266 . S
Co102 O105 1.970 . S
Co102 N119 1.989 . S
Co102 O127 1.967 . S
Co102 O134 1.920 . S
Co103 O106 1.966 . S
Co103 N112 2.022 . S
Co103 N120 1.993 . S
Co103 O128 1.941 . S
C104 O105 1.258 . S
C104 O106 1.263 . S
O105 Co102 1.970 . S
O105 C104 1.258 . S
O106 Co103 1.966 . S
O106 C104 1.263 . S
C107 O108 1.235 . S
C107 O134 1.289 . S
O108 C107 1.235 . S
C109 C111 1.400 . S
C109 N112 1.351 . S
C109 C114 1.501 . S
C110 C111 1.387 . S
C110 N113 1.341 . S
C111 C109 1.400 . S
C111 C110 1.387 . S
N112 Co103 2.022 . S
N112 C109 1.351 . S
N112 N113 1.365 . S
N113 C110 1.341 . S
N113 N112 1.365 . S
N113 H133 0.862 . S
C114 C109 1.501 . S
C114 H115 0.961 . S
C114 H116 0.961 . S
C114 H117 0.960 . S
H115 C114 0.961 . S
H116 C114 0.961 . S
H117 C114 0.960 . S
C118 N119 1.342 . S
C118 C122 1.401 . S
C118 C123 1.499 . S
N119 Co102 1.989 . S
N119 C118 1.342 . S
N119 N120 1.388 . S
N120 Co103 1.993 . S
N120 N119 1.388 . S
N120 C121 1.346 . S
C121 N120 1.346 . S
C121 C122 1.396 . S
C121 C131 1.510 . S
C122 C118 1.401 . S
C122 C121 1.396 . S
C123 C118 1.499 . S
C123 H124 0.959 . S
C123 H125 0.960 . S
C123 H126 0.961 . S
H124 C123 0.959 . S
H125 C123 0.960 . S
H126 C123 0.961 . S
O127 Co102 1.967 . S
O127 C135 1.258 . S
O128 Co103 1.941 . S
O128 C135 1.266 . S
H129 C131 0.959 . S
H130 C131 0.961 . S
C131 C121 1.510 . S
C131 H129 0.959 . S
C131 H130 0.961 . S
C131 H132 0.960 . S
H132 C131 0.960 . S
H133 N113 0.862 . S
O134 Co102 1.920 . S
O134 C107 1.289 . S
C135 O127 1.258 . S
C135 O128 1.266 . S
Co136 O139 1.970 . S
Co136 N153 1.989 . S
Co136 O161 1.967 . S
Co136 O168 1.920 . S
Co137 O140 1.966 . S
Co137 N146 2.022 . S
Co137 N154 1.993 . S
Co137 O162 1.941 . S
C138 O139 1.258 . S
C138 O140 1.263 . S
O139 Co136 1.970 . S
O139 C138 1.258 . S
O140 Co137 1.966 . S
O140 C138 1.263 . S
C141 O142 1.235 . S
C141 O168 1.289 . S
O142 C141 1.235 . S
C143 C145 1.400 . S
C143 N146 1.351 . S
C143 C148 1.501 . S
C144 C145 1.387 . S
C144 N147 1.341 . S
C145 C143 1.400 . S
C145 C144 1.387 . S
N146 Co137 2.022 . S
N146 C143 1.351 . S
N146 N147 1.365 . S
N147 C144 1.341 . S
N147 N146 1.365 . S
N147 H167 0.862 . S
C148 C143 1.501 . S
C148 H149 0.961 . S
C148 H150 0.961 . S
C148 H151 0.960 . S
H149 C148 0.961 . S
H150 C148 0.961 . S
H151 C148 0.960 . S
C152 N153 1.342 . S
C152 C156 1.401 . S
C152 C157 1.499 . S
N153 Co136 1.989 . S
N153 C152 1.342 . S
N153 N154 1.388 . S
N154 Co137 1.993 . S
N154 N153 1.388 . S
N154 C155 1.346 . S
C155 N154 1.346 . S
C155 C156 1.396 . S
C155 C165 1.510 . S
C156 C152 1.401 . S
C156 C155 1.396 . S
C157 C152 1.499 . S
C157 H158 0.959 . S
C157 H159 0.960 . S
C157 H160 0.961 . S
H158 C157 0.959 . S
H159 C157 0.960 . S
H160 C157 0.961 . S
O161 Co136 1.967 . S
O161 C169 1.258 . S
O162 Co137 1.941 . S
O162 C169 1.266 . S
H163 C165 0.959 . S
H164 C165 0.961 . S
C165 C155 1.510 . S
C165 H163 0.959 . S
C165 H164 0.961 . S
C165 H166 0.960 . S
H166 C165 0.960 . S
H167 N147 0.862 . S
O168 Co136 1.920 . S
O168 C141 1.289 . S
C169 O161 1.258 . S
C169 O162 1.266 . S
Co170 O173 1.970 . S
Co170 N187 1.989 . S
Co170 O195 1.967 . S
Co170 O202 1.920 . S
Co171 O174 1.966 . S
Co171 N180 2.022 . S
Co171 N188 1.993 . S
Co171 O196 1.941 . S
C172 O173 1.258 . S
C172 O174 1.263 . S
O173 Co170 1.970 . S
O173 C172 1.258 . S
O174 Co171 1.966 . S
O174 C172 1.263 . S
C175 O176 1.235 . S
C175 O202 1.289 . S
O176 C175 1.235 . S
C177 C179 1.400 . S
C177 N180 1.351 . S
C177 C182 1.501 . S
C178 C179 1.387 . S
C178 N181 1.341 . S
C179 C177 1.400 . S
C179 C178 1.387 . S
N180 Co171 2.022 . S
N180 C177 1.351 . S
N180 N181 1.365 . S
N181 C178 1.341 . S
N181 N180 1.365 . S
N181 H201 0.862 . S
C182 C177 1.501 . S
C182 H183 0.961 . S
C182 H184 0.961 . S
C182 H185 0.960 . S
H183 C182 0.961 . S
H184 C182 0.961 . S
H185 C182 0.960 . S
C186 N187 1.342 . S
C186 C190 1.401 . S
C186 C191 1.499 . S
N187 Co170 1.989 . S
N187 C186 1.342 . S
N187 N188 1.388 . S
N188 Co171 1.993 . S
N188 N187 1.388 . S
N188 C189 1.346 . S
C189 N188 1.346 . S
C189 C190 1.396 . S
C189 C199 1.510 . S
C190 C186 1.401 . S
C190 C189 1.396 . S
C191 C186 1.499 . S
C191 H192 0.959 . S
C191 H193 0.960 . S
C191 H194 0.961 . S
H192 C191 0.959 . S
H193 C191 0.960 . S
H194 C191 0.961 . S
O195 Co170 1.967 . S
O195 C203 1.258 . S
O196 Co171 1.941 . S
O196 C203 1.266 . S
H197 C199 0.959 . S
H198 C199 0.961 . S
C199 C189 1.510 . S
C199 H197 0.959 . S
C199 H198 0.961 . S
C199 H200 0.960 . S
H200 C199 0.960 . S
H201 N181 0.862 . S
O202 Co170 1.920 . S
O202 C175 1.289 . S
C203 O195 1.258 . S
C203 O196 1.266 . S
Co204 O207 1.970 . S
Co204 N221 1.989 . S
Co204 O229 1.967 . S
Co204 O236 1.920 . S
Co205 O208 1.966 . S
Co205 N214 2.022 . S
Co205 N222 1.993 . S
Co205 O230 1.941 . S
C206 O207 1.258 . S
C206 O208 1.263 . S
O207 Co204 1.970 . S
O207 C206 1.258 . S
O208 Co205 1.966 . S
O208 C206 1.263 . S
C209 O210 1.235 . S
C209 O236 1.289 . S
O210 C209 1.235 . S
C211 C213 1.400 . S
C211 N214 1.351 . S
C211 C216 1.501 . S
C212 C213 1.387 . S
C212 N215 1.341 . S
C213 C211 1.400 . S
C213 C212 1.387 . S
N214 Co205 2.022 . S
N214 C211 1.351 . S
N214 N215 1.365 . S
N215 C212 1.341 . S
N215 N214 1.365 . S
N215 H235 0.862 . S
C216 C211 1.501 . S
C216 H217 0.961 . S
C216 H218 0.961 . S
C216 H219 0.960 . S
H217 C216 0.961 . S
H218 C216 0.961 . S
H219 C216 0.960 . S
C220 N221 1.342 . S
C220 C224 1.401 . S
C220 C225 1.499 . S
N221 Co204 1.989 . S
N221 C220 1.342 . S
N221 N222 1.388 . S
N222 Co205 1.993 . S
N222 N221 1.388 . S
N222 C223 1.346 . S
C223 N222 1.346 . S
C223 C224 1.396 . S
C223 C233 1.510 . S
C224 C220 1.401 . S
C224 C223 1.396 . S
C225 C220 1.499 . S
C225 H226 0.959 . S
C225 H227 0.960 . S
C225 H228 0.961 . S
H226 C225 0.959 . S
H227 C225 0.960 . S
H228 C225 0.961 . S
O229 Co204 1.967 . S
O229 C237 1.258 . S
O230 Co205 1.941 . S
O230 C237 1.266 . S
H231 C233 0.959 . S
H232 C233 0.961 . S
C233 C223 1.510 . S
C233 H231 0.959 . S
C233 H232 0.961 . S
C233 H234 0.960 . S
H234 C233 0.960 . S
H235 N215 0.862 . S
O236 Co204 1.920 . S
O236 C209 1.289 . S
C237 O229 1.258 . S
C237 O230 1.266 . S
Co238 O241 1.970 . S
Co238 N255 1.989 . S
Co238 O263 1.967 . S
Co238 O270 1.920 . S
Co239 O242 1.966 . S
Co239 N248 2.022 . S
Co239 N256 1.993 . S
Co239 O264 1.941 . S
C240 O241 1.258 . S
C240 O242 1.263 . S
O241 Co238 1.970 . S
O241 C240 1.258 . S
O242 Co239 1.966 . S
O242 C240 1.263 . S
C243 O244 1.235 . S
C243 O270 1.289 . S
O244 C243 1.235 . S
C245 C247 1.400 . S
C245 N248 1.351 . S
C245 C250 1.501 . S
C246 C247 1.387 . S
C246 N249 1.341 . S
C247 C245 1.400 . S
C247 C246 1.387 . S
N248 Co239 2.022 . S
N248 C245 1.351 . S
N248 N249 1.365 . S
N249 C246 1.341 . S
N249 N248 1.365 . S
N249 H269 0.862 . S
C250 C245 1.501 . S
C250 H251 0.961 . S
C250 H252 0.961 . S
C250 H253 0.960 . S
H251 C250 0.961 . S
H252 C250 0.961 . S
H253 C250 0.960 . S
C254 N255 1.342 . S
C254 C258 1.401 . S
C254 C259 1.499 . S
N255 Co238 1.989 . S
N255 C254 1.342 . S
N255 N256 1.388 . S
N256 Co239 1.993 . S
N256 N255 1.388 . S
N256 C257 1.346 . S
C257 N256 1.346 . S
C257 C258 1.396 . S
C257 C267 1.510 . S
C258 C254 1.401 . S
C258 C257 1.396 . S
C259 C254 1.499 . S
C259 H260 0.959 . S
C259 H261 0.960 . S
C259 H262 0.961 . S
H260 C259 0.959 . S
H261 C259 0.960 . S
H262 C259 0.961 . S
O263 Co238 1.967 . S
O263 C271 1.258 . S
O264 Co239 1.941 . S
O264 C271 1.266 . S
H265 C267 0.959 . S
H266 C267 0.961 . S
C267 C257 1.510 . S
C267 H265 0.959 . S
C267 H266 0.961 . S
C267 H268 0.960 . S
H268 C267 0.960 . S
H269 N249 0.862 . S
O270 Co238 1.920 . S
O270 C243 1.289 . S
C271 O263 1.258 . S
C271 O264 1.266 . S
Co272 O275 1.970 . S
Co272 N289 1.989 . S
Co272 O297 1.967 . S
Co272 O304 1.920 . S
Co273 O276 1.966 . S
Co273 N282 2.022 . S
Co273 N290 1.993 . S
Co273 O298 1.941 . S
C274 O275 1.258 . S
C274 O276 1.263 . S
O275 Co272 1.970 . S
O275 C274 1.258 . S
O276 Co273 1.966 . S
O276 C274 1.263 . S
C277 O278 1.235 . S
C277 O304 1.289 . S
O278 C277 1.235 . S
C279 C281 1.400 . S
C279 N282 1.351 . S
C279 C284 1.501 . S
C280 C281 1.387 . S
C280 N283 1.341 . S
C281 C279 1.400 . S
C281 C280 1.387 . S
N282 Co273 2.022 . S
N282 C279 1.351 . S
N282 N283 1.365 . S
N283 C280 1.341 . S
N283 N282 1.365 . S
N283 H303 0.862 . S
C284 C279 1.501 . S
C284 H285 0.961 . S
C284 H286 0.961 . S
C284 H287 0.960 . S
H285 C284 0.961 . S
H286 C284 0.961 . S
H287 C284 0.960 . S
C288 N289 1.342 . S
C288 C292 1.401 . S
C288 C293 1.499 . S
N289 Co272 1.989 . S
N289 C288 1.342 . S
N289 N290 1.388 . S
N290 Co273 1.993 . S
N290 N289 1.388 . S
N290 C291 1.346 . S
C291 N290 1.346 . S
C291 C292 1.396 . S
C291 C301 1.510 . S
C292 C288 1.401 . S
C292 C291 1.396 . S
C293 C288 1.499 . S
C293 H294 0.959 . S
C293 H295 0.960 . S
C293 H296 0.961 . S
H294 C293 0.959 . S
H295 C293 0.960 . S
H296 C293 0.961 . S
O297 Co272 1.967 . S
O297 C305 1.258 . S
O298 Co273 1.941 . S
O298 C305 1.266 . S
H299 C301 0.959 . S
H300 C301 0.961 . S
C301 C291 1.510 . S
C301 H299 0.959 . S
C301 H300 0.961 . S
C301 H302 0.960 . S
H302 C301 0.960 . S
H303 N283 0.862 . S
O304 Co272 1.920 . S
O304 C277 1.289 . S
C305 O297 1.258 . S
C305 O298 1.266 . S
Co306 O309 1.970 . S
Co306 N323 1.989 . S
Co306 O331 1.967 . S
Co306 O338 1.920 . S
Co307 O310 1.966 . S
Co307 N316 2.022 . S
Co307 N324 1.993 . S
Co307 O332 1.941 . S
C308 O309 1.258 . S
C308 O310 1.263 . S
O309 Co306 1.970 . S
O309 C308 1.258 . S
O310 Co307 1.966 . S
O310 C308 1.263 . S
C311 O312 1.235 . S
C311 O338 1.289 . S
O312 C311 1.235 . S
C313 C315 1.400 . S
C313 N316 1.351 . S
C313 C318 1.501 . S
C314 C315 1.387 . S
C314 N317 1.341 . S
C315 C313 1.400 . S
C315 C314 1.387 . S
N316 Co307 2.022 . S
N316 C313 1.351 . S
N316 N317 1.365 . S
N317 C314 1.341 . S
N317 N316 1.365 . S
N317 H337 0.862 . S
C318 C313 1.501 . S
C318 H319 0.961 . S
C318 H320 0.961 . S
C318 H321 0.960 1_655 S
H319 C318 0.961 . S
H320 C318 0.961 . S
H321 C318 0.960 1_455 S
C322 N323 1.342 . S
C322 C326 1.401 . S
C322 C327 1.499 . S
N323 Co306 1.989 . S
N323 C322 1.342 . S
N323 N324 1.388 . S
N324 Co307 1.993 . S
N324 N323 1.388 . S
N324 C325 1.346 . S
C325 N324 1.346 . S
C325 C326 1.396 . S
C325 C335 1.510 . S
C326 C322 1.401 . S
C326 C325 1.396 . S
C327 C322 1.499 . S
C327 H328 0.959 . S
C327 H329 0.960 . S
C327 H330 0.961 . S
H328 C327 0.959 . S
H329 C327 0.960 . S
H330 C327 0.961 . S
O331 Co306 1.967 . S
O331 C339 1.258 . S
O332 Co307 1.941 . S
O332 C339 1.266 . S
H333 C335 0.959 . S
H334 C335 0.961 . S
C335 C325 1.510 . S
C335 H333 0.959 . S
C335 H334 0.961 . S
C335 H336 0.960 . S
H336 C335 0.960 . S
H337 N317 0.862 . S
O338 Co306 1.920 . S
O338 C311 1.289 . S
C339 O331 1.258 . S
C339 O332 1.266 . S
Co340 O343 1.970 . S
Co340 N357 1.989 . S
Co340 O365 1.967 . S
Co340 O372 1.920 . S
Co341 O344 1.966 . S
Co341 N350 2.022 . S
Co341 N358 1.993 . S
Co341 O366 1.941 . S
C342 O343 1.258 . S
C342 O344 1.263 . S
O343 Co340 1.970 . S
O343 C342 1.258 . S
O344 Co341 1.966 . S
O344 C342 1.263 . S
C345 O346 1.235 . S
C345 O372 1.289 . S
O346 C345 1.235 . S
C347 C349 1.400 . S
C347 N350 1.351 . S
C347 C352 1.501 . S
C348 C349 1.387 . S
C348 N351 1.341 . S
C349 C347 1.400 . S
C349 C348 1.387 . S
N350 Co341 2.022 . S
N350 C347 1.351 . S
N350 N351 1.365 . S
N351 C348 1.341 . S
N351 N350 1.365 . S
N351 H371 0.862 . S
C352 C347 1.501 . S
C352 H353 0.961 . S
C352 H354 0.961 . S
C352 H355 0.960 . S
H353 C352 0.961 . S
H354 C352 0.961 . S
H355 C352 0.960 . S
C356 N357 1.342 . S
C356 C360 1.401 . S
C356 C361 1.499 . S
N357 Co340 1.989 . S
N357 C356 1.342 . S
N357 N358 1.388 . S
N358 Co341 1.993 . S
N358 N357 1.388 . S
N358 C359 1.346 . S
C359 N358 1.346 . S
C359 C360 1.396 . S
C359 C369 1.510 . S
C360 C356 1.401 . S
C360 C359 1.396 . S
C361 C356 1.499 . S
C361 H362 0.959 . S
C361 H363 0.960 . S
C361 H364 0.961 . S
H362 C361 0.959 . S
H363 C361 0.960 . S
H364 C361 0.961 . S
O365 Co340 1.967 . S
O365 C373 1.258 . S
O366 Co341 1.941 . S
O366 C373 1.266 . S
H367 C369 0.959 . S
H368 C369 0.961 . S
C369 C359 1.510 . S
C369 H367 0.959 . S
C369 H368 0.961 . S
C369 H370 0.960 . S
H370 C369 0.960 . S
H371 N351 0.862 . S
O372 Co340 1.920 . S
O372 C345 1.289 . S
C373 O365 1.258 . S
C373 O366 1.266 . S
Co374 O377 1.970 . S
Co374 N391 1.989 . S
Co374 O399 1.967 . S
Co374 O406 1.920 . S
Co375 O378 1.966 . S
Co375 N384 2.022 . S
Co375 N392 1.993 . S
Co375 O400 1.941 . S
C376 O377 1.258 . S
C376 O378 1.263 . S
O377 Co374 1.970 . S
O377 C376 1.258 . S
O378 Co375 1.966 . S
O378 C376 1.263 . S
C379 O380 1.235 . S
C379 O406 1.289 . S
O380 C379 1.235 . S
C381 C383 1.400 . S
C381 N384 1.351 . S
C381 C386 1.501 . S
C382 C383 1.387 . S
C382 N385 1.341 . S
C383 C381 1.400 . S
C383 C382 1.387 . S
N384 Co375 2.022 . S
N384 C381 1.351 . S
N384 N385 1.365 . S
N385 C382 1.341 . S
N385 N384 1.365 . S
N385 H405 0.862 . S
C386 C381 1.501 . S
C386 H387 0.961 . S
C386 H388 0.961 . S
C386 H389 0.960 1_545 S
H387 C386 0.961 . S
H388 C386 0.961 . S
H389 C386 0.960 1_565 S
C390 N391 1.342 . S
C390 C394 1.401 . S
C390 C395 1.499 . S
N391 Co374 1.989 . S
N391 C390 1.342 . S
N391 N392 1.388 . S
N392 Co375 1.993 . S
N392 N391 1.388 . S
N392 C393 1.346 . S
C393 N392 1.346 . S
C393 C394 1.396 . S
C393 C403 1.510 . S
C394 C390 1.401 . S
C394 C393 1.396 . S
C395 C390 1.499 . S
C395 H396 0.959 . S
C395 H397 0.960 . S
C395 H398 0.961 . S
H396 C395 0.959 . S
H397 C395 0.960 . S
H398 C395 0.961 . S
O399 Co374 1.967 . S
O399 C407 1.258 . S
O400 Co375 1.941 . S
O400 C407 1.266 . S
H401 C403 0.959 . S
H402 C403 0.961 . S
C403 C393 1.510 . S
C403 H401 0.959 . S
C403 H402 0.961 . S
C403 H404 0.960 . S
H404 C403 0.960 . S
H405 N385 0.862 . S
O406 Co374 1.920 . S
O406 C379 1.289 . S
C407 O399 1.258 . S
C407 O400 1.266 . S
Co408 O411 1.970 . S
Co408 N425 1.989 . S
Co408 O433 1.967 . S
Co408 O440 1.920 . S
Co409 O412 1.966 . S
Co409 N418 2.022 . S
Co409 N426 1.993 . S
Co409 O434 1.941 . S
C410 O411 1.258 . S
C410 O412 1.263 . S
O411 Co408 1.970 . S
O411 C410 1.258 . S
O412 Co409 1.966 . S
O412 C410 1.263 . S
C413 O414 1.235 . S
C413 O440 1.289 . S
O414 C413 1.235 . S
C415 C417 1.400 . S
C415 N418 1.351 . S
C415 C420 1.501 . S
C416 C417 1.387 . S
C416 N419 1.341 . S
C417 C415 1.400 . S
C417 C416 1.387 . S
N418 Co409 2.022 . S
N418 C415 1.351 . S
N418 N419 1.365 . S
N419 C416 1.341 . S
N419 N418 1.365 . S
N419 H439 0.862 . S
C420 C415 1.501 . S
C420 H421 0.961 . S
C420 H422 0.961 . S
C420 H423 0.960 1_565 S
H421 C420 0.961 . S
H422 C420 0.961 . S
H423 C420 0.960 1_545 S
C424 N425 1.342 . S
C424 C428 1.401 . S
C424 C429 1.499 . S
N425 Co408 1.989 . S
N425 C424 1.342 . S
N425 N426 1.388 . S
N426 Co409 1.993 . S
N426 N425 1.388 . S
N426 C427 1.346 . S
C427 N426 1.346 . S
C427 C428 1.396 . S
C427 C437 1.510 . S
C428 C424 1.401 . S
C428 C427 1.396 . S
C429 C424 1.499 . S
C429 H430 0.959 . S
C429 H431 0.960 . S
C429 H432 0.961 . S
H430 C429 0.959 . S
H431 C429 0.960 . S
H432 C429 0.961 . S
O433 Co408 1.967 . S
O433 C441 1.258 . S
O434 Co409 1.941 . S
O434 C441 1.266 . S
H435 C437 0.959 . S
H436 C437 0.961 . S
C437 C427 1.510 . S
C437 H435 0.959 . S
C437 H436 0.961 . S
C437 H438 0.960 . S
H438 C437 0.960 . S
H439 N419 0.862 . S
O440 Co408 1.920 . S
O440 C413 1.289 . S
C441 O433 1.258 . S
C441 O434 1.266 . S
Co442 O445 1.970 . S
Co442 N459 1.989 . S
Co442 O467 1.967 . S
Co442 O474 1.920 . S
Co443 O446 1.966 . S
Co443 N452 2.022 . S
Co443 N460 1.993 . S
Co443 O468 1.941 . S
C444 O445 1.258 . S
C444 O446 1.263 . S
O445 Co442 1.970 . S
O445 C444 1.258 . S
O446 Co443 1.966 . S
O446 C444 1.263 . S
C447 O448 1.235 . S
C447 O474 1.289 . S
O448 C447 1.235 . S
C449 C451 1.400 . S
C449 N452 1.351 . S
C449 C454 1.501 . S
C450 C451 1.387 . S
C450 N453 1.341 . S
C451 C449 1.400 . S
C451 C450 1.387 . S
N452 Co443 2.022 . S
N452 C449 1.351 . S
N452 N453 1.365 . S
N453 C450 1.341 . S
N453 N452 1.365 . S
N453 H473 0.862 . S
C454 C449 1.501 . S
C454 H455 0.961 . S
C454 H456 0.961 . S
C454 H457 0.960 1_455 S
H455 C454 0.961 . S
H456 C454 0.961 . S
H457 C454 0.960 1_655 S
C458 N459 1.342 . S
C458 C462 1.401 . S
C458 C463 1.499 . S
N459 Co442 1.989 . S
N459 C458 1.342 . S
N459 N460 1.388 . S
N460 Co443 1.993 . S
N460 N459 1.388 . S
N460 C461 1.346 . S
C461 N460 1.346 . S
C461 C462 1.396 . S
C461 C471 1.510 . S
C462 C458 1.401 . S
C462 C461 1.396 . S
C463 C458 1.499 . S
C463 H464 0.959 . S
C463 H465 0.960 . S
C463 H466 0.961 . S
H464 C463 0.959 . S
H465 C463 0.960 . S
H466 C463 0.961 . S
O467 Co442 1.967 . S
O467 C475 1.258 . S
O468 Co443 1.941 . S
O468 C475 1.266 . S
H469 C471 0.959 . S
H470 C471 0.961 . S
C471 C461 1.510 . S
C471 H469 0.959 . S
C471 H470 0.961 . S
C471 H472 0.960 . S
H472 C471 0.960 . S
H473 N453 0.862 . S
O474 Co442 1.920 . S
O474 C447 1.289 . S
C475 O467 1.258 . S
C475 O468 1.266 . S
Co476 O479 1.970 . S
Co476 N493 1.989 . S
Co476 O501 1.967 . S
Co476 O508 1.920 . S
Co477 O480 1.966 . S
Co477 N486 2.022 . S
Co477 N494 1.993 . S
Co477 O502 1.941 . S
C478 O479 1.258 . S
C478 O480 1.263 . S
O479 Co476 1.970 . S
O479 C478 1.258 . S
O480 Co477 1.966 . S
O480 C478 1.263 . S
C481 O482 1.235 . S
C481 O508 1.289 . S
O482 C481 1.235 . S
C483 C485 1.400 . S
C483 N486 1.351 . S
C483 C488 1.501 . S
C484 C485 1.387 . S
C484 N487 1.341 . S
C485 C483 1.400 . S
C485 C484 1.387 . S
N486 Co477 2.022 . S
N486 C483 1.351 . S
N486 N487 1.365 . S
N487 C484 1.341 . S
N487 N486 1.365 . S
N487 H507 0.862 . S
C488 C483 1.501 . S
C488 H489 0.961 . S
C488 H490 0.961 . S
C488 H491 0.960 . S
H489 C488 0.961 . S
H490 C488 0.961 . S
H491 C488 0.960 . S
C492 N493 1.342 . S
C492 C496 1.401 . S
C492 C497 1.499 . S
N493 Co476 1.989 . S
N493 C492 1.342 . S
N493 N494 1.388 . S
N494 Co477 1.993 . S
N494 N493 1.388 . S
N494 C495 1.346 . S
C495 N494 1.346 . S
C495 C496 1.396 . S
C495 C505 1.510 . S
C496 C492 1.401 . S
C496 C495 1.396 . S
C497 C492 1.499 . S
C497 H498 0.959 . S
C497 H499 0.960 . S
C497 H500 0.961 . S
H498 C497 0.959 . S
H499 C497 0.960 . S
H500 C497 0.961 . S
O501 Co476 1.967 . S
O501 C509 1.258 . S
O502 Co477 1.941 . S
O502 C509 1.266 . S
H503 C505 0.959 . S
H504 C505 0.961 . S
C505 C495 1.510 . S
C505 H503 0.959 . S
C505 H504 0.961 . S
C505 H506 0.960 . S
H506 C505 0.960 . S
H507 N487 0.862 . S
O508 Co476 1.920 . S
O508 C481 1.289 . S
C509 O501 1.258 . S
C509 O502 1.266 . S
Co510 O513 1.970 . S
Co510 N527 1.989 . S
Co510 O535 1.967 . S
Co510 O542 1.920 . S
Co511 O514 1.966 . S
Co511 N520 2.022 . S
Co511 N528 1.993 . S
Co511 O536 1.941 . S
C512 O513 1.258 . S
C512 O514 1.263 . S
O513 Co510 1.970 . S
O513 C512 1.258 . S
O514 Co511 1.966 . S
O514 C512 1.263 . S
C515 O516 1.235 . S
C515 O542 1.289 . S
O516 C515 1.235 . S
C517 C519 1.400 . S
C517 N520 1.351 . S
C517 C522 1.501 . S
C518 C519 1.387 . S
C518 N521 1.341 . S
C519 C517 1.400 . S
C519 C518 1.387 . S
N520 Co511 2.022 . S
N520 C517 1.351 . S
N520 N521 1.365 . S
N521 C518 1.341 . S
N521 N520 1.365 . S
N521 H541 0.862 . S
C522 C517 1.501 . S
C522 H523 0.961 . S
C522 H524 0.961 . S
C522 H525 0.960 . S
H523 C522 0.961 . S
H524 C522 0.961 . S
H525 C522 0.960 . S
C526 N527 1.342 . S
C526 C530 1.401 . S
C526 C531 1.499 . S
N527 Co510 1.989 . S
N527 C526 1.342 . S
N527 N528 1.388 . S
N528 Co511 1.993 . S
N528 N527 1.388 . S
N528 C529 1.346 . S
C529 N528 1.346 . S
C529 C530 1.396 . S
C529 C539 1.510 . S
C530 C526 1.401 . S
C530 C529 1.396 . S
C531 C526 1.499 . S
C531 H532 0.959 . S
C531 H533 0.960 . S
C531 H534 0.961 . S
H532 C531 0.959 . S
H533 C531 0.960 . S
H534 C531 0.961 . S
O535 Co510 1.967 . S
O535 C543 1.258 . S
O536 Co511 1.941 . S
O536 C543 1.266 . S
H537 C539 0.959 . S
H538 C539 0.961 . S
C539 C529 1.510 . S
C539 H537 0.959 . S
C539 H538 0.961 . S
C539 H540 0.960 . S
H540 C539 0.960 . S
H541 N521 0.862 . S
O542 Co510 1.920 . S
O542 C515 1.289 . S
C543 O535 1.258 . S
C543 O536 1.266 . S
Co544 O547 1.970 . S
Co544 N561 1.989 . S
Co544 O569 1.967 . S
Co544 O576 1.920 . S
Co545 O548 1.966 . S
Co545 N554 2.022 . S
Co545 N562 1.993 . S
Co545 O570 1.941 . S
C546 O547 1.258 . S
C546 O548 1.263 . S
O547 Co544 1.970 . S
O547 C546 1.258 . S
O548 Co545 1.966 . S
O548 C546 1.263 . S
C549 O550 1.235 . S
C549 O576 1.289 . S
O550 C549 1.235 . S
C551 C553 1.400 . S
C551 N554 1.351 . S
C551 C556 1.501 . S
C552 C553 1.387 . S
C552 N555 1.341 . S
C553 C551 1.400 . S
C553 C552 1.387 . S
N554 Co545 2.022 . S
N554 C551 1.351 . S
N554 N555 1.365 . S
N555 C552 1.341 . S
N555 N554 1.365 . S
N555 H575 0.862 . S
C556 C551 1.501 . S
C556 H557 0.961 . S
C556 H558 0.961 . S
C556 H559 0.960 . S
H557 C556 0.961 . S
H558 C556 0.961 . S
H559 C556 0.960 . S
C560 N561 1.342 . S
C560 C564 1.401 . S
C560 C565 1.499 . S
N561 Co544 1.989 . S
N561 C560 1.342 . S
N561 N562 1.388 . S
N562 Co545 1.993 . S
N562 N561 1.388 . S
N562 C563 1.346 . S
C563 N562 1.346 . S
C563 C564 1.396 . S
C563 C573 1.510 . S
C564 C560 1.401 . S
C564 C563 1.396 . S
C565 C560 1.499 . S
C565 H566 0.959 . S
C565 H567 0.960 . S
C565 H568 0.961 . S
H566 C565 0.959 . S
H567 C565 0.960 . S
H568 C565 0.961 . S
O569 Co544 1.967 . S
O569 C577 1.258 . S
O570 Co545 1.941 . S
O570 C577 1.266 . S
H571 C573 0.959 . S
H572 C573 0.961 . S
C573 C563 1.510 . S
C573 H571 0.959 . S
C573 H572 0.961 . S
C573 H574 0.960 . S
H574 C573 0.960 . S
H575 N555 0.862 . S
O576 Co544 1.920 . S
O576 C549 1.289 . S
C577 O569 1.258 . S
C577 O570 1.266 . S
Co578 O581 1.970 . S
Co578 N595 1.989 . S
Co578 O603 1.967 . S
Co578 O610 1.920 . S
Co579 O582 1.966 . S
Co579 N588 2.022 . S
Co579 N596 1.993 . S
Co579 O604 1.941 . S
C580 O581 1.258 . S
C580 O582 1.263 . S
O581 Co578 1.970 . S
O581 C580 1.258 . S
O582 Co579 1.966 . S
O582 C580 1.263 . S
C583 O584 1.235 . S
C583 O610 1.289 . S
O584 C583 1.235 . S
C585 C587 1.400 . S
C585 N588 1.351 . S
C585 C590 1.501 . S
C586 C587 1.387 . S
C586 N589 1.341 . S
C587 C585 1.400 . S
C587 C586 1.387 . S
N588 Co579 2.022 . S
N588 C585 1.351 . S
N588 N589 1.365 . S
N589 C586 1.341 . S
N589 N588 1.365 . S
N589 H609 0.862 . S
C590 C585 1.501 . S
C590 H591 0.961 . S
C590 H592 0.961 . S
C590 H593 0.960 . S
H591 C590 0.961 . S
H592 C590 0.961 . S
H593 C590 0.960 . S
C594 N595 1.342 . S
C594 C598 1.401 . S
C594 C599 1.499 . S
N595 Co578 1.989 . S
N595 C594 1.342 . S
N595 N596 1.388 . S
N596 Co579 1.993 . S
N596 N595 1.388 . S
N596 C597 1.346 . S
C597 N596 1.346 . S
C597 C598 1.396 . S
C597 C607 1.510 . S
C598 C594 1.401 . S
C598 C597 1.396 . S
C599 C594 1.499 . S
C599 H600 0.959 . S
C599 H601 0.960 . S
C599 H602 0.961 . S
H600 C599 0.959 . S
H601 C599 0.960 . S
H602 C599 0.961 . S
O603 Co578 1.967 . S
O603 C611 1.258 . S
O604 Co579 1.941 . S
O604 C611 1.266 . S
H605 C607 0.959 . S
H606 C607 0.961 . S
C607 C597 1.510 . S
C607 H605 0.959 . S
C607 H606 0.961 . S
C607 H608 0.960 . S
H608 C607 0.960 . S
H609 N589 0.862 . S
O610 Co578 1.920 . S
O610 C583 1.289 . S
C611 O603 1.258 . S
C611 O604 1.266 . S
H612 C630 0.951 . S
H613 C632 0.951 . S
H614 C634 0.950 . S
H615 C635 0.950 . S
H616 C637 0.950 . S
H617 C640 0.950 . S
H618 C641 0.950 . S
H619 C643 0.950 . S
H620 C644 0.950 . S
H621 C645 0.951 . S
H622 C647 0.951 . S
H623 C649 0.950 . S
H624 C650 0.950 . S
H625 C652 0.950 . S
H626 C655 0.950 . S
H627 C656 0.950 . S
H628 C658 0.950 . S
H629 C659 0.950 . S
C630 H612 0.951 . S
C630 C631 1.366 . S
C630 C632 1.388 . S
C631 C630 1.366 . S
C631 C635 1.385 . S
C632 H613 0.951 . S
C632 C630 1.388 . S
C632 C633 1.366 . S
C633 C632 1.366 . S
C633 C634 1.414 . S
C633 C636 1.499 . S
C634 H614 0.950 . S
C634 C633 1.414 . S
C634 C635 1.374 . S
C635 H615 0.950 . S
C635 C631 1.385 . S
C635 C634 1.374 . S
C636 C633 1.499 . S
C636 C637 1.373 . S
C636 C638 1.389 . S
C637 H616 0.950 . S
C637 C636 1.373 . S
C637 C653 1.377 . S
C638 C636 1.389 . S
C638 C639 1.524 . S
C638 C652 1.377 . S
C639 C638 1.524 . S
C639 C640 1.397 . S
C639 C644 1.363 . S
C640 H617 0.950 . S
C640 C639 1.397 . S
C640 C641 1.334 . S
C641 H618 0.950 . S
C641 C640 1.334 . S
C641 C642 1.287 . S
C642 C641 1.287 . S
C642 C643 1.524 . S
C642 H661 0.913 . S
C643 H619 0.950 . S
C643 C642 1.524 . S
C643 C644 1.415 . S
C644 H620 0.950 . S
C644 C639 1.363 . S
C644 C643 1.415 . S
C645 H621 0.951 . S
C645 C646 1.366 . S
C645 C647 1.388 . S
C646 C645 1.366 . S
C646 C650 1.385 . S
C647 H622 0.951 . S
C647 C645 1.388 . S
C647 C648 1.366 . S
C648 C647 1.366 . S
C648 C649 1.414 . S
C648 C651 1.499 . S
C649 H623 0.950 . S
C649 C648 1.414 . S
C649 C650 1.374 . S
C650 H624 0.950 . S
C650 C646 1.385 . S
C650 C649 1.374 . S
C651 C648 1.499 . S
C651 C652 1.373 . S
C651 C653 1.389 . S
C652 H625 0.950 . S
C652 C638 1.377 . S
C652 C651 1.373 . S
C653 C637 1.377 . S
C653 C651 1.389 . S
C653 C654 1.524 . S
C654 C653 1.524 . S
C654 C655 1.397 . S
C654 C659 1.363 . S
C655 H626 0.950 . S
C655 C654 1.397 . S
C655 C656 1.334 . S
C656 H627 0.950 . S
C656 C655 1.334 . S
C656 C657 1.287 . S
C657 C656 1.287 . S
C657 C658 1.524 . S
C657 H660 0.999 . S
C658 H628 0.950 . S
C658 C657 1.524 . S
C658 C659 1.415 . S
C659 H629 0.950 . S
C659 C654 1.363 . S
C659 C658 1.415 . S
H660 C657 0.999 . S
H661 C642 0.913 . S
H662 C680 0.951 . S
H663 C682 0.951 . S
H664 C684 0.950 . S
H665 C685 0.950 . S
H666 C687 0.950 . S
H667 C690 0.950 . S
H668 C691 0.950 . S
H669 C693 0.950 . S
H670 C694 0.950 . S
H671 C695 0.951 . S
H672 C697 0.951 . S
H673 C699 0.950 . S
H674 C700 0.950 . S
H675 C702 0.950 . S
H676 C705 0.950 . S
H677 C706 0.950 . S
H678 C708 0.950 . S
H679 C709 0.950 . S
C680 H662 0.951 . S
C680 C681 1.366 . S
C680 C682 1.388 . S
C681 C680 1.366 . S
C681 C685 1.385 . S
C682 H663 0.951 . S
C682 C680 1.388 . S
C682 C683 1.366 . S
C683 C682 1.366 . S
C683 C684 1.414 . S
C683 C686 1.499 . S
C684 H664 0.950 . S
C684 C683 1.414 . S
C684 C685 1.374 . S
C685 H665 0.950 . S
C685 C681 1.385 . S
C685 C684 1.374 . S
C686 C683 1.499 . S
C686 C687 1.373 . S
C686 C688 1.389 . S
C687 H666 0.950 . S
C687 C686 1.373 . S
C687 C703 1.377 . S
C688 C686 1.389 . S
C688 C689 1.524 . S
C688 C702 1.377 . S
C689 C688 1.524 . S
C689 C690 1.397 . S
C689 C694 1.363 . S
C690 H667 0.950 . S
C690 C689 1.397 . S
C690 C691 1.334 . S
C691 H668 0.950 . S
C691 C690 1.334 . S
C691 C692 1.287 . S
C692 C691 1.287 . S
C692 C693 1.524 . S
C692 H711 0.913 . S
C693 H669 0.950 . S
C693 C692 1.524 . S
C693 C694 1.415 . S
C694 H670 0.950 . S
C694 C689 1.363 . S
C694 C693 1.415 . S
C695 H671 0.951 . S
C695 C696 1.366 1_545 S
C695 C697 1.388 1_545 S
C696 C695 1.366 1_565 S
C696 C700 1.385 . S
C697 H672 0.951 . S
C697 C695 1.388 1_565 S
C697 C698 1.366 . S
C698 C697 1.366 . S
C698 C699 1.414 . S
C698 C701 1.499 . S
C699 H673 0.950 . S
C699 C698 1.414 . S
C699 C700 1.374 . S
C700 H674 0.950 . S
C700 C696 1.385 . S
C700 C699 1.374 . S
C701 C698 1.499 . S
C701 C702 1.373 . S
C701 C703 1.389 . S
C702 H675 0.950 . S
C702 C688 1.377 . S
C702 C701 1.373 . S
C703 C687 1.377 . S
C703 C701 1.389 . S
C703 C704 1.524 1_565 S
C704 C703 1.524 1_545 S
C704 C705 1.397 . S
C704 C709 1.363 . S
C705 H676 0.950 . S
C705 C704 1.397 . S
C705 C706 1.334 . S
C706 H677 0.950 . S
C706 C705 1.334 . S
C706 C707 1.287 . S
C707 C706 1.287 . S
C707 C708 1.524 . S
C707 H710 0.999 . S
C708 H678 0.950 . S
C708 C707 1.524 . S
C708 C709 1.415 . S
C709 H679 0.950 . S
C709 C704 1.363 . S
C709 C708 1.415 . S
H710 C707 0.999 . S
H711 C692 0.913 . S
H712 C730 0.951 . S
H713 C732 0.951 1_655 S
H714 C734 0.950 . S
H715 C735 0.950 . S
H716 C737 0.950 . S
H717 C740 0.950 . S
H718 C741 0.950 . S
H719 C743 0.950 . S
H720 C744 0.950 . S
H721 C745 0.951 . S
H722 C747 0.951 . S
H723 C749 0.950 . S
H724 C750 0.950 . S
H725 C752 0.950 . S
H726 C755 0.950 . S
H727 C756 0.950 . S
H728 C758 0.950 . S
H729 C759 0.950 . S
C730 H712 0.951 . S
C730 C731 1.366 1_655 S
C730 C732 1.388 1_655 S
C731 C730 1.366 1_455 S
C731 C735 1.385 . S
C732 H713 0.951 1_455 S
C732 C730 1.388 1_455 S
C732 C733 1.366 . S
C733 C732 1.366 . S
C733 C734 1.414 . S
C733 C736 1.499 . S
C734 H714 0.950 . S
C734 C733 1.414 . S
C734 C735 1.374 . S
C735 H715 0.950 . S
C735 C731 1.385 . S
C735 C734 1.374 . S
C736 C733 1.499 . S
C736 C737 1.373 . S
C736 C738 1.389 . S
C737 H716 0.950 . S
C737 C736 1.373 . S
C737 C753 1.377 . S
C738 C736 1.389 . S
C738 C739 1.524 . S
C738 C752 1.377 . S
C739 C738 1.524 . S
C739 C740 1.397 . S
C739 C744 1.363 1_455 S
C740 H717 0.950 . S
C740 C739 1.397 . S
C740 C741 1.334 1_455 S
C741 H718 0.950 . S
C741 C740 1.334 1_655 S
C741 C742 1.287 . S
C742 C741 1.287 . S
C742 C743 1.524 . S
C742 H761 0.913 . S
C743 H719 0.950 . S
C743 C742 1.524 . S
C743 C744 1.415 . S
C744 H720 0.950 . S
C744 C739 1.363 1_655 S
C744 C743 1.415 . S
C745 H721 0.951 . S
C745 C746 1.366 . S
C745 C747 1.388 . S
C746 C745 1.366 . S
C746 C750 1.385 . S
C747 H722 0.951 . S
C747 C745 1.388 . S
C747 C748 1.366 . S
C748 C747 1.366 . S
C748 C749 1.414 . S
C748 C751 1.499 . S
C749 H723 0.950 . S
C749 C748 1.414 . S
C749 C750 1.374 . S
C750 H724 0.950 . S
C750 C746 1.385 . S
C750 C749 1.374 . S
C751 C748 1.499 . S
C751 C752 1.373 . S
C751 C753 1.389 . S
C752 H725 0.950 . S
C752 C738 1.377 . S
C752 C751 1.373 . S
C753 C737 1.377 . S
C753 C751 1.389 . S
C753 C754 1.524 . S
C754 C753 1.524 . S
C754 C755 1.397 . S
C754 C759 1.363 . S
C755 H726 0.950 . S
C755 C754 1.397 . S
C755 C756 1.334 . S
C756 H727 0.950 . S
C756 C755 1.334 . S
C756 C757 1.287 . S
C757 C756 1.287 . S
C757 C758 1.524 . S
C757 H760 0.999 . S
C758 H728 0.950 . S
C758 C757 1.524 . S
C758 C759 1.415 . S
C759 H729 0.950 . S
C759 C754 1.363 . S
C759 C758 1.415 . S
H760 C757 0.999 . S
H761 C742 0.913 . S
H762 C780 0.951 . S
H763 C782 0.951 . S
H764 C784 0.950 . S
H765 C785 0.950 . S
H766 C787 0.950 . S
H767 C790 0.950 . S
H768 C791 0.950 . S
H769 C793 0.950 . S
H770 C794 0.950 . S
H771 C795 0.951 . S
H772 C797 0.951 . S
H773 C799 0.950 . S
H774 C800 0.950 . S
H775 C802 0.950 . S
H776 C805 0.950 . S
H777 C806 0.950 . S
H778 C808 0.950 . S
H779 C809 0.950 . S
C780 H762 0.951 . S
C780 C781 1.366 . S
C780 C782 1.388 . S
C781 C780 1.366 . S
C781 C785 1.385 . S
C782 H763 0.951 . S
C782 C780 1.388 . S
C782 C783 1.366 . S
C783 C782 1.366 . S
C783 C784 1.414 . S
C783 C786 1.499 . S
C784 H764 0.950 . S
C784 C783 1.414 . S
C784 C785 1.374 . S
C785 H765 0.950 . S
C785 C781 1.385 . S
C785 C784 1.374 . S
C786 C783 1.499 . S
C786 C787 1.373 . S
C786 C788 1.389 . S
C787 H766 0.950 . S
C787 C786 1.373 . S
C787 C803 1.377 . S
C788 C786 1.389 . S
C788 C789 1.524 . S
C788 C802 1.377 . S
C789 C788 1.524 . S
C789 C790 1.397 . S
C789 C794 1.363 . S
C790 H767 0.950 . S
C790 C789 1.397 . S
C790 C791 1.334 . S
C791 H768 0.950 . S
C791 C790 1.334 . S
C791 C792 1.287 . S
C792 C791 1.287 . S
C792 C793 1.524 . S
C792 H811 0.913 . S
C793 H769 0.950 . S
C793 C792 1.524 . S
C793 C794 1.415 . S
C794 H770 0.950 . S
C794 C789 1.363 . S
C794 C793 1.415 . S
C795 H771 0.951 . S
C795 C796 1.366 . S
C795 C797 1.388 . S
C796 C795 1.366 . S
C796 C800 1.385 . S
C797 H772 0.951 . S
C797 C795 1.388 . S
C797 C798 1.366 . S
C798 C797 1.366 . S
C798 C799 1.414 . S
C798 C801 1.499 . S
C799 H773 0.950 . S
C799 C798 1.414 . S
C799 C800 1.374 . S
C800 H774 0.950 . S
C800 C796 1.385 . S
C800 C799 1.374 . S
C801 C798 1.499 . S
C801 C802 1.373 . S
C801 C803 1.389 . S
C802 H775 0.950 . S
C802 C788 1.377 . S
C802 C801 1.373 . S
C803 C787 1.377 . S
C803 C801 1.389 . S
C803 C804 1.524 . S
C804 C803 1.524 . S
C804 C805 1.397 . S
C804 C809 1.363 . S
C805 H776 0.950 . S
C805 C804 1.397 . S
C805 C806 1.334 . S
C806 H777 0.950 . S
C806 C805 1.334 . S
C806 C807 1.287 . S
C807 C806 1.287 . S
C807 C808 1.524 . S
C807 H810 0.999 . S
C808 H778 0.950 . S
C808 C807 1.524 . S
C808 C809 1.415 . S
C809 H779 0.950 . S
C809 C804 1.363 . S
C809 C808 1.415 . S
H810 C807 0.999 . S
H811 C792 0.913 . S
H812 C830 0.951 . S
H813 C832 0.951 . S
H814 C834 0.950 . S
H815 C835 0.950 . S
H816 C837 0.950 . S
H817 C840 0.950 . S
H818 C841 0.950 . S
H819 C843 0.950 . S
H820 C844 0.951 . S
H821 C845 0.951 . S
H822 C847 0.951 . S
H823 C849 0.950 1_565 S
H824 C850 0.950 . S
H825 C852 0.950 . S
H826 C855 0.950 . S
H827 C856 0.950 . S
H828 C858 0.950 . S
H829 C859 0.950 . S
C830 H812 0.951 . S
C830 C831 1.366 . S
C830 C832 1.388 . S
C831 C830 1.366 . S
C831 C835 1.385 . S
C832 H813 0.951 . S
C832 C830 1.388 . S
C832 C833 1.366 . S
C833 C832 1.366 . S
C833 C834 1.414 . S
C833 C836 1.499 . S
C834 H814 0.950 . S
C834 C833 1.414 . S
C834 C835 1.374 . S
C835 H815 0.950 . S
C835 C831 1.385 . S
C835 C834 1.374 . S
C836 C833 1.499 . S
C836 C837 1.373 . S
C836 C838 1.389 . S
C837 H816 0.950 . S
C837 C836 1.373 . S
C837 C853 1.377 . S
C838 C836 1.389 . S
C838 C839 1.524 . S
C838 C852 1.377 . S
C839 C838 1.524 . S
C839 C840 1.397 . S
C839 C844 1.362 1_545 S
C840 H817 0.950 . S
C840 C839 1.397 . S
C840 C841 1.334 . S
C841 H818 0.950 . S
C841 C840 1.334 . S
C841 C842 1.281 1_545 S
C842 C841 1.281 1_565 S
C842 C843 1.527 . S
C842 H861 0.917 . S
C843 H819 0.950 . S
C843 C842 1.527 . S
C843 C844 1.415 . S
C844 H820 0.951 . S
C844 C839 1.362 1_565 S
C844 C843 1.415 . S
C845 H821 0.951 . S
C845 C846 1.366 . S
C845 C847 1.388 . S
C846 C845 1.366 . S
C846 C850 1.385 1_545 S
C847 H822 0.951 . S
C847 C845 1.388 . S
C847 C848 1.366 . S
C848 C847 1.366 . S
C848 C849 1.414 . S
C848 C851 1.499 . S
C849 H823 0.950 1_545 S
C849 C848 1.414 . S
C849 C850 1.374 1_545 S
C850 H824 0.950 . S
C850 C846 1.385 1_565 S
C850 C849 1.374 1_565 S
C851 C848 1.499 . S
C851 C852 1.373 . S
C851 C853 1.389 . S
C852 H825 0.950 . S
C852 C838 1.377 . S
C852 C851 1.373 . S
C853 C837 1.377 . S
C853 C851 1.389 . S
C853 C854 1.524 . S
C854 C853 1.524 . S
C854 C855 1.397 . S
C854 C859 1.363 . S
C855 H826 0.950 . S
C855 C854 1.397 . S
C855 C856 1.334 . S
C856 H827 0.950 . S
C856 C855 1.334 . S
C856 C857 1.287 . S
C857 C856 1.287 . S
C857 C858 1.524 . S
C857 H860 0.999 . S
C858 H828 0.950 . S
C858 C857 1.524 . S
C858 C859 1.415 . S
C859 H829 0.950 . S
C859 C854 1.363 . S
C859 C858 1.415 . S
H860 C857 0.999 . S
H861 C842 0.917 . S
H862 C880 0.951 1_455 S
H863 C882 0.951 . S
H864 C884 0.950 . S
H865 C885 0.950 . S
H866 C887 0.950 . S
H867 C890 0.950 . S
H868 C891 0.950 . S
H869 C893 0.950 . S
H870 C894 0.950 . S
H871 C895 0.951 . S
H872 C897 0.951 . S
H873 C899 0.950 . S
H874 C900 0.950 . S
H875 C902 0.950 . S
H876 C905 0.950 . S
H877 C906 0.950 . S
H878 C908 0.950 . S
H879 C909 0.950 . S
C880 H862 0.951 1_655 S
C880 C881 1.366 . S
C880 C882 1.388 . S
C881 C880 1.366 . S
C881 C885 1.385 . S
C882 H863 0.951 . S
C882 C880 1.388 . S
C882 C883 1.366 . S
C883 C882 1.366 . S
C883 C884 1.414 . S
C883 C886 1.499 . S
C884 H864 0.950 . S
C884 C883 1.414 . S
C884 C885 1.374 . S
C885 H865 0.950 . S
C885 C881 1.385 . S
C885 C884 1.374 . S
C886 C883 1.499 . S
C886 C887 1.373 . S
C886 C888 1.389 . S
C887 H866 0.950 . S
C887 C886 1.373 . S
C887 C903 1.377 . S
C888 C886 1.389 . S
C888 C889 1.524 . S
C888 C902 1.377 . S
C889 C888 1.524 . S
C889 C890 1.397 . S
C889 C894 1.363 . S
C890 H867 0.950 . S
C890 C889 1.397 . S
C890 C891 1.334 . S
C891 H868 0.950 . S
C891 C890 1.334 . S
C891 C892 1.287 . S
C892 C891 1.287 . S
C892 C893 1.524 . S
C892 H911 0.913 . S
C893 H869 0.950 . S
C893 C892 1.524 . S
C893 C894 1.415 . S
C894 H870 0.950 . S
C894 C889 1.363 . S
C894 C893 1.415 . S
C895 H871 0.951 . S
C895 C896 1.366 . S
C895 C897 1.388 . S
C896 C895 1.366 . S
C896 C900 1.385 . S
C897 H872 0.951 . S
C897 C895 1.388 . S
C897 C898 1.366 . S
C898 C897 1.366 . S
C898 C899 1.414 . S
C898 C901 1.499 . S
C899 H873 0.950 . S
C899 C898 1.414 . S
C899 C900 1.374 . S
C900 H874 0.950 . S
C900 C896 1.385 . S
C900 C899 1.374 . S
C901 C898 1.499 . S
C901 C902 1.373 . S
C901 C903 1.389 . S
C902 H875 0.950 . S
C902 C888 1.377 . S
C902 C901 1.373 . S
C903 C887 1.377 . S
C903 C901 1.389 . S
C903 C904 1.524 . S
C904 C903 1.524 . S
C904 C905 1.397 . S
C904 C909 1.363 . S
C905 H876 0.950 . S
C905 C904 1.397 . S
C905 C906 1.334 . S
C906 H877 0.950 . S
C906 C905 1.334 . S
C906 C907 1.287 . S
C907 C906 1.287 . S
C907 C908 1.524 . S
C907 H910 0.999 . S
C908 H878 0.950 . S
C908 C907 1.524 . S
C908 C909 1.415 . S
C909 H879 0.950 . S
C909 C904 1.363 . S
C909 C908 1.415 . S
H910 C907 0.999 . S
H911 C892 0.913 . S
H912 C930 0.951 . S
H913 C932 0.951 . S
H914 C934 0.950 . S
H915 C935 0.950 . S
H916 C937 0.950 . S
H917 C940 0.950 . S
H918 C941 0.950 . S
H919 C943 0.950 . S
H920 C944 0.950 . S
H921 C945 0.951 . S
H922 C947 0.951 . S
H923 C949 0.950 . S
H924 C950 0.950 . S
H925 C952 0.950 . S
H926 C955 0.950 . S
H927 C956 0.950 . S
H928 C958 0.950 . S
H929 C959 0.950 . S
C930 H912 0.951 . S
C930 C931 1.366 . S
C930 C932 1.388 . S
C931 C930 1.366 . S
C931 C935 1.385 . S
C932 H913 0.951 . S
C932 C930 1.388 . S
C932 C933 1.366 . S
C933 C932 1.366 . S
C933 C934 1.414 . S
C933 C936 1.499 . S
C934 H914 0.950 . S
C934 C933 1.414 . S
C934 C935 1.374 . S
C935 H915 0.950 . S
C935 C931 1.385 . S
C935 C934 1.374 . S
C936 C933 1.499 . S
C936 C937 1.373 . S
C936 C938 1.389 . S
C937 H916 0.950 . S
C937 C936 1.373 . S
C937 C953 1.377 . S
C938 C936 1.389 . S
C938 C939 1.524 . S
C938 C952 1.377 . S
C939 C938 1.524 . S
C939 C940 1.397 . S
C939 C944 1.363 . S
C940 H917 0.950 . S
C940 C939 1.397 . S
C940 C941 1.334 . S
C941 H918 0.950 . S
C941 C940 1.334 . S
C941 C942 1.287 . S
C942 C941 1.287 . S
C942 C943 1.524 . S
C942 H961 0.913 . S
C943 H919 0.950 . S
C943 C942 1.524 . S
C943 C944 1.415 . S
C944 H920 0.950 . S
C944 C939 1.363 . S
C944 C943 1.415 . S
C945 H921 0.951 . S
C945 C946 1.366 . S
C945 C947 1.388 . S
C946 C945 1.366 . S
C946 C950 1.385 . S
C947 H922 0.951 . S
C947 C945 1.388 . S
C947 C948 1.366 . S
C948 C947 1.366 . S
C948 C949 1.414 . S
C948 C951 1.499 . S
C949 H923 0.950 . S
C949 C948 1.414 . S
C949 C950 1.374 . S
C950 H924 0.950 . S
C950 C946 1.385 . S
C950 C949 1.374 . S
C951 C948 1.499 . S
C951 C952 1.373 . S
C951 C953 1.389 . S
C952 H925 0.950 . S
C952 C938 1.377 . S
C952 C951 1.373 . S
C953 C937 1.377 . S
C953 C951 1.389 . S
C953 C954 1.524 . S
C954 C953 1.524 . S
C954 C955 1.397 . S
C954 C959 1.363 . S
C955 H926 0.950 . S
C955 C954 1.397 . S
C955 C956 1.334 . S
C956 H927 0.950 . S
C956 C955 1.334 . S
C956 C957 1.287 . S
C957 C956 1.287 . S
C957 C958 1.524 . S
C957 H960 0.999 . S
C958 H928 0.950 . S
C958 C957 1.524 . S
C958 C959 1.415 . S
C959 H929 0.950 . S
C959 C954 1.363 . S
C959 C958 1.415 . S
H960 C957 0.999 . S
H961 C942 0.913 . S
H962 C980 0.951 . S
H963 C982 0.951 . S
H964 C984 0.966 . S
H965 C985 0.950 . S
H966 C987 0.950 . S
H967 C990 0.950 . S
H968 C991 0.950 . S
H969 C993 0.950 . S
H970 C994 0.950 . S
H971 C995 0.951 . S
H972 C997 0.951 . S
H973 C999 0.950 . S
H974 C1000 0.950 . S
H975 C1002 0.950 1_565 S
H976 C1005 0.950 . S
H977 C1006 0.950 . S
H978 C1008 0.950 . S
H979 C1009 0.950 . S
C980 H962 0.951 . S
C980 C981 1.366 . S
C980 C982 1.388 . S
C981 C980 1.366 . S
C981 C985 1.385 . S
C982 H963 0.951 . S
C982 C980 1.388 . S
C982 C983 1.366 . S
C983 C982 1.366 . S
C983 C984 1.420 1_565 S
C983 C986 1.499 1_565 S
C984 H964 0.966 . S
C984 C983 1.420 1_545 S
C984 C985 1.353 1_545 S
C985 H965 0.950 . S
C985 C981 1.385 . S
C985 C984 1.353 1_565 S
C986 C983 1.499 1_545 S
C986 C987 1.373 . S
C986 C988 1.389 1_545 S
C987 H966 0.950 . S
C987 C986 1.373 . S
C987 C1003 1.377 . S
C988 C986 1.389 1_565 S
C988 C989 1.524 . S
C988 C1002 1.377 1_565 S
C989 C988 1.524 . S
C989 C990 1.397 . S
C989 C994 1.363 . S
C990 H967 0.950 . S
C990 C989 1.397 . S
C990 C991 1.334 . S
C991 H968 0.950 . S
C991 C990 1.334 . S
C991 C992 1.287 . S
C992 C991 1.287 . S
C992 C993 1.524 . S
C992 H1011 0.913 . S
C993 H969 0.950 . S
C993 C992 1.524 . S
C993 C994 1.415 . S
C994 H970 0.950 . S
C994 C989 1.363 . S
C994 C993 1.415 . S
C995 H971 0.951 . S
C995 C996 1.366 . S
C995 C997 1.388 . S
C996 C995 1.366 . S
C996 C1000 1.385 . S
C997 H972 0.951 . S
C997 C995 1.388 . S
C997 C998 1.366 . S
C998 C997 1.366 . S
C998 C999 1.414 . S
C998 C1001 1.499 . S
C999 H973 0.950 . S
C999 C998 1.414 . S
C999 C1000 1.374 . S
C1000 H974 0.950 . S
C1000 C996 1.385 . S
C1000 C999 1.374 . S
C1001 C998 1.499 . S
C1001 C1002 1.373 . S
C1001 C1003 1.389 . S
C1002 H975 0.950 1_545 S
C1002 C988 1.377 1_545 S
C1002 C1001 1.373 . S
C1003 C987 1.377 . S
C1003 C1001 1.389 . S
C1003 C1004 1.524 . S
C1004 C1003 1.524 . S
C1004 C1005 1.397 . S
C1004 C1009 1.363 . S
C1005 H976 0.950 . S
C1005 C1004 1.397 . S
C1005 C1006 1.334 . S
C1006 H977 0.950 . S
C1006 C1005 1.334 . S
C1006 C1007 1.287 . S
C1007 C1006 1.287 . S
C1007 C1008 1.524 . S
C1007 H1010 0.999 . S
C1008 H978 0.950 . S
C1008 C1007 1.524 . S
C1008 C1009 1.415 . S
C1009 H979 0.950 . S
C1009 C1004 1.363 . S
C1009 C1008 1.415 . S
H1010 C1007 0.999 . S
H1011 C992 0.913 . S
H1012 C1030 0.951 . S
H1013 C1032 0.951 . S
H1014 C1034 0.950 . S
H1015 C1035 0.985 . S
H1016 C1037 0.950 . S
H1017 C1040 0.950 . S
H1018 C1041 0.950 . S
H1019 C1043 0.950 . S
H1020 C1044 0.950 . S
H1021 C1045 0.951 . S
H1022 C1047 0.951 . S
H1023 C1049 0.950 . S
H1024 C1050 0.950 . S
H1025 C1052 0.950 1_455 S
H1026 C1055 0.950 . S
H1027 C1056 0.950 . S
H1028 C1058 0.950 . S
H1029 C1059 0.950 . S
C1030 H1012 0.951 . S
C1030 C1031 1.366 . S
C1030 C1032 1.388 . S
C1031 C1030 1.366 . S
C1031 C1035 1.385 . S
C1032 H1013 0.951 . S
C1032 C1030 1.388 . S
C1032 C1033 1.366 . S
C1033 C1032 1.366 . S
C1033 C1034 1.414 1_455 S
C1033 C1036 1.499 1_455 S
C1034 H1014 0.950 . S
C1034 C1033 1.414 1_655 S
C1034 C1035 1.374 1_655 S
C1035 H1015 0.985 . S
C1035 C1031 1.385 . S
C1035 C1034 1.374 1_455 S
C1036 C1033 1.499 1_655 S
C1036 C1037 1.373 . S
C1036 C1038 1.389 1_655 S
C1037 H1016 0.950 . S
C1037 C1036 1.373 . S
C1037 C1053 1.377 . S
C1038 C1036 1.389 1_455 S
C1038 C1039 1.524 . S
C1038 C1052 1.377 1_455 S
C1039 C1038 1.524 . S
C1039 C1040 1.397 . S
C1039 C1044 1.363 . S
C1040 H1017 0.950 . S
C1040 C1039 1.397 . S
C1040 C1041 1.334 . S
C1041 H1018 0.950 . S
C1041 C1040 1.334 . S
C1041 C1042 1.287 . S
C1042 C1041 1.287 . S
C1042 C1043 1.524 . S
C1042 H1061 0.913 . S
C1043 H1019 0.950 . S
C1043 C1042 1.524 . S
C1043 C1044 1.415 . S
C1044 H1020 0.950 . S
C1044 C1039 1.363 . S
C1044 C1043 1.415 . S
C1045 H1021 0.951 . S
C1045 C1046 1.366 . S
C1045 C1047 1.388 . S
C1046 C1045 1.366 . S
C1046 C1050 1.385 . S
C1047 H1022 0.951 . S
C1047 C1045 1.388 . S
C1047 C1048 1.366 . S
C1048 C1047 1.366 . S
C1048 C1049 1.414 . S
C1048 C1051 1.499 . S
C1049 H1023 0.950 . S
C1049 C1048 1.414 . S
C1049 C1050 1.374 . S
C1050 H1024 0.950 . S
C1050 C1046 1.385 . S
C1050 C1049 1.374 . S
C1051 C1048 1.499 . S
C1051 C1052 1.373 . S
C1051 C1053 1.389 . S
C1052 H1025 0.950 1_655 S
C1052 C1038 1.377 1_655 S
C1052 C1051 1.373 . S
C1053 C1037 1.377 . S
C1053 C1051 1.389 . S
C1053 C1054 1.524 . S
C1054 C1053 1.524 . S
C1054 C1055 1.397 . S
C1054 C1059 1.363 . S
C1055 H1026 0.950 . S
C1055 C1054 1.397 . S
C1055 C1056 1.334 . S
C1056 H1027 0.950 . S
C1056 C1055 1.334 . S
C1056 C1057 1.287 . S
C1057 C1056 1.287 . S
C1057 C1058 1.524 . S
C1057 H1060 0.999 . S
C1058 H1028 0.950 . S
C1058 C1057 1.524 . S
C1058 C1059 1.415 . S
C1059 H1029 0.950 . S
C1059 C1054 1.363 . S
C1059 C1058 1.415 . S
H1060 C1057 0.999 . S
H1061 C1042 0.913 . S
H1062 C1080 0.951 . S
H1063 C1082 0.951 . S
H1064 C1084 0.950 . S
H1065 C1085 0.950 . S
H1066 C1087 0.950 . S
H1067 C1090 0.950 . S
H1068 C1091 0.950 . S
H1069 C1093 0.950 . S
H1070 C1094 0.950 . S
H1071 C1095 0.951 . S
H1072 C1097 0.951 . S
H1073 C1099 0.950 . S
H1074 C1100 0.950 . S
H1075 C1102 0.950 . S
H1076 C1105 0.950 . S
H1077 C1106 0.950 . S
H1078 C1108 0.950 . S
H1079 C1109 0.950 . S
C1080 H1062 0.951 . S
C1080 C1081 1.366 . S
C1080 C1082 1.388 . S
C1081 C1080 1.366 . S
C1081 C1085 1.385 . S
C1082 H1063 0.951 . S
C1082 C1080 1.388 . S
C1082 C1083 1.366 . S
C1083 C1082 1.366 . S
C1083 C1084 1.414 . S
C1083 C1086 1.499 . S
C1084 H1064 0.950 . S
C1084 C1083 1.414 . S
C1084 C1085 1.374 . S
C1085 H1065 0.950 . S
C1085 C1081 1.385 . S
C1085 C1084 1.374 . S
C1086 C1083 1.499 . S
C1086 C1087 1.373 . S
C1086 C1088 1.389 . S
C1087 H1066 0.950 . S
C1087 C1086 1.373 . S
C1087 C1103 1.377 . S
C1088 C1086 1.389 . S
C1088 C1089 1.524 . S
C1088 C1102 1.377 . S
C1089 C1088 1.524 . S
C1089 C1090 1.397 . S
C1089 C1094 1.363 . S
C1090 H1067 0.950 . S
C1090 C1089 1.397 . S
C1090 C1091 1.334 . S
C1091 H1068 0.950 . S
C1091 C1090 1.334 . S
C1091 C1092 1.287 . S
C1092 C1091 1.287 . S
C1092 C1093 1.524 . S
C1092 H1111 0.913 . S
C1093 H1069 0.950 . S
C1093 C1092 1.524 . S
C1093 C1094 1.415 . S
C1094 H1070 0.950 . S
C1094 C1089 1.363 . S
C1094 C1093 1.415 . S
C1095 H1071 0.951 . S
C1095 C1096 1.366 . S
C1095 C1097 1.388 . S
C1096 C1095 1.366 . S
C1096 C1100 1.385 . S
C1097 H1072 0.951 . S
C1097 C1095 1.388 . S
C1097 C1098 1.366 . S
C1098 C1097 1.366 . S
C1098 C1099 1.414 . S
C1098 C1101 1.499 . S
C1099 H1073 0.950 . S
C1099 C1098 1.414 . S
C1099 C1100 1.374 . S
C1100 H1074 0.950 . S
C1100 C1096 1.385 . S
C1100 C1099 1.374 . S
C1101 C1098 1.499 . S
C1101 C1102 1.373 . S
C1101 C1103 1.389 . S
C1102 H1075 0.950 . S
C1102 C1088 1.377 . S
C1102 C1101 1.373 . S
C1103 C1087 1.377 . S
C1103 C1101 1.389 . S
C1103 C1104 1.524 . S
C1104 C1103 1.524 . S
C1104 C1105 1.397 . S
C1104 C1109 1.363 . S
C1105 H1076 0.950 . S
C1105 C1104 1.397 . S
C1105 C1106 1.334 . S
C1106 H1077 0.950 . S
C1106 C1105 1.334 . S
C1106 C1107 1.287 . S
C1107 C1106 1.287 . S
C1107 C1108 1.524 . S
C1107 H1110 0.999 . S
C1108 H1078 0.950 . S
C1108 C1107 1.524 . S
C1108 C1109 1.415 . S
C1109 H1079 0.950 . S
C1109 C1104 1.363 . S
C1109 C1108 1.415 . S
H1110 C1107 0.999 . S
H1111 C1092 0.913 . S
H1112 C1130 0.951 . S
H1113 C1132 0.951 . S
H1114 C1134 0.950 . S
H1115 C1135 0.950 . S
H1116 C1137 0.950 1_545 S
H1117 C1140 0.950 . S
H1118 C1141 0.950 . S
H1119 C1143 0.950 . S
H1120 C1144 0.950 . S
H1121 C1145 0.951 . S
H1122 C1147 0.951 . S
H1123 C1149 0.950 1_565 S
H1124 C1150 0.950 . S
H1125 C1152 0.950 . S
H1126 C1155 0.950 . S
H1127 C1156 0.950 . S
H1128 C1158 0.950 . S
H1129 C1159 0.950 . S
C1130 H1112 0.951 . S
C1130 C1131 1.366 . S
C1130 C1132 1.388 . S
C1131 C1130 1.366 . S
C1131 C1135 1.385 . S
C1132 H1113 0.951 . S
C1132 C1130 1.388 . S
C1132 C1133 1.366 . S
C1133 C1132 1.366 . S
C1133 C1134 1.414 . S
C1133 C1136 1.499 . S
C1134 H1114 0.950 . S
C1134 C1133 1.414 . S
C1134 C1135 1.374 . S
C1135 H1115 0.950 . S
C1135 C1131 1.385 . S
C1135 C1134 1.374 . S
C1136 C1133 1.499 . S
C1136 C1137 1.373 . S
C1136 C1138 1.389 . S
C1137 H1116 0.950 1_565 S
C1137 C1136 1.373 . S
C1137 C1153 1.377 1_565 S
C1138 C1136 1.389 . S
C1138 C1139 1.524 . S
C1138 C1152 1.377 . S
C1139 C1138 1.524 . S
C1139 C1140 1.397 . S
C1139 C1144 1.363 . S
C1140 H1117 0.950 . S
C1140 C1139 1.397 . S
C1140 C1141 1.334 . S
C1141 H1118 0.950 . S
C1141 C1140 1.334 . S
C1141 C1142 1.287 . S
C1142 C1141 1.287 . S
C1142 C1143 1.524 . S
C1142 H1161 0.913 . S
C1143 H1119 0.950 . S
C1143 C1142 1.524 . S
C1143 C1144 1.415 . S
C1144 H1120 0.950 . S
C1144 C1139 1.363 . S
C1144 C1143 1.415 . S
C1145 H1121 0.951 . S
C1145 C1146 1.366 . S
C1145 C1147 1.388 . S
C1146 C1145 1.366 . S
C1146 C1150 1.385 . S
C1147 H1122 0.951 . S
C1147 C1145 1.388 . S
C1147 C1148 1.366 . S
C1148 C1147 1.366 . S
C1148 C1149 1.414 . S
C1148 C1151 1.499 1_545 S
C1149 H1123 0.950 1_545 S
C1149 C1148 1.414 . S
C1149 C1150 1.374 . S
C1150 H1124 0.950 . S
C1150 C1146 1.385 . S
C1150 C1149 1.374 . S
C1151 C1148 1.499 1_565 S
C1151 C1152 1.373 . S
C1151 C1153 1.389 1_565 S
C1152 H1125 0.950 . S
C1152 C1138 1.377 . S
C1152 C1151 1.373 . S
C1153 C1137 1.377 1_545 S
C1153 C1151 1.389 1_545 S
C1153 C1154 1.524 . S
C1154 C1153 1.524 . S
C1154 C1155 1.397 . S
C1154 C1159 1.363 . S
C1155 H1126 0.950 . S
C1155 C1154 1.397 . S
C1155 C1156 1.334 . S
C1156 H1127 0.950 . S
C1156 C1155 1.334 . S
C1156 C1157 1.287 . S
C1157 C1156 1.287 . S
C1157 C1158 1.524 . S
C1157 H1160 0.999 . S
C1158 H1128 0.950 . S
C1158 C1157 1.524 . S
C1158 C1159 1.415 . S
C1159 H1129 0.950 . S
C1159 C1154 1.363 . S
C1159 C1158 1.415 . S
H1160 C1157 0.999 . S
H1161 C1142 0.913 . S
H1162 C1180 0.951 . S
H1163 C1182 0.951 . S
H1164 C1184 0.950 . S
H1165 C1185 0.950 . S
H1166 C1187 0.950 . S
H1167 C1190 0.950 . S
H1168 C1191 0.950 . S
H1169 C1193 0.950 . S
H1170 C1194 0.950 . S
H1171 C1195 0.951 . S
H1172 C1197 0.951 1_455 S
H1173 C1199 0.950 . S
H1174 C1200 0.950 . S
H1175 C1202 0.950 . S
H1176 C1205 0.950 . S
H1177 C1206 0.950 . S
H1178 C1208 0.950 . S
H1179 C1209 0.927 1_455 S
C1180 H1162 0.951 . S
C1180 C1181 1.366 . S
C1180 C1182 1.388 . S
C1181 C1180 1.366 . S
C1181 C1185 1.385 . S
C1182 H1163 0.951 . S
C1182 C1180 1.388 . S
C1182 C1183 1.366 . S
C1183 C1182 1.366 . S
C1183 C1184 1.414 . S
C1183 C1186 1.499 . S
C1184 H1164 0.950 . S
C1184 C1183 1.414 . S
C1184 C1185 1.374 . S
C1185 H1165 0.950 . S
C1185 C1181 1.385 . S
C1185 C1184 1.374 . S
C1186 C1183 1.499 . S
C1186 C1187 1.373 . S
C1186 C1188 1.389 . S
C1187 H1166 0.950 . S
C1187 C1186 1.373 . S
C1187 C1203 1.377 . S
C1188 C1186 1.389 . S
C1188 C1189 1.524 . S
C1188 C1202 1.377 . S
C1189 C1188 1.524 . S
C1189 C1190 1.397 . S
C1189 C1194 1.363 . S
C1190 H1167 0.950 . S
C1190 C1189 1.397 . S
C1190 C1191 1.334 . S
C1191 H1168 0.950 . S
C1191 C1190 1.334 . S
C1191 C1192 1.287 . S
C1192 C1191 1.287 . S
C1192 C1193 1.524 . S
C1192 H1211 0.913 . S
C1193 H1169 0.950 . S
C1193 C1192 1.524 . S
C1193 C1194 1.415 . S
C1194 H1170 0.950 . S
C1194 C1189 1.363 . S
C1194 C1193 1.415 . S
C1195 H1171 0.951 . S
C1195 C1196 1.366 . S
C1195 C1197 1.388 . S
C1196 C1195 1.366 . S
C1196 C1200 1.385 . S
C1197 H1172 0.951 1_655 S
C1197 C1195 1.388 . S
C1197 C1198 1.366 . S
C1198 C1197 1.366 . S
C1198 C1199 1.414 . S
C1198 C1201 1.499 1_655 S
C1199 H1173 0.950 . S
C1199 C1198 1.414 . S
C1199 C1200 1.374 . S
C1200 H1174 0.950 . S
C1200 C1196 1.385 . S
C1200 C1199 1.374 . S
C1201 C1198 1.499 1_455 S
C1201 C1202 1.373 . S
C1201 C1203 1.389 . S
C1202 H1175 0.950 . S
C1202 C1188 1.377 . S
C1202 C1201 1.373 . S
C1203 C1187 1.377 . S
C1203 C1201 1.389 . S
C1203 C1204 1.524 1_455 S
C1204 C1203 1.524 1_655 S
C1204 C1205 1.397 . S
C1204 C1209 1.366 . S
C1205 H1176 0.950 . S
C1205 C1204 1.397 . S
C1205 C1206 1.334 . S
C1206 H1177 0.950 . S
C1206 C1205 1.334 . S
C1206 C1207 1.287 . S
C1207 C1206 1.287 . S
C1207 C1208 1.524 . S
C1207 H1210 0.999 . S
C1208 H1178 0.950 . S
C1208 C1207 1.524 . S
C1208 C1209 1.435 . S
C1209 H1179 0.927 1_655 S
C1209 C1204 1.366 . S
C1209 C1208 1.435 . S
H1210 C1207 0.999 . S
H1211 C1192 0.913 . S
H1212 C1230 0.951 . S
H1213 C1232 0.951 . S
H1214 C1234 0.950 . S
H1215 C1235 0.950 . S
H1216 C1237 0.950 . S
H1217 C1240 0.950 . S
H1218 C1241 0.950 . S
H1219 C1243 0.950 . S
H1220 C1244 0.950 . S
H1221 C1245 0.951 . S
H1222 C1247 0.951 . S
H1223 C1249 0.950 . S
H1224 C1250 0.950 . S
H1225 C1252 0.950 . S
H1226 C1255 0.950 . S
H1227 C1256 0.950 . S
H1228 C1258 0.950 . S
H1229 C1259 0.950 . S
C1230 H1212 0.951 . S
C1230 C1231 1.366 . S
C1230 C1232 1.388 . S
C1231 C1230 1.366 . S
C1231 C1235 1.385 . S
C1232 H1213 0.951 . S
C1232 C1230 1.388 . S
C1232 C1233 1.366 . S
C1233 C1232 1.366 . S
C1233 C1234 1.414 . S
C1233 C1236 1.499 . S
C1234 H1214 0.950 . S
C1234 C1233 1.414 . S
C1234 C1235 1.374 . S
C1235 H1215 0.950 . S
C1235 C1231 1.385 . S
C1235 C1234 1.374 . S
C1236 C1233 1.499 . S
C1236 C1237 1.373 . S
C1236 C1238 1.389 . S
C1237 H1216 0.950 . S
C1237 C1236 1.373 . S
C1237 C1253 1.377 1_455 S
C1238 C1236 1.389 . S
C1238 C1239 1.524 . S
C1238 C1252 1.377 1_455 S
C1239 C1238 1.524 . S
C1239 C1240 1.397 . S
C1239 C1244 1.363 . S
C1240 H1217 0.950 . S
C1240 C1239 1.397 . S
C1240 C1241 1.334 . S
C1241 H1218 0.950 . S
C1241 C1240 1.334 . S
C1241 C1242 1.287 . S
C1242 C1241 1.287 . S
C1242 C1243 1.524 . S
C1242 H1261 0.913 . S
C1243 H1219 0.950 . S
C1243 C1242 1.524 . S
C1243 C1244 1.415 . S
C1244 H1220 0.950 . S
C1244 C1239 1.363 . S
C1244 C1243 1.415 . S
C1245 H1221 0.951 . S
C1245 C1246 1.366 . S
C1245 C1247 1.388 . S
C1246 C1245 1.366 . S
C1246 C1250 1.385 . S
C1247 H1222 0.951 . S
C1247 C1245 1.388 . S
C1247 C1248 1.366 . S
C1248 C1247 1.366 . S
C1248 C1249 1.414 . S
C1248 C1251 1.499 . S
C1249 H1223 0.950 . S
C1249 C1248 1.414 . S
C1249 C1250 1.374 . S
C1250 H1224 0.950 . S
C1250 C1246 1.385 . S
C1250 C1249 1.374 . S
C1251 C1248 1.499 . S
C1251 C1252 1.373 . S
C1251 C1253 1.389 . S
C1252 H1225 0.950 . S
C1252 C1238 1.377 1_655 S
C1252 C1251 1.373 . S
C1253 C1237 1.377 1_655 S
C1253 C1251 1.389 . S
C1253 C1254 1.524 . S
C1254 C1253 1.524 . S
C1254 C1255 1.397 . S
C1254 C1259 1.363 . S
C1255 H1226 0.950 . S
C1255 C1254 1.397 . S
C1255 C1256 1.334 . S
C1256 H1227 0.950 . S
C1256 C1255 1.334 . S
C1256 C1257 1.287 . S
C1257 C1256 1.287 . S
C1257 C1258 1.524 . S
C1257 H1260 0.999 . S
C1258 H1228 0.950 . S
C1258 C1257 1.524 . S
C1258 C1259 1.415 . S
C1259 H1229 0.950 . S
C1259 C1254 1.363 . S
C1259 C1258 1.415 . S
H1260 C1257 0.999 . S
H1261 C1242 0.913 . S
H1262 C1280 0.951 . S
H1263 C1282 0.951 . S
H1264 C1284 0.950 . S
H1265 C1285 0.950 . S
H1266 C1287 0.950 . S
H1267 C1290 0.950 . S
H1268 C1291 0.950 . S
H1269 C1293 0.950 . S
H1270 C1294 0.950 . S
H1271 C1295 0.951 . S
H1272 C1297 0.951 . S
H1273 C1299 0.950 . S
H1274 C1300 0.950 . S
H1275 C1302 0.950 . S
H1276 C1305 0.950 . S
H1277 C1306 0.950 . S
H1278 C1308 0.950 . S
H1279 C1309 0.950 . S
C1280 H1262 0.951 . S
C1280 C1281 1.366 . S
C1280 C1282 1.388 . S
C1281 C1280 1.366 . S
C1281 C1285 1.385 . S
C1282 H1263 0.951 . S
C1282 C1280 1.388 . S
C1282 C1283 1.366 . S
C1283 C1282 1.366 . S
C1283 C1284 1.414 . S
C1283 C1286 1.499 . S
C1284 H1264 0.950 . S
C1284 C1283 1.414 . S
C1284 C1285 1.374 . S
C1285 H1265 0.950 . S
C1285 C1281 1.385 . S
C1285 C1284 1.374 . S
C1286 C1283 1.499 . S
C1286 C1287 1.373 . S
C1286 C1288 1.389 . S
C1287 H1266 0.950 . S
C1287 C1286 1.373 . S
C1287 C1303 1.377 . S
C1288 C1286 1.389 . S
C1288 C1289 1.524 . S
C1288 C1302 1.377 . S
C1289 C1288 1.524 . S
C1289 C1290 1.397 . S
C1289 C1294 1.363 . S
C1290 H1267 0.950 . S
C1290 C1289 1.397 . S
C1290 C1291 1.334 . S
C1291 H1268 0.950 . S
C1291 C1290 1.334 . S
C1291 C1292 1.287 . S
C1292 C1291 1.287 . S
C1292 C1293 1.524 . S
C1292 H1311 0.913 . S
C1293 H1269 0.950 . S
C1293 C1292 1.524 . S
C1293 C1294 1.415 . S
C1294 H1270 0.950 . S
C1294 C1289 1.363 . S
C1294 C1293 1.415 . S
C1295 H1271 0.951 . S
C1295 C1296 1.366 . S
C1295 C1297 1.388 . S
C1296 C1295 1.366 . S
C1296 C1300 1.385 . S
C1297 H1272 0.951 . S
C1297 C1295 1.388 . S
C1297 C1298 1.366 . S
C1298 C1297 1.366 . S
C1298 C1299 1.414 . S
C1298 C1301 1.499 . S
C1299 H1273 0.950 . S
C1299 C1298 1.414 . S
C1299 C1300 1.374 . S
C1300 H1274 0.950 . S
C1300 C1296 1.385 . S
C1300 C1299 1.374 . S
C1301 C1298 1.499 . S
C1301 C1302 1.373 . S
C1301 C1303 1.389 . S
C1302 H1275 0.950 . S
C1302 C1288 1.377 . S
C1302 C1301 1.373 . S
C1303 C1287 1.377 . S
C1303 C1301 1.389 . S
C1303 C1304 1.524 . S
C1304 C1303 1.524 . S
C1304 C1305 1.397 . S
C1304 C1309 1.363 . S
C1305 H1276 0.950 . S
C1305 C1304 1.397 . S
C1305 C1306 1.334 . S
C1306 H1277 0.950 . S
C1306 C1305 1.334 . S
C1306 C1307 1.287 . S
C1307 C1306 1.287 . S
C1307 C1308 1.524 . S
C1307 H1310 0.999 . S
C1308 H1278 0.950 . S
C1308 C1307 1.524 . S
C1308 C1309 1.415 . S
C1309 H1279 0.950 . S
C1309 C1304 1.363 . S
C1309 C1308 1.415 . S
H1310 C1307 0.999 . S
H1311 C1292 0.913 . S
H1312 C1330 0.951 . S
H1313 C1332 0.951 . S
H1314 C1334 0.950 . S
H1315 C1335 0.950 . S
H1316 C1337 0.950 . S
H1317 C1340 0.950 . S
H1318 C1341 0.950 . S
H1319 C1343 0.950 1_545 S
H1320 C1344 0.950 . S
H1321 C1345 0.951 . S
H1322 C1347 0.951 . S
H1323 C1349 0.950 . S
H1324 C1350 0.950 . S
H1325 C1352 0.950 . S
H1326 C1355 0.950 . S
H1327 C1356 0.950 . S
H1328 C1358 0.950 1_565 S
H1329 C1359 0.950 . S
C1330 H1312 0.951 . S
C1330 C1331 1.366 . S
C1330 C1332 1.388 . S
C1331 C1330 1.366 . S
C1331 C1335 1.385 . S
C1332 H1313 0.951 . S
C1332 C1330 1.388 . S
C1332 C1333 1.366 . S
C1333 C1332 1.366 . S
C1333 C1334 1.414 . S
C1333 C1336 1.499 . S
C1334 H1314 0.950 . S
C1334 C1333 1.414 . S
C1334 C1335 1.374 . S
C1335 H1315 0.950 . S
C1335 C1331 1.385 . S
C1335 C1334 1.374 . S
C1336 C1333 1.499 . S
C1336 C1337 1.373 . S
C1336 C1338 1.389 . S
C1337 H1316 0.950 . S
C1337 C1336 1.373 . S
C1337 C1353 1.377 1_565 S
C1338 C1336 1.389 . S
C1338 C1339 1.524 . S
C1338 C1352 1.377 1_565 S
C1339 C1338 1.524 . S
C1339 C1340 1.397 . S
C1339 C1344 1.363 1_565 S
C1340 H1317 0.950 . S
C1340 C1339 1.397 . S
C1340 C1341 1.334 . S
C1341 H1318 0.950 . S
C1341 C1340 1.334 . S
C1341 C1342 1.287 . S
C1342 C1341 1.287 . S
C1342 C1343 1.524 . S
C1342 H1361 0.913 . S
C1343 H1319 0.950 1_565 S
C1343 C1342 1.524 . S
C1343 C1344 1.415 1_565 S
C1344 H1320 0.950 . S
C1344 C1339 1.363 1_545 S
C1344 C1343 1.415 1_545 S
C1345 H1321 0.951 . S
C1345 C1346 1.366 . S
C1345 C1347 1.388 . S
C1346 C1345 1.366 . S
C1346 C1350 1.385 . S
C1347 H1322 0.951 . S
C1347 C1345 1.388 . S
C1347 C1348 1.366 . S
C1348 C1347 1.366 . S
C1348 C1349 1.414 . S
C1348 C1351 1.499 . S
C1349 H1323 0.950 . S
C1349 C1348 1.414 . S
C1349 C1350 1.374 . S
C1350 H1324 0.950 . S
C1350 C1346 1.385 . S
C1350 C1349 1.374 . S
C1351 C1348 1.499 . S
C1351 C1352 1.373 . S
C1351 C1353 1.389 . S
C1352 H1325 0.950 . S
C1352 C1338 1.377 1_545 S
C1352 C1351 1.373 . S
C1353 C1337 1.377 1_545 S
C1353 C1351 1.389 . S
C1353 C1354 1.524 . S
C1354 C1353 1.524 . S
C1354 C1355 1.397 . S
C1354 C1359 1.363 1_545 S
C1355 H1326 0.950 . S
C1355 C1354 1.397 . S
C1355 C1356 1.334 . S
C1356 H1327 0.950 . S
C1356 C1355 1.334 . S
C1356 C1357 1.287 . S
C1357 C1356 1.287 . S
C1357 C1358 1.524 . S
C1357 H1360 0.999 . S
C1358 H1328 0.950 1_545 S
C1358 C1357 1.524 . S
C1358 C1359 1.415 1_545 S
C1359 H1329 0.950 . S
C1359 C1354 1.363 1_565 S
C1359 C1358 1.415 1_565 S
H1360 C1357 0.999 . S
H1361 C1342 0.913 . S
H1362 C1380 0.951 . S
H1363 C1382 0.951 . S
H1364 C1384 0.950 . S
H1365 C1385 0.950 . S
H1366 C1387 0.950 . S
H1367 C1390 0.950 . S
H1368 C1391 0.950 . S
H1369 C1393 0.950 . S
H1370 C1394 0.950 . S
H1371 C1395 0.951 . S
H1372 C1397 0.951 . S
H1373 C1399 0.950 . S
H1374 C1400 0.950 . S
H1375 C1402 0.950 . S
H1376 C1405 0.950 . S
H1377 C1406 0.950 . S
H1378 C1408 0.950 . S
H1379 C1409 0.950 . S
C1380 H1362 0.951 . S
C1380 C1381 1.366 . S
C1380 C1382 1.388 . S
C1381 C1380 1.366 . S
C1381 C1385 1.385 . S
C1382 H1363 0.951 . S
C1382 C1380 1.388 . S
C1382 C1383 1.366 . S
C1383 C1382 1.366 . S
C1383 C1384 1.414 . S
C1383 C1386 1.499 . S
C1384 H1364 0.950 . S
C1384 C1383 1.414 . S
C1384 C1385 1.374 . S
C1385 H1365 0.950 . S
C1385 C1381 1.385 . S
C1385 C1384 1.374 . S
C1386 C1383 1.499 . S
C1386 C1387 1.375 1_545 S
C1386 C1388 1.389 . S
C1387 H1366 0.950 . S
C1387 C1386 1.375 1_565 S
C1387 C1403 1.375 . S
C1388 C1386 1.389 . S
C1388 C1389 1.524 . S
C1388 C1402 1.377 1_545 S
C1389 C1388 1.524 . S
C1389 C1390 1.397 . S
C1389 C1394 1.363 . S
C1390 H1367 0.950 . S
C1390 C1389 1.397 . S
C1390 C1391 1.334 . S
C1391 H1368 0.950 . S
C1391 C1390 1.334 . S
C1391 C1392 1.287 . S
C1392 C1391 1.287 . S
C1392 C1393 1.524 . S
C1392 H1411 0.913 . S
C1393 H1369 0.950 . S
C1393 C1392 1.524 . S
C1393 C1394 1.415 . S
C1394 H1370 0.950 . S
C1394 C1389 1.363 . S
C1394 C1393 1.415 . S
C1395 H1371 0.951 . S
C1395 C1396 1.366 . S
C1395 C1397 1.388 . S
C1396 C1395 1.366 . S
C1396 C1400 1.385 . S
C1397 H1372 0.951 . S
C1397 C1395 1.388 . S
C1397 C1398 1.366 . S
C1398 C1397 1.366 . S
C1398 C1399 1.414 . S
C1398 C1401 1.499 . S
C1399 H1373 0.950 . S
C1399 C1398 1.414 . S
C1399 C1400 1.374 . S
C1400 H1374 0.950 . S
C1400 C1396 1.385 . S
C1400 C1399 1.374 . S
C1401 C1398 1.499 . S
C1401 C1402 1.373 . S
C1401 C1403 1.389 . S
C1402 H1375 0.950 . S
C1402 C1388 1.377 1_565 S
C1402 C1401 1.373 . S
C1403 C1387 1.375 . S
C1403 C1401 1.389 . S
C1403 C1404 1.524 . S
C1404 C1403 1.524 . S
C1404 C1405 1.397 . S
C1404 C1409 1.363 . S
C1405 H1376 0.950 . S
C1405 C1404 1.397 . S
C1405 C1406 1.334 . S
C1406 H1377 0.950 . S
C1406 C1405 1.334 . S
C1406 C1407 1.287 . S
C1407 C1406 1.287 . S
C1407 C1408 1.524 . S
C1407 H1410 0.999 . S
C1408 H1378 0.950 . S
C1408 C1407 1.524 . S
C1408 C1409 1.415 . S
C1409 H1379 0.950 . S
C1409 C1404 1.363 . S
C1409 C1408 1.415 . S
H1410 C1407 0.999 . S
H1411 C1392 0.913 . S
H1412 C1430 0.951 . S
H1413 C1432 0.951 . S
H1414 C1434 0.950 . S
H1415 C1435 0.950 . S
H1416 C1437 0.950 . S
H1417 C1440 0.950 . S
H1418 C1441 0.950 . S
H1419 C1443 0.950 . S
H1420 C1444 0.950 . S
H1421 C1445 0.951 . S
H1422 C1447 0.951 . S
H1423 C1449 0.950 . S
H1424 C1450 0.950 . S
H1425 C1452 0.950 . S
H1426 C1455 0.950 . S
H1427 C1456 0.950 . S
H1428 C1458 0.950 . S
H1429 C1459 0.950 . S
C1430 H1412 0.951 . S
C1430 C1431 1.366 . S
C1430 C1432 1.388 . S
C1431 C1430 1.366 . S
C1431 C1435 1.385 . S
C1432 H1413 0.951 . S
C1432 C1430 1.388 . S
C1432 C1433 1.366 . S
C1433 C1432 1.366 . S
C1433 C1434 1.414 . S
C1433 C1436 1.499 . S
C1434 H1414 0.950 . S
C1434 C1433 1.414 . S
C1434 C1435 1.374 . S
C1435 H1415 0.950 . S
C1435 C1431 1.385 . S
C1435 C1434 1.374 . S
C1436 C1433 1.499 . S
C1436 C1437 1.367 1_455 S
C1436 C1438 1.389 . S
C1437 H1416 0.950 . S
C1437 C1436 1.367 1_655 S
C1437 C1453 1.382 . S
C1438 C1436 1.389 . S
C1438 C1439 1.524 . S
C1438 C1452 1.343 1_455 S
C1439 C1438 1.524 . S
C1439 C1440 1.397 . S
C1439 C1444 1.363 . S
C1440 H1417 0.950 . S
C1440 C1439 1.397 . S
C1440 C1441 1.334 . S
C1441 H1418 0.950 . S
C1441 C1440 1.334 . S
C1441 C1442 1.287 . S
C1442 C1441 1.287 . S
C1442 C1443 1.524 . S
C1442 H1461 0.913 . S
C1443 H1419 0.950 . S
C1443 C1442 1.524 . S
C1443 C1444 1.415 . S
C1444 H1420 0.950 . S
C1444 C1439 1.363 . S
C1444 C1443 1.415 . S
C1445 H1421 0.951 . S
C1445 C1446 1.366 . S
C1445 C1447 1.388 . S
C1446 C1445 1.366 . S
C1446 C1450 1.385 . S
C1447 H1422 0.951 . S
C1447 C1445 1.388 . S
C1447 C1448 1.366 . S
C1448 C1447 1.366 . S
C1448 C1449 1.414 . S
C1448 C1451 1.499 . S
C1449 H1423 0.950 . S
C1449 C1448 1.414 . S
C1449 C1450 1.374 . S
C1450 H1424 0.950 . S
C1450 C1446 1.385 . S
C1450 C1449 1.374 . S
C1451 C1448 1.499 . S
C1451 C1452 1.408 . S
C1451 C1453 1.389 . S
C1452 H1425 0.950 . S
C1452 C1438 1.343 1_655 S
C1452 C1451 1.408 . S
C1453 C1437 1.382 . S
C1453 C1451 1.389 . S
C1453 C1454 1.524 . S
C1454 C1453 1.524 . S
C1454 C1455 1.397 . S
C1454 C1459 1.363 . S
C1455 H1426 0.950 . S
C1455 C1454 1.397 . S
C1455 C1456 1.334 . S
C1456 H1427 0.950 . S
C1456 C1455 1.334 . S
C1456 C1457 1.287 . S
C1457 C1456 1.287 . S
C1457 C1458 1.524 . S
C1457 H1460 0.999 . S
C1458 H1428 0.950 . S
C1458 C1457 1.524 . S
C1458 C1459 1.415 . S
C1459 H1429 0.950 . S
C1459 C1454 1.363 . S
C1459 C1458 1.415 . S
H1460 C1457 0.999 . S
H1461 C1442 0.913 . S
H1462 C1480 0.951 . S
H1463 C1482 0.951 . S
H1464 C1484 0.950 . S
H1465 C1485 0.950 . S
H1466 C1487 0.950 . S
H1467 C1490 0.950 . S
H1468 C1491 0.950 . S
H1469 C1493 0.950 . S
H1470 C1494 0.950 . S
H1471 C1495 0.951 . S
H1472 C1497 0.951 . S
H1473 C1499 0.950 . S
H1474 C1500 0.950 . S
H1475 C1502 0.950 . S
H1476 C1505 0.950 . S
H1477 C1506 0.950 . S
H1478 C1508 0.950 . S
H1479 C1509 0.950 . S
C1480 H1462 0.951 . S
C1480 C1481 1.366 . S
C1480 C1482 1.388 . S
C1481 C1480 1.366 . S
C1481 C1485 1.385 . S
C1482 H1463 0.951 . S
C1482 C1480 1.388 . S
C1482 C1483 1.366 . S
C1483 C1482 1.366 . S
C1483 C1484 1.414 . S
C1483 C1486 1.499 . S
C1484 H1464 0.950 . S
C1484 C1483 1.414 . S
C1484 C1485 1.374 . S
C1485 H1465 0.950 . S
C1485 C1481 1.385 . S
C1485 C1484 1.374 . S
C1486 C1483 1.499 . S
C1486 C1487 1.373 . S
C1486 C1488 1.389 . S
C1487 H1466 0.950 . S
C1487 C1486 1.373 . S
C1487 C1503 1.377 . S
C1488 C1486 1.389 . S
C1488 C1489 1.524 . S
C1488 C1502 1.377 . S
C1489 C1488 1.524 . S
C1489 C1490 1.397 . S
C1489 C1494 1.363 . S
C1490 H1467 0.950 . S
C1490 C1489 1.397 . S
C1490 C1491 1.334 . S
C1491 H1468 0.950 . S
C1491 C1490 1.334 . S
C1491 C1492 1.287 . S
C1492 C1491 1.287 . S
C1492 C1493 1.524 . S
C1492 H1511 0.913 . S
C1493 H1469 0.950 . S
C1493 C1492 1.524 . S
C1493 C1494 1.415 . S
C1494 H1470 0.950 . S
C1494 C1489 1.363 . S
C1494 C1493 1.415 . S
C1495 H1471 0.951 . S
C1495 C1496 1.366 . S
C1495 C1497 1.388 . S
C1496 C1495 1.366 . S
C1496 C1500 1.385 . S
C1497 H1472 0.951 . S
C1497 C1495 1.388 . S
C1497 C1498 1.366 . S
C1498 C1497 1.366 . S
C1498 C1499 1.414 . S
C1498 C1501 1.499 . S
C1499 H1473 0.950 . S
C1499 C1498 1.414 . S
C1499 C1500 1.374 . S
C1500 H1474 0.950 . S
C1500 C1496 1.385 . S
C1500 C1499 1.374 . S
C1501 C1498 1.499 . S
C1501 C1502 1.373 . S
C1501 C1503 1.389 . S
C1502 H1475 0.950 . S
C1502 C1488 1.377 . S
C1502 C1501 1.373 . S
C1503 C1487 1.377 . S
C1503 C1501 1.389 . S
C1503 C1504 1.524 . S
C1504 C1503 1.524 . S
C1504 C1505 1.397 . S
C1504 C1509 1.363 . S
C1505 H1476 0.950 . S
C1505 C1504 1.397 . S
C1505 C1506 1.334 . S
C1506 H1477 0.950 . S
C1506 C1505 1.334 . S
C1506 C1507 1.287 . S
C1507 C1506 1.287 . S
C1507 C1508 1.524 . S
C1507 H1510 0.999 . S
C1508 H1478 0.950 . S
C1508 C1507 1.524 . S
C1508 C1509 1.415 . S
C1509 H1479 0.950 . S
C1509 C1504 1.363 . S
C1509 C1508 1.415 . S
H1510 C1507 0.999 . S
H1511 C1492 0.913 . S
H1512 C1530 0.951 . S
H1513 C1532 0.951 . S
H1514 C1534 0.950 . S
H1515 C1535 0.950 . S
H1516 C1537 0.950 . S
H1517 C1540 0.950 . S
H1518 C1541 0.950 . S
H1519 C1543 0.950 . S
H1520 C1544 0.950 . S
H1521 C1545 0.951 . S
H1522 C1547 0.951 . S
H1523 C1549 0.950 . S
H1524 C1550 0.950 . S
H1525 C1552 0.950 . S
H1526 C1555 0.950 . S
H1527 C1556 0.950 . S
H1528 C1558 0.950 . S
H1529 C1559 0.950 . S
C1530 H1512 0.951 . S
C1530 C1531 1.366 . S
C1530 C1532 1.388 . S
C1531 C1530 1.366 . S
C1531 C1535 1.385 . S
C1532 H1513 0.951 . S
C1532 C1530 1.388 . S
C1532 C1533 1.366 . S
C1533 C1532 1.366 . S
C1533 C1534 1.414 . S
C1533 C1536 1.499 . S
C1534 H1514 0.950 . S
C1534 C1533 1.414 . S
C1534 C1535 1.374 . S
C1535 H1515 0.950 . S
C1535 C1531 1.385 . S
C1535 C1534 1.374 . S
C1536 C1533 1.499 . S
C1536 C1537 1.373 . S
C1536 C1538 1.389 . S
C1537 H1516 0.950 . S
C1537 C1536 1.373 . S
C1537 C1553 1.377 . S
C1538 C1536 1.389 . S
C1538 C1539 1.524 . S
C1538 C1552 1.377 . S
C1539 C1538 1.524 . S
C1539 C1540 1.397 . S
C1539 C1544 1.363 . S
C1540 H1517 0.950 . S
C1540 C1539 1.397 . S
C1540 C1541 1.334 . S
C1541 H1518 0.950 . S
C1541 C1540 1.334 . S
C1541 C1542 1.287 . S
C1542 C1541 1.287 . S
C1542 C1543 1.524 . S
C1542 H1561 0.913 . S
C1543 H1519 0.950 . S
C1543 C1542 1.524 . S
C1543 C1544 1.415 . S
C1544 H1520 0.950 . S
C1544 C1539 1.363 . S
C1544 C1543 1.415 . S
C1545 H1521 0.951 . S
C1545 C1546 1.366 . S
C1545 C1547 1.388 . S
C1546 C1545 1.366 . S
C1546 C1550 1.385 . S
C1547 H1522 0.951 . S
C1547 C1545 1.388 . S
C1547 C1548 1.366 . S
C1548 C1547 1.366 . S
C1548 C1549 1.414 . S
C1548 C1551 1.499 . S
C1549 H1523 0.950 . S
C1549 C1548 1.414 . S
C1549 C1550 1.374 . S
C1550 H1524 0.950 . S
C1550 C1546 1.385 . S
C1550 C1549 1.374 . S
C1551 C1548 1.499 . S
C1551 C1552 1.373 . S
C1551 C1553 1.389 . S
C1552 H1525 0.950 . S
C1552 C1538 1.377 . S
C1552 C1551 1.373 . S
C1553 C1537 1.377 . S
C1553 C1551 1.389 . S
C1553 C1554 1.524 . S
C1554 C1553 1.524 . S
C1554 C1555 1.397 . S
C1554 C1559 1.363 . S
C1555 H1526 0.950 . S
C1555 C1554 1.397 . S
C1555 C1556 1.334 . S
C1556 H1527 0.950 . S
C1556 C1555 1.334 . S
C1556 C1557 1.287 . S
C1557 C1556 1.287 . S
C1557 C1558 1.524 . S
C1557 H1560 0.999 . S
C1558 H1528 0.950 . S
C1558 C1557 1.524 . S
C1558 C1559 1.415 . S
C1559 H1529 0.950 . S
C1559 C1554 1.363 . S
C1559 C1558 1.415 . S
H1560 C1557 0.999 . S
H1561 C1542 0.913 . S
H1562 C1580 0.951 . S
H1563 C1582 0.951 . S
H1564 C1584 0.950 . S
H1565 C1585 0.950 . S
H1566 C1587 0.950 . S
H1567 C1590 0.950 . S
H1568 C1591 0.950 . S
H1569 C1593 0.950 . S
H1570 C1594 0.950 . S
H1571 C1595 0.951 . S
H1572 C1597 0.951 . S
H1573 C1599 0.950 . S
H1574 C1600 0.950 . S
H1575 C1602 0.950 . S
H1576 C1605 0.950 . S
H1577 C1606 0.950 . S
H1578 C1608 0.950 . S
H1579 C1609 0.950 . S
C1580 H1562 0.951 . S
C1580 C1581 1.366 . S
C1580 C1582 1.388 . S
C1581 C1580 1.366 . S
C1581 C1585 1.385 . S
C1582 H1563 0.951 . S
C1582 C1580 1.388 . S
C1582 C1583 1.366 . S
C1583 C1582 1.366 . S
C1583 C1584 1.414 . S
C1583 C1586 1.499 . S
C1584 H1564 0.950 . S
C1584 C1583 1.414 . S
C1584 C1585 1.374 . S
C1585 H1565 0.950 . S
C1585 C1581 1.385 . S
C1585 C1584 1.374 . S
C1586 C1583 1.499 . S
C1586 C1587 1.373 . S
C1586 C1588 1.389 . S
C1587 H1566 0.950 . S
C1587 C1586 1.373 . S
C1587 C1603 1.377 . S
C1588 C1586 1.389 . S
C1588 C1589 1.524 . S
C1588 C1602 1.377 . S
C1589 C1588 1.524 . S
C1589 C1590 1.397 . S
C1589 C1594 1.363 . S
C1590 H1567 0.950 . S
C1590 C1589 1.397 . S
C1590 C1591 1.334 . S
C1591 H1568 0.950 . S
C1591 C1590 1.334 . S
C1591 C1592 1.287 . S
C1592 C1591 1.287 . S
C1592 C1593 1.524 . S
C1592 H1611 0.913 . S
C1593 H1569 0.950 . S
C1593 C1592 1.524 . S
C1593 C1594 1.415 . S
C1594 H1570 0.950 . S
C1594 C1589 1.363 . S
C1594 C1593 1.415 . S
C1595 H1571 0.951 . S
C1595 C1596 1.366 . S
C1595 C1597 1.388 . S
C1596 C1595 1.366 . S
C1596 C1600 1.385 . S
C1597 H1572 0.951 . S
C1597 C1595 1.388 . S
C1597 C1598 1.366 . S
C1598 C1597 1.366 . S
C1598 C1599 1.414 . S
C1598 C1601 1.499 . S
C1599 H1573 0.950 . S
C1599 C1598 1.414 . S
C1599 C1600 1.374 . S
C1600 H1574 0.950 . S
C1600 C1596 1.385 . S
C1600 C1599 1.374 . S
C1601 C1598 1.499 . S
C1601 C1602 1.373 . S
C1601 C1603 1.389 . S
C1602 H1575 0.950 . S
C1602 C1588 1.377 . S
C1602 C1601 1.373 . S
C1603 C1587 1.377 . S
C1603 C1601 1.389 . S
C1603 C1604 1.524 . S
C1604 C1603 1.524 . S
C1604 C1605 1.397 . S
C1604 C1609 1.363 . S
C1605 H1576 0.950 . S
C1605 C1604 1.397 . S
C1605 C1606 1.334 . S
C1606 H1577 0.950 . S
C1606 C1605 1.334 . S
C1606 C1607 1.287 . S
C1607 C1606 1.287 . S
C1607 C1608 1.524 . S
C1607 H1610 0.999 . S
C1608 H1578 0.950 . S
C1608 C1607 1.524 . S
C1608 C1609 1.415 . S
C1609 H1579 0.950 . S
C1609 C1604 1.363 . S
C1609 C1608 1.415 . S
H1610 C1607 0.999 . S
H1611 C1592 0.913 . S
H1612 C1630 0.951 . S
H1613 C1632 0.951 . S
H1614 C1634 0.950 . S
H1615 C1635 0.950 . S
H1616 C1637 0.950 . S
H1617 C1640 0.950 . S
H1618 C1641 0.950 . S
H1619 C1643 0.950 . S
H1620 C1644 0.950 . S
H1621 C1645 0.951 . S
H1622 C1647 0.951 . S
H1623 C1649 0.950 . S
H1624 C1650 0.950 . S
H1625 C1652 0.950 . S
H1626 C1655 0.950 . S
H1627 C1656 0.950 . S
H1628 C1658 0.950 . S
H1629 C1659 0.950 . S
C1630 H1612 0.951 . S
C1630 C1631 1.366 . S
C1630 C1632 1.388 . S
C1631 C1630 1.366 . S
C1631 C1635 1.385 . S
C1632 H1613 0.951 . S
C1632 C1630 1.388 . S
C1632 C1633 1.366 . S
C1633 C1632 1.366 . S
C1633 C1634 1.414 . S
C1633 C1636 1.499 . S
C1634 H1614 0.950 . S
C1634 C1633 1.414 . S
C1634 C1635 1.374 . S
C1635 H1615 0.950 . S
C1635 C1631 1.385 . S
C1635 C1634 1.374 . S
C1636 C1633 1.499 . S
C1636 C1637 1.373 . S
C1636 C1638 1.389 . S
C1637 H1616 0.950 . S
C1637 C1636 1.373 . S
C1637 C1653 1.377 . S
C1638 C1636 1.389 . S
C1638 C1639 1.524 . S
C1638 C1652 1.377 . S
C1639 C1638 1.524 . S
C1639 C1640 1.397 . S
C1639 C1644 1.363 . S
C1640 H1617 0.950 . S
C1640 C1639 1.397 . S
C1640 C1641 1.334 . S
C1641 H1618 0.950 . S
C1641 C1640 1.334 . S
C1641 C1642 1.287 . S
C1642 C1641 1.287 . S
C1642 C1643 1.524 . S
C1642 H1661 0.913 . S
C1643 H1619 0.950 . S
C1643 C1642 1.524 . S
C1643 C1644 1.415 . S
C1644 H1620 0.950 . S
C1644 C1639 1.363 . S
C1644 C1643 1.415 . S
C1645 H1621 0.951 . S
C1645 C1646 1.366 . S
C1645 C1647 1.388 . S
C1646 C1645 1.366 . S
C1646 C1650 1.385 . S
C1647 H1622 0.951 . S
C1647 C1645 1.388 . S
C1647 C1648 1.366 . S
C1648 C1647 1.366 . S
C1648 C1649 1.414 . S
C1648 C1651 1.499 . S
C1649 H1623 0.950 . S
C1649 C1648 1.414 . S
C1649 C1650 1.374 . S
C1650 H1624 0.950 . S
C1650 C1646 1.385 . S
C1650 C1649 1.374 . S
C1651 C1648 1.499 . S
C1651 C1652 1.373 . S
C1651 C1653 1.389 . S
C1652 H1625 0.950 . S
C1652 C1638 1.377 . S
C1652 C1651 1.373 . S
C1653 C1637 1.377 . S
C1653 C1651 1.389 . S
C1653 C1654 1.524 . S
C1654 C1653 1.524 . S
C1654 C1655 1.397 . S
C1654 C1659 1.363 . S
C1655 H1626 0.950 . S
C1655 C1654 1.397 . S
C1655 C1656 1.334 . S
C1656 H1627 0.950 . S
C1656 C1655 1.334 . S
C1656 C1657 1.287 . S
C1657 C1656 1.287 . S
C1657 C1658 1.524 . S
C1657 H1660 0.999 . S
C1658 H1628 0.950 . S
C1658 C1657 1.524 . S
C1658 C1659 1.415 . S
C1659 H1629 0.950 . S
C1659 C1654 1.363 . S
C1659 C1658 1.415 . S
H1660 C1657 0.999 . S
H1661 C1642 0.913 . S
H1662 C1680 0.951 . S
H1663 C1682 0.951 . S
H1664 C1684 0.950 . S
H1665 C1685 0.950 . S
H1666 C1687 0.950 . S
H1667 C1690 0.950 . S
H1668 C1691 0.950 . S
H1669 C1693 0.950 . S
H1670 C1694 0.950 . S
H1671 C1695 0.951 . S
H1672 C1697 0.951 . S
H1673 C1699 0.950 . S
H1674 C1700 0.950 . S
H1675 C1702 0.950 . S
H1676 C1705 0.950 . S
H1677 C1706 0.950 . S
H1678 C1708 0.950 . S
H1679 C1709 0.950 . S
C1680 H1662 0.951 . S
C1680 C1681 1.366 . S
C1680 C1682 1.388 . S
C1681 C1680 1.366 . S
C1681 C1685 1.385 . S
C1682 H1663 0.951 . S
C1682 C1680 1.388 . S
C1682 C1683 1.366 . S
C1683 C1682 1.366 . S
C1683 C1684 1.414 . S
C1683 C1686 1.499 . S
C1684 H1664 0.950 . S
C1684 C1683 1.414 . S
C1684 C1685 1.374 . S
C1685 H1665 0.950 . S
C1685 C1681 1.385 . S
C1685 C1684 1.374 . S
C1686 C1683 1.499 . S
C1686 C1687 1.373 . S
C1686 C1688 1.389 . S
C1687 H1666 0.950 . S
C1687 C1686 1.373 . S
C1687 C1703 1.377 . S
C1688 C1686 1.389 . S
C1688 C1689 1.524 . S
C1688 C1702 1.377 . S
C1689 C1688 1.524 . S
C1689 C1690 1.397 . S
C1689 C1694 1.363 . S
C1690 H1667 0.950 . S
C1690 C1689 1.397 . S
C1690 C1691 1.334 . S
C1691 H1668 0.950 . S
C1691 C1690 1.334 . S
C1691 C1692 1.287 . S
C1692 C1691 1.287 . S
C1692 C1693 1.524 . S
C1692 H1711 0.913 . S
C1693 H1669 0.950 . S
C1693 C1692 1.524 . S
C1693 C1694 1.415 . S
C1694 H1670 0.950 . S
C1694 C1689 1.363 . S
C1694 C1693 1.415 . S
C1695 H1671 0.951 . S
C1695 C1696 1.366 . S
C1695 C1697 1.388 . S
C1696 C1695 1.366 . S
C1696 C1700 1.385 . S
C1697 H1672 0.951 . S
C1697 C1695 1.388 . S
C1697 C1698 1.366 . S
C1698 C1697 1.366 . S
C1698 C1699 1.414 . S
C1698 C1701 1.499 . S
C1699 H1673 0.950 . S
C1699 C1698 1.414 . S
C1699 C1700 1.374 . S
C1700 H1674 0.950 . S
C1700 C1696 1.385 . S
C1700 C1699 1.374 . S
C1701 C1698 1.499 . S
C1701 C1702 1.373 . S
C1701 C1703 1.389 . S
C1702 H1675 0.950 . S
C1702 C1688 1.377 . S
C1702 C1701 1.373 . S
C1703 C1687 1.377 . S
C1703 C1701 1.389 . S
C1703 C1704 1.524 . S
C1704 C1703 1.524 . S
C1704 C1705 1.397 . S
C1704 C1709 1.363 . S
C1705 H1676 0.950 . S
C1705 C1704 1.397 . S
C1705 C1706 1.334 . S
C1706 H1677 0.950 . S
C1706 C1705 1.334 . S
C1706 C1707 1.287 . S
C1707 C1706 1.287 . S
C1707 C1708 1.524 . S
C1707 H1710 0.999 . S
C1708 H1678 0.950 . S
C1708 C1707 1.524 . S
C1708 C1709 1.415 . S
C1709 H1679 0.950 . S
C1709 C1704 1.363 . S
C1709 C1708 1.415 . S
H1710 C1707 0.999 . S
H1711 C1692 0.913 . S
H1712 C1730 0.951 . S
H1713 C1732 0.951 . S
H1714 C1734 0.950 . S
H1715 C1735 0.950 . S
H1716 C1737 0.950 . S
H1717 C1740 0.950 . S
H1718 C1741 0.950 . S
H1719 C1743 0.950 . S
H1720 C1744 0.950 . S
H1721 C1745 0.951 . S
H1722 C1747 0.951 . S
H1723 C1749 0.950 . S
H1724 C1750 0.950 . S
H1725 C1752 0.950 . S
H1726 C1755 0.950 . S
H1727 C1756 0.950 . S
H1728 C1758 0.950 . S
H1729 C1759 0.950 . S
C1730 H1712 0.951 . S
C1730 C1731 1.366 . S
C1730 C1732 1.388 . S
C1731 C1730 1.366 . S
C1731 C1735 1.385 . S
C1732 H1713 0.951 . S
C1732 C1730 1.388 . S
C1732 C1733 1.366 . S
C1733 C1732 1.366 . S
C1733 C1734 1.414 . S
C1733 C1736 1.499 . S
C1734 H1714 0.950 . S
C1734 C1733 1.414 . S
C1734 C1735 1.374 . S
C1735 H1715 0.950 . S
C1735 C1731 1.385 . S
C1735 C1734 1.374 . S
C1736 C1733 1.499 . S
C1736 C1737 1.373 . S
C1736 C1738 1.389 . S
C1737 H1716 0.950 . S
C1737 C1736 1.373 . S
C1737 C1753 1.377 . S
C1738 C1736 1.389 . S
C1738 C1739 1.524 . S
C1738 C1752 1.377 . S
C1739 C1738 1.524 . S
C1739 C1740 1.397 . S
C1739 C1744 1.363 . S
C1740 H1717 0.950 . S
C1740 C1739 1.397 . S
C1740 C1741 1.334 . S
C1741 H1718 0.950 . S
C1741 C1740 1.334 . S
C1741 C1742 1.287 . S
C1742 C1741 1.287 . S
C1742 C1743 1.524 . S
C1742 H1761 0.913 . S
C1743 H1719 0.950 . S
C1743 C1742 1.524 . S
C1743 C1744 1.415 . S
C1744 H1720 0.950 . S
C1744 C1739 1.363 . S
C1744 C1743 1.415 . S
C1745 H1721 0.951 . S
C1745 C1746 1.366 . S
C1745 C1747 1.388 . S
C1746 C1745 1.366 . S
C1746 C1750 1.385 . S
C1747 H1722 0.951 . S
C1747 C1745 1.388 . S
C1747 C1748 1.366 . S
C1748 C1747 1.366 . S
C1748 C1749 1.414 . S
C1748 C1751 1.499 . S
C1749 H1723 0.950 . S
C1749 C1748 1.414 . S
C1749 C1750 1.374 . S
C1750 H1724 0.950 . S
C1750 C1746 1.385 . S
C1750 C1749 1.374 . S
C1751 C1748 1.499 . S
C1751 C1752 1.373 . S
C1751 C1753 1.389 . S
C1752 H1725 0.950 . S
C1752 C1738 1.377 . S
C1752 C1751 1.373 . S
C1753 C1737 1.377 . S
C1753 C1751 1.389 . S
C1753 C1754 1.524 . S
C1754 C1753 1.524 . S
C1754 C1755 1.397 . S
C1754 C1759 1.363 . S
C1755 H1726 0.950 . S
C1755 C1754 1.397 . S
C1755 C1756 1.334 . S
C1756 H1727 0.950 . S
C1756 C1755 1.334 . S
C1756 C1757 1.287 . S
C1757 C1756 1.287 . S
C1757 C1758 1.524 . S
C1757 H1760 0.999 . S
C1758 H1728 0.950 . S
C1758 C1757 1.524 . S
C1758 C1759 1.415 . S
C1759 H1729 0.950 . S
C1759 C1754 1.363 . S
C1759 C1758 1.415 . S
H1760 C1757 0.999 . S
H1761 C1742 0.913 . S
H1762 C1780 0.951 . S
H1763 C1782 0.951 . S
H1764 C1784 0.950 . S
H1765 C1785 0.950 . S
H1766 C1787 0.950 . S
H1767 C1790 0.950 . S
H1768 C1791 0.950 . S
H1769 C1793 0.950 . S
H1770 C1794 0.950 . S
H1771 C1795 0.951 . S
H1772 C1797 0.951 . S
H1773 C1799 0.950 . S
H1774 C1800 0.950 . S
H1775 C1802 0.950 . S
H1776 C1805 0.950 . S
H1777 C1806 0.950 . S
H1778 C1808 0.950 . S
H1779 C1809 0.950 . S
C1780 H1762 0.951 . S
C1780 C1781 1.366 . S
C1780 C1782 1.388 . S
C1781 C1780 1.366 . S
C1781 C1785 1.385 . S
C1782 H1763 0.951 . S
C1782 C1780 1.388 . S
C1782 C1783 1.366 . S
C1783 C1782 1.366 . S
C1783 C1784 1.414 . S
C1783 C1786 1.499 . S
C1784 H1764 0.950 . S
C1784 C1783 1.414 . S
C1784 C1785 1.374 . S
C1785 H1765 0.950 . S
C1785 C1781 1.385 . S
C1785 C1784 1.374 . S
C1786 C1783 1.499 . S
C1786 C1787 1.373 . S
C1786 C1788 1.389 . S
C1787 H1766 0.950 . S
C1787 C1786 1.373 . S
C1787 C1803 1.377 . S
C1788 C1786 1.389 . S
C1788 C1789 1.524 . S
C1788 C1802 1.377 . S
C1789 C1788 1.524 . S
C1789 C1790 1.397 . S
C1789 C1794 1.363 . S
C1790 H1767 0.950 . S
C1790 C1789 1.397 . S
C1790 C1791 1.334 . S
C1791 H1768 0.950 . S
C1791 C1790 1.334 . S
C1791 C1792 1.287 . S
C1792 C1791 1.287 . S
C1792 C1793 1.524 . S
C1792 H1811 0.913 . S
C1793 H1769 0.950 . S
C1793 C1792 1.524 . S
C1793 C1794 1.415 . S
C1794 H1770 0.950 . S
C1794 C1789 1.363 . S
C1794 C1793 1.415 . S
C1795 H1771 0.951 . S
C1795 C1796 1.366 . S
C1795 C1797 1.388 . S
C1796 C1795 1.366 . S
C1796 C1800 1.385 . S
C1797 H1772 0.951 . S
C1797 C1795 1.388 . S
C1797 C1798 1.366 . S
C1798 C1797 1.366 . S
C1798 C1799 1.414 . S
C1798 C1801 1.499 . S
C1799 H1773 0.950 . S
C1799 C1798 1.414 . S
C1799 C1800 1.374 . S
C1800 H1774 0.950 . S
C1800 C1796 1.385 . S
C1800 C1799 1.374 . S
C1801 C1798 1.499 . S
C1801 C1802 1.373 . S
C1801 C1803 1.389 . S
C1802 H1775 0.950 . S
C1802 C1788 1.377 . S
C1802 C1801 1.373 . S
C1803 C1787 1.377 . S
C1803 C1801 1.389 . S
C1803 C1804 1.524 . S
C1804 C1803 1.524 . S
C1804 C1805 1.397 . S
C1804 C1809 1.363 . S
C1805 H1776 0.950 . S
C1805 C1804 1.397 . S
C1805 C1806 1.334 . S
C1806 H1777 0.950 . S
C1806 C1805 1.334 . S
C1806 C1807 1.287 . S
C1807 C1806 1.287 . S
C1807 C1808 1.524 . S
C1807 H1810 0.999 . S
C1808 H1778 0.950 . S
C1808 C1807 1.524 . S
C1808 C1809 1.415 . S
C1809 H1779 0.950 . S
C1809 C1804 1.363 . S
C1809 C1808 1.415 . S
H1810 C1807 0.999 . S
H1811 C1792 0.913 . S
H1812 C1830 0.951 . S
H1813 C1832 0.951 1_455 S
H1814 C1834 0.950 . S
H1815 C1835 0.950 . S
H1816 C1837 0.950 . S
H1817 C1840 0.950 1_655 S
H1818 C1841 0.950 . S
H1819 C1843 0.950 . S
H1820 C1844 0.950 . S
H1821 C1845 0.951 . S
H1822 C1847 0.951 1_655 S
H1823 C1849 0.950 . S
H1824 C1850 0.950 . S
H1825 C1852 0.950 . S
H1826 C1855 0.950 1_455 S
H1827 C1856 0.950 . S
H1828 C1858 0.950 . S
H1829 C1859 0.950 . S
C1830 H1812 0.951 . S
C1830 C1831 1.366 . S
C1830 C1832 1.388 . S
C1831 C1830 1.366 . S
C1831 C1835 1.385 . S
C1832 H1813 0.951 1_655 S
C1832 C1830 1.388 . S
C1832 C1833 1.366 . S
C1833 C1832 1.366 . S
C1833 C1834 1.414 . S
C1833 C1836 1.499 . S
C1834 H1814 0.950 . S
C1834 C1833 1.414 . S
C1834 C1835 1.374 . S
C1835 H1815 0.950 . S
C1835 C1831 1.385 . S
C1835 C1834 1.374 . S
C1836 C1833 1.499 . S
C1836 C1837 1.373 . S
C1836 C1838 1.389 1_655 S
C1837 H1816 0.950 . S
C1837 C1836 1.373 . S
C1837 C1853 1.377 1_554 S
C1838 C1836 1.389 1_455 S
C1838 C1839 1.524 . S
C1838 C1852 1.377 1_554 S
C1839 C1838 1.524 . S
C1839 C1840 1.397 . S
C1839 C1844 1.363 . S
C1840 H1817 0.950 1_455 S
C1840 C1839 1.397 . S
C1840 C1841 1.334 . S
C1841 H1818 0.950 . S
C1841 C1840 1.334 . S
C1841 C1842 1.287 . S
C1842 C1841 1.287 . S
C1842 C1843 1.524 . S
C1842 H1861 0.913 . S
C1843 H1819 0.950 . S
C1843 C1842 1.524 . S
C1843 C1844 1.415 . S
C1844 H1820 0.950 . S
C1844 C1839 1.363 . S
C1844 C1843 1.415 . S
C1845 H1821 0.951 . S
C1845 C1846 1.366 . S
C1845 C1847 1.388 . S
C1846 C1845 1.366 . S
C1846 C1850 1.385 . S
C1847 H1822 0.951 1_455 S
C1847 C1845 1.388 . S
C1847 C1848 1.366 . S
C1848 C1847 1.366 . S
C1848 C1849 1.414 . S
C1848 C1851 1.499 . S
C1849 H1823 0.950 . S
C1849 C1848 1.414 . S
C1849 C1850 1.374 . S
C1850 H1824 0.950 . S
C1850 C1846 1.385 . S
C1850 C1849 1.374 . S
C1851 C1848 1.499 . S
C1851 C1852 1.373 . S
C1851 C1853 1.389 1_455 S
C1852 H1825 0.950 . S
C1852 C1838 1.377 1_556 S
C1852 C1851 1.373 . S
C1853 C1837 1.377 1_556 S
C1853 C1851 1.389 1_655 S
C1853 C1854 1.524 . S
C1854 C1853 1.524 . S
C1854 C1855 1.397 . S
C1854 C1859 1.363 . S
C1855 H1826 0.950 1_655 S
C1855 C1854 1.397 . S
C1855 C1856 1.334 . S
C1856 H1827 0.950 . S
C1856 C1855 1.334 . S
C1856 C1857 1.287 . S
C1857 C1856 1.287 . S
C1857 C1858 1.524 . S
C1857 H1860 0.999 . S
C1858 H1828 0.950 . S
C1858 C1857 1.524 . S
C1858 C1859 1.415 . S
C1859 H1829 0.950 . S
C1859 C1854 1.363 . S
C1859 C1858 1.415 . S
H1860 C1857 0.999 . S
H1861 C1842 0.913 . S
H1862 C1880 0.951 . S
H1863 C1882 0.951 . S
H1864 C1884 0.950 . S
H1865 C1885 0.950 . S
H1866 C1887 0.950 . S
H1867 C1890 0.950 . S
H1868 C1891 0.950 . S
H1869 C1893 0.950 . S
H1870 C1894 0.950 . S
H1871 C1895 0.951 . S
H1872 C1897 0.951 . S
H1873 C1899 0.950 . S
H1874 C1900 0.950 . S
H1875 C1902 0.950 . S
H1876 C1905 0.950 . S
H1877 C1906 0.950 . S
H1878 C1908 0.950 . S
H1879 C1909 0.950 . S
C1880 H1862 0.951 . S
C1880 C1881 1.366 . S
C1880 C1882 1.388 . S
C1881 C1880 1.366 . S
C1881 C1885 1.385 . S
C1882 H1863 0.951 . S
C1882 C1880 1.388 . S
C1882 C1883 1.366 . S
C1883 C1882 1.366 . S
C1883 C1884 1.414 . S
C1883 C1886 1.499 . S
C1884 H1864 0.950 . S
C1884 C1883 1.414 . S
C1884 C1885 1.374 . S
C1885 H1865 0.950 . S
C1885 C1881 1.385 . S
C1885 C1884 1.374 . S
C1886 C1883 1.499 . S
C1886 C1887 1.373 . S
C1886 C1888 1.389 . S
C1887 H1866 0.950 . S
C1887 C1886 1.373 . S
C1887 C1903 1.377 1_554 S
C1888 C1886 1.389 . S
C1888 C1889 1.524 . S
C1888 C1902 1.377 1_554 S
C1889 C1888 1.524 . S
C1889 C1890 1.397 . S
C1889 C1894 1.363 . S
C1890 H1867 0.950 . S
C1890 C1889 1.397 . S
C1890 C1891 1.334 . S
C1891 H1868 0.950 . S
C1891 C1890 1.334 . S
C1891 C1892 1.287 . S
C1892 C1891 1.287 . S
C1892 C1893 1.524 . S
C1892 H1911 0.913 . S
C1893 H1869 0.950 . S
C1893 C1892 1.524 . S
C1893 C1894 1.415 . S
C1894 H1870 0.950 . S
C1894 C1889 1.363 . S
C1894 C1893 1.415 . S
C1895 H1871 0.951 . S
C1895 C1896 1.366 . S
C1895 C1897 1.388 . S
C1896 C1895 1.366 . S
C1896 C1900 1.385 . S
C1897 H1872 0.951 . S
C1897 C1895 1.388 . S
C1897 C1898 1.366 . S
C1898 C1897 1.366 . S
C1898 C1899 1.414 . S
C1898 C1901 1.499 . S
C1899 H1873 0.950 . S
C1899 C1898 1.414 . S
C1899 C1900 1.374 . S
C1900 H1874 0.950 . S
C1900 C1896 1.385 . S
C1900 C1899 1.374 . S
C1901 C1898 1.499 . S
C1901 C1902 1.373 . S
C1901 C1903 1.389 . S
C1902 H1875 0.950 . S
C1902 C1888 1.377 1_556 S
C1902 C1901 1.373 . S
C1903 C1887 1.377 1_556 S
C1903 C1901 1.389 . S
C1903 C1904 1.524 . S
C1904 C1903 1.524 . S
C1904 C1905 1.397 . S
C1904 C1909 1.363 . S
C1905 H1876 0.950 . S
C1905 C1904 1.397 . S
C1905 C1906 1.334 . S
C1906 H1877 0.950 . S
C1906 C1905 1.334 . S
C1906 C1907 1.287 . S
C1907 C1906 1.287 . S
C1907 C1908 1.524 . S
C1907 H1910 0.999 . S
C1908 H1878 0.950 . S
C1908 C1907 1.524 . S
C1908 C1909 1.415 . S
C1909 H1879 0.950 . S
C1909 C1904 1.363 . S
C1909 C1908 1.415 . S
H1910 C1907 0.999 . S
H1911 C1892 0.913 . S
H1912 C1930 0.951 . S
H1913 C1932 0.951 . S
H1914 C1934 0.950 1_565 S
H1915 C1935 0.950 . S
H1916 C1937 0.950 . S
H1917 C1940 0.950 . S
H1918 C1941 0.950 . S
H1919 C1943 0.950 . S
H1920 C1944 0.950 1_556 S
H1921 C1945 0.951 . S
H1922 C1947 0.951 . S
H1923 C1949 0.950 1_545 S
H1924 C1950 0.950 . S
H1925 C1952 0.950 . S
H1926 C1955 0.950 . S
H1927 C1956 0.950 . S
H1928 C1958 0.950 . S
H1929 C1959 0.950 1_554 S
C1930 H1912 0.951 . S
C1930 C1931 1.366 . S
C1930 C1932 1.388 . S
C1931 C1930 1.366 . S
C1931 C1935 1.385 . S
C1932 H1913 0.951 . S
C1932 C1930 1.388 . S
C1932 C1933 1.366 . S
C1933 C1932 1.366 . S
C1933 C1934 1.414 . S
C1933 C1936 1.499 . S
C1934 H1914 0.950 1_545 S
C1934 C1933 1.414 . S
C1934 C1935 1.374 . S
C1935 H1915 0.950 . S
C1935 C1931 1.385 . S
C1935 C1934 1.374 . S
C1936 C1933 1.499 . S
C1936 C1937 1.373 . S
C1936 C1938 1.389 . S
C1937 H1916 0.950 . S
C1937 C1936 1.373 . S
C1937 C1953 1.377 1_544 S
C1938 C1936 1.389 . S
C1938 C1939 1.524 . S
C1938 C1952 1.377 1_544 S
C1939 C1938 1.524 . S
C1939 C1940 1.397 1_545 S
C1939 C1944 1.363 . S
C1940 H1917 0.950 . S
C1940 C1939 1.397 1_565 S
C1940 C1941 1.334 . S
C1941 H1918 0.950 . S
C1941 C1940 1.334 . S
C1941 C1942 1.287 1_565 S
C1942 C1941 1.287 1_545 S
C1942 C1943 1.524 . S
C1942 H1961 0.913 . S
C1943 H1919 0.950 . S
C1943 C1942 1.524 . S
C1943 C1944 1.415 . S
C1944 H1920 0.950 1_554 S
C1944 C1939 1.363 . S
C1944 C1943 1.415 . S
C1945 H1921 0.951 . S
C1945 C1946 1.366 . S
C1945 C1947 1.388 . S
C1946 C1945 1.366 . S
C1946 C1950 1.385 . S
C1947 H1922 0.951 . S
C1947 C1945 1.388 . S
C1947 C1948 1.366 . S
C1948 C1947 1.366 . S
C1948 C1949 1.414 . S
C1948 C1951 1.499 . S
C1949 H1923 0.950 1_565 S
C1949 C1948 1.414 . S
C1949 C1950 1.374 . S
C1950 H1924 0.950 . S
C1950 C1946 1.385 . S
C1950 C1949 1.374 . S
C1951 C1948 1.499 . S
C1951 C1952 1.373 . S
C1951 C1953 1.389 . S
C1952 H1925 0.950 . S
C1952 C1938 1.377 1_566 S
C1952 C1951 1.373 . S
C1953 C1937 1.377 1_566 S
C1953 C1951 1.389 . S
C1953 C1954 1.524 . S
C1954 C1953 1.524 . S
C1954 C1955 1.397 1_565 S
C1954 C1959 1.363 . S
C1955 H1926 0.950 . S
C1955 C1954 1.397 1_545 S
C1955 C1956 1.334 . S
C1956 H1927 0.950 . S
C1956 C1955 1.334 . S
C1956 C1957 1.287 1_545 S
C1957 C1956 1.287 1_565 S
C1957 C1958 1.524 . S
C1957 H1960 0.999 . S
C1958 H1928 0.950 . S
C1958 C1957 1.524 . S
C1958 C1959 1.415 . S
C1959 H1929 0.950 1_556 S
C1959 C1954 1.363 . S
C1959 C1958 1.415 . S
H1960 C1957 0.999 . S
H1961 C1942 0.913 . S
H1962 C1980 0.951 . S
H1963 C1982 0.951 . S
H1964 C1984 0.950 . S
H1965 C1985 0.950 1_565 S
H1966 C1987 0.950 . S
H1967 C1990 0.950 . S
H1968 C1991 0.950 . S
H1969 C1993 0.950 . S
H1970 C1994 0.950 . S
H1971 C1995 0.951 . S
H1972 C1997 0.951 . S
H1973 C1999 0.950 . S
H1974 C2000 0.950 . S
H1975 C2002 0.950 . S
H1976 C2005 0.950 . S
H1977 C2006 0.950 . S
H1978 C2008 0.950 . S
H1979 C2009 0.950 . S
C1980 H1962 0.951 . S
C1980 C1981 1.366 . S
C1980 C1982 1.388 . S
C1981 C1980 1.366 . S
C1981 C1985 1.385 . S
C1982 H1963 0.951 . S
C1982 C1980 1.388 . S
C1982 C1983 1.366 . S
C1983 C1982 1.366 . S
C1983 C1984 1.414 . S
C1983 C1986 1.499 . S
C1984 H1964 0.950 . S
C1984 C1983 1.414 . S
C1984 C1985 1.374 . S
C1985 H1965 0.950 1_545 S
C1985 C1981 1.385 . S
C1985 C1984 1.374 . S
C1986 C1983 1.499 . S
C1986 C1987 1.373 . S
C1986 C1988 1.389 . S
C1987 H1966 0.950 . S
C1987 C1986 1.373 . S
C1987 C2003 1.377 . S
C1988 C1986 1.389 . S
C1988 C1989 1.524 . S
C1988 C2002 1.377 . S
C1989 C1988 1.524 . S
C1989 C1990 1.397 . S
C1989 C1994 1.363 . S
C1990 H1967 0.950 . S
C1990 C1989 1.397 . S
C1990 C1991 1.334 . S
C1991 H1968 0.950 . S
C1991 C1990 1.334 . S
C1991 C1992 1.287 . S
C1992 C1991 1.287 . S
C1992 C1993 1.524 . S
C1992 H2011 0.913 . S
C1993 H1969 0.950 . S
C1993 C1992 1.524 . S
C1993 C1994 1.415 . S
C1994 H1970 0.950 . S
C1994 C1989 1.363 . S
C1994 C1993 1.415 . S
C1995 H1971 0.951 . S
C1995 C1996 1.366 . S
C1995 C1997 1.388 . S
C1996 C1995 1.366 . S
C1996 C2000 1.385 . S
C1997 H1972 0.951 . S
C1997 C1995 1.388 . S
C1997 C1998 1.366 . S
C1998 C1997 1.366 . S
C1998 C1999 1.414 . S
C1998 C2001 1.499 . S
C1999 H1973 0.950 . S
C1999 C1998 1.414 . S
C1999 C2000 1.374 . S
C2000 H1974 0.950 . S
C2000 C1996 1.385 . S
C2000 C1999 1.374 . S
C2001 C1998 1.499 . S
C2001 C2002 1.373 . S
C2001 C2003 1.389 . S
C2002 H1975 0.950 . S
C2002 C1988 1.377 . S
C2002 C2001 1.373 . S
C2003 C1987 1.377 . S
C2003 C2001 1.389 . S
C2003 C2004 1.524 . S
C2004 C2003 1.524 . S
C2004 C2005 1.397 . S
C2004 C2009 1.363 . S
C2005 H1976 0.950 . S
C2005 C2004 1.397 . S
C2005 C2006 1.334 . S
C2006 H1977 0.950 . S
C2006 C2005 1.334 . S
C2006 C2007 1.287 . S
C2007 C2006 1.287 . S
C2007 C2008 1.524 . S
C2007 H2010 0.999 . S
C2008 H1978 0.950 . S
C2008 C2007 1.524 . S
C2008 C2009 1.415 . S
C2009 H1979 0.950 . S
C2009 C2004 1.363 . S
C2009 C2008 1.415 . S
H2010 C2007 0.999 . S
H2011 C1992 0.913 . S
H2012 C2030 0.951 . S
H2013 C2032 0.951 . S
H2014 C2034 0.950 1_545 S
H2015 C2035 0.950 . S
H2016 C2037 0.950 . S
H2017 C2040 0.926 1_545 S
H2018 C2041 0.950 . S
H2019 C2043 0.950 . S
H2020 C2044 0.950 . S
H2021 C2045 0.951 . S
H2022 C2047 0.951 . S
H2023 C2049 0.950 . S
H2024 C2050 0.950 1_455 S
H2025 C2052 0.950 . S
H2026 C2055 0.950 . S
H2027 C2056 0.950 . S
H2028 C2058 0.950 . S
H2029 C2059 0.950 . S
C2030 H2012 0.951 . S
C2030 C2031 1.366 . S
C2030 C2032 1.388 . S
C2031 C2030 1.366 . S
C2031 C2035 1.385 . S
C2032 H2013 0.951 . S
C2032 C2030 1.388 . S
C2032 C2033 1.350 1_565 S
C2033 C2032 1.350 1_545 S
C2033 C2034 1.418 1_545 S
C2033 C2036 1.511 . S
C2034 H2014 0.950 1_565 S
C2034 C2033 1.418 1_565 S
C2034 C2035 1.374 . S
C2035 H2015 0.950 . S
C2035 C2031 1.385 . S
C2035 C2034 1.374 . S
C2036 C2033 1.511 . S
C2036 C2037 1.373 . S
C2036 C2038 1.389 . S
C2037 H2016 0.950 . S
C2037 C2036 1.373 . S
C2037 C2053 1.377 . S
C2038 C2036 1.389 . S
C2038 C2039 1.524 . S
C2038 C2052 1.377 . S
C2039 C2038 1.524 . S
C2039 C2040 1.397 1_545 S
C2039 C2044 1.363 . S
C2040 H2017 0.926 1_565 S
C2040 C2039 1.397 1_565 S
C2040 C2041 1.334 . S
C2041 H2018 0.950 . S
C2041 C2040 1.334 . S
C2041 C2042 1.287 . S
C2042 C2041 1.287 . S
C2042 C2043 1.524 . S
C2042 H2061 0.913 . S
C2043 H2019 0.950 . S
C2043 C2042 1.524 . S
C2043 C2044 1.415 1_565 S
C2044 H2020 0.950 . S
C2044 C2039 1.363 . S
C2044 C2043 1.415 1_545 S
C2045 H2021 0.951 . S
C2045 C2046 1.366 . S
C2045 C2047 1.388 . S
C2046 C2045 1.366 . S
C2046 C2050 1.385 . S
C2047 H2022 0.951 . S
C2047 C2045 1.388 . S
C2047 C2048 1.366 . S
C2048 C2047 1.366 . S
C2048 C2049 1.414 . S
C2048 C2051 1.499 . S
C2049 H2023 0.950 . S
C2049 C2048 1.414 . S
C2049 C2050 1.374 . S
C2050 H2024 0.950 1_655 S
C2050 C2046 1.385 . S
C2050 C2049 1.374 . S
C2051 C2048 1.499 . S
C2051 C2052 1.373 . S
C2051 C2053 1.389 . S
C2052 H2025 0.950 . S
C2052 C2038 1.377 . S
C2052 C2051 1.373 . S
C2053 C2037 1.377 . S
C2053 C2051 1.389 . S
C2053 C2054 1.524 . S
C2054 C2053 1.524 . S
C2054 C2055 1.397 . S
C2054 C2059 1.363 . S
C2055 H2026 0.950 . S
C2055 C2054 1.397 . S
C2055 C2056 1.334 . S
C2056 H2027 0.950 . S
C2056 C2055 1.334 . S
C2056 C2057 1.287 . S
C2057 C2056 1.287 . S
C2057 C2058 1.524 . S
C2057 H2060 0.999 . S
C2058 H2028 0.950 . S
C2058 C2057 1.524 . S
C2058 C2059 1.415 . S
C2059 H2029 0.950 . S
C2059 C2054 1.363 . S
C2059 C2058 1.415 . S
H2060 C2057 0.999 . S
H2061 C2042 0.913 . S
H2062 C2080 0.951 . S
H2063 C2082 0.951 . S
H2064 C2084 0.950 . S
H2065 C2085 0.950 . S
H2066 C2087 0.950 . S
H2067 C2090 0.950 . S
H2068 C2091 0.950 . S
H2069 C2093 0.950 . S
H2070 C2094 0.950 . S
H2071 C2095 0.951 . S
H2072 C2097 0.951 1_655 S
H2073 C2099 0.950 . S
H2074 C2100 0.950 . S
H2075 C2102 0.950 . S
H2076 C2105 0.950 . S
H2077 C2106 0.950 1_455 S
H2078 C2108 0.950 . S
H2079 C2109 0.950 . S
C2080 H2062 0.951 . S
C2080 C2081 1.366 . S
C2080 C2082 1.388 . S
C2081 C2080 1.366 . S
C2081 C2085 1.385 . S
C2082 H2063 0.951 . S
C2082 C2080 1.388 . S
C2082 C2083 1.366 . S
C2083 C2082 1.366 . S
C2083 C2084 1.414 . S
C2083 C2086 1.499 . S
C2084 H2064 0.950 . S
C2084 C2083 1.414 . S
C2084 C2085 1.374 . S
C2085 H2065 0.950 . S
C2085 C2081 1.385 . S
C2085 C2084 1.374 . S
C2086 C2083 1.499 . S
C2086 C2087 1.373 . S
C2086 C2088 1.389 . S
C2087 H2066 0.950 . S
C2087 C2086 1.373 . S
C2087 C2103 1.377 . S
C2088 C2086 1.389 . S
C2088 C2089 1.524 . S
C2088 C2102 1.377 . S
C2089 C2088 1.524 . S
C2089 C2090 1.397 . S
C2089 C2094 1.363 . S
C2090 H2067 0.950 . S
C2090 C2089 1.397 . S
C2090 C2091 1.334 . S
C2091 H2068 0.950 . S
C2091 C2090 1.334 . S
C2091 C2092 1.287 . S
C2092 C2091 1.287 . S
C2092 C2093 1.524 . S
C2092 H2111 0.913 . S
C2093 H2069 0.950 . S
C2093 C2092 1.524 . S
C2093 C2094 1.415 . S
C2094 H2070 0.950 . S
C2094 C2089 1.363 . S
C2094 C2093 1.415 . S
C2095 H2071 0.951 . S
C2095 C2096 1.366 . S
C2095 C2097 1.388 . S
C2096 C2095 1.366 . S
C2096 C2100 1.385 . S
C2097 H2072 0.951 1_455 S
C2097 C2095 1.388 . S
C2097 C2098 1.366 1_455 S
C2098 C2097 1.366 1_655 S
C2098 C2099 1.414 1_655 S
C2098 C2101 1.499 . S
C2099 H2073 0.950 . S
C2099 C2098 1.414 1_455 S
C2099 C2100 1.374 . S
C2100 H2074 0.950 . S
C2100 C2096 1.385 . S
C2100 C2099 1.374 . S
C2101 C2098 1.499 . S
C2101 C2102 1.373 . S
C2101 C2103 1.389 . S
C2102 H2075 0.950 . S
C2102 C2088 1.377 . S
C2102 C2101 1.373 . S
C2103 C2087 1.377 . S
C2103 C2101 1.389 . S
C2103 C2104 1.524 . S
C2104 C2103 1.524 . S
C2104 C2105 1.397 . S
C2104 C2109 1.363 . S
C2105 H2076 0.950 . S
C2105 C2104 1.397 . S
C2105 C2106 1.334 . S
C2106 H2077 0.950 1_655 S
C2106 C2105 1.334 . S
C2106 C2107 1.287 . S
C2107 C2106 1.287 . S
C2107 C2108 1.524 . S
C2107 H2110 0.999 . S
C2108 H2078 0.950 . S
C2108 C2107 1.524 . S
C2108 C2109 1.415 . S
C2109 H2079 0.950 . S
C2109 C2104 1.363 . S
C2109 C2108 1.415 . S
H2110 C2107 0.999 . S
H2111 C2092 0.913 . S
H2112 C2130 0.951 1_655 S
H2113 C2132 0.951 . S
H2114 C2134 0.950 . S
H2115 C2135 0.950 . S
H2116 C2137 0.950 . S
H2117 C2140 0.950 . S
H2118 C2141 0.950 . S
H2119 C2143 0.950 . S
H2120 C2144 0.950 . S
H2121 C2145 0.951 . S
H2122 C2147 0.951 . S
H2123 C2149 0.950 . S
H2124 C2150 0.950 . S
H2125 C2152 0.950 . S
H2126 C2155 0.950 . S
H2127 C2156 0.950 . S
H2128 C2158 0.950 . S
H2129 C2159 0.950 . S
C2130 H2112 0.951 1_455 S
C2130 C2131 1.366 . S
C2130 C2132 1.388 . S
C2131 C2130 1.366 . S
C2131 C2135 1.385 . S
C2132 H2113 0.951 . S
C2132 C2130 1.388 . S
C2132 C2133 1.366 . S
C2133 C2132 1.366 . S
C2133 C2134 1.414 . S
C2133 C2136 1.499 . S
C2134 H2114 0.950 . S
C2134 C2133 1.414 . S
C2134 C2135 1.374 . S
C2135 H2115 0.950 . S
C2135 C2131 1.385 . S
C2135 C2134 1.374 . S
C2136 C2133 1.499 . S
C2136 C2137 1.373 . S
C2136 C2138 1.389 . S
C2137 H2116 0.950 . S
C2137 C2136 1.373 . S
C2137 C2153 1.377 . S
C2138 C2136 1.389 . S
C2138 C2139 1.524 . S
C2138 C2152 1.377 . S
C2139 C2138 1.524 . S
C2139 C2140 1.397 . S
C2139 C2144 1.363 . S
C2140 H2117 0.950 . S
C2140 C2139 1.397 . S
C2140 C2141 1.334 . S
C2141 H2118 0.950 . S
C2141 C2140 1.334 . S
C2141 C2142 1.287 . S
C2142 C2141 1.287 . S
C2142 C2143 1.524 . S
C2142 H2161 0.913 . S
C2143 H2119 0.950 . S
C2143 C2142 1.524 . S
C2143 C2144 1.415 . S
C2144 H2120 0.950 . S
C2144 C2139 1.363 . S
C2144 C2143 1.415 . S
C2145 H2121 0.951 . S
C2145 C2146 1.366 . S
C2145 C2147 1.388 . S
C2146 C2145 1.366 . S
C2146 C2150 1.385 . S
C2147 H2122 0.951 . S
C2147 C2145 1.388 . S
C2147 C2148 1.366 . S
C2148 C2147 1.366 . S
C2148 C2149 1.414 . S
C2148 C2151 1.499 . S
C2149 H2123 0.950 . S
C2149 C2148 1.414 . S
C2149 C2150 1.374 . S
C2150 H2124 0.950 . S
C2150 C2146 1.385 . S
C2150 C2149 1.374 . S
C2151 C2148 1.499 . S
C2151 C2152 1.373 . S
C2151 C2153 1.389 . S
C2152 H2125 0.950 . S
C2152 C2138 1.377 . S
C2152 C2151 1.373 . S
C2153 C2137 1.377 . S
C2153 C2151 1.389 . S
C2153 C2154 1.524 . S
C2154 C2153 1.524 . S
C2154 C2155 1.397 . S
C2154 C2159 1.363 . S
C2155 H2126 0.950 . S
C2155 C2154 1.397 . S
C2155 C2156 1.334 . S
C2156 H2127 0.950 . S
C2156 C2155 1.334 . S
C2156 C2157 1.287 . S
C2157 C2156 1.287 . S
C2157 C2158 1.524 . S
C2157 H2160 0.999 . S
C2158 H2128 0.950 . S
C2158 C2157 1.524 . S
C2158 C2159 1.415 . S
C2159 H2129 0.950 . S
C2159 C2154 1.363 . S
C2159 C2158 1.415 . S
H2160 C2157 0.999 . S
H2161 C2142 0.913 . S
H2162 C2180 0.951 . S
H2163 C2182 0.951 1_565 S
H2164 C2184 0.950 . S
H2165 C2185 0.950 . S
H2166 C2187 0.950 . S
H2167 C2190 0.950 . S
H2168 C2191 0.950 . S
H2169 C2193 0.950 . S
H2170 C2194 0.950 . S
H2171 C2195 0.951 . S
H2172 C2197 0.951 . S
H2173 C2199 0.950 . S
H2174 C2200 0.950 . S
H2175 C2202 0.950 . S
H2176 C2205 0.950 . S
H2177 C2206 0.950 . S
H2178 C2208 0.950 . S
H2179 C2209 0.950 . S
C2180 H2162 0.951 . S
C2180 C2181 1.366 . S
C2180 C2182 1.388 . S
C2181 C2180 1.366 . S
C2181 C2185 1.385 . S
C2182 H2163 0.951 1_545 S
C2182 C2180 1.388 . S
C2182 C2183 1.366 1_545 S
C2183 C2182 1.366 1_565 S
C2183 C2184 1.414 1_565 S
C2183 C2186 1.499 . S
C2184 H2164 0.950 . S
C2184 C2183 1.414 1_545 S
C2184 C2185 1.374 . S
C2185 H2165 0.950 . S
C2185 C2181 1.385 . S
C2185 C2184 1.374 . S
C2186 C2183 1.499 . S
C2186 C2187 1.373 . S
C2186 C2188 1.389 . S
C2187 H2166 0.950 . S
C2187 C2186 1.373 . S
C2187 C2203 1.377 . S
C2188 C2186 1.389 . S
C2188 C2189 1.524 . S
C2188 C2202 1.377 . S
C2189 C2188 1.524 . S
C2189 C2190 1.397 . S
C2189 C2194 1.363 . S
C2190 H2167 0.950 . S
C2190 C2189 1.397 . S
C2190 C2191 1.334 . S
C2191 H2168 0.950 . S
C2191 C2190 1.334 . S
C2191 C2192 1.287 . S
C2192 C2191 1.287 . S
C2192 C2193 1.524 . S
C2192 H2211 0.913 . S
C2193 H2169 0.950 . S
C2193 C2192 1.524 . S
C2193 C2194 1.415 . S
C2194 H2170 0.950 . S
C2194 C2189 1.363 . S
C2194 C2193 1.415 . S
C2195 H2171 0.951 . S
C2195 C2196 1.366 . S
C2195 C2197 1.388 . S
C2196 C2195 1.366 . S
C2196 C2200 1.385 . S
C2197 H2172 0.951 . S
C2197 C2195 1.388 . S
C2197 C2198 1.366 . S
C2198 C2197 1.366 . S
C2198 C2199 1.414 . S
C2198 C2201 1.499 . S
C2199 H2173 0.950 . S
C2199 C2198 1.414 . S
C2199 C2200 1.374 . S
C2200 H2174 0.950 . S
C2200 C2196 1.385 . S
C2200 C2199 1.374 . S
C2201 C2198 1.499 . S
C2201 C2202 1.373 . S
C2201 C2203 1.389 . S
C2202 H2175 0.950 . S
C2202 C2188 1.377 . S
C2202 C2201 1.373 . S
C2203 C2187 1.377 . S
C2203 C2201 1.389 . S
C2203 C2204 1.524 . S
C2204 C2203 1.524 . S
C2204 C2205 1.397 . S
C2204 C2209 1.363 . S
C2205 H2176 0.950 . S
C2205 C2204 1.397 . S
C2205 C2206 1.334 . S
C2206 H2177 0.950 . S
C2206 C2205 1.334 . S
C2206 C2207 1.287 . S
C2207 C2206 1.287 . S
C2207 C2208 1.524 . S
C2207 H2210 0.999 . S
C2208 H2178 0.950 . S
C2208 C2207 1.524 . S
C2208 C2209 1.415 . S
C2209 H2179 0.950 . S
C2209 C2204 1.363 . S
C2209 C2208 1.415 . S
H2210 C2207 0.999 . S
H2211 C2192 0.913 . S
H2212 C2230 0.951 1_545 S
H2213 C2232 0.951 . S
H2214 C2234 0.950 . S
H2215 C2235 0.950 . S
H2216 C2237 0.950 . S
H2217 C2240 0.950 . S
H2218 C2241 0.950 . S
H2219 C2243 0.950 . S
H2220 C2244 0.950 . S
H2221 C2245 0.951 . S
H2222 C2247 0.951 1_455 S
H2223 C2249 0.950 . S
H2224 C2250 0.950 . S
H2225 C2252 0.950 . S
H2226 C2255 0.950 . S
H2227 C2256 0.950 1_655 S
H2228 C2258 0.950 . S
H2229 C2259 0.950 . S
C2230 H2212 0.951 1_565 S
C2230 C2231 1.366 . S
C2230 C2232 1.388 . S
C2231 C2230 1.366 . S
C2231 C2235 1.385 . S
C2232 H2213 0.951 . S
C2232 C2230 1.388 . S
C2232 C2233 1.366 . S
C2233 C2232 1.366 . S
C2233 C2234 1.414 . S
C2233 C2236 1.499 . S
C2234 H2214 0.950 . S
C2234 C2233 1.414 . S
C2234 C2235 1.374 . S
C2235 H2215 0.950 . S
C2235 C2231 1.385 . S
C2235 C2234 1.374 . S
C2236 C2233 1.499 . S
C2236 C2237 1.373 . S
C2236 C2238 1.389 . S
C2237 H2216 0.950 . S
C2237 C2236 1.373 . S
C2237 C2253 1.377 . S
C2238 C2236 1.389 . S
C2238 C2239 1.524 . S
C2238 C2252 1.377 . S
C2239 C2238 1.524 . S
C2239 C2240 1.397 . S
C2239 C2244 1.363 . S
C2240 H2217 0.950 . S
C2240 C2239 1.397 . S
C2240 C2241 1.334 . S
C2241 H2218 0.950 . S
C2241 C2240 1.334 . S
C2241 C2242 1.287 . S
C2242 C2241 1.287 . S
C2242 C2243 1.524 . S
C2242 H2261 0.913 . S
C2243 H2219 0.950 . S
C2243 C2242 1.524 . S
C2243 C2244 1.415 . S
C2244 H2220 0.950 . S
C2244 C2239 1.363 . S
C2244 C2243 1.415 . S
C2245 H2221 0.951 . S
C2245 C2246 1.366 . S
C2245 C2247 1.388 . S
C2246 C2245 1.366 . S
C2246 C2250 1.385 . S
C2247 H2222 0.951 1_655 S
C2247 C2245 1.388 . S
C2247 C2248 1.374 1_655 S
C2248 C2247 1.374 1_455 S
C2248 C2249 1.388 1_455 S
C2248 C2251 1.516 . S
C2249 H2223 0.950 . S
C2249 C2248 1.388 1_655 S
C2249 C2250 1.374 . S
C2250 H2224 0.950 . S
C2250 C2246 1.385 . S
C2250 C2249 1.374 . S
C2251 C2248 1.516 . S
C2251 C2252 1.373 . S
C2251 C2253 1.389 . S
C2252 H2225 0.950 . S
C2252 C2238 1.377 . S
C2252 C2251 1.373 . S
C2253 C2237 1.377 . S
C2253 C2251 1.389 . S
C2253 C2254 1.524 . S
C2254 C2253 1.524 . S
C2254 C2255 1.397 . S
C2254 C2259 1.363 . S
C2255 H2226 0.950 . S
C2255 C2254 1.397 . S
C2255 C2256 1.334 . S
C2256 H2227 0.950 1_455 S
C2256 C2255 1.334 . S
C2256 C2257 1.287 . S
C2257 C2256 1.287 . S
C2257 C2258 1.524 . S
C2257 H2260 0.999 . S
C2258 H2228 0.950 . S
C2258 C2257 1.524 . S
C2258 C2259 1.415 . S
C2259 H2229 0.950 . S
C2259 C2254 1.363 . S
C2259 C2258 1.415 . S
H2260 C2257 0.999 . S
H2261 C2242 0.913 . S
H2262 C2280 0.951 . S
H2263 C2282 0.951 . S
H2264 C2284 0.950 . S
H2265 C2285 0.950 . S
H2266 C2287 0.950 . S
H2267 C2290 0.950 . S
H2268 C2291 0.950 . S
H2269 C2293 0.950 . S
H2270 C2294 0.950 . S
H2271 C2295 0.951 . S
H2272 C2297 0.951 . S
H2273 C2299 0.950 . S
H2274 C2300 0.950 . S
H2275 C2302 0.950 . S
H2276 C2305 0.950 . S
H2277 C2306 0.950 . S
H2278 C2308 0.950 . S
H2279 C2309 0.950 . S
C2280 H2262 0.951 . S
C2280 C2281 1.366 . S
C2280 C2282 1.388 . S
C2281 C2280 1.366 . S
C2281 C2285 1.385 . S
C2282 H2263 0.951 . S
C2282 C2280 1.388 . S
C2282 C2283 1.366 . S
C2283 C2282 1.366 . S
C2283 C2284 1.414 . S
C2283 C2286 1.499 . S
C2284 H2264 0.950 . S
C2284 C2283 1.414 . S
C2284 C2285 1.374 . S
C2285 H2265 0.950 . S
C2285 C2281 1.385 . S
C2285 C2284 1.374 . S
C2286 C2283 1.499 . S
C2286 C2287 1.373 . S
C2286 C2288 1.389 . S
C2287 H2266 0.950 . S
C2287 C2286 1.373 . S
C2287 C2303 1.377 . S
C2288 C2286 1.389 . S
C2288 C2289 1.524 . S
C2288 C2302 1.377 . S
C2289 C2288 1.524 . S
C2289 C2290 1.397 . S
C2289 C2294 1.363 . S
C2290 H2267 0.950 . S
C2290 C2289 1.397 . S
C2290 C2291 1.334 . S
C2291 H2268 0.950 . S
C2291 C2290 1.334 . S
C2291 C2292 1.287 . S
C2292 C2291 1.287 . S
C2292 C2293 1.524 . S
C2292 H2311 0.913 . S
C2293 H2269 0.950 . S
C2293 C2292 1.524 . S
C2293 C2294 1.415 . S
C2294 H2270 0.950 . S
C2294 C2289 1.363 . S
C2294 C2293 1.415 . S
C2295 H2271 0.951 . S
C2295 C2296 1.366 . S
C2295 C2297 1.388 . S
C2296 C2295 1.366 . S
C2296 C2300 1.385 . S
C2297 H2272 0.951 . S
C2297 C2295 1.388 . S
C2297 C2298 1.366 . S
C2298 C2297 1.366 . S
C2298 C2299 1.414 . S
C2298 C2301 1.499 . S
C2299 H2273 0.950 . S
C2299 C2298 1.414 . S
C2299 C2300 1.374 . S
C2300 H2274 0.950 . S
C2300 C2296 1.385 . S
C2300 C2299 1.374 . S
C2301 C2298 1.499 . S
C2301 C2302 1.373 . S
C2301 C2303 1.389 . S
C2302 H2275 0.950 . S
C2302 C2288 1.377 . S
C2302 C2301 1.373 . S
C2303 C2287 1.377 . S
C2303 C2301 1.389 . S
C2303 C2304 1.524 . S
C2304 C2303 1.524 . S
C2304 C2305 1.397 . S
C2304 C2309 1.363 . S
C2305 H2276 0.950 . S
C2305 C2304 1.397 . S
C2305 C2306 1.334 . S
C2306 H2277 0.950 . S
C2306 C2305 1.334 . S
C2306 C2307 1.287 . S
C2307 C2306 1.287 . S
C2307 C2308 1.524 . S
C2307 H2310 0.999 . S
C2308 H2278 0.950 . S
C2308 C2307 1.524 . S
C2308 C2309 1.415 . S
C2309 H2279 0.950 . S
C2309 C2304 1.363 . S
C2309 C2308 1.415 . S
H2310 C2307 0.999 . S
H2311 C2292 0.913 . S
H2312 C2330 0.951 . S
H2313 C2332 0.951 . S
H2314 C2334 0.950 . S
H2315 C2335 0.950 . S
H2316 C2337 0.950 . S
H2317 C2340 0.950 . S
H2318 C2341 0.950 . S
H2319 C2343 0.950 . S
H2320 C2344 0.950 . S
H2321 C2345 0.951 . S
H2322 C2347 0.951 . S
H2323 C2349 0.950 . S
H2324 C2350 0.950 . S
H2325 C2352 0.950 . S
H2326 C2355 0.950 . S
H2327 C2356 0.950 . S
H2328 C2358 0.950 . S
H2329 C2359 0.950 . S
C2330 H2312 0.951 . S
C2330 C2331 1.366 . S
C2330 C2332 1.388 . S
C2331 C2330 1.366 . S
C2331 C2335 1.385 . S
C2332 H2313 0.951 . S
C2332 C2330 1.388 . S
C2332 C2333 1.366 . S
C2333 C2332 1.366 . S
C2333 C2334 1.414 . S
C2333 C2336 1.499 . S
C2334 H2314 0.950 . S
C2334 C2333 1.414 . S
C2334 C2335 1.374 . S
C2335 H2315 0.950 . S
C2335 C2331 1.385 . S
C2335 C2334 1.374 . S
C2336 C2333 1.499 . S
C2336 C2337 1.373 . S
C2336 C2338 1.389 . S
C2337 H2316 0.950 . S
C2337 C2336 1.373 . S
C2337 C2353 1.377 . S
C2338 C2336 1.389 . S
C2338 C2339 1.524 . S
C2338 C2352 1.377 . S
C2339 C2338 1.524 . S
C2339 C2340 1.397 . S
C2339 C2344 1.363 . S
C2340 H2317 0.950 . S
C2340 C2339 1.397 . S
C2340 C2341 1.334 . S
C2341 H2318 0.950 . S
C2341 C2340 1.334 . S
C2341 C2342 1.287 . S
C2342 C2341 1.287 . S
C2342 C2343 1.524 . S
C2342 H2361 0.913 . S
C2343 H2319 0.950 . S
C2343 C2342 1.524 . S
C2343 C2344 1.415 . S
C2344 H2320 0.950 . S
C2344 C2339 1.363 . S
C2344 C2343 1.415 . S
C2345 H2321 0.951 . S
C2345 C2346 1.366 . S
C2345 C2347 1.388 . S
C2346 C2345 1.366 . S
C2346 C2350 1.385 . S
C2347 H2322 0.951 . S
C2347 C2345 1.388 . S
C2347 C2348 1.366 . S
C2348 C2347 1.366 . S
C2348 C2349 1.414 . S
C2348 C2351 1.499 . S
C2349 H2323 0.950 . S
C2349 C2348 1.414 . S
C2349 C2350 1.374 . S
C2350 H2324 0.950 . S
C2350 C2346 1.385 . S
C2350 C2349 1.374 . S
C2351 C2348 1.499 . S
C2351 C2352 1.373 . S
C2351 C2353 1.389 . S
C2352 H2325 0.950 . S
C2352 C2338 1.377 . S
C2352 C2351 1.373 . S
C2353 C2337 1.377 . S
C2353 C2351 1.389 . S
C2353 C2354 1.524 . S
C2354 C2353 1.524 . S
C2354 C2355 1.397 . S
C2354 C2359 1.363 . S
C2355 H2326 0.950 . S
C2355 C2354 1.397 . S
C2355 C2356 1.334 . S
C2356 H2327 0.950 . S
C2356 C2355 1.334 . S
C2356 C2357 1.287 . S
C2357 C2356 1.287 . S
C2357 C2358 1.524 . S
C2357 H2360 0.999 . S
C2358 H2328 0.950 . S
C2358 C2357 1.524 . S
C2358 C2359 1.415 . S
C2359 H2329 0.950 . S
C2359 C2354 1.363 . S
C2359 C2358 1.415 . S
H2360 C2357 0.999 . S
H2361 C2342 0.913 . S
H2362 C2380 0.951 . S
H2363 C2382 0.951 . S
H2364 C2384 0.950 . S
H2365 C2385 0.950 . S
H2366 C2387 0.950 . S
H2367 C2390 0.950 . S
H2368 C2391 0.950 . S
H2369 C2393 0.950 . S
H2370 C2394 0.950 . S
H2371 C2395 0.951 . S
H2372 C2397 0.951 . S
H2373 C2399 0.950 . S
H2374 C2400 0.950 . S
H2375 C2402 0.950 . S
H2376 C2405 0.950 . S
H2377 C2406 0.950 . S
H2378 C2408 0.950 . S
H2379 C2409 0.950 . S
C2380 H2362 0.951 . S
C2380 C2381 1.366 . S
C2380 C2382 1.388 . S
C2381 C2380 1.366 . S
C2381 C2385 1.385 . S
C2382 H2363 0.951 . S
C2382 C2380 1.388 . S
C2382 C2383 1.366 . S
C2383 C2382 1.366 . S
C2383 C2384 1.414 . S
C2383 C2386 1.499 . S
C2384 H2364 0.950 . S
C2384 C2383 1.414 . S
C2384 C2385 1.374 . S
C2385 H2365 0.950 . S
C2385 C2381 1.385 . S
C2385 C2384 1.374 . S
C2386 C2383 1.499 . S
C2386 C2387 1.373 . S
C2386 C2388 1.389 . S
C2387 H2366 0.950 . S
C2387 C2386 1.373 . S
C2387 C2403 1.377 . S
C2388 C2386 1.389 . S
C2388 C2389 1.524 . S
C2388 C2402 1.377 . S
C2389 C2388 1.524 . S
C2389 C2390 1.397 . S
C2389 C2394 1.363 . S
C2390 H2367 0.950 . S
C2390 C2389 1.397 . S
C2390 C2391 1.334 . S
C2391 H2368 0.950 . S
C2391 C2390 1.334 . S
C2391 C2392 1.287 . S
C2392 C2391 1.287 . S
C2392 C2393 1.524 . S
C2392 H2411 0.913 . S
C2393 H2369 0.950 . S
C2393 C2392 1.524 . S
C2393 C2394 1.415 . S
C2394 H2370 0.950 . S
C2394 C2389 1.363 . S
C2394 C2393 1.415 . S
C2395 H2371 0.951 . S
C2395 C2396 1.366 . S
C2395 C2397 1.388 . S
C2396 C2395 1.366 . S
C2396 C2400 1.385 . S
C2397 H2372 0.951 . S
C2397 C2395 1.388 . S
C2397 C2398 1.366 . S
C2398 C2397 1.366 . S
C2398 C2399 1.414 . S
C2398 C2401 1.499 . S
C2399 H2373 0.950 . S
C2399 C2398 1.414 . S
C2399 C2400 1.374 . S
C2400 H2374 0.950 . S
C2400 C2396 1.385 . S
C2400 C2399 1.374 . S
C2401 C2398 1.499 . S
C2401 C2402 1.373 . S
C2401 C2403 1.389 . S
C2402 H2375 0.950 . S
C2402 C2388 1.377 . S
C2402 C2401 1.373 . S
C2403 C2387 1.377 . S
C2403 C2401 1.389 . S
C2403 C2404 1.524 . S
C2404 C2403 1.524 . S
C2404 C2405 1.397 . S
C2404 C2409 1.363 . S
C2405 H2376 0.950 . S
C2405 C2404 1.397 . S
C2405 C2406 1.334 . S
C2406 H2377 0.950 . S
C2406 C2405 1.334 . S
C2406 C2407 1.287 . S
C2407 C2406 1.287 . S
C2407 C2408 1.524 . S
C2407 H2410 0.999 . S
C2408 H2378 0.950 . S
C2408 C2407 1.524 . S
C2408 C2409 1.415 . S
C2409 H2379 0.950 . S
C2409 C2404 1.363 . S
C2409 C2408 1.415 . S
H2410 C2407 0.999 . S
H2411 C2392 0.913 . S
H2412 C2430 0.951 . S
H2413 C2432 0.951 . S
H2414 C2434 0.950 . S
H2415 C2435 0.950 . S
H2416 C2437 0.950 . S
H2417 C2440 0.950 . S
H2418 C2441 0.950 . S
H2419 C2443 0.950 . S
H2420 C2444 0.950 . S
H2421 C2445 0.951 . S
H2422 C2447 0.951 . S
H2423 C2449 0.950 . S
H2424 C2450 0.950 . S
H2425 C2452 0.950 . S
H2426 C2455 0.950 . S
H2427 C2456 0.950 . S
H2428 C2458 0.950 . S
H2429 C2459 0.950 . S
C2430 H2412 0.951 . S
C2430 C2431 1.366 . S
C2430 C2432 1.388 . S
C2431 C2430 1.366 . S
C2431 C2435 1.385 . S
C2432 H2413 0.951 . S
C2432 C2430 1.388 . S
C2432 C2433 1.366 . S
C2433 C2432 1.366 . S
C2433 C2434 1.414 . S
C2433 C2436 1.499 . S
C2434 H2414 0.950 . S
C2434 C2433 1.414 . S
C2434 C2435 1.374 . S
C2435 H2415 0.950 . S
C2435 C2431 1.385 . S
C2435 C2434 1.374 . S
C2436 C2433 1.499 . S
C2436 C2437 1.373 . S
C2436 C2438 1.389 . S
C2437 H2416 0.950 . S
C2437 C2436 1.373 . S
C2437 C2453 1.377 . S
C2438 C2436 1.389 . S
C2438 C2439 1.524 . S
C2438 C2452 1.377 . S
C2439 C2438 1.524 . S
C2439 C2440 1.397 . S
C2439 C2444 1.363 . S
C2440 H2417 0.950 . S
C2440 C2439 1.397 . S
C2440 C2441 1.334 . S
C2441 H2418 0.950 . S
C2441 C2440 1.334 . S
C2441 C2442 1.287 . S
C2442 C2441 1.287 . S
C2442 C2443 1.524 . S
C2442 H2461 0.913 . S
C2443 H2419 0.950 . S
C2443 C2442 1.524 . S
C2443 C2444 1.415 . S
C2444 H2420 0.950 . S
C2444 C2439 1.363 . S
C2444 C2443 1.415 . S
C2445 H2421 0.951 . S
C2445 C2446 1.366 . S
C2445 C2447 1.388 . S
C2446 C2445 1.366 . S
C2446 C2450 1.385 . S
C2447 H2422 0.951 . S
C2447 C2445 1.388 . S
C2447 C2448 1.366 . S
C2448 C2447 1.366 . S
C2448 C2449 1.414 . S
C2448 C2451 1.499 . S
C2449 H2423 0.950 . S
C2449 C2448 1.414 . S
C2449 C2450 1.374 . S
C2450 H2424 0.950 . S
C2450 C2446 1.385 . S
C2450 C2449 1.374 . S
C2451 C2448 1.499 . S
C2451 C2452 1.373 . S
C2451 C2453 1.389 . S
C2452 H2425 0.950 . S
C2452 C2438 1.377 . S
C2452 C2451 1.373 . S
C2453 C2437 1.377 . S
C2453 C2451 1.389 . S
C2453 C2454 1.524 . S
C2454 C2453 1.524 . S
C2454 C2455 1.397 . S
C2454 C2459 1.363 . S
C2455 H2426 0.950 . S
C2455 C2454 1.397 . S
C2455 C2456 1.334 . S
C2456 H2427 0.950 . S
C2456 C2455 1.334 . S
C2456 C2457 1.287 . S
C2457 C2456 1.287 . S
C2457 C2458 1.524 . S
C2457 H2460 0.999 . S
C2458 H2428 0.950 . S
C2458 C2457 1.524 . S
C2458 C2459 1.415 . S
C2459 H2429 0.950 . S
C2459 C2454 1.363 . S
C2459 C2458 1.415 . S
H2460 C2457 0.999 . S
H2461 C2442 0.913 . S
H2462 C2480 0.951 . S
H2463 C2482 0.951 . S
H2464 C2484 0.950 . S
H2465 C2485 0.950 . S
H2466 C2487 0.950 . S
H2467 C2490 0.950 . S
H2468 C2491 0.950 . S
H2469 C2493 0.950 . S
H2470 C2494 0.950 . S
H2471 C2495 0.951 . S
H2472 C2497 0.951 . S
H2473 C2499 0.950 . S
H2474 C2500 0.950 . S
H2475 C2502 0.950 . S
H2476 C2505 0.950 . S
H2477 C2506 0.950 . S
H2478 C2508 0.950 . S
H2479 C2509 0.950 . S
C2480 H2462 0.951 . S
C2480 C2481 1.366 . S
C2480 C2482 1.388 . S
C2481 C2480 1.366 . S
C2481 C2485 1.385 . S
C2482 H2463 0.951 . S
C2482 C2480 1.388 . S
C2482 C2483 1.366 . S
C2483 C2482 1.366 . S
C2483 C2484 1.414 . S
C2483 C2486 1.499 . S
C2484 H2464 0.950 . S
C2484 C2483 1.414 . S
C2484 C2485 1.374 . S
C2485 H2465 0.950 . S
C2485 C2481 1.385 . S
C2485 C2484 1.374 . S
C2486 C2483 1.499 . S
C2486 C2487 1.373 . S
C2486 C2488 1.389 . S
C2487 H2466 0.950 . S
C2487 C2486 1.373 . S
C2487 C2503 1.377 . S
C2488 C2486 1.389 . S
C2488 C2489 1.524 . S
C2488 C2502 1.377 . S
C2489 C2488 1.524 . S
C2489 C2490 1.397 . S
C2489 C2494 1.363 . S
C2490 H2467 0.950 . S
C2490 C2489 1.397 . S
C2490 C2491 1.334 . S
C2491 H2468 0.950 . S
C2491 C2490 1.334 . S
C2491 C2492 1.287 . S
C2492 C2491 1.287 . S
C2492 C2493 1.524 . S
C2492 H2511 0.913 . S
C2493 H2469 0.950 . S
C2493 C2492 1.524 . S
C2493 C2494 1.415 . S
C2494 H2470 0.950 . S
C2494 C2489 1.363 . S
C2494 C2493 1.415 . S
C2495 H2471 0.951 . S
C2495 C2496 1.366 . S
C2495 C2497 1.388 . S
C2496 C2495 1.366 . S
C2496 C2500 1.385 . S
C2497 H2472 0.951 . S
C2497 C2495 1.388 . S
C2497 C2498 1.366 . S
C2498 C2497 1.366 . S
C2498 C2499 1.414 . S
C2498 C2501 1.499 . S
C2499 H2473 0.950 . S
C2499 C2498 1.414 . S
C2499 C2500 1.374 . S
C2500 H2474 0.950 . S
C2500 C2496 1.385 . S
C2500 C2499 1.374 . S
C2501 C2498 1.499 . S
C2501 C2502 1.373 . S
C2501 C2503 1.389 . S
C2502 H2475 0.950 . S
C2502 C2488 1.377 . S
C2502 C2501 1.373 . S
C2503 C2487 1.377 . S
C2503 C2501 1.389 . S
C2503 C2504 1.524 . S
C2504 C2503 1.524 . S
C2504 C2505 1.397 . S
C2504 C2509 1.363 . S
C2505 H2476 0.950 . S
C2505 C2504 1.397 . S
C2505 C2506 1.334 . S
C2506 H2477 0.950 . S
C2506 C2505 1.334 . S
C2506 C2507 1.287 . S
C2507 C2506 1.287 . S
C2507 C2508 1.524 . S
C2507 H2510 0.999 . S
C2508 H2478 0.950 . S
C2508 C2507 1.524 . S
C2508 C2509 1.415 . S
C2509 H2479 0.950 . S
C2509 C2504 1.363 . S
C2509 C2508 1.415 . S
H2510 C2507 0.999 . S
H2511 C2492 0.913 . S
H2512 C2530 0.951 . S
H2513 C2532 0.951 . S
H2514 C2534 0.950 . S
H2515 C2535 0.950 . S
H2516 C2537 0.950 . S
H2517 C2540 0.950 . S
H2518 C2541 0.950 . S
H2519 C2543 0.950 . S
H2520 C2544 0.950 . S
H2521 C2545 0.951 . S
H2522 C2547 0.951 . S
H2523 C2549 0.950 . S
H2524 C2550 0.950 . S
H2525 C2552 0.950 . S
H2526 C2555 0.950 . S
H2527 C2556 0.950 . S
H2528 C2558 0.950 . S
H2529 C2559 0.950 . S
C2530 H2512 0.951 . S
C2530 C2531 1.366 . S
C2530 C2532 1.388 . S
C2531 C2530 1.366 . S
C2531 C2535 1.385 . S
C2532 H2513 0.951 . S
C2532 C2530 1.388 . S
C2532 C2533 1.366 . S
C2533 C2532 1.366 . S
C2533 C2534 1.414 . S
C2533 C2536 1.499 . S
C2534 H2514 0.950 . S
C2534 C2533 1.414 . S
C2534 C2535 1.374 . S
C2535 H2515 0.950 . S
C2535 C2531 1.385 . S
C2535 C2534 1.374 . S
C2536 C2533 1.499 . S
C2536 C2537 1.373 . S
C2536 C2538 1.389 . S
C2537 H2516 0.950 . S
C2537 C2536 1.373 . S
C2537 C2553 1.377 . S
C2538 C2536 1.389 . S
C2538 C2539 1.524 . S
C2538 C2552 1.377 . S
C2539 C2538 1.524 . S
C2539 C2540 1.397 . S
C2539 C2544 1.363 . S
C2540 H2517 0.950 . S
C2540 C2539 1.397 . S
C2540 C2541 1.334 . S
C2541 H2518 0.950 . S
C2541 C2540 1.334 . S
C2541 C2542 1.287 . S
C2542 C2541 1.287 . S
C2542 C2543 1.524 . S
C2542 H2561 0.913 . S
C2543 H2519 0.950 . S
C2543 C2542 1.524 . S
C2543 C2544 1.415 . S
C2544 H2520 0.950 . S
C2544 C2539 1.363 . S
C2544 C2543 1.415 . S
C2545 H2521 0.951 . S
C2545 C2546 1.366 . S
C2545 C2547 1.388 . S
C2546 C2545 1.366 . S
C2546 C2550 1.385 . S
C2547 H2522 0.951 . S
C2547 C2545 1.388 . S
C2547 C2548 1.366 . S
C2548 C2547 1.366 . S
C2548 C2549 1.414 . S
C2548 C2551 1.499 . S
C2549 H2523 0.950 . S
C2549 C2548 1.414 . S
C2549 C2550 1.374 . S
C2550 H2524 0.950 . S
C2550 C2546 1.385 . S
C2550 C2549 1.374 . S
C2551 C2548 1.499 . S
C2551 C2552 1.373 . S
C2551 C2553 1.389 . S
C2552 H2525 0.950 . S
C2552 C2538 1.377 . S
C2552 C2551 1.373 . S
C2553 C2537 1.377 . S
C2553 C2551 1.389 . S
C2553 C2554 1.524 . S
C2554 C2553 1.524 . S
C2554 C2555 1.397 . S
C2554 C2559 1.363 . S
C2555 H2526 0.950 . S
C2555 C2554 1.397 . S
C2555 C2556 1.334 . S
C2556 H2527 0.950 . S
C2556 C2555 1.334 . S
C2556 C2557 1.287 . S
C2557 C2556 1.287 . S
C2557 C2558 1.524 . S
C2557 H2560 0.999 . S
C2558 H2528 0.950 . S
C2558 C2557 1.524 . S
C2558 C2559 1.415 . S
C2559 H2529 0.950 . S
C2559 C2554 1.363 . S
C2559 C2558 1.415 . S
H2560 C2557 0.999 . S
H2561 C2542 0.913 . S
H2562 C2580 0.951 . S
H2563 C2582 0.951 . S
H2564 C2584 0.950 . S
H2565 C2585 0.950 . S
H2566 C2587 0.950 . S
H2567 C2590 0.950 . S
H2568 C2591 0.950 . S
H2569 C2593 0.950 . S
H2570 C2594 0.950 . S
H2571 C2595 0.951 . S
H2572 C2597 0.951 . S
H2573 C2599 0.950 . S
H2574 C2600 0.950 . S
H2575 C2602 0.950 . S
H2576 C2605 0.950 . S
H2577 C2606 0.950 . S
H2578 C2608 0.950 . S
H2579 C2609 0.950 . S
C2580 H2562 0.951 . S
C2580 C2581 1.366 . S
C2580 C2582 1.388 . S
C2581 C2580 1.366 . S
C2581 C2585 1.385 . S
C2582 H2563 0.951 . S
C2582 C2580 1.388 . S
C2582 C2583 1.366 . S
C2583 C2582 1.366 . S
C2583 C2584 1.414 . S
C2583 C2586 1.499 . S
C2584 H2564 0.950 . S
C2584 C2583 1.414 . S
C2584 C2585 1.374 . S
C2585 H2565 0.950 . S
C2585 C2581 1.385 . S
C2585 C2584 1.374 . S
C2586 C2583 1.499 . S
C2586 C2587 1.373 . S
C2586 C2588 1.389 . S
C2587 H2566 0.950 . S
C2587 C2586 1.373 . S
C2587 C2603 1.377 . S
C2588 C2586 1.389 . S
C2588 C2589 1.524 . S
C2588 C2602 1.377 . S
C2589 C2588 1.524 . S
C2589 C2590 1.397 . S
C2589 C2594 1.363 . S
C2590 H2567 0.950 . S
C2590 C2589 1.397 . S
C2590 C2591 1.334 . S
C2591 H2568 0.950 . S
C2591 C2590 1.334 . S
C2591 C2592 1.287 . S
C2592 C2591 1.287 . S
C2592 C2593 1.524 . S
C2592 H2611 0.913 . S
C2593 H2569 0.950 . S
C2593 C2592 1.524 . S
C2593 C2594 1.415 . S
C2594 H2570 0.950 . S
C2594 C2589 1.363 . S
C2594 C2593 1.415 . S
C2595 H2571 0.951 . S
C2595 C2596 1.366 . S
C2595 C2597 1.388 . S
C2596 C2595 1.366 . S
C2596 C2600 1.385 . S
C2597 H2572 0.951 . S
C2597 C2595 1.388 . S
C2597 C2598 1.366 . S
C2598 C2597 1.366 . S
C2598 C2599 1.414 . S
C2598 C2601 1.499 . S
C2599 H2573 0.950 . S
C2599 C2598 1.414 . S
C2599 C2600 1.374 . S
C2600 H2574 0.950 . S
C2600 C2596 1.385 . S
C2600 C2599 1.374 . S
C2601 C2598 1.499 . S
C2601 C2602 1.373 . S
C2601 C2603 1.389 . S
C2602 H2575 0.950 . S
C2602 C2588 1.377 . S
C2602 C2601 1.373 . S
C2603 C2587 1.377 . S
C2603 C2601 1.389 . S
C2603 C2604 1.524 . S
C2604 C2603 1.524 . S
C2604 C2605 1.397 . S
C2604 C2609 1.363 . S
C2605 H2576 0.950 . S
C2605 C2604 1.397 . S
C2605 C2606 1.334 . S
C2606 H2577 0.950 . S
C2606 C2605 1.334 . S
C2606 C2607 1.287 . S
C2607 C2606 1.287 . S
C2607 C2608 1.524 . S
C2607 H2610 0.999 . S
C2608 H2578 0.950 . S
C2608 C2607 1.524 . S
C2608 C2609 1.415 . S
C2609 H2579 0.950 . S
C2609 C2604 1.363 . S
C2609 C2608 1.415 . S
H2610 C2607 0.999 . S
H2611 C2592 0.913 . S
H2612 C2630 0.951 . S
H2613 C2632 0.951 . S
H2614 C2634 0.950 . S
H2615 C2635 0.950 . S
H2616 C2637 0.950 . S
H2617 C2640 0.950 . S
H2618 C2641 0.950 . S
H2619 C2643 0.950 . S
H2620 C2644 0.950 . S
H2621 C2645 0.951 . S
H2622 C2647 0.951 . S
H2623 C2649 0.950 . S
H2624 C2650 0.950 . S
H2625 C2652 0.950 . S
H2626 C2655 0.950 . S
H2627 C2656 0.950 . S
H2628 C2658 0.950 . S
H2629 C2659 0.950 . S
C2630 H2612 0.951 . S
C2630 C2631 1.366 . S
C2630 C2632 1.388 . S
C2631 C2630 1.366 . S
C2631 C2635 1.385 . S
C2632 H2613 0.951 . S
C2632 C2630 1.388 . S
C2632 C2633 1.366 . S
C2633 C2632 1.366 . S
C2633 C2634 1.414 . S
C2633 C2636 1.499 . S
C2634 H2614 0.950 . S
C2634 C2633 1.414 . S
C2634 C2635 1.374 . S
C2635 H2615 0.950 . S
C2635 C2631 1.385 . S
C2635 C2634 1.374 . S
C2636 C2633 1.499 . S
C2636 C2637 1.373 . S
C2636 C2638 1.389 . S
C2637 H2616 0.950 . S
C2637 C2636 1.373 . S
C2637 C2653 1.377 . S
C2638 C2636 1.389 . S
C2638 C2639 1.524 . S
C2638 C2652 1.377 . S
C2639 C2638 1.524 . S
C2639 C2640 1.397 . S
C2639 C2644 1.363 . S
C2640 H2617 0.950 . S
C2640 C2639 1.397 . S
C2640 C2641 1.334 . S
C2641 H2618 0.950 . S
C2641 C2640 1.334 . S
C2641 C2642 1.287 . S
C2642 C2641 1.287 . S
C2642 C2643 1.524 . S
C2642 H2661 0.913 . S
C2643 H2619 0.950 . S
C2643 C2642 1.524 . S
C2643 C2644 1.415 . S
C2644 H2620 0.950 . S
C2644 C2639 1.363 . S
C2644 C2643 1.415 . S
C2645 H2621 0.951 . S
C2645 C2646 1.366 . S
C2645 C2647 1.388 . S
C2646 C2645 1.366 . S
C2646 C2650 1.385 . S
C2647 H2622 0.951 . S
C2647 C2645 1.388 . S
C2647 C2648 1.366 . S
C2648 C2647 1.366 . S
C2648 C2649 1.414 . S
C2648 C2651 1.499 . S
C2649 H2623 0.950 . S
C2649 C2648 1.414 . S
C2649 C2650 1.374 . S
C2650 H2624 0.950 . S
C2650 C2646 1.385 . S
C2650 C2649 1.374 . S
C2651 C2648 1.499 . S
C2651 C2652 1.373 . S
C2651 C2653 1.389 . S
C2652 H2625 0.950 . S
C2652 C2638 1.377 . S
C2652 C2651 1.373 . S
C2653 C2637 1.377 . S
C2653 C2651 1.389 . S
C2653 C2654 1.524 . S
C2654 C2653 1.524 . S
C2654 C2655 1.397 . S
C2654 C2659 1.363 . S
C2655 H2626 0.950 . S
C2655 C2654 1.397 . S
C2655 C2656 1.334 . S
C2656 H2627 0.950 . S
C2656 C2655 1.334 . S
C2656 C2657 1.287 . S
C2657 C2656 1.287 . S
C2657 C2658 1.524 . S
C2657 H2660 0.999 . S
C2658 H2628 0.950 . S
C2658 C2657 1.524 . S
C2658 C2659 1.415 . S
C2659 H2629 0.950 . S
C2659 C2654 1.363 . S
C2659 C2658 1.415 . S
H2660 C2657 0.999 . S
H2661 C2642 0.913 . S
H2662 C2680 0.951 . S
H2663 C2682 0.951 . S
H2664 C2684 0.950 . S
H2665 C2685 0.950 . S
H2666 C2687 0.950 . S
H2667 C2690 0.950 . S
H2668 C2691 0.950 . S
H2669 C2693 0.950 . S
H2670 C2694 0.950 . S
H2671 C2695 0.951 . S
H2672 C2697 0.951 . S
H2673 C2699 0.950 . S
H2674 C2700 0.950 . S
H2675 C2702 0.950 . S
H2676 C2705 0.950 . S
H2677 C2706 0.950 . S
H2678 C2708 0.950 . S
H2679 C2709 0.950 . S
C2680 H2662 0.951 . S
C2680 C2681 1.366 . S
C2680 C2682 1.388 . S
C2681 C2680 1.366 . S
C2681 C2685 1.385 . S
C2682 H2663 0.951 . S
C2682 C2680 1.388 . S
C2682 C2683 1.366 . S
C2683 C2682 1.366 . S
C2683 C2684 1.414 . S
C2683 C2686 1.499 . S
C2684 H2664 0.950 . S
C2684 C2683 1.414 . S
C2684 C2685 1.374 . S
C2685 H2665 0.950 . S
C2685 C2681 1.385 . S
C2685 C2684 1.374 . S
C2686 C2683 1.499 . S
C2686 C2687 1.373 . S
C2686 C2688 1.389 . S
C2687 H2666 0.950 . S
C2687 C2686 1.373 . S
C2687 C2703 1.377 . S
C2688 C2686 1.389 . S
C2688 C2689 1.524 . S
C2688 C2702 1.377 . S
C2689 C2688 1.524 . S
C2689 C2690 1.397 . S
C2689 C2694 1.363 . S
C2690 H2667 0.950 . S
C2690 C2689 1.397 . S
C2690 C2691 1.334 . S
C2691 H2668 0.950 . S
C2691 C2690 1.334 . S
C2691 C2692 1.287 . S
C2692 C2691 1.287 . S
C2692 C2693 1.524 . S
C2692 H2711 0.913 . S
C2693 H2669 0.950 . S
C2693 C2692 1.524 . S
C2693 C2694 1.415 . S
C2694 H2670 0.950 . S
C2694 C2689 1.363 . S
C2694 C2693 1.415 . S
C2695 H2671 0.951 . S
C2695 C2696 1.366 . S
C2695 C2697 1.388 . S
C2696 C2695 1.366 . S
C2696 C2700 1.385 . S
C2697 H2672 0.951 . S
C2697 C2695 1.388 . S
C2697 C2698 1.366 . S
C2698 C2697 1.366 . S
C2698 C2699 1.414 . S
C2698 C2701 1.499 . S
C2699 H2673 0.950 . S
C2699 C2698 1.414 . S
C2699 C2700 1.374 . S
C2700 H2674 0.950 . S
C2700 C2696 1.385 . S
C2700 C2699 1.374 . S
C2701 C2698 1.499 . S
C2701 C2702 1.373 . S
C2701 C2703 1.389 . S
C2702 H2675 0.950 . S
C2702 C2688 1.377 . S
C2702 C2701 1.373 . S
C2703 C2687 1.377 . S
C2703 C2701 1.389 . S
C2703 C2704 1.524 . S
C2704 C2703 1.524 . S
C2704 C2705 1.397 . S
C2704 C2709 1.363 . S
C2705 H2676 0.950 . S
C2705 C2704 1.397 . S
C2705 C2706 1.334 . S
C2706 H2677 0.950 . S
C2706 C2705 1.334 . S
C2706 C2707 1.287 . S
C2707 C2706 1.287 . S
C2707 C2708 1.524 . S
C2707 H2710 0.999 . S
C2708 H2678 0.950 . S
C2708 C2707 1.524 . S
C2708 C2709 1.415 . S
C2709 H2679 0.950 . S
C2709 C2704 1.363 . S
C2709 C2708 1.415 . S
H2710 C2707 0.999 . S
H2711 C2692 0.913 . S
H2712 C2730 0.951 . S
H2713 C2732 0.951 . S
H2714 C2734 0.950 . S
H2715 C2735 0.950 . S
H2716 C2737 0.950 . S
H2717 C2740 0.950 . S
H2718 C2741 0.950 . S
H2719 C2743 0.950 . S
H2720 C2744 0.950 . S
H2721 C2745 0.951 . S
H2722 C2747 0.951 . S
H2723 C2749 0.950 . S
H2724 C2750 0.950 . S
H2725 C2752 0.950 . S
H2726 C2755 0.950 . S
H2727 C2756 0.950 . S
H2728 C2758 0.950 . S
H2729 C2759 0.950 . S
C2730 H2712 0.951 . S
C2730 C2731 1.366 . S
C2730 C2732 1.388 . S
C2731 C2730 1.366 . S
C2731 C2735 1.385 . S
C2732 H2713 0.951 . S
C2732 C2730 1.388 . S
C2732 C2733 1.366 . S
C2733 C2732 1.366 . S
C2733 C2734 1.414 . S
C2733 C2736 1.499 . S
C2734 H2714 0.950 . S
C2734 C2733 1.414 . S
C2734 C2735 1.374 . S
C2735 H2715 0.950 . S
C2735 C2731 1.385 . S
C2735 C2734 1.374 . S
C2736 C2733 1.499 . S
C2736 C2737 1.373 . S
C2736 C2738 1.389 . S
C2737 H2716 0.950 . S
C2737 C2736 1.373 . S
C2737 C2753 1.377 . S
C2738 C2736 1.389 . S
C2738 C2739 1.524 . S
C2738 C2752 1.377 . S
C2739 C2738 1.524 . S
C2739 C2740 1.397 . S
C2739 C2744 1.363 . S
C2740 H2717 0.950 . S
C2740 C2739 1.397 . S
C2740 C2741 1.334 . S
C2741 H2718 0.950 . S
C2741 C2740 1.334 . S
C2741 C2742 1.287 . S
C2742 C2741 1.287 . S
C2742 C2743 1.524 . S
C2742 H2761 0.913 . S
C2743 H2719 0.950 . S
C2743 C2742 1.524 . S
C2743 C2744 1.415 . S
C2744 H2720 0.950 . S
C2744 C2739 1.363 . S
C2744 C2743 1.415 . S
C2745 H2721 0.951 . S
C2745 C2746 1.366 . S
C2745 C2747 1.388 . S
C2746 C2745 1.366 . S
C2746 C2750 1.385 . S
C2747 H2722 0.951 . S
C2747 C2745 1.388 . S
C2747 C2748 1.366 . S
C2748 C2747 1.366 . S
C2748 C2749 1.414 . S
C2748 C2751 1.499 . S
C2749 H2723 0.950 . S
C2749 C2748 1.414 . S
C2749 C2750 1.374 . S
C2750 H2724 0.950 . S
C2750 C2746 1.385 . S
C2750 C2749 1.374 . S
C2751 C2748 1.499 . S
C2751 C2752 1.373 . S
C2751 C2753 1.389 . S
C2752 H2725 0.950 . S
C2752 C2738 1.377 . S
C2752 C2751 1.373 . S
C2753 C2737 1.377 . S
C2753 C2751 1.389 . S
C2753 C2754 1.524 . S
C2754 C2753 1.524 . S
C2754 C2755 1.397 . S
C2754 C2759 1.363 . S
C2755 H2726 0.950 . S
C2755 C2754 1.397 . S
C2755 C2756 1.334 . S
C2756 H2727 0.950 . S
C2756 C2755 1.334 . S
C2756 C2757 1.287 . S
C2757 C2756 1.287 . S
C2757 C2758 1.524 . S
C2757 H2760 0.999 . S
C2758 H2728 0.950 . S
C2758 C2757 1.524 . S
C2758 C2759 1.415 . S
C2759 H2729 0.950 . S
C2759 C2754 1.363 . S
C2759 C2758 1.415 . S
H2760 C2757 0.999 . S
H2761 C2742 0.913 . S
H2762 C2780 0.951 . S
H2763 C2782 0.951 . S
H2764 C2784 0.950 . S
H2765 C2785 0.950 . S
H2766 C2787 0.950 . S
H2767 C2790 0.950 . S
H2768 C2791 0.950 . S
H2769 C2793 0.950 . S
H2770 C2794 0.950 . S
H2771 C2795 0.951 . S
H2772 C2797 0.951 . S
H2773 C2799 0.950 . S
H2774 C2800 0.950 . S
H2775 C2802 0.950 . S
H2776 C2805 0.950 . S
H2777 C2806 0.950 . S
H2778 C2808 0.950 . S
H2779 C2809 0.950 . S
C2780 H2762 0.951 . S
C2780 C2781 1.366 . S
C2780 C2782 1.388 . S
C2781 C2780 1.366 . S
C2781 C2785 1.385 . S
C2782 H2763 0.951 . S
C2782 C2780 1.388 . S
C2782 C2783 1.366 . S
C2783 C2782 1.366 . S
C2783 C2784 1.414 . S
C2783 C2786 1.499 . S
C2784 H2764 0.950 . S
C2784 C2783 1.414 . S
C2784 C2785 1.374 . S
C2785 H2765 0.950 . S
C2785 C2781 1.385 . S
C2785 C2784 1.374 . S
C2786 C2783 1.499 . S
C2786 C2787 1.373 . S
C2786 C2788 1.389 . S
C2787 H2766 0.950 . S
C2787 C2786 1.373 . S
C2787 C2803 1.377 . S
C2788 C2786 1.389 . S
C2788 C2789 1.524 . S
C2788 C2802 1.377 . S
C2789 C2788 1.524 . S
C2789 C2790 1.397 . S
C2789 C2794 1.363 . S
C2790 H2767 0.950 . S
C2790 C2789 1.397 . S
C2790 C2791 1.334 . S
C2791 H2768 0.950 . S
C2791 C2790 1.334 . S
C2791 C2792 1.287 . S
C2792 C2791 1.287 . S
C2792 C2793 1.524 . S
C2792 H2811 0.913 . S
C2793 H2769 0.950 . S
C2793 C2792 1.524 . S
C2793 C2794 1.415 . S
C2794 H2770 0.950 . S
C2794 C2789 1.363 . S
C2794 C2793 1.415 . S
C2795 H2771 0.951 . S
C2795 C2796 1.366 . S
C2795 C2797 1.388 . S
C2796 C2795 1.366 . S
C2796 C2800 1.385 . S
C2797 H2772 0.951 . S
C2797 C2795 1.388 . S
C2797 C2798 1.366 . S
C2798 C2797 1.366 . S
C2798 C2799 1.414 . S
C2798 C2801 1.499 . S
C2799 H2773 0.950 . S
C2799 C2798 1.414 . S
C2799 C2800 1.374 . S
C2800 H2774 0.950 . S
C2800 C2796 1.385 . S
C2800 C2799 1.374 . S
C2801 C2798 1.499 . S
C2801 C2802 1.373 . S
C2801 C2803 1.389 . S
C2802 H2775 0.950 . S
C2802 C2788 1.377 . S
C2802 C2801 1.373 . S
C2803 C2787 1.377 . S
C2803 C2801 1.389 . S
C2803 C2804 1.524 . S
C2804 C2803 1.524 . S
C2804 C2805 1.397 . S
C2804 C2809 1.363 . S
C2805 H2776 0.950 . S
C2805 C2804 1.397 . S
C2805 C2806 1.334 . S
C2806 H2777 0.950 . S
C2806 C2805 1.334 . S
C2806 C2807 1.287 . S
C2807 C2806 1.287 . S
C2807 C2808 1.524 . S
C2807 H2810 0.999 . S
C2808 H2778 0.950 . S
C2808 C2807 1.524 . S
C2808 C2809 1.415 . S
C2809 H2779 0.950 . S
C2809 C2804 1.363 . S
C2809 C2808 1.415 . S
H2810 C2807 0.999 . S
H2811 C2792 0.913 . S
H2812 C2830 0.951 . S
H2813 C2832 0.951 . S
H2814 C2834 0.950 . S
H2815 C2835 0.950 . S
H2816 C2837 0.950 . S
H2817 C2840 0.950 . S
H2818 C2841 0.950 . S
H2819 C2843 0.950 . S
H2820 C2844 0.950 . S
H2821 C2845 0.951 . S
H2822 C2847 0.951 . S
H2823 C2849 0.950 . S
H2824 C2850 0.950 . S
H2825 C2852 0.950 . S
H2826 C2855 0.950 . S
H2827 C2856 0.950 . S
H2828 C2858 0.950 . S
H2829 C2859 0.950 . S
C2830 H2812 0.951 . S
C2830 C2831 1.366 . S
C2830 C2832 1.388 . S
C2831 C2830 1.366 . S
C2831 C2835 1.385 . S
C2832 H2813 0.951 . S
C2832 C2830 1.388 . S
C2832 C2833 1.366 . S
C2833 C2832 1.366 . S
C2833 C2834 1.414 . S
C2833 C2836 1.499 . S
C2834 H2814 0.950 . S
C2834 C2833 1.414 . S
C2834 C2835 1.374 . S
C2835 H2815 0.950 . S
C2835 C2831 1.385 . S
C2835 C2834 1.374 . S
C2836 C2833 1.499 . S
C2836 C2837 1.373 . S
C2836 C2838 1.389 . S
C2837 H2816 0.950 . S
C2837 C2836 1.373 . S
C2837 C2853 1.377 . S
C2838 C2836 1.389 . S
C2838 C2839 1.524 . S
C2838 C2852 1.377 . S
C2839 C2838 1.524 . S
C2839 C2840 1.397 . S
C2839 C2844 1.363 . S
C2840 H2817 0.950 . S
C2840 C2839 1.397 . S
C2840 C2841 1.334 . S
C2841 H2818 0.950 . S
C2841 C2840 1.334 . S
C2841 C2842 1.287 . S
C2842 C2841 1.287 . S
C2842 C2843 1.524 . S
C2842 H2861 0.913 . S
C2843 H2819 0.950 . S
C2843 C2842 1.524 . S
C2843 C2844 1.415 . S
C2844 H2820 0.950 . S
C2844 C2839 1.363 . S
C2844 C2843 1.415 . S
C2845 H2821 0.951 . S
C2845 C2846 1.366 . S
C2845 C2847 1.388 . S
C2846 C2845 1.366 . S
C2846 C2850 1.385 . S
C2847 H2822 0.951 . S
C2847 C2845 1.388 . S
C2847 C2848 1.366 . S
C2848 C2847 1.366 . S
C2848 C2849 1.414 . S
C2848 C2851 1.499 . S
C2849 H2823 0.950 . S
C2849 C2848 1.414 . S
C2849 C2850 1.374 . S
C2850 H2824 0.950 . S
C2850 C2846 1.385 . S
C2850 C2849 1.374 . S
C2851 C2848 1.499 . S
C2851 C2852 1.373 . S
C2851 C2853 1.389 . S
C2852 H2825 0.950 . S
C2852 C2838 1.377 . S
C2852 C2851 1.373 . S
C2853 C2837 1.377 . S
C2853 C2851 1.389 . S
C2853 C2854 1.524 . S
C2854 C2853 1.524 . S
C2854 C2855 1.397 . S
C2854 C2859 1.363 . S
C2855 H2826 0.950 . S
C2855 C2854 1.397 . S
C2855 C2856 1.334 . S
C2856 H2827 0.950 . S
C2856 C2855 1.334 . S
C2856 C2857 1.287 . S
C2857 C2856 1.287 . S
C2857 C2858 1.524 . S
C2857 H2860 0.999 . S
C2858 H2828 0.950 . S
C2858 C2857 1.524 . S
C2858 C2859 1.415 . S
C2859 H2829 0.950 . S
C2859 C2854 1.363 . S
C2859 C2858 1.415 . S
H2860 C2857 0.999 . S
H2861 C2842 0.913 . S
C631 C349 1.291 . S
C646 C9 1.291 . S
C681 C43 1.291 . S
C696 C383 1.291 1_565 S
C731 C315 1.292 1_455 S
C746 C77 1.291 . S
C781 C485 1.291 . S
C796 C111 1.292 . S
C831 C145 1.292 . S
C846 C417 1.291 1_545 S
C881 C451 1.291 1_655 S
C896 C179 1.292 . S
C931 C172 2.062 . S
C946 C478 2.063 . S
C981 C410 2.063 . S
C996 C104 2.063 . S
C1031 C444 2.063 . S
C1046 C138 2.063 . S
C1081 C36 2.062 . S
C1096 C342 2.063 . S
C1131 C70 2.063 . S
C1146 C376 2.063 . S
C1181 C2 2.063 . S
C1196 C308 2.063 . S
C1231 C553 1.290 . S
C1246 C213 1.291 . S
C1281 C587 1.292 . S
C1296 C247 1.292 . S
C1331 C519 1.291 . S
C1346 C281 1.291 . S
C1381 C240 2.063 . S
C1396 C546 2.063 . S
C1431 C580 2.063 . S
C1446 C274 2.063 . S
C1481 C206 2.062 . S
C1496 C512 2.063 . S
C1531 C33 1.324 . S
C1546 C611 1.324 . S
C1581 C67 1.324 . S
C1596 C543 1.324 . S
C1631 C101 1.324 . S
C1646 C577 1.324 . S
C1681 C271 1.324 . S
C1696 C135 1.324 . S
C1731 C169 1.324 . S
C1746 C305 1.324 . S
C1781 C203 1.324 . S
C1796 C237 1.324 . S
C1831 C339 1.324 . S
C1846 C475 1.324 . S
C1881 C373 1.324 . S
C1896 C509 1.324 . S
C1931 C407 1.324 . S
C1946 C441 1.324 . S
C1981 C73 1.444 1_545 S
C1996 C20 1.531 . S
C2031 C54 1.532 . S
C2046 C5 1.445 1_655 S
C2081 C39 1.445 . S
C2096 C88 1.532 . S
C2131 C141 1.445 1_455 S
C2146 C122 1.532 . S
C2181 C156 1.532 . S
C2196 C175 1.445 . S
C2231 C107 1.445 1_565 S
C2246 C190 1.532 . S
C2281 C224 1.532 . S
C2296 C277 1.445 . S
C2331 C209 1.444 . S
C2346 C258 1.532 . S
C2381 C292 1.532 . S
C2396 C243 1.444 . S
C2431 C326 1.532 . S
C2446 C345 1.444 . S
C2481 C379 1.445 . S
C2496 C360 1.532 . S
C2531 C394 1.532 . S
C2546 C311 1.444 . S
C2581 C428 1.531 . S
C2596 C481 1.444 . S
C2631 C413 1.444 . S
C2646 C462 1.532 . S
C2681 C496 1.531 . S
C2696 C447 1.444 . S
C2731 C530 1.532 . S
C2746 C549 1.445 . S
C2781 C583 1.445 . S
C2796 C564 1.532 . S
C2831 C515 1.445 . S
C2846 C598 1.532 . S
