# Generated by pormake.
# Topology wiu, (6)-cn, num edge types: 1
# Building blocks:
#     Node 0, Type 0, BuildingBlock: GEDQOX_clean_sbu_0, # of connection points: 6
#     Node 1, Type 0, BuildingBlock: GEDQOX_clean_sbu_0, # of connection points: 6
#     Node 2, Type 0, BuildingBlock: GEDQOX_clean_sbu_0, # of connection points: 6
#     Node 3, Type 0, BuildingBlock: GEDQOX_clean_sbu_0, # of connection points: 6
#     Node 4, Type 0, BuildingBlock: GEDQOX_clean_sbu_0, # of connection points: 6
#     Node 5, Type 0, BuildingBlock: GEDQOX_clean_sbu_0, # of connection points: 6
#     Node 6, Type 0, BuildingBlock: GEDQOX_clean_sbu_0, # of connection points: 6
#     Node 7, Type 0, BuildingBlock: GEDQOX_clean_sbu_0, # of connection points: 6
#     Node 8, Type 0, BuildingBlock: GEDQOX_clean_sbu_0, # of connection points: 6
#     Node 9, Type 0, BuildingBlock: GEDQOX_clean_sbu_0, # of connection points: 6
#     Node 10, Type 0, BuildingBlock: GEDQOX_clean_sbu_0, # of connection points: 6
#     Node 11, Type 0, BuildingBlock: GEDQOX_clean_sbu_0, # of connection points: 6
#     Node 12, Type 0, BuildingBlock: GEDQOX_clean_sbu_0, # of connection points: 6
#     Node 13, Type 0, BuildingBlock: GEDQOX_clean_sbu_0, # of connection points: 6
#     Node 14, Type 0, BuildingBlock: GEDQOX_clean_sbu_0, # of connection points: 6
#     Node 15, Type 0, BuildingBlock: GEDQOX_clean_sbu_0, # of connection points: 6
#     Edge 16, Type (0, 0), BuildingBlock: AJUNOK_clean_linker_0, # of connection points: 2
#     Edge 17, Type (0, 0), BuildingBlock: AJUNOK_clean_linker_0, # of connection points: 2
#     Edge 18, Type (0, 0), BuildingBlock: AJUNOK_clean_linker_0, # of connection points: 2
#     Edge 19, Type (0, 0), BuildingBlock: AJUNOK_clean_linker_0, # of connection points: 2
#     Edge 20, Type (0, 0), BuildingBlock: AJUNOK_clean_linker_0, # of connection points: 2
#     Edge 21, Type (0, 0), BuildingBlock: AJUNOK_clean_linker_0, # of connection points: 2
#     Edge 22, Type (0, 0), BuildingBlock: AJUNOK_clean_linker_0, # of connection points: 2
#     Edge 23, Type (0, 0), BuildingBlock: AJUNOK_clean_linker_0, # of connection points: 2
#     Edge 24, Type (0, 0), BuildingBlock: AJUNOK_clean_linker_0, # of connection points: 2
#     Edge 25, Type (0, 0), BuildingBlock: AJUNOK_clean_linker_0, # of connection points: 2
#     Edge 26, Type (0, 0), BuildingBlock: AJUNOK_clean_linker_0, # of connection points: 2
#     Edge 27, Type (0, 0), BuildingBlock: AJUNOK_clean_linker_0, # of connection points: 2
#     Edge 28, Type (0, 0), BuildingBlock: AJUNOK_clean_linker_0, # of connection points: 2
#     Edge 29, Type (0, 0), BuildingBlock: AJUNOK_clean_linker_0, # of connection points: 2
#     Edge 30, Type (0, 0), BuildingBlock: AJUNOK_clean_linker_0, # of connection points: 2
#     Edge 31, Type (0, 0), BuildingBlock: AJUNOK_clean_linker_0, # of connection points: 2
#     Edge 32, Type (0, 0), BuildingBlock: AJUNOK_clean_linker_0, # of connection points: 2
#     Edge 33, Type (0, 0), BuildingBlock: AJUNOK_clean_linker_0, # of connection points: 2
#     Edge 34, Type (0, 0), BuildingBlock: AJUNOK_clean_linker_0, # of connection points: 2
#     Edge 35, Type (0, 0), BuildingBlock: AJUNOK_clean_linker_0, # of connection points: 2
#     Edge 36, Type (0, 0), BuildingBlock: AJUNOK_clean_linker_0, # of connection points: 2
#     Edge 37, Type (0, 0), BuildingBlock: AJUNOK_clean_linker_0, # of connection points: 2
#     Edge 38, Type (0, 0), BuildingBlock: AJUNOK_clean_linker_0, # of connection points: 2
#     Edge 39, Type (0, 0), BuildingBlock: AJUNOK_clean_linker_0, # of connection points: 2
#     Edge 40, Type (0, 0), BuildingBlock: AJUNOK_clean_linker_0, # of connection points: 2
#     Edge 41, Type (0, 0), BuildingBlock: AJUNOK_clean_linker_0, # of connection points: 2
#     Edge 42, Type (0, 0), BuildingBlock: AJUNOK_clean_linker_0, # of connection points: 2
#     Edge 43, Type (0, 0), BuildingBlock: AJUNOK_clean_linker_0, # of connection points: 2
#     Edge 44, Type (0, 0), BuildingBlock: AJUNOK_clean_linker_0, # of connection points: 2
#     Edge 45, Type (0, 0), BuildingBlock: AJUNOK_clean_linker_0, # of connection points: 2
#     Edge 46, Type (0, 0), BuildingBlock: AJUNOK_clean_linker_0, # of connection points: 2
#     Edge 47, Type (0, 0), BuildingBlock: AJUNOK_clean_linker_0, # of connection points: 2
#     Edge 48, Type (0, 0), BuildingBlock: AJUNOK_clean_linker_0, # of connection points: 2
#     Edge 49, Type (0, 0), BuildingBlock: AJUNOK_clean_linker_0, # of connection points: 2
#     Edge 50, Type (0, 0), BuildingBlock: AJUNOK_clean_linker_0, # of connection points: 2
#     Edge 51, Type (0, 0), BuildingBlock: AJUNOK_clean_linker_0, # of connection points: 2
#     Edge 52, Type (0, 0), BuildingBlock: AJUNOK_clean_linker_0, # of connection points: 2
#     Edge 53, Type (0, 0), BuildingBlock: AJUNOK_clean_linker_0, # of connection points: 2
#     Edge 54, Type (0, 0), BuildingBlock: AJUNOK_clean_linker_0, # of connection points: 2
#     Edge 55, Type (0, 0), BuildingBlock: AJUNOK_clean_linker_0, # of connection points: 2
#     Edge 56, Type (0, 0), BuildingBlock: AJUNOK_clean_linker_0, # of connection points: 2
#     Edge 57, Type (0, 0), BuildingBlock: AJUNOK_clean_linker_0, # of connection points: 2
#     Edge 58, Type (0, 0), BuildingBlock: AJUNOK_clean_linker_0, # of connection points: 2
#     Edge 59, Type (0, 0), BuildingBlock: AJUNOK_clean_linker_0, # of connection points: 2
#     Edge 60, Type (0, 0), BuildingBlock: AJUNOK_clean_linker_0, # of connection points: 2
#     Edge 61, Type (0, 0), BuildingBlock: AJUNOK_clean_linker_0, # of connection points: 2
#     Edge 62, Type (0, 0), BuildingBlock: AJUNOK_clean_linker_0, # of connection points: 2
#     Edge 63, Type (0, 0), BuildingBlock: AJUNOK_clean_linker_0, # of connection points: 2
# Relax obj value: 0.272
# Max RMSD: 0.339
# Mean RMSD: 0.278
data_MOF--net-wiu--node1-GEDQOX_clean_sbu_0--edge1-AJUNOK_clean_linker_0
_symmetry_space_group_name_H-M    P1
_symmetry_Int_Tables_number       1
_symmetry_cell_setting            triclinic
loop_
_symmetry_equiv_pos_as_xyz
'x, y, z'
_cell_length_a     22.44211
_cell_length_b     21.500046
_cell_length_c     69.83448
_cell_angle_alpha  73.768242
_cell_angle_beta   74.748756
_cell_angle_gamma 73.279105
loop_
_atom_site_label
_atom_site_type_symbol
_atom_site_fract_x
_atom_site_fract_y
_atom_site_fract_z
_atom_type_partial_charge
Nd0 Nd 0.36523 -0.01768 0.14927 0.0
Nd1 Nd 0.28496 0.07903 0.12158 0.0
C2 C 0.41449 0.93638 0.18348 0.0
C3 C 0.40527 -0.04554 0.20418 0.0
C4 C 0.34889 -0.04507 0.21917 0.0
C5 C 0.34297 -0.02924 0.23824 0.0
C6 C 0.39303 -0.01309 0.24346 0.0
C7 C 0.4487 -0.01165 0.2282 0.0
C8 C 0.45467 -0.02765 0.20916 0.0
C9 C 0.4279 0.06502 0.12013 0.0
C10 C 0.27403 0.12328 0.16281 0.0
C11 C 0.23879 0.17735 0.09365 0.0
C12 C 0.21298 0.17561 0.07663 0.0
C13 C 0.25427 0.1699 0.0579 0.0
C14 C 0.23345 0.15807 1.04255 0.0
C15 C 0.1704 0.15413 1.04536 0.0
C16 C 0.12865 0.16038 0.06391 0.0
C17 C 0.14979 0.17117 0.0795 0.0
C18 C 0.20698 -0.00765 0.14556 0.0
C19 C 0.39919 -0.02951 0.09782 0.0
O20 O 0.37443 0.90922 0.17959 0.0
O21 O 0.4354 -0.02171 0.16738 0.0
O22 O 0.45056 0.00137 0.12535 0.0
O23 O 0.3725 0.08312 0.13039 0.0
O24 O 0.3027 0.06043 0.16876 0.0
O25 O 0.26788 0.14628 0.14378 0.0
O26 O 0.29949 0.15032 0.09235 0.0
O27 O 0.20542 0.16123 0.11197 0.0
O28 O 0.19574 0.0381 0.12961 0.0
O29 O 0.26339 -0.01328 0.14781 0.0
O30 O 0.35269 0.02475 0.09629 0.0
O31 O 0.40901 0.93806 0.1172 0.0
H32 H 0.30901 0.94279 0.21623 0.0
H33 H 0.29849 -0.02986 0.24904 0.0
H34 H 0.48877 5e-05 0.23118 0.0
H35 H 0.49898 -0.02672 0.19827 0.0
H36 H 0.30337 0.17251 1.05528 0.0
H37 H 0.26672 0.15196 1.02843 0.0
H38 H 0.07976 0.15747 0.06624 0.0
H39 H 0.11709 0.17478 0.09386 0.0
Nd40 Nd 0.61705 0.54615 0.38984 0.0
Nd41 Nd 0.59941 0.48136 0.3674 0.0
C42 C 0.66359 0.57543 0.41612 0.0
C43 C 0.64324 0.57802 0.43755 0.0
C44 C 0.67371 0.52765 0.45188 0.0
C45 C 0.66159 0.53383 0.47188 0.0
C46 C 0.61941 0.59072 0.47756 0.0
C47 C 0.58373 0.63731 0.46388 0.0
C48 C 0.5959 0.63129 0.44385 0.0
C49 C 0.51439 0.62557 0.37463 0.0
C50 C 0.48619 0.48546 0.40603 0.0
C51 C 0.60472 0.40989 0.34197 0.0
C52 C 0.60358 0.41978 0.32072 0.0
C53 C 0.56188 0.47492 0.31124 0.0
C54 C 0.55197 0.47644 0.29231 0.0
C55 C 0.58465 0.42356 0.28285 0.0
C56 C 0.63116 0.37219 0.29133 0.0
C57 C 0.64041 0.37013 0.31038 0.0
C58 C 0.66322 0.39786 0.39822 0.0
C59 C 0.6773 0.60067 0.34119 0.0
O60 O 0.67777 0.51612 0.41249 0.0
O61 O 0.63225 0.62075 0.40327 0.0
O62 O 0.51644 0.60798 0.39385 0.0
O63 O 0.56283 0.59341 0.3643 0.0
O64 O 0.53011 0.50169 0.41226 0.0
O65 O 0.49793 0.48307 0.38671 0.0
O66 O 0.5517 0.43527 0.35331 0.0
O67 O 0.65553 0.41803 0.34581 0.0
O68 O 0.60743 0.39702 0.39686 0.0
O69 O 0.67914 0.44728 0.38524 0.0
O70 O 0.64808 0.55709 0.33962 0.0
O71 O 0.67606 0.6039 0.36 0.0
H72 H 0.70959 0.48548 0.44738 0.0
H73 H 0.68951 0.49751 0.48232 0.0
H74 H 0.5507 0.6813 0.46822 0.0
H75 H 0.5708 0.67008 0.43315 0.0
H76 H 0.53408 0.51435 0.31898 0.0
H77 H 0.51603 0.51629 0.2857 0.0
H78 H 0.65645 0.33117 0.28398 0.0
H79 H 0.67328 0.32787 0.31756 0.0
Nd80 Nd 0.1016 0.83236 0.62646 0.0
Nd81 Nd 0.20259 0.77485 0.59723 0.0
C82 C 0.02053 0.88376 0.65598 0.0
C83 C 0.01387 0.87661 0.67754 0.0
C84 C 0.05252 0.82264 0.68852 0.0
C85 C 0.05598 0.8235 0.70797 0.0
C86 C 0.02098 0.87842 0.7163 0.0
C87 C 0.97704 0.92855 0.70621 0.0
C88 C 0.9737 0.92775 0.68671 0.0
C89 C 0.06475 0.75562 0.60864 0.0
C90 C 0.19369 0.68443 0.64288 0.0
C91 C 0.28176 0.73308 0.56555 0.0
C92 C 0.2903 0.75411 0.54324 0.0
C93 C 0.24508 0.75341 0.53269 0.0
C94 C 0.25311 0.77858 0.51163 0.0
C95 C 0.30587 0.80532 0.50102 0.0
C96 C 0.3511 0.80522 0.51153 0.0
C97 C 0.34373 0.77921 0.5324 0.0
C98 C 0.24576 0.83641 0.6191 0.0
C99 C 0.08355 0.89836 0.58058 0.0
O100 O 0.06737 0.90999 0.64444 0.0
O101 O 0.01601 0.8321 0.65067 0.0
O102 O 0.03173 0.81307 0.61179 0.0
O103 O 0.11573 0.74037 0.61493 0.0
O104 O 0.15518 0.7399 0.64774 0.0
O105 O 0.21426 0.68116 0.62352 0.0
O106 O 0.23319 0.70747 0.57563 0.0
O107 O 0.29149 0.77433 0.57438 0.0
O108 O 0.27365 0.77911 0.61477 0.0
O109 O 0.1952 0.86147 0.61185 0.0
O110 O 0.13084 0.8471 0.57651 0.0
O111 O 0.07152 0.91168 0.59869 0.0
H112 H 0.08279 0.78222 0.6816 0.0
H113 H 0.08908 0.78393 0.71594 0.0
H114 H 0.94934 -0.02915 0.71268 0.0
H115 H 0.94304 -0.03094 0.67834 0.0
H116 H 0.20325 0.73458 0.54068 0.0
H117 H 0.21763 0.7785 0.5037 0.0
H118 H 0.39226 0.82529 0.50355 0.0
H119 H 0.37927 0.78004 0.54019 0.0
Nd120 Nd 0.77885 0.47912 0.87483 0.0
Nd121 Nd 0.9005 0.5175 0.87358 0.0
C122 C 0.69331 0.43103 0.86736 0.0
C123 C 0.70095 0.38537 0.85405 0.0
C124 C 0.762 0.35557 0.84473 0.0
C125 C 0.7704 0.31112 0.83243 0.0
C126 C 0.71776 0.29646 0.82873 0.0
C127 C 0.65648 0.3262 0.83824 0.0
C128 C 0.6482 0.37012 0.85081 0.0
C129 C 0.75689 0.58805 0.89192 0.0
C130 C 0.86842 0.52135 0.82915 0.0
C131 C -0.00837 0.55056 0.88445 0.0
C132 C 0.02042 0.54187 0.90265 0.0
C133 C 0.01416 0.5966 0.91089 0.0
C134 C 0.04584 0.5907 0.92649 0.0
C135 C 0.08506 0.52964 0.93471 0.0
C136 C 0.09051 0.47441 0.92667 0.0
C137 C 0.05921 0.48054 0.91086 0.0
C138 C 0.92046 0.40045 0.86248 0.0
C139 C 0.83129 0.42182 0.91567 0.0
O140 O 0.72036 0.40471 0.88316 0.0
O141 O 0.70321 0.49034 0.85814 0.0
O142 O 0.72255 0.5445 0.89745 0.0
O143 O 0.79827 0.57833 0.87584 0.0
O144 O 0.8252 0.48956 0.84088 0.0
O145 O 0.89982 0.5481 0.83764 0.0
O146 O 0.93572 0.59065 0.88298 0.0
O147 O -0.00013 0.49789 0.87744 0.0
O148 O 0.95741 0.44162 0.85446 0.0
O149 O 0.87778 0.41996 0.87672 0.0
O150 O 0.8674 0.46575 0.90772 0.0
O151 O 0.79886 0.40961 0.90453 0.0
H152 H 0.80337 0.36645 0.84706 0.0
H153 H 0.81835 0.28771 0.82603 0.0
H154 H 0.61482 0.31612 0.83577 0.0
H155 H 0.60066 0.39228 0.85795 0.0
H156 H -0.01433 0.64479 0.90494 0.0
H157 H 0.04042 0.63508 0.93182 0.0
H158 H 0.11834 0.42597 0.93267 0.0
H159 H 0.06598 0.43696 0.90496 0.0
Nd160 Nd 0.6772 0.82423 0.98728 0.0
Nd161 Nd 0.59156 0.91816 0.95939 0.0
C162 C 0.72383 0.72547 1.01504 0.0
C163 C 0.74284 0.72773 1.03323 0.0
C164 C 0.6966 0.75166 1.04913 0.0
C165 C 0.71479 0.76665 0.06444 0.0
C166 C 0.77921 0.7575 0.06414 0.0
C167 C 0.82561 0.73091 1.0489 0.0
C168 C 0.80745 0.71577 1.0335 0.0
C169 C 0.74762 0.91676 0.96306 0.0
C170 C 0.5562 0.92887 1.01091 0.0
C171 C 0.54478 -0.03229 0.92488 0.0
C172 C 0.55371 0.94798 0.9045 0.0
C173 C 0.59928 -0.03262 0.88718 0.0
C174 C 0.60396 -0.04768 0.86816 0.0
C175 C 0.56299 0.91756 0.86527 0.0
C176 C 0.51868 0.89634 0.88275 0.0
C177 C 0.51395 0.91146 0.90181 0.0
C178 C 0.53779 0.82752 0.9879 0.0
C179 C 0.68925 0.77819 0.94566 0.0
O180 O 0.66313 0.7473 1.01515 0.0
O181 O 0.75911 0.7476 0.99766 0.0
O182 O 0.76187 0.87322 0.97915 0.0
O183 O 0.69165 0.91796 0.96142 0.0
O184 O 0.60546 0.87713 1.01239 0.0
O185 O 0.54507 -0.03963 0.99163 0.0
O186 O 0.58803 -0.00962 0.92874 0.0
O187 O 0.519 0.93013 0.94124 0.0
O188 O 0.50802 0.88928 0.98282 0.0
O189 O 0.5936 0.81573 0.97743 0.0
O190 O 0.65056 0.83683 0.94056 0.0
O191 O 0.70415 0.75939 0.96373 0.0
H192 H 0.64626 0.76136 1.04944 0.0
H193 H 0.6786 0.78635 0.07637 0.0
H194 H 0.87562 0.72205 1.04893 0.0
H195 H 0.84373 0.69717 1.02142 0.0
H196 H 0.6312 -0.00484 0.88821 0.0
H197 H 0.63996 -0.0313 0.8555 0.0
H198 H 0.48591 0.8698 0.88157 0.0
H199 H 0.47781 0.89535 0.91447 0.0
Nd200 Nd 0.36238 0.40502 0.74089 0.0
Nd201 Nd 0.36001 0.32138 0.72195 0.0
C202 C 0.35203 0.48913 0.76315 0.0
C203 C 0.35306 0.48794 0.78374 0.0
C204 C 0.36025 0.42785 0.79835 0.0
C205 C 0.36175 0.4283 0.8181 0.0
C206 C 0.35593 0.48887 0.82306 0.0
C207 C 0.35063 0.54833 0.80814 0.0
C208 C 0.3488 0.54787 0.78856 0.0
C209 C 0.31048 0.47521 0.70651 0.0
C210 C 0.28122 0.29012 0.76857 0.0
C211 C 0.35672 0.2574 0.6954 0.0
C212 C 0.36512 0.27052 0.67346 0.0
C213 C 0.34313 0.33464 0.66217 0.0
C214 C 0.34344 0.34385 0.64163 0.0
C215 C 0.36666 0.2892 0.6324 0.0
C216 C 0.39457 0.22681 0.64323 0.0
C217 C 0.39344 0.21741 0.66379 0.0
C218 C 0.4292 0.25248 0.75147 0.0
C219 C 0.48176 0.39394 0.70445 0.0
O220 O 0.4059 0.46193 0.7528 0.0
O221 O 0.30307 0.47344 0.76057 0.0
O222 O 0.3574 0.48536 0.71151 0.0
O223 O 0.29363 0.42446 0.71894 0.0
O224 O 0.31322 0.33215 0.76946 0.0
O225 O 0.28348 0.28384 0.75005 0.0
O226 O 0.306 0.29337 0.70478 0.0
O227 O 0.40763 0.24997 0.70217 0.0
O228 O 0.38606 0.23322 0.74704 0.0
O229 O 0.43527 0.30847 0.74032 0.0
O230 O 0.44503 0.36544 0.69924 0.0
O231 O 0.46358 0.40848 0.72248 0.0
H232 H 0.36483 0.3811 0.79445 0.0
H233 H 0.36719 0.38194 0.82943 0.0
H234 H 0.34857 0.59511 0.81159 0.0
H235 H 0.34456 0.59413 0.77716 0.0
H236 H 0.32249 0.3765 0.66945 0.0
H237 H 0.3213 0.39209 0.63337 0.0
H238 H 0.41187 0.18411 0.63627 0.0
H239 H 0.41145 0.16801 0.67237 0.0
Nd240 Nd 0.76362 0.12315 0.51185 0.0
Nd241 Nd 0.86664 0.06477 0.48459 0.0
C242 C 0.6777 0.16471 0.54242 0.0
C243 C 0.66762 0.15059 0.56471 0.0
C244 C 0.71486 0.14846 0.57485 0.0
C245 C 0.70649 0.12564 0.59599 0.0
C246 C 0.65119 0.10419 0.60714 0.0
C247 C 0.60346 0.10842 0.59701 0.0
C248 C 0.61144 0.13188 0.576 0.0
C249 C 0.72229 0.06734 0.48775 0.0
C250 C 0.88111 0.00247 0.53071 0.0
C251 C 0.94137 0.01301 0.45476 0.0
C252 C 0.92644 0.01393 0.43582 0.0
C253 C 0.8669 0.00507 0.43577 0.0
C254 C 0.85099 0.0092 0.41758 0.0
C255 C 0.89432 0.0227 0.39941 0.0
C256 C 0.95183 0.03647 0.3993 0.0
C257 C 0.9681 0.03161 0.41757 0.0
C258 C 0.90468 0.13746 0.50338 0.0
C259 C 0.77748 0.21093 0.4659 0.0
O260 O 0.72185 0.19626 0.53168 0.0
O261 O 0.67671 0.1154 0.53513 0.0
O262 O 0.69649 0.12496 0.49201 0.0
O263 O 0.77029 0.03871 0.49622 0.0
O264 O 0.83238 0.05337 0.53397 0.0
O265 O 0.89619 -0.01241 0.51276 0.0
O266 O 0.91197 -0.02245 0.471 0.0
O267 O 0.94079 0.07174 0.45677 0.0
O268 O 0.93867 0.08222 0.49869 0.0
O269 O 0.85376 0.15586 0.49674 0.0
O270 O 0.8183 0.1556 0.46187 0.0
O271 O 0.75326 0.21523 0.48506 0.0
H272 H 0.75886 0.16222 0.56643 0.0
H273 H 0.74409 0.1224 0.60353 0.0
H274 H 0.56031 0.09259 0.60533 0.0
H275 H 0.57457 0.13307 0.56844 0.0
H276 H 0.83298 -0.00588 0.44977 0.0
H277 H 0.80628 -0.00114 0.41778 0.0
H278 H -0.015 0.04824 0.38516 0.0
H279 H 0.01298 0.04127 0.4175 0.0
Nd280 Nd 0.06323 0.3704 0.23778 0.0
Nd281 Nd 0.1779 0.42539 0.23365 0.0
C282 C 0.97576 0.33083 0.22725 0.0
C283 C 0.94629 0.34343 0.20891 0.0
C284 C 0.96678 0.29994 0.19543 0.0
C285 C 0.93479 0.30903 0.17955 0.0
C286 C 0.88076 0.36153 0.17667 0.0
C287 C 0.86193 0.40647 0.18964 0.0
C288 C 0.89379 0.39744 0.20548 0.0
C289 C 0.03388 0.48575 0.25038 0.0
C290 C 0.11484 0.47592 0.19539 0.0
C291 C 0.25971 0.48546 0.23789 0.0
C292 C 0.25611 0.53104 0.25092 0.0
C293 C 0.21404 0.59427 0.2493 0.0
C294 C 0.20665 0.63342 0.26315 0.0
C295 C 0.24232 0.611 0.27858 0.0
C296 C 0.2868 0.54954 0.27949 0.0
C297 C 0.29328 0.51001 0.26585 0.0
C298 C 0.2077 0.31781 0.21536 0.0
C299 C 0.10195 0.37065 0.2808 0.0
O300 O 0.03398 0.29504 0.22743 0.0
O301 O 0.9635 0.38047 0.23603 0.0
O302 O 0.00205 0.43993 0.2585 0.0
O303 O 0.07496 0.47229 0.23503 0.0
O304 O 0.08865 0.42421 0.20353 0.0
O305 O 0.1436 0.4959 0.20585 0.0
O306 O 0.22601 0.50897 0.22365 0.0
O307 O 0.25786 0.42371 0.24717 0.0
O308 O 0.2354 0.3669 0.20968 0.0
O309 O 0.16908 0.3213 0.2324 0.0
O310 O 0.141 0.40636 0.26819 0.0
O311 O 0.071 0.34059 0.27317 0.0
H312 H 0.00678 0.25784 0.19742 0.0
H313 H 0.95124 0.27339 0.1699 0.0
H314 H 0.82209 0.44877 0.18766 0.0
H315 H 0.87625 0.43252 0.21532 0.0
H316 H 0.18596 0.6132 0.23756 0.0
H317 H 0.17315 0.68137 0.26175 0.0
H318 H 0.31544 0.53126 0.29108 0.0
H319 H 0.32658 0.46231 0.26714 0.0
Nd320 Nd 0.85967 0.47997 0.65092 0.0
Nd321 Nd 0.77318 0.57737 0.62327 0.0
C322 C 0.90341 0.42771 0.68609 0.0
C323 C 0.89652 0.44829 0.70633 0.0
C324 C 0.8546 0.42624 0.72445 0.0
C325 C 0.85213 0.44185 0.7433 0.0
C326 C 0.89114 0.48055 0.74516 0.0
C327 C 0.93229 0.50354 0.72697 0.0
C328 C 0.93526 0.48739 0.70819 0.0
C329 C 0.91128 0.57447 0.62361 0.0
C330 C 0.76332 0.62077 0.66534 0.0
C331 C 0.72753 0.67698 0.59564 0.0
C332 C 0.70588 0.67562 0.57776 0.0
C333 C 0.74989 0.67155 0.55939 0.0
C334 C 0.73336 0.6577 0.54352 0.0
C335 C 0.67214 0.6495 0.54557 0.0
C336 C 0.6275 0.65518 0.5636 0.0
C337 C 0.64415 0.6685 0.57961 0.0
C338 C 0.70457 0.48173 0.64653 0.0
C339 C 0.89478 0.47415 0.59873 0.0
O340 O 0.857 0.41021 0.6822 0.0
O341 O 0.9334 0.46054 0.66948 0.0
O342 O 0.94182 0.51264 0.62775 0.0
O343 O 0.85555 0.58368 0.63409 0.0
O344 O 0.80329 0.56235 0.6698 0.0
O345 O 0.74668 0.6404 0.64747 0.0
O346 O 0.7885 0.65312 0.59505 0.0
O347 O 0.69269 0.65698 0.61339 0.0
O348 O 0.68806 0.52902 0.63143 0.0
O349 O 0.76042 0.48149 0.64795 0.0
O350 O 0.84352 0.52403 0.59785 0.0
O351 O 0.90783 0.4426 0.61783 0.0
H352 H 0.8238 0.39602 0.72419 0.0
H353 H 0.8187 0.42393 0.75656 0.0
H354 H 0.96405 0.53256 0.72733 0.0
H355 H 0.9694 0.50471 0.69507 0.0
H356 H 0.79793 0.67643 0.55755 0.0
H357 H 0.76863 0.65255 0.52972 0.0
H358 H 0.57992 0.64928 0.56526 0.0
H359 H 0.60934 0.67114 0.59361 0.0
Nd360 Nd 0.10835 0.05066 0.89061 0.0
Nd361 Nd 0.09598 -0.02165 0.86899 0.0
C362 C 0.14469 0.09732 0.91553 0.0
C363 C 0.12403 0.09901 0.93711 0.0
C364 C 0.14816 0.04475 0.95191 0.0
C365 C 0.13755 0.05078 0.97189 0.0
C366 C 0.1029 0.11107 0.97718 0.0
C367 C 0.07219 0.16205 0.96307 0.0
C368 C 0.08345 0.15646 0.94302 0.0
C369 C 0.00989 0.12403 0.87208 0.0
C370 C -0.0196 -0.01126 0.90676 0.0
C371 C 0.10077 0.90326 0.84471 0.0
C372 C 0.09973 0.91162 0.82358 0.0
C373 C 0.06298 -0.03039 0.8133 0.0
C374 C 0.05506 -0.02737 0.79399 0.0
C375 C 0.08508 0.91837 0.78491 0.0
C376 C 0.12542 0.86258 0.79461 0.0
C377 C 0.1325 0.85909 0.81402 0.0
C378 C 0.15177 0.89855 0.90186 0.0
C379 C 0.18061 0.09088 0.84263 0.0
O380 O 0.17047 0.03867 0.91156 0.0
O381 O 0.10695 0.13492 0.9033 0.0
O382 O 0.00754 0.11163 0.89149 0.0
O383 O 0.06113 0.09102 0.86324 0.0
O384 O 0.02448 0.00374 0.91318 0.0
O385 O -0.0072 -0.01435 0.88748 0.0
O386 O 0.04783 0.93058 0.85564 0.0
O387 O 0.15183 0.91164 0.84836 0.0
O388 O 0.10047 0.89387 0.89806 0.0
O389 O 0.16953 0.94819 0.88942 0.0
O390 O 0.1509 0.04765 0.84117 0.0
O391 O 0.17514 0.09871 0.86122 0.0
H392 H 0.17861 -0.00079 0.94788 0.0
H393 H 0.16144 0.01083 0.98263 0.0
H394 H 0.04453 0.20861 0.9671 0.0
H395 H 0.06346 0.19853 0.93196 0.0
H396 H 0.03819 0.01097 0.82053 0.0
H397 H 0.02384 0.01583 0.78649 0.0
H398 H 0.14836 0.82026 0.78765 0.0
H399 H 0.16124 0.81442 0.82188 0.0
Nd400 Nd 0.59214 0.32334 0.13084 0.0
Nd401 Nd 0.7036 0.28427 0.09613 0.0
C402 C 0.50165 0.37688 0.15805 0.0
C403 C 0.497 0.37051 0.17961 0.0
C404 C 0.5415 0.32069 0.18962 0.0
C405 C 0.54677 0.32241 0.20881 0.0
C406 C 0.50716 0.37359 0.21812 0.0
C407 C 0.45869 0.41968 0.20898 0.0
C408 C 0.45377 0.4183 0.18962 0.0
C409 C 0.58801 0.22099 0.11609 0.0
C410 C 0.7051 0.20003 0.14399 0.0
C411 C 0.78151 0.23057 0.06634 0.0
C412 C 0.78857 0.24208 1.04419 0.0
C413 C 0.73579 0.26128 1.03486 0.0
C414 C 0.74338 0.28516 1.01374 0.0
C415 C 0.80346 0.29145 1.00179 0.0
C416 C 0.85625 0.26993 1.01114 0.0
C417 C 0.84889 0.24502 1.03212 0.0
C418 C 0.74328 0.35644 0.11599 0.0
C419 C 0.5732 0.39421 0.08313 0.0
O420 O 0.54514 0.40748 0.146 0.0
O421 O 0.50211 0.32238 0.15314 0.0
O422 O 0.57364 0.2212 0.13534 0.0
O423 O 0.60342 0.27376 0.10562 0.0
O424 O 0.66248 0.25117 0.15004 0.0
O425 O 0.72202 0.1966 0.12446 0.0
O426 O 0.73473 0.20484 0.07835 0.0
O427 O 0.78949 0.27979 0.07213 0.0
O428 O 0.77493 0.33795 0.0994 0.0
O429 O 0.68922 0.34329 0.11999 0.0
O430 O 0.63218 0.36148 0.07667 0.0
O431 O 0.5504 0.39089 0.10284 0.0
H432 H 0.57499 0.2833 0.18204 0.0
H433 H 0.58461 0.28684 0.21573 0.0
H434 H 0.42811 0.45958 0.2161 0.0
H435 H 0.41905 0.45673 0.18202 0.0
H436 H 0.68859 0.26056 1.04392 0.0
H437 H 0.70199 0.30133 1.00684 0.0
H438 H 0.90309 0.27366 1.00226 0.0
H439 H 0.89003 0.2312 1.03908 0.0
Nd440 Nd 0.27933 -0.02458 0.37601 0.0
Nd441 Nd 0.39714 0.02292 0.3724 0.0
C442 C 0.19676 0.91709 0.37136 0.0
C443 C 0.20096 0.86833 0.35929 0.0
C444 C 0.23816 0.80272 0.36334 0.0
C445 C 0.244 0.75858 0.35114 0.0
C446 C 0.21124 0.77836 0.33505 0.0
C447 C 0.17309 0.84323 0.33127 0.0
C448 C 0.16855 0.88788 0.34313 0.0
C449 C 0.25273 0.08159 0.39471 0.0
C450 C 0.36018 0.0256 0.32895 0.0
C451 C 0.48868 0.05473 0.38333 0.0
C452 C 0.51708 0.04268 0.40185 0.0
C453 C 0.49116 0.08114 0.41676 0.0
C454 C 0.52298 0.07339 0.43259 0.0
C455 C 0.58142 0.0268 0.43409 0.0
C456 C 0.606 -0.01334 0.41973 0.0
C457 C 0.57441 -0.00563 0.40393 0.0
C458 C 0.42111 0.90625 0.3604 0.0
C459 C 0.33968 0.92255 0.41474 0.0
O460 O 0.22674 0.89538 0.38652 0.0
O461 O 0.2022 -0.02286 0.36117 0.0
O462 O 0.22203 0.03502 0.39978 0.0
O463 O 0.2922 0.07725 0.37782 0.0
O464 O 0.31666 -0.00455 0.34144 0.0
O465 O 0.39346 0.05259 0.33669 0.0
O466 O 0.43306 0.09552 0.38182 0.0
O467 O 0.49685 0.00308 0.37585 0.0
O468 O 0.45435 -0.04927 0.35195 0.0
O469 O 0.38061 0.92249 0.3755 0.0
O470 O 0.36757 -0.02703 0.40669 0.0
O471 O 0.31162 0.9034 0.40387 0.0
H472 H 0.26358 0.78559 0.37575 0.0
H473 H 0.27387 0.70888 0.35433 0.0
H474 H 0.14792 0.85993 0.31881 0.0
H475 H 0.1397 0.93795 0.33961 0.0
H476 H 0.44742 0.11889 0.41581 0.0
H477 H 0.50333 0.10608 0.44316 0.0
H478 H 0.65148 -0.04855 0.42011 0.0
H479 H 0.59644 -0.03607 0.3928 0.0
Nd480 Nd 0.17927 0.32318 0.48857 0.0
Nd481 Nd 0.09437 0.41887 0.46016 0.0
C482 C 0.22307 0.22726 0.51765 0.0
C483 C 0.25512 0.2282 0.53309 0.0
C484 C 0.24223 0.18866 0.55266 0.0
C485 C 0.26184 0.19931 0.56859 0.0
C486 C 0.29403 0.24991 0.56499 0.0
C487 C 0.30859 0.2879 0.54527 0.0
C488 C 0.28901 0.27729 0.52942 0.0
C489 C 0.2529 0.41286 0.46331 0.0
C490 C 0.05824 0.43129 0.51165 0.0
C491 C 0.04819 0.46744 0.42537 0.0
C492 C 0.05671 0.44919 0.40475 0.0
C493 C 0.11574 0.4363 0.39125 0.0
C494 C 0.12126 0.41904 0.37242 0.0
C495 C 0.06814 0.41391 0.36586 0.0
C496 C 0.00915 0.42684 0.37954 0.0
C497 C 0.0038 0.44353 0.39841 0.0
C498 C 0.03834 0.33061 0.48933 0.0
C499 C 0.18721 0.2757 0.44759 0.0
O500 O 0.16446 0.26229 0.51974 0.0
O501 O 0.25469 0.23698 0.49881 0.0
O502 O 0.2677 0.3676 0.479 0.0
O503 O 0.19602 0.41492 0.46222 0.0
O504 O 0.1089 0.38092 0.51284 0.0
O505 O 0.04578 0.46136 0.49243 0.0
O506 O 0.09093 0.49047 0.4294 0.0
O507 O 0.02356 0.42828 0.44154 0.0
O508 O 0.00961 0.39238 0.48356 0.0
O509 O 0.09416 0.31717 0.479 0.0
O510 O 0.15413 0.33692 0.44169 0.0
O511 O 0.19748 0.25484 0.46631 0.0
H512 H 0.21479 0.15166 0.55576 0.0
H513 H 0.25081 0.1691 0.58374 0.0
H514 H 0.33293 0.32747 0.54229 0.0
H515 H 0.29791 0.30945 0.5145 0.0
H516 H 0.15816 0.43919 0.39526 0.0
H517 H 0.16818 0.40911 0.36303 0.0
H518 H 0.96603 0.42596 0.37557 0.0
H519 H 0.95725 0.45281 0.4081 0.0
Nd520 Nd 0.87015 0.91097 0.24166 0.0
Nd521 Nd 0.85203 0.84418 0.21908 0.0
C522 C 0.86929 -0.01439 0.26551 0.0
C523 C 0.86212 -0.01501 0.28655 0.0
C524 C 0.86774 0.92504 0.30116 0.0
C525 C 0.86317 0.92613 0.32127 0.0
C526 C 0.85349 -0.01289 0.32656 0.0
C527 C 0.84495 0.04702 0.31195 0.0
C528 C 0.84922 0.04587 0.29195 0.0
C529 C 0.81445 -0.00374 0.20944 0.0
C530 C 0.78397 0.79858 0.26755 0.0
C531 C 0.81104 0.80349 0.19387 0.0
C532 C 0.82999 0.80458 0.17218 0.0
C533 C 0.81466 0.86362 0.15757 0.0
C534 C 0.824 0.86109 0.13729 0.0
C535 C 0.84897 0.79975 0.13165 0.0
C536 C 0.87153 0.74267 0.14576 0.0
C537 C 0.86106 0.74482 0.16602 0.0
C538 C 0.94934 0.76454 0.23722 0.0
C539 C -0.01886 0.90354 0.20262 0.0
O540 O 0.92143 0.94752 0.25745 0.0
O541 O 0.81806 -0.01599 0.26028 0.0
O542 O 0.86712 -0.00245 0.21317 0.0
O543 O 0.79508 0.94692 0.22153 0.0
O544 O 0.8141 0.84116 0.26928 0.0
O545 O 0.78687 0.79409 0.24877 0.0
O546 O 0.78571 0.86073 0.19889 0.0
O547 O 0.85092 0.76437 0.20509 0.0
O548 O 0.95224 0.78033 0.21772 0.0
O549 O 0.89949 0.79892 0.24611 0.0
O550 O 0.93435 0.89321 0.19631 0.0
O551 O 0.97249 0.90165 0.22216 0.0
H552 H 0.87694 0.87784 0.29693 0.0
H553 H 0.86926 0.87961 0.33251 0.0
H554 H 0.83808 0.09439 0.31581 0.0
H555 H 0.84418 0.09229 0.28062 0.0
H556 H 0.79176 0.91076 0.16192 0.0
H557 H 0.80599 0.90547 0.12654 0.0
H558 H 0.89103 0.69499 0.14149 0.0
H559 H 0.87397 0.69897 0.17701 0.0
Nd560 Nd 0.26521 0.62007 1.01387 0.0
Nd561 Nd 0.36221 0.56083 0.98406 0.0
C562 C 0.1918 0.6701 1.04504 0.0
C563 C 0.18106 0.65135 0.06737 0.0
C564 C 0.23154 0.62602 0.07787 0.0
C565 C 0.21947 0.60105 0.09894 0.0
C566 C 0.15694 0.60129 0.10972 0.0
C567 C 0.10667 0.62822 0.09923 0.0
C568 C 0.11867 0.65312 0.07825 0.0
C569 C 0.21425 0.56041 0.99361 0.0
C570 C 0.38246 0.49417 1.02978 0.0
C571 C 0.43718 0.52098 0.95195 0.0
C572 C 0.42391 0.52776 0.93227 0.0
C573 C 0.36073 0.54048 0.93053 0.0
C574 C 0.34665 0.53902 0.91261 0.0
C575 C 0.39555 0.52964 0.8957 0.0
C576 C 0.45855 0.52469 0.89686 0.0
C577 C 0.47286 0.52263 0.91527 0.0
C578 C 0.40381 0.63412 1.00165 0.0
C579 C 0.26593 0.70097 0.96768 0.0
O580 O 0.2449 0.68715 1.03511 0.0
O581 O 0.17575 0.632 1.0366 0.0
O582 O 0.18817 0.61591 0.99932 0.0
O583 O 0.26744 0.53367 0.99937 0.0
O584 O 0.3337 0.54323 1.03443 0.0
O585 O 0.39615 0.48226 1.01139 0.0
O586 O 0.43394 0.57768 0.95597 0.0
O587 O 0.40751 0.48157 0.96698 0.0
O588 O 0.43603 0.57787 0.99744 0.0
O589 O 0.3522 0.65248 0.9955 0.0
O590 O 0.29794 0.64248 0.96381 0.0
O591 O 0.25461 0.7103 0.98636 0.0
H592 H 0.28019 0.62374 0.06977 0.0
H593 H 0.25893 0.5806 0.10679 0.0
H594 H 0.05823 0.62794 0.10717 0.0
H595 H 0.07924 0.67178 0.07038 0.0
H596 H 0.32241 0.54812 0.94339 0.0
H597 H 0.29788 0.54142 0.91257 0.0
H598 H 0.49693 0.51953 0.8838 0.0
H599 H 0.52174 0.51564 0.91635 0.0
Nd600 Nd 0.55959 0.88734 0.73592 0.0
Nd601 Nd 0.68133 0.92568 0.73371 0.0
C602 C 0.47124 0.85276 0.72435 0.0
C603 C 0.4442 0.86556 0.70557 0.0
C604 C 0.4738 0.83069 0.68986 0.0
C605 C 0.44355 0.83823 0.67368 0.0
C606 C 0.38291 0.88062 0.6728 0.0
C607 C 0.35499 0.91793 0.68784 0.0
C608 C 0.38501 0.91052 0.70394 0.0
C609 C 0.53962 0.00532 0.74636 0.0
C610 C 0.62736 -0.01901 0.69328 0.0
C611 C 0.76922 -0.02799 0.74062 0.0
C612 C 0.76384 0.01946 0.75314 0.0
C613 C 0.70485 0.06154 0.75894 0.0
C614 C 0.69891 0.10759 0.77045 0.0
C615 C 0.7514 0.11067 0.77717 0.0
C616 C 0.81066 0.0684 0.77143 0.0
C617 C 0.81686 0.02349 0.75939 0.0
C618 C 0.70085 0.815 0.71759 0.0
C619 C 0.59217 0.88413 0.77991 0.0
O620 O 0.52819 0.81467 0.72527 0.0
O621 O 0.45981 0.90283 0.7329 0.0
O622 O 0.50233 -0.03545 0.75455 0.0
O623 O 0.58237 -0.01425 0.73211 0.0
O624 O 0.59179 0.93696 0.70171 0.0
O625 O 0.66059 -0.00541 0.70387 0.0
O626 O 0.74302 -0.00273 0.72462 0.0
O627 O 0.75687 0.91421 0.75053 0.0
O628 O 0.73456 0.85923 0.71099 0.0
O629 O 0.66122 0.82575 0.73388 0.0
O630 O 0.63527 0.91588 0.76785 0.0
O631 O 0.56077 0.85661 0.77169 0.0
H632 H 0.51931 0.79574 0.69043 0.0
H633 H 0.46608 0.80819 0.66246 0.0
H634 H 0.30834 -0.04915 0.68763 0.0
H635 H 0.36046 0.9384 0.71561 0.0
H636 H 0.66332 0.05843 0.7546 0.0
H637 H 0.65328 0.1411 0.77405 0.0
H638 H 0.85204 0.0698 0.77638 0.0
H639 H 0.86287 -0.00816 0.75504 0.0
C640 C 0.53712 0.0803 0.11038 0.0
C641 C 0.47181 0.10869 0.11104 0.0
C642 C 0.57794 0.11916 0.10966 0.0
C643 C 0.55483 0.18729 0.10859 0.0
H644 H 0.55567 0.02689 0.11279 0.0
H645 H 0.62602 0.09503 0.11181 0.0
S646 S 0.39412 0.28813 0.10224 0.0
N647 N 0.38972 0.21033 0.10547 0.0
N648 N 0.46791 0.28447 0.10316 0.0
C649 C 0.49261 0.2178 0.10569 0.0
C650 C 0.45049 0.178 0.10703 0.0
C651 C 0.43288 0.72637 0.3628 0.0
C652 C 0.4938 0.69714 0.36703 0.0
C653 C 0.41031 0.79579 0.35933 0.0
C654 C 0.44829 0.83662 0.35997 0.0
H655 H 0.4019 0.69558 0.36306 0.0
H656 H 0.36247 0.81768 0.35679 0.0
S657 S 0.61058 0.78362 0.37061 0.0
N658 N 0.59113 0.71426 0.37163 0.0
N659 N 0.54886 0.84378 0.36499 0.0
C660 C 0.50962 0.80802 0.36358 0.0
C661 C 0.53221 0.73819 0.36725 0.0
C662 C 0.01164 0.69546 0.59565 0.0
C663 C 0.03003 0.70607 0.61192 0.0
C664 C 0.9711 0.65305 0.59942 0.0
C665 C 0.94735 0.62332 0.61949 0.0
H666 H 0.02835 0.72014 0.58014 0.0
H667 H 0.95827 0.6435 0.58677 0.0
S668 S -0.0198 0.63862 0.66699 0.0
N669 N 0.02197 0.68502 0.64849 0.0
N670 N 0.94363 0.60708 0.65563 0.0
C671 C 0.96487 0.6345 0.63579 0.0
C672 C 0.00702 0.6758 0.63197 0.0
C673 C 0.9185 0.2202 0.87158 0.0
C674 C -0.01891 0.19265 0.86282 0.0
C675 C 0.89726 0.28884 0.8702 0.0
C676 C 0.93796 0.33179 0.85988 0.0
H677 H 0.88783 0.18801 0.8812 0.0
H678 H 0.85025 0.30769 0.87844 0.0
S679 S 0.10395 0.28542 0.83258 0.0
N680 N 0.08133 0.21455 0.84196 0.0
N681 N 0.04127 0.34331 0.83915 0.0
C682 C -0.00153 0.3057 0.84942 0.0
C683 C 0.02005 0.23596 0.85087 0.0
C684 C 0.43617 0.79396 1.00147 0.0
C685 C 0.50284 0.77619 0.99836 0.0
C686 C 0.4021 0.74583 1.00485 0.0
C687 C 0.4341 0.6791 1.00571 0.0
H688 H 0.4106 0.8457 0.99924 0.0
H689 H 0.35164 0.76173 1.00491 0.0
S690 S 0.605 0.60558 1.00598 0.0
N691 N 0.5976 0.68679 1.00094 0.0
N692 N 0.53268 0.59537 1.00915 0.0
C693 C 0.49899 0.65972 1.00637 0.0
C694 C 0.53392 0.70884 1.00215 0.0
C695 C 0.48127 0.08277 0.76888 0.0
C696 C 0.52746 0.06988 0.75159 0.0
C697 C 0.46127 0.14636 0.77285 0.0
C698 C 0.48141 0.19985 0.75827 0.0
H699 H 0.45846 0.04422 0.77899 0.0
H700 H 0.42066 0.15569 0.78503 0.0
S701 S 0.61603 0.18935 0.7146 0.0
N702 N 0.60517 0.11277 0.72302 0.0
N703 N 0.5633 0.23386 0.72997 0.0
C704 C 0.53538 0.18591 0.74323 0.0
C705 C 0.5575 0.12071 0.7394 0.0
C706 C 0.93591 0.29864 0.50214 0.0
C707 C 0.00226 0.28049 0.50023 0.0
C708 C 0.90194 0.25035 0.50568 0.0
C709 C 0.93366 0.18318 0.50769 0.0
H710 H 0.91089 0.35044 0.4988 0.0
H711 H 0.85211 0.26628 0.50482 0.0
S712 S 0.10198 0.10996 0.51204 0.0
N713 N 0.09526 0.19128 0.506 0.0
N714 N 0.03054 0.09953 0.51373 0.0
C715 C -0.0024 0.16398 0.50959 0.0
C716 C 0.03243 0.21323 0.50551 0.0
C717 C 0.04792 0.59267 0.25276 0.0
C718 C 0.00766 0.55387 0.25245 0.0
C719 C 0.02749 0.66211 0.24941 0.0
C720 C 0.96626 0.69333 0.24578 0.0
H721 H 0.09614 0.56906 0.25462 0.0
H722 H 0.06054 0.69144 0.24851 0.0
S723 S 0.84358 0.61206 0.24348 0.0
N724 N 0.90435 0.55015 0.24881 0.0
N725 N 0.86591 0.67998 0.24221 0.0
C726 C 0.92492 0.65412 0.24642 0.0
C727 C 0.94553 0.58412 0.24996 0.0
C728 C 0.47259 0.00473 0.06141 0.0
C729 C 0.44289 -0.04456 0.07636 0.0
C730 C 0.50595 -0.00156 1.04073 0.0
C731 C 0.51167 0.94278 1.03238 0.0
H732 H 0.4703 0.04996 0.06581 0.0
H733 H 0.52836 0.03801 1.03126 0.0
S734 S 0.4388 0.80032 0.06306 0.0
N735 N 0.4201 0.84925 0.07932 0.0
N736 N 0.48053 0.83741 1.04196 0.0
C737 C 0.4814 0.89358 1.04704 0.0
C738 C 0.44781 0.89987 0.06813 0.0
C739 C 0.76468 0.63476 0.30968 0.0
C740 C 0.70387 0.65124 0.32219 0.0
C741 C 0.78978 0.68175 0.29247 0.0
C742 C 0.75607 0.7488 0.28639 0.0
H743 H 0.79374 0.58487 0.31328 0.0
H744 H 0.83686 0.66517 0.28397 0.0
S745 S 0.59312 0.81814 0.3125 0.0
N746 N 0.60951 0.74057 0.32568 0.0
N747 N 0.65667 0.82724 0.29454 0.0
C748 C 0.69519 0.76563 0.2986 0.0
C749 C 0.66938 0.71774 0.31597 0.0
C750 C 0.03569 0.90362 0.55044 0.0
C751 C 0.0333 0.92901 0.56732 0.0
C752 C -0.01423 0.92563 0.53938 0.0
C753 C 0.92983 -0.02586 0.54454 0.0
H754 H 0.07632 0.86545 0.54579 0.0
H755 H -0.00841 0.90446 0.52646 0.0
S756 S 0.89863 0.05814 0.58725 0.0
N757 N 0.96891 0.00688 0.58841 0.0
N758 N 0.87648 0.04743 0.56788 0.0
C759 C 0.92679 0.0001 0.56136 0.0
C760 C 0.97778 -0.02207 0.57259 0.0
C761 C 0.69053 0.20145 0.82079 0.0
C762 C 0.72678 0.24985 0.81519 0.0
C763 C 0.69874 0.15668 0.80847 0.0
C764 C 0.74387 0.15803 0.79012 0.0
H765 H 0.65611 0.19739 0.83497 0.0
H766 H 0.67021 0.12002 0.8135 0.0
S767 S 0.84837 0.27634 0.76779 0.0
N768 N 0.80748 0.29795 0.78926 0.0
N769 N 0.82358 0.21263 0.76658 0.0
C770 C 0.78009 0.20606 0.78426 0.0
C771 C 0.77141 0.25216 0.79665 0.0
C772 C 0.21318 0.20255 0.78731 0.0
C773 C 0.25558 0.23994 0.78776 0.0
C774 C 0.19131 0.15382 0.80452 0.0
C775 C 0.21034 0.13841 0.82351 0.0
H776 H 0.19601 0.21132 0.77346 0.0
H777 H 0.15766 0.12901 0.80299 0.0
S778 S 0.32697 0.21455 0.83268 0.0
N779 N 0.31954 0.25221 0.80904 0.0
N780 N 0.27909 0.16279 0.8407 0.0
C781 C 0.2542 0.17395 0.82397 0.0
C782 C 0.2764 0.22361 0.80647 0.0
C783 C 0.27897 0.70612 0.311 0.0
C784 C 0.21852 0.73263 0.32166 0.0
C785 C 0.28633 0.66656 0.29719 0.0
C786 C 0.23355 0.65171 0.29364 0.0
H787 H 0.32076 0.71723 0.313 0.0
H788 H 0.33358 0.64845 0.28894 0.0
S789 S 0.06621 0.70151 0.31986 0.0
N790 N 0.10575 0.7366 0.32909 0.0
N791 N 0.1195 0.66158 0.30338 0.0
C792 C 0.17314 0.67592 0.30478 0.0
C793 C 0.16567 0.71645 0.31874 0.0
C794 C 0.95029 0.47962 0.53769 0.0
C795 C 0.01613 0.44672 0.5335 0.0
C796 C 0.91337 0.4863 0.55809 0.0
C797 C 0.9372 0.46003 0.57682 0.0
H798 H 0.92598 0.50024 0.52503 0.0
H799 H 0.86415 0.51303 0.5591 0.0
S800 S 0.10735 0.37354 0.57565 0.0
N801 N 0.10282 0.39036 0.55148 0.0
N802 N 0.03558 0.40219 0.58813 0.0
C803 C 0.00292 0.42786 0.5728 0.0
C804 C 0.04073 0.42148 0.55206 0.0
C805 C 0.46072 0.44477 0.07661 0.0
C806 C 0.5265 0.42371 0.06881 0.0
C807 C 0.41467 0.46533 0.0642 0.0
C808 C 0.4314 0.46495 1.04329 0.0
H809 H 0.44405 0.44464 0.09265 0.0
H810 H 0.36531 0.48163 0.07112 0.0
S811 S 0.59712 0.42019 1.01455 0.0
N812 N 0.60557 0.40833 1.03818 0.0
N813 N 0.52003 0.44504 1.01513 0.0
C814 C 0.49707 0.44481 1.0352 0.0
C815 C 0.54407 0.42487 1.04779 0.0
C816 C 0.21689 0.16072 0.19627 0.0
C817 C 0.25651 0.17105 0.17673 0.0
C818 C 0.20007 0.20775 0.20884 0.0
C819 C 0.22363 0.26615 0.20261 0.0
H820 H 0.19786 0.11661 0.20173 0.0
H821 H 0.16882 0.19809 0.22352 0.0
S822 S 0.33286 0.31351 0.15335 0.0
N823 N 0.31984 0.24302 0.15225 0.0
N824 N 0.29145 0.32875 0.1755 0.0
C825 C 0.26438 0.27557 0.18322 0.0
C826 C 0.27997 0.2289 0.17044 0.0
C827 C 0.39097 0.50222 0.43623 0.0
C828 C 0.42448 0.46952 0.42017 0.0
C829 C 0.33328 0.48744 0.44914 0.0
C830 C 0.30499 0.43976 0.44667 0.0
H831 H 0.40957 0.53952 0.43894 0.0
H832 H 0.3114 0.51262 0.46157 0.0
S833 S 0.37668 0.33371 0.40879 0.0
N834 N 0.42574 0.38317 0.40379 0.0
N835 N 0.31968 0.35585 0.42776 0.0
C836 C 0.33856 0.40623 0.43089 0.0
C837 C 0.39704 0.42113 0.41776 0.0
C838 C 0.27118 0.63567 0.66631 0.0
C839 C 0.2209 0.62923 0.65912 0.0
C840 C 0.29849 0.58576 0.68154 0.0
C841 C 0.27716 0.52625 0.69054 0.0
H842 H 0.29024 0.67967 0.65993 0.0
H843 H 0.33722 0.59428 0.68625 0.0
S844 S 0.14739 0.48356 0.67669 0.0
N845 N 0.1513 0.55775 0.66183 0.0
N846 N 0.20239 0.464 0.69054 0.0
C847 C 0.22691 0.51883 0.68341 0.0
C848 C 0.19905 0.57005 0.6677 0.0
C849 C 0.08717 0.56427 0.96625 0.0
C850 C 0.11822 0.52548 0.95167 0.0
C851 C 0.11805 0.57049 0.98045 0.0
C852 C 0.18186 0.53764 0.9813 0.0
H853 H 0.03844 0.59195 0.96647 0.0
H854 H 0.09165 0.60382 0.99049 0.0
S855 S 0.2808 0.41512 0.95063 0.0
N856 N 0.21492 0.44427 0.94142 0.0
N857 N 0.27113 0.45376 0.96902 0.0
C858 C 0.2118 0.49268 0.96849 0.0
C859 C 0.18055 0.4871 0.95353 0.0
C860 C 0.742 0.70583 0.89706 0.0
C861 C 0.74924 0.63659 0.90493 0.0
C862 C 0.72297 0.75151 0.91012 0.0
C863 C 0.71202 0.72987 0.93161 0.0
H864 H 0.74815 0.72516 0.88077 0.0
H865 H 0.71637 0.80426 0.90332 0.0
S866 S 0.72582 0.55362 0.95986 0.0
N867 N 0.7437 0.54939 0.93571 0.0
N868 N 0.71149 0.63339 0.9598 0.0
C869 C 0.72124 0.66059 0.93949 0.0
C870 C 0.73881 0.61468 0.92632 0.0
C871 C 0.58669 0.37175 0.67834 0.0
C872 C 0.54037 0.41429 0.69003 0.0
C873 C 0.64214 0.39123 0.66529 0.0
C874 C 0.65385 0.45431 0.66325 0.0
H875 H 0.58014 0.32294 0.67927 0.0
H876 H 0.67506 0.35736 0.6563 0.0
S877 S 0.54478 0.58697 0.68867 0.0
N878 N 0.5095 0.52409 0.69752 0.0
N879 N 0.61113 0.56046 0.67312 0.0
C880 C 0.60727 0.49729 0.67459 0.0
C881 C 0.55161 0.47741 0.68793 0.0
C882 C 0.68777 0.29908 0.45172 0.0
C883 C 0.75207 0.26431 0.44876 0.0
C884 C 0.66011 0.34262 0.4354 0.0
C885 C 0.69575 0.35545 0.41539 0.0
H886 H 0.6576 0.29036 0.46665 0.0
H887 H 0.60998 0.36614 0.43847 0.0
S888 S 0.86623 0.27918 0.39923 0.0
N889 N 0.85057 0.24648 0.4239 0.0
N890 N 0.79938 0.33047 0.39367 0.0
C891 C 0.76051 0.32299 0.41229 0.0
C892 C 0.78835 0.27701 0.4288 0.0
C893 C 0.84214 0.35862 0.12635 0.0
C894 C 0.77543 0.36781 0.13064 0.0
C895 C 0.87539 0.35826 0.141 0.0
C896 C 0.84363 0.36781 0.16065 0.0
H897 H 0.86948 0.34917 0.11174 0.0
H898 H 0.92664 0.34959 0.13692 0.0
S899 S 0.66867 0.40025 0.17863 0.0
N900 N 0.6788 0.39114 0.15528 0.0
N901 N 0.74007 0.39079 0.18287 0.0
C902 C 0.77653 0.38026 0.1647 0.0
C903 C 0.74291 0.38011 0.14975 0.0
C904 C 0.72683 0.73785 0.67182 0.0
C905 C 0.7417 0.66835 0.67968 0.0
C906 C 0.71124 0.78406 0.68438 0.0
C907 C 0.70726 0.76375 0.70565 0.0
H908 H 0.72962 0.75709 0.65561 0.0
H909 H 0.70332 0.83663 0.67724 0.0
S910 S 0.73731 0.58839 0.73449 0.0
N911 N 0.74926 0.58203 0.71065 0.0
N912 N 0.71756 0.66887 0.73409 0.0
C913 C 0.7194 0.6947 0.71391 0.0
C914 C 0.73716 0.64726 0.70103 0.0
C915 C 0.82293 0.92803 0.9283 0.0
C916 C 0.79863 0.94719 0.94716 0.0
C917 C 0.88039 0.94252 0.91538 0.0
C918 C 0.91744 -0.02353 0.92062 0.0
H919 H 0.79901 0.89864 0.92388 0.0
H920 H 0.89696 0.92489 0.90138 0.0
S921 S 0.87157 0.0442 0.96728 0.0
N922 N 0.81484 0.00615 0.96962 0.0
N923 N 0.92078 0.03389 0.94559 0.0
C924 C 0.8922 -0.00194 0.93908 0.0
C925 C 0.83383 -0.0168 0.95222 0.0
C926 C 0.80946 0.10322 0.18281 0.0
C927 C 0.78395 0.0469 0.19293 0.0
C928 C 0.78451 0.15162 0.16681 0.0
C929 C 0.73369 0.14538 0.15984 0.0
H930 H 0.84908 0.11046 0.18738 0.0
H931 H 0.80501 0.19455 0.1599 0.0
S932 S 0.64734 0.00992 0.18119 0.0
N933 N 0.70226 -0.00979 0.19505 0.0
N934 N 0.65717 0.07973 0.16455 0.0
C935 C 0.70725 0.0899 0.16977 0.0
C936 C 0.73191 0.04106 0.18637 0.0
C937 C 0.66053 -0.00267 0.48003 0.0
C938 C 0.69832 0.0448 0.47319 0.0
C939 C 0.62359 -0.01024 0.46741 0.0
C940 C 0.62257 0.02996 0.44757 0.0
H941 H 0.65697 -0.03174 0.49553 0.0
H942 H 0.59429 -0.04621 0.47343 0.0
S943 S 0.71429 0.15881 0.42208 0.0
N944 N 0.73279 0.13024 0.4448 0.0
N945 N 0.66463 0.11599 0.42161 0.0
C946 C 0.66144 0.07553 0.4405 0.0
C947 C 0.69866 0.0831 0.45316 0.0
C948 C 0.2426 0.23872 0.41396 0.0
C949 C 0.2056 0.22686 0.4339 0.0
C950 C 0.25962 0.19179 0.40135 0.0
C951 C 0.23866 0.13183 0.40789 0.0
H952 H 0.25898 0.2844 0.40811 0.0
H953 H 0.28841 0.20312 0.38629 0.0
S954 S 0.13746 0.07911 0.45846 0.0
N955 N 0.14769 0.15133 0.45918 0.0
N956 N 0.17714 0.06508 0.43599 0.0
C957 C 0.20099 0.12034 0.42779 0.0
C958 C 0.18506 0.16717 0.44059 0.0
C959 C 0.03605 -0.01272 0.17553 0.0
C960 C 0.03998 0.92276 0.18798 0.0
C961 C 0.0903 0.0081 0.16246 0.0
C962 C 0.1523 -0.03391 0.16102 0.0
H963 H -0.00956 0.02258 0.17603 0.0
H964 H 0.08337 0.05855 0.15337 0.0
S965 S 0.18883 0.79032 0.18966 0.0
N966 N 0.11149 0.81579 0.19757 0.0
N967 N 0.21271 0.85467 0.17317 0.0
C968 C 0.15701 0.90115 0.17343 0.0
C969 C 0.10134 0.87975 0.18678 0.0
C970 C 0.16436 0.78909 0.92745 0.0
C971 C 0.18434 0.84911 0.91817 0.0
C972 C 0.19099 0.74191 0.94335 0.0
C973 C 0.23755 0.75326 0.95123 0.0
H974 H 0.12779 0.77802 0.92232 0.0
H975 H 0.17446 0.69631 0.94969 0.0
S976 S 0.31007 0.8993 0.93191 0.0
N977 N 0.2577 0.91417 0.91743 0.0
N978 N 0.30468 0.82751 0.94806 0.0
C979 C 0.25851 0.81247 0.94213 0.0
C980 C 0.23277 0.85977 0.92544 0.0
C981 C 0.35752 0.90164 0.63748 0.0
C982 C 0.34387 0.87714 0.65875 0.0
C983 C 0.32163 0.89396 0.62463 0.0
C984 C 0.2701 0.86266 0.63258 0.0
H985 H 0.39708 0.92521 0.63069 0.0
H986 H 0.33608 0.91 0.60831 0.0
S987 S 0.21925 0.78547 0.68688 0.0
N988 N 0.27818 0.81701 0.68676 0.0
N989 N 0.20981 0.80564 0.66311 0.0
C990 C 0.25591 0.83941 0.65379 0.0
C991 C 0.29284 0.84599 0.66672 0.0
C992 C 0.11867 0.09433 1.03095 0.0
C993 C 0.14804 0.14647 1.02844 0.0
C994 C 0.10151 0.08412 1.0144 0.0
C995 C 0.11264 0.1264 0.99512 0.0
H996 H 0.11088 0.06018 1.04559 0.0
H997 H 0.08079 0.04233 1.01654 0.0
S998 S 0.18896 0.26921 0.98089 0.0
N999 N 0.18671 0.24096 1.00553 0.0
N1000 N 0.1563 0.2207 0.97431 0.0
C1001 C 0.1414 0.17896 0.99257 0.0
C1002 C 0.15864 0.1893 1.0093 0.0
C1003 C 0.58062 0.4089 0.23129 0.0
C1004 C 0.52474 0.38667 0.23501 0.0
C1005 C 0.5996 0.42238 0.24681 0.0
C1006 C 0.56224 0.41498 0.26634 0.0
H1007 H 0.60971 0.41627 0.21631 0.0
H1008 H 0.64358 0.43825 0.24359 0.0
S1009 S 0.41493 0.35313 0.28439 0.0
N1010 N 0.43418 0.35449 0.25976 0.0
N1011 N 0.4693 0.38128 0.28925 0.0
C1012 C 0.5063 0.3928 0.27039 0.0
C1013 C 0.48742 0.37838 0.25458 0.0
C1014 C 0.31723 0.9012 0.47157 0.0
C1015 C 0.31428 0.83404 0.47899 0.0
C1016 C 0.32754 0.92906 0.45064 0.0
C1017 C 0.33514 0.89056 0.43651 0.0
H1018 H 0.31093 0.93247 0.48206 0.0
H1019 H 0.32787 -0.01856 0.44554 0.0
S1020 S 0.33748 0.71064 0.44829 0.0
N1021 N 0.32365 0.72875 0.47077 0.0
N1022 N 0.34308 0.78089 0.43133 0.0
C1023 C 0.33358 0.82296 0.44376 0.0
C1024 C 0.32305 0.79472 0.46506 0.0
C1025 C 0.89136 0.44121 0.78361 0.0
C1026 C 0.89057 0.49355 0.76603 0.0
C1027 C 0.8888 0.45102 0.80318 0.0
C1028 C 0.88503 0.51393 0.80688 0.0
H1029 H 0.89369 0.39151 0.78231 0.0
H1030 H 0.88822 0.40826 0.81584 0.0
S1031 S 0.87859 0.66966 0.76664 0.0
N1032 N 0.88478 0.61246 0.75412 0.0
N1033 N 0.87912 0.63039 0.79064 0.0
C1034 C 0.88496 0.56691 0.78947 0.0
C1035 C 0.88795 0.55688 0.76931 0.0
C1036 C 0.79458 0.74708 0.1168 0.0
C1037 C 0.83396 0.79075 0.1137 0.0
C1038 C 0.77672 0.73732 0.10054 0.0
C1039 C 0.79763 0.77105 0.08072 0.0
H1040 H 0.77697 0.7206 0.13197 0.0
H1041 H 0.74687 0.70268 0.10345 0.0
S1042 S 0.89581 0.89563 0.06478 0.0
N1043 N 0.88977 0.8715 0.08973 0.0
N1044 N 0.85565 0.85295 0.05867 0.0
C1045 C 0.83543 0.81639 0.07735 0.0
C1046 C 0.85354 0.82659 0.09403 0.0
C1047 C 0.42369 0.4668 0.86853 0.0
C1048 C 0.38191 0.51784 0.87775 0.0
C1049 C 0.41273 0.45412 0.85145 0.0
C1050 C 0.35904 0.49126 0.84338 0.0
H1051 H 0.46561 0.43683 0.87439 0.0
H1052 H 0.44783 0.41728 0.84399 0.0
S1053 S 0.23093 0.62401 0.86307 0.0
N1054 N 0.283 0.60354 0.87793 0.0
N1055 N 0.25987 0.57471 0.84682 0.0
C1056 C 0.31449 0.53879 0.85323 0.0
C1057 C 0.32659 0.5535 0.87017 0.0
C1058 C 0.62348 -0.01797 0.65777 0.0
C1059 C 0.63068 0.01479 0.67157 0.0
C1060 C 0.6303 0.01133 0.63693 0.0
C1061 C 0.64397 0.07463 0.6292 0.0
H1062 H 0.61396 0.93277 0.66302 0.0
H1063 H 0.62572 -0.01612 0.62673 0.0
S1064 S 0.65969 0.18453 0.65912 0.0
N1065 N 0.64775 0.11609 0.67611 0.0
N1066 N 0.65945 0.17133 0.63696 0.0
C1067 C 0.64941 0.10873 0.64284 0.0
C1068 C 0.64293 0.0788 0.66403 0.0
C1069 C 0.12222 0.41869 0.32814 0.0
C1070 C 0.07476 0.39846 0.34471 0.0
C1071 C 0.13056 0.40687 0.30849 0.0
C1072 C 0.0919 0.37421 0.30336 0.0
H1073 H 0.15324 0.44585 0.33006 0.0
H1074 H 0.16818 0.4253 0.29699 0.0
S1075 S 0.95979 0.30895 0.34056 0.0
N1076 N -0.01168 0.34107 0.35417 0.0
N1077 N 0.00296 0.32157 0.31727 0.0
C1078 C 0.04394 0.35328 0.31964 0.0
C1079 C 0.03558 0.36484 0.34002 0.0
C1080 C 0.61677 0.56675 0.51468 0.0
C1081 C 0.62544 0.60935 0.49538 0.0
C1082 C 0.63069 0.58075 0.53118 0.0
C1083 C 0.6545 0.63696 0.52855 0.0
H1084 H 0.60044 0.522 0.51688 0.0
H1085 H 0.6246 0.54663 0.54589 0.0
S1086 S 0.6876 0.76187 0.48084 0.0
N1087 N 0.66076 0.70836 0.47438 0.0
N1088 N 0.68602 0.73506 0.5055 0.0
C1089 C 0.66305 0.6798 0.50936 0.0
C1090 C 0.64869 0.66586 0.49269 0.0
C1091 C -0.00876 0.89785 0.75113 0.0
C1092 C 0.03771 0.88927 0.73364 0.0
C1093 C 0.0063 0.91108 0.76748 0.0
C1094 C 0.06823 0.91529 0.76662 0.0
H1095 H 0.94364 0.89312 0.75223 0.0
H1096 H 0.97012 0.91564 0.78111 0.0
S1097 S 0.20487 0.90196 0.72366 0.0
N1098 N 0.14635 0.8908 0.71572 0.0
N1099 N 0.17512 0.91328 0.74703 0.0
C1100 C 0.11461 0.90827 0.74911 0.0
C1101 C 0.09921 0.89563 0.73242 0.0
C1102 C 0.84985 0.40646 0.95084 0.0
C1103 C 0.82635 0.38587 0.9374 0.0
C1104 C 0.8423 0.37562 0.97162 0.0
C1105 C 0.81114 0.32291 0.97975 0.0
H1106 H 0.87316 0.44758 0.94539 0.0
H1107 H 0.86013 0.39388 0.98147 0.0
S1108 S 0.74589 0.24576 0.95105 0.0
N1109 N 0.77374 0.30615 0.93379 0.0
N1110 N 0.76 0.24881 0.97276 0.0
C1111 C 0.78861 0.30086 0.96652 0.0
C1112 C 0.79627 0.33202 0.94537 0.0
C1113 C 0.40072 0.05921 0.28903 0.0
C1114 C 0.37419 0.01651 0.30673 0.0
C1115 C 0.40771 0.04972 0.26882 0.0
C1116 C 0.38814 -0.00262 0.26503 0.0
H1117 H 0.41509 0.10103 0.29071 0.0
H1118 H 0.42749 0.08473 0.256 0.0
S1119 S 0.3273 0.86423 0.30563 0.0
N1120 N 0.33665 0.91381 0.31826 0.0
N1121 N 0.34856 0.89821 0.2814 0.0
C1122 C 0.36457 -0.04683 0.28259 0.0
C1123 C 0.35805 -0.03792 0.30292 0.0
C1124 C 0.3922 0.27847 0.59658 0.0
C1125 C 0.34683 0.29138 0.61396 0.0
C1126 C 0.37435 0.26635 0.58051 0.0
C1127 C 0.31121 0.26474 0.58179 0.0
H1128 H 0.44178 0.27563 0.59575 0.0
H1129 H 0.41044 0.25577 0.56732 0.0
S1130 S 0.17544 0.29515 0.62444 0.0
N1131 N 0.23666 0.30364 0.63157 0.0
N1132 N 0.20353 0.27742 0.60176 0.0
C1133 C 0.2655 0.27822 0.59908 0.0
C1134 C 0.28327 0.29256 0.61509 0.0
C1135 C 0.82662 0.04593 0.37436 0.0
C1136 C 0.8834 0.01244 0.3811 0.0
C1137 C 0.81526 0.03441 0.35715 0.0
C1138 C 0.86036 -0.01093 0.34648 0.0
H1139 H 0.79151 0.0817 0.38224 0.0
H1140 H 0.7719 0.06228 0.35182 0.0
S1141 S 0.01313 0.88442 0.35966 0.0
N1142 N -0.01771 0.92845 0.3773 0.0
N1143 N 0.96201 0.90823 0.34435 0.0
C1144 C 0.91617 -0.04647 0.3536 0.0
C1145 C 0.92756 -0.03488 0.37109 0.0
C1146 C 0.16138 0.47213 0.15932 0.0
C1147 C 0.11942 0.50705 0.17365 0.0
C1148 C 0.17408 0.50336 0.13867 0.0
C1149 C 0.1441 0.57016 0.13168 0.0
H1150 H 0.18586 0.4209 0.1642 0.0
H1151 H 0.20726 0.47499 0.12808 0.0
S1152 S 0.02904 0.68248 0.16322 0.0
N1153 N 0.04779 0.61142 0.17965 0.0
N1154 N 0.06974 0.66981 0.14066 0.0
C1155 C 0.1009 0.60512 0.14585 0.0
C1156 C 0.08907 0.57365 0.16692 0.0
C1157 C 0.56202 0.84739 0.83995 0.0
C1158 C 0.56438 0.90812 0.84394 0.0
C1159 C 0.56743 0.83935 0.81969 0.0
C1160 C 0.57583 0.89154 0.80225 0.0
H1161 H 0.55775 0.80494 0.85253 0.0
H1162 H 0.56754 0.79118 0.81769 0.0
S1163 S 0.57344 0.06346 0.80455 0.0
N1164 N 0.56572 0.0233 0.82853 0.0
N1165 N 0.58068 0.00788 0.79142 0.0
C1166 C 0.57561 -0.04732 0.80641 0.0
C1167 C 0.56863 -0.03895 0.82679 0.0
loop_
_geom_bond_atom_site_label_1
_geom_bond_atom_site_label_2
_geom_bond_distance
_geom_bond_site_symmetry_2
_ccdc_geom_bond_type
Nd0 C2 2.836 . S
Nd0 O20 2.500 . S
Nd0 O21 2.492 . S
Nd0 O22 2.487 . S
Nd0 O23 2.682 . S
Nd0 O24 2.410 . S
Nd0 O29 2.414 . S
Nd0 O31 2.424 . S
Nd1 C11 2.836 . S
Nd1 O23 2.414 . S
Nd1 O25 2.424 . S
Nd1 O26 2.500 . S
Nd1 O27 2.492 . S
Nd1 O28 2.487 . S
Nd1 O29 2.682 . S
Nd1 O30 2.410 . S
C2 Nd0 2.836 . S
C2 C3 1.498 . S
C2 O20 1.258 . S
C2 O21 1.239 . S
C3 C2 1.498 . S
C3 C4 1.366 . S
C3 C8 1.407 . S
C4 C3 1.366 . S
C4 C5 1.392 . S
C4 H32 0.930 . S
C5 C4 1.392 . S
C5 C6 1.398 . S
C5 H33 0.929 . S
C6 C5 1.398 . S
C6 C7 1.352 . S
C7 C6 1.352 . S
C7 C8 1.384 . S
C7 H34 0.930 . S
C8 C3 1.407 . S
C8 C7 1.384 . S
C8 H35 0.929 . S
C9 O22 1.241 . S
C9 O23 1.273 . S
C10 O24 1.251 . S
C10 O25 1.268 . S
C11 Nd1 2.836 . S
C11 C12 1.498 . S
C11 O26 1.258 . S
C11 O27 1.239 . S
C12 C11 1.498 . S
C12 C13 1.366 . S
C12 C17 1.407 . S
C13 C12 1.366 . S
C13 C14 1.392 1_554 S
C13 H36 0.930 . S
C14 C13 1.392 1_556 S
C14 C15 1.398 . S
C14 H37 0.929 . S
C15 C14 1.398 . S
C15 C16 1.352 . S
C16 C15 1.352 . S
C16 C17 1.384 1_556 S
C16 H38 0.930 . S
C17 C12 1.407 . S
C17 C16 1.384 1_554 S
C17 H39 0.929 . S
C18 O28 1.241 . S
C18 O29 1.273 . S
C19 O30 1.251 . S
C19 O31 1.268 . S
O20 Nd0 2.500 . S
O20 C2 1.258 . S
O21 Nd0 2.492 . S
O21 C2 1.239 . S
O22 Nd0 2.487 . S
O22 C9 1.241 . S
O23 Nd0 2.682 . S
O23 Nd1 2.414 . S
O23 C9 1.273 . S
O24 Nd0 2.410 . S
O24 C10 1.251 . S
O25 Nd1 2.424 . S
O25 C10 1.268 . S
O26 Nd1 2.500 . S
O26 C11 1.258 . S
O27 Nd1 2.492 . S
O27 C11 1.239 . S
O28 Nd1 2.487 . S
O28 C18 1.241 . S
O29 Nd0 2.414 . S
O29 Nd1 2.682 . S
O29 C18 1.273 . S
O30 Nd1 2.410 . S
O30 C19 1.251 . S
O31 Nd0 2.424 . S
O31 C19 1.268 . S
H32 C4 0.930 . S
H33 C5 0.929 . S
H34 C7 0.930 . S
H35 C8 0.929 . S
H36 C13 0.930 . S
H37 C14 0.929 . S
H38 C16 0.930 . S
H39 C17 0.929 . S
Nd40 C42 2.836 . S
Nd40 O60 2.500 . S
Nd40 O61 2.492 . S
Nd40 O62 2.487 . S
Nd40 O63 2.682 . S
Nd40 O64 2.410 . S
Nd40 O69 2.414 . S
Nd40 O71 2.424 . S
Nd41 C51 2.836 . S
Nd41 O63 2.414 . S
Nd41 O65 2.424 . S
Nd41 O66 2.500 . S
Nd41 O67 2.492 . S
Nd41 O68 2.487 . S
Nd41 O69 2.682 . S
Nd41 O70 2.410 . S
C42 Nd40 2.836 . S
C42 C43 1.498 . S
C42 O60 1.258 . S
C42 O61 1.239 . S
C43 C42 1.498 . S
C43 C44 1.366 . S
C43 C48 1.407 . S
C44 C43 1.366 . S
C44 C45 1.392 . S
C44 H72 0.930 . S
C45 C44 1.392 . S
C45 C46 1.398 . S
C45 H73 0.929 . S
C46 C45 1.398 . S
C46 C47 1.352 . S
C47 C46 1.352 . S
C47 C48 1.384 . S
C47 H74 0.930 . S
C48 C43 1.407 . S
C48 C47 1.384 . S
C48 H75 0.929 . S
C49 O62 1.241 . S
C49 O63 1.273 . S
C50 O64 1.251 . S
C50 O65 1.268 . S
C51 Nd41 2.836 . S
C51 C52 1.498 . S
C51 O66 1.258 . S
C51 O67 1.239 . S
C52 C51 1.498 . S
C52 C53 1.366 . S
C52 C57 1.407 . S
C53 C52 1.366 . S
C53 C54 1.392 . S
C53 H76 0.930 . S
C54 C53 1.392 . S
C54 C55 1.398 . S
C54 H77 0.929 . S
C55 C54 1.398 . S
C55 C56 1.352 . S
C56 C55 1.352 . S
C56 C57 1.384 . S
C56 H78 0.930 . S
C57 C52 1.407 . S
C57 C56 1.384 . S
C57 H79 0.929 . S
C58 O68 1.241 . S
C58 O69 1.273 . S
C59 O70 1.251 . S
C59 O71 1.268 . S
O60 Nd40 2.500 . S
O60 C42 1.258 . S
O61 Nd40 2.492 . S
O61 C42 1.239 . S
O62 Nd40 2.487 . S
O62 C49 1.241 . S
O63 Nd40 2.682 . S
O63 Nd41 2.414 . S
O63 C49 1.273 . S
O64 Nd40 2.410 . S
O64 C50 1.251 . S
O65 Nd41 2.424 . S
O65 C50 1.268 . S
O66 Nd41 2.500 . S
O66 C51 1.258 . S
O67 Nd41 2.492 . S
O67 C51 1.239 . S
O68 Nd41 2.487 . S
O68 C58 1.241 . S
O69 Nd40 2.414 . S
O69 Nd41 2.682 . S
O69 C58 1.273 . S
O70 Nd41 2.410 . S
O70 C59 1.251 . S
O71 Nd40 2.424 . S
O71 C59 1.268 . S
H72 C44 0.930 . S
H73 C45 0.929 . S
H74 C47 0.930 . S
H75 C48 0.929 . S
H76 C53 0.930 . S
H77 C54 0.929 . S
H78 C56 0.930 . S
H79 C57 0.929 . S
Nd80 C82 2.836 . S
Nd80 O100 2.500 . S
Nd80 O101 2.492 . S
Nd80 O102 2.487 . S
Nd80 O103 2.682 . S
Nd80 O104 2.410 . S
Nd80 O109 2.414 . S
Nd80 O111 2.424 . S
Nd81 C91 2.836 . S
Nd81 O103 2.414 . S
Nd81 O105 2.424 . S
Nd81 O106 2.500 . S
Nd81 O107 2.492 . S
Nd81 O108 2.487 . S
Nd81 O109 2.682 . S
Nd81 O110 2.410 . S
C82 Nd80 2.836 . S
C82 C83 1.498 . S
C82 O100 1.258 . S
C82 O101 1.239 . S
C83 C82 1.498 . S
C83 C84 1.366 . S
C83 C88 1.407 . S
C84 C83 1.366 . S
C84 C85 1.392 . S
C84 H112 0.930 . S
C85 C84 1.392 . S
C85 C86 1.398 . S
C85 H113 0.929 . S
C86 C85 1.398 . S
C86 C87 1.352 . S
C87 C86 1.352 . S
C87 C88 1.384 . S
C87 H114 0.930 1_455 S
C88 C83 1.407 . S
C88 C87 1.384 . S
C88 H115 0.929 1_455 S
C89 O102 1.241 . S
C89 O103 1.273 . S
C90 O104 1.251 . S
C90 O105 1.268 . S
C91 Nd81 2.836 . S
C91 C92 1.498 . S
C91 O106 1.258 . S
C91 O107 1.239 . S
C92 C91 1.498 . S
C92 C93 1.366 . S
C92 C97 1.407 . S
C93 C92 1.366 . S
C93 C94 1.392 . S
C93 H116 0.930 . S
C94 C93 1.392 . S
C94 C95 1.398 . S
C94 H117 0.929 . S
C95 C94 1.398 . S
C95 C96 1.352 . S
C96 C95 1.352 . S
C96 C97 1.384 . S
C96 H118 0.930 . S
C97 C92 1.407 . S
C97 C96 1.384 . S
C97 H119 0.929 . S
C98 O108 1.241 . S
C98 O109 1.273 . S
C99 O110 1.251 . S
C99 O111 1.268 . S
O100 Nd80 2.500 . S
O100 C82 1.258 . S
O101 Nd80 2.492 . S
O101 C82 1.239 . S
O102 Nd80 2.487 . S
O102 C89 1.241 . S
O103 Nd80 2.682 . S
O103 Nd81 2.414 . S
O103 C89 1.273 . S
O104 Nd80 2.410 . S
O104 C90 1.251 . S
O105 Nd81 2.424 . S
O105 C90 1.268 . S
O106 Nd81 2.500 . S
O106 C91 1.258 . S
O107 Nd81 2.492 . S
O107 C91 1.239 . S
O108 Nd81 2.487 . S
O108 C98 1.241 . S
O109 Nd80 2.414 . S
O109 Nd81 2.682 . S
O109 C98 1.273 . S
O110 Nd81 2.410 . S
O110 C99 1.251 . S
O111 Nd80 2.424 . S
O111 C99 1.268 . S
H112 C84 0.930 . S
H113 C85 0.929 . S
H114 C87 0.930 1_655 S
H115 C88 0.929 1_655 S
H116 C93 0.930 . S
H117 C94 0.929 . S
H118 C96 0.930 . S
H119 C97 0.929 . S
Nd120 C122 2.836 . S
Nd120 O140 2.500 . S
Nd120 O141 2.492 . S
Nd120 O142 2.487 . S
Nd120 O143 2.682 . S
Nd120 O144 2.410 . S
Nd120 O149 2.414 . S
Nd120 O151 2.424 . S
Nd121 C131 2.836 1_655 S
Nd121 O143 2.414 . S
Nd121 O145 2.424 . S
Nd121 O146 2.500 1_655 S
Nd121 O147 2.492 1_655 S
Nd121 O148 2.487 1_655 S
Nd121 O149 2.682 . S
Nd121 O150 2.410 . S
C122 Nd120 2.836 . S
C122 C123 1.498 . S
C122 O140 1.258 . S
C122 O141 1.239 . S
C123 C122 1.498 . S
C123 C124 1.366 . S
C123 C128 1.407 . S
C124 C123 1.366 . S
C124 C125 1.392 . S
C124 H152 0.930 . S
C125 C124 1.392 . S
C125 C126 1.398 . S
C125 H153 0.929 . S
C126 C125 1.398 . S
C126 C127 1.352 . S
C127 C126 1.352 . S
C127 C128 1.384 . S
C127 H154 0.930 . S
C128 C123 1.407 . S
C128 C127 1.384 . S
C128 H155 0.929 . S
C129 O142 1.241 . S
C129 O143 1.273 . S
C130 O144 1.251 . S
C130 O145 1.268 . S
C131 Nd121 2.836 1_455 S
C131 C132 1.498 . S
C131 O146 1.258 . S
C131 O147 1.239 . S
C132 C131 1.498 . S
C132 C133 1.366 . S
C132 C137 1.407 . S
C133 C132 1.366 . S
C133 C134 1.392 . S
C133 H156 0.930 . S
C134 C133 1.392 . S
C134 C135 1.398 . S
C134 H157 0.929 . S
C135 C134 1.398 . S
C135 C136 1.352 . S
C136 C135 1.352 . S
C136 C137 1.384 . S
C136 H158 0.930 . S
C137 C132 1.407 . S
C137 C136 1.384 . S
C137 H159 0.929 . S
C138 O148 1.241 . S
C138 O149 1.273 1_455 S
C139 O150 1.251 . S
C139 O151 1.268 . S
O140 Nd120 2.500 . S
O140 C122 1.258 . S
O141 Nd120 2.492 . S
O141 C122 1.239 . S
O142 Nd120 2.487 . S
O142 C129 1.241 . S
O143 Nd120 2.682 . S
O143 Nd121 2.414 . S
O143 C129 1.273 . S
O144 Nd120 2.410 . S
O144 C130 1.251 . S
O145 Nd121 2.424 . S
O145 C130 1.268 . S
O146 Nd121 2.500 1_455 S
O146 C131 1.258 . S
O147 Nd121 2.492 1_455 S
O147 C131 1.239 . S
O148 Nd121 2.487 1_455 S
O148 C138 1.241 . S
O149 Nd120 2.414 . S
O149 Nd121 2.682 . S
O149 C138 1.273 1_655 S
O150 Nd121 2.410 . S
O150 C139 1.251 . S
O151 Nd120 2.424 . S
O151 C139 1.268 . S
H152 C124 0.930 . S
H153 C125 0.929 . S
H154 C127 0.930 . S
H155 C128 0.929 . S
H156 C133 0.930 . S
H157 C134 0.929 . S
H158 C136 0.930 . S
H159 C137 0.929 . S
Nd160 C162 2.836 . S
Nd160 O180 2.500 . S
Nd160 O181 2.492 . S
Nd160 O182 2.487 . S
Nd160 O183 2.682 . S
Nd160 O184 2.410 . S
Nd160 O189 2.414 . S
Nd160 O191 2.424 . S
Nd161 C171 2.836 . S
Nd161 O183 2.414 . S
Nd161 O185 2.424 . S
Nd161 O186 2.500 . S
Nd161 O187 2.492 . S
Nd161 O188 2.487 . S
Nd161 O189 2.682 . S
Nd161 O190 2.410 . S
C162 Nd160 2.836 . S
C162 C163 1.498 . S
C162 O180 1.258 . S
C162 O181 1.239 . S
C163 C162 1.498 . S
C163 C164 1.366 . S
C163 C168 1.407 . S
C164 C163 1.366 . S
C164 C165 1.392 1_556 S
C164 H192 0.930 . S
C165 C164 1.392 1_554 S
C165 C166 1.398 . S
C165 H193 0.929 . S
C166 C165 1.398 . S
C166 C167 1.352 . S
C167 C166 1.352 . S
C167 C168 1.384 1_554 S
C167 H194 0.930 . S
C168 C163 1.407 . S
C168 C167 1.384 1_556 S
C168 H195 0.929 . S
C169 O182 1.241 . S
C169 O183 1.273 . S
C170 O184 1.251 . S
C170 O185 1.268 . S
C171 Nd161 2.836 . S
C171 C172 1.498 . S
C171 O186 1.258 . S
C171 O187 1.239 . S
C172 C171 1.498 . S
C172 C173 1.366 . S
C172 C177 1.407 . S
C173 C172 1.366 . S
C173 C174 1.392 . S
C173 H196 0.930 . S
C174 C173 1.392 . S
C174 C175 1.398 . S
C174 H197 0.929 . S
C175 C174 1.398 . S
C175 C176 1.352 . S
C176 C175 1.352 . S
C176 C177 1.384 . S
C176 H198 0.930 . S
C177 C172 1.407 . S
C177 C176 1.384 . S
C177 H199 0.929 . S
C178 O188 1.241 . S
C178 O189 1.273 . S
C179 O190 1.251 . S
C179 O191 1.268 . S
O180 Nd160 2.500 . S
O180 C162 1.258 . S
O181 Nd160 2.492 . S
O181 C162 1.239 . S
O182 Nd160 2.487 . S
O182 C169 1.241 . S
O183 Nd160 2.682 . S
O183 Nd161 2.414 . S
O183 C169 1.273 . S
O184 Nd160 2.410 . S
O184 C170 1.251 . S
O185 Nd161 2.424 . S
O185 C170 1.268 . S
O186 Nd161 2.500 . S
O186 C171 1.258 . S
O187 Nd161 2.492 . S
O187 C171 1.239 . S
O188 Nd161 2.487 . S
O188 C178 1.241 . S
O189 Nd160 2.414 . S
O189 Nd161 2.682 . S
O189 C178 1.273 . S
O190 Nd161 2.410 . S
O190 C179 1.251 . S
O191 Nd160 2.424 . S
O191 C179 1.268 . S
H192 C164 0.930 . S
H193 C165 0.929 . S
H194 C167 0.930 . S
H195 C168 0.929 . S
H196 C173 0.930 . S
H197 C174 0.929 . S
H198 C176 0.930 . S
H199 C177 0.929 . S
Nd200 C202 2.836 . S
Nd200 O220 2.500 . S
Nd200 O221 2.492 . S
Nd200 O222 2.487 . S
Nd200 O223 2.682 . S
Nd200 O224 2.410 . S
Nd200 O229 2.414 . S
Nd200 O231 2.424 . S
Nd201 C211 2.836 . S
Nd201 O223 2.414 . S
Nd201 O225 2.424 . S
Nd201 O226 2.500 . S
Nd201 O227 2.492 . S
Nd201 O228 2.487 . S
Nd201 O229 2.682 . S
Nd201 O230 2.410 . S
C202 Nd200 2.836 . S
C202 C203 1.498 . S
C202 O220 1.258 . S
C202 O221 1.239 . S
C203 C202 1.498 . S
C203 C204 1.366 . S
C203 C208 1.407 . S
C204 C203 1.366 . S
C204 C205 1.392 . S
C204 H232 0.930 . S
C205 C204 1.392 . S
C205 C206 1.398 . S
C205 H233 0.929 . S
C206 C205 1.398 . S
C206 C207 1.352 . S
C207 C206 1.352 . S
C207 C208 1.384 . S
C207 H234 0.930 . S
C208 C203 1.407 . S
C208 C207 1.384 . S
C208 H235 0.929 . S
C209 O222 1.241 . S
C209 O223 1.273 . S
C210 O224 1.251 . S
C210 O225 1.268 . S
C211 Nd201 2.836 . S
C211 C212 1.498 . S
C211 O226 1.258 . S
C211 O227 1.239 . S
C212 C211 1.498 . S
C212 C213 1.366 . S
C212 C217 1.407 . S
C213 C212 1.366 . S
C213 C214 1.392 . S
C213 H236 0.930 . S
C214 C213 1.392 . S
C214 C215 1.398 . S
C214 H237 0.929 . S
C215 C214 1.398 . S
C215 C216 1.352 . S
C216 C215 1.352 . S
C216 C217 1.384 . S
C216 H238 0.930 . S
C217 C212 1.407 . S
C217 C216 1.384 . S
C217 H239 0.929 . S
C218 O228 1.241 . S
C218 O229 1.273 . S
C219 O230 1.251 . S
C219 O231 1.268 . S
O220 Nd200 2.500 . S
O220 C202 1.258 . S
O221 Nd200 2.492 . S
O221 C202 1.239 . S
O222 Nd200 2.487 . S
O222 C209 1.241 . S
O223 Nd200 2.682 . S
O223 Nd201 2.414 . S
O223 C209 1.273 . S
O224 Nd200 2.410 . S
O224 C210 1.251 . S
O225 Nd201 2.424 . S
O225 C210 1.268 . S
O226 Nd201 2.500 . S
O226 C211 1.258 . S
O227 Nd201 2.492 . S
O227 C211 1.239 . S
O228 Nd201 2.487 . S
O228 C218 1.241 . S
O229 Nd200 2.414 . S
O229 Nd201 2.682 . S
O229 C218 1.273 . S
O230 Nd201 2.410 . S
O230 C219 1.251 . S
O231 Nd200 2.424 . S
O231 C219 1.268 . S
H232 C204 0.930 . S
H233 C205 0.929 . S
H234 C207 0.930 . S
H235 C208 0.929 . S
H236 C213 0.930 . S
H237 C214 0.929 . S
H238 C216 0.930 . S
H239 C217 0.929 . S
Nd240 C242 2.836 . S
Nd240 O260 2.500 . S
Nd240 O261 2.492 . S
Nd240 O262 2.487 . S
Nd240 O263 2.682 . S
Nd240 O264 2.410 . S
Nd240 O269 2.414 . S
Nd240 O271 2.424 . S
Nd241 C251 2.836 . S
Nd241 O263 2.414 . S
Nd241 O265 2.424 . S
Nd241 O266 2.500 . S
Nd241 O267 2.492 . S
Nd241 O268 2.487 . S
Nd241 O269 2.682 . S
Nd241 O270 2.410 . S
C242 Nd240 2.836 . S
C242 C243 1.498 . S
C242 O260 1.258 . S
C242 O261 1.239 . S
C243 C242 1.498 . S
C243 C244 1.366 . S
C243 C248 1.407 . S
C244 C243 1.366 . S
C244 C245 1.392 . S
C244 H272 0.930 . S
C245 C244 1.392 . S
C245 C246 1.398 . S
C245 H273 0.929 . S
C246 C245 1.398 . S
C246 C247 1.352 . S
C247 C246 1.352 . S
C247 C248 1.384 . S
C247 H274 0.930 . S
C248 C243 1.407 . S
C248 C247 1.384 . S
C248 H275 0.929 . S
C249 O262 1.241 . S
C249 O263 1.273 . S
C250 O264 1.251 . S
C250 O265 1.268 . S
C251 Nd241 2.836 . S
C251 C252 1.498 . S
C251 O266 1.258 . S
C251 O267 1.239 . S
C252 C251 1.498 . S
C252 C253 1.366 . S
C252 C257 1.407 . S
C253 C252 1.366 . S
C253 C254 1.392 . S
C253 H276 0.930 . S
C254 C253 1.392 . S
C254 C255 1.398 . S
C254 H277 0.929 . S
C255 C254 1.398 . S
C255 C256 1.352 . S
C256 C255 1.352 . S
C256 C257 1.384 . S
C256 H278 0.930 1_655 S
C257 C252 1.407 . S
C257 C256 1.384 . S
C257 H279 0.929 1_655 S
C258 O268 1.241 . S
C258 O269 1.273 . S
C259 O270 1.251 . S
C259 O271 1.268 . S
O260 Nd240 2.500 . S
O260 C242 1.258 . S
O261 Nd240 2.492 . S
O261 C242 1.239 . S
O262 Nd240 2.487 . S
O262 C249 1.241 . S
O263 Nd240 2.682 . S
O263 Nd241 2.414 . S
O263 C249 1.273 . S
O264 Nd240 2.410 . S
O264 C250 1.251 . S
O265 Nd241 2.424 . S
O265 C250 1.268 . S
O266 Nd241 2.500 . S
O266 C251 1.258 . S
O267 Nd241 2.492 . S
O267 C251 1.239 . S
O268 Nd241 2.487 . S
O268 C258 1.241 . S
O269 Nd240 2.414 . S
O269 Nd241 2.682 . S
O269 C258 1.273 . S
O270 Nd241 2.410 . S
O270 C259 1.251 . S
O271 Nd240 2.424 . S
O271 C259 1.268 . S
H272 C244 0.930 . S
H273 C245 0.929 . S
H274 C247 0.930 . S
H275 C248 0.929 . S
H276 C253 0.930 . S
H277 C254 0.929 . S
H278 C256 0.930 1_455 S
H279 C257 0.929 1_455 S
Nd280 C282 2.836 1_455 S
Nd280 O300 2.500 1_455 S
Nd280 O301 2.492 1_455 S
Nd280 O302 2.487 1_455 S
Nd280 O303 2.682 . S
Nd280 O304 2.410 . S
Nd280 O309 2.414 . S
Nd280 O311 2.424 . S
Nd281 C291 2.836 . S
Nd281 O303 2.414 . S
Nd281 O305 2.424 . S
Nd281 O306 2.500 . S
Nd281 O307 2.492 . S
Nd281 O308 2.487 . S
Nd281 O309 2.682 . S
Nd281 O310 2.410 . S
C282 Nd280 2.836 1_655 S
C282 C283 1.498 . S
C282 O300 1.258 . S
C282 O301 1.239 . S
C283 C282 1.498 . S
C283 C284 1.366 . S
C283 C288 1.407 . S
C284 C283 1.366 . S
C284 C285 1.392 . S
C284 H312 0.930 . S
C285 C284 1.392 . S
C285 C286 1.398 . S
C285 H313 0.929 . S
C286 C285 1.398 . S
C286 C287 1.352 . S
C287 C286 1.352 . S
C287 C288 1.384 . S
C287 H314 0.930 . S
C288 C283 1.407 . S
C288 C287 1.384 . S
C288 H315 0.929 . S
C289 O302 1.241 . S
C289 O303 1.273 1_655 S
C290 O304 1.251 . S
C290 O305 1.268 . S
C291 Nd281 2.836 . S
C291 C292 1.498 . S
C291 O306 1.258 . S
C291 O307 1.239 . S
C292 C291 1.498 . S
C292 C293 1.366 . S
C292 C297 1.407 . S
C293 C292 1.366 . S
C293 C294 1.392 . S
C293 H316 0.930 . S
C294 C293 1.392 . S
C294 C295 1.398 . S
C294 H317 0.929 . S
C295 C294 1.398 . S
C295 C296 1.352 . S
C296 C295 1.352 . S
C296 C297 1.384 . S
C296 H318 0.930 . S
C297 C292 1.407 . S
C297 C296 1.384 . S
C297 H319 0.929 . S
C298 O308 1.241 . S
C298 O309 1.273 . S
C299 O310 1.251 . S
C299 O311 1.268 . S
O300 Nd280 2.500 1_655 S
O300 C282 1.258 . S
O301 Nd280 2.492 1_655 S
O301 C282 1.239 . S
O302 Nd280 2.487 1_655 S
O302 C289 1.241 . S
O303 Nd280 2.682 . S
O303 Nd281 2.414 . S
O303 C289 1.273 1_455 S
O304 Nd280 2.410 . S
O304 C290 1.251 . S
O305 Nd281 2.424 . S
O305 C290 1.268 . S
O306 Nd281 2.500 . S
O306 C291 1.258 . S
O307 Nd281 2.492 . S
O307 C291 1.239 . S
O308 Nd281 2.487 . S
O308 C298 1.241 . S
O309 Nd280 2.414 . S
O309 Nd281 2.682 . S
O309 C298 1.273 . S
O310 Nd281 2.410 . S
O310 C299 1.251 . S
O311 Nd280 2.424 . S
O311 C299 1.268 . S
H312 C284 0.930 . S
H313 C285 0.929 . S
H314 C287 0.930 . S
H315 C288 0.929 . S
H316 C293 0.930 . S
H317 C294 0.929 . S
H318 C296 0.930 . S
H319 C297 0.929 . S
Nd320 C322 2.836 . S
Nd320 O340 2.500 . S
Nd320 O341 2.492 . S
Nd320 O342 2.487 . S
Nd320 O343 2.682 . S
Nd320 O344 2.410 . S
Nd320 O349 2.414 . S
Nd320 O351 2.424 . S
Nd321 C331 2.836 . S
Nd321 O343 2.414 . S
Nd321 O345 2.424 . S
Nd321 O346 2.500 . S
Nd321 O347 2.492 . S
Nd321 O348 2.487 . S
Nd321 O349 2.682 . S
Nd321 O350 2.410 . S
C322 Nd320 2.836 . S
C322 C323 1.498 . S
C322 O340 1.258 . S
C322 O341 1.239 . S
C323 C322 1.498 . S
C323 C324 1.366 . S
C323 C328 1.407 . S
C324 C323 1.366 . S
C324 C325 1.392 . S
C324 H352 0.930 . S
C325 C324 1.392 . S
C325 C326 1.398 . S
C325 H353 0.929 . S
C326 C325 1.398 . S
C326 C327 1.352 . S
C327 C326 1.352 . S
C327 C328 1.384 . S
C327 H354 0.930 . S
C328 C323 1.407 . S
C328 C327 1.384 . S
C328 H355 0.929 . S
C329 O342 1.241 . S
C329 O343 1.273 . S
C330 O344 1.251 . S
C330 O345 1.268 . S
C331 Nd321 2.836 . S
C331 C332 1.498 . S
C331 O346 1.258 . S
C331 O347 1.239 . S
C332 C331 1.498 . S
C332 C333 1.366 . S
C332 C337 1.407 . S
C333 C332 1.366 . S
C333 C334 1.392 . S
C333 H356 0.930 . S
C334 C333 1.392 . S
C334 C335 1.398 . S
C334 H357 0.929 . S
C335 C334 1.398 . S
C335 C336 1.352 . S
C336 C335 1.352 . S
C336 C337 1.384 . S
C336 H358 0.930 . S
C337 C332 1.407 . S
C337 C336 1.384 . S
C337 H359 0.929 . S
C338 O348 1.241 . S
C338 O349 1.273 . S
C339 O350 1.251 . S
C339 O351 1.268 . S
O340 Nd320 2.500 . S
O340 C322 1.258 . S
O341 Nd320 2.492 . S
O341 C322 1.239 . S
O342 Nd320 2.487 . S
O342 C329 1.241 . S
O343 Nd320 2.682 . S
O343 Nd321 2.414 . S
O343 C329 1.273 . S
O344 Nd320 2.410 . S
O344 C330 1.251 . S
O345 Nd321 2.424 . S
O345 C330 1.268 . S
O346 Nd321 2.500 . S
O346 C331 1.258 . S
O347 Nd321 2.492 . S
O347 C331 1.239 . S
O348 Nd321 2.487 . S
O348 C338 1.241 . S
O349 Nd320 2.414 . S
O349 Nd321 2.682 . S
O349 C338 1.273 . S
O350 Nd321 2.410 . S
O350 C339 1.251 . S
O351 Nd320 2.424 . S
O351 C339 1.268 . S
H352 C324 0.930 . S
H353 C325 0.929 . S
H354 C327 0.930 . S
H355 C328 0.929 . S
H356 C333 0.930 . S
H357 C334 0.929 . S
H358 C336 0.930 . S
H359 C337 0.929 . S
Nd360 C362 2.836 . S
Nd360 O380 2.500 . S
Nd360 O381 2.492 . S
Nd360 O382 2.487 . S
Nd360 O383 2.682 . S
Nd360 O384 2.410 . S
Nd360 O389 2.414 . S
Nd360 O391 2.424 . S
Nd361 C371 2.836 . S
Nd361 O383 2.414 . S
Nd361 O385 2.424 . S
Nd361 O386 2.500 . S
Nd361 O387 2.490 1_545 S
Nd361 O388 2.487 1_545 S
Nd361 O389 2.682 . S
Nd361 O390 2.410 . S
C362 Nd360 2.836 . S
C362 C363 1.498 . S
C362 O380 1.258 . S
C362 O381 1.239 . S
C363 C362 1.498 . S
C363 C364 1.366 . S
C363 C368 1.407 . S
C364 C363 1.366 . S
C364 C365 1.392 . S
C364 H392 0.930 . S
C365 C364 1.392 . S
C365 C366 1.398 . S
C365 H393 0.929 . S
C366 C365 1.398 . S
C366 C367 1.352 . S
C367 C366 1.352 . S
C367 C368 1.384 . S
C367 H394 0.930 . S
C368 C363 1.407 . S
C368 C367 1.384 . S
C368 H395 0.929 . S
C369 O382 1.241 . S
C369 O383 1.273 . S
C370 O384 1.251 . S
C370 O385 1.268 . S
C371 Nd361 2.836 . S
C371 C372 1.498 . S
C371 O386 1.258 . S
C371 O387 1.236 1_545 S
C372 C371 1.498 . S
C372 C373 1.366 . S
C372 C377 1.407 1_545 S
C373 C372 1.366 . S
C373 C374 1.392 . S
C373 H396 0.930 . S
C374 C373 1.392 . S
C374 C375 1.398 . S
C374 H397 0.929 . S
C375 C374 1.398 . S
C375 C376 1.352 1_545 S
C376 C375 1.352 1_565 S
C376 C377 1.384 . S
C376 H398 0.930 . S
C377 C372 1.407 1_565 S
C377 C376 1.384 . S
C377 H399 0.929 . S
C378 O388 1.241 . S
C378 O389 1.273 1_565 S
C379 O390 1.251 . S
C379 O391 1.268 . S
O380 Nd360 2.500 . S
O380 C362 1.258 . S
O381 Nd360 2.492 . S
O381 C362 1.239 . S
O382 Nd360 2.487 . S
O382 C369 1.241 . S
O383 Nd360 2.682 . S
O383 Nd361 2.414 . S
O383 C369 1.273 . S
O384 Nd360 2.410 . S
O384 C370 1.251 . S
O385 Nd361 2.424 . S
O385 C370 1.268 . S
O386 Nd361 2.500 . S
O386 C371 1.258 . S
O387 Nd361 2.490 1_565 S
O387 C371 1.236 1_565 S
O388 Nd361 2.487 1_565 S
O388 C378 1.241 . S
O389 Nd360 2.414 . S
O389 Nd361 2.682 . S
O389 C378 1.273 1_545 S
O390 Nd361 2.410 . S
O390 C379 1.251 . S
O391 Nd360 2.424 . S
O391 C379 1.268 . S
H392 C364 0.930 . S
H393 C365 0.929 . S
H394 C367 0.930 . S
H395 C368 0.929 . S
H396 C373 0.930 . S
H397 C374 0.929 . S
H398 C376 0.930 . S
H399 C377 0.929 . S
Nd400 C402 2.836 . S
Nd400 O420 2.500 . S
Nd400 O421 2.492 . S
Nd400 O422 2.487 . S
Nd400 O423 2.682 . S
Nd400 O424 2.410 . S
Nd400 O429 2.414 . S
Nd400 O431 2.424 . S
Nd401 C411 2.836 . S
Nd401 O423 2.414 . S
Nd401 O425 2.424 . S
Nd401 O426 2.500 . S
Nd401 O427 2.492 . S
Nd401 O428 2.487 . S
Nd401 O429 2.682 . S
Nd401 O430 2.410 . S
C402 Nd400 2.836 . S
C402 C403 1.498 . S
C402 O420 1.258 . S
C402 O421 1.239 . S
C403 C402 1.498 . S
C403 C404 1.366 . S
C403 C408 1.407 . S
C404 C403 1.366 . S
C404 C405 1.392 . S
C404 H432 0.930 . S
C405 C404 1.392 . S
C405 C406 1.398 . S
C405 H433 0.929 . S
C406 C405 1.398 . S
C406 C407 1.352 . S
C407 C406 1.352 . S
C407 C408 1.384 . S
C407 H434 0.930 . S
C408 C403 1.407 . S
C408 C407 1.384 . S
C408 H435 0.929 . S
C409 O422 1.241 . S
C409 O423 1.273 . S
C410 O424 1.251 . S
C410 O425 1.268 . S
C411 Nd401 2.836 . S
C411 C412 1.498 1_554 S
C411 O426 1.258 . S
C411 O427 1.239 . S
C412 C411 1.498 1_556 S
C412 C413 1.366 . S
C412 C417 1.407 . S
C413 C412 1.366 . S
C413 C414 1.392 . S
C413 H436 0.930 . S
C414 C413 1.392 . S
C414 C415 1.398 . S
C414 H437 0.929 . S
C415 C414 1.398 . S
C415 C416 1.352 . S
C416 C415 1.352 . S
C416 C417 1.384 . S
C416 H438 0.930 . S
C417 C412 1.407 . S
C417 C416 1.384 . S
C417 H439 0.929 . S
C418 O428 1.241 . S
C418 O429 1.273 . S
C419 O430 1.251 . S
C419 O431 1.268 . S
O420 Nd400 2.500 . S
O420 C402 1.258 . S
O421 Nd400 2.492 . S
O421 C402 1.239 . S
O422 Nd400 2.487 . S
O422 C409 1.241 . S
O423 Nd400 2.682 . S
O423 Nd401 2.414 . S
O423 C409 1.273 . S
O424 Nd400 2.410 . S
O424 C410 1.251 . S
O425 Nd401 2.424 . S
O425 C410 1.268 . S
O426 Nd401 2.500 . S
O426 C411 1.258 . S
O427 Nd401 2.492 . S
O427 C411 1.239 . S
O428 Nd401 2.487 . S
O428 C418 1.241 . S
O429 Nd400 2.414 . S
O429 Nd401 2.682 . S
O429 C418 1.273 . S
O430 Nd401 2.410 . S
O430 C419 1.251 . S
O431 Nd400 2.424 . S
O431 C419 1.268 . S
H432 C404 0.930 . S
H433 C405 0.929 . S
H434 C407 0.930 . S
H435 C408 0.929 . S
H436 C413 0.930 . S
H437 C414 0.929 . S
H438 C416 0.930 . S
H439 C417 0.929 . S
Nd440 C442 2.836 . S
Nd440 O460 2.500 . S
Nd440 O461 2.492 . S
Nd440 O462 2.487 1_565 S
Nd440 O463 2.682 1_565 S
Nd440 O464 2.410 1_565 S
Nd440 O469 2.414 . S
Nd440 O471 2.424 . S
Nd441 C451 2.836 . S
Nd441 O463 2.414 . S
Nd441 O465 2.424 . S
Nd441 O466 2.500 . S
Nd441 O467 2.492 1_545 S
Nd441 O468 2.487 1_545 S
Nd441 O469 2.682 1_545 S
Nd441 O470 2.410 1_545 S
C442 Nd440 2.836 . S
C442 C443 1.498 . S
C442 O460 1.258 . S
C442 O461 1.239 . S
C443 C442 1.498 . S
C443 C444 1.366 . S
C443 C448 1.407 . S
C444 C443 1.366 . S
C444 C445 1.392 . S
C444 H472 0.930 . S
C445 C444 1.392 . S
C445 C446 1.398 . S
C445 H473 0.929 . S
C446 C445 1.398 . S
C446 C447 1.352 . S
C447 C446 1.352 . S
C447 C448 1.384 . S
C447 H474 0.930 . S
C448 C443 1.407 . S
C448 C447 1.384 . S
C448 H475 0.929 . S
C449 O462 1.241 . S
C449 O463 1.273 . S
C450 O464 1.251 . S
C450 O465 1.268 . S
C451 Nd441 2.836 . S
C451 C452 1.498 . S
C451 O466 1.258 . S
C451 O467 1.239 1_545 S
C452 C451 1.498 . S
C452 C453 1.366 . S
C452 C457 1.407 . S
C453 C452 1.366 . S
C453 C454 1.392 . S
C453 H476 0.930 . S
C454 C453 1.392 . S
C454 C455 1.398 . S
C454 H477 0.929 . S
C455 C454 1.398 . S
C455 C456 1.352 . S
C456 C455 1.352 . S
C456 C457 1.384 . S
C456 H478 0.930 . S
C457 C452 1.407 . S
C457 C456 1.384 . S
C457 H479 0.929 1_545 S
C458 O468 1.241 . S
C458 O469 1.273 . S
C459 O470 1.251 . S
C459 O471 1.268 . S
O460 Nd440 2.500 . S
O460 C442 1.258 . S
O461 Nd440 2.492 . S
O461 C442 1.239 . S
O462 Nd440 2.487 1_545 S
O462 C449 1.241 . S
O463 Nd440 2.682 1_545 S
O463 Nd441 2.414 . S
O463 C449 1.273 . S
O464 Nd440 2.410 1_545 S
O464 C450 1.251 . S
O465 Nd441 2.424 . S
O465 C450 1.268 . S
O466 Nd441 2.500 . S
O466 C451 1.258 . S
O467 Nd441 2.492 1_565 S
O467 C451 1.239 1_565 S
O468 Nd441 2.487 1_565 S
O468 C458 1.241 . S
O469 Nd440 2.414 . S
O469 Nd441 2.682 1_565 S
O469 C458 1.273 . S
O470 Nd441 2.410 1_565 S
O470 C459 1.251 . S
O471 Nd440 2.424 . S
O471 C459 1.268 . S
H472 C444 0.930 . S
H473 C445 0.929 . S
H474 C447 0.930 . S
H475 C448 0.929 . S
H476 C453 0.930 . S
H477 C454 0.929 . S
H478 C456 0.930 . S
H479 C457 0.929 1_565 S
Nd480 C482 2.836 . S
Nd480 O500 2.500 . S
Nd480 O501 2.492 . S
Nd480 O502 2.487 . S
Nd480 O503 2.682 . S
Nd480 O504 2.410 . S
Nd480 O509 2.414 . S
Nd480 O511 2.424 . S
Nd481 C491 2.836 . S
Nd481 O503 2.414 . S
Nd481 O505 2.424 . S
Nd481 O506 2.500 . S
Nd481 O507 2.492 . S
Nd481 O508 2.487 . S
Nd481 O509 2.682 . S
Nd481 O510 2.410 . S
C482 Nd480 2.836 . S
C482 C483 1.498 . S
C482 O500 1.258 . S
C482 O501 1.239 . S
C483 C482 1.498 . S
C483 C484 1.366 . S
C483 C488 1.407 . S
C484 C483 1.366 . S
C484 C485 1.392 . S
C484 H512 0.930 . S
C485 C484 1.392 . S
C485 C486 1.398 . S
C485 H513 0.929 . S
C486 C485 1.398 . S
C486 C487 1.352 . S
C487 C486 1.352 . S
C487 C488 1.384 . S
C487 H514 0.930 . S
C488 C483 1.407 . S
C488 C487 1.384 . S
C488 H515 0.929 . S
C489 O502 1.241 . S
C489 O503 1.273 . S
C490 O504 1.251 . S
C490 O505 1.268 . S
C491 Nd481 2.836 . S
C491 C492 1.498 . S
C491 O506 1.258 . S
C491 O507 1.239 . S
C492 C491 1.498 . S
C492 C493 1.366 . S
C492 C497 1.407 . S
C493 C492 1.366 . S
C493 C494 1.392 . S
C493 H516 0.930 . S
C494 C493 1.392 . S
C494 C495 1.398 . S
C494 H517 0.929 . S
C495 C494 1.398 . S
C495 C496 1.352 . S
C496 C495 1.352 . S
C496 C497 1.384 . S
C496 H518 0.930 . S
C497 C492 1.407 . S
C497 C496 1.384 . S
C497 H519 0.929 . S
C498 O508 1.241 . S
C498 O509 1.273 . S
C499 O510 1.251 . S
C499 O511 1.268 . S
O500 Nd480 2.500 . S
O500 C482 1.258 . S
O501 Nd480 2.492 . S
O501 C482 1.239 . S
O502 Nd480 2.487 . S
O502 C489 1.241 . S
O503 Nd480 2.682 . S
O503 Nd481 2.414 . S
O503 C489 1.273 . S
O504 Nd480 2.410 . S
O504 C490 1.251 . S
O505 Nd481 2.424 . S
O505 C490 1.268 . S
O506 Nd481 2.500 . S
O506 C491 1.258 . S
O507 Nd481 2.492 . S
O507 C491 1.239 . S
O508 Nd481 2.487 . S
O508 C498 1.241 . S
O509 Nd480 2.414 . S
O509 Nd481 2.682 . S
O509 C498 1.273 . S
O510 Nd481 2.410 . S
O510 C499 1.251 . S
O511 Nd480 2.424 . S
O511 C499 1.268 . S
H512 C484 0.930 . S
H513 C485 0.929 . S
H514 C487 0.930 . S
H515 C488 0.929 . S
H516 C493 0.930 . S
H517 C494 0.929 . S
H518 C496 0.930 . S
H519 C497 0.929 . S
Nd520 C522 2.836 . S
Nd520 O540 2.500 . S
Nd520 O541 2.490 1_565 S
Nd520 O542 2.487 1_565 S
Nd520 O543 2.682 . S
Nd520 O544 2.410 . S
Nd520 O549 2.414 . S
Nd520 O551 2.424 . S
Nd521 C531 2.836 . S
Nd521 O543 2.414 . S
Nd521 O545 2.424 . S
Nd521 O546 2.500 . S
Nd521 O547 2.492 . S
Nd521 O548 2.487 . S
Nd521 O549 2.682 . S
Nd521 O550 2.410 . S
C522 Nd520 2.836 . S
C522 C523 1.498 . S
C522 O540 1.258 . S
C522 O541 1.236 1_565 S
C523 C522 1.498 . S
C523 C524 1.366 . S
C523 C528 1.407 1_565 S
C524 C523 1.366 . S
C524 C525 1.392 . S
C524 H552 0.930 . S
C525 C524 1.392 . S
C525 C526 1.398 . S
C525 H553 0.929 . S
C526 C525 1.398 . S
C526 C527 1.352 1_565 S
C527 C526 1.352 1_545 S
C527 C528 1.384 . S
C527 H554 0.930 . S
C528 C523 1.407 1_545 S
C528 C527 1.384 . S
C528 H555 0.929 . S
C529 O542 1.241 . S
C529 O543 1.273 1_545 S
C530 O544 1.251 . S
C530 O545 1.268 . S
C531 Nd521 2.836 . S
C531 C532 1.498 . S
C531 O546 1.258 . S
C531 O547 1.239 . S
C532 C531 1.498 . S
C532 C533 1.366 . S
C532 C537 1.407 . S
C533 C532 1.366 . S
C533 C534 1.392 . S
C533 H556 0.930 . S
C534 C533 1.392 . S
C534 C535 1.398 . S
C534 H557 0.929 . S
C535 C534 1.398 . S
C535 C536 1.352 . S
C536 C535 1.352 . S
C536 C537 1.384 . S
C536 H558 0.930 . S
C537 C532 1.407 . S
C537 C536 1.384 . S
C537 H559 0.929 . S
C538 O548 1.241 . S
C538 O549 1.273 . S
C539 O550 1.251 . S
C539 O551 1.268 . S
O540 Nd520 2.500 . S
O540 C522 1.258 . S
O541 Nd520 2.490 1_545 S
O541 C522 1.236 1_545 S
O542 Nd520 2.487 1_545 S
O542 C529 1.241 . S
O543 Nd520 2.682 . S
O543 Nd521 2.414 . S
O543 C529 1.273 1_565 S
O544 Nd520 2.410 . S
O544 C530 1.251 . S
O545 Nd521 2.424 . S
O545 C530 1.268 . S
O546 Nd521 2.500 . S
O546 C531 1.258 . S
O547 Nd521 2.492 . S
O547 C531 1.239 . S
O548 Nd521 2.487 . S
O548 C538 1.241 . S
O549 Nd520 2.414 . S
O549 Nd521 2.682 . S
O549 C538 1.273 . S
O550 Nd521 2.410 . S
O550 C539 1.251 . S
O551 Nd520 2.424 . S
O551 C539 1.268 . S
H552 C524 0.930 . S
H553 C525 0.929 . S
H554 C527 0.930 . S
H555 C528 0.929 . S
H556 C533 0.930 . S
H557 C534 0.929 . S
H558 C536 0.930 . S
H559 C537 0.929 . S
Nd560 C562 2.836 . S
Nd560 O580 2.500 . S
Nd560 O581 2.492 . S
Nd560 O582 2.487 . S
Nd560 O583 2.682 . S
Nd560 O584 2.410 . S
Nd560 O589 2.414 . S
Nd560 O591 2.424 . S
Nd561 C571 2.836 . S
Nd561 O583 2.414 . S
Nd561 O585 2.424 . S
Nd561 O586 2.500 . S
Nd561 O587 2.492 . S
Nd561 O588 2.487 . S
Nd561 O589 2.682 . S
Nd561 O590 2.410 . S
C562 Nd560 2.836 . S
C562 C563 1.498 1_556 S
C562 O580 1.258 . S
C562 O581 1.239 . S
C563 C562 1.498 1_554 S
C563 C564 1.366 . S
C563 C568 1.407 . S
C564 C563 1.366 . S
C564 C565 1.392 . S
C564 H592 0.930 . S
C565 C564 1.392 . S
C565 C566 1.398 . S
C565 H593 0.929 . S
C566 C565 1.398 . S
C566 C567 1.352 . S
C567 C566 1.352 . S
C567 C568 1.384 . S
C567 H594 0.930 . S
C568 C563 1.407 . S
C568 C567 1.384 . S
C568 H595 0.929 . S
C569 O582 1.241 . S
C569 O583 1.273 . S
C570 O584 1.251 . S
C570 O585 1.268 . S
C571 Nd561 2.836 . S
C571 C572 1.498 . S
C571 O586 1.258 . S
C571 O587 1.239 . S
C572 C571 1.498 . S
C572 C573 1.366 . S
C572 C577 1.407 . S
C573 C572 1.366 . S
C573 C574 1.392 . S
C573 H596 0.930 . S
C574 C573 1.392 . S
C574 C575 1.398 . S
C574 H597 0.929 . S
C575 C574 1.398 . S
C575 C576 1.352 . S
C576 C575 1.352 . S
C576 C577 1.384 . S
C576 H598 0.930 . S
C577 C572 1.407 . S
C577 C576 1.384 . S
C577 H599 0.929 . S
C578 O588 1.241 . S
C578 O589 1.273 . S
C579 O590 1.251 . S
C579 O591 1.268 . S
O580 Nd560 2.500 . S
O580 C562 1.258 . S
O581 Nd560 2.492 . S
O581 C562 1.239 . S
O582 Nd560 2.487 . S
O582 C569 1.241 . S
O583 Nd560 2.682 . S
O583 Nd561 2.414 . S
O583 C569 1.273 . S
O584 Nd560 2.410 . S
O584 C570 1.251 . S
O585 Nd561 2.424 . S
O585 C570 1.268 . S
O586 Nd561 2.500 . S
O586 C571 1.258 . S
O587 Nd561 2.492 . S
O587 C571 1.239 . S
O588 Nd561 2.487 . S
O588 C578 1.241 . S
O589 Nd560 2.414 . S
O589 Nd561 2.682 . S
O589 C578 1.273 . S
O590 Nd561 2.410 . S
O590 C579 1.251 . S
O591 Nd560 2.424 . S
O591 C579 1.268 . S
H592 C564 0.930 . S
H593 C565 0.929 . S
H594 C567 0.930 . S
H595 C568 0.929 . S
H596 C573 0.930 . S
H597 C574 0.929 . S
H598 C576 0.930 . S
H599 C577 0.929 . S
Nd600 C602 2.836 . S
Nd600 O620 2.500 . S
Nd600 O621 2.492 1_565 S
Nd600 O622 2.487 1_565 S
Nd600 O623 2.682 1_565 S
Nd600 O624 2.410 1_565 S
Nd600 O629 2.414 . S
Nd600 O631 2.424 . S
Nd601 C611 2.836 . S
Nd601 O623 2.414 . S
Nd601 O625 2.424 . S
Nd601 O626 2.500 . S
Nd601 O627 2.492 . S
Nd601 O628 2.487 1_545 S
Nd601 O629 2.682 1_545 S
Nd601 O630 2.410 1_545 S
C602 Nd600 2.836 . S
C602 C603 1.498 . S
C602 O620 1.258 . S
C602 O621 1.239 1_565 S
C603 C602 1.498 . S
C603 C604 1.366 . S
C603 C608 1.407 . S
C604 C603 1.366 . S
C604 C605 1.392 . S
C604 H632 0.930 . S
C605 C604 1.392 . S
C605 C606 1.398 . S
C605 H633 0.929 . S
C606 C605 1.398 . S
C606 C607 1.352 . S
C607 C606 1.352 . S
C607 C608 1.384 . S
C607 H634 0.930 . S
C608 C603 1.407 . S
C608 C607 1.384 . S
C608 H635 0.929 1_565 S
C609 O622 1.241 . S
C609 O623 1.273 . S
C610 O624 1.251 . S
C610 O625 1.268 . S
C611 Nd601 2.836 . S
C611 C612 1.498 . S
C611 O626 1.258 . S
C611 O627 1.239 . S
C612 C611 1.498 . S
C612 C613 1.366 . S
C612 C617 1.407 . S
C613 C612 1.366 . S
C613 C614 1.392 . S
C613 H636 0.930 . S
C614 C613 1.392 . S
C614 C615 1.398 . S
C614 H637 0.929 . S
C615 C614 1.398 . S
C615 C616 1.352 . S
C616 C615 1.352 . S
C616 C617 1.384 . S
C616 H638 0.930 . S
C617 C612 1.407 . S
C617 C616 1.384 . S
C617 H639 0.929 . S
C618 O628 1.241 . S
C618 O629 1.273 . S
C619 O630 1.251 . S
C619 O631 1.268 . S
O620 Nd600 2.500 . S
O620 C602 1.258 . S
O621 Nd600 2.492 1_545 S
O621 C602 1.239 1_545 S
O622 Nd600 2.487 1_545 S
O622 C609 1.241 . S
O623 Nd600 2.682 1_545 S
O623 Nd601 2.414 . S
O623 C609 1.273 . S
O624 Nd600 2.410 1_545 S
O624 C610 1.251 . S
O625 Nd601 2.424 . S
O625 C610 1.268 . S
O626 Nd601 2.500 . S
O626 C611 1.258 . S
O627 Nd601 2.492 . S
O627 C611 1.239 . S
O628 Nd601 2.487 1_565 S
O628 C618 1.241 . S
O629 Nd600 2.414 . S
O629 Nd601 2.682 1_565 S
O629 C618 1.273 . S
O630 Nd601 2.410 1_565 S
O630 C619 1.251 . S
O631 Nd600 2.424 . S
O631 C619 1.268 . S
H632 C604 0.930 . S
H633 C605 0.929 . S
H634 C607 0.930 . S
H635 C608 0.929 1_545 S
H636 C613 0.930 . S
H637 C614 0.929 . S
H638 C616 0.930 . S
H639 C617 0.929 . S
C640 C641 1.369 . S
C640 C642 1.419 . S
C640 H644 0.930 . S
C641 C640 1.369 . S
C641 C650 1.429 . S
C642 C640 1.419 . S
C642 C643 1.363 . S
C642 H645 0.929 . S
C643 C642 1.363 . S
C643 C649 1.428 . S
H644 C640 0.930 . S
H645 C642 0.929 . S
S646 N647 1.613 . S
S646 N648 1.610 . S
N647 S646 1.613 . S
N647 C650 1.350 . S
N648 S646 1.610 . S
N648 C649 1.351 . S
C649 C643 1.428 . S
C649 N648 1.351 . S
C649 C650 1.434 . S
C650 C641 1.429 . S
C650 N647 1.350 . S
C650 C649 1.434 . S
C651 C652 1.369 . S
C651 C653 1.419 . S
C651 H655 0.930 . S
C652 C651 1.369 . S
C652 C661 1.429 . S
C653 C651 1.419 . S
C653 C654 1.363 . S
C653 H656 0.929 . S
C654 C653 1.363 . S
C654 C660 1.428 . S
H655 C651 0.930 . S
H656 C653 0.929 . S
S657 N658 1.613 . S
S657 N659 1.610 . S
N658 S657 1.613 . S
N658 C661 1.350 . S
N659 S657 1.610 . S
N659 C660 1.351 . S
C660 C654 1.428 . S
C660 N659 1.351 . S
C660 C661 1.434 . S
C661 C652 1.429 . S
C661 N658 1.350 . S
C661 C660 1.434 . S
C662 C663 1.369 . S
C662 C664 1.419 1_455 S
C662 H666 0.930 . S
C663 C662 1.369 . S
C663 C672 1.429 . S
C664 C662 1.419 1_655 S
C664 C665 1.363 . S
C664 H667 0.929 . S
C665 C664 1.363 . S
C665 C671 1.428 . S
H666 C662 0.930 . S
H667 C664 0.929 . S
S668 N669 1.613 . S
S668 N670 1.610 1_455 S
N669 S668 1.613 . S
N669 C672 1.350 . S
N670 S668 1.610 1_655 S
N670 C671 1.351 . S
C671 C665 1.428 . S
C671 N670 1.351 . S
C671 C672 1.434 1_655 S
C672 C663 1.429 . S
C672 N669 1.350 . S
C672 C671 1.434 1_455 S
C673 C674 1.369 1_655 S
C673 C675 1.419 . S
C673 H677 0.930 . S
C674 C673 1.369 1_455 S
C674 C683 1.429 . S
C675 C673 1.419 . S
C675 C676 1.363 1_655 S
C675 H678 0.929 . S
C676 C675 1.363 1_455 S
C676 C682 1.428 . S
H677 C673 0.930 . S
H678 C675 0.929 . S
S679 N680 1.613 . S
S679 N681 1.610 . S
N680 S679 1.613 . S
N680 C683 1.350 . S
N681 S679 1.610 . S
N681 C682 1.351 . S
C682 C676 1.428 . S
C682 N681 1.351 . S
C682 C683 1.434 . S
C683 C674 1.429 . S
C683 N680 1.350 . S
C683 C682 1.434 . S
C684 C685 1.369 . S
C684 C686 1.419 . S
C684 H688 0.930 . S
C685 C684 1.369 . S
C685 C694 1.429 . S
C686 C684 1.419 . S
C686 C687 1.363 . S
C686 H689 0.929 . S
C687 C686 1.363 . S
C687 C693 1.428 . S
H688 C684 0.930 . S
H689 C686 0.929 . S
S690 N691 1.613 . S
S690 N692 1.610 . S
N691 S690 1.613 . S
N691 C694 1.350 . S
N692 S690 1.610 . S
N692 C693 1.351 . S
C693 C687 1.428 . S
C693 N692 1.351 . S
C693 C694 1.434 . S
C694 C685 1.429 . S
C694 N691 1.350 . S
C694 C693 1.434 . S
C695 C696 1.369 . S
C695 C697 1.419 . S
C695 H699 0.930 . S
C696 C695 1.369 . S
C696 C705 1.429 . S
C697 C695 1.419 . S
C697 C698 1.363 . S
C697 H700 0.929 . S
C698 C697 1.363 . S
C698 C704 1.428 . S
H699 C695 0.930 . S
H700 C697 0.929 . S
S701 N702 1.613 . S
S701 N703 1.610 . S
N702 S701 1.613 . S
N702 C705 1.350 . S
N703 S701 1.610 . S
N703 C704 1.351 . S
C704 C698 1.428 . S
C704 N703 1.351 . S
C704 C705 1.434 . S
C705 C696 1.429 . S
C705 N702 1.350 . S
C705 C704 1.434 . S
C706 C707 1.369 1_655 S
C706 C708 1.419 . S
C706 H710 0.930 . S
C707 C706 1.369 1_455 S
C707 C716 1.429 . S
C708 C706 1.419 . S
C708 C709 1.363 . S
C708 H711 0.929 . S
C709 C708 1.363 . S
C709 C715 1.428 1_655 S
H710 C706 0.930 . S
H711 C708 0.929 . S
S712 N713 1.613 . S
S712 N714 1.610 . S
N713 S712 1.613 . S
N713 C716 1.350 . S
N714 S712 1.610 . S
N714 C715 1.351 . S
C715 C709 1.428 1_455 S
C715 N714 1.351 . S
C715 C716 1.434 . S
C716 C707 1.429 . S
C716 N713 1.350 . S
C716 C715 1.434 . S
C717 C718 1.369 1_455 S
C717 C719 1.419 . S
C717 H721 0.930 . S
C718 C717 1.369 1_655 S
C718 C727 1.429 . S
C719 C717 1.419 . S
C719 C720 1.363 1_455 S
C719 H722 0.929 . S
C720 C719 1.363 1_655 S
C720 C726 1.428 . S
H721 C717 0.930 . S
H722 C719 0.929 . S
S723 N724 1.613 . S
S723 N725 1.610 . S
N724 S723 1.613 . S
N724 C727 1.350 . S
N725 S723 1.610 . S
N725 C726 1.351 . S
C726 C720 1.428 . S
C726 N725 1.351 . S
C726 C727 1.434 . S
C727 C718 1.429 . S
C727 N724 1.350 . S
C727 C726 1.434 . S
C728 C729 1.373 . S
C728 C730 1.419 1_554 S
C728 H732 0.930 . S
C729 C728 1.373 . S
C729 C738 1.424 1_545 S
C730 C728 1.419 1_556 S
C730 C731 1.363 1_545 S
C730 H733 0.929 . S
C731 C730 1.363 1_565 S
C731 C737 1.428 . S
H732 C728 0.930 . S
H733 C730 0.929 . S
S734 N735 1.613 . S
S734 N736 1.610 1_554 S
N735 S734 1.613 . S
N735 C738 1.350 . S
N736 S734 1.610 1_556 S
N736 C737 1.351 . S
C737 C731 1.428 . S
C737 N736 1.351 . S
C737 C738 1.434 1_556 S
C738 C729 1.424 1_565 S
C738 N735 1.350 . S
C738 C737 1.434 1_554 S
C739 C740 1.369 . S
C739 C741 1.419 . S
C739 H743 0.930 . S
C740 C739 1.369 . S
C740 C749 1.429 . S
C741 C739 1.419 . S
C741 C742 1.363 . S
C741 H744 0.929 . S
C742 C741 1.363 . S
C742 C748 1.428 . S
H743 C739 0.930 . S
H744 C741 0.929 . S
S745 N746 1.613 . S
S745 N747 1.610 . S
N746 S745 1.613 . S
N746 C749 1.350 . S
N747 S745 1.610 . S
N747 C748 1.351 . S
C748 C742 1.428 . S
C748 N747 1.351 . S
C748 C749 1.434 . S
C749 C740 1.429 . S
C749 N746 1.350 . S
C749 C748 1.434 . S
C750 C751 1.369 . S
C750 C752 1.419 . S
C750 H754 0.930 . S
C751 C750 1.369 . S
C751 C760 1.429 1_465 S
C752 C750 1.419 . S
C752 C753 1.363 1_465 S
C752 H755 0.929 . S
C753 C752 1.363 1_645 S
C753 C759 1.428 . S
H754 C750 0.930 . S
H755 C752 0.929 . S
S756 N757 1.613 . S
S756 N758 1.610 . S
N757 S756 1.613 . S
N757 C760 1.350 . S
N758 S756 1.610 . S
N758 C759 1.351 . S
C759 C753 1.428 . S
C759 N758 1.351 . S
C759 C760 1.434 . S
C760 C751 1.429 1_645 S
C760 N757 1.350 . S
C760 C759 1.434 . S
C761 C762 1.369 . S
C761 C763 1.419 . S
C761 H765 0.930 . S
C762 C761 1.369 . S
C762 C771 1.429 . S
C763 C761 1.419 . S
C763 C764 1.363 . S
C763 H766 0.929 . S
C764 C763 1.363 . S
C764 C770 1.428 . S
H765 C761 0.930 . S
H766 C763 0.929 . S
S767 N768 1.613 . S
S767 N769 1.610 . S
N768 S767 1.613 . S
N768 C771 1.350 . S
N769 S767 1.610 . S
N769 C770 1.351 . S
C770 C764 1.428 . S
C770 N769 1.351 . S
C770 C771 1.434 . S
C771 C762 1.429 . S
C771 N768 1.350 . S
C771 C770 1.434 . S
C772 C773 1.369 . S
C772 C774 1.419 . S
C772 H776 0.930 . S
C773 C772 1.369 . S
C773 C782 1.429 . S
C774 C772 1.419 . S
C774 C775 1.363 . S
C774 H777 0.929 . S
C775 C774 1.363 . S
C775 C781 1.428 . S
H776 C772 0.930 . S
H777 C774 0.929 . S
S778 N779 1.613 . S
S778 N780 1.610 . S
N779 S778 1.613 . S
N779 C782 1.350 . S
N780 S778 1.610 . S
N780 C781 1.351 . S
C781 C775 1.428 . S
C781 N780 1.351 . S
C781 C782 1.434 . S
C782 C773 1.429 . S
C782 N779 1.350 . S
C782 C781 1.434 . S
C783 C784 1.369 . S
C783 C785 1.419 . S
C783 H787 0.930 . S
C784 C783 1.369 . S
C784 C793 1.429 . S
C785 C783 1.419 . S
C785 C786 1.363 . S
C785 H788 0.929 . S
C786 C785 1.363 . S
C786 C792 1.428 . S
H787 C783 0.930 . S
H788 C785 0.929 . S
S789 N790 1.613 . S
S789 N791 1.610 . S
N790 S789 1.613 . S
N790 C793 1.350 . S
N791 S789 1.610 . S
N791 C792 1.351 . S
C792 C786 1.428 . S
C792 N791 1.351 . S
C792 C793 1.434 . S
C793 C784 1.429 . S
C793 N790 1.350 . S
C793 C792 1.434 . S
C794 C795 1.369 1_655 S
C794 C796 1.419 . S
C794 H798 0.930 . S
C795 C794 1.369 1_455 S
C795 C804 1.429 . S
C796 C794 1.419 . S
C796 C797 1.363 . S
C796 H799 0.929 . S
C797 C796 1.363 . S
C797 C803 1.428 1_655 S
H798 C794 0.930 . S
H799 C796 0.929 . S
S800 N801 1.613 . S
S800 N802 1.610 . S
N801 S800 1.613 . S
N801 C804 1.350 . S
N802 S800 1.610 . S
N802 C803 1.351 . S
C803 C797 1.428 1_455 S
C803 N802 1.351 . S
C803 C804 1.434 . S
C804 C795 1.429 . S
C804 N801 1.350 . S
C804 C803 1.434 . S
C805 C806 1.369 . S
C805 C807 1.419 . S
C805 H809 0.930 . S
C806 C805 1.369 . S
C806 C815 1.429 1_554 S
C807 C805 1.419 . S
C807 C808 1.363 1_554 S
C807 H810 0.929 . S
C808 C807 1.363 1_556 S
C808 C814 1.428 . S
H809 C805 0.930 . S
H810 C807 0.929 . S
S811 N812 1.613 . S
S811 N813 1.610 . S
N812 S811 1.613 . S
N812 C815 1.350 . S
N813 S811 1.610 . S
N813 C814 1.351 . S
C814 C808 1.428 . S
C814 N813 1.351 . S
C814 C815 1.434 . S
C815 C806 1.429 1_556 S
C815 N812 1.350 . S
C815 C814 1.434 . S
C816 C817 1.369 . S
C816 C818 1.419 . S
C816 H820 0.930 . S
C817 C816 1.369 . S
C817 C826 1.429 . S
C818 C816 1.419 . S
C818 C819 1.363 . S
C818 H821 0.929 . S
C819 C818 1.363 . S
C819 C825 1.428 . S
H820 C816 0.930 . S
H821 C818 0.929 . S
S822 N823 1.613 . S
S822 N824 1.610 . S
N823 S822 1.613 . S
N823 C826 1.350 . S
N824 S822 1.610 . S
N824 C825 1.351 . S
C825 C819 1.428 . S
C825 N824 1.351 . S
C825 C826 1.434 . S
C826 C817 1.429 . S
C826 N823 1.350 . S
C826 C825 1.434 . S
C827 C828 1.369 . S
C827 C829 1.419 . S
C827 H831 0.930 . S
C828 C827 1.369 . S
C828 C837 1.429 . S
C829 C827 1.419 . S
C829 C830 1.363 . S
C829 H832 0.929 . S
C830 C829 1.363 . S
C830 C836 1.428 . S
H831 C827 0.930 . S
H832 C829 0.929 . S
S833 N834 1.613 . S
S833 N835 1.610 . S
N834 S833 1.613 . S
N834 C837 1.350 . S
N835 S833 1.610 . S
N835 C836 1.351 . S
C836 C830 1.428 . S
C836 N835 1.351 . S
C836 C837 1.434 . S
C837 C828 1.429 . S
C837 N834 1.350 . S
C837 C836 1.434 . S
C838 C839 1.369 . S
C838 C840 1.419 . S
C838 H842 0.930 . S
C839 C838 1.369 . S
C839 C848 1.429 . S
C840 C838 1.419 . S
C840 C841 1.363 . S
C840 H843 0.929 . S
C841 C840 1.363 . S
C841 C847 1.428 . S
H842 C838 0.930 . S
H843 C840 0.929 . S
S844 N845 1.613 . S
S844 N846 1.610 . S
N845 S844 1.613 . S
N845 C848 1.350 . S
N846 S844 1.610 . S
N846 C847 1.351 . S
C847 C841 1.428 . S
C847 N846 1.351 . S
C847 C848 1.434 . S
C848 C839 1.429 . S
C848 N845 1.350 . S
C848 C847 1.434 . S
C849 C850 1.369 . S
C849 C851 1.419 . S
C849 H853 0.930 . S
C850 C849 1.369 . S
C850 C859 1.429 . S
C851 C849 1.419 . S
C851 C852 1.363 . S
C851 H854 0.929 . S
C852 C851 1.363 . S
C852 C858 1.428 . S
H853 C849 0.930 . S
H854 C851 0.929 . S
S855 N856 1.613 . S
S855 N857 1.610 . S
N856 S855 1.613 . S
N856 C859 1.350 . S
N857 S855 1.610 . S
N857 C858 1.351 . S
C858 C852 1.428 . S
C858 N857 1.351 . S
C858 C859 1.434 . S
C859 C850 1.429 . S
C859 N856 1.350 . S
C859 C858 1.434 . S
C860 C861 1.369 . S
C860 C862 1.419 . S
C860 H864 0.930 . S
C861 C860 1.369 . S
C861 C870 1.429 . S
C862 C860 1.419 . S
C862 C863 1.363 . S
C862 H865 0.929 . S
C863 C862 1.363 . S
C863 C869 1.428 . S
H864 C860 0.930 . S
H865 C862 0.929 . S
S866 N867 1.613 . S
S866 N868 1.610 . S
N867 S866 1.613 . S
N867 C870 1.350 . S
N868 S866 1.610 . S
N868 C869 1.351 . S
C869 C863 1.428 . S
C869 N868 1.351 . S
C869 C870 1.434 . S
C870 C861 1.429 . S
C870 N867 1.350 . S
C870 C869 1.434 . S
C871 C872 1.369 . S
C871 C873 1.419 . S
C871 H875 0.930 . S
C872 C871 1.369 . S
C872 C881 1.429 . S
C873 C871 1.419 . S
C873 C874 1.363 . S
C873 H876 0.929 . S
C874 C873 1.363 . S
C874 C880 1.428 . S
H875 C871 0.930 . S
H876 C873 0.929 . S
S877 N878 1.613 . S
S877 N879 1.610 . S
N878 S877 1.613 . S
N878 C881 1.350 . S
N879 S877 1.610 . S
N879 C880 1.351 . S
C880 C874 1.428 . S
C880 N879 1.351 . S
C880 C881 1.434 . S
C881 C872 1.429 . S
C881 N878 1.350 . S
C881 C880 1.434 . S
C882 C883 1.369 . S
C882 C884 1.419 . S
C882 H886 0.930 . S
C883 C882 1.369 . S
C883 C892 1.429 . S
C884 C882 1.419 . S
C884 C885 1.363 . S
C884 H887 0.929 . S
C885 C884 1.363 . S
C885 C891 1.428 . S
H886 C882 0.930 . S
H887 C884 0.929 . S
S888 N889 1.613 . S
S888 N890 1.610 . S
N889 S888 1.613 . S
N889 C892 1.350 . S
N890 S888 1.610 . S
N890 C891 1.351 . S
C891 C885 1.428 . S
C891 N890 1.351 . S
C891 C892 1.434 . S
C892 C883 1.429 . S
C892 N889 1.350 . S
C892 C891 1.434 . S
C893 C894 1.369 . S
C893 C895 1.419 . S
C893 H897 0.930 . S
C894 C893 1.369 . S
C894 C903 1.429 . S
C895 C893 1.419 . S
C895 C896 1.363 . S
C895 H898 0.929 . S
C896 C895 1.363 . S
C896 C902 1.428 . S
H897 C893 0.930 . S
H898 C895 0.929 . S
S899 N900 1.613 . S
S899 N901 1.610 . S
N900 S899 1.613 . S
N900 C903 1.350 . S
N901 S899 1.610 . S
N901 C902 1.351 . S
C902 C896 1.428 . S
C902 N901 1.351 . S
C902 C903 1.434 . S
C903 C894 1.429 . S
C903 N900 1.350 . S
C903 C902 1.434 . S
C904 C905 1.369 . S
C904 C906 1.419 . S
C904 H908 0.930 . S
C905 C904 1.369 . S
C905 C914 1.429 . S
C906 C904 1.419 . S
C906 C907 1.363 . S
C906 H909 0.929 . S
C907 C906 1.363 . S
C907 C913 1.428 . S
H908 C904 0.930 . S
H909 C906 0.929 . S
S910 N911 1.613 . S
S910 N912 1.610 . S
N911 S910 1.613 . S
N911 C914 1.350 . S
N912 S910 1.610 . S
N912 C913 1.351 . S
C913 C907 1.428 . S
C913 N912 1.351 . S
C913 C914 1.434 . S
C914 C905 1.429 . S
C914 N911 1.350 . S
C914 C913 1.434 . S
C915 C916 1.369 . S
C915 C917 1.419 . S
C915 H919 0.930 . S
C916 C915 1.369 . S
C916 C925 1.429 1_565 S
C917 C915 1.419 . S
C917 C918 1.363 1_565 S
C917 H920 0.929 . S
C918 C917 1.363 1_545 S
C918 C924 1.428 . S
H919 C915 0.930 . S
H920 C917 0.929 . S
S921 N922 1.613 . S
S921 N923 1.610 . S
N922 S921 1.613 . S
N922 C925 1.350 . S
N923 S921 1.610 . S
N923 C924 1.351 . S
C924 C918 1.428 . S
C924 N923 1.351 . S
C924 C925 1.434 . S
C925 C916 1.429 1_545 S
C925 N922 1.350 . S
C925 C924 1.434 . S
C926 C927 1.369 . S
C926 C928 1.419 . S
C926 H930 0.930 . S
C927 C926 1.369 . S
C927 C936 1.429 . S
C928 C926 1.419 . S
C928 C929 1.363 . S
C928 H931 0.929 . S
C929 C928 1.363 . S
C929 C935 1.428 . S
H930 C926 0.930 . S
H931 C928 0.929 . S
S932 N933 1.613 . S
S932 N934 1.610 1_565 S
N933 S932 1.613 . S
N933 C936 1.350 1_565 S
N934 S932 1.610 1_545 S
N934 C935 1.351 . S
C935 C929 1.428 . S
C935 N934 1.351 . S
C935 C936 1.434 . S
C936 C927 1.429 . S
C936 N933 1.350 1_545 S
C936 C935 1.434 . S
C937 C938 1.369 . S
C937 C939 1.419 . S
C937 H941 0.930 . S
C938 C937 1.369 . S
C938 C947 1.429 . S
C939 C937 1.419 . S
C939 C940 1.363 . S
C939 H942 0.929 . S
C940 C939 1.363 . S
C940 C946 1.428 . S
H941 C937 0.930 . S
H942 C939 0.929 . S
S943 N944 1.613 . S
S943 N945 1.610 . S
N944 S943 1.613 . S
N944 C947 1.350 . S
N945 S943 1.610 . S
N945 C946 1.351 . S
C946 C940 1.428 . S
C946 N945 1.351 . S
C946 C947 1.434 . S
C947 C938 1.429 . S
C947 N944 1.350 . S
C947 C946 1.434 . S
C948 C949 1.369 . S
C948 C950 1.419 . S
C948 H952 0.930 . S
C949 C948 1.369 . S
C949 C958 1.429 . S
C950 C948 1.419 . S
C950 C951 1.363 . S
C950 H953 0.929 . S
C951 C950 1.363 . S
C951 C957 1.428 . S
H952 C948 0.930 . S
H953 C950 0.929 . S
S954 N955 1.613 . S
S954 N956 1.610 . S
N955 S954 1.613 . S
N955 C958 1.350 . S
N956 S954 1.610 . S
N956 C957 1.351 . S
C957 C951 1.428 . S
C957 N956 1.351 . S
C957 C958 1.434 . S
C958 C949 1.429 . S
C958 N955 1.350 . S
C958 C957 1.434 . S
C959 C960 1.369 1_545 S
C959 C961 1.419 . S
C959 H963 0.930 . S
C960 C959 1.369 1_565 S
C960 C969 1.429 . S
C961 C959 1.419 . S
C961 C962 1.363 . S
C961 H964 0.929 . S
C962 C961 1.363 . S
C962 C968 1.428 1_545 S
H963 C959 0.930 . S
H964 C961 0.929 . S
S965 N966 1.613 . S
S965 N967 1.610 . S
N966 S965 1.613 . S
N966 C969 1.350 . S
N967 S965 1.610 . S
N967 C968 1.351 . S
C968 C962 1.428 1_565 S
C968 N967 1.351 . S
C968 C969 1.434 . S
C969 C960 1.429 . S
C969 N966 1.350 . S
C969 C968 1.434 . S
C970 C971 1.369 . S
C970 C972 1.419 . S
C970 H974 0.930 . S
C971 C970 1.369 . S
C971 C980 1.429 . S
C972 C970 1.419 . S
C972 C973 1.363 . S
C972 H975 0.929 . S
C973 C972 1.363 . S
C973 C979 1.428 . S
H974 C970 0.930 . S
H975 C972 0.929 . S
S976 N977 1.613 . S
S976 N978 1.610 1_545 S
N977 S976 1.613 . S
N977 C980 1.350 1_545 S
N978 S976 1.610 1_565 S
N978 C979 1.351 . S
C979 C973 1.428 . S
C979 N978 1.351 . S
C979 C980 1.434 . S
C980 C971 1.429 . S
C980 N977 1.350 1_565 S
C980 C979 1.434 . S
C981 C982 1.369 . S
C981 C983 1.419 . S
C981 H985 0.930 . S
C982 C981 1.369 . S
C982 C991 1.429 . S
C983 C981 1.419 . S
C983 C984 1.363 . S
C983 H986 0.929 . S
C984 C983 1.363 . S
C984 C990 1.428 . S
H985 C981 0.930 . S
H986 C983 0.929 . S
S987 N988 1.613 . S
S987 N989 1.610 . S
N988 S987 1.613 . S
N988 C991 1.350 . S
N989 S987 1.610 . S
N989 C990 1.351 . S
C990 C984 1.428 . S
C990 N989 1.351 . S
C990 C991 1.434 . S
C991 C982 1.429 . S
C991 N988 1.350 . S
C991 C990 1.434 . S
C992 C993 1.369 . S
C992 C994 1.419 . S
C992 H996 0.930 . S
C993 C992 1.369 . S
C993 C1002 1.429 . S
C994 C992 1.419 . S
C994 C995 1.363 . S
C994 H997 0.929 . S
C995 C994 1.363 . S
C995 C1001 1.428 . S
H996 C992 0.930 . S
H997 C994 0.929 . S
S998 N999 1.613 . S
S998 N1000 1.610 . S
N999 S998 1.613 . S
N999 C1002 1.350 . S
N1000 S998 1.610 . S
N1000 C1001 1.351 . S
C1001 C995 1.428 . S
C1001 N1000 1.351 . S
C1001 C1002 1.434 . S
C1002 C993 1.429 . S
C1002 N999 1.350 . S
C1002 C1001 1.434 . S
C1003 C1004 1.369 . S
C1003 C1005 1.419 . S
C1003 H1007 0.930 . S
C1004 C1003 1.369 . S
C1004 C1013 1.429 . S
C1005 C1003 1.419 . S
C1005 C1006 1.363 . S
C1005 H1008 0.929 . S
C1006 C1005 1.363 . S
C1006 C1012 1.428 . S
H1007 C1003 0.930 . S
H1008 C1005 0.929 . S
S1009 N1010 1.613 . S
S1009 N1011 1.610 . S
N1010 S1009 1.613 . S
N1010 C1013 1.350 . S
N1011 S1009 1.610 . S
N1011 C1012 1.351 . S
C1012 C1006 1.428 . S
C1012 N1011 1.351 . S
C1012 C1013 1.434 . S
C1013 C1004 1.429 . S
C1013 N1010 1.350 . S
C1013 C1012 1.434 . S
C1014 C1015 1.369 . S
C1014 C1016 1.419 . S
C1014 H1018 0.930 . S
C1015 C1014 1.369 . S
C1015 C1024 1.429 . S
C1016 C1014 1.419 . S
C1016 C1017 1.363 . S
C1016 H1019 0.929 1_565 S
C1017 C1016 1.363 . S
C1017 C1023 1.428 . S
H1018 C1014 0.930 . S
H1019 C1016 0.929 1_545 S
S1020 N1021 1.613 . S
S1020 N1022 1.610 . S
N1021 S1020 1.613 . S
N1021 C1024 1.350 . S
N1022 S1020 1.610 . S
N1022 C1023 1.351 . S
C1023 C1017 1.428 . S
C1023 N1022 1.351 . S
C1023 C1024 1.434 . S
C1024 C1015 1.429 . S
C1024 N1021 1.350 . S
C1024 C1023 1.434 . S
C1025 C1026 1.369 . S
C1025 C1027 1.419 . S
C1025 H1029 0.930 . S
C1026 C1025 1.369 . S
C1026 C1035 1.429 . S
C1027 C1025 1.419 . S
C1027 C1028 1.363 . S
C1027 H1030 0.929 . S
C1028 C1027 1.363 . S
C1028 C1034 1.428 . S
H1029 C1025 0.930 . S
H1030 C1027 0.929 . S
S1031 N1032 1.613 . S
S1031 N1033 1.610 . S
N1032 S1031 1.613 . S
N1032 C1035 1.350 . S
N1033 S1031 1.610 . S
N1033 C1034 1.351 . S
C1034 C1028 1.428 . S
C1034 N1033 1.351 . S
C1034 C1035 1.434 . S
C1035 C1026 1.429 . S
C1035 N1032 1.350 . S
C1035 C1034 1.434 . S
C1036 C1037 1.369 . S
C1036 C1038 1.419 . S
C1036 H1040 0.930 . S
C1037 C1036 1.369 . S
C1037 C1046 1.429 . S
C1038 C1036 1.419 . S
C1038 C1039 1.363 . S
C1038 H1041 0.929 . S
C1039 C1038 1.363 . S
C1039 C1045 1.428 . S
H1040 C1036 0.930 . S
H1041 C1038 0.929 . S
S1042 N1043 1.613 1_556 S
S1042 N1044 1.610 1_556 S
N1043 S1042 1.613 1_554 S
N1043 C1046 1.350 . S
N1044 S1042 1.610 1_554 S
N1044 C1045 1.351 . S
C1045 C1039 1.428 . S
C1045 N1044 1.351 . S
C1045 C1046 1.434 . S
C1046 C1037 1.429 . S
C1046 N1043 1.350 . S
C1046 C1045 1.434 . S
C1047 C1048 1.369 . S
C1047 C1049 1.419 . S
C1047 H1051 0.930 . S
C1048 C1047 1.369 . S
C1048 C1057 1.429 . S
C1049 C1047 1.419 . S
C1049 C1050 1.363 . S
C1049 H1052 0.929 . S
C1050 C1049 1.363 . S
C1050 C1056 1.428 . S
H1051 C1047 0.930 . S
H1052 C1049 0.929 . S
S1053 N1054 1.613 . S
S1053 N1055 1.610 . S
N1054 S1053 1.613 . S
N1054 C1057 1.350 . S
N1055 S1053 1.610 . S
N1055 C1056 1.351 . S
C1056 C1050 1.428 . S
C1056 N1055 1.351 . S
C1056 C1057 1.434 . S
C1057 C1048 1.429 . S
C1057 N1054 1.350 . S
C1057 C1056 1.434 . S
C1058 C1059 1.369 . S
C1058 C1060 1.419 . S
C1058 H1062 0.930 . S
C1059 C1058 1.369 . S
C1059 C1068 1.429 . S
C1060 C1058 1.419 . S
C1060 C1061 1.363 . S
C1060 H1063 0.929 . S
C1061 C1060 1.363 . S
C1061 C1067 1.428 . S
H1062 C1058 0.930 . S
H1063 C1060 0.929 . S
S1064 N1065 1.613 . S
S1064 N1066 1.610 . S
N1065 S1064 1.613 . S
N1065 C1068 1.350 . S
N1066 S1064 1.610 . S
N1066 C1067 1.351 . S
C1067 C1061 1.428 . S
C1067 N1066 1.351 . S
C1067 C1068 1.434 . S
C1068 C1059 1.429 . S
C1068 N1065 1.350 . S
C1068 C1067 1.434 . S
C1069 C1070 1.369 . S
C1069 C1071 1.419 . S
C1069 H1073 0.930 . S
C1070 C1069 1.369 . S
C1070 C1079 1.429 . S
C1071 C1069 1.419 . S
C1071 C1072 1.363 . S
C1071 H1074 0.929 . S
C1072 C1071 1.363 . S
C1072 C1078 1.428 . S
H1073 C1069 0.930 . S
H1074 C1071 0.929 . S
S1075 N1076 1.613 1_655 S
S1075 N1077 1.610 . S
N1076 S1075 1.613 1_455 S
N1076 C1079 1.350 . S
N1077 S1075 1.610 . S
N1077 C1078 1.351 1_655 S
C1078 C1072 1.428 . S
C1078 N1077 1.351 1_455 S
C1078 C1079 1.434 . S
C1079 C1070 1.429 . S
C1079 N1076 1.350 . S
C1079 C1078 1.434 . S
C1080 C1081 1.369 . S
C1080 C1082 1.419 . S
C1080 H1084 0.930 . S
C1081 C1080 1.369 . S
C1081 C1090 1.429 . S
C1082 C1080 1.419 . S
C1082 C1083 1.363 . S
C1082 H1085 0.929 . S
C1083 C1082 1.363 . S
C1083 C1089 1.428 . S
H1084 C1080 0.930 . S
H1085 C1082 0.929 . S
S1086 N1087 1.613 . S
S1086 N1088 1.610 . S
N1087 S1086 1.613 . S
N1087 C1090 1.350 . S
N1088 S1086 1.610 . S
N1088 C1089 1.351 . S
C1089 C1083 1.428 . S
C1089 N1088 1.351 . S
C1089 C1090 1.434 . S
C1090 C1081 1.429 . S
C1090 N1087 1.350 . S
C1090 C1089 1.434 . S
C1091 C1092 1.369 . S
C1091 C1093 1.419 . S
C1091 H1095 0.930 1_455 S
C1092 C1091 1.369 . S
C1092 C1101 1.429 . S
C1093 C1091 1.419 . S
C1093 C1094 1.363 . S
C1093 H1096 0.929 1_565 S
C1094 C1093 1.363 . S
C1094 C1100 1.428 . S
H1095 C1091 0.930 1_655 S
H1096 C1093 0.929 1_545 S
S1097 N1098 1.613 . S
S1097 N1099 1.610 . S
N1098 S1097 1.613 . S
N1098 C1101 1.350 . S
N1099 S1097 1.610 . S
N1099 C1100 1.351 . S
C1100 C1094 1.428 . S
C1100 N1099 1.351 . S
C1100 C1101 1.434 . S
C1101 C1092 1.429 . S
C1101 N1098 1.350 . S
C1101 C1100 1.434 . S
C1102 C1103 1.369 . S
C1102 C1104 1.419 . S
C1102 H1106 0.930 . S
C1103 C1102 1.369 . S
C1103 C1112 1.429 . S
C1104 C1102 1.419 . S
C1104 C1105 1.363 . S
C1104 H1107 0.929 . S
C1105 C1104 1.363 . S
C1105 C1111 1.428 . S
H1106 C1102 0.930 . S
H1107 C1104 0.929 . S
S1108 N1109 1.613 . S
S1108 N1110 1.610 . S
N1109 S1108 1.613 . S
N1109 C1112 1.350 . S
N1110 S1108 1.610 . S
N1110 C1111 1.351 . S
C1111 C1105 1.428 . S
C1111 N1110 1.351 . S
C1111 C1112 1.434 . S
C1112 C1103 1.429 . S
C1112 N1109 1.350 . S
C1112 C1111 1.434 . S
C1113 C1114 1.369 . S
C1113 C1115 1.419 . S
C1113 H1117 0.930 . S
C1114 C1113 1.369 . S
C1114 C1123 1.429 1_545 S
C1115 C1113 1.419 . S
C1115 C1116 1.363 . S
C1115 H1118 0.929 . S
C1116 C1115 1.363 . S
C1116 C1122 1.428 1_545 S
H1117 C1113 0.930 . S
H1118 C1115 0.929 . S
S1119 N1120 1.613 . S
S1119 N1121 1.610 . S
N1120 S1119 1.613 . S
N1120 C1123 1.350 . S
N1121 S1119 1.610 . S
N1121 C1122 1.351 . S
C1122 C1116 1.428 1_565 S
C1122 N1121 1.351 . S
C1122 C1123 1.434 . S
C1123 C1114 1.429 1_565 S
C1123 N1120 1.350 . S
C1123 C1122 1.434 . S
C1124 C1125 1.369 . S
C1124 C1126 1.419 . S
C1124 H1128 0.930 . S
C1125 C1124 1.369 . S
C1125 C1134 1.429 . S
C1126 C1124 1.419 . S
C1126 C1127 1.363 . S
C1126 H1129 0.929 . S
C1127 C1126 1.363 . S
C1127 C1133 1.428 . S
H1128 C1124 0.930 . S
H1129 C1126 0.929 . S
S1130 N1131 1.613 . S
S1130 N1132 1.610 . S
N1131 S1130 1.613 . S
N1131 C1134 1.350 . S
N1132 S1130 1.610 . S
N1132 C1133 1.351 . S
C1133 C1127 1.428 . S
C1133 N1132 1.351 . S
C1133 C1134 1.434 . S
C1134 C1125 1.429 . S
C1134 N1131 1.350 . S
C1134 C1133 1.434 . S
C1135 C1136 1.369 . S
C1135 C1137 1.419 . S
C1135 H1139 0.930 . S
C1136 C1135 1.369 . S
C1136 C1145 1.429 . S
C1137 C1135 1.419 . S
C1137 C1138 1.363 . S
C1137 H1140 0.929 . S
C1138 C1137 1.363 . S
C1138 C1144 1.428 1_545 S
H1139 C1135 0.930 . S
H1140 C1137 0.929 . S
S1141 N1142 1.613 1_565 S
S1141 N1143 1.610 . S
N1142 S1141 1.613 1_545 S
N1142 C1145 1.350 1_455 S
N1143 S1141 1.610 . S
N1143 C1144 1.350 1_455 S
C1144 C1138 1.428 1_565 S
C1144 N1143 1.350 1_655 S
C1144 C1145 1.435 1_565 S
C1145 C1136 1.429 . S
C1145 N1142 1.350 1_655 S
C1145 C1144 1.435 1_545 S
C1146 C1147 1.369 . S
C1146 C1148 1.419 . S
C1146 H1150 0.930 . S
C1147 C1146 1.369 . S
C1147 C1156 1.429 . S
C1148 C1146 1.419 . S
C1148 C1149 1.363 . S
C1148 H1151 0.929 . S
C1149 C1148 1.363 . S
C1149 C1155 1.428 . S
H1150 C1146 0.930 . S
H1151 C1148 0.929 . S
S1152 N1153 1.613 . S
S1152 N1154 1.610 . S
N1153 S1152 1.613 . S
N1153 C1156 1.350 . S
N1154 S1152 1.610 . S
N1154 C1155 1.351 . S
C1155 C1149 1.428 . S
C1155 N1154 1.351 . S
C1155 C1156 1.434 . S
C1156 C1147 1.429 . S
C1156 N1153 1.350 . S
C1156 C1155 1.434 . S
C1157 C1158 1.369 . S
C1157 C1159 1.419 . S
C1157 H1161 0.930 . S
C1158 C1157 1.369 . S
C1158 C1167 1.429 1_565 S
C1159 C1157 1.419 . S
C1159 C1160 1.363 . S
C1159 H1162 0.929 . S
C1160 C1159 1.363 . S
C1160 C1166 1.428 1_565 S
H1161 C1157 0.930 . S
H1162 C1159 0.929 . S
S1163 N1164 1.613 . S
S1163 N1165 1.610 . S
N1164 S1163 1.613 . S
N1164 C1167 1.350 . S
N1165 S1163 1.610 . S
N1165 C1166 1.351 . S
C1166 C1160 1.428 1_545 S
C1166 N1165 1.351 . S
C1166 C1167 1.434 . S
C1167 C1158 1.429 1_545 S
C1167 N1164 1.350 . S
C1167 C1166 1.434 . S
C641 C9 0.931 . S
C643 C409 0.913 . S
C652 C49 0.839 . S
C654 C458 0.428 . S
C663 C89 0.910 . S
C665 C329 0.920 . S
C674 C369 0.839 . S
C676 C138 0.428 . S
C685 C178 0.926 . S
C687 C578 0.910 . S
C696 C609 0.414 . S
C698 C218 0.857 . S
C707 C498 0.933 . S
C709 C258 0.916 . S
C718 C289 0.430 . S
C720 C538 0.843 . S
C729 C19 3.716 . S
C731 C170 3.713 . S
C740 C59 2.889 . S
C742 C530 2.891 . S
C751 C99 2.453 . S
C753 C250 2.454 . S
C762 C126 1.884 . S
C764 C615 1.883 . S
C773 C210 2.889 . S
C775 C379 2.891 . S
C784 C446 1.887 . S
C786 C295 1.879 . S
C795 C490 3.712 . S
C797 C339 3.715 . S
C806 C419 2.456 . S
C808 C570 2.453 . S
C817 C10 1.748 . S
C819 C298 1.720 . S
C828 C50 1.919 . S
C830 C489 1.941 . S
C839 C90 1.870 . S
C841 C209 1.850 . S
C850 C135 0.911 . S
C852 C569 0.894 . S
C861 C129 1.719 . S
C863 C179 1.749 . S
C872 C219 1.925 . S
C874 C338 1.937 . S
C883 C259 1.871 . S
C885 C58 1.851 . S
C894 C418 0.892 . S
C896 C286 0.912 . S
C905 C330 1.753 . S
C907 C618 1.726 . S
C916 C169 1.941 . S
C918 C370 1.923 1_655 S
C927 C529 1.848 . S
C929 C410 1.872 . S
C938 C249 0.884 . S
C940 C455 0.913 . S
C949 C499 1.748 . S
C951 C449 1.720 . S
C960 C539 1.919 1_455 S
C962 C18 1.943 . S
C971 C378 1.850 . S
C973 C579 1.871 . S
C982 C606 0.913 . S
C984 C98 0.888 . S
C993 C15 1.767 . S
C995 C366 1.703 . S
C1004 C406 1.868 . S
C1006 C55 1.930 . S
C1015 C95 1.703 . S
C1017 C459 1.667 . S
C1026 C326 2.170 . S
C1028 C130 2.158 . S
C1037 C535 1.709 . S
C1039 C166 1.760 . S
C1048 C575 1.863 . S
C1050 C206 1.933 . S
C1059 C610 1.665 . S
C1061 C246 1.704 . S
C1070 C495 2.170 . S
C1072 C299 2.158 . S
C1081 C46 1.697 . S
C1083 C335 1.769 . S
C1092 C86 1.865 . S
C1094 C375 1.932 1_565 S
C1103 C139 1.663 . S
C1105 C415 1.706 . S
C1114 C450 2.158 . S
C1116 C6 2.170 . S
C1125 C215 1.697 . S
C1127 C486 1.769 . S
C1136 C255 1.869 . S
C1138 C526 1.930 1_545 S
C1147 C290 1.671 . S
C1149 C566 1.700 . S
C1158 C175 2.170 . S
C1160 C619 2.159 . S
