# Generated by pormake.
# Topology acs-a, (4)-cn, num edge types: 1
# Building blocks:
#     Node 0, Type 0, BuildingBlock: KUFVIS_clean_sbu_0, # of connection points: 4
#     Node 1, Type 0, BuildingBlock: KUFVIS_clean_sbu_0, # of connection points: 4
#     Node 2, Type 0, BuildingBlock: KUFVIS_clean_sbu_0, # of connection points: 4
#     Node 3, Type 0, BuildingBlock: KUFVIS_clean_sbu_0, # of connection points: 4
#     Node 4, Type 0, BuildingBlock: KUFVIS_clean_sbu_0, # of connection points: 4
#     Node 5, Type 0, BuildingBlock: KUFVIS_clean_sbu_0, # of connection points: 4
#     Node 6, Type 0, BuildingBlock: KUFVIS_clean_sbu_0, # of connection points: 4
#     Node 7, Type 0, BuildingBlock: KUFVIS_clean_sbu_0, # of connection points: 4
#     Node 8, Type 0, BuildingBlock: KUFVIS_clean_sbu_0, # of connection points: 4
#     Node 9, Type 0, BuildingBlock: KUFVIS_clean_sbu_0, # of connection points: 4
#     Node 10, Type 0, BuildingBlock: KUFVIS_clean_sbu_0, # of connection points: 4
#     Node 11, Type 0, BuildingBlock: KUFVIS_clean_sbu_0, # of connection points: 4
#     Edge 12, Type (0, 0), BuildingBlock: MIFKUJ_clean_linker_0, # of connection points: 2
#     Edge 13, Type (0, 0), BuildingBlock: MIFKUJ_clean_linker_0, # of connection points: 2
#     Edge 14, Type (0, 0), BuildingBlock: MIFKUJ_clean_linker_0, # of connection points: 2
#     Edge 15, Type (0, 0), BuildingBlock: MIFKUJ_clean_linker_0, # of connection points: 2
#     Edge 16, Type (0, 0), BuildingBlock: MIFKUJ_clean_linker_0, # of connection points: 2
#     Edge 17, Type (0, 0), BuildingBlock: MIFKUJ_clean_linker_0, # of connection points: 2
#     Edge 18, Type (0, 0), BuildingBlock: MIFKUJ_clean_linker_0, # of connection points: 2
#     Edge 19, Type (0, 0), BuildingBlock: MIFKUJ_clean_linker_0, # of connection points: 2
#     Edge 20, Type (0, 0), BuildingBlock: MIFKUJ_clean_linker_0, # of connection points: 2
#     Edge 21, Type (0, 0), BuildingBlock: MIFKUJ_clean_linker_0, # of connection points: 2
#     Edge 22, Type (0, 0), BuildingBlock: MIFKUJ_clean_linker_0, # of connection points: 2
#     Edge 23, Type (0, 0), BuildingBlock: MIFKUJ_clean_linker_0, # of connection points: 2
#     Edge 24, Type (0, 0), BuildingBlock: MIFKUJ_clean_linker_0, # of connection points: 2
#     Edge 25, Type (0, 0), BuildingBlock: MIFKUJ_clean_linker_0, # of connection points: 2
#     Edge 26, Type (0, 0), BuildingBlock: MIFKUJ_clean_linker_0, # of connection points: 2
#     Edge 27, Type (0, 0), BuildingBlock: MIFKUJ_clean_linker_0, # of connection points: 2
#     Edge 28, Type (0, 0), BuildingBlock: MIFKUJ_clean_linker_0, # of connection points: 2
#     Edge 29, Type (0, 0), BuildingBlock: MIFKUJ_clean_linker_0, # of connection points: 2
#     Edge 30, Type (0, 0), BuildingBlock: MIFKUJ_clean_linker_0, # of connection points: 2
#     Edge 31, Type (0, 0), BuildingBlock: MIFKUJ_clean_linker_0, # of connection points: 2
#     Edge 32, Type (0, 0), BuildingBlock: MIFKUJ_clean_linker_0, # of connection points: 2
#     Edge 33, Type (0, 0), BuildingBlock: MIFKUJ_clean_linker_0, # of connection points: 2
#     Edge 34, Type (0, 0), BuildingBlock: MIFKUJ_clean_linker_0, # of connection points: 2
#     Edge 35, Type (0, 0), BuildingBlock: MIFKUJ_clean_linker_0, # of connection points: 2
# Relax obj value: 0.496
# Max RMSD: 0.248
# Mean RMSD: 0.224
data_MOF--net-acs-a--node1-KUFVIS_clean_sbu_0--edge1-MIFKUJ_clean_linker_0
_symmetry_space_group_name_H-M    P1
_symmetry_Int_Tables_number       1
_symmetry_cell_setting            triclinic
loop_
_symmetry_equiv_pos_as_xyz
'x, y, z'
_cell_length_a     61.496616
_cell_length_b     61.480297
_cell_length_c     51.495302
_cell_angle_alpha  90.030288
_cell_angle_beta   89.932857
_cell_angle_gamma 113.08696
loop_
_atom_site_label
_atom_site_type_symbol
_atom_site_fract_x
_atom_site_fract_y
_atom_site_fract_z
_atom_type_partial_charge
Mn0 Mn 0.55969 0.14192 0.09711 0.0
Mn1 Mn 0.51318 0.13868 0.1341 0.0
C2 C 0.54054 0.16692 0.08908 0.0
C3 C 0.60036 0.15737 0.08948 0.0
C4 C 0.50974 0.10372 0.09134 0.0
O5 O 0.56308 0.12405 0.12894 0.0
O6 O 0.53184 0.12331 0.15253 0.0
C7 C 0.53919 0.16973 0.17733 0.0
N8 N 0.52275 0.16445 0.15808 0.0
C9 C 0.51314 0.19761 0.16938 0.0
C10 C 0.52986 0.20333 0.18944 0.0
C11 C 0.54298 0.18936 0.19338 0.0
C12 C 0.51006 0.1778 0.15408 0.0
H13 H 0.54933 0.15906 0.18041 0.0
C14 C 0.55016 0.11855 0.14924 0.0
O15 O 0.5866 0.13731 0.07939 0.0
O16 O 0.59058 0.16798 0.10434 0.0
N17 N 0.49385 0.15312 0.11878 0.0
C18 C 0.47964 0.14617 0.09748 0.0
C19 C 0.46577 0.1587 0.0904 0.0
C20 C 0.46655 0.1781 0.10535 0.0
C21 C 0.48141 0.18499 0.12708 0.0
C22 C 0.49471 0.17175 0.1333 0.0
H23 H 0.4789 0.13119 0.08601 0.0
O24 O 0.55279 0.16225 0.07099 0.0
O25 O 0.53978 0.15665 0.11135 0.0
O26 O 0.53135 0.11294 0.08422 0.0
O27 O 0.50136 0.11183 0.10989 0.0
C28 C 0.48371 0.2046 0.14268 0.0
C29 C 0.49966 0.211 0.16372 0.0
H30 H 0.53291 0.21852 0.20179 0.0
H31 H 0.556 0.19373 0.20873 0.0
H32 H 0.45441 0.15334 0.07353 0.0
H33 H 0.45564 0.18754 0.09996 0.0
H34 H 0.47341 0.21495 0.1386 0.0
H35 H 0.50154 0.22635 0.1753 0.0
Mn36 Mn 0.35392 0.53008 0.58578 0.0
Mn37 Mn 0.31981 0.47882 0.61422 0.0
C38 C 0.31381 0.51328 0.57732 0.0
C39 C 0.37119 0.57114 0.58571 0.0
C40 C 0.35417 0.48232 0.57059 0.0
O41 O 0.37392 0.52786 0.61619 0.0
O42 O 0.34871 0.4946 0.63564 0.0
C43 C 0.30633 0.49645 0.66258 0.0
N44 N 0.30001 0.48413 0.63992 0.0
C45 C 0.25871 0.47324 0.64905 0.0
C46 C 0.26475 0.48575 0.67252 0.0
C47 C 0.28867 0.49747 0.67927 0.0
C48 C 0.27706 0.47288 0.63319 0.0
H49 H 0.32469 0.50542 0.66788 0.0
C50 C 0.36839 0.5127 0.63458 0.0
O51 O 0.38011 0.55882 0.57216 0.0
O52 O 0.3527 0.55962 0.59971 0.0
N53 N 0.29129 0.46261 0.59523 0.0
C54 C 0.28852 0.45265 0.57118 0.0
C55 C 0.26568 0.4411 0.561 0.0
C56 C 0.24595 0.43979 0.57571 0.0
C57 C 0.24926 0.45019 0.60041 0.0
C58 C 0.27244 0.46156 0.60948 0.0
H59 H 0.30364 0.4536 0.55982 0.0
O60 O 0.32833 0.52763 0.56071 0.0
O61 O 0.32354 0.50871 0.59782 0.0
O62 O 0.36067 0.50441 0.56673 0.0
O63 O 0.33922 0.47107 0.58801 0.0
C64 C 0.23049 0.44982 0.61633 0.0
C65 C 0.23522 0.46125 0.64069 0.0
H66 H 0.25117 0.48659 0.68543 0.0
H67 H 0.29348 0.50722 0.69731 0.0
H68 H 0.26327 0.43318 0.54188 0.0
H69 H 0.22835 0.43085 0.5678 0.0
H70 H 0.21236 0.44081 0.61001 0.0
H71 H 0.22069 0.46076 0.65286 0.0
Mn72 Mn 0.85913 0.34332 0.05637 0.0
Mn73 Mn 0.87889 0.30272 0.07677 0.0
C74 C 0.84128 0.30518 0.0396 0.0
C75 C 0.83449 0.36362 0.06029 0.0
C76 C 0.90714 0.34434 0.04229 0.0
O77 O 0.87553 0.35669 0.09048 0.0
O78 O 0.88298 0.32583 0.10539 0.0
C79 C 0.84555 0.27874 0.11917 0.0
N80 N 0.85559 0.27773 0.09586 0.0
C81 C 0.83562 0.23535 0.09449 0.0
C82 C 0.82499 0.23594 0.11843 0.0
C83 C 0.83008 0.25772 0.13088 0.0
C84 C 0.85107 0.25684 0.0839 0.0
H85 H 0.84944 0.29545 0.12884 0.0
C86 C 0.88234 0.34632 0.10826 0.0
O87 O 0.85483 0.37307 0.0488 0.0
O88 O 0.82869 0.34267 0.07012 0.0
N89 N 0.87562 0.27923 0.05101 0.0
C90 C 0.88625 0.28184 0.02734 0.0
C91 C 0.88292 0.26172 0.0123 0.0
C92 C 0.8688 0.23915 0.0218 0.0
C93 C 0.85798 0.23691 0.0462 0.0
C94 C 0.86204 0.2576 0.06036 0.0
H95 H 0.89729 0.29911 0.02003 0.0
O96 O 0.84236 0.32357 0.02633 0.0
O97 O 0.85317 0.31031 0.06134 0.0
O98 O 0.89043 0.35107 0.03844 0.0
O99 O 0.90516 0.32721 0.05735 0.0
C100 C 0.8427 0.21506 0.05662 0.0
C101 C 0.8315 0.21429 0.08073 0.0
H102 H 0.81294 0.2198 0.12745 0.0
H103 H 0.82209 0.25828 0.14946 0.0
H104 H 0.89126 0.2636 0.99345 0.0
H105 H 0.86615 0.22369 0.01006 0.0
H106 H 0.83917 0.19877 0.04608 0.0
H107 H 0.81964 0.1974 0.08845 0.0
Mn108 Mn 0.43446 0.85488 0.5797 0.0
Mn109 Mn 0.48013 0.85298 0.61393 0.0
C110 C 0.4467 0.82386 0.57322 0.0
C111 C 0.39378 0.84483 0.5767 0.0
C112 C 0.48537 0.88825 0.5705 0.0
O113 O 0.43727 0.877 0.61007 0.0
O114 O 0.46416 0.86984 0.63454 0.0
C115 C 0.4566 0.82345 0.65916 0.0
N116 N 0.4703 0.82691 0.63751 0.0
C117 C 0.47849 0.79254 0.64685 0.0
C118 C 0.46494 0.78894 0.66953 0.0
C119 C 0.45371 0.80428 0.67556 0.0
C120 C 0.48089 0.81203 0.63136 0.0
H121 H 0.44829 0.83546 0.6641 0.0
C122 C 0.44886 0.879 0.63114 0.0
O123 O 0.40861 0.86226 0.56331 0.0
O124 O 0.4026 0.83364 0.59191 0.0
N125 N 0.49648 0.83667 0.59589 0.0
C126 C 0.51011 0.84339 0.57411 0.0
C127 C 0.52237 0.82973 0.56534 0.0
C128 C 0.52065 0.80942 0.57915 0.0
C129 C 0.50669 0.80297 0.60164 0.0
C130 C 0.49482 0.81724 0.6094 0.0
H131 H 0.51172 0.85908 0.56352 0.0
O132 O 0.43497 0.8296 0.55544 0.0
O133 O 0.45143 0.83713 0.59373 0.0
O134 O 0.46397 0.87965 0.56274 0.0
O135 O 0.49256 0.88019 0.59006 0.0
C136 C 0.5041 0.78296 0.61666 0.0
C137 C 0.49007 0.77779 0.63931 0.0
H138 H 0.46315 0.77448 0.68251 0.0
H139 H 0.4431 0.80151 0.69299 0.0
H140 H 0.53317 0.83488 0.54802 0.0
H141 H 0.53014 0.79894 0.57234 0.0
H142 H 0.51297 0.77154 0.61108 0.0
H143 H 0.48841 0.7625 0.65086 0.0
Mn144 Mn 0.62227 0.45093 0.07837 0.0
Mn145 Mn 0.66265 0.50082 0.10402 0.0
C146 C 0.66139 0.46338 0.06664 0.0
C147 C 0.60125 0.41021 0.07924 0.0
C148 C 0.62802 0.50076 0.06245 0.0
O149 O 0.60575 0.45576 0.1104 0.0
O150 O 0.63383 0.48921 0.12655 0.0
C151 C 0.67372 0.48146 0.15254 0.0
N152 N 0.68094 0.49293 0.12951 0.0
C153 C 0.72097 0.49694 0.13687 0.0
C154 C 0.71398 0.48525 0.16071 0.0
C155 C 0.69025 0.4775 0.16858 0.0
C156 C 0.70379 0.50073 0.12189 0.0
H157 H 0.65548 0.4753 0.15861 0.0
C158 C 0.61341 0.47208 0.12743 0.0
O159 O 0.59342 0.42389 0.0665 0.0
O160 O 0.62087 0.42028 0.09191 0.0
N161 N 0.69122 0.51305 0.08412 0.0
C162 C 0.69465 0.52227 0.05967 0.0
C163 C 0.71722 0.52992 0.0484 0.0
C164 C 0.73599 0.52796 0.06233 0.0
C165 C 0.73203 0.51838 0.08744 0.0
C166 C 0.70921 0.51127 0.09778 0.0
H167 H 0.68021 0.52353 0.04876 0.0
O168 O 0.64488 0.45012 0.05111 0.0
O169 O 0.65427 0.46965 0.08809 0.0
O170 O 0.6177 0.47838 0.06044 0.0
O171 O 0.64523 0.51104 0.07787 0.0
C172 C 0.74968 0.51507 0.10236 0.0
C173 C 0.74417 0.5044 0.12707 0.0
H174 H 0.72662 0.4819 0.17299 0.0
H175 H 0.6847 0.46837 0.18691 0.0
H176 H 0.7201 0.53716 0.02895 0.0
H177 H 0.75332 0.53366 0.05346 0.0
H178 H 0.76748 0.52037 0.09485 0.0
H179 H 0.75782 0.50165 0.13819 0.0
Mn180 Mn 0.13956 0.65549 0.56403 0.0
Mn181 Mn 0.11587 0.69116 0.59025 0.0
C182 C 0.15823 0.69599 0.5581 0.0
C183 C 0.16218 0.63289 0.56673 0.0
C184 C 0.09477 0.65893 0.54425 0.0
O185 O 0.11693 0.63511 0.59171 0.0
O186 O 0.10685 0.66234 0.61206 0.0
C187 C 0.14092 0.70403 0.64052 0.0
N188 N 0.13531 0.7106 0.61703 0.0
C189 C 0.156 0.75179 0.62714 0.0
C190 C 0.16197 0.74551 0.65148 0.0
C191 C 0.15449 0.72151 0.65814 0.0
C192 C 0.14258 0.73361 0.61034 0.0
H193 H 0.13501 0.6856 0.6458 0.0
C194 C 0.10716 0.64165 0.6104 0.0
O195 O 0.14496 0.62802 0.55032 0.0
O196 O 0.16651 0.65116 0.5817 0.0
N197 N 0.12413 0.71975 0.57075 0.0
C198 C 0.11829 0.72275 0.54589 0.0
C199 C 0.12546 0.74571 0.53572 0.0
C200 C 0.13833 0.76529 0.5513 0.0
C201 C 0.14415 0.76172 0.57682 0.0
C202 C 0.13675 0.73846 0.58579 0.0
H203 H 0.10825 0.70777 0.53391 0.0
O204 O 0.16203 0.68145 0.54216 0.0
O205 O 0.14353 0.6862 0.57693 0.0
O206 O 0.11223 0.65319 0.54073 0.0
O207 O 0.09375 0.6721 0.56297 0.0
C208 C 0.15698 0.78034 0.59372 0.0
C209 C 0.16285 0.77536 0.61888 0.0
H210 H 0.17239 0.75896 0.66513 0.0
H211 H 0.15906 0.71652 0.67686 0.0
H212 H 0.12096 0.7483 0.51598 0.0
H213 H 0.14375 0.78298 0.54343 0.0
H214 H 0.16233 0.79851 0.58753 0.0
H215 H 0.17259 0.78974 0.63181 0.0
Mn216 Mn 0.85684 0.44299 0.40582 0.0
Mn217 Mn 0.85809 0.4884 0.3683 0.0
C218 C 0.83191 0.46208 0.41496 0.0
C219 C 0.84197 0.40246 0.41448 0.0
C220 C 0.8954 0.49281 0.4088 0.0
O221 O 0.87378 0.43923 0.37319 0.0
O222 O 0.87137 0.46855 0.34866 0.0
C223 C 0.82393 0.46192 0.32766 0.0
N224 N 0.8308 0.47881 0.34653 0.0
C225 C 0.7975 0.48902 0.3381 0.0
C226 C 0.79014 0.47184 0.31847 0.0
C227 C 0.80339 0.4582 0.31329 0.0
C228 C 0.81819 0.49203 0.35169 0.0
H229 H 0.83404 0.45137 0.32364 0.0
C230 C 0.87699 0.45073 0.3519 0.0
O231 O 0.86226 0.41667 0.42364 0.0
O232 O 0.83077 0.41174 0.39981 0.0
N233 N 0.84529 0.5086 0.38493 0.0
C234 C 0.85383 0.52317 0.40573 0.0
C235 C 0.84215 0.53751 0.41403 0.0
C236 C 0.82191 0.53678 0.40081 0.0
C237 C 0.81341 0.52157 0.37952 0.0
C238 C 0.82587 0.50781 0.37204 0.0
H239 H 0.86943 0.52387 0.41591 0.0
O240 O 0.83733 0.45018 0.43283 0.0
O241 O 0.84134 0.46245 0.39226 0.0
O242 O 0.88607 0.47165 0.41728 0.0
O243 O 0.88668 0.50047 0.39018 0.0
C244 C 0.79295 0.51934 0.3656 0.0
C245 C 0.78491 0.503 0.345 0.0
H246 H 0.77424 0.46884 0.30743 0.0
H247 H 0.79776 0.44483 0.29826 0.0
H248 H 0.84877 0.54916 0.43053 0.0
H249 H 0.81304 0.54795 0.40719 0.0
H250 H 0.78318 0.53001 0.37065 0.0
H251 H 0.76892 0.50118 0.33475 0.0
Mn252 Mn 0.35272 0.85787 0.92784 0.0
Mn253 Mn 0.31137 0.87846 0.91222 0.0
C254 C 0.31627 0.84166 0.94866 0.0
C255 C 0.37172 0.83218 0.92285 0.0
C256 C 0.35482 0.90625 0.944 0.0
O257 O 0.36353 0.87241 0.89253 0.0
O258 O 0.33428 0.88437 0.88284 0.0
C259 C 0.28775 0.84646 0.86864 0.0
N260 N 0.28659 0.85563 0.89243 0.0
C261 C 0.2443 0.83489 0.89379 0.0
C262 C 0.24506 0.82517 0.86934 0.0
C263 C 0.26686 0.83107 0.85668 0.0
C264 C 0.26567 0.85024 0.90468 0.0
H265 H 0.30447 0.85093 0.85882 0.0
C266 C 0.35344 0.88177 0.87718 0.0
O267 O 0.38251 0.85305 0.93278 0.0
O268 O 0.35011 0.82643 0.9151 0.0
N269 N 0.28784 0.87377 0.93833 0.0
C270 C 0.29031 0.88363 0.96241 0.0
C271 C 0.27013 0.87953 0.97765 0.0
C272 C 0.24764 0.86546 0.96793 0.0
C273 C 0.24554 0.85545 0.9431 0.0
C274 C 0.26629 0.86027 0.92874 0.0
H275 H 0.30754 0.89464 0.96987 0.0
O276 O 0.33565 0.8432 0.96008 0.0
O277 O 0.31947 0.85245 0.9262 0.0
O278 O 0.36287 0.89021 0.94395 0.0
O279 O 0.33554 0.90389 0.9328 0.0
C280 C 0.22381 0.84026 0.9324 0.0
C281 C 0.22319 0.82994 0.90779 0.0
H282 H 0.22901 0.8132 0.86009 0.0
H283 H 0.26758 0.82371 0.83775 0.0
H284 H 0.27189 0.88725 0.99682 0.0
H285 H 0.23214 0.86221 0.97983 0.0
H286 H 0.20749 0.83614 0.94308 0.0
H287 H 0.2064 0.81814 0.89985 0.0
Mn288 Mn 0.5487 0.38748 0.42482 0.0
Mn289 Mn 0.49991 0.3516 0.39318 0.0
C290 C 0.53434 0.34719 0.43131 0.0
C291 C 0.58963 0.40712 0.42673 0.0
C292 C 0.49852 0.38191 0.43904 0.0
O293 O 0.54637 0.40796 0.39513 0.0
O294 O 0.51397 0.38246 0.37451 0.0
C295 C 0.52164 0.34459 0.34424 0.0
N296 N 0.50852 0.33542 0.36591 0.0
C297 C 0.50268 0.29582 0.3533 0.0
C298 C 0.51605 0.30483 0.33081 0.0
C299 C 0.52558 0.32933 0.32628 0.0
C300 C 0.49914 0.31187 0.37039 0.0
H301 H 0.52907 0.3634 0.34067 0.0
C302 C 0.53139 0.40255 0.37664 0.0
O303 O 0.5759 0.41419 0.44049 0.0
O304 O 0.57952 0.38909 0.41164 0.0
N305 N 0.48532 0.32119 0.40918 0.0
C306 C 0.47435 0.31554 0.43269 0.0
C307 C 0.46464 0.2918 0.44068 0.0
C308 C 0.46625 0.27415 0.4244 0.0
C309 C 0.47766 0.28042 0.40031 0.0
C310 C 0.48692 0.30434 0.39334 0.0
H311 H 0.47317 0.32906 0.44532 0.0
O312 O 0.54721 0.36163 0.44891 0.0
O313 O 0.52973 0.35695 0.41081 0.0
O314 O 0.52075 0.39108 0.4431 0.0
O315 O 0.489 0.36699 0.42098 0.0
C316 C 0.48053 0.26391 0.38312 0.0
C317 C 0.49308 0.2716 0.35968 0.0
H318 H 0.51928 0.29314 0.317 0.0
H319 H 0.53599 0.33643 0.309 0.0
H320 H 0.45597 0.28712 0.45935 0.0
H321 H 0.45881 0.25588 0.43067 0.0
H322 H 0.47326 0.24528 0.3878 0.0
H323 H 0.49545 0.25875 0.34681 0.0
Mn324 Mn 0.14921 0.55902 0.90576 0.0
Mn325 Mn 0.14349 0.51126 0.86971 0.0
C326 C 0.17432 0.53967 0.91261 0.0
C327 C 0.16537 0.5999 0.91178 0.0
C328 C 0.11046 0.5099 0.91401 0.0
O329 O 0.12974 0.56159 0.87486 0.0
O330 O 0.12874 0.53036 0.85115 0.0
C331 C 0.17374 0.53498 0.82495 0.0
N332 N 0.16849 0.51916 0.84485 0.0
C333 C 0.20025 0.50756 0.83297 0.0
C334 C 0.20594 0.52364 0.81225 0.0
C335 C 0.19266 0.53746 0.80828 0.0
C336 C 0.18117 0.50582 0.84889 0.0
H337 H 0.16359 0.54564 0.82183 0.0
C338 C 0.12407 0.54874 0.85448 0.0
O339 O 0.14583 0.58662 0.92323 0.0
O340 O 0.17506 0.58951 0.89648 0.0
N341 N 0.15738 0.49156 0.88532 0.0
C342 C 0.15064 0.47813 0.90722 0.0
C343 C 0.16259 0.46374 0.91441 0.0
C344 C 0.18121 0.46322 0.89896 0.0
C345 C 0.18789 0.47729 0.87659 0.0
C346 C 0.17527 0.49118 0.87032 0.0
H347 H 0.13624 0.47835 0.91908 0.0
O348 O 0.17083 0.55265 0.93073 0.0
O349 O 0.16282 0.53832 0.89108 0.0
O350 O 0.12081 0.53146 0.92089 0.0
O351 O 0.1172 0.50095 0.89483 0.0
C352 C 0.20667 0.47821 0.86034 0.0
C353 C 0.21297 0.49345 0.83867 0.0
H354 H 0.22057 0.52567 0.79941 0.0
H355 H 0.197 0.54999 0.79241 0.0
H356 H 0.15737 0.45297 0.93175 0.0
H357 H 0.19024 0.45196 0.90447 0.0
H358 H 0.21643 0.46733 0.86439 0.0
H359 H 0.22771 0.49427 0.8266 0.0
Mn360 Mn 0.65315 0.15003 0.44214 0.0
Mn361 Mn 0.69068 0.12648 0.42044 0.0
C362 C 0.69273 0.16764 0.45324 0.0
C363 C 0.63242 0.17428 0.43738 0.0
C364 C 0.65343 0.10364 0.46171 0.0
O365 O 0.63579 0.12956 0.41167 0.0
O366 O 0.66393 0.11822 0.39548 0.0
C367 C 0.70851 0.15309 0.37174 0.0
N368 N 0.7127 0.1466 0.3959 0.0
C369 C 0.75469 0.16745 0.39062 0.0
C370 C 0.75084 0.17438 0.36568 0.0
C371 C 0.72764 0.16723 0.35625 0.0
C372 C 0.73494 0.15345 0.4052 0.0
H373 H 0.6907 0.1475 0.36438 0.0
C374 C 0.64356 0.1194 0.39448 0.0
O375 O 0.62492 0.15588 0.45237 0.0
O376 O 0.65206 0.17862 0.42486 0.0
N377 N 0.71724 0.13382 0.44307 0.0
C378 C 0.71777 0.12704 0.46817 0.0
C379 C 0.7396 0.13355 0.48089 0.0
C380 C 0.76062 0.14676 0.46761 0.0
C381 C 0.75958 0.15357 0.44181 0.0
C382 C 0.73733 0.14675 0.43023 0.0
H383 H 0.70166 0.11674 0.47837 0.0
O384 O 0.67667 0.1705 0.46765 0.0
O385 O 0.68484 0.1539 0.43317 0.0
O386 O 0.64717 0.12089 0.46419 0.0
O387 O 0.66908 0.10365 0.44545 0.0
C388 C 0.77976 0.16687 0.42714 0.0
C389 C 0.77732 0.17396 0.40162 0.0
H390 H 0.76555 0.18526 0.35367 0.0
H391 H 0.72452 0.17253 0.33704 0.0
H392 H 0.74023 0.1283 0.50083 0.0
H393 H 0.77743 0.15169 0.47745 0.0
H394 H 0.79721 0.17169 0.43534 0.0
H395 H 0.79295 0.1844 0.39062 0.0
Mn396 Mn 0.45831 0.61815 0.91369 0.0
Mn397 Mn 0.50811 0.6587 0.88816 0.0
C398 C 0.46955 0.65745 0.92416 0.0
C399 C 0.41778 0.59628 0.91131 0.0
C400 C 0.50769 0.62453 0.93084 0.0
O401 O 0.46513 0.60105 0.8832 0.0
O402 O 0.49649 0.63032 0.86503 0.0
C403 C 0.48918 0.67089 0.83999 0.0
N404 N 0.50073 0.67764 0.86303 0.0
C405 C 0.50528 0.71796 0.85647 0.0
C406 C 0.49365 0.71147 0.83254 0.0
C407 C 0.48555 0.68783 0.82429 0.0
C408 C 0.50874 0.70038 0.8711 0.0
H409 H 0.4826 0.65269 0.83374 0.0
C410 C 0.48058 0.60916 0.86527 0.0
O411 O 0.43128 0.58919 0.92537 0.0
O412 O 0.42798 0.61555 0.89806 0.0
N413 N 0.52022 0.68686 0.90876 0.0
C414 C 0.52901 0.68971 0.93338 0.0
C415 C 0.53671 0.71208 0.94514 0.0
C416 C 0.53525 0.73124 0.93153 0.0
C417 C 0.52608 0.72787 0.90624 0.0
C418 C 0.51892 0.70523 0.8954 0.0
H419 H 0.52993 0.67499 0.94405 0.0
O420 O 0.45576 0.64112 0.93954 0.0
O421 O 0.47672 0.65006 0.90349 0.0
O422 O 0.48536 0.61504 0.93374 0.0
O423 O 0.51794 0.64061 0.91408 0.0
C424 C 0.52322 0.74593 0.89164 0.0
C425 C 0.51285 0.74099 0.86676 0.0
H426 H 0.49052 0.72442 0.82054 0.0
H427 H 0.47635 0.68264 0.80597 0.0
H428 H 0.54362 0.71451 0.96473 0.0
H429 H 0.54097 0.74841 0.94078 0.0
H430 H 0.52857 0.7636 0.89953 0.0
H431 H 0.51036 0.75493 0.85591 0.0
H432 H 0.61387 0.1366 0.37162 0.0
H433 H 0.59406 0.12522 0.32998 0.0
H434 H 0.62023 0.06974 0.32273 0.0
H435 H 0.64147 0.08225 0.36388 0.0
H436 H 0.62572 0.08896 0.2799 0.0
H437 H 0.55883 0.05849 0.3327 0.0
H438 H 0.53134 0.05639 0.3684 0.0
H439 H 0.51795 0.11385 0.33485 0.0
H440 H 0.54564 0.11658 0.29915 0.0
H441 H 0.52307 0.08279 0.18108 0.0
H442 H 0.5354 0.06998 0.22149 0.0
H443 H 0.60658 0.12136 0.20929 0.0
H444 H 0.59462 0.1325 0.16803 0.0
H445 H 0.54694 0.09013 0.26241 0.0
H446 H 0.64782 0.1133 0.24184 0.0
H447 H 0.67238 0.10782 0.20662 0.0
H448 H 0.61215 0.05037 0.17598 0.0
H449 H 0.58727 0.05524 0.21122 0.0
C450 C 0.61508 0.12171 0.36137 0.0
C451 C 0.62915 0.11026 0.37099 0.0
C452 C 0.60359 0.11507 0.33757 0.0
C453 C 0.6052 0.09627 0.32326 0.0
C454 C 0.61867 0.08429 0.33331 0.0
C455 C 0.63073 0.09138 0.35686 0.0
C456 C 0.59438 0.09064 0.29695 0.0
C457 C 0.60836 0.08891 0.27609 0.0
C458 C 0.57129 0.08938 0.29192 0.0
C459 C 0.55441 0.08778 0.31325 0.0
C460 C 0.55012 0.07077 0.33299 0.0
C461 C 0.53449 0.06947 0.35323 0.0
C462 C 0.52291 0.08499 0.35389 0.0
C463 C 0.52691 0.10183 0.33429 0.0
C464 C 0.54255 0.10323 0.31401 0.0
C465 C 0.54149 0.09071 0.18676 0.0
C466 C 0.55798 0.10842 0.17145 0.0
C467 C 0.54853 0.08353 0.20992 0.0
C468 C 0.57204 0.09447 0.21858 0.0
C469 C 0.58855 0.11192 0.20286 0.0
C470 C 0.58169 0.11847 0.17929 0.0
C471 C 0.5788 0.08975 0.24515 0.0
C472 C 0.56404 0.08953 0.26612 0.0
C473 C 0.60065 0.0879 0.25029 0.0
C474 C 0.61563 0.08473 0.22916 0.0
C475 C 0.63982 0.09938 0.22771 0.0
C476 C 0.6538 0.09641 0.2077 0.0
C477 C 0.64382 0.07879 0.18905 0.0
C478 C 0.61984 0.06406 0.1904 0.0
C479 C 0.60579 0.06694 0.21037 0.0
H480 H 0.65467 0.07653 0.17356 0.0
H481 H 0.51083 0.08395 0.36959 0.0
H482 H 0.41127 0.54955 0.64123 0.0
H483 H 0.43569 0.55929 0.68021 0.0
H484 H 0.38744 0.49578 0.71731 0.0
H485 H 0.36268 0.48597 0.67856 0.0
H486 H 0.39497 0.53394 0.74641 0.0
H487 H 0.44297 0.5016 0.70126 0.0
H488 H 0.46582 0.49601 0.66436 0.0
H489 H 0.5138 0.56879 0.66931 0.0
H490 H 0.49098 0.57495 0.70595 0.0
H491 H 0.45677 0.5613 0.86176 0.0
H492 H 0.44418 0.53826 0.82194 0.0
H493 H 0.48502 0.59975 0.77661 0.0
H494 H 0.49825 0.62283 0.81638 0.0
H495 H 0.48181 0.55775 0.75288 0.0
H496 H 0.43021 0.59111 0.79261 0.0
H497 H 0.40742 0.59751 0.82916 0.0
H498 H 0.36583 0.52289 0.8333 0.0
H499 H 0.38869 0.51599 0.79708 0.0
C500 C 0.406 0.53741 0.65748 0.0
C501 C 0.38485 0.51707 0.65679 0.0
C502 C 0.42009 0.54295 0.67972 0.0
C503 C 0.41342 0.5282 0.70161 0.0
C504 C 0.39289 0.50739 0.7006 0.0
C505 C 0.37877 0.50183 0.6784 0.0
C506 C 0.42644 0.5358 0.72636 0.0
C507 C 0.41387 0.53859 0.74796 0.0
C508 C 0.45119 0.54244 0.72816 0.0
C509 C 0.46514 0.53877 0.70627 0.0
C510 C 0.45829 0.51647 0.69437 0.0
C511 C 0.47125 0.51319 0.67351 0.0
C512 C 0.49123 0.53204 0.66447 0.0
C513 C 0.49831 0.5542 0.67632 0.0
C514 C 0.48538 0.55759 0.69716 0.0
C515 C 0.46363 0.56978 0.84337 0.0
C516 C 0.47798 0.59407 0.84217 0.0
C517 C 0.45647 0.55656 0.82065 0.0
C518 C 0.46319 0.5675 0.79638 0.0
C519 C 0.47953 0.59104 0.79519 0.0
C520 C 0.48697 0.60424 0.81796 0.0
C521 C 0.45026 0.55583 0.7727 0.0
C522 C 0.46284 0.55255 0.75134 0.0
C523 C 0.42546 0.5488 0.77096 0.0
C524 C 0.41133 0.553 0.79233 0.0
C525 C 0.4163 0.57605 0.80142 0.0
C526 C 0.40338 0.57977 0.82208 0.0
C527 C 0.38523 0.56061 0.83359 0.0
C528 C 0.37992 0.5377 0.8244 0.0
C529 C 0.39286 0.53388 0.80382 0.0
H530 H 0.37523 0.56351 0.84956 0.0
H531 H 0.50124 0.52947 0.64832 0.0
H532 H 0.88543 0.3905 0.12193 0.0
H533 H 0.89199 0.40819 0.16508 0.0
H534 H 0.89957 0.34646 0.19632 0.0
H535 H 0.89271 0.32839 0.1532 0.0
H536 H 0.86933 0.35862 0.22471 0.0
H537 H 0.94736 0.39847 0.19143 0.0
H538 H 0.97748 0.4214 0.15944 0.0
H539 H 0.95572 0.47947 0.16711 0.0
H540 H 0.92522 0.45676 0.19887 0.0
H541 H 0.88945 0.41242 0.34873 0.0
H542 H 0.89836 0.39517 0.30937 0.0
H543 H 0.89229 0.45126 0.26362 0.0
H544 H 0.88395 0.46889 0.30267 0.0
H545 H 0.92685 0.43969 0.24498 0.0
H546 H 0.84536 0.398 0.27174 0.0
H547 H 0.81388 0.37536 0.30255 0.0
H548 H 0.84126 0.32101 0.30589 0.0
H549 H 0.87312 0.34352 0.27535 0.0
C550 C 0.88875 0.38073 0.13787 0.0
C551 C 0.8885 0.35797 0.13401 0.0
C552 C 0.89264 0.39096 0.16255 0.0
C553 C 0.8965 0.37874 0.1839 0.0
C554 C 0.8967 0.35622 0.18009 0.0
C555 C 0.89285 0.34597 0.15538 0.0
C556 C 0.89874 0.38893 0.21039 0.0
C557 C 0.88228 0.37613 0.22933 0.0
C558 C 0.91533 0.41196 0.21626 0.0
C559 C 0.93389 0.42583 0.19744 0.0
C560 C 0.9489 0.41608 0.18619 0.0
C561 C 0.96605 0.42904 0.1681 0.0
C562 C 0.96848 0.45186 0.16121 0.0
C563 C 0.95381 0.46179 0.17246 0.0
C564 C 0.93661 0.44889 0.19054 0.0
C565 C 0.89042 0.42134 0.33037 0.0
C566 C 0.88568 0.44192 0.32891 0.0
C567 C 0.89545 0.41139 0.30786 0.0
C568 C 0.89557 0.42169 0.28348 0.0
C569 C 0.89224 0.44296 0.28219 0.0
C570 C 0.88736 0.45297 0.30462 0.0
C571 C 0.89718 0.40953 0.25907 0.0
C572 C 0.91427 0.42198 0.24051 0.0
C573 C 0.88106 0.38623 0.25343 0.0
C574 C 0.86177 0.37256 0.27153 0.0
C575 C 0.84475 0.38129 0.27918 0.0
C576 C 0.82683 0.36848 0.29658 0.0
C577 C 0.82561 0.3468 0.30624 0.0
C578 C 0.84226 0.33784 0.29844 0.0
C579 C 0.86024 0.35061 0.28109 0.0
H580 H 0.81174 0.33691 0.31972 0.0
H581 H 0.98176 0.46186 0.14718 0.0
H582 H 0.39633 0.88419 0.85979 0.0
H583 H 0.41241 0.893 0.81605 0.0
H584 H 0.35073 0.90438 0.79123 0.0
H585 H 0.33424 0.89529 0.83512 0.0
H586 H 0.36119 0.87543 0.75837 0.0
H587 H 0.4032 0.95098 0.79593 0.0
H588 H 0.42721 0.97942 0.82878 0.0
H589 H 0.48418 0.95684 0.81621 0.0
H590 H 0.4604 0.928 0.78355 0.0
H591 H 0.41442 0.89692 0.63443 0.0
H592 H 0.39891 0.90753 0.67402 0.0
H593 H 0.45226 0.89558 0.7191 0.0
H594 H 0.4682 0.88548 0.67978 0.0
H595 H 0.443 0.93174 0.73889 0.0
H596 H 0.39804 0.85138 0.70872 0.0
H597 H 0.37467 0.82243 0.67589 0.0
H598 H 0.32345 0.85388 0.6751 0.0
H599 H 0.34674 0.88326 0.70766 0.0
C600 C 0.38621 0.88878 0.84517 0.0
C601 C 0.36395 0.88901 0.85104 0.0
C602 C 0.39553 0.89397 0.82016 0.0
C603 C 0.3829 0.89963 0.80044 0.0
C604 C 0.36082 0.90019 0.80622 0.0
C605 C 0.35147 0.89506 0.83134 0.0
C606 C 0.3923 0.90338 0.77353 0.0
C607 C 0.37885 0.88817 0.75394 0.0
C608 C 0.41546 0.91977 0.76784 0.0
C609 C 0.42994 0.93723 0.78735 0.0
C610 C 0.42079 0.95197 0.80028 0.0
C611 C 0.43437 0.96818 0.81886 0.0
C612 C 0.45719 0.96992 0.8246 0.0
C613 C 0.4665 0.95548 0.81174 0.0
C614 C 0.45299 0.93922 0.79315 0.0
C615 C 0.42324 0.8971 0.65266 0.0
C616 C 0.44233 0.88993 0.65392 0.0
C617 C 0.41428 0.90311 0.67529 0.0
C618 C 0.42413 0.90185 0.69955 0.0
C619 C 0.44432 0.89657 0.7006 0.0
C620 C 0.45335 0.89068 0.67804 0.0
C621 C 0.41214 0.90338 0.72406 0.0
C622 C 0.42511 0.91948 0.74319 0.0
C623 C 0.38857 0.88774 0.72939 0.0
C624 C 0.37424 0.86967 0.71039 0.0
C625 C 0.38184 0.85218 0.70146 0.0
C626 C 0.36862 0.8357 0.6829 0.0
C627 C 0.34763 0.83636 0.67336 0.0
C628 C 0.33975 0.85342 0.68247 0.0
C629 C 0.35294 0.86999 0.70097 0.0
H630 H 0.33744 0.82362 0.65895 0.0
H631 H 0.46767 0.98247 0.839 0.0
H632 H 0.49998 0.41232 0.346 0.0
H633 H 0.50872 0.4336 0.3045 0.0
H634 H 0.58284 0.44801 0.31466 0.0
H635 H 0.57437 0.42874 0.35678 0.0
H636 H 0.58173 0.48083 0.28856 0.0
H637 H 0.53998 0.39615 0.28142 0.0
H638 H 0.50681 0.35776 0.2885 0.0
H639 H 0.45971 0.38327 0.24961 0.0
H640 H 0.4926 0.42192 0.24253 0.0
H641 H 0.58864 0.43148 0.15271 0.0
H642 H 0.56959 0.4269 0.19487 0.0
H643 H 0.58532 0.50186 0.19689 0.0
H644 H 0.60633 0.50668 0.15535 0.0
H645 H 0.53575 0.43061 0.21619 0.0
H646 H 0.59318 0.52213 0.25833 0.0
H647 H 0.63252 0.55413 0.25186 0.0
H648 H 0.65893 0.50403 0.22171 0.0
H649 H 0.61987 0.47175 0.22834 0.0
C650 C 0.51818 0.42074 0.3396 0.0
C651 C 0.5365 0.41882 0.3544 0.0
C652 C 0.52317 0.4327 0.31583 0.0
C653 C 0.54637 0.4418 0.30593 0.0
C654 C 0.56478 0.44121 0.32167 0.0
C655 C 0.55992 0.43009 0.3458 0.0
C656 C 0.55145 0.44945 0.27838 0.0
C657 C 0.57153 0.46993 0.27274 0.0
C658 C 0.53842 0.43516 0.25757 0.0
C659 C 0.51864 0.41198 0.26177 0.0
C660 C 0.52251 0.3936 0.27452 0.0
C661 C 0.50378 0.3718 0.27853 0.0
C662 C 0.48115 0.36812 0.26961 0.0
C663 C 0.47723 0.38619 0.25658 0.0
C664 C 0.4959 0.40803 0.25256 0.0
C665 C 0.58782 0.44695 0.16204 0.0
C666 C 0.59907 0.46945 0.15099 0.0
C667 C 0.57681 0.44433 0.18614 0.0
C668 C 0.57625 0.46408 0.19944 0.0
C669 C 0.58607 0.48642 0.18746 0.0
C670 C 0.59791 0.48918 0.16369 0.0
C671 C 0.56692 0.46108 0.22647 0.0
C672 C 0.54576 0.44174 0.23197 0.0
C673 C 0.57995 0.4754 0.24725 0.0
C674 C 0.60355 0.49464 0.24348 0.0
C675 C 0.60742 0.51797 0.25038 0.0
C676 C 0.62965 0.53614 0.24669 0.0
C677 C 0.64818 0.53113 0.23628 0.0
C678 C 0.64455 0.50791 0.22968 0.0
C679 C 0.62238 0.48968 0.2334 0.0
H680 H 0.66536 0.54523 0.2334 0.0
H681 H 0.46667 0.35123 0.27273 0.0
H682 H 0.07871 0.64478 0.64991 0.0
H683 H 0.07318 0.62524 0.69217 0.0
H684 H 0.11158 0.58405 0.66539 0.0
H685 H 0.11715 0.60332 0.62303 0.0
H686 H 0.05676 0.57621 0.71287 0.0
H687 H 0.15541 0.5954 0.71026 0.0
H688 H 0.19135 0.62142 0.68704 0.0
H689 H 0.16266 0.67454 0.67978 0.0
H690 H 0.12673 0.64898 0.70325 0.0
H691 H 0.09891 0.52206 0.81391 0.0
H692 H 0.08784 0.53625 0.77374 0.0
H693 H 0.11551 0.60736 0.80394 0.0
H694 H 0.12645 0.59331 0.84436 0.0
H695 H 0.13501 0.60242 0.75615 0.0
H696 H 0.05891 0.58217 0.79495 0.0
H697 H 0.02246 0.55646 0.8174 0.0
H698 H 0.00535 0.50728 0.75393 0.0
H699 H 0.0419 0.53254 0.73125 0.0
C700 C 0.08539 0.63106 0.65272 0.0
C701 C 0.09869 0.62587 0.6332 0.0
C702 C 0.08207 0.61983 0.67685 0.0
C703 C 0.09222 0.60346 0.68191 0.0
C704 C 0.1037 0.59673 0.6618 0.0
C705 C 0.10684 0.60777 0.63758 0.0
C706 C 0.09416 0.59639 0.70896 0.0
C707 C 0.07381 0.58183 0.7224 0.0
C708 C 0.11639 0.60425 0.72145 0.0
C709 C 0.13834 0.62019 0.70831 0.0
C710 C 0.15687 0.6127 0.70386 0.0
C711 C 0.17721 0.62735 0.69062 0.0
C712 C 0.17925 0.64958 0.68186 0.0
C713 C 0.16102 0.65728 0.68648 0.0
C714 C 0.14066 0.64272 0.69974 0.0
C715 C 0.10219 0.54065 0.81225 0.0
C716 C 0.11368 0.55658 0.83228 0.0
C717 C 0.09577 0.5487 0.78931 0.0
C718 C 0.1009 0.57284 0.7859 0.0
C719 C 0.11139 0.58864 0.80627 0.0
C720 C 0.11753 0.58056 0.82938 0.0
C721 C 0.09763 0.58181 0.76014 0.0
C722 C 0.11787 0.59678 0.74681 0.0
C723 C 0.07527 0.5744 0.74793 0.0
C724 C 0.05327 0.55916 0.7615 0.0
C725 C 0.04749 0.56577 0.78588 0.0
C726 C 0.02679 0.5513 0.79863 0.0
C727 C 0.01163 0.53022 0.78713 0.0
C728 C 0.01712 0.5236 0.76283 0.0
C729 C 0.03782 0.53801 0.75 0.0
H730 H 0.9956 0.51904 0.79703 0.0
H731 H 0.19497 0.66086 0.67155 0.0
H732 H 0.51551 0.08782 0.04303 0.0
H733 H 0.48624 0.05568 0.01808 0.0
H734 H 0.43676 0.04157 0.08153 0.0
H735 H 0.46573 0.07351 0.10654 0.0
H736 H 0.43882 0.00125 0.06183 0.0
H737 H 0.42925 0.07004 0.03085 0.0
H738 H 0.44237 0.11031 0.01284 0.0
H739 H 0.46599 0.08754 0.94339 0.0
H740 H 0.45338 0.04719 0.96119 0.0
H741 H 0.34215 0.94326 0.95733 0.0
H742 H 0.36571 0.97864 0.98266 0.0
H743 H 0.42279 0.9547 0.9867 0.0
H744 H 0.39977 0.91972 0.96187 0.0
H745 H 0.41155 0.01517 0.97506 0.0
H746 H 0.44355 0.96211 0.04755 0.0
H747 H 0.42932 0.92199 0.06627 0.0
H748 H 0.35745 0.91413 0.05499 0.0
H749 H 0.37124 0.95432 0.03657 0.0
C750 C 0.49848 0.07774 0.05175 0.0
C751 C 0.49296 0.08326 0.07677 0.0
C752 C 0.48172 0.05953 0.0374 0.0
C753 C 0.45927 0.04647 0.04789 0.0
C754 C 0.45395 0.05152 0.07307 0.0
C755 C 0.47056 0.06981 0.08731 0.0
C756 C 0.44135 0.0273 0.03277 0.0
C757 C 0.43281 0.00431 0.04291 0.0
C758 C 0.43313 0.03144 0.00835 0.0
C759 C 0.44055 0.05563 0.99746 0.0
C760 C 0.43741 0.07365 0.01182 0.0
C761 C 0.44473 0.09649 0.00164 0.0
C762 C 0.45505 0.10149 0.977 0.0
C763 C 0.45802 0.08364 0.96248 0.0
C764 C 0.45077 0.06078 0.9726 0.0
C765 C 0.35978 0.94566 0.96349 0.0
C766 C 0.3689 0.92847 0.95786 0.0
C767 C 0.3732 0.96587 0.97787 0.0
C768 C 0.39582 0.96903 0.98683 0.0
C769 C 0.40523 0.95238 0.98033 0.0
C770 C 0.39194 0.93233 0.96613 0.0
C771 C 0.4096 0.9891 0.00387 0.0
C772 C 0.4174 0.01221 0.9941 0.0
C773 C 0.41694 0.98517 0.02884 0.0
C774 C 0.40845 0.96118 0.04053 0.0
C775 C 0.42471 0.95188 0.04923 0.0
C776 C 0.41672 0.92912 0.05975 0.0
C777 C 0.3925 0.91551 0.06176 0.0
C778 C 0.37621 0.92467 0.05335 0.0
C779 C 0.3841 0.94743 0.04285 0.0
H780 H 0.38635 0.89787 0.06987 0.0
H781 H 0.4607 0.11919 0.96915 0.0
H782 H 0.35216 0.43747 0.57852 0.0
H783 H 0.37519 0.41841 0.55637 0.0
H784 H 0.40591 0.47913 0.50638 0.0
H785 H 0.38294 0.4983 0.52823 0.0
H786 H 0.3948 0.43813 0.47971 0.0
H787 H 0.43625 0.47402 0.55736 0.0
H788 H 0.44094 0.48211 0.60438 0.0
H789 H 0.42505 0.40875 0.6194 0.0
H790 H 0.41995 0.40017 0.57244 0.0
H791 H 0.51142 0.41873 0.47366 0.0
H792 H 0.48543 0.43372 0.49679 0.0
H793 H 0.42444 0.37751 0.46458 0.0
H794 H 0.4502 0.36259 0.44108 0.0
H795 H 0.45103 0.41675 0.53245 0.0
H796 H 0.38333 0.39946 0.44897 0.0
H797 H 0.38191 0.39569 0.40122 0.0
H798 H 0.456 0.43944 0.39665 0.0
H799 H 0.45778 0.44374 0.4443 0.0
C800 C 0.36356 0.44667 0.56258 0.0
C801 C 0.36584 0.46953 0.55531 0.0
C802 C 0.37679 0.43578 0.55004 0.0
C803 C 0.39247 0.44752 0.53 0.0
C804 C 0.39395 0.46982 0.52187 0.0
C805 C 0.38084 0.48077 0.53446 0.0
C806 C 0.40809 0.43706 0.51815 0.0
C807 C 0.40698 0.4333 0.49125 0.0
C808 C 0.42436 0.43131 0.53317 0.0
C809 C 0.42746 0.43641 0.56141 0.0
C810 C 0.43356 0.45958 0.5707 0.0
C811 C 0.43633 0.46426 0.59734 0.0
C812 C 0.43323 0.44594 0.61487 0.0
C813 C 0.42741 0.42292 0.60579 0.0
C814 C 0.42459 0.41813 0.57917 0.0
C815 C 0.49248 0.40939 0.47168 0.0
C816 C 0.48292 0.38963 0.45522 0.0
C817 C 0.47765 0.41796 0.48497 0.0
C818 C 0.45303 0.40694 0.48206 0.0
C819 C 0.44341 0.38653 0.4667 0.0
C820 C 0.45819 0.37803 0.45331 0.0
C821 C 0.43748 0.41746 0.49404 0.0
C822 C 0.43865 0.4213 0.52095 0.0
C823 C 0.42167 0.42385 0.47894 0.0
C824 C 0.42072 0.42169 0.45022 0.0
C825 C 0.39929 0.40834 0.43776 0.0
C826 C 0.39843 0.4061 0.41071 0.0
C827 C 0.41887 0.41725 0.39592 0.0
C828 C 0.4402 0.43074 0.40813 0.0
C829 C 0.44115 0.43306 0.43516 0.0
H830 H 0.41817 0.41547 0.37499 0.0
H831 H 0.43539 0.44961 0.63548 0.0
H832 H 0.09879 0.51566 0.96428 0.0
H833 H 0.06769 0.48699 0.99096 0.0
H834 H 0.04544 0.43952 0.92551 0.0
H835 H 0.07677 0.46759 0.89912 0.0
H836 H 0.02203 0.46828 0.98953 0.0
H837 H 0.02639 0.38312 0.94336 0.0
H838 H 0.05651 0.37087 0.92398 0.0
H839 H 0.11096 0.42518 0.96666 0.0
H840 H 0.08115 0.43747 0.98669 0.0
H841 H 0.91491 0.37426 0.00126 0.0
H842 H 0.95262 0.40163 0.98435 0.0
H843 H 0.98946 0.37421 0.03792 0.0
H844 H 0.9514 0.34632 0.05506 0.0
H845 H 0.01098 0.38381 0.98987 0.0
H846 H 0.98584 0.42448 0.05304 0.0
H847 H 0.95809 0.43765 0.07628 0.0
H848 H 0.95026 0.47382 0.00787 0.0
H849 H 0.9777 0.46057 0.98408 0.0
C850 C 0.08717 0.49916 0.95556 0.0
C851 C 0.09037 0.49383 0.92963 0.0
C852 C 0.06944 0.48277 0.97085 0.0
C853 C 0.05457 0.46084 0.96044 0.0
C854 C 0.05714 0.45598 0.93424 0.0
C855 C 0.07497 0.47216 0.9191 0.0
C856 C 0.03607 0.44305 0.97663 0.0
C857 C 0.01974 0.44987 0.98973 0.0
C858 C 0.03353 0.41912 0.97775 0.0
C859 C 0.0515 0.41131 0.96641 0.0
C860 C 0.04476 0.39232 0.94879 0.0
C861 C 0.06179 0.38539 0.93766 0.0
C862 C 0.08564 0.39727 0.94405 0.0
C863 C 0.09249 0.41602 0.96169 0.0
C864 C 0.07553 0.42298 0.97294 0.0
C865 C 0.93097 0.3738 0.00937 0.0
C866 C 0.93012 0.35829 0.02978 0.0
C867 C 0.95254 0.38955 0.9997 0.0
C868 C 0.97382 0.39034 0.01031 0.0
C869 C 0.97319 0.37399 0.02964 0.0
C870 C 0.95146 0.35805 0.03935 0.0
C871 C 0.99643 0.40895 0.00151 0.0
C872 C 0.01353 0.4023 0.98992 0.0
C873 C 0.00013 0.43317 0.00249 0.0
C874 C 0.98375 0.4414 0.01673 0.0
C875 C 0.97809 0.43512 0.04289 0.0
C876 C 0.96242 0.44261 0.05617 0.0
C877 C 0.95239 0.45653 0.04354 0.0
C878 C 0.95805 0.46303 0.01762 0.0
C879 C 0.97369 0.45556 0.00424 0.0
H880 H 0.94026 0.46231 0.05386 0.0
H881 H 0.0988 0.39192 0.93534 0.0
H882 H 0.65309 0.0593 0.45425 0.0
H883 H 0.62559 0.02224 0.47324 0.0
H884 H 0.59505 0.06096 0.52046 0.0
H885 H 0.62252 0.09804 0.50186 0.0
H886 H 0.59829 0.02492 0.54723 0.0
H887 H 0.56905 0.0368 0.46472 0.0
H888 H 0.57118 0.04452 0.4176 0.0
H889 H 0.58163 0.98045 0.40351 0.0
H890 H 0.57993 0.97254 0.45062 0.0
H891 H 0.4774 0.91817 0.53552 0.0
H892 H 0.5068 0.95453 0.51685 0.0
H893 H 0.56243 0.94127 0.55581 0.0
H894 H 0.53339 0.9054 0.57481 0.0
H895 H 0.5451 0.96554 0.48587 0.0
H896 H 0.60294 0.99237 0.57872 0.0
H897 H 0.59827 0.98691 0.62617 0.0
H898 H 0.52543 0.97733 0.62011 0.0
H899 H 0.52976 0.98307 0.57271 0.0
C900 C 0.64086 0.06 0.46906 0.0
C901 C 0.63989 0.08167 0.47633 0.0
C902 C 0.62503 0.03877 0.47975 0.0
C903 C 0.60798 0.03883 0.49789 0.0
C904 C 0.60797 0.06049 0.50638 0.0
C905 C 0.6237 0.08169 0.49567 0.0
C906 C 0.58935 0.01635 0.50705 0.0
C907 C 0.58676 0.01188 0.53381 0.0
C908 C 0.57384 -0.00035 0.48957 0.0
C909 C 0.5746 0.0042 0.46121 0.0
C910 C 0.57197 0.02445 0.45159 0.0
C911 C 0.57308 0.02885 0.42489 0.0
C912 C 0.5766 0.01302 0.40758 0.0
C913 C 0.57894 0.99271 0.41695 0.0
C914 C 0.57789 0.98825 0.44364 0.0
C915 C 0.49591 0.9229 0.53992 0.0
C916 C 0.50297 0.90901 0.55695 0.0
C917 C 0.51269 0.94366 0.5292 0.0
C918 C 0.53677 0.95083 0.53532 0.0
C919 C 0.54392 0.93636 0.55125 0.0
C920 C 0.52723 0.91579 0.56207 0.0
C921 C 0.55442 0.97387 0.52604 0.0
C922 C 0.55676 0.97849 0.49928 0.0
C923 C 0.56932 0.99101 0.54356 0.0
C924 C 0.56664 0.98793 0.57213 0.0
C925 C 0.58596 0.98921 0.58753 0.0
C926 C 0.58337 0.98604 0.61442 0.0
C927 C 0.56155 0.9817 0.62613 0.0
C928 C 0.5423 0.98061 0.611 0.0
C929 C 0.54481 0.98379 0.58413 0.0
H930 H 0.55957 0.97923 0.64694 0.0
H931 H 0.57746 0.01647 0.38691 0.0
H932 H 0.49293 0.58365 0.95875 0.0
H933 H 0.51709 0.56735 0.98267 0.0
H934 H 0.5797 0.62878 0.96376 0.0
H935 H 0.55558 0.64499 0.93889 0.0
H936 H 0.58783 0.59075 0.95632 0.0
H937 H 0.5564 0.61921 0.02634 0.0
H938 H 0.52614 0.62591 0.05275 0.0
H939 H 0.49091 0.55123 0.06591 0.0
H940 H 0.52077 0.54402 0.03927 0.0
H941 H 0.65062 0.54754 0.04972 0.0
H942 H 0.63359 0.57261 0.02782 0.0
H943 H 0.56718 0.51276 0.02014 0.0
H944 H 0.58404 0.48751 0.04154 0.0
H945 H 0.56582 0.55572 0.04411 0.0
H946 H 0.59663 0.52872 0.96915 0.0
H947 H 0.62832 0.52365 0.94372 0.0
H948 H 0.66704 0.5989 0.94224 0.0
H949 H 0.6357 0.60438 0.96801 0.0
C950 C 0.5118 0.59388 0.95988 0.0
C951 C 0.52233 0.61565 0.94694 0.0
C952 C 0.5256 0.58457 0.9737 0.0
C953 C 0.55017 0.59702 0.97539 0.0
C954 C 0.56076 0.61891 0.96277 0.0
C955 C 0.54695 0.62815 0.94862 0.0
C956 C 0.56471 0.58637 0.98921 0.0
C957 C 0.58333 0.58356 0.97575 0.0
C958 C 0.55878 0.57685 0.01451 0.0
C959 C 0.54078 0.58107 0.03066 0.0
C960 C 0.54212 0.60419 0.03472 0.0
C961 C 0.52504 0.60808 0.04975 0.0
C962 C 0.5066 0.58901 0.06097 0.0
C963 C 0.50521 0.56599 0.05721 0.0
C964 C 0.52223 0.56199 0.04218 0.0
C965 C 0.63246 0.53968 0.04313 0.0
C966 C 0.61865 0.51556 0.04737 0.0
C967 C 0.62282 0.554 0.03064 0.0
C968 C 0.59917 0.54446 0.02255 0.0
C969 C 0.58547 0.52037 0.02636 0.0
C970 C 0.59518 0.50598 0.03844 0.0
C971 C 0.58827 0.55962 0.01088 0.0
C972 C 0.57046 0.5633 0.02485 0.0
C973 C 0.59518 0.57025 0.98629 0.0
C974 C 0.61398 0.56694 0.97079 0.0
C975 C 0.61202 0.54416 0.96364 0.0
C976 C 0.62989 0.54122 0.94911 0.0
C977 C 0.64972 0.56093 0.94145 0.0
C978 C 0.65169 0.58364 0.94823 0.0
C979 C 0.63388 0.58668 0.96279 0.0
H980 H 0.66353 0.55862 0.93019 0.0
H981 H 0.49339 0.59206 0.0726 0.0
H982 H 0.91456 0.48773 0.4554 0.0
H983 H 0.94751 0.51759 0.47857 0.0
H984 H 0.95751 0.56634 0.41507 0.0
H985 H 0.92436 0.53692 0.39211 0.0
H986 H 0.99278 0.54018 0.46932 0.0
H987 H 0.97456 0.62226 0.43772 0.0
H988 H 0.94053 0.63158 0.4249 0.0
H989 H 0.89386 0.57193 0.46837 0.0
H990 H 0.92765 0.56253 0.48186 0.0
H991 H 0.09353 0.63996 0.49613 0.0
H992 H 0.05865 0.61401 0.47249 0.0
H993 H 0.01366 0.62493 0.53096 0.0
H994 H 0.0486 0.65139 0.55457 0.0
H995 H 0.9938 0.6205 0.48328 0.0
H996 H 0.02792 0.57779 0.53518 0.0
H997 H 0.06008 0.56714 0.55164 0.0
H998 H 0.07077 0.54518 0.47519 0.0
H999 H 0.0389 0.55607 0.45817 0.0
C1000 C 0.92387 0.50474 0.44628 0.0
C1001 C 0.91667 0.50995 0.42196 0.0
C1002 C 0.9427 0.52181 0.45957 0.0
C1003 C 0.95471 0.54437 0.44878 0.0
C1004 C 0.94816 0.54926 0.42407 0.0
C1005 C 0.92925 0.53233 0.41089 0.0
C1006 C 0.97399 0.56286 0.46339 0.0
C1007 C 0.99297 0.55772 0.47235 0.0
C1008 C 0.974 0.58562 0.46793 0.0
C1009 C 0.95364 0.59158 0.46059 0.0
C1010 C 0.95707 0.61123 0.44469 0.0
C1011 C 0.93781 0.61652 0.43729 0.0
C1012 C 0.91504 0.60231 0.44575 0.0
C1013 C 0.9115 0.58288 0.46177 0.0
C1014 C 0.9307 0.57757 0.4693 0.0
C1015 C 0.07622 0.63726 0.50372 0.0
C1016 C 0.07384 0.64748 0.52743 0.0
C1017 C 0.05629 0.62235 0.49021 0.0
C1018 C 0.03358 0.61705 0.50032 0.0
C1019 C 0.03104 0.62865 0.52291 0.0
C1020 C 0.05103 0.64381 0.53636 0.0
C1021 C 0.01283 0.59796 0.48848 0.0
C1022 C 0.99357 0.60296 0.48017 0.0
C1023 C 0.01221 0.57484 0.48515 0.0
C1024 C 0.03116 0.56793 0.49536 0.0
C1025 C 0.03722 0.57083 0.52184 0.0
C1026 C 0.0554 0.56474 0.53127 0.0
C1027 C 0.0675 0.55553 0.51446 0.0
C1028 C 0.0614 0.55233 0.48818 0.0
C1029 C 0.04327 0.55845 0.47864 0.0
H1030 H 0.08157 0.55084 0.52179 0.0
H1031 H 0.90016 0.60639 0.43993 0.0
H1032 H 0.54944 0.2019 0.12432 0.0
H1033 H 0.54832 0.2407 0.11756 0.0
H1034 H 0.52439 0.22122 0.03906 0.0
H1035 H 0.52338 0.18136 0.04665 0.0
H1036 H 0.57695 0.26288 0.06011 0.0
H1037 H 0.49317 0.23629 0.04931 0.0
H1038 H 0.45073 0.21649 0.05932 0.0
H1039 H 0.46086 0.25665 0.12977 0.0
H1040 H 0.50352 0.27631 0.12046 0.0
H1041 H 0.56228 0.38337 0.05077 0.0
H1042 H 0.54484 0.34012 0.04687 0.0
H1043 H 0.59583 0.33535 0.10164 0.0
H1044 H 0.61332 0.37829 0.1055 0.0
H1045 H 0.52459 0.30451 0.08168 0.0
H1046 H 0.61416 0.29351 0.08347 0.0
H1047 H 0.65539 0.31511 0.06923 0.0
H1048 H 0.63212 0.35071 0.01059 0.0
H1049 H 0.59073 0.32917 0.0243 0.0
C1050 C 0.54226 0.20526 0.1063 0.0
C1051 C 0.53536 0.18826 0.08647 0.0
C1052 C 0.54191 0.22754 0.10233 0.0
C1053 C 0.53568 0.2336 0.07804 0.0
C1054 C 0.52844 0.21659 0.05821 0.0
C1055 C 0.52805 0.19395 0.0625 0.0
C1056 C 0.54207 0.25884 0.07221 0.0
C1057 C 0.56545 0.27201 0.06455 0.0
C1058 C 0.52688 0.27053 0.07765 0.0
C1059 C 0.50164 0.25746 0.08439 0.0
C1060 C 0.48648 0.2405 0.06723 0.0
C1061 C 0.46233 0.22947 0.07266 0.0
C1062 C 0.4531 0.23527 0.09519 0.0
C1063 C 0.46802 0.25216 0.11233 0.0
C1064 C 0.4922 0.2632 0.10701 0.0
C1065 C 0.56963 0.37305 0.06209 0.0
C1066 C 0.58928 0.3842 0.07828 0.0
C1067 C 0.55967 0.34839 0.05984 0.0
C1068 C 0.56932 0.3346 0.07361 0.0
C1069 C 0.58841 0.3457 0.09044 0.0
C1070 C 0.59833 0.37024 0.0927 0.0
C1071 C 0.55972 0.30859 0.07048 0.0
C1072 C 0.53595 0.29536 0.07674 0.0
C1073 C 0.57446 0.29674 0.06341 0.0
C1074 C 0.59933 0.30975 0.05498 0.0
C1075 C 0.61782 0.30584 0.06744 0.0
C1076 C 0.64122 0.31808 0.05947 0.0
C1077 C 0.64635 0.33417 0.03894 0.0
C1078 C 0.62811 0.33818 0.02644 0.0
C1079 C 0.60468 0.32601 0.03436 0.0
H1080 H 0.66448 0.34365 0.03282 0.0
H1081 H 0.4344 0.22669 0.09937 0.0
H1082 H 0.29147 0.52231 0.61854 0.0
H1083 H 0.25791 0.53367 0.61705 0.0
H1084 H 0.24878 0.51596 0.53556 0.0
H1085 H 0.28273 0.5045 0.53715 0.0
H1086 H 0.2564 0.55974 0.54148 0.0
H1087 H 0.19981 0.49024 0.58075 0.0
H1088 H 0.18101 0.45741 0.61148 0.0
H1089 H 0.19503 0.5068 0.67447 0.0
H1090 H 0.21343 0.53998 0.64401 0.0
H1091 H 0.16386 0.60135 0.53071 0.0
H1092 H 0.18528 0.57534 0.53312 0.0
H1093 H 0.21216 0.60359 0.60856 0.0
H1094 H 0.19088 0.63006 0.60617 0.0
H1095 H 0.19241 0.55197 0.60405 0.0
H1096 H 0.24843 0.62148 0.56192 0.0
H1097 H 0.26133 0.65292 0.52876 0.0
H1098 H 0.24571 0.60068 0.46852 0.0
H1099 H 0.23238 0.56889 0.50133 0.0
C1100 C 0.28146 0.51944 0.60068 0.0
C1101 C 0.28944 0.51212 0.57805 0.0
C1102 C 0.26223 0.52609 0.5998 0.0
C1103 C 0.25073 0.52576 0.57617 0.0
C1104 C 0.25738 0.51641 0.55402 0.0
C1105 C 0.27669 0.50977 0.55493 0.0
C1106 C 0.23565 0.53954 0.57362 0.0
C1107 C 0.24201 0.55755 0.55481 0.0
C1108 C 0.21739 0.5374 0.59147 0.0
C1109 C 0.20813 0.51755 0.61014 0.0
C1110 C 0.19911 0.49408 0.6012 0.0
C1111 C 0.18832 0.47543 0.61852 0.0
C1112 C 0.1868 0.48002 0.6449 0.0
C1113 C 0.19614 0.50328 0.65402 0.0
C1114 C 0.20662 0.52201 0.63672 0.0
C1115 C 0.17438 0.60211 0.5478 0.0
C1116 C 0.1758 0.6178 0.56822 0.0
C1117 C 0.1866 0.58725 0.54912 0.0
C1118 C 0.2003 0.58762 0.57097 0.0
C1119 C 0.20163 0.60309 0.59154 0.0
C1120 C 0.18963 0.61827 0.59008 0.0
C1121 C 0.21329 0.57187 0.57207 0.0
C1122 C 0.20664 0.55378 0.59064 0.0
C1123 C 0.23109 0.57371 0.55381 0.0
C1124 C 0.23917 0.5928 0.53407 0.0
C1125 C 0.24754 0.61668 0.54159 0.0
C1126 C 0.25497 0.63457 0.52286 0.0
C1127 C 0.25428 0.6288 0.49654 0.0
C1128 C 0.2462 0.60512 0.48891 0.0
C1129 C 0.23872 0.58717 0.50756 0.0
H1130 H 0.26004 0.64267 0.48207 0.0
H1131 H 0.17849 0.46554 0.65827 0.0
H1132 H 0.7998 0.31012 0.04328 0.0
H1133 H 0.76073 0.28001 0.05028 0.0
H1134 H 0.78843 0.22582 0.0428 0.0
H1135 H 0.82748 0.25655 0.03238 0.0
H1136 H 0.74416 0.21202 0.02248 0.0
H1137 H 0.78013 0.248 0.10436 0.0
H1138 H 0.80012 0.28239 0.13301 0.0
H1139 H 0.74169 0.30335 0.12554 0.0
H1140 H 0.72146 0.26953 0.09659 0.0
H1141 H 0.63042 0.13609 0.07508 0.0
H1142 H 0.67306 0.15564 0.06644 0.0
H1143 H 0.66955 0.22353 0.08006 0.0
H1144 H 0.62773 0.20406 0.09016 0.0
H1145 H 0.70541 0.22401 0.1026 0.0
H1146 H 0.67364 0.19844 0.01656 0.0
H1147 H 0.65212 0.16917 0.98314 0.0
H1148 H 0.69954 0.13392 0.99344 0.0
H1149 H 0.72118 0.16286 0.02715 0.0
C1150 C 0.7978 0.29186 0.04322 0.0
C1151 C 0.81741 0.28577 0.03986 0.0
C1152 C 0.77532 0.27459 0.0473 0.0
C1153 C 0.77186 0.25071 0.04881 0.0
C1154 C 0.79088 0.24425 0.04297 0.0
C1155 C 0.81344 0.26176 0.038 0.0
C1156 C 0.7484 0.23303 0.05702 0.0
C1157 C 0.7358 0.21432 0.04025 0.0
C1158 C 0.7373 0.23632 0.07998 0.0
C1159 C 0.74925 0.25615 0.09829 0.0
C1160 C 0.77154 0.25992 0.10883 0.0
C1161 C 0.78293 0.27933 0.12507 0.0
C1162 C 0.7722 0.29495 0.13108 0.0
C1163 C 0.74998 0.2912 0.12093 0.0
C1164 C 0.73852 0.27191 0.10464 0.0
C1165 C 0.6389 0.15518 0.07623 0.0
C1166 C 0.62586 0.16857 0.08345 0.0
C1167 C 0.66322 0.16637 0.07114 0.0
C1168 C 0.67467 0.19117 0.0724 0.0
C1169 C 0.66136 0.20441 0.0792 0.0
C1170 C 0.63737 0.19325 0.08493 0.0
C1171 C 0.7005 0.2038 0.06731 0.0
C1172 C 0.71377 0.22139 0.08497 0.0
C1173 C 0.71183 0.2 0.04477 0.0
C1174 C 0.69881 0.1826 0.02459 0.0
C1175 C 0.67935 0.18433 0.01184 0.0
C1176 C 0.66715 0.16783 0.99282 0.0
C1177 C 0.6744 0.14964 0.98624 0.0
C1178 C 0.6939 0.14797 0.99861 0.0
C1179 C 0.70614 0.16442 0.01766 0.0
H1180 H 0.66494 0.13689 0.97151 0.0
H1181 H 0.78111 0.30996 0.1436 0.0
H1182 H 0.40707 0.79124 0.59245 0.0
H1183 H 0.39537 0.74881 0.59404 0.0
H1184 H 0.46379 0.75693 0.5639 0.0
H1185 H 0.47338 0.79921 0.55761 0.0
H1186 H 0.43634 0.72185 0.54399 0.0
H1187 H 0.43661 0.73911 0.64074 0.0
H1188 H 0.42217 0.75282 0.68001 0.0
H1189 H 0.35053 0.71518 0.65594 0.0
H1190 H 0.3642 0.7004 0.61734 0.0
H1191 H 0.41598 0.60139 0.57228 0.0
H1192 H 0.43149 0.64472 0.57089 0.0
H1193 H 0.36287 0.64238 0.59321 0.0
H1194 H 0.34788 0.59946 0.59603 0.0
H1195 H 0.39298 0.67415 0.61912 0.0
H1196 H 0.38693 0.65455 0.52861 0.0
H1197 H 0.3943 0.63639 0.48863 0.0
H1198 H 0.4689 0.67685 0.49622 0.0
H1199 H 0.46199 0.69504 0.53645 0.0
C1200 C 0.41965 0.7839 0.58636 0.0
C1201 C 0.44163 0.79855 0.57607 0.0
C1202 C 0.41316 0.75954 0.58786 0.0
C1203 C 0.4291 0.74931 0.58067 0.0
C1204 C 0.45116 0.76414 0.57014 0.0
C1205 C 0.45697 0.78843 0.56701 0.0
C1206 C 0.42214 0.72313 0.5821 0.0
C1207 C 0.42737 0.71161 0.56078 0.0
C1208 C 0.40924 0.70915 0.60326 0.0
C1209 C 0.40145 0.71892 0.62606 0.0
C1210 C 0.41781 0.73393 0.64378 0.0
C1211 C 0.40979 0.74183 0.66589 0.0
C1212 C 0.38561 0.73523 0.67017 0.0
C1213 C 0.36927 0.7204 0.65256 0.0
C1214 C 0.37711 0.71208 0.63072 0.0
C1215 C 0.40431 0.61024 0.57692 0.0
C1216 C 0.3808 0.59716 0.58442 0.0
C1217 C 0.41311 0.63496 0.57593 0.0
C1218 C 0.39831 0.6469 0.58168 0.0
C1219 C 0.37473 0.63368 0.58885 0.0
C1220 C 0.36615 0.60912 0.59045 0.0
C1221 C 0.40726 0.67316 0.58118 0.0
C1222 C 0.40244 0.68459 0.60262 0.0
C1223 C 0.41977 0.68688 0.55984 0.0
C1224 C 0.42397 0.67594 0.53569 0.0
C1225 C 0.40492 0.65943 0.52186 0.0
C1226 C 0.40901 0.64916 0.49914 0.0
C1227 C 0.43206 0.6554 0.48994 0.0
C1228 C 0.45106 0.67199 0.5034 0.0
C1229 C 0.44707 0.6823 0.52615 0.0
H1230 H 0.43519 0.64744 0.47234 0.0
H1231 H 0.37954 0.74147 0.68725 0.0
H1232 H 0.68772 0.46569 0.0233 0.0
H1233 H 0.72005 0.45186 0.01984 0.0
H1234 H 0.71901 0.44312 0.10306 0.0
H1235 H 0.68533 0.45421 0.10606 0.0
H1236 H 0.76285 0.4601 0.03542 0.0
H1237 H 0.72161 0.39126 0.11911 0.0
H1238 H 0.68238 0.36921 0.13845 0.0
H1239 H 0.6489 0.37821 0.06852 0.0
H1240 H 0.68789 0.39947 0.04835 0.0
H1241 H 0.84489 0.41048 0.06737 0.0
H1242 H 0.81727 0.43028 0.06697 0.0
H1243 H 0.75981 0.36343 0.05068 0.0
H1244 H 0.78708 0.34351 0.05365 0.0
H1245 H 0.74355 0.38326 0.08007 0.0
H1246 H 0.78791 0.41096 0.00324 0.0
H1247 H 0.82311 0.42863 0.97533 0.0
H1248 H 0.84327 0.49427 0.0167 0.0
H1249 H 0.80834 0.4769 0.0451 0.0
C1250 C 0.6949 0.46138 0.04083 0.0
C1251 C 0.68456 0.46176 0.06505 0.0
C1252 C 0.71336 0.45355 0.03888 0.0
C1253 C 0.72163 0.44604 0.06116 0.0
C1254 C 0.71266 0.44845 0.08555 0.0
C1255 C 0.69377 0.45542 0.08736 0.0
C1256 C 0.73741 0.43307 0.0589 0.0
C1257 C 0.75871 0.4433 0.04515 0.0
C1258 C 0.7314 0.41056 0.07053 0.0
C1259 C 0.70777 0.39725 0.08232 0.0
C1260 C 0.7059 0.38838 0.10776 0.0
C1261 C 0.68368 0.37596 0.11885 0.0
C1262 C 0.66317 0.37232 0.10472 0.0
C1263 C 0.66481 0.38103 0.07944 0.0
C1264 C 0.68698 0.3932 0.06814 0.0
C1265 C 0.82629 0.40012 0.06393 0.0
C1266 C 0.81799 0.37556 0.06061 0.0
C1267 C 0.81054 0.41144 0.06335 0.0
C1268 C 0.78641 0.39853 0.05816 0.0
C1269 C 0.77825 0.3739 0.05481 0.0
C1270 C 0.79383 0.36248 0.05646 0.0
C1271 C 0.76951 0.41046 0.05704 0.0
C1272 C 0.74784 0.4 0.07017 0.0
C1273 C 0.77457 0.43199 0.04346 0.0
C1274 C 0.79562 0.44255 0.02645 0.0
C1275 C 0.79994 0.42912 0.0065 0.0
C1276 C 0.81983 0.43908 0.99058 0.0
C1277 C 0.83544 0.46254 0.99428 0.0
C1278 C 0.83117 0.47609 0.01388 0.0
C1279 C 0.81131 0.46621 0.02988 0.0
H1280 H 0.85083 0.47022 0.98194 0.0
H1281 H 0.646 0.36269 0.11334 0.0
H1282 H 0.18183 0.71946 0.60065 0.0
H1283 H 0.21789 0.7552 0.60133 0.0
H1284 H 0.21238 0.76271 0.51857 0.0
H1285 H 0.17588 0.72686 0.51805 0.0
H1286 H 0.25194 0.75974 0.52882 0.0
H1287 H 0.22081 0.81499 0.56022 0.0
H1288 H 0.20021 0.83476 0.58632 0.0
H1289 H 0.22966 0.81947 0.65611 0.0
H1290 H 0.25107 0.80033 0.6303 0.0
H1291 H 0.36882 0.85129 0.53549 0.0
H1292 H 0.32569 0.83378 0.52968 0.0
H1293 H 0.31747 0.80327 0.60629 0.0
H1294 H 0.36037 0.82025 0.61201 0.0
H1295 H 0.28426 0.82411 0.59362 0.0
H1296 H 0.31678 0.76983 0.55809 0.0
H1297 H 0.3428 0.75914 0.52883 0.0
H1298 H 0.31045 0.77669 0.46263 0.0
H1299 H 0.28447 0.78783 0.49157 0.0
C1300 C 0.18753 0.72947 0.58286 0.0
C1301 C 0.17576 0.72067 0.55938 0.0
C1302 C 0.20831 0.74996 0.58322 0.0
C1303 C 0.21798 0.76185 0.56 0.0
C1304 C 0.2053 0.75394 0.53676 0.0
C1305 C 0.18443 0.73348 0.53645 0.0
C1306 C 0.24315 0.77896 0.5594 0.0
C1307 C 0.2588 0.77423 0.54254 0.0
C1308 C 0.2525 0.79764 0.57754 0.0
C1309 C 0.23728 0.80602 0.59339 0.0
C1310 C 0.22258 0.81554 0.58117 0.0
C1311 C 0.21106 0.82694 0.59586 0.0
C1312 C 0.21368 0.82844 0.62284 0.0
C1313 C 0.22772 0.81839 0.63521 0.0
C1314 C 0.23966 0.80739 0.62055 0.0
C1315 C 0.35775 0.84113 0.5512 0.0
C1316 C 0.3679 0.83699 0.57413 0.0
C1317 C 0.33318 0.83109 0.54782 0.0
C1318 C 0.31845 0.81711 0.5675 0.0
C1319 C 0.32853 0.81398 0.59088 0.0
C1320 C 0.35303 0.82362 0.59407 0.0
C1321 C 0.29265 0.80453 0.56341 0.0
C1322 C 0.2771 0.80993 0.57955 0.0
C1323 C 0.28337 0.78674 0.54434 0.0
C1324 C 0.29891 0.77995 0.52699 0.0
C1325 C 0.31537 0.77162 0.53731 0.0
C1326 C 0.33008 0.76544 0.52078 0.0
C1327 C 0.32834 0.76731 0.49389 0.0
C1328 C 0.31182 0.7753 0.48347 0.0
C1329 C 0.2971 0.78155 0.49992 0.0
H1330 H 0.33973 0.7625 0.48112 0.0
H1331 H 0.20469 0.83722 0.63417 0.0
H1332 H 0.79554 0.45233 0.3815 0.0
H1333 H 0.75722 0.45401 0.38981 0.0
H1334 H 0.77957 0.47924 0.46734 0.0
H1335 H 0.81905 0.47998 0.45799 0.0
H1336 H 0.73581 0.42571 0.44443 0.0
H1337 H 0.76459 0.50961 0.46164 0.0
H1338 H 0.78575 0.55219 0.45318 0.0
H1339 H 0.74514 0.54585 0.38374 0.0
H1340 H 0.72433 0.50301 0.39131 0.0
H1341 H 0.61667 0.44281 0.45938 0.0
H1342 H 0.65985 0.45871 0.4643 0.0
H1343 H 0.66424 0.41227 0.40354 0.0
H1344 H 0.62145 0.39623 0.39871 0.0
H1345 H 0.69618 0.48113 0.43028 0.0
H1346 H 0.70635 0.39146 0.41876 0.0
H1347 H 0.68404 0.34924 0.42815 0.0
H1348 H 0.64558 0.36718 0.48831 0.0
H1349 H 0.66812 0.4096 0.47975 0.0
C1350 C 0.79293 0.45999 0.39956 0.0
C1351 C 0.81067 0.46728 0.41855 0.0
C1352 C 0.7709 0.46063 0.40445 0.0
C1353 C 0.76579 0.46748 0.42891 0.0
C1354 C 0.78348 0.4749 0.44798 0.0
C1355 C 0.8059 0.47508 0.44272 0.0
C1356 C 0.74078 0.46155 0.43568 0.0
C1357 C 0.7271 0.43785 0.44165 0.0
C1358 C 0.72968 0.47757 0.43235 0.0
C1359 C 0.74327 0.50297 0.42677 0.0
C1360 C 0.76062 0.51713 0.4442 0.0
C1361 C 0.77241 0.54138 0.43968 0.0
C1362 C 0.76684 0.55172 0.41789 0.0
C1363 C 0.74946 0.53782 0.40059 0.0
C1364 C 0.73775 0.51353 0.40492 0.0
C1365 C 0.62689 0.4361 0.44702 0.0
C1366 C 0.61566 0.41816 0.42879 0.0
C1367 C 0.65151 0.44518 0.44985 0.0
C1368 C 0.66516 0.43633 0.43463 0.0
C1369 C 0.654 0.41899 0.41588 0.0
C1370 C 0.62952 0.40992 0.41306 0.0
C1371 C 0.69111 0.44503 0.43802 0.0
C1372 C 0.70489 0.46908 0.43369 0.0
C1373 C 0.70239 0.42931 0.44287 0.0
C1374 C 0.68884 0.40379 0.44845 0.0
C1375 C 0.69324 0.38644 0.43411 0.0
C1376 C 0.68053 0.36244 0.43928 0.0
C1377 C 0.66331 0.3555 0.45873 0.0
C1378 C 0.65887 0.37258 0.47317 0.0
C1379 C 0.67162 0.39662 0.46817 0.0
H1380 H 0.65345 0.3369 0.46264 0.0
H1381 H 0.77597 0.5705 0.41445 0.0
H1382 H 0.32082 0.79983 0.94733 0.0
H1383 H 0.29019 0.76059 0.94355 0.0
H1384 H 0.23685 0.78925 0.95224 0.0
H1385 H 0.26828 0.82863 0.95945 0.0
H1386 H 0.22395 0.7451 0.97472 0.0
H1387 H 0.25536 0.7792 0.89058 0.0
H1388 H 0.28847 0.79893 0.86028 0.0
H1389 H 0.3104 0.74105 0.86689 0.0
H1390 H 0.27784 0.72107 0.8975 0.0
H1391 H 0.14515 0.63055 0.9272 0.0
H1392 H 0.16534 0.67334 0.93443 0.0
H1393 H 0.2322 0.66905 0.91655 0.0
H1394 H 0.21201 0.62702 0.90783 0.0
H1395 H 0.23182 0.7046 0.89408 0.0
H1396 H 0.21046 0.67458 0.98157 0.0
H1397 H 0.18293 0.65386 0.01681 0.0
H1398 H 0.14751 0.70137 0.00869 0.0
H1399 H 0.17469 0.7222 0.97318 0.0
C1400 C 0.30263 0.798 0.9484 0.0
C1401 C 0.29686 0.8179 0.95094 0.0
C1402 C 0.28507 0.77542 0.94622 0.0
C1403 C 0.26121 0.77213 0.94589 0.0
C1404 C 0.25521 0.79153 0.95117 0.0
C1405 C 0.27305 0.81422 0.95421 0.0
C1406 C 0.24311 0.74854 0.93893 0.0
C1407 C 0.22531 0.73633 0.95687 0.0
C1408 C 0.24521 0.73697 0.91583 0.0
C1409 C 0.26408 0.74859 0.89633 0.0
C1410 C 0.26721 0.77064 0.88554 0.0
C1411 C 0.2859 0.7819 0.86837 0.0
C1412 C 0.30144 0.77126 0.86167 0.0
C1413 C 0.29831 0.74926 0.87204 0.0
C1414 C 0.27972 0.73793 0.88926 0.0
C1415 C 0.16415 0.63888 0.92479 0.0
C1416 C 0.17702 0.62555 0.9168 0.0
C1417 C 0.17571 0.6633 0.92909 0.0
C1418 C 0.2004 0.67457 0.92626 0.0
C1419 C 0.21315 0.66099 0.91864 0.0
C1420 C 0.20159 0.63688 0.9137 0.0
C1421 C 0.21339 0.70047 0.93055 0.0
C1422 C 0.23007 0.71333 0.91181 0.0
C1423 C 0.21075 0.71228 0.95327 0.0
C1424 C 0.19438 0.69973 0.97451 0.0
C1425 C 0.19667 0.68048 0.98717 0.0
C1426 C 0.18116 0.66874 0.00721 0.0
C1427 C 0.16342 0.67624 0.01492 0.0
C1428 C 0.16121 0.69554 0.00265 0.0
C1429 C 0.17667 0.70732 0.98258 0.0
H1430 H 0.15143 0.66714 0.03044 0.0
H1431 H 0.31592 0.78008 0.84844 0.0
H1432 H 0.63864 0.20944 0.40194 0.0
H1433 H 0.61691 0.23531 0.39944 0.0
H1434 H 0.5753 0.20028 0.46608 0.0
H1435 H 0.59628 0.1739 0.46807 0.0
H1436 H 0.54791 0.20813 0.43133 0.0
H1437 H 0.62455 0.25554 0.47001 0.0
H1438 H 0.6682 0.27332 0.47002 0.0
H1439 H 0.668 0.31006 0.39919 0.0
H1440 H 0.62441 0.29245 0.39871 0.0
H1441 H 0.5272 0.31648 0.4715 0.0
H1442 H 0.53823 0.28223 0.47237 0.0
H1443 H 0.5537 0.29059 0.39046 0.0
H1444 H 0.54478 0.32587 0.39006 0.0
H1445 H 0.59212 0.29511 0.43362 0.0
H1446 H 0.51855 0.21696 0.39174 0.0
H1447 H 0.47503 0.19761 0.38949 0.0
H1448 H 0.46965 0.22274 0.46607 0.0
H1449 H 0.5131 0.24149 0.46906 0.0
C1450 C 0.62481 0.20724 0.41598 0.0
C1451 C 0.61925 0.18976 0.43529 0.0
C1452 C 0.61246 0.22207 0.4146 0.0
C1453 C 0.59472 0.21999 0.43286 0.0
C1454 C 0.58891 0.20223 0.45181 0.0
C1455 C 0.60099 0.18722 0.45297 0.0
C1456 C 0.58247 0.23652 0.4327 0.0
C1457 C 0.55762 0.22714 0.43206 0.0
C1458 C 0.59506 0.26136 0.43335 0.0
C1459 C 0.62125 0.27251 0.4342 0.0
C1460 C 0.63384 0.26739 0.45443 0.0
C1461 C 0.65856 0.27745 0.45453 0.0
C1462 C 0.67084 0.29272 0.43456 0.0
C1463 C 0.65846 0.29818 0.41462 0.0
C1464 C 0.63376 0.28823 0.41446 0.0
C1465 C 0.53206 0.31039 0.45353 0.0
C1466 C 0.53419 0.32322 0.43047 0.0
C1467 C 0.53817 0.29074 0.45399 0.0
C1468 C 0.54602 0.28345 0.43128 0.0
C1469 C 0.547 0.29554 0.40799 0.0
C1470 C 0.54154 0.3155 0.40769 0.0
C1471 C 0.55772 0.26665 0.43269 0.0
C1472 C 0.5825 0.27606 0.43322 0.0
C1473 C 0.5451 0.24194 0.43204 0.0
C1474 C 0.51902 0.23111 0.43035 0.0
C1475 C 0.50805 0.21837 0.40806 0.0
C1476 C 0.48341 0.20735 0.40673 0.0
C1477 C 0.46958 0.20904 0.42758 0.0
C1478 C 0.48037 0.22159 0.44987 0.0
C1479 C 0.50501 0.23245 0.45136 0.0
H1480 H 0.4505 0.20061 0.42647 0.0
H1481 H 0.68996 0.3003 0.43447 0.0
H1482 H 0.20709 0.54716 0.87495 0.0
H1483 H 0.24588 0.54543 0.87884 0.0
H1484 H 0.23116 0.52419 0.95884 0.0
H1485 H 0.19117 0.52369 0.95419 0.0
H1486 H 0.27219 0.57552 0.934 0.0
H1487 H 0.24412 0.49203 0.94772 0.0
H1488 H 0.22322 0.44932 0.93993 0.0
H1489 H 0.26007 0.45591 0.8676 0.0
H1490 H 0.28068 0.49885 0.8746 0.0
H1491 H 0.3907 0.5576 0.94006 0.0
H1492 H 0.34753 0.54096 0.94459 0.0
H1493 H 0.34314 0.59138 0.88877 0.0
H1494 H 0.38604 0.60806 0.88421 0.0
H1495 H 0.31079 0.52078 0.91111 0.0
H1496 H 0.30257 0.61178 0.90863 0.0
H1497 H 0.32527 0.65308 0.92196 0.0
H1498 H 0.36194 0.62962 0.97922 0.0
H1499 H 0.3393 0.58817 0.96644 0.0
C1500 C 0.21141 0.5404 0.89275 0.0
C1501 C 0.19567 0.53435 0.91383 0.0
C1502 C 0.23371 0.53971 0.89507 0.0
C1503 C 0.24113 0.53401 0.91889 0.0
C1504 C 0.22543 0.52775 0.94002 0.0
C1505 C 0.20272 0.52767 0.93741 0.0
C1506 C 0.26662 0.54001 0.92276 0.0
C1507 C 0.28066 0.56352 0.92918 0.0
C1508 C 0.27748 0.52417 0.91689 0.0
C1509 C 0.2636 0.49879 0.91146 0.0
C1510 C 0.24731 0.48453 0.92982 0.0
C1511 C 0.23568 0.46021 0.92567 0.0
C1512 C 0.24028 0.4499 0.90326 0.0
C1513 C 0.25651 0.46391 0.88495 0.0
C1514 C 0.26809 0.48826 0.88895 0.0
C1515 C 0.38048 0.56494 0.92856 0.0
C1516 C 0.39175 0.58428 0.91197 0.0
C1517 C 0.35586 0.55544 0.93118 0.0
C1518 C 0.34221 0.56524 0.91739 0.0
C1519 C 0.35338 0.58385 0.89998 0.0
C1520 C 0.37791 0.59331 0.89732 0.0
C1521 C 0.31633 0.55649 0.92144 0.0
C1522 C 0.3023 0.53267 0.91625 0.0
C1523 C 0.30538 0.57194 0.92886 0.0
C1524 C 0.31929 0.59686 0.93648 0.0
C1525 C 0.31541 0.61543 0.92414 0.0
C1526 C 0.32825 0.63886 0.93162 0.0
C1527 C 0.34493 0.64395 0.95152 0.0
C1528 C 0.34896 0.62564 0.96385 0.0
C1529 C 0.33618 0.60217 0.95644 0.0
H1530 H 0.35485 0.6621 0.95728 0.0
H1531 H 0.23127 0.43107 0.9001 0.0
H1532 H 0.71973 0.19053 0.41221 0.0
H1533 H 0.75438 0.2275 0.41298 0.0
H1534 H 0.75234 0.2273 0.49664 0.0
H1535 H 0.71847 0.18901 0.4959 0.0
H1536 H 0.74617 0.26582 0.47306 0.0
H1537 H 0.80356 0.23269 0.47417 0.0
H1538 H 0.8259 0.20825 0.46327 0.0
H1539 H 0.83423 0.23379 0.38478 0.0
H1540 H 0.81215 0.25861 0.39531 0.0
H1541 H 0.86154 0.37696 0.44294 0.0
H1542 H 0.84246 0.33536 0.45622 0.0
H1543 H 0.7792 0.32928 0.41527 0.0
H1544 H 0.79803 0.37056 0.40195 0.0
H1545 H 0.82378 0.29423 0.42817 0.0
H1546 H 0.73121 0.29542 0.45197 0.0
H1547 H 0.71506 0.32349 0.4693 0.0
H1548 H 0.78112 0.36293 0.50681 0.0
H1549 H 0.79754 0.3349 0.49031 0.0
C1550 C 0.7277 0.19731 0.43077 0.0
C1551 C 0.71692 0.18626 0.45398 0.0
C1552 C 0.74735 0.21876 0.43121 0.0
C1553 C 0.75606 0.23014 0.45487 0.0
C1554 C 0.74607 0.21869 0.47817 0.0
C1555 C 0.72676 0.19683 0.47773 0.0
C1556 C 0.77215 0.25552 0.45466 0.0
C1557 C 0.76325 0.27204 0.46348 0.0
C1558 C 0.7946 0.26368 0.44262 0.0
C1559 C 0.80608 0.24737 0.43549 0.0
C1560 C 0.80992 0.23288 0.45451 0.0
C1561 C 0.82277 0.21917 0.44847 0.0
C1562 C 0.83157 0.21955 0.42337 0.0
C1563 C 0.82749 0.2336 0.40423 0.0
C1564 C 0.81489 0.24756 0.41025 0.0
C1565 C 0.84361 0.3667 0.43668 0.0
C1566 C 0.83128 0.37707 0.42146 0.0
C1567 C 0.83275 0.34295 0.44427 0.0
C1568 C 0.80931 0.32933 0.43703 0.0
C1569 C 0.79718 0.33956 0.42141 0.0
C1570 C 0.80803 0.36315 0.4137 0.0
C1571 C 0.79732 0.30437 0.44555 0.0
C1572 C 0.80685 0.288 0.43807 0.0
C1573 C 0.77565 0.29639 0.45933 0.0
C1574 C 0.7657 0.31315 0.46964 0.0
C1575 C 0.74227 0.31001 0.46402 0.0
C1576 C 0.73307 0.32592 0.47367 0.0
C1577 C 0.74709 0.34502 0.48899 0.0
C1578 C 0.77031 0.34819 0.49483 0.0
C1579 C 0.77958 0.3323 0.48533 0.0
H1580 H 0.73993 0.35732 0.49639 0.0
H1581 H 0.84142 0.20883 0.41872 0.0
H1582 H 0.47118 0.68458 0.96656 0.0
H1583 H 0.45727 0.71693 0.96834 0.0
H1584 H 0.45012 0.71442 0.88488 0.0
H1585 H 0.46101 0.68055 0.88358 0.0
H1586 H 0.46566 0.75921 0.95186 0.0
H1587 H 0.39907 0.71741 0.8665 0.0
H1588 H 0.37814 0.67806 0.84695 0.0
H1589 H 0.38541 0.64495 0.9179 0.0
H1590 H 0.40545 0.68403 0.93829 0.0
H1591 H 0.41827 0.84142 0.91539 0.0
H1592 H 0.4373 0.8132 0.91669 0.0
H1593 H 0.36973 0.75677 0.93288 0.0
H1594 H 0.35054 0.78466 0.92921 0.0
H1595 H 0.39004 0.73963 0.9046 0.0
H1596 H 0.4158 0.78483 0.98103 0.0
H1597 H 0.43279 0.82031 0.00862 0.0
H1598 H 0.49956 0.83975 0.96972 0.0
H1599 H 0.48289 0.80454 0.94165 0.0
C1600 C 0.46717 0.69143 0.94862 0.0
C1601 C 0.46795 0.68065 0.92482 0.0
C1602 C 0.4593 0.70991 0.94962 0.0
C1603 C 0.45221 0.71777 0.92677 0.0
C1604 C 0.45508 0.70837 0.90281 0.0
C1605 C 0.46197 0.68939 0.90197 0.0
C1606 C 0.43922 0.73357 0.928 0.0
C1607 C 0.44913 0.755 0.94155 0.0
C1608 C 0.41701 0.72747 0.91562 0.0
C1609 C 0.40405 0.70376 0.90383 0.0
C1610 C 0.39599 0.70175 0.87804 0.0
C1611 C 0.38422 0.67947 0.86683 0.0
C1612 C 0.38045 0.65902 0.88118 0.0
C1613 C 0.38831 0.6608 0.90682 0.0
C1614 C 0.39979 0.68303 0.91825 0.0
C1615 C 0.40755 0.82292 0.91895 0.0
C1616 C 0.38302 0.81512 0.92222 0.0
C1617 C 0.41844 0.80683 0.92003 0.0
C1618 C 0.40512 0.78286 0.92562 0.0
C1619 C 0.38049 0.77511 0.92855 0.0
C1620 C 0.3695 0.79104 0.92649 0.0
C1621 C 0.41675 0.76579 0.92789 0.0
C1622 C 0.40651 0.74396 0.91504 0.0
C1623 C 0.43787 0.77092 0.94226 0.0
C1624 C 0.44802 0.79215 0.95907 0.0
C1625 C 0.43406 0.79676 0.97823 0.0
C1626 C 0.44364 0.81681 0.99398 0.0
C1627 C 0.46722 0.8323 0.99088 0.0
C1628 C 0.48129 0.82775 0.97207 0.0
C1629 C 0.47179 0.80773 0.95626 0.0
H1630 H 0.47461 0.84781 0.00309 0.0
H1631 H 0.3714 0.6418 0.87244 0.0
loop_
_geom_bond_atom_site_label_1
_geom_bond_atom_site_label_2
_geom_bond_distance
_geom_bond_site_symmetry_2
_ccdc_geom_bond_type
Mn0 O5 2.095 . S
Mn0 O15 2.162 . S
Mn0 O16 2.297 . S
Mn0 O24 2.385 . S
Mn0 O25 2.209 . S
Mn0 O26 2.094 . S
Mn1 O6 2.121 . S
Mn1 N8 2.257 . S
Mn1 N17 2.282 . S
Mn1 O25 2.215 . S
Mn1 O27 2.117 . S
C2 O24 1.234 . S
C2 O25 1.283 . S
C3 O15 1.281 . S
C3 O16 1.236 . S
C4 O26 1.240 . S
C4 O27 1.264 . S
O5 Mn0 2.095 . S
O5 C14 1.250 . S
O6 Mn1 2.121 . S
O6 C14 1.258 . S
C7 N8 1.326 . S
C7 C11 1.460 . S
C7 H13 0.929 . S
N8 Mn1 2.257 . S
N8 C7 1.326 . S
N8 C12 1.362 . S
C9 C10 1.258 . S
C9 C12 1.431 . S
C9 C29 1.449 . S
C10 C9 1.258 . S
C10 C11 1.477 . S
C10 H30 0.931 . S
C11 C7 1.460 . S
C11 C10 1.477 . S
C11 H31 0.930 . S
C12 N8 1.362 . S
C12 C9 1.431 . S
C12 C22 1.476 . S
H13 C7 0.929 . S
C14 O5 1.250 . S
C14 O6 1.258 . S
O15 Mn0 2.162 . S
O15 C3 1.281 . S
O16 Mn0 2.297 . S
O16 C3 1.236 . S
N17 Mn1 2.282 . S
N17 C18 1.328 . S
N17 C22 1.318 . S
C18 N17 1.328 . S
C18 C19 1.457 . S
C18 H23 0.929 . S
C19 C18 1.457 . S
C19 C20 1.291 . S
C19 H32 0.931 1_554 S
C20 C19 1.291 . S
C20 C21 1.373 . S
C20 H33 0.929 . S
C21 C20 1.373 . S
C21 C22 1.396 . S
C21 C28 1.403 . S
C22 C12 1.476 . S
C22 N17 1.318 . S
C22 C21 1.396 . S
H23 C18 0.929 . S
O24 Mn0 2.385 . S
O24 C2 1.234 . S
O25 Mn0 2.209 . S
O25 Mn1 2.215 . S
O25 C2 1.283 . S
O26 Mn0 2.094 . S
O26 C4 1.240 . S
O27 Mn1 2.117 . S
O27 C4 1.264 . S
C28 C21 1.403 . S
C28 C29 1.399 . S
C28 H34 0.929 . S
C29 C9 1.449 . S
C29 C28 1.399 . S
C29 H35 0.930 . S
H30 C10 0.931 . S
H31 C11 0.930 . S
H32 C19 0.931 1_556 S
H33 C20 0.929 . S
H34 C28 0.929 . S
H35 C29 0.930 . S
Mn36 O41 2.095 . S
Mn36 O51 2.162 . S
Mn36 O52 2.297 . S
Mn36 O60 2.385 . S
Mn36 O61 2.209 . S
Mn36 O62 2.094 . S
Mn37 O42 2.121 . S
Mn37 N44 2.257 . S
Mn37 N53 2.282 . S
Mn37 O61 2.215 . S
Mn37 O63 2.117 . S
C38 O60 1.234 . S
C38 O61 1.283 . S
C39 O51 1.281 . S
C39 O52 1.236 . S
C40 O62 1.240 . S
C40 O63 1.264 . S
O41 Mn36 2.095 . S
O41 C50 1.250 . S
O42 Mn37 2.121 . S
O42 C50 1.258 . S
C43 N44 1.326 . S
C43 C47 1.460 . S
C43 H49 0.929 . S
N44 Mn37 2.257 . S
N44 C43 1.326 . S
N44 C48 1.362 . S
C45 C46 1.258 . S
C45 C48 1.431 . S
C45 C65 1.449 . S
C46 C45 1.258 . S
C46 C47 1.477 . S
C46 H66 0.931 . S
C47 C43 1.460 . S
C47 C46 1.477 . S
C47 H67 0.930 . S
C48 N44 1.362 . S
C48 C45 1.431 . S
C48 C58 1.476 . S
H49 C43 0.929 . S
C50 O41 1.250 . S
C50 O42 1.258 . S
O51 Mn36 2.162 . S
O51 C39 1.281 . S
O52 Mn36 2.297 . S
O52 C39 1.236 . S
N53 Mn37 2.282 . S
N53 C54 1.328 . S
N53 C58 1.318 . S
C54 N53 1.328 . S
C54 C55 1.457 . S
C54 H59 0.929 . S
C55 C54 1.457 . S
C55 C56 1.291 . S
C55 H68 0.931 . S
C56 C55 1.291 . S
C56 C57 1.373 . S
C56 H69 0.929 . S
C57 C56 1.373 . S
C57 C58 1.396 . S
C57 C64 1.403 . S
C58 C48 1.476 . S
C58 N53 1.318 . S
C58 C57 1.396 . S
H59 C54 0.929 . S
O60 Mn36 2.385 . S
O60 C38 1.234 . S
O61 Mn36 2.209 . S
O61 Mn37 2.215 . S
O61 C38 1.283 . S
O62 Mn36 2.094 . S
O62 C40 1.240 . S
O63 Mn37 2.117 . S
O63 C40 1.264 . S
C64 C57 1.403 . S
C64 C65 1.399 . S
C64 H70 0.929 . S
C65 C45 1.449 . S
C65 C64 1.399 . S
C65 H71 0.930 . S
H66 C46 0.931 . S
H67 C47 0.930 . S
H68 C55 0.931 . S
H69 C56 0.929 . S
H70 C64 0.929 . S
H71 C65 0.930 . S
Mn72 O77 2.095 . S
Mn72 O87 2.162 . S
Mn72 O88 2.297 . S
Mn72 O96 2.385 . S
Mn72 O97 2.209 . S
Mn72 O98 2.094 . S
Mn73 O78 2.121 . S
Mn73 N80 2.257 . S
Mn73 N89 2.282 . S
Mn73 O97 2.215 . S
Mn73 O99 2.117 . S
C74 O96 1.234 . S
C74 O97 1.283 . S
C75 O87 1.281 . S
C75 O88 1.236 . S
C76 O98 1.240 . S
C76 O99 1.264 . S
O77 Mn72 2.095 . S
O77 C86 1.250 . S
O78 Mn73 2.121 . S
O78 C86 1.258 . S
C79 N80 1.326 . S
C79 C83 1.460 . S
C79 H85 0.929 . S
N80 Mn73 2.257 . S
N80 C79 1.326 . S
N80 C84 1.362 . S
C81 C82 1.258 . S
C81 C84 1.431 . S
C81 C101 1.449 . S
C82 C81 1.258 . S
C82 C83 1.477 . S
C82 H102 0.931 . S
C83 C79 1.460 . S
C83 C82 1.477 . S
C83 H103 0.930 . S
C84 N80 1.362 . S
C84 C81 1.431 . S
C84 C94 1.476 . S
H85 C79 0.929 . S
C86 O77 1.250 . S
C86 O78 1.258 . S
O87 Mn72 2.162 . S
O87 C75 1.281 . S
O88 Mn72 2.297 . S
O88 C75 1.236 . S
N89 Mn73 2.282 . S
N89 C90 1.328 . S
N89 C94 1.318 . S
C90 N89 1.328 . S
C90 C91 1.457 1_554 S
C90 H95 0.929 . S
C91 C90 1.457 1_556 S
C91 C92 1.291 1_556 S
C91 H104 0.931 . S
C92 C91 1.291 1_554 S
C92 C93 1.373 . S
C92 H105 0.929 1_554 S
C93 C92 1.373 . S
C93 C94 1.396 . S
C93 C100 1.403 . S
C94 C84 1.476 . S
C94 N89 1.318 . S
C94 C93 1.396 . S
H95 C90 0.929 . S
O96 Mn72 2.385 . S
O96 C74 1.234 . S
O97 Mn72 2.209 . S
O97 Mn73 2.215 . S
O97 C74 1.283 . S
O98 Mn72 2.094 . S
O98 C76 1.240 . S
O99 Mn73 2.117 . S
O99 C76 1.264 . S
C100 C93 1.403 . S
C100 C101 1.399 . S
C100 H106 0.929 . S
C101 C81 1.449 . S
C101 C100 1.399 . S
C101 H107 0.930 . S
H102 C82 0.931 . S
H103 C83 0.930 . S
H104 C91 0.931 . S
H105 C92 0.929 1_556 S
H106 C100 0.929 . S
H107 C101 0.930 . S
Mn108 O113 2.095 . S
Mn108 O123 2.162 . S
Mn108 O124 2.297 . S
Mn108 O132 2.385 . S
Mn108 O133 2.209 . S
Mn108 O134 2.094 . S
Mn109 O114 2.121 . S
Mn109 N116 2.257 . S
Mn109 N125 2.282 . S
Mn109 O133 2.215 . S
Mn109 O135 2.117 . S
C110 O132 1.234 . S
C110 O133 1.283 . S
C111 O123 1.281 . S
C111 O124 1.236 . S
C112 O134 1.240 . S
C112 O135 1.264 . S
O113 Mn108 2.095 . S
O113 C122 1.250 . S
O114 Mn109 2.121 . S
O114 C122 1.258 . S
C115 N116 1.326 . S
C115 C119 1.460 . S
C115 H121 0.929 . S
N116 Mn109 2.257 . S
N116 C115 1.326 . S
N116 C120 1.362 . S
C117 C118 1.258 . S
C117 C120 1.431 . S
C117 C137 1.449 . S
C118 C117 1.258 . S
C118 C119 1.477 . S
C118 H138 0.931 . S
C119 C115 1.460 . S
C119 C118 1.477 . S
C119 H139 0.930 . S
C120 N116 1.362 . S
C120 C117 1.431 . S
C120 C130 1.476 . S
H121 C115 0.929 . S
C122 O113 1.250 . S
C122 O114 1.258 . S
O123 Mn108 2.162 . S
O123 C111 1.281 . S
O124 Mn108 2.297 . S
O124 C111 1.236 . S
N125 Mn109 2.282 . S
N125 C126 1.328 . S
N125 C130 1.318 . S
C126 N125 1.328 . S
C126 C127 1.457 . S
C126 H131 0.929 . S
C127 C126 1.457 . S
C127 C128 1.291 . S
C127 H140 0.931 . S
C128 C127 1.291 . S
C128 C129 1.373 . S
C128 H141 0.929 . S
C129 C128 1.373 . S
C129 C130 1.396 . S
C129 C136 1.403 . S
C130 C120 1.476 . S
C130 N125 1.318 . S
C130 C129 1.396 . S
H131 C126 0.929 . S
O132 Mn108 2.385 . S
O132 C110 1.234 . S
O133 Mn108 2.209 . S
O133 Mn109 2.215 . S
O133 C110 1.283 . S
O134 Mn108 2.094 . S
O134 C112 1.240 . S
O135 Mn109 2.117 . S
O135 C112 1.264 . S
C136 C129 1.403 . S
C136 C137 1.399 . S
C136 H142 0.929 . S
C137 C117 1.449 . S
C137 C136 1.399 . S
C137 H143 0.930 . S
H138 C118 0.931 . S
H139 C119 0.930 . S
H140 C127 0.931 . S
H141 C128 0.929 . S
H142 C136 0.929 . S
H143 C137 0.930 . S
Mn144 O149 2.095 . S
Mn144 O159 2.162 . S
Mn144 O160 2.297 . S
Mn144 O168 2.385 . S
Mn144 O169 2.209 . S
Mn144 O170 2.094 . S
Mn145 O150 2.121 . S
Mn145 N152 2.257 . S
Mn145 N161 2.282 . S
Mn145 O169 2.215 . S
Mn145 O171 2.117 . S
C146 O168 1.234 . S
C146 O169 1.283 . S
C147 O159 1.281 . S
C147 O160 1.236 . S
C148 O170 1.240 . S
C148 O171 1.264 . S
O149 Mn144 2.095 . S
O149 C158 1.250 . S
O150 Mn145 2.121 . S
O150 C158 1.258 . S
C151 N152 1.326 . S
C151 C155 1.460 . S
C151 H157 0.929 . S
N152 Mn145 2.257 . S
N152 C151 1.326 . S
N152 C156 1.362 . S
C153 C154 1.258 . S
C153 C156 1.431 . S
C153 C173 1.449 . S
C154 C153 1.258 . S
C154 C155 1.477 . S
C154 H174 0.931 . S
C155 C151 1.460 . S
C155 C154 1.477 . S
C155 H175 0.930 . S
C156 N152 1.362 . S
C156 C153 1.431 . S
C156 C166 1.476 . S
H157 C151 0.929 . S
C158 O149 1.250 . S
C158 O150 1.258 . S
O159 Mn144 2.162 . S
O159 C147 1.281 . S
O160 Mn144 2.297 . S
O160 C147 1.236 . S
N161 Mn145 2.282 . S
N161 C162 1.328 . S
N161 C166 1.318 . S
C162 N161 1.328 . S
C162 C163 1.457 . S
C162 H167 0.929 . S
C163 C162 1.457 . S
C163 C164 1.291 . S
C163 H176 0.931 1_554 S
C164 C163 1.291 . S
C164 C165 1.373 . S
C164 H177 0.929 . S
C165 C164 1.373 . S
C165 C166 1.396 . S
C165 C172 1.403 . S
C166 C156 1.476 . S
C166 N161 1.318 . S
C166 C165 1.396 . S
H167 C162 0.929 . S
O168 Mn144 2.385 . S
O168 C146 1.234 . S
O169 Mn144 2.209 . S
O169 Mn145 2.215 . S
O169 C146 1.283 . S
O170 Mn144 2.094 . S
O170 C148 1.240 . S
O171 Mn145 2.117 . S
O171 C148 1.264 . S
C172 C165 1.403 . S
C172 C173 1.399 . S
C172 H178 0.929 . S
C173 C153 1.449 . S
C173 C172 1.399 . S
C173 H179 0.930 . S
H174 C154 0.931 . S
H175 C155 0.930 . S
H176 C163 0.931 1_556 S
H177 C164 0.929 . S
H178 C172 0.929 . S
H179 C173 0.930 . S
Mn180 O185 2.095 . S
Mn180 O195 2.162 . S
Mn180 O196 2.297 . S
Mn180 O204 2.385 . S
Mn180 O205 2.209 . S
Mn180 O206 2.094 . S
Mn181 O186 2.121 . S
Mn181 N188 2.257 . S
Mn181 N197 2.282 . S
Mn181 O205 2.215 . S
Mn181 O207 2.117 . S
C182 O204 1.234 . S
C182 O205 1.283 . S
C183 O195 1.281 . S
C183 O196 1.236 . S
C184 O206 1.240 . S
C184 O207 1.264 . S
O185 Mn180 2.095 . S
O185 C194 1.250 . S
O186 Mn181 2.121 . S
O186 C194 1.258 . S
C187 N188 1.326 . S
C187 C191 1.460 . S
C187 H193 0.929 . S
N188 Mn181 2.257 . S
N188 C187 1.326 . S
N188 C192 1.362 . S
C189 C190 1.258 . S
C189 C192 1.431 . S
C189 C209 1.449 . S
C190 C189 1.258 . S
C190 C191 1.477 . S
C190 H210 0.931 . S
C191 C187 1.460 . S
C191 C190 1.477 . S
C191 H211 0.930 . S
C192 N188 1.362 . S
C192 C189 1.431 . S
C192 C202 1.476 . S
H193 C187 0.929 . S
C194 O185 1.250 . S
C194 O186 1.258 . S
O195 Mn180 2.162 . S
O195 C183 1.281 . S
O196 Mn180 2.297 . S
O196 C183 1.236 . S
N197 Mn181 2.282 . S
N197 C198 1.328 . S
N197 C202 1.318 . S
C198 N197 1.328 . S
C198 C199 1.457 . S
C198 H203 0.929 . S
C199 C198 1.457 . S
C199 C200 1.291 . S
C199 H212 0.931 . S
C200 C199 1.291 . S
C200 C201 1.373 . S
C200 H213 0.929 . S
C201 C200 1.373 . S
C201 C202 1.396 . S
C201 C208 1.403 . S
C202 C192 1.476 . S
C202 N197 1.318 . S
C202 C201 1.396 . S
H203 C198 0.929 . S
O204 Mn180 2.385 . S
O204 C182 1.234 . S
O205 Mn180 2.209 . S
O205 Mn181 2.215 . S
O205 C182 1.283 . S
O206 Mn180 2.094 . S
O206 C184 1.240 . S
O207 Mn181 2.117 . S
O207 C184 1.264 . S
C208 C201 1.403 . S
C208 C209 1.399 . S
C208 H214 0.929 . S
C209 C189 1.449 . S
C209 C208 1.399 . S
C209 H215 0.930 . S
H210 C190 0.931 . S
H211 C191 0.930 . S
H212 C199 0.931 . S
H213 C200 0.929 . S
H214 C208 0.929 . S
H215 C209 0.930 . S
Mn216 O221 2.095 . S
Mn216 O231 2.162 . S
Mn216 O232 2.297 . S
Mn216 O240 2.385 . S
Mn216 O241 2.209 . S
Mn216 O242 2.094 . S
Mn217 O222 2.121 . S
Mn217 N224 2.257 . S
Mn217 N233 2.282 . S
Mn217 O241 2.215 . S
Mn217 O243 2.117 . S
C218 O240 1.234 . S
C218 O241 1.283 . S
C219 O231 1.281 . S
C219 O232 1.236 . S
C220 O242 1.240 . S
C220 O243 1.264 . S
O221 Mn216 2.095 . S
O221 C230 1.250 . S
O222 Mn217 2.121 . S
O222 C230 1.258 . S
C223 N224 1.326 . S
C223 C227 1.460 . S
C223 H229 0.929 . S
N224 Mn217 2.257 . S
N224 C223 1.326 . S
N224 C228 1.362 . S
C225 C226 1.258 . S
C225 C228 1.431 . S
C225 C245 1.449 . S
C226 C225 1.258 . S
C226 C227 1.477 . S
C226 H246 0.931 . S
C227 C223 1.460 . S
C227 C226 1.477 . S
C227 H247 0.930 . S
C228 N224 1.362 . S
C228 C225 1.431 . S
C228 C238 1.476 . S
H229 C223 0.929 . S
C230 O221 1.250 . S
C230 O222 1.258 . S
O231 Mn216 2.162 . S
O231 C219 1.281 . S
O232 Mn216 2.297 . S
O232 C219 1.236 . S
N233 Mn217 2.282 . S
N233 C234 1.328 . S
N233 C238 1.318 . S
C234 N233 1.328 . S
C234 C235 1.457 . S
C234 H239 0.929 . S
C235 C234 1.457 . S
C235 C236 1.291 . S
C235 H248 0.931 . S
C236 C235 1.291 . S
C236 C237 1.373 . S
C236 H249 0.929 . S
C237 C236 1.373 . S
C237 C238 1.396 . S
C237 C244 1.403 . S
C238 C228 1.476 . S
C238 N233 1.318 . S
C238 C237 1.396 . S
H239 C234 0.929 . S
O240 Mn216 2.385 . S
O240 C218 1.234 . S
O241 Mn216 2.209 . S
O241 Mn217 2.215 . S
O241 C218 1.283 . S
O242 Mn216 2.094 . S
O242 C220 1.240 . S
O243 Mn217 2.117 . S
O243 C220 1.264 . S
C244 C237 1.403 . S
C244 C245 1.399 . S
C244 H250 0.929 . S
C245 C225 1.449 . S
C245 C244 1.399 . S
C245 H251 0.930 . S
H246 C226 0.931 . S
H247 C227 0.930 . S
H248 C235 0.931 . S
H249 C236 0.929 . S
H250 C244 0.929 . S
H251 C245 0.930 . S
Mn252 O257 2.095 . S
Mn252 O267 2.162 . S
Mn252 O268 2.297 . S
Mn252 O276 2.385 . S
Mn252 O277 2.209 . S
Mn252 O278 2.094 . S
Mn253 O258 2.121 . S
Mn253 N260 2.257 . S
Mn253 N269 2.282 . S
Mn253 O277 2.215 . S
Mn253 O279 2.117 . S
C254 O276 1.234 . S
C254 O277 1.283 . S
C255 O267 1.281 . S
C255 O268 1.236 . S
C256 O278 1.240 . S
C256 O279 1.264 . S
O257 Mn252 2.095 . S
O257 C266 1.250 . S
O258 Mn253 2.121 . S
O258 C266 1.258 . S
C259 N260 1.326 . S
C259 C263 1.460 . S
C259 H265 0.929 . S
N260 Mn253 2.257 . S
N260 C259 1.326 . S
N260 C264 1.362 . S
C261 C262 1.258 . S
C261 C264 1.431 . S
C261 C281 1.449 . S
C262 C261 1.258 . S
C262 C263 1.477 . S
C262 H282 0.931 . S
C263 C259 1.460 . S
C263 C262 1.477 . S
C263 H283 0.930 . S
C264 N260 1.362 . S
C264 C261 1.431 . S
C264 C274 1.476 . S
H265 C259 0.929 . S
C266 O257 1.250 . S
C266 O258 1.258 . S
O267 Mn252 2.162 . S
O267 C255 1.281 . S
O268 Mn252 2.297 . S
O268 C255 1.236 . S
N269 Mn253 2.282 . S
N269 C270 1.328 . S
N269 C274 1.318 . S
C270 N269 1.328 . S
C270 C271 1.457 1_556 S
C270 H275 0.929 . S
C271 C270 1.457 1_554 S
C271 C272 1.291 1_554 S
C271 H284 0.931 . S
C272 C271 1.291 1_556 S
C272 C273 1.373 . S
C272 H285 0.929 1_556 S
C273 C272 1.373 . S
C273 C274 1.396 . S
C273 C280 1.403 . S
C274 C264 1.476 . S
C274 N269 1.318 . S
C274 C273 1.396 . S
H275 C270 0.929 . S
O276 Mn252 2.385 . S
O276 C254 1.234 . S
O277 Mn252 2.209 . S
O277 Mn253 2.215 . S
O277 C254 1.283 . S
O278 Mn252 2.094 . S
O278 C256 1.240 . S
O279 Mn253 2.117 . S
O279 C256 1.264 . S
C280 C273 1.403 . S
C280 C281 1.399 . S
C280 H286 0.929 . S
C281 C261 1.449 . S
C281 C280 1.399 . S
C281 H287 0.930 . S
H282 C262 0.931 . S
H283 C263 0.930 . S
H284 C271 0.931 . S
H285 C272 0.929 1_554 S
H286 C280 0.929 . S
H287 C281 0.930 . S
Mn288 O293 2.095 . S
Mn288 O303 2.162 . S
Mn288 O304 2.297 . S
Mn288 O312 2.385 . S
Mn288 O313 2.209 . S
Mn288 O314 2.094 . S
Mn289 O294 2.121 . S
Mn289 N296 2.257 . S
Mn289 N305 2.282 . S
Mn289 O313 2.215 . S
Mn289 O315 2.117 . S
C290 O312 1.234 . S
C290 O313 1.283 . S
C291 O303 1.281 . S
C291 O304 1.236 . S
C292 O314 1.240 . S
C292 O315 1.264 . S
O293 Mn288 2.095 . S
O293 C302 1.250 . S
O294 Mn289 2.121 . S
O294 C302 1.258 . S
C295 N296 1.326 . S
C295 C299 1.460 . S
C295 H301 0.929 . S
N296 Mn289 2.257 . S
N296 C295 1.326 . S
N296 C300 1.362 . S
C297 C298 1.258 . S
C297 C300 1.431 . S
C297 C317 1.449 . S
C298 C297 1.258 . S
C298 C299 1.477 . S
C298 H318 0.931 . S
C299 C295 1.460 . S
C299 C298 1.477 . S
C299 H319 0.930 . S
C300 N296 1.362 . S
C300 C297 1.431 . S
C300 C310 1.476 . S
H301 C295 0.929 . S
C302 O293 1.250 . S
C302 O294 1.258 . S
O303 Mn288 2.162 . S
O303 C291 1.281 . S
O304 Mn288 2.297 . S
O304 C291 1.236 . S
N305 Mn289 2.282 . S
N305 C306 1.328 . S
N305 C310 1.318 . S
C306 N305 1.328 . S
C306 C307 1.457 . S
C306 H311 0.929 . S
C307 C306 1.457 . S
C307 C308 1.291 . S
C307 H320 0.931 . S
C308 C307 1.291 . S
C308 C309 1.373 . S
C308 H321 0.929 . S
C309 C308 1.373 . S
C309 C310 1.396 . S
C309 C316 1.403 . S
C310 C300 1.476 . S
C310 N305 1.318 . S
C310 C309 1.396 . S
H311 C306 0.929 . S
O312 Mn288 2.385 . S
O312 C290 1.234 . S
O313 Mn288 2.209 . S
O313 Mn289 2.215 . S
O313 C290 1.283 . S
O314 Mn288 2.094 . S
O314 C292 1.240 . S
O315 Mn289 2.117 . S
O315 C292 1.264 . S
C316 C309 1.403 . S
C316 C317 1.399 . S
C316 H322 0.929 . S
C317 C297 1.449 . S
C317 C316 1.399 . S
C317 H323 0.930 . S
H318 C298 0.931 . S
H319 C299 0.930 . S
H320 C307 0.931 . S
H321 C308 0.929 . S
H322 C316 0.929 . S
H323 C317 0.930 . S
Mn324 O329 2.095 . S
Mn324 O339 2.162 . S
Mn324 O340 2.297 . S
Mn324 O348 2.385 . S
Mn324 O349 2.209 . S
Mn324 O350 2.094 . S
Mn325 O330 2.121 . S
Mn325 N332 2.257 . S
Mn325 N341 2.282 . S
Mn325 O349 2.215 . S
Mn325 O351 2.117 . S
C326 O348 1.234 . S
C326 O349 1.283 . S
C327 O339 1.281 . S
C327 O340 1.236 . S
C328 O350 1.240 . S
C328 O351 1.264 . S
O329 Mn324 2.095 . S
O329 C338 1.250 . S
O330 Mn325 2.121 . S
O330 C338 1.258 . S
C331 N332 1.326 . S
C331 C335 1.460 . S
C331 H337 0.929 . S
N332 Mn325 2.257 . S
N332 C331 1.326 . S
N332 C336 1.362 . S
C333 C334 1.258 . S
C333 C336 1.431 . S
C333 C353 1.449 . S
C334 C333 1.258 . S
C334 C335 1.477 . S
C334 H354 0.931 . S
C335 C331 1.460 . S
C335 C334 1.477 . S
C335 H355 0.930 . S
C336 N332 1.362 . S
C336 C333 1.431 . S
C336 C346 1.476 . S
H337 C331 0.929 . S
C338 O329 1.250 . S
C338 O330 1.258 . S
O339 Mn324 2.162 . S
O339 C327 1.281 . S
O340 Mn324 2.297 . S
O340 C327 1.236 . S
N341 Mn325 2.282 . S
N341 C342 1.328 . S
N341 C346 1.318 . S
C342 N341 1.328 . S
C342 C343 1.457 . S
C342 H347 0.929 . S
C343 C342 1.457 . S
C343 C344 1.291 . S
C343 H356 0.931 1_556 S
C344 C343 1.291 . S
C344 C345 1.373 . S
C344 H357 0.929 . S
C345 C344 1.373 . S
C345 C346 1.396 . S
C345 C352 1.403 . S
C346 C336 1.476 . S
C346 N341 1.318 . S
C346 C345 1.396 . S
H347 C342 0.929 . S
O348 Mn324 2.385 . S
O348 C326 1.234 . S
O349 Mn324 2.209 . S
O349 Mn325 2.215 . S
O349 C326 1.283 . S
O350 Mn324 2.094 . S
O350 C328 1.240 . S
O351 Mn325 2.117 . S
O351 C328 1.264 . S
C352 C345 1.403 . S
C352 C353 1.399 . S
C352 H358 0.929 . S
C353 C333 1.449 . S
C353 C352 1.399 . S
C353 H359 0.930 . S
H354 C334 0.931 . S
H355 C335 0.930 . S
H356 C343 0.931 1_554 S
H357 C344 0.929 . S
H358 C352 0.929 . S
H359 C353 0.930 . S
Mn360 O365 2.095 . S
Mn360 O375 2.162 . S
Mn360 O376 2.297 . S
Mn360 O384 2.385 . S
Mn360 O385 2.209 . S
Mn360 O386 2.094 . S
Mn361 O366 2.121 . S
Mn361 N368 2.257 . S
Mn361 N377 2.282 . S
Mn361 O385 2.215 . S
Mn361 O387 2.117 . S
C362 O384 1.234 . S
C362 O385 1.283 . S
C363 O375 1.281 . S
C363 O376 1.236 . S
C364 O386 1.240 . S
C364 O387 1.264 . S
O365 Mn360 2.095 . S
O365 C374 1.250 . S
O366 Mn361 2.121 . S
O366 C374 1.258 . S
C367 N368 1.326 . S
C367 C371 1.460 . S
C367 H373 0.929 . S
N368 Mn361 2.257 . S
N368 C367 1.326 . S
N368 C372 1.362 . S
C369 C370 1.258 . S
C369 C372 1.431 . S
C369 C389 1.449 . S
C370 C369 1.258 . S
C370 C371 1.477 . S
C370 H390 0.931 . S
C371 C367 1.460 . S
C371 C370 1.477 . S
C371 H391 0.930 . S
C372 N368 1.362 . S
C372 C369 1.431 . S
C372 C382 1.476 . S
H373 C367 0.929 . S
C374 O365 1.250 . S
C374 O366 1.258 . S
O375 Mn360 2.162 . S
O375 C363 1.281 . S
O376 Mn360 2.297 . S
O376 C363 1.236 . S
N377 Mn361 2.282 . S
N377 C378 1.328 . S
N377 C382 1.318 . S
C378 N377 1.328 . S
C378 C379 1.457 . S
C378 H383 0.929 . S
C379 C378 1.457 . S
C379 C380 1.291 . S
C379 H392 0.931 . S
C380 C379 1.291 . S
C380 C381 1.373 . S
C380 H393 0.929 . S
C381 C380 1.373 . S
C381 C382 1.396 . S
C381 C388 1.403 . S
C382 C372 1.476 . S
C382 N377 1.318 . S
C382 C381 1.396 . S
H383 C378 0.929 . S
O384 Mn360 2.385 . S
O384 C362 1.234 . S
O385 Mn360 2.209 . S
O385 Mn361 2.215 . S
O385 C362 1.283 . S
O386 Mn360 2.094 . S
O386 C364 1.240 . S
O387 Mn361 2.117 . S
O387 C364 1.264 . S
C388 C381 1.403 . S
C388 C389 1.399 . S
C388 H394 0.929 . S
C389 C369 1.449 . S
C389 C388 1.399 . S
C389 H395 0.930 . S
H390 C370 0.931 . S
H391 C371 0.930 . S
H392 C379 0.931 . S
H393 C380 0.929 . S
H394 C388 0.929 . S
H395 C389 0.930 . S
Mn396 O401 2.095 . S
Mn396 O411 2.162 . S
Mn396 O412 2.297 . S
Mn396 O420 2.385 . S
Mn396 O421 2.209 . S
Mn396 O422 2.094 . S
Mn397 O402 2.121 . S
Mn397 N404 2.257 . S
Mn397 N413 2.282 . S
Mn397 O421 2.215 . S
Mn397 O423 2.117 . S
C398 O420 1.234 . S
C398 O421 1.283 . S
C399 O411 1.281 . S
C399 O412 1.236 . S
C400 O422 1.240 . S
C400 O423 1.264 . S
O401 Mn396 2.095 . S
O401 C410 1.250 . S
O402 Mn397 2.121 . S
O402 C410 1.258 . S
C403 N404 1.326 . S
C403 C407 1.460 . S
C403 H409 0.929 . S
N404 Mn397 2.257 . S
N404 C403 1.326 . S
N404 C408 1.362 . S
C405 C406 1.258 . S
C405 C408 1.431 . S
C405 C425 1.449 . S
C406 C405 1.258 . S
C406 C407 1.477 . S
C406 H426 0.931 . S
C407 C403 1.460 . S
C407 C406 1.477 . S
C407 H427 0.930 . S
C408 N404 1.362 . S
C408 C405 1.431 . S
C408 C418 1.476 . S
H409 C403 0.929 . S
C410 O401 1.250 . S
C410 O402 1.258 . S
O411 Mn396 2.162 . S
O411 C399 1.281 . S
O412 Mn396 2.297 . S
O412 C399 1.236 . S
N413 Mn397 2.282 . S
N413 C414 1.328 . S
N413 C418 1.318 . S
C414 N413 1.328 . S
C414 C415 1.457 . S
C414 H419 0.929 . S
C415 C414 1.457 . S
C415 C416 1.291 . S
C415 H428 0.931 1_556 S
C416 C415 1.291 . S
C416 C417 1.373 . S
C416 H429 0.929 . S
C417 C416 1.373 . S
C417 C418 1.396 . S
C417 C424 1.403 . S
C418 C408 1.476 . S
C418 N413 1.318 . S
C418 C417 1.396 . S
H419 C414 0.929 . S
O420 Mn396 2.385 . S
O420 C398 1.234 . S
O421 Mn396 2.209 . S
O421 Mn397 2.215 . S
O421 C398 1.283 . S
O422 Mn396 2.094 . S
O422 C400 1.240 . S
O423 Mn397 2.117 . S
O423 C400 1.264 . S
C424 C417 1.403 . S
C424 C425 1.399 . S
C424 H430 0.929 . S
C425 C405 1.449 . S
C425 C424 1.399 . S
C425 H431 0.930 . S
H426 C406 0.931 . S
H427 C407 0.930 . S
H428 C415 0.931 1_554 S
H429 C416 0.929 . S
H430 C424 0.929 . S
H431 C425 0.930 . S
H432 C450 0.951 . S
H433 C452 0.951 . S
H434 C454 0.950 . S
H435 C455 0.950 . S
H436 C457 0.950 . S
H437 C460 0.950 . S
H438 C461 0.950 . S
H439 C463 0.950 . S
H440 C464 0.950 . S
H441 C465 0.951 . S
H442 C467 0.951 . S
H443 C469 0.950 . S
H444 C470 0.950 . S
H445 C472 0.950 . S
H446 C475 0.950 . S
H447 C476 0.950 . S
H448 C478 0.950 . S
H449 C479 0.950 . S
C450 H432 0.951 . S
C450 C451 1.366 . S
C450 C452 1.388 . S
C451 C450 1.366 . S
C451 C455 1.385 . S
C452 H433 0.951 . S
C452 C450 1.388 . S
C452 C453 1.366 . S
C453 C452 1.366 . S
C453 C454 1.414 . S
C453 C456 1.499 . S
C454 H434 0.950 . S
C454 C453 1.414 . S
C454 C455 1.374 . S
C455 H435 0.950 . S
C455 C451 1.385 . S
C455 C454 1.374 . S
C456 C453 1.499 . S
C456 C457 1.373 . S
C456 C458 1.389 . S
C457 H436 0.950 . S
C457 C456 1.373 . S
C457 C473 1.377 . S
C458 C456 1.389 . S
C458 C459 1.524 . S
C458 C472 1.377 . S
C459 C458 1.524 . S
C459 C460 1.397 . S
C459 C464 1.363 . S
C460 H437 0.950 . S
C460 C459 1.397 . S
C460 C461 1.334 . S
C461 H438 0.950 . S
C461 C460 1.334 . S
C461 C462 1.287 . S
C462 C461 1.287 . S
C462 C463 1.524 . S
C462 H481 0.913 . S
C463 H439 0.950 . S
C463 C462 1.524 . S
C463 C464 1.415 . S
C464 H440 0.950 . S
C464 C459 1.363 . S
C464 C463 1.415 . S
C465 H441 0.951 . S
C465 C466 1.366 . S
C465 C467 1.388 . S
C466 C465 1.366 . S
C466 C470 1.385 . S
C467 H442 0.951 . S
C467 C465 1.388 . S
C467 C468 1.366 . S
C468 C467 1.366 . S
C468 C469 1.414 . S
C468 C471 1.499 . S
C469 H443 0.950 . S
C469 C468 1.414 . S
C469 C470 1.374 . S
C470 H444 0.950 . S
C470 C466 1.385 . S
C470 C469 1.374 . S
C471 C468 1.499 . S
C471 C472 1.373 . S
C471 C473 1.389 . S
C472 H445 0.950 . S
C472 C458 1.377 . S
C472 C471 1.373 . S
C473 C457 1.377 . S
C473 C471 1.389 . S
C473 C474 1.524 . S
C474 C473 1.524 . S
C474 C475 1.397 . S
C474 C479 1.363 . S
C475 H446 0.950 . S
C475 C474 1.397 . S
C475 C476 1.334 . S
C476 H447 0.950 . S
C476 C475 1.334 . S
C476 C477 1.287 . S
C477 C476 1.287 . S
C477 C478 1.524 . S
C477 H480 0.999 . S
C478 H448 0.950 . S
C478 C477 1.524 . S
C478 C479 1.415 . S
C479 H449 0.950 . S
C479 C474 1.363 . S
C479 C478 1.415 . S
H480 C477 0.999 . S
H481 C462 0.913 . S
H482 C500 0.951 . S
H483 C502 0.951 . S
H484 C504 0.950 . S
H485 C505 0.950 . S
H486 C507 0.950 . S
H487 C510 0.950 . S
H488 C511 0.950 . S
H489 C513 0.950 . S
H490 C514 0.950 . S
H491 C515 0.951 . S
H492 C517 0.951 . S
H493 C519 0.950 . S
H494 C520 0.950 . S
H495 C522 0.950 . S
H496 C525 0.950 . S
H497 C526 0.950 . S
H498 C528 0.950 . S
H499 C529 0.950 . S
C500 H482 0.951 . S
C500 C501 1.366 . S
C500 C502 1.388 . S
C501 C500 1.366 . S
C501 C505 1.385 . S
C502 H483 0.951 . S
C502 C500 1.388 . S
C502 C503 1.366 . S
C503 C502 1.366 . S
C503 C504 1.414 . S
C503 C506 1.499 . S
C504 H484 0.950 . S
C504 C503 1.414 . S
C504 C505 1.374 . S
C505 H485 0.950 . S
C505 C501 1.385 . S
C505 C504 1.374 . S
C506 C503 1.499 . S
C506 C507 1.373 . S
C506 C508 1.389 . S
C507 H486 0.950 . S
C507 C506 1.373 . S
C507 C523 1.377 . S
C508 C506 1.389 . S
C508 C509 1.524 . S
C508 C522 1.377 . S
C509 C508 1.524 . S
C509 C510 1.397 . S
C509 C514 1.363 . S
C510 H487 0.950 . S
C510 C509 1.397 . S
C510 C511 1.334 . S
C511 H488 0.950 . S
C511 C510 1.334 . S
C511 C512 1.287 . S
C512 C511 1.287 . S
C512 C513 1.524 . S
C512 H531 0.913 . S
C513 H489 0.950 . S
C513 C512 1.524 . S
C513 C514 1.415 . S
C514 H490 0.950 . S
C514 C509 1.363 . S
C514 C513 1.415 . S
C515 H491 0.951 . S
C515 C516 1.366 . S
C515 C517 1.388 . S
C516 C515 1.366 . S
C516 C520 1.385 . S
C517 H492 0.951 . S
C517 C515 1.388 . S
C517 C518 1.366 . S
C518 C517 1.366 . S
C518 C519 1.414 . S
C518 C521 1.499 . S
C519 H493 0.950 . S
C519 C518 1.414 . S
C519 C520 1.374 . S
C520 H494 0.950 . S
C520 C516 1.385 . S
C520 C519 1.374 . S
C521 C518 1.499 . S
C521 C522 1.373 . S
C521 C523 1.389 . S
C522 H495 0.950 . S
C522 C508 1.377 . S
C522 C521 1.373 . S
C523 C507 1.377 . S
C523 C521 1.389 . S
C523 C524 1.524 . S
C524 C523 1.524 . S
C524 C525 1.397 . S
C524 C529 1.363 . S
C525 H496 0.950 . S
C525 C524 1.397 . S
C525 C526 1.334 . S
C526 H497 0.950 . S
C526 C525 1.334 . S
C526 C527 1.287 . S
C527 C526 1.287 . S
C527 C528 1.524 . S
C527 H530 0.999 . S
C528 H498 0.950 . S
C528 C527 1.524 . S
C528 C529 1.415 . S
C529 H499 0.950 . S
C529 C524 1.363 . S
C529 C528 1.415 . S
H530 C527 0.999 . S
H531 C512 0.913 . S
H532 C550 0.951 . S
H533 C552 0.951 . S
H534 C554 0.950 . S
H535 C555 0.950 . S
H536 C557 0.950 . S
H537 C560 0.950 . S
H538 C561 0.950 . S
H539 C563 0.950 . S
H540 C564 0.950 . S
H541 C565 0.951 . S
H542 C567 0.951 . S
H543 C569 0.950 . S
H544 C570 0.950 . S
H545 C572 0.950 . S
H546 C575 0.950 . S
H547 C576 0.950 . S
H548 C578 0.950 . S
H549 C579 0.950 . S
C550 H532 0.951 . S
C550 C551 1.366 . S
C550 C552 1.388 . S
C551 C550 1.366 . S
C551 C555 1.385 . S
C552 H533 0.951 . S
C552 C550 1.388 . S
C552 C553 1.366 . S
C553 C552 1.366 . S
C553 C554 1.414 . S
C553 C556 1.499 . S
C554 H534 0.950 . S
C554 C553 1.414 . S
C554 C555 1.374 . S
C555 H535 0.950 . S
C555 C551 1.385 . S
C555 C554 1.374 . S
C556 C553 1.499 . S
C556 C557 1.373 . S
C556 C558 1.389 . S
C557 H536 0.950 . S
C557 C556 1.373 . S
C557 C573 1.377 . S
C558 C556 1.389 . S
C558 C559 1.524 . S
C558 C572 1.377 . S
C559 C558 1.524 . S
C559 C560 1.397 . S
C559 C564 1.363 . S
C560 H537 0.950 . S
C560 C559 1.397 . S
C560 C561 1.334 . S
C561 H538 0.950 . S
C561 C560 1.334 . S
C561 C562 1.287 . S
C562 C561 1.287 . S
C562 C563 1.524 . S
C562 H581 0.913 . S
C563 H539 0.950 . S
C563 C562 1.524 . S
C563 C564 1.415 . S
C564 H540 0.950 . S
C564 C559 1.363 . S
C564 C563 1.415 . S
C565 H541 0.951 . S
C565 C566 1.366 . S
C565 C567 1.388 . S
C566 C565 1.366 . S
C566 C570 1.385 . S
C567 H542 0.951 . S
C567 C565 1.388 . S
C567 C568 1.366 . S
C568 C567 1.366 . S
C568 C569 1.414 . S
C568 C571 1.499 . S
C569 H543 0.950 . S
C569 C568 1.414 . S
C569 C570 1.374 . S
C570 H544 0.950 . S
C570 C566 1.385 . S
C570 C569 1.374 . S
C571 C568 1.499 . S
C571 C572 1.373 . S
C571 C573 1.389 . S
C572 H545 0.950 . S
C572 C558 1.377 . S
C572 C571 1.373 . S
C573 C557 1.377 . S
C573 C571 1.389 . S
C573 C574 1.524 . S
C574 C573 1.524 . S
C574 C575 1.397 . S
C574 C579 1.363 . S
C575 H546 0.950 . S
C575 C574 1.397 . S
C575 C576 1.334 . S
C576 H547 0.950 . S
C576 C575 1.334 . S
C576 C577 1.287 . S
C577 C576 1.287 . S
C577 C578 1.524 . S
C577 H580 0.999 . S
C578 H548 0.950 . S
C578 C577 1.524 . S
C578 C579 1.415 . S
C579 H549 0.950 . S
C579 C574 1.363 . S
C579 C578 1.415 . S
H580 C577 0.999 . S
H581 C562 0.913 . S
H582 C600 0.951 . S
H583 C602 0.951 . S
H584 C604 0.950 . S
H585 C605 0.950 . S
H586 C607 0.950 . S
H587 C610 0.950 . S
H588 C611 0.950 . S
H589 C613 0.950 . S
H590 C614 0.950 . S
H591 C615 0.951 . S
H592 C617 0.951 . S
H593 C619 0.950 . S
H594 C620 0.950 . S
H595 C622 0.950 . S
H596 C625 0.950 . S
H597 C626 0.950 . S
H598 C628 0.950 . S
H599 C629 0.950 . S
C600 H582 0.951 . S
C600 C601 1.366 . S
C600 C602 1.388 . S
C601 C600 1.366 . S
C601 C605 1.385 . S
C602 H583 0.951 . S
C602 C600 1.388 . S
C602 C603 1.366 . S
C603 C602 1.366 . S
C603 C604 1.414 . S
C603 C606 1.499 . S
C604 H584 0.950 . S
C604 C603 1.414 . S
C604 C605 1.374 . S
C605 H585 0.950 . S
C605 C601 1.385 . S
C605 C604 1.374 . S
C606 C603 1.499 . S
C606 C607 1.373 . S
C606 C608 1.389 . S
C607 H586 0.950 . S
C607 C606 1.373 . S
C607 C623 1.377 . S
C608 C606 1.389 . S
C608 C609 1.524 . S
C608 C622 1.377 . S
C609 C608 1.524 . S
C609 C610 1.397 . S
C609 C614 1.363 . S
C610 H587 0.950 . S
C610 C609 1.397 . S
C610 C611 1.334 . S
C611 H588 0.950 . S
C611 C610 1.334 . S
C611 C612 1.287 . S
C612 C611 1.287 . S
C612 C613 1.524 . S
C612 H631 0.913 . S
C613 H589 0.950 . S
C613 C612 1.524 . S
C613 C614 1.415 . S
C614 H590 0.950 . S
C614 C609 1.363 . S
C614 C613 1.415 . S
C615 H591 0.951 . S
C615 C616 1.366 . S
C615 C617 1.388 . S
C616 C615 1.366 . S
C616 C620 1.385 . S
C617 H592 0.951 . S
C617 C615 1.388 . S
C617 C618 1.366 . S
C618 C617 1.366 . S
C618 C619 1.414 . S
C618 C621 1.499 . S
C619 H593 0.950 . S
C619 C618 1.414 . S
C619 C620 1.374 . S
C620 H594 0.950 . S
C620 C616 1.385 . S
C620 C619 1.374 . S
C621 C618 1.499 . S
C621 C622 1.373 . S
C621 C623 1.389 . S
C622 H595 0.950 . S
C622 C608 1.377 . S
C622 C621 1.373 . S
C623 C607 1.377 . S
C623 C621 1.389 . S
C623 C624 1.524 . S
C624 C623 1.524 . S
C624 C625 1.397 . S
C624 C629 1.363 . S
C625 H596 0.950 . S
C625 C624 1.397 . S
C625 C626 1.334 . S
C626 H597 0.950 . S
C626 C625 1.334 . S
C626 C627 1.287 . S
C627 C626 1.287 . S
C627 C628 1.524 . S
C627 H630 0.999 . S
C628 H598 0.950 . S
C628 C627 1.524 . S
C628 C629 1.415 . S
C629 H599 0.950 . S
C629 C624 1.363 . S
C629 C628 1.415 . S
H630 C627 0.999 . S
H631 C612 0.913 . S
H632 C650 0.951 . S
H633 C652 0.951 . S
H634 C654 0.950 . S
H635 C655 0.950 . S
H636 C657 0.950 . S
H637 C660 0.950 . S
H638 C661 0.950 . S
H639 C663 0.950 . S
H640 C664 0.950 . S
H641 C665 0.951 . S
H642 C667 0.951 . S
H643 C669 0.950 . S
H644 C670 0.950 . S
H645 C672 0.950 . S
H646 C675 0.950 . S
H647 C676 0.950 . S
H648 C678 0.950 . S
H649 C679 0.950 . S
C650 H632 0.951 . S
C650 C651 1.366 . S
C650 C652 1.388 . S
C651 C650 1.366 . S
C651 C655 1.385 . S
C652 H633 0.951 . S
C652 C650 1.388 . S
C652 C653 1.366 . S
C653 C652 1.366 . S
C653 C654 1.414 . S
C653 C656 1.499 . S
C654 H634 0.950 . S
C654 C653 1.414 . S
C654 C655 1.374 . S
C655 H635 0.950 . S
C655 C651 1.385 . S
C655 C654 1.374 . S
C656 C653 1.499 . S
C656 C657 1.373 . S
C656 C658 1.389 . S
C657 H636 0.950 . S
C657 C656 1.373 . S
C657 C673 1.377 . S
C658 C656 1.389 . S
C658 C659 1.524 . S
C658 C672 1.377 . S
C659 C658 1.524 . S
C659 C660 1.397 . S
C659 C664 1.363 . S
C660 H637 0.950 . S
C660 C659 1.397 . S
C660 C661 1.334 . S
C661 H638 0.950 . S
C661 C660 1.334 . S
C661 C662 1.287 . S
C662 C661 1.287 . S
C662 C663 1.524 . S
C662 H681 0.913 . S
C663 H639 0.950 . S
C663 C662 1.524 . S
C663 C664 1.415 . S
C664 H640 0.950 . S
C664 C659 1.363 . S
C664 C663 1.415 . S
C665 H641 0.951 . S
C665 C666 1.366 . S
C665 C667 1.388 . S
C666 C665 1.366 . S
C666 C670 1.385 . S
C667 H642 0.951 . S
C667 C665 1.388 . S
C667 C668 1.366 . S
C668 C667 1.366 . S
C668 C669 1.414 . S
C668 C671 1.499 . S
C669 H643 0.950 . S
C669 C668 1.414 . S
C669 C670 1.374 . S
C670 H644 0.950 . S
C670 C666 1.385 . S
C670 C669 1.374 . S
C671 C668 1.499 . S
C671 C672 1.373 . S
C671 C673 1.389 . S
C672 H645 0.950 . S
C672 C658 1.377 . S
C672 C671 1.373 . S
C673 C657 1.377 . S
C673 C671 1.389 . S
C673 C674 1.524 . S
C674 C673 1.524 . S
C674 C675 1.397 . S
C674 C679 1.363 . S
C675 H646 0.950 . S
C675 C674 1.397 . S
C675 C676 1.334 . S
C676 H647 0.950 . S
C676 C675 1.334 . S
C676 C677 1.287 . S
C677 C676 1.287 . S
C677 C678 1.524 . S
C677 H680 0.999 . S
C678 H648 0.950 . S
C678 C677 1.524 . S
C678 C679 1.415 . S
C679 H649 0.950 . S
C679 C674 1.363 . S
C679 C678 1.415 . S
H680 C677 0.999 . S
H681 C662 0.913 . S
H682 C700 0.951 . S
H683 C702 0.951 . S
H684 C704 0.950 . S
H685 C705 0.950 . S
H686 C707 0.950 . S
H687 C710 0.950 . S
H688 C711 0.950 . S
H689 C713 0.950 . S
H690 C714 0.950 . S
H691 C715 0.951 . S
H692 C717 0.951 . S
H693 C719 0.950 . S
H694 C720 0.950 . S
H695 C722 0.950 . S
H696 C725 0.950 . S
H697 C726 0.950 . S
H698 C728 0.950 . S
H699 C729 0.950 . S
C700 H682 0.951 . S
C700 C701 1.366 . S
C700 C702 1.388 . S
C701 C700 1.366 . S
C701 C705 1.385 . S
C702 H683 0.951 . S
C702 C700 1.388 . S
C702 C703 1.366 . S
C703 C702 1.366 . S
C703 C704 1.414 . S
C703 C706 1.499 . S
C704 H684 0.950 . S
C704 C703 1.414 . S
C704 C705 1.374 . S
C705 H685 0.950 . S
C705 C701 1.385 . S
C705 C704 1.374 . S
C706 C703 1.499 . S
C706 C707 1.373 . S
C706 C708 1.389 . S
C707 H686 0.950 . S
C707 C706 1.373 . S
C707 C723 1.377 . S
C708 C706 1.389 . S
C708 C709 1.524 . S
C708 C722 1.377 . S
C709 C708 1.524 . S
C709 C710 1.397 . S
C709 C714 1.363 . S
C710 H687 0.950 . S
C710 C709 1.397 . S
C710 C711 1.334 . S
C711 H688 0.950 . S
C711 C710 1.334 . S
C711 C712 1.287 . S
C712 C711 1.287 . S
C712 C713 1.524 . S
C712 H731 0.913 . S
C713 H689 0.950 . S
C713 C712 1.524 . S
C713 C714 1.415 . S
C714 H690 0.950 . S
C714 C709 1.363 . S
C714 C713 1.415 . S
C715 H691 0.951 . S
C715 C716 1.366 . S
C715 C717 1.388 . S
C716 C715 1.366 . S
C716 C720 1.385 . S
C717 H692 0.951 . S
C717 C715 1.388 . S
C717 C718 1.366 . S
C718 C717 1.366 . S
C718 C719 1.414 . S
C718 C721 1.499 . S
C719 H693 0.950 . S
C719 C718 1.414 . S
C719 C720 1.374 . S
C720 H694 0.950 . S
C720 C716 1.385 . S
C720 C719 1.374 . S
C721 C718 1.499 . S
C721 C722 1.373 . S
C721 C723 1.389 . S
C722 H695 0.950 . S
C722 C708 1.377 . S
C722 C721 1.373 . S
C723 C707 1.377 . S
C723 C721 1.389 . S
C723 C724 1.524 . S
C724 C723 1.524 . S
C724 C725 1.397 . S
C724 C729 1.363 . S
C725 H696 0.950 . S
C725 C724 1.397 . S
C725 C726 1.334 . S
C726 H697 0.950 . S
C726 C725 1.334 . S
C726 C727 1.287 . S
C727 C726 1.287 . S
C727 C728 1.524 . S
C727 H730 0.999 . S
C728 H698 0.950 . S
C728 C727 1.524 . S
C728 C729 1.415 . S
C729 H699 0.950 . S
C729 C724 1.363 . S
C729 C728 1.415 . S
H730 C727 0.999 . S
H731 C712 0.913 . S
H732 C750 0.951 1_556 S
H733 C752 0.994 . S
H734 C754 0.950 . S
H735 C755 0.950 . S
H736 C757 0.950 . S
H737 C760 0.950 1_554 S
H738 C761 0.950 . S
H739 C763 0.950 . S
H740 C764 0.950 . S
H741 C765 0.951 1_554 S
H742 C767 0.951 . S
H743 C769 0.950 . S
H744 C770 0.950 . S
H745 C772 0.950 . S
H746 C775 0.950 1_556 S
H747 C776 0.950 . S
H748 C778 0.950 . S
H749 C779 0.950 . S
C750 H732 0.951 1_554 S
C750 C751 1.366 . S
C750 C752 1.376 1_554 S
C751 C750 1.366 . S
C751 C755 1.385 . S
C752 H733 0.994 . S
C752 C750 1.376 1_556 S
C752 C753 1.336 1_556 S
C753 C752 1.336 1_554 S
C753 C754 1.414 . S
C753 C756 1.499 . S
C754 H734 0.950 . S
C754 C753 1.414 . S
C754 C755 1.374 . S
C755 H735 0.950 . S
C755 C751 1.385 . S
C755 C754 1.374 . S
C756 C753 1.499 . S
C756 C757 1.373 . S
C756 C758 1.389 1_554 S
C757 H736 0.950 . S
C757 C756 1.373 . S
C757 C773 1.377 1_545 S
C758 C756 1.389 1_556 S
C758 C759 1.524 . S
C758 C772 1.377 1_545 S
C759 C758 1.524 . S
C759 C760 1.397 . S
C759 C764 1.363 . S
C760 H737 0.950 1_556 S
C760 C759 1.397 . S
C760 C761 1.334 . S
C761 H738 0.950 . S
C761 C760 1.334 . S
C761 C762 1.287 . S
C762 C761 1.287 . S
C762 C763 1.524 . S
C762 H781 0.913 . S
C763 H739 0.950 . S
C763 C762 1.524 . S
C763 C764 1.415 . S
C764 H740 0.950 . S
C764 C759 1.363 . S
C764 C763 1.415 . S
C765 H741 0.951 1_556 S
C765 C766 1.366 . S
C765 C767 1.388 1_556 S
C766 C765 1.366 . S
C766 C770 1.385 . S
C767 H742 0.951 . S
C767 C765 1.388 1_554 S
C767 C768 1.366 1_554 S
C768 C767 1.366 1_556 S
C768 C769 1.414 . S
C768 C771 1.499 . S
C769 H743 0.950 . S
C769 C768 1.414 . S
C769 C770 1.374 . S
C770 H744 0.950 . S
C770 C766 1.385 . S
C770 C769 1.374 . S
C771 C768 1.499 . S
C771 C772 1.373 . S
C771 C773 1.389 1_556 S
C772 H745 0.950 . S
C772 C758 1.377 1_565 S
C772 C771 1.373 . S
C773 C757 1.377 1_565 S
C773 C771 1.389 1_554 S
C773 C774 1.524 . S
C774 C773 1.524 . S
C774 C775 1.397 . S
C774 C779 1.363 . S
C775 H746 0.950 1_554 S
C775 C774 1.397 . S
C775 C776 1.334 . S
C776 H747 0.950 . S
C776 C775 1.334 . S
C776 C777 1.287 . S
C777 C776 1.287 . S
C777 C778 1.524 . S
C777 H780 0.999 . S
C778 H748 0.950 . S
C778 C777 1.524 . S
C778 C779 1.415 . S
C779 H749 0.950 . S
C779 C774 1.363 . S
C779 C778 1.415 . S
H780 C777 0.999 . S
H781 C762 0.913 . S
H782 C800 0.951 . S
H783 C802 0.951 . S
H784 C804 0.950 . S
H785 C805 0.950 . S
H786 C807 0.950 . S
H787 C810 0.950 . S
H788 C811 0.950 . S
H789 C813 0.950 . S
H790 C814 0.950 . S
H791 C815 0.951 . S
H792 C817 0.951 . S
H793 C819 0.950 . S
H794 C820 0.950 . S
H795 C822 0.950 . S
H796 C825 0.950 . S
H797 C826 0.950 . S
H798 C828 0.950 . S
H799 C829 0.950 . S
C800 H782 0.951 . S
C800 C801 1.366 . S
C800 C802 1.388 . S
C801 C800 1.366 . S
C801 C805 1.385 . S
C802 H783 0.951 . S
C802 C800 1.388 . S
C802 C803 1.366 . S
C803 C802 1.366 . S
C803 C804 1.414 . S
C803 C806 1.499 . S
C804 H784 0.950 . S
C804 C803 1.414 . S
C804 C805 1.374 . S
C805 H785 0.950 . S
C805 C801 1.385 . S
C805 C804 1.374 . S
C806 C803 1.499 . S
C806 C807 1.373 . S
C806 C808 1.389 . S
C807 H786 0.950 . S
C807 C806 1.373 . S
C807 C823 1.377 . S
C808 C806 1.389 . S
C808 C809 1.524 . S
C808 C822 1.377 . S
C809 C808 1.524 . S
C809 C810 1.397 . S
C809 C814 1.363 . S
C810 H787 0.950 . S
C810 C809 1.397 . S
C810 C811 1.334 . S
C811 H788 0.950 . S
C811 C810 1.334 . S
C811 C812 1.287 . S
C812 C811 1.287 . S
C812 C813 1.524 . S
C812 H831 0.913 . S
C813 H789 0.950 . S
C813 C812 1.524 . S
C813 C814 1.415 . S
C814 H790 0.950 . S
C814 C809 1.363 . S
C814 C813 1.415 . S
C815 H791 0.951 . S
C815 C816 1.366 . S
C815 C817 1.388 . S
C816 C815 1.366 . S
C816 C820 1.385 . S
C817 H792 0.951 . S
C817 C815 1.388 . S
C817 C818 1.366 . S
C818 C817 1.366 . S
C818 C819 1.414 . S
C818 C821 1.499 . S
C819 H793 0.950 . S
C819 C818 1.414 . S
C819 C820 1.374 . S
C820 H794 0.950 . S
C820 C816 1.385 . S
C820 C819 1.374 . S
C821 C818 1.499 . S
C821 C822 1.373 . S
C821 C823 1.389 . S
C822 H795 0.950 . S
C822 C808 1.377 . S
C822 C821 1.373 . S
C823 C807 1.377 . S
C823 C821 1.389 . S
C823 C824 1.524 . S
C824 C823 1.524 . S
C824 C825 1.397 . S
C824 C829 1.363 . S
C825 H796 0.950 . S
C825 C824 1.397 . S
C825 C826 1.334 . S
C826 H797 0.950 . S
C826 C825 1.334 . S
C826 C827 1.287 . S
C827 C826 1.287 . S
C827 C828 1.524 . S
C827 H830 0.999 . S
C828 H798 0.950 . S
C828 C827 1.524 . S
C828 C829 1.415 . S
C829 H799 0.950 . S
C829 C824 1.363 . S
C829 C828 1.415 . S
H830 C827 0.999 . S
H831 C812 0.913 . S
H832 C850 0.951 . S
H833 C852 0.951 1_554 S
H834 C854 0.950 . S
H835 C855 0.950 . S
H836 C857 0.950 . S
H837 C860 0.950 . S
H838 C861 0.950 . S
H839 C863 0.950 1_554 S
H840 C864 0.958 . S
H841 C865 0.950 . S
H842 C867 0.951 1_556 S
H843 C869 0.950 . S
H844 C870 0.950 . S
H845 C872 0.950 . S
H846 C875 0.950 . S
H847 C876 0.950 . S
H848 C878 0.950 1_556 S
H849 C879 0.950 . S
C850 H832 0.951 . S
C850 C851 1.366 . S
C850 C852 1.388 . S
C851 C850 1.366 . S
C851 C855 1.385 . S
C852 H833 0.951 1_556 S
C852 C850 1.388 . S
C852 C853 1.366 . S
C853 C852 1.366 . S
C853 C854 1.414 . S
C853 C856 1.499 . S
C854 H834 0.950 . S
C854 C853 1.414 . S
C854 C855 1.374 . S
C855 H835 0.950 . S
C855 C851 1.385 . S
C855 C854 1.374 . S
C856 C853 1.499 . S
C856 C857 1.373 . S
C856 C858 1.389 . S
C857 H836 0.950 . S
C857 C856 1.373 . S
C857 C873 1.377 1_456 S
C858 C856 1.389 . S
C858 C859 1.524 . S
C858 C872 1.377 1_456 S
C859 C858 1.524 . S
C859 C860 1.397 . S
C859 C864 1.358 1_556 S
C860 H837 0.950 . S
C860 C859 1.397 . S
C860 C861 1.334 . S
C861 H838 0.950 . S
C861 C860 1.334 . S
C861 C862 1.287 . S
C862 C861 1.287 . S
C862 C863 1.524 . S
C862 H881 0.913 . S
C863 H839 0.950 1_556 S
C863 C862 1.524 . S
C863 C864 1.412 1_556 S
C864 H840 0.958 . S
C864 C859 1.358 1_554 S
C864 C863 1.412 1_554 S
C865 H841 0.950 . S
C865 C866 1.366 . S
C865 C867 1.388 . S
C866 C865 1.366 . S
C866 C870 1.385 . S
C867 H842 0.951 1_554 S
C867 C865 1.388 . S
C867 C868 1.366 . S
C868 C867 1.366 . S
C868 C869 1.414 . S
C868 C871 1.499 . S
C869 H843 0.950 . S
C869 C868 1.414 . S
C869 C870 1.374 . S
C870 H844 0.950 . S
C870 C866 1.385 . S
C870 C869 1.374 . S
C871 C868 1.499 . S
C871 C872 1.373 . S
C871 C873 1.389 . S
C872 H845 0.950 . S
C872 C858 1.377 1_654 S
C872 C871 1.373 . S
C873 C857 1.377 1_654 S
C873 C871 1.389 . S
C873 C874 1.524 . S
C874 C873 1.524 . S
C874 C875 1.397 . S
C874 C879 1.363 1_554 S
C875 H846 0.950 . S
C875 C874 1.397 . S
C875 C876 1.334 . S
C876 H847 0.950 . S
C876 C875 1.334 . S
C876 C877 1.287 . S
C877 C876 1.287 . S
C877 C878 1.524 . S
C877 H880 0.999 . S
C878 H848 0.950 1_554 S
C878 C877 1.524 . S
C878 C879 1.415 1_554 S
C879 H849 0.950 . S
C879 C874 1.363 1_556 S
C879 C878 1.415 1_556 S
H880 C877 0.999 . S
H881 C862 0.913 . S
H882 C900 0.951 . S
H883 C902 0.951 . S
H884 C904 0.950 . S
H885 C905 0.950 . S
H886 C907 0.950 . S
H887 C910 0.950 . S
H888 C911 0.950 . S
H889 C913 0.950 . S
H890 C914 0.950 . S
H891 C915 0.951 . S
H892 C917 0.951 . S
H893 C919 0.950 . S
H894 C920 0.950 . S
H895 C922 0.950 . S
H896 C925 0.950 . S
H897 C926 0.950 . S
H898 C928 0.950 . S
H899 C929 0.950 . S
C900 H882 0.951 . S
C900 C901 1.366 . S
C900 C902 1.388 . S
C901 C900 1.366 . S
C901 C905 1.385 . S
C902 H883 0.951 . S
C902 C900 1.388 . S
C902 C903 1.366 . S
C903 C902 1.366 . S
C903 C904 1.414 . S
C903 C906 1.499 . S
C904 H884 0.950 . S
C904 C903 1.414 . S
C904 C905 1.374 . S
C905 H885 0.950 . S
C905 C901 1.385 . S
C905 C904 1.374 . S
C906 C903 1.499 . S
C906 C907 1.373 . S
C906 C908 1.347 1_545 S
C907 H886 0.950 . S
C907 C906 1.373 . S
C907 C923 1.379 . S
C908 C906 1.347 1_565 S
C908 C909 1.540 . S
C908 C922 1.406 . S
C909 C908 1.540 . S
C909 C910 1.397 1_565 S
C909 C914 1.363 . S
C910 H887 0.950 . S
C910 C909 1.397 1_545 S
C910 C911 1.334 . S
C911 H888 0.950 . S
C911 C910 1.334 . S
C911 C912 1.287 1_545 S
C912 C911 1.287 1_565 S
C912 C913 1.524 . S
C912 H931 0.913 . S
C913 H889 0.950 . S
C913 C912 1.524 . S
C913 C914 1.415 . S
C914 H890 0.950 . S
C914 C909 1.363 . S
C914 C913 1.415 . S
C915 H891 0.951 . S
C915 C916 1.366 . S
C915 C917 1.388 . S
C916 C915 1.366 . S
C916 C920 1.385 . S
C917 H892 0.951 . S
C917 C915 1.388 . S
C917 C918 1.366 . S
C918 C917 1.366 . S
C918 C919 1.414 . S
C918 C921 1.499 . S
C919 H893 0.950 . S
C919 C918 1.414 . S
C919 C920 1.374 . S
C920 H894 0.950 . S
C920 C916 1.385 . S
C920 C919 1.374 . S
C921 C918 1.499 . S
C921 C922 1.373 . S
C921 C923 1.385 1_565 S
C922 H895 0.950 . S
C922 C908 1.406 . S
C922 C921 1.373 . S
C923 C907 1.379 . S
C923 C921 1.385 1_545 S
C923 C924 1.526 . S
C924 C923 1.526 . S
C924 C925 1.397 1_545 S
C924 C929 1.363 . S
C925 H896 0.950 . S
C925 C924 1.397 1_565 S
C925 C926 1.334 . S
C926 H897 0.950 . S
C926 C925 1.334 . S
C926 C927 1.287 1_565 S
C927 C926 1.287 1_545 S
C927 C928 1.524 . S
C927 H930 0.999 . S
C928 H898 0.950 . S
C928 C927 1.524 . S
C928 C929 1.415 . S
C929 H899 0.950 . S
C929 C924 1.363 . S
C929 C928 1.415 . S
H930 C927 0.999 . S
H931 C912 0.913 . S
H932 C950 0.951 . S
H933 C952 0.951 . S
H934 C954 0.950 . S
H935 C955 0.950 . S
H936 C957 0.950 . S
H937 C960 0.950 . S
H938 C961 0.950 . S
H939 C963 0.950 . S
H940 C964 0.950 . S
H941 C965 0.951 . S
H942 C967 0.951 . S
H943 C969 0.950 . S
H944 C970 0.950 . S
H945 C972 0.950 . S
H946 C975 0.950 . S
H947 C976 0.950 . S
H948 C978 0.950 . S
H949 C979 0.950 . S
C950 H932 0.951 . S
C950 C951 1.366 . S
C950 C952 1.388 . S
C951 C950 1.366 . S
C951 C955 1.385 . S
C952 H933 0.951 . S
C952 C950 1.388 . S
C952 C953 1.366 . S
C953 C952 1.366 . S
C953 C954 1.414 . S
C953 C956 1.499 . S
C954 H934 0.950 . S
C954 C953 1.414 . S
C954 C955 1.374 . S
C955 H935 0.950 . S
C955 C951 1.385 . S
C955 C954 1.374 . S
C956 C953 1.499 . S
C956 C957 1.373 . S
C956 C958 1.389 1_556 S
C957 H936 0.950 . S
C957 C956 1.373 . S
C957 C973 1.377 . S
C958 C956 1.389 1_554 S
C958 C959 1.524 . S
C958 C972 1.377 . S
C959 C958 1.524 . S
C959 C960 1.397 . S
C959 C964 1.363 . S
C960 H937 0.950 . S
C960 C959 1.397 . S
C960 C961 1.334 . S
C961 H938 0.950 . S
C961 C960 1.334 . S
C961 C962 1.287 . S
C962 C961 1.287 . S
C962 C963 1.524 . S
C962 H981 0.913 . S
C963 H939 0.950 . S
C963 C962 1.524 . S
C963 C964 1.415 . S
C964 H940 0.950 . S
C964 C959 1.363 . S
C964 C963 1.415 . S
C965 H941 0.951 . S
C965 C966 1.366 . S
C965 C967 1.388 . S
C966 C965 1.366 . S
C966 C970 1.385 . S
C967 H942 0.951 . S
C967 C965 1.388 . S
C967 C968 1.366 . S
C968 C967 1.366 . S
C968 C969 1.414 . S
C968 C971 1.499 . S
C969 H943 0.950 . S
C969 C968 1.414 . S
C969 C970 1.374 . S
C970 H944 0.950 . S
C970 C966 1.385 . S
C970 C969 1.374 . S
C971 C968 1.499 . S
C971 C972 1.373 . S
C971 C973 1.389 1_554 S
C972 H945 0.950 . S
C972 C958 1.377 . S
C972 C971 1.373 . S
C973 C957 1.377 . S
C973 C971 1.389 1_556 S
C973 C974 1.524 . S
C974 C973 1.524 . S
C974 C975 1.397 . S
C974 C979 1.363 . S
C975 H946 0.950 . S
C975 C974 1.397 . S
C975 C976 1.334 . S
C976 H947 0.950 . S
C976 C975 1.334 . S
C976 C977 1.287 . S
C977 C976 1.287 . S
C977 C978 1.524 . S
C977 H980 0.999 . S
C978 H948 0.950 . S
C978 C977 1.524 . S
C978 C979 1.415 . S
C979 H949 0.950 . S
C979 C974 1.363 . S
C979 C978 1.415 . S
H980 C977 0.999 . S
H981 C962 0.913 . S
H982 C1000 0.951 . S
H983 C1002 0.951 . S
H984 C1004 0.950 . S
H985 C1005 0.950 . S
H986 C1007 0.950 . S
H987 C1010 0.950 . S
H988 C1011 0.950 . S
H989 C1013 0.950 . S
H990 C1014 0.950 . S
H991 C1015 0.951 . S
H992 C1017 0.951 . S
H993 C1019 0.950 . S
H994 C1020 0.950 . S
H995 C1022 0.950 . S
H996 C1025 0.950 . S
H997 C1026 0.950 . S
H998 C1028 0.950 . S
H999 C1029 0.950 . S
C1000 H982 0.951 . S
C1000 C1001 1.366 . S
C1000 C1002 1.388 . S
C1001 C1000 1.366 . S
C1001 C1005 1.385 . S
C1002 H983 0.951 . S
C1002 C1000 1.388 . S
C1002 C1003 1.366 . S
C1003 C1002 1.366 . S
C1003 C1004 1.414 . S
C1003 C1006 1.499 . S
C1004 H984 0.950 . S
C1004 C1003 1.414 . S
C1004 C1005 1.374 . S
C1005 H985 0.950 . S
C1005 C1001 1.385 . S
C1005 C1004 1.374 . S
C1006 C1003 1.499 . S
C1006 C1007 1.373 . S
C1006 C1008 1.389 . S
C1007 H986 0.950 . S
C1007 C1006 1.373 . S
C1007 C1023 1.377 1_655 S
C1008 C1006 1.389 . S
C1008 C1009 1.524 . S
C1008 C1022 1.377 1_655 S
C1009 C1008 1.524 . S
C1009 C1010 1.397 . S
C1009 C1014 1.363 . S
C1010 H987 0.950 . S
C1010 C1009 1.397 . S
C1010 C1011 1.334 . S
C1011 H988 0.950 . S
C1011 C1010 1.334 . S
C1011 C1012 1.287 . S
C1012 C1011 1.287 . S
C1012 C1013 1.524 . S
C1012 H1031 0.913 . S
C1013 H989 0.950 . S
C1013 C1012 1.524 . S
C1013 C1014 1.415 . S
C1014 H990 0.950 . S
C1014 C1009 1.363 . S
C1014 C1013 1.415 . S
C1015 H991 0.951 . S
C1015 C1016 1.366 . S
C1015 C1017 1.388 . S
C1016 C1015 1.366 . S
C1016 C1020 1.385 . S
C1017 H992 0.951 . S
C1017 C1015 1.388 . S
C1017 C1018 1.366 . S
C1018 C1017 1.366 . S
C1018 C1019 1.414 . S
C1018 C1021 1.499 . S
C1019 H993 0.950 . S
C1019 C1018 1.414 . S
C1019 C1020 1.374 . S
C1020 H994 0.950 . S
C1020 C1016 1.385 . S
C1020 C1019 1.374 . S
C1021 C1018 1.499 . S
C1021 C1022 1.373 . S
C1021 C1023 1.389 . S
C1022 H995 0.950 . S
C1022 C1008 1.377 1_455 S
C1022 C1021 1.373 . S
C1023 C1007 1.377 1_455 S
C1023 C1021 1.389 . S
C1023 C1024 1.524 . S
C1024 C1023 1.524 . S
C1024 C1025 1.397 . S
C1024 C1029 1.363 . S
C1025 H996 0.950 . S
C1025 C1024 1.397 . S
C1025 C1026 1.334 . S
C1026 H997 0.950 . S
C1026 C1025 1.334 . S
C1026 C1027 1.287 . S
C1027 C1026 1.287 . S
C1027 C1028 1.524 . S
C1027 H1030 0.999 . S
C1028 H998 0.950 . S
C1028 C1027 1.524 . S
C1028 C1029 1.415 . S
C1029 H999 0.950 . S
C1029 C1024 1.363 . S
C1029 C1028 1.415 . S
H1030 C1027 0.999 . S
H1031 C1012 0.913 . S
H1032 C1050 0.951 . S
H1033 C1052 0.951 . S
H1034 C1054 0.950 . S
H1035 C1055 0.950 . S
H1036 C1057 0.950 . S
H1037 C1060 0.950 1_556 S
H1038 C1061 0.950 . S
H1039 C1063 0.950 . S
H1040 C1064 0.950 . S
H1041 C1065 0.951 . S
H1042 C1067 0.951 . S
H1043 C1069 0.950 . S
H1044 C1070 0.950 . S
H1045 C1072 0.950 . S
H1046 C1075 0.950 . S
H1047 C1076 0.950 . S
H1048 C1078 0.950 . S
H1049 C1079 0.950 . S
C1050 H1032 0.951 . S
C1050 C1051 1.366 . S
C1050 C1052 1.388 . S
C1051 C1050 1.366 . S
C1051 C1055 1.385 . S
C1052 H1033 0.951 . S
C1052 C1050 1.388 . S
C1052 C1053 1.366 . S
C1053 C1052 1.366 . S
C1053 C1054 1.414 . S
C1053 C1056 1.499 . S
C1054 H1034 0.950 . S
C1054 C1053 1.414 . S
C1054 C1055 1.374 . S
C1055 H1035 0.950 . S
C1055 C1051 1.385 . S
C1055 C1054 1.374 . S
C1056 C1053 1.499 . S
C1056 C1057 1.373 . S
C1056 C1058 1.389 . S
C1057 H1036 0.950 . S
C1057 C1056 1.373 . S
C1057 C1073 1.377 . S
C1058 C1056 1.389 . S
C1058 C1059 1.524 . S
C1058 C1072 1.377 . S
C1059 C1058 1.524 . S
C1059 C1060 1.397 . S
C1059 C1064 1.363 . S
C1060 H1037 0.950 1_554 S
C1060 C1059 1.397 . S
C1060 C1061 1.334 1_554 S
C1061 H1038 0.950 . S
C1061 C1060 1.334 1_556 S
C1061 C1062 1.287 . S
C1062 C1061 1.287 . S
C1062 C1063 1.524 1_556 S
C1062 H1081 0.913 . S
C1063 H1039 0.950 . S
C1063 C1062 1.524 1_554 S
C1063 C1064 1.415 . S
C1064 H1040 0.950 . S
C1064 C1059 1.363 . S
C1064 C1063 1.415 . S
C1065 H1041 0.951 . S
C1065 C1066 1.366 . S
C1065 C1067 1.388 . S
C1066 C1065 1.366 . S
C1066 C1070 1.385 . S
C1067 H1042 0.951 . S
C1067 C1065 1.388 . S
C1067 C1068 1.366 . S
C1068 C1067 1.366 . S
C1068 C1069 1.414 . S
C1068 C1071 1.499 . S
C1069 H1043 0.950 . S
C1069 C1068 1.414 . S
C1069 C1070 1.374 . S
C1070 H1044 0.950 . S
C1070 C1066 1.385 . S
C1070 C1069 1.374 . S
C1071 C1068 1.499 . S
C1071 C1072 1.373 . S
C1071 C1073 1.389 . S
C1072 H1045 0.950 . S
C1072 C1058 1.377 . S
C1072 C1071 1.373 . S
C1073 C1057 1.377 . S
C1073 C1071 1.389 . S
C1073 C1074 1.524 . S
C1074 C1073 1.524 . S
C1074 C1075 1.397 . S
C1074 C1079 1.363 . S
C1075 H1046 0.950 . S
C1075 C1074 1.397 . S
C1075 C1076 1.334 . S
C1076 H1047 0.950 . S
C1076 C1075 1.334 . S
C1076 C1077 1.287 . S
C1077 C1076 1.287 . S
C1077 C1078 1.524 . S
C1077 H1080 0.999 . S
C1078 H1048 0.950 . S
C1078 C1077 1.524 . S
C1078 C1079 1.415 . S
C1079 H1049 0.950 . S
C1079 C1074 1.363 . S
C1079 C1078 1.415 . S
H1080 C1077 0.999 . S
H1081 C1062 0.913 . S
H1082 C1100 0.951 . S
H1083 C1102 0.951 . S
H1084 C1104 0.950 . S
H1085 C1105 0.950 . S
H1086 C1107 0.950 . S
H1087 C1110 0.950 . S
H1088 C1111 0.950 . S
H1089 C1113 0.950 . S
H1090 C1114 0.950 . S
H1091 C1115 0.951 . S
H1092 C1117 0.951 . S
H1093 C1119 0.950 . S
H1094 C1120 0.950 . S
H1095 C1122 0.950 . S
H1096 C1125 0.950 . S
H1097 C1126 0.950 . S
H1098 C1128 0.950 . S
H1099 C1129 0.950 . S
C1100 H1082 0.951 . S
C1100 C1101 1.366 . S
C1100 C1102 1.388 . S
C1101 C1100 1.366 . S
C1101 C1105 1.385 . S
C1102 H1083 0.951 . S
C1102 C1100 1.388 . S
C1102 C1103 1.366 . S
C1103 C1102 1.366 . S
C1103 C1104 1.414 . S
C1103 C1106 1.499 . S
C1104 H1084 0.950 . S
C1104 C1103 1.414 . S
C1104 C1105 1.374 . S
C1105 H1085 0.950 . S
C1105 C1101 1.385 . S
C1105 C1104 1.374 . S
C1106 C1103 1.499 . S
C1106 C1107 1.373 . S
C1106 C1108 1.389 . S
C1107 H1086 0.950 . S
C1107 C1106 1.373 . S
C1107 C1123 1.377 . S
C1108 C1106 1.389 . S
C1108 C1109 1.524 . S
C1108 C1122 1.377 . S
C1109 C1108 1.524 . S
C1109 C1110 1.397 . S
C1109 C1114 1.363 . S
C1110 H1087 0.950 . S
C1110 C1109 1.397 . S
C1110 C1111 1.334 . S
C1111 H1088 0.950 . S
C1111 C1110 1.334 . S
C1111 C1112 1.287 . S
C1112 C1111 1.287 . S
C1112 C1113 1.524 . S
C1112 H1131 0.913 . S
C1113 H1089 0.950 . S
C1113 C1112 1.524 . S
C1113 C1114 1.415 . S
C1114 H1090 0.950 . S
C1114 C1109 1.363 . S
C1114 C1113 1.415 . S
C1115 H1091 0.951 . S
C1115 C1116 1.366 . S
C1115 C1117 1.388 . S
C1116 C1115 1.366 . S
C1116 C1120 1.385 . S
C1117 H1092 0.951 . S
C1117 C1115 1.388 . S
C1117 C1118 1.366 . S
C1118 C1117 1.366 . S
C1118 C1119 1.414 . S
C1118 C1121 1.499 . S
C1119 H1093 0.950 . S
C1119 C1118 1.414 . S
C1119 C1120 1.374 . S
C1120 H1094 0.950 . S
C1120 C1116 1.385 . S
C1120 C1119 1.374 . S
C1121 C1118 1.499 . S
C1121 C1122 1.373 . S
C1121 C1123 1.389 . S
C1122 H1095 0.950 . S
C1122 C1108 1.377 . S
C1122 C1121 1.373 . S
C1123 C1107 1.377 . S
C1123 C1121 1.389 . S
C1123 C1124 1.524 . S
C1124 C1123 1.524 . S
C1124 C1125 1.397 . S
C1124 C1129 1.363 . S
C1125 H1096 0.950 . S
C1125 C1124 1.397 . S
C1125 C1126 1.334 . S
C1126 H1097 0.950 . S
C1126 C1125 1.334 . S
C1126 C1127 1.287 . S
C1127 C1126 1.287 . S
C1127 C1128 1.524 . S
C1127 H1130 0.999 . S
C1128 H1098 0.950 . S
C1128 C1127 1.524 . S
C1128 C1129 1.415 . S
C1129 H1099 0.950 . S
C1129 C1124 1.363 . S
C1129 C1128 1.415 . S
H1130 C1127 0.999 . S
H1131 C1112 0.913 . S
H1132 C1150 0.951 . S
H1133 C1152 0.951 . S
H1134 C1154 0.950 . S
H1135 C1155 0.950 . S
H1136 C1157 0.950 . S
H1137 C1160 0.950 . S
H1138 C1161 0.950 . S
H1139 C1163 0.950 . S
H1140 C1164 0.950 . S
H1141 C1165 0.951 . S
H1142 C1167 0.951 . S
H1143 C1169 0.950 . S
H1144 C1170 0.950 . S
H1145 C1172 0.950 . S
H1146 C1175 0.950 . S
H1147 C1176 0.950 . S
H1148 C1178 0.950 . S
H1149 C1179 0.950 1_554 S
C1150 H1132 0.951 . S
C1150 C1151 1.366 . S
C1150 C1152 1.388 . S
C1151 C1150 1.366 . S
C1151 C1155 1.385 . S
C1152 H1133 0.951 . S
C1152 C1150 1.388 . S
C1152 C1153 1.366 . S
C1153 C1152 1.366 . S
C1153 C1154 1.414 . S
C1153 C1156 1.499 . S
C1154 H1134 0.950 . S
C1154 C1153 1.414 . S
C1154 C1155 1.374 . S
C1155 H1135 0.950 . S
C1155 C1151 1.385 . S
C1155 C1154 1.374 . S
C1156 C1153 1.499 . S
C1156 C1157 1.373 . S
C1156 C1158 1.389 . S
C1157 H1136 0.950 . S
C1157 C1156 1.373 . S
C1157 C1173 1.377 . S
C1158 C1156 1.389 . S
C1158 C1159 1.524 . S
C1158 C1172 1.377 . S
C1159 C1158 1.524 . S
C1159 C1160 1.397 . S
C1159 C1164 1.363 . S
C1160 H1137 0.950 . S
C1160 C1159 1.397 . S
C1160 C1161 1.334 . S
C1161 H1138 0.950 . S
C1161 C1160 1.334 . S
C1161 C1162 1.287 . S
C1162 C1161 1.287 . S
C1162 C1163 1.524 . S
C1162 H1181 0.913 . S
C1163 H1139 0.950 . S
C1163 C1162 1.524 . S
C1163 C1164 1.415 . S
C1164 H1140 0.950 . S
C1164 C1159 1.363 . S
C1164 C1163 1.415 . S
C1165 H1141 0.951 . S
C1165 C1166 1.366 . S
C1165 C1167 1.388 . S
C1166 C1165 1.366 . S
C1166 C1170 1.385 . S
C1167 H1142 0.951 . S
C1167 C1165 1.388 . S
C1167 C1168 1.366 . S
C1168 C1167 1.366 . S
C1168 C1169 1.414 . S
C1168 C1171 1.499 . S
C1169 H1143 0.950 . S
C1169 C1168 1.414 . S
C1169 C1170 1.374 . S
C1170 H1144 0.950 . S
C1170 C1166 1.385 . S
C1170 C1169 1.374 . S
C1171 C1168 1.499 . S
C1171 C1172 1.373 . S
C1171 C1173 1.389 . S
C1172 H1145 0.950 . S
C1172 C1158 1.377 . S
C1172 C1171 1.373 . S
C1173 C1157 1.377 . S
C1173 C1171 1.389 . S
C1173 C1174 1.524 . S
C1174 C1173 1.524 . S
C1174 C1175 1.397 1_554 S
C1174 C1179 1.363 1_554 S
C1175 H1146 0.950 . S
C1175 C1174 1.397 1_556 S
C1175 C1176 1.334 . S
C1176 H1147 0.950 . S
C1176 C1175 1.334 . S
C1176 C1177 1.287 . S
C1177 C1176 1.287 . S
C1177 C1178 1.524 . S
C1177 H1180 0.999 . S
C1178 H1148 0.950 . S
C1178 C1177 1.524 . S
C1178 C1179 1.415 . S
C1179 H1149 0.950 1_556 S
C1179 C1174 1.363 1_556 S
C1179 C1178 1.415 . S
H1180 C1177 0.999 . S
H1181 C1162 0.913 . S
H1182 C1200 0.951 . S
H1183 C1202 0.951 . S
H1184 C1204 0.950 . S
H1185 C1205 0.950 . S
H1186 C1207 0.950 . S
H1187 C1210 0.950 . S
H1188 C1211 0.950 . S
H1189 C1213 0.950 . S
H1190 C1214 0.950 . S
H1191 C1215 0.951 . S
H1192 C1217 0.951 . S
H1193 C1219 0.950 . S
H1194 C1220 0.950 . S
H1195 C1222 0.950 . S
H1196 C1225 0.950 . S
H1197 C1226 0.950 . S
H1198 C1228 0.950 . S
H1199 C1229 0.950 . S
C1200 H1182 0.951 . S
C1200 C1201 1.366 . S
C1200 C1202 1.388 . S
C1201 C1200 1.366 . S
C1201 C1205 1.385 . S
C1202 H1183 0.951 . S
C1202 C1200 1.388 . S
C1202 C1203 1.366 . S
C1203 C1202 1.366 . S
C1203 C1204 1.414 . S
C1203 C1206 1.499 . S
C1204 H1184 0.950 . S
C1204 C1203 1.414 . S
C1204 C1205 1.374 . S
C1205 H1185 0.950 . S
C1205 C1201 1.385 . S
C1205 C1204 1.374 . S
C1206 C1203 1.499 . S
C1206 C1207 1.373 . S
C1206 C1208 1.389 . S
C1207 H1186 0.950 . S
C1207 C1206 1.373 . S
C1207 C1223 1.377 . S
C1208 C1206 1.389 . S
C1208 C1209 1.524 . S
C1208 C1222 1.377 . S
C1209 C1208 1.524 . S
C1209 C1210 1.397 . S
C1209 C1214 1.363 . S
C1210 H1187 0.950 . S
C1210 C1209 1.397 . S
C1210 C1211 1.334 . S
C1211 H1188 0.950 . S
C1211 C1210 1.334 . S
C1211 C1212 1.287 . S
C1212 C1211 1.287 . S
C1212 C1213 1.524 . S
C1212 H1231 0.913 . S
C1213 H1189 0.950 . S
C1213 C1212 1.524 . S
C1213 C1214 1.415 . S
C1214 H1190 0.950 . S
C1214 C1209 1.363 . S
C1214 C1213 1.415 . S
C1215 H1191 0.951 . S
C1215 C1216 1.366 . S
C1215 C1217 1.388 . S
C1216 C1215 1.366 . S
C1216 C1220 1.385 . S
C1217 H1192 0.951 . S
C1217 C1215 1.388 . S
C1217 C1218 1.366 . S
C1218 C1217 1.366 . S
C1218 C1219 1.414 . S
C1218 C1221 1.499 . S
C1219 H1193 0.950 . S
C1219 C1218 1.414 . S
C1219 C1220 1.374 . S
C1220 H1194 0.950 . S
C1220 C1216 1.385 . S
C1220 C1219 1.374 . S
C1221 C1218 1.499 . S
C1221 C1222 1.373 . S
C1221 C1223 1.389 . S
C1222 H1195 0.950 . S
C1222 C1208 1.377 . S
C1222 C1221 1.373 . S
C1223 C1207 1.377 . S
C1223 C1221 1.389 . S
C1223 C1224 1.524 . S
C1224 C1223 1.524 . S
C1224 C1225 1.397 . S
C1224 C1229 1.363 . S
C1225 H1196 0.950 . S
C1225 C1224 1.397 . S
C1225 C1226 1.334 . S
C1226 H1197 0.950 . S
C1226 C1225 1.334 . S
C1226 C1227 1.287 . S
C1227 C1226 1.287 . S
C1227 C1228 1.524 . S
C1227 H1230 0.999 . S
C1228 H1198 0.950 . S
C1228 C1227 1.524 . S
C1228 C1229 1.415 . S
C1229 H1199 0.950 . S
C1229 C1224 1.363 . S
C1229 C1228 1.415 . S
H1230 C1227 0.999 . S
H1231 C1212 0.913 . S
H1232 C1250 0.951 . S
H1233 C1252 0.951 . S
H1234 C1254 0.950 . S
H1235 C1255 0.950 . S
H1236 C1257 0.950 . S
H1237 C1260 0.950 . S
H1238 C1261 0.950 . S
H1239 C1263 0.950 . S
H1240 C1264 0.950 . S
H1241 C1265 0.951 . S
H1242 C1267 0.951 . S
H1243 C1269 0.950 . S
H1244 C1270 0.950 . S
H1245 C1272 0.950 . S
H1246 C1275 0.950 . S
H1247 C1276 0.950 . S
H1248 C1278 0.950 . S
H1249 C1279 0.950 . S
C1250 H1232 0.951 . S
C1250 C1251 1.366 . S
C1250 C1252 1.388 . S
C1251 C1250 1.366 . S
C1251 C1255 1.385 . S
C1252 H1233 0.951 . S
C1252 C1250 1.388 . S
C1252 C1253 1.366 . S
C1253 C1252 1.366 . S
C1253 C1254 1.414 . S
C1253 C1256 1.499 . S
C1254 H1234 0.950 . S
C1254 C1253 1.414 . S
C1254 C1255 1.374 . S
C1255 H1235 0.950 . S
C1255 C1251 1.385 . S
C1255 C1254 1.374 . S
C1256 C1253 1.499 . S
C1256 C1257 1.373 . S
C1256 C1258 1.389 . S
C1257 H1236 0.950 . S
C1257 C1256 1.373 . S
C1257 C1273 1.377 . S
C1258 C1256 1.389 . S
C1258 C1259 1.524 . S
C1258 C1272 1.377 . S
C1259 C1258 1.524 . S
C1259 C1260 1.397 . S
C1259 C1264 1.363 . S
C1260 H1237 0.950 . S
C1260 C1259 1.397 . S
C1260 C1261 1.334 . S
C1261 H1238 0.950 . S
C1261 C1260 1.334 . S
C1261 C1262 1.287 . S
C1262 C1261 1.287 . S
C1262 C1263 1.524 . S
C1262 H1281 0.913 . S
C1263 H1239 0.950 . S
C1263 C1262 1.524 . S
C1263 C1264 1.415 . S
C1264 H1240 0.950 . S
C1264 C1259 1.363 . S
C1264 C1263 1.415 . S
C1265 H1241 0.951 . S
C1265 C1266 1.366 . S
C1265 C1267 1.388 . S
C1266 C1265 1.366 . S
C1266 C1270 1.385 . S
C1267 H1242 0.951 . S
C1267 C1265 1.388 . S
C1267 C1268 1.366 . S
C1268 C1267 1.366 . S
C1268 C1269 1.414 . S
C1268 C1271 1.499 . S
C1269 H1243 0.950 . S
C1269 C1268 1.414 . S
C1269 C1270 1.374 . S
C1270 H1244 0.950 . S
C1270 C1266 1.385 . S
C1270 C1269 1.374 . S
C1271 C1268 1.499 . S
C1271 C1272 1.373 . S
C1271 C1273 1.389 . S
C1272 H1245 0.950 . S
C1272 C1258 1.377 . S
C1272 C1271 1.373 . S
C1273 C1257 1.377 . S
C1273 C1271 1.389 . S
C1273 C1274 1.524 . S
C1274 C1273 1.524 . S
C1274 C1275 1.397 . S
C1274 C1279 1.363 . S
C1275 H1246 0.950 . S
C1275 C1274 1.397 . S
C1275 C1276 1.334 1_554 S
C1276 H1247 0.950 . S
C1276 C1275 1.334 1_556 S
C1276 C1277 1.287 . S
C1277 C1276 1.287 . S
C1277 C1278 1.524 1_556 S
C1277 H1280 0.999 . S
C1278 H1248 0.950 . S
C1278 C1277 1.524 1_554 S
C1278 C1279 1.415 . S
C1279 H1249 0.950 . S
C1279 C1274 1.363 . S
C1279 C1278 1.415 . S
H1280 C1277 0.999 . S
H1281 C1262 0.913 . S
H1282 C1300 0.951 . S
H1283 C1302 0.951 . S
H1284 C1304 0.950 . S
H1285 C1305 0.950 . S
H1286 C1307 0.950 . S
H1287 C1310 0.950 . S
H1288 C1311 0.950 . S
H1289 C1313 0.950 . S
H1290 C1314 0.950 . S
H1291 C1315 0.951 . S
H1292 C1317 0.951 . S
H1293 C1319 0.950 . S
H1294 C1320 0.950 . S
H1295 C1322 0.950 . S
H1296 C1325 0.950 . S
H1297 C1326 0.950 . S
H1298 C1328 0.950 . S
H1299 C1329 0.950 . S
C1300 H1282 0.951 . S
C1300 C1301 1.366 . S
C1300 C1302 1.388 . S
C1301 C1300 1.366 . S
C1301 C1305 1.385 . S
C1302 H1283 0.951 . S
C1302 C1300 1.388 . S
C1302 C1303 1.366 . S
C1303 C1302 1.366 . S
C1303 C1304 1.414 . S
C1303 C1306 1.499 . S
C1304 H1284 0.950 . S
C1304 C1303 1.414 . S
C1304 C1305 1.374 . S
C1305 H1285 0.950 . S
C1305 C1301 1.385 . S
C1305 C1304 1.374 . S
C1306 C1303 1.499 . S
C1306 C1307 1.373 . S
C1306 C1308 1.389 . S
C1307 H1286 0.950 . S
C1307 C1306 1.373 . S
C1307 C1323 1.377 . S
C1308 C1306 1.389 . S
C1308 C1309 1.524 . S
C1308 C1322 1.377 . S
C1309 C1308 1.524 . S
C1309 C1310 1.397 . S
C1309 C1314 1.363 . S
C1310 H1287 0.950 . S
C1310 C1309 1.397 . S
C1310 C1311 1.334 . S
C1311 H1288 0.950 . S
C1311 C1310 1.334 . S
C1311 C1312 1.287 . S
C1312 C1311 1.287 . S
C1312 C1313 1.524 . S
C1312 H1331 0.913 . S
C1313 H1289 0.950 . S
C1313 C1312 1.524 . S
C1313 C1314 1.415 . S
C1314 H1290 0.950 . S
C1314 C1309 1.363 . S
C1314 C1313 1.415 . S
C1315 H1291 0.951 . S
C1315 C1316 1.366 . S
C1315 C1317 1.388 . S
C1316 C1315 1.366 . S
C1316 C1320 1.385 . S
C1317 H1292 0.951 . S
C1317 C1315 1.388 . S
C1317 C1318 1.366 . S
C1318 C1317 1.366 . S
C1318 C1319 1.414 . S
C1318 C1321 1.499 . S
C1319 H1293 0.950 . S
C1319 C1318 1.414 . S
C1319 C1320 1.374 . S
C1320 H1294 0.950 . S
C1320 C1316 1.385 . S
C1320 C1319 1.374 . S
C1321 C1318 1.499 . S
C1321 C1322 1.373 . S
C1321 C1323 1.389 . S
C1322 H1295 0.950 . S
C1322 C1308 1.377 . S
C1322 C1321 1.373 . S
C1323 C1307 1.377 . S
C1323 C1321 1.389 . S
C1323 C1324 1.524 . S
C1324 C1323 1.524 . S
C1324 C1325 1.397 . S
C1324 C1329 1.363 . S
C1325 H1296 0.950 . S
C1325 C1324 1.397 . S
C1325 C1326 1.334 . S
C1326 H1297 0.950 . S
C1326 C1325 1.334 . S
C1326 C1327 1.287 . S
C1327 C1326 1.287 . S
C1327 C1328 1.524 . S
C1327 H1330 0.999 . S
C1328 H1298 0.950 . S
C1328 C1327 1.524 . S
C1328 C1329 1.415 . S
C1329 H1299 0.950 . S
C1329 C1324 1.363 . S
C1329 C1328 1.415 . S
H1330 C1327 0.999 . S
H1331 C1312 0.913 . S
H1332 C1350 0.951 . S
H1333 C1352 0.951 . S
H1334 C1354 0.950 . S
H1335 C1355 0.950 . S
H1336 C1357 0.950 . S
H1337 C1360 0.950 . S
H1338 C1361 0.950 . S
H1339 C1363 0.950 . S
H1340 C1364 0.950 . S
H1341 C1365 0.951 . S
H1342 C1367 0.951 . S
H1343 C1369 0.950 . S
H1344 C1370 0.950 . S
H1345 C1372 0.950 . S
H1346 C1375 0.950 . S
H1347 C1376 0.950 . S
H1348 C1378 0.950 . S
H1349 C1379 0.950 . S
C1350 H1332 0.951 . S
C1350 C1351 1.366 . S
C1350 C1352 1.388 . S
C1351 C1350 1.366 . S
C1351 C1355 1.385 . S
C1352 H1333 0.951 . S
C1352 C1350 1.388 . S
C1352 C1353 1.366 . S
C1353 C1352 1.366 . S
C1353 C1354 1.414 . S
C1353 C1356 1.499 . S
C1354 H1334 0.950 . S
C1354 C1353 1.414 . S
C1354 C1355 1.374 . S
C1355 H1335 0.950 . S
C1355 C1351 1.385 . S
C1355 C1354 1.374 . S
C1356 C1353 1.499 . S
C1356 C1357 1.373 . S
C1356 C1358 1.389 . S
C1357 H1336 0.950 . S
C1357 C1356 1.373 . S
C1357 C1373 1.377 . S
C1358 C1356 1.389 . S
C1358 C1359 1.524 . S
C1358 C1372 1.377 . S
C1359 C1358 1.524 . S
C1359 C1360 1.397 . S
C1359 C1364 1.363 . S
C1360 H1337 0.950 . S
C1360 C1359 1.397 . S
C1360 C1361 1.334 . S
C1361 H1338 0.950 . S
C1361 C1360 1.334 . S
C1361 C1362 1.287 . S
C1362 C1361 1.287 . S
C1362 C1363 1.524 . S
C1362 H1381 0.913 . S
C1363 H1339 0.950 . S
C1363 C1362 1.524 . S
C1363 C1364 1.415 . S
C1364 H1340 0.950 . S
C1364 C1359 1.363 . S
C1364 C1363 1.415 . S
C1365 H1341 0.951 . S
C1365 C1366 1.366 . S
C1365 C1367 1.388 . S
C1366 C1365 1.366 . S
C1366 C1370 1.385 . S
C1367 H1342 0.951 . S
C1367 C1365 1.388 . S
C1367 C1368 1.366 . S
C1368 C1367 1.366 . S
C1368 C1369 1.414 . S
C1368 C1371 1.499 . S
C1369 H1343 0.950 . S
C1369 C1368 1.414 . S
C1369 C1370 1.374 . S
C1370 H1344 0.950 . S
C1370 C1366 1.385 . S
C1370 C1369 1.374 . S
C1371 C1368 1.499 . S
C1371 C1372 1.373 . S
C1371 C1373 1.389 . S
C1372 H1345 0.950 . S
C1372 C1358 1.377 . S
C1372 C1371 1.373 . S
C1373 C1357 1.377 . S
C1373 C1371 1.389 . S
C1373 C1374 1.524 . S
C1374 C1373 1.524 . S
C1374 C1375 1.397 . S
C1374 C1379 1.363 . S
C1375 H1346 0.950 . S
C1375 C1374 1.397 . S
C1375 C1376 1.334 . S
C1376 H1347 0.950 . S
C1376 C1375 1.334 . S
C1376 C1377 1.287 . S
C1377 C1376 1.287 . S
C1377 C1378 1.524 . S
C1377 H1380 0.999 . S
C1378 H1348 0.950 . S
C1378 C1377 1.524 . S
C1378 C1379 1.415 . S
C1379 H1349 0.950 . S
C1379 C1374 1.363 . S
C1379 C1378 1.415 . S
H1380 C1377 0.999 . S
H1381 C1362 0.913 . S
H1382 C1400 0.951 . S
H1383 C1402 0.951 . S
H1384 C1404 0.950 . S
H1385 C1405 0.950 . S
H1386 C1407 0.950 . S
H1387 C1410 0.950 . S
H1388 C1411 0.950 . S
H1389 C1413 0.950 . S
H1390 C1414 0.950 . S
H1391 C1415 0.951 . S
H1392 C1417 0.951 . S
H1393 C1419 0.950 . S
H1394 C1420 0.950 . S
H1395 C1422 0.950 . S
H1396 C1425 0.950 . S
H1397 C1426 0.950 . S
H1398 C1428 0.950 . S
H1399 C1429 0.950 . S
C1400 H1382 0.951 . S
C1400 C1401 1.366 . S
C1400 C1402 1.388 . S
C1401 C1400 1.366 . S
C1401 C1405 1.385 . S
C1402 H1383 0.951 . S
C1402 C1400 1.388 . S
C1402 C1403 1.366 . S
C1403 C1402 1.366 . S
C1403 C1404 1.414 . S
C1403 C1406 1.499 . S
C1404 H1384 0.950 . S
C1404 C1403 1.414 . S
C1404 C1405 1.374 . S
C1405 H1385 0.950 . S
C1405 C1401 1.385 . S
C1405 C1404 1.374 . S
C1406 C1403 1.499 . S
C1406 C1407 1.373 . S
C1406 C1408 1.389 . S
C1407 H1386 0.950 . S
C1407 C1406 1.373 . S
C1407 C1423 1.377 . S
C1408 C1406 1.389 . S
C1408 C1409 1.524 . S
C1408 C1422 1.377 . S
C1409 C1408 1.524 . S
C1409 C1410 1.397 . S
C1409 C1414 1.363 . S
C1410 H1387 0.950 . S
C1410 C1409 1.397 . S
C1410 C1411 1.334 . S
C1411 H1388 0.950 . S
C1411 C1410 1.334 . S
C1411 C1412 1.287 . S
C1412 C1411 1.287 . S
C1412 C1413 1.524 . S
C1412 H1431 0.913 . S
C1413 H1389 0.950 . S
C1413 C1412 1.524 . S
C1413 C1414 1.415 . S
C1414 H1390 0.950 . S
C1414 C1409 1.363 . S
C1414 C1413 1.415 . S
C1415 H1391 0.951 . S
C1415 C1416 1.366 . S
C1415 C1417 1.388 . S
C1416 C1415 1.366 . S
C1416 C1420 1.385 . S
C1417 H1392 0.951 . S
C1417 C1415 1.388 . S
C1417 C1418 1.366 . S
C1418 C1417 1.366 . S
C1418 C1419 1.414 . S
C1418 C1421 1.499 . S
C1419 H1393 0.950 . S
C1419 C1418 1.414 . S
C1419 C1420 1.374 . S
C1420 H1394 0.950 . S
C1420 C1416 1.385 . S
C1420 C1419 1.374 . S
C1421 C1418 1.499 . S
C1421 C1422 1.373 . S
C1421 C1423 1.389 . S
C1422 H1395 0.950 . S
C1422 C1408 1.377 . S
C1422 C1421 1.373 . S
C1423 C1407 1.377 . S
C1423 C1421 1.389 . S
C1423 C1424 1.524 1_556 S
C1424 C1423 1.524 1_554 S
C1424 C1425 1.397 . S
C1424 C1429 1.363 . S
C1425 H1396 0.950 . S
C1425 C1424 1.397 . S
C1425 C1426 1.334 . S
C1426 H1397 0.950 . S
C1426 C1425 1.334 . S
C1426 C1427 1.287 . S
C1427 C1426 1.287 . S
C1427 C1428 1.524 . S
C1427 H1430 0.999 . S
C1428 H1398 0.950 . S
C1428 C1427 1.524 . S
C1428 C1429 1.415 . S
C1429 H1399 0.950 . S
C1429 C1424 1.363 . S
C1429 C1428 1.415 . S
H1430 C1427 0.999 . S
H1431 C1412 0.913 . S
H1432 C1450 0.951 . S
H1433 C1452 0.951 . S
H1434 C1454 0.950 . S
H1435 C1455 0.950 . S
H1436 C1457 0.950 . S
H1437 C1460 0.950 . S
H1438 C1461 0.950 . S
H1439 C1463 0.950 . S
H1440 C1464 0.950 . S
H1441 C1465 0.951 . S
H1442 C1467 0.951 . S
H1443 C1469 0.950 . S
H1444 C1470 0.950 . S
H1445 C1472 0.950 . S
H1446 C1475 0.950 . S
H1447 C1476 0.950 . S
H1448 C1478 0.950 . S
H1449 C1479 0.950 . S
C1450 H1432 0.951 . S
C1450 C1451 1.366 . S
C1450 C1452 1.388 . S
C1451 C1450 1.366 . S
C1451 C1455 1.385 . S
C1452 H1433 0.951 . S
C1452 C1450 1.388 . S
C1452 C1453 1.366 . S
C1453 C1452 1.366 . S
C1453 C1454 1.414 . S
C1453 C1456 1.499 . S
C1454 H1434 0.950 . S
C1454 C1453 1.414 . S
C1454 C1455 1.374 . S
C1455 H1435 0.950 . S
C1455 C1451 1.385 . S
C1455 C1454 1.374 . S
C1456 C1453 1.499 . S
C1456 C1457 1.373 . S
C1456 C1458 1.389 . S
C1457 H1436 0.950 . S
C1457 C1456 1.373 . S
C1457 C1473 1.377 . S
C1458 C1456 1.389 . S
C1458 C1459 1.524 . S
C1458 C1472 1.377 . S
C1459 C1458 1.524 . S
C1459 C1460 1.397 . S
C1459 C1464 1.363 . S
C1460 H1437 0.950 . S
C1460 C1459 1.397 . S
C1460 C1461 1.334 . S
C1461 H1438 0.950 . S
C1461 C1460 1.334 . S
C1461 C1462 1.287 . S
C1462 C1461 1.287 . S
C1462 C1463 1.524 . S
C1462 H1481 0.913 . S
C1463 H1439 0.950 . S
C1463 C1462 1.524 . S
C1463 C1464 1.415 . S
C1464 H1440 0.950 . S
C1464 C1459 1.363 . S
C1464 C1463 1.415 . S
C1465 H1441 0.951 . S
C1465 C1466 1.366 . S
C1465 C1467 1.388 . S
C1466 C1465 1.366 . S
C1466 C1470 1.385 . S
C1467 H1442 0.951 . S
C1467 C1465 1.388 . S
C1467 C1468 1.366 . S
C1468 C1467 1.366 . S
C1468 C1469 1.414 . S
C1468 C1471 1.499 . S
C1469 H1443 0.950 . S
C1469 C1468 1.414 . S
C1469 C1470 1.374 . S
C1470 H1444 0.950 . S
C1470 C1466 1.385 . S
C1470 C1469 1.374 . S
C1471 C1468 1.499 . S
C1471 C1472 1.373 . S
C1471 C1473 1.389 . S
C1472 H1445 0.950 . S
C1472 C1458 1.377 . S
C1472 C1471 1.373 . S
C1473 C1457 1.377 . S
C1473 C1471 1.389 . S
C1473 C1474 1.524 . S
C1474 C1473 1.524 . S
C1474 C1475 1.397 . S
C1474 C1479 1.363 . S
C1475 H1446 0.950 . S
C1475 C1474 1.397 . S
C1475 C1476 1.334 . S
C1476 H1447 0.950 . S
C1476 C1475 1.334 . S
C1476 C1477 1.287 . S
C1477 C1476 1.287 . S
C1477 C1478 1.524 . S
C1477 H1480 0.999 . S
C1478 H1448 0.950 . S
C1478 C1477 1.524 . S
C1478 C1479 1.415 . S
C1479 H1449 0.950 . S
C1479 C1474 1.363 . S
C1479 C1478 1.415 . S
H1480 C1477 0.999 . S
H1481 C1462 0.913 . S
H1482 C1500 0.951 . S
H1483 C1502 0.951 . S
H1484 C1504 0.950 . S
H1485 C1505 0.950 . S
H1486 C1507 0.950 . S
H1487 C1510 0.950 . S
H1488 C1511 0.950 . S
H1489 C1513 0.950 . S
H1490 C1514 0.950 . S
H1491 C1515 0.951 . S
H1492 C1517 0.951 . S
H1493 C1519 0.950 . S
H1494 C1520 0.950 . S
H1495 C1522 0.950 . S
H1496 C1525 0.950 . S
H1497 C1526 0.950 . S
H1498 C1528 0.910 1_554 S
H1499 C1529 0.950 1_554 S
C1500 H1482 0.951 . S
C1500 C1501 1.366 . S
C1500 C1502 1.388 . S
C1501 C1500 1.366 . S
C1501 C1505 1.385 . S
C1502 H1483 0.951 . S
C1502 C1500 1.388 . S
C1502 C1503 1.366 . S
C1503 C1502 1.366 . S
C1503 C1504 1.414 . S
C1503 C1506 1.499 . S
C1504 H1484 0.950 . S
C1504 C1503 1.414 . S
C1504 C1505 1.374 . S
C1505 H1485 0.950 . S
C1505 C1501 1.385 . S
C1505 C1504 1.374 . S
C1506 C1503 1.499 . S
C1506 C1507 1.373 . S
C1506 C1508 1.389 . S
C1507 H1486 0.950 . S
C1507 C1506 1.373 . S
C1507 C1523 1.377 . S
C1508 C1506 1.389 . S
C1508 C1509 1.524 . S
C1508 C1522 1.377 . S
C1509 C1508 1.524 . S
C1509 C1510 1.397 . S
C1509 C1514 1.363 . S
C1510 H1487 0.950 . S
C1510 C1509 1.397 . S
C1510 C1511 1.334 . S
C1511 H1488 0.950 . S
C1511 C1510 1.334 . S
C1511 C1512 1.287 . S
C1512 C1511 1.287 . S
C1512 C1513 1.524 . S
C1512 H1531 0.913 . S
C1513 H1489 0.950 . S
C1513 C1512 1.524 . S
C1513 C1514 1.415 . S
C1514 H1490 0.950 . S
C1514 C1509 1.363 . S
C1514 C1513 1.415 . S
C1515 H1491 0.951 . S
C1515 C1516 1.366 . S
C1515 C1517 1.388 . S
C1516 C1515 1.366 . S
C1516 C1520 1.385 . S
C1517 H1492 0.951 . S
C1517 C1515 1.388 . S
C1517 C1518 1.366 . S
C1518 C1517 1.366 . S
C1518 C1519 1.414 . S
C1518 C1521 1.499 . S
C1519 H1493 0.950 . S
C1519 C1518 1.414 . S
C1519 C1520 1.374 . S
C1520 H1494 0.950 . S
C1520 C1516 1.385 . S
C1520 C1519 1.374 . S
C1521 C1518 1.499 . S
C1521 C1522 1.373 . S
C1521 C1523 1.389 . S
C1522 H1495 0.950 . S
C1522 C1508 1.377 . S
C1522 C1521 1.373 . S
C1523 C1507 1.377 . S
C1523 C1521 1.389 . S
C1523 C1524 1.524 . S
C1524 C1523 1.524 . S
C1524 C1525 1.397 . S
C1524 C1529 1.363 . S
C1525 H1496 0.950 . S
C1525 C1524 1.397 . S
C1525 C1526 1.334 . S
C1526 H1497 0.950 . S
C1526 C1525 1.334 . S
C1526 C1527 1.287 . S
C1527 C1526 1.287 . S
C1527 C1528 1.557 . S
C1527 H1530 0.999 . S
C1528 H1498 0.910 1_556 S
C1528 C1527 1.557 . S
C1528 C1529 1.428 . S
C1529 H1499 0.950 1_556 S
C1529 C1524 1.363 . S
C1529 C1528 1.428 . S
H1530 C1527 0.999 . S
H1531 C1512 0.913 . S
H1532 C1550 0.951 . S
H1533 C1552 0.951 . S
H1534 C1554 0.950 . S
H1535 C1555 0.950 . S
H1536 C1557 0.950 . S
H1537 C1560 0.950 . S
H1538 C1561 0.950 . S
H1539 C1563 0.950 . S
H1540 C1564 0.950 . S
H1541 C1565 0.951 . S
H1542 C1567 0.951 . S
H1543 C1569 0.950 . S
H1544 C1570 0.950 . S
H1545 C1572 0.950 . S
H1546 C1575 0.950 . S
H1547 C1576 0.950 . S
H1548 C1578 0.950 . S
H1549 C1579 0.950 . S
C1550 H1532 0.951 . S
C1550 C1551 1.366 . S
C1550 C1552 1.388 . S
C1551 C1550 1.366 . S
C1551 C1555 1.385 . S
C1552 H1533 0.951 . S
C1552 C1550 1.388 . S
C1552 C1553 1.366 . S
C1553 C1552 1.366 . S
C1553 C1554 1.414 . S
C1553 C1556 1.499 . S
C1554 H1534 0.950 . S
C1554 C1553 1.414 . S
C1554 C1555 1.374 . S
C1555 H1535 0.950 . S
C1555 C1551 1.385 . S
C1555 C1554 1.374 . S
C1556 C1553 1.499 . S
C1556 C1557 1.373 . S
C1556 C1558 1.389 . S
C1557 H1536 0.950 . S
C1557 C1556 1.373 . S
C1557 C1573 1.377 . S
C1558 C1556 1.389 . S
C1558 C1559 1.524 . S
C1558 C1572 1.377 . S
C1559 C1558 1.524 . S
C1559 C1560 1.397 . S
C1559 C1564 1.363 . S
C1560 H1537 0.950 . S
C1560 C1559 1.397 . S
C1560 C1561 1.334 . S
C1561 H1538 0.950 . S
C1561 C1560 1.334 . S
C1561 C1562 1.287 . S
C1562 C1561 1.287 . S
C1562 C1563 1.524 . S
C1562 H1581 0.913 . S
C1563 H1539 0.950 . S
C1563 C1562 1.524 . S
C1563 C1564 1.415 . S
C1564 H1540 0.950 . S
C1564 C1559 1.363 . S
C1564 C1563 1.415 . S
C1565 H1541 0.951 . S
C1565 C1566 1.366 . S
C1565 C1567 1.388 . S
C1566 C1565 1.366 . S
C1566 C1570 1.385 . S
C1567 H1542 0.951 . S
C1567 C1565 1.388 . S
C1567 C1568 1.366 . S
C1568 C1567 1.366 . S
C1568 C1569 1.414 . S
C1568 C1571 1.499 . S
C1569 H1543 0.950 . S
C1569 C1568 1.414 . S
C1569 C1570 1.374 . S
C1570 H1544 0.950 . S
C1570 C1566 1.385 . S
C1570 C1569 1.374 . S
C1571 C1568 1.499 . S
C1571 C1572 1.373 . S
C1571 C1573 1.389 . S
C1572 H1545 0.950 . S
C1572 C1558 1.377 . S
C1572 C1571 1.373 . S
C1573 C1557 1.377 . S
C1573 C1571 1.389 . S
C1573 C1574 1.524 . S
C1574 C1573 1.524 . S
C1574 C1575 1.397 . S
C1574 C1579 1.363 . S
C1575 H1546 0.950 . S
C1575 C1574 1.397 . S
C1575 C1576 1.334 . S
C1576 H1547 0.950 . S
C1576 C1575 1.334 . S
C1576 C1577 1.287 . S
C1577 C1576 1.287 . S
C1577 C1578 1.524 . S
C1577 H1580 0.999 . S
C1578 H1548 0.950 . S
C1578 C1577 1.524 . S
C1578 C1579 1.415 . S
C1579 H1549 0.950 . S
C1579 C1574 1.363 . S
C1579 C1578 1.415 . S
H1580 C1577 0.999 . S
H1581 C1562 0.913 . S
H1582 C1600 0.951 . S
H1583 C1602 0.951 . S
H1584 C1604 0.950 . S
H1585 C1605 0.950 . S
H1586 C1607 0.950 . S
H1587 C1610 0.950 . S
H1588 C1611 0.950 . S
H1589 C1613 0.950 . S
H1590 C1614 0.950 . S
H1591 C1615 0.951 . S
H1592 C1617 0.951 . S
H1593 C1619 0.950 . S
H1594 C1620 0.950 . S
H1595 C1622 0.950 . S
H1596 C1625 0.950 . S
H1597 C1626 0.950 1_554 S
H1598 C1628 0.950 . S
H1599 C1629 0.950 . S
C1600 H1582 0.951 . S
C1600 C1601 1.366 . S
C1600 C1602 1.388 . S
C1601 C1600 1.366 . S
C1601 C1605 1.385 . S
C1602 H1583 0.951 . S
C1602 C1600 1.388 . S
C1602 C1603 1.366 . S
C1603 C1602 1.366 . S
C1603 C1604 1.414 . S
C1603 C1606 1.499 . S
C1604 H1584 0.950 . S
C1604 C1603 1.414 . S
C1604 C1605 1.374 . S
C1605 H1585 0.950 . S
C1605 C1601 1.385 . S
C1605 C1604 1.374 . S
C1606 C1603 1.499 . S
C1606 C1607 1.373 . S
C1606 C1608 1.389 . S
C1607 H1586 0.950 . S
C1607 C1606 1.373 . S
C1607 C1623 1.377 . S
C1608 C1606 1.389 . S
C1608 C1609 1.524 . S
C1608 C1622 1.377 . S
C1609 C1608 1.524 . S
C1609 C1610 1.397 . S
C1609 C1614 1.363 . S
C1610 H1587 0.950 . S
C1610 C1609 1.397 . S
C1610 C1611 1.334 . S
C1611 H1588 0.950 . S
C1611 C1610 1.334 . S
C1611 C1612 1.287 . S
C1612 C1611 1.287 . S
C1612 C1613 1.524 . S
C1612 H1631 0.913 . S
C1613 H1589 0.950 . S
C1613 C1612 1.524 . S
C1613 C1614 1.415 . S
C1614 H1590 0.950 . S
C1614 C1609 1.363 . S
C1614 C1613 1.415 . S
C1615 H1591 0.951 . S
C1615 C1616 1.366 . S
C1615 C1617 1.388 . S
C1616 C1615 1.366 . S
C1616 C1620 1.385 . S
C1617 H1592 0.951 . S
C1617 C1615 1.388 . S
C1617 C1618 1.366 . S
C1618 C1617 1.366 . S
C1618 C1619 1.414 . S
C1618 C1621 1.499 . S
C1619 H1593 0.950 . S
C1619 C1618 1.414 . S
C1619 C1620 1.374 . S
C1620 H1594 0.950 . S
C1620 C1616 1.385 . S
C1620 C1619 1.374 . S
C1621 C1618 1.499 . S
C1621 C1622 1.373 . S
C1621 C1623 1.389 . S
C1622 H1595 0.950 . S
C1622 C1608 1.377 . S
C1622 C1621 1.373 . S
C1623 C1607 1.377 . S
C1623 C1621 1.389 . S
C1623 C1624 1.524 . S
C1624 C1623 1.524 . S
C1624 C1625 1.397 . S
C1624 C1629 1.363 . S
C1625 H1596 0.950 . S
C1625 C1624 1.397 . S
C1625 C1626 1.334 . S
C1626 H1597 0.950 1_556 S
C1626 C1625 1.334 . S
C1626 C1627 1.287 . S
C1627 C1626 1.287 . S
C1627 C1628 1.524 . S
C1627 H1630 0.999 . S
C1628 H1598 0.950 . S
C1628 C1627 1.524 . S
C1628 C1629 1.415 . S
C1629 H1599 0.950 . S
C1629 C1624 1.363 . S
C1629 C1628 1.415 . S
H1630 C1627 0.999 . S
H1631 C1612 0.913 . S
C451 C374 1.560 . S
C466 C14 1.531 . S
C501 C50 1.392 . S
C516 C410 1.392 . S
C551 C86 1.561 . S
C566 C230 1.532 . S
C601 C266 1.560 . S
C616 C122 1.531 . S
C651 C302 1.393 . S
C666 C158 1.393 . S
C701 C194 1.560 . S
C716 C338 1.531 . S
C751 C4 0.778 . S
C766 C256 0.779 . S
C801 C40 0.535 . S
C816 C292 0.535 . S
C851 C328 0.778 . S
C866 C76 0.779 . S
C901 C364 0.779 . S
C916 C112 0.778 . S
C951 C400 0.533 . S
C966 C148 0.533 . S
C1001 C220 0.778 . S
C1016 C184 0.779 . S
C1051 C2 0.640 . S
C1066 C147 0.638 . S
C1101 C38 0.736 . S
C1116 C183 0.733 . S
C1151 C74 0.654 . S
C1166 C3 0.633 . S
C1201 C110 0.641 . S
C1216 C39 0.636 . S
C1251 C146 0.737 . S
C1266 C75 0.734 . S
C1301 C182 0.653 . S
C1316 C111 0.633 . S
C1351 C218 0.639 . S
C1366 C291 0.638 . S
C1401 C254 0.653 . S
C1416 C327 0.633 . S
C1451 C363 0.733 . S
C1466 C290 0.734 . S
C1501 C326 0.640 . S
C1516 C399 0.638 . S
C1551 C362 0.651 . S
C1566 C219 0.634 . S
C1601 C398 0.738 . S
C1616 C255 0.734 . S
