# Generated by pormake.
# Topology wir, (6)-cn, num edge types: 1
# Building blocks:
#     Node 0, Type 0, BuildingBlock: GEDQOX_clean_sbu_0, # of connection points: 6
#     Node 1, Type 0, BuildingBlock: GEDQOX_clean_sbu_0, # of connection points: 6
#     Node 2, Type 0, BuildingBlock: GEDQOX_clean_sbu_0, # of connection points: 6
#     Node 3, Type 0, BuildingBlock: GEDQOX_clean_sbu_0, # of connection points: 6
#     Node 4, Type 0, BuildingBlock: GEDQOX_clean_sbu_0, # of connection points: 6
#     Node 5, Type 0, BuildingBlock: GEDQOX_clean_sbu_0, # of connection points: 6
#     Node 6, Type 0, BuildingBlock: GEDQOX_clean_sbu_0, # of connection points: 6
#     Node 7, Type 0, BuildingBlock: GEDQOX_clean_sbu_0, # of connection points: 6
#     Node 8, Type 0, BuildingBlock: GEDQOX_clean_sbu_0, # of connection points: 6
#     Node 9, Type 0, BuildingBlock: GEDQOX_clean_sbu_0, # of connection points: 6
#     Node 10, Type 0, BuildingBlock: GEDQOX_clean_sbu_0, # of connection points: 6
#     Node 11, Type 0, BuildingBlock: GEDQOX_clean_sbu_0, # of connection points: 6
#     Node 12, Type 0, BuildingBlock: GEDQOX_clean_sbu_0, # of connection points: 6
#     Node 13, Type 0, BuildingBlock: GEDQOX_clean_sbu_0, # of connection points: 6
#     Node 14, Type 0, BuildingBlock: GEDQOX_clean_sbu_0, # of connection points: 6
#     Node 15, Type 0, BuildingBlock: GEDQOX_clean_sbu_0, # of connection points: 6
#     Node 16, Type 0, BuildingBlock: GEDQOX_clean_sbu_0, # of connection points: 6
#     Node 17, Type 0, BuildingBlock: GEDQOX_clean_sbu_0, # of connection points: 6
#     Node 18, Type 0, BuildingBlock: GEDQOX_clean_sbu_0, # of connection points: 6
#     Node 19, Type 0, BuildingBlock: GEDQOX_clean_sbu_0, # of connection points: 6
#     Node 20, Type 0, BuildingBlock: GEDQOX_clean_sbu_0, # of connection points: 6
#     Node 21, Type 0, BuildingBlock: GEDQOX_clean_sbu_0, # of connection points: 6
#     Node 22, Type 0, BuildingBlock: GEDQOX_clean_sbu_0, # of connection points: 6
#     Node 23, Type 0, BuildingBlock: GEDQOX_clean_sbu_0, # of connection points: 6
#     Node 24, Type 0, BuildingBlock: GEDQOX_clean_sbu_0, # of connection points: 6
#     Node 25, Type 0, BuildingBlock: GEDQOX_clean_sbu_0, # of connection points: 6
#     Node 26, Type 0, BuildingBlock: GEDQOX_clean_sbu_0, # of connection points: 6
#     Node 27, Type 0, BuildingBlock: GEDQOX_clean_sbu_0, # of connection points: 6
#     Node 28, Type 0, BuildingBlock: GEDQOX_clean_sbu_0, # of connection points: 6
#     Node 29, Type 0, BuildingBlock: GEDQOX_clean_sbu_0, # of connection points: 6
#     Node 30, Type 0, BuildingBlock: GEDQOX_clean_sbu_0, # of connection points: 6
#     Node 31, Type 0, BuildingBlock: GEDQOX_clean_sbu_0, # of connection points: 6
#     Edge 32, Type (0, 0), BuildingBlock: UVAHIK_clean_linker_0, # of connection points: 2
#     Edge 33, Type (0, 0), BuildingBlock: UVAHIK_clean_linker_0, # of connection points: 2
#     Edge 34, Type (0, 0), BuildingBlock: UVAHIK_clean_linker_0, # of connection points: 2
#     Edge 35, Type (0, 0), BuildingBlock: UVAHIK_clean_linker_0, # of connection points: 2
#     Edge 36, Type (0, 0), BuildingBlock: UVAHIK_clean_linker_0, # of connection points: 2
#     Edge 37, Type (0, 0), BuildingBlock: UVAHIK_clean_linker_0, # of connection points: 2
#     Edge 38, Type (0, 0), BuildingBlock: UVAHIK_clean_linker_0, # of connection points: 2
#     Edge 39, Type (0, 0), BuildingBlock: UVAHIK_clean_linker_0, # of connection points: 2
#     Edge 40, Type (0, 0), BuildingBlock: UVAHIK_clean_linker_0, # of connection points: 2
#     Edge 41, Type (0, 0), BuildingBlock: UVAHIK_clean_linker_0, # of connection points: 2
#     Edge 42, Type (0, 0), BuildingBlock: UVAHIK_clean_linker_0, # of connection points: 2
#     Edge 43, Type (0, 0), BuildingBlock: UVAHIK_clean_linker_0, # of connection points: 2
#     Edge 44, Type (0, 0), BuildingBlock: UVAHIK_clean_linker_0, # of connection points: 2
#     Edge 45, Type (0, 0), BuildingBlock: UVAHIK_clean_linker_0, # of connection points: 2
#     Edge 46, Type (0, 0), BuildingBlock: UVAHIK_clean_linker_0, # of connection points: 2
#     Edge 47, Type (0, 0), BuildingBlock: UVAHIK_clean_linker_0, # of connection points: 2
#     Edge 48, Type (0, 0), BuildingBlock: UVAHIK_clean_linker_0, # of connection points: 2
#     Edge 49, Type (0, 0), BuildingBlock: UVAHIK_clean_linker_0, # of connection points: 2
#     Edge 50, Type (0, 0), BuildingBlock: UVAHIK_clean_linker_0, # of connection points: 2
#     Edge 51, Type (0, 0), BuildingBlock: UVAHIK_clean_linker_0, # of connection points: 2
#     Edge 52, Type (0, 0), BuildingBlock: UVAHIK_clean_linker_0, # of connection points: 2
#     Edge 53, Type (0, 0), BuildingBlock: UVAHIK_clean_linker_0, # of connection points: 2
#     Edge 54, Type (0, 0), BuildingBlock: UVAHIK_clean_linker_0, # of connection points: 2
#     Edge 55, Type (0, 0), BuildingBlock: UVAHIK_clean_linker_0, # of connection points: 2
#     Edge 56, Type (0, 0), BuildingBlock: UVAHIK_clean_linker_0, # of connection points: 2
#     Edge 57, Type (0, 0), BuildingBlock: UVAHIK_clean_linker_0, # of connection points: 2
#     Edge 58, Type (0, 0), BuildingBlock: UVAHIK_clean_linker_0, # of connection points: 2
#     Edge 59, Type (0, 0), BuildingBlock: UVAHIK_clean_linker_0, # of connection points: 2
#     Edge 60, Type (0, 0), BuildingBlock: UVAHIK_clean_linker_0, # of connection points: 2
#     Edge 61, Type (0, 0), BuildingBlock: UVAHIK_clean_linker_0, # of connection points: 2
#     Edge 62, Type (0, 0), BuildingBlock: UVAHIK_clean_linker_0, # of connection points: 2
#     Edge 63, Type (0, 0), BuildingBlock: UVAHIK_clean_linker_0, # of connection points: 2
#     Edge 64, Type (0, 0), BuildingBlock: UVAHIK_clean_linker_0, # of connection points: 2
#     Edge 65, Type (0, 0), BuildingBlock: UVAHIK_clean_linker_0, # of connection points: 2
#     Edge 66, Type (0, 0), BuildingBlock: UVAHIK_clean_linker_0, # of connection points: 2
#     Edge 67, Type (0, 0), BuildingBlock: UVAHIK_clean_linker_0, # of connection points: 2
#     Edge 68, Type (0, 0), BuildingBlock: UVAHIK_clean_linker_0, # of connection points: 2
#     Edge 69, Type (0, 0), BuildingBlock: UVAHIK_clean_linker_0, # of connection points: 2
#     Edge 70, Type (0, 0), BuildingBlock: UVAHIK_clean_linker_0, # of connection points: 2
#     Edge 71, Type (0, 0), BuildingBlock: UVAHIK_clean_linker_0, # of connection points: 2
#     Edge 72, Type (0, 0), BuildingBlock: UVAHIK_clean_linker_0, # of connection points: 2
#     Edge 73, Type (0, 0), BuildingBlock: UVAHIK_clean_linker_0, # of connection points: 2
#     Edge 74, Type (0, 0), BuildingBlock: UVAHIK_clean_linker_0, # of connection points: 2
#     Edge 75, Type (0, 0), BuildingBlock: UVAHIK_clean_linker_0, # of connection points: 2
#     Edge 76, Type (0, 0), BuildingBlock: UVAHIK_clean_linker_0, # of connection points: 2
#     Edge 77, Type (0, 0), BuildingBlock: UVAHIK_clean_linker_0, # of connection points: 2
#     Edge 78, Type (0, 0), BuildingBlock: UVAHIK_clean_linker_0, # of connection points: 2
#     Edge 79, Type (0, 0), BuildingBlock: UVAHIK_clean_linker_0, # of connection points: 2
#     Edge 80, Type (0, 0), BuildingBlock: UVAHIK_clean_linker_0, # of connection points: 2
#     Edge 81, Type (0, 0), BuildingBlock: UVAHIK_clean_linker_0, # of connection points: 2
#     Edge 82, Type (0, 0), BuildingBlock: UVAHIK_clean_linker_0, # of connection points: 2
#     Edge 83, Type (0, 0), BuildingBlock: UVAHIK_clean_linker_0, # of connection points: 2
#     Edge 84, Type (0, 0), BuildingBlock: UVAHIK_clean_linker_0, # of connection points: 2
#     Edge 85, Type (0, 0), BuildingBlock: UVAHIK_clean_linker_0, # of connection points: 2
#     Edge 86, Type (0, 0), BuildingBlock: UVAHIK_clean_linker_0, # of connection points: 2
#     Edge 87, Type (0, 0), BuildingBlock: UVAHIK_clean_linker_0, # of connection points: 2
#     Edge 88, Type (0, 0), BuildingBlock: UVAHIK_clean_linker_0, # of connection points: 2
#     Edge 89, Type (0, 0), BuildingBlock: UVAHIK_clean_linker_0, # of connection points: 2
#     Edge 90, Type (0, 0), BuildingBlock: UVAHIK_clean_linker_0, # of connection points: 2
#     Edge 91, Type (0, 0), BuildingBlock: UVAHIK_clean_linker_0, # of connection points: 2
#     Edge 92, Type (0, 0), BuildingBlock: UVAHIK_clean_linker_0, # of connection points: 2
#     Edge 93, Type (0, 0), BuildingBlock: UVAHIK_clean_linker_0, # of connection points: 2
#     Edge 94, Type (0, 0), BuildingBlock: UVAHIK_clean_linker_0, # of connection points: 2
#     Edge 95, Type (0, 0), BuildingBlock: UVAHIK_clean_linker_0, # of connection points: 2
#     Edge 96, Type (0, 0), BuildingBlock: UVAHIK_clean_linker_0, # of connection points: 2
#     Edge 97, Type (0, 0), BuildingBlock: UVAHIK_clean_linker_0, # of connection points: 2
#     Edge 98, Type (0, 0), BuildingBlock: UVAHIK_clean_linker_0, # of connection points: 2
#     Edge 99, Type (0, 0), BuildingBlock: UVAHIK_clean_linker_0, # of connection points: 2
#     Edge 100, Type (0, 0), BuildingBlock: UVAHIK_clean_linker_0, # of connection points: 2
#     Edge 101, Type (0, 0), BuildingBlock: UVAHIK_clean_linker_0, # of connection points: 2
#     Edge 102, Type (0, 0), BuildingBlock: UVAHIK_clean_linker_0, # of connection points: 2
#     Edge 103, Type (0, 0), BuildingBlock: UVAHIK_clean_linker_0, # of connection points: 2
#     Edge 104, Type (0, 0), BuildingBlock: UVAHIK_clean_linker_0, # of connection points: 2
#     Edge 105, Type (0, 0), BuildingBlock: UVAHIK_clean_linker_0, # of connection points: 2
#     Edge 106, Type (0, 0), BuildingBlock: UVAHIK_clean_linker_0, # of connection points: 2
#     Edge 107, Type (0, 0), BuildingBlock: UVAHIK_clean_linker_0, # of connection points: 2
#     Edge 108, Type (0, 0), BuildingBlock: UVAHIK_clean_linker_0, # of connection points: 2
#     Edge 109, Type (0, 0), BuildingBlock: UVAHIK_clean_linker_0, # of connection points: 2
#     Edge 110, Type (0, 0), BuildingBlock: UVAHIK_clean_linker_0, # of connection points: 2
#     Edge 111, Type (0, 0), BuildingBlock: UVAHIK_clean_linker_0, # of connection points: 2
#     Edge 112, Type (0, 0), BuildingBlock: UVAHIK_clean_linker_0, # of connection points: 2
#     Edge 113, Type (0, 0), BuildingBlock: UVAHIK_clean_linker_0, # of connection points: 2
#     Edge 114, Type (0, 0), BuildingBlock: UVAHIK_clean_linker_0, # of connection points: 2
#     Edge 115, Type (0, 0), BuildingBlock: UVAHIK_clean_linker_0, # of connection points: 2
#     Edge 116, Type (0, 0), BuildingBlock: UVAHIK_clean_linker_0, # of connection points: 2
#     Edge 117, Type (0, 0), BuildingBlock: UVAHIK_clean_linker_0, # of connection points: 2
#     Edge 118, Type (0, 0), BuildingBlock: UVAHIK_clean_linker_0, # of connection points: 2
#     Edge 119, Type (0, 0), BuildingBlock: UVAHIK_clean_linker_0, # of connection points: 2
#     Edge 120, Type (0, 0), BuildingBlock: UVAHIK_clean_linker_0, # of connection points: 2
#     Edge 121, Type (0, 0), BuildingBlock: UVAHIK_clean_linker_0, # of connection points: 2
#     Edge 122, Type (0, 0), BuildingBlock: UVAHIK_clean_linker_0, # of connection points: 2
#     Edge 123, Type (0, 0), BuildingBlock: UVAHIK_clean_linker_0, # of connection points: 2
#     Edge 124, Type (0, 0), BuildingBlock: UVAHIK_clean_linker_0, # of connection points: 2
#     Edge 125, Type (0, 0), BuildingBlock: UVAHIK_clean_linker_0, # of connection points: 2
#     Edge 126, Type (0, 0), BuildingBlock: UVAHIK_clean_linker_0, # of connection points: 2
#     Edge 127, Type (0, 0), BuildingBlock: UVAHIK_clean_linker_0, # of connection points: 2
# Relax obj value: 0.468
# Max RMSD: 0.214
# Mean RMSD: 0.214
data_MOF--net-wir--node1-GEDQOX_clean_sbu_0--edge1-UVAHIK_clean_linker_0
_symmetry_space_group_name_H-M    P1
_symmetry_Int_Tables_number       1
_symmetry_cell_setting            triclinic
loop_
_symmetry_equiv_pos_as_xyz
'x, y, z'
_cell_length_a     50.317939
_cell_length_b     50.263416
_cell_length_c     134.5746
_cell_angle_alpha  89.921295
_cell_angle_beta   90.021472
_cell_angle_gamma 89.786464
loop_
_atom_site_label
_atom_site_type_symbol
_atom_site_fract_x
_atom_site_fract_y
_atom_site_fract_z
_atom_type_partial_charge
Nd0 Nd 0.1322 0.09991 0.37869 0.0
Nd1 Nd 0.16851 0.12861 0.37536 0.0
C2 C 0.08523 0.07629 0.37746 0.0
C3 C 0.05814 0.08675 0.37653 0.0
C4 C 0.0539 0.11264 0.37295 0.0
C5 C 1.02898 0.12467 0.37387 0.0
C6 C 1.00797 0.11095 0.37843 0.0
C7 C 1.01188 0.08428 0.38133 0.0
C8 C 0.03683 0.0723 0.38041 0.0
C9 C 0.17097 0.07552 0.39102 0.0
C10 C 0.14772 0.13339 0.39692 0.0
C11 C 0.21417 0.14981 0.36935 0.0
C12 C 0.22264 0.16735 0.36123 0.0
C13 C 0.24975 0.17162 0.35956 0.0
C14 C 0.25806 0.18797 0.35175 0.0
C15 C 0.23935 0.20034 0.34546 0.0
C16 C 0.21211 0.19594 0.34719 0.0
C17 C 0.20384 0.17956 0.355 0.0
C18 C 0.12561 0.16535 0.37554 0.0
C19 C 0.15391 0.09123 0.35673 0.0
O20 O 0.10078 0.07999 0.36986 0.0
O21 O 0.09694 0.0817 0.38583 0.0
O22 O 0.14573 0.07709 0.39263 0.0
O23 O 0.17617 0.08637 0.38248 0.0
O24 O 0.12609 0.128 0.39191 0.0
O25 O 0.17041 0.13052 0.39228 0.0
O26 O 0.2061 0.12625 0.36675 0.0
O27 O 0.19891 0.16047 0.37608 0.0
O28 O 0.14867 0.16858 0.37959 0.0
O29 O 0.12503 0.14199 0.37154 0.0
O30 O 0.16057 0.11585 0.35878 0.0
O31 O 0.14592 0.0773 0.36439 0.0
H32 H 0.07026 0.12399 0.36993 0.0
H33 H 1.02654 0.14515 0.37151 0.0
H34 H 0.99625 0.07327 0.38501 0.0
H35 H 0.03985 0.05235 0.38326 0.0
H36 H 0.26451 0.16219 0.36427 0.0
H37 H 0.27917 0.1906 0.35055 0.0
H38 H 0.19717 0.20539 0.34258 0.0
H39 H 0.18278 0.17641 0.35619 0.0
Nd40 Nd 0.21926 0.88093 0.62896 0.0
Nd41 Nd 0.19055 0.91787 0.6256 0.0
C42 C 0.24153 0.83311 0.62795 0.0
C43 C 0.22986 0.80644 0.62727 0.0
C44 C 0.20617 0.8024 0.62196 0.0
C45 C 0.19166 0.77902 0.62327 0.0
C46 C 0.20053 0.75944 0.62996 0.0
C47 C 0.22546 0.76263 0.63458 0.0
C48 C 0.23997 0.78597 0.63324 0.0
C49 C 0.24448 0.91998 0.64087 0.0
C50 C 0.18645 0.89769 0.64719 0.0
C51 C 0.16899 0.96363 0.61965 0.0
C52 C 0.15094 0.97218 0.61166 0.0
C53 C 0.14798 0.9993 0.60954 0.0
C54 C 0.13135 1.00766 0.60181 0.0
C55 C 0.11736 0.98899 0.59605 0.0
C56 C 0.1204 0.96174 0.59825 0.0
C57 C 0.13708 0.95341 0.60598 0.0
C58 C 0.1539 0.87504 0.62596 0.0
C59 C 0.22784 0.90254 0.60691 0.0
O60 O 0.23845 0.84861 0.62026 0.0
O61 O 0.23693 0.84545 0.63627 0.0
O62 O 0.24303 0.89476 0.64261 0.0
O63 O 0.23312 0.92499 0.63239 0.0
O64 O 0.19114 0.87578 0.64224 0.0
O65 O 0.19004 0.92024 0.64254 0.0
O66 O 0.19233 0.95532 0.61683 0.0
O67 O 0.15881 0.94859 0.62653 0.0
O68 O 0.15072 0.89815 0.62999 0.0
O69 O 0.17714 0.8744 0.62188 0.0
O70 O 0.20345 0.91006 0.60902 0.0
O71 O 0.24164 0.89378 0.61451 0.0
H72 H 0.19804 0.81797 0.61728 0.0
H73 H 0.17274 0.77698 0.61952 0.0
H74 H 0.23278 0.74815 0.63989 0.0
H75 H 0.25813 0.7888 0.63743 0.0
H76 H 0.15871 1.01403 0.61382 0.0
H77 H 0.12981 1.02875 0.60023 0.0
H78 H 0.1097 0.94685 0.59406 0.0
H79 H 0.13921 0.93234 0.60751 0.0
Nd80 Nd 0.43197 0.97161 0.87842 0.0
Nd81 Nd 0.39603 0.94296 0.87512 0.0
C82 C 0.47885 0.99524 0.87691 0.0
C83 C 0.50604 0.98499 0.87694 0.0
C84 C 0.5106 0.95784 0.87864 0.0
C85 C 0.53639 0.94844 0.88011 0.0
C86 C 0.55798 0.96612 0.87992 0.0
C87 C 0.55341 0.99298 0.87745 0.0
C88 C 0.52753 1.00238 0.87601 0.0
C89 C 0.39339 0.99636 0.89066 0.0
C90 C 0.41625 0.93872 0.89672 0.0
C91 C 0.35057 0.92148 0.86907 0.0
C92 C 0.3424 0.90331 0.86111 0.0
C93 C 0.31536 0.89993 0.85903 0.0
C94 C 0.30736 0.88304 0.85135 0.0
C95 C 0.3263 0.86922 0.84562 0.0
C96 C 0.35346 0.87272 0.84777 0.0
C97 C 0.36143 0.88965 0.85544 0.0
C98 C 0.43892 0.90615 0.8755 0.0
C99 C 0.41041 0.98044 0.85649 0.0
O100 O 0.46448 0.98859 0.86927 0.0
O101 O 0.46606 0.99249 0.88526 0.0
O102 O 0.41865 0.99471 0.89228 0.0
O103 O 0.38805 0.98526 0.88216 0.0
O104 O 0.43806 0.94365 0.89176 0.0
O105 O 0.3937 0.94186 0.89202 0.0
O106 O 0.35884 0.9448 0.86623 0.0
O107 O 0.36546 0.91133 0.87603 0.0
O108 O 0.41578 0.90294 0.87948 0.0
O109 O 0.43955 0.92947 0.87147 0.0
O110 O 0.40422 0.95568 0.85854 0.0
O111 O 0.41785 0.99445 0.8642 0.0
H112 H 0.49409 0.9442 0.87935 0.0
H113 H 0.53911 0.92773 0.88211 0.0
H114 H 0.5697 1.00698 0.87715 0.0
H115 H 0.52423 1.02337 0.87461 0.0
H116 H 0.30043 0.91049 0.8633 0.0
H117 H 0.28633 0.88113 0.8498 0.0
H118 H 0.36855 0.86217 0.84359 0.0
H119 H 0.38243 0.89211 0.85696 0.0
Nd120 Nd 0.35017 0.18693 0.12899 0.0
Nd121 Nd 0.37893 0.15023 0.12575 0.0
C122 C 0.32769 0.23457 0.12759 0.0
C123 C 0.33977 0.261 0.1278 0.0
C124 C 0.3667 0.26339 0.13027 0.0
C125 C 0.37804 0.28842 0.13142 0.0
C126 C 0.36268 0.3116 0.13007 0.0
C127 C 0.33605 0.30902 0.12696 0.0
C128 C 0.32464 0.28384 0.12588 0.0
C129 C 0.32619 0.14826 0.14145 0.0
C130 C 0.38445 0.17232 0.14711 0.0
C131 C 0.40014 0.10431 0.11982 0.0
C132 C 0.41806 0.09564 0.11181 0.0
C133 C 0.42023 0.06855 0.10951 0.0
C134 C 0.4368 0.06008 0.10179 0.0
C135 C 0.45153 0.07859 0.0962 0.0
C136 C 0.44926 0.1058 0.09856 0.0
C137 C 0.43263 0.11424 0.10629 0.0
C138 C 0.41563 0.19293 0.12578 0.0
C139 C 0.34089 0.16485 0.10718 0.0
O140 O 0.33377 0.22008 0.11991 0.0
O141 O 0.32942 0.22123 0.13587 0.0
O142 O 0.32792 0.17353 0.14307 0.0
O143 O 0.33676 0.14303 0.13286 0.0
O144 O 0.37889 0.19365 0.14192 0.0
O145 O 0.3812 0.14928 0.14274 0.0
O146 O 0.37679 0.11274 0.11704 0.0
O147 O 0.41047 0.11929 0.12667 0.0
O148 O 0.41909 0.16975 0.12975 0.0
O149 O 0.3922 0.19361 0.12185 0.0
O150 O 0.3656 0.15816 0.10919 0.0
O151 O 0.3271 0.17299 0.11486 0.0
H152 H 0.3787 0.24586 0.13171 0.0
H153 H 0.39844 0.28943 0.13396 0.0
H154 H 0.32377 0.32645 0.12571 0.0
H155 H 0.30388 0.28224 0.12383 0.0
H156 H 0.40895 0.05395 0.11366 0.0
H157 H 0.43772 0.03904 0.10008 0.0
H158 H 0.46052 0.12057 0.09451 0.0
H159 H 0.43113 0.13529 0.10794 0.0
Nd160 Nd 0.13335 0.96902 0.23165 0.0
Nd161 Nd 0.17017 0.94063 0.23524 0.0
C162 C 0.08522 0.99049 0.23265 0.0
C163 C 0.05898 0.97805 0.23263 0.0
C164 C 0.05672 0.95109 0.23016 0.0
C165 C 1.03177 0.93949 0.22917 0.0
C166 C 1.00855 0.95464 0.2307 0.0
C167 C 1.01103 0.98127 0.23384 0.0
C168 C 0.03612 0.99292 0.23475 0.0
C169 C 0.17209 0.99434 0.21969 0.0
C170 C 0.15146 0.93647 0.21349 0.0
C171 C 0.21563 0.9193 0.24156 0.0
C172 C 0.22381 0.90153 0.24969 0.0
C173 C 0.25077 0.89914 0.25214 0.0
C174 C 0.25877 0.88278 0.26001 0.0
C175 C 0.23991 0.8685 0.26558 0.0
C176 C 0.21285 0.87092 0.26306 0.0
C177 C 0.20486 0.88737 0.2552 0.0
C178 C 0.12748 0.90379 0.23476 0.0
C179 C 0.15457 0.97862 0.25364 0.0
O180 O 0.09978 0.98555 0.24044 0.0
O181 O 0.09858 0.98806 0.22441 0.0
O182 O 0.14689 0.99271 0.21795 0.0
O183 O 0.17725 0.98311 0.2282 0.0
O184 O 0.12922 0.94089 0.21828 0.0
O185 O 0.17364 0.93989 0.21838 0.0
O186 O 0.20721 0.94278 0.2442 0.0
O187 O 0.2009 0.90886 0.23465 0.0
O188 O 0.15068 0.90061 0.23081 0.0
O189 O 0.12676 0.92705 0.2388 0.0
O190 O 0.16179 0.95404 0.2517 0.0
O191 O 0.14627 0.99224 0.24592 0.0
H192 H 0.07428 0.93928 0.22858 0.0
H193 H 1.03081 0.91911 0.22661 0.0
H194 H 0.99358 0.99337 0.23523 0.0
H195 H 0.03762 1.01369 0.23681 0.0
H196 H 0.26563 0.90999 0.24797 0.0
H197 H 0.27977 0.88112 0.26168 0.0
H198 H 0.1978 0.86046 0.26726 0.0
H199 H 0.18391 0.88917 0.25345 0.0
Nd200 Nd 0.3492 0.88237 0.48163 0.0
Nd201 Nd 0.37735 0.91923 0.48522 0.0
C202 C 0.32706 0.83461 0.48237 0.0
C203 C 0.33819 0.80762 0.4829 0.0
C204 C 0.36178 0.80255 0.48817 0.0
C205 C 0.37523 0.77841 0.48695 0.0
C206 C 0.36539 0.75906 0.48039 0.0
C207 C 0.34074 0.76361 0.47569 0.0
C208 C 0.32729 0.78767 0.47695 0.0
C209 C 0.32395 0.92134 0.46964 0.0
C210 C 0.3819 0.90031 0.46351 0.0
C211 C 0.39831 0.96485 0.49138 0.0
C212 C 0.41615 0.9732 0.49941 0.0
C213 C 0.42008 1.00032 0.50122 0.0
C214 C 0.4367 1.00851 0.50896 0.0
C215 C 0.44969 0.98967 0.51501 0.0
C216 C 0.44566 0.96242 0.51314 0.0
C217 C 0.429 0.95427 0.5054 0.0
C218 C 0.41438 0.87646 0.48485 0.0
C219 C 0.33981 0.90346 0.50371 0.0
O220 O 0.33029 0.84965 0.49015 0.0
O221 O 0.33185 0.84724 0.47412 0.0
O222 O 0.32577 0.89615 0.46789 0.0
O223 O 0.33495 0.92638 0.47817 0.0
O224 O 0.37757 0.8781 0.46833 0.0
O225 O 0.37827 0.92255 0.46835 0.0
O226 O 0.37502 0.95635 0.49412 0.0
O227 O 0.40878 0.95004 0.48448 0.0
O228 O 0.41745 0.89967 0.48088 0.0
O229 O 0.39109 0.87568 0.48885 0.0
O230 O 0.36419 0.911 0.50172 0.0
O231 O 0.32627 0.89493 0.49603 0.0
H232 H 0.37051 0.81776 0.49282 0.0
H233 H 0.39396 0.77543 0.49078 0.0
H234 H 0.3327 0.74944 0.47045 0.0
H235 H 0.30921 0.79132 0.47278 0.0
H236 H 0.41015 1.01518 0.4967 0.0
H237 H 0.43904 1.02962 0.51028 0.0
H238 H 0.45558 0.94739 0.51757 0.0
H239 H 0.42613 0.9332 0.5041 0.0
Nd240 Nd 0.43563 0.10033 0.73117 0.0
Nd241 Nd 0.39928 0.12923 0.73438 0.0
C242 C 0.48277 0.07672 0.73249 0.0
C243 C 0.5097 0.08732 0.73352 0.0
C244 C 0.51348 0.1133 0.73703 0.0
C245 C 0.53827 0.12546 0.73618 0.0
C246 C 0.5596 0.11181 0.73175 0.0
C247 C 0.55614 0.08506 0.72892 0.0
C248 C 0.53132 0.07295 0.72978 0.0
C249 C 0.39703 0.07582 0.71887 0.0
C250 C 0.41997 0.13354 0.71281 0.0
C251 C 0.35358 0.15089 0.74024 0.0
C252 C 0.345 0.16853 0.74832 0.0
C253 C 0.31788 0.17148 0.75039 0.0
C254 C 0.30948 0.18777 0.75821 0.0
C255 C 0.32811 0.20139 0.7641 0.0
C256 C 0.35535 0.19833 0.76197 0.0
C257 C 0.36372 0.18199 0.75416 0.0
C258 C 0.44228 0.16565 0.73426 0.0
C259 C 0.41355 0.0918 0.75311 0.0
O260 O 0.46702 0.08019 0.74005 0.0
O261 O 0.47117 0.08226 0.72409 0.0
O262 O 0.42228 0.07726 0.71729 0.0
O263 O 0.39174 0.08689 0.72737 0.0
O264 O 0.44162 0.1282 0.71785 0.0
O265 O 0.39731 0.13082 0.71746 0.0
O266 O 0.36153 0.12726 0.7429 0.0
O267 O 0.36897 0.16136 0.73353 0.0
O268 O 0.41938 0.16898 0.73008 0.0
O269 O 0.44266 0.14233 0.73832 0.0
O270 O 0.40675 0.11641 0.75099 0.0
O271 O 0.4219 0.07784 0.7455 0.0
H272 H 0.49688 0.12462 0.73992 0.0
H273 H 0.54036 0.14599 0.73848 0.0
H274 H 0.57202 0.07409 0.72534 0.0
H275 H 0.52865 0.05293 0.72698 0.0
H276 H 0.3032 0.16104 0.746 0.0
H277 H 0.2884 0.18933 0.75973 0.0
H278 H 0.37021 0.20875 0.76627 0.0
H279 H 0.38478 0.17984 0.75267 0.0
Nd280 Nd 0.21758 0.18798 0.98234 0.0
Nd281 Nd 0.18888 0.15169 0.98556 0.0
C282 C 0.24135 0.23485 0.98377 0.0
C283 C 0.23077 0.26186 0.98491 0.0
C284 C 0.20508 0.26575 0.9887 0.0
C285 C 0.19274 0.29059 0.98793 0.0
C286 C 0.20593 0.31184 0.98329 0.0
C287 C 0.23247 0.30829 0.98021 0.0
C288 C 0.24475 0.28343 0.98099 0.0
C289 C 0.24146 0.14939 0.96978 0.0
C290 C 0.18335 0.17392 0.96421 0.0
C291 C 0.16775 0.10579 0.9914 0.0
C292 C 0.15018 0.0971 0.99948 0.0
C293 C 0.14699 0.06991 1.00139 0.0
C294 C 0.13069 0.0614 1.00918 0.0
C295 C 0.11728 0.07999 1.0152 0.0
C296 C 0.12059 0.1073 1.01323 0.0
C297 C 0.13693 0.11577 1.00544 0.0
C298 C 0.15217 0.19464 0.98566 0.0
C299 C 0.22657 0.1657 1.00422 0.0
O300 O 0.23792 0.2189 0.99129 0.0
O301 O 0.23577 0.22351 0.97534 0.0
O302 O 0.23986 0.17471 0.96824 0.0
O303 O 0.23088 0.14405 0.97835 0.0
O304 O 0.18891 0.19519 0.96939 0.0
O305 O 0.18652 0.15086 0.96859 0.0
O306 O 0.19126 0.11383 0.99407 0.0
O307 O 0.15716 0.1212 0.98469 0.0
O308 O 0.14881 0.17165 0.98157 0.0
O309 O 0.17564 0.19512 0.98959 0.0
O310 O 0.20193 0.15913 1.00217 0.0
O311 O 0.24038 0.17385 0.99656 0.0
H312 H 0.19407 0.24921 0.99176 0.0
H313 H 0.17239 0.29276 0.99043 0.0
H314 H 0.24307 0.32411 0.97646 0.0
H315 H 0.26453 0.28067 0.97797 0.0
H316 H 0.15725 0.05524 0.9969 0.0
H317 H 0.12893 0.04026 1.01057 0.0
H318 H 0.11033 0.12214 1.01763 0.0
H319 H 0.13925 0.13689 1.00407 0.0
Nd320 Nd 0.8994 0.93968 0.73534 0.0
Nd321 Nd 0.93515 0.96865 0.73223 0.0
C322 C 0.85353 0.91861 0.74114 0.0
C323 C 0.8448 0.90093 0.74918 0.0
C324 C 0.81762 0.89762 0.751 0.0
C325 C 0.80908 0.8813 0.75878 0.0
C326 C 0.82762 0.868 0.76486 0.0
C327 C 0.85491 0.87135 0.76296 0.0
C328 C 0.86343 0.88774 0.7552 0.0
C329 C 0.94217 0.90289 0.73528 0.0
C330 C 0.91317 0.97675 0.75408 0.0
C331 C 0.98143 0.99341 0.73393 0.0
C332 C 1.00894 0.98402 0.73383 0.0
C333 C 1.01431 0.95694 0.73235 0.0
C334 C 0.04035 0.94829 0.73086 0.0
C335 C 0.0614 0.96664 0.73081 0.0
C336 C 0.05601 0.9935 0.73301 0.0
C337 C 1.02989 1.00215 0.73447 0.0
C338 C 0.89644 0.99236 0.71968 0.0
C339 C 0.92155 0.93479 0.71393 0.0
O340 O 0.86169 0.94204 0.74387 0.0
O341 O 0.86884 0.90804 0.73442 0.0
O342 O 0.91907 0.89956 0.73128 0.0
O343 O 0.94294 0.92637 0.73918 0.0
O344 O 0.90748 0.95191 0.75198 0.0
O345 O 0.9203 0.99106 0.7464 0.0
O346 O 0.96728 0.98581 0.74151 0.0
O347 O 0.96871 0.99083 0.72557 0.0
O348 O 0.9217 0.99068 0.71807 0.0
O349 O 0.89133 0.98189 0.7283 0.0
O350 O 0.94281 0.94069 0.71908 0.0
O351 O 0.89858 0.93739 0.7184 0.0
H352 H 0.803 0.9077 0.74642 0.0
H353 H 0.78793 0.87889 0.75997 0.0
H354 H 0.8697 0.86167 0.76758 0.0
H355 H 0.88453 0.89027 0.75392 0.0
H356 H 0.99823 0.94272 0.73186 0.0
H357 H 0.04367 0.92755 0.72906 0.0
H358 H 0.07185 1.00803 0.73313 0.0
H359 H 1.02596 1.02311 0.73569 0.0
Nd360 Nd 0.87776 0.14794 0.48506 0.0
Nd361 Nd 0.84931 0.18484 0.48156 0.0
C362 C 0.89895 0.10224 0.49126 0.0
C363 C 0.91685 0.09382 0.4993 0.0
C364 C 0.91978 0.06672 0.50148 0.0
C365 C 0.93635 0.05846 0.50924 0.0
C366 C 0.95029 0.07721 0.51498 0.0
C367 C 0.94726 0.10443 0.51274 0.0
C368 C 0.93065 0.11265 0.50497 0.0
C369 C 0.91461 0.19063 0.48464 0.0
C370 C 0.83996 0.16332 0.50354 0.0
C371 C 0.82763 0.23291 0.48263 0.0
C372 C 0.83996 0.25923 0.48254 0.0
C373 C 0.86686 0.26155 0.48 0.0
C374 C 0.87836 0.28656 0.47897 0.0
C375 C 0.86318 0.30977 0.48051 0.0
C376 C 0.83662 0.30722 0.48369 0.0
C377 C 0.82505 0.28208 0.48465 0.0
C378 C 0.82429 0.14601 0.46956 0.0
C379 C 0.88201 0.16717 0.46337 0.0
O380 O 0.87563 0.11081 0.494 0.0
O381 O 0.90931 0.117 0.48433 0.0
O382 O 0.91782 0.16739 0.48072 0.0
O383 O 0.89131 0.19146 0.48863 0.0
O384 O 0.86453 0.15618 0.50156 0.0
O385 O 0.82628 0.17166 0.49584 0.0
O386 O 0.83288 0.21838 0.4904 0.0
O387 O 0.82986 0.21953 0.47439 0.0
O388 O 0.82599 0.17122 0.46779 0.0
O389 O 0.83523 0.14099 0.47813 0.0
O390 O 0.87747 0.18932 0.46821 0.0
O391 O 0.87862 0.14485 0.46819 0.0
H392 H 0.9091 0.05194 0.49721 0.0
H393 H 0.93788 0.0374 0.51086 0.0
H394 H 0.95792 0.11937 0.51691 0.0
H395 H 0.92853 0.13371 0.50339 0.0
H396 H 0.8787 0.244 0.47843 0.0
H397 H 0.8987 0.28757 0.47638 0.0
H398 H 0.82449 0.32467 0.48508 0.0
H399 H 0.80433 0.28052 0.48675 0.0
Nd400 Nd 0.66929 0.12752 0.23563 0.0
Nd401 Nd 0.6331 0.09881 0.23211 0.0
C402 C 0.71485 0.14855 0.24182 0.0
C403 C 0.72325 0.16642 0.24986 0.0
C404 C 0.75032 0.16914 0.25204 0.0
C405 C 0.75857 0.18578 0.25976 0.0
C406 C 0.73986 0.20001 0.26545 0.0
C407 C 0.71267 0.19715 0.26322 0.0
C408 C 0.70444 0.18047 0.2555 0.0
C409 C 0.62642 0.16431 0.23547 0.0
C410 C 0.65434 0.08969 0.25414 0.0
C411 C 0.58607 0.07528 0.23302 0.0
C412 C 0.5588 0.08569 0.23349 0.0
C413 C 0.55292 0.1089 0.23887 0.0
C414 C 0.52843 0.12168 0.23765 0.0
C415 C 0.50956 0.1116 0.23094 0.0
C416 C 0.51495 0.08731 0.22611 0.0
C417 C 0.53933 0.07448 0.22739 0.0
C418 C 0.67226 0.07497 0.21982 0.0
C419 C 0.64877 0.1331 0.21407 0.0
O420 O 0.7064 0.12521 0.24456 0.0
O421 O 0.70005 0.15902 0.2349 0.0
O422 O 0.64968 0.16779 0.23164 0.0
O423 O 0.62556 0.14071 0.23928 0.0
O424 O 0.66105 0.11436 0.25215 0.0
O425 O 0.64647 0.07591 0.24642 0.0
O426 O 0.60104 0.0793 0.24077 0.0
O427 O 0.59851 0.08 0.22473 0.0
O428 O 0.64708 0.07668 0.21809 0.0
O429 O 0.6771 0.08537 0.22847 0.0
O430 O 0.6271 0.1275 0.21903 0.0
O431 O 0.67141 0.13002 0.21872 0.0
H432 H 0.76508 0.15827 0.24779 0.0
H433 H 0.77962 0.18716 0.26136 0.0
H434 H 0.69774 0.20803 0.26737 0.0
H435 H 0.68341 0.17853 0.25393 0.0
H436 H 0.56772 0.1179 0.24363 0.0
H437 H 0.52481 0.14013 0.24158 0.0
H438 H 0.50117 0.0791 0.22076 0.0
H439 H 0.5436 0.05669 0.22313 0.0
Nd440 Nd 0.69069 0.91772 0.98557 0.0
Nd441 Nd 0.71858 0.88042 0.98206 0.0
C442 C 0.67026 0.96376 0.99174 0.0
C443 C 0.65236 0.97239 0.99976 0.0
C444 C 0.65025 0.99946 1.00209 0.0
C445 C 0.6337 1.00788 1.00983 0.0
C446 C 0.61894 0.98934 1.01539 0.0
C447 C 0.62117 0.96215 1.01299 0.0
C448 C 0.63776 0.95376 1.00526 0.0
C449 C 0.65327 0.87547 0.98545 0.0
C450 C 0.72832 0.90201 1.00403 0.0
C451 C 0.74019 0.8323 0.98311 0.0
C452 C 0.72773 0.80604 0.98299 0.0
C453 C 0.70077 0.80395 0.98052 0.0
C454 C 0.68906 0.77905 0.9795 0.0
C455 C 0.7041 0.7557 0.98098 0.0
C456 C 0.73076 0.75801 0.98407 0.0
C457 C 0.74253 0.78305 0.98503 0.0
C458 C 0.74358 0.91906 0.9699 0.0
C459 C 0.68451 0.89761 0.9641 0.0
O460 O 0.6934 0.95477 0.99451 0.0
O461 O 0.65976 0.94929 0.98476 0.0
O462 O 0.65009 0.89882 0.98159 0.0
O463 O 0.67674 0.87432 0.98929 0.0
O464 O 0.70383 0.90942 1.00206 0.0
O465 O 0.74183 0.89344 0.99634 0.0
O466 O 0.73494 0.84674 0.99089 0.0
O467 O 0.73805 0.84581 0.97488 0.0
O468 O 0.74074 0.89403 0.96801 0.0
O469 O 0.73338 0.92398 0.9786 0.0
O470 O 0.68942 0.87563 0.96901 0.0
O471 O 0.68887 0.9201 0.96867 0.0
H472 H 0.66155 1.01408 0.99797 0.0
H473 H 0.63282 1.0289 1.01157 0.0
H474 H 0.60987 0.94736 1.01703 0.0
H475 H 0.63923 0.93273 1.00356 0.0
H476 H 0.68902 0.8216 0.979 0.0
H477 H 0.66866 0.77822 0.97697 0.0
H478 H 0.74279 0.74046 0.98541 0.0
H479 H 0.7633 0.78444 0.98708 0.0
Nd480 Nd 0.89986 0.12538 0.87591 0.0
Nd481 Nd 0.93669 0.09712 0.87951 0.0
C482 C 0.85393 0.14616 0.86979 0.0
C483 C 0.84535 0.16425 0.86181 0.0
C484 C 0.81824 0.1673 0.85973 0.0
C485 C 0.80984 0.1841 0.85204 0.0
C486 C 0.82846 0.19819 0.84628 0.0
C487 C 0.85569 0.19502 0.84842 0.0
C488 C 0.86406 0.17818 0.85611 0.0
C489 C 0.94233 0.16254 0.87591 0.0
C490 C 0.91537 0.08796 0.8574 0.0
C491 C 0.98405 0.07381 0.87882 0.0
C492 C 1.01121 0.0843 0.87833 0.0
C493 C 1.01693 0.10725 0.87277 0.0
C494 C 0.04129 0.12014 0.87393 0.0
C495 C 0.06018 0.11043 0.88075 0.0
C496 C 0.05496 0.08637 0.88576 0.0
C497 C 1.03071 0.07344 0.88455 0.0
C498 C 0.89769 0.07272 0.8917 0.0
C499 C 0.92032 0.13188 0.89733 0.0
O500 O 0.8628 0.12301 0.86697 0.0
O501 O 0.86849 0.1565 0.87678 0.0
O502 O 0.91899 0.16595 0.87971 0.0
O503 O 0.94344 0.13888 0.87218 0.0
O504 O 0.90785 0.1124 0.8594 0.0
O505 O 0.92403 0.07435 0.86508 0.0
O506 O 0.96912 0.07748 0.87103 0.0
O507 O 0.97145 0.0788 0.88706 0.0
O508 O 0.92266 0.07544 0.89363 0.0
O509 O 0.89299 0.0828 0.88297 0.0
O510 O 0.94212 0.12665 0.89239 0.0
O511 O 0.89774 0.12757 0.89282 0.0
H512 H 0.80355 0.15654 0.86402 0.0
H513 H 0.78877 0.18572 0.85051 0.0
H514 H 0.87056 0.20578 0.84423 0.0
H515 H 0.88512 0.176 0.85761 0.0
H516 H 1.0021 0.11598 0.86792 0.0
H517 H 0.04478 0.13838 0.86985 0.0
H518 H 0.06876 0.07846 0.8912 0.0
H519 H 1.02657 0.05585 0.88894 0.0
Nd520 Nd 0.69003 0.14769 0.62526 0.0
Nd521 Nd 0.71831 0.18445 0.62868 0.0
C522 C 0.66901 0.10196 0.61924 0.0
C523 C 0.65118 0.09352 0.61121 0.0
C524 C 0.64728 0.06638 0.60943 0.0
C525 C 0.6307 0.05811 0.6017 0.0
C526 C 0.61772 0.0769 0.59561 0.0
C527 C 0.62173 0.10416 0.59746 0.0
C528 C 0.63834 0.11239 0.60519 0.0
C529 C 0.65301 0.19047 0.62548 0.0
C530 C 0.72738 0.16296 0.60666 0.0
C531 C 0.7411 0.23191 0.62766 0.0
C532 C 0.73021 0.25885 0.62675 0.0
C533 C 0.7041 0.26266 0.62338 0.0
C534 C 0.69182 0.28748 0.6243 0.0
C535 C 0.70548 0.3088 0.62868 0.0
C536 C 0.73234 0.30529 0.63138 0.0
C537 C 0.74457 0.28045 0.63044 0.0
C538 C 0.7433 0.14559 0.64082 0.0
C539 C 0.68549 0.16732 0.64689 0.0
O540 O 0.69233 0.11034 0.61649 0.0
O541 O 0.65855 0.11694 0.62609 0.0
O542 O 0.64997 0.16737 0.62955 0.0
O543 O 0.67634 0.19122 0.62149 0.0
O544 O 0.70296 0.15565 0.6087 0.0
O545 O 0.74105 0.17143 0.61431 0.0
O546 O 0.7379 0.21644 0.62 0.0
O547 O 0.73563 0.21992 0.63598 0.0
O548 O 0.7415 0.1708 0.64252 0.0
O549 O 0.73248 0.14056 0.63226 0.0
O550 O 0.69001 0.18936 0.64198 0.0
O551 O 0.68898 0.14491 0.64214 0.0
H552 H 0.6572 0.05157 0.61398 0.0
H553 H 0.62838 0.03699 0.60039 0.0
H554 H 0.61181 0.11914 0.593 0.0
H555 H 0.6412 0.13347 0.60647 0.0
H556 H 0.6928 0.24607 0.62053 0.0
H557 H 0.67121 0.2896 0.62209 0.0
H558 H 0.74334 0.32113 0.63492 0.0
H559 H 0.7647 0.27775 0.63313 0.0
Nd560 Nd 0.66798 0.93877 0.37591 0.0
Nd561 Nd 0.63165 0.96761 0.37919 0.0
C562 C 0.7138 0.91748 0.36999 0.0
C563 C 0.72248 0.89992 0.3619 0.0
C564 C 0.74964 0.89669 0.35997 0.0
C565 C 0.75813 0.88048 0.35214 0.0
C566 C 0.73956 0.8672 0.34612 0.0
C567 C 0.71228 0.87048 0.34813 0.0
C568 C 0.70382 0.88676 0.35594 0.0
C569 C 0.62521 0.90213 0.37595 0.0
C570 C 0.65345 0.97633 0.35724 0.0
C571 C 0.58462 0.99147 0.37794 0.0
C572 C 0.55762 0.98103 0.37695 0.0
C573 C 0.55364 0.95511 0.3734 0.0
C574 C 0.52876 0.94313 0.37425 0.0
C575 C 0.50755 0.95689 0.37872 0.0
C576 C 0.51123 0.98357 0.38159 0.0
C577 C 0.53613 0.99551 0.38074 0.0
C578 C 0.67049 0.99167 0.39153 0.0
C579 C 0.64702 0.93385 0.39743 0.0
O580 O 0.70562 0.94104 0.36733 0.0
O581 O 0.69856 0.90688 0.37671 0.0
O582 O 0.64824 0.89877 0.38003 0.0
O583 O 0.62451 0.92561 0.37202 0.0
O584 O 0.66021 0.95167 0.35931 0.0
O585 O 0.6453 0.99024 0.36489 0.0
O586 O 0.60027 0.98788 0.37035 0.0
O587 O 0.5963 0.9859 0.38632 0.0
O588 O 0.64527 0.99011 0.39319 0.0
O589 O 0.6755 0.98104 0.38294 0.0
O590 O 0.62544 0.93938 0.39238 0.0
O591 O 0.66974 0.93669 0.39283 0.0
H592 H 0.76428 0.90677 0.3645 0.0
H593 H 0.77926 0.87814 0.35087 0.0
H594 H 0.69747 0.8608 0.34356 0.0
H595 H 0.68272 0.88923 0.3573 0.0
H596 H 0.57013 0.9437 0.37047 0.0
H597 H 0.5265 0.92265 0.3719 0.0
H598 H 0.49546 0.99461 0.38521 0.0
H599 H 0.53896 1.01547 0.38357 0.0
Nd600 Nd 0.87875 0.91941 0.12567 0.0
Nd601 Nd 0.85043 0.88256 0.12906 0.0
C602 C 0.89927 0.96535 0.11958 0.0
C603 C 0.91705 0.97395 0.11155 0.0
C604 C 0.92029 1.00112 0.1096 0.0
C605 C 0.93683 1.00954 0.10188 0.0
C606 C 0.95044 0.99088 0.09595 0.0
C607 C 0.94708 0.96359 0.09795 0.0
C608 C 0.9305 0.95521 0.10568 0.0
C609 C 0.9159 0.87684 0.12581 0.0
C610 C 0.8411 0.90419 0.10714 0.0
C611 C 0.82864 0.83474 0.12786 0.0
C612 C 0.84109 0.80838 0.12804 0.0
C613 C 0.868 0.80609 0.13059 0.0
C614 C 0.87969 0.7811 0.13167 0.0
C615 C 0.8647 0.75787 0.13016 0.0
C616 C 0.8381 0.76037 0.12698 0.0
C617 C 0.82635 0.7855 0.12597 0.0
C618 C 0.826 0.92134 0.14135 0.0
C619 C 0.88411 0.89857 0.14721 0.0
O620 O 0.87605 0.95669 0.11682 0.0
O621 O 0.90986 0.95055 0.12647 0.0
O622 O 0.91912 0.90007 0.12972 0.0
O623 O 0.89245 0.87595 0.12193 0.0
O624 O 0.86569 0.91107 0.10914 0.0
O625 O 0.82734 0.89614 0.11484 0.0
O626 O 0.83423 0.84923 0.12012 0.0
O627 O 0.83047 0.84812 0.1361 0.0
O628 O 0.8279 0.89609 0.14306 0.0
O629 O 0.83641 0.92638 0.13272 0.0
O630 O 0.87887 0.87686 0.14222 0.0
O631 O 0.88089 0.92126 0.14258 0.0
H632 H 0.90989 1.01584 0.11403 0.0
H633 H 0.93863 1.03067 0.10045 0.0
H634 H 0.95749 0.94871 0.09362 0.0
H635 H 0.92816 0.93411 0.10708 0.0
H636 H 0.87971 0.82366 0.13213 0.0
H637 H 0.90004 0.78013 0.13426 0.0
H638 H 0.82611 0.7429 0.12562 0.0
H639 H 0.80562 0.78704 0.12385 0.0
Nd640 Nd 0.63094 0.60193 0.87892 0.0
Nd641 Nd 0.66708 0.63067 0.8756 0.0
C642 C 0.58402 0.57825 0.87761 0.0
C643 C 0.55703 0.58876 0.87639 0.0
C644 C 0.55311 0.61453 0.87264 0.0
C645 C 0.52822 0.62674 0.87333 0.0
C646 C 0.50693 0.61332 0.87784 0.0
C647 C 0.51054 0.58671 0.88088 0.0
C648 C 0.53546 0.57457 0.88019 0.0
C649 C 0.6697 0.57764 0.8913 0.0
C650 C 0.64633 0.63532 0.89718 0.0
C651 C 0.71279 0.65188 0.86968 0.0
C652 C 0.72149 0.66931 0.86157 0.0
C653 C 0.74866 0.67258 0.85972 0.0
C654 C 0.75719 0.68872 0.85189 0.0
C655 C 0.73863 0.70189 0.84577 0.0
C656 C 0.71135 0.69856 0.84769 0.0
C657 C 0.70285 0.68234 0.85551 0.0
C658 C 0.62408 0.66733 0.87575 0.0
C659 C 0.65268 0.5932 0.85695 0.0
O660 O 0.59994 0.58139 0.87008 0.0
O661 O 0.59535 0.58419 0.886 0.0
O662 O 0.64443 0.57904 0.89287 0.0
O663 O 0.67491 0.58852 0.88277 0.0
O664 O 0.62471 0.62989 0.89217 0.0
O665 O 0.669 0.63257 0.89252 0.0
O666 O 0.70481 0.62828 0.86708 0.0
O667 O 0.69736 0.66261 0.87634 0.0
O668 O 0.64709 0.67059 0.87983 0.0
O669 O 0.62361 0.64398 0.87175 0.0
O670 O 0.6593 0.61784 0.859 0.0
O671 O 0.64469 0.5793 0.86463 0.0
H672 H 0.56966 0.6257 0.86968 0.0
H673 H 0.526 0.64715 0.87087 0.0
H674 H 0.4947 0.57593 0.88453 0.0
H675 H 0.53824 0.55471 0.88317 0.0
H676 H 0.76329 0.6626 0.86433 0.0
H677 H 0.77833 0.69111 0.85069 0.0
H678 H 0.69655 0.70815 0.84304 0.0
H679 H 0.68174 0.67984 0.8568 0.0
Nd680 Nd 0.71808 0.38395 0.12951 0.0
Nd681 Nd 0.68963 0.42108 0.12616 0.0
C682 C 0.73957 0.33584 0.12826 0.0
C683 C 0.7272 0.30954 0.12833 0.0
C684 C 0.70031 0.30722 0.13087 0.0
C685 C 0.68882 0.28222 0.13193 0.0
C686 C 0.70401 0.259 0.13042 0.0
C687 C 0.73055 0.26154 0.12722 0.0
C688 C 0.7421 0.28667 0.12622 0.0
C689 C 0.74338 0.4225 0.14154 0.0
C690 C 0.68572 0.40129 0.14781 0.0
C691 C 0.66826 0.46686 0.12017 0.0
C692 C 0.65033 0.47523 0.11214 0.0
C693 C 0.64709 0.50232 0.11001 0.0
C694 C 0.63056 0.51047 0.10222 0.0
C695 C 0.61698 0.49161 0.09641 0.0
C696 C 0.62031 0.46441 0.09861 0.0
C697 C 0.63688 0.45629 0.1064 0.0
C698 C 0.65289 0.37829 0.12647 0.0
C699 C 0.72742 0.40613 0.10762 0.0
O700 O 0.73421 0.35052 0.12054 0.0
O701 O 0.73751 0.34907 0.13654 0.0
O702 O 0.74175 0.39725 0.14323 0.0
O703 O 0.73218 0.4278 0.13305 0.0
O704 O 0.69009 0.37925 0.14289 0.0
O705 O 0.68909 0.42372 0.14305 0.0
O706 O 0.69164 0.45852 0.11741 0.0
O707 O 0.65797 0.45187 0.12705 0.0
O708 O 0.64971 0.40135 0.13054 0.0
O709 O 0.67608 0.37776 0.12239 0.0
O710 O 0.70291 0.41339 0.10964 0.0
O711 O 0.74108 0.3974 0.11526 0.0
H712 H 0.68848 0.32478 0.13244 0.0
H713 H 0.6685 0.28123 0.13454 0.0
H714 H 0.74268 0.24409 0.12583 0.0
H715 H 0.76282 0.28823 0.12411 0.0
H716 H 0.65751 0.51717 0.11433 0.0
H717 H 0.62878 0.53153 0.10064 0.0
H718 H 0.60992 0.44938 0.09437 0.0
H719 H 0.63924 0.43524 0.10794 0.0
Nd720 Nd 0.93478 0.46971 0.37901 0.0
Nd721 Nd 0.89835 0.44118 0.37561 0.0
C722 C 0.98187 0.49314 0.37786 0.0
C723 C 1.00889 0.48258 0.37683 0.0
C724 C 1.01293 0.45678 0.37316 0.0
C725 C 0.03779 0.44457 0.374 0.0
C726 C 0.05893 0.45801 0.37858 0.0
C727 C 0.05522 0.48462 0.38157 0.0
C728 C 1.03033 0.49676 0.38073 0.0
C729 C 0.89613 0.49408 0.39136 0.0
C730 C 0.91901 0.43598 0.39718 0.0
C731 C 0.85272 0.42003 0.36954 0.0
C732 C 0.84424 0.40228 0.36148 0.0
C733 C 0.81716 0.39957 0.35933 0.0
C734 C 0.80885 0.38302 0.35159 0.0
C735 C 0.82752 0.36885 0.34585 0.0
C736 C 0.85473 0.3717 0.34806 0.0
C737 C 0.86301 0.3883 0.35579 0.0
C738 C 0.94121 0.40436 0.37573 0.0
C739 C 0.91311 0.47887 0.35704 0.0
O740 O 0.96622 0.48989 0.37025 0.0
O741 O 0.97021 0.48739 0.38621 0.0
O742 O 0.92137 0.49238 0.39296 0.0
O743 O 0.89084 0.48335 0.38281 0.0
O744 O 0.94068 0.44135 0.39219 0.0
O745 O 0.89635 0.43904 0.39253 0.0
O746 O 0.86095 0.44349 0.36684 0.0
O747 O 0.86776 0.40951 0.37637 0.0
O748 O 0.91816 0.4011 0.37978 0.0
O749 O 0.9418 0.42779 0.37177 0.0
O750 O 0.90624 0.45428 0.35906 0.0
O751 O 0.92128 0.49261 0.36471 0.0
H752 H 0.99647 0.44563 0.37012 0.0
H753 H 0.04008 0.42415 0.37157 0.0
H754 H 0.07096 0.49541 0.38527 0.0
H755 H 1.02746 0.51664 0.38366 0.0
H756 H 0.80243 0.41038 0.36361 0.0
H757 H 0.78779 0.38164 0.35001 0.0
H758 H 0.86963 0.36087 0.34388 0.0
H759 H 0.88405 0.39023 0.35735 0.0
Nd760 Nd 0.85014 0.68628 0.62948 0.0
Nd761 Nd 0.87782 0.64885 0.62592 0.0
C762 C 0.82926 0.73471 0.62852 0.0
C763 C 0.84216 0.76076 0.62864 0.0
C764 C 0.86908 0.76245 0.63123 0.0
C765 C 0.88117 0.78717 0.63225 0.0
C766 C 0.86659 0.81073 0.63063 0.0
C767 C 0.84 0.80881 0.6274 0.0
C768 C 0.82784 0.78395 0.62646 0.0
C769 C 0.82453 0.6477 0.64149 0.0
C770 C 0.88349 0.66821 0.64751 0.0
C771 C 0.89823 0.60283 0.61973 0.0
C772 C 0.91603 0.59428 0.61169 0.0
C773 C 0.9191 0.56714 0.60963 0.0
C774 C 0.93558 0.55879 0.60187 0.0
C775 C 0.94929 0.57748 0.59601 0.0
C776 C 0.94612 0.60473 0.59813 0.0
C777 C 0.9296 0.61305 0.6059 0.0
C778 C 0.91532 0.69107 0.62618 0.0
C779 C 0.84022 0.665 0.60747 0.0
O780 O 0.83412 0.72023 0.62072 0.0
O781 O 0.83129 0.72112 0.63673 0.0
O782 O 0.82724 0.67275 0.64338 0.0
O783 O 0.83512 0.64265 0.63287 0.0
O784 O 0.87899 0.69039 0.64267 0.0
O785 O 0.87912 0.64592 0.6428 0.0
O786 O 0.87505 0.61181 0.61699 0.0
O787 O 0.90881 0.61734 0.62668 0.0
O788 O 0.91834 0.66776 0.63009 0.0
O789 O 0.89197 0.69211 0.62223 0.0
O790 O 0.86462 0.65729 0.60944 0.0
O791 O 0.82679 0.6737 0.61518 0.0
H792 H 0.88048 0.74463 0.63285 0.0
H793 H 0.9015 0.78769 0.63488 0.0
H794 H 0.82832 0.82653 0.62594 0.0
H795 H 0.80712 0.78288 0.62431 0.0
H796 H 0.9086 0.55241 0.614 0.0
H797 H 0.93724 0.53769 0.60035 0.0
H798 H 0.9566 0.61964 0.59386 0.0
H799 H 0.92738 0.63413 0.60738 0.0
Nd800 Nd 0.63249 0.46864 0.73193 0.0
Nd801 Nd 0.66956 0.44082 0.73582 0.0
C802 C 0.58432 0.49014 0.7326 0.0
C803 C 0.55814 0.4776 0.73233 0.0
C804 C 0.55615 0.45071 0.7297 0.0
C805 C 0.53132 0.43895 0.72859 0.0
C806 C 0.50795 0.45385 0.73013 0.0
C807 C 0.51014 0.48041 0.73337 0.0
C808 C 0.53511 0.49223 0.73442 0.0
C809 C 0.67136 0.49318 0.71981 0.0
C810 C 0.651 0.4347 0.71412 0.0
C811 C 0.71524 0.42039 0.74236 0.0
C812 C 0.72364 0.40255 0.75045 0.0
C813 C 0.75072 0.39954 0.7526 0.0
C814 C 0.75899 0.38283 0.76033 0.0
C815 C 0.74028 0.36881 0.76607 0.0
C816 C 0.71307 0.37197 0.76387 0.0
C817 C 0.70484 0.38873 0.75613 0.0
C818 C 0.62722 0.40348 0.73542 0.0
C819 C 0.65328 0.47909 0.754 0.0
O820 O 0.59841 0.48501 0.74049 0.0
O821 O 0.59819 0.48797 0.72448 0.0
O822 O 0.6464 0.49037 0.71782 0.0
O823 O 0.67613 0.4833 0.72858 0.0
O824 O 0.62869 0.43951 0.71883 0.0
O825 O 0.67313 0.43865 0.71899 0.0
O826 O 0.70612 0.44357 0.74504 0.0
O827 O 0.70103 0.40977 0.73533 0.0
O828 O 0.6507 0.40023 0.73172 0.0
O829 O 0.62608 0.42695 0.73926 0.0
O830 O 0.66065 0.45448 0.75219 0.0
O831 O 0.64507 0.4924 0.74617 0.0
H832 H 0.57384 0.43907 0.72815 0.0
H833 H 0.53058 0.41863 0.72594 0.0
H834 H 0.49256 0.49232 0.73477 0.0
H835 H 0.53641 0.51293 0.7366 0.0
H836 H 0.76548 0.41022 0.74832 0.0
H837 H 0.78004 0.38121 0.76191 0.0
H838 H 0.69815 0.36126 0.76805 0.0
H839 H 0.6838 0.39087 0.75457 0.0
Nd840 Nd 0.84858 0.38731 0.98262 0.0
Nd841 Nd 0.87718 0.4233 0.98593 0.0
C842 C 0.82501 0.34037 0.98414 0.0
C843 C 0.83522 0.31313 0.9841 0.0
C844 C 0.8623 0.30853 0.98236 0.0
C845 C 0.87163 0.28269 0.98089 0.0
C846 C 0.85394 0.2611 0.98114 0.0
C847 C 0.82717 0.26573 0.98366 0.0
C848 C 0.81784 0.29165 0.98509 0.0
C849 C 0.8238 0.42592 0.97036 0.0
C850 C 0.88138 0.40317 0.96433 0.0
C851 C 0.89866 0.46878 0.99199 0.0
C852 C 0.91665 0.47689 1.00001 0.0
C853 C 0.92101 0.50395 1.00181 0.0
C854 C 0.93775 0.5119 1.00955 0.0
C855 C 0.95041 0.49287 1.01563 0.0
C856 C 0.94594 0.46569 1.01376 0.0
C857 C 0.92918 0.45778 1.00602 0.0
C858 C 0.91393 0.38034 0.98559 0.0
C859 C 0.83968 0.40892 1.0045 0.0
O860 O 0.83173 0.35471 0.99178 0.0
O861 O 0.82769 0.3532 0.9758 0.0
O862 O 0.82549 0.40064 0.96874 0.0
O863 O 0.83491 0.43127 0.97886 0.0
O864 O 0.87648 0.3813 0.96929 0.0
O865 O 0.87826 0.42572 0.96902 0.0
O866 O 0.87527 0.46059 0.99475 0.0
O867 O 0.90891 0.4538 0.98509 0.0
O868 O 0.91714 0.40349 0.98158 0.0
O869 O 0.89065 0.37974 0.98961 0.0
O870 O 0.86443 0.41506 1.00249 0.0
O871 O 0.8257 0.40151 0.99679 0.0
H872 H 0.87594 0.32504 0.9816 0.0
H873 H 0.89227 0.27993 0.97885 0.0
H874 H 0.81317 0.24943 0.98402 0.0
H875 H 0.79691 0.29498 0.98654 0.0
H876 H 0.91134 0.51894 0.99727 0.0
H877 H 0.94042 0.53297 1.01087 0.0
H878 H 0.95561 0.45052 1.01821 0.0
H879 H 0.92597 0.43676 1.00473 0.0
Nd880 Nd 0.93557 0.60028 0.23204 0.0
Nd881 Nd 0.89973 0.62944 0.23523 0.0
C882 C 0.9822 0.57582 0.23366 0.0
C883 C 1.00951 0.5856 0.23349 0.0
C884 C 1.01425 0.61271 0.23187 0.0
C885 C 0.04007 0.62176 0.23036 0.0
C886 C 0.06157 0.60377 0.23042 0.0
C887 C 0.05681 0.57688 0.23274 0.0
C888 C 1.03088 0.56783 0.23423 0.0
C889 C 0.89684 0.57636 0.21969 0.0
C890 C 0.92095 0.6338 0.21369 0.0
C891 C 0.85406 0.65105 0.24116 0.0
C892 C 0.84542 0.6686 0.24926 0.0
C893 C 0.81827 0.67184 0.2512 0.0
C894 C 0.80979 0.68801 0.25904 0.0
C895 C 0.82839 0.70125 0.26506 0.0
C896 C 0.85565 0.69796 0.26305 0.0
C897 C 0.8641 0.6817 0.25523 0.0
C898 C 0.94267 0.66582 0.23493 0.0
C899 C 0.91356 0.59182 0.25389 0.0
O900 O 0.96802 0.5832 0.24126 0.0
O901 O 0.96931 0.57831 0.22532 0.0
O902 O 0.9221 0.5778 0.21805 0.0
O903 O 0.89163 0.58727 0.22822 0.0
O904 O 0.94245 0.62799 0.21875 0.0
O905 O 0.89818 0.63136 0.2183 0.0
O906 O 0.86206 0.62741 0.2438 0.0
O907 O 0.86943 0.66161 0.23447 0.0
O908 O 0.91954 0.66927 0.23094 0.0
O909 O 0.94325 0.64246 0.23896 0.0
O910 O 0.90777 0.61672 0.25183 0.0
O911 O 0.9209 0.57766 0.24619 0.0
H912 H 0.99784 0.62665 0.23129 0.0
H913 H 0.0429 0.6425 0.22846 0.0
H914 H 0.073 0.56262 0.23295 0.0
H915 H 1.02745 0.54686 0.23555 0.0
H916 H 0.80361 0.6618 0.24667 0.0
H917 H 0.78867 0.69037 0.26031 0.0
H918 H 0.87048 0.70759 0.26763 0.0
H919 H 0.88519 0.67922 0.25387 0.0
Nd920 Nd 0.71907 0.68679 0.48233 0.0
Nd921 Nd 0.69079 0.64958 0.48558 0.0
C922 C 0.74029 0.73485 0.48366 0.0
C923 C 0.72763 0.7611 0.48354 0.0
C924 C 0.70069 0.76321 0.48101 0.0
C925 C 0.68884 0.78812 0.47993 0.0
C926 C 0.7037 0.81146 0.4814 0.0
C927 C 0.73031 0.80913 0.48458 0.0
C928 C 0.74223 0.78408 0.4856 0.0
C929 C 0.74455 0.64815 0.47028 0.0
C930 C 0.68633 0.67041 0.46405 0.0
C931 C 0.66983 0.60363 0.49144 0.0
C932 C 0.65164 0.59506 0.49934 0.0
C933 C 0.64872 0.56792 0.50141 0.0
C934 C 0.63191 0.55956 0.50907 0.0
C935 C 0.61772 0.57824 0.5148 0.0
C936 C 0.62073 0.60549 0.51265 0.0
C937 C 0.63758 0.61383 0.505 0.0
C938 C 0.65366 0.69222 0.48526 0.0
C939 C 0.72813 0.66478 0.50425 0.0
O940 O 0.73485 0.72016 0.49136 0.0
O941 O 0.73859 0.7216 0.47537 0.0
O942 O 0.74279 0.67342 0.46859 0.0
O943 O 0.73341 0.6429 0.47877 0.0
O944 O 0.69091 0.69222 0.46905 0.0
O945 O 0.69014 0.64774 0.46862 0.0
O946 O 0.69295 0.61217 0.49436 0.0
O947 O 0.65964 0.61854 0.48449 0.0
O948 O 0.65065 0.66909 0.48124 0.0
O949 O 0.67686 0.69288 0.48934 0.0
O950 O 0.70371 0.65748 0.50215 0.0
O951 O 0.74189 0.67338 0.49663 0.0
H952 H 0.68909 0.74557 0.47947 0.0
H953 H 0.66848 0.78896 0.47734 0.0
H954 H 0.74221 0.82667 0.48592 0.0
H955 H 0.76298 0.78268 0.48769 0.0
H956 H 0.65959 0.5532 0.49715 0.0
H957 H 0.63038 0.53847 0.51061 0.0
H958 H 0.60988 0.62039 0.51683 0.0
H959 H 0.63968 0.6349 0.5035 0.0
Nd960 Nd 0.39878 0.44035 0.23535 0.0
Nd961 Nd 0.43617 0.46861 0.23199 0.0
C962 C 0.35284 0.4192 0.24107 0.0
C963 C 0.34427 0.40118 0.24904 0.0
C964 C 0.31714 0.39689 0.25066 0.0
C965 C 0.30876 0.38021 0.25836 0.0
C966 C 0.32742 0.36754 0.26459 0.0
C967 C 0.35467 0.37189 0.26288 0.0
C968 C 0.36301 0.3886 0.25518 0.0
C969 C 0.44157 0.40327 0.23539 0.0
C970 C 0.41405 0.47785 0.25404 0.0
C971 C 0.48368 0.49131 0.23282 0.0
C972 C 0.51052 0.48043 0.234 0.0
C973 C 0.51408 0.45436 0.23749 0.0
C974 C 0.5389 0.44201 0.23681 0.0
C975 C 0.56048 0.45557 0.23256 0.0
C976 C 0.55718 0.4824 0.22975 0.0
C977 C 0.53233 0.4947 0.23044 0.0
C978 C 0.39736 0.49343 0.21974 0.0
C979 C 0.41956 0.43522 0.21382 0.0
O980 O 0.3611 0.4425 0.24391 0.0
O981 O 0.36804 0.40889 0.23426 0.0
O982 O 0.41856 0.40015 0.23131 0.0
O983 O 0.44222 0.42669 0.23933 0.0
O984 O 0.40515 0.45398 0.25191 0.0
O985 O 0.42427 0.491 0.24655 0.0
O986 O 0.46799 0.48904 0.24046 0.0
O987 O 0.47192 0.4849 0.22455 0.0
O988 O 0.42254 0.49156 0.21807 0.0
O989 O 0.39234 0.48289 0.22835 0.0
O990 O 0.44133 0.44004 0.21884 0.0
O991 O 0.39694 0.4387 0.21844 0.0
H992 H 0.30241 0.4066 0.24601 0.0
H993 H 0.28764 0.3776 0.25955 0.0
H994 H 0.36958 0.36221 0.26745 0.0
H995 H 0.38408 0.39174 0.25402 0.0
H996 H 0.49731 0.44314 0.24025 0.0
H997 H 0.54085 0.42142 0.2391 0.0
H998 H 0.57324 0.49331 0.22629 0.0
H999 H 0.52982 0.51479 0.22766 0.0
Nd1000 Nd 0.37836 0.64812 0.98499 0.0
Nd1001 Nd 0.35026 0.68502 0.98129 0.0
C1002 C 0.39906 0.60227 0.99123 0.0
C1003 C 0.41683 0.59388 0.99931 0.0
C1004 C 0.41999 0.56678 1.00144 0.0
C1005 C 0.43648 0.5586 1.00924 0.0
C1006 C 0.45011 0.57743 1.01504 0.0
C1007 C 0.44684 0.60464 1.01284 0.0
C1008 C 0.43031 0.61279 1.00505 0.0
C1009 C 0.41544 0.69067 0.98484 0.0
C1010 C 0.34085 0.664 1.00343 0.0
C1011 C 0.32705 0.73251 0.98191 0.0
C1012 C 0.33782 0.75942 0.98278 0.0
C1013 C 0.36394 0.76312 0.98613 0.0
C1014 C 0.37606 0.78793 0.98526 0.0
C1015 C 0.36224 0.80938 0.98095 0.0
C1016 C 0.33541 0.80596 0.97824 0.0
C1017 C 0.32333 0.78111 0.97913 0.0
C1018 C 0.32596 0.64582 0.96919 0.0
C1019 C 0.3841 0.66746 0.96335 0.0
O1020 O 0.37578 0.61103 0.99393 0.0
O1021 O 0.40961 0.61689 0.9843 0.0
O1022 O 0.41867 0.66743 0.98092 0.0
O1023 O 0.39192 0.69168 0.98867 0.0
O1024 O 0.36528 0.65642 1.00147 0.0
O1025 O 0.32733 0.67251 0.99571 0.0
O1026 O 0.32994 0.71724 0.98966 0.0
O1027 O 0.33301 0.72028 0.97369 0.0
O1028 O 0.32853 0.67081 0.9672 0.0
O1029 O 0.33587 0.64128 0.97795 0.0
O1030 O 0.37924 0.68958 0.96817 0.0
O1031 O 0.38038 0.64514 0.96814 0.0
H1032 H 0.40955 0.55195 0.99711 0.0
H1033 H 0.43822 0.53753 1.01082 0.0
H1034 H 0.45727 0.61964 1.01707 0.0
H1035 H 0.42802 0.63384 1.0035 0.0
H1036 H 0.37534 0.74645 0.98895 0.0
H1037 H 0.39666 0.78998 0.98747 0.0
H1038 H 0.3243 0.82193 0.97475 0.0
H1039 H 0.30319 0.7785 0.97645 0.0
Nd1040 Nd 0.16966 0.62714 0.7357 0.0
Nd1041 Nd 0.13543 0.59779 0.73269 0.0
C1042 C 0.21546 0.64792 0.74174 0.0
C1043 C 0.22391 0.66572 0.74978 0.0
C1044 C 0.251 0.6688 0.75183 0.0
C1045 C 0.25926 0.6854 0.75956 0.0
C1046 C 0.24051 0.69921 0.76538 0.0
C1047 C 0.2133 0.696 0.76327 0.0
C1048 C 0.20507 0.67937 0.75554 0.0
C1049 C 0.1271 0.66388 0.73588 0.0
C1050 C 0.15724 0.58997 0.75438 0.0
C1051 C 0.09036 0.57119 0.73489 0.0
C1052 C 0.06264 0.57989 0.73468 0.0
C1053 C 0.05676 0.60694 0.73339 0.0
C1054 C 1.03065 0.61514 0.73174 0.0
C1055 C 1.01004 0.59636 0.73134 0.0
C1056 C 1.01587 0.56946 0.73337 0.0
C1057 C 0.04208 0.56127 0.73499 0.0
C1058 C 0.1738 0.57595 0.71959 0.0
C1059 C 0.14504 0.63424 0.71471 0.0
O1060 O 0.20699 0.62459 0.74448 0.0
O1061 O 0.20058 0.65846 0.73487 0.0
O1062 O 0.15039 0.66761 0.73209 0.0
O1063 O 0.12604 0.64004 0.73953 0.0
O1064 O 0.16035 0.61529 0.75233 0.0
O1065 O 0.15242 0.57534 0.74656 0.0
O1066 O 0.10434 0.58004 0.74231 0.0
O1067 O 0.1029 0.57329 0.72647 0.0
O1068 O 0.14849 0.57775 0.71809 0.0
O1069 O 0.17912 0.58573 0.72828 0.0
O1070 O 0.12481 0.62588 0.71993 0.0
O1071 O 0.16864 0.63243 0.71879 0.0
H1072 H 0.26577 0.65825 0.74749 0.0
H1073 H 0.28032 0.68708 0.76107 0.0
H1074 H 0.19835 0.70657 0.76752 0.0
H1075 H 0.18403 0.67715 0.75406 0.0
H1076 H 0.07254 0.62155 0.73313 0.0
H1077 H 1.02699 0.63592 0.73007 0.0
H1078 H 1.00034 0.5546 0.73321 0.0
H1079 H 0.0464 0.54032 0.73605 0.0
Nd1080 Nd 0.18873 0.41893 0.48508 0.0
Nd1081 Nd 0.21716 0.38202 0.4816 0.0
C1082 C 0.1675 0.46459 0.49126 0.0
C1083 C 0.14959 0.47299 0.49929 0.0
C1084 C 0.14636 0.5001 0.50136 0.0
C1085 C 0.12978 0.50835 0.50911 0.0
C1086 C 0.11612 0.48957 0.51495 0.0
C1087 C 0.11946 0.46234 0.51281 0.0
C1088 C 0.13608 0.45412 0.50506 0.0
C1089 C 0.15188 0.37624 0.48467 0.0
C1090 C 0.22665 0.40353 0.50356 0.0
C1091 C 0.23878 0.33393 0.48271 0.0
C1092 C 0.22643 0.30762 0.48263 0.0
C1093 C 0.19952 0.30533 0.4801 0.0
C1094 C 0.18801 0.28034 0.47906 0.0
C1095 C 0.20318 0.2571 0.48059 0.0
C1096 C 0.22975 0.25961 0.48378 0.0
C1097 C 0.24133 0.28474 0.48474 0.0
C1098 C 0.24221 0.42085 0.46958 0.0
C1099 C 0.18451 0.39986 0.46339 0.0
O1100 O 0.19083 0.45603 0.49401 0.0
O1101 O 0.15713 0.44984 0.48434 0.0
O1102 O 0.14867 0.39949 0.48073 0.0
O1103 O 0.17517 0.3754 0.48867 0.0
O1104 O 0.20208 0.4107 0.50158 0.0
O1105 O 0.24028 0.39516 0.49586 0.0
O1106 O 0.23354 0.34845 0.49047 0.0
O1107 O 0.23656 0.34733 0.47446 0.0
O1108 O 0.24054 0.39564 0.46783 0.0
O1109 O 0.23124 0.42588 0.47813 0.0
O1110 O 0.18902 0.37767 0.46823 0.0
O1111 O 0.1879 0.42214 0.46821 0.0
H1112 H 0.15682 0.51491 0.49702 0.0
H1113 H 0.12801 0.52943 0.51064 0.0
H1114 H 0.10902 0.44736 0.51707 0.0
H1115 H 0.13842 0.43306 0.50357 0.0
H1116 H 0.18769 0.32289 0.47852 0.0
H1117 H 0.16767 0.27935 0.47647 0.0
H1118 H 0.24188 0.24216 0.48517 0.0
H1119 H 0.26205 0.28628 0.48684 0.0
Nd1120 Nd 0.39823 0.62715 0.37562 0.0
Nd1121 Nd 0.43481 0.59804 0.3787 0.0
C1122 C 0.35199 0.64847 0.37013 0.0
C1123 C 0.34311 0.66673 0.36226 0.0
C1124 C 0.316 0.66896 0.36004 0.0
C1125 C 0.30739 0.68564 0.35235 0.0
C1126 C 0.3258 0.7004 0.34674 0.0
C1127 C 0.35301 0.69816 0.34905 0.0
C1128 C 0.36159 0.6814 0.35672 0.0
C1129 C 0.44084 0.66389 0.37529 0.0
C1130 C 0.41238 0.58978 0.35679 0.0
C1131 C 0.48126 0.57312 0.37734 0.0
C1132 C 0.50867 0.58259 0.37753 0.0
C1133 C 0.5137 0.6097 0.37898 0.0
C1134 C 0.5396 0.6185 0.38052 0.0
C1135 C 0.56087 0.60025 0.38065 0.0
C1136 C 0.55584 0.57332 0.37849 0.0
C1137 C 0.52984 0.56454 0.37698 0.0
C1138 C 0.3959 0.57482 0.3913 0.0
C1139 C 0.42229 0.63314 0.39671 0.0
O1140 O 0.36033 0.62525 0.36717 0.0
O1141 O 0.36723 0.65851 0.37697 0.0
O1142 O 0.41769 0.66752 0.37921 0.0
O1143 O 0.44172 0.64019 0.37156 0.0
O1144 O 0.40488 0.61417 0.35895 0.0
O1145 O 0.42134 0.57589 0.36433 0.0
O1146 O 0.4673 0.58041 0.36966 0.0
O1147 O 0.46825 0.57601 0.38563 0.0
O1148 O 0.42109 0.57673 0.39299 0.0
O1149 O 0.39098 0.58488 0.3826 0.0
O1150 O 0.44313 0.6272 0.39133 0.0
O1151 O 0.3989 0.62983 0.39262 0.0
H1152 H 0.30148 0.6577 0.36423 0.0
H1153 H 0.28629 0.68713 0.35084 0.0
H1154 H 0.36772 0.70897 0.3448 0.0
H1155 H 0.38266 0.67971 0.35828 0.0
H1156 H 0.49745 0.62386 0.37941 0.0
H1157 H 0.54265 0.63928 0.38229 0.0
H1158 H 0.57186 0.55887 0.37844 0.0
H1159 H 0.52618 0.54355 0.37579 0.0
Nd1160 Nd 0.19196 0.64979 0.12547 0.0
Nd1161 Nd 0.2206 0.68651 0.12859 0.0
C1162 C 0.17075 0.60386 0.11977 0.0
C1163 C 0.1527 0.59536 0.11182 0.0
C1164 C 0.14853 0.56822 0.11012 0.0
C1165 C 0.13184 0.55994 0.10242 0.0
C1166 C 0.11903 0.57871 0.09628 0.0
C1167 C 0.12327 0.60597 0.09805 0.0
C1168 C 0.13999 0.61421 0.10575 0.0
C1169 C 0.15502 0.69253 0.12554 0.0
C1170 C 0.22892 0.66442 0.10665 0.0
C1171 C 0.24389 0.73366 0.12722 0.0
C1172 C 0.23318 0.7607 0.1264 0.0
C1173 C 0.20713 0.76479 0.12299 0.0
C1174 C 0.195 0.78966 0.12399 0.0
C1175 C 0.20874 0.81076 0.12848 0.0
C1176 C 0.23552 0.80699 0.13122 0.0
C1177 C 0.24761 0.7821 0.13021 0.0
C1178 C 0.24533 0.64765 0.14084 0.0
C1179 C 0.18726 0.67147 0.14685 0.0
O1180 O 0.19404 0.61209 0.11691 0.0
O1181 O 0.16052 0.61904 0.1266 0.0
O1182 O 0.15193 0.6695 0.12965 0.0
O1183 O 0.17836 0.69324 0.12154 0.0
O1184 O 0.20447 0.65738 0.10882 0.0
O1185 O 0.24288 0.67287 0.11422 0.0
O1186 O 0.23987 0.71814 0.11963 0.0
O1187 O 0.23907 0.72179 0.13562 0.0
O1188 O 0.24367 0.6729 0.14248 0.0
O1189 O 0.23447 0.6426 0.1323 0.0
O1190 O 0.19232 0.693 0.14174 0.0
O1191 O 0.19083 0.64858 0.14244 0.0
H1192 H 0.15836 0.55342 0.11471 0.0
H1193 H 0.12933 0.53881 0.10118 0.0
H1194 H 0.11348 0.62095 0.09355 0.0
H1195 H 0.14305 0.63529 0.10696 0.0
H1196 H 0.19575 0.74837 0.12004 0.0
H1197 H 0.17445 0.79198 0.12174 0.0
H1198 H 0.24657 0.82267 0.13485 0.0
H1199 H 0.26769 0.77919 0.13293 0.0
Nd1200 Nd 0.16923 0.43803 0.87569 0.0
Nd1201 Nd 0.13307 0.46628 0.87927 0.0
C1202 C 0.21489 0.4173 0.86935 0.0
C1203 C 0.22333 0.39968 0.86124 0.0
C1204 C 0.25041 0.39675 0.85911 0.0
C1205 C 0.25868 0.38035 0.85131 0.0
C1206 C 0.23996 0.36659 0.8455 0.0
C1207 C 0.21276 0.36965 0.84769 0.0
C1208 C 0.20452 0.38609 0.85549 0.0
C1209 C 0.1268 0.40091 0.87599 0.0
C1210 C 0.15428 0.47576 0.8573 0.0
C1211 C 0.08587 0.48989 0.87819 0.0
C1212 C 0.05888 0.47929 0.87746 0.0
C1213 C 0.05486 0.4531 0.87421 0.0
C1214 C 1.02998 0.44121 0.8752 0.0
C1215 C 1.0088 0.45533 0.87953 0.0
C1216 C 1.01253 0.48221 0.88213 0.0
C1217 C 0.03743 0.49406 0.88112 0.0
C1218 C 0.17191 0.49052 0.8915 0.0
C1219 C 0.15009 0.43258 0.89735 0.0
O1220 O 0.20616 0.44068 0.8667 0.0
O1221 O 0.20029 0.40659 0.87625 0.0
O1222 O 0.15004 0.39775 0.87993 0.0
O1223 O 0.12572 0.42439 0.87209 0.0
O1224 O 0.16017 0.45082 0.8592 0.0
O1225 O 0.14714 0.48959 0.86511 0.0
O1226 O 0.10114 0.48596 0.87052 0.0
O1227 O 0.09799 0.48479 0.88652 0.0
O1228 O 0.14687 0.48804 0.89339 0.0
O1229 O 0.1767 0.48043 0.88279 0.0
O1230 O 0.12804 0.43775 0.89253 0.0
O1231 O 0.17239 0.43595 0.89254 0.0
H1232 H 0.26516 0.40727 0.86344 0.0
H1233 H 0.27973 0.37878 0.84973 0.0
H1234 H 0.19784 0.35912 0.84345 0.0
H1235 H 0.18348 0.38821 0.85704 0.0
H1236 H 0.07132 0.44147 0.87138 0.0
H1237 H 1.02769 0.42057 0.87306 0.0
H1238 H 0.99678 0.49354 0.88564 0.0
H1239 H 0.04029 0.51425 0.88372 0.0
Nd1240 Nd 0.37788 0.41875 0.62512 0.0
Nd1241 Nd 0.34927 0.38216 0.62851 0.0
C1242 C 0.39866 0.46457 0.61902 0.0
C1243 C 0.41637 0.47311 0.61096 0.0
C1244 C 0.41914 0.50023 0.60885 0.0
C1245 C 0.43559 0.50859 0.60108 0.0
C1246 C 0.44958 0.48991 0.59529 0.0
C1247 C 0.44669 0.46266 0.59746 0.0
C1248 C 0.43019 0.45433 0.60522 0.0
C1249 C 0.41474 0.37595 0.62528 0.0
C1250 C 0.34004 0.40394 0.6066 0.0
C1251 C 0.32703 0.33455 0.62728 0.0
C1252 C 0.33924 0.30809 0.62741 0.0
C1253 C 0.36616 0.30554 0.6299 0.0
C1254 C 0.37767 0.28046 0.63091 0.0
C1255 C 0.36246 0.25736 0.62941 0.0
C1256 C 0.33582 0.26011 0.62632 0.0
C1257 C 0.32426 0.28535 0.62536 0.0
C1258 C 0.3252 0.42111 0.64082 0.0
C1259 C 0.38313 0.3978 0.64665 0.0
O1260 O 0.37534 0.45611 0.61631 0.0
O1261 O 0.40924 0.44964 0.62588 0.0
O1262 O 0.41813 0.39919 0.62917 0.0
O1263 O 0.39128 0.37518 0.62141 0.0
O1264 O 0.36472 0.41055 0.60859 0.0
O1265 O 0.32624 0.39601 0.61431 0.0
O1266 O 0.33269 0.34905 0.61955 0.0
O1267 O 0.32904 0.34785 0.63554 0.0
O1268 O 0.32686 0.39585 0.64252 0.0
O1269 O 0.33564 0.42609 0.63219 0.0
O1270 O 0.37768 0.37616 0.64166 0.0
O1271 O 0.38009 0.42054 0.64203 0.0
H1272 H 0.40845 0.51496 0.61317 0.0
H1273 H 0.43703 0.52968 0.59953 0.0
H1274 H 0.45739 0.44776 0.59323 0.0
H1275 H 0.4282 0.43326 0.60675 0.0
H1276 H 0.37805 0.323 0.63143 0.0
H1277 H 0.39806 0.27929 0.63346 0.0
H1278 H 0.32366 0.24275 0.62497 0.0
H1279 H 0.3035 0.28707 0.6233 0.0
C1280 C 0.12277 0.14234 0.41271 0.0
C1281 C 0.14699 0.13869 0.40769 0.0
C1282 C 0.12244 0.14627 0.423 0.0
C1283 C 0.16443 0.13937 0.44558 0.0
H1284 H 0.12861 0.20358 0.45429 0.0
C1285 C 0.20872 0.21355 0.4719 0.0
C1286 C 0.19245 0.23101 0.47735 0.0
C1287 C 0.19757 0.19288 0.46644 0.0
C1288 C 0.13809 0.18509 0.45214 0.0
H1289 H 0.18976 0.13577 0.40949 0.0
H1290 H 0.18922 0.14294 0.42731 0.0
H1291 H 0.11883 0.18547 0.43798 0.0
H1292 H 0.15213 0.23804 0.48247 0.0
H1293 H 0.13255 0.20222 0.47268 0.0
H1294 H 0.18509 0.14012 0.45949 0.0
C1295 C 0.17044 0.14242 0.42338 0.0
C1296 C 0.13252 0.17476 0.44275 0.0
C1297 C 0.17078 0.13872 0.41313 0.0
C1298 C 0.16513 0.22542 0.47811 0.0
C1299 C 0.15391 0.20484 0.47256 0.0
C1300 C 0.16999 0.14969 0.45497 0.0
C1301 C 0.14631 0.14629 0.42843 0.0
C1302 C 0.14676 0.15269 0.43917 0.0
C1303 C 0.16989 0.1893 0.46626 0.0
C1304 C 0.15799 0.17352 0.4581 0.0
H1305 H 0.10411 0.14221 0.40869 0.0
H1306 H 0.10358 0.14929 0.42671 0.0
H1307 H 0.17522 0.12193 0.44308 0.0
H1308 H 0.22979 0.21723 0.47106 0.0
H1309 H 0.21046 0.18143 0.46161 0.0
C1310 C 0.16004 0.88615 0.66221 0.0
C1311 C 0.18277 0.89728 0.65796 0.0
C1312 C 0.15561 0.88859 0.67243 0.0
C1313 C 0.17566 0.93255 0.69319 0.0
H1314 H 0.12582 0.88799 0.7074 0.0
C1315 C 0.09986 0.97456 0.71958 0.0
C1316 C 0.08759 0.9585 0.72677 0.0
C1317 C 0.12054 0.96456 0.71382 0.0
C1318 C 0.14036 0.90037 0.70371 0.0
H1319 H 0.21971 0.91765 0.66087 0.0
H1320 H 0.21312 0.92037 0.67871 0.0
H1321 H 0.14517 0.87215 0.69198 0.0
H1322 H 0.0894 0.92043 0.73435 0.0
H1323 H 0.12589 0.90291 0.72427 0.0
H1324 H 0.171 0.96065 0.70495 0.0
C1325 C 0.19791 0.91097 0.67426 0.0
C1326 C 0.15107 0.89147 0.69473 0.0
C1327 C 0.20185 0.90928 0.66404 0.0
C1328 C 0.09818 0.93309 0.72873 0.0
C1329 C 0.11902 0.92305 0.72295 0.0
C1330 C 0.1654 0.94116 0.70225 0.0
C1331 C 0.17426 0.9016 0.67857 0.0
C1332 C 0.16771 0.90808 0.68908 0.0
C1333 C 0.12955 0.93825 0.71511 0.0
C1334 C 0.14641 0.92589 0.70731 0.0
H1335 H 0.14513 0.87681 0.65758 0.0
H1336 H 0.13696 0.88143 0.67539 0.0
H1337 H 0.18835 0.94608 0.68913 0.0
H1338 H 0.09204 0.99408 0.71778 0.0
H1339 H 0.12781 0.9768 0.70779 0.0
C1340 C 0.39652 0.94636 0.91329 0.0
C1341 C 0.41651 0.93459 0.90751 0.0
C1342 C 0.3956 0.94201 0.9235 0.0
C1343 C 0.43166 0.91059 0.94488 0.0
H1344 H 0.35966 0.89629 0.95355 0.0
C1345 C 0.40094 0.83076 0.9726 0.0
C1346 C 0.37661 0.83351 0.97764 0.0
C1347 C 0.41079 0.8516 0.96684 0.0
C1348 C 0.37989 0.9009 0.95142 0.0
H1349 H 0.45193 0.9101 0.90777 0.0
H1350 H 0.44937 0.90076 0.92561 0.0
H1351 H 0.36697 0.91598 0.93747 0.0
H1352 H 0.34564 0.8614 0.98182 0.0
H1353 H 0.36287 0.89789 0.97173 0.0
H1354 H 0.44435 0.89337 0.95871 0.0
C1355 C 0.43487 0.91413 0.92234 0.0
C1356 C 0.38414 0.91223 0.94212 0.0
C1357 C 0.43622 0.91916 0.91212 0.0
C1358 C 0.36411 0.85854 0.97782 0.0
C1359 C 0.374 0.87942 0.97207 0.0
C1360 C 0.42738 0.89893 0.9542 0.0
C1361 C 0.41414 0.92503 0.92812 0.0
C1362 C 0.41008 0.91658 0.9386 0.0
C1363 C 0.39646 0.87553 0.96602 0.0
C1364 C 0.40143 0.89329 0.95743 0.0
H1365 H 0.38149 0.95895 0.90991 0.0
H1366 H 0.37988 0.95146 0.92772 0.0
H1367 H 0.45189 0.91413 0.94249 0.0
H1368 H 0.41107 0.81173 0.97228 0.0
H1369 H 0.42809 0.8479 0.96226 0.0
C1370 C 0.46277 0.11576 0.22469 0.0
C1371 C 0.48648 0.128 0.22771 0.0
C1372 C 0.44445 0.12959 0.21884 0.0
C1373 C 0.4491 0.18193 0.20011 0.0
H1374 H 0.37725 0.15876 0.19454 0.0
C1375 C 0.38837 0.15172 0.16387 0.0
C1376 C 0.39126 0.17408 0.15772 0.0
C1377 C 0.39418 0.15333 0.17398 0.0
C1378 C 0.3972 0.16567 0.19607 0.0
H1379 H 0.50756 0.16564 0.22822 0.0
H1380 H 0.47496 0.19004 0.2185 0.0
H1381 H 0.39647 0.1506 0.21094 0.0
H1382 H 0.40205 0.21579 0.15728 0.0
H1383 H 0.41311 0.21837 0.175 0.0
H1384 H 0.4501 0.19614 0.18514 0.0
C1385 C 0.47108 0.16938 0.22025 0.0
C1386 C 0.40825 0.16096 0.20544 0.0
C1387 C 0.48965 0.15541 0.22596 0.0
C1388 C 0.39981 0.19821 0.16187 0.0
C1389 C 0.40602 0.19973 0.17198 0.0
C1390 C 0.43792 0.18695 0.19081 0.0
C1391 C 0.44926 0.15613 0.21603 0.0
C1392 C 0.43484 0.16776 0.20739 0.0
C1393 C 0.4033 0.17726 0.17811 0.0
C1394 C 0.41238 0.17769 0.18856 0.0
H1395 H 0.45932 0.09487 0.22618 0.0
H1396 H 0.42785 0.11862 0.21581 0.0
H1397 H 0.46971 0.18725 0.20124 0.0
H1398 H 0.38152 0.13294 0.16088 0.0
H1399 H 0.39235 0.13559 0.1785 0.0
C1400 C 0.1324 0.91742 0.19788 0.0
C1401 C 0.15193 0.93245 0.2027 0.0
C1402 C 0.13427 0.91268 0.18766 0.0
C1403 C 0.18584 0.91096 0.16816 0.0
H1404 H 0.12616 0.89405 0.15111 0.0
C1405 C 0.20683 0.8597 0.13204 0.0
C1406 C 0.19429 0.83478 0.13195 0.0
C1407 C 0.19684 0.88023 0.13796 0.0
C1408 C 0.143 0.89907 0.15575 0.0
H1409 H 0.18725 0.95637 0.20064 0.0
H1410 H 0.18981 0.94936 0.18283 0.0
H1411 H 0.11813 0.91391 0.16743 0.0
H1412 H 0.15966 0.81292 0.13698 0.0
H1413 H 0.14243 0.84851 0.14727 0.0
H1414 H 0.21066 0.8954 0.15674 0.0
C1415 C 0.1738 0.94 0.1869 0.0
C1416 C 0.13842 0.91021 0.16513 0.0
C1417 C 0.17234 0.94407 0.19711 0.0
C1418 C 0.16982 0.83188 0.13687 0.0
C1419 C 0.15986 0.85238 0.14279 0.0
C1420 C 0.19038 0.90016 0.1588 0.0
C1421 C 0.15536 0.92349 0.18208 0.0
C1422 C 0.1598 0.91549 0.17157 0.0
C1423 C 0.17421 0.8761 0.14389 0.0
C1424 C 0.16903 0.89328 0.15262 0.0
H1425 H 0.11636 0.90849 0.20208 0.0
H1426 H 0.11984 0.89966 0.18424 0.0
H1427 H 0.20285 0.91417 0.17293 0.0
H1428 H 0.2254 0.8627 0.12814 0.0
H1429 H 0.20799 0.89856 0.13852 0.0
C1430 C 0.45857 0.95516 0.38209 0.0
C1431 C 0.48349 0.94247 0.38205 0.0
C1432 C 0.43795 0.9452 0.38794 0.0
C1433 C 0.41908 0.89134 0.40575 0.0
H1434 H 0.40365 0.95139 0.42285 0.0
C1435 C 0.401 0.88109 0.44792 0.0
C1436 C 0.38588 0.90069 0.45271 0.0
C1437 C 0.40565 0.88286 0.43768 0.0
C1438 C 0.40695 0.93433 0.4181 0.0
H1439 H 0.50526 0.9076 0.3871 0.0
H1440 H 0.46954 0.89044 0.39728 0.0
H1441 H 0.42239 0.95908 0.40665 0.0
H1442 H 0.36174 0.93605 0.45061 0.0
H1443 H 0.3686 0.93844 0.43279 0.0
H1444 H 0.40438 0.86655 0.41747 0.0
C1445 C 0.46573 0.90796 0.3928 0.0
C1446 C 0.41773 0.9388 0.40873 0.0
C1447 C 0.48631 0.91788 0.38695 0.0
C1448 C 0.3741 0.92108 0.4471 0.0
C1449 C 0.37809 0.92245 0.43688 0.0
C1450 C 0.40797 0.88684 0.41513 0.0
C1451 C 0.442 0.92247 0.39386 0.0
C1452 C 0.42475 0.91737 0.40258 0.0
C1453 C 0.39467 0.90393 0.43207 0.0
C1454 C 0.40258 0.90829 0.42155 0.0
H1455 H 0.45565 0.97383 0.37821 0.0
H1456 H 0.41961 0.95647 0.38846 0.0
H1457 H 0.42419 0.87445 0.40113 0.0
H1458 H 0.41006 0.86507 0.45213 0.0
H1459 H 0.41873 0.86838 0.43427 0.0
C1460 C 0.40062 0.2254 0.63167 0.0
C1461 C 0.37332 0.23115 0.63258 0.0
C1462 C 0.41208 0.20469 0.63715 0.0
C1463 C 0.3968 0.14947 0.65479 0.0
H1464 H 0.44825 0.18501 0.67159 0.0
C1465 C 0.39678 0.13869 0.69662 0.0
C1466 C 0.42062 0.13866 0.70203 0.0
C1467 C 0.397 0.14226 0.68636 0.0
C1468 C 0.43449 0.17435 0.66687 0.0
H1469 H 0.33624 0.21753 0.63905 0.0
H1470 H 0.35598 0.1815 0.64838 0.0
H1471 H 0.43797 0.20323 0.65531 0.0
H1472 H 0.46348 0.142 0.70096 0.0
H1473 H 0.4638 0.14886 0.68291 0.0
H1474 H 0.39201 0.12166 0.66671 0.0
C1475 C 0.36867 0.19292 0.64349 0.0
C1476 C 0.42863 0.18475 0.6575 0.0
C1477 C 0.35727 0.21373 0.6381 0.0
C1478 C 0.44478 0.14214 0.69697 0.0
C1479 C 0.44499 0.14594 0.68666 0.0
C1480 C 0.40268 0.13907 0.66417 0.0
C1481 C 0.39636 0.18919 0.64353 0.0
C1482 C 0.4086 0.17329 0.65162 0.0
C1483 C 0.42106 0.14598 0.68126 0.0
C1484 C 0.42044 0.15233 0.67051 0.0
H1485 H 0.41344 0.23801 0.62725 0.0
H1486 H 0.43343 0.20196 0.63692 0.0
H1487 H 0.38161 0.13998 0.65034 0.0
H1488 H 0.37784 0.13586 0.70029 0.0
H1489 H 0.37817 0.14281 0.68246 0.0
C1490 C 0.16832 0.19975 0.94931 0.0
C1491 C 0.17687 0.17566 0.95356 0.0
C1492 C 0.16239 0.20113 0.93917 0.0
C1493 C 0.13095 0.18794 0.92029 0.0
H1494 H 0.17284 0.15069 0.90047 0.0
C1495 C 0.10689 0.11497 0.88701 0.0
C1496 C 0.08309 0.12702 0.88386 0.0
C1497 C 0.12506 0.12914 0.89275 0.0
C1498 C 0.16095 0.1613 0.90589 0.0
H1499 H 0.18699 0.13447 0.95055 0.0
H1500 H 0.17666 0.13688 0.93289 0.0
H1501 H 0.19188 0.15961 0.91683 0.0
H1502 H 0.06171 0.16461 0.88301 0.0
H1503 H 0.09405 0.18958 0.89253 0.0
H1504 H 0.09924 0.18773 0.90983 0.0
C1505 C 0.17459 0.1547 0.93735 0.0
C1506 C 0.17189 0.16647 0.91523 0.0
C1507 C 0.18011 0.15322 0.94749 0.0
C1508 C 0.07969 0.15452 0.88537 0.0
C1509 C 0.09811 0.16883 0.89097 0.0
C1510 C 0.11989 0.18249 0.91101 0.0
C1511 C 0.16542 0.17857 0.93311 0.0
C1512 C 0.15654 0.17878 0.92264 0.0
C1513 C 0.12002 0.15583 0.89531 0.0
C1514 C 0.1343 0.16796 0.90386 0.0
H1515 H 0.16584 0.21738 0.95384 0.0
H1516 H 0.15525 0.21973 0.93606 0.0
H1517 H 0.11864 0.19735 0.92588 0.0
H1518 H 0.11051 0.094 0.88571 0.0
H1519 H 0.14173 0.11836 0.89589 0.0
C1520 C 0.89941 0.92955 0.69756 0.0
C1521 C 0.92289 0.92941 0.70318 0.0
C1522 C 0.90028 0.92577 0.68732 0.0
C1523 C 0.93851 0.8926 0.66832 0.0
H1524 H 0.88735 0.92797 0.65118 0.0
C1525 C 0.90543 0.84149 0.63308 0.0
C1526 C 0.87795 0.83663 0.6338 0.0
C1527 C 0.91708 0.86197 0.63857 0.0
C1528 C 0.90207 0.91818 0.6558 0.0
H1529 H 0.96578 0.92548 0.70253 0.0
H1530 H 0.96724 0.91816 0.68451 0.0
H1531 H 0.89709 0.94641 0.66755 0.0
H1532 H 0.84087 0.85158 0.63994 0.0
H1533 H 0.86095 0.8872 0.64926 0.0
H1534 H 0.94208 0.86331 0.65692 0.0
C1535 C 0.94821 0.92144 0.68807 0.0
C1536 C 0.90758 0.92866 0.66518 0.0
C1537 C 0.94736 0.92549 0.69836 0.0
C1538 C 0.86204 0.85468 0.63913 0.0
C1539 C 0.87363 0.87526 0.64451 0.0
C1540 C 0.93299 0.88211 0.65894 0.0
C1541 C 0.92464 0.92162 0.68246 0.0
C1542 C 0.92466 0.91509 0.67173 0.0
C1543 C 0.90139 0.87814 0.64475 0.0
C1544 C 0.91354 0.89394 0.65284 0.0
H1545 H 0.88025 0.93272 0.70104 0.0
H1546 H 0.88172 0.92541 0.68324 0.0
H1547 H 0.95176 0.88171 0.6732 0.0
H1548 H 0.91817 0.8284 0.62881 0.0
H1549 H 0.9385 0.86403 0.63849 0.0
C1550 C 0.87438 0.14663 0.44694 0.0
C1551 C 0.88602 0.16693 0.45257 0.0
C1552 C 0.87848 0.14534 0.43673 0.0
C1553 C 0.90838 0.18102 0.41502 0.0
H1554 H 0.92318 0.1088 0.40655 0.0
C1555 C 0.98668 0.14994 0.38671 0.0
C1556 C 0.9839 0.1254 0.38182 0.0
C1557 C 0.96614 0.15986 0.39262 0.0
C1558 C 0.91842 0.12908 0.40863 0.0
H1559 H 0.91002 0.20251 0.45203 0.0
H1560 H 0.91888 0.19933 0.43418 0.0
H1561 H 0.90438 0.11643 0.42274 0.0
H1562 H 0.95616 0.09413 0.37804 0.0
H1563 H 0.92019 0.11152 0.38837 0.0
H1564 H 0.92455 0.19345 0.40101 0.0
C1565 C 0.90583 0.18485 0.43757 0.0
C1566 C 0.90761 0.13351 0.41799 0.0
C1567 C 0.90107 0.18655 0.4478 0.0
C1568 C 0.95904 0.11277 0.38192 0.0
C1569 C 0.93847 0.12274 0.38781 0.0
C1570 C 0.91952 0.17655 0.40563 0.0
C1571 C 0.89502 0.16385 0.43194 0.0
C1572 C 0.90307 0.15954 0.42143 0.0
C1573 C 0.94249 0.14541 0.39373 0.0
C1574 C 0.92531 0.15052 0.40247 0.0
H1575 H 0.86207 0.13166 0.45043 0.0
H1576 H 0.86912 0.12941 0.43262 0.0
H1577 H 0.90468 0.2013 0.41735 0.0
H1578 H 1.00558 0.16017 0.38682 0.0
H1579 H 0.96993 0.17734 0.39709 0.0
C1580 C 0.7097 0.21547 0.13916 0.0
C1581 C 0.69334 0.2329 0.13371 0.0
C1582 C 0.69864 0.19476 0.14464 0.0
C1583 C 0.63928 0.18659 0.15899 0.0
H1584 H 0.67658 0.12333 0.16793 0.0
C1585 C 0.6239 0.14263 0.1983 0.0
C1586 C 0.6481 0.13886 0.20333 0.0
C1587 C 0.62364 0.14695 0.18802 0.0
C1588 C 0.66574 0.1408 0.16547 0.0
H1589 H 0.65295 0.23988 0.12863 0.0
H1590 H 0.63354 0.20398 0.13847 0.0
H1591 H 0.68637 0.14188 0.15156 0.0
H1592 H 0.69089 0.13615 0.20157 0.0
H1593 H 0.69045 0.14399 0.18378 0.0
H1594 H 0.62003 0.18662 0.17316 0.0
C1595 C 0.65489 0.20665 0.13857 0.0
C1596 C 0.67126 0.15133 0.1561 0.0
C1597 C 0.66602 0.22727 0.13299 0.0
C1598 C 0.67193 0.13919 0.19792 0.0
C1599 C 0.67165 0.14327 0.18769 0.0
C1600 C 0.63375 0.17605 0.16837 0.0
C1601 C 0.67097 0.19111 0.14486 0.0
C1602 C 0.65919 0.17519 0.15301 0.0
C1603 C 0.64755 0.14723 0.18262 0.0
C1604 C 0.64803 0.15394 0.1719 0.0
H1605 H 0.73076 0.21918 0.13998 0.0
H1606 H 0.7116 0.18331 0.14947 0.0
H1607 H 0.62974 0.2051 0.15687 0.0
H1608 H 0.60522 0.14228 0.20229 0.0
H1609 H 0.60479 0.15003 0.1843 0.0
C1610 C 0.59385 0.93175 0.88243 0.0
C1611 C 0.58387 0.95753 0.8841 0.0
C1612 C 0.61441 0.92161 0.88834 0.0
C1613 C 0.66106 0.9405 0.90887 0.0
H1614 H 0.64193 0.87141 0.9194 0.0
C1615 C 0.69777 0.9115 0.94727 0.0
C1616 C 0.68025 0.89735 0.95334 0.0
C1617 C 0.69377 0.91284 0.93707 0.0
C1618 C 0.64743 0.89084 0.91663 0.0
H1619 H 0.58896 0.9935 0.89279 0.0
H1620 H 0.62408 0.97606 0.90303 0.0
H1621 H 0.62199 0.88681 0.90402 0.0
H1622 H 0.64493 0.87308 0.95369 0.0
H1623 H 0.63586 0.87775 0.93594 0.0
H1624 H 0.68383 0.94625 0.92191 0.0
C1625 C 0.61669 0.96359 0.89709 0.0
C1626 C 0.63642 0.89945 0.90764 0.0
C1627 C 0.59636 0.97371 0.89118 0.0
C1628 C 0.6587 0.8841 0.94907 0.0
C1629 C 0.65381 0.88655 0.93886 0.0
C1630 C 0.67139 0.9323 0.91797 0.0
C1631 C 0.62522 0.93705 0.89605 0.0
C1632 C 0.64215 0.92496 0.90391 0.0
C1633 C 0.67105 0.90147 0.93273 0.0
C1634 C 0.66391 0.90777 0.92221 0.0
H1635 H 0.58483 0.91897 0.87692 0.0
H1636 H 0.62089 0.90127 0.8872 0.0
H1637 H 0.66655 0.95993 0.90607 0.0
H1638 H 0.71447 0.92184 0.95045 0.0
H1639 H 0.7082 0.92357 0.93267 0.0
C1640 C 0.90705 0.11901 0.91427 0.0
C1641 C 0.92084 0.13648 0.90806 0.0
C1642 C 0.90592 0.12339 0.92445 0.0
C1643 C 0.92819 0.17054 0.94456 0.0
H1644 H 0.85938 0.15182 0.95539 0.0
C1645 C 0.88818 0.22511 0.97864 0.0
C1646 C 0.86241 0.23513 0.97699 0.0
C1647 C 0.89814 0.20439 0.97278 0.0
C1648 C 0.87873 0.15719 0.95251 0.0
H1649 H 0.94472 0.17206 0.90744 0.0
H1650 H 0.94048 0.1817 0.92515 0.0
H1651 H 0.87272 0.13394 0.9396 0.0
H1652 H 0.82631 0.22997 0.9684 0.0
H1653 H 0.84344 0.19455 0.95824 0.0
H1654 H 0.93251 0.19639 0.95704 0.0
C1655 C 0.93178 0.16355 0.92235 0.0
C1656 C 0.88673 0.14653 0.94345 0.0
C1657 C 0.93398 0.15833 0.91216 0.0
C1658 C 0.84609 0.22254 0.96999 0.0
C1659 C 0.85603 0.20205 0.96412 0.0
C1660 C 0.91979 0.18185 0.95352 0.0
C1661 C 0.91719 0.14638 0.92863 0.0
C1662 C 0.91114 0.15387 0.93912 0.0
C1663 C 0.88253 0.19344 0.96515 0.0
C1664 C 0.8944 0.17626 0.95734 0.0
H1665 H 0.89684 0.10205 0.91121 0.0
H1666 H 0.89542 0.10904 0.92897 0.0
H1667 H 0.94753 0.17595 0.94171 0.0
H1668 H 0.90107 0.23421 0.98411 0.0
H1669 H 0.91845 0.19786 0.9739 0.0
C1670 C 0.69332 0.14713 0.66339 0.0
C1671 C 0.68146 0.16727 0.65768 0.0
C1672 C 0.68923 0.14601 0.67361 0.0
C1673 C 0.65877 0.1819 0.69517 0.0
H1674 H 0.64486 0.10975 0.70387 0.0
C1675 C 0.58053 0.15083 0.72342 0.0
C1676 C 0.58355 0.12637 0.72839 0.0
C1677 C 0.60104 0.1608 0.71754 0.0
C1678 C 0.64937 0.13002 0.70173 0.0
H1679 H 0.65703 0.20274 0.65809 0.0
H1680 H 0.64816 0.19985 0.67595 0.0
H1681 H 0.66368 0.11721 0.68768 0.0
H1682 H 0.61164 0.09533 0.73234 0.0
H1683 H 0.64756 0.11278 0.72205 0.0
H1684 H 0.64232 0.19448 0.70912 0.0
C1685 C 0.6614 0.18537 0.67261 0.0
C1686 C 0.66019 0.13436 0.69236 0.0
C1687 C 0.66616 0.18691 0.66238 0.0
C1688 C 0.60858 0.11389 0.7284 0.0
C1689 C 0.62913 0.12391 0.72253 0.0
C1690 C 0.64761 0.17753 0.70456 0.0
C1691 C 0.67244 0.16452 0.67832 0.0
C1692 C 0.66441 0.16035 0.68884 0.0
C1693 C 0.6249 0.14647 0.71653 0.0
C1694 C 0.64214 0.15152 0.70781 0.0
H1695 H 0.70582 0.13215 0.65995 0.0
H1696 H 0.69878 0.13019 0.67777 0.0
H1697 H 0.66222 0.20217 0.69277 0.0
H1698 H 0.56149 0.16095 0.72323 0.0
H1699 H 0.5971 0.17819 0.71301 0.0
C1700 C 0.62197 0.92491 0.41319 0.0
C1701 C 0.64621 0.92856 0.4082 0.0
C1702 C 0.62158 0.92108 0.4235 0.0
C1703 C 0.66323 0.92852 0.44611 0.0
H1704 H 0.62835 0.86414 0.45497 0.0
C1705 C 0.7086 0.85497 0.47261 0.0
C1706 C 0.69259 0.83746 0.47811 0.0
C1707 C 0.69713 0.8755 0.4671 0.0
C1708 C 0.63756 0.88268 0.45277 0.0
H1709 H 0.68894 0.93157 0.41006 0.0
H1710 H 0.68828 0.92459 0.42789 0.0
H1711 H 0.61837 0.88198 0.4386 0.0
H1712 H 0.65238 0.83019 0.48326 0.0
H1713 H 0.63227 0.86575 0.47337 0.0
H1714 H 0.68385 0.9281 0.46003 0.0
C1715 C 0.66953 0.92503 0.42393 0.0
C1716 C 0.63188 0.89285 0.44335 0.0
C1717 C 0.66994 0.92861 0.41367 0.0
C1718 C 0.66519 0.84286 0.47886 0.0
C1719 C 0.65366 0.86329 0.47325 0.0
C1720 C 0.66891 0.91836 0.45553 0.0
C1721 C 0.64539 0.92119 0.42896 0.0
C1722 C 0.64581 0.91497 0.43972 0.0
C1723 C 0.6694 0.87887 0.46691 0.0
C1724 C 0.65727 0.89447 0.45872 0.0
H1725 H 0.60335 0.92498 0.40915 0.0
H1726 H 0.6027 0.91806 0.42719 0.0
H1727 H 0.67379 0.946 0.44356 0.0
H1728 H 0.72972 0.85143 0.47177 0.0
H1729 H 0.70985 0.88698 0.46224 0.0
C1730 C 0.96492 0.96002 0.22205 0.0
C1731 C 0.98247 0.94381 0.2275 0.0
C1732 C 0.94424 0.94877 0.21662 0.0
C1733 C 0.93653 0.88918 0.20238 0.0
H1734 H 0.87318 0.92607 0.19336 0.0
C1735 C 0.89345 0.87363 0.163 0.0
C1736 C 0.8896 0.89786 0.15797 0.0
C1737 C 0.89752 0.87333 0.17329 0.0
C1738 C 0.89067 0.91534 0.19585 0.0
H1739 H 0.98967 0.90348 0.23267 0.0
H1740 H 0.95384 0.88374 0.22293 0.0
H1741 H 0.89149 0.93605 0.20973 0.0
H1742 H 0.88648 0.94067 0.15975 0.0
H1743 H 0.8939 0.94016 0.17756 0.0
H1744 H 0.93684 0.86989 0.18824 0.0
C1745 C 0.95639 0.90513 0.22278 0.0
C1746 C 0.90106 0.92097 0.20522 0.0
C1747 C 0.97697 0.91644 0.2283 0.0
C1748 C 0.88959 0.92168 0.1634 0.0
C1749 C 0.89343 0.92136 0.17364 0.0
C1750 C 0.92613 0.88356 0.19301 0.0
C1751 C 0.94075 0.92105 0.21647 0.0
C1752 C 0.92495 0.90906 0.20834 0.0
C1753 C 0.89748 0.89723 0.1787 0.0
C1754 C 0.90399 0.89771 0.18944 0.0
H1755 H 0.96852 0.98112 0.22117 0.0
H1756 H 0.93272 0.96162 0.21178 0.0
H1757 H 0.95506 0.87977 0.20453 0.0
H1758 H 0.89336 0.85495 0.15899 0.0
H1759 H 0.90068 0.85446 0.17701 0.0
C1760 C 0.66573 0.72433 0.97864 0.0
C1761 C 0.69307 0.7297 0.97777 0.0
C1762 C 0.65416 0.70393 0.9731 0.0
C1763 C 0.66923 0.64906 0.95526 0.0
H1764 H 0.61807 0.68589 0.93857 0.0
C1765 C 0.6695 0.63999 0.91339 0.0
C1766 C 0.64567 0.64027 0.90797 0.0
C1767 C 0.66925 0.64323 0.92366 0.0
C1768 C 0.63175 0.67488 0.94326 0.0
H1769 H 0.7301 0.71567 0.97131 0.0
H1770 H 0.71018 0.68018 0.96187 0.0
H1771 H 0.62832 0.70334 0.95495 0.0
H1772 H 0.60281 0.64387 0.90903 0.0
H1773 H 0.60244 0.65018 0.9271 0.0
H1774 H 0.67401 0.62169 0.94322 0.0
C1775 C 0.69753 0.69166 0.96678 0.0
C1776 C 0.63759 0.68483 0.95268 0.0
C1777 C 0.70903 0.71216 0.97223 0.0
C1778 C 0.6215 0.64378 0.91303 0.0
C1779 C 0.62126 0.64726 0.92335 0.0
C1780 C 0.66339 0.63912 0.94584 0.0
C1781 C 0.66981 0.68835 0.9667 0.0
C1782 C 0.65752 0.6729 0.95853 0.0
C1783 C 0.64517 0.64694 0.92876 0.0
C1784 C 0.64575 0.65285 0.93953 0.0
H1785 H 0.65297 0.73703 0.98308 0.0
H1786 H 0.63278 0.70151 0.9733 0.0
H1787 H 0.68434 0.63921 0.95969 0.0
H1788 H 0.68845 0.63713 0.90971 0.0
H1789 H 0.68806 0.6435 0.92757 0.0
C1790 C 0.58178 0.41651 0.22433 0.0
C1791 C 0.58458 0.44088 0.22933 0.0
C1792 C 0.60248 0.40656 0.21851 0.0
C1793 C 0.65072 0.43763 0.20286 0.0
H1794 H 0.66391 0.36568 0.19371 0.0
C1795 C 0.69376 0.42135 0.1643 0.0
C1796 C 0.68193 0.40126 0.15862 0.0
C1797 C 0.68996 0.42229 0.17454 0.0
C1798 C 0.66037 0.38589 0.19616 0.0
H1799 H 0.61249 0.47169 0.23345 0.0
H1800 H 0.64872 0.45429 0.22326 0.0
H1801 H 0.64414 0.37299 0.2101 0.0
H1802 H 0.65785 0.36573 0.15908 0.0
H1803 H 0.64947 0.36832 0.17698 0.0
H1804 H 0.66475 0.45076 0.18881 0.0
C1805 C 0.63032 0.44322 0.22366 0.0
C1806 C 0.64929 0.39005 0.20558 0.0
C1807 C 0.60959 0.45321 0.22947 0.0
C1808 C 0.66695 0.38152 0.16335 0.0
C1809 C 0.66247 0.38288 0.17361 0.0
C1810 C 0.66145 0.4335 0.19346 0.0
C1811 C 0.6263 0.42082 0.2176 0.0
C1812 C 0.64365 0.41598 0.20889 0.0
C1813 C 0.6735 0.40365 0.17929 0.0
C1814 C 0.66575 0.40759 0.18986 0.0
H1815 H 0.56277 0.40649 0.22404 0.0
H1816 H 0.5987 0.38928 0.21393 0.0
H1817 H 0.64609 0.45784 0.20506 0.0
H1818 H 0.70602 0.4364 0.16083 0.0
H1819 H 0.69949 0.43805 0.17868 0.0
C1820 C 0.85766 0.35347 0.47187 0.0
C1821 C 0.87392 0.33591 0.4773 0.0
C1822 C 0.86882 0.37426 0.46646 0.0
C1823 C 0.92832 0.38251 0.45222 0.0
H1824 H 0.89126 0.44599 0.44336 0.0
C1825 C 0.94387 0.42652 0.41296 0.0
C1826 C 0.91968 0.43039 0.40793 0.0
C1827 C 0.94414 0.42227 0.42324 0.0
C1828 C 0.90204 0.42846 0.4458 0.0
H1829 H 0.91424 0.32878 0.48243 0.0
H1830 H 0.93382 0.36483 0.47272 0.0
H1831 H 0.8813 0.42725 0.45968 0.0
H1832 H 0.87691 0.43337 0.4097 0.0
H1833 H 0.87735 0.42562 0.42749 0.0
H1834 H 0.94765 0.3826 0.43807 0.0
C1835 C 0.91247 0.3622 0.47258 0.0
C1836 C 0.89642 0.41782 0.45515 0.0
C1837 C 0.90125 0.34149 0.47808 0.0
C1838 C 0.89587 0.43026 0.41335 0.0
C1839 C 0.89615 0.42622 0.42358 0.0
C1840 C 0.93394 0.39316 0.44287 0.0
C1841 C 0.8965 0.37787 0.4663 0.0
C1842 C 0.9084 0.39389 0.4582 0.0
C1843 C 0.92024 0.42212 0.42865 0.0
C1844 C 0.91973 0.41535 0.43936 0.0
H1845 H 0.8366 0.34979 0.471 0.0
H1846 H 0.85593 0.38581 0.46164 0.0
H1847 H 0.9378 0.36395 0.45431 0.0
H1848 H 0.96255 0.42673 0.40896 0.0
H1849 H 0.96299 0.41908 0.42695 0.0
C1850 C 0.90889 0.681 0.66272 0.0
C1851 C 0.88743 0.66799 0.65828 0.0
C1852 C 0.91367 0.67782 0.6729 0.0
C1853 C 0.89687 0.62986 0.69307 0.0
H1854 H 0.94444 0.67531 0.70791 0.0
C1855 C 0.97278 0.5884 0.71959 0.0
C1856 C 0.98402 0.60419 0.72707 0.0
C1857 C 0.95235 0.59833 0.71368 0.0
C1858 C 0.93053 0.66264 0.70403 0.0
H1859 H 0.85314 0.6433 0.66088 0.0
H1860 H 0.85945 0.64007 0.67865 0.0
H1861 H 0.92449 0.69174 0.69265 0.0
H1862 H 0.98071 0.64166 0.73495 0.0
H1863 H 0.94456 0.65901 0.72463 0.0
H1864 H 0.90246 0.60104 0.70453 0.0
C1865 C 0.87379 0.65126 0.67437 0.0
C1866 C 0.9195 0.67188 0.69513 0.0
C1867 C 0.86983 0.65342 0.66418 0.0
C1868 C 0.97269 0.62922 0.72912 0.0
C1869 C 0.95207 0.63917 0.7232 0.0
C1870 C 0.90731 0.62096 0.70206 0.0
C1871 C 0.89646 0.66233 0.67884 0.0
C1872 C 0.90364 0.65508 0.68926 0.0
C1873 C 0.94251 0.62426 0.71513 0.0
C1874 C 0.92551 0.63658 0.70735 0.0
H1875 H 0.9227 0.69234 0.65823 0.0
H1876 H 0.93156 0.68644 0.67596 0.0
H1877 H 0.88494 0.61603 0.68886 0.0
H1878 H 0.98124 0.56922 0.7177 0.0
H1879 H 0.94588 0.58634 0.70746 0.0
C1880 C 0.70339 0.35776 0.63217 0.0
C1881 C 0.69094 0.33279 0.63212 0.0
C1882 C 0.69361 0.37818 0.63818 0.0
C1883 C 0.6409 0.39696 0.65637 0.0
H1884 H 0.7016 0.40948 0.67344 0.0
C1885 C 0.63136 0.41576 0.69858 0.0
C1886 C 0.65158 0.42991 0.70337 0.0
C1887 C 0.63305 0.41069 0.68837 0.0
C1888 C 0.68437 0.40703 0.66871 0.0
H1889 H 0.65648 0.31084 0.63727 0.0
H1890 H 0.63956 0.34631 0.64771 0.0
H1891 H 0.70845 0.39134 0.6571 0.0
H1892 H 0.68823 0.4517 0.70127 0.0
H1893 H 0.69037 0.44447 0.68349 0.0
H1894 H 0.61676 0.41211 0.66821 0.0
C1895 C 0.65682 0.35023 0.64313 0.0
C1896 C 0.68837 0.39657 0.65927 0.0
C1897 C 0.6666 0.32982 0.63713 0.0
C1898 C 0.67267 0.44018 0.69777 0.0
C1899 C 0.67393 0.43592 0.68757 0.0
C1900 C 0.63688 0.40785 0.66583 0.0
C1901 C 0.67125 0.3739 0.64423 0.0
C1902 C 0.66669 0.39066 0.65311 0.0
C1903 C 0.65465 0.42035 0.68276 0.0
C1904 C 0.65856 0.41228 0.67223 0.0
H1905 H 0.72184 0.36082 0.62819 0.0
H1906 H 0.70481 0.39648 0.63875 0.0
H1907 H 0.62383 0.39259 0.65176 0.0
H1908 H 0.6148 0.40783 0.70278 0.0
H1909 H 0.61796 0.39839 0.68497 0.0
C1910 C 0.98729 0.4169 0.88804 0.0
C1911 C 0.98464 0.44123 0.88295 0.0
C1912 C 0.96655 0.40733 0.89389 0.0
C1913 C 0.91816 0.43896 0.90943 0.0
H1914 H 0.90437 0.36713 0.91855 0.0
C1915 C 0.87374 0.4231 0.94777 0.0
C1916 C 0.88538 0.40294 0.95353 0.0
C1917 C 0.87785 0.42396 0.93755 0.0
C1918 C 0.90807 0.38731 0.9161 0.0
H1919 H 0.95697 0.47245 0.87879 0.0
H1920 H 0.92065 0.45571 0.88905 0.0
H1921 H 0.92465 0.37427 0.90224 0.0
H1922 H 0.90939 0.36719 0.95323 0.0
H1923 H 0.91831 0.36961 0.93537 0.0
H1924 H 0.90374 0.4522 0.92341 0.0
C1925 C 0.93898 0.44438 0.88868 0.0
C1926 C 0.91945 0.39138 0.90673 0.0
C1927 C 0.95976 0.45399 0.88283 0.0
C1928 C 0.90044 0.38303 0.94889 0.0
C1929 C 0.90523 0.3843 0.93866 0.0
C1930 C 0.90712 0.43492 0.91878 0.0
C1931 C 0.94281 0.42193 0.89476 0.0
C1932 C 0.92529 0.41725 0.90343 0.0
C1933 C 0.89443 0.40516 0.93289 0.0
C1934 C 0.90258 0.40904 0.92237 0.0
H1935 H 1.00621 0.40658 0.88832 0.0
H1936 H 0.97019 0.39002 0.89851 0.0
H1937 H 0.92293 0.45913 0.90724 0.0
H1938 H 0.86141 0.43829 0.95116 0.0
H1939 H 0.86849 0.4398 0.93333 0.0
C1940 C 0.85965 0.71423 0.13885 0.0
C1941 C 0.8757 0.73176 0.13338 0.0
C1942 C 0.87105 0.6935 0.14428 0.0
C1943 C 0.93073 0.68556 0.15848 0.0
H1944 H 0.89419 0.62222 0.1675 0.0
C1945 C 0.94613 0.64252 0.19794 0.0
C1946 C 0.92185 0.63903 0.20292 0.0
C1947 C 0.94657 0.64643 0.18764 0.0
C1948 C 0.90484 0.63969 0.16501 0.0
H1949 H 0.9159 0.73892 0.1282 0.0
H1950 H 0.93591 0.703 0.13794 0.0
H1951 H 0.88411 0.64061 0.15112 0.0
H1952 H 0.8791 0.63634 0.20105 0.0
H1953 H 0.87984 0.64345 0.18322 0.0
H1954 H 0.95002 0.68578 0.17264 0.0
C1955 C 0.91453 0.70559 0.1381 0.0
C1956 C 0.89915 0.65014 0.15563 0.0
C1957 C 0.90307 0.72622 0.13257 0.0
C1958 C 0.89813 0.63917 0.19744 0.0
C1959 C 0.89858 0.64283 0.18719 0.0
C1960 C 0.93642 0.6751 0.16786 0.0
C1961 C 0.89876 0.68995 0.14441 0.0
C1962 C 0.91089 0.67405 0.15252 0.0
C1963 C 0.92276 0.64656 0.18217 0.0
C1964 C 0.92238 0.65298 0.17143 0.0
H1965 H 0.83856 0.71788 0.13973 0.0
H1966 H 0.85831 0.68197 0.14912 0.0
H1967 H 0.94003 0.7041 0.15634 0.0
H1968 H 0.96473 0.64229 0.20199 0.0
H1969 H 0.96547 0.64936 0.18395 0.0
C1970 C 0.70169 0.65948 0.44713 0.0
C1971 C 0.68245 0.67103 0.45329 0.0
C1972 C 0.6975 0.65773 0.43693 0.0
C1973 C 0.64966 0.67636 0.41663 0.0
H1974 H 0.67057 0.60729 0.40643 0.0
C1975 C 0.59719 0.63404 0.3827 0.0
C1976 C 0.58693 0.6086 0.3847 0.0
C1977 C 0.61788 0.64428 0.38846 0.0
C1978 C 0.66471 0.62675 0.40912 0.0
H1979 H 0.64424 0.69069 0.45382 0.0
H1980 H 0.63573 0.68604 0.43603 0.0
H1981 H 0.68807 0.62222 0.42217 0.0
H1982 H 0.59184 0.57317 0.39376 0.0
H1983 H 0.62741 0.5908 0.40373 0.0
H1984 H 0.62408 0.67948 0.40402 0.0
C1985 C 0.65465 0.67926 0.43892 0.0
C1986 C 0.67504 0.63556 0.41814 0.0
C1987 C 0.65929 0.68171 0.44913 0.0
C1988 C 0.59941 0.59271 0.39192 0.0
C1989 C 0.61996 0.60291 0.39767 0.0
C1990 C 0.63892 0.66729 0.40769 0.0
C1991 C 0.67347 0.66663 0.43272 0.0
C1992 C 0.66675 0.65999 0.42223 0.0
C1993 C 0.62862 0.62925 0.39633 0.0
C1994 C 0.64536 0.6418 0.40409 0.0
H1995 H 0.71986 0.65143 0.45022 0.0
H1996 H 0.7128 0.64862 0.4324 0.0
H1997 H 0.64346 0.69563 0.41939 0.0
H1998 H 0.58825 0.64657 0.37705 0.0
H1999 H 0.62448 0.66444 0.38711 0.0
C2000 C 0.39626 0.42998 0.19766 0.0
C2001 C 0.42013 0.42984 0.20306 0.0
C2002 C 0.39641 0.42621 0.18742 0.0
C2003 C 0.43385 0.39361 0.16796 0.0
H2004 H 0.38097 0.42832 0.15138 0.0
C2005 C 0.40064 0.3434 0.13254 0.0
C2006 C 0.37336 0.33765 0.13339 0.0
C2007 C 0.4119 0.36388 0.13813 0.0
C2008 C 0.39616 0.41874 0.15584 0.0
H2009 H 0.46296 0.42595 0.20197 0.0
H2010 H 0.46317 0.41879 0.18395 0.0
H2011 H 0.39127 0.44654 0.16774 0.0
H2012 H 0.33613 0.35105 0.13988 0.0
H2013 H 0.35555 0.38674 0.14938 0.0
H2014 H 0.43748 0.36479 0.1564 0.0
C2015 C 0.44438 0.42197 0.1877 0.0
C2016 C 0.40196 0.42907 0.16521 0.0
C2017 C 0.44425 0.42595 0.19799 0.0
C2018 C 0.35715 0.35487 0.13897 0.0
C2019 C 0.36836 0.37546 0.14446 0.0
C2020 C 0.42807 0.38329 0.15858 0.0
C2021 C 0.42043 0.42213 0.18231 0.0
C2022 C 0.41975 0.41571 0.17158 0.0
C2023 C 0.39602 0.37919 0.14454 0.0
C2024 C 0.40806 0.3949 0.15268 0.0
H2025 H 0.37735 0.4331 0.20133 0.0
H2026 H 0.37756 0.42582 0.18353 0.0
H2027 H 0.44763 0.38287 0.17269 0.0
H2028 H 0.41358 0.33096 0.12808 0.0
H2029 H 0.43324 0.36661 0.13794 0.0
C2030 C 0.37728 0.64655 0.94695 0.0
C2031 C 0.38828 0.66724 0.95256 0.0
C2032 C 0.381 0.64556 0.93671 0.0
C2033 C 0.40881 0.68261 0.91491 0.0
H2034 H 0.42412 0.61089 0.90599 0.0
C2035 C 0.48586 0.6526 0.88599 0.0
C2036 C 0.48292 0.62807 0.8811 0.0
C2037 C 0.46547 0.66255 0.89196 0.0
C2038 C 0.4192 0.63102 0.90821 0.0
H2039 H 0.411 0.70365 0.95196 0.0
H2040 H 0.41947 0.70092 0.93407 0.0
H2041 H 0.40651 0.61773 0.9224 0.0
H2042 H 0.45497 0.59699 0.87732 0.0
H2043 H 0.41928 0.61439 0.88778 0.0
H2044 H 0.4238 0.6957 0.9008 0.0
C2045 C 0.40705 0.68595 0.93749 0.0
C2046 C 0.40906 0.63501 0.9177 0.0
C2047 C 0.40254 0.68739 0.94775 0.0
C2048 C 0.45798 0.61561 0.8812 0.0
C2049 C 0.43756 0.6256 0.88716 0.0
C2050 C 0.41935 0.67859 0.9054 0.0
C2051 C 0.39671 0.66469 0.93188 0.0
C2052 C 0.4043 0.66086 0.92129 0.0
C2053 C 0.44185 0.64811 0.89314 0.0
C2054 C 0.42524 0.65275 0.90206 0.0
H2055 H 0.36565 0.63109 0.95046 0.0
H2056 H 0.37195 0.6294 0.93263 0.0
H2057 H 0.40492 0.70276 0.91736 0.0
H2058 H 0.50482 0.66273 0.88608 0.0
H2059 H 0.46942 0.67993 0.89647 0.0
C2060 C 0.16128 0.66053 0.7003 0.0
C2061 C 0.14162 0.6444 0.70454 0.0
C2062 C 0.15841 0.66992 0.69061 0.0
C2063 C 0.13828 0.6557 0.66666 0.0
H2064 H 0.1347 0.73203 0.66266 0.0
C2065 C 0.19197 0.71344 0.63643 0.0
C2066 C 0.18217 0.73857 0.63362 0.0
C2067 C 0.1772 0.69717 0.64276 0.0
C2068 C 0.13495 0.71061 0.66355 0.0
H2069 H 0.10374 0.62508 0.70202 0.0
H2070 H 0.09917 0.64108 0.68481 0.0
H2071 H 0.1281 0.7137 0.67922 0.0
H2072 H 0.14765 0.76465 0.63411 0.0
H2073 H 0.12186 0.73604 0.64499 0.0
H2074 H 0.14726 0.65275 0.65111 0.0
C2075 C 0.11648 0.64664 0.68911 0.0
C2076 C 0.13134 0.70022 0.67305 0.0
C2077 C 0.11908 0.63766 0.69891 0.0
C2078 C 0.15591 0.74548 0.63616 0.0
C2079 C 0.14114 0.72917 0.64246 0.0
C2080 C 0.14224 0.66614 0.65713 0.0
C2081 C 0.1361 0.66292 0.68495 0.0
C2082 C 0.13388 0.67283 0.67471 0.0
C2083 C 0.15239 0.70576 0.64636 0.0
C2084 C 0.14156 0.69381 0.65557 0.0
H2085 H 0.1788 0.66605 0.70449 0.0
H2086 H 0.17377 0.68245 0.68748 0.0
H2087 H 0.14045 0.63448 0.66785 0.0
H2088 H 0.21191 0.70734 0.63441 0.0
H2089 H 0.18642 0.6792 0.6456 0.0
C2090 C 0.19236 0.42046 0.44697 0.0
C2091 C 0.18056 0.40019 0.45259 0.0
C2092 C 0.18832 0.42186 0.43675 0.0
C2093 C 0.15816 0.38665 0.41501 0.0
H2094 H 0.1439 0.45908 0.40659 0.0
C2095 C 0.08003 0.41868 0.38675 0.0
C2096 C 0.08294 0.4433 0.3819 0.0
C2097 C 0.10053 0.4085 0.39262 0.0
C2098 C 0.14851 0.43874 0.40866 0.0
H2099 H 0.15633 0.36478 0.45202 0.0
H2100 H 0.14755 0.36818 0.43416 0.0
H2101 H 0.16265 0.45111 0.42278 0.0
H2102 H 0.11086 0.47446 0.37816 0.0
H2103 H 0.14679 0.45661 0.38842 0.0
H2104 H 0.14189 0.3745 0.40099 0.0
C2105 C 0.16068 0.38253 0.43756 0.0
C2106 C 0.15929 0.43411 0.41802 0.0
C2107 C 0.1654 0.38071 0.4478 0.0
C2108 C 0.10788 0.45576 0.382 0.0
C2109 C 0.12843 0.44552 0.38786 0.0
C2110 C 0.14705 0.39132 0.40563 0.0
C2111 C 0.17165 0.40352 0.43196 0.0
C2112 C 0.16364 0.408 0.42144 0.0
C2113 C 0.12428 0.42277 0.39374 0.0
C2114 C 0.14145 0.41743 0.40248 0.0
H2115 H 0.20475 0.43532 0.45048 0.0
H2116 H 0.1978 0.43777 0.43266 0.0
H2117 H 0.16171 0.36631 0.41733 0.0
H2118 H 0.06105 0.40857 0.38685 0.0
H2119 H 0.09665 0.39096 0.39707 0.0
C2120 C 0.4094 0.74032 0.47513 0.0
C2121 C 0.38226 0.73636 0.47715 0.0
C2122 C 0.42354 0.72198 0.46939 0.0
C2123 C 0.41601 0.6583 0.45501 0.0
H2124 H 0.44815 0.70053 0.43411 0.0
C2125 C 0.44932 0.64933 0.41106 0.0
C2126 C 0.42496 0.64031 0.40726 0.0
C2127 C 0.45167 0.65591 0.42112 0.0
C2128 C 0.43983 0.68827 0.43995 0.0
H2129 H 0.34994 0.70813 0.47606 0.0
H2130 H 0.37392 0.67698 0.46567 0.0
H2131 H 0.44007 0.72043 0.45021 0.0
H2132 H 0.38433 0.63008 0.41097 0.0
H2133 H 0.38847 0.64147 0.4285 0.0
H2134 H 0.41375 0.62688 0.44429 0.0
C2135 C 0.38456 0.69404 0.4685 0.0
C2136 C 0.43528 0.69962 0.44925 0.0
C2137 C 0.37058 0.71215 0.47437 0.0
C2138 C 0.40325 0.63729 0.41369 0.0
C2139 C 0.40573 0.64343 0.42374 0.0
C2140 C 0.42023 0.64708 0.44565 0.0
C2141 C 0.4107 0.69957 0.46542 0.0
C2142 C 0.42214 0.68518 0.45675 0.0
C2143 C 0.42986 0.65302 0.42753 0.0
C2144 C 0.43111 0.66238 0.43793 0.0
H2145 H 0.4192 0.75865 0.4772 0.0
H2146 H 0.44391 0.72644 0.46743 0.0
H2147 H 0.40648 0.64639 0.46069 0.0
H2148 H 0.46639 0.65169 0.40624 0.0
H2149 H 0.47045 0.66338 0.42387 0.0
C2150 C 0.09746 0.63799 0.22825 0.0
C2151 C 0.08763 0.61229 0.22642 0.0
C2152 C 0.11812 0.64826 0.22248 0.0
C2153 C 0.16568 0.63055 0.20212 0.0
H2154 H 0.14306 0.69829 0.19113 0.0
C2155 C 0.20267 0.66212 0.16391 0.0
C2156 C 0.18316 0.6726 0.15759 0.0
C2157 C 0.19831 0.66082 0.17412 0.0
C2158 C 0.14967 0.67935 0.1941 0.0
H2159 H 0.09333 0.5765 0.21766 0.0
H2160 H 0.12888 0.59418 0.20769 0.0
H2161 H 0.12381 0.68266 0.20661 0.0
H2162 H 0.14429 0.69081 0.15675 0.0
H2163 H 0.1356 0.68703 0.17457 0.0
H2164 H 0.18941 0.6258 0.18917 0.0
C2165 C 0.12108 0.60648 0.21362 0.0
C2166 C 0.13898 0.67058 0.2031 0.0
C2167 C 0.10055 0.59624 0.21937 0.0
C2168 C 0.15954 0.68268 0.16158 0.0
C2169 C 0.1548 0.68073 0.17179 0.0
C2170 C 0.17599 0.63906 0.19305 0.0
C2171 C 0.12928 0.63301 0.21478 0.0
C2172 C 0.14592 0.64547 0.20695 0.0
C2173 C 0.17392 0.66917 0.17817 0.0
C2174 C 0.16721 0.66303 0.1887 0.0
H2175 H 0.08819 0.65066 0.23377 0.0
H2176 H 0.12436 0.6686 0.22369 0.0
H2177 H 0.1719 0.61138 0.205 0.0
H2178 H 0.22118 0.65454 0.16095 0.0
H2179 H 0.2138 0.65249 0.17878 0.0
C2180 C 0.1303 0.41444 0.91303 0.0
C2181 C 0.15037 0.42863 0.90816 0.0
C2182 C 0.13186 0.41011 0.9233 0.0
C2183 C 0.18304 0.40854 0.94303 0.0
H2184 H 0.12274 0.39392 0.96008 0.0
C2185 C 0.20326 0.36072 0.97971 0.0
C2186 C 0.19098 0.33568 0.97994 0.0
C2187 C 0.19305 0.38093 0.97367 0.0
C2188 C 0.13974 0.39835 0.95544 0.0
H2189 H 0.18649 0.45135 0.91015 0.0
H2190 H 0.18834 0.44543 0.92799 0.0
H2191 H 0.11536 0.41242 0.94346 0.0
H2192 H 0.15641 0.31339 0.97513 0.0
H2193 H 0.13883 0.34843 0.96461 0.0
H2194 H 0.20738 0.39385 0.95476 0.0
C2195 C 0.17217 0.43626 0.92396 0.0
C2196 C 0.13554 0.40867 0.94589 0.0
C2197 C 0.17107 0.43977 0.91372 0.0
C2198 C 0.16641 0.33244 0.97512 0.0
C2199 C 0.15624 0.35262 0.96907 0.0
C2200 C 0.18721 0.39864 0.95255 0.0
C2201 C 0.15315 0.42058 0.92886 0.0
C2202 C 0.15715 0.41315 0.93946 0.0
C2203 C 0.1705 0.37632 0.96776 0.0
C2204 C 0.16564 0.39265 0.95876 0.0
H2205 H 0.11402 0.40588 0.90885 0.0
H2206 H 0.11696 0.39772 0.92678 0.0
H2207 H 0.20023 0.41106 0.93829 0.0
H2208 H 0.22191 0.36397 0.98354 0.0
H2209 H 0.20411 0.39929 0.97295 0.0
C2210 C 0.38868 0.42075 0.66286 0.0
C2211 C 0.38871 0.397 0.6574 0.0
C2212 C 0.39263 0.42034 0.6731 0.0
C2213 C 0.39011 0.41403 0.6953 0.0
H2214 H 0.45487 0.37883 0.7038 0.0
C2215 C 0.47674 0.4154 0.72763 0.0
C2216 C 0.482 0.44283 0.72688 0.0
C2217 C 0.45623 0.40399 0.72209 0.0
C2218 C 0.43624 0.38813 0.70171 0.0
H2219 H 0.39261 0.35409 0.65835 0.0
H2220 H 0.40015 0.35342 0.67635 0.0
H2221 H 0.43649 0.36898 0.68753 0.0
H2222 H 0.46774 0.48011 0.72063 0.0
H2223 H 0.43205 0.46044 0.71122 0.0
H2224 H 0.39097 0.43459 0.70921 0.0
C2225 C 0.39688 0.37232 0.67267 0.0
C2226 C 0.42575 0.38252 0.69234 0.0
C2227 C 0.39269 0.37272 0.66238 0.0
C2228 C 0.46431 0.45897 0.72146 0.0
C2229 C 0.44371 0.44762 0.71602 0.0
C2230 C 0.40059 0.41963 0.70466 0.0
C2231 C 0.39682 0.39616 0.67812 0.0
C2232 C 0.40346 0.39655 0.68884 0.0
C2233 C 0.44043 0.41988 0.71583 0.0
C2234 C 0.42461 0.40786 0.70772 0.0
H2235 H 0.38548 0.43977 0.65925 0.0
H2236 H 0.39309 0.4391 0.67704 0.0
H2237 H 0.37251 0.42466 0.69286 0.0
H2238 H 0.48956 0.40249 0.73196 0.0
H2239 H 0.45385 0.38259 0.72221 0.0
C2240 C 0.11229 0.21416 0.37874 0.0
C2241 C 0.10564 0.18907 0.37459 0.0
C2242 C 0.09506 0.23674 0.3783 0.0
C2243 C 1.02279 0.25921 0.37341 0.0
H2244 H 0.05322 0.3299 0.37346 0.0
C2245 C 0.95457 0.35552 0.37891 0.0
C2246 C 0.96116 0.38065 0.37475 0.0
C2247 C 0.97178 0.33294 0.37844 0.0
C2248 C 0.04397 0.3105 0.3734 0.0
H2249 H 0.07392 0.16971 0.36655 0.0
H2250 H 0.04378 0.20847 0.36596 0.0
H2251 H 0.08216 0.29074 0.37335 0.0
H2252 H 0.99275 0.40005 0.36664 0.0
H2253 H 1.02287 0.3613 0.366 0.0
H2254 H 0.98461 0.27897 0.37344 0.0
C2255 C 0.06276 0.21073 0.36964 0.0
C2256 C 0.06092 0.28751 0.37344 0.0
C2257 C 0.08032 0.18804 0.36996 0.0
C2258 C 0.98641 0.3817 0.37007 0.0
C2259 C 1.00395 0.35901 0.36971 0.0
C2260 C 1.00585 0.2822 0.37349 0.0
C2261 C 0.06965 0.23594 0.37377 0.0
C2262 C 0.05095 0.26102 0.37347 0.0
C2263 C 0.99713 0.33377 0.37385 0.0
C2264 C 1.01581 0.30869 0.37352 0.0
H2265 H 0.13123 0.21654 0.38244 0.0
H2266 H 0.10176 0.25492 0.38177 0.0
H2267 H 1.01355 0.23981 0.37349 0.0
H2268 H 0.93568 0.35311 0.38265 0.0
H2269 H 0.96514 0.31472 0.38192 0.0
C2270 C 0.96461 0.70337 0.62876 0.0
C2271 C 0.93903 0.71088 0.62525 0.0
C2272 C 0.98711 0.72056 0.62835 0.0
C2273 C 1.00901 0.79367 0.62439 0.0
H2274 H 0.07969 0.76293 0.62364 0.0
C2275 C 0.10516 0.86186 0.62925 0.0
C2276 C 0.13026 0.85509 0.62511 0.0
C2277 C 0.08267 0.84466 0.62889 0.0
C2278 C 0.0603 0.7723 0.6238 0.0
H2279 H 0.9185 0.74426 0.61853 0.0
H2280 H 0.95723 0.77417 0.61786 0.0
H2281 H 0.0407 0.73417 0.62353 0.0
H2282 H 0.14978 0.82311 0.61721 0.0
H2283 H 0.11116 0.79305 0.61668 0.0
H2284 H 1.02861 0.8318 0.62455 0.0
C2285 C 0.96003 0.75452 0.621 0.0
C2286 C 0.03736 0.75542 0.62385 0.0
C2287 C 0.93739 0.73706 0.62132 0.0
C2288 C 0.13139 0.82963 0.62058 0.0
C2289 C 0.10878 0.81212 0.6203 0.0
C2290 C 1.03194 0.81054 0.62442 0.0
C2291 C 0.98578 0.7468 0.62447 0.0
C2292 C 1.01084 0.76545 0.62418 0.0
C2293 C 0.08352 0.81914 0.62441 0.0
C2294 C 0.05846 0.8005 0.62415 0.0
H2295 H 0.96743 0.68376 0.63194 0.0
H2296 H 1.00567 0.71312 0.63133 0.0
H2297 H 0.98964 0.80304 0.62471 0.0
H2298 H 0.10271 0.88089 0.63291 0.0
H2299 H 0.06452 0.8515 0.63236 0.0
C2300 C 0.45168 0.85687 0.8781 0.0
C2301 C 0.45893 0.88248 0.87456 0.0
C2302 C 0.46901 0.83437 0.87768 0.0
C2303 C 0.54211 0.81249 0.87388 0.0
H2304 H 0.51189 0.74179 0.87276 0.0
C2305 C 0.61038 0.71599 0.87911 0.0
C2306 C 0.60405 0.69102 0.8748 0.0
C2307 C 0.59313 0.73856 0.87866 0.0
C2308 C 0.52111 0.76119 0.87303 0.0
H2309 H 0.49199 0.90303 0.86777 0.0
H2310 H 0.52219 0.86425 0.86711 0.0
H2311 H 0.48291 0.78087 0.87259 0.0
H2312 H 0.57281 0.67189 0.86642 0.0
H2313 H 0.54266 0.71062 0.86575 0.0
H2314 H 0.58032 0.79282 0.87424 0.0
C2315 C 0.50263 0.86148 0.87027 0.0
C2316 C 0.5041 0.78415 0.87304 0.0
C2317 C 0.48501 0.88414 0.87059 0.0
C2318 C 0.57898 0.69012 0.86997 0.0
C2319 C 0.56141 0.7128 0.8696 0.0
C2320 C 0.5591 0.78953 0.87396 0.0
C2321 C 0.49515 0.83573 0.87378 0.0
C2322 C 0.51395 0.81067 0.87351 0.0
C2323 C 0.56798 0.7379 0.87391 0.0
C2324 C 0.54924 0.76301 0.87357 0.0
H2325 H 0.43216 0.85403 0.8813 0.0
H2326 H 0.46178 0.81578 0.88068 0.0
H2327 H 0.55131 0.83188 0.8743 0.0
H2328 H 0.62911 0.71828 0.88298 0.0
H2329 H 0.5996 0.75661 0.88228 0.0
C2330 C 0.46466 0.20576 0.12845 0.0
C2331 C 0.43908 0.21302 0.12486 0.0
C2332 C 0.48699 0.22314 0.12811 0.0
C2333 C 0.50842 0.29636 0.12411 0.0
H2334 H 0.57928 0.26599 0.12388 0.0
C2335 C 0.60389 0.36533 0.12925 0.0
C2336 C 0.62934 0.35835 0.12548 0.0
C2337 C 0.5815 0.34804 0.12877 0.0
C2338 C 0.55985 0.27528 0.12389 0.0
H2339 H 0.41836 0.2462 0.11809 0.0
H2340 H 0.45687 0.27644 0.1175 0.0
H2341 H 0.54052 0.23704 0.12358 0.0
H2342 H 0.64977 0.32581 0.11821 0.0
H2343 H 0.61119 0.29574 0.11739 0.0
H2344 H 0.52777 0.3346 0.12427 0.0
C2345 C 0.45977 0.25683 0.12065 0.0
C2346 C 0.53703 0.25827 0.12384 0.0
C2347 C 0.43726 0.23918 0.12092 0.0
C2348 C 0.63097 0.33259 0.12121 0.0
C2349 C 0.60842 0.31503 0.1208 0.0
C2350 C 0.53125 0.31336 0.12423 0.0
C2351 C 0.48551 0.24933 0.1242 0.0
C2352 C 0.51044 0.26815 0.12399 0.0
C2353 C 0.5828 0.32223 0.12453 0.0
C2354 C 0.55784 0.30347 0.12416 0.0
H2355 H 0.46761 0.1862 0.13165 0.0
H2356 H 0.50553 0.21586 0.13116 0.0
H2357 H 0.48899 0.30562 0.12429 0.0
H2358 H 0.6011 0.38459 0.13269 0.0
H2359 H 0.56305 0.35505 0.13197 0.0
C2360 C 0.95556 0.71488 0.23215 0.0
C2361 C 0.96268 0.68936 0.23587 0.0
C2362 C 0.97284 0.7373 0.23254 0.0
C2363 C 0.04572 0.75904 0.23698 0.0
H2364 H 1.01526 0.82992 0.2368 0.0
C2365 C 0.11471 0.85467 0.23202 0.0
C2366 C 0.10754 0.88018 0.23569 0.0
C2367 C 0.09744 0.83223 0.23244 0.0
C2368 C 1.02456 0.81049 0.23691 0.0
H2369 H 0.99551 0.66887 0.24295 0.0
H2370 H 1.02558 0.70752 0.24363 0.0
H2371 H 0.98639 0.79105 0.237 0.0
H2372 H 0.07469 0.90067 0.24272 0.0
H2373 H 0.04465 0.86202 0.24344 0.0
H2374 H 0.08389 0.77848 0.23703 0.0
C2375 C 1.00616 0.7103 0.24032 0.0
C2376 C 1.00762 0.7876 0.23691 0.0
C2377 C 0.98861 0.68771 0.23999 0.0
C2378 C 0.08161 0.88183 0.2398 0.0
C2379 C 0.06408 0.85924 0.24016 0.0
C2380 C 0.06267 0.78193 0.23692 0.0
C2381 C 0.9988 0.73598 0.23663 0.0
C2382 C 1.01754 0.76099 0.2369 0.0
C2383 C 0.07147 0.83355 0.23652 0.0
C2384 C 0.05274 0.80853 0.23684 0.0
H2385 H 0.93618 0.71773 0.22881 0.0
H2386 H 0.96568 0.75579 0.22939 0.0
H2387 H 0.05502 0.7396 0.23693 0.0
H2388 H 0.1341 0.85185 0.22869 0.0
H2389 H 0.10462 0.81373 0.22933 0.0
C2390 C 0.43694 0.83088 0.49016 0.0
C2391 C 0.43814 0.85655 0.48578 0.0
C2392 C 0.45966 0.81339 0.49053 0.0
C2393 C 0.53666 0.81197 0.48695 0.0
H2394 H 0.52828 0.7356 0.48742 0.0
C2395 C 0.63134 0.73808 0.49026 0.0
C2396 C 0.62994 0.71214 0.48616 0.0
C2397 C 0.60863 0.75562 0.49055 0.0
C2398 C 0.5315 0.75685 0.48721 0.0
H2399 H 0.46588 0.88275 0.47835 0.0
H2400 H 0.50426 0.85334 0.47902 0.0
H2401 H 0.48915 0.76442 0.48718 0.0
H2402 H 0.60195 0.68552 0.47909 0.0
H2403 H 0.56363 0.71499 0.47963 0.0
H2404 H 0.57901 0.8044 0.48688 0.0
C2405 C 0.48598 0.84634 0.48232 0.0
C2406 C 0.50849 0.77376 0.4872 0.0
C2407 C 0.46339 0.86354 0.48187 0.0
C2408 C 0.60456 0.70493 0.48242 0.0
C2409 C 0.58202 0.72218 0.48279 0.0
C2410 C 0.55967 0.79507 0.48703 0.0
C2411 C 0.48506 0.82061 0.48665 0.0
C2412 C 0.5102 0.80196 0.48699 0.0
C2413 C 0.58309 0.74817 0.48685 0.0
C2414 C 0.55796 0.76686 0.48709 0.0
H2415 H 0.41839 0.82416 0.49332 0.0
H2416 H 0.45722 0.79416 0.49402 0.0
H2417 H 0.53988 0.83324 0.48694 0.0
H2418 H 0.65007 0.74503 0.49323 0.0
H2419 H 0.61119 0.77508 0.49383 0.0
C2420 C 0.58068 0.38189 0.73975 0.0
C2421 C 0.60722 0.37989 0.73625 0.0
C2422 C 0.56305 0.35936 0.73995 0.0
C2423 C 0.56195 0.28188 0.73775 0.0
H2424 H 0.48592 0.29097 0.73535 0.0
C2425 C 0.48694 0.18836 0.74037 0.0
C2426 C 0.46227 0.18924 0.73526 0.0
C2427 C 0.50445 0.21096 0.74081 0.0
C2428 C 0.50709 0.28754 0.73597 0.0
H2429 H 0.63482 0.35097 0.73021 0.0
H2430 H 0.60519 0.31291 0.73063 0.0
H2431 H 0.51489 0.32983 0.73544 0.0
H2432 H 0.43785 0.21636 0.72664 0.0
H2433 H 0.46726 0.25453 0.72744 0.0
H2434 H 0.55416 0.23959 0.73822 0.0
C2435 C 0.59757 0.33168 0.73335 0.0
C2436 C 0.52405 0.31041 0.73614 0.0
C2437 C 0.61493 0.35407 0.73305 0.0
C2438 C 0.45626 0.2141 0.73073 0.0
C2439 C 0.47346 0.23658 0.73125 0.0
C2440 C 0.54496 0.25903 0.73767 0.0
C2441 C 0.57097 0.33338 0.73679 0.0
C2442 C 0.55215 0.30844 0.73695 0.0
C2443 C 0.49822 0.23596 0.73629 0.0
C2444 C 0.5169 0.26098 0.7367 0.0
H2445 H 0.57332 0.40098 0.74228 0.0
H2446 H 0.54311 0.36243 0.74274 0.0
H2447 H 0.58308 0.27848 0.73854 0.0
H2448 H 0.49283 0.17023 0.74411 0.0
H2449 H 0.52287 0.20879 0.74489 0.0
C2450 C 0.12959 0.23991 0.99138 0.0
C2451 C 0.12857 0.21475 0.98662 0.0
C2452 C 0.10697 0.25756 0.99172 0.0
C2453 C 1.03029 0.25994 0.98739 0.0
H2454 H 0.03906 0.33622 0.98858 0.0
C2455 C 0.93589 0.33423 0.99058 0.0
C2456 C 0.93757 0.36031 0.98657 0.0
C2457 C 0.95851 0.31658 0.99094 0.0
C2458 C 0.03575 0.315 0.98818 0.0
H2459 H 0.10121 0.18964 0.97851 0.0
H2460 H 0.06301 0.21926 0.97916 0.0
H2461 H 0.07806 0.30714 0.98847 0.0
H2462 H 0.96599 0.38704 0.97979 0.0
H2463 H 1.00417 0.35735 0.98047 0.0
H2464 H 0.988 0.26779 0.98704 0.0
C2465 C 0.08108 0.22575 0.98276 0.0
C2466 C 0.05866 0.29795 0.98823 0.0
C2467 C 0.10357 0.20842 0.98233 0.0
C2468 C 0.96314 0.36752 0.98303 0.0
C2469 C 0.98561 0.35015 0.98348 0.0
C2470 C 1.00738 0.27699 0.98743 0.0
C2471 C 0.08184 0.25098 0.98745 0.0
C2472 C 0.0568 0.26978 0.98775 0.0
C2473 C 0.98423 0.32402 0.98743 0.0
C2474 C 1.00924 0.30517 0.98774 0.0
H2475 H 0.14785 0.24609 0.9949 0.0
H2476 H 0.10923 0.27637 0.99552 0.0
H2477 H 1.02697 0.23871 0.98716 0.0
H2478 H 0.91701 0.32727 0.9934 0.0
H2479 H 0.95572 0.29702 0.99413 0.0
C2480 C 0.11436 0.71313 0.73341 0.0
C2481 C 0.10698 0.68745 0.73683 0.0
C2482 C 0.09703 0.73561 0.73378 0.0
C2483 C 1.02385 0.75761 0.73764 0.0
H2484 H 0.05432 0.82825 0.73806 0.0
C2485 C 0.9551 0.85376 0.73258 0.0
C2486 C 0.96214 0.8792 0.7363 0.0
C2487 C 0.97234 0.8312 0.73307 0.0
C2488 C 0.045 0.80889 0.738 0.0
H2489 H 0.07364 0.66674 0.74336 0.0
H2490 H 0.04351 0.70557 0.74404 0.0
H2491 H 0.08315 0.78918 0.73835 0.0
H2492 H 0.99474 0.89944 0.74351 0.0
H2493 H 1.02471 0.86053 0.74439 0.0
H2494 H 0.98569 0.77731 0.73746 0.0
C2495 C 0.06317 0.7084 0.74098 0.0
C2496 C 0.06194 0.78588 0.73804 0.0
C2497 C 0.08076 0.68571 0.74065 0.0
C2498 C 0.98792 0.88066 0.74055 0.0
C2499 C 1.00542 0.85792 0.74099 0.0
C2500 C 1.00692 0.78062 0.73755 0.0
C2501 C 0.07078 0.73424 0.73757 0.0
C2502 C 0.05202 0.75936 0.73781 0.0
C2503 C 0.99815 0.8323 0.73729 0.0
C2504 C 1.01684 0.80714 0.73767 0.0
H2505 H 0.13398 0.71604 0.7303 0.0
H2506 H 0.10441 0.7542 0.73083 0.0
H2507 H 1.01456 0.73825 0.73741 0.0
H2508 H 0.93582 0.85108 0.72915 0.0
H2509 H 0.96527 0.8128 0.72989 0.0
C2510 C 0.93642 0.23665 0.48959 0.0
C2511 C 0.93814 0.21065 0.48553 0.0
C2512 C 0.95893 0.25428 0.48991 0.0
C2513 C 0.03616 0.25589 0.48661 0.0
H2514 H 1.02681 0.33222 0.48668 0.0
C2515 C 0.13005 0.33021 0.48963 0.0
C2516 C 0.12834 0.35621 0.48555 0.0
C2517 C 0.10754 0.31259 0.48995 0.0
C2518 C 1.03032 0.31098 0.48659 0.0
H2519 H 0.96653 0.18406 0.47857 0.0
H2520 H 1.00452 0.2137 0.47914 0.0
H2521 H 0.98807 0.3032 0.48652 0.0
H2522 H 0.09999 0.38281 0.47855 0.0
H2523 H 0.062 0.35317 0.4791 0.0
H2524 H 0.07841 0.26367 0.48657 0.0
C2525 C 0.98602 0.22087 0.48225 0.0
C2526 C 1.00752 0.29394 0.48662 0.0
C2527 C 0.96365 0.20351 0.48186 0.0
C2528 C 0.10285 0.36336 0.48186 0.0
C2529 C 0.08048 0.34601 0.48224 0.0
C2530 C 0.05896 0.27292 0.48665 0.0
C2531 C 0.98462 0.24691 0.48628 0.0
C2532 C 1.00955 0.26574 0.48655 0.0
C2533 C 0.08186 0.31996 0.48629 0.0
C2534 C 0.05693 0.30113 0.48656 0.0
H2535 H 0.91757 0.24357 0.4925 0.0
H2536 H 0.95609 0.27375 0.49316 0.0
H2537 H 0.03967 0.23465 0.48672 0.0
H2538 H 0.14889 0.32329 0.49256 0.0
H2539 H 0.11037 0.29311 0.49321 0.0
C2540 C 0.57995 0.18603 0.24008 0.0
C2541 C 0.60637 0.18794 0.23646 0.0
C2542 C 0.56231 0.20866 0.2404 0.0
C2543 C 0.56115 0.28615 0.23834 0.0
H2544 H 0.48507 0.27768 0.23618 0.0
C2545 C 0.48632 0.38015 0.24135 0.0
C2546 C 0.46154 0.37954 0.23631 0.0
C2547 C 0.50381 0.35741 0.24171 0.0
C2548 C 0.50626 0.28093 0.23674 0.0
H2549 H 0.63373 0.21682 0.23033 0.0
H2550 H 0.60409 0.25503 0.23096 0.0
H2551 H 0.51403 0.2386 0.23609 0.0
H2552 H 0.43691 0.35277 0.22773 0.0
H2553 H 0.46631 0.31437 0.22839 0.0
H2554 H 0.5534 0.32848 0.23892 0.0
C2555 C 0.59659 0.23625 0.23368 0.0
C2556 C 0.52321 0.25793 0.2368 0.0
C2557 C 0.61394 0.21377 0.23327 0.0
C2558 C 0.45541 0.35481 0.23177 0.0
C2559 C 0.4726 0.3322 0.2322 0.0
C2560 C 0.54419 0.30913 0.23837 0.0
C2561 C 0.57012 0.23464 0.23724 0.0
C2562 C 0.55132 0.25969 0.23752 0.0
C2563 C 0.49745 0.33255 0.23717 0.0
C2564 C 0.51611 0.3074 0.23748 0.0
H2565 H 0.57272 0.16697 0.24261 0.0
H2566 H 0.54247 0.20568 0.24327 0.0
H2567 H 0.5823 0.28937 0.23908 0.0
H2568 H 0.49229 0.39817 0.24509 0.0
H2569 H 0.52232 0.35936 0.24573 0.0
C2570 C 0.60397 0.86308 0.98298 0.0
C2571 C 0.62968 0.8555 0.98633 0.0
C2572 C 0.58159 0.84574 0.98332 0.0
C2573 C 0.5602 0.7723 0.98658 0.0
H2574 H 0.48945 0.80263 0.98814 0.0
C2575 C 0.46399 0.70426 0.98139 0.0
C2576 C 0.43906 0.71062 0.98576 0.0
C2577 C 0.48648 0.72145 0.98184 0.0
C2578 C 0.50887 0.79337 0.98775 0.0
H2579 H 0.65058 0.82184 0.99269 0.0
H2580 H 0.61203 0.79165 0.99322 0.0
H2581 H 0.52832 0.83154 0.98839 0.0
H2582 H 0.41994 0.74178 0.99425 0.0
H2583 H 0.45851 0.77178 0.99492 0.0
H2584 H 0.54075 0.73411 0.98602 0.0
C2585 C 0.60906 0.81148 0.99027 0.0
C2586 C 0.53171 0.81035 0.98778 0.0
C2587 C 0.63158 0.82909 0.99003 0.0
C2588 C 0.43813 0.73562 0.99064 0.0
C2589 C 0.46073 0.75311 0.99102 0.0
C2590 C 0.53734 0.75534 0.98646 0.0
C2591 C 0.58318 0.81928 0.98696 0.0
C2592 C 0.55825 0.80047 0.98716 0.0
C2593 C 0.48579 0.74654 0.98666 0.0
C2594 C 0.5108 0.76523 0.98701 0.0
H2595 H 0.60096 0.88286 0.97998 0.0
H2596 H 0.5629 0.85325 0.98047 0.0
H2597 H 0.57961 0.76307 0.98603 0.0
H2598 H 0.4663 0.68558 0.97748 0.0
H2599 H 0.5045 0.71498 0.97818 0.0
C2600 C 0.08188 0.37804 0.87027 0.0
C2601 C 0.10689 0.3772 0.87514 0.0
C2602 C 0.06445 0.35536 0.86994 0.0
C2603 C 0.06233 0.27869 0.87476 0.0
H2604 H 0.98624 0.28758 0.87253 0.0
C2605 C 0.9888 0.18413 0.8714 0.0
C2606 C 0.96231 0.18612 0.87496 0.0
C2607 C 1.0064 0.20669 0.87111 0.0
C2608 C 1.0074 0.28422 0.87323 0.0
H2609 H 0.13199 0.35008 0.88348 0.0
H2610 H 0.10268 0.31179 0.88289 0.0
H2611 H 1.01506 0.32652 0.87271 0.0
H2612 H 0.9348 0.2151 0.88103 0.0
H2613 H 0.96436 0.25318 0.88047 0.0
H2614 H 0.05464 0.23639 0.87537 0.0
C2615 C 0.09616 0.32976 0.87917 0.0
C2616 C 1.02434 0.30711 0.87322 0.0
C2617 C 0.1133 0.35231 0.87957 0.0
C2618 C 0.95464 0.21198 0.87813 0.0
C2619 C 0.97196 0.23439 0.87775 0.0
C2620 C 0.0454 0.25578 0.87469 0.0
C2621 C 0.07107 0.33033 0.87436 0.0
C2622 C 0.05244 0.30524 0.87406 0.0
C2623 C 0.9985 0.2327 0.87425 0.0
C2624 C 1.01727 0.25768 0.874 0.0
H2625 H 0.07567 0.3962 0.86662 0.0
H2626 H 0.04578 0.35752 0.86603 0.0
H2627 H 0.08352 0.27531 0.87528 0.0
H2628 H 0.99613 0.16506 0.86888 0.0
H2629 H 1.02629 0.20361 0.86828 0.0
C2630 C 0.43635 0.32946 0.62065 0.0
C2631 C 0.4383 0.35585 0.62432 0.0
C2632 C 0.45891 0.31174 0.62034 0.0
C2633 C 0.53625 0.31034 0.62251 0.0
H2634 H 0.5276 0.23419 0.62466 0.0
C2635 C 0.62994 0.23523 0.61952 0.0
C2636 C 0.62931 0.21047 0.62459 0.0
C2637 C 0.60726 0.25277 0.61915 0.0
C2638 C 0.53089 0.25539 0.62411 0.0
H2639 H 0.46712 0.38307 0.63054 0.0
H2640 H 0.50521 0.35328 0.62994 0.0
H2641 H 0.48862 0.26327 0.6247 0.0
H2642 H 0.60257 0.18589 0.63322 0.0
H2643 H 0.56422 0.21538 0.63255 0.0
H2644 H 0.57853 0.30248 0.62197 0.0
C2645 C 0.48647 0.34588 0.62717 0.0
C2646 C 0.50796 0.27242 0.62402 0.0
C2647 C 0.46407 0.36331 0.62757 0.0
C2648 C 0.60462 0.20438 0.62916 0.0
C2649 C 0.58205 0.22162 0.62872 0.0
C2650 C 0.55916 0.2933 0.6225 0.0
C2651 C 0.48483 0.31944 0.62356 0.0
C2652 C 0.5098 0.30055 0.6233 0.0
C2653 C 0.58243 0.24647 0.62372 0.0
C2654 C 0.55736 0.2652 0.62339 0.0
H2655 H 0.4173 0.32231 0.61807 0.0
H2656 H 0.45592 0.29192 0.61744 0.0
H2657 H 0.53953 0.33151 0.62178 0.0
H2658 H 0.64793 0.24115 0.61574 0.0
H2659 H 0.60921 0.27126 0.6151 0.0
C2660 C 0.58033 0.87947 0.37004 0.0
C2661 C 0.60529 0.87849 0.37495 0.0
C2662 C 0.5629 0.85681 0.36961 0.0
C2663 C 0.5608 0.78003 0.37415 0.0
H2664 H 0.48471 0.7889 0.37201 0.0
C2665 C 0.48731 0.68543 0.37068 0.0
C2666 C 0.46086 0.68741 0.37428 0.0
C2667 C 0.50489 0.70801 0.37038 0.0
C2668 C 0.50587 0.78554 0.37268 0.0
H2669 H 0.63029 0.85114 0.38323 0.0
H2670 H 0.601 0.81289 0.38246 0.0
H2671 H 0.51348 0.82786 0.3723 0.0
H2672 H 0.43343 0.71637 0.38041 0.0
H2673 H 0.46296 0.75441 0.37987 0.0
H2674 H 0.55317 0.7377 0.3746 0.0
C2675 C 0.59451 0.83095 0.3788 0.0
C2676 C 0.52278 0.80845 0.37273 0.0
C2677 C 0.61165 0.85348 0.3793 0.0
C2678 C 0.45323 0.71326 0.37749 0.0
C2679 C 0.47053 0.73566 0.37711 0.0
C2680 C 0.54391 0.7571 0.37401 0.0
C2681 C 0.56948 0.83166 0.37395 0.0
C2682 C 0.55087 0.80658 0.37355 0.0
C2683 C 0.49703 0.73399 0.37357 0.0
C2684 C 0.51578 0.75899 0.37336 0.0
H2685 H 0.57415 0.89774 0.36647 0.0
H2686 H 0.54425 0.85906 0.36569 0.0
H2687 H 0.582 0.77666 0.37464 0.0
H2688 H 0.49463 0.66633 0.36814 0.0
H2689 H 0.52476 0.70497 0.36752 0.0
C2690 C 0.9653 0.86446 0.12809 0.0
C2691 C 0.93958 0.85691 0.1248 0.0
C2692 C 0.98781 0.84718 0.12763 0.0
C2693 C 1.00972 0.77392 0.12419 0.0
H2694 H 0.08014 0.80441 0.12237 0.0
C2695 C 0.10654 0.70616 0.12914 0.0
C2696 C 0.13128 0.71249 0.12465 0.0
C2697 C 0.08393 0.72333 0.12874 0.0
C2698 C 0.06082 0.79512 0.12284 0.0
H2699 H 0.91879 0.82339 0.11845 0.0
H2700 H 0.9576 0.79327 0.11772 0.0
H2701 H 0.04099 0.83325 0.12227 0.0
H2702 H 0.14999 0.74359 0.11604 0.0
H2703 H 0.11114 0.77358 0.11545 0.0
H2704 H 1.02954 0.73578 0.12466 0.0
C2705 C 0.96046 0.81303 0.12069 0.0
C2706 C 0.03782 0.81204 0.12289 0.0
C2707 C 0.9378 0.8306 0.12106 0.0
C2708 C 0.13193 0.73745 0.11972 0.0
C2709 C 0.10919 0.75492 0.11939 0.0
C2710 C 1.03273 0.75701 0.12422 0.0
C2711 C 0.98634 0.82081 0.12394 0.0
C2712 C 1.01141 0.80208 0.12362 0.0
C2713 C 0.08431 0.74836 0.12386 0.0
C2714 C 0.05915 0.76698 0.12358 0.0
H2715 H 0.96823 0.88418 0.13112 0.0
H2716 H 1.0065 0.85464 0.13043 0.0
H2717 H 0.99042 0.76465 0.12481 0.0
H2718 H 0.10448 0.68752 0.1331 0.0
H2719 H 0.06608 0.71689 0.1325 0.0
C2720 C 0.26963 0.23527 0.33838 0.0
C2721 C 0.24822 0.21767 0.33713 0.0
C2722 C 0.27809 0.25142 0.33054 0.0
C2723 C 0.27582 0.25746 0.30315 0.0
H2724 H 0.29576 0.33061 0.3083 0.0
C2725 C 0.29703 0.33255 0.27156 0.0
C2726 C 0.31849 0.35005 0.27286 0.0
C2727 C 0.28849 0.31631 0.27937 0.0
C2728 C 0.29055 0.31014 0.30675 0.0
H2729 H 0.2191 0.20315 0.32658 0.0
H2730 H 0.23351 0.23171 0.31296 0.0
H2731 H 0.2807 0.30258 0.32196 0.0
H2732 H 0.34764 0.3643 0.28346 0.0
H2733 H 0.33308 0.33563 0.29701 0.0
H2734 H 0.28567 0.26503 0.28794 0.0
C2735 C 0.24394 0.23282 0.31999 0.0
C2736 C 0.28191 0.29407 0.31459 0.0
C2737 C 0.23546 0.21667 0.32784 0.0
C2738 C 0.33124 0.35086 0.28216 0.0
C2739 C 0.32268 0.33465 0.28997 0.0
C2740 C 0.28446 0.27354 0.29532 0.0
C2741 C 0.26537 0.25038 0.32124 0.0
C2742 C 0.27445 0.26752 0.31289 0.0
C2743 C 0.30117 0.3172 0.28868 0.0
C2744 C 0.29195 0.30007 0.29702 0.0
H2745 H 0.27973 0.23676 0.34547 0.0
H2746 H 0.29483 0.26451 0.33174 0.0
H2747 H 0.27062 0.23699 0.30161 0.0
H2748 H 0.28694 0.33121 0.26447 0.0
H2749 H 0.2717 0.3033 0.27815 0.0
C2750 C 0.98391 0.04563 0.52232 0.0
C2751 C 0.96776 0.06839 0.5233 0.0
C2752 C 1.00009 0.03717 0.53017 0.0
C2753 C 1.00821 0.04281 0.55741 0.0
H2754 H 0.07945 1.01688 0.55205 0.0
C2755 C 0.08378 1.02067 0.58875 0.0
C2756 C 0.09989 0.99791 0.58775 0.0
C2757 C 0.06761 1.02923 0.58091 0.0
C2758 C 0.0595 1.02377 0.55367 0.0
H2759 H 0.95593 0.09996 0.53336 0.0
H2760 H 0.98456 0.08551 0.54697 0.0
H2761 H 0.05153 1.03202 0.53834 0.0
H2762 H 0.11168 0.96641 0.57765 0.0
H2763 H 0.08307 0.98101 0.56406 0.0
H2764 H 1.01618 0.03456 0.57273 0.0
C2765 C 0.98448 0.07404 0.54016 0.0
C2766 C 0.04349 1.03247 0.5458 0.0
C2767 C 0.9683 0.08251 0.53231 0.0
C2768 C 0.09933 0.98386 0.57872 0.0
C2769 C 0.08316 0.99242 0.57088 0.0
C2770 C 1.02423 1.03412 0.56527 0.0
C2771 C 1.00055 0.05123 0.53919 0.0
C2772 C 1.01764 0.04209 0.54757 0.0
C2773 C 0.06713 1.01525 0.57187 0.0
C2774 C 0.05007 1.02448 0.5635 0.0
H2775 H 0.98421 0.03444 0.51545 0.0
H2776 H 1.012 1.01937 0.5292 0.0
H2777 H 0.98826 0.0497 0.55902 0.0
H2778 H 0.08349 1.03181 0.59563 0.0
H2779 H 0.05572 0.04704 0.5819 0.0
C2780 C 0.29546 0.83487 0.83851 0.0
C2781 C 0.31776 0.8514 0.8374 0.0
C2782 C 0.28727 0.81834 0.83076 0.0
C2783 C 0.29256 0.80972 0.80354 0.0
H2784 H 0.26865 0.73805 0.80923 0.0
C2785 C 0.27171 0.73318 0.77252 0.0
C2786 C 0.24932 0.71678 0.77364 0.0
C2787 C 0.28008 0.74958 0.78029 0.0
C2788 C 0.27498 0.75811 0.80752 0.0
H2789 H 0.34881 0.86357 0.8272 0.0
H2790 H 0.33484 0.83433 0.81375 0.0
H2791 H 0.28333 0.76655 0.82279 0.0
H2792 H 0.21832 0.70465 0.78387 0.0
H2793 H 0.2326 0.73364 0.79734 0.0
H2794 H 0.28421 0.80129 0.78828 0.0
C2795 C 0.32351 0.83437 0.82059 0.0
C2796 C 0.28341 0.77446 0.8153 0.0
C2797 C 0.33171 0.8509 0.82835 0.0
C2798 C 0.23548 0.71722 0.78271 0.0
C2799 C 0.24386 0.73361 0.79049 0.0
C2800 C 0.28414 0.79338 0.79577 0.0
C2801 C 0.30116 0.81792 0.82169 0.0
C2802 C 0.29229 0.80047 0.81341 0.0
C2803 C 0.26627 0.74998 0.78938 0.0
C2804 C 0.27524 0.76737 0.79766 0.0
H2805 H 0.28442 0.83454 0.84542 0.0
H2806 H 0.26981 0.80612 0.83183 0.0
H2807 H 0.29888 0.82979 0.80184 0.0
H2808 H 0.28267 0.73356 0.7656 0.0
H2809 H 0.29758 0.76172 0.77922 0.0
C2810 C 0.48424 0.04613 0.08882 0.0
C2811 C 0.46902 0.06954 0.08792 0.0
C2812 C 0.50043 0.03748 0.08101 0.0
C2813 C 0.53403 0.06095 0.05817 0.0
H2814 H 0.53685 0.98585 1.05169 0.0
C2815 C 0.58626 1.02177 1.0228 0.0
C2816 C 0.60146 0.99833 1.02369 0.0
C2817 C 0.57008 1.03039 1.03062 0.0
C2818 C 0.53653 1.00685 1.05347 0.0
H2819 H 0.45876 0.10202 0.07799 0.0
H2820 H 0.48706 0.08699 0.06439 0.0
H2821 H 0.50885 1.00105 0.06535 0.0
H2822 H 0.6117 0.96578 1.03359 0.0
H2823 H 0.58344 0.98076 1.0472 0.0
H2824 H 0.56171 0.06675 1.04629 0.0
C2825 C 0.48674 0.0755 0.0712 0.0
C2826 C 0.52047 1.01558 0.06131 0.0
C2827 C 0.47051 0.08414 0.07901 0.0
C2828 C 0.59996 0.98368 1.03258 0.0
C2829 C 0.58376 0.99229 1.0404 0.0
C2830 C 0.55009 0.05222 1.05033 0.0
C2831 C 0.50187 0.05203 0.0721 0.0
C2832 C 0.51901 0.04274 0.06376 0.0
C2833 C 0.56865 1.01578 1.03953 0.0
C2834 C 0.55154 1.02506 1.04788 0.0
H2835 H 0.48394 0.03462 0.09563 0.0
H2836 H 0.51214 1.01954 0.08202 0.0
H2837 H 0.53371 0.08195 0.05995 0.0
H2838 H 0.58657 1.03332 1.01601 0.0
H2839 H 0.5584 0.04833 1.02963 0.0
C2840 C 0.32796 0.74313 0.33704 0.0
C2841 C 0.31668 0.71787 0.33847 0.0
C2842 C 0.31949 0.75947 0.32922 0.0
C2843 C 0.26362 0.77001 0.31171 0.0
H2844 H 0.31571 0.81014 0.29674 0.0
C2845 C 0.23694 0.82612 0.27547 0.0
C2846 C 0.24845 0.85127 0.274 0.0
C2847 C 0.24512 0.80988 0.28336 0.0
C2848 C 0.30086 0.79931 0.30091 0.0
H2849 H 0.2879 0.68983 0.33271 0.0
H2850 H 0.27318 0.71827 0.31907 0.0
H2851 H 0.33021 0.78186 0.31044 0.0
H2852 H 0.27721 0.87927 0.27981 0.0
H2853 H 0.29141 0.85102 0.29357 0.0
H2854 H 0.23427 0.78746 0.30217 0.0
C2855 C 0.28826 0.72566 0.32409 0.0
C2856 C 0.30918 0.78309 0.30877 0.0
C2857 C 0.29671 0.70934 0.33191 0.0
C2858 C 0.26825 0.85983 0.28063 0.0
C2859 C 0.2764 0.84362 0.28852 0.0
C2860 C 0.2553 0.78624 0.30385 0.0
C2861 C 0.29956 0.75092 0.32264 0.0
C2862 C 0.29067 0.76823 0.31428 0.0
C2863 C 0.26498 0.81842 0.28998 0.0
C2864 C 0.27381 0.8011 0.29835 0.0
H2865 H 0.3431 0.75046 0.34205 0.0
H2866 H 0.32832 0.77897 0.32843 0.0
H2867 H 0.24878 0.75916 0.31588 0.0
H2868 H 0.2219 0.81877 0.27042 0.0
H2869 H 0.23618 0.79044 0.28417 0.0
C2870 C 0.58308 0.04629 0.58857 0.0
C2871 C 0.60023 0.06807 0.58733 0.0
C2872 C 0.56682 0.03784 0.58077 0.0
C2873 C 0.55991 0.04103 0.55344 0.0
H2874 H 0.48732 1.01971 0.55878 0.0
C2875 C 0.4844 1.02019 0.52205 0.0
C2876 C 0.46723 0.99842 0.52328 0.0
C2877 C 0.5007 1.02858 0.52985 0.0
C2878 C 0.50763 1.0253 0.55718 0.0
H2879 H 0.61382 0.09791 0.57686 0.0
H2880 H 0.58507 0.08351 0.56333 0.0
H2881 H 0.51546 0.03467 0.57241 0.0
H2882 H 0.45365 0.96853 0.53374 0.0
H2883 H 0.48245 0.98283 0.54727 0.0
H2884 H 0.55208 1.03167 0.53821 0.0
C2885 C 0.58441 0.07278 0.57031 0.0
C2886 C 0.52377 1.03389 0.56499 0.0
C2887 C 0.60066 0.08124 0.57811 0.0
C2888 C 0.46683 0.98519 0.5325 0.0
C2889 C 0.48311 0.9936 0.5403 0.0
C2890 C 0.54377 1.03244 0.54563 0.0
C2891 C 0.56731 0.05096 0.57154 0.0
C2892 C 0.55011 0.04186 0.56322 0.0
C2893 C 0.50022 1.01542 0.53908 0.0
C2894 C 0.51743 1.02448 0.5474 0.0
H2895 H 0.58203 0.03586 0.59561 0.0
H2896 H 0.55409 1.0208 0.58195 0.0
H2897 H 0.58022 0.04662 0.55183 0.0
H2898 H 0.48543 1.03065 0.51503 0.0
H2899 H 0.51344 0.04562 0.52869 0.0
C2900 C 0.33308 0.21869 0.78153 0.0
C2901 C 0.31916 0.21855 0.77247 0.0
C2902 C 0.32453 0.23465 0.78942 0.0
C2903 C 0.26543 0.27 0.79907 0.0
H2904 H 0.31704 0.30839 0.81488 0.0
C2905 C 0.23479 0.34899 0.82812 0.0
C2906 C 0.2488 0.34926 0.83716 0.0
C2907 C 0.24328 0.33292 0.82025 0.0
C2908 C 0.30239 0.29756 0.81061 0.0
H2909 H 0.28556 0.23554 0.76456 0.0
H2910 H 0.27062 0.26331 0.77832 0.0
H2911 H 0.33209 0.28071 0.8011 0.0
H2912 H 0.28247 0.33239 0.84507 0.0
H2913 H 0.29729 0.30444 0.83135 0.0
H2914 H 0.23573 0.28685 0.80858 0.0
C2915 C 0.28794 0.25076 0.77937 0.0
C2916 C 0.31102 0.2817 0.80271 0.0
C2917 C 0.29651 0.23483 0.77148 0.0
C2918 C 0.27146 0.333 0.83815 0.0
C2919 C 0.27996 0.31696 0.83029 0.0
C2920 C 0.2568 0.28586 0.80697 0.0
C2921 C 0.30183 0.25085 0.78844 0.0
C2922 C 0.29265 0.26773 0.79684 0.0
C2923 C 0.266 0.31676 0.82123 0.0
C2924 C 0.27518 0.29984 0.81284 0.0
H2925 H 0.35035 0.20609 0.78261 0.0
H2926 H 0.33547 0.23396 0.79635 0.0
H2927 H 0.25079 0.25917 0.7948 0.0
H2928 H 0.2175 0.36157 0.82705 0.0
H2929 H 0.23229 0.33353 0.81334 0.0
C2930 C 0.08354 0.04858 1.0224 0.0
C2931 C 0.10002 0.07091 1.02352 0.0
C2932 C 0.06748 0.03993 1.03023 0.0
C2933 C 0.03667 0.06255 1.0537 0.0
H2934 H 1.0304 0.98701 0.05907 0.0
C2935 C 0.98438 1.02221 0.08883 0.0
C2936 C 0.96791 0.99987 0.08768 0.0
C2937 C 1.0006 1.03081 0.08103 0.0
C2938 C 1.0317 1.00816 0.05761 0.0
H2939 H 0.11273 0.10144 1.03384 0.0
H2940 H 0.08466 0.08641 1.04749 0.0
H2941 H 0.05839 1.00219 1.04542 0.0
H2942 H 0.95542 0.96928 0.07735 0.0
H2943 H 0.98374 0.98424 0.06377 0.0
H2944 H 1.00997 0.06852 0.06588 0.0
C2945 C 0.08389 0.0758 1.04049 0.0
C2946 C 0.04774 1.01686 1.04978 0.0
C2947 C 0.09998 0.08443 1.03266 0.0
C2948 C 0.96815 0.9863 0.07855 0.0
C2949 C 0.98439 0.99489 0.07075 0.0
C2950 C 1.02062 0.05384 0.06153 0.0
C2951 C 0.06747 0.05342 1.03938 0.0
C2952 C 0.05042 0.04416 1.04772 0.0
C2953 C 1.00078 1.01728 0.07189 0.0
C2954 C 1.01792 1.02654 0.06358 0.0
H2955 H 0.08274 0.03795 1.01541 0.0
H2956 H 0.05477 1.02287 1.02907 0.0
H2957 H 0.03797 0.08369 1.05223 0.0
H2958 H 0.98502 1.03288 0.09581 0.0
H2959 H 1.01328 0.04788 0.08222 0.0
C2960 C 0.73536 0.74353 0.83549 0.0
C2961 C 0.74772 0.71894 0.83742 0.0
C2962 C 0.74398 0.75959 0.82765 0.0
C2963 C 0.80164 0.77134 0.8112 0.0
H2964 H 0.7499 0.8081 0.79476 0.0
C2965 C 0.83089 0.82623 0.77508 0.0
C2966 C 0.81852 0.85084 0.77319 0.0
C2967 C 0.82226 0.81009 0.78291 0.0
C2968 C 0.76462 0.79821 0.79934 0.0
H2969 H 0.77854 0.69172 0.83249 0.0
H2970 H 0.79354 0.71969 0.8188 0.0
H2971 H 0.7348 0.78006 0.80841 0.0
H2972 H 0.7877 0.87801 0.77815 0.0
H2973 H 0.77271 0.84991 0.79181 0.0
H2974 H 0.83145 0.78949 0.80213 0.0
C2975 C 0.77747 0.72678 0.82346 0.0
C2976 C 0.75596 0.78213 0.80717 0.0
C2977 C 0.76887 0.71075 0.8313 0.0
C2978 C 0.79737 0.85897 0.77931 0.0
C2979 C 0.78877 0.84286 0.78714 0.0
C2980 C 0.81029 0.78742 0.80337 0.0
C2981 C 0.76515 0.75142 0.82154 0.0
C2982 C 0.77436 0.76851 0.8132 0.0
C2983 C 0.80109 0.81821 0.78903 0.0
C2984 C 0.79189 0.80105 0.79735 0.0
H2985 H 0.71927 0.75059 0.84015 0.0
H2986 H 0.73432 0.77863 0.82647 0.0
H2987 H 0.81636 0.76146 0.81579 0.0
H2988 H 0.84698 0.81922 0.77042 0.0
H2989 H 0.83193 0.79105 0.78406 0.0
C2990 C 0.83277 0.35036 0.32858 0.0
C2991 C 0.81864 0.35129 0.33759 0.0
C2992 C 0.8243 0.33402 0.32081 0.0
C2993 C 0.76513 0.2988 0.31126 0.0
H2994 H 0.81683 0.25899 0.29587 0.0
C2995 C 0.73451 0.21863 0.2827 0.0
C2996 C 0.74869 0.21764 0.2737 0.0
C2997 C 0.74297 0.235 0.29047 0.0
C2998 C 0.80215 0.2702 0.30002 0.0
H2999 H 0.78471 0.33528 0.34552 0.0
H3000 H 0.76991 0.30688 0.33195 0.0
H3001 H 0.83178 0.28729 0.30946 0.0
H3002 H 0.78265 0.23359 0.26578 0.0
H3003 H 0.79741 0.26206 0.27934 0.0
H3004 H 0.73551 0.28171 0.30182 0.0
C3005 C 0.78734 0.3191 0.33085 0.0
C3006 C 0.81073 0.28643 0.30782 0.0
C3007 C 0.79584 0.33541 0.33863 0.0
C3008 C 0.7715 0.23351 0.27267 0.0
C3009 C 0.77997 0.24985 0.28044 0.0
C3010 C 0.75656 0.28257 0.30346 0.0
C3011 C 0.80145 0.31822 0.32183 0.0
C3012 C 0.79232 0.30093 0.31353 0.0
C3013 C 0.76584 0.25077 0.28945 0.0
C3014 C 0.77496 0.26807 0.29775 0.0
H3015 H 0.85017 0.36262 0.32746 0.0
H3016 H 0.83541 0.33412 0.31391 0.0
H3017 H 0.75045 0.31001 0.31541 0.0
H3018 H 0.71711 0.20637 0.28382 0.0
H3019 H 0.73184 0.23493 0.29736 0.0
C3020 C 0.77186 0.3349 0.77325 0.0
C3021 C 0.74913 0.35103 0.77431 0.0
C3022 C 0.78036 0.31842 0.78101 0.0
C3023 C 0.75712 0.28585 0.8041 0.0
H3024 H 0.83241 0.2801 0.80991 0.0
C3025 C 0.79675 0.23206 0.83915 0.0
C3026 C 0.81949 0.21596 0.83806 0.0
C3027 C 0.78818 0.24856 0.8314 0.0
C3028 C 0.81134 0.28124 0.80832 0.0
H3029 H 0.71771 0.36259 0.78447 0.0
H3030 H 0.73249 0.3338 0.798 0.0
H3031 H 0.81739 0.3087 0.79636 0.0
H3032 H 0.85083 0.20444 0.82785 0.0
H3033 H 0.83595 0.23327 0.81435 0.0
H3034 H 0.75108 0.2584 0.81606 0.0
C3035 C 0.74354 0.33364 0.7911 0.0
C3036 C 0.80272 0.29765 0.80055 0.0
C3037 C 0.73506 0.35015 0.78333 0.0
C3038 C 0.83349 0.21687 0.82902 0.0
C3039 C 0.82494 0.2334 0.82127 0.0
C3040 C 0.76574 0.26945 0.81188 0.0
C3041 C 0.76634 0.3176 0.79005 0.0
C3042 C 0.7755 0.30015 0.79833 0.0
C3043 C 0.80215 0.24943 0.82235 0.0
C3044 C 0.79297 0.26693 0.81408 0.0
H3045 H 0.78294 0.33473 0.76635 0.0
H3046 H 0.79774 0.30602 0.77988 0.0
H3047 H 0.73605 0.28699 0.80251 0.0
H3048 H 0.78573 0.2322 0.84606 0.0
H3049 H 0.7708 0.26095 0.83255 0.0
C3050 C 0.73643 0.82549 0.33591 0.0
C3051 C 0.74861 0.85011 0.33776 0.0
C3052 C 0.74503 0.8094 0.32807 0.0
C3053 C 0.80248 0.79768 0.31146 0.0
H3054 H 0.75078 0.76072 0.29523 0.0
C3055 C 0.83154 0.74291 0.2753 0.0
C3056 C 0.81935 0.7183 0.27344 0.0
C3057 C 0.82294 0.75898 0.28315 0.0
C3058 C 0.76549 0.77066 0.29976 0.0
H3059 H 0.77909 0.87734 0.3327 0.0
H3060 H 0.79405 0.84933 0.31901 0.0
H3061 H 0.73568 0.78873 0.3089 0.0
H3062 H 0.78886 0.69106 0.27849 0.0
H3063 H 0.77391 0.71903 0.29219 0.0
H3064 H 0.83229 0.77961 0.30232 0.0
C3065 C 0.77814 0.84223 0.32373 0.0
C3066 C 0.75684 0.78672 0.3076 0.0
C3067 C 0.76956 0.8583 0.33157 0.0
C3068 C 0.7984 0.7101 0.27962 0.0
C3069 C 0.78982 0.72614 0.28748 0.0
C3070 C 0.81114 0.78162 0.30362 0.0
C3071 C 0.76601 0.81757 0.32188 0.0
C3072 C 0.77522 0.80044 0.31355 0.0
C3073 C 0.80196 0.75079 0.28933 0.0
C3074 C 0.79275 0.76791 0.29768 0.0
H3075 H 0.72049 0.81843 0.34062 0.0
H3076 H 0.73552 0.79035 0.32695 0.0
H3077 H 0.81719 0.80763 0.31599 0.0
H3078 H 0.84748 0.74998 0.27059 0.0
H3079 H 0.83246 0.77802 0.28428 0.0
C3080 C 0.59949 0.48624 0.07903 0.0
C3081 C 0.59961 0.50029 0.08806 0.0
C3082 C 0.58332 0.49452 0.07115 0.0
C3083 C 0.54725 0.55319 0.06141 0.0
H3084 H 0.50927 0.50094 1.04576 0.0
C3085 C 0.46768 0.58275 1.03242 0.0
C3086 C 0.4675 0.56871 1.02339 0.0
C3087 C 0.48387 0.57445 1.04028 0.0
C3088 C 0.51997 0.51577 1.04999 0.0
H3089 H 0.58241 0.53384 0.09592 0.0
H3090 H 0.55429 0.54831 0.08217 0.0
H3091 H 0.53726 0.48632 0.05954 0.0
H3092 H 0.48463 0.53516 1.01551 0.0
H3093 H 0.51281 0.52065 1.02924 0.0
H3094 H 0.52997 0.58264 1.05187 0.0
C3095 C 0.567 0.5311 0.08113 0.0
C3096 C 0.53602 0.50738 0.05788 0.0
C3097 C 0.58313 0.5228 0.08902 0.0
C3098 C 0.48395 0.54619 1.02241 0.0
C3099 C 0.50012 0.53787 1.03028 0.0
C3100 C 0.53121 0.56157 1.05352 0.0
C3101 C 0.56692 0.51708 0.0721 0.0
C3102 C 0.54984 0.52599 0.0637 0.0
C3103 C 0.50026 0.55188 1.03932 0.0
C3104 C 0.51737 0.54296 1.04771 0.0
H3105 H 0.61224 0.46907 0.07797 0.0
H3106 H 0.58404 0.4835 0.06424 0.0
H3107 H 0.55796 0.56801 0.06564 0.0
H3108 H 0.45494 0.59993 1.03348 0.0
H3109 H 0.4832 0.58547 1.04719 0.0
C3110 C 0.98296 0.54592 0.58872 0.0
C3111 C 0.96666 0.56856 0.58769 0.0
C3112 C 0.99907 0.53739 0.58087 0.0
C3113 C 1.03029 0.56056 0.55754 0.0
H3114 H 0.03606 0.48517 0.55182 0.0
C3115 C 0.08228 0.52097 0.52222 0.0
C3116 C 0.09864 0.49838 0.52325 0.0
C3117 C 0.06612 0.52945 0.53006 0.0
C3118 C 0.0349 0.50627 0.55338 0.0
H3119 H 0.95437 0.59977 0.57751 0.0
H3120 H 0.98252 0.58493 0.56384 0.0
H3121 H 1.00814 0.50018 0.56553 0.0
H3122 H 0.11096 0.46719 0.53343 0.0
H3123 H 0.08272 0.48193 0.54709 0.0
H3124 H 0.05706 0.56665 0.5454 0.0
C3125 C 0.98311 0.57399 0.57077 0.0
C3126 C 1.01889 0.51488 0.56125 0.0
C3127 C 0.96697 0.5825 0.57862 0.0
C3128 C 0.09832 0.48442 0.53232 0.0
C3129 C 0.08213 0.49289 0.54015 0.0
C3130 C 0.0463 0.55195 0.54968 0.0
C3131 C 0.99933 0.5513 0.5718 0.0
C3132 C 1.01639 0.54213 0.56343 0.0
C3133 C 0.06587 0.51555 0.53913 0.0
C3134 C 0.0488 0.5247 0.5475 0.0
H3135 H 0.98355 0.53496 0.59565 0.0
H3136 H 1.01163 0.52009 0.58197 0.0
H3137 H 1.02914 0.58166 0.55911 0.0
H3138 H 0.08169 0.53195 0.51529 0.0
H3139 H 0.05353 0.54673 0.52896 0.0
C3140 C 0.10215 0.58289 0.07875 0.0
C3141 C 0.10153 0.56988 0.088 0.0
C3142 C 0.08588 0.57446 0.07095 0.0
C3143 C 1.02488 0.53614 0.06565 0.0
H3144 H 0.05331 0.5334 1.03889 0.0
C3145 C 0.9674 0.48817 1.03313 0.0
C3146 C 0.96805 0.50136 1.02391 0.0
C3147 C 0.98377 0.49634 1.04094 0.0
C3148 C 0.04497 0.53432 1.0463 0.0
H3149 H 0.08298 0.53797 0.09633 0.0
H3150 H 0.05497 0.52296 0.08267 0.0
H3151 H 0.08156 0.54809 1.05253 0.0
H3152 H 0.98679 0.53329 1.01566 0.0
H3153 H 1.01495 0.54785 1.02933 0.0
H3154 H 0.98828 0.52239 0.05942 0.0
C3155 C 0.06788 0.53986 0.08147 0.0
C3156 C 0.06117 0.54275 1.05412 0.0
C3157 C 0.08417 0.54827 0.08927 0.0
C3158 C 0.98556 0.52286 1.02269 0.0
C3159 C 1.00194 0.53102 1.03049 0.0
C3160 C 1.00868 0.52771 0.05783 0.0
C3161 C 0.06856 0.55282 0.07221 0.0
C3162 C 0.05132 0.54379 0.06389 0.0
C3163 C 1.00122 0.51789 1.03972 0.0
C3164 C 1.01851 0.52671 1.04806 0.0
H3165 H 0.11548 0.59941 0.07748 0.0
H3166 H 0.0867 0.58508 0.06395 0.0
H3167 H 1.01654 0.53708 0.07306 0.0
H3168 H 0.95396 0.47171 1.03436 0.0
H3169 H 0.9829 0.4856 1.04791 0.0
C3170 C 0.46762 0.48488 0.57795 0.0
C3171 C 0.46701 0.49884 0.587 0.0
C3172 C 0.48385 0.4934 0.57014 0.0
C3173 C 0.54293 0.53461 0.56473 0.0
H3174 H 0.51607 0.53311 0.53772 0.0
C3175 C 0.59932 0.58328 0.53207 0.0
C3176 C 0.60008 0.56933 0.52302 0.0
C3177 C 0.58299 0.57473 0.53984 0.0
C3178 C 0.52398 0.53339 0.54521 0.0
H3179 H 0.48334 0.53256 0.59495 0.0
H3180 H 0.5112 0.54771 0.58128 0.0
H3181 H 0.48791 0.518 0.55133 0.0
H3182 H 0.58389 0.53563 0.51503 0.0
H3183 H 0.55583 0.52042 0.52864 0.0
H3184 H 0.57899 0.54999 0.55861 0.0
C3185 C 0.49932 0.53 0.58025 0.0
C3186 C 0.50784 0.52471 0.55301 0.0
C3187 C 0.48309 0.52149 0.58805 0.0
C3188 C 0.58402 0.54668 0.52193 0.0
C3189 C 0.56768 0.53814 0.5297 0.0
C3190 C 0.55907 0.54328 0.55692 0.0
C3191 C 0.49989 0.51608 0.57119 0.0
C3192 C 0.5171 0.52522 0.56287 0.0
C3193 C 0.56701 0.55202 0.53876 0.0
C3194 C 0.5498 0.5428 0.54707 0.0
H3195 H 0.45529 0.46752 0.57684 0.0
H3196 H 0.484 0.48205 0.56331 0.0
H3197 H 0.55085 0.53488 0.57221 0.0
H3198 H 0.61163 0.60064 0.53321 0.0
H3199 H 0.58274 0.58606 0.54668 0.0
C3200 C 0.21751 0.06145 0.39885 0.0
C3201 C 0.18936 0.05976 0.39835 0.0
C3202 C 0.23275 0.04798 0.40645 0.0
C3203 C 0.22736 0.99237 0.4265 0.0
H3204 H 0.29321 1.02024 0.43701 0.0
C3205 C 0.29211 0.92829 0.45486 0.0
C3206 C 0.30819 0.93988 0.46237 0.0
C3207 C 0.27865 0.94347 0.44743 0.0
C3208 C 0.2748 1.01192 0.43428 0.0
H3209 H 0.15625 0.0417 0.40609 0.0
H3210 H 0.18188 1.0187 0.41876 0.0
H3211 H 0.26951 0.04414 0.42369 0.0
H3212 H 0.32237 0.97831 0.46723 0.0
H3213 H 0.29914 1.00479 0.45432 0.0
H3214 H 0.23236 0.96029 0.43699 0.0
C3215 C 0.19272 1.03014 0.4133 0.0
C3216 C 0.26106 1.02577 0.42642 0.0
C3217 C 0.17766 0.04373 0.40586 0.0
C3218 C 0.31009 0.96805 0.46186 0.0
C3219 C 0.29675 0.98341 0.45426 0.0
C3220 C 0.24118 0.97844 0.43423 0.0
C3221 C 0.22081 1.03174 0.41393 0.0
C3222 C 0.23672 1.01654 0.42229 0.0
C3223 C 0.28045 0.97158 0.44679 0.0
C3224 C 0.26539 0.98763 0.43843 0.0
H3225 H 0.22787 0.07363 0.39347 0.0
H3226 H 0.25413 0.0502 0.40638 0.0
H3227 H 0.20916 0.98368 0.42375 0.0
H3228 H 0.28995 0.90687 0.45463 0.0
H3229 H 0.26716 0.93271 0.44197 0.0
C3230 C 0.39056 0.04401 0.70405 0.0
C3231 C 0.37875 0.05993 0.71158 0.0
C3232 C 0.37558 1.03023 0.69667 0.0
C3233 C 0.30685 1.02486 0.68382 0.0
H3234 H 0.33686 0.96009 0.67303 0.0
C3235 C 0.25757 0.96674 0.64866 0.0
C3236 C 0.26035 0.93864 0.64802 0.0
C3237 C 0.27089 0.9822 0.6562 0.0
C3238 C 0.32766 0.97803 0.67586 0.0
H3239 H 0.34008 0.07337 0.71656 0.0
H3240 H 0.31397 0.04962 0.70375 0.0
H3241 H 0.35995 0.98376 0.68617 0.0
H3242 H 0.28021 0.90589 0.65545 0.0
H3243 H 0.30298 0.93189 0.66801 0.0
H3244 H 0.27442 1.01884 0.67342 0.0
C3245 C 0.33538 0.04763 0.70362 0.0
C3246 C 0.34142 0.99214 0.68352 0.0
C3247 C 0.35055 0.0613 0.71116 0.0
C3248 C 0.27736 0.92725 0.65532 0.0
C3249 C 0.29079 0.94254 0.6627 0.0
C3250 C 0.29316 1.01083 0.67603 0.0
C3251 C 0.34745 1.03149 0.69612 0.0
C3252 C 0.3316 1.01608 0.68782 0.0
C3253 C 0.28806 0.97057 0.66349 0.0
C3254 C 0.30304 0.98678 0.6718 0.0
H3255 H 0.412 0.0422 0.70375 0.0
H3256 H 0.38652 1.01891 0.69119 0.0
H3257 H 0.29801 0.04303 0.68662 0.0
H3258 H 0.24457 0.97686 0.64346 0.0
H3259 H 0.26775 1.0035 0.65624 0.0
C3260 C 0.2554 0.10287 0.9619 0.0
C3261 C 0.25697 0.13107 0.96236 0.0
C3262 C 0.26866 0.08764 0.95426 0.0
C3263 C 0.32351 0.09314 0.93396 0.0
H3264 H 0.29561 1.02701 0.92369 0.0
C3265 C 0.38684 1.0283 0.90543 0.0
C3266 C 0.37507 1.01208 0.89801 0.0
C3267 C 0.37188 0.04178 0.91291 0.0
C3268 C 0.30394 0.0455 0.92635 0.0
H3269 H 0.27461 0.16426 0.95451 0.0
H3270 H 0.29728 0.13865 0.94178 0.0
H3271 H 0.27209 0.05074 0.93707 0.0
H3272 H 0.33655 0.99771 0.89334 0.0
H3273 H 0.31047 1.02096 0.90632 0.0
H3274 H 0.35524 0.08817 0.92335 0.0
C3275 C 0.28607 0.12777 0.9473 0.0
C3276 C 0.29031 0.05926 0.93424 0.0
C3277 C 0.27267 0.14282 0.95477 0.0
C3278 C 0.34695 1.01008 0.89864 0.0
C3279 C 0.33182 1.02344 0.90628 0.0
C3280 C 0.33724 0.07929 0.92621 0.0
C3281 C 0.28458 0.09963 0.9467 0.0
C3282 C 0.29955 0.0837 0.9383 0.0
C3283 C 0.34384 0.03988 0.91368 0.0
C3284 C 0.32803 0.05497 0.92208 0.0
H3285 H 0.24348 0.09246 0.96735 0.0
H3286 H 0.26653 0.06623 0.95436 0.0
H3287 H 0.3322 0.11142 0.93665 0.0
H3288 H 0.40823 1.03055 0.90557 0.0
H3289 H 0.38278 0.05339 0.9183 0.0
C3290 C 0.17899 1.02681 0.20506 0.0
C3291 C 0.19057 1.0102 0.21245 0.0
C3292 C 0.19413 0.04041 0.19767 0.0
C3293 C 0.26232 0.04375 0.18439 0.0
H3294 H 0.23465 0.11042 0.17428 0.0
C3295 C 0.31182 0.10167 0.14914 0.0
C3296 C 0.31046 0.12991 0.14878 0.0
C3297 C 0.29833 0.08637 0.1567 0.0
C3298 C 0.24318 0.09192 0.17691 0.0
H3299 H 0.22896 0.99524 0.21714 0.0
H3300 H 0.25534 1.01864 0.20431 0.0
H3301 H 0.21122 0.08699 0.18743 0.0
H3302 H 0.29294 0.16308 0.15672 0.0
H3303 H 0.26987 0.13736 0.16931 0.0
H3304 H 0.29438 0.04893 0.17376 0.0
C3305 C 0.234 1.02137 0.20431 0.0
C3306 C 0.22923 0.07798 0.18458 0.0
C3307 C 0.21869 1.00792 0.21188 0.0
C3308 C 0.29472 0.14163 0.15639 0.0
C3309 C 0.28109 0.12651 0.16378 0.0
C3310 C 0.27617 0.0576 0.17658 0.0
C3311 C 0.22219 0.03821 0.19695 0.0
C3312 C 0.23822 0.05339 0.18864 0.0
C3313 C 0.28237 0.09833 0.16428 0.0
C3314 C 0.26715 0.08232 0.17259 0.0
H3315 H 0.15761 1.0293 0.20489 0.0
H3316 H 0.18338 0.05234 0.19231 0.0
H3317 H 0.2705 1.02506 0.18699 0.0
H3318 H 0.32373 0.09127 0.14368 0.0
H3319 H 0.30031 0.06494 0.15652 0.0
C3320 C 0.88978 1.02369 0.7047 0.0
C3321 C 0.87807 1.008 0.71231 0.0
C3322 C 0.8747 0.03719 0.69725 0.0
C3323 C 0.80621 0.04175 0.68424 0.0
H3324 H 0.83515 0.10683 0.67341 0.0
C3325 C 0.75713 0.09896 0.64868 0.0
C3326 C 0.75909 0.12712 0.64812 0.0
C3327 C 0.77048 0.08369 0.65631 0.0
C3328 C 0.82627 0.08879 0.67625 0.0
H3329 H 0.83952 0.99463 0.71734 0.0
H3330 H 0.81324 1.01788 0.70439 0.0
H3331 H 0.8584 0.08358 0.68669 0.0
H3332 H 0.77747 0.1602 0.65576 0.0
H3333 H 0.80031 0.1345 0.66845 0.0
H3334 H 0.77396 0.04724 0.67369 0.0
C3335 C 0.83463 1.01991 0.70426 0.0
C3336 C 0.84011 0.07494 0.68399 0.0
C3337 C 0.84989 1.00654 0.71189 0.0
C3338 C 0.77526 0.13879 0.65558 0.0
C3339 C 0.78874 0.12369 0.66303 0.0
C3340 C 0.79246 0.05551 0.67636 0.0
C3341 C 0.84659 0.03583 0.69668 0.0
C3342 C 0.83066 0.05093 0.68831 0.0
C3343 C 0.78688 0.0956 0.66374 0.0
C3344 C 0.80195 0.07965 0.67212 0.0
H3345 H 0.9112 1.02554 0.70441 0.0
H3346 H 0.88554 0.04838 0.69171 0.0
H3347 H 0.79768 1.0235 0.68706 0.0
H3348 H 0.74478 0.08864 0.64336 0.0
H3349 H 0.76803 0.06231 0.6563 0.0
C3350 C 0.79218 0.13909 0.45486 0.0
C3351 C 0.80846 0.12749 0.46234 0.0
C3352 C 0.77862 0.12392 0.44748 0.0
C3353 C 0.77482 0.05541 0.43443 0.0
H3354 H 0.70876 0.08366 0.42406 0.0
C3355 C 0.7171 1.00581 0.39921 0.0
C3356 C 0.68891 1.00746 0.3988 0.0
C3357 C 0.7324 1.0193 0.40676 0.0
C3358 C 0.72708 0.07497 0.42677 0.0
H3359 H 0.82287 0.08902 0.46722 0.0
H3360 H 0.79952 0.06256 0.45441 0.0
H3361 H 0.73213 0.10711 0.43719 0.0
H3362 H 0.65584 1.0255 0.40663 0.0
H3363 H 0.68157 0.04857 0.41918 0.0
H3364 H 0.76951 1.02316 0.4239 0.0
C3365 C 0.79703 0.08395 0.45433 0.0
C3366 C 0.741 0.08893 0.43443 0.0
C3367 C 0.81045 0.09931 0.46187 0.0
C3368 C 0.67725 1.02349 0.40633 0.0
C3369 C 0.69238 0.03712 0.4137 0.0
C3370 C 0.761 0.04155 0.42663 0.0
C3371 C 0.78052 0.0958 0.44688 0.0
C3372 C 0.76536 0.07974 0.43858 0.0
C3373 C 0.7205 0.03555 0.41426 0.0
C3374 C 0.7365 0.05078 0.42255 0.0
H3375 H 0.78993 0.16052 0.4546 0.0
H3376 H 0.76696 0.13469 0.44204 0.0
H3377 H 0.79334 0.04708 0.43712 0.0
H3378 H 0.72744 0.99364 0.39381 0.0
H3379 H 0.75379 1.01709 0.40662 0.0
C3380 C 0.79435 0.92805 0.15621 0.0
C3381 C 0.8102 0.93975 0.14865 0.0
C3382 C 0.78079 0.94316 0.16363 0.0
C3383 C 0.77634 1.01169 0.17664 0.0
H3384 H 0.71108 0.98295 0.18731 0.0
C3385 C 0.71891 0.06098 0.21206 0.0
C3386 C 0.69076 0.05916 0.21256 0.0
C3387 C 0.73422 0.04755 0.20448 0.0
C3388 C 0.72917 0.99177 0.18452 0.0
H3389 H 0.8238 0.97832 0.14367 0.0
H3390 H 0.80046 1.00465 0.15656 0.0
H3391 H 0.73438 0.95963 0.1741 0.0
H3392 H 0.65776 0.04087 0.20484 0.0
H3393 H 0.68351 1.01791 0.19222 0.0
H3394 H 0.77087 0.04395 0.18718 0.0
C3395 C 0.79833 0.98324 0.15667 0.0
C3396 C 0.74305 0.97789 0.17681 0.0
C3397 C 0.81175 0.96796 0.14908 0.0
C3398 C 0.67915 0.04301 0.20507 0.0
C3399 C 0.69428 1.02945 0.19766 0.0
C3400 C 0.76256 1.02548 0.18449 0.0
C3401 C 0.78226 0.9713 0.16421 0.0
C3402 C 0.76713 0.98727 0.17255 0.0
C3403 C 0.72236 1.0312 0.19702 0.0
C3404 C 0.73835 1.01607 0.18868 0.0
H3405 H 0.79243 0.90662 0.1565 0.0
H3406 H 0.76948 0.93232 0.16913 0.0
H3407 H 0.79465 1.02016 0.17388 0.0
H3408 H 0.72921 0.07326 0.21742 0.0
H3409 H 0.75559 0.04991 0.20454 0.0
C3410 C 0.76532 0.96472 0.96391 0.0
C3411 C 0.75919 0.9374 0.96251 0.0
C3412 C 0.77915 0.98014 0.95647 0.0
C3413 C 0.7973 0.98114 0.92843 0.0
H3414 H 0.8497 1.03401 0.93538 0.0
C3415 C 0.85201 0.05095 0.89762 0.0
C3416 C 0.87924 0.05723 0.8991 0.0
C3417 C 0.83653 0.03714 0.90505 0.0
C3418 C 0.83517 1.01937 0.93314 0.0
H3419 H 0.76401 0.90606 0.95158 0.0
H3420 H 0.78653 0.93229 0.93897 0.0
H3421 H 0.82555 1.01019 0.94848 0.0
H3422 H 0.91039 0.05266 0.91012 0.0
H3423 H 0.88407 1.03022 0.92271 0.0
H3424 H 0.80664 0.99059 0.91309 0.0
C3425 C 0.78089 0.94216 0.9458 0.0
C3426 C 0.82092 1.00559 0.94082 0.0
C3427 C 0.76782 0.92676 0.95325 0.0
C3428 C 0.88974 0.04877 0.90841 0.0
C3429 C 0.8743 0.03573 0.91584 0.0
C3430 C 0.81109 0.99538 0.92075 0.0
C3431 C 0.78711 0.96939 0.9471 0.0
C3432 C 0.80171 0.98571 0.93875 0.0
C3433 C 0.84716 1.02936 0.91448 0.0
C3434 C 0.8308 1.01476 0.92282 0.0
H3435 H 0.75942 0.97432 0.97076 0.0
H3436 H 0.78315 1.00086 0.95803 0.0
H3437 H 0.7828 0.96647 0.92619 0.0
H3438 H 0.84251 0.0567 0.89073 0.0
H3439 H 0.81589 1.03301 0.90344 0.0
C3440 C 0.71632 0.56407 0.89919 0.0
C3441 C 0.68818 0.56216 0.89869 0.0
C3442 C 0.73166 0.55084 0.90683 0.0
C3443 C 0.72669 0.49557 0.92704 0.0
H3444 H 0.79243 0.52403 0.93742 0.0
C3445 C 0.79194 0.43242 0.95555 0.0
C3446 C 0.80802 0.44424 0.96301 0.0
C3447 C 0.77837 0.44738 0.94808 0.0
C3448 C 0.77405 0.51554 0.93473 0.0
H3449 H 0.65521 0.54399 0.90648 0.0
H3450 H 0.681 0.52141 0.91921 0.0
H3451 H 0.76852 0.54753 0.92405 0.0
H3452 H 0.82204 0.48285 0.96773 0.0
H3453 H 0.79863 0.50894 0.95476 0.0
H3454 H 0.73194 0.46372 0.93762 0.0
C3455 C 0.69176 0.53283 0.91371 0.0
C3456 C 0.76019 0.52916 0.92684 0.0
C3457 C 0.6766 0.54618 0.90624 0.0
C3458 C 0.80979 0.47241 0.96241 0.0
C3459 C 0.79633 0.48754 0.95477 0.0
C3460 C 0.74063 0.48187 0.93479 0.0
C3461 C 0.71984 0.53464 0.91435 0.0
C3462 C 0.73588 0.51971 0.92275 0.0
C3463 C 0.78002 0.47547 0.94735 0.0
C3464 C 0.76482 0.49128 0.93895 0.0
H3465 H 0.72659 0.57623 0.89378 0.0
H3466 H 0.75302 0.55323 0.90675 0.0
H3467 H 0.70853 0.48672 0.92432 0.0
H3468 H 0.78986 0.41099 0.95539 0.0
H3469 H 0.76688 0.43644 0.94267 0.0
C3470 C 0.75719 0.46911 0.14927 0.0
C3471 C 0.75912 0.44092 0.14881 0.0
C3472 C 0.77058 0.48442 0.15683 0.0
C3473 C 0.82641 0.47928 0.17678 0.0
H3474 H 0.79801 0.54518 0.18724 0.0
C3475 C 0.89011 0.54459 0.20488 0.0
C3476 C 0.87844 0.56067 0.21239 0.0
C3477 C 0.875 0.531 0.1975 0.0
C3478 C 0.80648 0.52676 0.18452 0.0
H3479 H 0.77748 0.40784 0.15657 0.0
H3480 H 0.80038 0.4336 0.16916 0.0
H3481 H 0.77421 0.52129 0.17401 0.0
H3482 H 0.83993 0.57463 0.21734 0.0
H3483 H 0.81359 0.55123 0.20452 0.0
H3484 H 0.85856 0.48448 0.18718 0.0
C3485 C 0.78881 0.4444 0.1637 0.0
C3486 C 0.79268 0.51291 0.17672 0.0
C3487 C 0.77529 0.42926 0.15631 0.0
C3488 C 0.85027 0.56242 0.21196 0.0
C3489 C 0.83498 0.54895 0.20441 0.0
C3490 C 0.84029 0.49322 0.18444 0.0
C3491 C 0.78698 0.47252 0.1643 0.0
C3492 C 0.80211 0.48855 0.1726 0.0
C3493 C 0.8469 0.53265 0.19692 0.0
C3494 C 0.83091 0.51746 0.18863 0.0
H3495 H 0.74486 0.47943 0.1439 0.0
H3496 H 0.76816 0.50582 0.15673 0.0
H3497 H 0.83523 0.46107 0.17403 0.0
H3498 H 0.91152 0.5425 0.20461 0.0
H3499 H 0.88581 0.5195 0.19203 0.0
C3500 C 0.88978 0.52557 0.40628 0.0
C3501 C 0.87789 0.50988 0.39872 0.0
C3502 C 0.87488 0.53918 0.41374 0.0
C3503 C 0.80643 0.54436 0.42677 0.0
H3504 H 0.83637 0.60877 0.43772 0.0
C3505 C 0.75774 0.6016 0.4623 0.0
C3506 C 0.76039 0.62967 0.46302 0.0
C3507 C 0.77096 0.58632 0.45466 0.0
C3508 C 0.8272 0.59093 0.43485 0.0
H3509 H 0.8392 0.49668 0.39378 0.0
H3510 H 0.81322 0.52018 0.40672 0.0
H3511 H 0.85925 0.58543 0.42442 0.0
H3512 H 0.77988 0.66259 0.45566 0.0
H3513 H 0.80247 0.63688 0.44293 0.0
H3514 H 0.77422 0.55017 0.4373 0.0
C3515 C 0.83462 0.5221 0.40682 0.0
C3516 C 0.84083 0.57701 0.42709 0.0
C3517 C 0.84971 0.50858 0.39919 0.0
C3518 C 0.77715 0.64124 0.45572 0.0
C3519 C 0.79047 0.62612 0.44824 0.0
C3520 C 0.79286 0.5582 0.43466 0.0
C3521 C 0.84677 0.53799 0.41435 0.0
C3522 C 0.83103 0.55321 0.42274 0.0
C3523 C 0.78787 0.59812 0.44736 0.0
C3524 C 0.80272 0.58211 0.43895 0.0
H3525 H 0.91121 0.5273 0.40654 0.0
H3526 H 0.88587 0.55032 0.41924 0.0
H3527 H 0.79762 0.52629 0.42394 0.0
H3528 H 0.74492 0.59137 0.4675 0.0
H3529 H 0.76794 0.56502 0.45455 0.0
C3530 C 0.68128 0.51126 0.70227 0.0
C3531 C 0.69001 0.50771 0.71224 0.0
C3532 C 0.69659 0.52455 0.69485 0.0
C3533 C 0.75493 0.57282 0.69059 0.0
H3534 H 0.74757 0.55212 0.663 0.0
C3535 C 0.79897 0.6402 0.65789 0.0
C3536 C 0.80889 0.6293 0.64886 0.0
C3537 C 0.78592 0.62476 0.66533 0.0
C3538 C 0.75021 0.55844 0.67062 0.0
H3539 H 0.72345 0.5168 0.72174 0.0
H3540 H 0.74982 0.5405 0.70899 0.0
H3541 H 0.7239 0.52771 0.67603 0.0
H3542 H 0.81126 0.59177 0.64104 0.0
H3543 H 0.78787 0.56505 0.65377 0.0
H3544 H 0.78103 0.60371 0.68518 0.0
C3545 C 0.73069 0.53256 0.70686 0.0
C3546 C 0.73616 0.5443 0.67826 0.0
C3547 C 0.71541 0.51864 0.71431 0.0
C3548 C 0.80423 0.60161 0.64769 0.0
C3549 C 0.79058 0.58607 0.65514 0.0
C3550 C 0.76861 0.58725 0.68293 0.0
C3551 C 0.72179 0.53589 0.69683 0.0
C3552 C 0.73793 0.55099 0.68853 0.0
C3553 C 0.78121 0.59712 0.66429 0.0
C3554 C 0.76672 0.58066 0.67266 0.0
H3555 H 0.66212 0.50347 0.70007 0.0
H3556 H 0.68811 0.52637 0.68749 0.0
H3557 H 0.75734 0.57934 0.6982 0.0
H3558 H 0.8017 0.66117 0.65937 0.0
H3559 H 0.77914 0.63493 0.67194 0.0
C3560 C 0.35087 0.50798 0.21197 0.0
C3561 C 0.37905 0.50933 0.21242 0.0
C3562 C 0.33572 0.5215 0.20435 0.0
C3563 C 0.34169 0.57654 0.18407 0.0
H3564 H 0.27525 0.54944 0.17381 0.0
C3565 C 0.27771 0.64072 0.15547 0.0
C3566 C 0.26112 0.62914 0.14812 0.0
C3567 C 0.29106 0.62558 0.16295 0.0
C3568 C 0.29384 0.55754 0.17647 0.0
H3569 H 0.4123 0.52683 0.20458 0.0
H3570 H 0.38684 0.54987 0.19188 0.0
H3571 H 0.29874 0.52555 0.18719 0.0
H3572 H 0.24601 0.5908 0.14356 0.0
H3573 H 0.26909 0.56441 0.15652 0.0
H3574 H 0.33709 0.60837 0.17345 0.0
C3575 C 0.37591 0.53869 0.1974 0.0
C3576 C 0.30745 0.5437 0.18436 0.0
C3577 C 0.39087 0.52507 0.20485 0.0
C3578 C 0.25868 0.60104 0.1488 0.0
C3579 C 0.27193 0.58574 0.15644 0.0
C3580 C 0.328 0.59046 0.17631 0.0
C3581 C 0.3478 0.53744 0.1968 0.0
C3582 C 0.332 0.55265 0.18841 0.0
C3583 C 0.28868 0.59755 0.16378 0.0
C3584 C 0.30358 0.58154 0.17219 0.0
H3585 H 0.34042 0.49602 0.21739 0.0
H3586 H 0.31432 0.51954 0.20445 0.0
H3587 H 0.36006 0.58502 0.18676 0.0
H3588 H 0.28028 0.66209 0.15556 0.0
H3589 H 0.30293 0.63635 0.1683 0.0
C3590 C 0.30578 0.63638 0.95195 0.0
C3591 C 0.3113 0.62703 0.96172 0.0
C3592 C 0.29254 0.62084 0.94461 0.0
C3593 C 0.24904 0.55855 0.94045 0.0
H3594 H 0.26326 0.57211 0.91262 0.0
C3595 C 0.18094 0.51115 0.90869 0.0
C3596 C 0.19053 0.50529 0.89899 0.0
C3597 C 0.19635 0.52449 0.91605 0.0
C3598 C 0.2588 0.56765 0.9203 0.0
H3599 H 0.30595 0.59215 0.97093 0.0
H3600 H 0.28254 0.56524 0.9583 0.0
H3601 H 0.28756 0.59633 0.92546 0.0
H3602 H 0.22568 0.51013 0.88993 0.0
H3603 H 0.25236 0.5337 0.90259 0.0
H3604 H 0.2203 0.52985 0.9353 0.0
C3605 C 0.2887 0.58512 0.95628 0.0
C3606 C 0.27286 0.58206 0.92785 0.0
C3607 C 0.30246 0.60073 0.96367 0.0
C3608 C 0.21692 0.51389 0.89714 0.0
C3609 C 0.23239 0.52774 0.90454 0.0
C3610 C 0.23475 0.54438 0.9329 0.0
C3611 C 0.28337 0.59466 0.94645 0.0
C3612 C 0.26845 0.57814 0.93822 0.0
C3613 C 0.22262 0.53342 0.91429 0.0
C3614 C 0.239 0.54846 0.92253 0.0
H3615 H 0.31194 0.65623 0.94986 0.0
H3616 H 0.28908 0.62989 0.93742 0.0
H3617 H 0.24433 0.55434 0.94814 0.0
H3618 H 0.161 0.50518 0.91072 0.0
H3619 H 0.18712 0.52821 0.92318 0.0
C3620 C 0.3118 0.46781 0.64867 0.0
C3621 C 0.30959 0.43967 0.64812 0.0
C3622 C 0.29858 0.4832 0.65627 0.0
C3623 C 0.24262 0.4788 0.67615 0.0
H3624 H 0.27222 0.54349 0.68703 0.0
C3625 C 0.17996 0.54497 0.70448 0.0
C3626 C 0.1919 0.56024 0.71215 0.0
C3627 C 0.19485 0.53124 0.69705 0.0
C3628 C 0.2634 0.52541 0.68419 0.0
H3629 H 0.29082 0.40676 0.65577 0.0
H3630 H 0.26814 0.43269 0.66842 0.0
H3631 H 0.29566 0.51947 0.6737 0.0
H3632 H 0.23068 0.57251 0.71733 0.0
H3633 H 0.25663 0.54894 0.70439 0.0
H3634 H 0.21044 0.48451 0.68653 0.0
C3635 C 0.27987 0.44338 0.66301 0.0
C3636 C 0.277 0.5115 0.67633 0.0
C3637 C 0.29326 0.42815 0.65558 0.0
C3638 C 0.22012 0.561 0.71181 0.0
C3639 C 0.23519 0.54743 0.7042 0.0
C3640 C 0.22892 0.49283 0.68387 0.0
C3641 C 0.28204 0.47145 0.6637 0.0
C3642 C 0.26714 0.48756 0.67206 0.0
C3643 C 0.223 0.53195 0.69656 0.0
C3644 C 0.23875 0.51663 0.68821 0.0
H3645 H 0.32425 0.47802 0.64334 0.0
H3646 H 0.30125 0.50455 0.65626 0.0
H3647 H 0.23348 0.46093 0.67329 0.0
H3648 H 0.1585 0.54361 0.70414 0.0
H3649 H 0.18386 0.52038 0.69147 0.0
C3650 C 0.2557 0.46749 0.46172 0.0
C3651 C 0.25807 0.43935 0.46235 0.0
C3652 C 0.26911 0.4828 0.45415 0.0
C3653 C 0.3258 0.47808 0.43454 0.0
H3654 H 0.29641 0.54286 0.42342 0.0
C3655 C 0.38925 0.5437 0.40635 0.0
C3656 C 0.37755 0.5591 0.39862 0.0
C3657 C 0.37414 0.53008 0.41374 0.0
C3658 C 0.30518 0.52475 0.42632 0.0
H3659 H 0.27729 0.40635 0.45487 0.0
H3660 H 0.30027 0.43212 0.44227 0.0
H3661 H 0.27259 0.51902 0.43668 0.0
H3662 H 0.33893 0.57178 0.39331 0.0
H3663 H 0.31259 0.54838 0.40615 0.0
H3664 H 0.35829 0.48357 0.4243 0.0
C3665 C 0.28829 0.44289 0.4476 0.0
C3666 C 0.29136 0.51094 0.43415 0.0
C3667 C 0.27473 0.42775 0.455 0.0
C3668 C 0.34932 0.56013 0.39886 0.0
C3669 C 0.33402 0.54666 0.40642 0.0
C3670 C 0.33971 0.492 0.42686 0.0
C3671 C 0.286 0.47096 0.44683 0.0
C3672 C 0.30113 0.48697 0.4385 0.0
C3673 C 0.34598 0.53104 0.41412 0.0
C3674 C 0.32998 0.51584 0.42243 0.0
H3675 H 0.24297 0.47777 0.46695 0.0
H3676 H 0.2663 0.50415 0.4541 0.0
H3677 H 0.3349 0.46018 0.43747 0.0
H3678 H 0.41069 0.54217 0.40678 0.0
H3679 H 0.38497 0.51913 0.41936 0.0
C3680 C 0.1646 0.09431 0.33797 0.0
C3681 C 0.15462 0.07974 0.34615 0.0
C3682 C 0.16494 0.08366 0.32816 0.0
C3683 C 0.15572 1.01843 0.31342 0.0
H3684 H 0.1554 0.06579 0.29074 0.0
C3685 C 0.16551 0.97601 0.27238 0.0
C3686 C 0.15511 0.99034 0.26419 0.0
C3687 C 0.16573 0.98676 0.28216 0.0
C3688 C 0.15523 0.05191 0.29688 0.0
H3689 H 0.13691 0.0419 0.34994 0.0
H3690 H 0.13695 1.02373 0.33314 0.0
H3691 H 0.15454 0.08401 0.30744 0.0
H3692 H 0.13654 1.02787 0.26036 0.0
H3693 H 0.13638 0.04623 0.27715 0.0
H3694 H 0.15557 0.98632 0.30286 0.0
C3695 C 0.14518 0.04336 0.33421 0.0
C3696 C 0.15514 0.0626 0.30668 0.0
C3697 C 0.14497 0.05398 0.34401 0.0
C3698 C 0.14492 1.01598 0.2663 0.0
C3699 C 0.14502 1.02671 0.27609 0.0
C3700 C 0.15572 1.00774 0.30362 0.0
C3701 C 0.15519 0.05784 0.32596 0.0
C3702 C 0.15538 0.04621 0.31527 0.0
C3703 C 0.15543 1.01245 0.28435 0.0
C3704 C 0.15548 1.02412 0.29503 0.0
H3705 H 0.17235 0.11414 0.33914 0.0
H3706 H 0.17331 0.09581 0.32232 0.0
H3707 H 0.1563 1.00454 0.31956 0.0
H3708 H 0.17368 0.95629 0.27123 0.0
H3709 H 0.17445 0.97479 0.28801 0.0
C3710 C 0.26485 0.89308 0.59412 0.0
C3711 C 0.23926 0.90323 0.59631 0.0
C3712 C 0.27542 0.89333 0.58431 0.0
C3713 C 0.25622 0.90417 0.55684 0.0
H3714 H 0.3324 0.90385 0.55294 0.0
C3715 C 0.30265 0.89377 0.51643 0.0
C3716 C 0.32819 0.90396 0.51428 0.0
C3717 C 0.29199 0.89386 0.52623 0.0
C3718 C 0.31101 0.9042 0.55373 0.0
H3719 H 0.20512 0.92188 0.58939 0.0
H3720 H 0.22336 0.92286 0.57255 0.0
H3721 H 0.31426 0.90448 0.56967 0.0
H3722 H 0.36212 0.92249 0.52128 0.0
H3723 H 0.34374 0.92319 0.53808 0.0
H3724 H 0.25298 0.90468 0.54089 0.0
C3725 C 0.2354 0.91409 0.57836 0.0
C3726 C 0.30038 0.90416 0.56353 0.0
C3727 C 0.2248 0.91374 0.58818 0.0
C3728 C 0.34249 0.91433 0.52245 0.0
C3729 C 0.3318 0.91452 0.53225 0.0
C3730 C 0.26686 0.90428 0.54703 0.0
C3731 C 0.26106 0.90386 0.57611 0.0
C3732 C 0.27263 0.90409 0.56541 0.0
C3733 C 0.30622 0.90423 0.53446 0.0
C3734 C 0.29461 0.90426 0.54516 0.0
H3735 H 0.27684 0.88461 0.60002 0.0
H3736 H 0.29492 0.88473 0.58319 0.0
H3737 H 0.23484 0.9038 0.55762 0.0
H3738 H 0.29079 0.88542 0.5105 0.0
H3739 H 0.27254 0.88525 0.52731 0.0
C3740 C 0.40193 0.09488 0.77178 0.0
C3741 C 0.41257 0.08036 0.7637 0.0
C3742 C 0.4013 0.08429 0.7816 0.0
C3743 C 0.41118 1.01929 0.79658 0.0
H3744 H 0.40901 0.06691 0.81912 0.0
C3745 C 0.4005 0.97717 0.83768 0.0
C3746 C 0.40996 0.99191 0.84589 0.0
C3747 C 0.40048 0.98776 0.82786 0.0
C3748 C 0.4099 0.05296 0.81302 0.0
H3749 H 0.43113 0.04268 0.7601 0.0
H3750 H 0.43062 1.02464 0.77694 0.0
H3751 H 0.41038 0.08495 0.80238 0.0
H3752 H 0.42709 1.02996 0.84973 0.0
H3753 H 0.42762 0.04802 0.8329 0.0
H3754 H 0.41157 0.98732 0.80722 0.0
C3755 C 0.42208 0.04417 0.77578 0.0
C3756 C 0.41027 0.06354 0.80319 0.0
C3757 C 0.42257 0.05472 0.76596 0.0
C3758 C 0.41942 1.01776 0.84377 0.0
C3759 C 0.41954 1.02831 0.83395 0.0
C3760 C 0.41092 1.00872 0.8064 0.0
C3761 C 0.41142 0.0586 0.78393 0.0
C3762 C 0.41093 0.04706 0.79465 0.0
C3763 C 0.41006 1.01367 0.82566 0.0
C3764 C 0.41027 1.0252 0.81494 0.0
H3765 H 0.39389 0.11461 0.77052 0.0
H3766 H 0.39242 0.0964 0.78736 0.0
H3767 H 0.4113 1.00534 0.79047 0.0
H3768 H 0.39293 0.95727 0.83884 0.0
H3769 H 0.3925 0.97548 0.82199 0.0
C3770 C 0.22389 0.15472 1.02299 0.0
C3771 C 0.23825 0.16483 1.01479 0.0
C3772 C 0.23475 0.15427 1.03277 0.0
C3773 C 0.30024 0.16363 1.0474 0.0
H3774 H 0.2534 0.16324 0.07018 0.0
C3775 C 0.34355 0.15407 0.0884 0.0
C3776 C 0.32917 0.16416 0.09662 0.0
C3777 C 0.33267 0.15378 0.07862 0.0
C3778 C 0.26714 0.16362 0.06401 0.0
H3779 H 0.27595 0.18266 1.01093 0.0
H3780 H 0.29446 0.18244 1.02769 0.0
H3781 H 0.23486 0.16417 1.05352 0.0
H3782 H 0.29143 0.18211 0.1005 0.0
H3783 H 0.27289 0.18217 0.08374 0.0
H3784 H 0.33253 0.16392 0.05789 0.0
C3785 C 0.27484 0.17418 1.02666 0.0
C3786 C 0.25626 0.16374 1.05423 0.0
C3787 C 0.26402 0.1745 1.01688 0.0
C3788 C 0.30337 0.17396 0.09453 0.0
C3789 C 0.29253 0.17381 0.08476 0.0
C3790 C 0.31113 0.1636 0.05717 0.0
C3791 C 0.26058 0.16404 1.03493 0.0
C3792 C 0.27244 0.16377 1.0456 0.0
C3793 C 0.30681 0.1637 0.07648 0.0
C3794 C 0.29494 0.16361 0.06581 0.0
H3795 H 0.20407 0.14696 1.02186 0.0
H3796 H 0.22274 0.14581 1.03863 0.0
H3797 H 0.31399 0.16325 1.04123 0.0
H3798 H 0.36339 0.1462 0.08953 0.0
H3799 H 0.34469 0.14533 0.07276 0.0
C3800 C 0.92157 1.01406 0.76682 0.0
C3801 C 0.91261 0.98804 0.7647 0.0
C3802 C 0.92163 1.02451 0.77664 0.0
C3803 C 0.91386 1.00458 0.80421 0.0
H3804 H 0.91177 0.08078 0.80818 0.0
C3805 C 0.92513 0.05092 0.84461 0.0
C3806 C 0.91459 0.07635 0.84683 0.0
C3807 C 0.92473 0.0403 0.83481 0.0
C3808 C 0.9121 0.05937 0.80738 0.0
H3809 H 0.89643 0.95297 0.77177 0.0
H3810 H 0.89589 0.97101 0.78864 0.0
H3811 H 0.91048 0.06277 0.79147 0.0
H3812 H 0.89503 0.11012 0.83998 0.0
H3813 H 0.89373 0.09179 0.82319 0.0
H3814 H 0.9146 1.00118 0.82015 0.0
C3815 C 0.90351 0.98351 0.78275 0.0
C3816 C 0.91177 0.04882 0.79757 0.0
C3817 C 0.9036 0.97302 0.77292 0.0
C3818 C 0.90351 0.09057 0.83875 0.0
C3819 C 0.90297 0.07991 0.82895 0.0
C3820 C 0.91407 1.01514 0.81403 0.0
C3821 C 0.91258 1.0096 0.78494 0.0
C3822 C 0.91271 1.02107 0.79566 0.0
C3823 C 0.91363 0.05444 0.82665 0.0
C3824 C 0.91325 0.04289 0.81594 0.0
H3825 H 0.9289 1.02648 0.76085 0.0
H3826 H 0.92932 0.04437 0.77768 0.0
H3827 H 0.91494 0.9832 0.8034 0.0
H3828 H 0.93402 0.03912 0.85048 0.0
H3829 H 0.93367 1.02095 0.83366 0.0
C3830 C 0.72459 0.15202 0.58792 0.0
C3831 C 0.73893 0.16238 0.59608 0.0
C3832 C 0.73527 0.15178 0.57811 0.0
C3833 C 0.80028 0.16194 0.56334 0.0
H3834 H 0.75299 0.16147 0.54067 0.0
C3835 C 0.84274 0.1524 0.52228 0.0
C3836 C 0.82831 0.16267 0.5141 0.0
C3837 C 0.83201 0.15208 0.53208 0.0
C3838 C 0.76684 0.16187 0.54682 0.0
H3839 H 0.77638 0.18084 0.59985 0.0
H3840 H 0.7946 0.18095 0.58304 0.0
H3841 H 0.73477 0.16217 0.55739 0.0
H3842 H 0.79063 0.18091 0.51029 0.0
H3843 H 0.77232 0.18088 0.52709 0.0
H3844 H 0.83235 0.16245 0.55278 0.0
C3845 C 0.77513 0.17237 0.58412 0.0
C3846 C 0.75616 0.16186 0.55662 0.0
C3847 C 0.76449 0.17249 0.59392 0.0
C3848 C 0.8026 0.17263 0.51623 0.0
C3849 C 0.79191 0.17243 0.52602 0.0
C3850 C 0.81096 0.16202 0.55355 0.0
C3851 C 0.76088 0.162 0.57589 0.0
C3852 C 0.77252 0.16191 0.5652 0.0
C3853 C 0.80626 0.16215 0.53427 0.0
C3854 C 0.7946 0.16199 0.54496 0.0
H3855 H 0.70494 0.14391 0.5891 0.0
H3856 H 0.72331 0.14313 0.57228 0.0
H3857 H 0.81414 0.16161 0.56949 0.0
H3858 H 0.86251 0.1444 0.52113 0.0
H3859 H 0.84406 0.14349 0.53792 0.0
C3860 C 0.64437 1.01368 0.34451 0.0
C3861 C 0.65421 0.98791 0.34666 0.0
C3862 C 0.64463 1.0244 0.33471 0.0
C3863 C 0.65523 1.00546 0.3072 0.0
H3864 H 0.65479 0.08177 0.3034 0.0
C3865 C 0.64511 0.05227 0.26681 0.0
C3866 C 0.65491 0.07801 0.2647 0.0
C3867 C 0.6452 0.0415 0.2766 0.0
C3868 C 0.65519 0.06035 0.30415 0.0
H3869 H 0.67232 0.9536 0.33967 0.0
H3870 H 0.67338 0.9721 0.32287 0.0
H3871 H 0.65546 0.0634 0.32009 0.0
H3872 H 0.67278 0.1122 0.27177 0.0
H3873 H 0.67355 0.09363 0.28856 0.0
H3874 H 0.65581 1.00241 0.29126 0.0
C3875 C 0.66482 0.98419 0.32869 0.0
C3876 C 0.65516 0.04957 0.31394 0.0
C3877 C 0.66443 0.97343 0.3385 0.0
C3878 C 0.66492 0.0924 0.27291 0.0
C3879 C 0.66515 0.0816 0.2827 0.0
C3880 C 0.65536 1.01624 0.2974 0.0
C3881 C 0.65488 1.01002 0.32648 0.0
C3882 C 0.65512 1.02177 0.31579 0.0
C3883 C 0.65524 0.05581 0.28487 0.0
C3884 C 0.65528 0.04404 0.29556 0.0
H3885 H 0.63613 1.0257 0.35043 0.0
H3886 H 0.63624 0.04404 0.33364 0.0
H3887 H 0.65488 0.98404 0.30795 0.0
H3888 H 0.63703 0.04032 0.26084 0.0
H3889 H 0.63686 1.0219 0.27763 0.0
C3890 C 0.80384 0.89478 0.09446 0.0
C3891 C 0.82953 0.90463 0.09656 0.0
C3892 C 0.79319 0.89471 0.08466 0.0
C3893 C 0.8123 0.90402 0.05709 0.0
H3894 H 0.73611 0.90419 1.05325 0.0
C3895 C 0.76565 0.89258 1.01675 0.0
C3896 C 0.74005 0.90277 1.01458 0.0
C3897 C 0.77639 0.89294 1.02654 0.0
C3898 C 0.7575 0.9044 1.05401 0.0
H3899 H 0.86377 0.92238 0.08948 0.0
H3900 H 0.8454 0.92284 0.07266 0.0
H3901 H 0.75433 0.90539 0.06995 0.0
H3902 H 0.70609 0.92163 1.02153 0.0
H3903 H 0.7246 0.92282 1.0383 0.0
H3904 H 0.81546 0.90385 1.04115 0.0
C3905 C 0.83333 0.91455 0.07854 0.0
C3906 C 0.76819 0.90469 0.06381 0.0
C3907 C 0.844 0.9145 0.08835 0.0
C3908 C 0.72577 0.91344 1.02272 0.0
C3909 C 0.73653 0.91392 1.0325 0.0
C3910 C 0.80161 0.90382 1.04729 0.0
C3911 C 0.80758 0.9046 0.07637 0.0
C3912 C 0.79594 0.90446 0.06568 0.0
C3913 C 0.76217 0.90362 1.03474 0.0
C3914 C 0.77385 0.90396 1.04543 0.0
H3915 H 0.79184 0.88679 0.10043 0.0
H3916 H 0.77362 0.88635 0.08362 0.0
H3917 H 0.83369 0.90349 0.05787 0.0
H3918 H 0.7775 0.88401 1.01084 0.0
H3919 H 0.79588 0.8843 1.02765 0.0
C3920 C 0.6632 0.59619 0.83816 0.0
C3921 C 0.65336 0.58164 0.84637 0.0
C3922 C 0.6635 0.58546 0.82836 0.0
C3923 C 0.6544 0.52001 0.81369 0.0
H3924 H 0.65386 0.56707 0.79093 0.0
C3925 C 0.66411 0.47695 0.77275 0.0
C3926 C 0.65373 0.4911 0.76451 0.0
C3927 C 0.66432 0.48789 0.7825 0.0
C3928 C 0.65375 0.55327 0.7971 0.0
H3929 H 0.63586 0.54375 0.85022 0.0
H3930 H 0.63583 0.52544 0.83344 0.0
H3931 H 0.65307 0.58551 0.80761 0.0
H3932 H 0.63521 0.52858 0.76057 0.0
H3933 H 0.63504 0.54728 0.77732 0.0
H3934 H 0.65426 0.48777 0.8032 0.0
C3935 C 0.64399 0.54512 0.83447 0.0
C3936 C 0.6537 0.56409 0.80688 0.0
C3937 C 0.64381 0.55582 0.84426 0.0
C3938 C 0.64356 0.5168 0.76655 0.0
C3939 C 0.64365 0.52772 0.77632 0.0
C3940 C 0.65437 0.5092 0.80392 0.0
C3941 C 0.65385 0.55957 0.82619 0.0
C3942 C 0.65401 0.54781 0.81551 0.0
C3943 C 0.65403 0.51362 0.78462 0.0
C3944 C 0.65406 0.52546 0.79529 0.0
H3945 H 0.67086 0.61606 0.83929 0.0
H3946 H 0.67174 0.5976 0.82249 0.0
H3947 H 0.65503 0.5062 0.81986 0.0
H3948 H 0.67228 0.45721 0.77166 0.0
H3949 H 0.67302 0.47602 0.78838 0.0
C3950 C 0.80228 0.40006 1.01717 0.0
C3951 C 0.82817 0.4094 1.01508 0.0
C3952 C 0.79168 0.39996 1.02697 0.0
C3953 C 0.8111 0.40828 1.05454 0.0
H3954 H 0.73492 0.40959 0.05841 0.0
C3955 C 0.76454 0.39668 0.09486 0.0
C3956 C 0.73905 0.40706 0.09706 0.0
C3957 C 0.77521 0.39713 0.08507 0.0
C3958 C 0.75631 0.40948 0.05763 0.0
H3959 H 0.86282 0.42623 1.02218 0.0
H3960 H 0.84453 0.4267 1.03901 0.0
H3961 H 0.7531 0.41091 1.04171 0.0
H3962 H 0.70522 0.42639 0.09018 0.0
H3963 H 0.72365 0.42779 0.0734 0.0
H3964 H 0.81432 0.40771 0.07048 0.0
C3965 C 0.83225 0.4188 1.03312 0.0
C3966 C 0.76697 0.40982 1.04784 0.0
C3967 C 0.84289 0.41876 1.02331 0.0
C3968 C 0.72482 0.41804 0.08896 0.0
C3969 C 0.73553 0.41864 0.07917 0.0
C3970 C 0.80044 0.40803 0.06434 0.0
C3971 C 0.80631 0.40934 1.03527 0.0
C3972 C 0.79471 0.40917 1.04597 0.0
C3973 C 0.76106 0.40813 0.0769 0.0
C3974 C 0.77269 0.40857 0.06621 0.0
H3975 H 0.7901 0.39246 1.01118 0.0
H3976 H 0.77194 0.39198 1.02799 0.0
H3977 H 0.83247 0.40741 1.05376 0.0
H3978 H 0.77635 0.38786 0.10074 0.0
H3979 H 0.7946 0.38831 0.08394 0.0
C3980 C 0.92265 0.51607 0.34431 0.0
C3981 C 0.91245 0.49052 0.34647 0.0
C3982 C 0.9225 0.52679 0.33452 0.0
C3983 C 0.91131 0.50803 0.30701 0.0
H3984 H 0.91333 0.58429 0.30317 0.0
C3985 C 0.92189 0.55423 0.26658 0.0
C3986 C 0.91277 0.58028 0.26447 0.0
C3987 C 0.92166 0.54355 0.27638 0.0
C3988 C 0.91248 0.56289 0.30394 0.0
H3989 H 0.89378 0.45662 0.33949 0.0
H3990 H 0.89287 0.47515 0.32269 0.0
H3991 H 0.91245 0.56601 0.31987 0.0
H3992 H 0.89593 0.61513 0.27152 0.0
H3993 H 0.89488 0.59671 0.28834 0.0
H3994 H 0.91044 0.50493 0.29108 0.0
C3995 C 0.90165 0.48704 0.32851 0.0
C3996 C 0.91239 0.55215 0.31374 0.0
C3997 C 0.90196 0.47627 0.33831 0.0
C3998 C 0.90327 0.59508 0.27267 0.0
C3999 C 0.90288 0.58436 0.28248 0.0
C4000 C 0.91128 0.51877 0.29722 0.0
C4001 C 0.91198 0.51264 0.32629 0.0
C4002 C 0.91187 0.52436 0.3156 0.0
C4003 C 0.91213 0.55825 0.28466 0.0
C4004 C 0.91193 0.54656 0.29535 0.0
H4005 H 0.93111 0.52789 0.35024 0.0
H4006 H 0.93118 0.54622 0.33344 0.0
H4007 H 0.91122 0.48661 0.30778 0.0
H4008 H 0.92958 0.54196 0.26063 0.0
H4009 H 0.92951 0.52369 0.27743 0.0
C4010 C 0.72511 0.65393 0.523 0.0
C4011 C 0.73957 0.66417 0.51485 0.0
C4012 C 0.73569 0.65371 0.53283 0.0
C4013 C 0.80064 0.66355 0.54766 0.0
H4014 H 0.75322 0.66378 0.57029 0.0
C4015 C 0.84278 0.65385 0.58877 0.0
C4016 C 0.82851 0.66444 0.59692 0.0
C4017 C 0.83207 0.65357 0.57897 0.0
C4018 C 0.76711 0.66397 0.56415 0.0
H4019 H 0.77714 0.68245 0.51111 0.0
H4020 H 0.7952 0.68256 0.52794 0.0
H4021 H 0.73509 0.66443 0.55354 0.0
H4022 H 0.7911 0.68326 0.60067 0.0
H4023 H 0.77278 0.68327 0.58385 0.0
H4024 H 0.83265 0.66388 0.55826 0.0
C4025 C 0.77571 0.67406 0.52684 0.0
C4026 C 0.75647 0.66394 0.55434 0.0
C4027 C 0.76515 0.67418 0.51703 0.0
C4028 C 0.80295 0.67474 0.59475 0.0
C4029 C 0.79225 0.67456 0.58495 0.0
C4030 C 0.81127 0.66364 0.55747 0.0
C4031 C 0.76134 0.66382 0.53507 0.0
C4032 C 0.7729 0.66375 0.54577 0.0
C4033 C 0.80647 0.66398 0.57674 0.0
C4034 C 0.79485 0.66385 0.56604 0.0
H4035 H 0.70542 0.64591 0.52181 0.0
H4036 H 0.72364 0.64517 0.53866 0.0
H4037 H 0.81453 0.66302 0.54154 0.0
H4038 H 0.86243 0.64557 0.58995 0.0
H4039 H 0.844 0.64472 0.57316 0.0
C4040 C 0.42816 0.55668 0.34342 0.0
C4041 C 0.41184 0.57845 0.34619 0.0
C4042 C 0.42831 0.54634 0.33359 0.0
C4043 C 0.38794 0.54051 0.31006 0.0
H4044 H 0.4548 0.52371 0.2972 0.0
C4045 C 0.39553 0.47999 0.27195 0.0
C4046 C 0.41328 0.48944 0.26461 0.0
C4047 C 0.39482 0.491 0.28171 0.0
C4048 C 0.43583 0.52821 0.30061 0.0
H4049 H 0.38244 0.60578 0.3403 0.0
H4050 H 0.38185 0.58717 0.32339 0.0
H4051 H 0.45448 0.54192 0.31412 0.0
H4052 H 0.44461 0.51817 0.26226 0.0
H4053 H 0.44414 0.5364 0.27918 0.0
H4054 H 0.36927 0.52604 0.29664 0.0
C4055 C 0.39496 0.57827 0.32884 0.0
C4056 C 0.43564 0.53863 0.31044 0.0
C4057 C 0.39536 0.58911 0.33863 0.0
C4058 C 0.43052 0.51017 0.26755 0.0
C4059 C 0.43033 0.52066 0.27737 0.0
C4060 C 0.3881 0.52936 0.30033 0.0
C4061 C 0.4116 0.55673 0.32604 0.0
C4062 C 0.4117 0.54524 0.31541 0.0
C4063 C 0.41236 0.51149 0.2847 0.0
C4064 C 0.41207 0.52309 0.29531 0.0
H4065 H 0.44126 0.54773 0.34888 0.0
H4066 H 0.44137 0.52976 0.33193 0.0
H4067 H 0.36898 0.54502 0.31348 0.0
H4068 H 0.38184 0.46415 0.27014 0.0
H4069 H 0.38072 0.48304 0.287 0.0
C4070 C 0.34343 0.65292 1.02216 0.0
C4071 C 0.32915 0.66346 1.01399 0.0
C4072 C 0.33271 0.65265 1.03195 0.0
C4073 C 0.2677 0.66313 1.04672 0.0
H4074 H 0.31511 0.66211 0.06936 0.0
C4075 C 0.22567 0.65353 0.0879 0.0
C4076 C 0.24024 0.66369 0.09604 0.0
C4077 C 0.23622 0.65321 0.07807 0.0
C4078 C 0.30122 0.66267 0.06323 0.0
H4079 H 0.29171 0.6822 1.01019 0.0
H4080 H 0.27339 0.68225 1.02699 0.0
H4081 H 0.33324 0.66289 1.05264 0.0
H4082 H 0.27794 0.68175 0.09974 0.0
H4083 H 0.29592 0.68171 0.08291 0.0
H4084 H 0.23568 0.66371 0.05732 0.0
C4085 C 0.29286 0.67357 1.02592 0.0
C4086 C 0.31186 0.6627 1.05342 0.0
C4087 C 0.30357 0.67372 1.01612 0.0
C4088 C 0.26587 0.67354 0.09383 0.0
C4089 C 0.27638 0.67333 0.08402 0.0
C4090 C 0.25706 0.66317 0.05653 0.0
C4091 C 0.30709 0.66303 1.03415 0.0
C4092 C 0.29545 0.66294 1.04485 0.0
C4093 C 0.26192 0.66314 0.07581 0.0
C4094 C 0.27348 0.66296 0.06511 0.0
H4095 H 0.3631 0.64467 1.02099 0.0
H4096 H 0.34464 0.64384 1.03778 0.0
H4097 H 0.25382 0.66295 1.04059 0.0
H4098 H 0.20594 0.64564 0.08912 0.0
H4099 H 0.22409 0.64472 0.07226 0.0
C4100 C 0.15668 0.55081 0.76678 0.0
C4101 C 0.15784 0.57851 0.76498 0.0
C4102 C 0.15672 0.54002 0.77656 0.0
C4103 C 0.1667 0.55873 0.80425 0.0
H4104 H 0.13908 0.48794 0.80871 0.0
C4105 C 0.15125 0.51513 0.84498 0.0
C4106 C 0.15513 0.48763 0.84676 0.0
C4107 C 0.1519 0.5261 0.83522 0.0
C4108 C 0.14717 0.50768 0.80771 0.0
H4109 H 0.15976 0.6163 0.77261 0.0
H4110 H 0.15904 0.59803 0.78944 0.0
H4111 H 0.13921 0.50659 0.79203 0.0
H4112 H 0.16272 0.45046 0.83915 0.0
H4113 H 0.16358 0.46923 0.82233 0.0
H4114 H 0.17405 0.55983 0.82004 0.0
C4115 C 0.15875 0.58415 0.78331 0.0
C4116 C 0.14736 0.51861 0.79794 0.0
C4117 C 0.159 0.5949 0.7735 0.0
C4118 C 0.15959 0.47166 0.83827 0.0
C4119 C 0.15992 0.48257 0.82849 0.0
C4120 C 0.16622 0.54788 0.81404 0.0
C4121 C 0.15759 0.55632 0.78517 0.0
C4122 C 0.15722 0.54448 0.79587 0.0
C4123 C 0.15614 0.51013 0.82668 0.0
C4124 C 0.15653 0.522 0.81605 0.0
H4125 H 0.15586 0.53721 0.76055 0.0
H4126 H 0.15635 0.51861 0.77728 0.0
H4127 H 0.17502 0.57837 0.80333 0.0
H4128 H 0.14769 0.52838 0.85118 0.0
H4129 H 0.14857 0.54727 0.83438 0.0
C4130 C 0.22409 0.41464 0.52228 0.0
C4131 C 0.23838 0.40418 0.51411 0.0
C4132 C 0.23488 0.41498 0.53207 0.0
C4133 C 0.3001 0.4047 0.54679 0.0
H4134 H 0.25298 0.40597 0.56949 0.0
C4135 C 0.34288 0.41446 0.58782 0.0
C4136 C 0.3284 0.40457 0.59603 0.0
C4137 C 0.33212 0.41471 0.57802 0.0
C4138 C 0.26679 0.40534 0.56334 0.0
H4139 H 0.27589 0.38564 0.51031 0.0
H4140 H 0.29431 0.38567 0.5271 0.0
H4141 H 0.23464 0.40507 0.5528 0.0
H4142 H 0.29063 0.38694 0.5999 0.0
H4143 H 0.27228 0.38682 0.58312 0.0
H4144 H 0.33225 0.40413 0.55733 0.0
C4145 C 0.27479 0.39427 0.52603 0.0
C4146 C 0.25603 0.40523 0.55355 0.0
C4147 C 0.26402 0.39406 0.51624 0.0
C4148 C 0.30263 0.39493 0.59394 0.0
C4149 C 0.29191 0.39505 0.58415 0.0
C4150 C 0.31086 0.40471 0.55658 0.0
C4151 C 0.26058 0.40474 0.53427 0.0
C4152 C 0.27232 0.40491 0.54495 0.0
C4153 C 0.30629 0.40495 0.57586 0.0
C4154 C 0.29457 0.40503 0.56518 0.0
H4155 H 0.20437 0.42277 0.52112 0.0
H4156 H 0.22294 0.42373 0.53789 0.0
H4157 H 0.31391 0.40482 0.54063 0.0
H4158 H 0.3627 0.4222 0.58895 0.0
H4159 H 0.3442 0.42301 0.57215 0.0
loop_
_geom_bond_atom_site_label_1
_geom_bond_atom_site_label_2
_geom_bond_distance
_geom_bond_site_symmetry_2
_ccdc_geom_bond_type
Nd0 C2 2.836 . S
Nd0 O20 2.500 . S
Nd0 O21 2.492 . S
Nd0 O22 2.487 . S
Nd0 O23 2.682 . S
Nd0 O24 2.410 . S
Nd0 O29 2.414 . S
Nd0 O31 2.424 . S
Nd1 C11 2.836 . S
Nd1 O23 2.414 . S
Nd1 O25 2.424 . S
Nd1 O26 2.500 . S
Nd1 O27 2.492 . S
Nd1 O28 2.487 . S
Nd1 O29 2.682 . S
Nd1 O30 2.410 . S
C2 Nd0 2.836 . S
C2 C3 1.498 . S
C2 O20 1.258 . S
C2 O21 1.239 . S
C3 C2 1.498 . S
C3 C4 1.366 . S
C3 C8 1.407 . S
C4 C3 1.366 . S
C4 C5 1.392 . S
C4 H32 0.930 . S
C5 C4 1.392 . S
C5 C6 1.398 . S
C5 H33 0.929 . S
C6 C5 1.398 . S
C6 C7 1.352 . S
C7 C6 1.352 . S
C7 C8 1.384 . S
C7 H34 0.930 . S
C8 C3 1.407 . S
C8 C7 1.384 . S
C8 H35 0.929 . S
C9 O22 1.241 . S
C9 O23 1.273 . S
C10 O24 1.251 . S
C10 O25 1.268 . S
C11 Nd1 2.836 . S
C11 C12 1.498 . S
C11 O26 1.258 . S
C11 O27 1.239 . S
C12 C11 1.498 . S
C12 C13 1.366 . S
C12 C17 1.407 . S
C13 C12 1.366 . S
C13 C14 1.392 . S
C13 H36 0.930 . S
C14 C13 1.392 . S
C14 C15 1.398 . S
C14 H37 0.929 . S
C15 C14 1.398 . S
C15 C16 1.352 . S
C16 C15 1.352 . S
C16 C17 1.384 . S
C16 H38 0.930 . S
C17 C12 1.407 . S
C17 C16 1.384 . S
C17 H39 0.929 . S
C18 O28 1.241 . S
C18 O29 1.273 . S
C19 O30 1.251 . S
C19 O31 1.268 . S
O20 Nd0 2.500 . S
O20 C2 1.258 . S
O21 Nd0 2.492 . S
O21 C2 1.239 . S
O22 Nd0 2.487 . S
O22 C9 1.241 . S
O23 Nd0 2.682 . S
O23 Nd1 2.414 . S
O23 C9 1.273 . S
O24 Nd0 2.410 . S
O24 C10 1.251 . S
O25 Nd1 2.424 . S
O25 C10 1.268 . S
O26 Nd1 2.500 . S
O26 C11 1.258 . S
O27 Nd1 2.492 . S
O27 C11 1.239 . S
O28 Nd1 2.487 . S
O28 C18 1.241 . S
O29 Nd0 2.414 . S
O29 Nd1 2.682 . S
O29 C18 1.273 . S
O30 Nd1 2.410 . S
O30 C19 1.251 . S
O31 Nd0 2.424 . S
O31 C19 1.268 . S
H32 C4 0.930 . S
H33 C5 0.929 . S
H34 C7 0.930 . S
H35 C8 0.929 . S
H36 C13 0.930 . S
H37 C14 0.929 . S
H38 C16 0.930 . S
H39 C17 0.929 . S
Nd40 C42 2.836 . S
Nd40 O60 2.500 . S
Nd40 O61 2.492 . S
Nd40 O62 2.487 . S
Nd40 O63 2.682 . S
Nd40 O64 2.410 . S
Nd40 O69 2.414 . S
Nd40 O71 2.424 . S
Nd41 C51 2.836 . S
Nd41 O63 2.414 . S
Nd41 O65 2.424 . S
Nd41 O66 2.500 . S
Nd41 O67 2.492 . S
Nd41 O68 2.487 . S
Nd41 O69 2.682 . S
Nd41 O70 2.410 . S
C42 Nd40 2.836 . S
C42 C43 1.498 . S
C42 O60 1.258 . S
C42 O61 1.239 . S
C43 C42 1.498 . S
C43 C44 1.366 . S
C43 C48 1.407 . S
C44 C43 1.366 . S
C44 C45 1.392 . S
C44 H72 0.930 . S
C45 C44 1.392 . S
C45 C46 1.398 . S
C45 H73 0.929 . S
C46 C45 1.398 . S
C46 C47 1.352 . S
C47 C46 1.352 . S
C47 C48 1.384 . S
C47 H74 0.930 . S
C48 C43 1.407 . S
C48 C47 1.384 . S
C48 H75 0.929 . S
C49 O62 1.241 . S
C49 O63 1.273 . S
C50 O64 1.251 . S
C50 O65 1.268 . S
C51 Nd41 2.836 . S
C51 C52 1.498 . S
C51 O66 1.258 . S
C51 O67 1.239 . S
C52 C51 1.498 . S
C52 C53 1.366 . S
C52 C57 1.407 . S
C53 C52 1.366 . S
C53 C54 1.392 . S
C53 H76 0.930 . S
C54 C53 1.392 . S
C54 C55 1.398 . S
C54 H77 0.929 . S
C55 C54 1.398 . S
C55 C56 1.352 . S
C56 C55 1.352 . S
C56 C57 1.384 . S
C56 H78 0.930 . S
C57 C52 1.407 . S
C57 C56 1.384 . S
C57 H79 0.929 . S
C58 O68 1.241 . S
C58 O69 1.273 . S
C59 O70 1.251 . S
C59 O71 1.268 . S
O60 Nd40 2.500 . S
O60 C42 1.258 . S
O61 Nd40 2.492 . S
O61 C42 1.239 . S
O62 Nd40 2.487 . S
O62 C49 1.241 . S
O63 Nd40 2.682 . S
O63 Nd41 2.414 . S
O63 C49 1.273 . S
O64 Nd40 2.410 . S
O64 C50 1.251 . S
O65 Nd41 2.424 . S
O65 C50 1.268 . S
O66 Nd41 2.500 . S
O66 C51 1.258 . S
O67 Nd41 2.492 . S
O67 C51 1.239 . S
O68 Nd41 2.487 . S
O68 C58 1.241 . S
O69 Nd40 2.414 . S
O69 Nd41 2.682 . S
O69 C58 1.273 . S
O70 Nd41 2.410 . S
O70 C59 1.251 . S
O71 Nd40 2.424 . S
O71 C59 1.268 . S
H72 C44 0.930 . S
H73 C45 0.929 . S
H74 C47 0.930 . S
H75 C48 0.929 . S
H76 C53 0.930 . S
H77 C54 0.929 . S
H78 C56 0.930 . S
H79 C57 0.929 . S
Nd80 C82 2.836 . S
Nd80 O100 2.500 . S
Nd80 O101 2.492 . S
Nd80 O102 2.487 . S
Nd80 O103 2.682 . S
Nd80 O104 2.410 . S
Nd80 O109 2.414 . S
Nd80 O111 2.424 . S
Nd81 C91 2.836 . S
Nd81 O103 2.414 . S
Nd81 O105 2.424 . S
Nd81 O106 2.500 . S
Nd81 O107 2.492 . S
Nd81 O108 2.487 . S
Nd81 O109 2.682 . S
Nd81 O110 2.410 . S
C82 Nd80 2.836 . S
C82 C83 1.498 . S
C82 O100 1.258 . S
C82 O101 1.239 . S
C83 C82 1.498 . S
C83 C84 1.366 . S
C83 C88 1.407 . S
C84 C83 1.366 . S
C84 C85 1.392 . S
C84 H112 0.930 . S
C85 C84 1.392 . S
C85 C86 1.398 . S
C85 H113 0.929 . S
C86 C85 1.398 . S
C86 C87 1.352 . S
C87 C86 1.352 . S
C87 C88 1.384 . S
C87 H114 0.930 . S
C88 C83 1.407 . S
C88 C87 1.384 . S
C88 H115 0.929 . S
C89 O102 1.241 . S
C89 O103 1.273 . S
C90 O104 1.251 . S
C90 O105 1.268 . S
C91 Nd81 2.836 . S
C91 C92 1.498 . S
C91 O106 1.258 . S
C91 O107 1.239 . S
C92 C91 1.498 . S
C92 C93 1.366 . S
C92 C97 1.407 . S
C93 C92 1.366 . S
C93 C94 1.392 . S
C93 H116 0.930 . S
C94 C93 1.392 . S
C94 C95 1.398 . S
C94 H117 0.929 . S
C95 C94 1.398 . S
C95 C96 1.352 . S
C96 C95 1.352 . S
C96 C97 1.384 . S
C96 H118 0.930 . S
C97 C92 1.407 . S
C97 C96 1.384 . S
C97 H119 0.929 . S
C98 O108 1.241 . S
C98 O109 1.273 . S
C99 O110 1.251 . S
C99 O111 1.268 . S
O100 Nd80 2.500 . S
O100 C82 1.258 . S
O101 Nd80 2.492 . S
O101 C82 1.239 . S
O102 Nd80 2.487 . S
O102 C89 1.241 . S
O103 Nd80 2.682 . S
O103 Nd81 2.414 . S
O103 C89 1.273 . S
O104 Nd80 2.410 . S
O104 C90 1.251 . S
O105 Nd81 2.424 . S
O105 C90 1.268 . S
O106 Nd81 2.500 . S
O106 C91 1.258 . S
O107 Nd81 2.492 . S
O107 C91 1.239 . S
O108 Nd81 2.487 . S
O108 C98 1.241 . S
O109 Nd80 2.414 . S
O109 Nd81 2.682 . S
O109 C98 1.273 . S
O110 Nd81 2.410 . S
O110 C99 1.251 . S
O111 Nd80 2.424 . S
O111 C99 1.268 . S
H112 C84 0.930 . S
H113 C85 0.929 . S
H114 C87 0.930 . S
H115 C88 0.929 . S
H116 C93 0.930 . S
H117 C94 0.929 . S
H118 C96 0.930 . S
H119 C97 0.929 . S
Nd120 C122 2.836 . S
Nd120 O140 2.500 . S
Nd120 O141 2.492 . S
Nd120 O142 2.487 . S
Nd120 O143 2.682 . S
Nd120 O144 2.410 . S
Nd120 O149 2.414 . S
Nd120 O151 2.424 . S
Nd121 C131 2.836 . S
Nd121 O143 2.414 . S
Nd121 O145 2.424 . S
Nd121 O146 2.500 . S
Nd121 O147 2.492 . S
Nd121 O148 2.487 . S
Nd121 O149 2.682 . S
Nd121 O150 2.410 . S
C122 Nd120 2.836 . S
C122 C123 1.498 . S
C122 O140 1.258 . S
C122 O141 1.239 . S
C123 C122 1.498 . S
C123 C124 1.366 . S
C123 C128 1.407 . S
C124 C123 1.366 . S
C124 C125 1.392 . S
C124 H152 0.930 . S
C125 C124 1.392 . S
C125 C126 1.398 . S
C125 H153 0.929 . S
C126 C125 1.398 . S
C126 C127 1.352 . S
C127 C126 1.352 . S
C127 C128 1.384 . S
C127 H154 0.930 . S
C128 C123 1.407 . S
C128 C127 1.384 . S
C128 H155 0.929 . S
C129 O142 1.241 . S
C129 O143 1.273 . S
C130 O144 1.251 . S
C130 O145 1.268 . S
C131 Nd121 2.836 . S
C131 C132 1.498 . S
C131 O146 1.258 . S
C131 O147 1.239 . S
C132 C131 1.498 . S
C132 C133 1.366 . S
C132 C137 1.407 . S
C133 C132 1.366 . S
C133 C134 1.392 . S
C133 H156 0.930 . S
C134 C133 1.392 . S
C134 C135 1.398 . S
C134 H157 0.929 . S
C135 C134 1.398 . S
C135 C136 1.352 . S
C136 C135 1.352 . S
C136 C137 1.384 . S
C136 H158 0.930 . S
C137 C132 1.407 . S
C137 C136 1.384 . S
C137 H159 0.929 . S
C138 O148 1.241 . S
C138 O149 1.273 . S
C139 O150 1.251 . S
C139 O151 1.268 . S
O140 Nd120 2.500 . S
O140 C122 1.258 . S
O141 Nd120 2.492 . S
O141 C122 1.239 . S
O142 Nd120 2.487 . S
O142 C129 1.241 . S
O143 Nd120 2.682 . S
O143 Nd121 2.414 . S
O143 C129 1.273 . S
O144 Nd120 2.410 . S
O144 C130 1.251 . S
O145 Nd121 2.424 . S
O145 C130 1.268 . S
O146 Nd121 2.500 . S
O146 C131 1.258 . S
O147 Nd121 2.492 . S
O147 C131 1.239 . S
O148 Nd121 2.487 . S
O148 C138 1.241 . S
O149 Nd120 2.414 . S
O149 Nd121 2.682 . S
O149 C138 1.273 . S
O150 Nd121 2.410 . S
O150 C139 1.251 . S
O151 Nd120 2.424 . S
O151 C139 1.268 . S
H152 C124 0.930 . S
H153 C125 0.929 . S
H154 C127 0.930 . S
H155 C128 0.929 . S
H156 C133 0.930 . S
H157 C134 0.929 . S
H158 C136 0.930 . S
H159 C137 0.929 . S
Nd160 C162 2.836 . S
Nd160 O180 2.500 . S
Nd160 O181 2.492 . S
Nd160 O182 2.487 . S
Nd160 O183 2.682 . S
Nd160 O184 2.410 . S
Nd160 O189 2.414 . S
Nd160 O191 2.424 . S
Nd161 C171 2.836 . S
Nd161 O183 2.414 . S
Nd161 O185 2.424 . S
Nd161 O186 2.500 . S
Nd161 O187 2.492 . S
Nd161 O188 2.487 . S
Nd161 O189 2.682 . S
Nd161 O190 2.410 . S
C162 Nd160 2.836 . S
C162 C163 1.498 . S
C162 O180 1.258 . S
C162 O181 1.239 . S
C163 C162 1.498 . S
C163 C164 1.366 . S
C163 C168 1.407 . S
C164 C163 1.366 . S
C164 C165 1.392 . S
C164 H192 0.930 . S
C165 C164 1.392 . S
C165 C166 1.398 . S
C165 H193 0.929 . S
C166 C165 1.398 . S
C166 C167 1.352 . S
C167 C166 1.352 . S
C167 C168 1.384 . S
C167 H194 0.930 . S
C168 C163 1.407 . S
C168 C167 1.384 . S
C168 H195 0.929 . S
C169 O182 1.241 . S
C169 O183 1.273 . S
C170 O184 1.251 . S
C170 O185 1.268 . S
C171 Nd161 2.836 . S
C171 C172 1.498 . S
C171 O186 1.258 . S
C171 O187 1.239 . S
C172 C171 1.498 . S
C172 C173 1.366 . S
C172 C177 1.407 . S
C173 C172 1.366 . S
C173 C174 1.392 . S
C173 H196 0.930 . S
C174 C173 1.392 . S
C174 C175 1.398 . S
C174 H197 0.929 . S
C175 C174 1.398 . S
C175 C176 1.352 . S
C176 C175 1.352 . S
C176 C177 1.384 . S
C176 H198 0.930 . S
C177 C172 1.407 . S
C177 C176 1.384 . S
C177 H199 0.929 . S
C178 O188 1.241 . S
C178 O189 1.273 . S
C179 O190 1.251 . S
C179 O191 1.268 . S
O180 Nd160 2.500 . S
O180 C162 1.258 . S
O181 Nd160 2.492 . S
O181 C162 1.239 . S
O182 Nd160 2.487 . S
O182 C169 1.241 . S
O183 Nd160 2.682 . S
O183 Nd161 2.414 . S
O183 C169 1.273 . S
O184 Nd160 2.410 . S
O184 C170 1.251 . S
O185 Nd161 2.424 . S
O185 C170 1.268 . S
O186 Nd161 2.500 . S
O186 C171 1.258 . S
O187 Nd161 2.492 . S
O187 C171 1.239 . S
O188 Nd161 2.487 . S
O188 C178 1.241 . S
O189 Nd160 2.414 . S
O189 Nd161 2.682 . S
O189 C178 1.273 . S
O190 Nd161 2.410 . S
O190 C179 1.251 . S
O191 Nd160 2.424 . S
O191 C179 1.268 . S
H192 C164 0.930 . S
H193 C165 0.929 . S
H194 C167 0.930 . S
H195 C168 0.929 . S
H196 C173 0.930 . S
H197 C174 0.929 . S
H198 C176 0.930 . S
H199 C177 0.929 . S
Nd200 C202 2.836 . S
Nd200 O220 2.500 . S
Nd200 O221 2.492 . S
Nd200 O222 2.487 . S
Nd200 O223 2.682 . S
Nd200 O224 2.410 . S
Nd200 O229 2.414 . S
Nd200 O231 2.424 . S
Nd201 C211 2.836 . S
Nd201 O223 2.414 . S
Nd201 O225 2.424 . S
Nd201 O226 2.500 . S
Nd201 O227 2.492 . S
Nd201 O228 2.487 . S
Nd201 O229 2.682 . S
Nd201 O230 2.410 . S
C202 Nd200 2.836 . S
C202 C203 1.498 . S
C202 O220 1.258 . S
C202 O221 1.239 . S
C203 C202 1.498 . S
C203 C204 1.366 . S
C203 C208 1.407 . S
C204 C203 1.366 . S
C204 C205 1.392 . S
C204 H232 0.930 . S
C205 C204 1.392 . S
C205 C206 1.398 . S
C205 H233 0.929 . S
C206 C205 1.398 . S
C206 C207 1.352 . S
C207 C206 1.352 . S
C207 C208 1.384 . S
C207 H234 0.930 . S
C208 C203 1.407 . S
C208 C207 1.384 . S
C208 H235 0.929 . S
C209 O222 1.241 . S
C209 O223 1.273 . S
C210 O224 1.251 . S
C210 O225 1.268 . S
C211 Nd201 2.836 . S
C211 C212 1.498 . S
C211 O226 1.258 . S
C211 O227 1.239 . S
C212 C211 1.498 . S
C212 C213 1.366 . S
C212 C217 1.407 . S
C213 C212 1.366 . S
C213 C214 1.392 . S
C213 H236 0.930 . S
C214 C213 1.392 . S
C214 C215 1.398 . S
C214 H237 0.929 . S
C215 C214 1.398 . S
C215 C216 1.352 . S
C216 C215 1.352 . S
C216 C217 1.384 . S
C216 H238 0.930 . S
C217 C212 1.407 . S
C217 C216 1.384 . S
C217 H239 0.929 . S
C218 O228 1.241 . S
C218 O229 1.273 . S
C219 O230 1.251 . S
C219 O231 1.268 . S
O220 Nd200 2.500 . S
O220 C202 1.258 . S
O221 Nd200 2.492 . S
O221 C202 1.239 . S
O222 Nd200 2.487 . S
O222 C209 1.241 . S
O223 Nd200 2.682 . S
O223 Nd201 2.414 . S
O223 C209 1.273 . S
O224 Nd200 2.410 . S
O224 C210 1.251 . S
O225 Nd201 2.424 . S
O225 C210 1.268 . S
O226 Nd201 2.500 . S
O226 C211 1.258 . S
O227 Nd201 2.492 . S
O227 C211 1.239 . S
O228 Nd201 2.487 . S
O228 C218 1.241 . S
O229 Nd200 2.414 . S
O229 Nd201 2.682 . S
O229 C218 1.273 . S
O230 Nd201 2.410 . S
O230 C219 1.251 . S
O231 Nd200 2.424 . S
O231 C219 1.268 . S
H232 C204 0.930 . S
H233 C205 0.929 . S
H234 C207 0.930 . S
H235 C208 0.929 . S
H236 C213 0.930 . S
H237 C214 0.929 . S
H238 C216 0.930 . S
H239 C217 0.929 . S
Nd240 C242 2.836 . S
Nd240 O260 2.500 . S
Nd240 O261 2.492 . S
Nd240 O262 2.487 . S
Nd240 O263 2.682 . S
Nd240 O264 2.410 . S
Nd240 O269 2.414 . S
Nd240 O271 2.424 . S
Nd241 C251 2.836 . S
Nd241 O263 2.414 . S
Nd241 O265 2.424 . S
Nd241 O266 2.500 . S
Nd241 O267 2.492 . S
Nd241 O268 2.487 . S
Nd241 O269 2.682 . S
Nd241 O270 2.410 . S
C242 Nd240 2.836 . S
C242 C243 1.498 . S
C242 O260 1.258 . S
C242 O261 1.239 . S
C243 C242 1.498 . S
C243 C244 1.366 . S
C243 C248 1.407 . S
C244 C243 1.366 . S
C244 C245 1.392 . S
C244 H272 0.930 . S
C245 C244 1.392 . S
C245 C246 1.398 . S
C245 H273 0.929 . S
C246 C245 1.398 . S
C246 C247 1.352 . S
C247 C246 1.352 . S
C247 C248 1.384 . S
C247 H274 0.930 . S
C248 C243 1.407 . S
C248 C247 1.384 . S
C248 H275 0.929 . S
C249 O262 1.241 . S
C249 O263 1.273 . S
C250 O264 1.251 . S
C250 O265 1.268 . S
C251 Nd241 2.836 . S
C251 C252 1.498 . S
C251 O266 1.258 . S
C251 O267 1.239 . S
C252 C251 1.498 . S
C252 C253 1.366 . S
C252 C257 1.407 . S
C253 C252 1.366 . S
C253 C254 1.392 . S
C253 H276 0.930 . S
C254 C253 1.392 . S
C254 C255 1.398 . S
C254 H277 0.929 . S
C255 C254 1.398 . S
C255 C256 1.352 . S
C256 C255 1.352 . S
C256 C257 1.384 . S
C256 H278 0.930 . S
C257 C252 1.407 . S
C257 C256 1.384 . S
C257 H279 0.929 . S
C258 O268 1.241 . S
C258 O269 1.273 . S
C259 O270 1.251 . S
C259 O271 1.268 . S
O260 Nd240 2.500 . S
O260 C242 1.258 . S
O261 Nd240 2.492 . S
O261 C242 1.239 . S
O262 Nd240 2.487 . S
O262 C249 1.241 . S
O263 Nd240 2.682 . S
O263 Nd241 2.414 . S
O263 C249 1.273 . S
O264 Nd240 2.410 . S
O264 C250 1.251 . S
O265 Nd241 2.424 . S
O265 C250 1.268 . S
O266 Nd241 2.500 . S
O266 C251 1.258 . S
O267 Nd241 2.492 . S
O267 C251 1.239 . S
O268 Nd241 2.487 . S
O268 C258 1.241 . S
O269 Nd240 2.414 . S
O269 Nd241 2.682 . S
O269 C258 1.273 . S
O270 Nd241 2.410 . S
O270 C259 1.251 . S
O271 Nd240 2.424 . S
O271 C259 1.268 . S
H272 C244 0.930 . S
H273 C245 0.929 . S
H274 C247 0.930 . S
H275 C248 0.929 . S
H276 C253 0.930 . S
H277 C254 0.929 . S
H278 C256 0.930 . S
H279 C257 0.929 . S
Nd280 C282 2.836 . S
Nd280 O300 2.500 . S
Nd280 O301 2.492 . S
Nd280 O302 2.487 . S
Nd280 O303 2.682 . S
Nd280 O304 2.410 . S
Nd280 O309 2.414 . S
Nd280 O311 2.424 . S
Nd281 C291 2.836 . S
Nd281 O303 2.414 . S
Nd281 O305 2.424 . S
Nd281 O306 2.500 . S
Nd281 O307 2.492 . S
Nd281 O308 2.487 . S
Nd281 O309 2.682 . S
Nd281 O310 2.410 . S
C282 Nd280 2.836 . S
C282 C283 1.498 . S
C282 O300 1.258 . S
C282 O301 1.239 . S
C283 C282 1.498 . S
C283 C284 1.366 . S
C283 C288 1.407 . S
C284 C283 1.366 . S
C284 C285 1.392 . S
C284 H312 0.930 . S
C285 C284 1.392 . S
C285 C286 1.398 . S
C285 H313 0.929 . S
C286 C285 1.398 . S
C286 C287 1.352 . S
C287 C286 1.352 . S
C287 C288 1.384 . S
C287 H314 0.930 . S
C288 C283 1.407 . S
C288 C287 1.384 . S
C288 H315 0.929 . S
C289 O302 1.241 . S
C289 O303 1.273 . S
C290 O304 1.251 . S
C290 O305 1.268 . S
C291 Nd281 2.836 . S
C291 C292 1.498 . S
C291 O306 1.258 . S
C291 O307 1.239 . S
C292 C291 1.498 . S
C292 C293 1.366 . S
C292 C297 1.407 . S
C293 C292 1.366 . S
C293 C294 1.392 . S
C293 H316 0.930 . S
C294 C293 1.392 . S
C294 C295 1.398 . S
C294 H317 0.929 . S
C295 C294 1.398 . S
C295 C296 1.352 . S
C296 C295 1.352 . S
C296 C297 1.384 . S
C296 H318 0.930 . S
C297 C292 1.407 . S
C297 C296 1.384 . S
C297 H319 0.929 . S
C298 O308 1.241 . S
C298 O309 1.273 . S
C299 O310 1.251 . S
C299 O311 1.268 . S
O300 Nd280 2.500 . S
O300 C282 1.258 . S
O301 Nd280 2.492 . S
O301 C282 1.239 . S
O302 Nd280 2.487 . S
O302 C289 1.241 . S
O303 Nd280 2.682 . S
O303 Nd281 2.414 . S
O303 C289 1.273 . S
O304 Nd280 2.410 . S
O304 C290 1.251 . S
O305 Nd281 2.424 . S
O305 C290 1.268 . S
O306 Nd281 2.500 . S
O306 C291 1.258 . S
O307 Nd281 2.492 . S
O307 C291 1.239 . S
O308 Nd281 2.487 . S
O308 C298 1.241 . S
O309 Nd280 2.414 . S
O309 Nd281 2.682 . S
O309 C298 1.273 . S
O310 Nd281 2.410 . S
O310 C299 1.251 . S
O311 Nd280 2.424 . S
O311 C299 1.268 . S
H312 C284 0.930 . S
H313 C285 0.929 . S
H314 C287 0.930 . S
H315 C288 0.929 . S
H316 C293 0.930 . S
H317 C294 0.929 . S
H318 C296 0.930 . S
H319 C297 0.929 . S
Nd320 C322 2.836 . S
Nd320 O340 2.500 . S
Nd320 O341 2.492 . S
Nd320 O342 2.487 . S
Nd320 O343 2.682 . S
Nd320 O344 2.410 . S
Nd320 O349 2.414 . S
Nd320 O351 2.424 . S
Nd321 C331 2.836 . S
Nd321 O343 2.414 . S
Nd321 O345 2.424 . S
Nd321 O346 2.500 . S
Nd321 O347 2.492 . S
Nd321 O348 2.487 . S
Nd321 O349 2.682 . S
Nd321 O350 2.410 . S
C322 Nd320 2.836 . S
C322 C323 1.498 . S
C322 O340 1.258 . S
C322 O341 1.239 . S
C323 C322 1.498 . S
C323 C324 1.366 . S
C323 C328 1.407 . S
C324 C323 1.366 . S
C324 C325 1.392 . S
C324 H352 0.930 . S
C325 C324 1.392 . S
C325 C326 1.398 . S
C325 H353 0.929 . S
C326 C325 1.398 . S
C326 C327 1.352 . S
C327 C326 1.352 . S
C327 C328 1.384 . S
C327 H354 0.930 . S
C328 C323 1.407 . S
C328 C327 1.384 . S
C328 H355 0.929 . S
C329 O342 1.241 . S
C329 O343 1.273 . S
C330 O344 1.251 . S
C330 O345 1.268 . S
C331 Nd321 2.836 . S
C331 C332 1.498 . S
C331 O346 1.258 . S
C331 O347 1.239 . S
C332 C331 1.498 . S
C332 C333 1.366 . S
C332 C337 1.407 . S
C333 C332 1.366 . S
C333 C334 1.392 . S
C333 H356 0.930 . S
C334 C333 1.392 . S
C334 C335 1.398 . S
C334 H357 0.929 . S
C335 C334 1.398 . S
C335 C336 1.352 . S
C336 C335 1.352 . S
C336 C337 1.384 . S
C336 H358 0.930 . S
C337 C332 1.407 . S
C337 C336 1.384 . S
C337 H359 0.929 . S
C338 O348 1.241 . S
C338 O349 1.273 . S
C339 O350 1.251 . S
C339 O351 1.268 . S
O340 Nd320 2.500 . S
O340 C322 1.258 . S
O341 Nd320 2.492 . S
O341 C322 1.239 . S
O342 Nd320 2.487 . S
O342 C329 1.241 . S
O343 Nd320 2.682 . S
O343 Nd321 2.414 . S
O343 C329 1.273 . S
O344 Nd320 2.410 . S
O344 C330 1.251 . S
O345 Nd321 2.424 . S
O345 C330 1.268 . S
O346 Nd321 2.500 . S
O346 C331 1.258 . S
O347 Nd321 2.492 . S
O347 C331 1.239 . S
O348 Nd321 2.487 . S
O348 C338 1.241 . S
O349 Nd320 2.414 . S
O349 Nd321 2.682 . S
O349 C338 1.273 . S
O350 Nd321 2.410 . S
O350 C339 1.251 . S
O351 Nd320 2.424 . S
O351 C339 1.268 . S
H352 C324 0.930 . S
H353 C325 0.929 . S
H354 C327 0.930 . S
H355 C328 0.929 . S
H356 C333 0.930 . S
H357 C334 0.929 . S
H358 C336 0.930 . S
H359 C337 0.929 . S
Nd360 C362 2.836 . S
Nd360 O380 2.500 . S
Nd360 O381 2.492 . S
Nd360 O382 2.487 . S
Nd360 O383 2.682 . S
Nd360 O384 2.410 . S
Nd360 O389 2.414 . S
Nd360 O391 2.424 . S
Nd361 C371 2.836 . S
Nd361 O383 2.414 . S
Nd361 O385 2.424 . S
Nd361 O386 2.500 . S
Nd361 O387 2.492 . S
Nd361 O388 2.487 . S
Nd361 O389 2.682 . S
Nd361 O390 2.410 . S
C362 Nd360 2.836 . S
C362 C363 1.498 . S
C362 O380 1.258 . S
C362 O381 1.239 . S
C363 C362 1.498 . S
C363 C364 1.366 . S
C363 C368 1.407 . S
C364 C363 1.366 . S
C364 C365 1.392 . S
C364 H392 0.930 . S
C365 C364 1.392 . S
C365 C366 1.398 . S
C365 H393 0.929 . S
C366 C365 1.398 . S
C366 C367 1.352 . S
C367 C366 1.352 . S
C367 C368 1.384 . S
C367 H394 0.930 . S
C368 C363 1.407 . S
C368 C367 1.384 . S
C368 H395 0.929 . S
C369 O382 1.241 . S
C369 O383 1.273 . S
C370 O384 1.251 . S
C370 O385 1.268 . S
C371 Nd361 2.836 . S
C371 C372 1.498 . S
C371 O386 1.258 . S
C371 O387 1.239 . S
C372 C371 1.498 . S
C372 C373 1.366 . S
C372 C377 1.407 . S
C373 C372 1.366 . S
C373 C374 1.392 . S
C373 H396 0.930 . S
C374 C373 1.392 . S
C374 C375 1.398 . S
C374 H397 0.929 . S
C375 C374 1.398 . S
C375 C376 1.352 . S
C376 C375 1.352 . S
C376 C377 1.384 . S
C376 H398 0.930 . S
C377 C372 1.407 . S
C377 C376 1.384 . S
C377 H399 0.929 . S
C378 O388 1.241 . S
C378 O389 1.273 . S
C379 O390 1.251 . S
C379 O391 1.268 . S
O380 Nd360 2.500 . S
O380 C362 1.258 . S
O381 Nd360 2.492 . S
O381 C362 1.239 . S
O382 Nd360 2.487 . S
O382 C369 1.241 . S
O383 Nd360 2.682 . S
O383 Nd361 2.414 . S
O383 C369 1.273 . S
O384 Nd360 2.410 . S
O384 C370 1.251 . S
O385 Nd361 2.424 . S
O385 C370 1.268 . S
O386 Nd361 2.500 . S
O386 C371 1.258 . S
O387 Nd361 2.492 . S
O387 C371 1.239 . S
O388 Nd361 2.487 . S
O388 C378 1.241 . S
O389 Nd360 2.414 . S
O389 Nd361 2.682 . S
O389 C378 1.273 . S
O390 Nd361 2.410 . S
O390 C379 1.251 . S
O391 Nd360 2.424 . S
O391 C379 1.268 . S
H392 C364 0.930 . S
H393 C365 0.929 . S
H394 C367 0.930 . S
H395 C368 0.929 . S
H396 C373 0.930 . S
H397 C374 0.929 . S
H398 C376 0.930 . S
H399 C377 0.929 . S
Nd400 C402 2.836 . S
Nd400 O420 2.500 . S
Nd400 O421 2.492 . S
Nd400 O422 2.487 . S
Nd400 O423 2.682 . S
Nd400 O424 2.410 . S
Nd400 O429 2.414 . S
Nd400 O431 2.424 . S
Nd401 C411 2.836 . S
Nd401 O423 2.414 . S
Nd401 O425 2.424 . S
Nd401 O426 2.500 . S
Nd401 O427 2.492 . S
Nd401 O428 2.487 . S
Nd401 O429 2.682 . S
Nd401 O430 2.410 . S
C402 Nd400 2.836 . S
C402 C403 1.498 . S
C402 O420 1.258 . S
C402 O421 1.239 . S
C403 C402 1.498 . S
C403 C404 1.366 . S
C403 C408 1.407 . S
C404 C403 1.366 . S
C404 C405 1.392 . S
C404 H432 0.930 . S
C405 C404 1.392 . S
C405 C406 1.398 . S
C405 H433 0.929 . S
C406 C405 1.398 . S
C406 C407 1.352 . S
C407 C406 1.352 . S
C407 C408 1.384 . S
C407 H434 0.930 . S
C408 C403 1.407 . S
C408 C407 1.384 . S
C408 H435 0.929 . S
C409 O422 1.241 . S
C409 O423 1.273 . S
C410 O424 1.251 . S
C410 O425 1.268 . S
C411 Nd401 2.836 . S
C411 C412 1.498 . S
C411 O426 1.258 . S
C411 O427 1.239 . S
C412 C411 1.498 . S
C412 C413 1.366 . S
C412 C417 1.407 . S
C413 C412 1.366 . S
C413 C414 1.392 . S
C413 H436 0.930 . S
C414 C413 1.392 . S
C414 C415 1.398 . S
C414 H437 0.929 . S
C415 C414 1.398 . S
C415 C416 1.352 . S
C416 C415 1.352 . S
C416 C417 1.384 . S
C416 H438 0.930 . S
C417 C412 1.407 . S
C417 C416 1.384 . S
C417 H439 0.929 . S
C418 O428 1.241 . S
C418 O429 1.273 . S
C419 O430 1.251 . S
C419 O431 1.268 . S
O420 Nd400 2.500 . S
O420 C402 1.258 . S
O421 Nd400 2.492 . S
O421 C402 1.239 . S
O422 Nd400 2.487 . S
O422 C409 1.241 . S
O423 Nd400 2.682 . S
O423 Nd401 2.414 . S
O423 C409 1.273 . S
O424 Nd400 2.410 . S
O424 C410 1.251 . S
O425 Nd401 2.424 . S
O425 C410 1.268 . S
O426 Nd401 2.500 . S
O426 C411 1.258 . S
O427 Nd401 2.492 . S
O427 C411 1.239 . S
O428 Nd401 2.487 . S
O428 C418 1.241 . S
O429 Nd400 2.414 . S
O429 Nd401 2.682 . S
O429 C418 1.273 . S
O430 Nd401 2.410 . S
O430 C419 1.251 . S
O431 Nd400 2.424 . S
O431 C419 1.268 . S
H432 C404 0.930 . S
H433 C405 0.929 . S
H434 C407 0.930 . S
H435 C408 0.929 . S
H436 C413 0.930 . S
H437 C414 0.929 . S
H438 C416 0.930 . S
H439 C417 0.929 . S
Nd440 C442 2.836 . S
Nd440 O460 2.500 . S
Nd440 O461 2.492 . S
Nd440 O462 2.487 . S
Nd440 O463 2.682 . S
Nd440 O464 2.410 . S
Nd440 O469 2.414 . S
Nd440 O471 2.424 . S
Nd441 C451 2.836 . S
Nd441 O463 2.414 . S
Nd441 O465 2.424 . S
Nd441 O466 2.500 . S
Nd441 O467 2.492 . S
Nd441 O468 2.487 . S
Nd441 O469 2.682 . S
Nd441 O470 2.410 . S
C442 Nd440 2.836 . S
C442 C443 1.498 . S
C442 O460 1.258 . S
C442 O461 1.239 . S
C443 C442 1.498 . S
C443 C444 1.366 . S
C443 C448 1.407 . S
C444 C443 1.366 . S
C444 C445 1.392 . S
C444 H472 0.930 . S
C445 C444 1.392 . S
C445 C446 1.398 . S
C445 H473 0.929 . S
C446 C445 1.398 . S
C446 C447 1.352 . S
C447 C446 1.352 . S
C447 C448 1.384 . S
C447 H474 0.930 . S
C448 C443 1.407 . S
C448 C447 1.384 . S
C448 H475 0.929 . S
C449 O462 1.241 . S
C449 O463 1.273 . S
C450 O464 1.251 . S
C450 O465 1.268 . S
C451 Nd441 2.836 . S
C451 C452 1.498 . S
C451 O466 1.258 . S
C451 O467 1.239 . S
C452 C451 1.498 . S
C452 C453 1.366 . S
C452 C457 1.407 . S
C453 C452 1.366 . S
C453 C454 1.392 . S
C453 H476 0.930 . S
C454 C453 1.392 . S
C454 C455 1.398 . S
C454 H477 0.929 . S
C455 C454 1.398 . S
C455 C456 1.352 . S
C456 C455 1.352 . S
C456 C457 1.384 . S
C456 H478 0.930 . S
C457 C452 1.407 . S
C457 C456 1.384 . S
C457 H479 0.929 . S
C458 O468 1.241 . S
C458 O469 1.273 . S
C459 O470 1.251 . S
C459 O471 1.268 . S
O460 Nd440 2.500 . S
O460 C442 1.258 . S
O461 Nd440 2.492 . S
O461 C442 1.239 . S
O462 Nd440 2.487 . S
O462 C449 1.241 . S
O463 Nd440 2.682 . S
O463 Nd441 2.414 . S
O463 C449 1.273 . S
O464 Nd440 2.410 . S
O464 C450 1.251 . S
O465 Nd441 2.424 . S
O465 C450 1.268 . S
O466 Nd441 2.500 . S
O466 C451 1.258 . S
O467 Nd441 2.492 . S
O467 C451 1.239 . S
O468 Nd441 2.487 . S
O468 C458 1.241 . S
O469 Nd440 2.414 . S
O469 Nd441 2.682 . S
O469 C458 1.273 . S
O470 Nd441 2.410 . S
O470 C459 1.251 . S
O471 Nd440 2.424 . S
O471 C459 1.268 . S
H472 C444 0.930 . S
H473 C445 0.929 . S
H474 C447 0.930 . S
H475 C448 0.929 . S
H476 C453 0.930 . S
H477 C454 0.929 . S
H478 C456 0.930 . S
H479 C457 0.929 . S
Nd480 C482 2.836 . S
Nd480 O500 2.500 . S
Nd480 O501 2.492 . S
Nd480 O502 2.487 . S
Nd480 O503 2.682 . S
Nd480 O504 2.410 . S
Nd480 O509 2.414 . S
Nd480 O511 2.424 . S
Nd481 C491 2.836 . S
Nd481 O503 2.414 . S
Nd481 O505 2.424 . S
Nd481 O506 2.500 . S
Nd481 O507 2.492 . S
Nd481 O508 2.487 . S
Nd481 O509 2.682 . S
Nd481 O510 2.410 . S
C482 Nd480 2.836 . S
C482 C483 1.498 . S
C482 O500 1.258 . S
C482 O501 1.239 . S
C483 C482 1.498 . S
C483 C484 1.366 . S
C483 C488 1.407 . S
C484 C483 1.366 . S
C484 C485 1.392 . S
C484 H512 0.930 . S
C485 C484 1.392 . S
C485 C486 1.398 . S
C485 H513 0.929 . S
C486 C485 1.398 . S
C486 C487 1.352 . S
C487 C486 1.352 . S
C487 C488 1.384 . S
C487 H514 0.930 . S
C488 C483 1.407 . S
C488 C487 1.384 . S
C488 H515 0.929 . S
C489 O502 1.241 . S
C489 O503 1.273 . S
C490 O504 1.251 . S
C490 O505 1.268 . S
C491 Nd481 2.836 . S
C491 C492 1.498 . S
C491 O506 1.258 . S
C491 O507 1.239 . S
C492 C491 1.498 . S
C492 C493 1.366 . S
C492 C497 1.407 . S
C493 C492 1.366 . S
C493 C494 1.392 . S
C493 H516 0.930 . S
C494 C493 1.392 . S
C494 C495 1.398 . S
C494 H517 0.929 . S
C495 C494 1.398 . S
C495 C496 1.352 . S
C496 C495 1.352 . S
C496 C497 1.384 . S
C496 H518 0.930 . S
C497 C492 1.407 . S
C497 C496 1.384 . S
C497 H519 0.929 . S
C498 O508 1.241 . S
C498 O509 1.273 . S
C499 O510 1.251 . S
C499 O511 1.268 . S
O500 Nd480 2.500 . S
O500 C482 1.258 . S
O501 Nd480 2.492 . S
O501 C482 1.239 . S
O502 Nd480 2.487 . S
O502 C489 1.241 . S
O503 Nd480 2.682 . S
O503 Nd481 2.414 . S
O503 C489 1.273 . S
O504 Nd480 2.410 . S
O504 C490 1.251 . S
O505 Nd481 2.424 . S
O505 C490 1.268 . S
O506 Nd481 2.500 . S
O506 C491 1.258 . S
O507 Nd481 2.492 . S
O507 C491 1.239 . S
O508 Nd481 2.487 . S
O508 C498 1.241 . S
O509 Nd480 2.414 . S
O509 Nd481 2.682 . S
O509 C498 1.273 . S
O510 Nd481 2.410 . S
O510 C499 1.251 . S
O511 Nd480 2.424 . S
O511 C499 1.268 . S
H512 C484 0.930 . S
H513 C485 0.929 . S
H514 C487 0.930 . S
H515 C488 0.929 . S
H516 C493 0.930 . S
H517 C494 0.929 . S
H518 C496 0.930 . S
H519 C497 0.929 . S
Nd520 C522 2.836 . S
Nd520 O540 2.500 . S
Nd520 O541 2.492 . S
Nd520 O542 2.487 . S
Nd520 O543 2.682 . S
Nd520 O544 2.410 . S
Nd520 O549 2.414 . S
Nd520 O551 2.424 . S
Nd521 C531 2.836 . S
Nd521 O543 2.414 . S
Nd521 O545 2.424 . S
Nd521 O546 2.500 . S
Nd521 O547 2.492 . S
Nd521 O548 2.487 . S
Nd521 O549 2.682 . S
Nd521 O550 2.410 . S
C522 Nd520 2.836 . S
C522 C523 1.498 . S
C522 O540 1.258 . S
C522 O541 1.239 . S
C523 C522 1.498 . S
C523 C524 1.366 . S
C523 C528 1.407 . S
C524 C523 1.366 . S
C524 C525 1.392 . S
C524 H552 0.930 . S
C525 C524 1.392 . S
C525 C526 1.398 . S
C525 H553 0.929 . S
C526 C525 1.398 . S
C526 C527 1.352 . S
C527 C526 1.352 . S
C527 C528 1.384 . S
C527 H554 0.930 . S
C528 C523 1.407 . S
C528 C527 1.384 . S
C528 H555 0.929 . S
C529 O542 1.241 . S
C529 O543 1.273 . S
C530 O544 1.251 . S
C530 O545 1.268 . S
C531 Nd521 2.836 . S
C531 C532 1.498 . S
C531 O546 1.258 . S
C531 O547 1.239 . S
C532 C531 1.498 . S
C532 C533 1.366 . S
C532 C537 1.407 . S
C533 C532 1.366 . S
C533 C534 1.392 . S
C533 H556 0.930 . S
C534 C533 1.392 . S
C534 C535 1.398 . S
C534 H557 0.929 . S
C535 C534 1.398 . S
C535 C536 1.352 . S
C536 C535 1.352 . S
C536 C537 1.384 . S
C536 H558 0.930 . S
C537 C532 1.407 . S
C537 C536 1.384 . S
C537 H559 0.929 . S
C538 O548 1.241 . S
C538 O549 1.273 . S
C539 O550 1.251 . S
C539 O551 1.268 . S
O540 Nd520 2.500 . S
O540 C522 1.258 . S
O541 Nd520 2.492 . S
O541 C522 1.239 . S
O542 Nd520 2.487 . S
O542 C529 1.241 . S
O543 Nd520 2.682 . S
O543 Nd521 2.414 . S
O543 C529 1.273 . S
O544 Nd520 2.410 . S
O544 C530 1.251 . S
O545 Nd521 2.424 . S
O545 C530 1.268 . S
O546 Nd521 2.500 . S
O546 C531 1.258 . S
O547 Nd521 2.492 . S
O547 C531 1.239 . S
O548 Nd521 2.487 . S
O548 C538 1.241 . S
O549 Nd520 2.414 . S
O549 Nd521 2.682 . S
O549 C538 1.273 . S
O550 Nd521 2.410 . S
O550 C539 1.251 . S
O551 Nd520 2.424 . S
O551 C539 1.268 . S
H552 C524 0.930 . S
H553 C525 0.929 . S
H554 C527 0.930 . S
H555 C528 0.929 . S
H556 C533 0.930 . S
H557 C534 0.929 . S
H558 C536 0.930 . S
H559 C537 0.929 . S
Nd560 C562 2.836 . S
Nd560 O580 2.500 . S
Nd560 O581 2.492 . S
Nd560 O582 2.487 . S
Nd560 O583 2.682 . S
Nd560 O584 2.410 . S
Nd560 O589 2.414 . S
Nd560 O591 2.424 . S
Nd561 C571 2.836 . S
Nd561 O583 2.414 . S
Nd561 O585 2.424 . S
Nd561 O586 2.500 . S
Nd561 O587 2.492 . S
Nd561 O588 2.487 . S
Nd561 O589 2.682 . S
Nd561 O590 2.410 . S
C562 Nd560 2.836 . S
C562 C563 1.498 . S
C562 O580 1.258 . S
C562 O581 1.239 . S
C563 C562 1.498 . S
C563 C564 1.366 . S
C563 C568 1.407 . S
C564 C563 1.366 . S
C564 C565 1.392 . S
C564 H592 0.930 . S
C565 C564 1.392 . S
C565 C566 1.398 . S
C565 H593 0.929 . S
C566 C565 1.398 . S
C566 C567 1.352 . S
C567 C566 1.352 . S
C567 C568 1.384 . S
C567 H594 0.930 . S
C568 C563 1.407 . S
C568 C567 1.384 . S
C568 H595 0.929 . S
C569 O582 1.241 . S
C569 O583 1.273 . S
C570 O584 1.251 . S
C570 O585 1.268 . S
C571 Nd561 2.836 . S
C571 C572 1.498 . S
C571 O586 1.258 . S
C571 O587 1.239 . S
C572 C571 1.498 . S
C572 C573 1.366 . S
C572 C577 1.407 . S
C573 C572 1.366 . S
C573 C574 1.392 . S
C573 H596 0.930 . S
C574 C573 1.392 . S
C574 C575 1.398 . S
C574 H597 0.929 . S
C575 C574 1.398 . S
C575 C576 1.352 . S
C576 C575 1.352 . S
C576 C577 1.384 . S
C576 H598 0.930 . S
C577 C572 1.407 . S
C577 C576 1.384 . S
C577 H599 0.929 . S
C578 O588 1.241 . S
C578 O589 1.273 . S
C579 O590 1.251 . S
C579 O591 1.268 . S
O580 Nd560 2.500 . S
O580 C562 1.258 . S
O581 Nd560 2.492 . S
O581 C562 1.239 . S
O582 Nd560 2.487 . S
O582 C569 1.241 . S
O583 Nd560 2.682 . S
O583 Nd561 2.414 . S
O583 C569 1.273 . S
O584 Nd560 2.410 . S
O584 C570 1.251 . S
O585 Nd561 2.424 . S
O585 C570 1.268 . S
O586 Nd561 2.500 . S
O586 C571 1.258 . S
O587 Nd561 2.492 . S
O587 C571 1.239 . S
O588 Nd561 2.487 . S
O588 C578 1.241 . S
O589 Nd560 2.414 . S
O589 Nd561 2.682 . S
O589 C578 1.273 . S
O590 Nd561 2.410 . S
O590 C579 1.251 . S
O591 Nd560 2.424 . S
O591 C579 1.268 . S
H592 C564 0.930 . S
H593 C565 0.929 . S
H594 C567 0.930 . S
H595 C568 0.929 . S
H596 C573 0.930 . S
H597 C574 0.929 . S
H598 C576 0.930 . S
H599 C577 0.929 . S
Nd600 C602 2.836 . S
Nd600 O620 2.500 . S
Nd600 O621 2.492 . S
Nd600 O622 2.487 . S
Nd600 O623 2.682 . S
Nd600 O624 2.410 . S
Nd600 O629 2.414 . S
Nd600 O631 2.424 . S
Nd601 C611 2.836 . S
Nd601 O623 2.414 . S
Nd601 O625 2.424 . S
Nd601 O626 2.500 . S
Nd601 O627 2.492 . S
Nd601 O628 2.487 . S
Nd601 O629 2.682 . S
Nd601 O630 2.410 . S
C602 Nd600 2.836 . S
C602 C603 1.498 . S
C602 O620 1.258 . S
C602 O621 1.239 . S
C603 C602 1.498 . S
C603 C604 1.366 . S
C603 C608 1.407 . S
C604 C603 1.366 . S
C604 C605 1.392 . S
C604 H632 0.930 . S
C605 C604 1.392 . S
C605 C606 1.398 . S
C605 H633 0.929 . S
C606 C605 1.398 . S
C606 C607 1.352 . S
C607 C606 1.352 . S
C607 C608 1.384 . S
C607 H634 0.930 . S
C608 C603 1.407 . S
C608 C607 1.384 . S
C608 H635 0.929 . S
C609 O622 1.241 . S
C609 O623 1.273 . S
C610 O624 1.251 . S
C610 O625 1.268 . S
C611 Nd601 2.836 . S
C611 C612 1.498 . S
C611 O626 1.258 . S
C611 O627 1.239 . S
C612 C611 1.498 . S
C612 C613 1.366 . S
C612 C617 1.407 . S
C613 C612 1.366 . S
C613 C614 1.392 . S
C613 H636 0.930 . S
C614 C613 1.392 . S
C614 C615 1.398 . S
C614 H637 0.929 . S
C615 C614 1.398 . S
C615 C616 1.352 . S
C616 C615 1.352 . S
C616 C617 1.384 . S
C616 H638 0.930 . S
C617 C612 1.407 . S
C617 C616 1.384 . S
C617 H639 0.929 . S
C618 O628 1.241 . S
C618 O629 1.273 . S
C619 O630 1.251 . S
C619 O631 1.268 . S
O620 Nd600 2.500 . S
O620 C602 1.258 . S
O621 Nd600 2.492 . S
O621 C602 1.239 . S
O622 Nd600 2.487 . S
O622 C609 1.241 . S
O623 Nd600 2.682 . S
O623 Nd601 2.414 . S
O623 C609 1.273 . S
O624 Nd600 2.410 . S
O624 C610 1.251 . S
O625 Nd601 2.424 . S
O625 C610 1.268 . S
O626 Nd601 2.500 . S
O626 C611 1.258 . S
O627 Nd601 2.492 . S
O627 C611 1.239 . S
O628 Nd601 2.487 . S
O628 C618 1.241 . S
O629 Nd600 2.414 . S
O629 Nd601 2.682 . S
O629 C618 1.273 . S
O630 Nd601 2.410 . S
O630 C619 1.251 . S
O631 Nd600 2.424 . S
O631 C619 1.268 . S
H632 C604 0.930 . S
H633 C605 0.929 . S
H634 C607 0.930 . S
H635 C608 0.929 . S
H636 C613 0.930 . S
H637 C614 0.929 . S
H638 C616 0.930 . S
H639 C617 0.929 . S
Nd640 C642 2.836 . S
Nd640 O660 2.500 . S
Nd640 O661 2.492 . S
Nd640 O662 2.487 . S
Nd640 O663 2.682 . S
Nd640 O664 2.410 . S
Nd640 O669 2.414 . S
Nd640 O671 2.424 . S
Nd641 C651 2.836 . S
Nd641 O663 2.414 . S
Nd641 O665 2.424 . S
Nd641 O666 2.500 . S
Nd641 O667 2.492 . S
Nd641 O668 2.487 . S
Nd641 O669 2.682 . S
Nd641 O670 2.410 . S
C642 Nd640 2.836 . S
C642 C643 1.498 . S
C642 O660 1.258 . S
C642 O661 1.239 . S
C643 C642 1.498 . S
C643 C644 1.366 . S
C643 C648 1.407 . S
C644 C643 1.366 . S
C644 C645 1.392 . S
C644 H672 0.930 . S
C645 C644 1.392 . S
C645 C646 1.398 . S
C645 H673 0.929 . S
C646 C645 1.398 . S
C646 C647 1.352 . S
C647 C646 1.352 . S
C647 C648 1.384 . S
C647 H674 0.930 . S
C648 C643 1.407 . S
C648 C647 1.384 . S
C648 H675 0.929 . S
C649 O662 1.241 . S
C649 O663 1.273 . S
C650 O664 1.251 . S
C650 O665 1.268 . S
C651 Nd641 2.836 . S
C651 C652 1.498 . S
C651 O666 1.258 . S
C651 O667 1.239 . S
C652 C651 1.498 . S
C652 C653 1.366 . S
C652 C657 1.407 . S
C653 C652 1.366 . S
C653 C654 1.392 . S
C653 H676 0.930 . S
C654 C653 1.392 . S
C654 C655 1.398 . S
C654 H677 0.929 . S
C655 C654 1.398 . S
C655 C656 1.352 . S
C656 C655 1.352 . S
C656 C657 1.384 . S
C656 H678 0.930 . S
C657 C652 1.407 . S
C657 C656 1.384 . S
C657 H679 0.929 . S
C658 O668 1.241 . S
C658 O669 1.273 . S
C659 O670 1.251 . S
C659 O671 1.268 . S
O660 Nd640 2.500 . S
O660 C642 1.258 . S
O661 Nd640 2.492 . S
O661 C642 1.239 . S
O662 Nd640 2.487 . S
O662 C649 1.241 . S
O663 Nd640 2.682 . S
O663 Nd641 2.414 . S
O663 C649 1.273 . S
O664 Nd640 2.410 . S
O664 C650 1.251 . S
O665 Nd641 2.424 . S
O665 C650 1.268 . S
O666 Nd641 2.500 . S
O666 C651 1.258 . S
O667 Nd641 2.492 . S
O667 C651 1.239 . S
O668 Nd641 2.487 . S
O668 C658 1.241 . S
O669 Nd640 2.414 . S
O669 Nd641 2.682 . S
O669 C658 1.273 . S
O670 Nd641 2.410 . S
O670 C659 1.251 . S
O671 Nd640 2.424 . S
O671 C659 1.268 . S
H672 C644 0.930 . S
H673 C645 0.929 . S
H674 C647 0.930 . S
H675 C648 0.929 . S
H676 C653 0.930 . S
H677 C654 0.929 . S
H678 C656 0.930 . S
H679 C657 0.929 . S
Nd680 C682 2.836 . S
Nd680 O700 2.500 . S
Nd680 O701 2.492 . S
Nd680 O702 2.487 . S
Nd680 O703 2.682 . S
Nd680 O704 2.410 . S
Nd680 O709 2.414 . S
Nd680 O711 2.424 . S
Nd681 C691 2.836 . S
Nd681 O703 2.414 . S
Nd681 O705 2.424 . S
Nd681 O706 2.500 . S
Nd681 O707 2.492 . S
Nd681 O708 2.487 . S
Nd681 O709 2.682 . S
Nd681 O710 2.410 . S
C682 Nd680 2.836 . S
C682 C683 1.498 . S
C682 O700 1.258 . S
C682 O701 1.239 . S
C683 C682 1.498 . S
C683 C684 1.366 . S
C683 C688 1.407 . S
C684 C683 1.366 . S
C684 C685 1.392 . S
C684 H712 0.930 . S
C685 C684 1.392 . S
C685 C686 1.398 . S
C685 H713 0.929 . S
C686 C685 1.398 . S
C686 C687 1.352 . S
C687 C686 1.352 . S
C687 C688 1.384 . S
C687 H714 0.930 . S
C688 C683 1.407 . S
C688 C687 1.384 . S
C688 H715 0.929 . S
C689 O702 1.241 . S
C689 O703 1.273 . S
C690 O704 1.251 . S
C690 O705 1.268 . S
C691 Nd681 2.836 . S
C691 C692 1.498 . S
C691 O706 1.258 . S
C691 O707 1.239 . S
C692 C691 1.498 . S
C692 C693 1.366 . S
C692 C697 1.407 . S
C693 C692 1.366 . S
C693 C694 1.392 . S
C693 H716 0.930 . S
C694 C693 1.392 . S
C694 C695 1.398 . S
C694 H717 0.929 . S
C695 C694 1.398 . S
C695 C696 1.352 . S
C696 C695 1.352 . S
C696 C697 1.384 . S
C696 H718 0.930 . S
C697 C692 1.407 . S
C697 C696 1.384 . S
C697 H719 0.929 . S
C698 O708 1.241 . S
C698 O709 1.273 . S
C699 O710 1.251 . S
C699 O711 1.268 . S
O700 Nd680 2.500 . S
O700 C682 1.258 . S
O701 Nd680 2.492 . S
O701 C682 1.239 . S
O702 Nd680 2.487 . S
O702 C689 1.241 . S
O703 Nd680 2.682 . S
O703 Nd681 2.414 . S
O703 C689 1.273 . S
O704 Nd680 2.410 . S
O704 C690 1.251 . S
O705 Nd681 2.424 . S
O705 C690 1.268 . S
O706 Nd681 2.500 . S
O706 C691 1.258 . S
O707 Nd681 2.492 . S
O707 C691 1.239 . S
O708 Nd681 2.487 . S
O708 C698 1.241 . S
O709 Nd680 2.414 . S
O709 Nd681 2.682 . S
O709 C698 1.273 . S
O710 Nd681 2.410 . S
O710 C699 1.251 . S
O711 Nd680 2.424 . S
O711 C699 1.268 . S
H712 C684 0.930 . S
H713 C685 0.929 . S
H714 C687 0.930 . S
H715 C688 0.929 . S
H716 C693 0.930 . S
H717 C694 0.929 . S
H718 C696 0.930 . S
H719 C697 0.929 . S
Nd720 C722 2.836 . S
Nd720 O740 2.500 . S
Nd720 O741 2.492 . S
Nd720 O742 2.487 . S
Nd720 O743 2.682 . S
Nd720 O744 2.410 . S
Nd720 O749 2.414 . S
Nd720 O751 2.424 . S
Nd721 C731 2.836 . S
Nd721 O743 2.414 . S
Nd721 O745 2.424 . S
Nd721 O746 2.500 . S
Nd721 O747 2.492 . S
Nd721 O748 2.487 . S
Nd721 O749 2.682 . S
Nd721 O750 2.410 . S
C722 Nd720 2.836 . S
C722 C723 1.498 . S
C722 O740 1.258 . S
C722 O741 1.239 . S
C723 C722 1.498 . S
C723 C724 1.366 . S
C723 C728 1.407 . S
C724 C723 1.366 . S
C724 C725 1.392 . S
C724 H752 0.930 . S
C725 C724 1.392 . S
C725 C726 1.398 . S
C725 H753 0.929 . S
C726 C725 1.398 . S
C726 C727 1.352 . S
C727 C726 1.352 . S
C727 C728 1.384 . S
C727 H754 0.930 . S
C728 C723 1.407 . S
C728 C727 1.384 . S
C728 H755 0.929 . S
C729 O742 1.241 . S
C729 O743 1.273 . S
C730 O744 1.251 . S
C730 O745 1.268 . S
C731 Nd721 2.836 . S
C731 C732 1.498 . S
C731 O746 1.258 . S
C731 O747 1.239 . S
C732 C731 1.498 . S
C732 C733 1.366 . S
C732 C737 1.407 . S
C733 C732 1.366 . S
C733 C734 1.392 . S
C733 H756 0.930 . S
C734 C733 1.392 . S
C734 C735 1.398 . S
C734 H757 0.929 . S
C735 C734 1.398 . S
C735 C736 1.352 . S
C736 C735 1.352 . S
C736 C737 1.384 . S
C736 H758 0.930 . S
C737 C732 1.407 . S
C737 C736 1.384 . S
C737 H759 0.929 . S
C738 O748 1.241 . S
C738 O749 1.273 . S
C739 O750 1.251 . S
C739 O751 1.268 . S
O740 Nd720 2.500 . S
O740 C722 1.258 . S
O741 Nd720 2.492 . S
O741 C722 1.239 . S
O742 Nd720 2.487 . S
O742 C729 1.241 . S
O743 Nd720 2.682 . S
O743 Nd721 2.414 . S
O743 C729 1.273 . S
O744 Nd720 2.410 . S
O744 C730 1.251 . S
O745 Nd721 2.424 . S
O745 C730 1.268 . S
O746 Nd721 2.500 . S
O746 C731 1.258 . S
O747 Nd721 2.492 . S
O747 C731 1.239 . S
O748 Nd721 2.487 . S
O748 C738 1.241 . S
O749 Nd720 2.414 . S
O749 Nd721 2.682 . S
O749 C738 1.273 . S
O750 Nd721 2.410 . S
O750 C739 1.251 . S
O751 Nd720 2.424 . S
O751 C739 1.268 . S
H752 C724 0.930 . S
H753 C725 0.929 . S
H754 C727 0.930 . S
H755 C728 0.929 . S
H756 C733 0.930 . S
H757 C734 0.929 . S
H758 C736 0.930 . S
H759 C737 0.929 . S
Nd760 C762 2.836 . S
Nd760 O780 2.500 . S
Nd760 O781 2.492 . S
Nd760 O782 2.487 . S
Nd760 O783 2.682 . S
Nd760 O784 2.410 . S
Nd760 O789 2.414 . S
Nd760 O791 2.424 . S
Nd761 C771 2.836 . S
Nd761 O783 2.414 . S
Nd761 O785 2.424 . S
Nd761 O786 2.500 . S
Nd761 O787 2.492 . S
Nd761 O788 2.487 . S
Nd761 O789 2.682 . S
Nd761 O790 2.410 . S
C762 Nd760 2.836 . S
C762 C763 1.498 . S
C762 O780 1.258 . S
C762 O781 1.239 . S
C763 C762 1.498 . S
C763 C764 1.366 . S
C763 C768 1.407 . S
C764 C763 1.366 . S
C764 C765 1.392 . S
C764 H792 0.930 . S
C765 C764 1.392 . S
C765 C766 1.398 . S
C765 H793 0.929 . S
C766 C765 1.398 . S
C766 C767 1.352 . S
C767 C766 1.352 . S
C767 C768 1.384 . S
C767 H794 0.930 . S
C768 C763 1.407 . S
C768 C767 1.384 . S
C768 H795 0.929 . S
C769 O782 1.241 . S
C769 O783 1.273 . S
C770 O784 1.251 . S
C770 O785 1.268 . S
C771 Nd761 2.836 . S
C771 C772 1.498 . S
C771 O786 1.258 . S
C771 O787 1.239 . S
C772 C771 1.498 . S
C772 C773 1.366 . S
C772 C777 1.407 . S
C773 C772 1.366 . S
C773 C774 1.392 . S
C773 H796 0.930 . S
C774 C773 1.392 . S
C774 C775 1.398 . S
C774 H797 0.929 . S
C775 C774 1.398 . S
C775 C776 1.352 . S
C776 C775 1.352 . S
C776 C777 1.384 . S
C776 H798 0.930 . S
C777 C772 1.407 . S
C777 C776 1.384 . S
C777 H799 0.929 . S
C778 O788 1.241 . S
C778 O789 1.273 . S
C779 O790 1.251 . S
C779 O791 1.268 . S
O780 Nd760 2.500 . S
O780 C762 1.258 . S
O781 Nd760 2.492 . S
O781 C762 1.239 . S
O782 Nd760 2.487 . S
O782 C769 1.241 . S
O783 Nd760 2.682 . S
O783 Nd761 2.414 . S
O783 C769 1.273 . S
O784 Nd760 2.410 . S
O784 C770 1.251 . S
O785 Nd761 2.424 . S
O785 C770 1.268 . S
O786 Nd761 2.500 . S
O786 C771 1.258 . S
O787 Nd761 2.492 . S
O787 C771 1.239 . S
O788 Nd761 2.487 . S
O788 C778 1.241 . S
O789 Nd760 2.414 . S
O789 Nd761 2.682 . S
O789 C778 1.273 . S
O790 Nd761 2.410 . S
O790 C779 1.251 . S
O791 Nd760 2.424 . S
O791 C779 1.268 . S
H792 C764 0.930 . S
H793 C765 0.929 . S
H794 C767 0.930 . S
H795 C768 0.929 . S
H796 C773 0.930 . S
H797 C774 0.929 . S
H798 C776 0.930 . S
H799 C777 0.929 . S
Nd800 C802 2.836 . S
Nd800 O820 2.500 . S
Nd800 O821 2.492 . S
Nd800 O822 2.487 . S
Nd800 O823 2.682 . S
Nd800 O824 2.410 . S
Nd800 O829 2.414 . S
Nd800 O831 2.424 . S
Nd801 C811 2.836 . S
Nd801 O823 2.414 . S
Nd801 O825 2.424 . S
Nd801 O826 2.500 . S
Nd801 O827 2.492 . S
Nd801 O828 2.487 . S
Nd801 O829 2.682 . S
Nd801 O830 2.410 . S
C802 Nd800 2.836 . S
C802 C803 1.498 . S
C802 O820 1.258 . S
C802 O821 1.239 . S
C803 C802 1.498 . S
C803 C804 1.366 . S
C803 C808 1.407 . S
C804 C803 1.366 . S
C804 C805 1.392 . S
C804 H832 0.930 . S
C805 C804 1.392 . S
C805 C806 1.398 . S
C805 H833 0.929 . S
C806 C805 1.398 . S
C806 C807 1.352 . S
C807 C806 1.352 . S
C807 C808 1.384 . S
C807 H834 0.930 . S
C808 C803 1.407 . S
C808 C807 1.384 . S
C808 H835 0.929 . S
C809 O822 1.241 . S
C809 O823 1.273 . S
C810 O824 1.251 . S
C810 O825 1.268 . S
C811 Nd801 2.836 . S
C811 C812 1.498 . S
C811 O826 1.258 . S
C811 O827 1.239 . S
C812 C811 1.498 . S
C812 C813 1.366 . S
C812 C817 1.407 . S
C813 C812 1.366 . S
C813 C814 1.392 . S
C813 H836 0.930 . S
C814 C813 1.392 . S
C814 C815 1.398 . S
C814 H837 0.929 . S
C815 C814 1.398 . S
C815 C816 1.352 . S
C816 C815 1.352 . S
C816 C817 1.384 . S
C816 H838 0.930 . S
C817 C812 1.407 . S
C817 C816 1.384 . S
C817 H839 0.929 . S
C818 O828 1.241 . S
C818 O829 1.273 . S
C819 O830 1.251 . S
C819 O831 1.268 . S
O820 Nd800 2.500 . S
O820 C802 1.258 . S
O821 Nd800 2.492 . S
O821 C802 1.239 . S
O822 Nd800 2.487 . S
O822 C809 1.241 . S
O823 Nd800 2.682 . S
O823 Nd801 2.414 . S
O823 C809 1.273 . S
O824 Nd800 2.410 . S
O824 C810 1.251 . S
O825 Nd801 2.424 . S
O825 C810 1.268 . S
O826 Nd801 2.500 . S
O826 C811 1.258 . S
O827 Nd801 2.492 . S
O827 C811 1.239 . S
O828 Nd801 2.487 . S
O828 C818 1.241 . S
O829 Nd800 2.414 . S
O829 Nd801 2.682 . S
O829 C818 1.273 . S
O830 Nd801 2.410 . S
O830 C819 1.251 . S
O831 Nd800 2.424 . S
O831 C819 1.268 . S
H832 C804 0.930 . S
H833 C805 0.929 . S
H834 C807 0.930 . S
H835 C808 0.929 . S
H836 C813 0.930 . S
H837 C814 0.929 . S
H838 C816 0.930 . S
H839 C817 0.929 . S
Nd840 C842 2.836 . S
Nd840 O860 2.500 . S
Nd840 O861 2.492 . S
Nd840 O862 2.487 . S
Nd840 O863 2.682 . S
Nd840 O864 2.410 . S
Nd840 O869 2.414 . S
Nd840 O871 2.424 . S
Nd841 C851 2.836 . S
Nd841 O863 2.414 . S
Nd841 O865 2.424 . S
Nd841 O866 2.500 . S
Nd841 O867 2.492 . S
Nd841 O868 2.487 . S
Nd841 O869 2.682 . S
Nd841 O870 2.410 . S
C842 Nd840 2.836 . S
C842 C843 1.498 . S
C842 O860 1.258 . S
C842 O861 1.239 . S
C843 C842 1.498 . S
C843 C844 1.366 . S
C843 C848 1.407 . S
C844 C843 1.366 . S
C844 C845 1.392 . S
C844 H872 0.930 . S
C845 C844 1.392 . S
C845 C846 1.398 . S
C845 H873 0.929 . S
C846 C845 1.398 . S
C846 C847 1.352 . S
C847 C846 1.352 . S
C847 C848 1.384 . S
C847 H874 0.930 . S
C848 C843 1.407 . S
C848 C847 1.384 . S
C848 H875 0.929 . S
C849 O862 1.241 . S
C849 O863 1.273 . S
C850 O864 1.251 . S
C850 O865 1.268 . S
C851 Nd841 2.836 . S
C851 C852 1.498 . S
C851 O866 1.258 . S
C851 O867 1.239 . S
C852 C851 1.498 . S
C852 C853 1.366 . S
C852 C857 1.407 . S
C853 C852 1.366 . S
C853 C854 1.392 . S
C853 H876 0.930 . S
C854 C853 1.392 . S
C854 C855 1.398 . S
C854 H877 0.929 . S
C855 C854 1.398 . S
C855 C856 1.352 . S
C856 C855 1.352 . S
C856 C857 1.384 . S
C856 H878 0.930 . S
C857 C852 1.407 . S
C857 C856 1.384 . S
C857 H879 0.929 . S
C858 O868 1.241 . S
C858 O869 1.273 . S
C859 O870 1.251 . S
C859 O871 1.268 . S
O860 Nd840 2.500 . S
O860 C842 1.258 . S
O861 Nd840 2.492 . S
O861 C842 1.239 . S
O862 Nd840 2.487 . S
O862 C849 1.241 . S
O863 Nd840 2.682 . S
O863 Nd841 2.414 . S
O863 C849 1.273 . S
O864 Nd840 2.410 . S
O864 C850 1.251 . S
O865 Nd841 2.424 . S
O865 C850 1.268 . S
O866 Nd841 2.500 . S
O866 C851 1.258 . S
O867 Nd841 2.492 . S
O867 C851 1.239 . S
O868 Nd841 2.487 . S
O868 C858 1.241 . S
O869 Nd840 2.414 . S
O869 Nd841 2.682 . S
O869 C858 1.273 . S
O870 Nd841 2.410 . S
O870 C859 1.251 . S
O871 Nd840 2.424 . S
O871 C859 1.268 . S
H872 C844 0.930 . S
H873 C845 0.929 . S
H874 C847 0.930 . S
H875 C848 0.929 . S
H876 C853 0.930 . S
H877 C854 0.929 . S
H878 C856 0.930 . S
H879 C857 0.929 . S
Nd880 C882 2.836 . S
Nd880 O900 2.500 . S
Nd880 O901 2.492 . S
Nd880 O902 2.487 . S
Nd880 O903 2.682 . S
Nd880 O904 2.410 . S
Nd880 O909 2.414 . S
Nd880 O911 2.424 . S
Nd881 C891 2.836 . S
Nd881 O903 2.414 . S
Nd881 O905 2.424 . S
Nd881 O906 2.500 . S
Nd881 O907 2.492 . S
Nd881 O908 2.487 . S
Nd881 O909 2.682 . S
Nd881 O910 2.410 . S
C882 Nd880 2.836 . S
C882 C883 1.498 . S
C882 O900 1.258 . S
C882 O901 1.239 . S
C883 C882 1.498 . S
C883 C884 1.366 . S
C883 C888 1.407 . S
C884 C883 1.366 . S
C884 C885 1.392 . S
C884 H912 0.930 . S
C885 C884 1.392 . S
C885 C886 1.398 . S
C885 H913 0.929 . S
C886 C885 1.398 . S
C886 C887 1.352 . S
C887 C886 1.352 . S
C887 C888 1.384 . S
C887 H914 0.930 . S
C888 C883 1.407 . S
C888 C887 1.384 . S
C888 H915 0.929 . S
C889 O902 1.241 . S
C889 O903 1.273 . S
C890 O904 1.251 . S
C890 O905 1.268 . S
C891 Nd881 2.836 . S
C891 C892 1.498 . S
C891 O906 1.258 . S
C891 O907 1.239 . S
C892 C891 1.498 . S
C892 C893 1.366 . S
C892 C897 1.407 . S
C893 C892 1.366 . S
C893 C894 1.392 . S
C893 H916 0.930 . S
C894 C893 1.392 . S
C894 C895 1.398 . S
C894 H917 0.929 . S
C895 C894 1.398 . S
C895 C896 1.352 . S
C896 C895 1.352 . S
C896 C897 1.384 . S
C896 H918 0.930 . S
C897 C892 1.407 . S
C897 C896 1.384 . S
C897 H919 0.929 . S
C898 O908 1.241 . S
C898 O909 1.273 . S
C899 O910 1.251 . S
C899 O911 1.268 . S
O900 Nd880 2.500 . S
O900 C882 1.258 . S
O901 Nd880 2.492 . S
O901 C882 1.239 . S
O902 Nd880 2.487 . S
O902 C889 1.241 . S
O903 Nd880 2.682 . S
O903 Nd881 2.414 . S
O903 C889 1.273 . S
O904 Nd880 2.410 . S
O904 C890 1.251 . S
O905 Nd881 2.424 . S
O905 C890 1.268 . S
O906 Nd881 2.500 . S
O906 C891 1.258 . S
O907 Nd881 2.492 . S
O907 C891 1.239 . S
O908 Nd881 2.487 . S
O908 C898 1.241 . S
O909 Nd880 2.414 . S
O909 Nd881 2.682 . S
O909 C898 1.273 . S
O910 Nd881 2.410 . S
O910 C899 1.251 . S
O911 Nd880 2.424 . S
O911 C899 1.268 . S
H912 C884 0.930 . S
H913 C885 0.929 . S
H914 C887 0.930 . S
H915 C888 0.929 . S
H916 C893 0.930 . S
H917 C894 0.929 . S
H918 C896 0.930 . S
H919 C897 0.929 . S
Nd920 C922 2.836 . S
Nd920 O940 2.500 . S
Nd920 O941 2.492 . S
Nd920 O942 2.487 . S
Nd920 O943 2.682 . S
Nd920 O944 2.410 . S
Nd920 O949 2.414 . S
Nd920 O951 2.424 . S
Nd921 C931 2.836 . S
Nd921 O943 2.414 . S
Nd921 O945 2.424 . S
Nd921 O946 2.500 . S
Nd921 O947 2.492 . S
Nd921 O948 2.487 . S
Nd921 O949 2.682 . S
Nd921 O950 2.410 . S
C922 Nd920 2.836 . S
C922 C923 1.498 . S
C922 O940 1.258 . S
C922 O941 1.239 . S
C923 C922 1.498 . S
C923 C924 1.366 . S
C923 C928 1.407 . S
C924 C923 1.366 . S
C924 C925 1.392 . S
C924 H952 0.930 . S
C925 C924 1.392 . S
C925 C926 1.398 . S
C925 H953 0.929 . S
C926 C925 1.398 . S
C926 C927 1.352 . S
C927 C926 1.352 . S
C927 C928 1.384 . S
C927 H954 0.930 . S
C928 C923 1.407 . S
C928 C927 1.384 . S
C928 H955 0.929 . S
C929 O942 1.241 . S
C929 O943 1.273 . S
C930 O944 1.251 . S
C930 O945 1.268 . S
C931 Nd921 2.836 . S
C931 C932 1.498 . S
C931 O946 1.258 . S
C931 O947 1.239 . S
C932 C931 1.498 . S
C932 C933 1.366 . S
C932 C937 1.407 . S
C933 C932 1.366 . S
C933 C934 1.392 . S
C933 H956 0.930 . S
C934 C933 1.392 . S
C934 C935 1.398 . S
C934 H957 0.929 . S
C935 C934 1.398 . S
C935 C936 1.352 . S
C936 C935 1.352 . S
C936 C937 1.384 . S
C936 H958 0.930 . S
C937 C932 1.407 . S
C937 C936 1.384 . S
C937 H959 0.929 . S
C938 O948 1.241 . S
C938 O949 1.273 . S
C939 O950 1.251 . S
C939 O951 1.268 . S
O940 Nd920 2.500 . S
O940 C922 1.258 . S
O941 Nd920 2.492 . S
O941 C922 1.239 . S
O942 Nd920 2.487 . S
O942 C929 1.241 . S
O943 Nd920 2.682 . S
O943 Nd921 2.414 . S
O943 C929 1.273 . S
O944 Nd920 2.410 . S
O944 C930 1.251 . S
O945 Nd921 2.424 . S
O945 C930 1.268 . S
O946 Nd921 2.500 . S
O946 C931 1.258 . S
O947 Nd921 2.492 . S
O947 C931 1.239 . S
O948 Nd921 2.487 . S
O948 C938 1.241 . S
O949 Nd920 2.414 . S
O949 Nd921 2.682 . S
O949 C938 1.273 . S
O950 Nd921 2.410 . S
O950 C939 1.251 . S
O951 Nd920 2.424 . S
O951 C939 1.268 . S
H952 C924 0.930 . S
H953 C925 0.929 . S
H954 C927 0.930 . S
H955 C928 0.929 . S
H956 C933 0.930 . S
H957 C934 0.929 . S
H958 C936 0.930 . S
H959 C937 0.929 . S
Nd960 C962 2.836 . S
Nd960 O980 2.500 . S
Nd960 O981 2.492 . S
Nd960 O982 2.487 . S
Nd960 O983 2.682 . S
Nd960 O984 2.410 . S
Nd960 O989 2.414 . S
Nd960 O991 2.424 . S
Nd961 C971 2.836 . S
Nd961 O983 2.414 . S
Nd961 O985 2.424 . S
Nd961 O986 2.500 . S
Nd961 O987 2.492 . S
Nd961 O988 2.487 . S
Nd961 O989 2.682 . S
Nd961 O990 2.410 . S
C962 Nd960 2.836 . S
C962 C963 1.498 . S
C962 O980 1.258 . S
C962 O981 1.239 . S
C963 C962 1.498 . S
C963 C964 1.366 . S
C963 C968 1.407 . S
C964 C963 1.366 . S
C964 C965 1.392 . S
C964 H992 0.930 . S
C965 C964 1.392 . S
C965 C966 1.398 . S
C965 H993 0.929 . S
C966 C965 1.398 . S
C966 C967 1.352 . S
C967 C966 1.352 . S
C967 C968 1.384 . S
C967 H994 0.930 . S
C968 C963 1.407 . S
C968 C967 1.384 . S
C968 H995 0.929 . S
C969 O982 1.241 . S
C969 O983 1.273 . S
C970 O984 1.251 . S
C970 O985 1.268 . S
C971 Nd961 2.836 . S
C971 C972 1.498 . S
C971 O986 1.258 . S
C971 O987 1.239 . S
C972 C971 1.498 . S
C972 C973 1.366 . S
C972 C977 1.407 . S
C973 C972 1.366 . S
C973 C974 1.392 . S
C973 H996 0.930 . S
C974 C973 1.392 . S
C974 C975 1.398 . S
C974 H997 0.929 . S
C975 C974 1.398 . S
C975 C976 1.352 . S
C976 C975 1.352 . S
C976 C977 1.384 . S
C976 H998 0.930 . S
C977 C972 1.407 . S
C977 C976 1.384 . S
C977 H999 0.929 . S
C978 O988 1.241 . S
C978 O989 1.273 . S
C979 O990 1.251 . S
C979 O991 1.268 . S
O980 Nd960 2.500 . S
O980 C962 1.258 . S
O981 Nd960 2.492 . S
O981 C962 1.239 . S
O982 Nd960 2.487 . S
O982 C969 1.241 . S
O983 Nd960 2.682 . S
O983 Nd961 2.414 . S
O983 C969 1.273 . S
O984 Nd960 2.410 . S
O984 C970 1.251 . S
O985 Nd961 2.424 . S
O985 C970 1.268 . S
O986 Nd961 2.500 . S
O986 C971 1.258 . S
O987 Nd961 2.492 . S
O987 C971 1.239 . S
O988 Nd961 2.487 . S
O988 C978 1.241 . S
O989 Nd960 2.414 . S
O989 Nd961 2.682 . S
O989 C978 1.273 . S
O990 Nd961 2.410 . S
O990 C979 1.251 . S
O991 Nd960 2.424 . S
O991 C979 1.268 . S
H992 C964 0.930 . S
H993 C965 0.929 . S
H994 C967 0.930 . S
H995 C968 0.929 . S
H996 C973 0.930 . S
H997 C974 0.929 . S
H998 C976 0.930 . S
H999 C977 0.929 . S
Nd1000 C1002 2.836 . S
Nd1000 O1020 2.500 . S
Nd1000 O1021 2.492 . S
Nd1000 O1022 2.487 . S
Nd1000 O1023 2.682 . S
Nd1000 O1024 2.410 . S
Nd1000 O1029 2.414 . S
Nd1000 O1031 2.424 . S
Nd1001 C1011 2.836 . S
Nd1001 O1023 2.414 . S
Nd1001 O1025 2.424 . S
Nd1001 O1026 2.500 . S
Nd1001 O1027 2.492 . S
Nd1001 O1028 2.487 . S
Nd1001 O1029 2.682 . S
Nd1001 O1030 2.410 . S
C1002 Nd1000 2.836 . S
C1002 C1003 1.498 . S
C1002 O1020 1.258 . S
C1002 O1021 1.239 . S
C1003 C1002 1.498 . S
C1003 C1004 1.366 . S
C1003 C1008 1.407 . S
C1004 C1003 1.366 . S
C1004 C1005 1.392 . S
C1004 H1032 0.930 . S
C1005 C1004 1.392 . S
C1005 C1006 1.398 . S
C1005 H1033 0.929 . S
C1006 C1005 1.398 . S
C1006 C1007 1.352 . S
C1007 C1006 1.352 . S
C1007 C1008 1.384 . S
C1007 H1034 0.930 . S
C1008 C1003 1.407 . S
C1008 C1007 1.384 . S
C1008 H1035 0.929 . S
C1009 O1022 1.241 . S
C1009 O1023 1.273 . S
C1010 O1024 1.251 . S
C1010 O1025 1.268 . S
C1011 Nd1001 2.836 . S
C1011 C1012 1.498 . S
C1011 O1026 1.258 . S
C1011 O1027 1.239 . S
C1012 C1011 1.498 . S
C1012 C1013 1.366 . S
C1012 C1017 1.407 . S
C1013 C1012 1.366 . S
C1013 C1014 1.392 . S
C1013 H1036 0.930 . S
C1014 C1013 1.392 . S
C1014 C1015 1.398 . S
C1014 H1037 0.929 . S
C1015 C1014 1.398 . S
C1015 C1016 1.352 . S
C1016 C1015 1.352 . S
C1016 C1017 1.384 . S
C1016 H1038 0.930 . S
C1017 C1012 1.407 . S
C1017 C1016 1.384 . S
C1017 H1039 0.929 . S
C1018 O1028 1.241 . S
C1018 O1029 1.273 . S
C1019 O1030 1.251 . S
C1019 O1031 1.268 . S
O1020 Nd1000 2.500 . S
O1020 C1002 1.258 . S
O1021 Nd1000 2.492 . S
O1021 C1002 1.239 . S
O1022 Nd1000 2.487 . S
O1022 C1009 1.241 . S
O1023 Nd1000 2.682 . S
O1023 Nd1001 2.414 . S
O1023 C1009 1.273 . S
O1024 Nd1000 2.410 . S
O1024 C1010 1.251 . S
O1025 Nd1001 2.424 . S
O1025 C1010 1.268 . S
O1026 Nd1001 2.500 . S
O1026 C1011 1.258 . S
O1027 Nd1001 2.492 . S
O1027 C1011 1.239 . S
O1028 Nd1001 2.487 . S
O1028 C1018 1.241 . S
O1029 Nd1000 2.414 . S
O1029 Nd1001 2.682 . S
O1029 C1018 1.273 . S
O1030 Nd1001 2.410 . S
O1030 C1019 1.251 . S
O1031 Nd1000 2.424 . S
O1031 C1019 1.268 . S
H1032 C1004 0.930 . S
H1033 C1005 0.929 . S
H1034 C1007 0.930 . S
H1035 C1008 0.929 . S
H1036 C1013 0.930 . S
H1037 C1014 0.929 . S
H1038 C1016 0.930 . S
H1039 C1017 0.929 . S
Nd1040 C1042 2.836 . S
Nd1040 O1060 2.500 . S
Nd1040 O1061 2.492 . S
Nd1040 O1062 2.487 . S
Nd1040 O1063 2.682 . S
Nd1040 O1064 2.410 . S
Nd1040 O1069 2.414 . S
Nd1040 O1071 2.424 . S
Nd1041 C1051 2.836 . S
Nd1041 O1063 2.414 . S
Nd1041 O1065 2.424 . S
Nd1041 O1066 2.500 . S
Nd1041 O1067 2.492 . S
Nd1041 O1068 2.487 . S
Nd1041 O1069 2.682 . S
Nd1041 O1070 2.410 . S
C1042 Nd1040 2.836 . S
C1042 C1043 1.498 . S
C1042 O1060 1.258 . S
C1042 O1061 1.239 . S
C1043 C1042 1.498 . S
C1043 C1044 1.366 . S
C1043 C1048 1.407 . S
C1044 C1043 1.366 . S
C1044 C1045 1.392 . S
C1044 H1072 0.930 . S
C1045 C1044 1.392 . S
C1045 C1046 1.398 . S
C1045 H1073 0.929 . S
C1046 C1045 1.398 . S
C1046 C1047 1.352 . S
C1047 C1046 1.352 . S
C1047 C1048 1.384 . S
C1047 H1074 0.930 . S
C1048 C1043 1.407 . S
C1048 C1047 1.384 . S
C1048 H1075 0.929 . S
C1049 O1062 1.241 . S
C1049 O1063 1.273 . S
C1050 O1064 1.251 . S
C1050 O1065 1.268 . S
C1051 Nd1041 2.836 . S
C1051 C1052 1.498 . S
C1051 O1066 1.258 . S
C1051 O1067 1.239 . S
C1052 C1051 1.498 . S
C1052 C1053 1.366 . S
C1052 C1057 1.407 . S
C1053 C1052 1.366 . S
C1053 C1054 1.392 . S
C1053 H1076 0.930 . S
C1054 C1053 1.392 . S
C1054 C1055 1.398 . S
C1054 H1077 0.929 . S
C1055 C1054 1.398 . S
C1055 C1056 1.352 . S
C1056 C1055 1.352 . S
C1056 C1057 1.384 . S
C1056 H1078 0.930 . S
C1057 C1052 1.407 . S
C1057 C1056 1.384 . S
C1057 H1079 0.929 . S
C1058 O1068 1.241 . S
C1058 O1069 1.273 . S
C1059 O1070 1.251 . S
C1059 O1071 1.268 . S
O1060 Nd1040 2.500 . S
O1060 C1042 1.258 . S
O1061 Nd1040 2.492 . S
O1061 C1042 1.239 . S
O1062 Nd1040 2.487 . S
O1062 C1049 1.241 . S
O1063 Nd1040 2.682 . S
O1063 Nd1041 2.414 . S
O1063 C1049 1.273 . S
O1064 Nd1040 2.410 . S
O1064 C1050 1.251 . S
O1065 Nd1041 2.424 . S
O1065 C1050 1.268 . S
O1066 Nd1041 2.500 . S
O1066 C1051 1.258 . S
O1067 Nd1041 2.492 . S
O1067 C1051 1.239 . S
O1068 Nd1041 2.487 . S
O1068 C1058 1.241 . S
O1069 Nd1040 2.414 . S
O1069 Nd1041 2.682 . S
O1069 C1058 1.273 . S
O1070 Nd1041 2.410 . S
O1070 C1059 1.251 . S
O1071 Nd1040 2.424 . S
O1071 C1059 1.268 . S
H1072 C1044 0.930 . S
H1073 C1045 0.929 . S
H1074 C1047 0.930 . S
H1075 C1048 0.929 . S
H1076 C1053 0.930 . S
H1077 C1054 0.929 . S
H1078 C1056 0.930 . S
H1079 C1057 0.929 . S
Nd1080 C1082 2.836 . S
Nd1080 O1100 2.500 . S
Nd1080 O1101 2.492 . S
Nd1080 O1102 2.487 . S
Nd1080 O1103 2.682 . S
Nd1080 O1104 2.410 . S
Nd1080 O1109 2.414 . S
Nd1080 O1111 2.424 . S
Nd1081 C1091 2.836 . S
Nd1081 O1103 2.414 . S
Nd1081 O1105 2.424 . S
Nd1081 O1106 2.500 . S
Nd1081 O1107 2.492 . S
Nd1081 O1108 2.487 . S
Nd1081 O1109 2.682 . S
Nd1081 O1110 2.410 . S
C1082 Nd1080 2.836 . S
C1082 C1083 1.498 . S
C1082 O1100 1.258 . S
C1082 O1101 1.239 . S
C1083 C1082 1.498 . S
C1083 C1084 1.366 . S
C1083 C1088 1.407 . S
C1084 C1083 1.366 . S
C1084 C1085 1.392 . S
C1084 H1112 0.930 . S
C1085 C1084 1.392 . S
C1085 C1086 1.398 . S
C1085 H1113 0.929 . S
C1086 C1085 1.398 . S
C1086 C1087 1.352 . S
C1087 C1086 1.352 . S
C1087 C1088 1.384 . S
C1087 H1114 0.930 . S
C1088 C1083 1.407 . S
C1088 C1087 1.384 . S
C1088 H1115 0.929 . S
C1089 O1102 1.241 . S
C1089 O1103 1.273 . S
C1090 O1104 1.251 . S
C1090 O1105 1.268 . S
C1091 Nd1081 2.836 . S
C1091 C1092 1.498 . S
C1091 O1106 1.258 . S
C1091 O1107 1.239 . S
C1092 C1091 1.498 . S
C1092 C1093 1.366 . S
C1092 C1097 1.407 . S
C1093 C1092 1.366 . S
C1093 C1094 1.392 . S
C1093 H1116 0.930 . S
C1094 C1093 1.392 . S
C1094 C1095 1.398 . S
C1094 H1117 0.929 . S
C1095 C1094 1.398 . S
C1095 C1096 1.352 . S
C1096 C1095 1.352 . S
C1096 C1097 1.384 . S
C1096 H1118 0.930 . S
C1097 C1092 1.407 . S
C1097 C1096 1.384 . S
C1097 H1119 0.929 . S
C1098 O1108 1.241 . S
C1098 O1109 1.273 . S
C1099 O1110 1.251 . S
C1099 O1111 1.268 . S
O1100 Nd1080 2.500 . S
O1100 C1082 1.258 . S
O1101 Nd1080 2.492 . S
O1101 C1082 1.239 . S
O1102 Nd1080 2.487 . S
O1102 C1089 1.241 . S
O1103 Nd1080 2.682 . S
O1103 Nd1081 2.414 . S
O1103 C1089 1.273 . S
O1104 Nd1080 2.410 . S
O1104 C1090 1.251 . S
O1105 Nd1081 2.424 . S
O1105 C1090 1.268 . S
O1106 Nd1081 2.500 . S
O1106 C1091 1.258 . S
O1107 Nd1081 2.492 . S
O1107 C1091 1.239 . S
O1108 Nd1081 2.487 . S
O1108 C1098 1.241 . S
O1109 Nd1080 2.414 . S
O1109 Nd1081 2.682 . S
O1109 C1098 1.273 . S
O1110 Nd1081 2.410 . S
O1110 C1099 1.251 . S
O1111 Nd1080 2.424 . S
O1111 C1099 1.268 . S
H1112 C1084 0.930 . S
H1113 C1085 0.929 . S
H1114 C1087 0.930 . S
H1115 C1088 0.929 . S
H1116 C1093 0.930 . S
H1117 C1094 0.929 . S
H1118 C1096 0.930 . S
H1119 C1097 0.929 . S
Nd1120 C1122 2.836 . S
Nd1120 O1140 2.500 . S
Nd1120 O1141 2.492 . S
Nd1120 O1142 2.487 . S
Nd1120 O1143 2.682 . S
Nd1120 O1144 2.410 . S
Nd1120 O1149 2.414 . S
Nd1120 O1151 2.424 . S
Nd1121 C1131 2.836 . S
Nd1121 O1143 2.414 . S
Nd1121 O1145 2.424 . S
Nd1121 O1146 2.500 . S
Nd1121 O1147 2.492 . S
Nd1121 O1148 2.487 . S
Nd1121 O1149 2.682 . S
Nd1121 O1150 2.410 . S
C1122 Nd1120 2.836 . S
C1122 C1123 1.498 . S
C1122 O1140 1.258 . S
C1122 O1141 1.239 . S
C1123 C1122 1.498 . S
C1123 C1124 1.366 . S
C1123 C1128 1.407 . S
C1124 C1123 1.366 . S
C1124 C1125 1.392 . S
C1124 H1152 0.930 . S
C1125 C1124 1.392 . S
C1125 C1126 1.398 . S
C1125 H1153 0.929 . S
C1126 C1125 1.398 . S
C1126 C1127 1.352 . S
C1127 C1126 1.352 . S
C1127 C1128 1.384 . S
C1127 H1154 0.930 . S
C1128 C1123 1.407 . S
C1128 C1127 1.384 . S
C1128 H1155 0.929 . S
C1129 O1142 1.241 . S
C1129 O1143 1.273 . S
C1130 O1144 1.251 . S
C1130 O1145 1.268 . S
C1131 Nd1121 2.836 . S
C1131 C1132 1.498 . S
C1131 O1146 1.258 . S
C1131 O1147 1.239 . S
C1132 C1131 1.498 . S
C1132 C1133 1.366 . S
C1132 C1137 1.407 . S
C1133 C1132 1.366 . S
C1133 C1134 1.392 . S
C1133 H1156 0.930 . S
C1134 C1133 1.392 . S
C1134 C1135 1.398 . S
C1134 H1157 0.929 . S
C1135 C1134 1.398 . S
C1135 C1136 1.352 . S
C1136 C1135 1.352 . S
C1136 C1137 1.384 . S
C1136 H1158 0.930 . S
C1137 C1132 1.407 . S
C1137 C1136 1.384 . S
C1137 H1159 0.929 . S
C1138 O1148 1.241 . S
C1138 O1149 1.273 . S
C1139 O1150 1.251 . S
C1139 O1151 1.268 . S
O1140 Nd1120 2.500 . S
O1140 C1122 1.258 . S
O1141 Nd1120 2.492 . S
O1141 C1122 1.239 . S
O1142 Nd1120 2.487 . S
O1142 C1129 1.241 . S
O1143 Nd1120 2.682 . S
O1143 Nd1121 2.414 . S
O1143 C1129 1.273 . S
O1144 Nd1120 2.410 . S
O1144 C1130 1.251 . S
O1145 Nd1121 2.424 . S
O1145 C1130 1.268 . S
O1146 Nd1121 2.500 . S
O1146 C1131 1.258 . S
O1147 Nd1121 2.492 . S
O1147 C1131 1.239 . S
O1148 Nd1121 2.487 . S
O1148 C1138 1.241 . S
O1149 Nd1120 2.414 . S
O1149 Nd1121 2.682 . S
O1149 C1138 1.273 . S
O1150 Nd1121 2.410 . S
O1150 C1139 1.251 . S
O1151 Nd1120 2.424 . S
O1151 C1139 1.268 . S
H1152 C1124 0.930 . S
H1153 C1125 0.929 . S
H1154 C1127 0.930 . S
H1155 C1128 0.929 . S
H1156 C1133 0.930 . S
H1157 C1134 0.929 . S
H1158 C1136 0.930 . S
H1159 C1137 0.929 . S
Nd1160 C1162 2.836 . S
Nd1160 O1180 2.500 . S
Nd1160 O1181 2.492 . S
Nd1160 O1182 2.487 . S
Nd1160 O1183 2.682 . S
Nd1160 O1184 2.410 . S
Nd1160 O1189 2.414 . S
Nd1160 O1191 2.424 . S
Nd1161 C1171 2.836 . S
Nd1161 O1183 2.414 . S
Nd1161 O1185 2.424 . S
Nd1161 O1186 2.500 . S
Nd1161 O1187 2.492 . S
Nd1161 O1188 2.487 . S
Nd1161 O1189 2.682 . S
Nd1161 O1190 2.410 . S
C1162 Nd1160 2.836 . S
C1162 C1163 1.498 . S
C1162 O1180 1.258 . S
C1162 O1181 1.239 . S
C1163 C1162 1.498 . S
C1163 C1164 1.366 . S
C1163 C1168 1.407 . S
C1164 C1163 1.366 . S
C1164 C1165 1.392 . S
C1164 H1192 0.930 . S
C1165 C1164 1.392 . S
C1165 C1166 1.398 . S
C1165 H1193 0.929 . S
C1166 C1165 1.398 . S
C1166 C1167 1.352 . S
C1167 C1166 1.352 . S
C1167 C1168 1.384 . S
C1167 H1194 0.930 . S
C1168 C1163 1.407 . S
C1168 C1167 1.384 . S
C1168 H1195 0.929 . S
C1169 O1182 1.241 . S
C1169 O1183 1.273 . S
C1170 O1184 1.251 . S
C1170 O1185 1.268 . S
C1171 Nd1161 2.836 . S
C1171 C1172 1.498 . S
C1171 O1186 1.258 . S
C1171 O1187 1.239 . S
C1172 C1171 1.498 . S
C1172 C1173 1.366 . S
C1172 C1177 1.407 . S
C1173 C1172 1.366 . S
C1173 C1174 1.392 . S
C1173 H1196 0.930 . S
C1174 C1173 1.392 . S
C1174 C1175 1.398 . S
C1174 H1197 0.929 . S
C1175 C1174 1.398 . S
C1175 C1176 1.352 . S
C1176 C1175 1.352 . S
C1176 C1177 1.384 . S
C1176 H1198 0.930 . S
C1177 C1172 1.407 . S
C1177 C1176 1.384 . S
C1177 H1199 0.929 . S
C1178 O1188 1.241 . S
C1178 O1189 1.273 . S
C1179 O1190 1.251 . S
C1179 O1191 1.268 . S
O1180 Nd1160 2.500 . S
O1180 C1162 1.258 . S
O1181 Nd1160 2.492 . S
O1181 C1162 1.239 . S
O1182 Nd1160 2.487 . S
O1182 C1169 1.241 . S
O1183 Nd1160 2.682 . S
O1183 Nd1161 2.414 . S
O1183 C1169 1.273 . S
O1184 Nd1160 2.410 . S
O1184 C1170 1.251 . S
O1185 Nd1161 2.424 . S
O1185 C1170 1.268 . S
O1186 Nd1161 2.500 . S
O1186 C1171 1.258 . S
O1187 Nd1161 2.492 . S
O1187 C1171 1.239 . S
O1188 Nd1161 2.487 . S
O1188 C1178 1.241 . S
O1189 Nd1160 2.414 . S
O1189 Nd1161 2.682 . S
O1189 C1178 1.273 . S
O1190 Nd1161 2.410 . S
O1190 C1179 1.251 . S
O1191 Nd1160 2.424 . S
O1191 C1179 1.268 . S
H1192 C1164 0.930 . S
H1193 C1165 0.929 . S
H1194 C1167 0.930 . S
H1195 C1168 0.929 . S
H1196 C1173 0.930 . S
H1197 C1174 0.929 . S
H1198 C1176 0.930 . S
H1199 C1177 0.929 . S
Nd1200 C1202 2.836 . S
Nd1200 O1220 2.500 . S
Nd1200 O1221 2.492 . S
Nd1200 O1222 2.487 . S
Nd1200 O1223 2.682 . S
Nd1200 O1224 2.410 . S
Nd1200 O1229 2.414 . S
Nd1200 O1231 2.424 . S
Nd1201 C1211 2.836 . S
Nd1201 O1223 2.414 . S
Nd1201 O1225 2.424 . S
Nd1201 O1226 2.500 . S
Nd1201 O1227 2.492 . S
Nd1201 O1228 2.487 . S
Nd1201 O1229 2.682 . S
Nd1201 O1230 2.410 . S
C1202 Nd1200 2.836 . S
C1202 C1203 1.498 . S
C1202 O1220 1.258 . S
C1202 O1221 1.239 . S
C1203 C1202 1.498 . S
C1203 C1204 1.366 . S
C1203 C1208 1.407 . S
C1204 C1203 1.366 . S
C1204 C1205 1.392 . S
C1204 H1232 0.930 . S
C1205 C1204 1.392 . S
C1205 C1206 1.398 . S
C1205 H1233 0.929 . S
C1206 C1205 1.398 . S
C1206 C1207 1.352 . S
C1207 C1206 1.352 . S
C1207 C1208 1.384 . S
C1207 H1234 0.930 . S
C1208 C1203 1.407 . S
C1208 C1207 1.384 . S
C1208 H1235 0.929 . S
C1209 O1222 1.241 . S
C1209 O1223 1.273 . S
C1210 O1224 1.251 . S
C1210 O1225 1.268 . S
C1211 Nd1201 2.836 . S
C1211 C1212 1.498 . S
C1211 O1226 1.258 . S
C1211 O1227 1.239 . S
C1212 C1211 1.498 . S
C1212 C1213 1.366 . S
C1212 C1217 1.407 . S
C1213 C1212 1.366 . S
C1213 C1214 1.392 . S
C1213 H1236 0.930 . S
C1214 C1213 1.392 . S
C1214 C1215 1.398 . S
C1214 H1237 0.929 . S
C1215 C1214 1.398 . S
C1215 C1216 1.352 . S
C1216 C1215 1.352 . S
C1216 C1217 1.384 . S
C1216 H1238 0.930 . S
C1217 C1212 1.407 . S
C1217 C1216 1.384 . S
C1217 H1239 0.929 . S
C1218 O1228 1.241 . S
C1218 O1229 1.273 . S
C1219 O1230 1.251 . S
C1219 O1231 1.268 . S
O1220 Nd1200 2.500 . S
O1220 C1202 1.258 . S
O1221 Nd1200 2.492 . S
O1221 C1202 1.239 . S
O1222 Nd1200 2.487 . S
O1222 C1209 1.241 . S
O1223 Nd1200 2.682 . S
O1223 Nd1201 2.414 . S
O1223 C1209 1.273 . S
O1224 Nd1200 2.410 . S
O1224 C1210 1.251 . S
O1225 Nd1201 2.424 . S
O1225 C1210 1.268 . S
O1226 Nd1201 2.500 . S
O1226 C1211 1.258 . S
O1227 Nd1201 2.492 . S
O1227 C1211 1.239 . S
O1228 Nd1201 2.487 . S
O1228 C1218 1.241 . S
O1229 Nd1200 2.414 . S
O1229 Nd1201 2.682 . S
O1229 C1218 1.273 . S
O1230 Nd1201 2.410 . S
O1230 C1219 1.251 . S
O1231 Nd1200 2.424 . S
O1231 C1219 1.268 . S
H1232 C1204 0.930 . S
H1233 C1205 0.929 . S
H1234 C1207 0.930 . S
H1235 C1208 0.929 . S
H1236 C1213 0.930 . S
H1237 C1214 0.929 . S
H1238 C1216 0.930 . S
H1239 C1217 0.929 . S
Nd1240 C1242 2.836 . S
Nd1240 O1260 2.500 . S
Nd1240 O1261 2.492 . S
Nd1240 O1262 2.487 . S
Nd1240 O1263 2.682 . S
Nd1240 O1264 2.410 . S
Nd1240 O1269 2.414 . S
Nd1240 O1271 2.424 . S
Nd1241 C1251 2.836 . S
Nd1241 O1263 2.414 . S
Nd1241 O1265 2.424 . S
Nd1241 O1266 2.500 . S
Nd1241 O1267 2.492 . S
Nd1241 O1268 2.487 . S
Nd1241 O1269 2.682 . S
Nd1241 O1270 2.410 . S
C1242 Nd1240 2.836 . S
C1242 C1243 1.498 . S
C1242 O1260 1.258 . S
C1242 O1261 1.239 . S
C1243 C1242 1.498 . S
C1243 C1244 1.366 . S
C1243 C1248 1.407 . S
C1244 C1243 1.366 . S
C1244 C1245 1.392 . S
C1244 H1272 0.930 . S
C1245 C1244 1.392 . S
C1245 C1246 1.398 . S
C1245 H1273 0.929 . S
C1246 C1245 1.398 . S
C1246 C1247 1.352 . S
C1247 C1246 1.352 . S
C1247 C1248 1.384 . S
C1247 H1274 0.930 . S
C1248 C1243 1.407 . S
C1248 C1247 1.384 . S
C1248 H1275 0.929 . S
C1249 O1262 1.241 . S
C1249 O1263 1.273 . S
C1250 O1264 1.251 . S
C1250 O1265 1.268 . S
C1251 Nd1241 2.836 . S
C1251 C1252 1.498 . S
C1251 O1266 1.258 . S
C1251 O1267 1.239 . S
C1252 C1251 1.498 . S
C1252 C1253 1.366 . S
C1252 C1257 1.407 . S
C1253 C1252 1.366 . S
C1253 C1254 1.392 . S
C1253 H1276 0.930 . S
C1254 C1253 1.392 . S
C1254 C1255 1.398 . S
C1254 H1277 0.929 . S
C1255 C1254 1.398 . S
C1255 C1256 1.352 . S
C1256 C1255 1.352 . S
C1256 C1257 1.384 . S
C1256 H1278 0.930 . S
C1257 C1252 1.407 . S
C1257 C1256 1.384 . S
C1257 H1279 0.929 . S
C1258 O1268 1.241 . S
C1258 O1269 1.273 . S
C1259 O1270 1.251 . S
C1259 O1271 1.268 . S
O1260 Nd1240 2.500 . S
O1260 C1242 1.258 . S
O1261 Nd1240 2.492 . S
O1261 C1242 1.239 . S
O1262 Nd1240 2.487 . S
O1262 C1249 1.241 . S
O1263 Nd1240 2.682 . S
O1263 Nd1241 2.414 . S
O1263 C1249 1.273 . S
O1264 Nd1240 2.410 . S
O1264 C1250 1.251 . S
O1265 Nd1241 2.424 . S
O1265 C1250 1.268 . S
O1266 Nd1241 2.500 . S
O1266 C1251 1.258 . S
O1267 Nd1241 2.492 . S
O1267 C1251 1.239 . S
O1268 Nd1241 2.487 . S
O1268 C1258 1.241 . S
O1269 Nd1240 2.414 . S
O1269 Nd1241 2.682 . S
O1269 C1258 1.273 . S
O1270 Nd1241 2.410 . S
O1270 C1259 1.251 . S
O1271 Nd1240 2.424 . S
O1271 C1259 1.268 . S
H1272 C1244 0.930 . S
H1273 C1245 0.929 . S
H1274 C1247 0.930 . S
H1275 C1248 0.929 . S
H1276 C1253 0.930 . S
H1277 C1254 0.929 . S
H1278 C1256 0.930 . S
H1279 C1257 0.929 . S
C1280 C1281 1.349 . S
C1280 C1282 1.327 . S
C1280 H1305 0.950 . S
C1281 C1280 1.349 . S
C1281 C1297 1.349 . S
C1282 C1280 1.327 . S
C1282 C1301 1.429 . S
C1282 H1306 0.950 . S
C1283 C1300 1.574 . S
C1283 C1302 1.368 . S
C1283 H1307 0.949 . S
H1284 C1288 0.949 . S
C1285 C1286 1.349 . S
C1285 C1287 1.327 . S
C1285 H1308 0.950 . S
C1286 C1285 1.349 . S
C1286 C1298 1.349 . S
C1287 C1285 1.327 . S
C1287 C1303 1.429 . S
C1287 H1309 0.950 . S
C1288 H1284 0.949 . S
C1288 C1296 1.574 . S
C1288 C1304 1.368 . S
H1289 C1297 0.950 . S
H1290 C1295 0.950 . S
H1291 C1296 0.949 . S
H1292 C1298 0.950 . S
H1293 C1299 0.950 . S
H1294 C1300 0.949 . S
C1295 H1290 0.950 . S
C1295 C1297 1.327 . S
C1295 C1301 1.429 . S
C1296 C1288 1.574 . S
C1296 H1291 0.949 . S
C1296 C1302 1.368 . S
C1297 C1281 1.349 . S
C1297 H1289 0.950 . S
C1297 C1295 1.327 . S
C1298 C1286 1.349 . S
C1298 H1292 0.950 . S
C1298 C1299 1.327 . S
C1299 H1293 0.950 . S
C1299 C1298 1.327 . S
C1299 C1303 1.429 . S
C1300 C1283 1.574 . S
C1300 H1294 0.949 . S
C1300 C1304 1.368 . S
C1301 C1282 1.429 . S
C1301 C1295 1.429 . S
C1301 C1302 1.523 . S
C1302 C1283 1.368 . S
C1302 C1296 1.368 . S
C1302 C1301 1.523 . S
C1303 C1287 1.429 . S
C1303 C1299 1.429 . S
C1303 C1304 1.523 . S
C1304 C1288 1.368 . S
C1304 C1300 1.368 . S
C1304 C1303 1.523 . S
H1305 C1280 0.950 . S
H1306 C1282 0.950 . S
H1307 C1283 0.949 . S
H1308 C1285 0.950 . S
H1309 C1287 0.950 . S
C1310 C1311 1.349 . S
C1310 C1312 1.327 . S
C1310 H1335 0.950 . S
C1311 C1310 1.349 . S
C1311 C1327 1.349 . S
C1312 C1310 1.327 . S
C1312 C1331 1.429 . S
C1312 H1336 0.950 . S
C1313 C1330 1.574 . S
C1313 C1332 1.368 . S
C1313 H1337 0.949 . S
H1314 C1318 0.949 . S
C1315 C1316 1.349 . S
C1315 C1317 1.327 . S
C1315 H1338 0.950 . S
C1316 C1315 1.349 . S
C1316 C1328 1.349 . S
C1317 C1315 1.327 . S
C1317 C1333 1.429 1_655 S
C1317 H1339 0.950 . S
C1318 H1314 0.949 . S
C1318 C1326 1.574 . S
C1318 C1334 1.368 . S
H1319 C1327 0.950 . S
H1320 C1325 0.950 . S
H1321 C1326 0.949 . S
H1322 C1328 0.950 . S
H1323 C1329 0.974 . S
H1324 C1330 0.949 . S
C1325 H1320 0.950 . S
C1325 C1327 1.327 . S
C1325 C1331 1.429 . S
C1326 C1318 1.574 . S
C1326 H1321 0.949 . S
C1326 C1332 1.368 . S
C1327 C1311 1.349 . S
C1327 H1319 0.950 . S
C1327 C1325 1.327 . S
C1328 C1316 1.349 . S
C1328 H1322 0.950 . S
C1328 C1329 1.298 1_655 S
C1329 H1323 0.974 . S
C1329 C1328 1.298 1_455 S
C1329 C1333 1.435 . S
C1330 C1313 1.574 . S
C1330 H1324 0.949 . S
C1330 C1334 1.368 . S
C1331 C1312 1.429 . S
C1331 C1325 1.429 . S
C1331 C1332 1.523 . S
C1332 C1313 1.368 . S
C1332 C1326 1.368 . S
C1332 C1331 1.523 . S
C1333 C1317 1.429 1_455 S
C1333 C1329 1.435 . S
C1333 C1334 1.523 . S
C1334 C1318 1.368 . S
C1334 C1330 1.368 . S
C1334 C1333 1.523 . S
H1335 C1310 0.950 . S
H1336 C1312 0.950 . S
H1337 C1313 0.949 . S
H1338 C1315 0.950 . S
H1339 C1317 0.950 . S
C1340 C1341 1.349 . S
C1340 C1342 1.327 . S
C1340 H1365 0.950 . S
C1341 C1340 1.349 . S
C1341 C1357 1.349 . S
C1342 C1340 1.327 . S
C1342 C1361 1.429 . S
C1342 H1366 0.950 . S
C1343 C1360 1.574 . S
C1343 C1362 1.368 . S
C1343 H1367 0.949 . S
H1344 C1348 0.949 . S
C1345 C1346 1.349 . S
C1345 C1347 1.327 . S
C1345 H1368 0.950 . S
C1346 C1345 1.349 . S
C1346 C1358 1.349 . S
C1347 C1345 1.327 . S
C1347 C1363 1.429 . S
C1347 H1369 0.950 . S
C1348 H1344 0.949 . S
C1348 C1356 1.574 . S
C1348 C1364 1.368 . S
H1349 C1357 0.950 . S
H1350 C1355 0.950 . S
H1351 C1356 0.949 . S
H1352 C1358 0.950 . S
H1353 C1359 0.950 . S
H1354 C1360 0.949 . S
C1355 H1350 0.950 . S
C1355 C1357 1.327 . S
C1355 C1361 1.429 . S
C1356 C1348 1.574 . S
C1356 H1351 0.949 . S
C1356 C1362 1.368 . S
C1357 C1341 1.349 . S
C1357 H1349 0.950 . S
C1357 C1355 1.327 . S
C1358 C1346 1.349 . S
C1358 H1352 0.950 . S
C1358 C1359 1.327 . S
C1359 H1353 0.950 . S
C1359 C1358 1.327 . S
C1359 C1363 1.429 . S
C1360 C1343 1.574 . S
C1360 H1354 0.949 . S
C1360 C1364 1.368 . S
C1361 C1342 1.429 . S
C1361 C1355 1.429 . S
C1361 C1362 1.523 . S
C1362 C1343 1.368 . S
C1362 C1356 1.368 . S
C1362 C1361 1.523 . S
C1363 C1347 1.429 . S
C1363 C1359 1.429 . S
C1363 C1364 1.523 . S
C1364 C1348 1.368 . S
C1364 C1360 1.368 . S
C1364 C1363 1.523 . S
H1365 C1340 0.950 . S
H1366 C1342 0.950 . S
H1367 C1343 0.949 . S
H1368 C1345 0.950 . S
H1369 C1347 0.950 . S
C1370 C1371 1.349 . S
C1370 C1372 1.327 . S
C1370 H1395 0.950 . S
C1371 C1370 1.349 . S
C1371 C1387 1.349 . S
C1372 C1370 1.327 . S
C1372 C1391 1.429 . S
C1372 H1396 0.950 . S
C1373 C1390 1.574 . S
C1373 C1392 1.368 . S
C1373 H1397 0.949 . S
H1374 C1378 0.949 . S
C1375 C1376 1.349 . S
C1375 C1377 1.327 . S
C1375 H1398 0.950 . S
C1376 C1375 1.349 . S
C1376 C1388 1.349 . S
C1377 C1375 1.327 . S
C1377 C1393 1.429 . S
C1377 H1399 0.950 . S
C1378 H1374 0.949 . S
C1378 C1386 1.574 . S
C1378 C1394 1.368 . S
H1379 C1387 0.950 . S
H1380 C1385 0.950 . S
H1381 C1386 0.949 . S
H1382 C1388 0.950 . S
H1383 C1389 0.950 . S
H1384 C1390 0.949 . S
C1385 H1380 0.950 . S
C1385 C1387 1.327 . S
C1385 C1391 1.429 . S
C1386 C1378 1.574 . S
C1386 H1381 0.949 . S
C1386 C1392 1.368 . S
C1387 C1371 1.349 . S
C1387 H1379 0.950 . S
C1387 C1385 1.327 . S
C1388 C1376 1.349 . S
C1388 H1382 0.950 . S
C1388 C1389 1.327 . S
C1389 H1383 0.950 . S
C1389 C1388 1.327 . S
C1389 C1393 1.429 . S
C1390 C1373 1.574 . S
C1390 H1384 0.949 . S
C1390 C1394 1.368 . S
C1391 C1372 1.429 . S
C1391 C1385 1.429 . S
C1391 C1392 1.523 . S
C1392 C1373 1.368 . S
C1392 C1386 1.368 . S
C1392 C1391 1.523 . S
C1393 C1377 1.429 . S
C1393 C1389 1.429 . S
C1393 C1394 1.523 . S
C1394 C1378 1.368 . S
C1394 C1390 1.368 . S
C1394 C1393 1.523 . S
H1395 C1370 0.950 . S
H1396 C1372 0.950 . S
H1397 C1373 0.949 . S
H1398 C1375 0.950 . S
H1399 C1377 0.950 . S
C1400 C1401 1.349 . S
C1400 C1402 1.327 . S
C1400 H1425 0.950 . S
C1401 C1400 1.349 . S
C1401 C1417 1.349 . S
C1402 C1400 1.327 . S
C1402 C1421 1.429 . S
C1402 H1426 0.950 . S
C1403 C1420 1.574 . S
C1403 C1422 1.368 . S
C1403 H1427 0.949 . S
H1404 C1408 0.949 . S
C1405 C1406 1.349 . S
C1405 C1407 1.327 . S
C1405 H1428 0.950 . S
C1406 C1405 1.349 . S
C1406 C1418 1.349 . S
C1407 C1405 1.327 . S
C1407 C1423 1.429 . S
C1407 H1429 0.950 . S
C1408 H1404 0.949 . S
C1408 C1416 1.574 . S
C1408 C1424 1.368 . S
H1409 C1417 0.950 . S
H1410 C1415 0.950 . S
H1411 C1416 0.949 . S
H1412 C1418 0.950 . S
H1413 C1419 0.950 . S
H1414 C1420 0.949 . S
C1415 H1410 0.950 . S
C1415 C1417 1.327 . S
C1415 C1421 1.429 . S
C1416 C1408 1.574 . S
C1416 H1411 0.949 . S
C1416 C1422 1.368 . S
C1417 C1401 1.349 . S
C1417 H1409 0.950 . S
C1417 C1415 1.327 . S
C1418 C1406 1.349 . S
C1418 H1412 0.950 . S
C1418 C1419 1.327 . S
C1419 H1413 0.950 . S
C1419 C1418 1.327 . S
C1419 C1423 1.429 . S
C1420 C1403 1.574 . S
C1420 H1414 0.949 . S
C1420 C1424 1.368 . S
C1421 C1402 1.429 . S
C1421 C1415 1.429 . S
C1421 C1422 1.523 . S
C1422 C1403 1.368 . S
C1422 C1416 1.368 . S
C1422 C1421 1.523 . S
C1423 C1407 1.429 . S
C1423 C1419 1.429 . S
C1423 C1424 1.523 . S
C1424 C1408 1.368 . S
C1424 C1420 1.368 . S
C1424 C1423 1.523 . S
H1425 C1400 0.950 . S
H1426 C1402 0.950 . S
H1427 C1403 0.949 . S
H1428 C1405 0.950 . S
H1429 C1407 0.950 . S
C1430 C1431 1.349 . S
C1430 C1432 1.327 . S
C1430 H1455 0.950 . S
C1431 C1430 1.349 . S
C1431 C1447 1.349 . S
C1432 C1430 1.327 . S
C1432 C1451 1.429 . S
C1432 H1456 0.950 . S
C1433 C1450 1.574 . S
C1433 C1452 1.368 . S
C1433 H1457 0.949 . S
H1434 C1438 0.949 . S
C1435 C1436 1.349 . S
C1435 C1437 1.327 . S
C1435 H1458 0.950 . S
C1436 C1435 1.349 . S
C1436 C1448 1.349 . S
C1437 C1435 1.327 . S
C1437 C1453 1.429 . S
C1437 H1459 0.950 . S
C1438 H1434 0.949 . S
C1438 C1446 1.574 . S
C1438 C1454 1.368 . S
H1439 C1447 0.950 . S
H1440 C1445 0.950 . S
H1441 C1446 0.949 . S
H1442 C1448 0.950 . S
H1443 C1449 0.950 . S
H1444 C1450 0.949 . S
C1445 H1440 0.950 . S
C1445 C1447 1.327 . S
C1445 C1451 1.429 . S
C1446 C1438 1.574 . S
C1446 H1441 0.949 . S
C1446 C1452 1.368 . S
C1447 C1431 1.349 . S
C1447 H1439 0.950 . S
C1447 C1445 1.327 . S
C1448 C1436 1.349 . S
C1448 H1442 0.950 . S
C1448 C1449 1.327 . S
C1449 H1443 0.950 . S
C1449 C1448 1.327 . S
C1449 C1453 1.429 . S
C1450 C1433 1.574 . S
C1450 H1444 0.949 . S
C1450 C1454 1.368 . S
C1451 C1432 1.429 . S
C1451 C1445 1.429 . S
C1451 C1452 1.523 . S
C1452 C1433 1.368 . S
C1452 C1446 1.368 . S
C1452 C1451 1.523 . S
C1453 C1437 1.429 . S
C1453 C1449 1.429 . S
C1453 C1454 1.523 . S
C1454 C1438 1.368 . S
C1454 C1450 1.368 . S
C1454 C1453 1.523 . S
H1455 C1430 0.950 . S
H1456 C1432 0.950 . S
H1457 C1433 0.949 . S
H1458 C1435 0.950 . S
H1459 C1437 0.950 . S
C1460 C1461 1.349 . S
C1460 C1462 1.327 . S
C1460 H1485 0.950 . S
C1461 C1460 1.349 . S
C1461 C1477 1.349 . S
C1462 C1460 1.327 . S
C1462 C1481 1.429 . S
C1462 H1486 0.950 . S
C1463 C1480 1.574 . S
C1463 C1482 1.368 . S
C1463 H1487 0.949 . S
H1464 C1468 0.949 . S
C1465 C1466 1.349 . S
C1465 C1467 1.327 . S
C1465 H1488 0.950 . S
C1466 C1465 1.349 . S
C1466 C1478 1.349 . S
C1467 C1465 1.327 . S
C1467 C1483 1.429 . S
C1467 H1489 0.950 . S
C1468 H1464 0.949 . S
C1468 C1476 1.574 . S
C1468 C1484 1.368 . S
H1469 C1477 0.950 . S
H1470 C1475 0.950 . S
H1471 C1476 0.949 . S
H1472 C1478 0.950 . S
H1473 C1479 0.950 . S
H1474 C1480 0.949 . S
C1475 H1470 0.950 . S
C1475 C1477 1.327 . S
C1475 C1481 1.429 . S
C1476 C1468 1.574 . S
C1476 H1471 0.949 . S
C1476 C1482 1.368 . S
C1477 C1461 1.349 . S
C1477 H1469 0.950 . S
C1477 C1475 1.327 . S
C1478 C1466 1.349 . S
C1478 H1472 0.950 . S
C1478 C1479 1.327 . S
C1479 H1473 0.950 . S
C1479 C1478 1.327 . S
C1479 C1483 1.429 . S
C1480 C1463 1.574 . S
C1480 H1474 0.949 . S
C1480 C1484 1.368 . S
C1481 C1462 1.429 . S
C1481 C1475 1.429 . S
C1481 C1482 1.523 . S
C1482 C1463 1.368 . S
C1482 C1476 1.368 . S
C1482 C1481 1.523 . S
C1483 C1467 1.429 . S
C1483 C1479 1.429 . S
C1483 C1484 1.523 . S
C1484 C1468 1.368 . S
C1484 C1480 1.368 . S
C1484 C1483 1.523 . S
H1485 C1460 0.950 . S
H1486 C1462 0.950 . S
H1487 C1463 0.949 . S
H1488 C1465 0.950 . S
H1489 C1467 0.950 . S
C1490 C1491 1.349 . S
C1490 C1492 1.327 . S
C1490 H1515 0.950 . S
C1491 C1490 1.349 . S
C1491 C1507 1.349 . S
C1492 C1490 1.327 . S
C1492 C1511 1.429 . S
C1492 H1516 0.950 . S
C1493 C1510 1.574 . S
C1493 C1512 1.368 . S
C1493 H1517 0.949 . S
H1494 C1498 0.949 . S
C1495 C1496 1.349 . S
C1495 C1497 1.327 . S
C1495 H1518 0.950 . S
C1496 C1495 1.349 . S
C1496 C1508 1.349 . S
C1497 C1495 1.327 . S
C1497 C1513 1.429 1_655 S
C1497 H1519 0.950 . S
C1498 H1494 0.949 . S
C1498 C1506 1.574 . S
C1498 C1514 1.368 . S
H1499 C1507 0.950 . S
H1500 C1505 0.950 . S
H1501 C1506 0.949 . S
H1502 C1508 0.950 . S
H1503 C1509 0.950 1_455 S
H1504 C1510 0.949 . S
C1505 H1500 0.950 . S
C1505 C1507 1.327 . S
C1505 C1511 1.429 . S
C1506 C1498 1.574 . S
C1506 H1501 0.949 . S
C1506 C1512 1.368 . S
C1507 C1491 1.349 . S
C1507 H1499 0.950 . S
C1507 C1505 1.327 . S
C1508 C1496 1.349 . S
C1508 H1502 0.950 . S
C1508 C1509 1.327 . S
C1509 H1503 0.950 1_655 S
C1509 C1508 1.327 . S
C1509 C1513 1.429 1_655 S
C1510 C1493 1.574 . S
C1510 H1504 0.949 . S
C1510 C1514 1.368 . S
C1511 C1492 1.429 . S
C1511 C1505 1.429 . S
C1511 C1512 1.523 . S
C1512 C1493 1.368 . S
C1512 C1506 1.368 . S
C1512 C1511 1.523 . S
C1513 C1497 1.429 1_455 S
C1513 C1509 1.429 1_455 S
C1513 C1514 1.523 . S
C1514 C1498 1.368 . S
C1514 C1510 1.368 . S
C1514 C1513 1.523 . S
H1515 C1490 0.950 . S
H1516 C1492 0.950 . S
H1517 C1493 0.949 . S
H1518 C1495 0.950 . S
H1519 C1497 0.950 . S
C1520 C1521 1.349 . S
C1520 C1522 1.327 . S
C1520 H1545 0.950 . S
C1521 C1520 1.349 . S
C1521 C1537 1.349 . S
C1522 C1520 1.327 . S
C1522 C1541 1.429 . S
C1522 H1546 0.950 . S
C1523 C1540 1.574 . S
C1523 C1542 1.368 . S
C1523 H1547 0.949 . S
H1524 C1528 0.949 . S
C1525 C1526 1.349 . S
C1525 C1527 1.327 . S
C1525 H1548 0.950 . S
C1526 C1525 1.349 . S
C1526 C1538 1.349 . S
C1527 C1525 1.327 . S
C1527 C1543 1.429 . S
C1527 H1549 0.950 . S
C1528 H1524 0.949 . S
C1528 C1536 1.574 . S
C1528 C1544 1.368 . S
H1529 C1537 0.950 . S
H1530 C1535 0.950 . S
H1531 C1536 0.949 . S
H1532 C1538 0.950 . S
H1533 C1539 0.950 . S
H1534 C1540 0.949 . S
C1535 H1530 0.950 . S
C1535 C1537 1.327 . S
C1535 C1541 1.429 . S
C1536 C1528 1.574 . S
C1536 H1531 0.949 . S
C1536 C1542 1.368 . S
C1537 C1521 1.349 . S
C1537 H1529 0.950 . S
C1537 C1535 1.327 . S
C1538 C1526 1.349 . S
C1538 H1532 0.950 . S
C1538 C1539 1.327 . S
C1539 H1533 0.950 . S
C1539 C1538 1.327 . S
C1539 C1543 1.429 . S
C1540 C1523 1.574 . S
C1540 H1534 0.949 . S
C1540 C1544 1.368 . S
C1541 C1522 1.429 . S
C1541 C1535 1.429 . S
C1541 C1542 1.523 . S
C1542 C1523 1.368 . S
C1542 C1536 1.368 . S
C1542 C1541 1.523 . S
C1543 C1527 1.429 . S
C1543 C1539 1.429 . S
C1543 C1544 1.523 . S
C1544 C1528 1.368 . S
C1544 C1540 1.368 . S
C1544 C1543 1.523 . S
H1545 C1520 0.950 . S
H1546 C1522 0.950 . S
H1547 C1523 0.949 . S
H1548 C1525 0.950 . S
H1549 C1527 0.950 . S
C1550 C1551 1.349 . S
C1550 C1552 1.327 . S
C1550 H1575 0.950 . S
C1551 C1550 1.349 . S
C1551 C1567 1.349 . S
C1552 C1550 1.327 . S
C1552 C1571 1.429 . S
C1552 H1576 0.950 . S
C1553 C1570 1.574 . S
C1553 C1572 1.368 . S
C1553 H1577 0.949 . S
H1554 C1558 0.949 . S
C1555 C1556 1.349 . S
C1555 C1557 1.327 . S
C1555 H1578 0.950 . S
C1556 C1555 1.349 . S
C1556 C1568 1.349 . S
C1557 C1555 1.327 . S
C1557 C1573 1.429 1_455 S
C1557 H1579 0.950 . S
C1558 H1554 0.949 . S
C1558 C1566 1.574 . S
C1558 C1574 1.368 . S
H1559 C1567 0.950 . S
H1560 C1565 0.950 . S
H1561 C1566 0.949 . S
H1562 C1568 0.950 . S
H1563 C1569 0.950 1_655 S
H1564 C1570 0.949 . S
C1565 H1560 0.950 . S
C1565 C1567 1.327 . S
C1565 C1571 1.429 . S
C1566 C1558 1.574 . S
C1566 H1561 0.949 . S
C1566 C1572 1.368 . S
C1567 C1551 1.349 . S
C1567 H1559 0.950 . S
C1567 C1565 1.327 . S
C1568 C1556 1.349 . S
C1568 H1562 0.950 . S
C1568 C1569 1.327 . S
C1569 H1563 0.950 1_455 S
C1569 C1568 1.327 . S
C1569 C1573 1.429 1_455 S
C1570 C1553 1.574 . S
C1570 H1564 0.949 . S
C1570 C1574 1.368 . S
C1571 C1552 1.429 . S
C1571 C1565 1.429 . S
C1571 C1572 1.523 . S
C1572 C1553 1.368 . S
C1572 C1566 1.368 . S
C1572 C1571 1.523 . S
C1573 C1557 1.429 1_655 S
C1573 C1569 1.429 1_655 S
C1573 C1574 1.523 . S
C1574 C1558 1.368 . S
C1574 C1570 1.368 . S
C1574 C1573 1.523 . S
H1575 C1550 0.950 . S
H1576 C1552 0.950 . S
H1577 C1553 0.949 . S
H1578 C1555 0.950 . S
H1579 C1557 0.950 . S
C1580 C1581 1.349 . S
C1580 C1582 1.327 . S
C1580 H1605 0.950 . S
C1581 C1580 1.349 . S
C1581 C1597 1.349 . S
C1582 C1580 1.327 . S
C1582 C1601 1.429 . S
C1582 H1606 0.950 . S
C1583 C1600 1.574 . S
C1583 C1602 1.368 . S
C1583 H1607 0.949 . S
H1584 C1588 0.949 . S
C1585 C1586 1.349 . S
C1585 C1587 1.327 . S
C1585 H1608 0.950 . S
C1586 C1585 1.349 . S
C1586 C1598 1.349 . S
C1587 C1585 1.327 . S
C1587 C1603 1.429 . S
C1587 H1609 0.950 . S
C1588 H1584 0.949 . S
C1588 C1596 1.574 . S
C1588 C1604 1.368 . S
H1589 C1597 0.950 . S
H1590 C1595 0.950 . S
H1591 C1596 0.949 . S
H1592 C1598 0.950 . S
H1593 C1599 0.950 . S
H1594 C1600 0.949 . S
C1595 H1590 0.950 . S
C1595 C1597 1.327 . S
C1595 C1601 1.429 . S
C1596 C1588 1.574 . S
C1596 H1591 0.949 . S
C1596 C1602 1.368 . S
C1597 C1581 1.349 . S
C1597 H1589 0.950 . S
C1597 C1595 1.327 . S
C1598 C1586 1.349 . S
C1598 H1592 0.950 . S
C1598 C1599 1.327 . S
C1599 H1593 0.950 . S
C1599 C1598 1.327 . S
C1599 C1603 1.429 . S
C1600 C1583 1.574 . S
C1600 H1594 0.949 . S
C1600 C1604 1.368 . S
C1601 C1582 1.429 . S
C1601 C1595 1.429 . S
C1601 C1602 1.523 . S
C1602 C1583 1.368 . S
C1602 C1596 1.368 . S
C1602 C1601 1.523 . S
C1603 C1587 1.429 . S
C1603 C1599 1.429 . S
C1603 C1604 1.523 . S
C1604 C1588 1.368 . S
C1604 C1600 1.368 . S
C1604 C1603 1.523 . S
H1605 C1580 0.950 . S
H1606 C1582 0.950 . S
H1607 C1583 0.949 . S
H1608 C1585 0.950 . S
H1609 C1587 0.950 . S
C1610 C1611 1.349 . S
C1610 C1612 1.327 . S
C1610 H1635 0.950 . S
C1611 C1610 1.349 . S
C1611 C1627 1.349 . S
C1612 C1610 1.327 . S
C1612 C1631 1.429 . S
C1612 H1636 0.950 . S
C1613 C1630 1.574 . S
C1613 C1632 1.368 . S
C1613 H1637 0.949 . S
H1614 C1618 0.949 . S
C1615 C1616 1.349 . S
C1615 C1617 1.327 . S
C1615 H1638 0.950 . S
C1616 C1615 1.349 . S
C1616 C1628 1.349 . S
C1617 C1615 1.327 . S
C1617 C1633 1.429 . S
C1617 H1639 0.950 . S
C1618 H1614 0.949 . S
C1618 C1626 1.574 . S
C1618 C1634 1.368 . S
H1619 C1627 0.950 . S
H1620 C1625 0.950 . S
H1621 C1626 0.949 . S
H1622 C1628 0.950 . S
H1623 C1629 0.950 . S
H1624 C1630 0.949 . S
C1625 H1620 0.950 . S
C1625 C1627 1.327 . S
C1625 C1631 1.429 . S
C1626 C1618 1.574 . S
C1626 H1621 0.949 . S
C1626 C1632 1.368 . S
C1627 C1611 1.349 . S
C1627 H1619 0.950 . S
C1627 C1625 1.327 . S
C1628 C1616 1.349 . S
C1628 H1622 0.950 . S
C1628 C1629 1.327 . S
C1629 H1623 0.950 . S
C1629 C1628 1.327 . S
C1629 C1633 1.429 . S
C1630 C1613 1.574 . S
C1630 H1624 0.949 . S
C1630 C1634 1.368 . S
C1631 C1612 1.429 . S
C1631 C1625 1.429 . S
C1631 C1632 1.523 . S
C1632 C1613 1.368 . S
C1632 C1626 1.368 . S
C1632 C1631 1.523 . S
C1633 C1617 1.429 . S
C1633 C1629 1.429 . S
C1633 C1634 1.523 . S
C1634 C1618 1.368 . S
C1634 C1630 1.368 . S
C1634 C1633 1.523 . S
H1635 C1610 0.950 . S
H1636 C1612 0.950 . S
H1637 C1613 0.949 . S
H1638 C1615 0.950 . S
H1639 C1617 0.950 . S
C1640 C1641 1.349 . S
C1640 C1642 1.327 . S
C1640 H1665 0.950 . S
C1641 C1640 1.349 . S
C1641 C1657 1.349 . S
C1642 C1640 1.327 . S
C1642 C1661 1.429 . S
C1642 H1666 0.950 . S
C1643 C1660 1.574 . S
C1643 C1662 1.368 . S
C1643 H1667 0.949 . S
H1644 C1648 0.949 . S
C1645 C1646 1.349 . S
C1645 C1647 1.327 . S
C1645 H1668 0.950 . S
C1646 C1645 1.349 . S
C1646 C1658 1.349 . S
C1647 C1645 1.327 . S
C1647 C1663 1.429 . S
C1647 H1669 0.950 . S
C1648 H1644 0.949 . S
C1648 C1656 1.574 . S
C1648 C1664 1.368 . S
H1649 C1657 0.950 . S
H1650 C1655 0.950 . S
H1651 C1656 0.949 . S
H1652 C1658 0.950 . S
H1653 C1659 0.950 . S
H1654 C1660 0.949 . S
C1655 H1650 0.950 . S
C1655 C1657 1.327 . S
C1655 C1661 1.429 . S
C1656 C1648 1.574 . S
C1656 H1651 0.949 . S
C1656 C1662 1.368 . S
C1657 C1641 1.349 . S
C1657 H1649 0.950 . S
C1657 C1655 1.327 . S
C1658 C1646 1.349 . S
C1658 H1652 0.950 . S
C1658 C1659 1.327 . S
C1659 H1653 0.950 . S
C1659 C1658 1.327 . S
C1659 C1663 1.429 . S
C1660 C1643 1.574 . S
C1660 H1654 0.949 . S
C1660 C1664 1.368 . S
C1661 C1642 1.429 . S
C1661 C1655 1.429 . S
C1661 C1662 1.523 . S
C1662 C1643 1.368 . S
C1662 C1656 1.368 . S
C1662 C1661 1.523 . S
C1663 C1647 1.429 . S
C1663 C1659 1.429 . S
C1663 C1664 1.523 . S
C1664 C1648 1.368 . S
C1664 C1660 1.368 . S
C1664 C1663 1.523 . S
H1665 C1640 0.950 . S
H1666 C1642 0.950 . S
H1667 C1643 0.949 . S
H1668 C1645 0.950 . S
H1669 C1647 0.950 . S
C1670 C1671 1.349 . S
C1670 C1672 1.327 . S
C1670 H1695 0.950 . S
C1671 C1670 1.349 . S
C1671 C1687 1.349 . S
C1672 C1670 1.327 . S
C1672 C1691 1.429 . S
C1672 H1696 0.950 . S
C1673 C1690 1.574 . S
C1673 C1692 1.368 . S
C1673 H1697 0.949 . S
H1674 C1678 0.949 . S
C1675 C1676 1.349 . S
C1675 C1677 1.327 . S
C1675 H1698 0.950 . S
C1676 C1675 1.349 . S
C1676 C1688 1.349 . S
C1677 C1675 1.327 . S
C1677 C1693 1.429 . S
C1677 H1699 0.950 . S
C1678 H1674 0.949 . S
C1678 C1686 1.574 . S
C1678 C1694 1.368 . S
H1679 C1687 0.950 . S
H1680 C1685 0.950 . S
H1681 C1686 0.949 . S
H1682 C1688 0.950 . S
H1683 C1689 0.950 . S
H1684 C1690 0.949 . S
C1685 H1680 0.950 . S
C1685 C1687 1.327 . S
C1685 C1691 1.429 . S
C1686 C1678 1.574 . S
C1686 H1681 0.949 . S
C1686 C1692 1.368 . S
C1687 C1671 1.349 . S
C1687 H1679 0.950 . S
C1687 C1685 1.327 . S
C1688 C1676 1.349 . S
C1688 H1682 0.950 . S
C1688 C1689 1.327 . S
C1689 H1683 0.950 . S
C1689 C1688 1.327 . S
C1689 C1693 1.429 . S
C1690 C1673 1.574 . S
C1690 H1684 0.949 . S
C1690 C1694 1.368 . S
C1691 C1672 1.429 . S
C1691 C1685 1.429 . S
C1691 C1692 1.523 . S
C1692 C1673 1.368 . S
C1692 C1686 1.368 . S
C1692 C1691 1.523 . S
C1693 C1677 1.429 . S
C1693 C1689 1.429 . S
C1693 C1694 1.523 . S
C1694 C1678 1.368 . S
C1694 C1690 1.368 . S
C1694 C1693 1.523 . S
H1695 C1670 0.950 . S
H1696 C1672 0.950 . S
H1697 C1673 0.949 . S
H1698 C1675 0.950 . S
H1699 C1677 0.950 . S
C1700 C1701 1.349 . S
C1700 C1702 1.327 . S
C1700 H1725 0.950 . S
C1701 C1700 1.349 . S
C1701 C1717 1.349 . S
C1702 C1700 1.327 . S
C1702 C1721 1.429 . S
C1702 H1726 0.950 . S
C1703 C1720 1.574 . S
C1703 C1722 1.368 . S
C1703 H1727 0.949 . S
H1704 C1708 0.949 . S
C1705 C1706 1.349 . S
C1705 C1707 1.327 . S
C1705 H1728 0.950 . S
C1706 C1705 1.349 . S
C1706 C1718 1.349 . S
C1707 C1705 1.327 . S
C1707 C1723 1.429 . S
C1707 H1729 0.950 . S
C1708 H1704 0.949 . S
C1708 C1716 1.574 . S
C1708 C1724 1.368 . S
H1709 C1717 0.950 . S
H1710 C1715 0.950 . S
H1711 C1716 0.949 . S
H1712 C1718 0.950 . S
H1713 C1719 0.950 . S
H1714 C1720 0.949 . S
C1715 H1710 0.950 . S
C1715 C1717 1.327 . S
C1715 C1721 1.429 . S
C1716 C1708 1.574 . S
C1716 H1711 0.949 . S
C1716 C1722 1.368 . S
C1717 C1701 1.349 . S
C1717 H1709 0.950 . S
C1717 C1715 1.327 . S
C1718 C1706 1.349 . S
C1718 H1712 0.950 . S
C1718 C1719 1.327 . S
C1719 H1713 0.950 . S
C1719 C1718 1.327 . S
C1719 C1723 1.429 . S
C1720 C1703 1.574 . S
C1720 H1714 0.949 . S
C1720 C1724 1.368 . S
C1721 C1702 1.429 . S
C1721 C1715 1.429 . S
C1721 C1722 1.523 . S
C1722 C1703 1.368 . S
C1722 C1716 1.368 . S
C1722 C1721 1.523 . S
C1723 C1707 1.429 . S
C1723 C1719 1.429 . S
C1723 C1724 1.523 . S
C1724 C1708 1.368 . S
C1724 C1720 1.368 . S
C1724 C1723 1.523 . S
H1725 C1700 0.950 . S
H1726 C1702 0.950 . S
H1727 C1703 0.949 . S
H1728 C1705 0.950 . S
H1729 C1707 0.950 . S
C1730 C1731 1.349 . S
C1730 C1732 1.327 . S
C1730 H1755 0.950 . S
C1731 C1730 1.349 . S
C1731 C1747 1.349 . S
C1732 C1730 1.327 . S
C1732 C1751 1.429 1_455 S
C1732 H1756 0.950 . S
C1733 C1750 1.574 . S
C1733 C1752 1.368 . S
C1733 H1757 0.949 . S
H1734 C1738 0.949 . S
C1735 C1736 1.349 . S
C1735 C1737 1.327 . S
C1735 H1758 0.950 . S
C1736 C1735 1.349 . S
C1736 C1748 1.349 . S
C1737 C1735 1.327 . S
C1737 C1753 1.429 . S
C1737 H1759 0.950 . S
C1738 H1734 0.949 . S
C1738 C1746 1.574 . S
C1738 C1754 1.368 . S
H1739 C1747 0.950 . S
H1740 C1745 0.950 . S
H1741 C1746 0.949 . S
H1742 C1748 0.950 . S
H1743 C1749 0.950 . S
H1744 C1750 0.949 . S
C1745 H1740 0.950 . S
C1745 C1747 1.327 1_655 S
C1745 C1751 1.429 . S
C1746 C1738 1.574 . S
C1746 H1741 0.949 . S
C1746 C1752 1.368 . S
C1747 C1731 1.349 . S
C1747 H1739 0.950 . S
C1747 C1745 1.327 1_455 S
C1748 C1736 1.349 . S
C1748 H1742 0.950 . S
C1748 C1749 1.327 . S
C1749 H1743 0.950 . S
C1749 C1748 1.327 . S
C1749 C1753 1.429 . S
C1750 C1733 1.574 . S
C1750 H1744 0.949 . S
C1750 C1754 1.368 . S
C1751 C1732 1.429 1_655 S
C1751 C1745 1.429 . S
C1751 C1752 1.523 . S
C1752 C1733 1.368 . S
C1752 C1746 1.368 . S
C1752 C1751 1.523 . S
C1753 C1737 1.429 . S
C1753 C1749 1.429 . S
C1753 C1754 1.523 . S
C1754 C1738 1.368 . S
C1754 C1750 1.368 . S
C1754 C1753 1.523 . S
H1755 C1730 0.950 . S
H1756 C1732 0.950 . S
H1757 C1733 0.949 . S
H1758 C1735 0.950 . S
H1759 C1737 0.950 . S
C1760 C1761 1.349 . S
C1760 C1762 1.327 . S
C1760 H1785 0.950 . S
C1761 C1760 1.349 . S
C1761 C1777 1.349 . S
C1762 C1760 1.327 . S
C1762 C1781 1.429 . S
C1762 H1786 0.950 . S
C1763 C1780 1.574 . S
C1763 C1782 1.368 . S
C1763 H1787 0.949 . S
H1764 C1768 0.949 . S
C1765 C1766 1.349 . S
C1765 C1767 1.327 . S
C1765 H1788 0.950 . S
C1766 C1765 1.349 . S
C1766 C1778 1.349 . S
C1767 C1765 1.327 . S
C1767 C1783 1.429 . S
C1767 H1789 0.950 . S
C1768 H1764 0.949 . S
C1768 C1776 1.574 . S
C1768 C1784 1.368 . S
H1769 C1777 0.950 . S
H1770 C1775 0.950 . S
H1771 C1776 0.949 . S
H1772 C1778 0.950 . S
H1773 C1779 0.950 . S
H1774 C1780 0.949 . S
C1775 H1770 0.950 . S
C1775 C1777 1.327 . S
C1775 C1781 1.429 . S
C1776 C1768 1.574 . S
C1776 H1771 0.949 . S
C1776 C1782 1.368 . S
C1777 C1761 1.349 . S
C1777 H1769 0.950 . S
C1777 C1775 1.327 . S
C1778 C1766 1.349 . S
C1778 H1772 0.950 . S
C1778 C1779 1.327 . S
C1779 H1773 0.950 . S
C1779 C1778 1.327 . S
C1779 C1783 1.429 . S
C1780 C1763 1.574 . S
C1780 H1774 0.949 . S
C1780 C1784 1.368 . S
C1781 C1762 1.429 . S
C1781 C1775 1.429 . S
C1781 C1782 1.523 . S
C1782 C1763 1.368 . S
C1782 C1776 1.368 . S
C1782 C1781 1.523 . S
C1783 C1767 1.429 . S
C1783 C1779 1.429 . S
C1783 C1784 1.523 . S
C1784 C1768 1.368 . S
C1784 C1780 1.368 . S
C1784 C1783 1.523 . S
H1785 C1760 0.950 . S
H1786 C1762 0.950 . S
H1787 C1763 0.949 . S
H1788 C1765 0.950 . S
H1789 C1767 0.950 . S
C1790 C1791 1.349 . S
C1790 C1792 1.327 . S
C1790 H1815 0.950 . S
C1791 C1790 1.349 . S
C1791 C1807 1.349 . S
C1792 C1790 1.327 . S
C1792 C1811 1.429 . S
C1792 H1816 0.950 . S
C1793 C1810 1.574 . S
C1793 C1812 1.368 . S
C1793 H1817 0.949 . S
H1794 C1798 0.949 . S
C1795 C1796 1.349 . S
C1795 C1797 1.327 . S
C1795 H1818 0.950 . S
C1796 C1795 1.349 . S
C1796 C1808 1.349 . S
C1797 C1795 1.327 . S
C1797 C1813 1.429 . S
C1797 H1819 0.950 . S
C1798 H1794 0.949 . S
C1798 C1806 1.574 . S
C1798 C1814 1.368 . S
H1799 C1807 0.950 . S
H1800 C1805 0.950 . S
H1801 C1806 0.949 . S
H1802 C1808 0.950 . S
H1803 C1809 0.950 . S
H1804 C1810 0.949 . S
C1805 H1800 0.950 . S
C1805 C1807 1.327 . S
C1805 C1811 1.429 . S
C1806 C1798 1.574 . S
C1806 H1801 0.949 . S
C1806 C1812 1.368 . S
C1807 C1791 1.349 . S
C1807 H1799 0.950 . S
C1807 C1805 1.327 . S
C1808 C1796 1.349 . S
C1808 H1802 0.950 . S
C1808 C1809 1.327 . S
C1809 H1803 0.950 . S
C1809 C1808 1.327 . S
C1809 C1813 1.429 . S
C1810 C1793 1.574 . S
C1810 H1804 0.949 . S
C1810 C1814 1.368 . S
C1811 C1792 1.429 . S
C1811 C1805 1.429 . S
C1811 C1812 1.523 . S
C1812 C1793 1.368 . S
C1812 C1806 1.368 . S
C1812 C1811 1.523 . S
C1813 C1797 1.429 . S
C1813 C1809 1.429 . S
C1813 C1814 1.523 . S
C1814 C1798 1.368 . S
C1814 C1810 1.368 . S
C1814 C1813 1.523 . S
H1815 C1790 0.950 . S
H1816 C1792 0.950 . S
H1817 C1793 0.949 . S
H1818 C1795 0.950 . S
H1819 C1797 0.950 . S
C1820 C1821 1.349 . S
C1820 C1822 1.327 . S
C1820 H1845 0.950 . S
C1821 C1820 1.349 . S
C1821 C1837 1.349 . S
C1822 C1820 1.327 . S
C1822 C1841 1.429 . S
C1822 H1846 0.950 . S
C1823 C1840 1.574 . S
C1823 C1842 1.368 . S
C1823 H1847 0.949 . S
H1824 C1828 0.949 . S
C1825 C1826 1.349 . S
C1825 C1827 1.327 . S
C1825 H1848 0.950 . S
C1826 C1825 1.349 . S
C1826 C1838 1.349 . S
C1827 C1825 1.327 . S
C1827 C1843 1.429 . S
C1827 H1849 0.950 . S
C1828 H1824 0.949 . S
C1828 C1836 1.574 . S
C1828 C1844 1.368 . S
H1829 C1837 0.950 . S
H1830 C1835 0.950 . S
H1831 C1836 0.949 . S
H1832 C1838 0.950 . S
H1833 C1839 0.950 . S
H1834 C1840 0.949 . S
C1835 H1830 0.950 . S
C1835 C1837 1.327 . S
C1835 C1841 1.429 . S
C1836 C1828 1.574 . S
C1836 H1831 0.949 . S
C1836 C1842 1.368 . S
C1837 C1821 1.349 . S
C1837 H1829 0.950 . S
C1837 C1835 1.327 . S
C1838 C1826 1.349 . S
C1838 H1832 0.950 . S
C1838 C1839 1.327 . S
C1839 H1833 0.950 . S
C1839 C1838 1.327 . S
C1839 C1843 1.429 . S
C1840 C1823 1.574 . S
C1840 H1834 0.949 . S
C1840 C1844 1.368 . S
C1841 C1822 1.429 . S
C1841 C1835 1.429 . S
C1841 C1842 1.523 . S
C1842 C1823 1.368 . S
C1842 C1836 1.368 . S
C1842 C1841 1.523 . S
C1843 C1827 1.429 . S
C1843 C1839 1.429 . S
C1843 C1844 1.523 . S
C1844 C1828 1.368 . S
C1844 C1840 1.368 . S
C1844 C1843 1.523 . S
H1845 C1820 0.950 . S
H1846 C1822 0.950 . S
H1847 C1823 0.949 . S
H1848 C1825 0.950 . S
H1849 C1827 0.950 . S
C1850 C1851 1.349 . S
C1850 C1852 1.327 . S
C1850 H1875 0.950 . S
C1851 C1850 1.349 . S
C1851 C1867 1.349 . S
C1852 C1850 1.327 . S
C1852 C1871 1.429 . S
C1852 H1876 0.950 . S
C1853 C1870 1.574 . S
C1853 C1872 1.368 . S
C1853 H1877 0.949 . S
H1854 C1858 0.949 . S
C1855 C1856 1.349 . S
C1855 C1857 1.327 . S
C1855 H1878 0.950 . S
C1856 C1855 1.349 . S
C1856 C1868 1.349 . S
C1857 C1855 1.327 . S
C1857 C1873 1.429 1_455 S
C1857 H1879 0.950 . S
C1858 H1854 0.949 . S
C1858 C1866 1.574 . S
C1858 C1874 1.368 . S
H1859 C1867 0.950 . S
H1860 C1865 0.950 . S
H1861 C1866 0.949 . S
H1862 C1868 0.950 . S
H1863 C1869 0.950 . S
H1864 C1870 0.949 . S
C1865 H1860 0.950 . S
C1865 C1867 1.327 . S
C1865 C1871 1.429 . S
C1866 C1858 1.574 . S
C1866 H1861 0.949 . S
C1866 C1872 1.368 . S
C1867 C1851 1.349 . S
C1867 H1859 0.950 . S
C1867 C1865 1.327 . S
C1868 C1856 1.349 . S
C1868 H1862 0.950 . S
C1868 C1869 1.327 1_455 S
C1869 H1863 0.950 . S
C1869 C1868 1.327 1_655 S
C1869 C1873 1.429 . S
C1870 C1853 1.574 . S
C1870 H1864 0.949 . S
C1870 C1874 1.368 . S
C1871 C1852 1.429 . S
C1871 C1865 1.429 . S
C1871 C1872 1.523 . S
C1872 C1853 1.368 . S
C1872 C1866 1.368 . S
C1872 C1871 1.523 . S
C1873 C1857 1.429 1_655 S
C1873 C1869 1.429 . S
C1873 C1874 1.523 . S
C1874 C1858 1.368 . S
C1874 C1870 1.368 . S
C1874 C1873 1.523 . S
H1875 C1850 0.950 . S
H1876 C1852 0.950 . S
H1877 C1853 0.949 . S
H1878 C1855 0.950 . S
H1879 C1857 0.950 . S
C1880 C1881 1.349 . S
C1880 C1882 1.327 . S
C1880 H1905 0.950 . S
C1881 C1880 1.349 . S
C1881 C1897 1.349 . S
C1882 C1880 1.327 . S
C1882 C1901 1.429 . S
C1882 H1906 0.950 . S
C1883 C1900 1.574 . S
C1883 C1902 1.368 . S
C1883 H1907 0.949 . S
H1884 C1888 0.949 . S
C1885 C1886 1.349 . S
C1885 C1887 1.327 . S
C1885 H1908 0.950 . S
C1886 C1885 1.349 . S
C1886 C1898 1.349 . S
C1887 C1885 1.327 . S
C1887 C1903 1.429 . S
C1887 H1909 0.950 . S
C1888 H1884 0.949 . S
C1888 C1896 1.574 . S
C1888 C1904 1.368 . S
H1889 C1897 0.950 . S
H1890 C1895 0.950 . S
H1891 C1896 0.949 . S
H1892 C1898 0.950 . S
H1893 C1899 0.950 . S
H1894 C1900 0.949 . S
C1895 H1890 0.950 . S
C1895 C1897 1.327 . S
C1895 C1901 1.429 . S
C1896 C1888 1.574 . S
C1896 H1891 0.949 . S
C1896 C1902 1.368 . S
C1897 C1881 1.349 . S
C1897 H1889 0.950 . S
C1897 C1895 1.327 . S
C1898 C1886 1.349 . S
C1898 H1892 0.950 . S
C1898 C1899 1.327 . S
C1899 H1893 0.950 . S
C1899 C1898 1.327 . S
C1899 C1903 1.429 . S
C1900 C1883 1.574 . S
C1900 H1894 0.949 . S
C1900 C1904 1.368 . S
C1901 C1882 1.429 . S
C1901 C1895 1.429 . S
C1901 C1902 1.523 . S
C1902 C1883 1.368 . S
C1902 C1896 1.368 . S
C1902 C1901 1.523 . S
C1903 C1887 1.429 . S
C1903 C1899 1.429 . S
C1903 C1904 1.523 . S
C1904 C1888 1.368 . S
C1904 C1900 1.368 . S
C1904 C1903 1.523 . S
H1905 C1880 0.950 . S
H1906 C1882 0.950 . S
H1907 C1883 0.949 . S
H1908 C1885 0.950 . S
H1909 C1887 0.950 . S
C1910 C1911 1.349 . S
C1910 C1912 1.327 . S
C1910 H1935 0.950 . S
C1911 C1910 1.349 . S
C1911 C1927 1.349 . S
C1912 C1910 1.327 . S
C1912 C1931 1.429 1_455 S
C1912 H1936 0.950 . S
C1913 C1930 1.574 . S
C1913 C1932 1.368 . S
C1913 H1937 0.949 . S
H1914 C1918 0.949 . S
C1915 C1916 1.349 . S
C1915 C1917 1.327 . S
C1915 H1938 0.950 . S
C1916 C1915 1.349 . S
C1916 C1928 1.349 . S
C1917 C1915 1.327 . S
C1917 C1933 1.429 . S
C1917 H1939 0.950 . S
C1918 H1914 0.949 . S
C1918 C1926 1.574 . S
C1918 C1934 1.368 . S
H1919 C1927 0.950 . S
H1920 C1925 0.950 . S
H1921 C1926 0.949 . S
H1922 C1928 0.950 . S
H1923 C1929 0.950 . S
H1924 C1930 0.949 . S
C1925 H1920 0.950 . S
C1925 C1927 1.327 1_655 S
C1925 C1931 1.429 . S
C1926 C1918 1.574 . S
C1926 H1921 0.949 . S
C1926 C1932 1.368 . S
C1927 C1911 1.349 . S
C1927 H1919 0.950 . S
C1927 C1925 1.327 1_455 S
C1928 C1916 1.349 . S
C1928 H1922 0.950 . S
C1928 C1929 1.327 . S
C1929 H1923 0.950 . S
C1929 C1928 1.327 . S
C1929 C1933 1.429 . S
C1930 C1913 1.574 . S
C1930 H1924 0.949 . S
C1930 C1934 1.368 . S
C1931 C1912 1.429 1_655 S
C1931 C1925 1.429 . S
C1931 C1932 1.523 . S
C1932 C1913 1.368 . S
C1932 C1926 1.368 . S
C1932 C1931 1.523 . S
C1933 C1917 1.429 . S
C1933 C1929 1.429 . S
C1933 C1934 1.523 . S
C1934 C1918 1.368 . S
C1934 C1930 1.368 . S
C1934 C1933 1.523 . S
H1935 C1910 0.950 . S
H1936 C1912 0.950 . S
H1937 C1913 0.949 . S
H1938 C1915 0.950 . S
H1939 C1917 0.950 . S
C1940 C1941 1.349 . S
C1940 C1942 1.327 . S
C1940 H1965 0.950 . S
C1941 C1940 1.349 . S
C1941 C1957 1.349 . S
C1942 C1940 1.327 . S
C1942 C1961 1.429 . S
C1942 H1966 0.950 . S
C1943 C1960 1.574 . S
C1943 C1962 1.368 . S
C1943 H1967 0.949 . S
H1944 C1948 0.949 . S
C1945 C1946 1.349 . S
C1945 C1947 1.327 . S
C1945 H1968 0.950 . S
C1946 C1945 1.349 . S
C1946 C1958 1.349 . S
C1947 C1945 1.327 . S
C1947 C1963 1.429 . S
C1947 H1969 0.950 . S
C1948 H1944 0.949 . S
C1948 C1956 1.574 . S
C1948 C1964 1.368 . S
H1949 C1957 0.950 . S
H1950 C1955 0.950 . S
H1951 C1956 0.949 . S
H1952 C1958 0.950 . S
H1953 C1959 0.950 . S
H1954 C1960 0.949 . S
C1955 H1950 0.950 . S
C1955 C1957 1.327 . S
C1955 C1961 1.429 . S
C1956 C1948 1.574 . S
C1956 H1951 0.949 . S
C1956 C1962 1.368 . S
C1957 C1941 1.349 . S
C1957 H1949 0.950 . S
C1957 C1955 1.327 . S
C1958 C1946 1.349 . S
C1958 H1952 0.950 . S
C1958 C1959 1.327 . S
C1959 H1953 0.950 . S
C1959 C1958 1.327 . S
C1959 C1963 1.429 . S
C1960 C1943 1.574 . S
C1960 H1954 0.949 . S
C1960 C1964 1.368 . S
C1961 C1942 1.429 . S
C1961 C1955 1.429 . S
C1961 C1962 1.523 . S
C1962 C1943 1.368 . S
C1962 C1956 1.368 . S
C1962 C1961 1.523 . S
C1963 C1947 1.429 . S
C1963 C1959 1.429 . S
C1963 C1964 1.523 . S
C1964 C1948 1.368 . S
C1964 C1960 1.368 . S
C1964 C1963 1.523 . S
H1965 C1940 0.950 . S
H1966 C1942 0.950 . S
H1967 C1943 0.949 . S
H1968 C1945 0.950 . S
H1969 C1947 0.950 . S
C1970 C1971 1.349 . S
C1970 C1972 1.327 . S
C1970 H1995 0.950 . S
C1971 C1970 1.349 . S
C1971 C1987 1.349 . S
C1972 C1970 1.327 . S
C1972 C1991 1.429 . S
C1972 H1996 0.950 . S
C1973 C1990 1.574 . S
C1973 C1992 1.368 . S
C1973 H1997 0.949 . S
H1974 C1978 0.949 . S
C1975 C1976 1.349 . S
C1975 C1977 1.327 . S
C1975 H1998 0.950 . S
C1976 C1975 1.349 . S
C1976 C1988 1.349 . S
C1977 C1975 1.327 . S
C1977 C1993 1.429 . S
C1977 H1999 0.950 . S
C1978 H1974 0.949 . S
C1978 C1986 1.574 . S
C1978 C1994 1.368 . S
H1979 C1987 0.950 . S
H1980 C1985 0.950 . S
H1981 C1986 0.949 . S
H1982 C1988 0.950 . S
H1983 C1989 0.950 . S
H1984 C1990 0.949 . S
C1985 H1980 0.950 . S
C1985 C1987 1.327 . S
C1985 C1991 1.429 . S
C1986 C1978 1.574 . S
C1986 H1981 0.949 . S
C1986 C1992 1.368 . S
C1987 C1971 1.349 . S
C1987 H1979 0.950 . S
C1987 C1985 1.327 . S
C1988 C1976 1.349 . S
C1988 H1982 0.950 . S
C1988 C1989 1.327 . S
C1989 H1983 0.950 . S
C1989 C1988 1.327 . S
C1989 C1993 1.429 . S
C1990 C1973 1.574 . S
C1990 H1984 0.949 . S
C1990 C1994 1.368 . S
C1991 C1972 1.429 . S
C1991 C1985 1.429 . S
C1991 C1992 1.523 . S
C1992 C1973 1.368 . S
C1992 C1986 1.368 . S
C1992 C1991 1.523 . S
C1993 C1977 1.429 . S
C1993 C1989 1.429 . S
C1993 C1994 1.523 . S
C1994 C1978 1.368 . S
C1994 C1990 1.368 . S
C1994 C1993 1.523 . S
H1995 C1970 0.950 . S
H1996 C1972 0.950 . S
H1997 C1973 0.949 . S
H1998 C1975 0.950 . S
H1999 C1977 0.950 . S
C2000 C2001 1.349 . S
C2000 C2002 1.327 . S
C2000 H2025 0.950 . S
C2001 C2000 1.349 . S
C2001 C2017 1.349 . S
C2002 C2000 1.327 . S
C2002 C2021 1.429 . S
C2002 H2026 0.950 . S
C2003 C2020 1.574 . S
C2003 C2022 1.368 . S
C2003 H2027 0.949 . S
H2004 C2008 0.949 . S
C2005 C2006 1.349 . S
C2005 C2007 1.327 . S
C2005 H2028 0.950 . S
C2006 C2005 1.349 . S
C2006 C2018 1.349 . S
C2007 C2005 1.327 . S
C2007 C2023 1.429 . S
C2007 H2029 0.950 . S
C2008 H2004 0.949 . S
C2008 C2016 1.574 . S
C2008 C2024 1.368 . S
H2009 C2017 0.950 . S
H2010 C2015 0.950 . S
H2011 C2016 0.949 . S
H2012 C2018 0.950 . S
H2013 C2019 0.950 . S
H2014 C2020 0.949 . S
C2015 H2010 0.950 . S
C2015 C2017 1.327 . S
C2015 C2021 1.429 . S
C2016 C2008 1.574 . S
C2016 H2011 0.949 . S
C2016 C2022 1.368 . S
C2017 C2001 1.349 . S
C2017 H2009 0.950 . S
C2017 C2015 1.327 . S
C2018 C2006 1.349 . S
C2018 H2012 0.950 . S
C2018 C2019 1.327 . S
C2019 H2013 0.950 . S
C2019 C2018 1.327 . S
C2019 C2023 1.429 . S
C2020 C2003 1.574 . S
C2020 H2014 0.949 . S
C2020 C2024 1.368 . S
C2021 C2002 1.429 . S
C2021 C2015 1.429 . S
C2021 C2022 1.523 . S
C2022 C2003 1.368 . S
C2022 C2016 1.368 . S
C2022 C2021 1.523 . S
C2023 C2007 1.429 . S
C2023 C2019 1.429 . S
C2023 C2024 1.523 . S
C2024 C2008 1.368 . S
C2024 C2020 1.368 . S
C2024 C2023 1.523 . S
H2025 C2000 0.950 . S
H2026 C2002 0.950 . S
H2027 C2003 0.949 . S
H2028 C2005 0.950 . S
H2029 C2007 0.950 . S
C2030 C2031 1.349 . S
C2030 C2032 1.327 . S
C2030 H2055 0.950 . S
C2031 C2030 1.349 . S
C2031 C2047 1.349 . S
C2032 C2030 1.327 . S
C2032 C2051 1.429 . S
C2032 H2056 0.950 . S
C2033 C2050 1.574 . S
C2033 C2052 1.368 . S
C2033 H2057 0.949 . S
H2034 C2038 0.949 . S
C2035 C2036 1.349 . S
C2035 C2037 1.327 . S
C2035 H2058 0.950 . S
C2036 C2035 1.349 . S
C2036 C2048 1.349 . S
C2037 C2035 1.327 . S
C2037 C2053 1.429 . S
C2037 H2059 0.950 . S
C2038 H2034 0.949 . S
C2038 C2046 1.574 . S
C2038 C2054 1.368 . S
H2039 C2047 0.950 . S
H2040 C2045 0.950 . S
H2041 C2046 0.949 . S
H2042 C2048 0.950 . S
H2043 C2049 0.950 . S
H2044 C2050 0.949 . S
C2045 H2040 0.950 . S
C2045 C2047 1.327 . S
C2045 C2051 1.429 . S
C2046 C2038 1.574 . S
C2046 H2041 0.949 . S
C2046 C2052 1.368 . S
C2047 C2031 1.349 . S
C2047 H2039 0.950 . S
C2047 C2045 1.327 . S
C2048 C2036 1.349 . S
C2048 H2042 0.950 . S
C2048 C2049 1.327 . S
C2049 H2043 0.950 . S
C2049 C2048 1.327 . S
C2049 C2053 1.429 . S
C2050 C2033 1.574 . S
C2050 H2044 0.949 . S
C2050 C2054 1.368 . S
C2051 C2032 1.429 . S
C2051 C2045 1.429 . S
C2051 C2052 1.523 . S
C2052 C2033 1.368 . S
C2052 C2046 1.368 . S
C2052 C2051 1.523 . S
C2053 C2037 1.429 . S
C2053 C2049 1.429 . S
C2053 C2054 1.523 . S
C2054 C2038 1.368 . S
C2054 C2050 1.368 . S
C2054 C2053 1.523 . S
H2055 C2030 0.950 . S
H2056 C2032 0.950 . S
H2057 C2033 0.949 . S
H2058 C2035 0.950 . S
H2059 C2037 0.950 . S
C2060 C2061 1.349 . S
C2060 C2062 1.327 . S
C2060 H2085 0.950 . S
C2061 C2060 1.349 . S
C2061 C2077 1.349 . S
C2062 C2060 1.327 . S
C2062 C2081 1.429 . S
C2062 H2086 0.950 . S
C2063 C2080 1.574 . S
C2063 C2082 1.368 . S
C2063 H2087 0.949 . S
H2064 C2068 0.949 . S
C2065 C2066 1.349 . S
C2065 C2067 1.327 . S
C2065 H2088 0.950 . S
C2066 C2065 1.349 . S
C2066 C2078 1.349 . S
C2067 C2065 1.327 . S
C2067 C2083 1.429 . S
C2067 H2089 0.950 . S
C2068 H2064 0.949 . S
C2068 C2076 1.574 . S
C2068 C2084 1.368 . S
H2069 C2077 0.950 . S
H2070 C2075 0.950 . S
H2071 C2076 0.949 . S
H2072 C2078 0.950 . S
H2073 C2079 0.950 . S
H2074 C2080 0.949 . S
C2075 H2070 0.950 . S
C2075 C2077 1.327 . S
C2075 C2081 1.429 . S
C2076 C2068 1.574 . S
C2076 H2071 0.949 . S
C2076 C2082 1.368 . S
C2077 C2061 1.349 . S
C2077 H2069 0.950 . S
C2077 C2075 1.327 . S
C2078 C2066 1.349 . S
C2078 H2072 0.950 . S
C2078 C2079 1.327 . S
C2079 H2073 0.950 . S
C2079 C2078 1.327 . S
C2079 C2083 1.429 . S
C2080 C2063 1.574 . S
C2080 H2074 0.949 . S
C2080 C2084 1.368 . S
C2081 C2062 1.429 . S
C2081 C2075 1.429 . S
C2081 C2082 1.523 . S
C2082 C2063 1.368 . S
C2082 C2076 1.368 . S
C2082 C2081 1.523 . S
C2083 C2067 1.429 . S
C2083 C2079 1.429 . S
C2083 C2084 1.523 . S
C2084 C2068 1.368 . S
C2084 C2080 1.368 . S
C2084 C2083 1.523 . S
H2085 C2060 0.950 . S
H2086 C2062 0.950 . S
H2087 C2063 0.949 . S
H2088 C2065 0.950 . S
H2089 C2067 0.950 . S
C2090 C2091 1.349 . S
C2090 C2092 1.327 . S
C2090 H2115 0.950 . S
C2091 C2090 1.349 . S
C2091 C2107 1.349 . S
C2092 C2090 1.327 . S
C2092 C2111 1.429 . S
C2092 H2116 0.950 . S
C2093 C2110 1.574 . S
C2093 C2112 1.368 . S
C2093 H2117 0.949 . S
H2094 C2098 0.949 . S
C2095 C2096 1.349 . S
C2095 C2097 1.327 . S
C2095 H2118 0.950 . S
C2096 C2095 1.349 . S
C2096 C2108 1.349 . S
C2097 C2095 1.327 . S
C2097 C2113 1.429 1_655 S
C2097 H2119 0.950 . S
C2098 H2094 0.949 . S
C2098 C2106 1.574 . S
C2098 C2114 1.368 . S
H2099 C2107 0.950 . S
H2100 C2105 0.950 . S
H2101 C2106 0.949 . S
H2102 C2108 0.950 . S
H2103 C2109 0.950 . S
H2104 C2110 0.949 . S
C2105 H2100 0.950 . S
C2105 C2107 1.327 . S
C2105 C2111 1.429 . S
C2106 C2098 1.574 . S
C2106 H2101 0.949 . S
C2106 C2112 1.368 . S
C2107 C2091 1.349 . S
C2107 H2099 0.950 . S
C2107 C2105 1.327 . S
C2108 C2096 1.349 . S
C2108 H2102 0.950 . S
C2108 C2109 1.327 1_655 S
C2109 H2103 0.950 . S
C2109 C2108 1.327 1_455 S
C2109 C2113 1.429 . S
C2110 C2093 1.574 . S
C2110 H2104 0.949 . S
C2110 C2114 1.368 . S
C2111 C2092 1.429 . S
C2111 C2105 1.429 . S
C2111 C2112 1.523 . S
C2112 C2093 1.368 . S
C2112 C2106 1.368 . S
C2112 C2111 1.523 . S
C2113 C2097 1.429 1_455 S
C2113 C2109 1.429 . S
C2113 C2114 1.523 . S
C2114 C2098 1.368 . S
C2114 C2110 1.368 . S
C2114 C2113 1.523 . S
H2115 C2090 0.950 . S
H2116 C2092 0.950 . S
H2117 C2093 0.949 . S
H2118 C2095 0.950 . S
H2119 C2097 0.950 . S
C2120 C2121 1.349 . S
C2120 C2122 1.327 . S
C2120 H2145 0.950 . S
C2121 C2120 1.349 . S
C2121 C2137 1.349 . S
C2122 C2120 1.327 . S
C2122 C2141 1.429 . S
C2122 H2146 0.950 . S
C2123 C2140 1.574 . S
C2123 C2142 1.368 . S
C2123 H2147 0.949 . S
H2124 C2128 0.949 . S
C2125 C2126 1.349 . S
C2125 C2127 1.327 . S
C2125 H2148 0.950 . S
C2126 C2125 1.349 . S
C2126 C2138 1.349 . S
C2127 C2125 1.327 . S
C2127 C2143 1.429 . S
C2127 H2149 0.950 . S
C2128 H2124 0.949 . S
C2128 C2136 1.574 . S
C2128 C2144 1.368 . S
H2129 C2137 0.950 . S
H2130 C2135 0.950 . S
H2131 C2136 0.949 . S
H2132 C2138 0.950 . S
H2133 C2139 0.950 . S
H2134 C2140 0.949 . S
C2135 H2130 0.950 . S
C2135 C2137 1.327 . S
C2135 C2141 1.429 . S
C2136 C2128 1.574 . S
C2136 H2131 0.949 . S
C2136 C2142 1.368 . S
C2137 C2121 1.349 . S
C2137 H2129 0.950 . S
C2137 C2135 1.327 . S
C2138 C2126 1.349 . S
C2138 H2132 0.950 . S
C2138 C2139 1.327 . S
C2139 H2133 0.950 . S
C2139 C2138 1.327 . S
C2139 C2143 1.429 . S
C2140 C2123 1.574 . S
C2140 H2134 0.949 . S
C2140 C2144 1.368 . S
C2141 C2122 1.429 . S
C2141 C2135 1.429 . S
C2141 C2142 1.523 . S
C2142 C2123 1.368 . S
C2142 C2136 1.368 . S
C2142 C2141 1.523 . S
C2143 C2127 1.429 . S
C2143 C2139 1.429 . S
C2143 C2144 1.523 . S
C2144 C2128 1.368 . S
C2144 C2140 1.368 . S
C2144 C2143 1.523 . S
H2145 C2120 0.950 . S
H2146 C2122 0.950 . S
H2147 C2123 0.949 . S
H2148 C2125 0.950 . S
H2149 C2127 0.950 . S
C2150 C2151 1.349 . S
C2150 C2152 1.327 1_655 S
C2150 H2175 0.950 . S
C2151 C2150 1.349 . S
C2151 C2167 1.349 . S
C2152 C2150 1.327 1_455 S
C2152 C2171 1.429 . S
C2152 H2176 0.950 . S
C2153 C2170 1.574 . S
C2153 C2172 1.368 . S
C2153 H2177 0.949 . S
H2154 C2158 0.949 . S
C2155 C2156 1.349 . S
C2155 C2157 1.327 . S
C2155 H2178 0.950 . S
C2156 C2155 1.349 . S
C2156 C2168 1.349 . S
C2157 C2155 1.327 . S
C2157 C2173 1.429 . S
C2157 H2179 0.950 . S
C2158 H2154 0.949 . S
C2158 C2166 1.574 . S
C2158 C2174 1.368 . S
H2159 C2167 0.950 . S
H2160 C2165 0.950 . S
H2161 C2166 0.949 . S
H2162 C2168 0.950 . S
H2163 C2169 0.950 . S
H2164 C2170 0.949 . S
C2165 H2160 0.950 . S
C2165 C2167 1.327 . S
C2165 C2171 1.429 1_655 S
C2166 C2158 1.574 . S
C2166 H2161 0.949 . S
C2166 C2172 1.368 . S
C2167 C2151 1.349 . S
C2167 H2159 0.950 . S
C2167 C2165 1.327 . S
C2168 C2156 1.349 . S
C2168 H2162 0.950 . S
C2168 C2169 1.327 . S
C2169 H2163 0.950 . S
C2169 C2168 1.327 . S
C2169 C2173 1.429 . S
C2170 C2153 1.574 . S
C2170 H2164 0.949 . S
C2170 C2174 1.368 . S
C2171 C2152 1.429 . S
C2171 C2165 1.429 1_455 S
C2171 C2172 1.523 . S
C2172 C2153 1.368 . S
C2172 C2166 1.368 . S
C2172 C2171 1.523 . S
C2173 C2157 1.429 . S
C2173 C2169 1.429 . S
C2173 C2174 1.523 . S
C2174 C2158 1.368 . S
C2174 C2170 1.368 . S
C2174 C2173 1.523 . S
H2175 C2150 0.950 . S
H2176 C2152 0.950 . S
H2177 C2153 0.949 . S
H2178 C2155 0.950 . S
H2179 C2157 0.950 . S
C2180 C2181 1.349 . S
C2180 C2182 1.327 . S
C2180 H2205 0.950 . S
C2181 C2180 1.349 . S
C2181 C2197 1.349 . S
C2182 C2180 1.327 . S
C2182 C2201 1.429 . S
C2182 H2206 0.950 . S
C2183 C2200 1.574 . S
C2183 C2202 1.368 . S
C2183 H2207 0.949 . S
H2184 C2188 0.949 . S
C2185 C2186 1.349 . S
C2185 C2187 1.327 . S
C2185 H2208 0.950 . S
C2186 C2185 1.349 . S
C2186 C2198 1.349 . S
C2187 C2185 1.327 . S
C2187 C2203 1.429 . S
C2187 H2209 0.950 . S
C2188 H2184 0.949 . S
C2188 C2196 1.574 . S
C2188 C2204 1.368 . S
H2189 C2197 0.950 . S
H2190 C2195 0.950 . S
H2191 C2196 0.949 . S
H2192 C2198 0.950 . S
H2193 C2199 0.950 . S
H2194 C2200 0.949 . S
C2195 H2190 0.950 . S
C2195 C2197 1.327 . S
C2195 C2201 1.429 . S
C2196 C2188 1.574 . S
C2196 H2191 0.949 . S
C2196 C2202 1.368 . S
C2197 C2181 1.349 . S
C2197 H2189 0.950 . S
C2197 C2195 1.327 . S
C2198 C2186 1.349 . S
C2198 H2192 0.950 . S
C2198 C2199 1.327 . S
C2199 H2193 0.950 . S
C2199 C2198 1.327 . S
C2199 C2203 1.429 . S
C2200 C2183 1.574 . S
C2200 H2194 0.949 . S
C2200 C2204 1.368 . S
C2201 C2182 1.429 . S
C2201 C2195 1.429 . S
C2201 C2202 1.523 . S
C2202 C2183 1.368 . S
C2202 C2196 1.368 . S
C2202 C2201 1.523 . S
C2203 C2187 1.429 . S
C2203 C2199 1.429 . S
C2203 C2204 1.523 . S
C2204 C2188 1.368 . S
C2204 C2200 1.368 . S
C2204 C2203 1.523 . S
H2205 C2180 0.950 . S
H2206 C2182 0.950 . S
H2207 C2183 0.949 . S
H2208 C2185 0.950 . S
H2209 C2187 0.950 . S
C2210 C2211 1.349 . S
C2210 C2212 1.327 . S
C2210 H2235 0.950 . S
C2211 C2210 1.349 . S
C2211 C2227 1.349 . S
C2212 C2210 1.327 . S
C2212 C2231 1.429 . S
C2212 H2236 0.950 . S
C2213 C2230 1.574 . S
C2213 C2232 1.368 . S
C2213 H2237 0.949 . S
H2214 C2218 0.949 . S
C2215 C2216 1.349 . S
C2215 C2217 1.327 . S
C2215 H2238 0.950 . S
C2216 C2215 1.349 . S
C2216 C2228 1.349 . S
C2217 C2215 1.327 . S
C2217 C2233 1.429 . S
C2217 H2239 0.950 . S
C2218 H2214 0.949 . S
C2218 C2226 1.574 . S
C2218 C2234 1.368 . S
H2219 C2227 0.950 . S
H2220 C2225 0.950 . S
H2221 C2226 0.949 . S
H2222 C2228 0.950 . S
H2223 C2229 0.950 . S
H2224 C2230 0.949 . S
C2225 H2220 0.950 . S
C2225 C2227 1.327 . S
C2225 C2231 1.429 . S
C2226 C2218 1.574 . S
C2226 H2221 0.949 . S
C2226 C2232 1.368 . S
C2227 C2211 1.349 . S
C2227 H2219 0.950 . S
C2227 C2225 1.327 . S
C2228 C2216 1.349 . S
C2228 H2222 0.950 . S
C2228 C2229 1.327 . S
C2229 H2223 0.950 . S
C2229 C2228 1.327 . S
C2229 C2233 1.429 . S
C2230 C2213 1.574 . S
C2230 H2224 0.949 . S
C2230 C2234 1.368 . S
C2231 C2212 1.429 . S
C2231 C2225 1.429 . S
C2231 C2232 1.523 . S
C2232 C2213 1.368 . S
C2232 C2226 1.368 . S
C2232 C2231 1.523 . S
C2233 C2217 1.429 . S
C2233 C2229 1.429 . S
C2233 C2234 1.523 . S
C2234 C2218 1.368 . S
C2234 C2230 1.368 . S
C2234 C2233 1.523 . S
H2235 C2210 0.950 . S
H2236 C2212 0.950 . S
H2237 C2213 0.949 . S
H2238 C2215 0.950 . S
H2239 C2217 0.950 . S
C2240 C2241 1.349 . S
C2240 C2242 1.327 . S
C2240 H2265 0.950 . S
C2241 C2240 1.349 . S
C2241 C2257 1.349 . S
C2242 C2240 1.327 . S
C2242 C2261 1.429 . S
C2242 H2266 0.950 . S
C2243 C2260 1.599 . S
C2243 C2262 1.344 1_655 S
C2243 H2267 0.949 . S
H2244 C2248 0.949 . S
C2245 C2246 1.349 . S
C2245 C2247 1.327 . S
C2245 H2268 0.950 . S
C2246 C2245 1.349 . S
C2246 C2258 1.349 . S
C2247 C2245 1.327 . S
C2247 C2263 1.429 . S
C2247 H2269 0.950 . S
C2248 H2244 0.949 . S
C2248 C2256 1.599 . S
C2248 C2264 1.344 1_455 S
H2249 C2257 0.950 . S
H2250 C2255 0.950 . S
H2251 C2256 0.949 . S
H2252 C2258 0.950 . S
H2253 C2259 0.950 . S
H2254 C2260 0.949 . S
C2255 H2250 0.950 . S
C2255 C2257 1.327 . S
C2255 C2261 1.429 . S
C2256 C2248 1.599 . S
C2256 H2251 0.949 . S
C2256 C2262 1.368 . S
C2257 C2241 1.349 . S
C2257 H2249 0.950 . S
C2257 C2255 1.327 . S
C2258 C2246 1.349 . S
C2258 H2252 0.950 . S
C2258 C2259 1.327 . S
C2259 H2253 0.950 . S
C2259 C2258 1.327 . S
C2259 C2263 1.429 . S
C2260 C2243 1.599 . S
C2260 H2254 0.949 . S
C2260 C2264 1.368 . S
C2261 C2242 1.429 . S
C2261 C2255 1.429 . S
C2261 C2262 1.523 . S
C2262 C2243 1.344 1_455 S
C2262 C2256 1.368 . S
C2262 C2261 1.523 . S
C2263 C2247 1.429 . S
C2263 C2259 1.429 . S
C2263 C2264 1.523 . S
C2264 C2248 1.344 1_655 S
C2264 C2260 1.368 . S
C2264 C2263 1.523 . S
H2265 C2240 0.950 . S
H2266 C2242 0.950 . S
H2267 C2243 0.949 . S
H2268 C2245 0.950 . S
H2269 C2247 0.950 . S
C2270 C2271 1.349 . S
C2270 C2272 1.327 . S
C2270 H2295 0.950 . S
C2271 C2270 1.349 . S
C2271 C2287 1.349 . S
C2272 C2270 1.327 . S
C2272 C2291 1.429 . S
C2272 H2296 0.950 . S
C2273 C2290 1.574 1_655 S
C2273 C2292 1.368 . S
C2273 H2297 0.949 . S
H2274 C2278 0.949 . S
C2275 C2276 1.349 . S
C2275 C2277 1.327 . S
C2275 H2298 0.950 . S
C2276 C2275 1.349 . S
C2276 C2288 1.349 . S
C2277 C2275 1.327 . S
C2277 C2293 1.429 . S
C2277 H2299 0.950 . S
C2278 H2274 0.949 . S
C2278 C2286 1.574 1_455 S
C2278 C2294 1.368 . S
H2279 C2287 0.950 . S
H2280 C2285 0.950 . S
H2281 C2286 0.949 . S
H2282 C2288 0.950 . S
H2283 C2289 0.950 . S
H2284 C2290 0.949 . S
C2285 H2280 0.950 . S
C2285 C2287 1.327 . S
C2285 C2291 1.429 . S
C2286 C2278 1.574 1_655 S
C2286 H2281 0.949 . S
C2286 C2292 1.368 . S
C2287 C2271 1.349 . S
C2287 H2279 0.950 . S
C2287 C2285 1.327 . S
C2288 C2276 1.349 . S
C2288 H2282 0.950 . S
C2288 C2289 1.327 . S
C2289 H2283 0.950 . S
C2289 C2288 1.327 . S
C2289 C2293 1.429 . S
C2290 C2273 1.574 1_455 S
C2290 H2284 0.949 . S
C2290 C2294 1.368 . S
C2291 C2272 1.429 . S
C2291 C2285 1.429 . S
C2291 C2292 1.523 . S
C2292 C2273 1.368 . S
C2292 C2286 1.368 . S
C2292 C2291 1.523 . S
C2293 C2277 1.429 . S
C2293 C2289 1.429 . S
C2293 C2294 1.523 . S
C2294 C2278 1.368 . S
C2294 C2290 1.368 . S
C2294 C2293 1.523 . S
H2295 C2270 0.950 . S
H2296 C2272 0.950 . S
H2297 C2273 0.949 . S
H2298 C2275 0.950 . S
H2299 C2277 0.950 . S
C2300 C2301 1.349 . S
C2300 C2302 1.327 . S
C2300 H2325 0.950 . S
C2301 C2300 1.349 . S
C2301 C2317 1.349 . S
C2302 C2300 1.327 . S
C2302 C2321 1.429 . S
C2302 H2326 0.950 . S
C2303 C2320 1.574 . S
C2303 C2322 1.368 . S
C2303 H2327 0.949 . S
H2304 C2308 0.949 . S
C2305 C2306 1.349 . S
C2305 C2307 1.327 . S
C2305 H2328 0.950 . S
C2306 C2305 1.349 . S
C2306 C2318 1.349 . S
C2307 C2305 1.327 . S
C2307 C2323 1.429 . S
C2307 H2329 0.950 . S
C2308 H2304 0.949 . S
C2308 C2316 1.574 . S
C2308 C2324 1.368 . S
H2309 C2317 0.950 . S
H2310 C2315 0.950 . S
H2311 C2316 0.949 . S
H2312 C2318 0.950 . S
H2313 C2319 0.950 . S
H2314 C2320 0.949 . S
C2315 H2310 0.950 . S
C2315 C2317 1.327 . S
C2315 C2321 1.429 . S
C2316 C2308 1.574 . S
C2316 H2311 0.949 . S
C2316 C2322 1.368 . S
C2317 C2301 1.349 . S
C2317 H2309 0.950 . S
C2317 C2315 1.327 . S
C2318 C2306 1.349 . S
C2318 H2312 0.950 . S
C2318 C2319 1.327 . S
C2319 H2313 0.950 . S
C2319 C2318 1.327 . S
C2319 C2323 1.429 . S
C2320 C2303 1.574 . S
C2320 H2314 0.949 . S
C2320 C2324 1.368 . S
C2321 C2302 1.429 . S
C2321 C2315 1.429 . S
C2321 C2322 1.523 . S
C2322 C2303 1.368 . S
C2322 C2316 1.368 . S
C2322 C2321 1.523 . S
C2323 C2307 1.429 . S
C2323 C2319 1.429 . S
C2323 C2324 1.523 . S
C2324 C2308 1.368 . S
C2324 C2320 1.368 . S
C2324 C2323 1.523 . S
H2325 C2300 0.950 . S
H2326 C2302 0.950 . S
H2327 C2303 0.949 . S
H2328 C2305 0.950 . S
H2329 C2307 0.950 . S
C2330 C2331 1.349 . S
C2330 C2332 1.327 . S
C2330 H2355 0.950 . S
C2331 C2330 1.349 . S
C2331 C2347 1.349 . S
C2332 C2330 1.327 . S
C2332 C2351 1.429 . S
C2332 H2356 0.950 . S
C2333 C2350 1.574 . S
C2333 C2352 1.368 . S
C2333 H2357 0.949 . S
H2334 C2338 0.949 . S
C2335 C2336 1.349 . S
C2335 C2337 1.327 . S
C2335 H2358 0.950 . S
C2336 C2335 1.349 . S
C2336 C2348 1.349 . S
C2337 C2335 1.327 . S
C2337 C2353 1.429 . S
C2337 H2359 0.950 . S
C2338 H2334 0.949 . S
C2338 C2346 1.574 . S
C2338 C2354 1.368 . S
H2339 C2347 0.950 . S
H2340 C2345 0.950 . S
H2341 C2346 0.949 . S
H2342 C2348 0.950 . S
H2343 C2349 0.950 . S
H2344 C2350 0.949 . S
C2345 H2340 0.950 . S
C2345 C2347 1.327 . S
C2345 C2351 1.429 . S
C2346 C2338 1.574 . S
C2346 H2341 0.949 . S
C2346 C2352 1.368 . S
C2347 C2331 1.349 . S
C2347 H2339 0.950 . S
C2347 C2345 1.327 . S
C2348 C2336 1.349 . S
C2348 H2342 0.950 . S
C2348 C2349 1.327 . S
C2349 H2343 0.950 . S
C2349 C2348 1.327 . S
C2349 C2353 1.429 . S
C2350 C2333 1.574 . S
C2350 H2344 0.949 . S
C2350 C2354 1.368 . S
C2351 C2332 1.429 . S
C2351 C2345 1.429 . S
C2351 C2352 1.523 . S
C2352 C2333 1.368 . S
C2352 C2346 1.368 . S
C2352 C2351 1.523 . S
C2353 C2337 1.429 . S
C2353 C2349 1.429 . S
C2353 C2354 1.523 . S
C2354 C2338 1.368 . S
C2354 C2350 1.368 . S
C2354 C2353 1.523 . S
H2355 C2330 0.950 . S
H2356 C2332 0.950 . S
H2357 C2333 0.949 . S
H2358 C2335 0.950 . S
H2359 C2337 0.950 . S
C2360 C2361 1.349 . S
C2360 C2362 1.327 . S
C2360 H2385 0.950 . S
C2361 C2360 1.349 . S
C2361 C2377 1.349 . S
C2362 C2360 1.327 . S
C2362 C2381 1.429 . S
C2362 H2386 0.950 . S
C2363 C2380 1.599 . S
C2363 C2382 1.344 1_455 S
C2363 H2387 0.949 . S
H2364 C2368 0.949 . S
C2365 C2366 1.349 . S
C2365 C2367 1.327 . S
C2365 H2388 0.950 . S
C2366 C2365 1.349 . S
C2366 C2378 1.349 . S
C2367 C2365 1.327 . S
C2367 C2383 1.429 . S
C2367 H2389 0.950 . S
C2368 H2364 0.949 . S
C2368 C2376 1.599 . S
C2368 C2384 1.344 1_655 S
H2369 C2377 0.950 . S
H2370 C2375 0.950 . S
H2371 C2376 0.949 . S
H2372 C2378 0.950 . S
H2373 C2379 0.950 . S
H2374 C2380 0.949 . S
C2375 H2370 0.950 . S
C2375 C2377 1.327 . S
C2375 C2381 1.429 . S
C2376 C2368 1.599 . S
C2376 H2371 0.949 . S
C2376 C2382 1.368 . S
C2377 C2361 1.349 . S
C2377 H2369 0.950 . S
C2377 C2375 1.327 . S
C2378 C2366 1.349 . S
C2378 H2372 0.950 . S
C2378 C2379 1.327 . S
C2379 H2373 0.950 . S
C2379 C2378 1.327 . S
C2379 C2383 1.429 . S
C2380 C2363 1.599 . S
C2380 H2374 0.949 . S
C2380 C2384 1.368 . S
C2381 C2362 1.429 . S
C2381 C2375 1.429 . S
C2381 C2382 1.523 . S
C2382 C2363 1.344 1_655 S
C2382 C2376 1.368 . S
C2382 C2381 1.523 . S
C2383 C2367 1.429 . S
C2383 C2379 1.429 . S
C2383 C2384 1.523 . S
C2384 C2368 1.344 1_455 S
C2384 C2380 1.368 . S
C2384 C2383 1.523 . S
H2385 C2360 0.950 . S
H2386 C2362 0.950 . S
H2387 C2363 0.949 . S
H2388 C2365 0.950 . S
H2389 C2367 0.950 . S
C2390 C2391 1.349 . S
C2390 C2392 1.327 . S
C2390 H2415 0.950 . S
C2391 C2390 1.349 . S
C2391 C2407 1.349 . S
C2392 C2390 1.327 . S
C2392 C2411 1.429 . S
C2392 H2416 0.950 . S
C2393 C2410 1.574 . S
C2393 C2412 1.368 . S
C2393 H2417 0.949 . S
H2394 C2398 0.949 . S
C2395 C2396 1.349 . S
C2395 C2397 1.327 . S
C2395 H2418 0.950 . S
C2396 C2395 1.349 . S
C2396 C2408 1.349 . S
C2397 C2395 1.327 . S
C2397 C2413 1.429 . S
C2397 H2419 0.950 . S
C2398 H2394 0.949 . S
C2398 C2406 1.574 . S
C2398 C2414 1.368 . S
H2399 C2407 0.950 . S
H2400 C2405 0.950 . S
H2401 C2406 0.949 . S
H2402 C2408 0.950 . S
H2403 C2409 0.950 . S
H2404 C2410 0.949 . S
C2405 H2400 0.950 . S
C2405 C2407 1.327 . S
C2405 C2411 1.429 . S
C2406 C2398 1.574 . S
C2406 H2401 0.949 . S
C2406 C2412 1.368 . S
C2407 C2391 1.349 . S
C2407 H2399 0.950 . S
C2407 C2405 1.327 . S
C2408 C2396 1.349 . S
C2408 H2402 0.950 . S
C2408 C2409 1.327 . S
C2409 H2403 0.950 . S
C2409 C2408 1.327 . S
C2409 C2413 1.429 . S
C2410 C2393 1.574 . S
C2410 H2404 0.949 . S
C2410 C2414 1.368 . S
C2411 C2392 1.429 . S
C2411 C2405 1.429 . S
C2411 C2412 1.523 . S
C2412 C2393 1.368 . S
C2412 C2406 1.368 . S
C2412 C2411 1.523 . S
C2413 C2397 1.429 . S
C2413 C2409 1.429 . S
C2413 C2414 1.523 . S
C2414 C2398 1.368 . S
C2414 C2410 1.368 . S
C2414 C2413 1.523 . S
H2415 C2390 0.950 . S
H2416 C2392 0.950 . S
H2417 C2393 0.949 . S
H2418 C2395 0.950 . S
H2419 C2397 0.950 . S
C2420 C2421 1.349 . S
C2420 C2422 1.327 . S
C2420 H2445 0.950 . S
C2421 C2420 1.349 . S
C2421 C2437 1.349 . S
C2422 C2420 1.327 . S
C2422 C2441 1.429 . S
C2422 H2446 0.950 . S
C2423 C2440 1.574 . S
C2423 C2442 1.368 . S
C2423 H2447 0.949 . S
H2424 C2428 0.949 . S
C2425 C2426 1.349 . S
C2425 C2427 1.327 . S
C2425 H2448 0.950 . S
C2426 C2425 1.349 . S
C2426 C2438 1.349 . S
C2427 C2425 1.327 . S
C2427 C2443 1.429 . S
C2427 H2449 0.950 . S
C2428 H2424 0.949 . S
C2428 C2436 1.574 . S
C2428 C2444 1.368 . S
H2429 C2437 0.950 . S
H2430 C2435 0.950 . S
H2431 C2436 0.949 . S
H2432 C2438 0.950 . S
H2433 C2439 0.950 . S
H2434 C2440 0.949 . S
C2435 H2430 0.950 . S
C2435 C2437 1.327 . S
C2435 C2441 1.429 . S
C2436 C2428 1.574 . S
C2436 H2431 0.949 . S
C2436 C2442 1.368 . S
C2437 C2421 1.349 . S
C2437 H2429 0.950 . S
C2437 C2435 1.327 . S
C2438 C2426 1.349 . S
C2438 H2432 0.950 . S
C2438 C2439 1.327 . S
C2439 H2433 0.950 . S
C2439 C2438 1.327 . S
C2439 C2443 1.429 . S
C2440 C2423 1.574 . S
C2440 H2434 0.949 . S
C2440 C2444 1.368 . S
C2441 C2422 1.429 . S
C2441 C2435 1.429 . S
C2441 C2442 1.523 . S
C2442 C2423 1.368 . S
C2442 C2436 1.368 . S
C2442 C2441 1.523 . S
C2443 C2427 1.429 . S
C2443 C2439 1.429 . S
C2443 C2444 1.523 . S
C2444 C2428 1.368 . S
C2444 C2440 1.368 . S
C2444 C2443 1.523 . S
H2445 C2420 0.950 . S
H2446 C2422 0.950 . S
H2447 C2423 0.949 . S
H2448 C2425 0.950 . S
H2449 C2427 0.950 . S
C2450 C2451 1.349 . S
C2450 C2452 1.327 . S
C2450 H2475 0.950 . S
C2451 C2450 1.349 . S
C2451 C2467 1.349 . S
C2452 C2450 1.327 . S
C2452 C2471 1.429 . S
C2452 H2476 0.950 . S
C2453 C2470 1.574 1_455 S
C2453 C2472 1.368 . S
C2453 H2477 0.949 . S
H2454 C2458 0.949 . S
C2455 C2456 1.349 . S
C2455 C2457 1.327 . S
C2455 H2478 0.950 . S
C2456 C2455 1.349 . S
C2456 C2468 1.349 . S
C2457 C2455 1.327 . S
C2457 C2473 1.429 . S
C2457 H2479 0.950 . S
C2458 H2454 0.949 . S
C2458 C2466 1.574 1_655 S
C2458 C2474 1.368 . S
H2459 C2467 0.950 . S
H2460 C2465 0.950 . S
H2461 C2466 0.949 . S
H2462 C2468 0.950 . S
H2463 C2469 0.950 . S
H2464 C2470 0.949 . S
C2465 H2460 0.950 . S
C2465 C2467 1.327 . S
C2465 C2471 1.429 . S
C2466 C2458 1.574 1_455 S
C2466 H2461 0.949 . S
C2466 C2472 1.368 . S
C2467 C2451 1.349 . S
C2467 H2459 0.950 . S
C2467 C2465 1.327 . S
C2468 C2456 1.349 . S
C2468 H2462 0.950 . S
C2468 C2469 1.327 . S
C2469 H2463 0.950 . S
C2469 C2468 1.327 . S
C2469 C2473 1.429 . S
C2470 C2453 1.574 1_655 S
C2470 H2464 0.949 . S
C2470 C2474 1.368 . S
C2471 C2452 1.429 . S
C2471 C2465 1.429 . S
C2471 C2472 1.523 . S
C2472 C2453 1.368 . S
C2472 C2466 1.368 . S
C2472 C2471 1.523 . S
C2473 C2457 1.429 . S
C2473 C2469 1.429 . S
C2473 C2474 1.523 . S
C2474 C2458 1.368 . S
C2474 C2470 1.368 . S
C2474 C2473 1.523 . S
H2475 C2450 0.950 . S
H2476 C2452 0.950 . S
H2477 C2453 0.949 . S
H2478 C2455 0.950 . S
H2479 C2457 0.950 . S
C2480 C2481 1.349 . S
C2480 C2482 1.327 . S
C2480 H2505 0.950 . S
C2481 C2480 1.349 . S
C2481 C2497 1.349 . S
C2482 C2480 1.327 . S
C2482 C2501 1.429 . S
C2482 H2506 0.950 . S
C2483 C2500 1.599 . S
C2483 C2502 1.344 1_655 S
C2483 H2507 0.949 . S
H2484 C2488 0.949 . S
C2485 C2486 1.349 . S
C2485 C2487 1.327 . S
C2485 H2508 0.950 . S
C2486 C2485 1.349 . S
C2486 C2498 1.349 . S
C2487 C2485 1.327 . S
C2487 C2503 1.429 . S
C2487 H2509 0.950 . S
C2488 H2484 0.949 . S
C2488 C2496 1.599 . S
C2488 C2504 1.344 1_455 S
H2489 C2497 0.950 . S
H2490 C2495 0.950 . S
H2491 C2496 0.949 . S
H2492 C2498 0.950 . S
H2493 C2499 0.950 . S
H2494 C2500 0.949 . S
C2495 H2490 0.950 . S
C2495 C2497 1.327 . S
C2495 C2501 1.429 . S
C2496 C2488 1.599 . S
C2496 H2491 0.949 . S
C2496 C2502 1.368 . S
C2497 C2481 1.349 . S
C2497 H2489 0.950 . S
C2497 C2495 1.327 . S
C2498 C2486 1.349 . S
C2498 H2492 0.950 . S
C2498 C2499 1.327 . S
C2499 H2493 0.950 . S
C2499 C2498 1.327 . S
C2499 C2503 1.429 . S
C2500 C2483 1.599 . S
C2500 H2494 0.949 . S
C2500 C2504 1.368 . S
C2501 C2482 1.429 . S
C2501 C2495 1.429 . S
C2501 C2502 1.523 . S
C2502 C2483 1.344 1_455 S
C2502 C2496 1.368 . S
C2502 C2501 1.523 . S
C2503 C2487 1.429 . S
C2503 C2499 1.429 . S
C2503 C2504 1.523 . S
C2504 C2488 1.344 1_655 S
C2504 C2500 1.368 . S
C2504 C2503 1.523 . S
H2505 C2480 0.950 . S
H2506 C2482 0.950 . S
H2507 C2483 0.949 . S
H2508 C2485 0.950 . S
H2509 C2487 0.950 . S
C2510 C2511 1.349 . S
C2510 C2512 1.327 . S
C2510 H2535 0.950 . S
C2511 C2510 1.349 . S
C2511 C2527 1.349 . S
C2512 C2510 1.327 . S
C2512 C2531 1.429 . S
C2512 H2536 0.950 . S
C2513 C2530 1.574 1_655 S
C2513 C2532 1.368 . S
C2513 H2537 0.949 . S
H2514 C2518 0.949 . S
C2515 C2516 1.349 . S
C2515 C2517 1.327 . S
C2515 H2538 0.950 . S
C2516 C2515 1.349 . S
C2516 C2528 1.349 . S
C2517 C2515 1.327 . S
C2517 C2533 1.429 . S
C2517 H2539 0.950 . S
C2518 H2514 0.949 . S
C2518 C2526 1.574 1_455 S
C2518 C2534 1.368 . S
H2519 C2527 0.950 . S
H2520 C2525 0.950 . S
H2521 C2526 0.949 . S
H2522 C2528 0.950 . S
H2523 C2529 0.950 . S
H2524 C2530 0.949 . S
C2525 H2520 0.950 . S
C2525 C2527 1.327 . S
C2525 C2531 1.429 . S
C2526 C2518 1.574 1_655 S
C2526 H2521 0.949 . S
C2526 C2532 1.368 . S
C2527 C2511 1.349 . S
C2527 H2519 0.950 . S
C2527 C2525 1.327 . S
C2528 C2516 1.349 . S
C2528 H2522 0.950 . S
C2528 C2529 1.327 . S
C2529 H2523 0.950 . S
C2529 C2528 1.327 . S
C2529 C2533 1.429 . S
C2530 C2513 1.574 1_455 S
C2530 H2524 0.949 . S
C2530 C2534 1.368 . S
C2531 C2512 1.429 . S
C2531 C2525 1.429 . S
C2531 C2532 1.523 . S
C2532 C2513 1.368 . S
C2532 C2526 1.368 . S
C2532 C2531 1.523 . S
C2533 C2517 1.429 . S
C2533 C2529 1.429 . S
C2533 C2534 1.523 . S
C2534 C2518 1.368 . S
C2534 C2530 1.368 . S
C2534 C2533 1.523 . S
H2535 C2510 0.950 . S
H2536 C2512 0.950 . S
H2537 C2513 0.949 . S
H2538 C2515 0.950 . S
H2539 C2517 0.950 . S
C2540 C2541 1.349 . S
C2540 C2542 1.327 . S
C2540 H2565 0.950 . S
C2541 C2540 1.349 . S
C2541 C2557 1.349 . S
C2542 C2540 1.327 . S
C2542 C2561 1.429 . S
C2542 H2566 0.950 . S
C2543 C2560 1.574 . S
C2543 C2562 1.368 . S
C2543 H2567 0.949 . S
H2544 C2548 0.949 . S
C2545 C2546 1.349 . S
C2545 C2547 1.327 . S
C2545 H2568 0.950 . S
C2546 C2545 1.349 . S
C2546 C2558 1.349 . S
C2547 C2545 1.327 . S
C2547 C2563 1.429 . S
C2547 H2569 0.950 . S
C2548 H2544 0.949 . S
C2548 C2556 1.574 . S
C2548 C2564 1.368 . S
H2549 C2557 0.950 . S
H2550 C2555 0.950 . S
H2551 C2556 0.949 . S
H2552 C2558 0.950 . S
H2553 C2559 0.950 . S
H2554 C2560 0.949 . S
C2555 H2550 0.950 . S
C2555 C2557 1.327 . S
C2555 C2561 1.429 . S
C2556 C2548 1.574 . S
C2556 H2551 0.949 . S
C2556 C2562 1.368 . S
C2557 C2541 1.349 . S
C2557 H2549 0.950 . S
C2557 C2555 1.327 . S
C2558 C2546 1.349 . S
C2558 H2552 0.950 . S
C2558 C2559 1.327 . S
C2559 H2553 0.950 . S
C2559 C2558 1.327 . S
C2559 C2563 1.429 . S
C2560 C2543 1.574 . S
C2560 H2554 0.949 . S
C2560 C2564 1.368 . S
C2561 C2542 1.429 . S
C2561 C2555 1.429 . S
C2561 C2562 1.523 . S
C2562 C2543 1.368 . S
C2562 C2556 1.368 . S
C2562 C2561 1.523 . S
C2563 C2547 1.429 . S
C2563 C2559 1.429 . S
C2563 C2564 1.523 . S
C2564 C2548 1.368 . S
C2564 C2560 1.368 . S
C2564 C2563 1.523 . S
H2565 C2540 0.950 . S
H2566 C2542 0.950 . S
H2567 C2543 0.949 . S
H2568 C2545 0.950 . S
H2569 C2547 0.950 . S
C2570 C2571 1.349 . S
C2570 C2572 1.327 . S
C2570 H2595 0.950 . S
C2571 C2570 1.349 . S
C2571 C2587 1.349 . S
C2572 C2570 1.327 . S
C2572 C2591 1.429 . S
C2572 H2596 0.950 . S
C2573 C2590 1.574 . S
C2573 C2592 1.368 . S
C2573 H2597 0.949 . S
H2574 C2578 0.949 . S
C2575 C2576 1.349 . S
C2575 C2577 1.327 . S
C2575 H2598 0.950 . S
C2576 C2575 1.349 . S
C2576 C2588 1.349 . S
C2577 C2575 1.327 . S
C2577 C2593 1.429 . S
C2577 H2599 0.950 . S
C2578 H2574 0.949 . S
C2578 C2586 1.574 . S
C2578 C2594 1.368 . S
H2579 C2587 0.950 . S
H2580 C2585 0.950 . S
H2581 C2586 0.949 . S
H2582 C2588 0.950 . S
H2583 C2589 0.950 . S
H2584 C2590 0.949 . S
C2585 H2580 0.950 . S
C2585 C2587 1.327 . S
C2585 C2591 1.429 . S
C2586 C2578 1.574 . S
C2586 H2581 0.949 . S
C2586 C2592 1.368 . S
C2587 C2571 1.349 . S
C2587 H2579 0.950 . S
C2587 C2585 1.327 . S
C2588 C2576 1.349 . S
C2588 H2582 0.950 . S
C2588 C2589 1.327 . S
C2589 H2583 0.950 . S
C2589 C2588 1.327 . S
C2589 C2593 1.429 . S
C2590 C2573 1.574 . S
C2590 H2584 0.949 . S
C2590 C2594 1.368 . S
C2591 C2572 1.429 . S
C2591 C2585 1.429 . S
C2591 C2592 1.523 . S
C2592 C2573 1.368 . S
C2592 C2586 1.368 . S
C2592 C2591 1.523 . S
C2593 C2577 1.429 . S
C2593 C2589 1.429 . S
C2593 C2594 1.523 . S
C2594 C2578 1.368 . S
C2594 C2590 1.368 . S
C2594 C2593 1.523 . S
H2595 C2570 0.950 . S
H2596 C2572 0.950 . S
H2597 C2573 0.949 . S
H2598 C2575 0.950 . S
H2599 C2577 0.950 . S
C2600 C2601 1.349 . S
C2600 C2602 1.327 . S
C2600 H2625 0.950 . S
C2601 C2600 1.349 . S
C2601 C2617 1.349 . S
C2602 C2600 1.327 . S
C2602 C2621 1.429 . S
C2602 H2626 0.950 . S
C2603 C2620 1.599 . S
C2603 C2622 1.368 . S
C2603 H2627 0.949 . S
H2604 C2608 0.949 . S
C2605 C2606 1.349 . S
C2605 C2607 1.327 . S
C2605 H2628 0.950 . S
C2606 C2605 1.349 . S
C2606 C2618 1.349 . S
C2607 C2605 1.327 . S
C2607 C2623 1.429 . S
C2607 H2629 0.950 . S
C2608 H2604 0.949 . S
C2608 C2616 1.599 . S
C2608 C2624 1.368 . S
H2609 C2617 0.950 . S
H2610 C2615 0.950 . S
H2611 C2616 0.949 . S
H2612 C2618 0.950 . S
H2613 C2619 0.950 . S
H2614 C2620 0.949 . S
C2615 H2610 0.950 . S
C2615 C2617 1.327 . S
C2615 C2621 1.429 . S
C2616 C2608 1.599 . S
C2616 H2611 0.949 . S
C2616 C2622 1.344 1_655 S
C2617 C2601 1.349 . S
C2617 H2609 0.950 . S
C2617 C2615 1.327 . S
C2618 C2606 1.349 . S
C2618 H2612 0.950 . S
C2618 C2619 1.327 . S
C2619 H2613 0.950 . S
C2619 C2618 1.327 . S
C2619 C2623 1.429 . S
C2620 C2603 1.599 . S
C2620 H2614 0.949 . S
C2620 C2624 1.344 1_455 S
C2621 C2602 1.429 . S
C2621 C2615 1.429 . S
C2621 C2622 1.523 . S
C2622 C2603 1.368 . S
C2622 C2616 1.344 1_455 S
C2622 C2621 1.523 . S
C2623 C2607 1.429 . S
C2623 C2619 1.429 . S
C2623 C2624 1.523 . S
C2624 C2608 1.368 . S
C2624 C2620 1.344 1_655 S
C2624 C2623 1.523 . S
H2625 C2600 0.950 . S
H2626 C2602 0.950 . S
H2627 C2603 0.949 . S
H2628 C2605 0.950 . S
H2629 C2607 0.950 . S
C2630 C2631 1.349 . S
C2630 C2632 1.327 . S
C2630 H2655 0.950 . S
C2631 C2630 1.349 . S
C2631 C2647 1.349 . S
C2632 C2630 1.327 . S
C2632 C2651 1.429 . S
C2632 H2656 0.950 . S
C2633 C2650 1.574 . S
C2633 C2652 1.368 . S
C2633 H2657 0.949 . S
H2634 C2638 0.949 . S
C2635 C2636 1.349 . S
C2635 C2637 1.327 . S
C2635 H2658 0.950 . S
C2636 C2635 1.349 . S
C2636 C2648 1.349 . S
C2637 C2635 1.327 . S
C2637 C2653 1.429 . S
C2637 H2659 0.950 . S
C2638 H2634 0.949 . S
C2638 C2646 1.574 . S
C2638 C2654 1.368 . S
H2639 C2647 0.950 . S
H2640 C2645 0.950 . S
H2641 C2646 0.949 . S
H2642 C2648 0.950 . S
H2643 C2649 0.950 . S
H2644 C2650 0.949 . S
C2645 H2640 0.950 . S
C2645 C2647 1.327 . S
C2645 C2651 1.429 . S
C2646 C2638 1.574 . S
C2646 H2641 0.949 . S
C2646 C2652 1.368 . S
C2647 C2631 1.349 . S
C2647 H2639 0.950 . S
C2647 C2645 1.327 . S
C2648 C2636 1.349 . S
C2648 H2642 0.950 . S
C2648 C2649 1.327 . S
C2649 H2643 0.950 . S
C2649 C2648 1.327 . S
C2649 C2653 1.429 . S
C2650 C2633 1.574 . S
C2650 H2644 0.949 . S
C2650 C2654 1.368 . S
C2651 C2632 1.429 . S
C2651 C2645 1.429 . S
C2651 C2652 1.523 . S
C2652 C2633 1.368 . S
C2652 C2646 1.368 . S
C2652 C2651 1.523 . S
C2653 C2637 1.429 . S
C2653 C2649 1.429 . S
C2653 C2654 1.523 . S
C2654 C2638 1.368 . S
C2654 C2650 1.368 . S
C2654 C2653 1.523 . S
H2655 C2630 0.950 . S
H2656 C2632 0.950 . S
H2657 C2633 0.949 . S
H2658 C2635 0.950 . S
H2659 C2637 0.950 . S
C2660 C2661 1.349 . S
C2660 C2662 1.327 . S
C2660 H2685 0.950 . S
C2661 C2660 1.349 . S
C2661 C2677 1.349 . S
C2662 C2660 1.327 . S
C2662 C2681 1.429 . S
C2662 H2686 0.950 . S
C2663 C2680 1.574 . S
C2663 C2682 1.368 . S
C2663 H2687 0.949 . S
H2664 C2668 0.949 . S
C2665 C2666 1.349 . S
C2665 C2667 1.327 . S
C2665 H2688 0.950 . S
C2666 C2665 1.349 . S
C2666 C2678 1.349 . S
C2667 C2665 1.327 . S
C2667 C2683 1.429 . S
C2667 H2689 0.950 . S
C2668 H2664 0.949 . S
C2668 C2676 1.574 . S
C2668 C2684 1.368 . S
H2669 C2677 0.950 . S
H2670 C2675 0.950 . S
H2671 C2676 0.949 . S
H2672 C2678 0.950 . S
H2673 C2679 0.950 . S
H2674 C2680 0.949 . S
C2675 H2670 0.950 . S
C2675 C2677 1.327 . S
C2675 C2681 1.429 . S
C2676 C2668 1.574 . S
C2676 H2671 0.949 . S
C2676 C2682 1.368 . S
C2677 C2661 1.349 . S
C2677 H2669 0.950 . S
C2677 C2675 1.327 . S
C2678 C2666 1.349 . S
C2678 H2672 0.950 . S
C2678 C2679 1.327 . S
C2679 H2673 0.950 . S
C2679 C2678 1.327 . S
C2679 C2683 1.429 . S
C2680 C2663 1.574 . S
C2680 H2674 0.949 . S
C2680 C2684 1.368 . S
C2681 C2662 1.429 . S
C2681 C2675 1.429 . S
C2681 C2682 1.523 . S
C2682 C2663 1.368 . S
C2682 C2676 1.368 . S
C2682 C2681 1.523 . S
C2683 C2667 1.429 . S
C2683 C2679 1.429 . S
C2683 C2684 1.523 . S
C2684 C2668 1.368 . S
C2684 C2680 1.368 . S
C2684 C2683 1.523 . S
H2685 C2660 0.950 . S
H2686 C2662 0.950 . S
H2687 C2663 0.949 . S
H2688 C2665 0.950 . S
H2689 C2667 0.950 . S
C2690 C2691 1.349 . S
C2690 C2692 1.327 . S
C2690 H2715 0.950 . S
C2691 C2690 1.349 . S
C2691 C2707 1.349 . S
C2692 C2690 1.327 . S
C2692 C2711 1.429 . S
C2692 H2716 0.950 . S
C2693 C2710 1.574 1_655 S
C2693 C2712 1.368 . S
C2693 H2717 0.949 . S
H2694 C2698 0.949 . S
C2695 C2696 1.349 . S
C2695 C2697 1.327 . S
C2695 H2718 0.950 . S
C2696 C2695 1.349 . S
C2696 C2708 1.349 . S
C2697 C2695 1.327 . S
C2697 C2713 1.429 . S
C2697 H2719 0.950 . S
C2698 H2694 0.949 . S
C2698 C2706 1.574 1_455 S
C2698 C2714 1.368 . S
H2699 C2707 0.950 . S
H2700 C2705 0.950 . S
H2701 C2706 0.949 . S
H2702 C2708 0.950 . S
H2703 C2709 0.950 . S
H2704 C2710 0.949 . S
C2705 H2700 0.950 . S
C2705 C2707 1.327 . S
C2705 C2711 1.429 . S
C2706 C2698 1.574 1_655 S
C2706 H2701 0.949 . S
C2706 C2712 1.368 . S
C2707 C2691 1.349 . S
C2707 H2699 0.950 . S
C2707 C2705 1.327 . S
C2708 C2696 1.349 . S
C2708 H2702 0.950 . S
C2708 C2709 1.327 . S
C2709 H2703 0.950 . S
C2709 C2708 1.327 . S
C2709 C2713 1.429 . S
C2710 C2693 1.574 1_455 S
C2710 H2704 0.949 . S
C2710 C2714 1.368 . S
C2711 C2692 1.429 . S
C2711 C2705 1.429 . S
C2711 C2712 1.523 . S
C2712 C2693 1.368 . S
C2712 C2706 1.368 . S
C2712 C2711 1.523 . S
C2713 C2697 1.429 . S
C2713 C2709 1.429 . S
C2713 C2714 1.523 . S
C2714 C2698 1.368 . S
C2714 C2710 1.368 . S
C2714 C2713 1.523 . S
H2715 C2690 0.950 . S
H2716 C2692 0.950 . S
H2717 C2693 0.949 . S
H2718 C2695 0.950 . S
H2719 C2697 0.950 . S
C2720 C2721 1.349 . S
C2720 C2722 1.327 . S
C2720 H2745 0.950 . S
C2721 C2720 1.349 . S
C2721 C2737 1.349 . S
C2722 C2720 1.327 . S
C2722 C2741 1.429 . S
C2722 H2746 0.950 . S
C2723 C2740 1.574 . S
C2723 C2742 1.368 . S
C2723 H2747 0.949 . S
H2724 C2728 0.949 . S
C2725 C2726 1.349 . S
C2725 C2727 1.327 . S
C2725 H2748 0.950 . S
C2726 C2725 1.349 . S
C2726 C2738 1.349 . S
C2727 C2725 1.327 . S
C2727 C2743 1.429 . S
C2727 H2749 0.950 . S
C2728 H2724 0.949 . S
C2728 C2736 1.574 . S
C2728 C2744 1.368 . S
H2729 C2737 0.950 . S
H2730 C2735 0.950 . S
H2731 C2736 0.949 . S
H2732 C2738 0.950 . S
H2733 C2739 0.950 . S
H2734 C2740 0.949 . S
C2735 H2730 0.950 . S
C2735 C2737 1.327 . S
C2735 C2741 1.429 . S
C2736 C2728 1.574 . S
C2736 H2731 0.949 . S
C2736 C2742 1.368 . S
C2737 C2721 1.349 . S
C2737 H2729 0.950 . S
C2737 C2735 1.327 . S
C2738 C2726 1.349 . S
C2738 H2732 0.950 . S
C2738 C2739 1.327 . S
C2739 H2733 0.950 . S
C2739 C2738 1.327 . S
C2739 C2743 1.429 . S
C2740 C2723 1.574 . S
C2740 H2734 0.949 . S
C2740 C2744 1.368 . S
C2741 C2722 1.429 . S
C2741 C2735 1.429 . S
C2741 C2742 1.523 . S
C2742 C2723 1.368 . S
C2742 C2736 1.368 . S
C2742 C2741 1.523 . S
C2743 C2727 1.429 . S
C2743 C2739 1.429 . S
C2743 C2744 1.523 . S
C2744 C2728 1.368 . S
C2744 C2740 1.368 . S
C2744 C2743 1.523 . S
H2745 C2720 0.950 . S
H2746 C2722 0.950 . S
H2747 C2723 0.949 . S
H2748 C2725 0.950 . S
H2749 C2727 0.950 . S
C2750 C2751 1.349 . S
C2750 C2752 1.327 1_545 S
C2750 H2775 0.950 1_545 S
C2751 C2750 1.349 . S
C2751 C2767 1.349 . S
C2752 C2750 1.327 1_565 S
C2752 C2771 1.429 1_565 S
C2752 H2776 0.950 . S
C2753 C2770 1.574 1_655 S
C2753 C2772 1.368 . S
C2753 H2777 0.949 . S
H2754 C2758 0.949 . S
C2755 C2756 1.349 . S
C2755 C2757 1.327 1_565 S
C2755 H2778 0.950 1_565 S
C2756 C2755 1.349 . S
C2756 C2768 1.349 . S
C2757 C2755 1.327 1_545 S
C2757 C2773 1.429 1_545 S
C2757 H2779 0.950 . S
C2758 H2754 0.949 . S
C2758 C2766 1.574 1_455 S
C2758 C2774 1.368 . S
H2759 C2767 0.950 . S
H2760 C2765 0.950 . S
H2761 C2766 0.949 . S
H2762 C2768 0.950 . S
H2763 C2769 0.950 . S
H2764 C2770 0.949 . S
C2765 H2760 0.950 . S
C2765 C2767 1.327 . S
C2765 C2771 1.429 . S
C2766 C2758 1.574 1_655 S
C2766 H2761 0.949 . S
C2766 C2772 1.368 1_565 S
C2767 C2751 1.349 . S
C2767 H2759 0.950 . S
C2767 C2765 1.327 . S
C2768 C2756 1.349 . S
C2768 H2762 0.950 . S
C2768 C2769 1.327 . S
C2769 H2763 0.950 . S
C2769 C2768 1.327 . S
C2769 C2773 1.429 . S
C2770 C2753 1.574 1_455 S
C2770 H2764 0.949 . S
C2770 C2774 1.368 1_545 S
C2771 C2752 1.429 1_545 S
C2771 C2765 1.429 . S
C2771 C2772 1.523 . S
C2772 C2753 1.368 . S
C2772 C2766 1.368 1_545 S
C2772 C2771 1.523 . S
C2773 C2757 1.429 1_565 S
C2773 C2769 1.429 . S
C2773 C2774 1.523 . S
C2774 C2758 1.368 . S
C2774 C2770 1.368 1_565 S
C2774 C2773 1.523 . S
H2775 C2750 0.950 1_565 S
H2776 C2752 0.950 . S
H2777 C2753 0.949 . S
H2778 C2755 0.950 1_545 S
H2779 C2757 0.950 . S
C2780 C2781 1.349 . S
C2780 C2782 1.327 . S
C2780 H2805 0.950 . S
C2781 C2780 1.349 . S
C2781 C2797 1.349 . S
C2782 C2780 1.327 . S
C2782 C2801 1.429 . S
C2782 H2806 0.950 . S
C2783 C2800 1.574 . S
C2783 C2802 1.368 . S
C2783 H2807 0.949 . S
H2784 C2788 0.949 . S
C2785 C2786 1.349 . S
C2785 C2787 1.327 . S
C2785 H2808 0.950 . S
C2786 C2785 1.349 . S
C2786 C2798 1.349 . S
C2787 C2785 1.327 . S
C2787 C2803 1.429 . S
C2787 H2809 0.950 . S
C2788 H2784 0.949 . S
C2788 C2796 1.574 . S
C2788 C2804 1.368 . S
H2789 C2797 0.950 . S
H2790 C2795 0.950 . S
H2791 C2796 0.949 . S
H2792 C2798 0.950 . S
H2793 C2799 0.950 . S
H2794 C2800 0.949 . S
C2795 H2790 0.950 . S
C2795 C2797 1.327 . S
C2795 C2801 1.429 . S
C2796 C2788 1.574 . S
C2796 H2791 0.949 . S
C2796 C2802 1.368 . S
C2797 C2781 1.349 . S
C2797 H2789 0.950 . S
C2797 C2795 1.327 . S
C2798 C2786 1.349 . S
C2798 H2792 0.950 . S
C2798 C2799 1.327 . S
C2799 H2793 0.950 . S
C2799 C2798 1.327 . S
C2799 C2803 1.429 . S
C2800 C2783 1.574 . S
C2800 H2794 0.949 . S
C2800 C2804 1.368 . S
C2801 C2782 1.429 . S
C2801 C2795 1.429 . S
C2801 C2802 1.523 . S
C2802 C2783 1.368 . S
C2802 C2796 1.368 . S
C2802 C2801 1.523 . S
C2803 C2787 1.429 . S
C2803 C2799 1.429 . S
C2803 C2804 1.523 . S
C2804 C2788 1.368 . S
C2804 C2800 1.368 . S
C2804 C2803 1.523 . S
H2805 C2780 0.950 . S
H2806 C2782 0.950 . S
H2807 C2783 0.949 . S
H2808 C2785 0.950 . S
H2809 C2787 0.950 . S
C2810 C2811 1.347 1_565 S
C2810 C2812 1.328 . S
C2810 H2835 0.951 . S
C2811 C2810 1.347 1_545 S
C2811 C2827 1.349 . S
C2812 C2810 1.328 . S
C2812 C2831 1.429 1_565 S
C2812 H2836 0.950 . S
C2813 C2830 1.574 1_554 S
C2813 C2832 1.368 . S
C2813 H2837 0.949 . S
H2814 C2818 0.949 . S
C2815 C2816 1.347 1_545 S
C2815 C2817 1.328 . S
C2815 H2838 0.951 . S
C2816 C2815 1.347 1_565 S
C2816 C2828 1.349 . S
C2817 C2815 1.328 . S
C2817 C2833 1.429 1_545 S
C2817 H2839 0.950 . S
C2818 H2814 0.949 . S
C2818 C2826 1.574 1_556 S
C2818 C2834 1.368 . S
H2819 C2827 0.950 . S
H2820 C2825 0.950 . S
H2821 C2826 0.949 . S
H2822 C2828 0.950 . S
H2823 C2829 0.950 . S
H2824 C2830 0.949 . S
C2825 H2820 0.950 . S
C2825 C2827 1.327 . S
C2825 C2831 1.429 . S
C2826 C2818 1.574 1_554 S
C2826 H2821 0.949 . S
C2826 C2832 1.368 1_565 S
C2827 C2811 1.349 . S
C2827 H2819 0.950 . S
C2827 C2825 1.327 . S
C2828 C2816 1.349 . S
C2828 H2822 0.950 . S
C2828 C2829 1.327 . S
C2829 H2823 0.950 . S
C2829 C2828 1.327 . S
C2829 C2833 1.429 . S
C2830 C2813 1.574 1_556 S
C2830 H2824 0.949 . S
C2830 C2834 1.368 1_545 S
C2831 C2812 1.429 1_545 S
C2831 C2825 1.429 . S
C2831 C2832 1.523 . S
C2832 C2813 1.368 . S
C2832 C2826 1.368 1_545 S
C2832 C2831 1.523 . S
C2833 C2817 1.429 1_565 S
C2833 C2829 1.429 . S
C2833 C2834 1.523 . S
C2834 C2818 1.368 . S
C2834 C2830 1.368 1_565 S
C2834 C2833 1.523 . S
H2835 C2810 0.951 . S
H2836 C2812 0.950 . S
H2837 C2813 0.949 . S
H2838 C2815 0.951 . S
H2839 C2817 0.950 . S
C2840 C2841 1.349 . S
C2840 C2842 1.327 . S
C2840 H2865 0.950 . S
C2841 C2840 1.349 . S
C2841 C2857 1.349 . S
C2842 C2840 1.327 . S
C2842 C2861 1.429 . S
C2842 H2866 0.950 . S
C2843 C2860 1.574 . S
C2843 C2862 1.368 . S
C2843 H2867 0.949 . S
H2844 C2848 0.949 . S
C2845 C2846 1.349 . S
C2845 C2847 1.327 . S
C2845 H2868 0.950 . S
C2846 C2845 1.349 . S
C2846 C2858 1.349 . S
C2847 C2845 1.327 . S
C2847 C2863 1.429 . S
C2847 H2869 0.950 . S
C2848 H2844 0.949 . S
C2848 C2856 1.574 . S
C2848 C2864 1.368 . S
H2849 C2857 0.950 . S
H2850 C2855 0.950 . S
H2851 C2856 0.949 . S
H2852 C2858 0.950 . S
H2853 C2859 0.950 . S
H2854 C2860 0.949 . S
C2855 H2850 0.950 . S
C2855 C2857 1.327 . S
C2855 C2861 1.429 . S
C2856 C2848 1.574 . S
C2856 H2851 0.949 . S
C2856 C2862 1.368 . S
C2857 C2841 1.349 . S
C2857 H2849 0.950 . S
C2857 C2855 1.327 . S
C2858 C2846 1.349 . S
C2858 H2852 0.950 . S
C2858 C2859 1.327 . S
C2859 H2853 0.950 . S
C2859 C2858 1.327 . S
C2859 C2863 1.429 . S
C2860 C2843 1.574 . S
C2860 H2854 0.949 . S
C2860 C2864 1.368 . S
C2861 C2842 1.429 . S
C2861 C2855 1.429 . S
C2861 C2862 1.523 . S
C2862 C2843 1.368 . S
C2862 C2856 1.368 . S
C2862 C2861 1.523 . S
C2863 C2847 1.429 . S
C2863 C2859 1.429 . S
C2863 C2864 1.523 . S
C2864 C2848 1.368 . S
C2864 C2860 1.368 . S
C2864 C2863 1.523 . S
H2865 C2840 0.950 . S
H2866 C2842 0.950 . S
H2867 C2843 0.949 . S
H2868 C2845 0.950 . S
H2869 C2847 0.950 . S
C2870 C2871 1.349 . S
C2870 C2872 1.327 . S
C2870 H2895 0.950 . S
C2871 C2870 1.349 . S
C2871 C2887 1.349 . S
C2872 C2870 1.327 . S
C2872 C2891 1.429 . S
C2872 H2896 0.950 1_545 S
C2873 C2890 1.574 . S
C2873 C2892 1.368 . S
C2873 H2897 0.949 . S
H2874 C2878 0.949 . S
C2875 C2876 1.349 . S
C2875 C2877 1.327 . S
C2875 H2898 0.950 . S
C2876 C2875 1.349 . S
C2876 C2888 1.349 . S
C2877 C2875 1.327 . S
C2877 C2893 1.429 . S
C2877 H2899 0.950 1_565 S
C2878 H2874 0.949 . S
C2878 C2886 1.574 . S
C2878 C2894 1.368 . S
H2879 C2887 0.950 . S
H2880 C2885 0.950 . S
H2881 C2886 0.949 . S
H2882 C2888 0.950 . S
H2883 C2889 0.950 . S
H2884 C2890 0.949 . S
C2885 H2880 0.950 . S
C2885 C2887 1.327 . S
C2885 C2891 1.429 . S
C2886 C2878 1.574 . S
C2886 H2881 0.949 . S
C2886 C2892 1.368 1_565 S
C2887 C2871 1.349 . S
C2887 H2879 0.950 . S
C2887 C2885 1.327 . S
C2888 C2876 1.349 . S
C2888 H2882 0.950 . S
C2888 C2889 1.327 . S
C2889 H2883 0.950 . S
C2889 C2888 1.327 . S
C2889 C2893 1.429 . S
C2890 C2873 1.574 . S
C2890 H2884 0.949 . S
C2890 C2894 1.368 1_545 S
C2891 C2872 1.429 . S
C2891 C2885 1.429 . S
C2891 C2892 1.523 . S
C2892 C2873 1.368 . S
C2892 C2886 1.368 1_545 S
C2892 C2891 1.523 . S
C2893 C2877 1.429 . S
C2893 C2889 1.429 . S
C2893 C2894 1.523 . S
C2894 C2878 1.368 . S
C2894 C2890 1.368 1_565 S
C2894 C2893 1.523 . S
H2895 C2870 0.950 . S
H2896 C2872 0.950 1_565 S
H2897 C2873 0.949 . S
H2898 C2875 0.950 . S
H2899 C2877 0.950 1_545 S
C2900 C2901 1.349 . S
C2900 C2902 1.327 . S
C2900 H2925 0.950 . S
C2901 C2900 1.349 . S
C2901 C2917 1.349 . S
C2902 C2900 1.327 . S
C2902 C2921 1.429 . S
C2902 H2926 0.950 . S
C2903 C2920 1.574 . S
C2903 C2922 1.368 . S
C2903 H2927 0.949 . S
H2904 C2908 0.949 . S
C2905 C2906 1.349 . S
C2905 C2907 1.327 . S
C2905 H2928 0.950 . S
C2906 C2905 1.349 . S
C2906 C2918 1.349 . S
C2907 C2905 1.327 . S
C2907 C2923 1.429 . S
C2907 H2929 0.950 . S
C2908 H2904 0.949 . S
C2908 C2916 1.574 . S
C2908 C2924 1.368 . S
H2909 C2917 0.950 . S
H2910 C2915 0.950 . S
H2911 C2916 0.949 . S
H2912 C2918 0.950 . S
H2913 C2919 0.950 . S
H2914 C2920 0.949 . S
C2915 H2910 0.950 . S
C2915 C2917 1.327 . S
C2915 C2921 1.429 . S
C2916 C2908 1.574 . S
C2916 H2911 0.949 . S
C2916 C2922 1.368 . S
C2917 C2901 1.349 . S
C2917 H2909 0.950 . S
C2917 C2915 1.327 . S
C2918 C2906 1.349 . S
C2918 H2912 0.950 . S
C2918 C2919 1.327 . S
C2919 H2913 0.950 . S
C2919 C2918 1.327 . S
C2919 C2923 1.429 . S
C2920 C2903 1.574 . S
C2920 H2914 0.949 . S
C2920 C2924 1.368 . S
C2921 C2902 1.429 . S
C2921 C2915 1.429 . S
C2921 C2922 1.523 . S
C2922 C2903 1.368 . S
C2922 C2916 1.368 . S
C2922 C2921 1.523 . S
C2923 C2907 1.429 . S
C2923 C2919 1.429 . S
C2923 C2924 1.523 . S
C2924 C2908 1.368 . S
C2924 C2920 1.368 . S
C2924 C2923 1.523 . S
H2925 C2900 0.950 . S
H2926 C2902 0.950 . S
H2927 C2903 0.949 . S
H2928 C2905 0.950 . S
H2929 C2907 0.950 . S
C2930 C2931 1.374 . S
C2930 C2932 1.321 1_545 S
C2930 H2955 0.931 1_545 S
C2931 C2930 1.374 . S
C2931 C2947 1.349 . S
C2932 C2930 1.321 1_565 S
C2932 C2951 1.429 1_565 S
C2932 H2956 0.950 . S
C2933 C2950 1.574 1_455 S
C2933 C2952 1.368 1_554 S
C2933 H2957 0.949 . S
H2934 C2938 0.949 . S
C2935 C2936 1.374 . S
C2935 C2937 1.321 1_565 S
C2935 H2958 0.931 1_565 S
C2936 C2935 1.374 . S
C2936 C2948 1.349 . S
C2937 C2935 1.321 1_545 S
C2937 C2953 1.429 1_545 S
C2937 H2959 0.950 . S
C2938 H2934 0.949 . S
C2938 C2946 1.574 1_655 S
C2938 C2954 1.368 1_556 S
H2939 C2947 0.950 . S
H2940 C2945 0.950 . S
H2941 C2946 0.949 . S
H2942 C2948 0.950 . S
H2943 C2949 0.950 . S
H2944 C2950 0.949 . S
C2945 H2940 0.950 . S
C2945 C2947 1.327 . S
C2945 C2951 1.429 . S
C2946 C2938 1.574 1_455 S
C2946 H2941 0.949 . S
C2946 C2952 1.368 1_565 S
C2947 C2931 1.349 . S
C2947 H2939 0.950 . S
C2947 C2945 1.327 . S
C2948 C2936 1.349 . S
C2948 H2942 0.950 . S
C2948 C2949 1.327 . S
C2949 H2943 0.950 . S
C2949 C2948 1.327 . S
C2949 C2953 1.429 . S
C2950 C2933 1.574 1_655 S
C2950 H2944 0.949 . S
C2950 C2954 1.368 1_545 S
C2951 C2932 1.429 1_545 S
C2951 C2945 1.429 . S
C2951 C2952 1.523 . S
C2952 C2933 1.368 1_556 S
C2952 C2946 1.368 1_545 S
C2952 C2951 1.523 . S
C2953 C2937 1.429 1_565 S
C2953 C2949 1.429 . S
C2953 C2954 1.523 . S
C2954 C2938 1.368 1_554 S
C2954 C2950 1.368 1_565 S
C2954 C2953 1.523 . S
H2955 C2930 0.931 1_565 S
H2956 C2932 0.950 . S
H2957 C2933 0.949 . S
H2958 C2935 0.931 1_545 S
H2959 C2937 0.950 . S
C2960 C2961 1.349 . S
C2960 C2962 1.327 . S
C2960 H2985 0.950 . S
C2961 C2960 1.349 . S
C2961 C2977 1.349 . S
C2962 C2960 1.327 . S
C2962 C2981 1.429 . S
C2962 H2986 0.950 . S
C2963 C2980 1.574 . S
C2963 C2982 1.368 . S
C2963 H2987 0.949 . S
H2964 C2968 0.949 . S
C2965 C2966 1.349 . S
C2965 C2967 1.327 . S
C2965 H2988 0.950 . S
C2966 C2965 1.349 . S
C2966 C2978 1.349 . S
C2967 C2965 1.327 . S
C2967 C2983 1.429 . S
C2967 H2989 0.950 . S
C2968 H2964 0.949 . S
C2968 C2976 1.574 . S
C2968 C2984 1.368 . S
H2969 C2977 0.950 . S
H2970 C2975 0.950 . S
H2971 C2976 0.949 . S
H2972 C2978 0.950 . S
H2973 C2979 0.950 . S
H2974 C2980 0.949 . S
C2975 H2970 0.950 . S
C2975 C2977 1.327 . S
C2975 C2981 1.429 . S
C2976 C2968 1.574 . S
C2976 H2971 0.949 . S
C2976 C2982 1.368 . S
C2977 C2961 1.349 . S
C2977 H2969 0.950 . S
C2977 C2975 1.327 . S
C2978 C2966 1.349 . S
C2978 H2972 0.950 . S
C2978 C2979 1.327 . S
C2979 H2973 0.950 . S
C2979 C2978 1.327 . S
C2979 C2983 1.429 . S
C2980 C2963 1.574 . S
C2980 H2974 0.949 . S
C2980 C2984 1.368 . S
C2981 C2962 1.429 . S
C2981 C2975 1.429 . S
C2981 C2982 1.523 . S
C2982 C2963 1.368 . S
C2982 C2976 1.368 . S
C2982 C2981 1.523 . S
C2983 C2967 1.429 . S
C2983 C2979 1.429 . S
C2983 C2984 1.523 . S
C2984 C2968 1.368 . S
C2984 C2980 1.368 . S
C2984 C2983 1.523 . S
H2985 C2960 0.950 . S
H2986 C2962 0.950 . S
H2987 C2963 0.949 . S
H2988 C2965 0.950 . S
H2989 C2967 0.950 . S
C2990 C2991 1.349 . S
C2990 C2992 1.327 . S
C2990 H3015 0.950 . S
C2991 C2990 1.349 . S
C2991 C3007 1.349 . S
C2992 C2990 1.327 . S
C2992 C3011 1.429 . S
C2992 H3016 0.950 . S
C2993 C3010 1.574 . S
C2993 C3012 1.368 . S
C2993 H3017 0.949 . S
H2994 C2998 0.949 . S
C2995 C2996 1.349 . S
C2995 C2997 1.327 . S
C2995 H3018 0.950 . S
C2996 C2995 1.349 . S
C2996 C3008 1.349 . S
C2997 C2995 1.327 . S
C2997 C3013 1.429 . S
C2997 H3019 0.950 . S
C2998 H2994 0.949 . S
C2998 C3006 1.574 . S
C2998 C3014 1.368 . S
H2999 C3007 0.950 . S
H3000 C3005 0.950 . S
H3001 C3006 0.949 . S
H3002 C3008 0.950 . S
H3003 C3009 0.950 . S
H3004 C3010 0.949 . S
C3005 H3000 0.950 . S
C3005 C3007 1.327 . S
C3005 C3011 1.429 . S
C3006 C2998 1.574 . S
C3006 H3001 0.949 . S
C3006 C3012 1.368 . S
C3007 C2991 1.349 . S
C3007 H2999 0.950 . S
C3007 C3005 1.327 . S
C3008 C2996 1.349 . S
C3008 H3002 0.950 . S
C3008 C3009 1.327 . S
C3009 H3003 0.950 . S
C3009 C3008 1.327 . S
C3009 C3013 1.429 . S
C3010 C2993 1.574 . S
C3010 H3004 0.949 . S
C3010 C3014 1.368 . S
C3011 C2992 1.429 . S
C3011 C3005 1.429 . S
C3011 C3012 1.523 . S
C3012 C2993 1.368 . S
C3012 C3006 1.368 . S
C3012 C3011 1.523 . S
C3013 C2997 1.429 . S
C3013 C3009 1.429 . S
C3013 C3014 1.523 . S
C3014 C2998 1.368 . S
C3014 C3010 1.368 . S
C3014 C3013 1.523 . S
H3015 C2990 0.950 . S
H3016 C2992 0.950 . S
H3017 C2993 0.949 . S
H3018 C2995 0.950 . S
H3019 C2997 0.950 . S
C3020 C3021 1.349 . S
C3020 C3022 1.327 . S
C3020 H3045 0.950 . S
C3021 C3020 1.349 . S
C3021 C3037 1.349 . S
C3022 C3020 1.327 . S
C3022 C3041 1.429 . S
C3022 H3046 0.950 . S
C3023 C3040 1.574 . S
C3023 C3042 1.368 . S
C3023 H3047 0.949 . S
H3024 C3028 0.949 . S
C3025 C3026 1.349 . S
C3025 C3027 1.327 . S
C3025 H3048 0.950 . S
C3026 C3025 1.349 . S
C3026 C3038 1.349 . S
C3027 C3025 1.327 . S
C3027 C3043 1.429 . S
C3027 H3049 0.950 . S
C3028 H3024 0.949 . S
C3028 C3036 1.574 . S
C3028 C3044 1.368 . S
H3029 C3037 0.950 . S
H3030 C3035 0.950 . S
H3031 C3036 0.949 . S
H3032 C3038 0.950 . S
H3033 C3039 0.950 . S
H3034 C3040 0.949 . S
C3035 H3030 0.950 . S
C3035 C3037 1.327 . S
C3035 C3041 1.429 . S
C3036 C3028 1.574 . S
C3036 H3031 0.949 . S
C3036 C3042 1.368 . S
C3037 C3021 1.349 . S
C3037 H3029 0.950 . S
C3037 C3035 1.327 . S
C3038 C3026 1.349 . S
C3038 H3032 0.950 . S
C3038 C3039 1.327 . S
C3039 H3033 0.950 . S
C3039 C3038 1.327 . S
C3039 C3043 1.429 . S
C3040 C3023 1.574 . S
C3040 H3034 0.949 . S
C3040 C3044 1.368 . S
C3041 C3022 1.429 . S
C3041 C3035 1.429 . S
C3041 C3042 1.523 . S
C3042 C3023 1.368 . S
C3042 C3036 1.368 . S
C3042 C3041 1.523 . S
C3043 C3027 1.429 . S
C3043 C3039 1.429 . S
C3043 C3044 1.523 . S
C3044 C3028 1.368 . S
C3044 C3040 1.368 . S
C3044 C3043 1.523 . S
H3045 C3020 0.950 . S
H3046 C3022 0.950 . S
H3047 C3023 0.949 . S
H3048 C3025 0.950 . S
H3049 C3027 0.950 . S
C3050 C3051 1.349 . S
C3050 C3052 1.327 . S
C3050 H3075 0.950 . S
C3051 C3050 1.349 . S
C3051 C3067 1.349 . S
C3052 C3050 1.327 . S
C3052 C3071 1.429 . S
C3052 H3076 0.950 . S
C3053 C3070 1.574 . S
C3053 C3072 1.368 . S
C3053 H3077 0.949 . S
H3054 C3058 0.949 . S
C3055 C3056 1.349 . S
C3055 C3057 1.327 . S
C3055 H3078 0.950 . S
C3056 C3055 1.349 . S
C3056 C3068 1.349 . S
C3057 C3055 1.327 . S
C3057 C3073 1.429 . S
C3057 H3079 0.950 . S
C3058 H3054 0.949 . S
C3058 C3066 1.574 . S
C3058 C3074 1.368 . S
H3059 C3067 0.950 . S
H3060 C3065 0.950 . S
H3061 C3066 0.949 . S
H3062 C3068 0.950 . S
H3063 C3069 0.950 . S
H3064 C3070 0.949 . S
C3065 H3060 0.950 . S
C3065 C3067 1.327 . S
C3065 C3071 1.429 . S
C3066 C3058 1.574 . S
C3066 H3061 0.949 . S
C3066 C3072 1.368 . S
C3067 C3051 1.349 . S
C3067 H3059 0.950 . S
C3067 C3065 1.327 . S
C3068 C3056 1.349 . S
C3068 H3062 0.950 . S
C3068 C3069 1.327 . S
C3069 H3063 0.950 . S
C3069 C3068 1.327 . S
C3069 C3073 1.429 . S
C3070 C3053 1.574 . S
C3070 H3064 0.949 . S
C3070 C3074 1.368 . S
C3071 C3052 1.429 . S
C3071 C3065 1.429 . S
C3071 C3072 1.523 . S
C3072 C3053 1.368 . S
C3072 C3066 1.368 . S
C3072 C3071 1.523 . S
C3073 C3057 1.429 . S
C3073 C3069 1.429 . S
C3073 C3074 1.523 . S
C3074 C3058 1.368 . S
C3074 C3070 1.368 . S
C3074 C3073 1.523 . S
H3075 C3050 0.950 . S
H3076 C3052 0.950 . S
H3077 C3053 0.949 . S
H3078 C3055 0.950 . S
H3079 C3057 0.950 . S
C3080 C3081 1.349 . S
C3080 C3082 1.327 . S
C3080 H3105 0.950 . S
C3081 C3080 1.349 . S
C3081 C3097 1.349 . S
C3082 C3080 1.327 . S
C3082 C3101 1.429 . S
C3082 H3106 0.950 . S
C3083 C3100 1.574 1_554 S
C3083 C3102 1.368 . S
C3083 H3107 0.949 . S
H3084 C3088 0.949 . S
C3085 C3086 1.349 . S
C3085 C3087 1.327 . S
C3085 H3108 0.950 . S
C3086 C3085 1.349 . S
C3086 C3098 1.349 . S
C3087 C3085 1.327 . S
C3087 C3103 1.429 . S
C3087 H3109 0.950 . S
C3088 H3084 0.949 . S
C3088 C3096 1.574 1_556 S
C3088 C3104 1.368 . S
H3089 C3097 0.950 . S
H3090 C3095 0.950 . S
H3091 C3096 0.949 . S
H3092 C3098 0.950 . S
H3093 C3099 0.950 . S
H3094 C3100 0.949 . S
C3095 H3090 0.950 . S
C3095 C3097 1.327 . S
C3095 C3101 1.429 . S
C3096 C3088 1.574 1_554 S
C3096 H3091 0.949 . S
C3096 C3102 1.368 . S
C3097 C3081 1.349 . S
C3097 H3089 0.950 . S
C3097 C3095 1.327 . S
C3098 C3086 1.349 . S
C3098 H3092 0.950 . S
C3098 C3099 1.327 . S
C3099 H3093 0.950 . S
C3099 C3098 1.327 . S
C3099 C3103 1.429 . S
C3100 C3083 1.574 1_556 S
C3100 H3094 0.949 . S
C3100 C3104 1.368 . S
C3101 C3082 1.429 . S
C3101 C3095 1.429 . S
C3101 C3102 1.523 . S
C3102 C3083 1.368 . S
C3102 C3096 1.368 . S
C3102 C3101 1.523 . S
C3103 C3087 1.429 . S
C3103 C3099 1.429 . S
C3103 C3104 1.523 . S
C3104 C3088 1.368 . S
C3104 C3100 1.368 . S
C3104 C3103 1.523 . S
H3105 C3080 0.950 . S
H3106 C3082 0.950 . S
H3107 C3083 0.949 . S
H3108 C3085 0.950 . S
H3109 C3087 0.950 . S
C3110 C3111 1.349 . S
C3110 C3112 1.327 . S
C3110 H3135 0.950 . S
C3111 C3110 1.349 . S
C3111 C3127 1.349 . S
C3112 C3110 1.327 . S
C3112 C3131 1.429 . S
C3112 H3136 0.950 . S
C3113 C3130 1.574 1_655 S
C3113 C3132 1.368 . S
C3113 H3137 0.949 . S
H3114 C3118 0.949 . S
C3115 C3116 1.349 . S
C3115 C3117 1.327 . S
C3115 H3138 0.950 . S
C3116 C3115 1.349 . S
C3116 C3128 1.349 . S
C3117 C3115 1.327 . S
C3117 C3133 1.429 . S
C3117 H3139 0.950 . S
C3118 H3114 0.949 . S
C3118 C3126 1.574 1_455 S
C3118 C3134 1.368 . S
H3119 C3127 0.950 . S
H3120 C3125 0.950 . S
H3121 C3126 0.949 . S
H3122 C3128 0.950 . S
H3123 C3129 0.950 . S
H3124 C3130 0.949 . S
C3125 H3120 0.950 . S
C3125 C3127 1.327 . S
C3125 C3131 1.429 . S
C3126 C3118 1.574 1_655 S
C3126 H3121 0.949 . S
C3126 C3132 1.368 . S
C3127 C3111 1.349 . S
C3127 H3119 0.950 . S
C3127 C3125 1.327 . S
C3128 C3116 1.349 . S
C3128 H3122 0.950 . S
C3128 C3129 1.327 . S
C3129 H3123 0.950 . S
C3129 C3128 1.327 . S
C3129 C3133 1.429 . S
C3130 C3113 1.574 1_455 S
C3130 H3124 0.949 . S
C3130 C3134 1.368 . S
C3131 C3112 1.429 . S
C3131 C3125 1.429 . S
C3131 C3132 1.523 . S
C3132 C3113 1.368 . S
C3132 C3126 1.368 . S
C3132 C3131 1.523 . S
C3133 C3117 1.429 . S
C3133 C3129 1.429 . S
C3133 C3134 1.523 . S
C3134 C3118 1.368 . S
C3134 C3130 1.368 . S
C3134 C3133 1.523 . S
H3135 C3110 0.950 . S
H3136 C3112 0.950 . S
H3137 C3113 0.949 . S
H3138 C3115 0.950 . S
H3139 C3117 0.950 . S
C3140 C3141 1.349 . S
C3140 C3142 1.327 . S
C3140 H3165 0.950 . S
C3141 C3140 1.349 . S
C3141 C3157 1.349 . S
C3142 C3140 1.327 . S
C3142 C3161 1.429 . S
C3142 H3166 0.888 1_554 S
C3143 C3160 1.574 1_455 S
C3143 C3162 1.368 . S
C3143 H3167 0.949 . S
H3144 C3148 0.949 . S
C3145 C3146 1.349 . S
C3145 C3147 1.327 . S
C3145 H3168 0.950 . S
C3146 C3145 1.349 . S
C3146 C3158 1.349 . S
C3147 C3145 1.327 . S
C3147 C3163 1.429 . S
C3147 H3169 0.888 1_556 S
C3148 H3144 0.949 . S
C3148 C3156 1.574 1_655 S
C3148 C3164 1.368 . S
H3149 C3157 0.950 . S
H3150 C3155 0.950 . S
H3151 C3156 0.949 . S
H3152 C3158 0.950 . S
H3153 C3159 0.950 . S
H3154 C3160 0.949 . S
C3155 H3150 0.950 . S
C3155 C3157 1.327 . S
C3155 C3161 1.429 . S
C3156 C3148 1.574 1_455 S
C3156 H3151 0.949 . S
C3156 C3162 1.368 1_556 S
C3157 C3141 1.349 . S
C3157 H3149 0.950 . S
C3157 C3155 1.327 . S
C3158 C3146 1.349 . S
C3158 H3152 0.950 . S
C3158 C3159 1.327 . S
C3159 H3153 0.950 . S
C3159 C3158 1.327 . S
C3159 C3163 1.429 . S
C3160 C3143 1.574 1_655 S
C3160 H3154 0.949 . S
C3160 C3164 1.368 1_554 S
C3161 C3142 1.429 . S
C3161 C3155 1.429 . S
C3161 C3162 1.523 . S
C3162 C3143 1.368 . S
C3162 C3156 1.368 1_554 S
C3162 C3161 1.523 . S
C3163 C3147 1.429 . S
C3163 C3159 1.429 . S
C3163 C3164 1.523 . S
C3164 C3148 1.368 . S
C3164 C3160 1.368 1_556 S
C3164 C3163 1.523 . S
H3165 C3140 0.950 . S
H3166 C3142 0.888 1_556 S
H3167 C3143 0.949 . S
H3168 C3145 0.950 . S
H3169 C3147 0.888 1_554 S
C3170 C3171 1.349 . S
C3170 C3172 1.327 . S
C3170 H3195 0.950 . S
C3171 C3170 1.349 . S
C3171 C3187 1.349 . S
C3172 C3170 1.327 . S
C3172 C3191 1.429 . S
C3172 H3196 0.950 . S
C3173 C3190 1.574 . S
C3173 C3192 1.368 . S
C3173 H3197 0.949 . S
H3174 C3178 0.949 . S
C3175 C3176 1.349 . S
C3175 C3177 1.327 . S
C3175 H3198 0.950 . S
C3176 C3175 1.349 . S
C3176 C3188 1.349 . S
C3177 C3175 1.327 . S
C3177 C3193 1.429 . S
C3177 H3199 0.950 . S
C3178 H3174 0.949 . S
C3178 C3186 1.574 . S
C3178 C3194 1.368 . S
H3179 C3187 0.950 . S
H3180 C3185 0.950 . S
H3181 C3186 0.949 . S
H3182 C3188 0.950 . S
H3183 C3189 0.950 . S
H3184 C3190 0.949 . S
C3185 H3180 0.950 . S
C3185 C3187 1.327 . S
C3185 C3191 1.429 . S
C3186 C3178 1.574 . S
C3186 H3181 0.949 . S
C3186 C3192 1.368 . S
C3187 C3171 1.349 . S
C3187 H3179 0.950 . S
C3187 C3185 1.327 . S
C3188 C3176 1.349 . S
C3188 H3182 0.950 . S
C3188 C3189 1.327 . S
C3189 H3183 0.950 . S
C3189 C3188 1.327 . S
C3189 C3193 1.429 . S
C3190 C3173 1.574 . S
C3190 H3184 0.949 . S
C3190 C3194 1.368 . S
C3191 C3172 1.429 . S
C3191 C3185 1.429 . S
C3191 C3192 1.523 . S
C3192 C3173 1.368 . S
C3192 C3186 1.368 . S
C3192 C3191 1.523 . S
C3193 C3177 1.429 . S
C3193 C3189 1.429 . S
C3193 C3194 1.523 . S
C3194 C3178 1.368 . S
C3194 C3190 1.368 . S
C3194 C3193 1.523 . S
H3195 C3170 0.950 . S
H3196 C3172 0.950 . S
H3197 C3173 0.949 . S
H3198 C3175 0.950 . S
H3199 C3177 0.950 . S
C3200 C3201 1.349 . S
C3200 C3202 1.327 . S
C3200 H3225 0.950 . S
C3201 C3200 1.349 . S
C3201 C3217 1.349 . S
C3202 C3200 1.327 . S
C3202 C3221 1.429 . S
C3202 H3226 0.950 . S
C3203 C3220 1.574 . S
C3203 C3222 1.368 1_565 S
C3203 H3227 0.949 . S
H3204 C3208 0.949 . S
C3205 C3206 1.349 . S
C3205 C3207 1.327 . S
C3205 H3228 0.950 . S
C3206 C3205 1.349 . S
C3206 C3218 1.349 . S
C3207 C3205 1.327 . S
C3207 C3223 1.429 . S
C3207 H3229 0.950 . S
C3208 H3204 0.949 . S
C3208 C3216 1.574 . S
C3208 C3224 1.368 1_545 S
H3209 C3217 0.950 . S
H3210 C3215 0.950 1_565 S
H3211 C3216 0.949 . S
H3212 C3218 0.950 . S
H3213 C3219 0.983 . S
H3214 C3220 0.949 . S
C3215 H3210 0.950 1_545 S
C3215 C3217 1.327 . S
C3215 C3221 1.429 . S
C3216 C3208 1.574 . S
C3216 H3211 0.949 . S
C3216 C3222 1.368 . S
C3217 C3201 1.349 . S
C3217 H3209 0.950 . S
C3217 C3215 1.327 . S
C3218 C3206 1.349 . S
C3218 H3212 0.950 . S
C3218 C3219 1.327 . S
C3219 H3213 0.983 . S
C3219 C3218 1.327 . S
C3219 C3223 1.429 . S
C3220 C3203 1.574 . S
C3220 H3214 0.949 . S
C3220 C3224 1.368 . S
C3221 C3202 1.429 . S
C3221 C3215 1.429 . S
C3221 C3222 1.523 . S
C3222 C3203 1.368 1_545 S
C3222 C3216 1.368 . S
C3222 C3221 1.523 . S
C3223 C3207 1.429 . S
C3223 C3219 1.429 . S
C3223 C3224 1.523 . S
C3224 C3208 1.368 1_565 S
C3224 C3220 1.368 . S
C3224 C3223 1.523 . S
H3225 C3200 0.950 . S
H3226 C3202 0.950 . S
H3227 C3203 0.949 . S
H3228 C3205 0.950 . S
H3229 C3207 0.950 . S
C3230 C3231 1.349 . S
C3230 C3232 1.327 . S
C3230 H3255 0.950 . S
C3231 C3230 1.349 . S
C3231 C3247 1.349 . S
C3232 C3230 1.327 . S
C3232 C3251 1.429 . S
C3232 H3256 0.983 . S
C3233 C3250 1.574 . S
C3233 C3252 1.368 . S
C3233 H3257 0.949 . S
H3234 C3238 0.949 . S
C3235 C3236 1.349 . S
C3235 C3237 1.327 . S
C3235 H3258 0.950 . S
C3236 C3235 1.349 . S
C3236 C3248 1.349 . S
C3237 C3235 1.327 . S
C3237 C3253 1.429 . S
C3237 H3259 0.950 . S
C3238 H3234 0.949 . S
C3238 C3246 1.574 . S
C3238 C3254 1.368 . S
H3239 C3247 0.950 . S
H3240 C3245 0.950 . S
H3241 C3246 0.949 . S
H3242 C3248 0.950 . S
H3243 C3249 0.950 . S
H3244 C3250 0.949 . S
C3245 H3240 0.950 . S
C3245 C3247 1.327 . S
C3245 C3251 1.429 . S
C3246 C3238 1.574 . S
C3246 H3241 0.949 . S
C3246 C3252 1.368 1_565 S
C3247 C3231 1.349 . S
C3247 H3239 0.950 . S
C3247 C3245 1.327 . S
C3248 C3236 1.349 . S
C3248 H3242 0.950 . S
C3248 C3249 1.327 . S
C3249 H3243 0.950 . S
C3249 C3248 1.327 . S
C3249 C3253 1.429 . S
C3250 C3233 1.574 . S
C3250 H3244 0.949 . S
C3250 C3254 1.368 1_545 S
C3251 C3232 1.429 . S
C3251 C3245 1.429 . S
C3251 C3252 1.523 . S
C3252 C3233 1.368 . S
C3252 C3246 1.368 1_545 S
C3252 C3251 1.523 . S
C3253 C3237 1.429 . S
C3253 C3249 1.429 . S
C3253 C3254 1.523 . S
C3254 C3238 1.368 . S
C3254 C3250 1.368 1_565 S
C3254 C3253 1.523 . S
H3255 C3230 0.950 . S
H3256 C3232 0.983 . S
H3257 C3233 0.949 . S
H3258 C3235 0.950 . S
H3259 C3237 0.950 . S
C3260 C3261 1.349 . S
C3260 C3262 1.327 . S
C3260 H3285 0.950 . S
C3261 C3260 1.349 . S
C3261 C3277 1.349 . S
C3262 C3260 1.327 . S
C3262 C3281 1.429 . S
C3262 H3286 0.937 1_545 S
C3263 C3280 1.574 . S
C3263 C3282 1.368 . S
C3263 H3287 0.949 . S
H3264 C3268 0.949 . S
C3265 C3266 1.349 . S
C3265 C3267 1.327 . S
C3265 H3288 0.950 . S
C3266 C3265 1.349 . S
C3266 C3278 1.349 . S
C3267 C3265 1.327 . S
C3267 C3283 1.429 . S
C3267 H3289 0.950 1_565 S
C3268 H3264 0.949 . S
C3268 C3276 1.574 . S
C3268 C3284 1.368 . S
H3269 C3277 0.950 . S
H3270 C3275 0.950 . S
H3271 C3276 0.949 . S
H3272 C3278 0.950 . S
H3273 C3279 0.950 . S
H3274 C3280 0.949 . S
C3275 H3270 0.950 . S
C3275 C3277 1.327 . S
C3275 C3281 1.429 . S
C3276 C3268 1.574 . S
C3276 H3271 0.949 . S
C3276 C3282 1.368 1_565 S
C3277 C3261 1.349 . S
C3277 H3269 0.950 . S
C3277 C3275 1.327 . S
C3278 C3266 1.349 . S
C3278 H3272 0.950 . S
C3278 C3279 1.327 . S
C3279 H3273 0.950 . S
C3279 C3278 1.327 . S
C3279 C3283 1.429 . S
C3280 C3263 1.574 . S
C3280 H3274 0.949 . S
C3280 C3284 1.368 1_545 S
C3281 C3262 1.429 . S
C3281 C3275 1.429 . S
C3281 C3282 1.523 . S
C3282 C3263 1.368 . S
C3282 C3276 1.368 1_545 S
C3282 C3281 1.523 . S
C3283 C3267 1.429 . S
C3283 C3279 1.429 . S
C3283 C3284 1.523 . S
C3284 C3268 1.368 . S
C3284 C3280 1.368 1_565 S
C3284 C3283 1.523 . S
H3285 C3260 0.950 . S
H3286 C3262 0.937 1_565 S
H3287 C3263 0.949 . S
H3288 C3265 0.950 . S
H3289 C3267 0.950 1_545 S
C3290 C3291 1.349 . S
C3290 C3292 1.327 . S
C3290 H3315 0.950 . S
C3291 C3290 1.349 . S
C3291 C3307 1.349 . S
C3292 C3290 1.327 . S
C3292 C3311 1.429 . S
C3292 H3316 0.950 1_565 S
C3293 C3310 1.574 . S
C3293 C3312 1.368 . S
C3293 H3317 0.949 . S
H3294 C3298 0.949 . S
C3295 C3296 1.349 . S
C3295 C3297 1.327 . S
C3295 H3318 0.950 . S
C3296 C3295 1.349 . S
C3296 C3308 1.349 . S
C3297 C3295 1.327 . S
C3297 C3313 1.429 . S
C3297 H3319 0.950 1_545 S
C3298 H3294 0.949 . S
C3298 C3306 1.574 . S
C3298 C3314 1.368 . S
H3299 C3307 0.950 . S
H3300 C3305 0.950 . S
H3301 C3306 0.949 . S
H3302 C3308 0.950 . S
H3303 C3309 0.950 . S
H3304 C3310 0.949 . S
C3305 H3300 0.950 . S
C3305 C3307 1.327 . S
C3305 C3311 1.429 . S
C3306 C3298 1.574 . S
C3306 H3301 0.949 . S
C3306 C3312 1.368 1_545 S
C3307 C3291 1.349 . S
C3307 H3299 0.950 . S
C3307 C3305 1.327 . S
C3308 C3296 1.349 . S
C3308 H3302 0.950 . S
C3308 C3309 1.327 . S
C3309 H3303 0.950 . S
C3309 C3308 1.327 . S
C3309 C3313 1.429 . S
C3310 C3293 1.574 . S
C3310 H3304 0.949 . S
C3310 C3314 1.368 1_565 S
C3311 C3292 1.429 . S
C3311 C3305 1.429 . S
C3311 C3312 1.523 . S
C3312 C3293 1.368 . S
C3312 C3306 1.368 1_565 S
C3312 C3311 1.523 . S
C3313 C3297 1.429 . S
C3313 C3309 1.429 . S
C3313 C3314 1.523 . S
C3314 C3298 1.368 . S
C3314 C3310 1.368 1_545 S
C3314 C3313 1.523 . S
H3315 C3290 0.950 . S
H3316 C3292 0.950 1_545 S
H3317 C3293 0.949 . S
H3318 C3295 0.950 . S
H3319 C3297 0.950 1_565 S
C3320 C3321 1.349 . S
C3320 C3322 1.327 . S
C3320 H3345 0.950 . S
C3321 C3320 1.349 . S
C3321 C3337 1.349 . S
C3322 C3320 1.327 . S
C3322 C3341 1.429 . S
C3322 H3346 0.950 1_565 S
C3323 C3340 1.574 . S
C3323 C3342 1.368 . S
C3323 H3347 0.949 . S
H3324 C3328 0.949 . S
C3325 C3326 1.349 . S
C3325 C3327 1.327 . S
C3325 H3348 0.950 . S
C3326 C3325 1.349 . S
C3326 C3338 1.349 . S
C3327 C3325 1.327 . S
C3327 C3343 1.429 . S
C3327 H3349 0.950 1_545 S
C3328 H3324 0.949 . S
C3328 C3336 1.574 . S
C3328 C3344 1.368 . S
H3329 C3337 0.950 . S
H3330 C3335 0.950 . S
H3331 C3336 0.949 . S
H3332 C3338 0.950 . S
H3333 C3339 0.950 . S
H3334 C3340 0.949 . S
C3335 H3330 0.950 . S
C3335 C3337 1.327 . S
C3335 C3341 1.429 . S
C3336 C3328 1.574 . S
C3336 H3331 0.949 . S
C3336 C3342 1.368 1_545 S
C3337 C3321 1.349 . S
C3337 H3329 0.950 . S
C3337 C3335 1.327 . S
C3338 C3326 1.349 . S
C3338 H3332 0.950 . S
C3338 C3339 1.327 . S
C3339 H3333 0.950 . S
C3339 C3338 1.327 . S
C3339 C3343 1.429 . S
C3340 C3323 1.574 . S
C3340 H3334 0.949 . S
C3340 C3344 1.368 1_565 S
C3341 C3322 1.429 . S
C3341 C3335 1.429 . S
C3341 C3342 1.523 . S
C3342 C3323 1.368 . S
C3342 C3336 1.368 1_565 S
C3342 C3341 1.523 . S
C3343 C3327 1.429 . S
C3343 C3339 1.429 . S
C3343 C3344 1.523 . S
C3344 C3328 1.368 . S
C3344 C3340 1.368 1_545 S
C3344 C3343 1.523 . S
H3345 C3320 0.950 . S
H3346 C3322 0.950 1_545 S
H3347 C3323 0.949 . S
H3348 C3325 0.950 . S
H3349 C3327 0.950 1_565 S
C3350 C3351 1.349 . S
C3350 C3352 1.327 . S
C3350 H3375 0.950 . S
C3351 C3350 1.349 . S
C3351 C3367 1.349 . S
C3352 C3350 1.327 . S
C3352 C3371 1.429 . S
C3352 H3376 0.950 . S
C3353 C3370 1.574 1_545 S
C3353 C3372 1.368 . S
C3353 H3377 0.949 . S
H3354 C3358 0.953 . S
C3355 C3356 1.349 . S
C3355 C3357 1.327 . S
C3355 H3378 0.950 . S
C3356 C3355 1.349 . S
C3356 C3368 1.349 . S
C3357 C3355 1.327 . S
C3357 C3373 1.429 . S
C3357 H3379 0.950 . S
C3358 H3354 0.953 . S
C3358 C3366 1.562 1_565 S
C3358 C3374 1.376 . S
H3359 C3367 0.950 . S
H3360 C3365 0.950 . S
H3361 C3366 0.949 . S
H3362 C3368 0.950 . S
H3363 C3369 0.950 . S
H3364 C3370 0.949 . S
C3365 H3360 0.950 . S
C3365 C3367 1.327 . S
C3365 C3371 1.429 . S
C3366 C3358 1.562 1_545 S
C3366 H3361 0.949 . S
C3366 C3372 1.368 . S
C3367 C3351 1.349 . S
C3367 H3359 0.950 . S
C3367 C3365 1.327 . S
C3368 C3356 1.349 . S
C3368 H3362 0.950 . S
C3368 C3369 1.327 . S
C3369 H3363 0.950 . S
C3369 C3368 1.327 . S
C3369 C3373 1.429 . S
C3370 C3353 1.574 1_565 S
C3370 H3364 0.949 . S
C3370 C3374 1.368 . S
C3371 C3352 1.429 . S
C3371 C3365 1.429 . S
C3371 C3372 1.523 . S
C3372 C3353 1.368 . S
C3372 C3366 1.368 . S
C3372 C3371 1.523 . S
C3373 C3357 1.429 . S
C3373 C3369 1.429 . S
C3373 C3374 1.523 . S
C3374 C3358 1.376 . S
C3374 C3370 1.368 . S
C3374 C3373 1.523 . S
H3375 C3350 0.950 . S
H3376 C3352 0.950 . S
H3377 C3353 0.949 . S
H3378 C3355 0.950 . S
H3379 C3357 0.950 . S
C3380 C3381 1.349 . S
C3380 C3382 1.327 . S
C3380 H3405 0.950 . S
C3381 C3380 1.349 . S
C3381 C3397 1.349 . S
C3382 C3380 1.327 . S
C3382 C3401 1.429 . S
C3382 H3406 0.950 . S
C3383 C3400 1.574 . S
C3383 C3402 1.368 1_545 S
C3383 H3407 0.949 . S
H3384 C3388 0.949 . S
C3385 C3386 1.349 . S
C3385 C3387 1.327 . S
C3385 H3408 0.950 . S
C3386 C3385 1.349 . S
C3386 C3398 1.349 . S
C3387 C3385 1.327 . S
C3387 C3403 1.429 . S
C3387 H3409 0.950 . S
C3388 H3384 0.949 . S
C3388 C3396 1.574 . S
C3388 C3404 1.368 1_565 S
H3389 C3397 0.950 . S
H3390 C3395 0.950 . S
H3391 C3396 0.949 . S
H3392 C3398 0.950 . S
H3393 C3399 0.950 1_565 S
H3394 C3400 0.949 . S
C3395 H3390 0.950 . S
C3395 C3397 1.327 . S
C3395 C3401 1.429 . S
C3396 C3388 1.574 . S
C3396 H3391 0.949 . S
C3396 C3402 1.368 . S
C3397 C3381 1.349 . S
C3397 H3389 0.950 . S
C3397 C3395 1.327 . S
C3398 C3386 1.349 . S
C3398 H3392 0.950 . S
C3398 C3399 1.327 . S
C3399 H3393 0.950 1_545 S
C3399 C3398 1.327 . S
C3399 C3403 1.429 . S
C3400 C3383 1.574 . S
C3400 H3394 0.949 . S
C3400 C3404 1.368 . S
C3401 C3382 1.429 . S
C3401 C3395 1.429 . S
C3401 C3402 1.523 . S
C3402 C3383 1.368 1_565 S
C3402 C3396 1.368 . S
C3402 C3401 1.523 . S
C3403 C3387 1.429 . S
C3403 C3399 1.429 . S
C3403 C3404 1.523 . S
C3404 C3388 1.368 1_545 S
C3404 C3400 1.368 . S
C3404 C3403 1.523 . S
H3405 C3380 0.950 . S
H3406 C3382 0.950 . S
H3407 C3383 0.949 . S
H3408 C3385 0.950 . S
H3409 C3387 0.950 . S
C3410 C3411 1.349 . S
C3410 C3412 1.327 . S
C3410 H3435 0.950 . S
C3411 C3410 1.349 . S
C3411 C3427 1.349 . S
C3412 C3410 1.327 . S
C3412 C3431 1.429 . S
C3412 H3436 0.950 . S
C3413 C3430 1.574 . S
C3413 C3432 1.368 . S
C3413 H3437 0.949 . S
H3414 C3418 0.949 . S
C3415 C3416 1.349 . S
C3415 C3417 1.327 . S
C3415 H3438 0.950 . S
C3416 C3415 1.349 . S
C3416 C3428 1.349 . S
C3417 C3415 1.327 . S
C3417 C3433 1.429 . S
C3417 H3439 0.950 . S
C3418 H3414 0.949 . S
C3418 C3426 1.574 . S
C3418 C3434 1.368 . S
H3419 C3427 0.950 . S
H3420 C3425 0.950 . S
H3421 C3426 0.949 . S
H3422 C3428 0.950 . S
H3423 C3429 0.950 . S
H3424 C3430 0.949 . S
C3425 H3420 0.950 . S
C3425 C3427 1.327 . S
C3425 C3431 1.429 . S
C3426 C3418 1.574 . S
C3426 H3421 0.949 . S
C3426 C3432 1.368 1_545 S
C3427 C3411 1.349 . S
C3427 H3419 0.950 . S
C3427 C3425 1.327 . S
C3428 C3416 1.349 . S
C3428 H3422 0.950 . S
C3428 C3429 1.327 . S
C3429 H3423 0.950 . S
C3429 C3428 1.327 . S
C3429 C3433 1.429 . S
C3430 C3413 1.574 . S
C3430 H3424 0.949 . S
C3430 C3434 1.368 1_565 S
C3431 C3412 1.429 . S
C3431 C3425 1.429 . S
C3431 C3432 1.523 . S
C3432 C3413 1.368 . S
C3432 C3426 1.368 1_565 S
C3432 C3431 1.523 . S
C3433 C3417 1.429 . S
C3433 C3429 1.429 . S
C3433 C3434 1.523 . S
C3434 C3418 1.368 . S
C3434 C3430 1.368 1_545 S
C3434 C3433 1.523 . S
H3435 C3410 0.950 . S
H3436 C3412 0.950 . S
H3437 C3413 0.949 . S
H3438 C3415 0.950 . S
H3439 C3417 0.950 . S
C3440 C3441 1.349 . S
C3440 C3442 1.327 . S
C3440 H3465 0.950 . S
C3441 C3440 1.349 . S
C3441 C3457 1.349 . S
C3442 C3440 1.327 . S
C3442 C3461 1.429 . S
C3442 H3466 0.950 . S
C3443 C3460 1.574 . S
C3443 C3462 1.368 . S
C3443 H3467 0.949 . S
H3444 C3448 0.949 . S
C3445 C3446 1.349 . S
C3445 C3447 1.327 . S
C3445 H3468 0.950 . S
C3446 C3445 1.349 . S
C3446 C3458 1.349 . S
C3447 C3445 1.327 . S
C3447 C3463 1.429 . S
C3447 H3469 0.950 . S
C3448 H3444 0.949 . S
C3448 C3456 1.574 . S
C3448 C3464 1.368 . S
H3449 C3457 0.950 . S
H3450 C3455 0.950 . S
H3451 C3456 0.949 . S
H3452 C3458 0.950 . S
H3453 C3459 0.950 . S
H3454 C3460 0.949 . S
C3455 H3450 0.950 . S
C3455 C3457 1.327 . S
C3455 C3461 1.429 . S
C3456 C3448 1.574 . S
C3456 H3451 0.949 . S
C3456 C3462 1.368 . S
C3457 C3441 1.349 . S
C3457 H3449 0.950 . S
C3457 C3455 1.327 . S
C3458 C3446 1.349 . S
C3458 H3452 0.950 . S
C3458 C3459 1.327 . S
C3459 H3453 0.950 . S
C3459 C3458 1.327 . S
C3459 C3463 1.429 . S
C3460 C3443 1.574 . S
C3460 H3454 0.949 . S
C3460 C3464 1.368 . S
C3461 C3442 1.429 . S
C3461 C3455 1.429 . S
C3461 C3462 1.523 . S
C3462 C3443 1.368 . S
C3462 C3456 1.368 . S
C3462 C3461 1.523 . S
C3463 C3447 1.429 . S
C3463 C3459 1.429 . S
C3463 C3464 1.523 . S
C3464 C3448 1.368 . S
C3464 C3460 1.368 . S
C3464 C3463 1.523 . S
H3465 C3440 0.950 . S
H3466 C3442 0.950 . S
H3467 C3443 0.949 . S
H3468 C3445 0.950 . S
H3469 C3447 0.950 . S
C3470 C3471 1.349 . S
C3470 C3472 1.327 . S
C3470 H3495 0.950 . S
C3471 C3470 1.349 . S
C3471 C3487 1.349 . S
C3472 C3470 1.327 . S
C3472 C3491 1.429 . S
C3472 H3496 0.950 . S
C3473 C3490 1.574 . S
C3473 C3492 1.368 . S
C3473 H3497 0.949 . S
H3474 C3478 0.949 . S
C3475 C3476 1.349 . S
C3475 C3477 1.327 . S
C3475 H3498 0.950 . S
C3476 C3475 1.349 . S
C3476 C3488 1.349 . S
C3477 C3475 1.327 . S
C3477 C3493 1.429 . S
C3477 H3499 0.950 . S
C3478 H3474 0.949 . S
C3478 C3486 1.574 . S
C3478 C3494 1.368 . S
H3479 C3487 0.950 . S
H3480 C3485 0.950 . S
H3481 C3486 0.949 . S
H3482 C3488 0.950 . S
H3483 C3489 0.950 . S
H3484 C3490 0.949 . S
C3485 H3480 0.950 . S
C3485 C3487 1.327 . S
C3485 C3491 1.429 . S
C3486 C3478 1.574 . S
C3486 H3481 0.949 . S
C3486 C3492 1.368 . S
C3487 C3471 1.349 . S
C3487 H3479 0.950 . S
C3487 C3485 1.327 . S
C3488 C3476 1.349 . S
C3488 H3482 0.950 . S
C3488 C3489 1.327 . S
C3489 H3483 0.950 . S
C3489 C3488 1.327 . S
C3489 C3493 1.429 . S
C3490 C3473 1.574 . S
C3490 H3484 0.949 . S
C3490 C3494 1.368 . S
C3491 C3472 1.429 . S
C3491 C3485 1.429 . S
C3491 C3492 1.523 . S
C3492 C3473 1.368 . S
C3492 C3486 1.368 . S
C3492 C3491 1.523 . S
C3493 C3477 1.429 . S
C3493 C3489 1.429 . S
C3493 C3494 1.523 . S
C3494 C3478 1.368 . S
C3494 C3490 1.368 . S
C3494 C3493 1.523 . S
H3495 C3470 0.950 . S
H3496 C3472 0.950 . S
H3497 C3473 0.949 . S
H3498 C3475 0.950 . S
H3499 C3477 0.950 . S
C3500 C3501 1.349 . S
C3500 C3502 1.327 . S
C3500 H3525 0.950 . S
C3501 C3500 1.349 . S
C3501 C3517 1.349 . S
C3502 C3500 1.327 . S
C3502 C3521 1.429 . S
C3502 H3526 0.950 . S
C3503 C3520 1.574 . S
C3503 C3522 1.368 . S
C3503 H3527 0.949 . S
H3504 C3508 0.949 . S
C3505 C3506 1.349 . S
C3505 C3507 1.327 . S
C3505 H3528 0.950 . S
C3506 C3505 1.349 . S
C3506 C3518 1.349 . S
C3507 C3505 1.327 . S
C3507 C3523 1.429 . S
C3507 H3529 0.950 . S
C3508 H3504 0.949 . S
C3508 C3516 1.574 . S
C3508 C3524 1.368 . S
H3509 C3517 0.950 . S
H3510 C3515 0.950 . S
H3511 C3516 0.949 . S
H3512 C3518 0.950 . S
H3513 C3519 0.950 . S
H3514 C3520 0.949 . S
C3515 H3510 0.950 . S
C3515 C3517 1.327 . S
C3515 C3521 1.429 . S
C3516 C3508 1.574 . S
C3516 H3511 0.949 . S
C3516 C3522 1.368 . S
C3517 C3501 1.349 . S
C3517 H3509 0.950 . S
C3517 C3515 1.327 . S
C3518 C3506 1.349 . S
C3518 H3512 0.950 . S
C3518 C3519 1.327 . S
C3519 H3513 0.950 . S
C3519 C3518 1.327 . S
C3519 C3523 1.429 . S
C3520 C3503 1.574 . S
C3520 H3514 0.949 . S
C3520 C3524 1.368 . S
C3521 C3502 1.429 . S
C3521 C3515 1.429 . S
C3521 C3522 1.523 . S
C3522 C3503 1.368 . S
C3522 C3516 1.368 . S
C3522 C3521 1.523 . S
C3523 C3507 1.429 . S
C3523 C3519 1.429 . S
C3523 C3524 1.523 . S
C3524 C3508 1.368 . S
C3524 C3520 1.368 . S
C3524 C3523 1.523 . S
H3525 C3500 0.950 . S
H3526 C3502 0.950 . S
H3527 C3503 0.949 . S
H3528 C3505 0.950 . S
H3529 C3507 0.950 . S
C3530 C3531 1.349 . S
C3530 C3532 1.327 . S
C3530 H3555 0.950 . S
C3531 C3530 1.349 . S
C3531 C3547 1.349 . S
C3532 C3530 1.327 . S
C3532 C3551 1.429 . S
C3532 H3556 0.950 . S
C3533 C3550 1.574 . S
C3533 C3552 1.368 . S
C3533 H3557 0.949 . S
H3534 C3538 0.949 . S
C3535 C3536 1.349 . S
C3535 C3537 1.327 . S
C3535 H3558 0.950 . S
C3536 C3535 1.349 . S
C3536 C3548 1.349 . S
C3537 C3535 1.327 . S
C3537 C3553 1.429 . S
C3537 H3559 0.950 . S
C3538 H3534 0.949 . S
C3538 C3546 1.574 . S
C3538 C3554 1.368 . S
H3539 C3547 0.950 . S
H3540 C3545 0.950 . S
H3541 C3546 0.949 . S
H3542 C3548 0.950 . S
H3543 C3549 0.950 . S
H3544 C3550 0.949 . S
C3545 H3540 0.950 . S
C3545 C3547 1.327 . S
C3545 C3551 1.429 . S
C3546 C3538 1.574 . S
C3546 H3541 0.949 . S
C3546 C3552 1.368 . S
C3547 C3531 1.349 . S
C3547 H3539 0.950 . S
C3547 C3545 1.327 . S
C3548 C3536 1.349 . S
C3548 H3542 0.950 . S
C3548 C3549 1.327 . S
C3549 H3543 0.950 . S
C3549 C3548 1.327 . S
C3549 C3553 1.429 . S
C3550 C3533 1.574 . S
C3550 H3544 0.949 . S
C3550 C3554 1.368 . S
C3551 C3532 1.429 . S
C3551 C3545 1.429 . S
C3551 C3552 1.523 . S
C3552 C3533 1.368 . S
C3552 C3546 1.368 . S
C3552 C3551 1.523 . S
C3553 C3537 1.429 . S
C3553 C3549 1.429 . S
C3553 C3554 1.523 . S
C3554 C3538 1.368 . S
C3554 C3550 1.368 . S
C3554 C3553 1.523 . S
H3555 C3530 0.950 . S
H3556 C3532 0.950 . S
H3557 C3533 0.949 . S
H3558 C3535 0.950 . S
H3559 C3537 0.950 . S
C3560 C3561 1.349 . S
C3560 C3562 1.327 . S
C3560 H3585 0.950 . S
C3561 C3560 1.349 . S
C3561 C3577 1.349 . S
C3562 C3560 1.327 . S
C3562 C3581 1.429 . S
C3562 H3586 0.950 . S
C3563 C3580 1.574 . S
C3563 C3582 1.368 . S
C3563 H3587 0.949 . S
H3564 C3568 0.949 . S
C3565 C3566 1.349 . S
C3565 C3567 1.327 . S
C3565 H3588 0.950 . S
C3566 C3565 1.349 . S
C3566 C3578 1.349 . S
C3567 C3565 1.327 . S
C3567 C3583 1.429 . S
C3567 H3589 0.950 . S
C3568 H3564 0.949 . S
C3568 C3576 1.574 . S
C3568 C3584 1.368 . S
H3569 C3577 0.950 . S
H3570 C3575 0.950 . S
H3571 C3576 0.949 . S
H3572 C3578 0.950 . S
H3573 C3579 0.950 . S
H3574 C3580 0.949 . S
C3575 H3570 0.950 . S
C3575 C3577 1.327 . S
C3575 C3581 1.429 . S
C3576 C3568 1.574 . S
C3576 H3571 0.949 . S
C3576 C3582 1.368 . S
C3577 C3561 1.349 . S
C3577 H3569 0.950 . S
C3577 C3575 1.327 . S
C3578 C3566 1.349 . S
C3578 H3572 0.950 . S
C3578 C3579 1.327 . S
C3579 H3573 0.950 . S
C3579 C3578 1.327 . S
C3579 C3583 1.429 . S
C3580 C3563 1.574 . S
C3580 H3574 0.949 . S
C3580 C3584 1.368 . S
C3581 C3562 1.429 . S
C3581 C3575 1.429 . S
C3581 C3582 1.523 . S
C3582 C3563 1.368 . S
C3582 C3576 1.368 . S
C3582 C3581 1.523 . S
C3583 C3567 1.429 . S
C3583 C3579 1.429 . S
C3583 C3584 1.523 . S
C3584 C3568 1.368 . S
C3584 C3580 1.368 . S
C3584 C3583 1.523 . S
H3585 C3560 0.950 . S
H3586 C3562 0.950 . S
H3587 C3563 0.949 . S
H3588 C3565 0.950 . S
H3589 C3567 0.950 . S
C3590 C3591 1.349 . S
C3590 C3592 1.327 . S
C3590 H3615 0.950 . S
C3591 C3590 1.349 . S
C3591 C3607 1.349 . S
C3592 C3590 1.327 . S
C3592 C3611 1.429 . S
C3592 H3616 0.950 . S
C3593 C3610 1.574 . S
C3593 C3612 1.368 . S
C3593 H3617 0.949 . S
H3594 C3598 0.949 . S
C3595 C3596 1.349 . S
C3595 C3597 1.327 . S
C3595 H3618 0.950 . S
C3596 C3595 1.349 . S
C3596 C3608 1.349 . S
C3597 C3595 1.327 . S
C3597 C3613 1.429 . S
C3597 H3619 0.950 . S
C3598 H3594 0.949 . S
C3598 C3606 1.574 . S
C3598 C3614 1.368 . S
H3599 C3607 0.950 . S
H3600 C3605 0.950 . S
H3601 C3606 0.949 . S
H3602 C3608 0.950 . S
H3603 C3609 0.950 . S
H3604 C3610 0.949 . S
C3605 H3600 0.950 . S
C3605 C3607 1.327 . S
C3605 C3611 1.429 . S
C3606 C3598 1.574 . S
C3606 H3601 0.949 . S
C3606 C3612 1.368 . S
C3607 C3591 1.349 . S
C3607 H3599 0.950 . S
C3607 C3605 1.327 . S
C3608 C3596 1.349 . S
C3608 H3602 0.950 . S
C3608 C3609 1.327 . S
C3609 H3603 0.950 . S
C3609 C3608 1.327 . S
C3609 C3613 1.429 . S
C3610 C3593 1.574 . S
C3610 H3604 0.949 . S
C3610 C3614 1.368 . S
C3611 C3592 1.429 . S
C3611 C3605 1.429 . S
C3611 C3612 1.523 . S
C3612 C3593 1.368 . S
C3612 C3606 1.368 . S
C3612 C3611 1.523 . S
C3613 C3597 1.429 . S
C3613 C3609 1.429 . S
C3613 C3614 1.523 . S
C3614 C3598 1.368 . S
C3614 C3610 1.368 . S
C3614 C3613 1.523 . S
H3615 C3590 0.950 . S
H3616 C3592 0.950 . S
H3617 C3593 0.949 . S
H3618 C3595 0.950 . S
H3619 C3597 0.950 . S
C3620 C3621 1.349 . S
C3620 C3622 1.327 . S
C3620 H3645 0.950 . S
C3621 C3620 1.349 . S
C3621 C3637 1.349 . S
C3622 C3620 1.327 . S
C3622 C3641 1.429 . S
C3622 H3646 0.950 . S
C3623 C3640 1.574 . S
C3623 C3642 1.368 . S
C3623 H3647 0.949 . S
H3624 C3628 0.949 . S
C3625 C3626 1.349 . S
C3625 C3627 1.327 . S
C3625 H3648 0.950 . S
C3626 C3625 1.349 . S
C3626 C3638 1.349 . S
C3627 C3625 1.327 . S
C3627 C3643 1.429 . S
C3627 H3649 0.950 . S
C3628 H3624 0.949 . S
C3628 C3636 1.574 . S
C3628 C3644 1.368 . S
H3629 C3637 0.950 . S
H3630 C3635 0.950 . S
H3631 C3636 0.949 . S
H3632 C3638 0.950 . S
H3633 C3639 0.950 . S
H3634 C3640 0.949 . S
C3635 H3630 0.950 . S
C3635 C3637 1.327 . S
C3635 C3641 1.429 . S
C3636 C3628 1.574 . S
C3636 H3631 0.949 . S
C3636 C3642 1.368 . S
C3637 C3621 1.349 . S
C3637 H3629 0.950 . S
C3637 C3635 1.327 . S
C3638 C3626 1.349 . S
C3638 H3632 0.950 . S
C3638 C3639 1.327 . S
C3639 H3633 0.950 . S
C3639 C3638 1.327 . S
C3639 C3643 1.429 . S
C3640 C3623 1.574 . S
C3640 H3634 0.949 . S
C3640 C3644 1.368 . S
C3641 C3622 1.429 . S
C3641 C3635 1.429 . S
C3641 C3642 1.523 . S
C3642 C3623 1.368 . S
C3642 C3636 1.368 . S
C3642 C3641 1.523 . S
C3643 C3627 1.429 . S
C3643 C3639 1.429 . S
C3643 C3644 1.523 . S
C3644 C3628 1.368 . S
C3644 C3640 1.368 . S
C3644 C3643 1.523 . S
H3645 C3620 0.950 . S
H3646 C3622 0.950 . S
H3647 C3623 0.949 . S
H3648 C3625 0.950 . S
H3649 C3627 0.950 . S
C3650 C3651 1.349 . S
C3650 C3652 1.327 . S
C3650 H3675 0.950 . S
C3651 C3650 1.349 . S
C3651 C3667 1.349 . S
C3652 C3650 1.327 . S
C3652 C3671 1.429 . S
C3652 H3676 0.950 . S
C3653 C3670 1.574 . S
C3653 C3672 1.368 . S
C3653 H3677 0.949 . S
H3654 C3658 0.949 . S
C3655 C3656 1.349 . S
C3655 C3657 1.327 . S
C3655 H3678 0.950 . S
C3656 C3655 1.349 . S
C3656 C3668 1.349 . S
C3657 C3655 1.327 . S
C3657 C3673 1.429 . S
C3657 H3679 0.950 . S
C3658 H3654 0.949 . S
C3658 C3666 1.574 . S
C3658 C3674 1.368 . S
H3659 C3667 0.950 . S
H3660 C3665 0.950 . S
H3661 C3666 0.949 . S
H3662 C3668 0.950 . S
H3663 C3669 0.950 . S
H3664 C3670 0.949 . S
C3665 H3660 0.950 . S
C3665 C3667 1.327 . S
C3665 C3671 1.429 . S
C3666 C3658 1.574 . S
C3666 H3661 0.949 . S
C3666 C3672 1.368 . S
C3667 C3651 1.349 . S
C3667 H3659 0.950 . S
C3667 C3665 1.327 . S
C3668 C3656 1.349 . S
C3668 H3662 0.950 . S
C3668 C3669 1.327 . S
C3669 H3663 0.950 . S
C3669 C3668 1.327 . S
C3669 C3673 1.429 . S
C3670 C3653 1.574 . S
C3670 H3664 0.949 . S
C3670 C3674 1.368 . S
C3671 C3652 1.429 . S
C3671 C3665 1.429 . S
C3671 C3672 1.523 . S
C3672 C3653 1.368 . S
C3672 C3666 1.368 . S
C3672 C3671 1.523 . S
C3673 C3657 1.429 . S
C3673 C3669 1.429 . S
C3673 C3674 1.523 . S
C3674 C3658 1.368 . S
C3674 C3670 1.368 . S
C3674 C3673 1.523 . S
H3675 C3650 0.950 . S
H3676 C3652 0.950 . S
H3677 C3653 0.949 . S
H3678 C3655 0.950 . S
H3679 C3657 0.950 . S
C3680 C3681 1.349 . S
C3680 C3682 1.327 . S
C3680 H3705 0.950 . S
C3681 C3680 1.349 . S
C3681 C3697 1.349 . S
C3682 C3680 1.327 . S
C3682 C3701 1.429 . S
C3682 H3706 0.950 . S
C3683 C3700 1.574 . S
C3683 C3702 1.368 1_565 S
C3683 H3707 0.949 . S
H3684 C3688 0.949 . S
C3685 C3686 1.349 . S
C3685 C3687 1.327 . S
C3685 H3708 0.950 . S
C3686 C3685 1.349 . S
C3686 C3698 1.349 . S
C3687 C3685 1.327 . S
C3687 C3703 1.429 . S
C3687 H3709 0.950 . S
C3688 H3684 0.949 . S
C3688 C3696 1.574 . S
C3688 C3704 1.368 1_545 S
H3689 C3697 0.950 . S
H3690 C3695 0.950 . S
H3691 C3696 0.949 . S
H3692 C3698 0.950 . S
H3693 C3699 0.950 . S
H3694 C3700 0.949 . S
C3695 H3690 0.950 . S
C3695 C3697 1.327 . S
C3695 C3701 1.429 . S
C3696 C3688 1.574 . S
C3696 H3691 0.949 . S
C3696 C3702 1.368 . S
C3697 C3681 1.349 . S
C3697 H3689 0.950 . S
C3697 C3695 1.327 . S
C3698 C3686 1.349 . S
C3698 H3692 0.950 . S
C3698 C3699 1.327 . S
C3699 H3693 0.950 . S
C3699 C3698 1.327 . S
C3699 C3703 1.429 . S
C3700 C3683 1.574 . S
C3700 H3694 0.949 . S
C3700 C3704 1.368 . S
C3701 C3682 1.429 . S
C3701 C3695 1.429 . S
C3701 C3702 1.523 . S
C3702 C3683 1.368 1_545 S
C3702 C3696 1.368 . S
C3702 C3701 1.523 . S
C3703 C3687 1.429 . S
C3703 C3699 1.429 . S
C3703 C3704 1.523 . S
C3704 C3688 1.368 1_565 S
C3704 C3700 1.368 . S
C3704 C3703 1.523 . S
H3705 C3680 0.950 . S
H3706 C3682 0.950 . S
H3707 C3683 0.949 . S
H3708 C3685 0.950 . S
H3709 C3687 0.950 . S
C3710 C3711 1.349 . S
C3710 C3712 1.327 . S
C3710 H3735 0.950 . S
C3711 C3710 1.349 . S
C3711 C3727 1.349 . S
C3712 C3710 1.327 . S
C3712 C3731 1.429 . S
C3712 H3736 0.950 . S
C3713 C3730 1.574 . S
C3713 C3732 1.368 . S
C3713 H3737 0.949 . S
H3714 C3718 0.949 . S
C3715 C3716 1.349 . S
C3715 C3717 1.327 . S
C3715 H3738 0.950 . S
C3716 C3715 1.349 . S
C3716 C3728 1.349 . S
C3717 C3715 1.327 . S
C3717 C3733 1.429 . S
C3717 H3739 0.950 . S
C3718 H3714 0.949 . S
C3718 C3726 1.574 . S
C3718 C3734 1.368 . S
H3719 C3727 0.950 . S
H3720 C3725 0.950 . S
H3721 C3726 0.949 . S
H3722 C3728 0.950 . S
H3723 C3729 0.950 . S
H3724 C3730 0.949 . S
C3725 H3720 0.950 . S
C3725 C3727 1.327 . S
C3725 C3731 1.429 . S
C3726 C3718 1.574 . S
C3726 H3721 0.949 . S
C3726 C3732 1.368 . S
C3727 C3711 1.349 . S
C3727 H3719 0.950 . S
C3727 C3725 1.327 . S
C3728 C3716 1.349 . S
C3728 H3722 0.950 . S
C3728 C3729 1.327 . S
C3729 H3723 0.950 . S
C3729 C3728 1.327 . S
C3729 C3733 1.429 . S
C3730 C3713 1.574 . S
C3730 H3724 0.949 . S
C3730 C3734 1.368 . S
C3731 C3712 1.429 . S
C3731 C3725 1.429 . S
C3731 C3732 1.523 . S
C3732 C3713 1.368 . S
C3732 C3726 1.368 . S
C3732 C3731 1.523 . S
C3733 C3717 1.429 . S
C3733 C3729 1.429 . S
C3733 C3734 1.523 . S
C3734 C3718 1.368 . S
C3734 C3730 1.368 . S
C3734 C3733 1.523 . S
H3735 C3710 0.950 . S
H3736 C3712 0.950 . S
H3737 C3713 0.949 . S
H3738 C3715 0.950 . S
H3739 C3717 0.950 . S
C3740 C3741 1.349 . S
C3740 C3742 1.327 . S
C3740 H3765 0.950 . S
C3741 C3740 1.349 . S
C3741 C3757 1.349 . S
C3742 C3740 1.327 . S
C3742 C3761 1.429 . S
C3742 H3766 0.950 . S
C3743 C3760 1.574 . S
C3743 C3762 1.368 1_565 S
C3743 H3767 0.949 . S
H3744 C3748 0.949 . S
C3745 C3746 1.349 . S
C3745 C3747 1.327 . S
C3745 H3768 0.950 . S
C3746 C3745 1.349 . S
C3746 C3758 1.349 . S
C3747 C3745 1.327 . S
C3747 C3763 1.429 . S
C3747 H3769 0.950 . S
C3748 H3744 0.949 . S
C3748 C3756 1.574 . S
C3748 C3764 1.368 1_545 S
H3749 C3757 0.950 . S
H3750 C3755 0.950 1_565 S
H3751 C3756 0.949 . S
H3752 C3758 0.950 . S
H3753 C3759 0.950 1_545 S
H3754 C3760 0.949 . S
C3755 H3750 0.950 1_545 S
C3755 C3757 1.327 . S
C3755 C3761 1.429 . S
C3756 C3748 1.574 . S
C3756 H3751 0.949 . S
C3756 C3762 1.368 . S
C3757 C3741 1.349 . S
C3757 H3749 0.950 . S
C3757 C3755 1.327 . S
C3758 C3746 1.349 . S
C3758 H3752 0.950 . S
C3758 C3759 1.327 . S
C3759 H3753 0.950 1_565 S
C3759 C3758 1.327 . S
C3759 C3763 1.429 . S
C3760 C3743 1.574 . S
C3760 H3754 0.949 . S
C3760 C3764 1.368 . S
C3761 C3742 1.429 . S
C3761 C3755 1.429 . S
C3761 C3762 1.523 . S
C3762 C3743 1.368 1_545 S
C3762 C3756 1.368 . S
C3762 C3761 1.523 . S
C3763 C3747 1.429 . S
C3763 C3759 1.429 . S
C3763 C3764 1.523 . S
C3764 C3748 1.368 1_565 S
C3764 C3760 1.368 . S
C3764 C3763 1.523 . S
H3765 C3740 0.950 . S
H3766 C3742 0.950 . S
H3767 C3743 0.949 . S
H3768 C3745 0.950 . S
H3769 C3747 0.950 . S
C3770 C3771 1.349 . S
C3770 C3772 1.327 . S
C3770 H3795 0.950 . S
C3771 C3770 1.349 . S
C3771 C3787 1.349 . S
C3772 C3770 1.327 . S
C3772 C3791 1.429 . S
C3772 H3796 0.950 . S
C3773 C3790 1.574 1_556 S
C3773 C3792 1.368 . S
C3773 H3797 0.949 . S
H3774 C3778 0.949 . S
C3775 C3776 1.349 . S
C3775 C3777 1.327 . S
C3775 H3798 0.950 . S
C3776 C3775 1.349 . S
C3776 C3788 1.349 . S
C3777 C3775 1.327 . S
C3777 C3793 1.429 . S
C3777 H3799 0.950 . S
C3778 H3774 0.949 . S
C3778 C3786 1.574 1_554 S
C3778 C3794 1.368 . S
H3779 C3787 0.950 . S
H3780 C3785 0.950 . S
H3781 C3786 0.949 . S
H3782 C3788 0.950 . S
H3783 C3789 0.950 . S
H3784 C3790 0.949 . S
C3785 H3780 0.950 . S
C3785 C3787 1.327 . S
C3785 C3791 1.429 . S
C3786 C3778 1.574 1_556 S
C3786 H3781 0.949 . S
C3786 C3792 1.368 . S
C3787 C3771 1.349 . S
C3787 H3779 0.950 . S
C3787 C3785 1.327 . S
C3788 C3776 1.349 . S
C3788 H3782 0.950 . S
C3788 C3789 1.327 . S
C3789 H3783 0.950 . S
C3789 C3788 1.327 . S
C3789 C3793 1.429 . S
C3790 C3773 1.574 1_554 S
C3790 H3784 0.949 . S
C3790 C3794 1.368 . S
C3791 C3772 1.429 . S
C3791 C3785 1.429 . S
C3791 C3792 1.523 . S
C3792 C3773 1.368 . S
C3792 C3786 1.368 . S
C3792 C3791 1.523 . S
C3793 C3777 1.429 . S
C3793 C3789 1.429 . S
C3793 C3794 1.523 . S
C3794 C3778 1.368 . S
C3794 C3790 1.368 . S
C3794 C3793 1.523 . S
H3795 C3770 0.950 . S
H3796 C3772 0.950 . S
H3797 C3773 0.949 . S
H3798 C3775 0.950 . S
H3799 C3777 0.950 . S
C3800 C3801 1.349 . S
C3800 C3802 1.327 . S
C3800 H3825 0.950 . S
C3801 C3800 1.349 . S
C3801 C3817 1.349 . S
C3802 C3800 1.327 . S
C3802 C3821 1.429 . S
C3802 H3826 0.950 . S
C3803 C3820 1.574 . S
C3803 C3822 1.368 . S
C3803 H3827 0.949 . S
H3804 C3808 0.949 . S
C3805 C3806 1.349 . S
C3805 C3807 1.327 . S
C3805 H3828 0.950 . S
C3806 C3805 1.349 . S
C3806 C3818 1.349 . S
C3807 C3805 1.327 . S
C3807 C3823 1.429 . S
C3807 H3829 0.950 . S
C3808 H3804 0.949 . S
C3808 C3816 1.574 . S
C3808 C3824 1.368 . S
H3809 C3817 0.950 . S
H3810 C3815 0.950 . S
H3811 C3816 0.949 . S
H3812 C3818 0.950 . S
H3813 C3819 0.950 . S
H3814 C3820 0.949 . S
C3815 H3810 0.950 . S
C3815 C3817 1.327 . S
C3815 C3821 1.429 . S
C3816 C3808 1.574 . S
C3816 H3811 0.949 . S
C3816 C3822 1.368 1_545 S
C3817 C3801 1.349 . S
C3817 H3809 0.950 . S
C3817 C3815 1.327 . S
C3818 C3806 1.349 . S
C3818 H3812 0.950 . S
C3818 C3819 1.327 . S
C3819 H3813 0.950 . S
C3819 C3818 1.327 . S
C3819 C3823 1.429 . S
C3820 C3803 1.574 . S
C3820 H3814 0.949 . S
C3820 C3824 1.368 1_565 S
C3821 C3802 1.429 . S
C3821 C3815 1.429 . S
C3821 C3822 1.523 . S
C3822 C3803 1.368 . S
C3822 C3816 1.368 1_565 S
C3822 C3821 1.523 . S
C3823 C3807 1.429 . S
C3823 C3819 1.429 . S
C3823 C3824 1.523 . S
C3824 C3808 1.368 . S
C3824 C3820 1.368 1_545 S
C3824 C3823 1.523 . S
H3825 C3800 0.950 . S
H3826 C3802 0.950 . S
H3827 C3803 0.949 . S
H3828 C3805 0.950 . S
H3829 C3807 0.950 . S
C3830 C3831 1.349 . S
C3830 C3832 1.327 . S
C3830 H3855 0.950 . S
C3831 C3830 1.349 . S
C3831 C3847 1.349 . S
C3832 C3830 1.327 . S
C3832 C3851 1.429 . S
C3832 H3856 0.950 . S
C3833 C3850 1.574 . S
C3833 C3852 1.368 . S
C3833 H3857 0.949 . S
H3834 C3838 0.949 . S
C3835 C3836 1.349 . S
C3835 C3837 1.327 . S
C3835 H3858 0.950 . S
C3836 C3835 1.349 . S
C3836 C3848 1.349 . S
C3837 C3835 1.327 . S
C3837 C3853 1.429 . S
C3837 H3859 0.950 . S
C3838 H3834 0.949 . S
C3838 C3846 1.574 . S
C3838 C3854 1.368 . S
H3839 C3847 0.950 . S
H3840 C3845 0.950 . S
H3841 C3846 0.949 . S
H3842 C3848 0.950 . S
H3843 C3849 0.950 . S
H3844 C3850 0.949 . S
C3845 H3840 0.950 . S
C3845 C3847 1.327 . S
C3845 C3851 1.429 . S
C3846 C3838 1.574 . S
C3846 H3841 0.949 . S
C3846 C3852 1.368 . S
C3847 C3831 1.349 . S
C3847 H3839 0.950 . S
C3847 C3845 1.327 . S
C3848 C3836 1.349 . S
C3848 H3842 0.950 . S
C3848 C3849 1.327 . S
C3849 H3843 0.950 . S
C3849 C3848 1.327 . S
C3849 C3853 1.429 . S
C3850 C3833 1.574 . S
C3850 H3844 0.949 . S
C3850 C3854 1.368 . S
C3851 C3832 1.429 . S
C3851 C3845 1.429 . S
C3851 C3852 1.523 . S
C3852 C3833 1.368 . S
C3852 C3846 1.368 . S
C3852 C3851 1.523 . S
C3853 C3837 1.429 . S
C3853 C3849 1.429 . S
C3853 C3854 1.523 . S
C3854 C3838 1.368 . S
C3854 C3850 1.368 . S
C3854 C3853 1.523 . S
H3855 C3830 0.950 . S
H3856 C3832 0.950 . S
H3857 C3833 0.949 . S
H3858 C3835 0.950 . S
H3859 C3837 0.950 . S
C3860 C3861 1.349 . S
C3860 C3862 1.327 . S
C3860 H3885 0.950 . S
C3861 C3860 1.349 . S
C3861 C3877 1.349 . S
C3862 C3860 1.327 . S
C3862 C3881 1.429 . S
C3862 H3886 0.950 . S
C3863 C3880 1.574 . S
C3863 C3882 1.368 . S
C3863 H3887 0.949 . S
H3864 C3868 0.949 . S
C3865 C3866 1.349 . S
C3865 C3867 1.327 . S
C3865 H3888 0.950 . S
C3866 C3865 1.349 . S
C3866 C3878 1.349 . S
C3867 C3865 1.327 . S
C3867 C3883 1.429 . S
C3867 H3889 0.950 . S
C3868 H3864 0.949 . S
C3868 C3876 1.574 . S
C3868 C3884 1.368 . S
H3869 C3877 0.950 . S
H3870 C3875 0.950 . S
H3871 C3876 0.949 . S
H3872 C3878 0.950 . S
H3873 C3879 0.950 . S
H3874 C3880 0.949 . S
C3875 H3870 0.950 . S
C3875 C3877 1.327 . S
C3875 C3881 1.429 . S
C3876 C3868 1.574 . S
C3876 H3871 0.949 . S
C3876 C3882 1.368 1_545 S
C3877 C3861 1.349 . S
C3877 H3869 0.950 . S
C3877 C3875 1.327 . S
C3878 C3866 1.349 . S
C3878 H3872 0.950 . S
C3878 C3879 1.327 . S
C3879 H3873 0.950 . S
C3879 C3878 1.327 . S
C3879 C3883 1.429 . S
C3880 C3863 1.574 . S
C3880 H3874 0.949 . S
C3880 C3884 1.368 1_565 S
C3881 C3862 1.429 . S
C3881 C3875 1.429 . S
C3881 C3882 1.523 . S
C3882 C3863 1.368 . S
C3882 C3876 1.368 1_565 S
C3882 C3881 1.523 . S
C3883 C3867 1.429 . S
C3883 C3879 1.429 . S
C3883 C3884 1.523 . S
C3884 C3868 1.368 . S
C3884 C3880 1.368 1_545 S
C3884 C3883 1.523 . S
H3885 C3860 0.950 . S
H3886 C3862 0.950 . S
H3887 C3863 0.949 . S
H3888 C3865 0.950 . S
H3889 C3867 0.950 . S
C3890 C3891 1.349 . S
C3890 C3892 1.327 . S
C3890 H3915 0.950 . S
C3891 C3890 1.349 . S
C3891 C3907 1.349 . S
C3892 C3890 1.327 . S
C3892 C3911 1.429 . S
C3892 H3916 0.950 . S
C3893 C3910 1.574 1_554 S
C3893 C3912 1.368 . S
C3893 H3917 0.949 . S
H3894 C3898 0.949 . S
C3895 C3896 1.349 . S
C3895 C3897 1.327 . S
C3895 H3918 0.950 . S
C3896 C3895 1.349 . S
C3896 C3908 1.349 . S
C3897 C3895 1.327 . S
C3897 C3913 1.429 . S
C3897 H3919 0.950 . S
C3898 H3894 0.949 . S
C3898 C3906 1.574 1_556 S
C3898 C3914 1.368 . S
H3899 C3907 0.950 . S
H3900 C3905 0.950 . S
H3901 C3906 0.949 . S
H3902 C3908 0.950 . S
H3903 C3909 0.950 . S
H3904 C3910 0.949 . S
C3905 H3900 0.950 . S
C3905 C3907 1.327 . S
C3905 C3911 1.429 . S
C3906 C3898 1.574 1_554 S
C3906 H3901 0.949 . S
C3906 C3912 1.368 . S
C3907 C3891 1.349 . S
C3907 H3899 0.950 . S
C3907 C3905 1.327 . S
C3908 C3896 1.349 . S
C3908 H3902 0.950 . S
C3908 C3909 1.327 . S
C3909 H3903 0.950 . S
C3909 C3908 1.327 . S
C3909 C3913 1.429 . S
C3910 C3893 1.574 1_556 S
C3910 H3904 0.949 . S
C3910 C3914 1.368 . S
C3911 C3892 1.429 . S
C3911 C3905 1.429 . S
C3911 C3912 1.523 . S
C3912 C3893 1.368 . S
C3912 C3906 1.368 . S
C3912 C3911 1.523 . S
C3913 C3897 1.429 . S
C3913 C3909 1.429 . S
C3913 C3914 1.523 . S
C3914 C3898 1.368 . S
C3914 C3910 1.368 . S
C3914 C3913 1.523 . S
H3915 C3890 0.950 . S
H3916 C3892 0.950 . S
H3917 C3893 0.949 . S
H3918 C3895 0.950 . S
H3919 C3897 0.950 . S
C3920 C3921 1.349 . S
C3920 C3922 1.327 . S
C3920 H3945 0.950 . S
C3921 C3920 1.349 . S
C3921 C3937 1.349 . S
C3922 C3920 1.327 . S
C3922 C3941 1.429 . S
C3922 H3946 0.950 . S
C3923 C3940 1.574 . S
C3923 C3942 1.368 . S
C3923 H3947 0.949 . S
H3924 C3928 0.949 . S
C3925 C3926 1.349 . S
C3925 C3927 1.327 . S
C3925 H3948 0.950 . S
C3926 C3925 1.349 . S
C3926 C3938 1.349 . S
C3927 C3925 1.327 . S
C3927 C3943 1.429 . S
C3927 H3949 0.950 . S
C3928 H3924 0.949 . S
C3928 C3936 1.574 . S
C3928 C3944 1.368 . S
H3929 C3937 0.950 . S
H3930 C3935 0.950 . S
H3931 C3936 0.949 . S
H3932 C3938 0.950 . S
H3933 C3939 0.950 . S
H3934 C3940 0.949 . S
C3935 H3930 0.950 . S
C3935 C3937 1.327 . S
C3935 C3941 1.429 . S
C3936 C3928 1.574 . S
C3936 H3931 0.949 . S
C3936 C3942 1.368 . S
C3937 C3921 1.349 . S
C3937 H3929 0.950 . S
C3937 C3935 1.327 . S
C3938 C3926 1.349 . S
C3938 H3932 0.950 . S
C3938 C3939 1.327 . S
C3939 H3933 0.950 . S
C3939 C3938 1.327 . S
C3939 C3943 1.429 . S
C3940 C3923 1.574 . S
C3940 H3934 0.949 . S
C3940 C3944 1.368 . S
C3941 C3922 1.429 . S
C3941 C3935 1.429 . S
C3941 C3942 1.523 . S
C3942 C3923 1.368 . S
C3942 C3936 1.368 . S
C3942 C3941 1.523 . S
C3943 C3927 1.429 . S
C3943 C3939 1.429 . S
C3943 C3944 1.523 . S
C3944 C3928 1.368 . S
C3944 C3940 1.368 . S
C3944 C3943 1.523 . S
H3945 C3920 0.950 . S
H3946 C3922 0.950 . S
H3947 C3923 0.949 . S
H3948 C3925 0.950 . S
H3949 C3927 0.950 . S
C3950 C3951 1.349 . S
C3950 C3952 1.327 . S
C3950 H3975 0.950 . S
C3951 C3950 1.349 . S
C3951 C3967 1.349 . S
C3952 C3950 1.327 . S
C3952 C3971 1.429 . S
C3952 H3976 0.950 . S
C3953 C3970 1.574 1_556 S
C3953 C3972 1.368 . S
C3953 H3977 0.949 . S
H3954 C3958 0.949 . S
C3955 C3956 1.349 . S
C3955 C3957 1.327 . S
C3955 H3978 0.950 . S
C3956 C3955 1.349 . S
C3956 C3968 1.349 . S
C3957 C3955 1.327 . S
C3957 C3973 1.429 . S
C3957 H3979 0.950 . S
C3958 H3954 0.949 . S
C3958 C3966 1.574 1_554 S
C3958 C3974 1.368 . S
H3959 C3967 0.950 . S
H3960 C3965 0.950 . S
H3961 C3966 0.949 . S
H3962 C3968 0.950 . S
H3963 C3969 0.950 . S
H3964 C3970 0.949 . S
C3965 H3960 0.950 . S
C3965 C3967 1.327 . S
C3965 C3971 1.429 . S
C3966 C3958 1.574 1_556 S
C3966 H3961 0.949 . S
C3966 C3972 1.368 . S
C3967 C3951 1.349 . S
C3967 H3959 0.950 . S
C3967 C3965 1.327 . S
C3968 C3956 1.349 . S
C3968 H3962 0.950 . S
C3968 C3969 1.327 . S
C3969 H3963 0.950 . S
C3969 C3968 1.327 . S
C3969 C3973 1.429 . S
C3970 C3953 1.574 1_554 S
C3970 H3964 0.949 . S
C3970 C3974 1.368 . S
C3971 C3952 1.429 . S
C3971 C3965 1.429 . S
C3971 C3972 1.523 . S
C3972 C3953 1.368 . S
C3972 C3966 1.368 . S
C3972 C3971 1.523 . S
C3973 C3957 1.429 . S
C3973 C3969 1.429 . S
C3973 C3974 1.523 . S
C3974 C3958 1.368 . S
C3974 C3970 1.368 . S
C3974 C3973 1.523 . S
H3975 C3950 0.950 . S
H3976 C3952 0.950 . S
H3977 C3953 0.949 . S
H3978 C3955 0.950 . S
H3979 C3957 0.950 . S
C3980 C3981 1.349 . S
C3980 C3982 1.327 . S
C3980 H4005 0.950 . S
C3981 C3980 1.349 . S
C3981 C3997 1.349 . S
C3982 C3980 1.327 . S
C3982 C4001 1.429 . S
C3982 H4006 0.950 . S
C3983 C4000 1.574 . S
C3983 C4002 1.368 . S
C3983 H4007 0.949 . S
H3984 C3988 0.949 . S
C3985 C3986 1.349 . S
C3985 C3987 1.327 . S
C3985 H4008 0.950 . S
C3986 C3985 1.349 . S
C3986 C3998 1.349 . S
C3987 C3985 1.327 . S
C3987 C4003 1.429 . S
C3987 H4009 0.950 . S
C3988 H3984 0.949 . S
C3988 C3996 1.574 . S
C3988 C4004 1.368 . S
H3989 C3997 0.950 . S
H3990 C3995 0.950 . S
H3991 C3996 0.949 . S
H3992 C3998 0.950 . S
H3993 C3999 0.950 . S
H3994 C4000 0.949 . S
C3995 H3990 0.950 . S
C3995 C3997 1.327 . S
C3995 C4001 1.429 . S
C3996 C3988 1.574 . S
C3996 H3991 0.949 . S
C3996 C4002 1.368 . S
C3997 C3981 1.349 . S
C3997 H3989 0.950 . S
C3997 C3995 1.327 . S
C3998 C3986 1.349 . S
C3998 H3992 0.950 . S
C3998 C3999 1.327 . S
C3999 H3993 0.950 . S
C3999 C3998 1.327 . S
C3999 C4003 1.429 . S
C4000 C3983 1.574 . S
C4000 H3994 0.949 . S
C4000 C4004 1.368 . S
C4001 C3982 1.429 . S
C4001 C3995 1.429 . S
C4001 C4002 1.523 . S
C4002 C3983 1.368 . S
C4002 C3996 1.368 . S
C4002 C4001 1.523 . S
C4003 C3987 1.429 . S
C4003 C3999 1.429 . S
C4003 C4004 1.523 . S
C4004 C3988 1.368 . S
C4004 C4000 1.368 . S
C4004 C4003 1.523 . S
H4005 C3980 0.950 . S
H4006 C3982 0.950 . S
H4007 C3983 0.949 . S
H4008 C3985 0.950 . S
H4009 C3987 0.950 . S
C4010 C4011 1.349 . S
C4010 C4012 1.327 . S
C4010 H4035 0.950 . S
C4011 C4010 1.349 . S
C4011 C4027 1.349 . S
C4012 C4010 1.327 . S
C4012 C4031 1.429 . S
C4012 H4036 0.950 . S
C4013 C4030 1.574 . S
C4013 C4032 1.368 . S
C4013 H4037 0.949 . S
H4014 C4018 0.949 . S
C4015 C4016 1.349 . S
C4015 C4017 1.327 . S
C4015 H4038 0.950 . S
C4016 C4015 1.349 . S
C4016 C4028 1.349 . S
C4017 C4015 1.327 . S
C4017 C4033 1.429 . S
C4017 H4039 0.950 . S
C4018 H4014 0.949 . S
C4018 C4026 1.574 . S
C4018 C4034 1.368 . S
H4019 C4027 0.950 . S
H4020 C4025 0.950 . S
H4021 C4026 0.949 . S
H4022 C4028 0.950 . S
H4023 C4029 0.950 . S
H4024 C4030 0.949 . S
C4025 H4020 0.950 . S
C4025 C4027 1.327 . S
C4025 C4031 1.429 . S
C4026 C4018 1.574 . S
C4026 H4021 0.949 . S
C4026 C4032 1.368 . S
C4027 C4011 1.349 . S
C4027 H4019 0.950 . S
C4027 C4025 1.327 . S
C4028 C4016 1.349 . S
C4028 H4022 0.950 . S
C4028 C4029 1.327 . S
C4029 H4023 0.950 . S
C4029 C4028 1.327 . S
C4029 C4033 1.429 . S
C4030 C4013 1.574 . S
C4030 H4024 0.949 . S
C4030 C4034 1.368 . S
C4031 C4012 1.429 . S
C4031 C4025 1.429 . S
C4031 C4032 1.523 . S
C4032 C4013 1.368 . S
C4032 C4026 1.368 . S
C4032 C4031 1.523 . S
C4033 C4017 1.429 . S
C4033 C4029 1.429 . S
C4033 C4034 1.523 . S
C4034 C4018 1.368 . S
C4034 C4030 1.368 . S
C4034 C4033 1.523 . S
H4035 C4010 0.950 . S
H4036 C4012 0.950 . S
H4037 C4013 0.949 . S
H4038 C4015 0.950 . S
H4039 C4017 0.950 . S
C4040 C4041 1.349 . S
C4040 C4042 1.327 . S
C4040 H4065 0.950 . S
C4041 C4040 1.349 . S
C4041 C4057 1.349 . S
C4042 C4040 1.327 . S
C4042 C4061 1.429 . S
C4042 H4066 0.950 . S
C4043 C4060 1.574 . S
C4043 C4062 1.368 . S
C4043 H4067 0.949 . S
H4044 C4048 0.949 . S
C4045 C4046 1.349 . S
C4045 C4047 1.327 . S
C4045 H4068 0.950 . S
C4046 C4045 1.349 . S
C4046 C4058 1.349 . S
C4047 C4045 1.327 . S
C4047 C4063 1.429 . S
C4047 H4069 0.950 . S
C4048 H4044 0.949 . S
C4048 C4056 1.574 . S
C4048 C4064 1.368 . S
H4049 C4057 0.950 . S
H4050 C4055 0.950 . S
H4051 C4056 0.949 . S
H4052 C4058 0.950 . S
H4053 C4059 0.950 . S
H4054 C4060 0.949 . S
C4055 H4050 0.950 . S
C4055 C4057 1.327 . S
C4055 C4061 1.429 . S
C4056 C4048 1.574 . S
C4056 H4051 0.949 . S
C4056 C4062 1.368 . S
C4057 C4041 1.349 . S
C4057 H4049 0.950 . S
C4057 C4055 1.327 . S
C4058 C4046 1.349 . S
C4058 H4052 0.950 . S
C4058 C4059 1.327 . S
C4059 H4053 0.950 . S
C4059 C4058 1.327 . S
C4059 C4063 1.429 . S
C4060 C4043 1.574 . S
C4060 H4054 0.949 . S
C4060 C4064 1.368 . S
C4061 C4042 1.429 . S
C4061 C4055 1.429 . S
C4061 C4062 1.523 . S
C4062 C4043 1.368 . S
C4062 C4056 1.368 . S
C4062 C4061 1.523 . S
C4063 C4047 1.429 . S
C4063 C4059 1.429 . S
C4063 C4064 1.523 . S
C4064 C4048 1.368 . S
C4064 C4060 1.368 . S
C4064 C4063 1.523 . S
H4065 C4040 0.950 . S
H4066 C4042 0.950 . S
H4067 C4043 0.949 . S
H4068 C4045 0.950 . S
H4069 C4047 0.950 . S
C4070 C4071 1.349 . S
C4070 C4072 1.327 . S
C4070 H4095 0.950 . S
C4071 C4070 1.349 . S
C4071 C4087 1.349 . S
C4072 C4070 1.327 . S
C4072 C4091 1.429 . S
C4072 H4096 0.950 . S
C4073 C4090 1.574 1_556 S
C4073 C4092 1.368 . S
C4073 H4097 0.949 . S
H4074 C4078 0.949 . S
C4075 C4076 1.349 . S
C4075 C4077 1.327 . S
C4075 H4098 0.950 . S
C4076 C4075 1.349 . S
C4076 C4088 1.349 . S
C4077 C4075 1.327 . S
C4077 C4093 1.429 . S
C4077 H4099 0.950 . S
C4078 H4074 0.949 . S
C4078 C4086 1.574 1_554 S
C4078 C4094 1.368 . S
H4079 C4087 0.950 . S
H4080 C4085 0.950 . S
H4081 C4086 0.949 . S
H4082 C4088 0.950 . S
H4083 C4089 0.950 . S
H4084 C4090 0.949 . S
C4085 H4080 0.950 . S
C4085 C4087 1.327 . S
C4085 C4091 1.429 . S
C4086 C4078 1.574 1_556 S
C4086 H4081 0.949 . S
C4086 C4092 1.368 . S
C4087 C4071 1.349 . S
C4087 H4079 0.950 . S
C4087 C4085 1.327 . S
C4088 C4076 1.349 . S
C4088 H4082 0.950 . S
C4088 C4089 1.327 . S
C4089 H4083 0.950 . S
C4089 C4088 1.327 . S
C4089 C4093 1.429 . S
C4090 C4073 1.574 1_554 S
C4090 H4084 0.949 . S
C4090 C4094 1.368 . S
C4091 C4072 1.429 . S
C4091 C4085 1.429 . S
C4091 C4092 1.523 . S
C4092 C4073 1.368 . S
C4092 C4086 1.368 . S
C4092 C4091 1.523 . S
C4093 C4077 1.429 . S
C4093 C4089 1.429 . S
C4093 C4094 1.523 . S
C4094 C4078 1.368 . S
C4094 C4090 1.368 . S
C4094 C4093 1.523 . S
H4095 C4070 0.950 . S
H4096 C4072 0.950 . S
H4097 C4073 0.949 . S
H4098 C4075 0.950 . S
H4099 C4077 0.950 . S
C4100 C4101 1.349 . S
C4100 C4102 1.327 . S
C4100 H4125 0.950 . S
C4101 C4100 1.349 . S
C4101 C4117 1.349 . S
C4102 C4100 1.327 . S
C4102 C4121 1.429 . S
C4102 H4126 0.950 . S
C4103 C4120 1.574 . S
C4103 C4122 1.368 . S
C4103 H4127 0.949 . S
H4104 C4108 0.949 . S
C4105 C4106 1.349 . S
C4105 C4107 1.327 . S
C4105 H4128 0.950 . S
C4106 C4105 1.349 . S
C4106 C4118 1.349 . S
C4107 C4105 1.327 . S
C4107 C4123 1.429 . S
C4107 H4129 0.950 . S
C4108 H4104 0.949 . S
C4108 C4116 1.574 . S
C4108 C4124 1.368 . S
H4109 C4117 0.950 . S
H4110 C4115 0.950 . S
H4111 C4116 0.949 . S
H4112 C4118 0.950 . S
H4113 C4119 0.950 . S
H4114 C4120 0.949 . S
C4115 H4110 0.950 . S
C4115 C4117 1.327 . S
C4115 C4121 1.429 . S
C4116 C4108 1.574 . S
C4116 H4111 0.949 . S
C4116 C4122 1.368 . S
C4117 C4101 1.349 . S
C4117 H4109 0.950 . S
C4117 C4115 1.327 . S
C4118 C4106 1.349 . S
C4118 H4112 0.950 . S
C4118 C4119 1.327 . S
C4119 H4113 0.950 . S
C4119 C4118 1.327 . S
C4119 C4123 1.429 . S
C4120 C4103 1.574 . S
C4120 H4114 0.949 . S
C4120 C4124 1.368 . S
C4121 C4102 1.429 . S
C4121 C4115 1.429 . S
C4121 C4122 1.523 . S
C4122 C4103 1.368 . S
C4122 C4116 1.368 . S
C4122 C4121 1.523 . S
C4123 C4107 1.429 . S
C4123 C4119 1.429 . S
C4123 C4124 1.523 . S
C4124 C4108 1.368 . S
C4124 C4120 1.368 . S
C4124 C4123 1.523 . S
H4125 C4100 0.950 . S
H4126 C4102 0.950 . S
H4127 C4103 0.949 . S
H4128 C4105 0.950 . S
H4129 C4107 0.950 . S
C4130 C4131 1.349 . S
C4130 C4132 1.327 . S
C4130 H4155 0.950 . S
C4131 C4130 1.349 . S
C4131 C4147 1.349 . S
C4132 C4130 1.327 . S
C4132 C4151 1.429 . S
C4132 H4156 0.950 . S
C4133 C4150 1.574 . S
C4133 C4152 1.368 . S
C4133 H4157 0.949 . S
H4134 C4138 0.949 . S
C4135 C4136 1.349 . S
C4135 C4137 1.327 . S
C4135 H4158 0.950 . S
C4136 C4135 1.349 . S
C4136 C4148 1.349 . S
C4137 C4135 1.327 . S
C4137 C4153 1.429 . S
C4137 H4159 0.950 . S
C4138 H4134 0.949 . S
C4138 C4146 1.574 . S
C4138 C4154 1.368 . S
H4139 C4147 0.950 . S
H4140 C4145 0.950 . S
H4141 C4146 0.949 . S
H4142 C4148 0.950 . S
H4143 C4149 0.950 . S
H4144 C4150 0.949 . S
C4145 H4140 0.950 . S
C4145 C4147 1.327 . S
C4145 C4151 1.429 . S
C4146 C4138 1.574 . S
C4146 H4141 0.949 . S
C4146 C4152 1.368 . S
C4147 C4131 1.349 . S
C4147 H4139 0.950 . S
C4147 C4145 1.327 . S
C4148 C4136 1.349 . S
C4148 H4142 0.950 . S
C4148 C4149 1.327 . S
C4149 H4143 0.950 . S
C4149 C4148 1.327 . S
C4149 C4153 1.429 . S
C4150 C4133 1.574 . S
C4150 H4144 0.949 . S
C4150 C4154 1.368 . S
C4151 C4132 1.429 . S
C4151 C4145 1.429 . S
C4151 C4152 1.523 . S
C4152 C4133 1.368 . S
C4152 C4146 1.368 . S
C4152 C4151 1.523 . S
C4153 C4137 1.429 . S
C4153 C4149 1.429 . S
C4153 C4154 1.523 . S
C4154 C4138 1.368 . S
C4154 C4150 1.368 . S
C4154 C4153 1.523 . S
H4155 C4130 0.950 . S
H4156 C4132 0.950 . S
H4157 C4133 0.949 . S
H4158 C4135 0.950 . S
H4159 C4137 0.950 . S
C1281 C10 0.824 . S
C1286 C1095 0.737 . S
C1311 C50 0.823 . S
C1316 C335 0.736 . S
C1341 C90 0.824 . S
C1346 C1015 0.737 . S
C1371 C415 0.736 . S
C1376 C130 0.823 . S
C1401 C170 0.824 . S
C1406 C1175 0.737 . S
C1431 C575 0.736 . S
C1436 C210 0.823 . S
C1461 C1255 0.737 . S
C1466 C250 0.824 . S
C1491 C290 0.823 . S
C1496 C495 0.736 . S
C1521 C339 0.824 . S
C1526 C766 0.737 . S
C1551 C379 0.823 . S
C1556 C6 0.736 . S
C1581 C686 0.737 . S
C1586 C419 0.824 . S
C1611 C86 0.736 . S
C1616 C459 0.823 . S
C1641 C499 0.824 . S
C1646 C846 0.737 . S
C1671 C539 0.823 . S
C1676 C246 0.736 . S
C1701 C579 0.824 . S
C1706 C926 0.737 . S
C1731 C166 0.736 . S
C1736 C619 0.823 . S
C1761 C455 0.737 . S
C1766 C650 0.824 . S
C1791 C975 0.737 . S
C1796 C690 0.824 . S
C1821 C375 0.737 . S
C1826 C730 0.824 . S
C1851 C770 0.823 . S
C1856 C1055 0.736 . S
C1881 C535 0.737 . S
C1886 C810 0.824 . S
C1911 C1215 0.736 . S
C1916 C850 0.823 . S
C1941 C615 0.737 . S
C1946 C890 0.824 . S
C1971 C930 0.824 . S
C1976 C1135 0.737 . S
C2001 C979 0.824 . S
C2006 C126 0.737 . S
C2031 C1019 0.824 . S
C2036 C646 0.737 . S
C2061 C1059 0.824 . S
C2066 C46 0.737 . S
C2091 C1099 0.823 . S
C2096 C726 0.736 . S
C2121 C206 0.737 . S
C2126 C1139 0.824 . S
C2151 C886 0.736 . S
C2156 C1179 0.823 . S
C2181 C1219 0.824 . S
C2186 C286 0.737 . S
C2211 C1259 0.824 . S
C2216 C806 0.737 . S
C2241 C18 1.325 . S
C2246 C738 1.325 . S
C2271 C778 1.324 . S
C2276 C58 1.324 . S
C2301 C98 1.325 . S
C2306 C658 1.325 . S
C2331 C138 1.324 . S
C2336 C698 1.324 . S
C2361 C898 1.325 . S
C2366 C178 1.325 . S
C2391 C218 1.324 . S
C2396 C938 1.324 . S
C2421 C818 1.325 . S
C2426 C258 1.325 . S
C2451 C298 1.324 . S
C2456 C858 1.324 . S
C2481 C1049 1.325 . S
C2486 C329 1.325 . S
C2511 C369 1.324 . S
C2516 C1089 1.324 . S
C2541 C409 1.325 . S
C2546 C969 1.325 . S
C2571 C449 1.324 . S
C2576 C1009 1.324 . S
C2601 C1209 1.325 . S
C2606 C489 1.325 . S
C2631 C1249 1.324 . S
C2636 C529 1.324 . S
C2661 C569 1.325 . S
C2666 C1129 1.325 . S
C2691 C609 1.324 . S
C2696 C1169 1.324 . S
C2721 C15 1.451 . S
C2726 C966 1.451 . S
C2751 C366 1.451 . S
C2756 C55 1.451 . S
C2781 C95 1.451 . S
C2786 C1046 1.451 . S
C2811 C135 1.451 . S
C2816 C446 1.451 . S
C2841 C1126 1.451 . S
C2846 C175 1.451 . S
C2871 C526 1.451 . S
C2876 C215 1.451 . S
C2901 C255 1.451 . S
C2906 C1206 1.451 . S
C2931 C295 1.451 . S
C2936 C606 1.451 . S
C2961 C655 1.451 . S
C2966 C326 1.451 . S
C2991 C735 1.451 . S
C2996 C406 1.451 . S
C3021 C815 1.451 . S
C3026 C486 1.451 . S
C3051 C566 1.451 . S
C3056 C895 1.451 . S
C3081 C695 1.451 . S
C3086 C1006 1.451 . S
C3111 C775 1.451 . S
C3116 C1086 1.451 . S
C3141 C1166 1.451 . S
C3146 C855 1.451 . S
C3171 C1246 1.451 . S
C3176 C935 1.451 . S
C3201 C9 4.552 . S
C3206 C209 4.552 . S
C3231 C249 4.553 . S
C3236 C49 4.552 . S
C3261 C289 4.552 . S
C3266 C89 4.552 . S
C3291 C169 4.552 . S
C3296 C129 4.552 . S
C3321 C338 4.552 . S
C3326 C538 4.552 . S
C3351 C378 4.552 . S
C3356 C578 4.552 . S
C3381 C618 4.552 . S
C3386 C418 4.552 . S
C3411 C458 4.552 . S
C3416 C498 4.552 . S
C3441 C649 4.552 . S
C3446 C849 4.552 . S
C3471 C689 4.552 . S
C3476 C889 4.552 . S
C3501 C729 4.552 . S
C3506 C929 4.552 . S
C3531 C809 4.552 . S
C3536 C769 4.552 . S
C3561 C978 4.552 . S
C3566 C1178 4.552 . S
C3591 C1018 4.552 . S
C3596 C1218 4.552 . S
C3621 C1258 4.552 . S
C3626 C1058 4.552 . S
C3651 C1098 4.552 . S
C3656 C1138 4.552 . S
C3681 C19 4.101 . S
C3686 C179 4.101 . S
C3711 C59 4.101 . S
C3716 C219 4.101 . S
C3741 C259 4.100 . S
C3746 C99 4.100 . S
C3771 C299 4.101 . S
C3776 C139 4.101 . S
C3801 C330 4.101 . S
C3806 C490 4.101 . S
C3831 C530 4.101 . S
C3836 C370 4.101 . S
C3861 C570 4.101 . S
C3866 C410 4.101 . S
C3891 C610 4.101 . S
C3896 C450 4.101 . S
C3921 C659 4.101 . S
C3926 C819 4.101 . S
C3951 C859 4.102 . S
C3956 C699 4.102 . S
C3981 C739 4.101 . S
C3986 C899 4.101 . S
C4011 C939 4.102 . S
C4016 C779 4.102 . S
C4041 C1130 4.101 . S
C4046 C970 4.101 . S
C4071 C1010 4.102 . S
C4076 C1170 4.102 . S
C4101 C1050 4.101 . S
C4106 C1210 4.101 . S
C4131 C1090 4.102 . S
C4136 C1250 4.102 . S
