# Generated by pormake.
# Topology vmh, (6)-cn, num edge types: 1
# Building blocks:
#     Node 0, Type 0, BuildingBlock: IZENUY_clean_sbu_0, # of connection points: 6
#     Node 1, Type 0, BuildingBlock: IZENUY_clean_sbu_0, # of connection points: 6
#     Node 2, Type 0, BuildingBlock: IZENUY_clean_sbu_0, # of connection points: 6
#     Node 3, Type 0, BuildingBlock: IZENUY_clean_sbu_0, # of connection points: 6
#     Node 4, Type 0, BuildingBlock: IZENUY_clean_sbu_0, # of connection points: 6
#     Node 5, Type 0, BuildingBlock: IZENUY_clean_sbu_0, # of connection points: 6
#     Node 6, Type 0, BuildingBlock: IZENUY_clean_sbu_0, # of connection points: 6
#     Node 7, Type 0, BuildingBlock: IZENUY_clean_sbu_0, # of connection points: 6
#     Edge 8, Type (0, 0), BuildingBlock: XUDNAN_clean_linker_2, # of connection points: 2
#     Edge 9, Type (0, 0), BuildingBlock: XUDNAN_clean_linker_2, # of connection points: 2
#     Edge 10, Type (0, 0), BuildingBlock: XUDNAN_clean_linker_2, # of connection points: 2
#     Edge 11, Type (0, 0), BuildingBlock: XUDNAN_clean_linker_2, # of connection points: 2
#     Edge 12, Type (0, 0), BuildingBlock: XUDNAN_clean_linker_2, # of connection points: 2
#     Edge 13, Type (0, 0), BuildingBlock: XUDNAN_clean_linker_2, # of connection points: 2
#     Edge 14, Type (0, 0), BuildingBlock: XUDNAN_clean_linker_2, # of connection points: 2
#     Edge 15, Type (0, 0), BuildingBlock: XUDNAN_clean_linker_2, # of connection points: 2
#     Edge 16, Type (0, 0), BuildingBlock: XUDNAN_clean_linker_2, # of connection points: 2
#     Edge 17, Type (0, 0), BuildingBlock: XUDNAN_clean_linker_2, # of connection points: 2
#     Edge 18, Type (0, 0), BuildingBlock: XUDNAN_clean_linker_2, # of connection points: 2
#     Edge 19, Type (0, 0), BuildingBlock: XUDNAN_clean_linker_2, # of connection points: 2
#     Edge 20, Type (0, 0), BuildingBlock: XUDNAN_clean_linker_2, # of connection points: 2
#     Edge 21, Type (0, 0), BuildingBlock: XUDNAN_clean_linker_2, # of connection points: 2
#     Edge 22, Type (0, 0), BuildingBlock: XUDNAN_clean_linker_2, # of connection points: 2
#     Edge 23, Type (0, 0), BuildingBlock: XUDNAN_clean_linker_2, # of connection points: 2
#     Edge 24, Type (0, 0), BuildingBlock: XUDNAN_clean_linker_2, # of connection points: 2
#     Edge 25, Type (0, 0), BuildingBlock: XUDNAN_clean_linker_2, # of connection points: 2
#     Edge 26, Type (0, 0), BuildingBlock: XUDNAN_clean_linker_2, # of connection points: 2
#     Edge 27, Type (0, 0), BuildingBlock: XUDNAN_clean_linker_2, # of connection points: 2
#     Edge 28, Type (0, 0), BuildingBlock: XUDNAN_clean_linker_2, # of connection points: 2
#     Edge 29, Type (0, 0), BuildingBlock: XUDNAN_clean_linker_2, # of connection points: 2
#     Edge 30, Type (0, 0), BuildingBlock: XUDNAN_clean_linker_2, # of connection points: 2
#     Edge 31, Type (0, 0), BuildingBlock: XUDNAN_clean_linker_2, # of connection points: 2
# Relax obj value: 0.247
# Max RMSD: 0.263
# Mean RMSD: 0.263
data_MOF--net-vmh--node1-IZENUY_clean_sbu_0--edge1-XUDNAN_clean_linker_2
_symmetry_space_group_name_H-M    P1
_symmetry_Int_Tables_number       1
_symmetry_cell_setting            triclinic
loop_
_symmetry_equiv_pos_as_xyz
'x, y, z'
_cell_length_a     27.813989
_cell_length_b     42.411694
_cell_length_c     28.72516
_cell_angle_alpha  89.904927
_cell_angle_beta   105.44595
_cell_angle_gamma 89.925177
loop_
_atom_site_label
_atom_site_type_symbol
_atom_site_fract_x
_atom_site_fract_y
_atom_site_fract_z
_atom_type_partial_charge
Fe0 Fe 0.26684 0.1129 0.11237 0.0
Fe1 Fe 0.27349 0.05298 0.05306 0.0
O2 O 0.29125 0.0924 0.06981 0.0
Fe3 Fe 0.33491 0.11132 0.0442 0.0
O4 O 0.3789 0.11437 0.10244 0.0
O5 O 0.32649 0.13407 0.14029 0.0
O6 O 0.28892 0.08316 0.15797 0.0
C7 C 0.28008 0.05408 0.15355 0.0
C8 C 0.26935 0.16072 0.04916 0.0
O9 O 0.26637 0.04124 0.1124 0.0
C10 C 0.27832 0.08224 0.9647 0.0
O11 O 0.2042 0.09386 0.0929 0.0
O12 O 0.2082 0.06352 0.03185 0.0
O13 O 0.31178 0.15097 0.04818 0.0
O14 O 0.24254 0.145 0.06989 0.0
C15 C 0.37272 0.04997 0.05792 0.0
O16 O 0.27737 0.05804 0.99059 0.0
O17 O 0.2932 0.10847 0.984 0.0
C18 C 0.18306 0.07616 0.05742 0.0
O19 O 0.33769 0.03888 0.07315 0.0
O20 O 0.36745 0.07575 0.03553 0.0
C21 C 0.37091 0.12708 0.13921 0.0
Fe22 Fe 0.79374 0.11237 0.40978 0.0
Fe23 Fe 0.78315 0.05208 0.46435 0.0
O24 O 0.76928 0.0927 0.45285 0.0
Fe25 Fe 0.72976 0.11322 0.48216 0.0
O26 O 0.69906 0.1369 0.42913 0.0
O27 O 0.73023 0.11931 0.37119 0.0
O28 O 0.79665 0.07757 0.3738 0.0
C29 C 0.76764 0.0543 0.36613 0.0
C30 C 0.79256 0.16146 0.47754 0.0
O31 O 0.75431 0.0419 0.40072 0.0
C32 C 0.78932 0.07351 0.55597 0.0
O33 O 0.85831 0.10537 0.44614 0.0
O34 O 0.84546 0.05471 0.45535 0.0
O35 O 0.77574 0.14398 0.50506 0.0
O36 O 0.79505 0.15133 0.43691 0.0
C37 C 0.68369 0.0559 0.4713 0.0
O38 O 0.81125 0.05951 0.52839 0.0
O39 O 0.75338 0.09236 0.53952 0.0
C40 C 0.87493 0.07782 0.45926 0.0
O41 O 0.72487 0.04212 0.47711 0.0
O42 O 0.67949 0.08498 0.4623 0.0
C43 C 0.69472 0.1318 0.38478 0.0
Fe44 Fe 0.75354 0.99145 0.95426 0.0
Fe45 Fe 0.78847 0.92858 0.92041 0.0
O46 O 0.74942 0.94978 0.94909 0.0
Fe47 Fe 0.70475 0.92916 0.9706 0.0
O48 O 0.65541 0.95158 0.93187 0.0
O49 O 0.68647 0.99827 0.95064 0.0
O50 O 0.74062 0.99661 0.88858 0.0
C51 C 0.76913 0.98495 0.86521 0.0
C52 C 0.74051 0.9759 0.04255 0.0
O53 O 0.7956 0.96103 0.88113 0.0
C54 C 0.77832 0.88605 0.99459 0.0
O55 O 0.82136 0.99189 0.96187 0.0
O56 O 0.84471 0.94165 0.96638 0.0
O57 O 0.70893 0.95519 0.0228 0.0
O58 O 0.76743 0.98937 0.01942 0.0
C59 C 0.69525 0.90349 0.87926 0.0
O60 O 0.78828 0.89134 0.95461 0.0
O61 O 0.75199 0.90529 1.01019 0.0
C62 C 0.85463 0.97076 0.97545 0.0
O63 O 0.73389 0.91622 0.87218 0.0
O64 O 0.69189 0.89973 0.92201 0.0
C65 C 0.64891 0.98021 0.93838 0.0
Fe66 Fe 0.27191 0.93196 0.61305 0.0
Fe67 Fe 0.34141 0.92713 0.5475 0.0
O68 O 0.30452 0.95044 0.5752 0.0
Fe69 Fe 0.30108 0.99165 0.56594 0.0
O70 O 0.32415 0.99933 0.63006 0.0
O71 O 0.27364 0.96633 0.65214 0.0
O72 O 0.33217 0.91962 0.65486 0.0
C73 C 0.36522 0.90435 0.64101 0.0
C74 C 0.202 0.97375 0.56 0.0
O75 O 0.35773 0.89841 0.59667 0.0
C76 C 0.29828 0.97111 0.47503 0.0
O77 O 0.2641 0.89343 0.58062 0.0
O78 O 0.28734 0.90513 0.51579 0.0
O79 O 0.23629 0.99424 0.56821 0.0
O80 O 0.21131 0.94505 0.57293 0.0
C81 C 0.4026 0.9775 0.57524 0.0
O82 O 0.332 0.95142 0.49345 0.0
O83 O 0.27757 0.98727 0.50098 0.0
C84 C 0.26495 0.88699 0.53758 0.0
O85 O 0.39718 0.94815 0.57773 0.0
O86 O 0.3653 0.99565 0.56176 0.0
C87 C 0.30253 0.98989 0.66086 0.0
Fe88 Fe 0.75427 0.60557 0.12148 0.0
Fe89 Fe 0.77535 0.55138 0.05903 0.0
O90 O 0.78583 0.59075 0.08014 0.0
Fe91 Fe 0.82954 0.61491 0.06225 0.0
O92 O 0.85175 0.63484 0.12118 0.0
O93 O 0.81314 0.60948 0.16723 0.0
O94 O 0.74765 0.56745 0.14857 0.0
C95 C 0.77378 0.54276 0.15271 0.0
C96 C 0.76222 0.66016 0.06528 0.0
O97 O 0.7952 0.53535 0.12056 0.0
C98 C 0.78067 0.58126 0.97608 0.0
O99 O 0.69379 0.60065 0.0778 0.0
O100 O 0.70954 0.55172 0.0596 0.0
O101 O 0.78355 0.64519 0.03866 0.0
O102 O 0.75548 0.64715 0.10281 0.0
C103 C 0.879 0.55965 0.0675 0.0
O104 O 0.75502 0.5643 0.99661 0.0
O105 O 0.81529 0.59879 1.00048 0.0
C106 C 0.67883 0.57389 0.05982 0.0
O107 O 0.83871 0.54452 0.05266 0.0
O108 O 0.87867 0.58671 0.08498 0.0
C109 C 0.85074 0.6243 0.1622 0.0
Fe110 Fe 0.2848 0.60865 0.41061 0.0
Fe111 Fe 0.25331 0.5543 0.46594 0.0
O112 O 0.25107 0.5947 0.4509 0.0
Fe113 Fe 0.21386 0.62126 0.474 0.0
O114 O 0.19592 0.6448 0.41776 0.0
O115 O 0.22628 0.61828 0.36689 0.0
O116 O 0.28301 0.57159 0.37799 0.0
C117 C 0.25129 0.54965 0.37073 0.0
C118 C 0.28855 0.66124 0.47393 0.0
O119 O 0.2295 0.54266 0.40274 0.0
C120 C 0.25458 0.57967 0.5535 0.0
O121 O 0.34457 0.59754 0.45231 0.0
O122 O 0.318 0.54974 0.46372 0.0
O123 O 0.26702 0.64621 0.50039 0.0
O124 O 0.29193 0.64908 0.43462 0.0
C125 C 0.15217 0.57032 0.45778 0.0
O126 O 0.27713 0.56309 0.52952 0.0
O127 O 0.22434 0.60112 0.53309 0.0
C128 C 0.35332 0.56904 0.46586 0.0
O129 O 0.18911 0.55196 0.47149 0.0
O130 O 0.15819 0.59887 0.44935 0.0
C131 C 0.19141 0.6344 0.37542 0.0
Fe132 Fe 0.25109 0.49281 0.96584 0.0
Fe133 Fe 0.28583 0.43725 0.91545 0.0
O134 O 0.24698 0.45244 0.95034 0.0
Fe135 Fe 0.2033 0.42732 0.96735 0.0
O136 O 0.15025 0.45206 0.93905 0.0
O137 O 0.18559 0.49762 0.96302 0.0
O138 O 0.23534 0.50465 0.90218 0.0
C139 C 0.26021 0.49651 0.87332 0.0
C140 C 0.2405 0.46603 0.05005 0.0
O141 O 0.29159 0.47439 0.88456 0.0
C142 C 0.27708 0.38468 0.975 0.0
O143 O 0.31801 0.49474 0.97222 0.0
O144 O 0.34255 0.44601 0.96332 0.0
O145 O 0.20982 0.44623 0.02583 0.0
O146 O 0.26582 0.48377 0.0301 0.0
C147 C 0.19243 0.41459 0.87015 0.0
O148 O 0.28668 0.39666 0.9381 0.0
O149 O 0.25209 0.40014 0.99772 0.0
C150 C 0.3515 0.47362 0.98071 0.0
O151 O 0.23059 0.42948 0.86657 0.0
O152 O 0.1897 0.4046 0.91088 0.0
C153 C 0.14725 0.48125 0.94563 0.0
Fe154 Fe 0.75739 0.43413 0.61501 0.0
Fe155 Fe 0.83248 0.43828 0.55381 0.0
O156 O 0.78516 0.45561 0.57591 0.0
Fe157 Fe 0.76635 0.49468 0.55962 0.0
O158 O 0.78631 0.50717 0.62213 0.0
O159 O 0.74759 0.46917 0.64981 0.0
O160 O 0.81746 0.43059 0.65897 0.0
C161 C 0.85665 0.41994 0.65071 0.0
C162 C 0.67593 0.46466 0.55968 0.0
O163 O 0.85831 0.41426 0.60803 0.0
C164 C 0.77448 0.47224 0.47312 0.0
O165 O 0.76361 0.39487 0.58784 0.0
O166 O 0.7909 0.40746 0.52527 0.0
O167 O 0.70264 0.48903 0.56322 0.0
O168 O 0.69509 0.43792 0.57313 0.0
C169 C 0.87039 0.49708 0.56878 0.0
O170 O 0.81492 0.45901 0.49548 0.0
O171 O 0.74562 0.48412 0.49583 0.0
C172 C 0.77109 0.38782 0.54728 0.0
O173 O 0.87729 0.4685 0.58068 0.0
O174 O 0.82662 0.5077 0.55298 0.0
C175 C 0.76984 0.49564 0.65544 0.0
H176 H 0.24647 0.02949 0.9113 0.0
H177 H 0.30554 0.12333 0.90195 0.0
H178 H 0.31692 0.11035 0.82174 0.0
H179 H 0.33034 0.9896 0.86323 0.0
H180 H 0.28657 0.96096 0.83026 0.0
H181 H 0.27682 0.97873 0.88385 0.0
H182 H 0.18891 0.99786 0.83604 0.0
H183 H 0.19782 0.97948 0.78245 0.0
H184 H 0.18212 0.02075 0.78172 0.0
H185 H 0.3312 0.08464 0.74695 0.0
H186 H 0.3374 0.05051 0.67906 0.0
H187 H 0.26899 0.97391 0.73877 0.0
C188 C 0.26062 0.04766 0.89195 0.0
C189 C 0.27518 0.07741 0.913 0.0
C190 C 0.29383 0.10042 0.88649 0.0
C191 C 0.30073 0.0932 0.84102 0.0
C192 C 0.28829 0.06305 0.82248 0.0
C193 C 0.26773 0.04088 0.84675 0.0
C194 C 0.2596 1.00974 0.82031 0.0
C195 C 0.29016 0.98321 0.85127 0.0
C196 C 0.2038 1.00149 0.80416 0.0
C197 C 0.27959 1.01764 0.7777 0.0
C198 C 0.29608 0.04844 0.77952 0.0
C199 C 0.31778 0.06061 0.74483 0.0
C200 C 0.32152 0.04096 0.70664 0.0
C201 C 0.30346 1.00958 0.70349 0.0
C202 C 0.2828 0.99784 0.73991 0.0
H203 H 0.7068 1.01892 0.78974 0.0
H204 H 0.86041 0.9895 0.85012 0.0
H205 H 0.88345 1.01191 0.78025 0.0
H206 H 0.70162 1.00087 0.66816 0.0
H207 H 0.66395 0.03438 0.6423 0.0
H208 H 0.65971 1.01835 0.69911 0.0
H209 H 0.68043 0.07338 0.73872 0.0
H210 H 0.68478 0.08934 0.6818 0.0
H211 H 0.73642 0.09337 0.73484 0.0
H212 H 0.88898 0.03168 0.70035 0.0
H213 H 0.87667 0.0517 0.61687 0.0
H214 H 0.72122 0.0706 0.60863 0.0
C215 C 0.74536 1.0179 0.78857 0.0
C216 C 0.78169 1.00235 0.82528 0.0
C217 C 0.83176 1.00102 0.82218 0.0
C218 C 0.84538 1.01377 0.78269 0.0
C219 C 0.80867 0.02803 0.74636 0.0
C220 C 0.75976 0.03052 0.74894 0.0
C221 C 0.72749 0.04591 0.70357 0.0
C222 C 0.68575 0.02353 0.67672 0.0
C223 C 0.70603 0.07737 0.71546 0.0
C224 C 0.76581 0.05107 0.67524 0.0
C225 C 0.81237 0.04052 0.70054 0.0
C226 C 0.85292 0.04066 0.68043 0.0
C227 C 0.84568 0.05196 0.63307 0.0
C228 C 0.79845 0.06332 0.60679 0.0
C229 C 0.75822 0.06297 0.62843 0.0
H230 H 0.75946 0.9942 0.32483 0.0
H231 H 0.73598 0.09381 0.29201 0.0
H232 H 0.71525 0.08264 0.2058 0.0
H233 H 0.82404 0.98042 0.24007 0.0
H234 H 0.79944 0.9419 0.22075 0.0
H235 H 0.80117 0.95557 0.28045 0.0
H236 H 0.70613 0.94629 0.26398 0.0
H237 H 0.70421 0.93209 0.20436 0.0
H238 H 0.66407 0.96405 0.21167 0.0
H239 H 0.71345 0.06416 0.1264 0.0
H240 H 0.72269 0.03716 0.05352 0.0
H241 H 0.74744 0.94837 0.13152 0.0
C242 C 0.74784 1.01329 0.29921 0.0
C243 C 0.74752 0.04482 0.3152 0.0
C244 C 0.73463 0.06944 0.28076 0.0
C245 C 0.72313 0.06337 0.23147 0.0
C246 C 0.72554 0.03246 0.21668 0.0
C247 C 0.73708 1.00762 0.24907 0.0
C248 C 0.74249 0.97724 0.22269 0.0
C249 C 0.7949 0.96296 0.24216 0.0
C250 C 0.70179 0.95351 0.22587 0.0
C251 C 0.73454 0.98946 0.17132 0.0
C252 C 0.72442 0.0214 0.16906 0.0
C253 C 0.72024 0.03901 0.12725 0.0
C254 C 0.72609 0.02359 0.08625 0.0
C255 C 0.7358 0.99088 0.08721 0.0
C256 C 0.73948 0.97341 0.13003 0.0
H257 H 0.28077 0.07646 0.24292 0.0
H258 H 0.28026 0.98973 0.16258 0.0
H259 H 0.27961 0.9589 0.23553 0.0
H260 H 0.36076 0.04992 0.35465 0.0
H261 H 0.32759 0.0708 0.3911 0.0
H262 H 0.3275 0.08574 0.33239 0.0
H263 H 0.23071 0.08557 0.3076 0.0
H264 H 0.23055 0.0703 0.36612 0.0
H265 H 0.19793 0.04956 0.31227 0.0
H266 H 0.2841 0.93783 0.31808 0.0
H267 H 0.29186 0.92779 0.4046 0.0
H268 H 0.28402 0.02825 0.42934 0.0
C269 C 0.28066 0.05098 0.24059 0.0
C270 C 0.2808 0.03545 0.19714 0.0
C271 C 0.28015 1.00208 0.19553 0.0
C272 C 0.2797 0.98441 0.23669 0.0
C273 C 0.27928 1.00051 0.27883 0.0
C274 C 0.27955 0.03304 0.28103 0.0
C275 C 0.27936 0.04463 0.33078 0.0
C276 C 0.32661 0.0639 0.35356 0.0
C277 C 0.2318 0.06363 0.32906 0.0
C278 C 0.27957 1.01349 0.35651 0.0
C279 C 0.27969 0.98834 0.32592 0.0
C280 C 0.28328 0.95728 0.3422 0.0
C281 C 0.28768 0.95182 0.39123 0.0
C282 C 0.28776 0.97727 0.42304 0.0
C283 C 0.28276 1.00842 0.40533 0.0
H284 H 0.73472 0.48026 0.73381 0.0
H285 H 0.81273 0.55375 0.67784 0.0
H286 H 0.81901 0.58508 0.75141 0.0
H287 H 0.66407 0.53203 0.79173 0.0
H288 H 0.66989 0.50642 0.84309 0.0
H289 H 0.66992 0.49003 0.78526 0.0
H290 H 0.7548 0.46278 0.82357 0.0
H291 H 0.75478 0.47889 0.8815 0.0
H292 H 0.80678 0.48617 0.85664 0.0
H293 H 0.82019 0.60757 0.83263 0.0
H294 H 0.81739 0.61897 0.91616 0.0
H295 H 0.73722 0.53152 0.91887 0.0
C296 C 0.75285 0.50302 0.73682 0.0
C297 C 0.773 0.51453 0.69972 0.0
C298 C 0.79677 0.54439 0.70548 0.0
C299 C 0.80048 0.56244 0.74718 0.0
C300 C 0.78016 0.55044 0.78292 0.0
C301 C 0.75685 0.52141 0.77822 0.0
C302 C 0.73953 0.51355 0.82268 0.0
C303 C 0.68246 0.51032 0.80991 0.0
C304 C 0.76553 0.48358 0.84756 0.0
C305 C 0.75699 0.54259 0.85317 0.0
C306 C 0.7803 0.5636 0.82954 0.0
C307 C 0.8016 0.59144 0.85132 0.0
C308 C 0.79976 0.59773 0.89878 0.0
C309 C 0.77663 0.57636 0.92401 0.0
C310 C 0.75432 0.54868 0.90037 0.0
H311 H 0.27477 0.60477 0.6467 0.0
H312 H 0.2197 0.52191 0.5606 0.0
H313 H 0.20703 0.49509 0.6321 0.0
H314 H 0.34415 0.56156 0.74983 0.0
H315 H 0.33153 0.5879 0.79435 0.0
H316 H 0.33179 0.60271 0.73563 0.0
H317 H 0.24229 0.62439 0.72396 0.0
H318 H 0.2417 0.60949 0.78264 0.0
H319 H 0.1934 0.5981 0.72996 0.0
H320 H 0.20458 0.47559 0.71003 0.0
H321 H 0.21821 0.46188 0.7949 0.0
H322 H 0.27587 0.55552 0.83711 0.0
C323 C 0.25954 0.58115 0.6432 0.0
C324 C 0.24806 0.56533 0.59821 0.0
C325 C 0.22881 0.53432 0.59476 0.0
C326 C 0.22109 0.51898 0.63507 0.0
C327 C 0.23296 0.53485 0.6789 0.0
C328 C 0.25223 0.56505 0.68378 0.0
C329 C 0.26554 0.57508 0.73663 0.0
C330 C 0.32158 0.58223 0.7552 0.0
C331 C 0.23383 0.60346 0.7437 0.0
C332 C 0.25155 0.54552 0.76029 0.0
C333 C 0.23217 0.52301 0.72568 0.0
C334 C 0.21901 0.49311 0.73753 0.0
C335 C 0.2268 0.48554 0.78616 0.0
C336 C 0.247 0.50774 0.82277 0.0
C337 C 0.25906 0.53839 0.80973 0.0
H338 H 0.29165 0.56144 0.29601 0.0
H339 H 0.19518 0.4956 0.34388 0.0
H340 H 0.18591 0.46488 0.26856 0.0
H341 H 0.22464 0.56243 0.17249 0.0
H342 H 0.27977 0.56557 0.1511 0.0
H343 H 0.27985 0.58116 0.20934 0.0
H344 H 0.35733 0.54702 0.24919 0.0
H345 H 0.3573 0.53113 0.19105 0.0
H346 H 0.35494 0.50496 0.2399 0.0
H347 H 0.18639 0.44236 0.18677 0.0
H348 H 0.19269 0.43112 0.10444 0.0
H349 H 0.28911 0.51246 0.11158 0.0
C350 C 0.26871 0.54046 0.29107 0.0
C351 C 0.24432 0.53081 0.32608 0.0
C352 C 0.2143 0.50338 0.31765 0.0
C353 C 0.20899 0.48578 0.27509 0.0
C354 C 0.23393 0.496 0.24154 0.0
C355 C 0.26302 0.5228 0.24911 0.0
C356 C 0.28464 0.52959 0.20706 0.0
C357 C 0.2661 0.56158 0.18362 0.0
C358 C 0.34195 0.52807 0.22276 0.0
C359 C 0.26291 0.5025 0.17414 0.0
C360 C 0.23402 0.48326 0.19474 0.0
C361 C 0.20904 0.45721 0.17045 0.0
C362 C 0.21294 0.45104 0.12363 0.0
C363 C 0.24144 0.47091 0.10138 0.0
C364 C 0.26734 0.49666 0.12753 0.0
H365 H 0.8458 0.52353 0.23303 0.0
H366 H 0.68901 0.51504 0.15878 0.0
H367 H 0.67269 0.49174 0.23183 0.0
H368 H 0.85372 0.44986 0.31078 0.0
H369 H 0.89592 0.46891 0.36153 0.0
H370 H 0.89673 0.47925 0.30084 0.0
H371 H 0.88339 0.53782 0.31947 0.0
H372 H 0.88141 0.52761 0.37973 0.0
H373 H 0.83006 0.54871 0.34043 0.0
H374 H 0.67038 0.47966 0.31624 0.0
H375 H 0.68487 0.47163 0.40443 0.0
H376 H 0.84344 0.48552 0.42401 0.0
C377 C 0.80867 0.51518 0.2316 0.0
C378 C 0.76881 0.52023 0.19011 0.0
C379 C 0.72012 0.51052 0.19 0.0
C380 C 0.71046 0.49751 0.2314 0.0
C381 C 0.74999 0.49421 0.27264 0.0
C382 C 0.79841 0.50202 0.27286 0.0
C383 C 0.83328 0.49849 0.32315 0.0
C384 C 0.87221 0.47257 0.32412 0.0
C385 C 0.85849 0.53003 0.34176 0.0
C386 C 0.7966 0.4886 0.35119 0.0
C387 C 0.74874 0.48635 0.32142 0.0
C388 C 0.70788 0.48047 0.33978 0.0
C389 C 0.71629 0.47622 0.38982 0.0
C390 C 0.7652 0.47748 0.42066 0.0
C391 C 0.80575 0.48369 0.40097 0.0
H392 H 0.46751 0.06929 0.06877 0.0
H393 H 0.37051 0.98791 0.03335 0.0
H394 H 0.43245 0.96161 0.99883 0.0
H395 H 0.50337 0.0722 0.96587 0.0
H396 H 0.56782 0.08278 0.99097 0.0
H397 H 0.52205 0.09328 0.02229 0.0
H398 H 0.57118 0.06373 0.09969 0.0
H399 H 0.6185 0.05525 0.06918 0.0
H400 H 0.59072 0.02358 0.09488 0.0
H401 H 0.49508 0.94906 0.95554 0.0
H402 H 0.56587 0.94375 0.92171 0.0
H403 H 0.62515 0.0333 0.98468 0.0
C404 C 0.4606 0.04529 0.05582 0.0
C405 C 0.41474 0.03032 0.05396 0.0
C406 C 0.40594 0.99933 0.03593 0.0
C407 C 0.44061 0.98447 0.01575 0.0
C408 C 0.48389 1.00084 0.01495 0.0
C409 C 0.49502 0.03006 0.03603 0.0
C410 C 0.5428 0.04322 0.02764 0.0
C411 C 0.53339 0.07473 1.00005 0.0
C412 C 0.58319 0.04661 0.07573 0.0
C413 C 0.55569 1.01733 0.99675 0.0
C414 C 0.5209 0.99333 0.98993 0.0
C415 C 0.52299 0.96744 0.96128 0.0
C416 C 0.5632 0.96503 0.94121 0.0
C417 C 0.60121 0.98831 0.94945 0.0
C418 C 0.59661 1.01528 0.97687 0.0
H419 H 0.42508 0.03182 0.53483 0.0
H420 H 0.49168 0.94897 0.61606 0.0
H421 H 0.57231 0.96213 0.60066 0.0
H422 H 0.4795 0.02389 0.44346 0.0
H423 H 0.4907 0.06505 0.43481 0.0
H424 H 0.44042 0.05356 0.45966 0.0
H425 H 0.47592 0.08796 0.5355 0.0
H426 H 0.52548 0.10052 0.51015 0.0
H427 H 0.54007 0.08309 0.56956 0.0
H428 H 0.6389 0.97784 0.56456 0.0
H429 H 0.69541 1.0008 0.52158 0.0
H430 H 0.58703 0.07468 0.46421 0.0
C431 C 0.4571 1.01716 0.55101 0.0
C432 C 0.45235 0.98934 0.57644 0.0
C433 C 0.49472 0.97033 0.5963 0.0
C434 C 0.54055 0.97759 0.58774 0.0
C435 C 0.54313 1.00402 0.55975 0.0
C436 C 0.50304 0.024 0.54264 0.0
C437 C 0.51484 0.04939 0.51024 0.0
C438 C 0.47925 0.04785 0.45904 0.0
C439 C 0.51405 0.08219 0.53273 0.0
C440 C 0.56719 0.03973 0.51037 0.0
C441 C 0.58254 1.01352 0.5392 0.0
C442 C 0.62788 0.99877 0.5427 0.0
C443 C 0.6594 1.01186 0.51751 0.0
C444 C 0.64567 0.03969 0.48954 0.0
C445 C 0.59858 0.05351 0.48542 0.0
H446 H 0.91155 0.50095 0.04684 0.0
H447 H 0.93941 0.60142 0.03969 0.0
H448 H 0.99945 0.59094 0.9929 0.0
H449 H 0.04006 0.47899 0.06678 0.0
H450 H 0.02677 0.44304 0.03236 0.0
H451 H 0.98193 0.45864 0.06129 0.0
H452 H 0.9153 0.45835 0.97857 0.0
H453 H 0.96063 0.44369 0.94922 0.0
H454 H 0.92701 0.47961 0.92832 0.0
H455 H 0.05575 0.57113 0.9479 0.0
H456 H 0.12261 0.5422 0.92506 0.0
H457 H 0.06514 0.45399 0.96482 0.0
C458 C 0.93064 0.52061 0.03562 0.0
C459 C 0.92077 0.55195 0.04695 0.0
C460 C 0.94665 0.57715 0.03197 0.0
C461 C 0.98022 0.57154 1.00454 0.0
C462 C 0.98819 0.54057 0.99286 0.0
C463 C 0.96556 0.51539 1.00908 0.0
C464 C 0.9858 0.48435 0.9961 0.0
C465 C 1.0101 0.46514 0.04185 0.0
C466 C 0.94472 0.46538 0.96096 0.0
C467 C 0.02423 0.49623 0.97138 0.0
C468 C 0.02338 0.52876 0.96844 0.0
C469 C 0.05684 0.54565 0.94976 0.0
C470 C 0.09452 0.52902 0.93671 0.0
C471 C 0.09887 0.49598 0.94328 0.0
C472 C 0.06191 0.47918 0.95852 0.0
H473 H 0.12858 0.51745 0.50242 0.0
H474 H 0.06467 0.60238 0.4253 0.0
H475 H 0.98774 0.59394 0.45033 0.0
H476 H 1.00948 0.47251 0.47406 0.0
H477 H 0.02574 0.45332 0.53221 0.0
H478 H 0.07398 0.46478 0.50442 0.0
H479 H 0.11652 0.49598 0.58149 0.0
H480 H 0.06743 0.48611 0.60901 0.0
H481 H 0.08271 0.52686 0.60217 0.0
H482 H 0.92342 0.58079 0.49177 0.0
H483 H 0.8645 0.55634 0.53102 0.0
H484 H 0.96756 0.47828 0.5786 0.0
C485 C 0.09791 0.53378 0.48966 0.0
C486 C 0.10284 0.5608 0.46249 0.0
C487 C 0.06189 0.58169 0.44659 0.0
C488 C 1.01815 0.57723 0.46082 0.0
C489 C 1.0158 0.55156 0.49027 0.0
C490 C 0.05373 0.52958 0.50325 0.0
C491 C 0.0412 0.50402 0.53498 0.0
C492 C 0.03735 0.47175 0.50991 0.0
C493 C 0.07922 0.50323 0.58488 0.0
C494 C 0.99074 0.51551 0.53846 0.0
C495 C 0.9773 0.54319 0.51288 0.0
C496 C 0.93299 0.55882 0.51126 0.0
C497 C 0.89999 0.54481 0.53409 0.0
C498 C 0.91107 0.51513 0.55736 0.0
C499 C 0.95794 0.50092 0.56108 0.0
H500 H 0.12576 0.03888 0.98443 0.0
H501 H 0.1218 0.08629 0.1172 0.0
H502 H 0.04054 0.06131 0.1131 0.0
H503 H 0.99211 0.04522 0.92593 0.0
H504 H 0.98912 1.00715 0.89754 0.0
H505 H 0.04608 0.02958 0.91034 0.0
H506 H 0.09357 0.98226 0.95857 0.0
H507 H 0.03658 0.95988 0.94671 0.0
H508 H 0.07298 0.96606 1.00804 0.0
H509 H 0.96022 0.03001 0.09572 0.0
H510 H 0.88334 0.99928 0.06214 0.0
H511 H 0.93856 0.97149 0.94084 0.0
C512 C 0.1076 0.04443 1.0124 0.0
C513 C 0.1306 0.06484 0.05119 0.0
C514 C 0.1052 0.07111 0.08693 0.0
C515 C 0.05907 0.05677 0.08509 0.0
C516 C 0.0383 0.03616 0.04718 0.0
C517 C 0.06138 0.03037 1.01103 0.0
C518 C 0.03076 1.00752 0.97392 0.0
C519 C 1.01349 0.02331 0.92398 0.0
C520 C 0.06025 0.97713 0.9717 0.0
C521 C 0.98694 1.00117 0.99494 0.0
C522 C 0.99226 1.01787 0.03737 0.0
C523 C 0.956 1.01669 0.06278 0.0
C524 C 0.91263 0.99889 0.0437 0.0
C525 C 0.90567 0.9821 0.99984 0.0
C526 C 0.94372 0.98301 0.97544 0.0
H527 H 0.92417 0.03842 0.53089 0.0
H528 H 0.94592 0.09712 0.41456 0.0
H529 H 0.02965 0.07325 0.42482 0.0
H530 H 0.05485 0.04207 0.60571 0.0
H531 H 0.0537 1.00203 0.62656 0.0
H532 H 0.99721 0.02509 0.6112 0.0
H533 H 0.95448 0.98147 0.55161 0.0
H534 H 1.01124 0.95868 0.56568 0.0
H535 H 0.98165 0.96954 0.50399 0.0
H536 H 0.1069 0.03943 0.44273 0.0
H537 H 0.18053 1.00637 0.47714 0.0
H538 H 0.11169 0.9707 0.58545 0.0
C539 C 0.9472 0.04682 0.50841 0.0
C540 C 0.92884 0.06989 0.47214 0.0
C541 C 0.95963 0.08003 0.44307 0.0
C542 C 1.0069 0.06623 0.44829 0.0
C543 C 0.02298 0.04266 0.48316 0.0
C544 C 0.99469 0.03368 0.51369 0.0
C545 C 0.02103 1.00822 0.5488 0.0
C546 C 0.03238 1.02006 0.60117 0.0
C547 C 0.99025 0.97767 0.5421 0.0
C548 C 0.06854 1.00387 0.53292 0.0
C549 C 0.06831 0.02373 0.49449 0.0
C550 C 0.10755 0.02406 0.47301 0.0
C551 C 0.14908 1.00489 0.49261 0.0
C552 C 0.15178 0.9856 0.53364 0.0
C553 C 0.11031 0.98454 0.55341 0.0
H554 H 0.44025 0.46454 0.95599 0.0
H555 H 0.37502 0.50944 0.0603 0.0
H556 H 0.45103 0.54113 0.0904 0.0
H557 H 0.57182 0.46366 0.03619 0.0
H558 H 0.5977 0.47141 0.98607 0.0
H559 H 0.54035 0.44961 0.97667 0.0
H560 H 0.49751 0.4897 0.91038 0.0
H561 H 0.55425 0.51216 0.92066 0.0
H562 H 0.49755 0.53099 0.92521 0.0
H563 H 0.52814 0.57329 0.1015 0.0
H564 H 0.61059 0.59635 0.1048 0.0
H565 H 0.62858 0.52974 0.99616 0.0
C566 C 0.44303 0.48002 0.98653 0.0
C567 C 0.40207 0.48436 1.00622 0.0
C568 C 0.40628 0.50564 0.04509 0.0
C569 C 0.44911 0.52394 0.06218 0.0
C570 C 0.48777 0.52053 0.04033 0.0
C571 C 0.48597 0.49851 1.00436 0.0
C572 C 0.53258 0.50038 0.98652 0.0
C573 C 0.56239 0.46943 0.99701 0.0
C574 C 0.51966 0.50881 0.93249 0.0
C575 C 0.56 0.5272 0.01736 0.0
C576 C 0.53319 0.5387 0.04774 0.0
C577 C 0.54991 0.56422 0.07836 0.0
C578 C 0.59643 0.57749 0.07952 0.0
C579 C 0.62581 0.56493 0.05064 0.0
C580 C 0.60679 0.53985 0.01857 0.0
H581 H 0.62546 0.50683 0.59851 0.0
H582 H 0.60659 0.43699 0.48524 0.0
H583 H 0.52215 0.45839 0.44682 0.0
H584 H 0.4935 0.50828 0.60455 0.0
H585 H 0.49581 0.55011 0.61597 0.0
H586 H 0.55138 0.52653 0.63647 0.0
H587 H 0.59664 0.56366 0.59034 0.0
H588 H 0.54076 0.58668 0.56817 0.0
H589 H 0.57125 0.56941 0.52627 0.0
H590 H 0.44499 0.49153 0.4164 0.0
H591 H 0.37263 0.52737 0.40321 0.0
H592 H 0.44144 0.57561 0.53724 0.0
C593 C 0.60263 0.4953 0.5666 0.0
C594 C 0.62177 0.46993 0.54507 0.0
C595 C 0.59181 0.45585 0.50277 0.0
C596 C 0.54427 0.4682 0.48047 0.0
C597 C 0.52758 0.49436 0.50135 0.0
C598 C 0.55529 0.5072 0.54421 0.0
C599 C 0.52963 0.53574 0.5586 0.0
C600 C 0.5168 0.5298 0.60674 0.0
C601 C 0.56149 0.56563 0.56097 0.0
C602 C 0.48317 0.53732 0.51678 0.0
C603 C 0.48309 0.51341 0.48395 0.0
C604 C 0.44454 0.51013 0.44203 0.0
C605 C 0.40396 0.53082 0.43459 0.0
C606 C 0.40207 0.55448 0.46886 0.0
C607 C 0.44263 0.55822 0.51 0.0
H608 H 0.46642 0.10595 0.15149 0.0
H609 H 0.37622 0.16403 0.21992 0.0
H610 H 0.45125 0.17485 0.28724 0.0
H611 H 0.5401 0.07054 0.2589 0.0
H612 H 0.59626 0.0696 0.23889 0.0
H613 H 0.53631 0.06813 0.19535 0.0
H614 H 0.55982 0.11672 0.15154 0.0
H615 H 0.61984 0.11834 0.19512 0.0
H616 H 0.57966 0.15248 0.18495 0.0
H617 H 0.53633 0.17795 0.34809 0.0
H618 H 0.62183 0.17069 0.39978 0.0
H619 H 0.65555 0.10962 0.29162 0.0
C620 C 0.46226 0.1213 0.18027 0.0
C621 C 0.41522 0.13447 0.18002 0.0
C622 C 0.41169 0.15384 0.21906 0.0
C623 C 0.45419 0.16016 0.25735 0.0
C624 C 0.4999 0.14684 0.25618 0.0
C625 C 0.50402 0.12764 0.2187 0.0
C626 C 0.5567 0.11488 0.22692 0.0
C627 C 0.55735 0.07864 0.23024 0.0
C628 C 0.58039 0.1263 0.18727 0.0
C629 C 0.58179 0.12974 0.27523 0.0
C630 C 0.5485 0.14829 0.29127 0.0
C631 C 0.56263 0.16361 0.33566 0.0
C632 C 0.61149 0.15934 0.36478 0.0
C633 C 0.64606 0.13977 0.34978 0.0
C634 C 0.63086 0.12525 0.3039 0.0
H635 H 0.5978 0.91201 0.87748 0.0
H636 H 0.69127 0.88128 0.78767 0.0
H637 H 0.61549 0.87349 0.71957 0.0
H638 H 0.48886 0.86715 0.83252 0.0
H639 H 0.44559 0.89897 0.83162 0.0
H640 H 0.50617 0.89947 0.87433 0.0
H641 H 0.52549 0.95461 0.84161 0.0
H642 H 0.46363 0.95403 0.8016 0.0
H643 H 0.51689 0.95944 0.77788 0.0
H644 H 0.5286 0.86897 0.66197 0.0
H645 H 0.44148 0.87501 0.61522 0.0
H646 H 0.40498 0.91677 0.73955 0.0
C647 C 0.6024 0.9038 0.84355 0.0
C648 C 0.65055 0.89694 0.83825 0.0
C649 C 0.65488 0.88629 0.79289 0.0
C650 C 0.61198 0.88186 0.75408 0.0
C651 C 0.56515 0.88937 0.76064 0.0
C652 C 0.56038 0.90107 0.8039 0.0
C653 C 0.50676 0.9109 0.8001 0.0
C654 C 0.48561 0.89305 0.83683 0.0
C655 C 0.50297 0.94683 0.80568 0.0
C656 C 0.48125 0.90118 0.74869 0.0
C657 C 0.51573 0.8888 0.72666 0.0
C658 C 0.50157 0.87878 0.67893 0.0
C659 C 0.45153 0.88229 0.65268 0.0
C660 C 0.4156 0.89635 0.67346 0.0
C661 C 0.43092 0.90555 0.72256 0.0
H662 H 0.92122 0.67114 0.19485 0.0
H663 H 0.88678 0.57322 0.21551 0.0
H664 H 0.97018 0.56592 0.27133 0.0
H665 H 0.04816 0.6623 0.19902 0.0
H666 H 0.07016 0.69694 0.23454 0.0
H667 H 1.00705 0.69549 0.19688 0.0
H668 H 0.97327 0.70747 0.27072 0.0
H669 H 0.03634 0.70948 0.30852 0.0
H670 H 0.99226 0.68298 0.32385 0.0
H671 H 0.06004 0.56668 0.31271 0.0
H672 H 0.14696 0.57821 0.35616 0.0
H673 H 0.12213 0.67768 0.3231 0.0
C674 C 0.93114 0.64842 0.212 0.0
C675 C 0.89766 0.62269 0.20108 0.0
C676 C 0.91168 0.59326 0.22393 0.0
C677 C 0.95911 0.58882 0.25532 0.0
C678 C 0.99168 0.61432 0.26459 0.0
C679 C 0.97799 0.64385 0.24517 0.0
C680 C 1.02018 0.66734 0.26315 0.0
C681 C 0.03739 0.68134 0.22087 0.0
C682 C 1.00458 0.69336 0.29336 0.0
C683 C 0.06004 0.64606 0.29438 0.0
C684 C 0.04277 0.61545 0.29351 0.0
C685 C 0.07354 0.5907 0.31508 0.0
C686 C 0.12289 0.59748 0.33952 0.0
C687 C 0.14068 0.62887 0.34412 0.0
C688 C 0.10898 0.65357 0.32097 0.0
H689 H 0.92712 0.37413 0.68746 0.0
H690 H 0.89299 0.47345 0.69556 0.0
H691 H 0.97746 0.48268 0.74854 0.0
H692 H 0.9987 0.36823 0.8154 0.0
H693 H 0.04257 0.34019 0.80326 0.0
H694 H 0.97955 0.34138 0.76529 0.0
H695 H 1.01355 0.34886 0.69034 0.0
H696 H 0.07665 0.34829 0.72819 0.0
H697 H 0.05481 0.38134 0.68863 0.0
H698 H 0.06641 0.48234 0.79301 0.0
H699 H 0.15123 0.47099 0.84306 0.0
H700 H 0.12671 0.37089 0.81677 0.0
C701 C 0.93747 0.39762 0.70123 0.0
C702 C 0.90396 0.42314 0.68794 0.0
C703 C 0.91826 0.45364 0.70611 0.0
C704 C 0.96618 0.45914 0.73571 0.0
C705 C 0.99881 0.4337 0.74762 0.0
C706 C 0.98482 0.40336 0.73239 0.0
C707 C 0.02673 0.38015 0.75308 0.0
C708 C 1.01094 0.35607 0.78624 0.0
C709 C 0.04394 0.36369 0.71263 0.0
C710 C 0.06651 0.40234 0.78162 0.0
C711 C 0.04971 0.43318 0.77677 0.0
C712 C 0.07987 0.45827 0.79761 0.0
C713 C 0.1281 0.45163 0.82552 0.0
C714 C 0.14532 0.42017 0.83328 0.0
C715 C 0.1143 0.39514 0.81096 0.0
H716 H 0.24949 0.21555 0.09231 0.0
H717 H 0.26194 0.17564 0.9572 0.0
H718 H 0.26529 0.22897 0.92427 0.0
H719 H 0.17316 0.28713 0.03582 0.0
H720 H 0.20453 0.31215 0.08523 0.0
H721 H 0.19564 0.27092 0.09578 0.0
H722 H 0.29072 0.26516 0.13365 0.0
H723 H 0.30017 0.30608 0.12186 0.0
H724 H 0.33327 0.27595 0.09869 0.0
H725 H 0.28242 0.28456 0.91111 0.0
H726 H 0.29331 0.3419 0.9102 0.0
H727 H 0.26522 0.3484 0.0517 0.0
C728 C 0.25027 0.21825 0.05502 0.0
C729 C 0.25436 0.19163 0.02675 0.0
C730 C 0.25771 0.19584 0.97886 0.0
C731 C 0.26015 0.226 0.96006 0.0
C732 C 0.25883 0.25179 0.98952 0.0
C733 C 0.25239 0.24848 0.03539 0.0
C734 C 0.25423 0.28046 0.0597 0.0
C735 C 0.20389 0.28812 0.06971 0.0
C736 C 0.29715 0.28198 0.10623 0.0
C737 C 0.26412 0.3019 0.02082 0.0
C738 C 0.26714 0.28464 0.98099 0.0
C739 C 0.279 0.29851 0.94158 0.0
C740 C 0.28573 0.33117 0.94174 0.0
C741 C 0.27985 0.34987 0.98074 0.0
C742 C 0.26975 0.33483 0.02124 0.0
H743 H 0.77917 0.19727 0.55521 0.0
H744 H 0.81448 0.20489 0.41686 0.0
H745 H 0.80579 0.26209 0.41893 0.0
H746 H 0.69003 0.25943 0.53813 0.0
H747 H 0.71062 0.27538 0.59828 0.0
H748 H 0.7199 0.23418 0.58804 0.0
H749 H 0.81469 0.23981 0.62741 0.0
H750 H 0.80553 0.28087 0.63871 0.0
H751 H 0.84938 0.26961 0.60545 0.0
H752 H 0.78454 0.31668 0.42933 0.0
H753 H 0.77313 0.36978 0.45758 0.0
H754 H 0.76045 0.33122 0.59421 0.0
C755 C 0.78597 0.21104 0.52586 0.0
C756 C 0.79683 0.19617 0.48551 0.0
C757 C 0.80568 0.21527 0.44802 0.0
C758 C 0.80051 0.24797 0.44858 0.0
C759 C 0.78766 0.26167 0.48744 0.0
C760 C 0.78221 0.24422 0.52632 0.0
C761 C 0.77092 0.2659 0.56442 0.0
C762 C 0.71982 0.25825 0.5727 0.0
C763 C 0.81262 0.26393 0.61181 0.0
C764 C 0.77031 0.29798 0.54022 0.0
C765 C 0.77901 0.2945 0.49538 0.0
C766 C 0.77875 0.31991 0.46481 0.0
C767 C 0.772 0.35006 0.48129 0.0
C768 C 0.76671 0.35496 0.52853 0.0
C769 C 0.76442 0.32836 0.55797 0.0
H770 H 0.79534 0.82964 0.95337 0.0
H771 H 0.77222 0.86995 0.08462 0.0
H772 H 0.76329 0.81666 0.11529 0.0
H773 H 0.70759 0.76897 0.94038 0.0
H774 H 0.74366 0.73938 0.91976 0.0
H775 H 0.75294 0.78048 0.90897 0.0
H776 H 0.84709 0.77541 0.95216 0.0
H777 H 0.83834 0.73409 0.96205 0.0
H778 H 0.86614 0.75932 1.01244 0.0
H779 H 0.7478 0.75992 0.1283 0.0
H780 H 0.74074 0.70209 0.12921 0.0
H781 H 0.77628 0.69745 0.99095 0.0
C782 C 0.78995 0.82722 0.98917 0.0
C783 C 0.7845 0.85409 0.01655 0.0
C784 C 0.77653 0.84981 0.06291 0.0
C785 C 0.77112 0.81961 0.08061 0.0
C786 C 0.77423 0.79376 0.0518 0.0
C787 C 0.78462 0.79709 1.00759 0.0
C788 C 0.78528 0.76522 0.98374 0.0
C789 C 0.74496 0.76343 0.93535 0.0
C790 C 0.83731 0.75809 0.97723 0.0
C791 C 0.77301 0.74362 0.0212 0.0
C792 C 0.76637 0.76068 0.05992 0.0
C793 C 0.75353 0.74623 0.09848 0.0
C794 C 0.74917 0.7133 0.09842 0.0
C795 C 0.75808 0.69503 0.06026 0.0
C796 C 0.76922 0.71063 0.02071 0.0
H797 H 0.28402 0.69851 0.55213 0.0
H798 H 0.2984 0.7033 0.40522 0.0
H799 H 0.28497 0.76045 0.40442 0.0
H800 H 0.19013 0.75677 0.54132 0.0
H801 H 0.21601 0.7746 0.59952 0.0
H802 H 0.22768 0.73358 0.59033 0.0
H803 H 0.32305 0.74298 0.61856 0.0
H804 H 0.31162 0.78381 0.62914 0.0
H805 H 0.3504 0.77353 0.59019 0.0
H806 H 0.26195 0.81557 0.41532 0.0
H807 H 0.25267 0.86901 0.44461 0.0
H808 H 0.25996 0.83129 0.58704 0.0
C809 C 0.28535 0.71169 0.52017 0.0
C810 C 0.29191 0.69613 0.47861 0.0
C811 C 0.29351 0.71438 0.4376 0.0
C812 C 0.28534 0.74694 0.4365 0.0
C813 C 0.27663 0.76123 0.47702 0.0
C814 C 0.27834 0.74455 0.51875 0.0
C815 C 0.27034 0.76642 0.55796 0.0
C816 C 0.22323 0.75728 0.57317 0.0
C817 C 0.31661 0.7667 0.60153 0.0
C818 C 0.26346 0.79783 0.53138 0.0
C819 C 0.26616 0.79393 0.4844 0.0
C820 C 0.26048 0.81905 0.45223 0.0
C821 C 0.25484 0.84933 0.46919 0.0
C822 C 0.25593 0.85449 0.51823 0.0
C823 C 0.25849 0.82817 0.54928 0.0
loop_
_geom_bond_atom_site_label_1
_geom_bond_atom_site_label_2
_geom_bond_distance
_geom_bond_site_symmetry_2
_ccdc_geom_bond_type
Fe0 O2 1.918 . S
Fe0 O5 1.997 . S
Fe0 O6 2.002 . S
Fe0 O11 1.976 . S
Fe0 O14 1.996 . S
Fe1 O2 1.918 . S
Fe1 O9 1.997 . S
Fe1 O12 1.996 . S
Fe1 O16 1.976 1_554 S
Fe1 O19 2.002 . S
O2 Fe0 1.918 . S
O2 Fe1 1.918 . S
O2 Fe3 1.918 . S
Fe3 O2 1.918 . S
Fe3 O4 2.002 . S
Fe3 O13 1.976 . S
Fe3 O17 1.996 1_554 S
Fe3 O20 1.997 . S
O4 Fe3 2.002 . S
O4 C21 1.295 . S
O5 Fe0 1.997 . S
O5 C21 1.235 . S
O6 Fe0 2.002 . S
O6 C7 1.295 . S
C7 O6 1.295 . S
C7 O9 1.235 . S
C8 O13 1.287 . S
C8 O14 1.255 . S
O9 Fe1 1.997 . S
O9 C7 1.235 . S
C10 O16 1.287 . S
C10 O17 1.255 . S
O11 Fe0 1.976 . S
O11 C18 1.287 . S
O12 Fe1 1.996 . S
O12 C18 1.255 . S
O13 Fe3 1.976 . S
O13 C8 1.287 . S
O14 Fe0 1.996 . S
O14 C8 1.255 . S
C15 O19 1.295 . S
C15 O20 1.235 . S
O16 Fe1 1.976 1_556 S
O16 C10 1.287 . S
O17 Fe3 1.996 1_556 S
O17 C10 1.255 . S
C18 O11 1.287 . S
C18 O12 1.255 . S
O19 Fe1 2.002 . S
O19 C15 1.295 . S
O20 Fe3 1.997 . S
O20 C15 1.235 . S
C21 O4 1.295 . S
C21 O5 1.235 . S
Fe22 O24 1.918 . S
Fe22 O27 1.997 . S
Fe22 O28 2.002 . S
Fe22 O33 1.976 . S
Fe22 O36 1.996 . S
Fe23 O24 1.918 . S
Fe23 O31 1.997 . S
Fe23 O34 1.996 . S
Fe23 O38 1.976 . S
Fe23 O41 2.002 . S
O24 Fe22 1.918 . S
O24 Fe23 1.918 . S
O24 Fe25 1.918 . S
Fe25 O24 1.918 . S
Fe25 O26 2.002 . S
Fe25 O35 1.976 . S
Fe25 O39 1.996 . S
Fe25 O42 1.997 . S
O26 Fe25 2.002 . S
O26 C43 1.295 . S
O27 Fe22 1.997 . S
O27 C43 1.235 . S
O28 Fe22 2.002 . S
O28 C29 1.295 . S
C29 O28 1.295 . S
C29 O31 1.235 . S
C30 O35 1.287 . S
C30 O36 1.255 . S
O31 Fe23 1.997 . S
O31 C29 1.235 . S
C32 O38 1.287 . S
C32 O39 1.255 . S
O33 Fe22 1.976 . S
O33 C40 1.287 . S
O34 Fe23 1.996 . S
O34 C40 1.255 . S
O35 Fe25 1.976 . S
O35 C30 1.287 . S
O36 Fe22 1.996 . S
O36 C30 1.255 . S
C37 O41 1.295 . S
C37 O42 1.235 . S
O38 Fe23 1.976 . S
O38 C32 1.287 . S
O39 Fe25 1.996 . S
O39 C32 1.255 . S
C40 O33 1.287 . S
C40 O34 1.255 . S
O41 Fe23 2.002 . S
O41 C37 1.295 . S
O42 Fe25 1.997 . S
O42 C37 1.235 . S
C43 O26 1.295 . S
C43 O27 1.235 . S
Fe44 O46 1.918 . S
Fe44 O49 1.997 . S
Fe44 O50 2.002 . S
Fe44 O55 1.976 . S
Fe44 O58 1.996 1_556 S
Fe45 O46 1.918 . S
Fe45 O53 1.997 . S
Fe45 O56 1.996 . S
Fe45 O60 1.976 . S
Fe45 O63 2.002 . S
O46 Fe44 1.918 . S
O46 Fe45 1.918 . S
O46 Fe47 1.918 . S
Fe47 O46 1.918 . S
Fe47 O48 2.002 . S
Fe47 O57 1.976 1_556 S
Fe47 O61 1.996 . S
Fe47 O64 1.997 . S
O48 Fe47 2.002 . S
O48 C65 1.295 . S
O49 Fe44 1.997 . S
O49 C65 1.235 . S
O50 Fe44 2.002 . S
O50 C51 1.295 . S
C51 O50 1.295 . S
C51 O53 1.235 . S
C52 O57 1.287 . S
C52 O58 1.255 . S
O53 Fe45 1.997 . S
O53 C51 1.235 . S
C54 O60 1.287 . S
C54 O61 1.255 . S
O55 Fe44 1.976 . S
O55 C62 1.287 . S
O56 Fe45 1.996 . S
O56 C62 1.255 . S
O57 Fe47 1.976 1_554 S
O57 C52 1.287 . S
O58 Fe44 1.996 1_554 S
O58 C52 1.255 . S
C59 O63 1.295 . S
C59 O64 1.235 . S
O60 Fe45 1.976 . S
O60 C54 1.287 . S
O61 Fe47 1.996 . S
O61 C54 1.255 . S
C62 O55 1.287 . S
C62 O56 1.255 . S
O63 Fe45 2.002 . S
O63 C59 1.295 . S
O64 Fe47 1.997 . S
O64 C59 1.235 . S
C65 O48 1.295 . S
C65 O49 1.235 . S
Fe66 O68 1.918 . S
Fe66 O71 1.997 . S
Fe66 O72 2.002 . S
Fe66 O77 1.976 . S
Fe66 O80 1.996 . S
Fe67 O68 1.918 . S
Fe67 O75 1.997 . S
Fe67 O78 1.996 . S
Fe67 O82 1.976 . S
Fe67 O85 2.002 . S
O68 Fe66 1.918 . S
O68 Fe67 1.918 . S
O68 Fe69 1.918 . S
Fe69 O68 1.918 . S
Fe69 O70 2.002 . S
Fe69 O79 1.976 . S
Fe69 O83 1.996 . S
Fe69 O86 1.997 . S
O70 Fe69 2.002 . S
O70 C87 1.295 . S
O71 Fe66 1.997 . S
O71 C87 1.235 . S
O72 Fe66 2.002 . S
O72 C73 1.295 . S
C73 O72 1.295 . S
C73 O75 1.235 . S
C74 O79 1.287 . S
C74 O80 1.255 . S
O75 Fe67 1.997 . S
O75 C73 1.235 . S
C76 O82 1.287 . S
C76 O83 1.255 . S
O77 Fe66 1.976 . S
O77 C84 1.287 . S
O78 Fe67 1.996 . S
O78 C84 1.255 . S
O79 Fe69 1.976 . S
O79 C74 1.287 . S
O80 Fe66 1.996 . S
O80 C74 1.255 . S
C81 O85 1.295 . S
C81 O86 1.235 . S
O82 Fe67 1.976 . S
O82 C76 1.287 . S
O83 Fe69 1.996 . S
O83 C76 1.255 . S
C84 O77 1.287 . S
C84 O78 1.255 . S
O85 Fe67 2.002 . S
O85 C81 1.295 . S
O86 Fe69 1.997 . S
O86 C81 1.235 . S
C87 O70 1.295 . S
C87 O71 1.235 . S
Fe88 O90 1.918 . S
Fe88 O93 1.997 . S
Fe88 O94 2.002 . S
Fe88 O99 1.976 . S
Fe88 O102 1.996 . S
Fe89 O90 1.918 . S
Fe89 O97 1.997 . S
Fe89 O100 1.996 . S
Fe89 O104 1.976 1_554 S
Fe89 O107 2.002 . S
O90 Fe88 1.918 . S
O90 Fe89 1.918 . S
O90 Fe91 1.918 . S
Fe91 O90 1.918 . S
Fe91 O92 2.002 . S
Fe91 O101 1.976 . S
Fe91 O105 1.996 1_554 S
Fe91 O108 1.997 . S
O92 Fe91 2.002 . S
O92 C109 1.295 . S
O93 Fe88 1.997 . S
O93 C109 1.235 . S
O94 Fe88 2.002 . S
O94 C95 1.295 . S
C95 O94 1.295 . S
C95 O97 1.235 . S
C96 O101 1.287 . S
C96 O102 1.255 . S
O97 Fe89 1.997 . S
O97 C95 1.235 . S
C98 O104 1.287 . S
C98 O105 1.255 . S
O99 Fe88 1.976 . S
O99 C106 1.287 . S
O100 Fe89 1.996 . S
O100 C106 1.255 . S
O101 Fe91 1.976 . S
O101 C96 1.287 . S
O102 Fe88 1.996 . S
O102 C96 1.255 . S
C103 O107 1.295 . S
C103 O108 1.235 . S
O104 Fe89 1.976 1_556 S
O104 C98 1.287 . S
O105 Fe91 1.996 1_556 S
O105 C98 1.255 . S
C106 O99 1.287 . S
C106 O100 1.255 . S
O107 Fe89 2.002 . S
O107 C103 1.295 . S
O108 Fe91 1.997 . S
O108 C103 1.235 . S
C109 O92 1.295 . S
C109 O93 1.235 . S
Fe110 O112 1.918 . S
Fe110 O115 1.997 . S
Fe110 O116 2.002 . S
Fe110 O121 1.976 . S
Fe110 O124 1.996 . S
Fe111 O112 1.918 . S
Fe111 O119 1.997 . S
Fe111 O122 1.996 . S
Fe111 O126 1.976 . S
Fe111 O129 2.002 . S
O112 Fe110 1.918 . S
O112 Fe111 1.918 . S
O112 Fe113 1.918 . S
Fe113 O112 1.918 . S
Fe113 O114 2.002 . S
Fe113 O123 1.976 . S
Fe113 O127 1.996 . S
Fe113 O130 1.997 . S
O114 Fe113 2.002 . S
O114 C131 1.295 . S
O115 Fe110 1.997 . S
O115 C131 1.235 . S
O116 Fe110 2.002 . S
O116 C117 1.295 . S
C117 O116 1.295 . S
C117 O119 1.235 . S
C118 O123 1.287 . S
C118 O124 1.255 . S
O119 Fe111 1.997 . S
O119 C117 1.235 . S
C120 O126 1.287 . S
C120 O127 1.255 . S
O121 Fe110 1.976 . S
O121 C128 1.287 . S
O122 Fe111 1.996 . S
O122 C128 1.255 . S
O123 Fe113 1.976 . S
O123 C118 1.287 . S
O124 Fe110 1.996 . S
O124 C118 1.255 . S
C125 O129 1.295 . S
C125 O130 1.235 . S
O126 Fe111 1.976 . S
O126 C120 1.287 . S
O127 Fe113 1.996 . S
O127 C120 1.255 . S
C128 O121 1.287 . S
C128 O122 1.255 . S
O129 Fe111 2.002 . S
O129 C125 1.295 . S
O130 Fe113 1.997 . S
O130 C125 1.235 . S
C131 O114 1.295 . S
C131 O115 1.235 . S
Fe132 O134 1.918 . S
Fe132 O137 1.997 . S
Fe132 O138 2.002 . S
Fe132 O143 1.976 . S
Fe132 O146 1.996 1_556 S
Fe133 O134 1.918 . S
Fe133 O141 1.997 . S
Fe133 O144 1.996 . S
Fe133 O148 1.976 . S
Fe133 O151 2.002 . S
O134 Fe132 1.918 . S
O134 Fe133 1.918 . S
O134 Fe135 1.918 . S
Fe135 O134 1.918 . S
Fe135 O136 2.002 . S
Fe135 O145 1.976 1_556 S
Fe135 O149 1.996 . S
Fe135 O152 1.997 . S
O136 Fe135 2.002 . S
O136 C153 1.295 . S
O137 Fe132 1.997 . S
O137 C153 1.235 . S
O138 Fe132 2.002 . S
O138 C139 1.295 . S
C139 O138 1.295 . S
C139 O141 1.235 . S
C140 O145 1.287 . S
C140 O146 1.255 . S
O141 Fe133 1.997 . S
O141 C139 1.235 . S
C142 O148 1.287 . S
C142 O149 1.255 . S
O143 Fe132 1.976 . S
O143 C150 1.287 . S
O144 Fe133 1.996 . S
O144 C150 1.255 . S
O145 Fe135 1.976 1_554 S
O145 C140 1.287 . S
O146 Fe132 1.996 1_554 S
O146 C140 1.255 . S
C147 O151 1.295 . S
C147 O152 1.235 . S
O148 Fe133 1.976 . S
O148 C142 1.287 . S
O149 Fe135 1.996 . S
O149 C142 1.255 . S
C150 O143 1.287 . S
C150 O144 1.255 . S
O151 Fe133 2.002 . S
O151 C147 1.295 . S
O152 Fe135 1.997 . S
O152 C147 1.235 . S
C153 O136 1.295 . S
C153 O137 1.235 . S
Fe154 O156 1.918 . S
Fe154 O159 1.997 . S
Fe154 O160 2.002 . S
Fe154 O165 1.976 . S
Fe154 O168 1.996 . S
Fe155 O156 1.918 . S
Fe155 O163 1.997 . S
Fe155 O166 1.996 . S
Fe155 O170 1.976 . S
Fe155 O173 2.002 . S
O156 Fe154 1.918 . S
O156 Fe155 1.918 . S
O156 Fe157 1.918 . S
Fe157 O156 1.918 . S
Fe157 O158 2.002 . S
Fe157 O167 1.976 . S
Fe157 O171 1.996 . S
Fe157 O174 1.997 . S
O158 Fe157 2.002 . S
O158 C175 1.295 . S
O159 Fe154 1.997 . S
O159 C175 1.235 . S
O160 Fe154 2.002 . S
O160 C161 1.295 . S
C161 O160 1.295 . S
C161 O163 1.235 . S
C162 O167 1.287 . S
C162 O168 1.255 . S
O163 Fe155 1.997 . S
O163 C161 1.235 . S
C164 O170 1.287 . S
C164 O171 1.255 . S
O165 Fe154 1.976 . S
O165 C172 1.287 . S
O166 Fe155 1.996 . S
O166 C172 1.255 . S
O167 Fe157 1.976 . S
O167 C162 1.287 . S
O168 Fe154 1.996 . S
O168 C162 1.255 . S
C169 O173 1.295 . S
C169 O174 1.235 . S
O170 Fe155 1.976 . S
O170 C164 1.287 . S
O171 Fe157 1.996 . S
O171 C164 1.255 . S
C172 O165 1.287 . S
C172 O166 1.255 . S
O173 Fe155 2.002 . S
O173 C169 1.295 . S
O174 Fe157 1.997 . S
O174 C169 1.235 . S
C175 O158 1.295 . S
C175 O159 1.235 . S
H176 C188 0.930 . S
H177 C190 0.930 . S
H178 C191 0.930 . S
H179 C195 0.959 . S
H180 C195 0.959 . S
H181 C195 0.961 . S
H182 C196 0.960 . S
H183 C196 0.961 . S
H184 C196 0.959 . S
H185 C199 0.929 . S
H186 C200 0.931 . S
H187 C202 0.930 . S
C188 H176 0.930 . S
C188 C189 1.399 . S
C188 C193 1.399 . S
C189 C188 1.399 . S
C189 C190 1.376 . S
C190 H177 0.930 . S
C190 C189 1.376 . S
C190 C191 1.388 . S
C191 H178 0.930 . S
C191 C190 1.388 . S
C191 C192 1.390 . S
C192 C191 1.390 . S
C192 C193 1.394 . S
C192 C198 1.465 . S
C193 C188 1.399 . S
C193 C192 1.394 . S
C193 C194 1.516 . S
C194 C193 1.516 . S
C194 C195 1.502 1_545 S
C194 C196 1.561 . S
C194 C197 1.526 . S
C195 H179 0.959 . S
C195 H180 0.959 . S
C195 H181 0.961 . S
C195 C194 1.502 1_565 S
C196 H182 0.960 . S
C196 H183 0.961 . S
C196 H184 0.959 . S
C196 C194 1.561 . S
C197 C194 1.526 . S
C197 C198 1.396 . S
C197 C202 1.390 1_545 S
C198 C192 1.465 . S
C198 C197 1.396 . S
C198 C199 1.399 . S
C199 H185 0.929 . S
C199 C198 1.399 . S
C199 C200 1.385 . S
C200 H186 0.931 . S
C200 C199 1.385 . S
C200 C201 1.389 1_545 S
C201 C200 1.389 1_565 S
C201 C202 1.387 . S
C202 H187 0.930 . S
C202 C197 1.390 1_565 S
C202 C201 1.387 . S
H203 C215 0.930 . S
H204 C217 0.930 . S
H205 C218 0.930 . S
H206 C222 0.959 . S
H207 C222 0.959 . S
H208 C222 0.961 . S
H209 C223 0.960 . S
H210 C223 0.961 . S
H211 C223 0.959 . S
H212 C226 0.929 1_565 S
H213 C227 0.931 . S
H214 C229 0.930 . S
C215 H203 0.930 . S
C215 C216 1.399 1_545 S
C215 C220 1.399 . S
C216 C215 1.399 1_565 S
C216 C217 1.376 . S
C217 H204 0.930 . S
C217 C216 1.376 . S
C217 C218 1.388 . S
C218 H205 0.930 . S
C218 C217 1.388 . S
C218 C219 1.390 1_565 S
C219 C218 1.390 1_545 S
C219 C220 1.394 . S
C219 C225 1.465 . S
C220 C215 1.399 . S
C220 C219 1.394 . S
C220 C221 1.516 . S
C221 C220 1.516 . S
C221 C222 1.502 . S
C221 C223 1.561 . S
C221 C224 1.526 . S
C222 H206 0.959 . S
C222 H207 0.959 . S
C222 H208 0.961 . S
C222 C221 1.502 . S
C223 H209 0.960 . S
C223 H210 0.961 . S
C223 H211 0.959 . S
C223 C221 1.561 . S
C224 C221 1.526 . S
C224 C225 1.396 . S
C224 C229 1.390 . S
C225 C219 1.465 . S
C225 C224 1.396 . S
C225 C226 1.399 . S
C226 H212 0.929 1_545 S
C226 C225 1.399 . S
C226 C227 1.385 . S
C227 H213 0.931 . S
C227 C226 1.385 . S
C227 C228 1.389 . S
C228 C227 1.389 . S
C228 C229 1.387 . S
C229 H214 0.930 . S
C229 C224 1.390 . S
C229 C228 1.387 . S
H230 C242 0.930 . S
H231 C244 0.930 . S
H232 C245 0.930 . S
H233 C249 0.959 . S
H234 C249 0.959 . S
H235 C249 0.961 . S
H236 C250 0.960 . S
H237 C250 0.961 . S
H238 C250 0.959 . S
H239 C253 0.929 . S
H240 C254 0.931 . S
H241 C256 0.930 . S
C242 H230 0.930 . S
C242 C243 1.399 1_565 S
C242 C247 1.399 . S
C243 C242 1.399 1_545 S
C243 C244 1.376 . S
C244 H231 0.930 . S
C244 C243 1.376 . S
C244 C245 1.388 . S
C245 H232 0.930 . S
C245 C244 1.388 . S
C245 C246 1.390 . S
C246 C245 1.390 . S
C246 C247 1.394 1_545 S
C246 C252 1.465 1_545 S
C247 C242 1.399 . S
C247 C246 1.394 1_565 S
C247 C248 1.516 . S
C248 C247 1.516 . S
C248 C249 1.502 . S
C248 C250 1.561 . S
C248 C251 1.526 . S
C249 H233 0.959 . S
C249 H234 0.959 . S
C249 H235 0.961 . S
C249 C248 1.502 . S
C250 H236 0.960 . S
C250 H237 0.961 . S
C250 H238 0.959 . S
C250 C248 1.561 . S
C251 C248 1.526 . S
C251 C252 1.396 . S
C251 C256 1.390 . S
C252 C246 1.465 1_565 S
C252 C251 1.396 . S
C252 C253 1.399 1_565 S
C253 H239 0.929 . S
C253 C252 1.399 1_545 S
C253 C254 1.385 1_545 S
C254 H240 0.931 . S
C254 C253 1.385 1_565 S
C254 C255 1.389 . S
C255 C254 1.389 . S
C255 C256 1.387 . S
C256 H241 0.930 . S
C256 C251 1.390 . S
C256 C255 1.387 . S
H257 C269 0.930 . S
H258 C271 0.930 . S
H259 C272 0.930 . S
H260 C276 0.959 . S
H261 C276 0.959 . S
H262 C276 0.961 . S
H263 C277 0.960 . S
H264 C277 0.961 . S
H265 C277 0.959 . S
H266 C280 0.929 . S
H267 C281 0.931 . S
H268 C283 0.930 . S
C269 H257 0.930 . S
C269 C270 1.399 . S
C269 C274 1.399 . S
C270 C269 1.399 . S
C270 C271 1.376 1_545 S
C271 H258 0.930 . S
C271 C270 1.376 1_565 S
C271 C272 1.388 . S
C272 H259 0.930 . S
C272 C271 1.388 . S
C272 C273 1.390 . S
C273 C272 1.390 . S
C273 C274 1.394 1_565 S
C273 C279 1.465 . S
C274 C269 1.399 . S
C274 C273 1.394 1_545 S
C274 C275 1.516 . S
C275 C274 1.516 . S
C275 C276 1.502 . S
C275 C277 1.561 . S
C275 C278 1.526 1_545 S
C276 H260 0.959 . S
C276 H261 0.959 . S
C276 H262 0.961 . S
C276 C275 1.502 . S
C277 H263 0.960 . S
C277 H264 0.961 . S
C277 H265 0.959 . S
C277 C275 1.561 . S
C278 C275 1.526 1_565 S
C278 C279 1.396 . S
C278 C283 1.390 . S
C279 C273 1.465 . S
C279 C278 1.396 . S
C279 C280 1.399 . S
C280 H266 0.929 . S
C280 C279 1.399 . S
C280 C281 1.385 . S
C281 H267 0.931 . S
C281 C280 1.385 . S
C281 C282 1.389 . S
C282 C281 1.389 . S
C282 C283 1.387 . S
C283 H268 0.930 . S
C283 C278 1.390 . S
C283 C282 1.387 . S
H284 C296 0.930 . S
H285 C298 0.930 . S
H286 C299 0.930 . S
H287 C303 0.959 . S
H288 C303 0.959 . S
H289 C303 0.961 . S
H290 C304 0.960 . S
H291 C304 0.961 . S
H292 C304 0.959 . S
H293 C307 0.929 . S
H294 C308 0.931 . S
H295 C310 0.930 . S
C296 H284 0.930 . S
C296 C297 1.399 . S
C296 C301 1.399 . S
C297 C296 1.399 . S
C297 C298 1.376 . S
C298 H285 0.930 . S
C298 C297 1.376 . S
C298 C299 1.388 . S
C299 H286 0.930 . S
C299 C298 1.388 . S
C299 C300 1.390 . S
C300 C299 1.390 . S
C300 C301 1.394 . S
C300 C306 1.465 . S
C301 C296 1.399 . S
C301 C300 1.394 . S
C301 C302 1.516 . S
C302 C301 1.516 . S
C302 C303 1.502 . S
C302 C304 1.561 . S
C302 C305 1.526 . S
C303 H287 0.959 . S
C303 H288 0.959 . S
C303 H289 0.961 . S
C303 C302 1.502 . S
C304 H290 0.960 . S
C304 H291 0.961 . S
C304 H292 0.959 . S
C304 C302 1.561 . S
C305 C302 1.526 . S
C305 C306 1.396 . S
C305 C310 1.390 . S
C306 C300 1.465 . S
C306 C305 1.396 . S
C306 C307 1.399 . S
C307 H293 0.929 . S
C307 C306 1.399 . S
C307 C308 1.385 . S
C308 H294 0.931 . S
C308 C307 1.385 . S
C308 C309 1.389 . S
C309 C308 1.389 . S
C309 C310 1.387 . S
C310 H295 0.930 . S
C310 C305 1.390 . S
C310 C309 1.387 . S
H311 C323 0.930 . S
H312 C325 0.930 . S
H313 C326 0.930 . S
H314 C330 0.959 . S
H315 C330 0.959 . S
H316 C330 0.961 . S
H317 C331 0.960 . S
H318 C331 0.961 . S
H319 C331 0.959 . S
H320 C334 0.929 . S
H321 C335 0.931 . S
H322 C337 0.930 . S
C323 H311 0.930 . S
C323 C324 1.399 . S
C323 C328 1.399 . S
C324 C323 1.399 . S
C324 C325 1.376 . S
C325 H312 0.930 . S
C325 C324 1.376 . S
C325 C326 1.388 . S
C326 H313 0.930 . S
C326 C325 1.388 . S
C326 C327 1.390 . S
C327 C326 1.390 . S
C327 C328 1.394 . S
C327 C333 1.465 . S
C328 C323 1.399 . S
C328 C327 1.394 . S
C328 C329 1.516 . S
C329 C328 1.516 . S
C329 C330 1.502 . S
C329 C331 1.561 . S
C329 C332 1.526 . S
C330 H314 0.959 . S
C330 H315 0.959 . S
C330 H316 0.961 . S
C330 C329 1.502 . S
C331 H317 0.960 . S
C331 H318 0.961 . S
C331 H319 0.959 . S
C331 C329 1.561 . S
C332 C329 1.526 . S
C332 C333 1.396 . S
C332 C337 1.390 . S
C333 C327 1.465 . S
C333 C332 1.396 . S
C333 C334 1.399 . S
C334 H320 0.929 . S
C334 C333 1.399 . S
C334 C335 1.385 . S
C335 H321 0.931 . S
C335 C334 1.385 . S
C335 C336 1.389 . S
C336 C335 1.389 . S
C336 C337 1.387 . S
C337 H322 0.930 . S
C337 C332 1.390 . S
C337 C336 1.387 . S
H338 C350 0.930 . S
H339 C352 0.930 . S
H340 C353 0.930 . S
H341 C357 0.959 . S
H342 C357 0.959 . S
H343 C357 0.961 . S
H344 C358 0.960 . S
H345 C358 0.961 . S
H346 C358 0.959 . S
H347 C361 0.929 . S
H348 C362 0.931 . S
H349 C364 0.930 . S
C350 H338 0.930 . S
C350 C351 1.399 . S
C350 C355 1.399 . S
C351 C350 1.399 . S
C351 C352 1.376 . S
C352 H339 0.930 . S
C352 C351 1.376 . S
C352 C353 1.388 . S
C353 H340 0.930 . S
C353 C352 1.388 . S
C353 C354 1.390 . S
C354 C353 1.390 . S
C354 C355 1.394 . S
C354 C360 1.465 . S
C355 C350 1.399 . S
C355 C354 1.394 . S
C355 C356 1.516 . S
C356 C355 1.516 . S
C356 C357 1.502 . S
C356 C358 1.561 . S
C356 C359 1.526 . S
C357 H341 0.959 . S
C357 H342 0.959 . S
C357 H343 0.961 . S
C357 C356 1.502 . S
C358 H344 0.960 . S
C358 H345 0.961 . S
C358 H346 0.959 . S
C358 C356 1.561 . S
C359 C356 1.526 . S
C359 C360 1.396 . S
C359 C364 1.390 . S
C360 C354 1.465 . S
C360 C359 1.396 . S
C360 C361 1.399 . S
C361 H347 0.929 . S
C361 C360 1.399 . S
C361 C362 1.385 . S
C362 H348 0.931 . S
C362 C361 1.385 . S
C362 C363 1.389 . S
C363 C362 1.389 . S
C363 C364 1.387 . S
C364 H349 0.930 . S
C364 C359 1.390 . S
C364 C363 1.387 . S
H365 C377 0.930 . S
H366 C379 0.930 . S
H367 C380 0.930 . S
H368 C384 0.959 . S
H369 C384 0.959 . S
H370 C384 0.961 . S
H371 C385 0.960 . S
H372 C385 0.961 . S
H373 C385 0.959 . S
H374 C388 0.929 . S
H375 C389 0.931 . S
H376 C391 0.930 . S
C377 H365 0.930 . S
C377 C378 1.399 . S
C377 C382 1.399 . S
C378 C377 1.399 . S
C378 C379 1.376 . S
C379 H366 0.930 . S
C379 C378 1.376 . S
C379 C380 1.388 . S
C380 H367 0.930 . S
C380 C379 1.388 . S
C380 C381 1.390 . S
C381 C380 1.390 . S
C381 C382 1.394 . S
C381 C387 1.465 . S
C382 C377 1.399 . S
C382 C381 1.394 . S
C382 C383 1.516 . S
C383 C382 1.516 . S
C383 C384 1.502 . S
C383 C385 1.561 . S
C383 C386 1.526 . S
C384 H368 0.959 . S
C384 H369 0.959 . S
C384 H370 0.961 . S
C384 C383 1.502 . S
C385 H371 0.960 . S
C385 H372 0.961 . S
C385 H373 0.959 . S
C385 C383 1.561 . S
C386 C383 1.526 . S
C386 C387 1.396 . S
C386 C391 1.390 . S
C387 C381 1.465 . S
C387 C386 1.396 . S
C387 C388 1.399 . S
C388 H374 0.929 . S
C388 C387 1.399 . S
C388 C389 1.385 . S
C389 H375 0.931 . S
C389 C388 1.385 . S
C389 C390 1.389 . S
C390 C389 1.389 . S
C390 C391 1.387 . S
C391 H376 0.930 . S
C391 C386 1.390 . S
C391 C390 1.387 . S
H392 C404 0.930 1_556 S
H393 C406 0.930 . S
H394 C407 0.930 . S
H395 C411 0.959 . S
H396 C411 0.959 . S
H397 C411 0.961 . S
H398 C412 0.960 . S
H399 C412 0.961 1_556 S
H400 C412 0.959 . S
H401 C415 0.929 . S
H402 C416 0.931 1_554 S
H403 C418 0.930 . S
C404 H392 0.930 1_554 S
C404 C405 1.399 . S
C404 C409 1.399 . S
C405 C404 1.399 . S
C405 C406 1.376 1_545 S
C406 H393 0.930 . S
C406 C405 1.376 1_565 S
C406 C407 1.388 . S
C407 H394 0.930 . S
C407 C406 1.388 . S
C407 C408 1.390 . S
C408 C407 1.390 . S
C408 C409 1.394 1_565 S
C408 C414 1.465 . S
C409 C404 1.399 . S
C409 C408 1.394 1_545 S
C409 C410 1.516 1_554 S
C410 C409 1.516 1_556 S
C410 C411 1.502 . S
C410 C412 1.561 1_556 S
C410 C413 1.526 . S
C411 H395 0.959 . S
C411 H396 0.959 . S
C411 H397 0.961 . S
C411 C410 1.502 . S
C412 H398 0.960 . S
C412 H399 0.961 1_554 S
C412 H400 0.959 . S
C412 C410 1.561 1_554 S
C413 C410 1.526 . S
C413 C414 1.396 1_546 S
C413 C418 1.390 . S
C414 C408 1.465 . S
C414 C413 1.396 1_564 S
C414 C415 1.399 . S
C415 H401 0.929 . S
C415 C414 1.399 . S
C415 C416 1.385 1_554 S
C416 H402 0.931 1_556 S
C416 C415 1.385 1_556 S
C416 C417 1.389 . S
C417 C416 1.389 . S
C417 C418 1.387 1_565 S
C418 H403 0.930 . S
C418 C413 1.390 . S
C418 C417 1.387 1_545 S
H419 C431 0.930 . S
H420 C433 0.930 . S
H421 C434 0.930 . S
H422 C438 0.959 . S
H423 C438 0.959 . S
H424 C438 0.961 . S
H425 C439 0.960 . S
H426 C439 0.961 . S
H427 C439 0.959 . S
H428 C442 0.929 . S
H429 C443 0.931 . S
H430 C445 0.930 . S
C431 H419 0.930 . S
C431 C432 1.399 1_545 S
C431 C436 1.399 . S
C432 C431 1.399 1_565 S
C432 C433 1.376 . S
C433 H420 0.930 . S
C433 C432 1.376 . S
C433 C434 1.388 . S
C434 H421 0.930 . S
C434 C433 1.388 . S
C434 C435 1.390 . S
C435 C434 1.390 . S
C435 C436 1.394 1_565 S
C435 C441 1.465 . S
C436 C431 1.399 . S
C436 C435 1.394 1_545 S
C436 C437 1.516 . S
C437 C436 1.516 . S
C437 C438 1.502 . S
C437 C439 1.561 . S
C437 C440 1.526 . S
C438 H422 0.959 . S
C438 H423 0.959 . S
C438 H424 0.961 . S
C438 C437 1.502 . S
C439 H425 0.960 . S
C439 H426 0.961 . S
C439 H427 0.959 . S
C439 C437 1.561 . S
C440 C437 1.526 . S
C440 C441 1.396 1_545 S
C440 C445 1.390 . S
C441 C435 1.465 . S
C441 C440 1.396 1_565 S
C441 C442 1.399 . S
C442 H428 0.929 . S
C442 C441 1.399 . S
C442 C443 1.385 . S
C443 H429 0.931 . S
C443 C442 1.385 . S
C443 C444 1.389 1_565 S
C444 C443 1.389 1_545 S
C444 C445 1.387 . S
C445 H430 0.930 . S
C445 C440 1.390 . S
C445 C444 1.387 . S
H446 C458 0.930 . S
H447 C460 0.930 . S
H448 C461 0.930 . S
H449 C465 0.959 . S
H450 C465 0.959 . S
H451 C465 0.961 . S
H452 C466 0.960 1_655 S
H453 C466 0.961 . S
H454 C466 0.959 1_655 S
H455 C469 0.929 . S
H456 C470 0.931 . S
H457 C472 0.930 . S
C458 H446 0.930 . S
C458 C459 1.399 . S
C458 C463 1.399 . S
C459 C458 1.399 . S
C459 C460 1.376 1_554 S
C460 H447 0.930 . S
C460 C459 1.376 1_556 S
C460 C461 1.388 . S
C461 H448 0.930 . S
C461 C460 1.388 . S
C461 C462 1.390 . S
C462 C461 1.390 . S
C462 C463 1.394 1_556 S
C462 C468 1.465 1_655 S
C463 C458 1.399 . S
C463 C462 1.394 1_554 S
C463 C464 1.516 1_655 S
C464 C463 1.516 1_455 S
C464 C465 1.502 . S
C464 C466 1.561 . S
C464 C467 1.526 . S
C465 H449 0.959 . S
C465 H450 0.959 . S
C465 H451 0.961 . S
C465 C464 1.502 . S
C466 H452 0.960 1_455 S
C466 H453 0.961 . S
C466 H454 0.959 1_455 S
C466 C464 1.561 . S
C467 C464 1.526 . S
C467 C468 1.396 1_554 S
C467 C472 1.390 . S
C468 C462 1.465 1_455 S
C468 C467 1.396 1_556 S
C468 C469 1.399 . S
C469 H455 0.929 . S
C469 C468 1.399 . S
C469 C470 1.385 . S
C470 H456 0.931 . S
C470 C469 1.385 . S
C470 C471 1.389 . S
C471 C470 1.389 . S
C471 C472 1.387 1_556 S
C472 H457 0.930 . S
C472 C467 1.390 . S
C472 C471 1.387 1_554 S
H473 C485 0.930 . S
H474 C487 0.930 . S
H475 C488 0.930 . S
H476 C492 0.959 . S
H477 C492 0.959 . S
H478 C492 0.961 1_455 S
H479 C493 0.960 . S
H480 C493 0.961 . S
H481 C493 0.959 . S
H482 C496 0.929 . S
H483 C497 0.931 . S
H484 C499 0.930 . S
C485 H473 0.930 . S
C485 C486 1.399 . S
C485 C490 1.399 . S
C486 C485 1.399 . S
C486 C487 1.376 . S
C487 H474 0.930 . S
C487 C486 1.376 . S
C487 C488 1.388 . S
C488 H475 0.930 . S
C488 C487 1.388 . S
C488 C489 1.390 . S
C489 C488 1.390 . S
C489 C490 1.394 . S
C489 C495 1.465 1_455 S
C490 C485 1.399 . S
C490 C489 1.394 . S
C490 C491 1.516 . S
C491 C490 1.516 . S
C491 C492 1.502 1_455 S
C491 C493 1.561 . S
C491 C494 1.526 1_455 S
C492 H476 0.959 . S
C492 H477 0.959 . S
C492 H478 0.961 1_655 S
C492 C491 1.502 1_655 S
C493 H479 0.960 . S
C493 H480 0.961 . S
C493 H481 0.959 . S
C493 C491 1.561 . S
C494 C491 1.526 1_655 S
C494 C495 1.396 . S
C494 C499 1.390 . S
C495 C489 1.465 1_655 S
C495 C494 1.396 . S
C495 C496 1.399 . S
C496 H482 0.929 . S
C496 C495 1.399 . S
C496 C497 1.385 . S
C497 H483 0.931 . S
C497 C496 1.385 . S
C497 C498 1.389 . S
C498 C497 1.389 . S
C498 C499 1.387 . S
C499 H484 0.930 . S
C499 C494 1.390 . S
C499 C498 1.387 . S
H500 C512 0.930 . S
H501 C514 0.930 . S
H502 C515 0.930 1_565 S
H503 C519 0.959 . S
H504 C519 0.959 . S
H505 C519 0.961 . S
H506 C520 0.960 . S
H507 C520 0.961 1_655 S
H508 C520 0.959 . S
H509 C523 0.929 . S
H510 C524 0.931 . S
H511 C526 0.930 . S
C512 H500 0.930 . S
C512 C513 1.399 1_556 S
C512 C517 1.399 . S
C513 C512 1.399 1_554 S
C513 C514 1.376 . S
C514 H501 0.930 . S
C514 C513 1.376 . S
C514 C515 1.388 . S
C515 H502 0.930 1_545 S
C515 C514 1.388 . S
C515 C516 1.390 . S
C516 C515 1.390 . S
C516 C517 1.394 1_554 S
C516 C522 1.465 1_445 S
C517 C512 1.399 . S
C517 C516 1.394 1_556 S
C517 C518 1.516 1_455 S
C518 C517 1.516 1_655 S
C518 C519 1.502 . S
C518 C520 1.561 1_645 S
C518 C521 1.526 1_545 S
C519 H503 0.959 . S
C519 H504 0.959 . S
C519 H505 0.961 . S
C519 C518 1.502 . S
C520 H506 0.960 . S
C520 H507 0.961 1_455 S
C520 H508 0.959 . S
C520 C518 1.561 1_465 S
C521 C518 1.526 1_565 S
C521 C522 1.396 1_556 S
C521 C526 1.390 . S
C522 C516 1.465 1_665 S
C522 C521 1.396 1_554 S
C522 C523 1.399 . S
C523 H509 0.929 . S
C523 C522 1.399 . S
C523 C524 1.385 . S
C524 H510 0.931 . S
C524 C523 1.385 . S
C524 C525 1.389 1_554 S
C525 C524 1.389 1_556 S
C525 C526 1.387 . S
C526 H511 0.930 . S
C526 C521 1.390 . S
C526 C525 1.387 . S
H527 C539 0.930 . S
H528 C541 0.930 . S
H529 C542 0.930 . S
H530 C546 0.959 . S
H531 C546 0.959 . S
H532 C546 0.961 . S
H533 C547 0.960 . S
H534 C547 0.961 1_455 S
H535 C547 0.959 . S
H536 C550 0.929 . S
H537 C551 0.931 . S
H538 C553 0.930 . S
C539 H527 0.930 . S
C539 C540 1.399 . S
C539 C544 1.399 . S
C540 C539 1.399 . S
C540 C541 1.376 . S
C541 H528 0.930 . S
C541 C540 1.376 . S
C541 C542 1.388 . S
C542 H529 0.930 . S
C542 C541 1.388 . S
C542 C543 1.390 . S
C543 C542 1.390 . S
C543 C544 1.394 . S
C543 C549 1.465 1_645 S
C544 C539 1.399 . S
C544 C543 1.394 . S
C544 C545 1.530 1_655 S
C545 C544 1.530 1_455 S
C545 C546 1.527 . S
C545 C547 1.536 1_445 S
C545 C548 1.510 1_545 S
C546 H530 0.959 . S
C546 H531 0.959 . S
C546 H532 0.961 . S
C546 C545 1.527 . S
C547 H533 0.960 . S
C547 H534 0.961 1_655 S
C547 H535 0.959 . S
C547 C545 1.536 1_665 S
C548 C545 1.510 1_565 S
C548 C549 1.396 . S
C548 C553 1.390 . S
C549 C543 1.465 1_465 S
C549 C548 1.396 . S
C549 C550 1.399 . S
C550 H536 0.929 . S
C550 C549 1.399 . S
C550 C551 1.385 . S
C551 H537 0.931 . S
C551 C550 1.385 . S
C551 C552 1.389 . S
C552 C551 1.389 . S
C552 C553 1.387 . S
C553 H538 0.930 . S
C553 C548 1.390 . S
C553 C552 1.387 . S
H554 C566 0.930 . S
H555 C568 0.930 . S
H556 C569 0.930 . S
H557 C573 0.959 . S
H558 C573 0.959 . S
H559 C573 0.961 . S
H560 C574 0.960 . S
H561 C574 0.961 . S
H562 C574 0.959 . S
H563 C577 0.929 . S
H564 C578 0.931 . S
H565 C580 0.930 . S
C566 H554 0.930 . S
C566 C567 1.399 . S
C566 C571 1.399 . S
C567 C566 1.399 . S
C567 C568 1.376 1_556 S
C568 H555 0.930 . S
C568 C567 1.376 1_554 S
C568 C569 1.388 . S
C569 H556 0.930 . S
C569 C568 1.388 . S
C569 C570 1.390 . S
C570 C569 1.390 . S
C570 C571 1.394 1_554 S
C570 C576 1.465 . S
C571 C566 1.399 . S
C571 C570 1.394 1_556 S
C571 C572 1.516 . S
C572 C571 1.516 . S
C572 C573 1.502 . S
C572 C574 1.561 . S
C572 C575 1.526 . S
C573 H557 0.959 . S
C573 H558 0.959 . S
C573 H559 0.961 . S
C573 C572 1.502 . S
C574 H560 0.960 . S
C574 H561 0.961 . S
C574 H562 0.959 . S
C574 C572 1.561 . S
C575 C572 1.526 . S
C575 C576 1.396 1_556 S
C575 C580 1.390 . S
C576 C570 1.465 . S
C576 C575 1.396 1_554 S
C576 C577 1.399 . S
C577 H563 0.929 . S
C577 C576 1.399 . S
C577 C578 1.385 . S
C578 H564 0.931 . S
C578 C577 1.385 . S
C578 C579 1.389 . S
C579 C578 1.389 . S
C579 C580 1.387 1_554 S
C580 H565 0.930 . S
C580 C575 1.390 . S
C580 C579 1.387 1_556 S
H581 C593 0.930 . S
H582 C595 0.930 . S
H583 C596 0.930 . S
H584 C600 0.959 . S
H585 C600 0.959 . S
H586 C600 0.961 . S
H587 C601 0.960 . S
H588 C601 0.961 . S
H589 C601 0.959 . S
H590 C604 0.929 . S
H591 C605 0.931 . S
H592 C607 0.930 . S
C593 H581 0.930 . S
C593 C594 1.399 . S
C593 C598 1.399 . S
C594 C593 1.399 . S
C594 C595 1.376 . S
C595 H582 0.930 . S
C595 C594 1.376 . S
C595 C596 1.388 . S
C596 H583 0.930 . S
C596 C595 1.388 . S
C596 C597 1.390 . S
C597 C596 1.390 . S
C597 C598 1.394 . S
C597 C603 1.465 . S
C598 C593 1.399 . S
C598 C597 1.394 . S
C598 C599 1.516 . S
C599 C598 1.516 . S
C599 C600 1.502 . S
C599 C601 1.561 . S
C599 C602 1.526 . S
C600 H584 0.959 . S
C600 H585 0.959 . S
C600 H586 0.961 . S
C600 C599 1.502 . S
C601 H587 0.960 . S
C601 H588 0.961 . S
C601 H589 0.959 . S
C601 C599 1.561 . S
C602 C599 1.526 . S
C602 C603 1.396 . S
C602 C607 1.390 . S
C603 C597 1.465 . S
C603 C602 1.396 . S
C603 C604 1.399 . S
C604 H590 0.929 . S
C604 C603 1.399 . S
C604 C605 1.385 . S
C605 H591 0.931 . S
C605 C604 1.385 . S
C605 C606 1.389 . S
C606 C605 1.389 . S
C606 C607 1.387 . S
C607 H592 0.930 . S
C607 C602 1.390 . S
C607 C606 1.387 . S
H608 C620 0.930 . S
H609 C622 0.930 . S
H610 C623 0.930 . S
H611 C627 0.959 . S
H612 C627 0.959 . S
H613 C627 0.961 . S
H614 C628 0.960 . S
H615 C628 0.961 . S
H616 C628 0.959 . S
H617 C631 0.929 . S
H618 C632 0.931 . S
H619 C634 0.930 . S
C620 H608 0.930 . S
C620 C621 1.399 . S
C620 C625 1.399 . S
C621 C620 1.399 . S
C621 C622 1.376 . S
C622 H609 0.930 . S
C622 C621 1.376 . S
C622 C623 1.388 . S
C623 H610 0.930 . S
C623 C622 1.388 . S
C623 C624 1.390 . S
C624 C623 1.390 . S
C624 C625 1.394 . S
C624 C630 1.465 . S
C625 C620 1.399 . S
C625 C624 1.394 . S
C625 C626 1.516 . S
C626 C625 1.516 . S
C626 C627 1.502 . S
C626 C628 1.561 . S
C626 C629 1.526 . S
C627 H611 0.959 . S
C627 H612 0.959 . S
C627 H613 0.961 . S
C627 C626 1.502 . S
C628 H614 0.960 . S
C628 H615 0.961 . S
C628 H616 0.959 . S
C628 C626 1.561 . S
C629 C626 1.526 . S
C629 C630 1.396 . S
C629 C634 1.390 . S
C630 C624 1.465 . S
C630 C629 1.396 . S
C630 C631 1.399 . S
C631 H617 0.929 . S
C631 C630 1.399 . S
C631 C632 1.385 . S
C632 H618 0.931 . S
C632 C631 1.385 . S
C632 C633 1.389 . S
C633 C632 1.389 . S
C633 C634 1.387 . S
C634 H619 0.930 . S
C634 C629 1.390 . S
C634 C633 1.387 . S
H635 C647 0.930 . S
H636 C649 0.930 . S
H637 C650 0.930 . S
H638 C654 0.959 . S
H639 C654 0.959 . S
H640 C654 0.961 . S
H641 C655 0.960 . S
H642 C655 0.961 . S
H643 C655 0.959 . S
H644 C658 0.929 . S
H645 C659 0.931 . S
H646 C661 0.930 . S
C647 H635 0.930 . S
C647 C648 1.399 . S
C647 C652 1.399 . S
C648 C647 1.399 . S
C648 C649 1.376 . S
C649 H636 0.930 . S
C649 C648 1.376 . S
C649 C650 1.388 . S
C650 H637 0.930 . S
C650 C649 1.388 . S
C650 C651 1.390 . S
C651 C650 1.390 . S
C651 C652 1.394 . S
C651 C657 1.465 . S
C652 C647 1.399 . S
C652 C651 1.394 . S
C652 C653 1.516 . S
C653 C652 1.516 . S
C653 C654 1.502 . S
C653 C655 1.561 . S
C653 C656 1.526 . S
C654 H638 0.959 . S
C654 H639 0.959 . S
C654 H640 0.961 . S
C654 C653 1.502 . S
C655 H641 0.960 . S
C655 H642 0.961 . S
C655 H643 0.959 . S
C655 C653 1.561 . S
C656 C653 1.526 . S
C656 C657 1.396 . S
C656 C661 1.390 . S
C657 C651 1.465 . S
C657 C656 1.396 . S
C657 C658 1.399 . S
C658 H644 0.929 . S
C658 C657 1.399 . S
C658 C659 1.385 . S
C659 H645 0.931 . S
C659 C658 1.385 . S
C659 C660 1.389 . S
C660 C659 1.389 . S
C660 C661 1.387 . S
C661 H646 0.930 . S
C661 C656 1.390 . S
C661 C660 1.387 . S
H662 C674 0.930 . S
H663 C676 0.930 . S
H664 C677 0.930 . S
H665 C681 0.959 . S
H666 C681 0.959 . S
H667 C681 0.961 . S
H668 C682 0.960 . S
H669 C682 0.961 1_455 S
H670 C682 0.959 . S
H671 C685 0.929 . S
H672 C686 0.931 . S
H673 C688 0.930 . S
C674 H662 0.930 . S
C674 C675 1.399 . S
C674 C679 1.399 . S
C675 C674 1.399 . S
C675 C676 1.376 . S
C676 H663 0.930 . S
C676 C675 1.376 . S
C676 C677 1.388 . S
C677 H664 0.930 . S
C677 C676 1.388 . S
C677 C678 1.390 . S
C678 C677 1.390 . S
C678 C679 1.394 . S
C678 C684 1.465 1_655 S
C679 C674 1.399 . S
C679 C678 1.394 . S
C679 C680 1.516 1_655 S
C680 C679 1.516 1_455 S
C680 C681 1.502 . S
C680 C682 1.561 1_455 S
C680 C683 1.526 . S
C681 H665 0.959 . S
C681 H666 0.959 . S
C681 H667 0.961 . S
C681 C680 1.502 . S
C682 H668 0.960 . S
C682 H669 0.961 1_655 S
C682 H670 0.959 . S
C682 C680 1.561 1_655 S
C683 C680 1.526 . S
C683 C684 1.396 . S
C683 C688 1.390 . S
C684 C678 1.465 1_455 S
C684 C683 1.396 . S
C684 C685 1.399 . S
C685 H671 0.929 . S
C685 C684 1.399 . S
C685 C686 1.385 . S
C686 H672 0.931 . S
C686 C685 1.385 . S
C686 C687 1.389 . S
C687 C686 1.389 . S
C687 C688 1.387 . S
C688 H673 0.930 . S
C688 C683 1.390 . S
C688 C687 1.387 . S
H689 C701 0.930 . S
H690 C703 0.930 . S
H691 C704 0.930 . S
H692 C708 0.959 . S
H693 C708 0.959 1_455 S
H694 C708 0.961 . S
H695 C709 0.960 . S
H696 C709 0.961 . S
H697 C709 0.959 . S
H698 C712 0.929 . S
H699 C713 0.931 . S
H700 C715 0.930 . S
C701 H689 0.930 . S
C701 C702 1.399 . S
C701 C706 1.399 . S
C702 C701 1.399 . S
C702 C703 1.376 . S
C703 H690 0.930 . S
C703 C702 1.376 . S
C703 C704 1.388 . S
C704 H691 0.930 . S
C704 C703 1.388 . S
C704 C705 1.390 . S
C705 C704 1.390 . S
C705 C706 1.394 . S
C705 C711 1.465 1_655 S
C706 C701 1.399 . S
C706 C705 1.394 . S
C706 C707 1.516 1_655 S
C707 C706 1.516 1_455 S
C707 C708 1.502 1_455 S
C707 C709 1.561 . S
C707 C710 1.526 . S
C708 H692 0.959 . S
C708 H693 0.959 1_655 S
C708 H694 0.961 . S
C708 C707 1.502 1_655 S
C709 H695 0.960 . S
C709 H696 0.961 . S
C709 H697 0.959 . S
C709 C707 1.561 . S
C710 C707 1.526 . S
C710 C711 1.396 . S
C710 C715 1.390 . S
C711 C705 1.465 1_455 S
C711 C710 1.396 . S
C711 C712 1.399 . S
C712 H698 0.929 . S
C712 C711 1.399 . S
C712 C713 1.385 . S
C713 H699 0.931 . S
C713 C712 1.385 . S
C713 C714 1.389 . S
C714 C713 1.389 . S
C714 C715 1.387 . S
C715 H700 0.930 . S
C715 C710 1.390 . S
C715 C714 1.387 . S
H716 C728 0.930 . S
H717 C730 0.930 . S
H718 C731 0.930 . S
H719 C735 0.959 . S
H720 C735 0.959 . S
H721 C735 0.961 . S
H722 C736 0.960 . S
H723 C736 0.961 . S
H724 C736 0.959 . S
H725 C739 0.929 . S
H726 C740 0.931 . S
H727 C742 0.930 . S
C728 H716 0.930 . S
C728 C729 1.399 . S
C728 C733 1.399 . S
C729 C728 1.399 . S
C729 C730 1.376 1_554 S
C730 H717 0.930 . S
C730 C729 1.376 1_556 S
C730 C731 1.388 . S
C731 H718 0.930 . S
C731 C730 1.388 . S
C731 C732 1.390 . S
C732 C731 1.390 . S
C732 C733 1.394 1_556 S
C732 C738 1.465 . S
C733 C728 1.399 . S
C733 C732 1.394 1_554 S
C733 C734 1.516 . S
C734 C733 1.516 . S
C734 C735 1.502 . S
C734 C736 1.561 . S
C734 C737 1.526 . S
C735 H719 0.959 . S
C735 H720 0.959 . S
C735 H721 0.961 . S
C735 C734 1.502 . S
C736 H722 0.960 . S
C736 H723 0.961 . S
C736 H724 0.959 . S
C736 C734 1.561 . S
C737 C734 1.526 . S
C737 C738 1.396 1_554 S
C737 C742 1.390 . S
C738 C732 1.465 . S
C738 C737 1.396 1_556 S
C738 C739 1.399 . S
C739 H725 0.929 . S
C739 C738 1.399 . S
C739 C740 1.385 . S
C740 H726 0.931 . S
C740 C739 1.385 . S
C740 C741 1.389 . S
C741 C740 1.389 . S
C741 C742 1.387 1_556 S
C742 H727 0.930 . S
C742 C737 1.390 . S
C742 C741 1.387 1_554 S
H743 C755 0.930 . S
H744 C757 0.930 . S
H745 C758 0.930 . S
H746 C762 0.959 . S
H747 C762 0.959 . S
H748 C762 0.961 . S
H749 C763 0.960 . S
H750 C763 0.961 . S
H751 C763 0.959 . S
H752 C766 0.929 . S
H753 C767 0.931 . S
H754 C769 0.930 . S
C755 H743 0.930 . S
C755 C756 1.399 . S
C755 C760 1.399 . S
C756 C755 1.399 . S
C756 C757 1.376 . S
C757 H744 0.930 . S
C757 C756 1.376 . S
C757 C758 1.388 . S
C758 H745 0.930 . S
C758 C757 1.388 . S
C758 C759 1.390 . S
C759 C758 1.390 . S
C759 C760 1.394 . S
C759 C765 1.465 . S
C760 C755 1.399 . S
C760 C759 1.394 . S
C760 C761 1.516 . S
C761 C760 1.516 . S
C761 C762 1.502 . S
C761 C763 1.561 . S
C761 C764 1.526 . S
C762 H746 0.959 . S
C762 H747 0.959 . S
C762 H748 0.961 . S
C762 C761 1.502 . S
C763 H749 0.960 . S
C763 H750 0.961 . S
C763 H751 0.959 . S
C763 C761 1.561 . S
C764 C761 1.526 . S
C764 C765 1.396 . S
C764 C769 1.390 . S
C765 C759 1.465 . S
C765 C764 1.396 . S
C765 C766 1.399 . S
C766 H752 0.929 . S
C766 C765 1.399 . S
C766 C767 1.385 . S
C767 H753 0.931 . S
C767 C766 1.385 . S
C767 C768 1.389 . S
C768 C767 1.389 . S
C768 C769 1.387 . S
C769 H754 0.930 . S
C769 C764 1.390 . S
C769 C768 1.387 . S
H770 C782 0.930 . S
H771 C784 0.930 . S
H772 C785 0.930 . S
H773 C789 0.959 . S
H774 C789 0.959 . S
H775 C789 0.961 . S
H776 C790 0.960 . S
H777 C790 0.961 . S
H778 C790 0.959 . S
H779 C793 0.929 . S
H780 C794 0.931 . S
H781 C796 0.930 . S
C782 H770 0.930 . S
C782 C783 1.399 . S
C782 C787 1.399 . S
C783 C782 1.399 . S
C783 C784 1.376 1_556 S
C784 H771 0.930 . S
C784 C783 1.376 1_554 S
C784 C785 1.388 . S
C785 H772 0.930 . S
C785 C784 1.388 . S
C785 C786 1.390 . S
C786 C785 1.390 . S
C786 C787 1.394 1_554 S
C786 C792 1.465 . S
C787 C782 1.399 . S
C787 C786 1.394 1_556 S
C787 C788 1.516 . S
C788 C787 1.516 . S
C788 C789 1.502 . S
C788 C790 1.561 . S
C788 C791 1.526 . S
C789 H773 0.959 . S
C789 H774 0.959 . S
C789 H775 0.961 . S
C789 C788 1.502 . S
C790 H776 0.960 . S
C790 H777 0.961 . S
C790 H778 0.959 . S
C790 C788 1.561 . S
C791 C788 1.526 . S
C791 C792 1.396 1_556 S
C791 C796 1.390 . S
C792 C786 1.465 . S
C792 C791 1.396 1_554 S
C792 C793 1.399 . S
C793 H779 0.929 . S
C793 C792 1.399 . S
C793 C794 1.385 . S
C794 H780 0.931 . S
C794 C793 1.385 . S
C794 C795 1.389 . S
C795 C794 1.389 . S
C795 C796 1.387 1_554 S
C796 H781 0.930 . S
C796 C791 1.390 . S
C796 C795 1.387 1_556 S
H797 C809 0.930 . S
H798 C811 0.930 . S
H799 C812 0.930 . S
H800 C816 0.959 . S
H801 C816 0.959 . S
H802 C816 0.961 . S
H803 C817 0.960 . S
H804 C817 0.961 . S
H805 C817 0.959 . S
H806 C820 0.929 . S
H807 C821 0.931 . S
H808 C823 0.930 . S
C809 H797 0.930 . S
C809 C810 1.399 . S
C809 C814 1.399 . S
C810 C809 1.399 . S
C810 C811 1.376 . S
C811 H798 0.930 . S
C811 C810 1.376 . S
C811 C812 1.388 . S
C812 H799 0.930 . S
C812 C811 1.388 . S
C812 C813 1.390 . S
C813 C812 1.390 . S
C813 C814 1.394 . S
C813 C819 1.465 . S
C814 C809 1.399 . S
C814 C813 1.394 . S
C814 C815 1.516 . S
C815 C814 1.516 . S
C815 C816 1.502 . S
C815 C817 1.561 . S
C815 C818 1.526 . S
C816 H800 0.959 . S
C816 H801 0.959 . S
C816 H802 0.961 . S
C816 C815 1.502 . S
C817 H803 0.960 . S
C817 H804 0.961 . S
C817 H805 0.959 . S
C817 C815 1.561 . S
C818 C815 1.526 . S
C818 C819 1.396 . S
C818 C823 1.390 . S
C819 C813 1.465 . S
C819 C818 1.396 . S
C819 C820 1.399 . S
C820 H806 0.929 . S
C820 C819 1.399 . S
C820 C821 1.385 . S
C821 H807 0.931 . S
C821 C820 1.385 . S
C821 C822 1.389 . S
C822 C821 1.389 . S
C822 C823 1.387 . S
C823 H808 0.930 . S
C823 C818 1.390 . S
C823 C822 1.387 . S
C189 C10 1.380 . S
C201 C87 1.406 . S
C216 C51 1.366 . S
C228 C32 1.367 . S
C243 C29 1.356 . S
C255 C52 1.334 . S
C270 C7 1.371 . S
C282 C76 1.390 . S
C297 C175 1.406 . S
C309 C98 1.379 . S
C324 C120 1.342 . S
C336 C139 1.381 . S
C351 C117 1.365 . S
C363 C140 1.389 . S
C378 C95 1.354 . S
C390 C164 1.379 . S
C405 C15 0.909 . S
C417 C65 0.768 . S
C432 C81 0.787 . S
C444 C37 0.901 . S
C459 C103 0.790 . S
C471 C153 0.904 . S
C486 C125 0.775 . S
C498 C169 0.911 . S
C513 C18 1.982 . S
C525 C62 2.024 . S
C540 C40 1.986 . S
C552 C74 2.020 . S
C567 C150 1.997 . S
C579 C106 2.011 . S
C594 C162 2.010 . S
C606 C128 1.996 . S
C621 C21 1.516 . S
C633 C43 1.512 . S
C648 C59 1.496 . S
C660 C73 1.502 . S
C675 C109 1.487 . S
C687 C131 1.478 . S
C702 C161 1.471 . S
C714 C147 1.469 . S
C729 C8 1.431 . S
C741 C142 1.399 . S
C756 C30 1.419 . S
C768 C172 1.415 . S
C783 C54 1.437 . S
C795 C96 1.396 . S
C810 C118 1.415 . S
C822 C84 1.418 . S
