# Generated by pormake.
# Topology umx, (4)-cn, num edge types: 1
# Building blocks:
#     Node 0, Type 0, BuildingBlock: GALJAG_clean_sbu_0, # of connection points: 4
#     Node 1, Type 0, BuildingBlock: GALJAG_clean_sbu_0, # of connection points: 4
#     Node 2, Type 0, BuildingBlock: GALJAG_clean_sbu_0, # of connection points: 4
#     Node 3, Type 0, BuildingBlock: GALJAG_clean_sbu_0, # of connection points: 4
#     Node 4, Type 0, BuildingBlock: GALJAG_clean_sbu_0, # of connection points: 4
#     Node 5, Type 0, BuildingBlock: GALJAG_clean_sbu_0, # of connection points: 4
#     Node 6, Type 0, BuildingBlock: GALJAG_clean_sbu_0, # of connection points: 4
#     Node 7, Type 0, BuildingBlock: GALJAG_clean_sbu_0, # of connection points: 4
#     Edge 8, Type (0, 0), BuildingBlock: TEMPAE_clean_linker_10, # of connection points: 2
#     Edge 9, Type (0, 0), BuildingBlock: TEMPAE_clean_linker_10, # of connection points: 2
#     Edge 10, Type (0, 0), BuildingBlock: TEMPAE_clean_linker_10, # of connection points: 2
#     Edge 11, Type (0, 0), BuildingBlock: TEMPAE_clean_linker_10, # of connection points: 2
#     Edge 12, Type (0, 0), BuildingBlock: TEMPAE_clean_linker_10, # of connection points: 2
#     Edge 13, Type (0, 0), BuildingBlock: TEMPAE_clean_linker_10, # of connection points: 2
#     Edge 14, Type (0, 0), BuildingBlock: TEMPAE_clean_linker_10, # of connection points: 2
#     Edge 15, Type (0, 0), BuildingBlock: TEMPAE_clean_linker_10, # of connection points: 2
#     Edge 16, Type (0, 0), BuildingBlock: TEMPAE_clean_linker_10, # of connection points: 2
#     Edge 17, Type (0, 0), BuildingBlock: TEMPAE_clean_linker_10, # of connection points: 2
#     Edge 18, Type (0, 0), BuildingBlock: TEMPAE_clean_linker_10, # of connection points: 2
#     Edge 19, Type (0, 0), BuildingBlock: TEMPAE_clean_linker_10, # of connection points: 2
#     Edge 20, Type (0, 0), BuildingBlock: TEMPAE_clean_linker_10, # of connection points: 2
#     Edge 21, Type (0, 0), BuildingBlock: TEMPAE_clean_linker_10, # of connection points: 2
#     Edge 22, Type (0, 0), BuildingBlock: TEMPAE_clean_linker_10, # of connection points: 2
#     Edge 23, Type (0, 0), BuildingBlock: TEMPAE_clean_linker_10, # of connection points: 2
# Relax obj value: 0.096
# Max RMSD: 0.176
# Mean RMSD: 0.176
data_MOF--net-umx--node1-GALJAG_clean_sbu_0--edge1-TEMPAE_clean_linker_10
_symmetry_space_group_name_H-M    P1
_symmetry_Int_Tables_number       1
_symmetry_cell_setting            triclinic
loop_
_symmetry_equiv_pos_as_xyz
'x, y, z'
_cell_length_a     39.30309
_cell_length_b     39.223233
_cell_length_c     28.810678
_cell_angle_alpha  90.037077
_cell_angle_beta   90.214218
_cell_angle_gamma 89.968366
loop_
_atom_site_label
_atom_site_type_symbol
_atom_site_fract_x
_atom_site_fract_y
_atom_site_fract_z
_atom_type_partial_charge
In0 In 0.17399 0.45044 0.03146 0.0
O1 O 0.20526 0.48058 0.08558 0.0
O2 O 0.15794 0.45942 0.10579 0.0
C3 C 0.20776 0.47513 0.95722 0.0
C4 C 0.19418 0.38513 0.03627 0.0
C5 C 0.10818 0.46227 0.01003 0.0
O6 O 0.19185 0.49414 0.98512 0.0
O7 O 0.20822 0.44404 0.9682 0.0
O8 O 0.11729 0.43707 0.0343 0.0
O9 O 0.13213 0.4809 0.99622 0.0
C10 C 0.1841 0.47571 0.11782 0.0
O11 O 0.17007 0.39439 0.00997 0.0
O12 O 0.2076 0.40872 0.05981 0.0
In13 In 0.55308 0.17709 0.52057 0.0
O14 O 0.61083 0.17833 0.51158 0.0
O15 O 0.58428 0.22518 0.52154 0.0
C16 C 0.53894 0.11035 0.52683 0.0
C17 C 0.53384 0.19379 0.60728 0.0
C18 C 0.52963 0.19109 0.43469 0.0
O19 O 0.56898 0.12165 0.53019 0.0
O20 O 0.51633 0.13269 0.52001 0.0
O21 O 0.5182 0.20634 0.47014 0.0
O22 O 0.55251 0.16934 0.44299 0.0
C23 C 0.61247 0.2104 0.51567 0.0
O24 O 0.51585 0.20165 0.57229 0.0
O25 O 0.56093 0.17803 0.59799 0.0
In26 In 0.79938 0.55425 0.99454 0.0
O27 O 0.77514 0.52098 0.0517 0.0
O28 O 0.80903 0.56077 0.07114 0.0
C29 C 0.77444 0.53151 0.91323 0.0
C30 C 0.76748 0.61439 0.997 0.0
C31 C 0.86551 0.53892 0.98298 0.0
O32 O 0.77531 0.51276 0.94896 0.0
O33 O 0.78566 0.56135 0.91882 0.0
O34 O 0.8556 0.56908 0.99036 0.0
O35 O 0.84216 0.517 0.98079 0.0
C36 C 0.78983 0.537 0.08424 0.0
O37 O 0.79927 0.61227 0.99056 0.0
O38 O 0.75219 0.58623 1.00157 0.0
In39 In 0.45517 0.79855 0.57688 0.0
O40 O 0.47402 0.75559 0.62465 0.0
O41 O 0.48332 0.80679 0.64497 0.0
C42 C 0.46709 0.76952 0.49314 0.0
C43 C 0.38861 0.78752 0.59304 0.0
C44 C 0.47376 0.86416 0.56718 0.0
O45 O 0.4898 0.771 0.52428 0.0
O46 O 0.4387 0.78137 0.50517 0.0
O47 O 0.44922 0.85523 0.59261 0.0
O48 O 0.48893 0.84003 0.54698 0.0
C49 C 0.48544 0.77564 0.6553 0.0
O50 O 0.39866 0.81146 0.56725 0.0
O51 O 0.41207 0.77012 0.61121 0.0
In52 In 0.18787 0.55562 0.54458 0.0
O53 O 0.21447 0.52477 0.48699 0.0
O54 O 0.17674 0.56121 0.46822 0.0
C55 C 0.21635 0.53276 0.6239 0.0
C56 C 0.21522 0.61799 0.54458 0.0
C57 C 0.12249 0.53738 0.55654 0.0
O58 O 0.21346 0.51386 0.5885 0.0
O59 O 0.20553 0.56276 0.61882 0.0
O60 O 0.13092 0.56763 0.5469 0.0
O61 O 0.14693 0.51686 0.56086 0.0
C62 C 0.198 0.53933 0.45475 0.0
O63 O 0.18508 0.61282 0.55832 0.0
O64 O 0.23102 0.59175 0.53094 0.0
In65 In 0.42673 0.17559 0.02119 0.0
O66 O 0.36851 0.17589 0.02269 0.0
O67 O 0.39459 0.22142 1.00397 0.0
C68 C 0.44167 0.10926 0.0307 0.0
C69 C 0.45359 0.18618 0.9366 0.0
C70 C 0.44399 0.19676 0.10715 0.0
O71 O 0.41282 0.11926 0.01666 0.0
O72 O 0.46267 0.13266 0.03988 0.0
O73 O 0.46248 0.20307 0.07226 0.0
O74 O 0.41695 0.18074 0.09806 0.0
C75 C 0.36645 0.20679 0.01055 0.0
O76 O 0.46186 0.20448 0.97106 0.0
O77 O 0.43257 0.16283 0.94539 0.0
In78 In 0.8162 0.44511 0.50594 0.0
O79 O 0.78468 0.47527 0.45237 0.0
O80 O 0.83368 0.45761 0.43309 0.0
C81 C 0.78249 0.47027 0.57995 0.0
C82 C 0.79486 0.38033 0.49742 0.0
C83 C 0.88206 0.45501 0.52892 0.0
O84 O 0.79814 0.48908 0.5516 0.0
O85 O 0.78209 0.43908 0.56942 0.0
O86 O 0.87277 0.43079 0.50294 0.0
O87 O 0.85827 0.47356 0.5435 0.0
C88 C 0.80682 0.47271 0.42087 0.0
O89 O 0.81729 0.38878 0.5268 0.0
O90 O 0.7837 0.4044 0.47271 0.0
In91 In 0.53549 0.79944 0.06802 0.0
O92 O 0.58623 0.80868 0.03182 0.0
O93 O 0.58657 0.78153 0.09559 0.0
C94 C 0.51466 0.8644 0.0581 0.0
C95 C 0.51099 0.76333 0.99474 0.0
C96 C 0.51931 0.78246 0.15598 0.0
O97 O 0.54411 0.85478 0.04661 0.0
O98 O 0.49589 0.84134 0.07448 0.0
O99 O 0.51268 0.76281 0.12225 0.0
O100 O 0.53374 0.80995 0.14493 0.0
C101 C 0.60348 0.79263 0.0617 0.0
O102 O 0.49498 0.78777 0.0128 0.0
O103 O 0.5377 0.75519 0.01624 0.0
C104 C 0.16622 0.47669 0.20053 0.0
C105 C 0.18988 0.48612 0.16658 0.0
C106 C 0.17119 0.48517 0.24728 0.0
C107 C 0.20048 0.50379 0.26054 0.0
C108 C 0.22464 0.51328 0.22652 0.0
C109 C 0.21909 0.50424 0.17982 0.0
C110 C 0.14479 0.47453 0.28242 0.0
C111 C 0.25605 0.53333 0.2394 0.0
C112 C 0.18773 0.55337 0.37175 0.0
C113 C 0.20229 0.53156 0.4049 0.0
C114 C 0.18872 0.54552 0.32436 0.0
C115 C 0.20436 0.5149 0.30966 0.0
C116 C 0.2204 0.49343 0.34275 0.0
C117 C 0.21931 0.50212 0.39012 0.0
C118 C 0.17154 0.56925 0.29026 0.0
C119 C 0.23722 0.4605 0.32837 0.0
H120 H 0.14368 0.46248 0.19061 0.0
H121 H 0.23753 0.51142 0.15372 0.0
H122 H 0.15694 0.45969 0.31075 0.0
H123 H 0.13313 0.49747 0.29836 0.0
H124 H 0.12423 0.45883 0.26672 0.0
H125 H 0.27307 0.53748 0.20923 0.0
H126 H 0.24858 0.55852 0.25365 0.0
H127 H 0.27051 0.51984 0.26696 0.0
H128 H 0.17489 0.5764 0.38294 0.0
H129 H 0.23067 0.48527 0.41564 0.0
H130 H 0.14865 0.55667 0.27549 0.0
H131 H 0.18883 0.57509 0.26098 0.0
H132 H 0.16357 0.5936 0.30668 0.0
H133 H 0.21755 0.44225 0.31623 0.0
H134 H 0.25163 0.44857 0.35736 0.0
H135 H 0.25483 0.46496 0.29899 0.0
C136 C 0.54551 0.19065 0.69211 0.0
C137 C 0.52362 0.20031 0.65585 0.0
C138 C 0.53524 0.19268 0.73852 0.0
C139 C 0.50227 0.20481 0.74905 0.0
C140 C 0.48074 0.2165 0.71281 0.0
C141 C 0.49166 0.21403 0.66649 0.0
C142 C 0.55896 0.17982 0.77602 0.0
C143 C 0.44553 0.22994 0.72278 0.0
C144 C 0.46147 0.1661 0.85556 0.0
C145 C 0.46657 0.19151 0.88908 0.0
C146 C 0.47266 0.17039 0.80987 0.0
C147 C 0.48902 0.2011 0.79709 0.0
C148 C 0.49399 0.22709 0.83063 0.0
C149 C 0.4829 0.22187 0.87648 0.0
C150 C 0.46735 0.14179 0.77542 0.0
C151 C 0.51102 0.26028 0.81806 0.0
H152 H 0.57041 0.18031 0.68418 0.0
H153 H 0.47473 0.22173 0.63861 0.0
H154 H 0.561 0.19868 0.80459 0.0
H155 H 0.54856 0.15597 0.79103 0.0
H156 H 0.58488 0.17447 0.76261 0.0
H157 H 0.43381 0.24217 0.69184 0.0
H158 H 0.42892 0.20863 0.73397 0.0
H159 H 0.44634 0.24874 0.75155 0.0
H160 H 0.44891 0.14254 0.86515 0.0
H161 H 0.48662 0.24168 0.90225 0.0
H162 H 0.49229 0.13287 0.76216 0.0
H163 H 0.45243 0.15107 0.74521 0.0
H164 H 0.45381 0.1197 0.79085 0.0
H165 H 0.53745 0.25538 0.80644 0.0
H166 H 0.51177 0.27842 0.84767 0.0
H167 H 0.49735 0.27246 0.78866 0.0
C168 C 0.77035 0.49875 0.35853 0.0
C169 C 0.80119 0.48385 0.37239 0.0
C170 C 0.76456 0.50768 0.31187 0.0
C171 C 0.7902 0.50141 0.27848 0.0
C172 C 0.82133 0.48635 0.29241 0.0
C173 C 0.82646 0.47786 0.33913 0.0
C174 C 0.73117 0.52393 0.2983 0.0
C175 C 0.84937 0.47931 0.25796 0.0
C176 C 0.77273 0.49746 0.14859 0.0
C177 C 0.78602 0.5288 0.13403 0.0
C178 C 0.77249 0.48866 0.19594 0.0
C179 C 0.78552 0.51193 0.22924 0.0
C180 C 0.7973 0.54427 0.21475 0.0
C181 C 0.79756 0.55221 0.16737 0.0
C182 C 0.75984 0.45388 0.2101 0.0
C183 C 0.81111 0.56994 0.24909 0.0
H184 H 0.75067 0.50326 0.38408 0.0
H185 H 0.85031 0.46621 0.34954 0.0
H186 H 0.73578 0.54963 0.28354 0.0
H187 H 0.7185 0.50854 0.27094 0.0
H188 H 0.71359 0.52647 0.32822 0.0
H189 H 0.87162 0.46646 0.27419 0.0
H190 H 0.83966 0.46298 0.22939 0.0
H191 H 0.85811 0.50357 0.24222 0.0
H192 H 0.76373 0.47935 0.12291 0.0
H193 H 0.80751 0.57667 0.15635 0.0
H194 H 0.74139 0.45613 0.23898 0.0
H195 H 0.78153 0.43833 0.22288 0.0
H196 H 0.74749 0.44013 0.18083 0.0
H197 H 0.793 0.5736 0.2781 0.0
H198 H 0.81612 0.59509 0.23277 0.0
H199 H 0.83527 0.5603 0.26422 0.0
C200 C 0.52895 0.73356 0.92223 0.0
C201 C 0.5039 0.75146 0.94689 0.0
C202 C 0.52712 0.73039 0.8737 0.0
C203 C 0.49943 0.74522 0.84947 0.0
C204 C 0.47244 0.76028 0.87473 0.0
C205 C 0.47507 0.76334 0.92316 0.0
C206 C 0.55631 0.71393 0.84821 0.0
C207 C 0.44212 0.77583 0.85033 0.0
C208 C 0.51158 0.78727 0.73244 0.0
C209 C 0.49493 0.76449 0.70261 0.0
C210 C 0.51493 0.78022 0.77993 0.0
C211 C 0.50092 0.74979 0.79818 0.0
C212 C 0.4859 0.7257 0.76775 0.0
C213 C 0.48321 0.73328 0.72015 0.0
C214 C 0.53174 0.80636 0.81097 0.0
C215 C 0.47069 0.693 0.78578 0.0
H216 H 0.55133 0.72424 0.94033 0.0
H217 H 0.45552 0.777 0.94205 0.0
H218 H 0.54687 0.69744 0.81965 0.0
H219 H 0.57237 0.73406 0.83244 0.0
H220 H 0.57254 0.69841 0.87177 0.0
H221 H 0.42136 0.78229 0.87488 0.0
H222 H 0.45008 0.79953 0.83237 0.0
H223 H 0.43199 0.75814 0.8236 0.0
H224 H 0.52081 0.81134 0.71895 0.0
H225 H 0.47011 0.71567 0.69723 0.0
H226 H 0.55133 0.79408 0.83317 0.0
H227 H 0.51246 0.81783 0.83431 0.0
H228 H 0.54396 0.82716 0.79087 0.0
H229 H 0.48807 0.68061 0.81109 0.0
H230 H 0.46502 0.67471 0.75733 0.0
H231 H 0.44662 0.6988 0.80419 0.0
C232 C 0.74649 0.4654 0.65102 0.0
C233 C 0.77206 0.48229 0.62627 0.0
C234 C 0.74043 0.47311 0.69794 0.0
C235 C 0.76153 0.49706 0.72096 0.0
C236 C 0.78676 0.51482 0.6956 0.0
C237 C 0.79122 0.50769 0.64833 0.0
C238 C 0.7123 0.45477 0.7232 0.0
C239 C 0.8105 0.53985 0.719 0.0
C240 C 0.74519 0.53894 0.8373 0.0
C241 C 0.76525 0.51887 0.86681 0.0
C242 C 0.74121 0.53036 0.79028 0.0
C243 C 0.7592 0.5021 0.77208 0.0
C244 C 0.7784 0.48098 0.80237 0.0
C245 C 0.78064 0.4893 0.8497 0.0
C246 C 0.71923 0.55257 0.75967 0.0
C247 C 0.79884 0.45124 0.78425 0.0
H248 H 0.73169 0.44571 0.63391 0.0
H249 H 0.81136 0.5204 0.6294 0.0
H250 H 0.7234 0.43561 0.74716 0.0
H251 H 0.69734 0.47297 0.74447 0.0
H252 H 0.6948 0.44142 0.69887 0.0
H253 H 0.82872 0.55152 0.69428 0.0
H254 H 0.79575 0.56053 0.73578 0.0
H255 H 0.82519 0.52669 0.74667 0.0
H256 H 0.7333 0.56183 0.8508 0.0
H257 H 0.79654 0.47415 0.87259 0.0
H258 H 0.70341 0.53669 0.73612 0.0
H259 H 0.7356 0.56893 0.73771 0.0
H260 H 0.70226 0.56935 0.78033 0.0
H261 H 0.78249 0.43398 0.76342 0.0
H262 H 0.81085 0.43626 0.81264 0.0
H263 H 0.8192 0.46079 0.76103 0.0
C264 C 0.51253 0.80077 0.23796 0.0
C265 C 0.51118 0.77458 0.2049 0.0
C266 C 0.50535 0.79452 0.28473 0.0
C267 C 0.49706 0.76104 0.29915 0.0
C268 C 0.49598 0.7343 0.26606 0.0
C269 C 0.50279 0.74146 0.2191 0.0
C270 C 0.50625 0.82394 0.31863 0.0
C271 C 0.48771 0.69825 0.28032 0.0
C272 C 0.507 0.75228 0.42954 0.0
C273 C 0.47391 0.75974 0.44441 0.0
C274 C 0.51451 0.74964 0.38197 0.0
C275 C 0.48837 0.75496 0.34873 0.0
C276 C 0.45448 0.75985 0.36377 0.0
C277 C 0.44766 0.76201 0.41141 0.0
C278 C 0.55086 0.74373 0.36733 0.0
C279 C 0.42584 0.76584 0.32964 0.0
H280 H 0.51888 0.82646 0.22716 0.0
H281 H 0.50196 0.72111 0.19365 0.0
H282 H 0.481 0.82693 0.33527 0.0
H283 H 0.52501 0.81873 0.34659 0.0
H284 H 0.51309 0.84843 0.30172 0.0
H285 H 0.48897 0.68017 0.25068 0.0
H286 H 0.50571 0.68966 0.30767 0.0
H287 H 0.46179 0.6972 0.29537 0.0
H288 H 0.52736 0.75026 0.45488 0.0
H289 H 0.42193 0.76749 0.42264 0.0
H290 H 0.56189 0.76803 0.35467 0.0
H291 H 0.55204 0.7251 0.33838 0.0
H292 H 0.56685 0.73428 0.39649 0.0
H293 H 0.42876 0.79145 0.31378 0.0
H294 H 0.40049 0.76458 0.34648 0.0
H295 H 0.42663 0.74685 0.30114 0.0
C296 C 0.1996 0.51175 0.88796 0.0
C297 C 0.21867 0.48675 0.91096 0.0
C298 C 0.20456 0.51828 0.84063 0.0
C299 C 0.23018 0.50031 0.8162 0.0
C300 C 0.25124 0.47687 0.84023 0.0
C301 C 0.2447 0.46975 0.88718 0.0
C302 C 0.1809 0.54283 0.81617 0.0
C303 C 0.2798 0.45838 0.81601 0.0
C304 C 0.21157 0.49059 0.68762 0.0
C305 C 0.22656 0.52016 0.66994 0.0
C306 C 0.21396 0.48279 0.73509 0.0
C307 C 0.23288 0.50448 0.76497 0.0
C308 C 0.25069 0.5326 0.74619 0.0
C309 C 0.2466 0.54062 0.69902 0.0
C310 C 0.19378 0.45311 0.75381 0.0
C311 C 0.27239 0.55541 0.77636 0.0
H312 H 0.17915 0.52455 0.90618 0.0
H313 H 0.25945 0.45038 0.90504 0.0
H314 H 0.19569 0.56333 0.79912 0.0
H315 H 0.16655 0.52919 0.78859 0.0
H316 H 0.16238 0.55478 0.84026 0.0
H317 H 0.29733 0.44582 0.84106 0.0
H318 H 0.26913 0.43853 0.79273 0.0
H319 H 0.29464 0.47629 0.7942 0.0
H320 H 0.19567 0.47512 0.66511 0.0
H321 H 0.25817 0.56353 0.68514 0.0
H322 H 0.17312 0.4628 0.77643 0.0
H323 H 0.2102 0.43642 0.77538 0.0
H324 H 0.18221 0.4375 0.7257 0.0
H325 H 0.25581 0.57222 0.79744 0.0
H326 H 0.28952 0.57176 0.75537 0.0
H327 H 0.28804 0.54002 0.80072 0.0
C328 C 0.52448 0.17329 0.35214 0.0
C329 C 0.51693 0.19704 0.38698 0.0
C330 C 0.51222 0.17744 0.30679 0.0
C331 C 0.49237 0.20645 0.29563 0.0
C332 C 0.48533 0.23104 0.33037 0.0
C333 C 0.49742 0.22585 0.37589 0.0
C334 C 0.51982 0.15026 0.27109 0.0
C335 C 0.46478 0.26257 0.31952 0.0
C336 C 0.48512 0.22073 0.16554 0.0
C337 C 0.45434 0.20419 0.15558 0.0
C338 C 0.49686 0.22379 0.21155 0.0
C339 C 0.47755 0.20954 0.24818 0.0
C340 C 0.44563 0.19442 0.23841 0.0
C341 C 0.43435 0.19213 0.19231 0.0
C342 C 0.53072 0.24067 0.22068 0.0
C343 C 0.42437 0.17859 0.27628 0.0
H344 H 0.53947 0.1509 0.36054 0.0
H345 H 0.49175 0.2444 0.40269 0.0
H346 H 0.49569 0.13894 0.25822 0.0
H347 H 0.53294 0.16165 0.24083 0.0
H348 H 0.53601 0.12948 0.28527 0.0
H349 H 0.46358 0.28038 0.34947 0.0
H350 H 0.47593 0.27616 0.28944 0.0
H351 H 0.43846 0.25526 0.30969 0.0
H352 H 0.50057 0.23031 0.13732 0.0
H353 H 0.41043 0.17945 0.18493 0.0
H354 H 0.54982 0.22102 0.23021 0.0
H355 H 0.52879 0.25866 0.25029 0.0
H356 H 0.54014 0.25472 0.18983 0.0
H357 H 0.43764 0.15579 0.29023 0.0
H358 H 0.39884 0.17067 0.26358 0.0
H359 H 0.42103 0.19672 0.30545 0.0
C360 C 0.91098 0.49868 0.95857 0.0
C361 C 0.90163 0.52917 0.98047 0.0
C362 C 0.94478 0.48727 0.9595 0.0
C363 C 0.96951 0.50639 0.98401 0.0
C364 C 0.9603 0.53756 0.00546 0.0
C365 C 0.92645 0.54882 1.0029 0.0
C366 C 0.95384 0.45441 0.93514 0.0
C367 C 0.98588 0.55832 0.03262 0.0
C368 C 0.04684 0.45978 0.03123 0.0
C369 C 0.07232 0.471 1.00106 0.0
C370 C 0.01315 0.47097 0.02589 0.0
C371 C 0.00475 0.49317 0.9888 0.0
C372 C 0.03019 0.50343 0.95713 0.0
C373 C 0.06382 0.49256 0.96403 0.0
C374 C 0.9868 0.45997 0.06083 0.0
C375 C 0.02201 0.52631 0.91646 0.0
H376 H 0.89175 0.48358 0.94099 0.0
H377 H 0.91913 0.57226 0.02016 0.0
H378 H 0.97578 0.45849 0.91166 0.0
H379 H 0.96162 0.43499 0.96106 0.0
H380 H 0.93224 0.44408 0.91452 0.0
H381 H 0.97475 0.58227 0.04649 0.0
H382 H -0.00421 0.54303 0.06213 0.0
H383 H 0.00788 0.5649 0.01038 0.0
H384 H 0.0535 0.44332 0.06009 0.0
H385 H 0.08355 0.5011 0.94054 0.0
H386 H 0.96536 0.447 0.043 0.0
H387 H 0.9762 0.48271 0.07863 0.0
H388 H -0.00256 0.44244 0.08746 0.0
H389 H 0.00072 0.51542 0.89586 0.0
H390 H 0.04422 0.52998 0.89325 0.0
H391 H 0.01361 0.55164 0.92918 0.0
C392 C 0.50356 0.90972 0.52301 0.0
C393 C 0.484 0.90003 0.56134 0.0
C394 C 0.51308 0.94382 0.51647 0.0
C395 C 0.50344 0.96857 0.54968 0.0
C396 C 0.48412 0.9588 0.58887 0.0
C397 C 0.47427 0.92463 0.59395 0.0
C398 C 0.53302 0.95344 0.47372 0.0
C399 C 0.47393 0.9844 0.62545 0.0
C400 C 0.55316 0.0515 0.55344 0.0
C401 C 0.53052 0.07392 0.53145 0.0
C402 C 0.54459 0.0171 0.5599 0.0
C403 C 0.51301 0.00484 0.54299 0.0
C404 C 0.4904 0.02728 0.51989 0.0
C405 C 0.49928 0.06167 0.51486 0.0
C406 C 0.56905 0.99403 0.58547 0.0
C407 C 0.45681 0.01497 0.50053 0.0
H408 H 0.51093 0.89071 0.49762 0.0
H409 H 0.45931 0.91709 0.62377 0.0
H410 H 0.51871 0.97274 0.45334 0.0
H411 H 0.55761 0.96516 0.48389 0.0
H412 H 0.53823 0.93114 0.45103 0.0
H413 H 0.46007 0.97239 0.65473 0.0
H414 H 0.49685 -0.00259 0.63939 0.0
H415 H 0.4574 0.00428 0.60984 0.0
H416 H 0.57723 0.06103 0.56656 0.0
H417 H 0.48183 0.07897 0.4976 0.0
H418 H 0.57653 0.97237 0.56293 0.0
H419 H 0.55644 0.98312 0.61649 0.0
H420 H 0.59243 0.00764 0.59682 0.0
H421 H 0.46111 0.99352 0.4761 0.0
H422 H 0.4427 0.03544 0.48202 0.0
H423 H 0.4406 0.00522 0.52902 0.0
C424 C 0.06109 0.54457 0.53702 0.0
C425 C 0.08686 0.52592 0.55905 0.0
C426 C 0.02776 0.5319 0.53469 0.0
C427 C 0.02003 0.50024 0.55583 0.0
C428 C 0.04571 0.48203 0.57981 0.0
C429 C 0.07897 0.49493 0.58066 0.0
C430 C 0.0011 0.55181 0.50827 0.0
C431 C 0.03822 0.44865 0.60375 0.0
C432 C 0.9263 0.48403 0.57654 0.0
C433 C 0.91795 0.46314 0.53869 0.0
C434 C 0.95979 0.49515 0.58369 0.0
C435 C 0.98526 0.4858 0.55154 0.0
C436 C 0.97712 0.46393 0.51395 0.0
C437 C 0.94353 0.45251 0.50827 0.0
C438 C 0.96769 0.51769 0.62486 0.0
C439 C 0.00355 0.4538 0.4786 0.0
H440 H 0.06725 0.56842 0.52002 0.0
H441 H 0.09891 0.48058 0.59794 0.0
H442 H 0.99134 0.53626 0.47891 0.0
H443 H 0.97919 0.55757 0.53112 0.0
H444 H 0.01118 0.57617 0.49429 0.0
H445 H 0.06045 0.43894 0.62367 0.0
H446 H 0.01644 0.4517 0.62781 0.0
H447 H 0.03084 0.42918 0.57766 0.0
H448 H 0.90649 0.49207 0.60026 0.0
H449 H 0.93701 0.43654 0.47883 0.0
H450 H 0.97476 0.54354 0.61266 0.0
H451 H 0.98975 0.50741 0.6445 0.0
H452 H 0.94572 0.52006 0.64881 0.0
H453 H 0.01299 0.47687 0.46045 0.0
H454 H -0.00665 0.43575 0.45229 0.0
H455 H 0.0257 0.44179 0.49606 0.0
C456 C 0.51928 0.92209 0.02239 0.0
C457 C 0.50302 0.89991 0.05323 0.0
C458 C 0.50827 0.95592 0.01744 0.0
C459 C 0.48097 0.96793 0.04491 0.0
C460 C 0.46458 0.94563 0.07627 0.0
C461 C 0.47556 0.91171 0.07963 0.0
C462 C 0.52588 0.97881 0.98293 0.0
C463 C 0.43591 0.95776 0.1069 0.0
C464 C 0.47703 0.06327 0.06539 0.0
C465 C 0.45071 0.07301 0.03528 0.0
C466 C 0.48669 0.02902 0.06949 0.0
C467 C 0.4702 0.00413 0.04184 0.0
C468 C 0.44366 0.01387 0.01123 0.0
C469 C 0.43389 0.04824 0.00878 0.0
C470 C 0.51452 0.01948 0.10337 0.0
C471 C 0.42604 0.9881 0.98049 0.0
H472 H 0.54037 0.91286 1.00171 0.0
H473 H 0.46308 0.89458 0.10368 0.0
H474 H 0.50695 0.9899 0.95857 0.0
H475 H 0.5383 0.00033 1.00134 0.0
H476 H 0.54548 0.96502 0.96252 0.0
H477 H 0.42588 0.93715 0.12947 0.0
H478 H 0.4449 0.97899 0.12927 0.0
H479 H 0.41473 0.96778 0.08533 0.0
H480 H 0.48989 0.08246 0.08611 0.0
H481 H 0.4137 0.05588 0.98522 0.0
H482 H 0.53637 0.00828 0.08447 0.0
H483 H 0.50514 -0.00018 0.12787 0.0
H484 H 0.52374 0.04174 0.1237 0.0
H485 H 0.44498 0.97538 0.95783 0.0
H486 H 0.40614 -9e-05 0.95823 0.0
H487 H 0.41407 0.968 1.00198 0.0
C488 C 0.20259 0.32842 0.9984 0.0
C489 C 0.2088 0.35056 0.03568 0.0
C490 C 0.22221 0.29879 0.99266 0.0
C491 C 0.24839 0.29143 0.02501 0.0
C492 C 0.2523 0.31197 0.0651 0.0
C493 C 0.23248 0.34136 0.06986 0.0
C494 C 0.2169 0.27715 0.94994 0.0
C495 C 0.27964 0.3048 0.1008 0.0
C496 C 0.30426 0.21266 0.02732 0.0
C497 C 0.33407 0.22559 0.0074 0.0
C498 C 0.2749 0.23298 0.0305 0.0
C499 C 0.27567 0.26678 0.01334 0.0
C500 C 0.30495 0.27889 0.99011 0.0
C501 C 0.3338 0.25814 0.98752 0.0
C502 C 0.24398 0.21907 0.05489 0.0
C503 C 0.30676 0.31467 0.97083 0.0
H504 H 0.18406 0.33537 0.97208 0.0
H505 H 0.23689 0.35817 0.09916 0.0
H506 H 0.23649 0.28367 0.92377 0.0
H507 H 0.21966 0.24966 0.95819 0.0
H508 H 0.19143 0.28152 0.93415 0.0
H509 H 0.27639 0.32041 0.13267 0.0
H510 H 0.27958 0.27748 0.11067 0.0
H511 H 0.30494 0.31061 0.08577 0.0
H512 H 0.30436 0.18736 0.04246 0.0
H513 H 0.35667 0.26799 0.97143 0.0
H514 H 0.22026 0.22689 0.0368 0.0
H515 H 0.24298 0.22951 0.09065 0.0
H516 H 0.24467 0.1908 0.0572 0.0
H517 H 0.28429 0.32002 0.94859 0.0
H518 H 0.33012 0.31895 0.95005 0.0
H519 H 0.30652 0.33332 0.99983 0.0
C520 C 0.75962 0.337 0.45714 0.0
C521 C 0.77911 0.34632 0.4959 0.0
C522 C 0.73778 0.30887 0.45882 0.0
C523 C 0.73511 0.29005 0.50053 0.0
C524 C 0.75729 0.29729 0.53812 0.0
C525 C 0.77928 0.32539 0.53527 0.0
C526 C 0.71504 0.30162 0.41763 0.0
C527 C 0.75533 0.27768 0.58308 0.0
C528 C 0.64468 0.26416 0.52626 0.0
C529 C 0.64465 0.22961 0.51403 0.0
C530 C 0.67435 0.28363 0.52354 0.0
C531 C 0.70479 0.26823 0.50778 0.0
C532 C 0.70523 0.23312 0.49644 0.0
C533 C 0.67503 0.2141 0.49983 0.0
C534 C 0.67283 0.32099 0.53637 0.0
C535 C 0.73721 0.21597 0.47938 0.0
H536 H 0.75992 0.3529 0.42637 0.0
H537 H 0.7945 0.33251 0.5652 0.0
H538 H 0.71321 0.27382 0.41112 0.0
H539 H 0.68901 0.31113 0.42498 0.0
H540 H 0.72432 0.31431 0.38562 0.0
H541 H 0.77839 0.28159 0.60486 0.0
H542 H 0.73287 0.28649 0.60301 0.0
H543 H 0.75211 0.25 0.57648 0.0
H544 H 0.62131 0.27617 0.5377 0.0
H545 H 0.67505 0.18733 0.49044 0.0
H546 H 0.67813 0.33682 0.50533 0.0
H547 H 0.69255 0.327 0.56277 0.0
H548 H 0.64761 0.32849 0.55037 0.0
H549 H 0.74362 0.22578 0.44439 0.0
H550 H 0.73435 0.18783 0.47721 0.0
H551 H 0.75898 0.22199 0.50259 0.0
C552 C 0.76702 0.67788 0.00674 0.0
C553 C 0.7493 0.64714 1.00084 0.0
C554 C 0.74943 0.70853 0.01473 0.0
C555 C 0.71346 0.70817 0.0167 0.0
C556 C 0.69554 0.67738 0.00866 0.0
C557 C 0.7137 0.64728 1.00098 0.0
C558 C 0.76935 0.74086 0.02299 0.0
C559 C 0.6571 0.6759 0.00984 0.0
C560 C 0.65628 0.76365 0.08802 0.0
C561 C 0.63848 0.78084 0.05294 0.0
C562 C 0.68406 0.74275 0.07729 0.0
C563 C 0.6939 0.73892 0.03036 0.0
C564 C 0.67885 0.7597 0.99578 0.0
C565 C 0.65123 0.78062 0.00756 0.0
C566 C 0.69996 0.72162 0.1154 0.0
C567 C 0.68902 0.7568 0.94549 0.0
H568 H 0.7946 0.67781 0.00661 0.0
H569 H 0.69992 0.62361 0.99594 0.0
H570 H 0.75766 0.76264 0.00424 0.0
H571 H 0.76903 0.74709 0.06054 0.0
H572 H 0.79628 0.73826 0.01193 0.0
H573 H 0.64714 0.65028 1.00053 0.0
H574 H 0.64798 0.68243 0.04516 0.0
H575 H 0.64612 0.69483 0.98542 0.0
H576 H 0.6468 0.76427 0.12332 0.0
H577 H 0.63773 0.79419 0.98036 0.0
H578 H 0.72798 0.72032 0.1113 0.0
H579 H 0.68996 0.6952 0.1134 0.0
H580 H 0.6941 0.732 0.15036 0.0
H581 H 0.71695 0.75364 0.94205 0.0
H582 H 0.6809 0.77951 0.92524 0.0
H583 H 0.67672 0.73398 0.93004 0.0
C584 C 0.32988 0.78552 0.56 0.0
C585 C 0.35293 0.77617 0.59498 0.0
C586 C 0.29981 0.76684 0.5531 0.0
C587 C 0.29309 0.73837 0.58179 0.0
C588 C 0.31403 0.73195 0.6209 0.0
C589 C 0.3438 0.75098 0.627 0.0
C590 C 0.27742 0.77519 0.51202 0.0
C591 C 0.30743 0.70226 0.65298 0.0
C592 C 0.21766 0.67837 0.57288 0.0
C593 C 0.23222 0.6514 0.54788 0.0
C594 C 0.23625 0.70831 0.5817 0.0
C595 C 0.27006 0.71092 0.56535 0.0
C596 C 0.28385 0.68465 0.53736 0.0
C597 C 0.26472 0.65527 0.52895 0.0
C598 C 0.2204 0.73602 0.61082 0.0
C599 C 0.31974 0.68646 0.51877 0.0
H600 H 0.33667 0.80534 0.53552 0.0
H601 H 0.3613 0.7442 0.65469 0.0
H602 H 0.28407 0.75819 0.48262 0.0
H603 H 0.25019 0.77099 0.52032 0.0
H604 H 0.28092 0.802 0.50057 0.0
H605 H 0.32275 0.70397 0.68538 0.0
H606 H 0.28013 0.70093 0.66233 0.0
H607 H 0.31412 0.67814 0.63502 0.0
H608 H 0.19239 0.67554 0.5873 0.0
H609 H 0.27586 0.63466 0.50902 0.0
H610 H 0.22857 0.76168 0.59911 0.0
H611 H 0.22866 0.73292 0.64744 0.0
H612 H 0.19217 0.7347 0.60978 0.0
H613 H 0.32367 0.71068 0.4997 0.0
H614 H 0.3257 0.66494 0.49506 0.0
H615 H 0.33815 0.68592 0.54807 0.0
loop_
_geom_bond_atom_site_label_1
_geom_bond_atom_site_label_2
_geom_bond_distance
_geom_bond_site_symmetry_2
_ccdc_geom_bond_type
In0 O1 2.294 . S
In0 O2 2.326 . S
In0 O6 2.266 1_554 S
In0 O7 2.326 1_554 S
In0 O8 2.266 . S
In0 O9 2.326 . S
In0 O11 2.294 . S
In0 O12 2.326 . S
O1 In0 2.294 . S
O1 C10 1.240 . S
O2 In0 2.326 . S
O2 C10 1.252 . S
C3 O6 1.252 . S
C3 O7 1.260 . S
C4 O11 1.240 . S
C4 O12 1.252 . S
C5 O8 1.252 . S
C5 O9 1.260 . S
O6 In0 2.266 1_556 S
O6 C3 1.252 . S
O7 In0 2.326 1_556 S
O7 C3 1.260 . S
O8 In0 2.266 . S
O8 C5 1.252 . S
O9 In0 2.326 . S
O9 C5 1.260 . S
C10 O1 1.240 . S
C10 O2 1.252 . S
O11 In0 2.294 . S
O11 C4 1.240 . S
O12 In0 2.326 . S
O12 C4 1.252 . S
In13 O14 2.294 . S
In13 O15 2.326 . S
In13 O19 2.266 . S
In13 O20 2.326 . S
In13 O21 2.266 . S
In13 O22 2.326 . S
In13 O24 2.294 . S
In13 O25 2.326 . S
O14 In13 2.294 . S
O14 C23 1.240 . S
O15 In13 2.326 . S
O15 C23 1.252 . S
C16 O19 1.252 . S
C16 O20 1.260 . S
C17 O24 1.240 . S
C17 O25 1.252 . S
C18 O21 1.252 . S
C18 O22 1.260 . S
O19 In13 2.266 . S
O19 C16 1.252 . S
O20 In13 2.326 . S
O20 C16 1.260 . S
O21 In13 2.266 . S
O21 C18 1.252 . S
O22 In13 2.326 . S
O22 C18 1.260 . S
C23 O14 1.240 . S
C23 O15 1.252 . S
O24 In13 2.294 . S
O24 C17 1.240 . S
O25 In13 2.326 . S
O25 C17 1.252 . S
In26 O27 2.294 . S
In26 O28 2.326 . S
In26 O32 2.266 1_554 S
In26 O33 2.326 1_554 S
In26 O34 2.266 . S
In26 O35 2.326 . S
In26 O37 2.294 . S
In26 O38 2.326 . S
O27 In26 2.294 . S
O27 C36 1.240 . S
O28 In26 2.326 . S
O28 C36 1.252 . S
C29 O32 1.252 . S
C29 O33 1.260 . S
C30 O37 1.240 . S
C30 O38 1.252 . S
C31 O34 1.252 . S
C31 O35 1.260 . S
O32 In26 2.266 1_556 S
O32 C29 1.252 . S
O33 In26 2.326 1_556 S
O33 C29 1.260 . S
O34 In26 2.266 . S
O34 C31 1.252 . S
O35 In26 2.326 . S
O35 C31 1.260 . S
C36 O27 1.240 . S
C36 O28 1.252 . S
O37 In26 2.294 . S
O37 C30 1.240 . S
O38 In26 2.326 . S
O38 C30 1.252 . S
In39 O40 2.294 . S
In39 O41 2.326 . S
In39 O45 2.266 . S
In39 O46 2.326 . S
In39 O47 2.266 . S
In39 O48 2.326 . S
In39 O50 2.294 . S
In39 O51 2.326 . S
O40 In39 2.294 . S
O40 C49 1.240 . S
O41 In39 2.326 . S
O41 C49 1.252 . S
C42 O45 1.252 . S
C42 O46 1.260 . S
C43 O50 1.240 . S
C43 O51 1.252 . S
C44 O47 1.252 . S
C44 O48 1.260 . S
O45 In39 2.266 . S
O45 C42 1.252 . S
O46 In39 2.326 . S
O46 C42 1.260 . S
O47 In39 2.266 . S
O47 C44 1.252 . S
O48 In39 2.326 . S
O48 C44 1.260 . S
C49 O40 1.240 . S
C49 O41 1.252 . S
O50 In39 2.294 . S
O50 C43 1.240 . S
O51 In39 2.326 . S
O51 C43 1.252 . S
In52 O53 2.294 . S
In52 O54 2.326 . S
In52 O58 2.266 . S
In52 O59 2.326 . S
In52 O60 2.266 . S
In52 O61 2.326 . S
In52 O63 2.294 . S
In52 O64 2.326 . S
O53 In52 2.294 . S
O53 C62 1.240 . S
O54 In52 2.326 . S
O54 C62 1.252 . S
C55 O58 1.252 . S
C55 O59 1.260 . S
C56 O63 1.240 . S
C56 O64 1.252 . S
C57 O60 1.252 . S
C57 O61 1.260 . S
O58 In52 2.266 . S
O58 C55 1.252 . S
O59 In52 2.326 . S
O59 C55 1.260 . S
O60 In52 2.266 . S
O60 C57 1.252 . S
O61 In52 2.326 . S
O61 C57 1.260 . S
C62 O53 1.240 . S
C62 O54 1.252 . S
O63 In52 2.294 . S
O63 C56 1.240 . S
O64 In52 2.326 . S
O64 C56 1.252 . S
In65 O66 2.294 . S
In65 O67 2.326 . S
In65 O71 2.266 . S
In65 O72 2.326 . S
In65 O73 2.266 . S
In65 O74 2.326 . S
In65 O76 2.294 1_554 S
In65 O77 2.326 1_554 S
O66 In65 2.294 . S
O66 C75 1.240 . S
O67 In65 2.326 . S
O67 C75 1.252 . S
C68 O71 1.252 . S
C68 O72 1.260 . S
C69 O76 1.240 . S
C69 O77 1.252 . S
C70 O73 1.252 . S
C70 O74 1.260 . S
O71 In65 2.266 . S
O71 C68 1.252 . S
O72 In65 2.326 . S
O72 C68 1.260 . S
O73 In65 2.266 . S
O73 C70 1.252 . S
O74 In65 2.326 . S
O74 C70 1.260 . S
C75 O66 1.240 . S
C75 O67 1.252 . S
O76 In65 2.294 1_556 S
O76 C69 1.240 . S
O77 In65 2.326 1_556 S
O77 C69 1.252 . S
In78 O79 2.294 . S
In78 O80 2.326 . S
In78 O84 2.266 . S
In78 O85 2.326 . S
In78 O86 2.266 . S
In78 O87 2.326 . S
In78 O89 2.294 . S
In78 O90 2.326 . S
O79 In78 2.294 . S
O79 C88 1.240 . S
O80 In78 2.326 . S
O80 C88 1.252 . S
C81 O84 1.252 . S
C81 O85 1.260 . S
C82 O89 1.240 . S
C82 O90 1.252 . S
C83 O86 1.252 . S
C83 O87 1.260 . S
O84 In78 2.266 . S
O84 C81 1.252 . S
O85 In78 2.326 . S
O85 C81 1.260 . S
O86 In78 2.266 . S
O86 C83 1.252 . S
O87 In78 2.326 . S
O87 C83 1.260 . S
C88 O79 1.240 . S
C88 O80 1.252 . S
O89 In78 2.294 . S
O89 C82 1.240 . S
O90 In78 2.326 . S
O90 C82 1.252 . S
In91 O92 2.294 . S
In91 O93 2.326 . S
In91 O97 2.266 . S
In91 O98 2.326 . S
In91 O99 2.266 . S
In91 O100 2.326 . S
In91 O102 2.294 1_554 S
In91 O103 2.326 1_554 S
O92 In91 2.294 . S
O92 C101 1.240 . S
O93 In91 2.326 . S
O93 C101 1.252 . S
C94 O97 1.252 . S
C94 O98 1.260 . S
C95 O102 1.240 . S
C95 O103 1.252 . S
C96 O99 1.252 . S
C96 O100 1.260 . S
O97 In91 2.266 . S
O97 C94 1.252 . S
O98 In91 2.326 . S
O98 C94 1.260 . S
O99 In91 2.266 . S
O99 C96 1.252 . S
O100 In91 2.326 . S
O100 C96 1.260 . S
C101 O92 1.240 . S
C101 O93 1.252 . S
O102 In91 2.294 1_556 S
O102 C95 1.240 . S
O103 In91 2.326 1_556 S
O103 C95 1.252 . S
C104 C105 1.391 . S
C104 C106 1.394 . S
C104 H120 0.931 . S
C105 C104 1.391 . S
C105 C109 1.376 . S
C106 C104 1.394 . S
C106 C107 1.369 . S
C106 C110 1.531 . S
C107 C106 1.369 . S
C107 C108 1.410 . S
C107 C115 1.503 . S
C108 C107 1.410 . S
C108 C109 1.392 . S
C108 C111 1.511 . S
C109 C105 1.376 . S
C109 C108 1.392 . S
C109 H121 0.929 . S
C110 C106 1.531 . S
C110 H122 0.960 . S
C110 H123 0.962 . S
C110 H124 0.960 . S
C111 C108 1.511 . S
C111 H125 0.961 . S
C111 H126 0.961 . S
C111 H127 0.961 . S
C112 C113 1.370 . S
C112 C114 1.363 . S
C112 H128 0.931 . S
C113 C112 1.370 . S
C113 C117 1.408 . S
C114 C112 1.363 . S
C114 C115 1.370 . S
C114 C118 1.524 . S
C115 C107 1.503 . S
C115 C114 1.370 . S
C115 C116 1.403 . S
C116 C115 1.403 . S
C116 C117 1.404 . S
C116 C119 1.539 . S
C117 C113 1.408 . S
C117 C116 1.404 . S
C117 H129 0.930 . S
C118 C114 1.524 . S
C118 H130 0.956 . S
C118 H131 0.961 . S
C118 H132 0.961 . S
C119 C116 1.539 . S
C119 H133 0.958 . S
C119 H134 0.961 . S
C119 H135 0.960 . S
H120 C104 0.931 . S
H121 C109 0.929 . S
H122 C110 0.960 . S
H123 C110 0.962 . S
H124 C110 0.960 . S
H125 C111 0.961 . S
H126 C111 0.961 . S
H127 C111 0.961 . S
H128 C112 0.931 . S
H129 C117 0.930 . S
H130 C118 0.956 . S
H131 C118 0.961 . S
H132 C118 0.961 . S
H133 C119 0.958 . S
H134 C119 0.961 . S
H135 C119 0.960 . S
C136 C137 1.391 . S
C136 C138 1.394 . S
C136 H152 0.931 . S
C137 C136 1.391 . S
C137 C141 1.376 . S
C138 C136 1.394 . S
C138 C139 1.369 . S
C138 C142 1.531 . S
C139 C138 1.369 . S
C139 C140 1.410 . S
C139 C147 1.503 . S
C140 C139 1.410 . S
C140 C141 1.392 . S
C140 C143 1.511 . S
C141 C137 1.376 . S
C141 C140 1.392 . S
C141 H153 0.929 . S
C142 C138 1.531 . S
C142 H154 0.960 . S
C142 H155 0.962 . S
C142 H156 0.960 . S
C143 C140 1.511 . S
C143 H157 0.961 . S
C143 H158 0.961 . S
C143 H159 0.961 . S
C144 C145 1.370 . S
C144 C146 1.363 . S
C144 H160 0.931 . S
C145 C144 1.370 . S
C145 C149 1.408 . S
C146 C144 1.363 . S
C146 C147 1.370 . S
C146 C150 1.524 . S
C147 C139 1.503 . S
C147 C146 1.370 . S
C147 C148 1.403 . S
C148 C147 1.403 . S
C148 C149 1.404 . S
C148 C151 1.539 . S
C149 C145 1.408 . S
C149 C148 1.404 . S
C149 H161 0.930 . S
C150 C146 1.524 . S
C150 H162 0.956 . S
C150 H163 0.961 . S
C150 H164 0.961 . S
C151 C148 1.539 . S
C151 H165 0.958 . S
C151 H166 0.961 . S
C151 H167 0.960 . S
H152 C136 0.931 . S
H153 C141 0.929 . S
H154 C142 0.960 . S
H155 C142 0.962 . S
H156 C142 0.960 . S
H157 C143 0.961 . S
H158 C143 0.961 . S
H159 C143 0.961 . S
H160 C144 0.931 . S
H161 C149 0.930 . S
H162 C150 0.956 . S
H163 C150 0.961 . S
H164 C150 0.961 . S
H165 C151 0.958 . S
H166 C151 0.961 . S
H167 C151 0.960 . S
C168 C169 1.391 . S
C168 C170 1.394 . S
C168 H184 0.931 . S
C169 C168 1.391 . S
C169 C173 1.376 . S
C170 C168 1.394 . S
C170 C171 1.369 . S
C170 C174 1.531 . S
C171 C170 1.369 . S
C171 C172 1.410 . S
C171 C179 1.503 . S
C172 C171 1.410 . S
C172 C173 1.392 . S
C172 C175 1.511 . S
C173 C169 1.376 . S
C173 C172 1.392 . S
C173 H185 0.929 . S
C174 C170 1.531 . S
C174 H186 0.960 . S
C174 H187 0.962 . S
C174 H188 0.960 . S
C175 C172 1.511 . S
C175 H189 0.961 . S
C175 H190 0.961 . S
C175 H191 0.961 . S
C176 C177 1.370 . S
C176 C178 1.363 . S
C176 H192 0.931 . S
C177 C176 1.370 . S
C177 C181 1.408 . S
C178 C176 1.363 . S
C178 C179 1.370 . S
C178 C182 1.524 . S
C179 C171 1.503 . S
C179 C178 1.370 . S
C179 C180 1.403 . S
C180 C179 1.403 . S
C180 C181 1.404 . S
C180 C183 1.539 . S
C181 C177 1.408 . S
C181 C180 1.404 . S
C181 H193 0.930 . S
C182 C178 1.524 . S
C182 H194 0.956 . S
C182 H195 0.961 . S
C182 H196 0.961 . S
C183 C180 1.539 . S
C183 H197 0.958 . S
C183 H198 0.961 . S
C183 H199 0.960 . S
H184 C168 0.931 . S
H185 C173 0.929 . S
H186 C174 0.960 . S
H187 C174 0.962 . S
H188 C174 0.960 . S
H189 C175 0.961 . S
H190 C175 0.961 . S
H191 C175 0.961 . S
H192 C176 0.931 . S
H193 C181 0.930 . S
H194 C182 0.956 . S
H195 C182 0.961 . S
H196 C182 0.961 . S
H197 C183 0.958 . S
H198 C183 0.961 . S
H199 C183 0.960 . S
C200 C201 1.391 . S
C200 C202 1.394 . S
C200 H216 0.931 . S
C201 C200 1.391 . S
C201 C205 1.376 . S
C202 C200 1.394 . S
C202 C203 1.369 . S
C202 C206 1.531 . S
C203 C202 1.369 . S
C203 C204 1.410 . S
C203 C211 1.503 . S
C204 C203 1.410 . S
C204 C205 1.392 . S
C204 C207 1.511 . S
C205 C201 1.376 . S
C205 C204 1.392 . S
C205 H217 0.929 . S
C206 C202 1.531 . S
C206 H218 0.960 . S
C206 H219 0.962 . S
C206 H220 0.960 . S
C207 C204 1.511 . S
C207 H221 0.961 . S
C207 H222 0.961 . S
C207 H223 0.961 . S
C208 C209 1.370 . S
C208 C210 1.363 . S
C208 H224 0.931 . S
C209 C208 1.370 . S
C209 C213 1.408 . S
C210 C208 1.363 . S
C210 C211 1.370 . S
C210 C214 1.524 . S
C211 C203 1.503 . S
C211 C210 1.370 . S
C211 C212 1.403 . S
C212 C211 1.403 . S
C212 C213 1.404 . S
C212 C215 1.539 . S
C213 C209 1.408 . S
C213 C212 1.404 . S
C213 H225 0.930 . S
C214 C210 1.524 . S
C214 H226 0.956 . S
C214 H227 0.961 . S
C214 H228 0.961 . S
C215 C212 1.539 . S
C215 H229 0.958 . S
C215 H230 0.961 . S
C215 H231 0.960 . S
H216 C200 0.931 . S
H217 C205 0.929 . S
H218 C206 0.960 . S
H219 C206 0.962 . S
H220 C206 0.960 . S
H221 C207 0.961 . S
H222 C207 0.961 . S
H223 C207 0.961 . S
H224 C208 0.931 . S
H225 C213 0.930 . S
H226 C214 0.956 . S
H227 C214 0.961 . S
H228 C214 0.961 . S
H229 C215 0.958 . S
H230 C215 0.961 . S
H231 C215 0.960 . S
C232 C233 1.391 . S
C232 C234 1.394 . S
C232 H248 0.931 . S
C233 C232 1.391 . S
C233 C237 1.376 . S
C234 C232 1.394 . S
C234 C235 1.369 . S
C234 C238 1.531 . S
C235 C234 1.369 . S
C235 C236 1.410 . S
C235 C243 1.503 . S
C236 C235 1.410 . S
C236 C237 1.392 . S
C236 C239 1.511 . S
C237 C233 1.376 . S
C237 C236 1.392 . S
C237 H249 0.929 . S
C238 C234 1.531 . S
C238 H250 0.960 . S
C238 H251 0.962 . S
C238 H252 0.960 . S
C239 C236 1.511 . S
C239 H253 0.961 . S
C239 H254 0.961 . S
C239 H255 0.961 . S
C240 C241 1.370 . S
C240 C242 1.363 . S
C240 H256 0.931 . S
C241 C240 1.370 . S
C241 C245 1.408 . S
C242 C240 1.363 . S
C242 C243 1.370 . S
C242 C246 1.524 . S
C243 C235 1.503 . S
C243 C242 1.370 . S
C243 C244 1.403 . S
C244 C243 1.403 . S
C244 C245 1.404 . S
C244 C247 1.539 . S
C245 C241 1.408 . S
C245 C244 1.404 . S
C245 H257 0.930 . S
C246 C242 1.524 . S
C246 H258 0.956 . S
C246 H259 0.961 . S
C246 H260 0.961 . S
C247 C244 1.539 . S
C247 H261 0.958 . S
C247 H262 0.961 . S
C247 H263 0.960 . S
H248 C232 0.931 . S
H249 C237 0.929 . S
H250 C238 0.960 . S
H251 C238 0.962 . S
H252 C238 0.960 . S
H253 C239 0.961 . S
H254 C239 0.961 . S
H255 C239 0.961 . S
H256 C240 0.931 . S
H257 C245 0.930 . S
H258 C246 0.956 . S
H259 C246 0.961 . S
H260 C246 0.961 . S
H261 C247 0.958 . S
H262 C247 0.961 . S
H263 C247 0.960 . S
C264 C265 1.391 . S
C264 C266 1.394 . S
C264 H280 0.931 . S
C265 C264 1.391 . S
C265 C269 1.376 . S
C266 C264 1.394 . S
C266 C267 1.369 . S
C266 C270 1.531 . S
C267 C266 1.369 . S
C267 C268 1.410 . S
C267 C275 1.503 . S
C268 C267 1.410 . S
C268 C269 1.392 . S
C268 C271 1.511 . S
C269 C265 1.376 . S
C269 C268 1.392 . S
C269 H281 0.929 . S
C270 C266 1.531 . S
C270 H282 0.960 . S
C270 H283 0.962 . S
C270 H284 0.960 . S
C271 C268 1.511 . S
C271 H285 0.961 . S
C271 H286 0.961 . S
C271 H287 0.961 . S
C272 C273 1.370 . S
C272 C274 1.363 . S
C272 H288 0.931 . S
C273 C272 1.370 . S
C273 C277 1.408 . S
C274 C272 1.363 . S
C274 C275 1.370 . S
C274 C278 1.524 . S
C275 C267 1.503 . S
C275 C274 1.370 . S
C275 C276 1.403 . S
C276 C275 1.403 . S
C276 C277 1.404 . S
C276 C279 1.539 . S
C277 C273 1.408 . S
C277 C276 1.404 . S
C277 H289 0.930 . S
C278 C274 1.524 . S
C278 H290 0.956 . S
C278 H291 0.961 . S
C278 H292 0.961 . S
C279 C276 1.539 . S
C279 H293 0.958 . S
C279 H294 0.961 . S
C279 H295 0.960 . S
H280 C264 0.931 . S
H281 C269 0.929 . S
H282 C270 0.960 . S
H283 C270 0.962 . S
H284 C270 0.960 . S
H285 C271 0.961 . S
H286 C271 0.961 . S
H287 C271 0.961 . S
H288 C272 0.931 . S
H289 C277 0.930 . S
H290 C278 0.956 . S
H291 C278 0.961 . S
H292 C278 0.961 . S
H293 C279 0.958 . S
H294 C279 0.961 . S
H295 C279 0.960 . S
C296 C297 1.391 . S
C296 C298 1.394 . S
C296 H312 0.931 . S
C297 C296 1.391 . S
C297 C301 1.376 . S
C298 C296 1.394 . S
C298 C299 1.369 . S
C298 C302 1.531 . S
C299 C298 1.369 . S
C299 C300 1.410 . S
C299 C307 1.503 . S
C300 C299 1.410 . S
C300 C301 1.392 . S
C300 C303 1.511 . S
C301 C297 1.376 . S
C301 C300 1.392 . S
C301 H313 0.929 . S
C302 C298 1.531 . S
C302 H314 0.960 . S
C302 H315 0.962 . S
C302 H316 0.960 . S
C303 C300 1.511 . S
C303 H317 0.961 . S
C303 H318 0.961 . S
C303 H319 0.961 . S
C304 C305 1.370 . S
C304 C306 1.363 . S
C304 H320 0.931 . S
C305 C304 1.370 . S
C305 C309 1.408 . S
C306 C304 1.363 . S
C306 C307 1.370 . S
C306 C310 1.524 . S
C307 C299 1.503 . S
C307 C306 1.370 . S
C307 C308 1.403 . S
C308 C307 1.403 . S
C308 C309 1.404 . S
C308 C311 1.539 . S
C309 C305 1.408 . S
C309 C308 1.404 . S
C309 H321 0.930 . S
C310 C306 1.524 . S
C310 H322 0.956 . S
C310 H323 0.961 . S
C310 H324 0.961 . S
C311 C308 1.539 . S
C311 H325 0.958 . S
C311 H326 0.961 . S
C311 H327 0.960 . S
H312 C296 0.931 . S
H313 C301 0.929 . S
H314 C302 0.960 . S
H315 C302 0.962 . S
H316 C302 0.960 . S
H317 C303 0.961 . S
H318 C303 0.961 . S
H319 C303 0.961 . S
H320 C304 0.931 . S
H321 C309 0.930 . S
H322 C310 0.956 . S
H323 C310 0.961 . S
H324 C310 0.961 . S
H325 C311 0.958 . S
H326 C311 0.961 . S
H327 C311 0.960 . S
C328 C329 1.391 . S
C328 C330 1.394 . S
C328 H344 0.931 . S
C329 C328 1.391 . S
C329 C333 1.376 . S
C330 C328 1.394 . S
C330 C331 1.369 . S
C330 C334 1.531 . S
C331 C330 1.369 . S
C331 C332 1.410 . S
C331 C339 1.503 . S
C332 C331 1.410 . S
C332 C333 1.392 . S
C332 C335 1.511 . S
C333 C329 1.376 . S
C333 C332 1.392 . S
C333 H345 0.929 . S
C334 C330 1.531 . S
C334 H346 0.960 . S
C334 H347 0.962 . S
C334 H348 0.960 . S
C335 C332 1.511 . S
C335 H349 0.961 . S
C335 H350 0.961 . S
C335 H351 0.961 . S
C336 C337 1.370 . S
C336 C338 1.363 . S
C336 H352 0.931 . S
C337 C336 1.370 . S
C337 C341 1.408 . S
C338 C336 1.363 . S
C338 C339 1.370 . S
C338 C342 1.524 . S
C339 C331 1.503 . S
C339 C338 1.370 . S
C339 C340 1.403 . S
C340 C339 1.403 . S
C340 C341 1.404 . S
C340 C343 1.539 . S
C341 C337 1.408 . S
C341 C340 1.404 . S
C341 H353 0.930 . S
C342 C338 1.524 . S
C342 H354 0.956 . S
C342 H355 0.961 . S
C342 H356 0.961 . S
C343 C340 1.539 . S
C343 H357 0.958 . S
C343 H358 0.961 . S
C343 H359 0.960 . S
H344 C328 0.931 . S
H345 C333 0.929 . S
H346 C334 0.960 . S
H347 C334 0.962 . S
H348 C334 0.960 . S
H349 C335 0.961 . S
H350 C335 0.961 . S
H351 C335 0.961 . S
H352 C336 0.931 . S
H353 C341 0.930 . S
H354 C342 0.956 . S
H355 C342 0.961 . S
H356 C342 0.961 . S
H357 C343 0.958 . S
H358 C343 0.961 . S
H359 C343 0.960 . S
C360 C361 1.391 1_556 S
C360 C362 1.394 . S
C360 H376 0.931 . S
C361 C360 1.391 1_554 S
C361 C365 1.376 . S
C362 C360 1.394 . S
C362 C363 1.369 . S
C362 C366 1.531 . S
C363 C362 1.369 . S
C363 C364 1.410 1_556 S
C363 C371 1.503 1_656 S
C364 C363 1.410 1_554 S
C364 C365 1.392 . S
C364 C367 1.511 . S
C365 C361 1.376 . S
C365 C364 1.392 . S
C365 H377 0.929 . S
C366 C362 1.531 . S
C366 H378 0.960 . S
C366 H379 0.962 . S
C366 H380 0.960 . S
C367 C364 1.511 . S
C367 H381 0.961 . S
C367 H382 0.961 1_655 S
C367 H383 0.961 1_655 S
C368 C369 1.370 . S
C368 C370 1.363 . S
C368 H384 0.931 . S
C369 C368 1.370 . S
C369 C373 1.408 1_554 S
C370 C368 1.363 . S
C370 C371 1.379 . S
C370 C374 1.524 . S
C371 C363 1.503 1_454 S
C371 C370 1.379 . S
C371 C372 1.395 1_554 S
C372 C371 1.395 1_556 S
C372 C373 1.404 . S
C372 C375 1.539 . S
C373 C369 1.408 1_556 S
C373 C372 1.404 . S
C373 H385 0.930 . S
C374 C370 1.524 . S
C374 H386 0.956 1_455 S
C374 H387 0.961 1_455 S
C374 H388 0.961 . S
C375 C372 1.539 . S
C375 H389 0.958 . S
C375 H390 0.961 . S
C375 H391 0.960 . S
H376 C360 0.931 . S
H377 C365 0.929 . S
H378 C366 0.960 . S
H379 C366 0.962 . S
H380 C366 0.960 . S
H381 C367 0.961 . S
H382 C367 0.961 1_455 S
H383 C367 0.961 1_455 S
H384 C368 0.931 . S
H385 C373 0.930 . S
H386 C374 0.956 1_655 S
H387 C374 0.961 1_655 S
H388 C374 0.961 . S
H389 C375 0.958 . S
H390 C375 0.961 . S
H391 C375 0.960 . S
C392 C393 1.391 . S
C392 C394 1.394 . S
C392 H408 0.931 . S
C393 C392 1.391 . S
C393 C397 1.376 . S
C394 C392 1.394 . S
C394 C395 1.369 . S
C394 C398 1.531 . S
C395 C394 1.369 . S
C395 C396 1.410 . S
C395 C403 1.503 1_565 S
C396 C395 1.410 . S
C396 C397 1.392 . S
C396 C399 1.511 . S
C397 C393 1.376 . S
C397 C396 1.392 . S
C397 H409 0.929 . S
C398 C394 1.531 . S
C398 H410 0.960 . S
C398 H411 0.962 . S
C398 H412 0.960 . S
C399 C396 1.511 . S
C399 H413 0.961 . S
C399 H414 0.961 1_565 S
C399 H415 0.961 1_565 S
C400 C401 1.370 . S
C400 C402 1.363 . S
C400 H416 0.931 . S
C401 C400 1.370 . S
C401 C405 1.408 . S
C402 C400 1.363 . S
C402 C403 1.370 . S
C402 C406 1.524 . S
C403 C395 1.503 1_545 S
C403 C402 1.370 . S
C403 C404 1.403 . S
C404 C403 1.403 . S
C404 C405 1.404 . S
C404 C407 1.539 . S
C405 C401 1.408 . S
C405 C404 1.404 . S
C405 H417 0.930 . S
C406 C402 1.524 . S
C406 H418 0.956 1_545 S
C406 H419 0.961 1_545 S
C406 H420 0.961 . S
C407 C404 1.539 . S
C407 H421 0.958 . S
C407 H422 0.961 . S
C407 H423 0.960 . S
H408 C392 0.931 . S
H409 C397 0.929 . S
H410 C398 0.960 . S
H411 C398 0.962 . S
H412 C398 0.960 . S
H413 C399 0.961 . S
H414 C399 0.961 1_545 S
H415 C399 0.961 1_545 S
H416 C400 0.931 . S
H417 C405 0.930 . S
H418 C406 0.956 1_565 S
H419 C406 0.961 1_565 S
H420 C406 0.961 . S
H421 C407 0.958 . S
H422 C407 0.961 . S
H423 C407 0.960 . S
C424 C425 1.391 . S
C424 C426 1.394 . S
C424 H440 0.931 . S
C425 C424 1.391 . S
C425 C429 1.376 . S
C426 C424 1.394 . S
C426 C427 1.369 . S
C426 C430 1.531 . S
C427 C426 1.369 . S
C427 C428 1.410 . S
C427 C435 1.503 1_455 S
C428 C427 1.410 . S
C428 C429 1.392 . S
C428 C431 1.511 . S
C429 C425 1.376 . S
C429 C428 1.392 . S
C429 H441 0.929 . S
C430 C426 1.531 . S
C430 H442 0.960 1_455 S
C430 H443 0.962 1_455 S
C430 H444 0.960 . S
C431 C428 1.511 . S
C431 H445 0.961 . S
C431 H446 0.961 . S
C431 H447 0.961 . S
C432 C433 1.370 . S
C432 C434 1.363 . S
C432 H448 0.931 . S
C433 C432 1.370 . S
C433 C437 1.408 . S
C434 C432 1.363 . S
C434 C435 1.370 . S
C434 C438 1.524 . S
C435 C427 1.503 1_655 S
C435 C434 1.370 . S
C435 C436 1.403 . S
C436 C435 1.403 . S
C436 C437 1.404 . S
C436 C439 1.539 . S
C437 C433 1.408 . S
C437 C436 1.404 . S
C437 H449 0.930 . S
C438 C434 1.524 . S
C438 H450 0.956 . S
C438 H451 0.961 1_655 S
C438 H452 0.961 . S
C439 C436 1.539 . S
C439 H453 0.958 . S
C439 H454 0.961 . S
C439 H455 0.960 1_655 S
H440 C424 0.931 . S
H441 C429 0.929 . S
H442 C430 0.960 1_655 S
H443 C430 0.962 1_655 S
H444 C430 0.960 . S
H445 C431 0.961 . S
H446 C431 0.961 . S
H447 C431 0.961 . S
H448 C432 0.931 . S
H449 C437 0.930 . S
H450 C438 0.956 . S
H451 C438 0.961 1_455 S
H452 C438 0.961 . S
H453 C439 0.958 . S
H454 C439 0.961 . S
H455 C439 0.960 1_455 S
C456 C457 1.391 . S
C456 C458 1.394 . S
C456 H472 0.931 . S
C457 C456 1.391 . S
C457 C461 1.376 . S
C458 C456 1.394 . S
C458 C459 1.369 . S
C458 C462 1.531 . S
C459 C458 1.369 . S
C459 C460 1.410 . S
C459 C467 1.503 1_565 S
C460 C459 1.410 . S
C460 C461 1.392 . S
C460 C463 1.511 . S
C461 C457 1.376 . S
C461 C460 1.392 . S
C461 H473 0.929 . S
C462 C458 1.531 . S
C462 H474 0.960 1_564 S
C462 H475 0.962 1_565 S
C462 H476 0.960 1_554 S
C463 C460 1.511 . S
C463 H477 0.961 . S
C463 H478 0.961 . S
C463 H479 0.961 . S
C464 C465 1.370 . S
C464 C466 1.363 . S
C464 H480 0.931 . S
C465 C464 1.370 . S
C465 C469 1.408 . S
C466 C464 1.363 . S
C466 C467 1.370 . S
C466 C470 1.524 . S
C467 C459 1.503 1_545 S
C467 C466 1.370 . S
C467 C468 1.403 . S
C468 C467 1.403 . S
C468 C469 1.404 . S
C468 C471 1.539 1_554 S
C469 C465 1.408 . S
C469 C468 1.404 . S
C469 H481 0.930 1_554 S
C470 C466 1.524 . S
C470 H482 0.956 . S
C470 H483 0.974 . S
C470 H484 0.961 . S
C471 C468 1.539 1_556 S
C471 H485 0.958 . S
C471 H486 0.961 . S
C471 H487 0.960 1_545 S
H472 C456 0.931 . S
H473 C461 0.929 . S
H474 C462 0.960 1_546 S
H475 C462 0.962 1_545 S
H476 C462 0.960 1_556 S
H477 C463 0.961 . S
H478 C463 0.961 . S
H479 C463 0.961 . S
H480 C464 0.931 . S
H481 C469 0.930 1_556 S
H482 C470 0.956 . S
H483 C470 0.974 . S
H484 C470 0.961 . S
H485 C471 0.958 . S
H486 C471 0.961 . S
H487 C471 0.960 1_565 S
C488 C489 1.391 1_556 S
C488 C490 1.394 . S
C488 H504 0.931 . S
C489 C488 1.391 1_554 S
C489 C493 1.376 . S
C490 C488 1.394 . S
C490 C491 1.369 1_556 S
C490 C494 1.531 . S
C491 C490 1.369 1_554 S
C491 C492 1.410 . S
C491 C499 1.503 . S
C492 C491 1.410 . S
C492 C493 1.392 . S
C492 C495 1.511 . S
C493 C489 1.376 . S
C493 C492 1.392 . S
C493 H505 0.929 . S
C494 C490 1.531 . S
C494 H506 0.960 . S
C494 H507 0.962 . S
C494 H508 0.960 . S
C495 C492 1.511 . S
C495 H509 0.961 . S
C495 H510 0.961 . S
C495 H511 0.961 . S
C496 C497 1.370 . S
C496 C498 1.363 . S
C496 H512 0.931 . S
C497 C496 1.370 . S
C497 C501 1.421 . S
C498 C496 1.363 . S
C498 C499 1.370 . S
C498 C502 1.524 . S
C499 C491 1.503 . S
C499 C498 1.370 . S
C499 C500 1.390 1_554 S
C500 C499 1.390 1_556 S
C500 C501 1.403 1_556 S
C500 C503 1.551 . S
C501 C497 1.421 . S
C501 C500 1.403 1_554 S
C501 H513 0.918 1_554 S
C502 C498 1.524 . S
C502 H514 0.956 . S
C502 H515 0.961 . S
C502 H516 0.961 . S
C503 C500 1.551 . S
C503 H517 0.958 . S
C503 H518 0.961 . S
C503 H519 0.960 . S
H504 C488 0.931 . S
H505 C493 0.929 . S
H506 C494 0.960 . S
H507 C494 0.962 . S
H508 C494 0.960 . S
H509 C495 0.961 . S
H510 C495 0.961 . S
H511 C495 0.961 . S
H512 C496 0.931 . S
H513 C501 0.918 1_556 S
H514 C502 0.956 . S
H515 C502 0.961 . S
H516 C502 0.961 . S
H517 C503 0.958 . S
H518 C503 0.961 . S
H519 C503 0.960 . S
C520 C521 1.391 . S
C520 C522 1.394 . S
C520 H536 0.931 . S
C521 C520 1.391 . S
C521 C525 1.376 . S
C522 C520 1.394 . S
C522 C523 1.369 . S
C522 C526 1.531 . S
C523 C522 1.369 . S
C523 C524 1.410 . S
C523 C531 1.503 . S
C524 C523 1.410 . S
C524 C525 1.392 . S
C524 C527 1.511 . S
C525 C521 1.376 . S
C525 C524 1.392 . S
C525 H537 0.929 . S
C526 C522 1.531 . S
C526 H538 0.960 . S
C526 H539 0.962 . S
C526 H540 0.960 . S
C527 C524 1.511 . S
C527 H541 0.961 . S
C527 H542 0.961 . S
C527 H543 0.961 . S
C528 C529 1.370 . S
C528 C530 1.363 . S
C528 H544 0.931 . S
C529 C528 1.370 . S
C529 C533 1.408 . S
C530 C528 1.363 . S
C530 C531 1.370 . S
C530 C534 1.524 . S
C531 C523 1.503 . S
C531 C530 1.370 . S
C531 C532 1.403 . S
C532 C531 1.403 . S
C532 C533 1.404 . S
C532 C535 1.539 . S
C533 C529 1.408 . S
C533 C532 1.404 . S
C533 H545 0.930 . S
C534 C530 1.524 . S
C534 H546 0.956 . S
C534 H547 0.961 . S
C534 H548 0.961 . S
C535 C532 1.539 . S
C535 H549 0.958 . S
C535 H550 0.961 . S
C535 H551 0.960 . S
H536 C520 0.931 . S
H537 C525 0.929 . S
H538 C526 0.960 . S
H539 C526 0.962 . S
H540 C526 0.960 . S
H541 C527 0.961 . S
H542 C527 0.961 . S
H543 C527 0.961 . S
H544 C528 0.931 . S
H545 C533 0.930 . S
H546 C534 0.956 . S
H547 C534 0.961 . S
H548 C534 0.961 . S
H549 C535 0.958 . S
H550 C535 0.961 . S
H551 C535 0.960 . S
C552 C553 1.391 . S
C552 C554 1.394 . S
C552 H568 0.931 . S
C553 C552 1.391 . S
C553 C557 1.376 . S
C554 C552 1.394 . S
C554 C555 1.369 . S
C554 C558 1.531 . S
C555 C554 1.369 . S
C555 C556 1.410 . S
C555 C563 1.503 . S
C556 C555 1.410 . S
C556 C557 1.392 . S
C556 C559 1.511 . S
C557 C553 1.376 . S
C557 C556 1.392 . S
C557 H569 0.929 . S
C558 C554 1.531 . S
C558 H570 0.960 1_554 S
C558 H571 0.962 . S
C558 H572 0.960 1_554 S
C559 C556 1.511 . S
C559 H573 0.961 . S
C559 H574 0.961 . S
C559 H575 0.961 1_554 S
C560 C561 1.370 . S
C560 C562 1.363 . S
C560 H576 0.931 . S
C561 C560 1.370 . S
C561 C565 1.408 1_554 S
C562 C560 1.363 . S
C562 C563 1.370 . S
C562 C566 1.524 . S
C563 C555 1.503 . S
C563 C562 1.370 . S
C563 C564 1.403 1_554 S
C564 C563 1.403 1_556 S
C564 C565 1.404 . S
C564 C567 1.539 . S
C565 C561 1.408 1_556 S
C565 C564 1.404 . S
C565 H577 0.930 . S
C566 C562 1.524 . S
C566 H578 0.956 . S
C566 H579 0.961 . S
C566 H580 0.961 . S
C567 C564 1.539 . S
C567 H581 0.958 . S
C567 H582 0.961 . S
C567 H583 0.960 . S
H568 C552 0.931 . S
H569 C557 0.929 . S
H570 C558 0.960 1_556 S
H571 C558 0.962 . S
H572 C558 0.960 1_556 S
H573 C559 0.961 . S
H574 C559 0.961 . S
H575 C559 0.961 1_556 S
H576 C560 0.931 . S
H577 C565 0.930 . S
H578 C566 0.956 . S
H579 C566 0.961 . S
H580 C566 0.961 . S
H581 C567 0.958 . S
H582 C567 0.961 . S
H583 C567 0.960 . S
C584 C585 1.391 . S
C584 C586 1.394 . S
C584 H600 0.931 . S
C585 C584 1.391 . S
C585 C589 1.376 . S
C586 C584 1.394 . S
C586 C587 1.369 . S
C586 C590 1.531 . S
C587 C586 1.369 . S
C587 C588 1.410 . S
C587 C595 1.503 . S
C588 C587 1.410 . S
C588 C589 1.392 . S
C588 C591 1.511 . S
C589 C585 1.376 . S
C589 C588 1.392 . S
C589 H601 0.929 . S
C590 C586 1.531 . S
C590 H602 0.960 . S
C590 H603 0.962 . S
C590 H604 0.960 . S
C591 C588 1.511 . S
C591 H605 0.961 . S
C591 H606 0.961 . S
C591 H607 0.961 . S
C592 C593 1.370 . S
C592 C594 1.363 . S
C592 H608 0.931 . S
C593 C592 1.370 . S
C593 C597 1.408 . S
C594 C592 1.363 . S
C594 C595 1.370 . S
C594 C598 1.524 . S
C595 C587 1.503 . S
C595 C594 1.370 . S
C595 C596 1.403 . S
C596 C595 1.403 . S
C596 C597 1.404 . S
C596 C599 1.539 . S
C597 C593 1.408 . S
C597 C596 1.404 . S
C597 H609 0.930 . S
C598 C594 1.524 . S
C598 H610 0.956 . S
C598 H611 0.961 . S
C598 H612 0.961 . S
C599 C596 1.539 . S
C599 H613 0.958 . S
C599 H614 0.961 . S
C599 H615 0.960 . S
H600 C584 0.931 . S
H601 C589 0.929 . S
H602 C590 0.960 . S
H603 C590 0.962 . S
H604 C590 0.960 . S
H605 C591 0.961 . S
H606 C591 0.961 . S
H607 C591 0.961 . S
H608 C592 0.931 . S
H609 C597 0.930 . S
H610 C598 0.956 . S
H611 C598 0.961 . S
H612 C598 0.961 . S
H613 C599 0.958 . S
H614 C599 0.961 . S
H615 C599 0.960 . S
C105 C10 1.608 . S
C113 C62 1.632 . S
C137 C17 1.619 . S
C145 C69 1.631 . S
C169 C88 1.627 . S
C177 C36 1.616 . S
C201 C95 1.636 . S
C209 C49 1.624 . S
C233 C81 1.009 . S
C241 C29 1.058 . S
C265 C96 1.060 . S
C273 C42 1.034 . S
C297 C3 1.083 . S
C305 C55 1.038 . S
C329 C18 1.083 . S
C337 C70 1.035 . S
C361 C31 1.448 . S
C369 C5 1.439 . S
C393 C44 1.450 . S
C401 C16 1.437 . S
C425 C57 1.431 . S
C433 C83 1.439 . S
C457 C94 1.426 . S
C465 C68 1.442 . S
C489 C4 1.410 . S
C497 C75 1.419 . S
C521 C82 1.421 . S
C529 C23 1.421 . S
C553 C30 1.412 . S
C561 C101 1.420 . S
C585 C43 1.411 . S
C593 C56 1.418 . S
