# Generated by pormake.
# Topology snl, (6)-cn, num edge types: 1
# Building blocks:
#     Node 0, Type 0, BuildingBlock: KUMJIN_clean_sbu_0, # of connection points: 6
#     Node 1, Type 0, BuildingBlock: KUMJIN_clean_sbu_0, # of connection points: 6
#     Node 2, Type 0, BuildingBlock: KUMJIN_clean_sbu_0, # of connection points: 6
#     Node 3, Type 0, BuildingBlock: KUMJIN_clean_sbu_0, # of connection points: 6
#     Node 4, Type 0, BuildingBlock: KUMJIN_clean_sbu_0, # of connection points: 6
#     Node 5, Type 0, BuildingBlock: KUMJIN_clean_sbu_0, # of connection points: 6
#     Node 6, Type 0, BuildingBlock: KUMJIN_clean_sbu_0, # of connection points: 6
#     Node 7, Type 0, BuildingBlock: KUMJIN_clean_sbu_0, # of connection points: 6
#     Node 8, Type 0, BuildingBlock: KUMJIN_clean_sbu_0, # of connection points: 6
#     Node 9, Type 0, BuildingBlock: KUMJIN_clean_sbu_0, # of connection points: 6
#     Node 10, Type 0, BuildingBlock: KUMJIN_clean_sbu_0, # of connection points: 6
#     Node 11, Type 0, BuildingBlock: KUMJIN_clean_sbu_0, # of connection points: 6
#     Node 12, Type 0, BuildingBlock: KUMJIN_clean_sbu_0, # of connection points: 6
#     Node 13, Type 0, BuildingBlock: KUMJIN_clean_sbu_0, # of connection points: 6
#     Node 14, Type 0, BuildingBlock: KUMJIN_clean_sbu_0, # of connection points: 6
#     Node 15, Type 0, BuildingBlock: KUMJIN_clean_sbu_0, # of connection points: 6
#     Edge 16, Type (0, 0), BuildingBlock: EZIPEK_clean_linker_0, # of connection points: 2
#     Edge 17, Type (0, 0), BuildingBlock: EZIPEK_clean_linker_0, # of connection points: 2
#     Edge 18, Type (0, 0), BuildingBlock: EZIPEK_clean_linker_0, # of connection points: 2
#     Edge 19, Type (0, 0), BuildingBlock: EZIPEK_clean_linker_0, # of connection points: 2
#     Edge 20, Type (0, 0), BuildingBlock: EZIPEK_clean_linker_0, # of connection points: 2
#     Edge 21, Type (0, 0), BuildingBlock: EZIPEK_clean_linker_0, # of connection points: 2
#     Edge 22, Type (0, 0), BuildingBlock: EZIPEK_clean_linker_0, # of connection points: 2
#     Edge 23, Type (0, 0), BuildingBlock: EZIPEK_clean_linker_0, # of connection points: 2
#     Edge 24, Type (0, 0), BuildingBlock: EZIPEK_clean_linker_0, # of connection points: 2
#     Edge 25, Type (0, 0), BuildingBlock: EZIPEK_clean_linker_0, # of connection points: 2
#     Edge 26, Type (0, 0), BuildingBlock: EZIPEK_clean_linker_0, # of connection points: 2
#     Edge 27, Type (0, 0), BuildingBlock: EZIPEK_clean_linker_0, # of connection points: 2
#     Edge 28, Type (0, 0), BuildingBlock: EZIPEK_clean_linker_0, # of connection points: 2
#     Edge 29, Type (0, 0), BuildingBlock: EZIPEK_clean_linker_0, # of connection points: 2
#     Edge 30, Type (0, 0), BuildingBlock: EZIPEK_clean_linker_0, # of connection points: 2
#     Edge 31, Type (0, 0), BuildingBlock: EZIPEK_clean_linker_0, # of connection points: 2
#     Edge 32, Type (0, 0), BuildingBlock: EZIPEK_clean_linker_0, # of connection points: 2
#     Edge 33, Type (0, 0), BuildingBlock: EZIPEK_clean_linker_0, # of connection points: 2
#     Edge 34, Type (0, 0), BuildingBlock: EZIPEK_clean_linker_0, # of connection points: 2
#     Edge 35, Type (0, 0), BuildingBlock: EZIPEK_clean_linker_0, # of connection points: 2
#     Edge 36, Type (0, 0), BuildingBlock: EZIPEK_clean_linker_0, # of connection points: 2
#     Edge 37, Type (0, 0), BuildingBlock: EZIPEK_clean_linker_0, # of connection points: 2
#     Edge 38, Type (0, 0), BuildingBlock: EZIPEK_clean_linker_0, # of connection points: 2
#     Edge 39, Type (0, 0), BuildingBlock: EZIPEK_clean_linker_0, # of connection points: 2
#     Edge 40, Type (0, 0), BuildingBlock: EZIPEK_clean_linker_0, # of connection points: 2
#     Edge 41, Type (0, 0), BuildingBlock: EZIPEK_clean_linker_0, # of connection points: 2
#     Edge 42, Type (0, 0), BuildingBlock: EZIPEK_clean_linker_0, # of connection points: 2
#     Edge 43, Type (0, 0), BuildingBlock: EZIPEK_clean_linker_0, # of connection points: 2
#     Edge 44, Type (0, 0), BuildingBlock: EZIPEK_clean_linker_0, # of connection points: 2
#     Edge 45, Type (0, 0), BuildingBlock: EZIPEK_clean_linker_0, # of connection points: 2
#     Edge 46, Type (0, 0), BuildingBlock: EZIPEK_clean_linker_0, # of connection points: 2
#     Edge 47, Type (0, 0), BuildingBlock: EZIPEK_clean_linker_0, # of connection points: 2
#     Edge 48, Type (0, 0), BuildingBlock: EZIPEK_clean_linker_0, # of connection points: 2
#     Edge 49, Type (0, 0), BuildingBlock: EZIPEK_clean_linker_0, # of connection points: 2
#     Edge 50, Type (0, 0), BuildingBlock: EZIPEK_clean_linker_0, # of connection points: 2
#     Edge 51, Type (0, 0), BuildingBlock: EZIPEK_clean_linker_0, # of connection points: 2
#     Edge 52, Type (0, 0), BuildingBlock: EZIPEK_clean_linker_0, # of connection points: 2
#     Edge 53, Type (0, 0), BuildingBlock: EZIPEK_clean_linker_0, # of connection points: 2
#     Edge 54, Type (0, 0), BuildingBlock: EZIPEK_clean_linker_0, # of connection points: 2
#     Edge 55, Type (0, 0), BuildingBlock: EZIPEK_clean_linker_0, # of connection points: 2
#     Edge 56, Type (0, 0), BuildingBlock: EZIPEK_clean_linker_0, # of connection points: 2
#     Edge 57, Type (0, 0), BuildingBlock: EZIPEK_clean_linker_0, # of connection points: 2
#     Edge 58, Type (0, 0), BuildingBlock: EZIPEK_clean_linker_0, # of connection points: 2
#     Edge 59, Type (0, 0), BuildingBlock: EZIPEK_clean_linker_0, # of connection points: 2
#     Edge 60, Type (0, 0), BuildingBlock: EZIPEK_clean_linker_0, # of connection points: 2
#     Edge 61, Type (0, 0), BuildingBlock: EZIPEK_clean_linker_0, # of connection points: 2
#     Edge 62, Type (0, 0), BuildingBlock: EZIPEK_clean_linker_0, # of connection points: 2
#     Edge 63, Type (0, 0), BuildingBlock: EZIPEK_clean_linker_0, # of connection points: 2
# Relax obj value: 0.161
# Max RMSD: 0.259
# Mean RMSD: 0.250
data_MOF--net-snl--node1-KUMJIN_clean_sbu_0--edge1-EZIPEK_clean_linker_0
_symmetry_space_group_name_H-M    P1
_symmetry_Int_Tables_number       1
_symmetry_cell_setting            triclinic
loop_
_symmetry_equiv_pos_as_xyz
'x, y, z'
_cell_length_a     41.041412
_cell_length_b     40.711981
_cell_length_c     20.419036
_cell_angle_alpha  90.306345
_cell_angle_beta   90.685908
_cell_angle_gamma 90.15249
loop_
_atom_site_label
_atom_site_type_symbol
_atom_site_fract_x
_atom_site_fract_y
_atom_site_fract_z
_atom_type_partial_charge
Eu0 Eu 0.11022 0.61309 0.22729 0.0
C1 C 0.16395 0.71138 0.03205 0.0
C2 C 0.1217 0.72227 0.91019 0.0
C3 C 0.16524 0.78044 0.92327 0.0
C4 C 0.13479 0.7007 0.97801 0.0
C5 C 0.18537 0.7473 0.0265 0.0
C6 C 0.13491 0.75946 0.88341 0.0
C7 C 0.22389 0.71946 0.09719 0.0
N8 N 0.17529 0.68778 0.07194 0.0
C9 C 0.20719 0.6897 0.09066 0.0
C10 C 0.21155 0.74862 0.07337 0.0
Eu11 Eu 0.14582 0.63744 0.07483 0.0
N12 N 0.12036 0.67144 0.99012 0.0
C13 C 0.09685 0.65978 0.94725 0.0
C14 C 0.09683 0.70749 0.8747 0.0
C15 C 0.08486 0.67709 0.89307 0.0
H16 H 0.22064 0.66788 0.10288 0.0
H17 H 0.06578 0.66593 0.86329 0.0
H18 H 0.12415 0.76999 0.83972 0.0
H19 H 0.24802 0.71968 0.11905 0.0
H20 H 0.08624 0.63604 0.95459 0.0
H21 H 0.20556 0.51724 0.20827 0.0
H22 H 0.08673 0.71941 0.83179 0.0
H23 H 0.02785 0.59679 0.2251 0.0
H24 H 0.18115 0.57035 0.18573 0.0
H25 H 0.99159 0.55046 0.24361 0.0
H26 H 0.17314 0.80361 0.90168 0.0
H27 H 0.17368 0.47401 0.26247 0.0
H28 H 0.12026 0.45491 0.30367 0.0
H29 H 0.22632 0.77001 0.08434 0.0
H30 H 0.06157 0.46385 0.31453 0.0
N31 N 0.13565 0.55972 0.23097 0.0
C32 C 0.16673 0.55271 0.2112 0.0
C33 C 0.16286 0.49788 0.25419 0.0
C34 C 0.13047 0.50403 0.27009 0.0
C35 C 0.18083 0.52212 0.22328 0.0
C36 C 0.1173 0.5355 0.25766 0.0
H37 H 0.01329 0.4984 0.28686 0.0
N38 N 0.07171 0.56995 0.24427 0.0
C39 C 0.01753 0.54762 0.25131 0.0
C40 C 0.08422 0.54073 0.26431 0.0
C41 C 0.03863 0.5737 0.23861 0.0
C42 C 0.02988 0.51831 0.27571 0.0
C43 C 0.06355 0.51441 0.28205 0.0
O44 O 0.07897 0.61898 0.31303 0.0
O45 O 0.13445 0.65638 0.17491 0.0
O46 O 0.18697 0.63408 0.16023 0.0
O47 O 0.16207 0.61982 0.2569 0.0
O48 O 0.09284 0.66634 0.22685 0.0
O49 O 0.13098 0.62245 0.32533 0.0
O50 O 0.19166 0.62848 1.02196 0.0
O51 O 0.11448 0.59676 0.11862 0.0
O52 O 0.06615 0.62466 0.16622 0.0
O53 O 0.08851 0.6449 0.06992 0.0
O54 O 0.15649 0.58306 0.07487 0.0
O55 O 0.14589 0.61569 0.9776 0.0
C56 C 0.1152 0.67964 0.19148 0.0
C57 C 0.10153 0.60392 0.41807 0.0
C58 C 0.11654 0.59862 0.53487 0.0
C59 C 0.11894 0.6153 0.47432 0.0
C60 C 0.09658 0.57069 0.53843 0.0
C61 C 0.08212 0.57563 0.42357 0.0
C62 C 0.07974 0.55919 0.48313 0.0
C63 C 0.18837 0.62746 0.22529 0.0
C64 C 0.10309 0.62211 0.35487 0.0
C65 C 0.07701 0.48409 0.29988 0.0
C66 C 0.11044 0.47897 0.29386 0.0
C67 C 0.12932 0.57162 0.09548 0.0
C68 C 0.18719 0.63062 0.90381 0.0
C69 C 0.17079 0.62081 0.84511 0.0
C70 C 0.1804 0.63332 0.78366 0.0
C71 C 0.20608 0.65604 0.78177 0.0
C72 C 0.21342 0.65263 0.89962 0.0
C73 C 0.22216 0.66572 0.83934 0.0
C74 C 0.06287 0.63704 0.10719 0.0
C75 C 0.17691 0.61794 0.96879 0.0
H76 H 0.13402 0.63711 0.47122 0.0
H77 H 0.09393 0.55782 0.58438 0.0
H78 H 0.06819 0.56645 0.38223 0.0
H79 H 0.06446 0.53757 0.4866 0.0
H80 H 0.1506 0.60368 0.84709 0.0
H81 H 0.21336 0.66663 0.73563 0.0
H82 H 0.22643 0.66085 0.9432 0.0
H83 H 0.24083 0.68433 0.83777 0.0
Eu84 Eu 0.67019 0.88686 0.47938 0.0
C85 C 0.58347 0.96103 0.26035 0.0
C86 C 0.54045 0.92459 0.22165 0.0
C87 C 0.53999 0.98191 0.18976 0.0
C88 C 0.56963 0.92992 0.25771 0.0
C89 C 0.56829 0.9875 0.22746 0.0
C90 C 0.52638 0.95045 0.18619 0.0
C91 C 0.61114 0.02304 0.26777 0.0
N92 N 0.61166 0.96545 0.29486 0.0
C93 C 0.62606 0.99592 0.29708 0.0
C94 C 0.58223 0.01878 0.2324 0.0
Eu95 Eu 0.63911 0.91604 0.32502 0.0
N96 N 0.58401 0.9052 0.2919 0.0
C97 C 0.56817 0.87583 0.29775 0.0
C98 C 0.52563 0.8937 0.22386 0.0
C99 C 0.539 0.86958 0.26393 0.0
H100 H 0.64977 0.99937 0.3198 0.0
H101 H 0.52701 0.846 0.26848 0.0
H102 H 0.50454 0.9465 0.15705 0.0
H103 H 0.62265 0.04697 0.27042 0.0
H104 H 0.57759 0.85683 0.32846 0.0
H105 H 0.75178 0.99415 0.47694 0.0
H106 H 0.50312 0.88875 0.19729 0.0
H107 H 0.68911 0.8068 0.49536 0.0
H108 H 0.69966 0.96544 0.47274 0.0
H109 H 0.7381 0.77268 0.50268 0.0
H110 H 0.52835 1.0018 0.16337 0.0
H111 H 0.80293 0.96279 0.48748 0.0
H112 H 0.83048 0.90874 0.50347 0.0
H113 H 0.57119 0.03967 0.20816 0.0
H114 H 0.82679 0.84874 0.51274 0.0
N115 N 0.7199 0.91747 0.48008 0.0
C116 C 0.72124 0.95103 0.47813 0.0
C117 C 0.77984 0.94989 0.4866 0.0
C118 C 0.77845 0.91574 0.49208 0.0
C119 C 0.75106 0.96763 0.48035 0.0
C120 C 0.74772 0.90001 0.48892 0.0
H121 H 0.79258 0.79777 0.51112 0.0
N122 N 0.71577 0.85168 0.4894 0.0
C123 C 0.74051 0.79885 0.5017 0.0
C124 C 0.74556 0.86627 0.49467 0.0
C125 C 0.71283 0.81842 0.49555 0.0
C126 C 0.77126 0.81323 0.50596 0.0
C127 C 0.77414 0.84735 0.50298 0.0
O128 O 0.66194 0.85725 0.56702 0.0
O129 O 0.62431 0.90153 0.42561 0.0
O130 O 0.63833 0.9596 0.40319 0.0
O131 O 0.64808 0.93558 0.50348 0.0
O132 O 0.62146 0.85998 0.48182 0.0
O133 O 0.67426 0.90851 0.57697 0.0
O134 O 0.67101 0.9458 0.26442 0.0
O135 O 0.68613 0.91019 0.38447 0.0
O136 O 0.66602 0.84212 0.41139 0.0
O137 O 0.63395 0.85899 0.3221 0.0
O138 O 0.68194 0.88476 0.29743 0.0
O139 O 0.64037 0.90843 0.21838 0.0
C140 C 0.60471 0.87933 0.44451 0.0
C141 C 0.68682 0.87464 0.66764 0.0
C142 C 0.69624 0.88494 0.7844 0.0
C143 C 0.67945 0.89183 0.72559 0.0
C144 C 0.72073 0.86093 0.78468 0.0
C145 C 0.71139 0.85073 0.66888 0.0
C146 C 0.7282 0.84396 0.72712 0.0
C147 C 0.63907 0.96115 0.469 0.0
C148 C 0.66773 0.88144 0.60757 0.0
C149 C 0.80467 0.86291 0.50634 0.0
C150 C 0.8068 0.89703 0.50085 0.0
C151 C 0.7022 0.89332 0.34273 0.0
C152 C 0.66143 0.95065 0.14825 0.0
C153 C 0.66425 0.93431 0.08751 0.0
C154 C 0.66643 0.9522 0.02867 0.0
C155 C 0.66351 0.98652 0.03062 0.0
C156 C 0.6612 0.98516 0.149 0.0
C157 C 0.66114 1.00285 0.09059 0.0
C158 C 0.64864 0.83554 0.35738 0.0
C159 C 0.66242 0.93123 0.20968 0.0
H160 H 0.66045 0.91029 0.72523 0.0
H161 H 0.73392 0.85529 0.8295 0.0
H162 H 0.71743 0.83704 0.62528 0.0
H163 H 0.74687 0.82525 0.72764 0.0
H164 H 0.66618 0.90775 0.08616 0.0
H165 H 0.66458 1.00071 0.98594 0.0
H166 H 0.66207 0.9987 0.19436 0.0
H167 H 0.66033 0.02939 0.09197 0.0
Eu168 Eu 0.3879 0.41205 0.72912 0.0
C169 C 0.30438 0.33154 0.51448 0.0
C170 C 0.33243 0.28064 0.49083 0.0
C171 C 0.27559 0.2868 0.45899 0.0
C172 C 0.33226 0.31265 0.51767 0.0
C173 C 0.27564 0.31874 0.48521 0.0
C174 C 0.30406 0.26797 0.46099 0.0
C175 C 0.25043 0.37159 0.5007 0.0
N176 N 0.30598 0.36314 0.5359 0.0
C177 C 0.27989 0.38365 0.52623 0.0
C178 C 0.24826 0.33896 0.48016 0.0
Eu179 Eu 0.35869 0.38309 0.56734 0.0
N180 N 0.35959 0.32599 0.54487 0.0
C181 C 0.38791 0.30858 0.54634 0.0
C182 C 0.36139 0.26262 0.49319 0.0
C183 C 0.38917 0.2765 0.52191 0.0
H184 H 0.28174 0.40942 0.5387 0.0
H185 H 0.41179 0.2629 0.52349 0.0
H186 H 0.30384 0.24356 0.43953 0.0
H187 H 0.22966 0.38767 0.49531 0.0
H188 H 0.40983 0.31975 0.56443 0.0
H189 H 0.28719 0.47347 0.86052 0.0
H190 H 0.36263 0.23815 0.4724 0.0
H191 H 0.45949 0.45037 0.69762 0.0
H192 H 0.32428 0.42816 0.83625 0.0
H193 H 0.47884 0.50503 0.66627 0.0
H194 H 0.25387 0.27668 0.43582 0.0
H195 H 0.29693 0.5284 0.81404 0.0
H196 H 0.3342 0.56579 0.75423 0.0
H197 H 0.2257 0.32997 0.45842 0.0
H198 H 0.38734 0.57453 0.70069 0.0
N199 N 0.35252 0.45535 0.76707 0.0
C200 C 0.32825 0.45146 0.81236 0.0
C201 C 0.31295 0.50828 0.80155 0.0
C202 C 0.34062 0.51341 0.76379 0.0
C203 C 0.30734 0.47733 0.82773 0.0
C204 C 0.36051 0.48624 0.74814 0.0
H205 H 0.44134 0.55237 0.66921 0.0
N206 N 0.41026 0.46517 0.71059 0.0
C207 C 0.45367 0.50149 0.67984 0.0
C208 C 0.39034 0.4913 0.71922 0.0
C209 C 0.44231 0.47026 0.69642 0.0
C210 C 0.4325 0.52812 0.68174 0.0
C211 C 0.40076 0.52343 0.70394 0.0
O212 O 0.43136 0.41506 0.79139 0.0
O213 O 0.37661 0.36783 0.6655 0.0
O214 O 0.31366 0.38468 0.63623 0.0
O215 O 0.33449 0.40019 0.7384 0.0
O216 O 0.38956 0.35777 0.75932 0.0
O217 O 0.38482 0.40366 0.83424 0.0
O218 O 0.35163 0.41259 0.47912 0.0
O219 O 0.37988 0.42723 0.62206 0.0
O220 O 0.43425 0.39943 0.67491 0.0
O221 O 0.41561 0.37904 0.57374 0.0
O222 O 0.33711 0.43368 0.56869 0.0
O223 O 0.38427 0.37145 0.47603 0.0
C224 C 0.38141 0.3439 0.70482 0.0
C225 C 0.42248 0.43165 0.90218 0.0
C226 C 0.41982 0.44004 1.02031 0.0
C227 C 0.41322 0.42087 0.96444 0.0
C228 C 0.43673 0.46984 1.01382 0.0
C229 C 0.43782 0.46235 0.89595 0.0
C230 C 0.44532 0.48108 0.95176 0.0
C231 C 0.3101 0.39167 0.69971 0.0
C232 C 0.41541 0.41027 0.84532 0.0
C233 C 0.37976 0.54999 0.7138 0.0
C234 C 0.34972 0.54502 0.74395 0.0
C235 C 0.3598 0.44899 0.60059 0.0
C236 C 0.35738 0.38617 0.37657 0.0
C237 C 0.37645 0.3927 0.32138 0.0
C238 C 0.36259 0.39104 0.25821 0.0
C239 C 0.33049 0.37968 0.24994 0.0
C240 C 0.32516 0.37526 0.36733 0.0
C241 C 0.31205 0.37136 0.30437 0.0
C242 C 0.43957 0.38705 0.61603 0.0
C243 C 0.37017 0.39455 0.44254 0.0
H244 H 0.40051 0.39763 0.96948 0.0
H245 H 0.44268 0.48457 0.0566 0.0
H246 H 0.44406 0.47185 0.8483 0.0
H247 H 0.45762 0.50448 0.94687 0.0
H248 H 0.40139 0.40107 0.3275 0.0
H249 H 0.31945 0.37826 0.20153 0.0
H250 H 0.30975 0.37071 0.40841 0.0
H251 H 0.2871 0.36316 0.29791 0.0
Eu252 Eu 0.90623 0.11932 0.81807 0.0
C253 C 0.82417 0.20293 1.02158 0.0
C254 C 0.85465 0.24979 0.06336 0.0
C255 C 0.79695 0.24508 0.08607 0.0
C256 C 0.85322 0.2206 0.02595 0.0
C257 C 0.79558 0.21557 0.05037 0.0
C258 C 0.82653 0.26179 0.09369 0.0
C259 C 0.7667 0.16714 1.01372 0.0
N260 N 0.82405 0.17304 0.99159 0.0
C261 C 0.79594 0.15453 0.99014 0.0
C262 C 0.76654 0.19775 0.04432 0.0
Eu263 Eu 0.87731 0.15248 0.96956 0.0
N264 N 0.88033 0.20876 0.99613 0.0
C265 C 0.90884 0.22598 0.99874 0.0
C266 C 0.88438 0.2662 0.06952 0.0
C267 C 0.91135 0.25495 0.03531 0.0
H268 H 0.79593 0.12973 0.97133 0.0
H269 H 0.93434 0.26795 0.03881 0.0
H270 H 0.82731 0.28433 0.12214 0.0
H271 H 0.74461 0.1526 1.01082 0.0
H272 H 0.93014 0.21688 0.97522 0.0
H273 H 0.79769 0.03811 0.82537 0.0
H274 H 0.88643 0.28763 0.10041 0.0
H275 H 0.98701 0.09522 0.83465 0.0
H276 H 0.82658 0.08944 0.82651 0.0
H277 H 0.01828 0.0453 0.85 0.0
H278 H 0.77534 0.25493 0.10893 0.0
H279 H 0.82791 0.98604 0.8277 0.0
H280 H 0.88034 0.95761 0.83463 0.0
H281 H 0.7441 0.20693 0.06491 0.0
H282 H 0.94012 0.95896 0.83916 0.0
N283 N 0.87443 0.06926 0.82247 0.0
C284 C 0.84103 0.068 0.82345 0.0
C285 C 0.84114 1.00907 0.82545 0.0
C286 C 0.87509 1.00989 0.82591 0.0
C287 C 0.82406 0.03831 0.82414 0.0
C288 C 0.89142 0.04059 0.82381 0.0
H289 H 0.9912 0.9914 0.84694 0.0
N290 N 0.94037 0.07149 0.83114 0.0
C291 C 0.99212 0.04389 0.84358 0.0
C292 C 0.92513 0.04172 0.82843 0.0
C293 C 0.97377 0.07247 0.83619 0.0
C294 C 0.9768 1.01353 0.84163 0.0
C295 C 0.94304 1.01204 0.83377 0.0
O296 O 0.93891 0.11112 0.73588 0.0
O297 O 0.89385 0.16684 0.8699 0.0
O298 O 0.83444 0.14891 0.8905 0.0
O299 O 0.85771 0.14173 0.78887 0.0
O300 O 0.93075 0.16985 0.80567 0.0
O301 O 0.88837 0.12078 0.71689 0.0
O302 O 0.85315 0.12376 0.04458 0.0
O303 O 0.88075 0.10505 0.91144 0.0
O304 O 0.95082 0.12925 0.88203 0.0
O305 O 0.93409 0.15893 0.97343 0.0
O306 O 0.90334 0.10643 1.00138 0.0
O307 O 0.88958 0.16044 0.07343 0.0
C308 C 0.91401 0.18744 0.84595 0.0
C309 C 0.92544 0.13971 0.63813 0.0
C310 C 0.91705 0.15897 0.52604 0.0
C311 C 0.909 0.13757 0.57737 0.0
C312 C 0.94164 0.18255 0.53599 0.0
C313 C 0.94973 0.16377 0.64729 0.0
C314 C 0.95777 0.18497 0.5964 0.0
C315 C 0.83194 0.14796 0.82469 0.0
C316 C 0.91683 0.11687 0.69123 0.0
C317 C 0.92677 0.98176 0.83418 0.0
C318 C 0.89288 0.98082 0.83102 0.0
C319 C 0.89434 0.08713 0.95498 0.0
C320 C 0.85005 0.14517 0.15396 0.0
C321 C 0.86729 0.15032 0.21328 0.0
C322 C 0.85064 0.152 0.27321 0.0
C323 C 0.81652 0.14991 0.27308 0.0
C324 C 0.81595 0.14196 0.15568 0.0
C325 C 0.79932 0.14504 0.21457 0.0
C326 C 0.95738 0.1454 0.93678 0.0
C327 C 0.86833 0.13863 0.09305 0.0
H328 H 0.89004 0.11928 0.56986 0.0
H329 H 0.9482 0.19916 0.49699 0.0
H330 H 0.9625 0.16627 0.69366 0.0
H331 H 0.97658 0.20335 0.60385 0.0
H332 H 0.89369 0.15149 0.21331 0.0
H333 H 0.80326 0.15134 0.31849 0.0
H334 H 0.8021 0.13581 0.11225 0.0
H335 H 0.77305 0.14261 0.21509 0.0
Eu336 Eu 0.14916 0.37534 0.96123 0.0
C337 C 0.0602 0.44738 0.73841 0.0
C338 C 0.0203 0.40847 0.69714 0.0
C339 C 0.01734 0.46539 0.66333 0.0
C340 C 0.0483 0.41574 0.73542 0.0
C341 C 0.04412 0.47285 0.7041 0.0
C342 C 1.006 0.43307 0.65875 0.0
C343 C 0.08318 0.51097 0.74971 0.0
N344 N 0.08722 0.45331 0.77547 0.0
C345 C 0.09917 0.4847 0.77983 0.0
C346 C 0.05568 0.50498 0.71098 0.0
Eu347 Eu 0.11813 0.4056 0.80536 0.0
N348 N 0.06361 0.39223 0.77113 0.0
C349 C 0.04917 0.36228 0.77745 0.0
C350 C 1.00755 0.37669 0.69851 0.0
C351 C 0.02163 0.35372 0.74022 0.0
H352 H 0.12242 0.48939 0.80229 0.0
H353 H 1.01176 0.32917 0.74272 0.0
H354 H 0.98615 0.4273 0.62556 0.0
H355 H 0.09312 0.53557 0.75367 0.0
H356 H 0.05881 0.34469 0.81075 0.0
H357 H 0.26756 0.43661 0.95041 0.0
H358 H 0.98634 0.36996 0.66924 0.0
H359 H 0.13126 0.29762 0.99808 0.0
H360 H 0.20774 0.43239 0.94376 0.0
H361 H 0.15982 0.24692 0.03231 0.0
H362 H 1.00534 0.48437 0.635 0.0
H363 H 0.3006 0.38747 0.97559 0.0
H364 H 0.30243 0.32756 1.00448 0.0
H365 H 0.0439 0.52518 0.68584 0.0
H366 H 0.2731 0.27614 0.02744 0.0
N367 N 0.2067 0.38102 0.9626 0.0
C368 C 0.22178 0.41065 0.95435 0.0
C369 C 0.27429 0.38541 0.97244 0.0
C370 C 0.25862 0.35544 0.98365 0.0
C371 C 0.25574 0.41319 0.95812 0.0
C372 C 0.22432 0.35405 0.97845 0.0
H373 H 0.22007 0.24658 0.04062 0.0
N374 N 0.175 0.32456 0.98327 0.0
C375 C 0.17365 0.26859 1.01957 0.0
C376 C 0.20795 0.32495 0.98933 0.0
C377 C 0.15761 0.29718 0.99986 0.0
C378 C 0.20762 0.2684 0.02397 0.0
C379 C 0.22524 0.29666 1.00845 0.0
O380 O 0.12744 0.36235 0.0552 0.0
O381 O 0.10386 0.39294 0.90739 0.0
O382 O 0.11676 0.44748 0.88398 0.0
O383 O 0.14947 0.4305 0.97094 0.0
O384 O 0.09801 0.35393 0.96932 0.0
O385 O 0.16318 0.40097 0.05208 0.0
O386 O 0.14925 0.43876 0.75062 0.0
O387 O 0.16464 0.39922 0.86629 0.0
O388 O 0.14717 0.3317 0.88972 0.0
O389 O 0.11434 0.34867 0.80136 0.0
O390 O 0.16262 0.37699 0.77528 0.0
O391 O 0.12216 0.40027 0.699 0.0
C392 C 0.08261 0.37293 0.92937 0.0
C393 C 0.1587 0.37211 0.15204 0.0
C394 C 0.1658 0.37956 0.27013 0.0
C395 C 0.15276 0.39009 0.20971 0.0
C396 C 0.18497 0.35111 0.27246 0.0
C397 C 0.17785 0.34365 0.15547 0.0
C398 C 0.19094 0.33328 0.2153 0.0
C399 C 0.13171 0.45291 0.94157 0.0
C400 C 0.1446 0.38336 0.08924 0.0
C401 C 0.2594 0.29773 1.01326 0.0
C402 C 0.27608 0.32702 1.00038 0.0
C403 C 0.18175 0.38382 0.82369 0.0
C404 C 0.14124 0.44527 0.63464 0.0
C405 C 0.14263 0.42979 0.57294 0.0
C406 C 0.14463 0.44846 0.51538 0.0
C407 C 0.14412 0.48286 0.51957 0.0
C408 C 0.14234 0.47974 0.63796 0.0
C409 C 0.14321 0.49831 0.58071 0.0
C410 C 0.1296 0.32537 0.83588 0.0
C411 C 0.14267 0.42478 0.6942 0.0
H412 H 0.13803 0.41215 0.20774 0.0
H413 H 0.19527 0.34277 0.31854 0.0
H414 H 0.18267 0.32934 0.11226 0.0
H415 H 0.2057 0.31131 0.21736 0.0
H416 H 0.14342 0.40321 0.56972 0.0
H417 H 0.14562 0.49764 0.47572 0.0
H418 H 0.14345 0.49245 0.68448 0.0
H419 H 0.14419 0.52476 0.58398 0.0
Eu420 Eu 0.88963 0.93074 0.19598 0.0
C421 C 0.79155 0.84602 0.02991 0.0
C422 C 0.80759 0.79049 1.00391 0.0
C423 C 0.7503 0.80334 1.01589 0.0
C424 C 0.81586 0.82315 1.02093 0.0
C425 C 0.75846 0.83631 0.028 0.0
C426 C 0.77482 0.78054 1.00286 0.0
C427 C 0.74373 0.89276 0.04632 0.0
N428 N 0.80021 0.87797 0.03882 0.0
C429 C 0.77658 0.90155 0.04389 0.0
C430 C 0.73452 0.86009 0.03773 0.0
Eu431 Eu 0.85729 0.8901 0.04436 0.0
N432 N 0.84743 0.83332 0.02353 0.0
C433 C 0.87159 0.81256 1.00413 0.0
C434 C 0.83228 0.76927 0.98443 0.0
C435 C 0.86425 0.78066 0.98257 0.0
H436 H 0.78292 0.92702 0.05075 0.0
H437 H 0.88325 0.76486 0.9642 0.0
H438 H 0.76815 0.75544 0.99073 0.0
H439 H 0.72559 0.91121 0.05546 0.0
H440 H 0.89657 0.82089 1.00301 0.0
H441 H 0.80599 0.03528 0.22427 0.0
H442 H 0.82661 0.74457 0.96804 0.0
H443 H 0.97285 0.93831 0.22139 0.0
H444 H 0.82445 0.97893 0.24134 0.0
H445 H 0.01594 0.97796 0.19425 0.0
H446 H 0.72506 0.79544 1.01446 0.0
H447 H 0.84355 0.07653 0.17921 0.0
H448 H 0.90095 0.09153 0.15052 0.0
H449 H 0.70891 0.85356 0.03817 0.0
H450 H 0.95809 0.0759 0.14135 0.0
N451 N 0.87093 0.98625 0.19764 0.0
C452 C 0.8407 0.99579 0.21783 0.0
C453 C 0.85164 0.05146 0.18497 0.0
C454 C 0.88382 0.04256 0.17227 0.0
C455 C 0.83033 0.02821 0.21014 0.0
C456 C 0.89299 1.00938 0.17985 0.0
H457 H 1.00132 0.03357 0.15722 0.0
N458 N 0.93391 0.96924 0.1904 0.0
C459 C 0.99058 0.98463 0.18879 0.0
C460 C 0.92544 1.00055 0.17555 0.0
C461 C 0.96601 0.96206 0.20328 0.0
C462 C 0.98225 0.0159 0.16725 0.0
C463 C 0.94941 0.02466 0.16321 0.0
O464 O 0.9198 0.92234 0.28269 0.0
O465 O 0.88088 0.88294 0.14114 0.0
O466 O 0.82249 0.88266 0.13061 0.0
O467 O 0.83461 0.92889 0.19239 0.0
O468 O 0.89411 0.87737 0.2355 0.0
O469 O 0.86862 0.93564 0.29315 0.0
O470 O 0.84898 0.91325 0.94957 0.0
O471 O 0.87566 0.93693 0.09027 0.0
O472 O 0.9308 0.92592 0.12478 0.0
O473 O 0.91341 0.88287 0.05678 0.0
O474 O 0.83739 0.94133 0.0265 0.0
O475 O 0.88533 0.87525 0.95839 0.0
C476 C 0.88561 0.86095 0.18421 0.0
C477 C 0.90416 0.9472 0.38265 0.0
C478 C 0.90351 0.94998 0.50178 0.0
C479 C 0.89557 0.93371 0.44302 0.0
C480 C 0.92039 0.98002 0.4997 0.0
C481 C 0.92067 0.97737 0.38081 0.0
C482 C 0.92875 0.99369 0.43935 0.0
C483 C 0.81541 0.90386 0.17807 0.0
C484 C 0.89608 0.92859 0.32302 0.0
C485 C 0.94005 0.05713 0.15098 0.0
C486 C 0.90736 0.06606 0.15587 0.0
C487 C 0.85755 0.95796 0.06217 0.0
C488 C 0.85863 0.88138 0.85559 0.0
C489 C 0.87342 0.8923 0.79809 0.0
C490 C 0.8593 0.88526 0.73674 0.0
C491 C 0.83187 0.86467 0.73274 0.0
C492 C 0.8312 0.86082 0.85119 0.0
C493 C 0.81834 0.85197 0.78987 0.0
C494 C 0.93684 0.90222 0.08265 0.0
C495 C 0.86979 0.89485 0.91888 0.0
H496 H 0.88288 0.91032 0.44439 0.0
H497 H 0.92683 0.99287 0.54462 0.0
H498 H 0.92741 0.98812 0.33446 0.0
H499 H 0.94157 0.01694 0.43795 0.0
H500 H 0.895 0.90763 0.80092 0.0
H501 H 0.82067 0.85899 0.68569 0.0
H502 H 0.81932 0.8523 0.89493 0.0
H503 H 0.7972 0.83613 0.78685 0.0
Eu504 Eu 0.3884 0.61355 0.34571 0.0
C505 C 0.35865 0.71938 0.55114 0.0
C506 C 0.40044 0.7228 0.67521 0.0
C507 C 0.36481 0.78615 0.6664 0.0
C508 C 0.3853 0.70431 0.60541 0.0
C509 C 0.34157 0.75731 0.55943 0.0
C510 C 0.39191 0.76089 0.70502 0.0
C511 C 0.30847 0.73893 0.4653 0.0
N512 N 0.34906 0.69958 0.50176 0.0
C513 C 0.32368 0.70849 0.4622 0.0
C514 C 0.31753 0.76335 0.50937 0.0
Eu515 Eu 0.36776 0.64452 0.50539 0.0
N516 N 0.39498 0.67339 0.59233 0.0
C517 C 0.41331 0.65655 0.63696 0.0
C518 C 0.42175 0.7035 0.71117 0.0
C519 C 0.42745 0.67105 0.69293 0.0
H520 H 0.31466 0.69236 0.42482 0.0
H521 H 0.44251 0.65602 0.72462 0.0
H522 H 0.40344 0.76919 0.75008 0.0
H523 H 0.28896 0.74395 0.4306 0.0
H524 H 0.41635 0.63047 0.63089 0.0
H525 H 0.29531 0.51743 0.38543 0.0
H526 H 0.43288 0.71307 0.75569 0.0
H527 H 0.46048 0.60103 0.27334 0.0
H528 H 0.31495 0.57252 0.36613 0.0
H529 H 0.50025 0.55704 0.25961 0.0
H530 H 0.36007 0.81002 0.68931 0.0
H531 H 0.3336 0.47077 0.38541 0.0
H532 H 0.39008 0.4509 0.37091 0.0
H533 H 0.30408 0.78591 0.50337 0.0
H534 H 0.44625 0.46092 0.33558 0.0
N535 N 0.36508 0.5595 0.35697 0.0
C536 C 0.33254 0.55339 0.3659 0.0
C537 C 0.34256 0.49542 0.37682 0.0
C538 C 0.37532 0.50126 0.36345 0.0
C539 C 0.32096 0.52161 0.37679 0.0
C540 C 0.38597 0.53383 0.35332 0.0
H541 H 0.48776 0.50065 0.29398 0.0
N542 N 0.42681 0.57134 0.32442 0.0
C543 C 0.47763 0.55196 0.28291 0.0
C544 C 0.41783 0.53995 0.33695 0.0
C545 C 0.4553 0.57717 0.29285 0.0
C546 C 0.47033 0.52014 0.30224 0.0
C547 C 0.43963 0.51356 0.32754 0.0
O548 O 0.40752 0.62636 0.249 0.0
O549 O 0.37628 0.6608 0.4025 0.0
O550 O 0.3203 0.63727 0.44027 0.0
O551 O 0.33644 0.62498 0.33489 0.0
O552 O 0.41351 0.66421 0.33759 0.0
O553 O 0.35826 0.60924 0.2568 0.0
O554 O 0.31959 0.64756 0.5502 0.0
O555 O 0.37033 0.59785 0.44591 0.0
O556 O 0.43585 0.61397 0.40432 0.0
O557 O 0.42516 0.64901 0.49357 0.0
O558 O 0.39552 0.59921 0.53415 0.0
O559 O 0.35634 0.61785 0.5957 0.0
C560 C 0.39726 0.68106 0.3796 0.0
C561 C 0.38389 0.6004 0.15503 0.0
C562 C 0.37495 0.59662 0.03618 0.0
C563 C 0.37314 0.61449 0.0955 0.0
C564 C 0.38785 0.56472 0.03707 0.0
C565 C 0.39639 0.5684 0.15464 0.0
C566 C 0.39851 0.55083 0.09596 0.0
C567 C 0.3139 0.63299 0.37616 0.0
C568 C 0.38086 0.61886 0.2172 0.0
C569 C 0.42963 0.48139 0.34077 0.0
C570 C 0.39758 0.47544 0.35946 0.0
C571 C 0.38634 0.58013 0.4872 0.0
C572 C 0.31965 0.64539 0.66719 0.0
C573 C 0.33562 0.63506 0.72532 0.0
C574 C 0.32652 0.64766 0.78689 0.0
C575 C 0.30302 0.67244 0.78956 0.0
C576 C 0.29475 0.66891 0.672 0.0
C577 C 0.2871 0.68283 0.73254 0.0
C578 C 0.44605 0.63236 0.4546 0.0
C579 C 0.32784 0.63104 0.60213 0.0
H580 H 0.36299 0.63905 0.09537 0.0
H581 H 0.38938 0.5505 0.99221 0.0
H582 H 0.40423 0.55686 0.19966 0.0
H583 H 0.40818 0.52619 0.09639 0.0
H584 H 0.35476 0.61709 0.72307 0.0
H585 H 0.2967 0.68326 0.83624 0.0
H586 H 0.28167 0.6772 0.6288 0.0
H587 H 0.26861 0.70166 0.73523 0.0
Eu588 Eu 0.62622 0.12775 0.73162 0.0
C589 C 0.71661 0.14201 0.49386 0.0
C590 C 0.75174 0.18866 0.51885 0.0
C591 C 0.77262 0.14291 0.45556 0.0
C592 C 0.72167 0.17212 0.52527 0.0
C593 C 0.74166 0.12817 0.45574 0.0
C594 C 0.77762 0.17316 0.48687 0.0
C595 C 0.70233 0.08984 0.41069 0.0
N596 N 0.68632 0.12822 0.49448 0.0
C597 C 0.6783 0.10436 0.44897 0.0
C598 C 0.73438 0.10111 0.41561 0.0
Eu599 Eu 0.6492 0.15386 0.56897 0.0
N600 N 0.69608 0.18704 0.55531 0.0
C601 C 0.69704 0.21997 0.56736 0.0
C602 C 0.75419 0.2212 0.54058 0.0
C603 C 0.72639 0.23726 0.56257 0.0
H604 H 0.65366 0.09527 0.44484 0.0
H605 H 0.72743 0.26316 0.57363 0.0
H606 H 0.80107 0.18522 0.48286 0.0
H607 H 0.6961 0.06998 0.37732 0.0
H608 H 0.675 0.23269 0.57957 0.0
H609 H 0.71576 0.1097 0.92919 0.0
H610 H 0.77672 0.23488 0.53585 0.0
H611 H 0.57399 0.0717 0.67318 0.0
H612 H 0.67596 0.14011 0.86138 0.0
H613 H 0.56586 1.01171 0.67165 0.0
H614 H 0.79239 0.13199 0.42839 0.0
H615 H 0.72135 0.04966 0.91426 0.0
H616 H 0.69905 0.99813 0.86428 0.0
H617 H 0.75293 0.08996 0.38546 0.0
H618 H 0.65614 0.97088 0.7983 0.0
N619 N 0.66425 0.09939 0.80006 0.0
C620 C 0.68026 0.11458 0.85116 0.0
C621 C 0.70506 0.06332 0.88241 0.0
C622 C 0.68467 0.04717 0.8372 0.0
C623 C 0.70206 0.09717 0.89088 0.0
C624 C 0.66383 0.06608 0.79693 0.0
H625 H 0.60536 0.97592 0.72926 0.0
N626 N 0.61854 0.07 0.72559 0.0
C627 C 0.58702 0.02231 0.69591 0.0
C628 C 0.63986 0.05092 0.75941 0.0
C629 C 0.5919 0.05629 0.6957 0.0
C630 C 0.6093 1.00224 0.72857 0.0
C631 C 0.63602 0.01645 0.76127 0.0
O632 O 0.58593 0.11152 0.78949 0.0
O633 O 0.62939 0.17159 0.66353 0.0
O634 O 0.69093 0.16521 0.64424 0.0
O635 O 0.68133 0.12599 0.72368 0.0
O636 O 0.63786 0.18133 0.76012 0.0
O637 O 0.61576 0.15035 0.82808 0.0
O638 O 0.62281 0.14589 0.47649 0.0
O639 O 0.62861 0.11051 0.62469 0.0
O640 O 0.57742 0.13315 0.67669 0.0
O641 O 0.59212 0.15917 0.57969 0.0
O642 O 0.6706 0.10332 0.57314 0.0
O643 O 0.63757 0.19503 0.50389 0.0
C644 C 0.63781 0.19442 0.7029 0.0
C645 C 0.59593 0.11051 0.90411 0.0
C646 C 0.60579 0.10887 1.02294 0.0
C647 C 0.60393 0.12668 0.96368 0.0
C648 C 0.59945 0.07497 1.02206 0.0
C649 C 0.59023 0.07634 0.90503 0.0
C650 C 0.59197 0.05886 0.96346 0.0
C651 C 0.70041 0.14805 0.69667 0.0
C652 C 0.59333 0.12881 0.84116 0.0
C653 C 0.65829 0.99741 0.79731 0.0
C654 C 0.68275 1.01281 0.83474 0.0
C655 C 0.64818 0.08856 0.60402 0.0
C656 C 0.64331 0.17856 0.39138 0.0
C657 C 0.6291 0.16443 0.33426 0.0
C658 C 0.6456 0.16563 0.27378 0.0
C659 C 0.67621 0.181 0.27118 0.0
C660 C 0.67442 0.19281 0.38699 0.0
C661 C 0.6906 0.19413 0.3275 0.0
C662 C 0.5694 0.14772 0.62077 0.0
C663 C 0.62729 0.17575 0.45628 0.0
H664 H 0.60884 0.15285 0.96404 0.0
H665 H 0.6008 0.06087 0.06688 0.0
H666 H 0.58443 0.06286 0.86057 0.0
H667 H 0.58755 0.03263 0.96328 0.0
H668 H 0.60571 0.15213 0.33696 0.0
H669 H 0.68935 0.18213 0.22552 0.0
H670 H 0.68633 0.20327 0.42957 0.0
H671 H 0.71456 0.20521 0.3251 0.0
Eu672 Eu 0.90014 0.41304 0.81734 0.0
C673 C 0.79724 0.34569 0.95011 0.0
C674 C 0.75837 0.38991 0.96199 0.0
C675 C 0.73915 0.3351 0.93468 0.0
C676 C 0.79088 0.37852 0.96193 0.0
C677 C 0.77115 0.3235 0.93837 0.0
C678 C 0.73287 0.36824 0.94582 0.0
C679 C 0.80977 0.27947 0.93722 0.0
N680 N 0.82862 0.33514 0.9521 0.0
C681 C 0.83476 0.30205 0.94979 0.0
C682 C 0.77788 0.29021 0.93064 0.0
Eu683 Eu 0.86968 0.3768 0.96758 0.0
N684 N 0.81618 0.39913 0.97548 0.0
C685 C 0.81004 0.42999 0.99891 0.0
C686 C 0.75238 0.4225 0.97977 0.0
C687 C 0.7783 0.44235 1.00012 0.0
H688 H 0.85918 0.2928 0.95634 0.0
H689 H 0.77387 0.46716 1.01711 0.0
H690 H 0.70809 0.3765 0.94272 0.0
H691 H 0.81496 0.25365 0.93365 0.0
H692 H 0.82923 0.44534 1.01774 0.0
H693 H 0.02403 0.46068 0.84797 0.0
H694 H 0.72782 0.43216 0.98056 0.0
H695 H 0.83588 0.45117 0.74878 0.0
H696 H 0.98112 0.41797 0.83613 0.0
H697 H 0.81786 0.50723 0.72186 0.0
H698 H 0.71902 0.31857 0.92396 0.0
H699 H 1.01012 0.51913 0.83437 0.0
H700 H 0.96789 0.5615 0.80501 0.0
H701 H 0.75859 0.27251 0.92132 0.0
H702 H 0.91157 0.57414 0.77017 0.0
N703 N 0.94307 0.4523 0.82418 0.0
C704 C 0.97467 0.44359 0.83436 0.0
C705 C 0.9911 0.50067 0.83105 0.0
C706 C 0.95903 0.50927 0.81522 0.0
C707 C 0.99901 0.46763 0.83934 0.0
C708 C 0.93537 0.48419 0.81121 0.0
H709 H 0.85562 0.55415 0.73837 0.0
N710 N 0.8819 0.46626 0.78647 0.0
C711 C 0.84194 0.50322 0.74247 0.0
C712 C 0.90375 0.4914 0.79144 0.0
C713 C 0.85194 0.47148 0.75908 0.0
C714 C 0.86335 0.52961 0.75162 0.0
C715 C 0.89494 0.52379 0.77524 0.0
O716 O 0.88628 0.40387 0.71577 0.0
O717 O 0.85319 0.40304 0.8743 0.0
O718 O 0.88094 0.33555 0.89459 0.0
O719 O 0.91736 0.35809 0.82145 0.0
O720 O 0.85242 0.39419 0.77536 0.0
O721 O 0.93752 0.40569 0.74252 0.0
O722 O 0.86887 0.34252 0.04907 0.0
O723 O 0.91484 0.38994 0.91147 0.0
O724 O 0.89552 0.45486 0.89555 0.0
O725 O 0.88228 0.43005 0.99394 0.0
O726 O 0.92254 0.36218 0.99211 0.0
O727 O 0.87053 0.39467 0.06918 0.0
C728 C 0.83502 0.39257 0.82678 0.0
C729 C 0.92124 0.4236 0.63533 0.0
C730 C 0.92019 0.42846 0.51607 0.0
C731 C 0.91848 0.40901 0.57289 0.0
C732 C 0.9242 0.4626 0.52241 0.0
C733 C 0.92661 0.45756 0.64007 0.0
C734 C 0.92784 0.47696 0.58412 0.0
C735 C 0.90218 0.33201 0.84688 0.0
C736 C 0.91609 0.40367 0.69457 0.0
C737 C 0.91809 0.54907 0.78166 0.0
C738 C 0.95009 0.54185 0.80158 0.0
C739 C 0.93754 0.3768 0.94572 0.0
C740 C 0.8977 0.35988 0.14514 0.0
C741 C 0.8951 0.37563 0.20645 0.0
C742 C 0.91818 0.36951 0.25658 0.0
C743 C 0.94386 0.34762 0.24484 0.0
C744 C 0.92423 0.33879 0.1342 0.0
C745 C 0.94695 0.33259 0.18383 0.0
C746 C 0.8902 0.45628 0.95964 0.0
C747 C 0.87241 0.36526 0.09385 0.0
H748 H 0.9148 0.38271 0.56841 0.0
H749 H 0.92532 0.47798 0.47939 0.0
H750 H 0.93035 0.4691 0.68669 0.0
H751 H 0.93179 0.50318 0.58865 0.0
H752 H 0.87515 0.39241 0.21537 0.0
H753 H 0.96179 0.34254 0.28281 0.0
H754 H 0.92732 0.32645 0.08776 0.0
H755 H 0.96701 0.316 0.17496 0.0
Eu756 Eu 0.3889 0.11784 0.72819 0.0
C757 C 0.28103 0.15047 0.58762 0.0
C758 C 0.25533 0.09715 0.57943 0.0
C759 C 0.22315 0.14467 0.60812 0.0
C760 C 0.28355 0.11709 0.57871 0.0
C761 C 0.25031 0.16484 0.59819 0.0
C762 C 0.22557 0.11073 0.59877 0.0
C763 C 0.27432 0.21745 0.5764 0.0
N764 N 0.30794 0.16912 0.57815 0.0
C765 C 0.30437 0.20198 0.56689 0.0
C766 C 0.24745 0.19893 0.59486 0.0
Eu767 Eu 0.35894 0.14077 0.57176 0.0
N768 N 0.31275 0.10495 0.56023 0.0
C769 C 0.3136 0.07533 0.52839 0.0
C770 C 0.25732 0.06511 0.55526 0.0
C771 C 0.28612 0.05485 0.5262 0.0
H772 H 0.32509 0.21671 0.55408 0.0
H773 H 0.28719 0.0312 0.50189 0.0
H774 H 0.20397 0.09556 0.60262 0.0
H775 H 0.27213 0.24377 0.57148 0.0
H776 H 0.3351 0.06732 0.50328 0.0
H777 H 0.50229 0.18454 0.76831 0.0
H778 H 0.23612 0.04918 0.55376 0.0
H779 H 0.37395 0.03554 0.75731 0.0
H780 H 0.4447 0.17814 0.74392 0.0
H781 H 0.40534 0.9848 0.77175 0.0
H782 H 0.20006 0.1554 0.62072 0.0
H783 H 0.53642 0.13646 0.77704 0.0
H784 H 0.54185 0.07399 0.77823 0.0
H785 H 0.22429 0.21094 0.60282 0.0
H786 H 0.51619 0.02021 0.77441 0.0
N787 N 0.44529 0.12613 0.74085 0.0
C788 C 0.45873 0.15649 0.74971 0.0
C789 C 0.51118 0.13264 0.76705 0.0
C790 C 0.49752 0.10128 0.76014 0.0
C791 C 0.49175 0.16026 0.76272 0.0
C792 C 0.46376 0.09866 0.74789 0.0
H793 H 0.46547 0.98663 0.77239 0.0
N794 N 0.41578 0.06614 0.74343 0.0
C795 C 0.41792 1.00788 0.76441 0.0
C796 C 0.44876 0.06794 0.74833 0.0
C797 C 0.40029 0.03681 0.75595 0.0
C798 C 0.45178 1.00903 0.76464 0.0
C799 C 0.46757 0.03931 0.75874 0.0
O800 O 0.36326 0.09415 0.80812 0.0
O801 O 0.34169 0.11913 0.66944 0.0
O802 O 0.36297 0.1894 0.62844 0.0
O803 O 0.38954 0.17548 0.72564 0.0
O804 O 0.34405 0.14545 0.75612 0.0
O805 O 0.40151 0.12967 0.83035 0.0
O806 O 0.35188 0.17053 0.48411 0.0
O807 O 0.40596 0.13006 0.62719 0.0
O808 O 0.37866 0.0716 0.66321 0.0
O809 O 0.38166 0.09034 0.55771 0.0
O810 O 0.40642 0.17091 0.56896 0.0
O811 O 0.36853 0.1208 0.47396 0.0
C812 C 0.32431 0.13438 0.7121 0.0
C813 C 0.38914 0.09045 0.91339 0.0
C814 C 0.40067 0.0906 0.03116 0.0
C815 C 0.39648 0.10763 0.97176 0.0
C816 C 0.39906 0.05619 0.03121 0.0
C817 C 0.38654 0.05607 0.91529 0.0
C818 C 0.3924 0.03914 0.97329 0.0
C819 C 0.37654 0.19793 0.68541 0.0
C820 C 0.38021 0.10911 0.85389 0.0
C821 C 0.50139 0.04187 0.76649 0.0
C822 C 0.51617 0.07273 0.76817 0.0
C823 C 0.42438 0.15327 0.60735 0.0
C824 C 0.38685 0.15887 0.39577 0.0
C825 C 0.38738 0.14326 0.33439 0.0
C826 C 0.40911 0.15373 0.28609 0.0
C827 C 0.43078 0.17964 0.29995 0.0
C828 C 0.40879 0.18471 0.40907 0.0
C829 C 0.43072 0.19487 0.3614 0.0
C830 C 0.38244 0.06599 0.59975 0.0
C831 C 0.36272 0.1483 0.44421 0.0
H832 H 0.39717 0.13426 0.97183 0.0
H833 H 0.40217 0.04264 0.07638 0.0
H834 H 0.37876 0.04213 0.87306 0.0
H835 H 0.3907 1.01275 0.97353 0.0
H836 H 0.37038 0.12345 0.32354 0.0
H837 H 0.44749 0.18818 0.26302 0.0
H838 H 0.4088 0.19734 0.45579 0.0
H839 H 0.44743 0.21488 0.37186 0.0
Eu840 Eu 0.62532 0.61601 0.32039 0.0
C841 C 0.70686 0.69333 0.53402 0.0
C842 C 0.76231 0.67646 0.51324 0.0
C843 C 0.75216 0.72456 0.58068 0.0
C844 C 0.72842 0.67159 0.50605 0.0
C845 C 0.71846 0.72005 0.57194 0.0
C846 C 0.77398 0.70328 0.55008 0.0
C847 C 0.66267 0.73521 0.59183 0.0
N848 N 0.67451 0.68742 0.52674 0.0
C849 C 0.65235 0.70771 0.55582 0.0
C850 C 0.6959 0.7413 0.60038 0.0
Eu851 Eu 0.65925 0.63641 0.47816 0.0
N852 N 0.71627 0.64465 0.47507 0.0
C853 C 0.73674 0.62082 0.45295 0.0
C854 C 0.78339 0.65341 0.48567 0.0
C855 C 0.77047 0.62532 0.45563 0.0
H856 H 0.6266 0.70274 0.55192 0.0
H857 H 0.78636 0.60665 0.43606 0.0
H858 H 0.79977 0.70742 0.55649 0.0
H859 H 0.64498 0.75132 0.61412 0.0
H860 H 0.7271 0.59809 0.43374 0.0
H861 H 0.53487 0.71793 0.33715 0.0
H862 H 0.80955 0.65648 0.48945 0.0
H863 H 0.59598 0.53948 0.2915 0.0
H864 H 0.57917 0.68362 0.37894 0.0
H865 H 0.56109 0.51299 0.20642 0.0
H866 H 0.76158 0.74483 0.60992 0.0
H867 H 0.50598 0.7029 0.23428 0.0
H868 H 0.49491 0.65997 0.14721 0.0
H869 H 0.70386 0.76232 0.62923 0.0
H870 H 0.50283 0.60296 0.10951 0.0
N871 N 0.5766 0.64859 0.30037 0.0
C872 C 0.56683 0.67593 0.3346 0.0
C873 C 0.52555 0.68749 0.25243 0.0
C874 C 0.53304 0.65778 0.22159 0.0
C875 C 0.54158 0.69586 0.31082 0.0
C876 C 0.55846 0.63853 0.24803 0.0
H877 H 0.5278 0.54726 0.13148 0.0
N878 N 0.58241 0.58788 0.26456 0.0
C879 C 0.56136 0.53946 0.21156 0.0
C880 C 0.56203 0.60661 0.22841 0.0
C881 C 0.58082 0.55448 0.26011 0.0
C882 C 0.54296 0.55891 0.16872 0.0
C883 C 0.54156 0.59284 0.17966 0.0
O884 O 0.64913 0.5733 0.27459 0.0
O885 O 0.67389 0.62108 0.37407 0.0
O886 O 0.65401 0.68548 0.42537 0.0
O887 O 0.63101 0.67238 0.32313 0.0
O888 O 0.66752 0.64641 0.28705 0.0
O889 O 0.6373 0.61582 0.21649 0.0
O890 O 0.63735 0.62963 0.57525 0.0
O891 O 0.61273 0.61838 0.42707 0.0
O892 O 0.62301 0.57142 0.39337 0.0
O893 O 0.66866 0.58315 0.45403 0.0
O894 O 0.60764 0.65418 0.49676 0.0
O895 O 0.6822 0.6057 0.55343 0.0
C896 C 0.68899 0.63836 0.33054 0.0
C897 C 0.64176 0.56571 0.15739 0.0
C898 C 0.63636 0.56017 0.0377 0.0
C899 C 0.64409 0.57921 0.0939 0.0
C900 C 0.6238 0.52839 0.04602 0.0
C901 C 0.63291 0.53253 0.16323 0.0
C902 C 0.62218 0.51474 0.10845 0.0
C903 C 0.64264 0.6941 0.36667 0.0
C904 C 0.64944 0.58634 0.21616 0.0
C905 C 0.51867 0.61291 0.14759 0.0
C906 C 0.51421 0.64538 0.16898 0.0
C907 C 0.59142 0.63507 0.4583 0.0
C908 C 0.67376 0.62019 0.66485 0.0
C909 C 0.65844 0.60787 0.7213 0.0
C910 C 0.67233 0.61317 0.78421 0.0
C911 C 0.70072 0.63224 0.79022 0.0
C912 C 0.7024 0.63882 0.67251 0.0
C913 C 0.71547 0.64518 0.73475 0.0
C914 C 0.64527 0.5625 0.43819 0.0
C915 C 0.66093 0.61187 0.59839 0.0
H916 H 0.65245 0.60427 0.08814 0.0
H917 H 0.61677 0.51361 1.00387 0.0
H918 H 0.63303 0.52057 0.21041 0.0
H919 H 0.61321 0.48993 0.11437 0.0
H920 H 0.63637 0.59358 0.71608 0.0
H921 H 0.71182 0.63659 0.83793 0.0
H922 H 0.71514 0.64792 0.63043 0.0
H923 H 0.73759 0.65955 0.73987 0.0
Eu924 Eu 0.15705 0.86956 0.07909 0.0
C925 C 0.10585 0.96211 0.29774 0.0
C926 C 0.15404 0.99645 0.30655 0.0
C927 C 0.10368 0.01402 0.35707 0.0
C928 C 0.13867 0.96702 0.28588 0.0
C929 C 0.0879 0.98586 0.3325 0.0
C930 C 0.13667 0.0194 0.34394 0.0
C931 C 0.03947 0.95353 0.3119 0.0
N932 N 0.09093 0.93561 0.26995 0.0
C933 C 0.0581 0.93109 0.27635 0.0
C934 C 0.05441 0.98104 0.34011 0.0
Eu935 Eu 0.12609 0.89387 0.23132 0.0
N936 N 0.15431 0.94489 0.24741 0.0
C937 C 0.18473 0.95197 0.22451 0.0
C938 C 0.18582 1.00277 0.28613 0.0
C939 C 0.20097 0.98072 0.24389 0.0
H940 H 0.04635 0.90917 0.25747 0.0
H941 H 0.22525 0.98577 0.22637 0.0
H942 H 0.14821 0.04191 0.3609 0.0
H943 H 0.01365 0.94935 0.31822 0.0
H944 H 0.19705 0.93534 0.1922 0.0
H945 H 0.05981 0.77664 0.05758 0.0
H946 H 0.19841 0.02512 0.30074 0.0
H947 H 0.23857 0.8686 0.06538 0.0
H948 H 0.08395 0.82596 0.08983 0.0
H949 H 0.28057 0.83866 1.00969 0.0
H950 H 0.09021 0.03229 0.38423 0.0
H951 H 0.08718 0.73426 1.00501 0.0
H952 H 0.17782 0.70703 0.89744 0.0
H953 H 0.03983 0.99855 0.36702 0.0
H954 H 0.23499 0.74126 0.89978 0.0
N955 N 0.13232 0.81685 0.05946 0.0
C956 C 0.09989 0.80978 0.06571 0.0
C957 C 0.10208 0.7554 1.01669 0.0
C958 C 0.13561 0.75944 0.99958 0.0
C959 C 0.08544 0.78023 0.04746 0.0
C960 C 0.15208 0.79483 0.03113 0.0
H961 H 0.26945 0.78971 0.94394 0.0
N962 N 0.20041 0.83424 0.04792 0.0
C963 C 0.25619 0.82841 1.00972 0.0
C964 C 0.19077 0.80636 1.01677 0.0
C965 C 0.23191 0.84509 0.04431 0.0
C966 C 0.2498 0.8008 0.9711 0.0
C967 C 0.21901 0.78676 0.96919 0.0
O968 O 0.18424 0.89426 1.0024 0.0
O969 O 0.1312 0.91261 0.1259 0.0
O970 O 0.08165 0.89726 0.1649 0.0
O971 O 0.10043 0.87682 0.06549 0.0
O972 O 0.17239 0.9234 0.07642 0.0
O973 O 0.14434 0.86149 0.97473 0.0
O974 O 0.09424 0.87147 0.3032 0.0
O975 O 0.14707 0.84854 0.17936 0.0
O976 O 0.20174 0.87011 0.15448 0.0
O977 O 0.17842 0.88116 0.25406 0.0
O978 O 0.10286 0.84438 0.22457 0.0
O979 O 0.14137 0.89041 0.33439 0.0
C980 C 0.14717 0.93686 0.10219 0.0
C981 C 0.18431 0.87363 0.89217 0.0
C982 C 0.18147 0.86985 0.77297 0.0
C983 C 0.16601 0.87366 0.8336 0.0
C984 C 0.21509 0.86394 0.7712 0.0
C985 C 0.21836 0.87085 0.88876 0.0
C986 C 0.23345 0.8646 0.82908 0.0
C987 C 0.07619 0.88693 0.10412 0.0
C988 C 0.16767 0.88073 0.95446 0.0
C989 C 0.21466 0.75088 0.92704 0.0
C990 C 0.17906 0.72929 0.9272 0.0
C991 C 0.12508 0.82764 0.19647 0.0
C992 C 0.10022 0.88614 0.41607 0.0
C993 C 0.1199 0.88447 0.47276 0.0
C994 C 0.10639 0.88954 0.53486 0.0
C995 C 0.07335 0.89759 0.54021 0.0
C996 C 0.06681 0.89299 0.4226 0.0
C997 C 0.0537 0.89941 0.48414 0.0
C998 C 0.20441 0.87462 0.21973 0.0
C999 C 0.11419 0.87659 0.35234 0.0
H1000 H 0.13996 0.87801 0.83485 0.0
H1001 H 0.22725 0.86052 0.72486 0.0
H1002 H 0.2335 0.87461 0.93145 0.0
H1003 H 0.2596 0.86146 0.82744 0.0
H1004 H 0.14539 0.87784 0.46894 0.0
H1005 H 0.06268 0.90162 0.58785 0.0
H1006 H 0.05051 0.89244 0.38073 0.0
H1007 H 0.028 0.90483 0.48855 0.0
Eu1008 Eu 0.88544 0.63688 0.2315 0.0
C1009 C 0.77487 0.65885 0.07905 0.0
C1010 C 0.75277 0.61192 1.02014 0.0
C1011 C 0.7161 0.64957 0.07414 0.0
C1012 C 0.77981 0.63003 0.04442 0.0
C1013 C 0.74273 0.66941 0.09221 0.0
C1014 C 0.72113 0.62103 0.03752 0.0
C1015 C 0.76473 0.72099 0.12976 0.0
N1016 N 0.80109 0.67811 0.09397 0.0
C1017 C 0.796 0.70963 0.11606 0.0
C1018 C 0.73803 0.70054 0.11928 0.0
Eu1019 Eu 0.85388 0.65515 0.07138 0.0
N1020 N 0.81065 0.62192 0.02745 0.0
C1021 C 0.81555 0.59846 0.98005 0.0
C1022 C 0.75806 0.58679 0.97475 0.0
C1023 C 0.78944 0.58084 0.95291 0.0
H1024 H 0.81533 0.72703 0.12349 0.0
H1025 H 0.7935 0.56287 0.91473 0.0
H1026 H 0.70031 0.60716 1.01974 0.0
H1027 H 0.7613 0.7457 0.14824 0.0
H1028 H 0.83983 0.59339 0.96261 0.0
H1029 H 1.00356 0.69481 0.26738 0.0
H1030 H 0.73793 0.57324 0.95326 0.0
H1031 H 0.86092 0.55798 0.2671 0.0
H1032 H 0.94793 0.68913 0.22366 0.0
H1033 H 0.88105 0.51207 0.33272 0.0
H1034 H 0.69141 0.65713 0.08475 0.0
H1035 H 0.02619 0.65138 0.33812 0.0
H1036 H 0.01818 0.5978 0.3949 0.0
H1037 H 0.71379 0.70955 0.12964 0.0
H1038 H 0.98544 0.54799 0.41173 0.0
N1039 N 0.94199 0.63984 0.25417 0.0
C1040 C 0.9591 0.66831 0.2465 0.0
C1041 C 1.00291 0.64752 0.3138 0.0
C1042 C 0.98472 0.61897 0.32429 0.0
C1043 C 0.99022 0.67211 0.2739 0.0
C1044 C 0.95434 0.61528 0.29185 0.0
H1045 H 0.93539 0.5151 0.38568 0.0
N1046 N 0.90474 0.58634 0.2762 0.0
C1047 C 0.89649 0.53327 0.32502 0.0
C1048 C 0.93515 0.58782 0.3033 0.0
C1049 C 0.88526 0.55953 0.28726 0.0
C1050 C 0.92715 0.53504 0.35479 0.0
C1051 C 0.9466 0.56278 0.34534 0.0
O1052 O 0.85192 0.64682 0.31174 0.0
O1053 O 0.83831 0.65007 0.17763 0.0
O1054 O 0.86489 0.70483 0.11539 0.0
O1055 O 0.88917 0.69374 0.21609 0.0
O1056 O 0.83846 0.60828 0.2337 0.0
O1057 O 0.90242 0.65718 0.3266 0.0
O1058 O 0.86516 0.69874 1.01366 0.0
O1059 O 0.9006 0.65401 0.13249 0.0
O1060 O 0.89231 0.58891 0.16966 0.0
O1061 O 0.85985 0.59933 0.078 0.0
O1062 O 0.90301 0.6346 0.03962 0.0
O1063 O 0.85086 0.65472 0.9639 0.0
C1064 C 0.81955 0.62776 0.20154 0.0
C1065 C 0.87317 0.63694 0.41759 0.0
C1066 C 0.88143 0.63713 0.53651 0.0
C1067 C 0.88692 0.65124 0.47455 0.0
C1068 C 0.86386 0.60751 0.54003 0.0
C1069 C 0.85648 0.60686 0.42248 0.0
C1070 C 0.85215 0.59217 0.48327 0.0
C1071 C 0.87826 0.71483 0.17096 0.0
C1072 C 0.87435 0.65434 0.35422 0.0
C1073 C 0.9766 0.56663 0.37828 0.0
C1074 C 0.9954 0.59484 0.36833 0.0
C1075 C 0.92009 0.64072 0.09168 0.0
C1076 C 0.8903 0.68712 0.91125 0.0
C1077 C 0.88582 0.67859 0.8448 0.0
C1078 C 0.91143 0.68229 0.79995 0.0
C1079 C 0.94139 0.69522 0.82193 0.0
C1080 C 0.92119 0.69803 0.93266 0.0
C1081 C 0.94636 0.70245 0.88816 0.0
C1082 C 0.87723 0.57883 0.11459 0.0
C1083 C 0.86284 0.68385 0.9574 0.0
H1084 H 0.90051 0.67402 0.47115 0.0
H1085 H 0.85945 0.59612 0.58696 0.0
H1086 H 0.8459 0.59509 0.37955 0.0
H1087 H 0.83889 0.56923 0.48656 0.0
H1088 H 0.86243 0.66923 0.82781 0.0
H1089 H 0.96118 0.69875 0.78803 0.0
H1090 H 0.92612 0.70294 0.98367 0.0
H1091 H 0.96988 0.71131 0.9052 0.0
Eu1092 Eu 0.13072 0.10421 0.81189 0.0
C1093 C 0.24452 0.13948 0.94573 0.0
C1094 C 0.26972 0.08712 0.96822 0.0
C1095 C 0.30224 0.13154 0.92473 0.0
C1096 C 0.24176 0.1073 0.96537 0.0
C1097 C 0.27525 0.15246 0.92896 0.0
C1098 C 0.29936 0.09871 0.94372 0.0
C1099 C 0.25144 0.2064 0.93098 0.0
N1100 N 0.21787 0.15892 0.94962 0.0
C1101 C 0.22147 0.19224 0.94686 0.0
C1102 C 0.27827 0.18632 0.92014 0.0
Eu1103 Eu 0.1666 0.1327 0.96708 0.0
N1104 N 0.21273 0.09713 0.98928 0.0
C1105 C 0.21244 0.07 0.02911 0.0
C1106 C 0.2676 0.05679 0.99948 0.0
C1107 C 0.23917 0.04881 0.0324 0.0
H1108 H 0.20106 0.20822 0.95509 0.0
H1109 H 0.23796 0.02664 0.06131 0.0
H1110 H 0.32066 0.08311 0.94347 0.0
H1111 H 0.25372 0.23278 0.92667 0.0
H1112 H 0.19155 0.06413 0.0584 0.0
H1113 H 1.01038 0.1447 0.74401 0.0
H1114 H 0.28848 0.0406 1.00272 0.0
H1115 H 0.16332 0.02632 0.81133 0.0
H1116 H 0.06207 0.14707 0.80599 0.0
H1117 H 0.14891 0.97219 0.76749 0.0
H1118 H 0.32574 0.14096 0.91021 0.0
H1119 H 0.99442 0.09312 0.68669 0.0
H1120 H 1.0048 0.0332 0.66712 0.0
H1121 H 0.30145 0.19729 0.9076 0.0
H1122 H 0.04143 0.98573 0.67783 0.0
N1123 N 0.07484 0.09801 0.78643 0.0
C1124 C 0.05461 0.1244 0.78403 0.0
C1125 C 0.01672 0.09408 0.71548 0.0
C1126 C 0.03636 0.06627 0.72229 0.0
C1127 C 0.02562 0.12317 0.7476 0.0
C1128 C 0.06593 0.06918 0.75783 0.0
H1129 H 0.09514 0.96276 0.71499 0.0
N1130 N 0.11737 0.04822 0.7875 0.0
C1131 C 0.1315 0.992 0.76439 0.0
C1132 C 0.08733 0.04309 0.76071 0.0
C1133 C 0.13957 0.02308 0.78919 0.0
C1134 C 0.101 0.98669 0.7355 0.0
C1135 C 0.07861 1.01248 0.73254 0.0
O1136 O 0.15748 0.09959 0.72002 0.0
O1137 O 0.17727 0.12304 0.86011 0.0
O1138 O 0.15536 0.17942 0.90845 0.0
O1139 O 0.12432 0.16113 0.81843 0.0
O1140 O 0.18031 0.08088 0.80549 0.0
O1141 O 0.11578 0.13126 0.72346 0.0
O1142 O 0.16562 0.17578 0.0323 0.0
O1143 O 0.12005 0.12924 0.90651 0.0
O1144 O 0.11999 0.06381 0.88997 0.0
O1145 O 0.1558 0.07805 0.97408 0.0
O1146 O 0.1145 0.12615 1.00476 0.0
O1147 O 0.16434 0.12691 0.07287 0.0
C1148 C 0.19748 0.10249 0.83607 0.0
C1149 C 0.12957 0.1086 0.61956 0.0
C1150 C 0.13517 0.1155 0.50132 0.0
C1151 C 0.14 0.12718 0.56569 0.0
C1152 C 0.11747 0.08641 0.4909 0.0
C1153 C 0.11288 0.07901 0.60788 0.0
C1154 C 0.10626 0.06834 0.54398 0.0
C1155 C 0.13815 0.18525 0.85413 0.0
C1156 C 0.13854 0.1191 0.68691 0.0
C1157 C 0.04844 1.00896 0.70005 0.0
C1158 C 0.02762 0.03598 0.69386 0.0
C1159 C 0.09861 0.12491 0.95034 0.0
C1160 C 0.18355 0.16871 0.14377 0.0
C1161 C 0.17265 0.15883 0.20567 0.0
C1162 C 0.18907 0.16895 0.26307 0.0
C1163 C 0.21649 0.18945 0.2582 0.0
C1164 C 0.21154 0.18838 0.13952 0.0
C1165 C 0.22777 0.19887 0.19661 0.0
C1166 C 0.13449 0.05747 0.94775 0.0
C1167 C 0.16471 0.1582 0.08543 0.0
H1168 H 0.1524 0.15032 0.57339 0.0
H1169 H 0.1133 0.07731 0.44167 0.0
H1170 H 0.10549 0.06381 0.64778 0.0
H1171 H 0.09326 0.0455 0.53562 0.0
H1172 H 0.15124 0.14329 0.20933 0.0
H1173 H 0.22937 0.19767 0.30193 0.0
H1174 H 0.22083 0.19553 0.09236 0.0
H1175 H 0.24921 0.21427 0.1931 0.0
Eu1176 Eu 0.66019 0.38016 0.57088 0.0
C1177 C 0.56379 0.4483 0.75754 0.0
C1178 C 0.5788 0.50586 0.75157 0.0
C1179 C 0.52401 0.49062 0.78309 0.0
C1180 C 0.58689 0.47232 0.74542 0.0
C1181 C 0.53223 0.45729 0.77727 0.0
C1182 C 0.54718 0.51486 0.76979 0.0
C1183 C 0.519 0.39972 0.78641 0.0
N1184 N 0.57238 0.41618 0.75194 0.0
C1185 C 0.55051 0.3919 0.76689 0.0
C1186 C 0.50999 0.43254 0.79206 0.0
Eu1187 Eu 0.62786 0.406 0.72617 0.0
N1188 N 0.61745 0.46299 0.72892 0.0
C1189 C 0.64142 0.48584 0.7209 0.0
C1190 C 0.60289 0.5294 0.74025 0.0
C1191 C 0.63436 0.5193 0.72481 0.0
H1192 H 0.55713 0.36637 0.76389 0.0
H1193 H 0.65329 0.53714 0.71606 0.0
H1194 H 0.54055 0.5405 0.77475 0.0
H1195 H 0.50182 0.38044 0.79796 0.0
H1196 H 0.66597 0.47841 0.71015 0.0
H1197 H 0.60196 0.26542 0.49163 0.0
H1198 H 0.59743 0.55531 0.74432 0.0
H1199 H 0.74255 0.39715 0.58306 0.0
H1200 H 0.60844 0.31331 0.56407 0.0
H1201 H 0.79334 0.37478 0.53995 0.0
H1202 H 0.49987 0.4979 0.79833 0.0
H1203 H 0.64715 0.24934 0.41995 0.0
H1204 H 0.70652 0.25541 0.39096 0.0
H1205 H 0.48603 0.43864 0.80886 0.0
H1206 H 0.75918 0.28244 0.41038 0.0
N1207 N 0.6557 0.3252 0.53238 0.0
C1208 C 0.62788 0.30695 0.53252 0.0
C1209 C 0.65036 0.2698 0.4531 0.0
C1210 C 0.68018 0.28631 0.4587 0.0
C1211 C 0.62455 0.27921 0.49258 0.0
C1212 C 0.68226 0.31403 0.50021 0.0
H1213 H 0.7921 0.32549 0.469 0.0
N1214 N 0.71267 0.35746 0.54785 0.0
C1215 C 0.77064 0.36173 0.53157 0.0
C1216 C 0.71176 0.33012 0.50947 0.0
C1217 C 0.74169 0.37376 0.55774 0.0
C1218 C 0.76981 0.33406 0.49124 0.0
C1219 C 0.74011 0.31824 0.47877 0.0
O1220 O 0.68935 0.41477 0.51528 0.0
O1221 O 0.65098 0.42563 0.63322 0.0
O1222 O 0.5843 0.40025 0.65545 0.0
O1223 O 0.60395 0.37006 0.5661 0.0
O1224 O 0.62725 0.42193 0.54382 0.0
O1225 O 0.65403 0.38346 0.4646 0.0
O1226 O 0.64592 0.37789 0.8103 0.0
O1227 O 0.64679 0.36291 0.66937 0.0
O1228 O 0.69986 0.38131 0.65435 0.0
O1229 O 0.6812 0.42044 0.72565 0.0
O1230 O 0.61127 0.35265 0.73548 0.0
O1231 O 0.63396 0.42877 0.82304 0.0
C1232 C 0.63421 0.44179 0.59093 0.0
C1233 C 0.69835 0.40358 0.40155 0.0
C1234 C 0.7041 0.39889 0.28295 0.0
C1235 C 0.68445 0.39905 0.33883 0.0
C1236 C 0.73795 0.40236 0.28998 0.0
C1237 C 0.73219 0.40858 0.40731 0.0
C1238 C 0.75188 0.40724 0.35201 0.0
C1239 C 0.57942 0.38253 0.60123 0.0
C1240 C 0.67669 0.40594 0.45883 0.0
C1241 C 0.73784 0.29142 0.43554 0.0
C1242 C 0.70783 0.27589 0.42464 0.0
C1243 C 0.62924 0.33955 0.69109 0.0
C1244 C 0.62883 0.39468 0.91537 0.0
C1245 C 0.64707 0.40036 0.97284 0.0
C1246 C 0.63443 0.39239 0.03443 0.0
C1247 C 0.60245 0.38016 0.03803 0.0
C1248 C 0.59729 0.38168 0.91975 0.0
C1249 C 0.584 0.37492 0.98092 0.0
C1250 C 0.70475 0.40122 0.70547 0.0
C1251 C 0.64344 0.40203 0.85166 0.0
H1252 H 0.65825 0.39655 0.33316 0.0
H1253 H 0.7534 0.40222 0.24733 0.0
H1254 H 0.74348 0.41419 0.45409 0.0
H1255 H 0.77794 0.41076 0.3571 0.0
H1256 H 0.67101 0.41127 0.96988 0.0
H1257 H 0.59212 0.37392 0.08494 0.0
H1258 H 0.58307 0.37657 0.87613 0.0
H1259 H 0.55957 0.36501 0.98402 0.0
Eu1260 Eu 0.38378 0.87346 0.50117 0.0
C1261 C 0.43359 0.97307 0.33912 0.0
C1262 C 0.38634 1.00863 0.33599 0.0
C1263 C 0.44033 0.03274 0.33868 0.0
C1264 C 0.40014 0.97675 0.33742 0.0
C1265 C 0.454 1.00121 0.3385 0.0
C1266 C 0.40656 0.03644 0.33771 0.0
C1267 C 0.50032 0.96539 0.33728 0.0
N1268 N 0.44635 0.94221 0.34058 0.0
C1269 C 0.47939 0.93831 0.3357 0.0
C1270 C 0.48769 0.99695 0.33864 0.0
Eu1271 Eu 0.40838 0.89717 0.34108 0.0
N1272 N 0.38105 0.9494 0.33558 0.0
C1273 C 0.34813 0.95282 0.32567 0.0
C1274 C 0.35256 1.01177 0.33139 0.0
C1275 C 0.33344 0.98372 0.32504 0.0
H1276 H 0.49006 0.91426 0.33079 0.0
H1277 H 0.30729 0.98582 0.31883 0.0
H1278 H 0.39631 0.06095 0.33708 0.0
H1279 H 0.5263 0.96197 0.33674 0.0
H1280 H 0.33243 0.93228 0.3174 0.0
H1281 H 0.467 0.76857 0.51885 0.0
H1282 H 0.3411 0.03572 0.33049 0.0
H1283 H 0.30249 0.88134 0.51976 0.0
H1284 H 0.44685 0.81929 0.47933 0.0
H1285 H 0.25826 0.85871 0.58085 0.0
H1286 H 0.4557 0.05443 0.33909 0.0
H1287 H 0.4372 0.73226 0.58239 0.0
H1288 H 0.34258 0.71444 0.68463 0.0
H1289 H 0.50414 0.01783 0.33906 0.0
H1290 H 0.29044 0.75559 0.68424 0.0
N1291 N 0.40158 0.81893 0.52638 0.0
C1292 C 0.43145 0.80663 0.51232 0.0
C1293 C 0.42475 0.75485 0.57043 0.0
C1294 C 0.39222 0.76304 0.58895 0.0
C1295 C 0.44291 0.77623 0.53347 0.0
C1296 C 0.38043 0.80053 0.55996 0.0
H1297 H 0.26324 0.80906 0.6461 0.0
N1298 N 0.33734 0.84461 0.54245 0.0
C1299 C 0.28124 0.84569 0.58101 0.0
C1300 C 0.34362 0.81639 0.57458 0.0
C1301 C 0.30698 0.85839 0.54428 0.0
C1302 C 0.28412 0.81762 0.61908 0.0
C1303 C 0.31274 0.79971 0.6196 0.0
O1304 O 0.35545 0.90896 0.5561 0.0
O1305 O 0.38794 0.91823 0.43547 0.0
O1306 O 0.45514 0.88712 0.40076 0.0
O1307 O 0.44058 0.87331 0.50743 0.0
O1308 O 0.41576 0.91785 0.51984 0.0
O1309 O 0.38822 0.87628 0.60869 0.0
O1310 O 0.43796 0.89269 0.25347 0.0
O1311 O 0.39197 0.85338 0.40051 0.0
O1312 O 0.33808 0.87266 0.42917 0.0
O1313 O 0.3567 0.88093 0.32338 0.0
O1314 O 0.42671 0.84378 0.33283 0.0
O1315 O 0.3856 0.89519 0.24365 0.0
C1316 C 0.40495 0.93668 0.47416 0.0
C1317 C 0.34634 0.90322 0.67094 0.0
C1318 C 0.34159 0.90846 0.78979 0.0
C1319 C 0.36075 0.90374 0.73378 0.0
C1320 C 0.30765 0.91129 0.78257 0.0
C1321 C 0.31268 0.90916 0.66483 0.0
C1322 C 0.29337 0.91205 0.72032 0.0
C1323 C 0.463 0.87908 0.46183 0.0
C1324 C 0.36751 0.90059 0.61293 0.0
C1325 C 0.31208 0.763 0.65838 0.0
C1326 C 0.34459 0.73727 0.65725 0.0
C1327 C 0.40891 0.82985 0.37654 0.0
C1328 C 0.41642 0.91694 0.15716 0.0
C1329 C 0.40037 0.90921 0.0979 0.0
C1330 C 0.40435 0.92926 0.04278 0.0
C1331 C 0.42451 0.95712 0.04744 0.0
C1332 C 0.43566 0.94547 0.16152 0.0
C1333 C 0.43972 0.96537 0.10677 0.0
C1334 C 0.33288 0.87465 0.36407 0.0
C1335 C 0.41323 0.89464 0.21317 0.0
H1336 H 0.38698 0.90158 0.73907 0.0
H1337 H 0.29245 0.91464 0.82509 0.0
H1338 H 0.30119 0.9123 0.61747 0.0
H1339 H 0.26739 0.9159 0.715 0.0
H1340 H 0.38498 0.88756 0.09444 0.0
H1341 H 0.42839 0.97248 1.00514 0.0
H1342 H 0.448 0.95211 0.20673 0.0
H1343 H 0.45494 0.98709 0.11019 0.0
C1344 C 0.17853 0.60158 0.67659 0.0
C1345 C 0.16343 0.62392 0.72051 0.0
C1346 C 0.11806 0.63082 0.64144 0.0
C1347 C 0.13409 0.60999 0.596 0.0
N1348 N 0.18207 0.57996 0.56558 0.0
N1349 N 0.12207 0.66454 0.73971 0.0
C1350 C 0.16513 0.59672 0.61225 0.0
C1351 C 0.13404 0.63983 0.7015 0.0
N1352 N 0.20524 0.5843 0.69715 0.0
N1353 N 0.08719 0.64151 0.62773 0.0
H1354 H 0.13313 0.67173 0.78373 0.0
H1355 H 0.10286 0.67966 0.72547 0.0
H1356 H 0.07533 0.63678 0.58318 0.0
H1357 H 0.07258 0.65332 0.66185 0.0
H1358 H 0.21544 0.56513 0.67049 0.0
H1359 H 0.21571 0.58732 0.74362 0.0
H1360 H 0.20617 0.57254 0.57161 0.0
H1361 H 0.17282 0.57565 0.51849 0.0
C1362 C 0.65049 0.91372 0.93625 0.0
C1363 C 0.67377 0.9353 0.96536 0.0
C1364 C 0.71001 0.92678 0.87162 0.0
C1365 C 0.68816 0.90273 0.84612 0.0
N1366 N 0.64 0.86944 0.85889 0.0
N1367 N 0.72782 0.95915 0.96537 0.0
C1368 C 0.65902 0.89515 0.87972 0.0
C1369 C 0.70414 0.94097 0.93425 0.0
N1370 N 0.61977 0.91189 0.96115 0.0
N1371 N 0.73586 0.9368 0.83499 0.0
H1372 H 0.72488 0.9696 1.01163 0.0
H1373 H 0.75156 0.96127 0.94848 0.0
H1374 H 0.74094 0.92698 0.78895 0.0
H1375 H 0.75061 0.95679 0.84735 0.0
H1376 H 0.60068 0.89937 0.93798 0.0
H1377 H 0.61248 0.92539 1.00197 0.0
H1378 H 0.62048 0.86035 0.88548 0.0
H1379 H 0.64533 0.85531 0.81764 0.0
C1380 C 0.4051 0.38705 0.17037 0.0
C1381 C 0.38 0.405 0.20133 0.0
C1382 C 0.38136 0.44624 0.1145 0.0
C1383 C 0.40761 0.42925 0.08507 0.0
N1384 N 0.44904 0.3875 0.09185 0.0
N1385 N 0.35015 0.45566 0.21262 0.0
C1386 C 0.42092 0.40084 0.11521 0.0
C1387 C 0.37005 0.43591 0.17647 0.0
N1388 N 0.41302 0.35639 0.19224 0.0
N1389 N 0.36596 0.47108 0.08173 0.0
H1390 H 0.34124 0.44887 0.25824 0.0
H1391 H 0.34509 0.47994 0.20035 0.0
H1392 H 0.37294 0.47909 0.03554 0.0
H1393 H 0.3445 0.48189 0.09783 0.0
H1394 H 0.42849 0.34055 0.16733 0.0
H1395 H 0.40227 0.3458 0.23312 0.0
H1396 H 0.46169 0.36874 0.11539 0.0
H1397 H 0.46136 0.39721 0.05192 0.0
C1398 C 0.90537 0.12975 0.41918 0.0
C1399 C 0.89981 0.15688 0.46149 0.0
C1400 C 0.8657 0.1827 0.3767 0.0
C1401 C 0.86868 0.15416 0.33699 0.0
N1402 N 0.88614 0.09781 0.32615 0.0
N1403 N 0.87004 0.20642 0.48563 0.0
C1404 C 0.88713 0.12691 0.35977 0.0
C1405 C 0.87864 0.18262 0.44166 0.0
N1406 N 0.9288 0.10719 0.4347 0.0
N1407 N 0.85133 0.21023 0.35163 0.0
H1408 H 0.87862 0.2069 0.53393 0.0
H1409 H 0.85214 0.22391 0.47619 0.0
H1410 H 0.84198 0.21134 0.30395 0.0
H1411 H 0.85134 0.23283 0.37578 0.0
H1412 H 0.93637 0.0889 0.40245 0.0
H1413 H 0.94278 0.10842 0.47764 0.0
H1414 H 0.89617 0.07609 0.34397 0.0
H1415 H 0.87267 0.09457 0.2831 0.0
C1416 C 0.1848 0.41864 0.35826 0.0
C1417 C 0.15977 0.39834 0.33148 0.0
C1418 C 0.12352 0.41419 0.42102 0.0
C1419 C 0.14956 0.43188 0.45109 0.0
N1420 N 0.20636 0.44751 0.45353 0.0
N1421 N 0.10685 0.37303 0.34099 0.0
C1422 C 0.18058 0.43329 0.42099 0.0
C1423 C 0.12953 0.39503 0.36392 0.0
N1424 N 0.21232 0.42446 0.32299 0.0
N1425 N 0.0928 0.41669 0.4457 0.0
H1426 H 0.11015 0.35896 0.29874 0.0
H1427 H 0.08587 0.36687 0.36639 0.0
H1428 H 0.0875 0.4306 0.48727 0.0
H1429 H 0.07213 0.40742 0.42191 0.0
H1430 H 0.22987 0.44183 0.33634 0.0
H1431 H 0.21637 0.41395 0.2771 0.0
H1432 H 0.2303 0.44624 0.43745 0.0
H1433 H 0.20447 0.45815 0.49988 0.0
C1434 C 0.85803 0.9333 0.66035 0.0
C1435 C 0.87135 0.9023 0.67756 0.0
C1436 C 0.90953 0.9058 0.58642 0.0
C1437 C 0.89396 0.93505 0.56516 0.0
N1438 N 0.85141 0.9753 0.57753 0.0
N1439 N 0.90731 0.85717 0.65456 0.0
C1440 C 0.86783 0.94863 0.60128 0.0
C1441 C 0.89646 0.88803 0.63993 0.0
N1442 N 0.83625 0.94823 0.70097 0.0
N1443 N 0.93745 0.89566 0.55663 0.0
H1444 H 0.89885 0.84384 0.69444 0.0
H1445 H 0.92291 0.84382 0.62475 0.0
H1446 H 0.94793 0.90836 0.51791 0.0
H1447 H 0.95186 0.87645 0.57375 0.0
H1448 H 0.82856 0.9724 0.69547 0.0
H1449 H 0.82744 0.93726 0.74329 0.0
H1450 H 0.82987 0.98414 0.59734 0.0
H1451 H 0.85781 0.98731 0.53458 0.0
C1452 C 0.36991 0.64532 0.87594 0.0
C1453 C 0.33978 0.63385 0.8496 0.0
C1454 C 0.33104 0.60118 0.94913 0.0
C1455 C 0.36243 0.6105 0.97292 0.0
N1456 N 0.41371 0.63784 0.95551 0.0
N1457 N 0.293 0.5982 0.85709 0.0
C1458 C 0.38243 0.63157 0.93528 0.0
C1459 C 0.32073 0.61098 0.88515 0.0
N1460 N 0.3859 0.67033 0.84555 0.0
N1461 N 0.31074 0.58367 0.9886 0.0
H1462 H 0.28457 0.60491 0.81066 0.0
H1463 H 0.27954 0.57918 0.87734 0.0
H1464 H 0.31758 0.5758 0.03531 0.0
H1465 H 0.28633 0.57908 0.97758 0.0
H1466 H 0.40618 0.68228 0.86552 0.0
H1467 H 0.37719 0.68101 0.8025 0.0
H1468 H 0.43076 0.64989 0.92682 0.0
H1469 H 0.42343 0.6289 0.99935 0.0
C1470 C 0.64499 0.11461 0.11779 0.0
C1471 C 0.61565 0.1247 0.08647 0.0
C1472 C 0.60501 0.16207 0.1789 0.0
C1473 C 0.63269 0.14942 0.21275 0.0
N1474 N 0.674 0.10754 0.22056 0.0
N1475 N 0.56441 0.15339 0.0931 0.0
C1476 C 0.6511 0.12376 0.184 0.0
C1477 C 0.59465 0.14713 0.11871 0.0
N1478 N 0.66766 0.09727 0.08351 0.0
N1479 N 0.58937 0.18913 0.20264 0.0
H1480 H 0.55595 0.14293 0.04935 0.0
H1481 H 0.54676 0.1667 0.11801 0.0
H1482 H 0.59617 0.20077 0.24632 0.0
H1483 H 0.57135 0.20155 0.1764 0.0
H1484 H 0.69083 0.09206 0.10206 0.0
H1485 H 0.66456 0.09094 0.03423 0.0
H1486 H 0.68592 0.08656 0.20399 0.0
H1487 H 0.67848 0.11294 0.26988 0.0
C1488 C 0.89096 0.38003 0.36531 0.0
C1489 C 0.91669 0.38655 0.32123 0.0
C1490 C 0.94596 0.41703 0.40734 0.0
C1491 C 0.91891 0.41337 0.44942 0.0
N1492 N 0.86263 0.39749 0.46289 0.0
N1493 N 0.96445 0.41848 0.29542 0.0
C1494 C 0.89045 0.39664 0.42682 0.0
C1495 C 0.94288 0.40734 0.34078 0.0
N1496 N 0.86776 0.35704 0.34983 0.0
N1497 N 0.97511 0.42845 0.43145 0.0
H1498 H 0.96243 0.41264 0.24571 0.0
H1499 H 0.98213 0.43621 0.306 0.0
H1500 H 0.97892 0.4345 0.48066 0.0
H1501 H 0.99639 0.4286 0.40413 0.0
H1502 H 0.85048 0.34889 0.38306 0.0
H1503 H 0.86747 0.34398 0.30578 0.0
H1504 H 0.8403 0.38856 0.44557 0.0
H1505 H 0.86107 0.40993 0.50752 0.0
C1506 C 0.38014 0.14421 0.17874 0.0
C1507 C 0.40776 0.1387 0.21966 0.0
C1508 C 0.43277 0.10583 0.13311 0.0
C1509 C 0.40385 0.10861 0.09454 0.0
N1510 N 0.34726 0.12471 0.08756 0.0
N1511 N 0.45998 0.11259 0.23725 0.0
C1512 C 0.37679 0.12639 0.11909 0.0
C1513 C 0.43386 0.11903 0.19728 0.0
N1514 N 0.35756 0.16727 0.19584 0.0
N1515 N 0.45983 0.09053 0.11014 0.0
H1516 H 0.46158 0.12073 0.28571 0.0
H1517 H 0.4795 0.09807 0.22228 0.0
H1518 H 0.4618 0.08083 0.06293 0.0
H1519 H 0.4618 0.08083 0.06293 0.0
H1520 H 0.33884 0.17483 0.16455 0.0
H1521 H 0.35931 0.1812 0.23875 0.0
H1522 H 0.32587 0.13415 0.10701 0.0
H1523 H 0.34338 0.11099 0.04504 0.0
C1524 C 0.66791 0.55678 0.93223 0.0
C1525 C 0.64337 0.57238 0.97003 0.0
C1526 C 0.6352 0.61305 0.88243 0.0
C1527 C 0.65923 0.59709 0.84431 0.0
N1528 N 0.69431 0.55061 0.82695 0.0
N1529 N 0.59888 0.61071 0.97556 0.0
C1530 C 0.67407 0.56779 0.8673 0.0
C1531 C 0.6256 0.5992 0.94344 0.0
N1532 N 0.68667 0.53263 0.9598 0.0
N1533 N 0.62228 0.64206 0.86118 0.0
H1534 H 0.59105 0.60096 1.01985 0.0
H1535 H 0.58286 0.62791 0.95589 0.0
H1536 H 0.62775 0.65215 0.81574 0.0
H1537 H 0.60765 0.65707 0.88988 0.0
H1538 H 0.7066 0.52193 0.93715 0.0
H1539 H 0.68435 0.52504 1.00817 0.0
H1540 H 0.70305 0.52721 0.83721 0.0
H1541 H 0.70028 0.55857 0.78011 0.0
C1542 C 0.12661 0.85284 0.62471 0.0
C1543 C 0.12635 0.88429 0.59489 0.0
C1544 C 0.16458 0.9052 0.67831 0.0
C1545 C 0.16283 0.87452 0.71104 0.0
N1546 N 0.14056 0.81993 0.71985 0.0
N1547 N 0.1415 0.9415 0.59615 0.0
C1548 C 0.14335 0.84853 0.68548 0.0
C1549 C 0.14444 0.91078 0.62237 0.0
N1550 N 0.11147 0.82695 0.59396 0.0
N1551 N 0.18588 0.92884 0.70016 0.0
H1552 H 0.12763 0.94631 0.55415 0.0
H1553 H 0.15085 0.96264 0.61833 0.0
H1554 H 0.19963 0.92667 0.74317 0.0
H1555 H 0.19136 0.94995 0.6739 0.0
H1556 H 0.11366 0.80268 0.60908 0.0
H1557 H 0.09833 0.82931 0.5502 0.0
H1558 H 0.12386 0.80146 0.70822 0.0
H1559 H 0.15374 0.8153 0.7628 0.0
C1560 C 0.88586 0.69191 0.68897 0.0
C1561 C 0.90681 0.67292 0.72959 0.0
C1562 C 0.91655 0.63462 0.63823 0.0
C1563 C 0.8939 0.65239 0.59891 0.0
N1564 N 0.86228 0.70157 0.58145 0.0
N1565 N 0.94582 0.62905 0.74171 0.0
C1566 C 0.88027 0.68221 0.62258 0.0
C1567 C 0.92344 0.64522 0.70365 0.0
N1568 N 0.87063 0.71886 0.71459 0.0
N1569 N 0.93084 0.60703 0.61303 0.0
H1570 H 0.94913 0.63363 0.79159 0.0
H1571 H 0.96196 0.61157 0.72407 0.0
H1572 H 0.92895 0.60054 0.56361 0.0
H1573 H 0.94404 0.59011 0.64049 0.0
H1574 H 0.85148 0.7311 0.69158 0.0
H1575 H 0.87624 0.72852 0.76077 0.0
H1576 H 0.85567 0.72562 0.59225 0.0
H1577 H 0.85532 0.69456 0.53429 0.0
C1578 C 0.17931 0.11724 0.41707 0.0
C1579 C 0.15106 0.13174 0.44462 0.0
C1580 C 0.1493 0.17238 0.35598 0.0
C1581 C 0.17734 0.15768 0.32814 0.0
N1582 N 0.22192 0.11938 0.3356 0.0
N1583 N 0.11149 0.17526 0.44678 0.0
C1584 C 0.19329 0.13115 0.35997 0.0
C1585 C 0.13684 0.1601 0.41609 0.0
N1586 N 0.19214 0.08946 0.44457 0.0
N1587 N 0.13421 0.19765 0.32386 0.0
H1588 H 0.10096 0.16615 0.48923 0.0
H1589 H 0.10188 0.19781 0.43284 0.0
H1590 H 0.14371 0.20849 0.28201 0.0
H1591 H 0.11168 0.20721 0.33661 0.0
H1592 H 0.20998 0.07507 0.42295 0.0
H1593 H 0.18389 0.07963 0.48841 0.0
H1594 H 0.23695 0.10285 0.3601 0.0
H1595 H 0.23197 0.12758 0.29197 0.0
C1596 C 0.67878 0.36611 0.1909 0.0
C1597 C 0.68892 0.39696 0.21655 0.0
C1598 C 0.66738 0.42475 0.11868 0.0
C1599 C 0.65527 0.39413 0.09491 0.0
N1600 N 0.65809 0.33498 0.09761 0.0
N1601 N 0.69133 0.45599 0.2087 0.0
C1602 C 0.66334 0.36456 0.12815 0.0
C1603 C 0.68336 0.42631 0.18089 0.0
N1604 N 0.6831 0.33838 0.22754 0.0
N1605 N 0.66429 0.45228 0.08124 0.0
H1606 H 0.70327 0.45828 0.25386 0.0
H1607 H 0.68435 0.47853 0.1894 0.0
H1608 H 0.64939 0.45356 0.03972 0.0
H1609 H 0.67786 0.47357 0.08947 0.0
H1610 H 0.67258 0.31577 0.21597 0.0
H1611 H 0.69579 0.3383 0.27213 0.0
H1612 H 0.66632 0.31263 0.11583 0.0
H1613 H 0.64824 0.33288 0.05045 0.0
C1614 C 0.36264 0.94417 0.95769 0.0
C1615 C 0.38669 0.92196 0.98031 0.0
C1616 C 0.37703 0.88766 0.88289 0.0
C1617 C 0.35714 0.91277 0.85567 0.0
N1618 N 0.33793 0.96889 0.8624 0.0
N1619 N 0.42036 0.87452 0.95993 0.0
C1620 C 0.35179 0.94217 0.89176 0.0
C1621 C 0.3949 0.89413 0.94173 0.0
N1622 N 0.3495 0.96666 0.99956 0.0
N1623 N 0.37802 0.85734 0.85397 0.0
H1624 H 0.43419 0.87859 1.00238 0.0
H1625 H 0.42945 0.85595 0.93002 0.0
H1626 H 0.36443 0.85132 0.81208 0.0
H1627 H 0.38972 0.83729 0.87521 0.0
H1628 H 0.32973 0.98141 0.98663 0.0
H1629 H 0.35647 0.96846 0.04878 0.0
H1630 H 0.33625 0.9917 0.88559 0.0
H1631 H 0.33153 0.9694 0.81284 0.0
C1632 C 0.09165 0.73793 0.18511 0.0
C1633 C 0.11961 0.71739 0.18907 0.0
C1634 C 0.15252 0.76882 0.20231 0.0
C1635 C 0.12437 0.78924 0.19825 0.0
N1636 N 0.0679 0.7856 0.23405 0.0
N1637 N 0.16981 0.71743 0.24967 0.0
C1638 C 0.0939 0.77191 0.20312 0.0
C1639 C 0.1488 0.73369 0.2097 0.0
N1640 N 0.06194 0.72494 0.16954 0.0
N1641 N 0.18264 0.78256 0.20745 0.0
H1642 H 0.16537 0.69337 0.26461 0.0
H1643 H 0.18917 0.72916 0.27386 0.0
H1644 H 0.18609 0.80777 0.21076 0.0
H1645 H 0.20384 0.76845 0.20801 0.0
H1646 H 0.04155 0.73958 0.16054 0.0
H1647 H 0.05822 0.70002 0.16168 0.0
H1648 H 0.04607 0.77301 0.2411 0.0
H1649 H 0.06977 0.80608 0.26434 0.0
C1650 C 0.55055 0.84953 0.45642 0.0
C1651 C 0.56756 0.87987 0.44799 0.0
C1652 C 0.51685 0.90843 0.47892 0.0
C1653 C 0.49936 0.87873 0.47815 0.0
N1654 N 0.50665 0.82375 0.51399 0.0
N1655 N 0.56278 0.93881 0.43951 0.0
C1656 C 0.51774 0.84952 0.47875 0.0
C1657 C 0.54964 0.90954 0.45654 0.0
N1658 N 0.56522 0.82043 0.44149 0.0
N1659 N 0.50326 0.93477 0.50899 0.0
H1660 H 0.58306 0.93987 0.41012 0.0
H1661 H 0.55048 0.96103 0.44399 0.0
H1662 H 0.481 0.93243 0.53282 0.0
H1663 H 0.51582 0.95659 0.51854 0.0
H1664 H 0.55265 0.79813 0.44109 0.0
H1665 H 0.58861 0.81899 0.42247 0.0
H1666 H 0.5198 0.80214 0.52084 0.0
H1667 H 0.48812 0.82755 0.5476 0.0
C1668 C 0.35048 0.28925 0.68275 0.0
C1669 C 0.37998 0.30627 0.6983 0.0
C1670 C 0.40336 0.25202 0.73091 0.0
C1671 C 0.37652 0.23502 0.70194 0.0
N1672 N 0.31903 0.23923 0.68657 0.0
N1673 N 0.43525 0.30205 0.74067 0.0
C1674 C 0.34859 0.25426 0.68725 0.0
C1675 C 0.4066 0.28702 0.72326 0.0
N1676 N 0.32382 0.30638 0.66319 0.0
N1677 N 0.42295 0.23595 0.77435 0.0
H1678 H 0.43888 0.32735 0.73875 0.0
H1679 H 0.45655 0.28909 0.75095 0.0
H1680 H 0.41574 0.21375 0.79461 0.0
H1681 H 0.44206 0.247 0.80028 0.0
H1682 H 0.30264 0.29584 0.64378 0.0
H1683 H 0.32426 0.33154 0.66104 0.0
H1684 H 0.29691 0.25151 0.69054 0.0
H1685 H 0.31699 0.21394 0.68864 0.0
C1686 C 0.01542 0.17057 0.94854 0.0
C1687 C 0.9931 0.14437 0.95808 0.0
C1688 C 0.03948 0.10614 0.96406 0.0
C1689 C 0.06205 0.13164 0.94878 0.0
N1690 N 0.07118 0.18986 0.96339 0.0
N1691 N 0.98759 0.09332 1.01313 0.0
C1692 C 0.04998 0.16454 0.95177 0.0
C1693 C 1.00622 0.1138 0.97673 0.0
N1694 N 1.00379 0.20139 0.93867 0.0
N1695 N 0.04959 0.07443 0.96836 0.0
H1696 H 0.9643 0.10012 0.02784 0.0
H1697 H 0.99659 0.07209 0.03512 0.0
H1698 H 0.07378 0.06788 0.9647 0.0
H1699 H 0.03356 0.05465 0.97237 0.0
H1700 H 0.01844 0.22126 0.92615 0.0
H1701 H 0.97905 0.20645 0.94129 0.0
H1702 H 0.06364 0.21374 0.9736 0.0
H1703 H 0.09628 0.18652 0.96759 0.0
C1704 C 0.15972 0.27416 0.8045 0.0
C1705 C 0.1298 0.29001 0.81256 0.0
C1706 C 0.10345 0.23614 0.82372 0.0
C1707 C 0.13458 0.22092 0.83276 0.0
N1708 N 0.19309 0.22706 0.82506 0.0
N1709 N 0.07423 0.28326 0.78071 0.0
C1710 C 0.16289 0.2404 0.82055 0.0
C1711 C 0.1015 0.27039 0.80872 0.0
N1712 N 0.18382 0.2905 0.77306 0.0
N1713 N 0.07568 0.21837 0.8308 0.0
H1714 H 0.07614 0.30456 0.75315 0.0
H1715 H 0.05259 0.27034 0.77297 0.0
H1716 H 0.0762 0.19356 0.84078 0.0
H1717 H 0.0525 0.22865 0.83141 0.0
H1718 H 0.20512 0.27926 0.75711 0.0
H1719 H 0.18026 0.31436 0.75593 0.0
H1720 H 0.21448 0.2409 0.82373 0.0
H1721 H 0.19649 0.2024 0.83437 0.0
C1722 C 0.02012 0.87061 0.13328 0.0
C1723 C 0.04073 0.88341 0.08484 0.0
C1724 C 0.99103 0.89898 1.02263 0.0
C1725 C 0.97202 0.89292 0.07914 0.0
N1726 N 0.97218 0.87866 0.19482 0.0
N1727 N 0.0451 0.90826 0.97844 0.0
C1728 C 0.98774 0.88072 0.13635 0.0
C1729 C 0.02602 0.89692 0.02741 0.0
N1730 N 0.03114 0.84747 0.17574 0.0
N1731 N 0.9758 0.90681 0.96505 0.0
H1732 H 0.06993 0.90379 0.97779 0.0
H1733 H 0.03639 0.92223 0.93944 0.0
H1734 H 0.9505 0.90818 0.96071 0.0
H1735 H 0.98791 0.90925 0.92083 0.0
H1736 H 0.01618 0.83528 0.20874 0.0
H1737 H 0.05369 0.83695 0.16993 0.0
H1738 H 0.9843 0.87358 0.23883 0.0
H1739 H 0.94805 0.88487 0.20055 0.0
C1740 C 0.43034 0.73558 0.39106 0.0
C1741 C 0.39954 0.71935 0.38331 0.0
C1742 C 0.37471 0.77515 0.37588 0.0
C1743 C 0.40538 0.79162 0.38138 0.0
N1744 N 0.46385 0.784 0.37359 0.0
N1745 N 0.34671 0.72689 0.33429 0.0
C1746 C 0.43355 0.77067 0.38143 0.0
C1747 C 0.37299 0.74014 0.36568 0.0
N1748 N 0.45693 0.71771 0.40923 0.0
N1749 N 0.34673 0.79269 0.37959 0.0
H1750 H 0.34491 0.7018 0.32707 0.0
H1751 H 0.3284 0.74081 0.3122 0.0
H1752 H 0.34676 0.81634 0.39768 0.0
H1753 H 0.32356 0.78279 0.37253 0.0
H1754 H 0.4792 0.72816 0.42301 0.0
H1755 H 0.45586 0.69256 0.41617 0.0
H1756 H 0.48444 0.76985 0.36442 0.0
H1757 H 0.46845 0.80914 0.3728 0.0
C1758 C 0.5161 0.1815 0.60787 0.0
C1759 C 0.53269 0.15077 0.60459 0.0
C1760 C 0.47877 0.12525 0.58016 0.0
C1761 C 0.46185 0.15338 0.60229 0.0
N1762 N 0.46567 0.21099 0.62978 0.0
N1763 N 0.52755 0.09256 0.58411 0.0
C1764 C 0.48093 0.1825 0.61283 0.0
C1765 C 0.51325 0.12246 0.59019 0.0
N1766 N 0.53375 0.20981 0.60373 0.0
N1767 N 0.46279 0.10295 0.54157 0.0
H1768 H 0.55261 0.08984 0.58444 0.0
H1769 H 0.51424 0.07073 0.58102 0.0
H1770 H 0.43845 0.10583 0.52787 0.0
H1771 H 0.47492 0.0845 0.51603 0.0
H1772 H 0.52327 0.23301 0.60017 0.0
H1773 H 0.55885 0.2097 0.59662 0.0
H1774 H 0.47805 0.23195 0.64587 0.0
H1775 H 0.44041 0.21293 0.63216 0.0
C1776 C 0.88206 0.2422 0.83238 0.0
C1777 C 0.91243 0.22554 0.8407 0.0
C1778 C 0.93921 0.28064 0.82515 0.0
C1779 C 0.90839 0.2963 0.82554 0.0
N1780 N 0.85522 0.28874 0.78138 0.0
N1781 N 0.97046 0.22981 0.81938 0.0
C1782 C 0.88116 0.276 0.8145 0.0
C1783 C 0.94128 0.24504 0.829 0.0
N1784 N 0.85362 0.22615 0.84157 0.0
N1785 N 0.96632 0.29957 0.81841 0.0
H1786 H 0.97398 0.2047 0.8243 0.0
H1787 H 0.99133 0.24165 0.8033 0.0
H1788 H 0.96486 0.32476 0.81041 0.0
H1789 H 0.99001 0.29086 0.82228 0.0
H1790 H 0.83092 0.23663 0.83271 0.0
H1791 H 0.85303 0.20464 0.86769 0.0
H1792 H 0.83536 0.27477 0.76524 0.0
H1793 H 0.85654 0.31229 0.76146 0.0
C1794 C 0.62122 0.78216 0.31004 0.0
C1795 C 0.64829 0.79966 0.33636 0.0
C1796 C 0.6746 0.74788 0.36536 0.0
C1797 C 0.64604 0.72987 0.34712 0.0
N1798 N 0.60311 0.73048 0.2638 0.0
N1799 N 0.70565 0.79493 0.3328 0.0
C1800 C 0.62202 0.74692 0.30855 0.0
C1801 C 0.67665 0.78142 0.34872 0.0
N1802 N 0.59634 0.79864 0.28087 0.0
N1803 N 0.70097 0.7331 0.39372 0.0
H1804 H 0.70576 0.81688 0.30665 0.0
H1805 H 0.72756 0.78199 0.33406 0.0
H1806 H 0.70345 0.70787 0.39891 0.0
H1807 H 0.72115 0.74637 0.4104 0.0
H1808 H 0.57356 0.78808 0.27157 0.0
H1809 H 0.59998 0.82186 0.26145 0.0
H1810 H 0.58668 0.74208 0.23234 0.0
H1811 H 0.60741 0.70637 0.24978 0.0
C1812 C 0.86656 0.76972 0.23061 0.0
C1813 C 0.88226 0.75196 0.17938 0.0
C1814 C 0.90498 0.80465 0.14188 0.0
C1815 C 0.88373 0.82323 0.18185 0.0
N1816 N 0.84723 0.82227 0.27349 0.0
N1817 N 0.9138 0.7555 0.08011 0.0
C1818 C 0.86545 0.8053 0.22922 0.0
C1819 C 0.90048 0.77035 0.1333 0.0
N1820 N 0.85306 0.75268 0.28098 0.0
N1821 N 0.93164 0.81909 0.11605 0.0
H1822 H 0.90844 0.73168 0.06666 0.0
H1823 H 0.92668 0.76797 0.04423 0.0
H1824 H 0.93705 0.84301 0.12718 0.0
H1825 H 0.95046 0.80638 0.09337 0.0
H1826 H 0.84354 0.76348 0.32282 0.0
H1827 H 0.8538 0.7272 0.28384 0.0
H1828 H 0.8314 0.81137 0.30633 0.0
H1829 H 0.8461 0.84782 0.27478 0.0
C1830 C 0.60494 0.2474 0.69662 0.0
C1831 C 0.63562 0.23138 0.69345 0.0
C1832 C 0.66213 0.28577 0.6829 0.0
C1833 C 0.63166 0.30217 0.68383 0.0
N1834 N 0.57299 0.29713 0.6844 0.0
N1835 N 0.69347 0.23803 0.7114 0.0
C1836 C 0.60281 0.28246 0.68931 0.0
C1837 C 0.66408 0.25148 0.69588 0.0
N1838 N 0.5781 0.2295 0.71348 0.0
N1839 N 0.68948 0.30235 0.66587 0.0
H1840 H 0.6969 0.21301 0.71376 0.0
H1841 H 0.71392 0.2518 0.725 0.0
H1842 H 0.68846 0.32576 0.64739 0.0
H1843 H 0.7125 0.29194 0.66253 0.0
H1844 H 0.556 0.23985 0.72693 0.0
H1845 H 0.57845 0.20406 0.7191 0.0
H1846 H 0.55111 0.28427 0.6804 0.0
H1847 H 0.57006 0.32225 0.67771 0.0
C1848 C 0.99171 0.3455 0.93639 0.0
C1849 C 0.97464 0.37594 0.93916 0.0
C1850 C 0.02832 0.40417 0.94759 0.0
C1851 C 0.04519 0.37478 0.93035 0.0
N1852 N 0.04182 0.31573 0.9159 0.0
N1853 N 0.97951 0.42778 0.99393 0.0
C1854 C 0.0265 0.34494 0.928 0.0
C1855 C 0.99374 0.40361 0.95797 0.0
N1856 N 0.97528 0.31695 0.94852 0.0
N1857 N 0.04517 0.43269 0.95691 0.0
H1858 H 0.95494 0.42712 1.00629 0.0
H1859 H 0.9928 0.44586 1.01881 0.0
H1860 H 0.07023 0.43395 0.95461 0.0
H1861 H 0.03415 0.45544 0.96385 0.0
H1862 H 0.98675 0.29479 0.95908 0.0
H1863 H 0.95005 0.31541 0.95167 0.0
H1864 H 0.02962 0.29369 0.90706 0.0
H1865 H 0.06681 0.31364 0.90889 0.0
C1866 C 0.5031 0.62922 0.40614 0.0
C1867 C 0.48348 0.6348 0.46191 0.0
C1868 C 0.53625 0.63966 0.52298 0.0
C1869 C 0.55432 0.62988 0.46585 0.0
N1870 N 0.54557 0.59324 0.37551 0.0
N1871 N 0.48485 0.63271 0.57953 0.0
C1872 C 0.53515 0.61795 0.41386 0.0
C1873 C 0.50098 0.63706 0.52257 0.0
N1874 N 0.49326 0.63665 0.34467 0.0
N1875 N 0.55201 0.64885 0.57927 0.0
H1876 H 0.46101 0.62431 0.57878 0.0
H1877 H 0.49636 0.63183 0.62527 0.0
H1878 H 0.57668 0.64492 0.58779 0.0
H1879 H 0.53994 0.66006 0.61805 0.0
H1880 H 0.472 0.64956 0.3342 0.0
H1881 H 0.472 0.64956 0.3342 0.0
H1882 H 0.53024 0.58293 0.33997 0.0
H1883 H 0.56668 0.58049 0.38683 0.0
C1884 C 0.49152 0.35303 0.59875 0.0
C1885 C 0.47505 0.38375 0.59585 0.0
C1886 C 0.52725 0.40933 0.56325 0.0
C1887 C 0.54413 0.38019 0.57778 0.0
N1888 N 0.5386 0.32219 0.56419 0.0
N1889 N 0.47865 0.44176 0.57399 0.0
C1890 C 0.52538 0.35115 0.58336 0.0
C1891 C 0.49331 0.41194 0.57658 0.0
N1892 N 0.47531 0.32569 0.61834 0.0
N1893 N 0.54327 0.4334 0.53057 0.0
H1894 H 0.45422 0.44435 0.58425 0.0
H1895 H 0.4911 0.46383 0.56764 0.0
H1896 H 0.56743 0.43045 0.51648 0.0
H1897 H 0.53174 0.45379 0.51034 0.0
H1898 H 0.48682 0.30346 0.62841 0.0
H1899 H 0.45073 0.32624 0.62935 0.0
H1900 H 0.52577 0.30008 0.56219 0.0
H1901 H 0.56033 0.3221 0.53888 0.0
C1902 C 1.00918 0.60899 0.07897 0.0
C1903 C 0.02787 0.63833 0.08256 0.0
C1904 C 0.97677 0.66944 0.09101 0.0
C1905 C 0.9576 0.63998 0.0907 0.0
N1906 N 0.9578 0.5846 0.04709 0.0
N1907 N 0.0271 0.69539 0.05605 0.0
C1908 C 0.9744 0.6105 0.07368 0.0
C1909 C 1.01098 0.66834 0.07751 0.0
N1910 N 0.02466 0.5794 0.07904 0.0
N1911 N 0.96263 0.69868 0.10464 0.0
H1912 H 0.05162 0.69426 0.04346 0.0
H1913 H 0.01551 0.71746 0.04496 0.0
H1914 H 0.93858 0.69972 0.11886 0.0
H1915 H 0.97568 0.72054 0.11033 0.0
H1916 H 1.01235 0.55715 0.08455 0.0
H1917 H 0.04992 0.57753 0.07573 0.0
H1918 H 0.96949 0.56442 0.02644 0.0
H1919 H 0.93284 0.58487 0.03844 0.0
C1920 C 0.10505 0.51317 0.07925 0.0
C1921 C 0.11482 0.54359 0.0532 0.0
C1922 C 0.13132 0.51522 0.95268 0.0
C1923 C 0.12521 0.48407 0.98012 0.0
N1924 N 0.10354 0.45367 0.07182 0.0
N1925 N 0.10662 0.56809 0.94896 0.0
C1926 C 0.11126 0.48308 0.04425 0.0
C1927 C 0.11992 0.54367 0.98495 0.0
N1928 N 0.08348 0.51385 0.12878 0.0
N1929 N 0.14944 0.51837 0.89774 0.0
H1930 H 0.09181 0.58526 0.97189 0.0
H1931 H 0.10679 0.56801 0.8978 0.0
H1932 H 0.16154 0.49844 0.87687 0.0
H1933 H 0.15494 0.54138 0.87828 0.0
H1934 H 0.07185 0.49318 0.14724 0.0
H1935 H 0.07312 0.53619 0.14166 0.0
H1936 H 0.0979 0.45114 0.12116 0.0
H1937 H 0.1037 0.43164 0.04582 0.0
C1938 C 0.74483 0.92937 0.28859 0.0
C1939 C 0.73656 0.8992 0.31889 0.0
C1940 C 0.77605 0.87089 0.24765 0.0
C1941 C 0.78477 0.90087 0.21789 0.0
N1942 N 0.76902 0.95654 0.1956 0.0
N1943 N 0.75513 0.84493 0.34316 0.0
C1944 C 0.76713 0.92972 0.23516 0.0
C1945 C 0.75544 0.87121 0.3029 0.0
N1946 N 0.73238 0.958 0.3123 0.0
N1947 N 0.78485 0.84147 0.22085 0.0
H1948 H 0.73846 0.84333 0.3804 0.0
H1949 H 0.77206 0.8259 0.3407 0.0
H1950 H 0.79842 0.83898 0.1786 0.0
H1951 H 0.77556 0.81912 0.23717 0.0
H1952 H 0.7404 0.98112 0.2979 0.0
H1953 H 0.71585 0.95861 0.35042 0.0
H1954 H 0.75419 0.97712 0.20023 0.0
H1955 H 0.78298 0.95653 0.15339 0.0
C1956 C 0.34402 0.50821 0.57572 0.0
C1957 C 0.36803 0.48295 0.57349 0.0
C1958 C 0.40308 0.52106 0.51136 0.0
C1959 C 0.37819 0.54523 0.50823 0.0
N1960 N 0.32209 0.55851 0.52988 0.0
N1961 N 0.41318 0.46286 0.51053 0.0
C1962 C 0.34777 0.53771 0.53803 0.0
C1963 C 0.3957 0.48865 0.53365 0.0
N1964 N 0.31757 0.50427 0.6149 0.0
N1965 N 0.43397 0.52865 0.49249 0.0
H1966 H 0.40736 0.43856 0.52052 0.0
H1967 H 0.43212 0.4656 0.47743 0.0
H1968 H 0.44035 0.5516 0.47405 0.0
H1969 H 0.45349 0.51265 0.49957 0.0
H1970 H 0.30104 0.52292 0.62502 0.0
H1971 H 0.31393 0.48328 0.64281 0.0
H1972 H 0.29835 0.55286 0.54336 0.0
H1973 H 0.32385 0.58026 0.50396 0.0
C1974 C 0.79212 0.13336 0.72697 0.0
C1975 C 0.79841 0.14992 0.78887 0.0
C1976 C 0.7407 0.16836 0.78536 0.0
C1977 C 0.73468 0.15166 0.72481 0.0
N1978 N 0.75414 0.11514 0.6417 0.0
N1979 N 0.77907 0.19287 0.86098 0.0
C1980 C 0.76055 0.13414 0.69593 0.0
C1981 C 0.77273 0.16993 0.81359 0.0
N1982 N 0.81615 0.11655 0.69616 0.0
N1983 N 0.71543 0.18204 0.81837 0.0
H1984 H 0.80158 0.19595 0.88304 0.0
H1985 H 0.76291 0.21147 0.87364 0.0
H1986 H 0.69191 0.18238 0.79975 0.0
H1987 H 0.71707 0.18994 0.86694 0.0
H1988 H 0.81689 0.11347 0.64548 0.0
H1989 H 0.83394 0.10366 0.72101 0.0
H1990 H 0.77015 0.09786 0.62269 0.0
H1991 H 0.73163 0.11481 0.61763 0.0
C1992 C 0.91072 0.52638 0.08313 0.0
C1993 C 0.88057 0.54382 0.08606 0.0
C1994 C 0.85892 0.50628 0.99955 0.0
C1995 C 0.88885 0.48948 0.99535 0.0
N1996 N 0.9461 0.49334 1.01469 0.0
N1997 N 0.82293 0.53923 0.06497 0.0
C1998 C 0.91552 0.50182 0.03301 0.0
C1999 C 0.85383 0.53037 0.04939 0.0
N2000 N 0.93457 0.53216 0.12886 0.0
N2001 N 0.83619 0.50145 0.95144 0.0
H2002 H 0.81827 0.55649 0.10116 0.0
H2003 H 0.80229 0.52724 0.04644 0.0
H2004 H 0.84223 0.48903 0.90869 0.0
H2005 H 0.81376 0.51325 0.94975 0.0
H2006 H 0.95566 0.51803 0.13222 0.0
H2007 H 0.93203 0.54873 0.16731 0.0
H2008 H 0.96718 0.50312 0.03607 0.0
H2009 H 0.94974 0.48066 0.97087 0.0
C2010 C 0.2541 0.0855 0.7961 0.0
C2011 C 0.23007 0.11046 0.80464 0.0
C2012 C 0.26812 0.14936 0.75613 0.0
C2013 C 0.29068 0.12448 0.73805 0.0
N2014 N 0.30164 0.0661 0.73763 0.0
N2015 N 0.21101 0.16109 0.75695 0.0
C2016 C 0.28246 0.09159 0.75651 0.0
C2017 C 0.23594 0.14087 0.77387 0.0
N2018 N 0.25036 0.05611 0.82716 0.0
N2019 N 0.27766 0.18118 0.76253 0.0
H2020 H 0.18666 0.15503 0.76376 0.0
H2021 H 0.21492 0.18245 0.73 0.0
H2022 H 0.30211 0.18713 0.76886 0.0
H2023 H 0.26151 0.19979 0.77573 0.0
H2024 H 0.26848 0.03828 0.82927 0.0
H2025 H 0.23033 0.05085 0.85632 0.0
H2026 H 0.29506 0.04155 0.74306 0.0
H2027 H 0.32303 0.06939 0.71211 0.0
C2028 C 0.61323 0.52605 0.51813 0.0
C2029 C 0.64189 0.53207 0.48092 0.0
C2030 C 0.66901 0.48804 0.54485 0.0
C2031 C 0.63875 0.47737 0.5703 0.0
N2032 N 0.58172 0.48802 0.58357 0.0
N2033 N 0.69674 0.51524 0.45608 0.0
C2034 C 0.61082 0.49705 0.55756 0.0
C2035 C 0.66974 0.51218 0.49403 0.0
N2036 N 0.58891 0.54881 0.51897 0.0
N2037 N 0.69732 0.47597 0.57055 0.0
H2038 H 0.69795 0.53152 0.41697 0.0
H2039 H 0.71644 0.49919 0.45906 0.0
H2040 H 0.69761 0.45941 0.60919 0.0
H2041 H 0.72022 0.48501 0.55827 0.0
H2042 H 0.56924 0.5479 0.55065 0.0
H2043 H 0.59001 0.5705 0.49284 0.0
H2044 H 0.55962 0.49912 0.57174 0.0
H2045 H 0.57956 0.46796 0.61469 0.0
C2046 C 0.29396 0.85162 0.27459 0.0
C2047 C 0.2989 0.87098 0.33276 0.0
C2048 C 0.24217 0.89116 0.31952 0.0
C2049 C 0.23728 0.87315 0.25864 0.0
N2050 N 0.25689 0.82744 0.19434 0.0
N2051 N 0.27857 0.91434 0.40134 0.0
C2052 C 0.26295 0.85127 0.24028 0.0
C2053 C 0.273 0.89143 0.35322 0.0
N2054 N 0.31931 0.83369 0.25055 0.0
N2055 N 0.21734 0.90776 0.34868 0.0
H2056 H 0.29998 0.91583 0.42844 0.0
H2057 H 0.26305 0.934 0.41063 0.0
H2058 H 0.19746 0.91764 0.32492 0.0
H2059 H 0.217 0.91243 0.39896 0.0
H2060 H 0.31965 0.82405 0.20323 0.0
H2061 H 0.341 0.82985 0.27626 0.0
H2062 H 0.27268 0.80814 0.18439 0.0
H2063 H 0.23446 0.82417 0.17137 0.0
C2064 C 0.64864 0.99623 0.57212 0.0
C2065 C 0.6339 0.99303 0.50863 0.0
C2066 C 0.61749 0.05137 0.52136 0.0
C2067 C 0.63923 0.05523 0.5763 0.0
N2068 N 0.6826 0.03074 0.64038 0.0
N2069 N 0.59842 0.01827 0.42893 0.0
C2070 C 0.65733 0.0276 0.5967 0.0
C2071 C 0.61669 0.02096 0.48476 0.0
N2072 N 0.65033 0.97019 0.61351 0.0
N2073 N 0.59775 0.07674 0.50367 0.0
H2074 H 0.59248 0.99569 0.40833 0.0
H2075 H 0.58911 0.03818 0.40312 0.0
H2076 H 0.59805 0.09906 0.52819 0.0
H2077 H 0.57925 0.07512 0.46854 0.0
H2078 H 0.66177 0.97146 0.65934 0.0
H2079 H 0.63429 0.95043 0.60821 0.0
H2080 H 0.69755 1.01094 0.65263 0.0
H2081 H 0.6899 0.05325 0.66043 0.0
C2082 C 0.22829 0.41725 0.77539 0.0
C2083 C 0.21781 0.38831 0.80771 0.0
C2084 C 0.27077 0.36335 0.77782 0.0
C2085 C 0.27725 0.38919 0.73294 0.0
N2086 N 0.25953 0.44044 0.68648 0.0
N2087 N 0.23008 0.33243 0.83634 0.0
C2088 C 0.25511 0.41601 0.73093 0.0
C2089 C 0.23945 0.36099 0.80788 0.0
N2090 N 0.21383 0.44643 0.78987 0.0
N2091 N 0.2947 0.34142 0.79353 0.0
H2092 H 0.2077 0.33011 0.85913 0.0
H2093 H 0.24336 0.3107 0.83352 0.0
H2094 H 0.31795 0.34245 0.77384 0.0
H2095 H 0.29256 0.32435 0.83108 0.0
H2096 H 0.22201 0.46886 0.77192 0.0
H2097 H 0.1964 0.44837 0.82643 0.0
H2098 H 0.24273 0.45925 0.67913 0.0
H2099 H 0.27836 0.43988 0.65271 0.0
C2100 C 0.89908 0.99682 1.01067 0.0
C2101 C 0.86767 0.99134 0.03698 0.0
C2102 C 0.85106 0.04555 0.993 0.0
C2103 C 0.88392 0.0528 0.97552 0.0
N2104 N 0.94016 0.03606 0.98086 0.0
N2105 N 0.8139 1.01234 0.0568 0.0
C2106 C 0.90815 0.02878 0.98939 0.0
C2107 C 0.84372 0.01627 0.02884 0.0
N2108 N 0.91935 0.971 0.99921 0.0
N2109 N 0.82653 0.06626 0.97497 0.0
H2110 H 0.80746 0.99128 0.08226 0.0
H2111 H 0.79669 0.031 0.0603 0.0
H2112 H 0.83047 0.08799 0.95014 0.0
H2113 H 0.8019 0.06048 0.97887 0.0
H2114 H 0.94183 0.9734 0.97651 0.0
H2115 H 0.91152 0.94682 1.00239 0.0
H2116 H 0.95903 0.02128 0.99841 0.0
H2117 H 0.94754 0.05746 0.95802 0.0
C2118 C 0.24378 0.65314 0.25638 0.0
C2119 C 0.22005 0.62873 0.26774 0.0
C2120 C 0.25402 0.61394 0.36711 0.0
C2121 C 0.27997 0.6344 0.34534 0.0
N2122 N 0.29988 0.6666 0.25276 0.0
N2123 N 0.20123 0.58861 0.3477 0.0
C2124 C 0.27507 0.65157 0.28518 0.0
C2125 C 0.22481 0.60979 0.32716 0.0
N2126 N 0.23539 0.68109 0.22536 0.0
N2127 N 0.25837 0.59612 0.42311 0.0
H2128 H 0.18286 0.57931 0.31815 0.0
H2129 H 0.19923 0.58003 0.39532 0.0
H2130 H 0.27765 0.60007 0.45549 0.0
H2131 H 0.24378 0.57666 0.43763 0.0
H2132 H 0.2503 0.70191 0.22558 0.0
H2133 H 0.21182 0.68462 0.20968 0.0
H2134 H 0.29646 0.67685 0.20639 0.0
H2135 H 0.32411 0.66622 0.26669 0.0
C2136 C 0.42431 0.99312 0.51401 0.0
C2137 C 0.39764 0.97214 0.49623 0.0
C2138 C 0.36211 1.0092 0.56099 0.0
C2139 C 0.38817 0.03138 0.57316 0.0
N2140 N 0.44591 0.0368 0.58354 0.0
N2141 N 0.33909 0.96657 0.49188 0.0
C2142 C 0.41979 0.02136 0.55518 0.0
C2143 C 0.36597 0.98202 0.51669 0.0
N2144 N 0.45414 0.98694 0.48863 0.0
N2145 N 0.33441 1.01218 0.59654 0.0
H2146 H 0.34072 0.94783 0.45763 0.0
H2147 H 0.31541 0.97466 0.5001 0.0
H2148 H 0.33155 0.03077 0.63119 0.0
H2149 H 0.31602 0.99446 0.59633 0.0
H2150 H 0.47375 1.00317 0.49196 0.0
H2151 H 0.45806 0.96688 0.45823 0.0
H2152 H 0.46971 0.0282 0.58057 0.0
H2153 H 0.44314 0.05624 0.61636 0.0
C2154 C 0.77331 0.66208 0.25732 0.0
C2155 C 0.78528 0.63184 0.23165 0.0
C2156 C 0.73803 0.6045 0.28703 0.0
C2157 C 0.72404 0.63537 0.30441 0.0
N2158 N 0.72509 0.6935 0.27975 0.0
N2159 N 0.77462 0.57389 0.21718 0.0
C2160 C 0.74076 0.66405 0.28192 0.0
C2161 C 0.76625 0.60306 0.2454 0.0
N2162 N 0.79287 0.68912 0.26126 0.0
N2163 N 0.72448 0.57613 0.30946 0.0
H2164 H 0.79532 0.5712 0.18917 0.0
H2165 H 0.7597 0.55315 0.21686 0.0
H2166 H 0.70347 0.57553 0.33716 0.0
H2167 H 0.73572 0.5533 0.30583 0.0
H2168 H 0.78605 0.71043 0.28611 0.0
H2169 H 0.81674 0.68949 0.24531 0.0
H2170 H 0.73556 0.71467 0.26056 0.0
H2171 H 0.70044 0.69594 0.28929 0.0
C2172 C 0.12895 0.02718 0.05928 0.0
C2173 C 0.12698 0.0266 0.98897 0.0
C2174 C 0.12593 0.96613 0.99558 0.0
C2175 C 0.13239 0.9666 0.06458 0.0
N2176 N 0.11675 0.99703 0.15789 0.0
N2177 N 0.10052 0.99461 0.90465 0.0
C2178 C 0.12784 0.99716 0.09579 0.0
C2179 C 0.11896 0.99579 0.96046 0.0
N2180 N 0.12909 0.05631 0.09222 0.0
N2181 N 0.12398 0.93704 0.9639 0.0
H2182 H 0.08922 0.01545 0.88606 0.0
H2183 H 0.09164 0.97281 0.88417 0.0
H2184 H 0.12184 0.9158 0.99076 0.0
H2185 H 0.12359 0.93463 0.913 0.0
H2186 H 0.13513 0.05828 0.14185 0.0
H2187 H 0.12255 0.07815 0.06987 0.0
H2188 H 0.1104 0.01804 0.18411 0.0
H2189 H 0.10772 0.97507 0.17591 0.0
C2190 C 0.74856 0.36846 0.76643 0.0
C2191 C 0.73628 0.39937 0.74592 0.0
C2192 C 0.78182 0.42492 0.80921 0.0
C2193 C 0.79798 0.39419 0.81584 0.0
N2194 N 0.79559 0.33604 0.79613 0.0
N2195 N 0.74377 0.45821 0.74648 0.0
C2196 C 0.78094 0.36586 0.79258 0.0
C2197 C 0.75339 0.428 0.76778 0.0
N2198 N 0.72834 0.34185 0.7664 0.0
N2199 N 0.79355 0.45128 0.84298 0.0
H2200 H 0.72411 0.46158 0.71459 0.0
H2201 H 0.75719 0.47956 0.75548 0.0
H2202 H 0.814 0.44899 0.87282 0.0
H2203 H 0.78149 0.47372 0.84608 0.0
H2204 H 0.73511 0.31908 0.78522 0.0
H2205 H 0.70347 0.34408 0.75662 0.0
H2206 H 0.78626 0.31504 0.77315 0.0
H2207 H 0.8173 0.33299 0.822 0.0
loop_
_geom_bond_atom_site_label_1
_geom_bond_atom_site_label_2
_geom_bond_distance
_geom_bond_site_symmetry_2
_ccdc_geom_bond_type
Eu0 N31 2.657 . S
Eu0 N38 2.609 . S
Eu0 O44 2.558 . S
Eu0 O45 2.612 . S
Eu0 O47 2.339 . S
Eu0 O48 2.563 . S
Eu0 O49 2.419 . S
Eu0 O51 2.380 . S
Eu0 O52 2.432 . S
Eu0 C64 2.848 . S
C1 C4 1.429 . S
C1 C5 1.411 1_554 S
C1 N8 1.377 . S
C2 C4 1.420 . S
C2 C6 1.423 1_554 S
C2 C14 1.392 . S
C3 C5 1.420 . S
C3 C6 1.351 . S
C3 H26 0.931 . S
C4 C1 1.429 . S
C4 C2 1.420 . S
C4 N12 1.362 . S
C5 C1 1.411 1_556 S
C5 C3 1.420 . S
C5 C10 1.395 . S
C6 C2 1.423 1_556 S
C6 C3 1.351 . S
C6 H18 0.930 . S
C7 C9 1.400 1_556 S
C7 C10 1.386 . S
C7 H19 0.930 . S
N8 C1 1.377 . S
N8 C9 1.321 . S
N8 Eu11 2.609 . S
C9 C7 1.400 1_554 S
C9 N8 1.321 . S
C9 H16 0.930 . S
C10 C5 1.395 . S
C10 C7 1.386 . S
C10 H29 0.930 . S
Eu11 N8 2.609 . S
Eu11 N12 2.657 . S
Eu11 O45 2.380 . S
Eu11 O46 2.432 . S
Eu11 O50 2.558 1_554 S
Eu11 O51 2.612 . S
Eu11 O53 2.339 . S
Eu11 O54 2.563 . S
Eu11 O55 2.419 1_554 S
Eu11 C75 2.848 1_554 S
N12 C4 1.362 . S
N12 Eu11 2.657 . S
N12 C13 1.334 . S
C13 N12 1.334 . S
C13 C15 1.413 . S
C13 H20 0.929 . S
C14 C2 1.392 . S
C14 C15 1.367 . S
C14 H22 0.930 . S
C15 C13 1.413 . S
C15 C14 1.367 . S
C15 H17 0.930 . S
H16 C9 0.930 . S
H17 C15 0.930 . S
H18 C6 0.930 . S
H19 C7 0.930 . S
H20 C13 0.929 . S
H21 C35 0.930 . S
H22 C14 0.930 . S
H23 C41 0.930 . S
H24 C32 0.929 . S
H25 C39 0.910 1_655 S
H26 C3 0.931 . S
H27 C33 0.930 . S
H28 C66 0.930 . S
H29 C10 0.930 . S
H30 C65 0.931 . S
N31 Eu0 2.657 . S
N31 C32 1.334 . S
N31 C36 1.362 . S
C32 H24 0.929 . S
C32 N31 1.334 . S
C32 C35 1.413 . S
C33 H27 0.930 . S
C33 C34 1.392 . S
C33 C35 1.367 . S
C34 C33 1.392 . S
C34 C36 1.420 . S
C34 C66 1.423 . S
C35 H21 0.930 . S
C35 C32 1.413 . S
C35 C33 1.367 . S
C36 N31 1.362 . S
C36 C34 1.420 . S
C36 C40 1.429 . S
H37 C42 0.930 . S
N38 Eu0 2.609 . S
N38 C40 1.377 . S
N38 C41 1.321 . S
C39 H25 0.910 1_455 S
C39 C41 1.400 . S
C39 C42 1.386 . S
C40 C36 1.429 . S
C40 N38 1.377 . S
C40 C43 1.411 . S
C41 H23 0.930 . S
C41 N38 1.321 . S
C41 C39 1.400 . S
C42 H37 0.930 . S
C42 C39 1.386 . S
C42 C43 1.395 . S
C43 C40 1.411 . S
C43 C42 1.395 . S
C43 C65 1.420 . S
O44 Eu0 2.558 . S
O44 C64 1.257 . S
O45 Eu0 2.612 . S
O45 Eu11 2.380 . S
O45 C56 1.276 . S
O46 Eu11 2.432 . S
O46 C63 1.264 . S
O47 Eu0 2.339 . S
O47 C63 1.254 . S
O48 Eu0 2.563 . S
O48 C56 1.235 . S
O49 Eu0 2.419 . S
O49 C64 1.249 . S
O50 Eu11 2.558 1_556 S
O50 C75 1.257 . S
O51 Eu0 2.380 . S
O51 Eu11 2.612 . S
O51 C67 1.276 . S
O52 Eu0 2.432 . S
O52 C74 1.264 . S
O53 Eu11 2.339 . S
O53 C74 1.254 . S
O54 Eu11 2.563 . S
O54 C67 1.235 . S
O55 Eu11 2.419 1_556 S
O55 C75 1.249 . S
C56 O45 1.276 . S
C56 O48 1.235 . S
C57 C59 1.393 . S
C57 C61 1.395 . S
C57 C64 1.492 . S
C58 C59 1.392 . S
C58 C60 1.386 . S
C59 C57 1.393 . S
C59 C58 1.392 . S
C59 H76 0.930 . S
C60 C58 1.386 . S
C60 C62 1.395 . S
C60 H77 0.930 . S
C61 C57 1.395 . S
C61 C62 1.379 . S
C61 H78 0.930 . S
C62 C60 1.395 . S
C62 C61 1.379 . S
C62 H79 0.930 . S
C63 O46 1.264 . S
C63 O47 1.254 . S
C64 Eu0 2.848 . S
C64 O44 1.257 . S
C64 O49 1.249 . S
C64 C57 1.492 . S
C65 H30 0.931 . S
C65 C43 1.420 . S
C65 C66 1.351 . S
C66 H28 0.930 . S
C66 C34 1.423 . S
C66 C65 1.351 . S
C67 O51 1.276 . S
C67 O54 1.235 . S
C68 C69 1.393 . S
C68 C72 1.395 . S
C68 C75 1.492 . S
C69 C68 1.393 . S
C69 C70 1.392 . S
C69 H80 0.930 . S
C70 C69 1.392 . S
C70 C71 1.386 . S
C71 C70 1.386 . S
C71 C73 1.395 . S
C71 H81 0.930 . S
C72 C68 1.395 . S
C72 C73 1.379 . S
C72 H82 0.930 . S
C73 C71 1.395 . S
C73 C72 1.379 . S
C73 H83 0.930 . S
C74 O52 1.264 . S
C74 O53 1.254 . S
C75 Eu11 2.848 1_556 S
C75 O50 1.257 . S
C75 O55 1.249 . S
C75 C68 1.492 . S
H76 C59 0.930 . S
H77 C60 0.930 . S
H78 C61 0.930 . S
H79 C62 0.930 . S
H80 C69 0.930 . S
H81 C71 0.930 . S
H82 C72 0.930 . S
H83 C73 0.930 . S
Eu84 N115 2.657 . S
Eu84 N122 2.609 . S
Eu84 O128 2.558 . S
Eu84 O129 2.612 . S
Eu84 O131 2.339 . S
Eu84 O132 2.563 . S
Eu84 O133 2.419 . S
Eu84 O135 2.380 . S
Eu84 O136 2.432 . S
Eu84 C148 2.848 . S
C85 C88 1.429 . S
C85 C89 1.411 . S
C85 N92 1.377 . S
C86 C88 1.420 . S
C86 C90 1.423 . S
C86 C98 1.392 . S
C87 C89 1.420 . S
C87 C90 1.351 . S
C87 H110 0.931 . S
C88 C85 1.429 . S
C88 C86 1.420 . S
C88 N96 1.362 . S
C89 C85 1.411 . S
C89 C87 1.420 . S
C89 C94 1.395 . S
C90 C86 1.423 . S
C90 C87 1.351 . S
C90 H102 0.930 . S
C91 C93 1.400 . S
C91 C94 1.386 . S
C91 H103 0.930 1_565 S
N92 C85 1.377 . S
N92 C93 1.321 . S
N92 Eu95 2.609 . S
C93 C91 1.400 . S
C93 N92 1.321 . S
C93 H100 0.930 . S
C94 C89 1.395 . S
C94 C91 1.386 . S
C94 H113 0.924 1_565 S
Eu95 N92 2.609 . S
Eu95 N96 2.657 . S
Eu95 O129 2.380 . S
Eu95 O130 2.432 . S
Eu95 O134 2.558 . S
Eu95 O135 2.612 . S
Eu95 O137 2.339 . S
Eu95 O138 2.563 . S
Eu95 O139 2.419 . S
Eu95 C159 2.848 . S
N96 C88 1.362 . S
N96 Eu95 2.657 . S
N96 C97 1.334 . S
C97 N96 1.334 . S
C97 C99 1.413 . S
C97 H104 0.929 . S
C98 C86 1.392 . S
C98 C99 1.367 . S
C98 H106 0.930 . S
C99 C97 1.413 . S
C99 C98 1.367 . S
C99 H101 0.930 . S
H100 C93 0.930 . S
H101 C99 0.930 . S
H102 C90 0.930 . S
H103 C91 0.930 1_545 S
H104 C97 0.929 . S
H105 C119 0.930 . S
H106 C98 0.930 . S
H107 C125 0.930 . S
H108 C116 0.929 . S
H109 C123 0.930 . S
H110 C87 0.931 . S
H111 C117 0.930 . S
H112 C150 0.930 . S
H113 C94 0.924 1_545 S
H114 C149 0.931 . S
N115 Eu84 2.657 . S
N115 C116 1.334 . S
N115 C120 1.362 . S
C116 H108 0.929 . S
C116 N115 1.334 . S
C116 C119 1.413 . S
C117 H111 0.930 . S
C117 C118 1.392 . S
C117 C119 1.367 . S
C118 C117 1.392 . S
C118 C120 1.420 . S
C118 C150 1.423 . S
C119 H105 0.930 . S
C119 C116 1.413 . S
C119 C117 1.367 . S
C120 N115 1.362 . S
C120 C118 1.420 . S
C120 C124 1.429 . S
H121 C126 0.930 . S
N122 Eu84 2.609 . S
N122 C124 1.377 . S
N122 C125 1.321 . S
C123 H109 0.930 . S
C123 C125 1.400 . S
C123 C126 1.386 . S
C124 C120 1.429 . S
C124 N122 1.377 . S
C124 C127 1.411 . S
C125 H107 0.930 . S
C125 N122 1.321 . S
C125 C123 1.400 . S
C126 H121 0.930 . S
C126 C123 1.386 . S
C126 C127 1.395 . S
C127 C124 1.411 . S
C127 C126 1.395 . S
C127 C149 1.420 . S
O128 Eu84 2.558 . S
O128 C148 1.257 . S
O129 Eu84 2.612 . S
O129 Eu95 2.380 . S
O129 C140 1.276 . S
O130 Eu95 2.432 . S
O130 C147 1.264 . S
O131 Eu84 2.339 . S
O131 C147 1.254 . S
O132 Eu84 2.563 . S
O132 C140 1.235 . S
O133 Eu84 2.419 . S
O133 C148 1.249 . S
O134 Eu95 2.558 . S
O134 C159 1.257 . S
O135 Eu84 2.380 . S
O135 Eu95 2.612 . S
O135 C151 1.276 . S
O136 Eu84 2.432 . S
O136 C158 1.264 . S
O137 Eu95 2.339 . S
O137 C158 1.254 . S
O138 Eu95 2.563 . S
O138 C151 1.235 . S
O139 Eu95 2.419 . S
O139 C159 1.249 . S
C140 O129 1.276 . S
C140 O132 1.235 . S
C141 C143 1.393 . S
C141 C145 1.395 . S
C141 C148 1.492 . S
C142 C143 1.392 . S
C142 C144 1.386 . S
C143 C141 1.393 . S
C143 C142 1.392 . S
C143 H160 0.930 . S
C144 C142 1.386 . S
C144 C146 1.395 . S
C144 H161 0.930 . S
C145 C141 1.395 . S
C145 C146 1.379 . S
C145 H162 0.930 . S
C146 C144 1.395 . S
C146 C145 1.379 . S
C146 H163 0.930 . S
C147 O130 1.264 . S
C147 O131 1.254 . S
C148 Eu84 2.848 . S
C148 O128 1.257 . S
C148 O133 1.249 . S
C148 C141 1.492 . S
C149 H114 0.931 . S
C149 C127 1.420 . S
C149 C150 1.351 . S
C150 H112 0.930 . S
C150 C118 1.423 . S
C150 C149 1.351 . S
C151 O135 1.276 . S
C151 O138 1.235 . S
C152 C153 1.393 . S
C152 C156 1.395 . S
C152 C159 1.492 . S
C153 C152 1.393 . S
C153 C154 1.392 1_554 S
C153 H164 0.930 . S
C154 C153 1.392 1_556 S
C154 C155 1.386 . S
C155 C154 1.386 . S
C155 C157 1.395 . S
C155 H165 0.930 . S
C156 C152 1.395 . S
C156 C157 1.379 1_554 S
C156 H166 0.930 . S
C157 C155 1.395 . S
C157 C156 1.379 1_556 S
C157 H167 0.930 . S
C158 O136 1.264 . S
C158 O137 1.254 . S
C159 Eu95 2.848 . S
C159 O134 1.257 . S
C159 O139 1.249 . S
C159 C152 1.492 . S
H160 C143 0.930 . S
H161 C144 0.930 . S
H162 C145 0.930 . S
H163 C146 0.930 . S
H164 C153 0.930 . S
H165 C155 0.930 . S
H166 C156 0.930 . S
H167 C157 0.930 . S
Eu168 N199 2.657 . S
Eu168 N206 2.609 . S
Eu168 O212 2.558 . S
Eu168 O213 2.612 . S
Eu168 O215 2.339 . S
Eu168 O216 2.563 . S
Eu168 O217 2.419 . S
Eu168 O219 2.380 . S
Eu168 O220 2.432 . S
Eu168 C232 2.848 . S
C169 C172 1.429 . S
C169 C173 1.411 . S
C169 N176 1.377 . S
C170 C172 1.420 . S
C170 C174 1.423 . S
C170 C182 1.392 . S
C171 C173 1.420 . S
C171 C174 1.351 . S
C171 H194 0.931 . S
C172 C169 1.429 . S
C172 C170 1.420 . S
C172 N180 1.362 . S
C173 C169 1.411 . S
C173 C171 1.420 . S
C173 C178 1.395 . S
C174 C170 1.423 . S
C174 C171 1.351 . S
C174 H186 0.930 . S
C175 C177 1.400 . S
C175 C178 1.386 . S
C175 H187 0.930 . S
N176 C169 1.377 . S
N176 C177 1.321 . S
N176 Eu179 2.609 . S
C177 C175 1.400 . S
C177 N176 1.321 . S
C177 H184 0.930 . S
C178 C173 1.395 . S
C178 C175 1.386 . S
C178 H197 0.930 . S
Eu179 N176 2.609 . S
Eu179 N180 2.657 . S
Eu179 O213 2.380 . S
Eu179 O214 2.432 . S
Eu179 O218 2.558 . S
Eu179 O219 2.612 . S
Eu179 O221 2.339 . S
Eu179 O222 2.563 . S
Eu179 O223 2.419 . S
Eu179 C243 2.848 . S
N180 C172 1.362 . S
N180 Eu179 2.657 . S
N180 C181 1.334 . S
C181 N180 1.334 . S
C181 C183 1.413 . S
C181 H188 0.929 . S
C182 C170 1.392 . S
C182 C183 1.367 . S
C182 H190 0.930 . S
C183 C181 1.413 . S
C183 C182 1.367 . S
C183 H185 0.930 . S
H184 C177 0.930 . S
H185 C183 0.930 . S
H186 C174 0.930 . S
H187 C175 0.930 . S
H188 C181 0.929 . S
H189 C203 0.930 . S
H190 C182 0.930 . S
H191 C209 0.930 . S
H192 C200 0.929 . S
H193 C207 0.930 . S
H194 C171 0.931 . S
H195 C201 0.930 . S
H196 C234 0.930 . S
H197 C178 0.930 . S
H198 C233 0.931 . S
N199 Eu168 2.657 . S
N199 C200 1.334 . S
N199 C204 1.362 . S
C200 H192 0.929 . S
C200 N199 1.334 . S
C200 C203 1.413 . S
C201 H195 0.930 . S
C201 C202 1.392 . S
C201 C203 1.367 . S
C202 C201 1.392 . S
C202 C204 1.420 . S
C202 C234 1.423 . S
C203 H189 0.930 . S
C203 C200 1.413 . S
C203 C201 1.367 . S
C204 N199 1.362 . S
C204 C202 1.420 . S
C204 C208 1.429 . S
H205 C210 0.930 . S
N206 Eu168 2.609 . S
N206 C208 1.377 . S
N206 C209 1.321 . S
C207 H193 0.930 . S
C207 C209 1.400 . S
C207 C210 1.386 . S
C208 C204 1.429 . S
C208 N206 1.377 . S
C208 C211 1.411 . S
C209 H191 0.930 . S
C209 N206 1.321 . S
C209 C207 1.400 . S
C210 H205 0.930 . S
C210 C207 1.386 . S
C210 C211 1.395 . S
C211 C208 1.411 . S
C211 C210 1.395 . S
C211 C233 1.420 . S
O212 Eu168 2.558 . S
O212 C232 1.257 . S
O213 Eu168 2.612 . S
O213 Eu179 2.380 . S
O213 C224 1.276 . S
O214 Eu179 2.432 . S
O214 C231 1.264 . S
O215 Eu168 2.339 . S
O215 C231 1.254 . S
O216 Eu168 2.563 . S
O216 C224 1.235 . S
O217 Eu168 2.419 . S
O217 C232 1.249 . S
O218 Eu179 2.558 . S
O218 C243 1.257 . S
O219 Eu168 2.380 . S
O219 Eu179 2.612 . S
O219 C235 1.276 . S
O220 Eu168 2.432 . S
O220 C242 1.264 . S
O221 Eu179 2.339 . S
O221 C242 1.254 . S
O222 Eu179 2.563 . S
O222 C235 1.235 . S
O223 Eu179 2.419 . S
O223 C243 1.249 . S
C224 O213 1.276 . S
C224 O216 1.235 . S
C225 C227 1.393 . S
C225 C229 1.395 . S
C225 C232 1.492 . S
C226 C227 1.392 1_554 S
C226 C228 1.386 . S
C227 C225 1.393 . S
C227 C226 1.392 1_556 S
C227 H244 0.930 . S
C228 C226 1.386 . S
C228 C230 1.395 . S
C228 H245 0.930 . S
C229 C225 1.395 . S
C229 C230 1.379 1_556 S
C229 H246 0.930 . S
C230 C228 1.395 . S
C230 C229 1.379 1_554 S
C230 H247 0.930 . S
C231 O214 1.264 . S
C231 O215 1.254 . S
C232 Eu168 2.848 . S
C232 O212 1.257 . S
C232 O217 1.249 . S
C232 C225 1.492 . S
C233 H198 0.931 . S
C233 C211 1.420 . S
C233 C234 1.351 . S
C234 H196 0.930 . S
C234 C202 1.423 . S
C234 C233 1.351 . S
C235 O219 1.276 . S
C235 O222 1.235 . S
C236 C237 1.393 . S
C236 C240 1.395 . S
C236 C243 1.492 . S
C237 C236 1.393 . S
C237 C238 1.392 . S
C237 H248 0.930 . S
C238 C237 1.392 . S
C238 C239 1.386 . S
C239 C238 1.386 . S
C239 C241 1.395 . S
C239 H249 0.930 . S
C240 C236 1.395 . S
C240 C241 1.379 . S
C240 H250 0.930 . S
C241 C239 1.395 . S
C241 C240 1.379 . S
C241 H251 0.930 . S
C242 O220 1.264 . S
C242 O221 1.254 . S
C243 Eu179 2.848 . S
C243 O218 1.257 . S
C243 O223 1.249 . S
C243 C236 1.492 . S
H244 C227 0.930 . S
H245 C228 0.930 . S
H246 C229 0.930 . S
H247 C230 0.930 . S
H248 C237 0.930 . S
H249 C239 0.930 . S
H250 C240 0.930 . S
H251 C241 0.930 . S
Eu252 N283 2.657 . S
Eu252 N290 2.609 . S
Eu252 O296 2.558 . S
Eu252 O297 2.612 . S
Eu252 O299 2.339 . S
Eu252 O300 2.563 . S
Eu252 O301 2.419 . S
Eu252 O303 2.380 . S
Eu252 O304 2.432 . S
Eu252 C316 2.848 . S
C253 C256 1.430 . S
C253 C257 1.408 1_556 S
C253 N260 1.379 . S
C254 C256 1.419 1_554 S
C254 C258 1.424 . S
C254 C266 1.391 1_554 S
C255 C257 1.420 . S
C255 C258 1.351 . S
C255 H278 0.931 . S
C256 C253 1.430 . S
C256 C254 1.419 1_556 S
C256 N264 1.362 . S
C257 C253 1.408 1_554 S
C257 C255 1.420 . S
C257 C262 1.395 . S
C258 C254 1.424 . S
C258 C255 1.351 . S
C258 H270 0.930 . S
C259 C261 1.400 1_554 S
C259 C262 1.386 . S
C259 H271 0.930 . S
N260 C253 1.379 . S
N260 C261 1.321 . S
N260 Eu263 2.609 . S
C261 C259 1.400 1_556 S
C261 N260 1.321 . S
C261 H268 0.930 . S
C262 C257 1.395 . S
C262 C259 1.386 . S
C262 H281 0.930 . S
Eu263 N260 2.609 . S
Eu263 N264 2.657 . S
Eu263 O297 2.380 . S
Eu263 O298 2.432 . S
Eu263 O302 2.558 1_556 S
Eu263 O303 2.612 . S
Eu263 O305 2.339 . S
Eu263 O306 2.563 . S
Eu263 O307 2.419 1_556 S
Eu263 C327 2.848 1_556 S
N264 C256 1.362 . S
N264 Eu263 2.657 . S
N264 C265 1.334 . S
C265 N264 1.334 . S
C265 C267 1.413 . S
C265 H272 0.929 . S
C266 C254 1.391 1_556 S
C266 C267 1.367 . S
C266 H274 0.930 . S
C267 C265 1.413 . S
C267 C266 1.367 . S
C267 H269 0.930 . S
H268 C261 0.930 . S
H269 C267 0.930 . S
H270 C258 0.930 . S
H271 C259 0.930 . S
H272 C265 0.929 . S
H273 C287 0.930 1_565 S
H274 C266 0.930 . S
H275 C293 0.930 . S
H276 C284 0.929 . S
H277 C291 0.933 . S
H278 C255 0.931 . S
H279 C285 0.930 . S
H280 C318 0.930 . S
H281 C262 0.930 . S
H282 C317 0.931 . S
N283 Eu252 2.657 . S
N283 C284 1.334 . S
N283 C288 1.362 . S
C284 H276 0.929 . S
C284 N283 1.334 . S
C284 C287 1.413 . S
C285 H279 0.930 . S
C285 C286 1.392 . S
C285 C287 1.367 1_565 S
C286 C285 1.392 . S
C286 C288 1.420 1_565 S
C286 C318 1.423 . S
C287 H273 0.930 1_545 S
C287 C284 1.413 . S
C287 C285 1.367 1_545 S
C288 N283 1.362 . S
C288 C286 1.420 1_545 S
C288 C292 1.429 . S
H289 C294 0.930 1_565 S
N290 Eu252 2.609 . S
N290 C292 1.377 . S
N290 C293 1.321 . S
C291 H277 0.933 . S
C291 C293 1.400 . S
C291 C294 1.386 . S
C292 C288 1.429 . S
C292 N290 1.377 . S
C292 C295 1.437 . S
C293 H275 0.930 . S
C293 N290 1.321 . S
C293 C291 1.400 . S
C294 H289 0.930 1_545 S
C294 C291 1.386 . S
C294 C295 1.406 . S
C295 C292 1.437 . S
C295 C294 1.406 . S
C295 C317 1.385 1_545 S
O296 Eu252 2.558 . S
O296 C316 1.257 . S
O297 Eu252 2.612 . S
O297 Eu263 2.380 . S
O297 C308 1.276 . S
O298 Eu263 2.432 . S
O298 C315 1.264 . S
O299 Eu252 2.339 . S
O299 C315 1.254 . S
O300 Eu252 2.563 . S
O300 C308 1.235 . S
O301 Eu252 2.419 . S
O301 C316 1.249 . S
O302 Eu263 2.558 1_554 S
O302 C327 1.257 . S
O303 Eu252 2.380 . S
O303 Eu263 2.612 . S
O303 C319 1.276 . S
O304 Eu252 2.432 . S
O304 C326 1.264 . S
O305 Eu263 2.339 . S
O305 C326 1.254 . S
O306 Eu263 2.563 . S
O306 C319 1.235 . S
O307 Eu263 2.419 1_554 S
O307 C327 1.249 . S
C308 O297 1.276 . S
C308 O300 1.235 . S
C309 C311 1.393 . S
C309 C313 1.395 . S
C309 C316 1.492 . S
C310 C311 1.392 . S
C310 C312 1.386 . S
C311 C309 1.393 . S
C311 C310 1.392 . S
C311 H328 0.930 . S
C312 C310 1.386 . S
C312 C314 1.395 . S
C312 H329 0.930 . S
C313 C309 1.395 . S
C313 C314 1.379 . S
C313 H330 0.930 . S
C314 C312 1.395 . S
C314 C313 1.379 . S
C314 H331 0.930 . S
C315 O298 1.264 . S
C315 O299 1.254 . S
C316 Eu252 2.848 . S
C316 O296 1.257 . S
C316 O301 1.249 . S
C316 C309 1.492 . S
C317 H282 0.931 . S
C317 C295 1.385 1_565 S
C317 C318 1.351 . S
C318 H280 0.930 . S
C318 C286 1.423 . S
C318 C317 1.351 . S
C319 O303 1.276 . S
C319 O306 1.235 . S
C320 C321 1.393 . S
C320 C324 1.395 . S
C320 C327 1.492 . S
C321 C320 1.393 . S
C321 C322 1.392 . S
C321 H332 0.930 . S
C322 C321 1.392 . S
C322 C323 1.386 . S
C323 C322 1.386 . S
C323 C325 1.395 . S
C323 H333 0.930 . S
C324 C320 1.395 . S
C324 C325 1.379 . S
C324 H334 0.930 . S
C325 C323 1.395 . S
C325 C324 1.379 . S
C325 H335 0.930 . S
C326 O304 1.264 . S
C326 O305 1.254 . S
C327 Eu263 2.848 1_554 S
C327 O302 1.257 . S
C327 O307 1.249 . S
C327 C320 1.492 . S
H328 C311 0.930 . S
H329 C312 0.930 . S
H330 C313 0.930 . S
H331 C314 0.930 . S
H332 C321 0.930 . S
H333 C323 0.930 . S
H334 C324 0.930 . S
H335 C325 0.930 . S
Eu336 N367 2.657 . S
Eu336 N374 2.609 . S
Eu336 O380 2.558 1_556 S
Eu336 O381 2.612 . S
Eu336 O383 2.339 . S
Eu336 O384 2.563 . S
Eu336 O385 2.419 1_556 S
Eu336 O387 2.380 . S
Eu336 O388 2.432 . S
Eu336 C400 2.848 1_556 S
C337 C340 1.429 . S
C337 C341 1.411 . S
C337 N344 1.377 . S
C338 C340 1.420 . S
C338 C342 1.423 1_455 S
C338 C350 1.392 1_455 S
C339 C341 1.420 1_655 S
C339 C342 1.351 . S
C339 H362 0.931 . S
C340 C337 1.429 . S
C340 C338 1.420 . S
C340 N348 1.362 . S
C341 C337 1.411 . S
C341 C339 1.420 1_455 S
C341 C346 1.395 . S
C342 C338 1.423 1_655 S
C342 C339 1.351 . S
C342 H354 0.930 . S
C343 C345 1.400 . S
C343 C346 1.386 . S
C343 H355 0.930 . S
N344 C337 1.377 . S
N344 C345 1.321 . S
N344 Eu347 2.609 . S
C345 C343 1.400 . S
C345 N344 1.321 . S
C345 H352 0.930 . S
C346 C341 1.395 . S
C346 C343 1.386 . S
C346 H365 0.930 . S
Eu347 N344 2.609 . S
Eu347 N348 2.657 . S
Eu347 O381 2.380 . S
Eu347 O382 2.432 . S
Eu347 O386 2.558 . S
Eu347 O387 2.612 . S
Eu347 O389 2.339 . S
Eu347 O390 2.563 . S
Eu347 O391 2.419 . S
Eu347 C411 2.848 . S
N348 C340 1.362 . S
N348 Eu347 2.657 . S
N348 C349 1.334 . S
C349 N348 1.334 . S
C349 C351 1.413 . S
C349 H356 0.929 . S
C350 C338 1.392 1_655 S
C350 C351 1.367 1_655 S
C350 H358 0.930 . S
C351 C349 1.413 . S
C351 C350 1.367 1_455 S
C351 H353 0.930 . S
H352 C345 0.930 . S
H353 C351 0.930 . S
H354 C342 0.930 . S
H355 C343 0.930 . S
H356 C349 0.929 . S
H357 C371 0.930 . S
H358 C350 0.930 . S
H359 C377 0.930 . S
H360 C368 0.929 . S
H361 C375 0.930 . S
H362 C339 0.931 . S
H363 C369 0.930 . S
H364 C402 0.930 . S
H365 C346 0.930 . S
H366 C401 0.931 . S
N367 Eu336 2.657 . S
N367 C368 1.334 . S
N367 C372 1.362 . S
C368 H360 0.929 . S
C368 N367 1.334 . S
C368 C371 1.413 . S
C369 H363 0.930 . S
C369 C370 1.392 . S
C369 C371 1.367 . S
C370 C369 1.392 . S
C370 C372 1.420 . S
C370 C402 1.423 1_556 S
C371 H357 0.930 . S
C371 C368 1.413 . S
C371 C369 1.367 . S
C372 N367 1.362 . S
C372 C370 1.420 . S
C372 C376 1.429 . S
H373 C378 0.930 . S
N374 Eu336 2.609 . S
N374 C376 1.377 . S
N374 C377 1.321 . S
C375 H361 0.930 . S
C375 C377 1.400 1_554 S
C375 C378 1.386 . S
C376 C372 1.429 . S
C376 N374 1.377 . S
C376 C379 1.411 1_556 S
C377 H359 0.930 . S
C377 N374 1.321 . S
C377 C375 1.400 1_556 S
C378 H373 0.930 . S
C378 C375 1.386 . S
C378 C379 1.395 . S
C379 C376 1.411 1_554 S
C379 C378 1.395 . S
C379 C401 1.420 . S
O380 Eu336 2.558 1_554 S
O380 C400 1.257 . S
O381 Eu336 2.612 . S
O381 Eu347 2.380 . S
O381 C392 1.276 . S
O382 Eu347 2.432 . S
O382 C399 1.264 . S
O383 Eu336 2.339 . S
O383 C399 1.254 . S
O384 Eu336 2.563 . S
O384 C392 1.235 . S
O385 Eu336 2.419 1_554 S
O385 C400 1.249 . S
O386 Eu347 2.558 . S
O386 C411 1.257 . S
O387 Eu336 2.380 . S
O387 Eu347 2.612 . S
O387 C403 1.276 . S
O388 Eu336 2.432 . S
O388 C410 1.264 . S
O389 Eu347 2.339 . S
O389 C410 1.254 . S
O390 Eu347 2.563 . S
O390 C403 1.235 . S
O391 Eu347 2.419 . S
O391 C411 1.249 . S
C392 O381 1.276 . S
C392 O384 1.235 . S
C393 C395 1.393 . S
C393 C397 1.395 . S
C393 C400 1.492 . S
C394 C395 1.392 . S
C394 C396 1.386 . S
C395 C393 1.393 . S
C395 C394 1.392 . S
C395 H412 0.930 . S
C396 C394 1.386 . S
C396 C398 1.395 . S
C396 H413 0.930 . S
C397 C393 1.395 . S
C397 C398 1.379 . S
C397 H414 0.930 . S
C398 C396 1.395 . S
C398 C397 1.379 . S
C398 H415 0.930 . S
C399 O382 1.264 . S
C399 O383 1.254 . S
C400 Eu336 2.848 1_554 S
C400 O380 1.257 . S
C400 O385 1.249 . S
C400 C393 1.492 . S
C401 H366 0.931 . S
C401 C379 1.420 . S
C401 C402 1.351 . S
C402 H364 0.930 . S
C402 C370 1.423 1_554 S
C402 C401 1.351 . S
C403 O387 1.276 . S
C403 O390 1.235 . S
C404 C405 1.393 . S
C404 C408 1.395 . S
C404 C411 1.492 . S
C405 C404 1.393 . S
C405 C406 1.392 . S
C405 H416 0.930 . S
C406 C405 1.392 . S
C406 C407 1.386 . S
C407 C406 1.386 . S
C407 C409 1.395 . S
C407 H417 0.930 . S
C408 C404 1.395 . S
C408 C409 1.379 . S
C408 H418 0.930 . S
C409 C407 1.395 . S
C409 C408 1.379 . S
C409 H419 0.930 . S
C410 O388 1.264 . S
C410 O389 1.254 . S
C411 Eu347 2.848 . S
C411 O386 1.257 . S
C411 O391 1.249 . S
C411 C404 1.492 . S
H412 C395 0.930 . S
H413 C396 0.930 . S
H414 C397 0.930 . S
H415 C398 0.930 . S
H416 C405 0.930 . S
H417 C407 0.930 . S
H418 C408 0.930 . S
H419 C409 0.930 . S
Eu420 N451 2.657 . S
Eu420 N458 2.609 . S
Eu420 O464 2.558 . S
Eu420 O465 2.612 . S
Eu420 O467 2.339 . S
Eu420 O468 2.563 . S
Eu420 O469 2.419 . S
Eu420 O471 2.380 . S
Eu420 O472 2.432 . S
Eu420 C484 2.848 . S
C421 C424 1.427 1_556 S
C421 C425 1.415 . S
C421 N428 1.374 1_556 S
C422 C424 1.420 1_556 S
C422 C426 1.422 . S
C422 C434 1.392 1_556 S
C423 C425 1.420 . S
C423 C426 1.351 . S
C423 H446 0.931 . S
C424 C421 1.427 1_554 S
C424 C422 1.420 1_554 S
C424 N432 1.362 . S
C425 C421 1.415 . S
C425 C423 1.420 . S
C425 C430 1.395 . S
C426 C422 1.422 . S
C426 C423 1.351 . S
C426 H438 0.930 . S
C427 C429 1.400 1_556 S
C427 C430 1.386 . S
C427 H439 0.930 . S
N428 C421 1.374 1_554 S
N428 C429 1.321 . S
N428 Eu431 2.609 . S
C429 C427 1.400 1_554 S
C429 N428 1.321 . S
C429 H436 0.930 . S
C430 C425 1.395 . S
C430 C427 1.386 . S
C430 H449 0.930 . S
Eu431 N428 2.609 . S
Eu431 N432 2.657 . S
Eu431 O465 2.380 . S
Eu431 O466 2.432 . S
Eu431 O470 2.558 1_554 S
Eu431 O471 2.612 . S
Eu431 O473 2.339 . S
Eu431 O474 2.563 . S
Eu431 O475 2.419 1_554 S
Eu431 C495 2.848 1_554 S
N432 C424 1.362 . S
N432 Eu431 2.657 . S
N432 C433 1.334 . S
C433 N432 1.334 . S
C433 C435 1.413 . S
C433 H440 0.929 . S
C434 C422 1.392 1_554 S
C434 C435 1.367 . S
C434 H442 0.930 . S
C435 C433 1.413 . S
C435 C434 1.367 . S
C435 H437 0.930 . S
H436 C429 0.930 . S
H437 C435 0.930 . S
H438 C426 0.930 . S
H439 C427 0.930 . S
H440 C433 0.929 . S
H441 C455 0.929 1_545 S
H442 C434 0.930 . S
H443 C461 0.930 . S
H444 C452 0.929 . S
H445 C459 0.930 . S
H446 C423 0.931 . S
H447 C453 0.930 . S
H448 C486 0.930 . S
H449 C430 0.930 . S
H450 C485 0.931 . S
N451 Eu420 2.657 . S
N451 C452 1.334 . S
N451 C456 1.362 . S
C452 H444 0.929 . S
C452 N451 1.334 . S
C452 C455 1.417 . S
C453 H447 0.930 . S
C453 C454 1.392 . S
C453 C455 1.365 1_545 S
C454 C453 1.392 . S
C454 C456 1.420 1_545 S
C454 C486 1.423 . S
C455 H441 0.929 1_565 S
C455 C452 1.417 . S
C455 C453 1.365 1_565 S
C456 N451 1.362 . S
C456 C454 1.420 1_565 S
C456 C460 1.429 . S
H457 C462 0.930 1_545 S
N458 Eu420 2.609 . S
N458 C460 1.377 . S
N458 C461 1.321 . S
C459 H445 0.930 . S
C459 C461 1.400 . S
C459 C462 1.386 . S
C460 C456 1.429 . S
C460 N458 1.377 . S
C460 C463 1.411 . S
C461 H443 0.930 . S
C461 N458 1.321 . S
C461 C459 1.400 . S
C462 H457 0.930 1_565 S
C462 C459 1.386 . S
C462 C463 1.395 . S
C463 C460 1.411 . S
C463 C462 1.395 . S
C463 C485 1.420 1_565 S
O464 Eu420 2.558 . S
O464 C484 1.257 . S
O465 Eu420 2.612 . S
O465 Eu431 2.380 . S
O465 C476 1.276 . S
O466 Eu431 2.432 . S
O466 C483 1.264 . S
O467 Eu420 2.339 . S
O467 C483 1.254 . S
O468 Eu420 2.563 . S
O468 C476 1.235 . S
O469 Eu420 2.419 . S
O469 C484 1.249 . S
O470 Eu431 2.558 1_556 S
O470 C495 1.257 . S
O471 Eu420 2.380 . S
O471 Eu431 2.612 . S
O471 C487 1.276 . S
O472 Eu420 2.432 . S
O472 C494 1.264 . S
O473 Eu431 2.339 . S
O473 C494 1.254 . S
O474 Eu431 2.563 . S
O474 C487 1.235 . S
O475 Eu431 2.419 1_556 S
O475 C495 1.249 . S
C476 O465 1.276 . S
C476 O468 1.235 . S
C477 C479 1.393 . S
C477 C481 1.395 . S
C477 C484 1.492 . S
C478 C479 1.392 . S
C478 C480 1.386 . S
C479 C477 1.393 . S
C479 C478 1.392 . S
C479 H496 0.930 . S
C480 C478 1.386 . S
C480 C482 1.395 . S
C480 H497 0.930 . S
C481 C477 1.395 . S
C481 C482 1.379 . S
C481 H498 0.930 . S
C482 C480 1.395 . S
C482 C481 1.379 . S
C482 H499 0.930 . S
C483 O466 1.264 . S
C483 O467 1.254 . S
C484 Eu420 2.848 . S
C484 O464 1.257 . S
C484 O469 1.249 . S
C484 C477 1.492 . S
C485 H450 0.931 . S
C485 C463 1.420 1_545 S
C485 C486 1.351 . S
C486 H448 0.930 . S
C486 C454 1.423 . S
C486 C485 1.351 . S
C487 O471 1.276 . S
C487 O474 1.235 . S
C488 C489 1.393 . S
C488 C492 1.395 . S
C488 C495 1.492 . S
C489 C488 1.393 . S
C489 C490 1.392 . S
C489 H500 0.930 . S
C490 C489 1.392 . S
C490 C491 1.386 . S
C491 C490 1.386 . S
C491 C493 1.395 . S
C491 H501 0.930 . S
C492 C488 1.395 . S
C492 C493 1.379 . S
C492 H502 0.930 . S
C493 C491 1.395 . S
C493 C492 1.379 . S
C493 H503 0.930 . S
C494 O472 1.264 . S
C494 O473 1.254 . S
C495 Eu431 2.848 1_556 S
C495 O470 1.257 . S
C495 O475 1.249 . S
C495 C488 1.492 . S
H496 C479 0.930 . S
H497 C480 0.930 . S
H498 C481 0.930 . S
H499 C482 0.930 . S
H500 C489 0.930 . S
H501 C491 0.930 . S
H502 C492 0.930 . S
H503 C493 0.930 . S
Eu504 N535 2.657 . S
Eu504 N542 2.609 . S
Eu504 O548 2.558 . S
Eu504 O549 2.612 . S
Eu504 O551 2.339 . S
Eu504 O552 2.563 . S
Eu504 O553 2.419 . S
Eu504 O555 2.380 . S
Eu504 O556 2.432 . S
Eu504 C568 2.848 . S
C505 C508 1.429 . S
C505 C509 1.411 . S
C505 N512 1.377 . S
C506 C508 1.420 . S
C506 C510 1.423 . S
C506 C518 1.392 . S
C507 C509 1.420 . S
C507 C510 1.351 . S
C507 H530 0.931 . S
C508 C505 1.429 . S
C508 C506 1.420 . S
C508 N516 1.362 . S
C509 C505 1.411 . S
C509 C507 1.420 . S
C509 C514 1.395 . S
C510 C506 1.423 . S
C510 C507 1.351 . S
C510 H522 0.930 . S
C511 C513 1.400 . S
C511 C514 1.386 . S
C511 H523 0.930 . S
N512 C505 1.377 . S
N512 C513 1.321 . S
N512 Eu515 2.609 . S
C513 C511 1.400 . S
C513 N512 1.321 . S
C513 H520 0.930 . S
C514 C509 1.395 . S
C514 C511 1.386 . S
C514 H533 0.930 . S
Eu515 N512 2.609 . S
Eu515 N516 2.657 . S
Eu515 O549 2.380 . S
Eu515 O550 2.432 . S
Eu515 O554 2.558 . S
Eu515 O555 2.612 . S
Eu515 O557 2.339 . S
Eu515 O558 2.563 . S
Eu515 O559 2.419 . S
Eu515 C579 2.848 . S
N516 C508 1.362 . S
N516 Eu515 2.657 . S
N516 C517 1.334 . S
C517 N516 1.334 . S
C517 C519 1.413 . S
C517 H524 0.929 . S
C518 C506 1.392 . S
C518 C519 1.367 . S
C518 H526 0.930 . S
C519 C517 1.413 . S
C519 C518 1.367 . S
C519 H521 0.930 . S
H520 C513 0.930 . S
H521 C519 0.930 . S
H522 C510 0.930 . S
H523 C511 0.930 . S
H524 C517 0.929 . S
H525 C539 0.930 . S
H526 C518 0.930 . S
H527 C545 0.930 . S
H528 C536 0.929 . S
H529 C543 0.930 . S
H530 C507 0.931 . S
H531 C537 0.930 . S
H532 C570 0.930 . S
H533 C514 0.930 . S
H534 C569 0.931 . S
N535 Eu504 2.657 . S
N535 C536 1.334 . S
N535 C540 1.362 . S
C536 H528 0.929 . S
C536 N535 1.334 . S
C536 C539 1.413 . S
C537 H531 0.930 . S
C537 C538 1.392 . S
C537 C539 1.367 . S
C538 C537 1.392 . S
C538 C540 1.420 . S
C538 C570 1.423 . S
C539 H525 0.930 . S
C539 C536 1.413 . S
C539 C537 1.367 . S
C540 N535 1.362 . S
C540 C538 1.420 . S
C540 C544 1.429 . S
H541 C546 0.930 . S
N542 Eu504 2.609 . S
N542 C544 1.377 . S
N542 C545 1.321 . S
C543 H529 0.930 . S
C543 C545 1.400 . S
C543 C546 1.386 . S
C544 C540 1.429 . S
C544 N542 1.377 . S
C544 C547 1.411 . S
C545 H527 0.930 . S
C545 N542 1.321 . S
C545 C543 1.400 . S
C546 H541 0.930 . S
C546 C543 1.386 . S
C546 C547 1.395 . S
C547 C544 1.411 . S
C547 C546 1.395 . S
C547 C569 1.420 . S
O548 Eu504 2.558 . S
O548 C568 1.257 . S
O549 Eu504 2.612 . S
O549 Eu515 2.380 . S
O549 C560 1.276 . S
O550 Eu515 2.432 . S
O550 C567 1.264 . S
O551 Eu504 2.339 . S
O551 C567 1.254 . S
O552 Eu504 2.563 . S
O552 C560 1.235 . S
O553 Eu504 2.419 . S
O553 C568 1.249 . S
O554 Eu515 2.558 . S
O554 C579 1.257 . S
O555 Eu504 2.380 . S
O555 Eu515 2.612 . S
O555 C571 1.276 . S
O556 Eu504 2.432 . S
O556 C578 1.264 . S
O557 Eu515 2.339 . S
O557 C578 1.254 . S
O558 Eu515 2.563 . S
O558 C571 1.235 . S
O559 Eu515 2.419 . S
O559 C579 1.249 . S
C560 O549 1.276 . S
C560 O552 1.235 . S
C561 C563 1.393 . S
C561 C565 1.395 . S
C561 C568 1.492 . S
C562 C563 1.392 1_556 S
C562 C564 1.386 . S
C563 C561 1.393 . S
C563 C562 1.392 1_554 S
C563 H580 0.930 . S
C564 C562 1.386 . S
C564 C566 1.395 . S
C564 H581 0.930 . S
C565 C561 1.395 . S
C565 C566 1.379 1_554 S
C565 H582 0.930 . S
C566 C564 1.395 . S
C566 C565 1.379 1_556 S
C566 H583 0.930 . S
C567 O550 1.264 . S
C567 O551 1.254 . S
C568 Eu504 2.848 . S
C568 O548 1.257 . S
C568 O553 1.249 . S
C568 C561 1.492 . S
C569 H534 0.931 . S
C569 C547 1.420 . S
C569 C570 1.351 . S
C570 H532 0.930 . S
C570 C538 1.423 . S
C570 C569 1.351 . S
C571 O555 1.276 . S
C571 O558 1.235 . S
C572 C573 1.393 . S
C572 C576 1.395 . S
C572 C579 1.492 . S
C573 C572 1.393 . S
C573 C574 1.392 . S
C573 H584 0.930 . S
C574 C573 1.392 . S
C574 C575 1.386 . S
C575 C574 1.386 . S
C575 C577 1.395 . S
C575 H585 0.930 . S
C576 C572 1.395 . S
C576 C577 1.379 . S
C576 H586 0.930 . S
C577 C575 1.395 . S
C577 C576 1.379 . S
C577 H587 0.930 . S
C578 O556 1.264 . S
C578 O557 1.254 . S
C579 Eu515 2.848 . S
C579 O554 1.257 . S
C579 O559 1.249 . S
C579 C572 1.492 . S
H580 C563 0.930 . S
H581 C564 0.930 . S
H582 C565 0.930 . S
H583 C566 0.930 . S
H584 C573 0.930 . S
H585 C575 0.930 . S
H586 C576 0.930 . S
H587 C577 0.930 . S
Eu588 N619 2.657 . S
Eu588 N626 2.609 . S
Eu588 O632 2.558 . S
Eu588 O633 2.612 . S
Eu588 O635 2.339 . S
Eu588 O636 2.563 . S
Eu588 O637 2.419 . S
Eu588 O639 2.380 . S
Eu588 O640 2.432 . S
Eu588 C652 2.848 . S
C589 C592 1.429 . S
C589 C593 1.411 . S
C589 N596 1.377 . S
C590 C592 1.420 . S
C590 C594 1.423 . S
C590 C602 1.392 . S
C591 C593 1.420 . S
C591 C594 1.351 . S
C591 H614 0.931 . S
C592 C589 1.429 . S
C592 C590 1.420 . S
C592 N600 1.362 . S
C593 C589 1.411 . S
C593 C591 1.420 . S
C593 C598 1.395 . S
C594 C590 1.423 . S
C594 C591 1.351 . S
C594 H606 0.930 . S
C595 C597 1.400 . S
C595 C598 1.386 . S
C595 H607 0.930 . S
N596 C589 1.377 . S
N596 C597 1.321 . S
N596 Eu599 2.609 . S
C597 C595 1.400 . S
C597 N596 1.321 . S
C597 H604 0.930 . S
C598 C593 1.395 . S
C598 C595 1.386 . S
C598 H617 0.930 . S
Eu599 N596 2.609 . S
Eu599 N600 2.657 . S
Eu599 O633 2.380 . S
Eu599 O634 2.432 . S
Eu599 O638 2.558 . S
Eu599 O639 2.612 . S
Eu599 O641 2.339 . S
Eu599 O642 2.563 . S
Eu599 O643 2.419 . S
Eu599 C663 2.848 . S
N600 C592 1.362 . S
N600 Eu599 2.657 . S
N600 C601 1.334 . S
C601 N600 1.334 . S
C601 C603 1.413 . S
C601 H608 0.929 . S
C602 C590 1.392 . S
C602 C603 1.367 . S
C602 H610 0.930 . S
C603 C601 1.413 . S
C603 C602 1.367 . S
C603 H605 0.930 . S
H604 C597 0.930 . S
H605 C603 0.930 . S
H606 C594 0.930 . S
H607 C595 0.930 . S
H608 C601 0.929 . S
H609 C623 0.929 1_565 S
H610 C602 0.930 . S
H611 C629 0.930 . S
H612 C620 0.929 . S
H613 C627 0.930 . S
H614 C591 0.931 . S
H615 C621 0.930 . S
H616 C654 0.930 . S
H617 C598 0.930 . S
H618 C653 0.931 . S
N619 Eu588 2.657 . S
N619 C620 1.334 . S
N619 C624 1.362 . S
C620 H612 0.929 . S
C620 N619 1.334 . S
C620 C623 1.413 . S
C621 H615 0.930 . S
C621 C622 1.392 . S
C621 C623 1.367 1_565 S
C622 C621 1.392 . S
C622 C624 1.420 1_565 S
C622 C654 1.423 . S
C623 H609 0.929 1_545 S
C623 C620 1.413 . S
C623 C621 1.367 1_545 S
C624 N619 1.362 . S
C624 C622 1.420 1_545 S
C624 C628 1.429 . S
H625 C630 0.930 . S
N626 Eu588 2.609 . S
N626 C628 1.377 . S
N626 C629 1.321 . S
C627 H613 0.930 . S
C627 C629 1.400 . S
C627 C630 1.386 . S
C628 C624 1.429 . S
C628 N626 1.377 . S
C628 C631 1.411 . S
C629 H611 0.930 . S
C629 N626 1.321 . S
C629 C627 1.400 . S
C630 H625 0.930 . S
C630 C627 1.386 . S
C630 C631 1.395 . S
C631 C628 1.411 . S
C631 C630 1.395 . S
C631 C653 1.420 1_545 S
O632 Eu588 2.558 . S
O632 C652 1.257 . S
O633 Eu588 2.612 . S
O633 Eu599 2.380 . S
O633 C644 1.276 . S
O634 Eu599 2.432 . S
O634 C651 1.264 . S
O635 Eu588 2.339 . S
O635 C651 1.254 . S
O636 Eu588 2.563 . S
O636 C644 1.235 . S
O637 Eu588 2.419 . S
O637 C652 1.249 . S
O638 Eu599 2.558 . S
O638 C663 1.257 . S
O639 Eu588 2.380 . S
O639 Eu599 2.612 . S
O639 C655 1.276 . S
O640 Eu588 2.432 . S
O640 C662 1.264 . S
O641 Eu599 2.339 . S
O641 C662 1.254 . S
O642 Eu599 2.563 . S
O642 C655 1.235 . S
O643 Eu599 2.419 . S
O643 C663 1.249 . S
C644 O633 1.276 . S
C644 O636 1.235 . S
C645 C647 1.393 . S
C645 C649 1.395 . S
C645 C652 1.492 . S
C646 C647 1.392 1_554 S
C646 C648 1.386 . S
C647 C645 1.393 . S
C647 C646 1.392 1_556 S
C647 H664 0.930 . S
C648 C646 1.386 . S
C648 C650 1.395 . S
C648 H665 0.930 . S
C649 C645 1.395 . S
C649 C650 1.379 1_556 S
C649 H666 0.930 . S
C650 C648 1.395 . S
C650 C649 1.379 1_554 S
C650 H667 0.930 . S
C651 O634 1.264 . S
C651 O635 1.254 . S
C652 Eu588 2.848 . S
C652 O632 1.257 . S
C652 O637 1.249 . S
C652 C645 1.492 . S
C653 H618 0.931 . S
C653 C631 1.420 1_565 S
C653 C654 1.351 . S
C654 H616 0.930 . S
C654 C622 1.423 . S
C654 C653 1.351 . S
C655 O639 1.276 . S
C655 O642 1.235 . S
C656 C657 1.393 . S
C656 C660 1.395 . S
C656 C663 1.492 . S
C657 C656 1.393 . S
C657 C658 1.392 . S
C657 H668 0.930 . S
C658 C657 1.392 . S
C658 C659 1.386 . S
C659 C658 1.386 . S
C659 C661 1.395 . S
C659 H669 0.930 . S
C660 C656 1.395 . S
C660 C661 1.379 . S
C660 H670 0.930 . S
C661 C659 1.395 . S
C661 C660 1.379 . S
C661 H671 0.930 . S
C662 O640 1.264 . S
C662 O641 1.254 . S
C663 Eu599 2.848 . S
C663 O638 1.257 . S
C663 O643 1.249 . S
C663 C656 1.492 . S
H664 C647 0.930 . S
H665 C648 0.930 . S
H666 C649 0.930 . S
H667 C650 0.930 . S
H668 C657 0.930 . S
H669 C659 0.930 . S
H670 C660 0.930 . S
H671 C661 0.930 . S
Eu672 N703 2.657 . S
Eu672 N710 2.609 . S
Eu672 O716 2.558 . S
Eu672 O717 2.612 . S
Eu672 O719 2.339 . S
Eu672 O720 2.563 . S
Eu672 O721 2.419 . S
Eu672 O723 2.380 . S
Eu672 O724 2.432 . S
Eu672 C736 2.848 . S
C673 C676 1.429 . S
C673 C677 1.411 1_556 S
C673 N680 1.377 . S
C674 C676 1.420 . S
C674 C678 1.423 1_556 S
C674 C686 1.392 . S
C675 C677 1.420 . S
C675 C678 1.351 . S
C675 H698 0.931 . S
C676 C673 1.429 . S
C676 C674 1.420 . S
C676 N684 1.362 . S
C677 C673 1.411 1_554 S
C677 C675 1.420 . S
C677 C682 1.395 . S
C678 C674 1.423 1_554 S
C678 C675 1.351 . S
C678 H690 0.930 . S
C679 C681 1.400 1_554 S
C679 C682 1.386 . S
C679 H691 0.930 . S
N680 C673 1.377 . S
N680 C681 1.321 . S
N680 Eu683 2.609 . S
C681 C679 1.400 1_556 S
C681 N680 1.321 . S
C681 H688 0.930 . S
C682 C677 1.395 . S
C682 C679 1.386 . S
C682 H701 0.930 . S
Eu683 N680 2.609 . S
Eu683 N684 2.657 . S
Eu683 O717 2.380 . S
Eu683 O718 2.432 . S
Eu683 O722 2.558 1_556 S
Eu683 O723 2.612 . S
Eu683 O725 2.339 . S
Eu683 O726 2.563 . S
Eu683 O727 2.419 1_556 S
Eu683 C747 2.848 1_556 S
N684 C676 1.362 . S
N684 Eu683 2.657 . S
N684 C685 1.334 . S
C685 N684 1.334 . S
C685 C687 1.413 . S
C685 H692 0.929 . S
C686 C674 1.392 . S
C686 C687 1.367 . S
C686 H694 0.930 . S
C687 C685 1.413 . S
C687 C686 1.367 . S
C687 H689 0.930 . S
H688 C681 0.930 . S
H689 C687 0.930 . S
H690 C678 0.930 . S
H691 C679 0.930 . S
H692 C685 0.929 . S
H693 C707 0.930 . S
H694 C686 0.930 . S
H695 C713 0.930 . S
H696 C704 0.929 . S
H697 C711 0.930 . S
H698 C675 0.931 . S
H699 C705 0.930 . S
H700 C738 0.930 . S
H701 C682 0.930 . S
H702 C737 0.931 . S
N703 Eu672 2.657 . S
N703 C704 1.334 . S
N703 C708 1.362 . S
C704 H696 0.929 . S
C704 N703 1.334 . S
C704 C707 1.413 . S
C705 H699 0.930 . S
C705 C706 1.392 1_455 S
C705 C707 1.367 1_455 S
C706 C705 1.392 1_655 S
C706 C708 1.420 . S
C706 C738 1.423 1_655 S
C707 H693 0.930 . S
C707 C704 1.413 . S
C707 C705 1.367 1_655 S
C708 N703 1.362 . S
C708 C706 1.420 . S
C708 C712 1.429 . S
H709 C714 0.930 . S
N710 Eu672 2.609 . S
N710 C712 1.377 . S
N710 C713 1.321 . S
C711 H697 0.930 . S
C711 C713 1.400 . S
C711 C714 1.386 . S
C712 C708 1.429 . S
C712 N710 1.377 . S
C712 C715 1.411 . S
C713 H695 0.930 . S
C713 N710 1.321 . S
C713 C711 1.400 . S
C714 H709 0.930 . S
C714 C711 1.386 . S
C714 C715 1.395 . S
C715 C712 1.411 . S
C715 C714 1.395 . S
C715 C737 1.420 1_655 S
O716 Eu672 2.558 . S
O716 C736 1.257 . S
O717 Eu672 2.612 . S
O717 Eu683 2.380 . S
O717 C728 1.276 . S
O718 Eu683 2.432 . S
O718 C735 1.264 . S
O719 Eu672 2.339 . S
O719 C735 1.254 . S
O720 Eu672 2.563 . S
O720 C728 1.235 . S
O721 Eu672 2.419 . S
O721 C736 1.249 . S
O722 Eu683 2.558 1_554 S
O722 C747 1.257 . S
O723 Eu672 2.380 . S
O723 Eu683 2.612 . S
O723 C739 1.276 . S
O724 Eu672 2.432 . S
O724 C746 1.264 . S
O725 Eu683 2.339 . S
O725 C746 1.254 . S
O726 Eu683 2.563 . S
O726 C739 1.235 . S
O727 Eu683 2.419 1_554 S
O727 C747 1.249 . S
C728 O717 1.276 . S
C728 O720 1.235 . S
C729 C731 1.393 . S
C729 C733 1.395 . S
C729 C736 1.492 . S
C730 C731 1.392 . S
C730 C732 1.386 . S
C731 C729 1.393 . S
C731 C730 1.392 . S
C731 H748 0.930 . S
C732 C730 1.386 . S
C732 C734 1.395 . S
C732 H749 0.930 . S
C733 C729 1.395 . S
C733 C734 1.379 . S
C733 H750 0.930 . S
C734 C732 1.395 . S
C734 C733 1.379 . S
C734 H751 0.930 . S
C735 O718 1.264 . S
C735 O719 1.254 . S
C736 Eu672 2.848 . S
C736 O716 1.257 . S
C736 O721 1.249 . S
C736 C729 1.492 . S
C737 H702 0.931 . S
C737 C715 1.420 1_455 S
C737 C738 1.351 . S
C738 H700 0.930 . S
C738 C706 1.423 1_455 S
C738 C737 1.351 . S
C739 O723 1.276 . S
C739 O726 1.235 . S
C740 C741 1.393 . S
C740 C744 1.395 . S
C740 C747 1.492 . S
C741 C740 1.393 . S
C741 C742 1.392 . S
C741 H752 0.930 . S
C742 C741 1.392 . S
C742 C743 1.386 . S
C743 C742 1.386 . S
C743 C745 1.395 . S
C743 H753 0.930 . S
C744 C740 1.395 . S
C744 C745 1.379 . S
C744 H754 0.930 . S
C745 C743 1.395 . S
C745 C744 1.379 . S
C745 H755 0.930 . S
C746 O724 1.264 . S
C746 O725 1.254 . S
C747 Eu683 2.848 1_554 S
C747 O722 1.257 . S
C747 O727 1.249 . S
C747 C740 1.492 . S
H748 C731 0.930 . S
H749 C732 0.930 . S
H750 C733 0.930 . S
H751 C734 0.930 . S
H752 C741 0.930 . S
H753 C743 0.930 . S
H754 C744 0.930 . S
H755 C745 0.930 . S
Eu756 N787 2.657 . S
Eu756 N794 2.609 . S
Eu756 O800 2.558 . S
Eu756 O801 2.612 . S
Eu756 O803 2.339 . S
Eu756 O804 2.563 . S
Eu756 O805 2.419 . S
Eu756 O807 2.380 . S
Eu756 O808 2.432 . S
Eu756 C820 2.848 . S
C757 C760 1.429 . S
C757 C761 1.411 . S
C757 N764 1.377 . S
C758 C760 1.420 . S
C758 C762 1.423 . S
C758 C770 1.392 . S
C759 C761 1.420 . S
C759 C762 1.351 . S
C759 H782 0.931 . S
C760 C757 1.429 . S
C760 C758 1.420 . S
C760 N768 1.362 . S
C761 C757 1.411 . S
C761 C759 1.420 . S
C761 C766 1.395 . S
C762 C758 1.423 . S
C762 C759 1.351 . S
C762 H774 0.930 . S
C763 C765 1.400 . S
C763 C766 1.386 . S
C763 H775 0.930 . S
N764 C757 1.377 . S
N764 C765 1.321 . S
N764 Eu767 2.609 . S
C765 C763 1.400 . S
C765 N764 1.321 . S
C765 H772 0.930 . S
C766 C761 1.395 . S
C766 C763 1.386 . S
C766 H785 0.930 . S
Eu767 N764 2.609 . S
Eu767 N768 2.657 . S
Eu767 O801 2.380 . S
Eu767 O802 2.432 . S
Eu767 O806 2.558 . S
Eu767 O807 2.612 . S
Eu767 O809 2.339 . S
Eu767 O810 2.563 . S
Eu767 O811 2.419 . S
Eu767 C831 2.848 . S
N768 C760 1.362 . S
N768 Eu767 2.657 . S
N768 C769 1.334 . S
C769 N768 1.334 . S
C769 C771 1.413 . S
C769 H776 0.929 . S
C770 C758 1.392 . S
C770 C771 1.367 . S
C770 H778 0.930 . S
C771 C769 1.413 . S
C771 C770 1.367 . S
C771 H773 0.930 . S
H772 C765 0.930 . S
H773 C771 0.930 . S
H774 C762 0.930 . S
H775 C763 0.930 . S
H776 C769 0.929 . S
H777 C791 0.930 . S
H778 C770 0.930 . S
H779 C797 0.930 . S
H780 C788 0.929 . S
H781 C795 0.930 1_565 S
H782 C759 0.931 . S
H783 C789 0.930 . S
H784 C822 0.930 . S
H785 C766 0.930 . S
H786 C821 0.931 . S
N787 Eu756 2.657 . S
N787 C788 1.334 . S
N787 C792 1.362 . S
C788 H780 0.929 . S
C788 N787 1.334 . S
C788 C791 1.413 . S
C789 H783 0.930 . S
C789 C790 1.392 . S
C789 C791 1.367 . S
C790 C789 1.392 . S
C790 C792 1.420 . S
C790 C822 1.423 . S
C791 H777 0.930 . S
C791 C788 1.413 . S
C791 C789 1.367 . S
C792 N787 1.362 . S
C792 C790 1.420 . S
C792 C796 1.429 . S
H793 C798 0.930 . S
N794 Eu756 2.609 . S
N794 C796 1.377 . S
N794 C797 1.321 . S
C795 H781 0.930 1_545 S
C795 C797 1.400 . S
C795 C798 1.386 . S
C796 C792 1.429 . S
C796 N794 1.377 . S
C796 C799 1.411 . S
C797 H779 0.930 . S
C797 N794 1.321 . S
C797 C795 1.400 . S
C798 H793 0.930 . S
C798 C795 1.386 . S
C798 C799 1.395 . S
C799 C796 1.411 . S
C799 C798 1.395 . S
C799 C821 1.420 . S
O800 Eu756 2.558 . S
O800 C820 1.257 . S
O801 Eu756 2.612 . S
O801 Eu767 2.380 . S
O801 C812 1.276 . S
O802 Eu767 2.432 . S
O802 C819 1.264 . S
O803 Eu756 2.339 . S
O803 C819 1.254 . S
O804 Eu756 2.563 . S
O804 C812 1.235 . S
O805 Eu756 2.419 . S
O805 C820 1.249 . S
O806 Eu767 2.558 . S
O806 C831 1.257 . S
O807 Eu756 2.380 . S
O807 Eu767 2.612 . S
O807 C823 1.276 . S
O808 Eu756 2.432 . S
O808 C830 1.264 . S
O809 Eu767 2.339 . S
O809 C830 1.254 . S
O810 Eu767 2.563 . S
O810 C823 1.235 . S
O811 Eu767 2.419 . S
O811 C831 1.249 . S
C812 O801 1.276 . S
C812 O804 1.235 . S
C813 C815 1.393 . S
C813 C817 1.395 . S
C813 C820 1.492 . S
C814 C815 1.392 1_554 S
C814 C816 1.386 . S
C815 C813 1.393 . S
C815 C814 1.392 1_556 S
C815 H832 0.930 . S
C816 C814 1.386 . S
C816 C818 1.395 . S
C816 H833 0.930 . S
C817 C813 1.395 . S
C817 C818 1.379 1_556 S
C817 H834 0.930 . S
C818 C816 1.395 . S
C818 C817 1.379 1_554 S
C818 H835 0.930 . S
C819 O802 1.264 . S
C819 O803 1.254 . S
C820 Eu756 2.848 . S
C820 O800 1.257 . S
C820 O805 1.249 . S
C820 C813 1.492 . S
C821 H786 0.931 . S
C821 C799 1.420 . S
C821 C822 1.351 . S
C822 H784 0.930 . S
C822 C790 1.423 . S
C822 C821 1.351 . S
C823 O807 1.276 . S
C823 O810 1.235 . S
C824 C825 1.393 . S
C824 C828 1.395 . S
C824 C831 1.492 . S
C825 C824 1.393 . S
C825 C826 1.392 . S
C825 H836 0.930 . S
C826 C825 1.392 . S
C826 C827 1.386 . S
C827 C826 1.386 . S
C827 C829 1.395 . S
C827 H837 0.930 . S
C828 C824 1.395 . S
C828 C829 1.379 . S
C828 H838 0.930 . S
C829 C827 1.395 . S
C829 C828 1.379 . S
C829 H839 0.930 . S
C830 O808 1.264 . S
C830 O809 1.254 . S
C831 Eu767 2.848 . S
C831 O806 1.257 . S
C831 O811 1.249 . S
C831 C824 1.492 . S
H832 C815 0.930 . S
H833 C816 0.930 . S
H834 C817 0.930 . S
H835 C818 0.930 . S
H836 C825 0.930 . S
H837 C827 0.930 . S
H838 C828 0.930 . S
H839 C829 0.930 . S
Eu840 N871 2.657 . S
Eu840 N878 2.609 . S
Eu840 O884 2.558 . S
Eu840 O885 2.612 . S
Eu840 O887 2.339 . S
Eu840 O888 2.563 . S
Eu840 O889 2.419 . S
Eu840 O891 2.380 . S
Eu840 O892 2.432 . S
Eu840 C904 2.848 . S
C841 C844 1.429 . S
C841 C845 1.411 . S
C841 N848 1.377 . S
C842 C844 1.420 . S
C842 C846 1.423 . S
C842 C854 1.392 . S
C843 C845 1.420 . S
C843 C846 1.351 . S
C843 H866 0.931 . S
C844 C841 1.429 . S
C844 C842 1.420 . S
C844 N852 1.362 . S
C845 C841 1.411 . S
C845 C843 1.420 . S
C845 C850 1.395 . S
C846 C842 1.423 . S
C846 C843 1.351 . S
C846 H858 0.930 . S
C847 C849 1.400 . S
C847 C850 1.386 . S
C847 H859 0.930 . S
N848 C841 1.377 . S
N848 C849 1.321 . S
N848 Eu851 2.609 . S
C849 C847 1.400 . S
C849 N848 1.321 . S
C849 H856 0.930 . S
C850 C845 1.395 . S
C850 C847 1.386 . S
C850 H869 0.930 . S
Eu851 N848 2.609 . S
Eu851 N852 2.657 . S
Eu851 O885 2.380 . S
Eu851 O886 2.432 . S
Eu851 O890 2.558 . S
Eu851 O891 2.612 . S
Eu851 O893 2.339 . S
Eu851 O894 2.563 . S
Eu851 O895 2.419 . S
Eu851 C915 2.848 . S
N852 C844 1.362 . S
N852 Eu851 2.657 . S
N852 C853 1.334 . S
C853 N852 1.334 . S
C853 C855 1.413 . S
C853 H860 0.929 . S
C854 C842 1.392 . S
C854 C855 1.367 . S
C854 H862 0.930 . S
C855 C853 1.413 . S
C855 C854 1.367 . S
C855 H857 0.930 . S
H856 C849 0.930 . S
H857 C855 0.930 . S
H858 C846 0.930 . S
H859 C847 0.930 . S
H860 C853 0.929 . S
H861 C875 0.930 . S
H862 C854 0.930 . S
H863 C881 0.930 . S
H864 C872 0.929 . S
H865 C879 0.930 . S
H866 C843 0.931 . S
H867 C873 0.930 . S
H868 C906 0.930 . S
H869 C850 0.930 . S
H870 C905 0.931 . S
N871 Eu840 2.657 . S
N871 C872 1.334 . S
N871 C876 1.362 . S
C872 H864 0.929 . S
C872 N871 1.334 . S
C872 C875 1.413 . S
C873 H867 0.930 . S
C873 C874 1.392 . S
C873 C875 1.367 . S
C874 C873 1.392 . S
C874 C876 1.420 . S
C874 C906 1.423 . S
C875 H861 0.930 . S
C875 C872 1.413 . S
C875 C873 1.367 . S
C876 N871 1.362 . S
C876 C874 1.420 . S
C876 C880 1.429 . S
H877 C882 0.930 . S
N878 Eu840 2.609 . S
N878 C880 1.377 . S
N878 C881 1.321 . S
C879 H865 0.930 . S
C879 C881 1.400 . S
C879 C882 1.386 . S
C880 C876 1.429 . S
C880 N878 1.377 . S
C880 C883 1.411 . S
C881 H863 0.930 . S
C881 N878 1.321 . S
C881 C879 1.400 . S
C882 H877 0.930 . S
C882 C879 1.386 . S
C882 C883 1.395 . S
C883 C880 1.411 . S
C883 C882 1.395 . S
C883 C905 1.420 . S
O884 Eu840 2.558 . S
O884 C904 1.257 . S
O885 Eu840 2.612 . S
O885 Eu851 2.380 . S
O885 C896 1.276 . S
O886 Eu851 2.432 . S
O886 C903 1.264 . S
O887 Eu840 2.339 . S
O887 C903 1.254 . S
O888 Eu840 2.563 . S
O888 C896 1.235 . S
O889 Eu840 2.419 . S
O889 C904 1.249 . S
O890 Eu851 2.558 . S
O890 C915 1.257 . S
O891 Eu840 2.380 . S
O891 Eu851 2.612 . S
O891 C907 1.276 . S
O892 Eu840 2.432 . S
O892 C914 1.264 . S
O893 Eu851 2.339 . S
O893 C914 1.254 . S
O894 Eu851 2.563 . S
O894 C907 1.235 . S
O895 Eu851 2.419 . S
O895 C915 1.249 . S
C896 O885 1.276 . S
C896 O888 1.235 . S
C897 C899 1.393 . S
C897 C901 1.395 . S
C897 C904 1.492 . S
C898 C899 1.392 1_556 S
C898 C900 1.386 . S
C899 C897 1.393 . S
C899 C898 1.392 1_554 S
C899 H916 0.930 . S
C900 C898 1.386 . S
C900 C902 1.395 . S
C900 H917 0.930 . S
C901 C897 1.395 . S
C901 C902 1.379 1_554 S
C901 H918 0.930 . S
C902 C900 1.395 . S
C902 C901 1.379 1_556 S
C902 H919 0.930 . S
C903 O886 1.264 . S
C903 O887 1.254 . S
C904 Eu840 2.848 . S
C904 O884 1.257 . S
C904 O889 1.249 . S
C904 C897 1.492 . S
C905 H870 0.931 . S
C905 C883 1.420 . S
C905 C906 1.351 . S
C906 H868 0.930 . S
C906 C874 1.423 . S
C906 C905 1.351 . S
C907 O891 1.276 . S
C907 O894 1.235 . S
C908 C909 1.393 . S
C908 C912 1.395 . S
C908 C915 1.492 . S
C909 C908 1.393 . S
C909 C910 1.392 . S
C909 H920 0.930 . S
C910 C909 1.392 . S
C910 C911 1.386 . S
C911 C910 1.386 . S
C911 C913 1.395 . S
C911 H921 0.930 . S
C912 C908 1.395 . S
C912 C913 1.379 . S
C912 H922 0.930 . S
C913 C911 1.395 . S
C913 C912 1.379 . S
C913 H923 0.930 . S
C914 O892 1.264 . S
C914 O893 1.254 . S
C915 Eu851 2.848 . S
C915 O890 1.257 . S
C915 O895 1.249 . S
C915 C908 1.492 . S
H916 C899 0.930 . S
H917 C900 0.930 . S
H918 C901 0.930 . S
H919 C902 0.930 . S
H920 C909 0.930 . S
H921 C911 0.930 . S
H922 C912 0.930 . S
H923 C913 0.930 . S
Eu924 N955 2.657 . S
Eu924 N962 2.609 . S
Eu924 O968 2.558 1_554 S
Eu924 O969 2.612 . S
Eu924 O971 2.339 . S
Eu924 O972 2.563 . S
Eu924 O973 2.419 1_554 S
Eu924 O975 2.380 . S
Eu924 O976 2.432 . S
Eu924 C988 2.848 1_554 S
C925 C928 1.429 . S
C925 C929 1.411 . S
C925 N932 1.377 . S
C926 C928 1.420 1_545 S
C926 C930 1.423 . S
C926 C938 1.392 . S
C927 C929 1.420 1_545 S
C927 C930 1.351 . S
C927 H950 0.931 . S
C928 C925 1.429 . S
C928 C926 1.420 1_565 S
C928 N936 1.362 . S
C929 C925 1.411 . S
C929 C927 1.420 1_565 S
C929 C934 1.395 . S
C930 C926 1.423 . S
C930 C927 1.351 . S
C930 H942 0.930 . S
C931 C933 1.400 . S
C931 C934 1.386 . S
C931 H943 0.930 . S
N932 C925 1.377 . S
N932 C933 1.321 . S
N932 Eu935 2.609 . S
C933 C931 1.400 . S
C933 N932 1.321 . S
C933 H940 0.930 . S
C934 C929 1.395 . S
C934 C931 1.386 . S
C934 H953 0.917 1_565 S
Eu935 N932 2.609 . S
Eu935 N936 2.657 . S
Eu935 O969 2.380 . S
Eu935 O970 2.432 . S
Eu935 O974 2.558 . S
Eu935 O975 2.612 . S
Eu935 O977 2.339 . S
Eu935 O978 2.563 . S
Eu935 O979 2.419 . S
Eu935 C999 2.848 . S
N936 C928 1.362 . S
N936 Eu935 2.657 . S
N936 C937 1.334 . S
C937 N936 1.334 . S
C937 C939 1.413 . S
C937 H944 0.929 . S
C938 C926 1.392 . S
C938 C939 1.367 1_545 S
C938 H946 0.930 . S
C939 C937 1.413 . S
C939 C938 1.367 1_565 S
C939 H941 0.932 . S
H940 C933 0.930 . S
H941 C939 0.932 . S
H942 C930 0.930 . S
H943 C931 0.930 . S
H944 C937 0.929 . S
H945 C959 0.930 . S
H946 C938 0.930 . S
H947 C965 0.930 . S
H948 C956 0.929 . S
H949 C963 0.930 . S
H950 C927 0.931 . S
H951 C957 0.930 . S
H952 C990 0.930 . S
H953 C934 0.917 1_545 S
H954 C989 0.931 . S
N955 Eu924 2.657 . S
N955 C956 1.334 . S
N955 C960 1.362 . S
C956 H948 0.929 . S
C956 N955 1.334 . S
C956 C959 1.413 . S
C957 H951 0.930 . S
C957 C958 1.392 . S
C957 C959 1.367 . S
C958 C957 1.392 . S
C958 C960 1.420 . S
C958 C990 1.423 1_554 S
C959 H945 0.930 . S
C959 C956 1.413 . S
C959 C957 1.367 . S
C960 N955 1.362 . S
C960 C958 1.420 . S
C960 C964 1.429 . S
H961 C966 0.930 . S
N962 Eu924 2.609 . S
N962 C964 1.377 . S
N962 C965 1.321 . S
C963 H949 0.930 . S
C963 C965 1.400 1_556 S
C963 C966 1.386 . S
C964 C960 1.429 . S
C964 N962 1.377 . S
C964 C967 1.411 1_554 S
C965 H947 0.930 . S
C965 N962 1.321 . S
C965 C963 1.400 1_554 S
C966 H961 0.930 . S
C966 C963 1.386 . S
C966 C967 1.395 . S
C967 C964 1.411 1_556 S
C967 C966 1.395 . S
C967 C989 1.420 . S
O968 Eu924 2.558 1_556 S
O968 C988 1.257 . S
O969 Eu924 2.612 . S
O969 Eu935 2.380 . S
O969 C980 1.276 . S
O970 Eu935 2.432 . S
O970 C987 1.264 . S
O971 Eu924 2.339 . S
O971 C987 1.254 . S
O972 Eu924 2.563 . S
O972 C980 1.235 . S
O973 Eu924 2.419 1_556 S
O973 C988 1.249 . S
O974 Eu935 2.558 . S
O974 C999 1.257 . S
O975 Eu924 2.380 . S
O975 Eu935 2.612 . S
O975 C991 1.276 . S
O976 Eu924 2.432 . S
O976 C998 1.264 . S
O977 Eu935 2.339 . S
O977 C998 1.254 . S
O978 Eu935 2.563 . S
O978 C991 1.235 . S
O979 Eu935 2.419 . S
O979 C999 1.249 . S
C980 O969 1.276 . S
C980 O972 1.235 . S
C981 C983 1.393 . S
C981 C985 1.395 . S
C981 C988 1.492 . S
C982 C983 1.392 . S
C982 C984 1.386 . S
C983 C981 1.393 . S
C983 C982 1.392 . S
C983 H1000 0.930 . S
C984 C982 1.386 . S
C984 C986 1.395 . S
C984 H1001 0.930 . S
C985 C981 1.395 . S
C985 C986 1.379 . S
C985 H1002 0.930 . S
C986 C984 1.395 . S
C986 C985 1.379 . S
C986 H1003 0.930 . S
C987 O970 1.264 . S
C987 O971 1.254 . S
C988 Eu924 2.848 1_556 S
C988 O968 1.257 . S
C988 O973 1.249 . S
C988 C981 1.492 . S
C989 H954 0.931 . S
C989 C967 1.420 . S
C989 C990 1.351 . S
C990 H952 0.930 . S
C990 C958 1.423 1_556 S
C990 C989 1.351 . S
C991 O975 1.276 . S
C991 O978 1.235 . S
C992 C993 1.393 . S
C992 C996 1.395 . S
C992 C999 1.492 . S
C993 C992 1.393 . S
C993 C994 1.392 . S
C993 H1004 0.930 . S
C994 C993 1.392 . S
C994 C995 1.386 . S
C995 C994 1.386 . S
C995 C997 1.395 . S
C995 H1005 0.930 . S
C996 C992 1.395 . S
C996 C997 1.379 . S
C996 H1006 0.930 . S
C997 C995 1.395 . S
C997 C996 1.379 . S
C997 H1007 0.930 . S
C998 O976 1.264 . S
C998 O977 1.254 . S
C999 Eu935 2.848 . S
C999 O974 1.257 . S
C999 O979 1.249 . S
C999 C992 1.492 . S
H1000 C983 0.930 . S
H1001 C984 0.930 . S
H1002 C985 0.930 . S
H1003 C986 0.930 . S
H1004 C993 0.930 . S
H1005 C995 0.930 . S
H1006 C996 0.930 . S
H1007 C997 0.930 . S
Eu1008 N1039 2.657 . S
Eu1008 N1046 2.609 . S
Eu1008 O1052 2.558 . S
Eu1008 O1053 2.612 . S
Eu1008 O1055 2.339 . S
Eu1008 O1056 2.563 . S
Eu1008 O1057 2.419 . S
Eu1008 O1059 2.380 . S
Eu1008 O1060 2.432 . S
Eu1008 C1072 2.848 . S
C1009 C1012 1.429 . S
C1009 C1013 1.411 1_554 S
C1009 N1016 1.377 . S
C1010 C1012 1.421 . S
C1010 C1014 1.421 1_554 S
C1010 C1022 1.393 . S
C1011 C1013 1.420 . S
C1011 C1014 1.351 . S
C1011 H1034 0.931 . S
C1012 C1009 1.429 . S
C1012 C1010 1.421 . S
C1012 N1020 1.362 . S
C1013 C1009 1.411 1_556 S
C1013 C1011 1.420 . S
C1013 C1018 1.395 . S
C1014 C1010 1.421 1_556 S
C1014 C1011 1.351 . S
C1014 H1026 0.930 . S
C1015 C1017 1.400 1_556 S
C1015 C1018 1.386 . S
C1015 H1027 0.930 . S
N1016 C1009 1.377 . S
N1016 C1017 1.321 . S
N1016 Eu1019 2.609 . S
C1017 C1015 1.400 1_554 S
C1017 N1016 1.321 . S
C1017 H1024 0.930 . S
C1018 C1013 1.395 . S
C1018 C1015 1.386 . S
C1018 H1037 0.930 . S
Eu1019 N1016 2.609 . S
Eu1019 N1020 2.657 . S
Eu1019 O1053 2.380 . S
Eu1019 O1054 2.432 . S
Eu1019 O1058 2.558 1_554 S
Eu1019 O1059 2.612 . S
Eu1019 O1061 2.339 . S
Eu1019 O1062 2.563 . S
Eu1019 O1063 2.419 1_554 S
Eu1019 C1083 2.848 1_554 S
N1020 C1012 1.362 . S
N1020 Eu1019 2.657 . S
N1020 C1021 1.334 . S
C1021 N1020 1.334 . S
C1021 C1023 1.413 . S
C1021 H1028 0.929 . S
C1022 C1010 1.393 . S
C1022 C1023 1.367 . S
C1022 H1030 0.930 . S
C1023 C1021 1.413 . S
C1023 C1022 1.367 . S
C1023 H1025 0.930 . S
H1024 C1017 0.930 . S
H1025 C1023 0.930 . S
H1026 C1014 0.930 . S
H1027 C1015 0.930 . S
H1028 C1021 0.929 . S
H1029 C1043 0.930 . S
H1030 C1022 0.930 . S
H1031 C1049 0.930 . S
H1032 C1040 0.929 . S
H1033 C1047 0.930 . S
H1034 C1011 0.931 . S
H1035 C1041 0.930 . S
H1036 C1074 0.930 . S
H1037 C1018 0.930 . S
H1038 C1073 0.931 . S
N1039 Eu1008 2.657 . S
N1039 C1040 1.334 . S
N1039 C1044 1.362 . S
C1040 H1032 0.929 . S
C1040 N1039 1.334 . S
C1040 C1043 1.413 . S
C1041 H1035 0.930 . S
C1041 C1042 1.392 1_455 S
C1041 C1043 1.367 1_455 S
C1042 C1041 1.392 1_655 S
C1042 C1044 1.420 . S
C1042 C1074 1.423 1_655 S
C1043 H1029 0.930 . S
C1043 C1040 1.413 . S
C1043 C1041 1.367 1_655 S
C1044 N1039 1.362 . S
C1044 C1042 1.420 . S
C1044 C1048 1.429 . S
H1045 C1050 0.930 . S
N1046 Eu1008 2.609 . S
N1046 C1048 1.377 . S
N1046 C1049 1.321 . S
C1047 H1033 0.930 . S
C1047 C1049 1.400 . S
C1047 C1050 1.386 . S
C1048 C1044 1.429 . S
C1048 N1046 1.377 . S
C1048 C1051 1.411 . S
C1049 H1031 0.930 . S
C1049 N1046 1.321 . S
C1049 C1047 1.400 . S
C1050 H1045 0.930 . S
C1050 C1047 1.386 . S
C1050 C1051 1.395 . S
C1051 C1048 1.411 . S
C1051 C1050 1.395 . S
C1051 C1073 1.420 1_655 S
O1052 Eu1008 2.558 . S
O1052 C1072 1.257 . S
O1053 Eu1008 2.612 . S
O1053 Eu1019 2.380 . S
O1053 C1064 1.276 . S
O1054 Eu1019 2.432 . S
O1054 C1071 1.264 . S
O1055 Eu1008 2.339 . S
O1055 C1071 1.254 . S
O1056 Eu1008 2.563 . S
O1056 C1064 1.235 . S
O1057 Eu1008 2.419 . S
O1057 C1072 1.249 . S
O1058 Eu1019 2.558 1_556 S
O1058 C1083 1.257 . S
O1059 Eu1008 2.380 . S
O1059 Eu1019 2.612 . S
O1059 C1075 1.276 . S
O1060 Eu1008 2.432 . S
O1060 C1082 1.264 . S
O1061 Eu1019 2.339 . S
O1061 C1082 1.254 . S
O1062 Eu1019 2.563 . S
O1062 C1075 1.235 . S
O1063 Eu1019 2.419 1_556 S
O1063 C1083 1.249 . S
C1064 O1053 1.276 . S
C1064 O1056 1.235 . S
C1065 C1067 1.393 . S
C1065 C1069 1.395 . S
C1065 C1072 1.492 . S
C1066 C1067 1.392 . S
C1066 C1068 1.386 . S
C1067 C1065 1.393 . S
C1067 C1066 1.392 . S
C1067 H1084 0.930 . S
C1068 C1066 1.386 . S
C1068 C1070 1.395 . S
C1068 H1085 0.930 . S
C1069 C1065 1.395 . S
C1069 C1070 1.379 . S
C1069 H1086 0.930 . S
C1070 C1068 1.395 . S
C1070 C1069 1.379 . S
C1070 H1087 0.930 . S
C1071 O1054 1.264 . S
C1071 O1055 1.254 . S
C1072 Eu1008 2.848 . S
C1072 O1052 1.257 . S
C1072 O1057 1.249 . S
C1072 C1065 1.492 . S
C1073 H1038 0.931 . S
C1073 C1051 1.420 1_455 S
C1073 C1074 1.351 . S
C1074 H1036 0.930 . S
C1074 C1042 1.423 1_455 S
C1074 C1073 1.351 . S
C1075 O1059 1.276 . S
C1075 O1062 1.235 . S
C1076 C1077 1.393 . S
C1076 C1080 1.395 . S
C1076 C1083 1.492 . S
C1077 C1076 1.393 . S
C1077 C1078 1.392 . S
C1077 H1088 0.930 . S
C1078 C1077 1.392 . S
C1078 C1079 1.386 . S
C1079 C1078 1.386 . S
C1079 C1081 1.395 . S
C1079 H1089 0.930 . S
C1080 C1076 1.395 . S
C1080 C1081 1.379 . S
C1080 H1090 0.930 . S
C1081 C1079 1.395 . S
C1081 C1080 1.379 . S
C1081 H1091 0.930 . S
C1082 O1060 1.264 . S
C1082 O1061 1.254 . S
C1083 Eu1019 2.848 1_556 S
C1083 O1058 1.257 . S
C1083 O1063 1.249 . S
C1083 C1076 1.492 . S
H1084 C1067 0.930 . S
H1085 C1068 0.930 . S
H1086 C1069 0.930 . S
H1087 C1070 0.930 . S
H1088 C1077 0.930 . S
H1089 C1079 0.930 . S
H1090 C1080 0.930 . S
H1091 C1081 0.930 . S
Eu1092 N1123 2.657 . S
Eu1092 N1130 2.609 . S
Eu1092 O1136 2.558 . S
Eu1092 O1137 2.612 . S
Eu1092 O1139 2.339 . S
Eu1092 O1140 2.563 . S
Eu1092 O1141 2.419 . S
Eu1092 O1143 2.380 . S
Eu1092 O1144 2.432 . S
Eu1092 C1156 2.848 . S
C1093 C1096 1.429 1_554 S
C1093 C1097 1.411 . S
C1093 N1100 1.377 1_554 S
C1094 C1096 1.420 1_554 S
C1094 C1098 1.423 . S
C1094 C1106 1.392 1_554 S
C1095 C1097 1.420 . S
C1095 C1098 1.351 . S
C1095 H1118 0.931 . S
C1096 C1093 1.429 1_556 S
C1096 C1094 1.420 1_556 S
C1096 N1104 1.362 . S
C1097 C1093 1.411 . S
C1097 C1095 1.420 . S
C1097 C1102 1.395 . S
C1098 C1094 1.423 . S
C1098 C1095 1.351 . S
C1098 H1110 0.930 . S
C1099 C1101 1.400 1_554 S
C1099 C1102 1.386 . S
C1099 H1111 0.930 . S
N1100 C1093 1.377 1_556 S
N1100 C1101 1.321 . S
N1100 Eu1103 2.609 . S
C1101 C1099 1.400 1_556 S
C1101 N1100 1.321 . S
C1101 H1108 0.930 . S
C1102 C1097 1.395 . S
C1102 C1099 1.386 . S
C1102 H1121 0.930 . S
Eu1103 N1100 2.609 . S
Eu1103 N1104 2.657 . S
Eu1103 O1137 2.380 . S
Eu1103 O1138 2.432 . S
Eu1103 O1142 2.558 1_556 S
Eu1103 O1143 2.612 . S
Eu1103 O1145 2.339 . S
Eu1103 O1146 2.563 . S
Eu1103 O1147 2.419 1_556 S
Eu1103 C1167 2.848 1_556 S
N1104 C1096 1.362 . S
N1104 Eu1103 2.657 . S
N1104 C1105 1.334 . S
C1105 N1104 1.334 . S
C1105 C1107 1.413 . S
C1105 H1112 0.929 . S
C1106 C1094 1.392 1_556 S
C1106 C1107 1.367 . S
C1106 H1114 0.930 . S
C1107 C1105 1.413 . S
C1107 C1106 1.367 . S
C1107 H1109 0.930 . S
H1108 C1101 0.930 . S
H1109 C1107 0.930 . S
H1110 C1098 0.930 . S
H1111 C1099 0.930 . S
H1112 C1105 0.929 . S
H1113 C1127 0.930 . S
H1114 C1106 0.930 . S
H1115 C1133 0.930 . S
H1116 C1124 0.929 . S
H1117 C1131 0.930 1_565 S
H1118 C1095 0.931 . S
H1119 C1125 0.930 . S
H1120 C1158 0.930 . S
H1121 C1102 0.930 . S
H1122 C1157 0.931 . S
N1123 Eu1092 2.657 . S
N1123 C1124 1.334 . S
N1123 C1128 1.362 . S
C1124 H1116 0.929 . S
C1124 N1123 1.334 . S
C1124 C1127 1.413 . S
C1125 H1119 0.930 . S
C1125 C1126 1.392 1_655 S
C1125 C1127 1.367 1_655 S
C1126 C1125 1.392 1_455 S
C1126 C1128 1.420 . S
C1126 C1158 1.423 1_455 S
C1127 H1113 0.930 . S
C1127 C1124 1.413 . S
C1127 C1125 1.367 1_455 S
C1128 N1123 1.362 . S
C1128 C1126 1.420 . S
C1128 C1132 1.429 . S
H1129 C1134 0.930 1_565 S
N1130 Eu1092 2.609 . S
N1130 C1132 1.377 . S
N1130 C1133 1.321 . S
C1131 H1117 0.930 1_545 S
C1131 C1133 1.400 . S
C1131 C1134 1.386 . S
C1132 C1128 1.429 . S
C1132 N1130 1.377 . S
C1132 C1135 1.411 . S
C1133 H1115 0.930 . S
C1133 N1130 1.321 . S
C1133 C1131 1.400 . S
C1134 H1129 0.930 1_545 S
C1134 C1131 1.386 . S
C1134 C1135 1.395 . S
C1135 C1132 1.411 . S
C1135 C1134 1.395 . S
C1135 C1157 1.420 1_455 S
O1136 Eu1092 2.558 . S
O1136 C1156 1.257 . S
O1137 Eu1092 2.612 . S
O1137 Eu1103 2.380 . S
O1137 C1148 1.276 . S
O1138 Eu1103 2.432 . S
O1138 C1155 1.264 . S
O1139 Eu1092 2.339 . S
O1139 C1155 1.254 . S
O1140 Eu1092 2.563 . S
O1140 C1148 1.235 . S
O1141 Eu1092 2.419 . S
O1141 C1156 1.249 . S
O1142 Eu1103 2.558 1_554 S
O1142 C1167 1.257 . S
O1143 Eu1092 2.380 . S
O1143 Eu1103 2.612 . S
O1143 C1159 1.276 . S
O1144 Eu1092 2.432 . S
O1144 C1166 1.264 . S
O1145 Eu1103 2.339 . S
O1145 C1166 1.254 . S
O1146 Eu1103 2.563 . S
O1146 C1159 1.235 . S
O1147 Eu1103 2.419 1_554 S
O1147 C1167 1.249 . S
C1148 O1137 1.276 . S
C1148 O1140 1.235 . S
C1149 C1151 1.393 . S
C1149 C1153 1.395 . S
C1149 C1156 1.492 . S
C1150 C1151 1.392 . S
C1150 C1152 1.386 . S
C1151 C1149 1.393 . S
C1151 C1150 1.392 . S
C1151 H1168 0.930 . S
C1152 C1150 1.386 . S
C1152 C1154 1.395 . S
C1152 H1169 0.930 . S
C1153 C1149 1.395 . S
C1153 C1154 1.379 . S
C1153 H1170 0.930 . S
C1154 C1152 1.395 . S
C1154 C1153 1.379 . S
C1154 H1171 0.930 . S
C1155 O1138 1.264 . S
C1155 O1139 1.254 . S
C1156 Eu1092 2.848 . S
C1156 O1136 1.257 . S
C1156 O1141 1.249 . S
C1156 C1149 1.492 . S
C1157 H1122 0.931 . S
C1157 C1135 1.420 1_655 S
C1157 C1158 1.351 . S
C1158 H1120 0.930 . S
C1158 C1126 1.423 1_655 S
C1158 C1157 1.351 . S
C1159 O1143 1.276 . S
C1159 O1146 1.235 . S
C1160 C1161 1.393 . S
C1160 C1164 1.395 . S
C1160 C1167 1.492 . S
C1161 C1160 1.393 . S
C1161 C1162 1.392 . S
C1161 H1172 0.930 . S
C1162 C1161 1.392 . S
C1162 C1163 1.386 . S
C1163 C1162 1.386 . S
C1163 C1165 1.395 . S
C1163 H1173 0.930 . S
C1164 C1160 1.395 . S
C1164 C1165 1.379 . S
C1164 H1174 0.930 . S
C1165 C1163 1.395 . S
C1165 C1164 1.379 . S
C1165 H1175 0.930 . S
C1166 O1144 1.264 . S
C1166 O1145 1.254 . S
C1167 Eu1103 2.848 1_554 S
C1167 O1142 1.257 . S
C1167 O1147 1.249 . S
C1167 C1160 1.492 . S
H1168 C1151 0.930 . S
H1169 C1152 0.930 . S
H1170 C1153 0.930 . S
H1171 C1154 0.930 . S
H1172 C1161 0.930 . S
H1173 C1163 0.930 . S
H1174 C1164 0.930 . S
H1175 C1165 0.930 . S
Eu1176 N1207 2.657 . S
Eu1176 N1214 2.609 . S
Eu1176 O1220 2.558 . S
Eu1176 O1221 2.612 . S
Eu1176 O1223 2.339 . S
Eu1176 O1224 2.563 . S
Eu1176 O1225 2.419 . S
Eu1176 O1227 2.380 . S
Eu1176 O1228 2.432 . S
Eu1176 C1240 2.848 . S
C1177 C1180 1.429 . S
C1177 C1181 1.411 . S
C1177 N1184 1.377 . S
C1178 C1180 1.420 . S
C1178 C1182 1.423 . S
C1178 C1190 1.392 . S
C1179 C1181 1.420 . S
C1179 C1182 1.351 . S
C1179 H1202 0.931 . S
C1180 C1177 1.429 . S
C1180 C1178 1.420 . S
C1180 N1188 1.362 . S
C1181 C1177 1.411 . S
C1181 C1179 1.420 . S
C1181 C1186 1.395 . S
C1182 C1178 1.423 . S
C1182 C1179 1.351 . S
C1182 H1194 0.930 . S
C1183 C1185 1.400 . S
C1183 C1186 1.386 . S
C1183 H1195 0.930 . S
N1184 C1177 1.377 . S
N1184 C1185 1.321 . S
N1184 Eu1187 2.609 . S
C1185 C1183 1.400 . S
C1185 N1184 1.321 . S
C1185 H1192 0.930 . S
C1186 C1181 1.395 . S
C1186 C1183 1.386 . S
C1186 H1205 0.930 . S
Eu1187 N1184 2.609 . S
Eu1187 N1188 2.657 . S
Eu1187 O1221 2.380 . S
Eu1187 O1222 2.432 . S
Eu1187 O1226 2.558 . S
Eu1187 O1227 2.612 . S
Eu1187 O1229 2.339 . S
Eu1187 O1230 2.563 . S
Eu1187 O1231 2.419 . S
Eu1187 C1251 2.848 . S
N1188 C1180 1.362 . S
N1188 Eu1187 2.657 . S
N1188 C1189 1.334 . S
C1189 N1188 1.334 . S
C1189 C1191 1.413 . S
C1189 H1196 0.929 . S
C1190 C1178 1.392 . S
C1190 C1191 1.367 . S
C1190 H1198 0.930 . S
C1191 C1189 1.413 . S
C1191 C1190 1.367 . S
C1191 H1193 0.930 . S
H1192 C1185 0.930 . S
H1193 C1191 0.930 . S
H1194 C1182 0.930 . S
H1195 C1183 0.930 . S
H1196 C1189 0.929 . S
H1197 C1211 0.930 . S
H1198 C1190 0.930 . S
H1199 C1217 0.930 . S
H1200 C1208 0.929 . S
H1201 C1215 0.930 . S
H1202 C1179 0.931 . S
H1203 C1209 0.930 . S
H1204 C1242 0.930 . S
H1205 C1186 0.930 . S
H1206 C1241 0.931 . S
N1207 Eu1176 2.657 . S
N1207 C1208 1.334 . S
N1207 C1212 1.362 . S
C1208 H1200 0.929 . S
C1208 N1207 1.334 . S
C1208 C1211 1.413 . S
C1209 H1203 0.930 . S
C1209 C1210 1.392 . S
C1209 C1211 1.367 . S
C1210 C1209 1.392 . S
C1210 C1212 1.420 . S
C1210 C1242 1.423 . S
C1211 H1197 0.930 . S
C1211 C1208 1.413 . S
C1211 C1209 1.367 . S
C1212 N1207 1.362 . S
C1212 C1210 1.420 . S
C1212 C1216 1.429 . S
H1213 C1218 0.930 . S
N1214 Eu1176 2.609 . S
N1214 C1216 1.377 . S
N1214 C1217 1.321 . S
C1215 H1201 0.930 . S
C1215 C1217 1.400 . S
C1215 C1218 1.386 . S
C1216 C1212 1.429 . S
C1216 N1214 1.377 . S
C1216 C1219 1.411 . S
C1217 H1199 0.930 . S
C1217 N1214 1.321 . S
C1217 C1215 1.400 . S
C1218 H1213 0.930 . S
C1218 C1215 1.386 . S
C1218 C1219 1.395 . S
C1219 C1216 1.411 . S
C1219 C1218 1.395 . S
C1219 C1241 1.420 . S
O1220 Eu1176 2.558 . S
O1220 C1240 1.257 . S
O1221 Eu1176 2.612 . S
O1221 Eu1187 2.380 . S
O1221 C1232 1.276 . S
O1222 Eu1187 2.432 . S
O1222 C1239 1.264 . S
O1223 Eu1176 2.339 . S
O1223 C1239 1.254 . S
O1224 Eu1176 2.563 . S
O1224 C1232 1.235 . S
O1225 Eu1176 2.419 . S
O1225 C1240 1.249 . S
O1226 Eu1187 2.558 . S
O1226 C1251 1.257 . S
O1227 Eu1176 2.380 . S
O1227 Eu1187 2.612 . S
O1227 C1243 1.276 . S
O1228 Eu1176 2.432 . S
O1228 C1250 1.264 . S
O1229 Eu1187 2.339 . S
O1229 C1250 1.254 . S
O1230 Eu1187 2.563 . S
O1230 C1243 1.235 . S
O1231 Eu1187 2.419 . S
O1231 C1251 1.249 . S
C1232 O1221 1.276 . S
C1232 O1224 1.235 . S
C1233 C1235 1.393 . S
C1233 C1237 1.395 . S
C1233 C1240 1.492 . S
C1234 C1235 1.392 . S
C1234 C1236 1.386 . S
C1235 C1233 1.393 . S
C1235 C1234 1.392 . S
C1235 H1252 0.930 . S
C1236 C1234 1.386 . S
C1236 C1238 1.395 . S
C1236 H1253 0.930 . S
C1237 C1233 1.395 . S
C1237 C1238 1.379 . S
C1237 H1254 0.930 . S
C1238 C1236 1.395 . S
C1238 C1237 1.379 . S
C1238 H1255 0.930 . S
C1239 O1222 1.264 . S
C1239 O1223 1.254 . S
C1240 Eu1176 2.848 . S
C1240 O1220 1.257 . S
C1240 O1225 1.249 . S
C1240 C1233 1.492 . S
C1241 H1206 0.931 . S
C1241 C1219 1.420 . S
C1241 C1242 1.351 . S
C1242 H1204 0.930 . S
C1242 C1210 1.423 . S
C1242 C1241 1.351 . S
C1243 O1227 1.276 . S
C1243 O1230 1.235 . S
C1244 C1245 1.393 . S
C1244 C1248 1.395 . S
C1244 C1251 1.492 . S
C1245 C1244 1.393 . S
C1245 C1246 1.392 1_556 S
C1245 H1256 0.930 . S
C1246 C1245 1.392 1_554 S
C1246 C1247 1.386 . S
C1247 C1246 1.386 . S
C1247 C1249 1.395 . S
C1247 H1257 0.930 . S
C1248 C1244 1.395 . S
C1248 C1249 1.379 1_556 S
C1248 H1258 0.930 . S
C1249 C1247 1.395 . S
C1249 C1248 1.379 1_554 S
C1249 H1259 0.930 . S
C1250 O1228 1.264 . S
C1250 O1229 1.254 . S
C1251 Eu1187 2.848 . S
C1251 O1226 1.257 . S
C1251 O1231 1.249 . S
C1251 C1244 1.492 . S
H1252 C1235 0.930 . S
H1253 C1236 0.930 . S
H1254 C1237 0.930 . S
H1255 C1238 0.930 . S
H1256 C1245 0.930 . S
H1257 C1247 0.930 . S
H1258 C1248 0.930 . S
H1259 C1249 0.930 . S
Eu1260 N1291 2.657 . S
Eu1260 N1298 2.609 . S
Eu1260 O1304 2.558 . S
Eu1260 O1305 2.612 . S
Eu1260 O1307 2.339 . S
Eu1260 O1308 2.563 . S
Eu1260 O1309 2.419 . S
Eu1260 O1311 2.380 . S
Eu1260 O1312 2.432 . S
Eu1260 C1324 2.848 . S
C1261 C1264 1.429 . S
C1261 C1265 1.411 . S
C1261 N1268 1.377 . S
C1262 C1264 1.420 1_545 S
C1262 C1266 1.423 . S
C1262 C1274 1.392 . S
C1263 C1265 1.420 1_545 S
C1263 C1266 1.351 . S
C1263 H1286 0.931 . S
C1264 C1261 1.429 . S
C1264 C1262 1.420 1_565 S
C1264 N1272 1.362 . S
C1265 C1261 1.411 . S
C1265 C1263 1.420 1_565 S
C1265 C1270 1.395 . S
C1266 C1262 1.423 . S
C1266 C1263 1.351 . S
C1266 H1278 0.930 . S
C1267 C1269 1.400 . S
C1267 C1270 1.386 . S
C1267 H1279 0.930 . S
N1268 C1261 1.377 . S
N1268 C1269 1.321 . S
N1268 Eu1271 2.609 . S
C1269 C1267 1.400 . S
C1269 N1268 1.321 . S
C1269 H1276 0.930 . S
C1270 C1265 1.395 . S
C1270 C1267 1.386 . S
C1270 H1289 0.948 . S
Eu1271 N1268 2.609 . S
Eu1271 N1272 2.657 . S
Eu1271 O1305 2.380 . S
Eu1271 O1306 2.432 . S
Eu1271 O1310 2.558 . S
Eu1271 O1311 2.612 . S
Eu1271 O1313 2.339 . S
Eu1271 O1314 2.563 . S
Eu1271 O1315 2.419 . S
Eu1271 C1335 2.848 . S
N1272 C1264 1.362 . S
N1272 Eu1271 2.657 . S
N1272 C1273 1.334 . S
C1273 N1272 1.334 . S
C1273 C1275 1.413 . S
C1273 H1280 0.929 . S
C1274 C1262 1.392 . S
C1274 C1275 1.367 1_545 S
C1274 H1282 0.930 . S
C1275 C1273 1.413 . S
C1275 C1274 1.367 1_565 S
C1275 H1277 0.930 . S
H1276 C1269 0.930 . S
H1277 C1275 0.930 . S
H1278 C1266 0.930 . S
H1279 C1267 0.930 . S
H1280 C1273 0.929 . S
H1281 C1295 0.930 . S
H1282 C1274 0.930 . S
H1283 C1301 0.930 . S
H1284 C1292 0.929 . S
H1285 C1299 0.930 . S
H1286 C1263 0.931 . S
H1287 C1293 0.930 . S
H1288 C1326 0.930 . S
H1289 C1270 0.948 . S
H1290 C1325 0.931 . S
N1291 Eu1260 2.657 . S
N1291 C1292 1.334 . S
N1291 C1296 1.362 . S
C1292 H1284 0.929 . S
C1292 N1291 1.334 . S
C1292 C1295 1.413 . S
C1293 H1287 0.930 . S
C1293 C1294 1.392 . S
C1293 C1295 1.367 . S
C1294 C1293 1.392 . S
C1294 C1296 1.420 . S
C1294 C1326 1.423 . S
C1295 H1281 0.930 . S
C1295 C1292 1.413 . S
C1295 C1293 1.367 . S
C1296 N1291 1.362 . S
C1296 C1294 1.420 . S
C1296 C1300 1.429 . S
H1297 C1302 0.930 . S
N1298 Eu1260 2.609 . S
N1298 C1300 1.377 . S
N1298 C1301 1.321 . S
C1299 H1285 0.930 . S
C1299 C1301 1.400 . S
C1299 C1302 1.386 . S
C1300 C1296 1.429 . S
C1300 N1298 1.377 . S
C1300 C1303 1.411 . S
C1301 H1283 0.930 . S
C1301 N1298 1.321 . S
C1301 C1299 1.400 . S
C1302 H1297 0.930 . S
C1302 C1299 1.386 . S
C1302 C1303 1.395 . S
C1303 C1300 1.411 . S
C1303 C1302 1.395 . S
C1303 C1325 1.420 . S
O1304 Eu1260 2.558 . S
O1304 C1324 1.257 . S
O1305 Eu1260 2.612 . S
O1305 Eu1271 2.380 . S
O1305 C1316 1.276 . S
O1306 Eu1271 2.432 . S
O1306 C1323 1.264 . S
O1307 Eu1260 2.339 . S
O1307 C1323 1.254 . S
O1308 Eu1260 2.563 . S
O1308 C1316 1.235 . S
O1309 Eu1260 2.419 . S
O1309 C1324 1.249 . S
O1310 Eu1271 2.558 . S
O1310 C1335 1.257 . S
O1311 Eu1260 2.380 . S
O1311 Eu1271 2.612 . S
O1311 C1327 1.276 . S
O1312 Eu1260 2.432 . S
O1312 C1334 1.264 . S
O1313 Eu1271 2.339 . S
O1313 C1334 1.254 . S
O1314 Eu1271 2.563 . S
O1314 C1327 1.235 . S
O1315 Eu1271 2.419 . S
O1315 C1335 1.249 . S
C1316 O1305 1.276 . S
C1316 O1308 1.235 . S
C1317 C1319 1.393 . S
C1317 C1321 1.395 . S
C1317 C1324 1.492 . S
C1318 C1319 1.392 . S
C1318 C1320 1.386 . S
C1319 C1317 1.393 . S
C1319 C1318 1.392 . S
C1319 H1336 0.930 . S
C1320 C1318 1.386 . S
C1320 C1322 1.395 . S
C1320 H1337 0.930 . S
C1321 C1317 1.395 . S
C1321 C1322 1.379 . S
C1321 H1338 0.930 . S
C1322 C1320 1.395 . S
C1322 C1321 1.379 . S
C1322 H1339 0.930 . S
C1323 O1306 1.264 . S
C1323 O1307 1.254 . S
C1324 Eu1260 2.848 . S
C1324 O1304 1.257 . S
C1324 O1309 1.249 . S
C1324 C1317 1.492 . S
C1325 H1290 0.931 . S
C1325 C1303 1.420 . S
C1325 C1326 1.351 . S
C1326 H1288 0.930 . S
C1326 C1294 1.423 . S
C1326 C1325 1.351 . S
C1327 O1311 1.276 . S
C1327 O1314 1.235 . S
C1328 C1329 1.393 . S
C1328 C1332 1.395 . S
C1328 C1335 1.492 . S
C1329 C1328 1.393 . S
C1329 C1330 1.392 1_554 S
C1329 H1340 0.930 . S
C1330 C1329 1.392 1_556 S
C1330 C1331 1.386 . S
C1331 C1330 1.386 . S
C1331 C1333 1.395 . S
C1331 H1341 0.930 . S
C1332 C1328 1.395 . S
C1332 C1333 1.379 1_554 S
C1332 H1342 0.930 . S
C1333 C1331 1.395 . S
C1333 C1332 1.379 1_556 S
C1333 H1343 0.930 . S
C1334 O1312 1.264 . S
C1334 O1313 1.254 . S
C1335 Eu1271 2.848 . S
C1335 O1310 1.257 . S
C1335 O1315 1.249 . S
C1335 C1328 1.492 . S
H1336 C1319 0.930 . S
H1337 C1320 0.930 . S
H1338 C1321 0.930 . S
H1339 C1322 0.930 . S
H1340 C1329 0.930 . S
H1341 C1331 0.930 . S
H1342 C1332 0.930 . S
H1343 C1333 0.930 . S
C1344 C1345 1.363 . S
C1344 C1350 1.379 . S
C1344 N1352 1.356 . S
C1345 C1344 1.363 . S
C1345 C1351 1.363 . S
C1346 C1347 1.363 . S
C1346 C1351 1.379 . S
C1346 N1353 1.356 . S
C1347 C1346 1.363 . S
C1347 C1350 1.363 . S
N1348 C1350 1.356 . S
N1348 H1360 0.984 . S
N1348 H1361 0.985 . S
N1349 C1351 1.356 . S
N1349 H1354 0.984 . S
N1349 H1355 0.985 . S
C1350 C1344 1.379 . S
C1350 C1347 1.363 . S
C1350 N1348 1.356 . S
C1351 C1345 1.363 . S
C1351 C1346 1.379 . S
C1351 N1349 1.356 . S
N1352 C1344 1.356 . S
N1352 H1358 0.984 . S
N1352 H1359 0.984 . S
N1353 C1346 1.356 . S
N1353 H1356 0.984 . S
N1353 H1357 0.985 . S
H1354 N1349 0.984 . S
H1355 N1349 0.985 . S
H1356 N1353 0.984 . S
H1357 N1353 0.985 . S
H1358 N1352 0.984 . S
H1359 N1352 0.984 . S
H1360 N1348 0.984 . S
H1361 N1348 0.985 . S
C1362 C1363 1.363 . S
C1362 C1368 1.379 . S
C1362 N1370 1.356 . S
C1363 C1362 1.363 . S
C1363 C1369 1.363 . S
C1364 C1365 1.363 . S
C1364 C1369 1.379 . S
C1364 N1371 1.356 . S
C1365 C1364 1.363 . S
C1365 C1368 1.363 . S
N1366 C1368 1.356 . S
N1366 H1378 0.984 . S
N1366 H1379 0.985 . S
N1367 C1369 1.356 . S
N1367 H1372 0.984 . S
N1367 H1373 0.985 . S
C1368 C1362 1.379 . S
C1368 C1365 1.363 . S
C1368 N1366 1.356 . S
C1369 C1363 1.363 . S
C1369 C1364 1.379 . S
C1369 N1367 1.356 . S
N1370 C1362 1.356 . S
N1370 H1376 0.984 . S
N1370 H1377 0.984 . S
N1371 C1364 1.356 . S
N1371 H1374 0.984 . S
N1371 H1375 0.985 . S
H1372 N1367 0.984 . S
H1373 N1367 0.985 . S
H1374 N1371 0.984 . S
H1375 N1371 0.985 . S
H1376 N1370 0.984 . S
H1377 N1370 0.984 . S
H1378 N1366 0.984 . S
H1379 N1366 0.985 . S
C1380 C1381 1.363 . S
C1380 C1386 1.379 . S
C1380 N1388 1.356 . S
C1381 C1380 1.363 . S
C1381 C1387 1.363 . S
C1382 C1383 1.363 . S
C1382 C1387 1.379 . S
C1382 N1389 1.356 . S
C1383 C1382 1.363 . S
C1383 C1386 1.363 . S
N1384 C1386 1.356 . S
N1384 H1396 0.984 . S
N1384 H1397 0.985 . S
N1385 C1387 1.356 . S
N1385 H1390 0.984 . S
N1385 H1391 0.985 . S
C1386 C1380 1.379 . S
C1386 C1383 1.363 . S
C1386 N1384 1.356 . S
C1387 C1381 1.363 . S
C1387 C1382 1.379 . S
C1387 N1385 1.356 . S
N1388 C1380 1.356 . S
N1388 H1394 0.984 . S
N1388 H1395 0.984 . S
N1389 C1382 1.356 . S
N1389 H1392 0.984 1_554 S
N1389 H1393 0.985 . S
H1390 N1385 0.984 . S
H1391 N1385 0.985 . S
H1392 N1389 0.984 1_556 S
H1393 N1389 0.985 . S
H1394 N1388 0.984 . S
H1395 N1388 0.984 . S
H1396 N1384 0.984 . S
H1397 N1384 0.985 . S
C1398 C1399 1.363 . S
C1398 C1404 1.379 . S
C1398 N1406 1.356 . S
C1399 C1398 1.363 . S
C1399 C1405 1.363 . S
C1400 C1401 1.363 . S
C1400 C1405 1.379 . S
C1400 N1407 1.356 . S
C1401 C1400 1.363 . S
C1401 C1404 1.363 . S
N1402 C1404 1.356 . S
N1402 H1414 0.984 . S
N1402 H1415 0.985 . S
N1403 C1405 1.356 . S
N1403 H1408 0.984 . S
N1403 H1409 0.985 . S
C1404 C1398 1.379 . S
C1404 C1401 1.363 . S
C1404 N1402 1.356 . S
C1405 C1399 1.363 . S
C1405 C1400 1.379 . S
C1405 N1403 1.356 . S
N1406 C1398 1.356 . S
N1406 H1412 0.984 . S
N1406 H1413 0.984 . S
N1407 C1400 1.356 . S
N1407 H1410 0.984 . S
N1407 H1411 0.985 . S
H1408 N1403 0.984 . S
H1409 N1403 0.985 . S
H1410 N1407 0.984 . S
H1411 N1407 0.985 . S
H1412 N1406 0.984 . S
H1413 N1406 0.984 . S
H1414 N1402 0.984 . S
H1415 N1402 0.985 . S
C1416 C1417 1.363 . S
C1416 C1422 1.379 . S
C1416 N1424 1.356 . S
C1417 C1416 1.363 . S
C1417 C1423 1.363 . S
C1418 C1419 1.363 . S
C1418 C1423 1.379 . S
C1418 N1425 1.356 . S
C1419 C1418 1.363 . S
C1419 C1422 1.363 . S
N1420 C1422 1.356 . S
N1420 H1432 0.984 . S
N1420 H1433 0.985 . S
N1421 C1423 1.356 . S
N1421 H1426 0.984 . S
N1421 H1427 0.985 . S
C1422 C1416 1.379 . S
C1422 C1419 1.363 . S
C1422 N1420 1.356 . S
C1423 C1417 1.363 . S
C1423 C1418 1.379 . S
C1423 N1421 1.356 . S
N1424 C1416 1.356 . S
N1424 H1430 0.984 . S
N1424 H1431 0.984 . S
N1425 C1418 1.356 . S
N1425 H1428 0.984 . S
N1425 H1429 0.985 . S
H1426 N1421 0.984 . S
H1427 N1421 0.985 . S
H1428 N1425 0.984 . S
H1429 N1425 0.985 . S
H1430 N1424 0.984 . S
H1431 N1424 0.984 . S
H1432 N1420 0.984 . S
H1433 N1420 0.985 . S
C1434 C1435 1.363 . S
C1434 C1440 1.379 . S
C1434 N1442 1.356 . S
C1435 C1434 1.363 . S
C1435 C1441 1.363 . S
C1436 C1437 1.363 . S
C1436 C1441 1.379 . S
C1436 N1443 1.356 . S
C1437 C1436 1.363 . S
C1437 C1440 1.363 . S
N1438 C1440 1.356 . S
N1438 H1450 0.984 . S
N1438 H1451 0.985 . S
N1439 C1441 1.356 . S
N1439 H1444 0.984 . S
N1439 H1445 0.985 . S
C1440 C1434 1.379 . S
C1440 C1437 1.363 . S
C1440 N1438 1.356 . S
C1441 C1435 1.363 . S
C1441 C1436 1.379 . S
C1441 N1439 1.356 . S
N1442 C1434 1.356 . S
N1442 H1448 0.984 . S
N1442 H1449 0.984 . S
N1443 C1436 1.356 . S
N1443 H1446 0.984 . S
N1443 H1447 0.985 . S
H1444 N1439 0.984 . S
H1445 N1439 0.985 . S
H1446 N1443 0.984 . S
H1447 N1443 0.985 . S
H1448 N1442 0.984 . S
H1449 N1442 0.984 . S
H1450 N1438 0.984 . S
H1451 N1438 0.985 . S
C1452 C1453 1.363 . S
C1452 C1458 1.379 . S
C1452 N1460 1.356 . S
C1453 C1452 1.363 . S
C1453 C1459 1.363 . S
C1454 C1455 1.363 . S
C1454 C1459 1.379 . S
C1454 N1461 1.356 . S
C1455 C1454 1.363 . S
C1455 C1458 1.363 . S
N1456 C1458 1.356 . S
N1456 H1468 0.984 . S
N1456 H1469 0.985 . S
N1457 C1459 1.356 . S
N1457 H1462 0.984 . S
N1457 H1463 0.985 . S
C1458 C1452 1.379 . S
C1458 C1455 1.363 . S
C1458 N1456 1.356 . S
C1459 C1453 1.363 . S
C1459 C1454 1.379 . S
C1459 N1457 1.356 . S
N1460 C1452 1.356 . S
N1460 H1466 0.984 . S
N1460 H1467 0.984 . S
N1461 C1454 1.356 . S
N1461 H1464 0.984 1_556 S
N1461 H1465 0.985 . S
H1462 N1457 0.984 . S
H1463 N1457 0.985 . S
H1464 N1461 0.984 1_554 S
H1465 N1461 0.985 . S
H1466 N1460 0.984 . S
H1467 N1460 0.984 . S
H1468 N1456 0.984 . S
H1469 N1456 0.985 . S
C1470 C1471 1.363 . S
C1470 C1476 1.379 . S
C1470 N1478 1.356 . S
C1471 C1470 1.363 . S
C1471 C1477 1.363 . S
C1472 C1473 1.363 . S
C1472 C1477 1.379 . S
C1472 N1479 1.356 . S
C1473 C1472 1.363 . S
C1473 C1476 1.363 . S
N1474 C1476 1.356 . S
N1474 H1486 0.984 . S
N1474 H1487 0.985 . S
N1475 C1477 1.356 . S
N1475 H1480 0.984 . S
N1475 H1481 0.985 . S
C1476 C1470 1.379 . S
C1476 C1473 1.363 . S
C1476 N1474 1.356 . S
C1477 C1471 1.363 . S
C1477 C1472 1.379 . S
C1477 N1475 1.356 . S
N1478 C1470 1.356 . S
N1478 H1484 0.984 . S
N1478 H1485 0.984 . S
N1479 C1472 1.356 . S
N1479 H1482 0.984 . S
N1479 H1483 0.985 . S
H1480 N1475 0.984 . S
H1481 N1475 0.985 . S
H1482 N1479 0.984 . S
H1483 N1479 0.985 . S
H1484 N1478 0.984 . S
H1485 N1478 0.984 . S
H1486 N1474 0.984 . S
H1487 N1474 0.985 . S
C1488 C1489 1.363 . S
C1488 C1494 1.379 . S
C1488 N1496 1.356 . S
C1489 C1488 1.363 . S
C1489 C1495 1.363 . S
C1490 C1491 1.363 . S
C1490 C1495 1.379 . S
C1490 N1497 1.356 . S
C1491 C1490 1.363 . S
C1491 C1494 1.363 . S
N1492 C1494 1.356 . S
N1492 H1504 0.984 . S
N1492 H1505 0.985 . S
N1493 C1495 1.356 . S
N1493 H1498 0.984 . S
N1493 H1499 0.985 . S
C1494 C1488 1.379 . S
C1494 C1491 1.363 . S
C1494 N1492 1.356 . S
C1495 C1489 1.363 . S
C1495 C1490 1.379 . S
C1495 N1493 1.356 . S
N1496 C1488 1.356 . S
N1496 H1502 0.984 . S
N1496 H1503 0.984 . S
N1497 C1490 1.356 . S
N1497 H1500 0.984 . S
N1497 H1501 0.985 . S
H1498 N1493 0.984 . S
H1499 N1493 0.985 . S
H1500 N1497 0.984 . S
H1501 N1497 0.985 . S
H1502 N1496 0.984 . S
H1503 N1496 0.984 . S
H1504 N1492 0.984 . S
H1505 N1492 0.985 . S
C1506 C1507 1.363 . S
C1506 C1512 1.379 . S
C1506 N1514 1.356 . S
C1507 C1506 1.363 . S
C1507 C1513 1.363 . S
C1508 C1509 1.363 . S
C1508 C1513 1.379 . S
C1508 N1515 1.356 . S
C1509 C1508 1.363 . S
C1509 C1512 1.363 . S
N1510 C1512 1.356 . S
N1510 H1522 0.984 . S
N1510 H1523 0.985 . S
N1511 C1513 1.356 . S
N1511 H1516 0.984 . S
N1511 H1517 0.985 . S
C1512 C1506 1.379 . S
C1512 C1509 1.363 . S
C1512 N1510 1.356 . S
C1513 C1507 1.363 . S
C1513 C1508 1.379 . S
C1513 N1511 1.356 . S
N1514 C1506 1.356 . S
N1514 H1520 0.984 . S
N1514 H1521 0.984 . S
N1515 C1508 1.356 . S
N1515 H1518 0.984 1_554 S
N1515 H1519 0.985 . S
H1516 N1511 0.984 . S
H1517 N1511 0.985 . S
H1518 N1515 0.984 1_556 S
H1519 N1515 0.985 . S
H1520 N1514 0.984 . S
H1521 N1514 0.984 . S
H1522 N1510 0.984 . S
H1523 N1510 0.985 . S
C1524 C1525 1.363 . S
C1524 C1530 1.379 . S
C1524 N1532 1.356 . S
C1525 C1524 1.363 . S
C1525 C1531 1.363 . S
C1526 C1527 1.363 . S
C1526 C1531 1.379 . S
C1526 N1533 1.356 . S
C1527 C1526 1.363 . S
C1527 C1530 1.363 . S
N1528 C1530 1.356 . S
N1528 H1540 0.984 . S
N1528 H1541 0.985 . S
N1529 C1531 1.356 . S
N1529 H1534 0.984 . S
N1529 H1535 0.985 . S
C1530 C1524 1.379 . S
C1530 C1527 1.363 . S
C1530 N1528 1.356 . S
C1531 C1525 1.363 . S
C1531 C1526 1.379 . S
C1531 N1529 1.356 . S
N1532 C1524 1.356 . S
N1532 H1538 0.984 . S
N1532 H1539 0.984 . S
N1533 C1526 1.356 . S
N1533 H1536 0.984 . S
N1533 H1537 0.985 . S
H1534 N1529 0.984 . S
H1535 N1529 0.985 . S
H1536 N1533 0.984 . S
H1537 N1533 0.985 . S
H1538 N1532 0.984 . S
H1539 N1532 0.984 . S
H1540 N1528 0.984 . S
H1541 N1528 0.985 . S
C1542 C1543 1.363 . S
C1542 C1548 1.379 . S
C1542 N1550 1.356 . S
C1543 C1542 1.363 . S
C1543 C1549 1.363 . S
C1544 C1545 1.363 . S
C1544 C1549 1.379 . S
C1544 N1551 1.356 . S
C1545 C1544 1.363 . S
C1545 C1548 1.363 . S
N1546 C1548 1.356 . S
N1546 H1558 0.984 . S
N1546 H1559 0.985 . S
N1547 C1549 1.356 . S
N1547 H1552 0.984 . S
N1547 H1553 0.985 . S
C1548 C1542 1.379 . S
C1548 C1545 1.363 . S
C1548 N1546 1.356 . S
C1549 C1543 1.363 . S
C1549 C1544 1.379 . S
C1549 N1547 1.356 . S
N1550 C1542 1.356 . S
N1550 H1556 0.984 . S
N1550 H1557 0.984 . S
N1551 C1544 1.356 . S
N1551 H1554 0.984 . S
N1551 H1555 0.985 . S
H1552 N1547 0.984 . S
H1553 N1547 0.985 . S
H1554 N1551 0.984 . S
H1555 N1551 0.985 . S
H1556 N1550 0.984 . S
H1557 N1550 0.984 . S
H1558 N1546 0.984 . S
H1559 N1546 0.985 . S
C1560 C1561 1.363 . S
C1560 C1566 1.379 . S
C1560 N1568 1.356 . S
C1561 C1560 1.363 . S
C1561 C1567 1.363 . S
C1562 C1563 1.363 . S
C1562 C1567 1.379 . S
C1562 N1569 1.356 . S
C1563 C1562 1.363 . S
C1563 C1566 1.363 . S
N1564 C1566 1.356 . S
N1564 H1576 0.984 . S
N1564 H1577 0.985 . S
N1565 C1567 1.356 . S
N1565 H1570 0.984 . S
N1565 H1571 0.985 . S
C1566 C1560 1.379 . S
C1566 C1563 1.363 . S
C1566 N1564 1.356 . S
C1567 C1561 1.363 . S
C1567 C1562 1.379 . S
C1567 N1565 1.356 . S
N1568 C1560 1.356 . S
N1568 H1574 0.984 . S
N1568 H1575 0.984 . S
N1569 C1562 1.356 . S
N1569 H1572 0.984 . S
N1569 H1573 0.985 . S
H1570 N1565 0.984 . S
H1571 N1565 0.985 . S
H1572 N1569 0.984 . S
H1573 N1569 0.985 . S
H1574 N1568 0.984 . S
H1575 N1568 0.984 . S
H1576 N1564 0.984 . S
H1577 N1564 0.985 . S
C1578 C1579 1.363 . S
C1578 C1584 1.379 . S
C1578 N1586 1.356 . S
C1579 C1578 1.363 . S
C1579 C1585 1.363 . S
C1580 C1581 1.363 . S
C1580 C1585 1.379 . S
C1580 N1587 1.356 . S
C1581 C1580 1.363 . S
C1581 C1584 1.363 . S
N1582 C1584 1.356 . S
N1582 H1594 0.984 . S
N1582 H1595 0.985 . S
N1583 C1585 1.356 . S
N1583 H1588 0.984 . S
N1583 H1589 0.985 . S
C1584 C1578 1.379 . S
C1584 C1581 1.363 . S
C1584 N1582 1.356 . S
C1585 C1579 1.363 . S
C1585 C1580 1.379 . S
C1585 N1583 1.356 . S
N1586 C1578 1.356 . S
N1586 H1592 0.984 . S
N1586 H1593 0.984 . S
N1587 C1580 1.356 . S
N1587 H1590 0.984 . S
N1587 H1591 0.985 . S
H1588 N1583 0.984 . S
H1589 N1583 0.985 . S
H1590 N1587 0.984 . S
H1591 N1587 0.985 . S
H1592 N1586 0.984 . S
H1593 N1586 0.984 . S
H1594 N1582 0.984 . S
H1595 N1582 0.985 . S
C1596 C1597 1.363 . S
C1596 C1602 1.379 . S
C1596 N1604 1.356 . S
C1597 C1596 1.363 . S
C1597 C1603 1.363 . S
C1598 C1599 1.363 . S
C1598 C1603 1.379 . S
C1598 N1605 1.356 . S
C1599 C1598 1.363 . S
C1599 C1602 1.363 . S
N1600 C1602 1.356 . S
N1600 H1612 0.984 . S
N1600 H1613 0.985 . S
N1601 C1603 1.356 . S
N1601 H1606 0.984 . S
N1601 H1607 0.985 . S
C1602 C1596 1.379 . S
C1602 C1599 1.363 . S
C1602 N1600 1.356 . S
C1603 C1597 1.363 . S
C1603 C1598 1.379 . S
C1603 N1601 1.356 . S
N1604 C1596 1.356 . S
N1604 H1610 0.984 . S
N1604 H1611 0.984 . S
N1605 C1598 1.356 . S
N1605 H1608 0.984 1_554 S
N1605 H1609 0.985 1_554 S
H1606 N1601 0.984 . S
H1607 N1601 0.985 . S
H1608 N1605 0.984 1_556 S
H1609 N1605 0.985 1_556 S
H1610 N1604 0.984 . S
H1611 N1604 0.984 . S
H1612 N1600 0.984 . S
H1613 N1600 0.985 . S
C1614 C1615 1.363 . S
C1614 C1620 1.379 . S
C1614 N1622 1.356 . S
C1615 C1614 1.363 . S
C1615 C1621 1.363 . S
C1616 C1617 1.363 . S
C1616 C1621 1.379 . S
C1616 N1623 1.356 . S
C1617 C1616 1.363 . S
C1617 C1620 1.363 . S
N1618 C1620 1.356 . S
N1618 H1630 0.984 . S
N1618 H1631 0.985 . S
N1619 C1621 1.356 . S
N1619 H1624 0.984 . S
N1619 H1625 0.985 . S
C1620 C1614 1.379 . S
C1620 C1617 1.363 . S
C1620 N1618 1.356 . S
C1621 C1615 1.363 . S
C1621 C1616 1.379 . S
C1621 N1619 1.356 . S
N1622 C1614 1.356 . S
N1622 H1628 0.984 . S
N1622 H1629 0.984 . S
N1623 C1616 1.356 . S
N1623 H1626 0.984 . S
N1623 H1627 0.985 . S
H1624 N1619 0.984 . S
H1625 N1619 0.985 . S
H1626 N1623 0.984 . S
H1627 N1623 0.985 . S
H1628 N1622 0.984 . S
H1629 N1622 0.984 . S
H1630 N1618 0.984 . S
H1631 N1618 0.985 . S
C1632 C1633 1.363 . S
C1632 C1638 1.379 . S
C1632 N1640 1.356 . S
C1633 C1632 1.363 . S
C1633 C1639 1.363 . S
C1634 C1635 1.363 . S
C1634 C1639 1.379 . S
C1634 N1641 1.356 . S
C1635 C1634 1.363 . S
C1635 C1638 1.363 . S
N1636 C1638 1.356 . S
N1636 H1648 0.984 . S
N1636 H1649 0.985 . S
N1637 C1639 1.356 . S
N1637 H1642 0.984 . S
N1637 H1643 0.985 . S
C1638 C1632 1.379 . S
C1638 C1635 1.363 . S
C1638 N1636 1.356 . S
C1639 C1633 1.363 . S
C1639 C1634 1.379 . S
C1639 N1637 1.356 . S
N1640 C1632 1.356 . S
N1640 H1646 0.984 . S
N1640 H1647 0.984 . S
N1641 C1634 1.356 . S
N1641 H1644 0.984 . S
N1641 H1645 0.985 . S
H1642 N1637 0.984 . S
H1643 N1637 0.985 . S
H1644 N1641 0.984 . S
H1645 N1641 0.985 . S
H1646 N1640 0.984 . S
H1647 N1640 0.984 . S
H1648 N1636 0.984 . S
H1649 N1636 0.985 . S
C1650 C1651 1.363 . S
C1650 C1656 1.379 . S
C1650 N1658 1.356 . S
C1651 C1650 1.363 . S
C1651 C1657 1.363 . S
C1652 C1653 1.363 . S
C1652 C1657 1.379 . S
C1652 N1659 1.356 . S
C1653 C1652 1.363 . S
C1653 C1656 1.363 . S
N1654 C1656 1.356 . S
N1654 H1666 0.984 . S
N1654 H1667 0.985 . S
N1655 C1657 1.356 . S
N1655 H1660 0.984 . S
N1655 H1661 0.985 . S
C1656 C1650 1.379 . S
C1656 C1653 1.363 . S
C1656 N1654 1.356 . S
C1657 C1651 1.363 . S
C1657 C1652 1.379 . S
C1657 N1655 1.356 . S
N1658 C1650 1.356 . S
N1658 H1664 0.984 . S
N1658 H1665 0.984 . S
N1659 C1652 1.356 . S
N1659 H1662 0.984 . S
N1659 H1663 0.985 . S
H1660 N1655 0.984 . S
H1661 N1655 0.985 . S
H1662 N1659 0.984 . S
H1663 N1659 0.985 . S
H1664 N1658 0.984 . S
H1665 N1658 0.984 . S
H1666 N1654 0.984 . S
H1667 N1654 0.985 . S
C1668 C1669 1.363 . S
C1668 C1674 1.379 . S
C1668 N1676 1.356 . S
C1669 C1668 1.363 . S
C1669 C1675 1.363 . S
C1670 C1671 1.363 . S
C1670 C1675 1.379 . S
C1670 N1677 1.356 . S
C1671 C1670 1.363 . S
C1671 C1674 1.363 . S
N1672 C1674 1.356 . S
N1672 H1684 0.984 . S
N1672 H1685 0.985 . S
N1673 C1675 1.356 . S
N1673 H1678 0.984 . S
N1673 H1679 0.985 . S
C1674 C1668 1.379 . S
C1674 C1671 1.363 . S
C1674 N1672 1.356 . S
C1675 C1669 1.363 . S
C1675 C1670 1.379 . S
C1675 N1673 1.356 . S
N1676 C1668 1.356 . S
N1676 H1682 0.984 . S
N1676 H1683 0.984 . S
N1677 C1670 1.356 . S
N1677 H1680 0.984 . S
N1677 H1681 0.985 . S
H1678 N1673 0.984 . S
H1679 N1673 0.985 . S
H1680 N1677 0.984 . S
H1681 N1677 0.985 . S
H1682 N1676 0.984 . S
H1683 N1676 0.984 . S
H1684 N1672 0.984 . S
H1685 N1672 0.985 . S
C1686 C1687 1.363 . S
C1686 C1692 1.379 1_655 S
C1686 N1694 1.356 . S
C1687 C1686 1.363 . S
C1687 C1693 1.363 . S
C1688 C1689 1.363 . S
C1688 C1693 1.379 1_455 S
C1688 N1695 1.356 . S
C1689 C1688 1.363 . S
C1689 C1692 1.363 . S
N1690 C1692 1.356 . S
N1690 H1702 0.984 . S
N1690 H1703 0.985 . S
N1691 C1693 1.356 . S
N1691 H1696 0.984 . S
N1691 H1697 0.985 . S
C1692 C1686 1.379 1_455 S
C1692 C1689 1.363 . S
C1692 N1690 1.356 . S
C1693 C1687 1.363 . S
C1693 C1688 1.379 1_655 S
C1693 N1691 1.356 . S
N1694 C1686 1.356 . S
N1694 H1700 0.984 . S
N1694 H1701 0.984 . S
N1695 C1688 1.356 . S
N1695 H1698 0.984 . S
N1695 H1699 0.985 . S
H1696 N1691 0.984 . S
H1697 N1691 0.985 . S
H1698 N1695 0.984 . S
H1699 N1695 0.985 . S
H1700 N1694 0.984 . S
H1701 N1694 0.984 . S
H1702 N1690 0.984 . S
H1703 N1690 0.985 . S
C1704 C1705 1.363 . S
C1704 C1710 1.379 . S
C1704 N1712 1.356 . S
C1705 C1704 1.363 . S
C1705 C1711 1.363 . S
C1706 C1707 1.363 . S
C1706 C1711 1.379 . S
C1706 N1713 1.356 . S
C1707 C1706 1.363 . S
C1707 C1710 1.363 . S
N1708 C1710 1.356 . S
N1708 H1720 0.984 . S
N1708 H1721 0.985 . S
N1709 C1711 1.356 . S
N1709 H1714 0.984 . S
N1709 H1715 0.985 . S
C1710 C1704 1.379 . S
C1710 C1707 1.363 . S
C1710 N1708 1.356 . S
C1711 C1705 1.363 . S
C1711 C1706 1.379 . S
C1711 N1709 1.356 . S
N1712 C1704 1.356 . S
N1712 H1718 0.984 . S
N1712 H1719 0.984 . S
N1713 C1706 1.356 . S
N1713 H1716 0.984 . S
N1713 H1717 0.985 . S
H1714 N1709 0.984 . S
H1715 N1709 0.985 . S
H1716 N1713 0.984 . S
H1717 N1713 0.985 . S
H1718 N1712 0.984 . S
H1719 N1712 0.984 . S
H1720 N1708 0.984 . S
H1721 N1708 0.985 . S
C1722 C1723 1.363 . S
C1722 C1728 1.379 1_455 S
C1722 N1730 1.356 . S
C1723 C1722 1.363 . S
C1723 C1729 1.363 . S
C1724 C1725 1.363 . S
C1724 C1729 1.379 1_655 S
C1724 N1731 1.356 1_554 S
C1725 C1724 1.363 . S
C1725 C1728 1.363 . S
N1726 C1728 1.356 . S
N1726 H1738 0.984 . S
N1726 H1739 0.985 . S
N1727 C1729 1.356 1_556 S
N1727 H1732 0.984 . S
N1727 H1733 0.985 . S
C1728 C1722 1.379 1_655 S
C1728 C1725 1.363 . S
C1728 N1726 1.356 . S
C1729 C1723 1.363 . S
C1729 C1724 1.379 1_455 S
C1729 N1727 1.356 1_554 S
N1730 C1722 1.356 . S
N1730 H1736 0.984 . S
N1730 H1737 0.984 . S
N1731 C1724 1.356 1_556 S
N1731 H1734 0.984 . S
N1731 H1735 0.985 . S
H1732 N1727 0.984 . S
H1733 N1727 0.985 . S
H1734 N1731 0.984 . S
H1735 N1731 0.985 . S
H1736 N1730 0.984 . S
H1737 N1730 0.984 . S
H1738 N1726 0.984 . S
H1739 N1726 0.985 . S
C1740 C1741 1.363 . S
C1740 C1746 1.379 . S
C1740 N1748 1.356 . S
C1741 C1740 1.363 . S
C1741 C1747 1.363 . S
C1742 C1743 1.363 . S
C1742 C1747 1.379 . S
C1742 N1749 1.356 . S
C1743 C1742 1.363 . S
C1743 C1746 1.363 . S
N1744 C1746 1.356 . S
N1744 H1756 0.984 . S
N1744 H1757 0.985 . S
N1745 C1747 1.356 . S
N1745 H1750 0.984 . S
N1745 H1751 0.985 . S
C1746 C1740 1.379 . S
C1746 C1743 1.363 . S
C1746 N1744 1.356 . S
C1747 C1741 1.363 . S
C1747 C1742 1.379 . S
C1747 N1745 1.356 . S
N1748 C1740 1.356 . S
N1748 H1754 0.984 . S
N1748 H1755 0.984 . S
N1749 C1742 1.356 . S
N1749 H1752 0.984 . S
N1749 H1753 0.985 . S
H1750 N1745 0.984 . S
H1751 N1745 0.985 . S
H1752 N1749 0.984 . S
H1753 N1749 0.985 . S
H1754 N1748 0.984 . S
H1755 N1748 0.984 . S
H1756 N1744 0.984 . S
H1757 N1744 0.985 . S
C1758 C1759 1.363 . S
C1758 C1764 1.379 . S
C1758 N1766 1.356 . S
C1759 C1758 1.363 . S
C1759 C1765 1.363 . S
C1760 C1761 1.363 . S
C1760 C1765 1.379 . S
C1760 N1767 1.356 . S
C1761 C1760 1.363 . S
C1761 C1764 1.363 . S
N1762 C1764 1.356 . S
N1762 H1774 0.984 . S
N1762 H1775 0.985 . S
N1763 C1765 1.356 . S
N1763 H1768 0.984 . S
N1763 H1769 0.985 . S
C1764 C1758 1.379 . S
C1764 C1761 1.363 . S
C1764 N1762 1.356 . S
C1765 C1759 1.363 . S
C1765 C1760 1.379 . S
C1765 N1763 1.356 . S
N1766 C1758 1.356 . S
N1766 H1772 0.984 . S
N1766 H1773 0.984 . S
N1767 C1760 1.356 . S
N1767 H1770 0.984 . S
N1767 H1771 0.985 . S
H1768 N1763 0.984 . S
H1769 N1763 0.985 . S
H1770 N1767 0.984 . S
H1771 N1767 0.985 . S
H1772 N1766 0.984 . S
H1773 N1766 0.984 . S
H1774 N1762 0.984 . S
H1775 N1762 0.985 . S
C1776 C1777 1.363 . S
C1776 C1782 1.379 . S
C1776 N1784 1.356 . S
C1777 C1776 1.363 . S
C1777 C1783 1.363 . S
C1778 C1779 1.363 . S
C1778 C1783 1.379 . S
C1778 N1785 1.356 . S
C1779 C1778 1.363 . S
C1779 C1782 1.363 . S
N1780 C1782 1.356 . S
N1780 H1792 0.984 . S
N1780 H1793 0.985 . S
N1781 C1783 1.356 . S
N1781 H1786 0.984 . S
N1781 H1787 0.985 . S
C1782 C1776 1.379 . S
C1782 C1779 1.363 . S
C1782 N1780 1.356 . S
C1783 C1777 1.363 . S
C1783 C1778 1.379 . S
C1783 N1781 1.356 . S
N1784 C1776 1.356 . S
N1784 H1790 0.984 . S
N1784 H1791 0.984 . S
N1785 C1778 1.356 . S
N1785 H1788 0.984 . S
N1785 H1789 0.985 . S
H1786 N1781 0.984 . S
H1787 N1781 0.985 . S
H1788 N1785 0.984 . S
H1789 N1785 0.985 . S
H1790 N1784 0.984 . S
H1791 N1784 0.984 . S
H1792 N1780 0.984 . S
H1793 N1780 0.985 . S
C1794 C1795 1.363 . S
C1794 C1800 1.379 . S
C1794 N1802 1.356 . S
C1795 C1794 1.363 . S
C1795 C1801 1.363 . S
C1796 C1797 1.363 . S
C1796 C1801 1.379 . S
C1796 N1803 1.356 . S
C1797 C1796 1.363 . S
C1797 C1800 1.363 . S
N1798 C1800 1.356 . S
N1798 H1810 0.984 . S
N1798 H1811 0.985 . S
N1799 C1801 1.356 . S
N1799 H1804 0.984 . S
N1799 H1805 0.985 . S
C1800 C1794 1.379 . S
C1800 C1797 1.363 . S
C1800 N1798 1.356 . S
C1801 C1795 1.363 . S
C1801 C1796 1.379 . S
C1801 N1799 1.356 . S
N1802 C1794 1.356 . S
N1802 H1808 0.984 . S
N1802 H1809 0.984 . S
N1803 C1796 1.356 . S
N1803 H1806 0.984 . S
N1803 H1807 0.985 . S
H1804 N1799 0.984 . S
H1805 N1799 0.985 . S
H1806 N1803 0.984 . S
H1807 N1803 0.985 . S
H1808 N1802 0.984 . S
H1809 N1802 0.984 . S
H1810 N1798 0.984 . S
H1811 N1798 0.985 . S
C1812 C1813 1.363 . S
C1812 C1818 1.379 . S
C1812 N1820 1.356 . S
C1813 C1812 1.363 . S
C1813 C1819 1.363 . S
C1814 C1815 1.363 . S
C1814 C1819 1.379 . S
C1814 N1821 1.356 . S
C1815 C1814 1.363 . S
C1815 C1818 1.363 . S
N1816 C1818 1.356 . S
N1816 H1828 0.984 . S
N1816 H1829 0.985 . S
N1817 C1819 1.356 . S
N1817 H1822 0.984 . S
N1817 H1823 0.985 . S
C1818 C1812 1.379 . S
C1818 C1815 1.363 . S
C1818 N1816 1.356 . S
C1819 C1813 1.363 . S
C1819 C1814 1.379 . S
C1819 N1817 1.356 . S
N1820 C1812 1.356 . S
N1820 H1826 0.984 . S
N1820 H1827 0.984 . S
N1821 C1814 1.356 . S
N1821 H1824 0.984 . S
N1821 H1825 0.985 . S
H1822 N1817 0.984 . S
H1823 N1817 0.985 . S
H1824 N1821 0.984 . S
H1825 N1821 0.985 . S
H1826 N1820 0.984 . S
H1827 N1820 0.984 . S
H1828 N1816 0.984 . S
H1829 N1816 0.985 . S
C1830 C1831 1.363 . S
C1830 C1836 1.379 . S
C1830 N1838 1.356 . S
C1831 C1830 1.363 . S
C1831 C1837 1.363 . S
C1832 C1833 1.363 . S
C1832 C1837 1.379 . S
C1832 N1839 1.356 . S
C1833 C1832 1.363 . S
C1833 C1836 1.363 . S
N1834 C1836 1.356 . S
N1834 H1846 0.984 . S
N1834 H1847 0.985 . S
N1835 C1837 1.356 . S
N1835 H1840 0.984 . S
N1835 H1841 0.985 . S
C1836 C1830 1.379 . S
C1836 C1833 1.363 . S
C1836 N1834 1.356 . S
C1837 C1831 1.363 . S
C1837 C1832 1.379 . S
C1837 N1835 1.356 . S
N1838 C1830 1.356 . S
N1838 H1844 0.984 . S
N1838 H1845 0.984 . S
N1839 C1832 1.356 . S
N1839 H1842 0.984 . S
N1839 H1843 0.985 . S
H1840 N1835 0.984 . S
H1841 N1835 0.985 . S
H1842 N1839 0.984 . S
H1843 N1839 0.985 . S
H1844 N1838 0.984 . S
H1845 N1838 0.984 . S
H1846 N1834 0.984 . S
H1847 N1834 0.985 . S
C1848 C1849 1.363 . S
C1848 C1854 1.379 1_655 S
C1848 N1856 1.356 . S
C1849 C1848 1.363 . S
C1849 C1855 1.363 . S
C1850 C1851 1.363 . S
C1850 C1855 1.379 1_455 S
C1850 N1857 1.356 . S
C1851 C1850 1.363 . S
C1851 C1854 1.363 . S
N1852 C1854 1.356 . S
N1852 H1864 0.984 . S
N1852 H1865 0.985 . S
N1853 C1855 1.356 . S
N1853 H1858 0.984 . S
N1853 H1859 0.985 . S
C1854 C1848 1.379 1_455 S
C1854 C1851 1.363 . S
C1854 N1852 1.356 . S
C1855 C1849 1.363 . S
C1855 C1850 1.379 1_655 S
C1855 N1853 1.356 . S
N1856 C1848 1.356 . S
N1856 H1862 0.984 . S
N1856 H1863 0.984 . S
N1857 C1850 1.356 . S
N1857 H1860 0.984 . S
N1857 H1861 0.985 . S
H1858 N1853 0.984 . S
H1859 N1853 0.985 . S
H1860 N1857 0.984 . S
H1861 N1857 0.985 . S
H1862 N1856 0.984 . S
H1863 N1856 0.984 . S
H1864 N1852 0.984 . S
H1865 N1852 0.985 . S
C1866 C1867 1.363 . S
C1866 C1872 1.379 . S
C1866 N1874 1.356 . S
C1867 C1866 1.363 . S
C1867 C1873 1.363 . S
C1868 C1869 1.363 . S
C1868 C1873 1.379 . S
C1868 N1875 1.356 . S
C1869 C1868 1.363 . S
C1869 C1872 1.363 . S
N1870 C1872 1.356 . S
N1870 H1882 0.984 . S
N1870 H1883 0.985 . S
N1871 C1873 1.356 . S
N1871 H1876 0.984 . S
N1871 H1877 0.985 . S
C1872 C1866 1.379 . S
C1872 C1869 1.363 . S
C1872 N1870 1.356 . S
C1873 C1867 1.363 . S
C1873 C1868 1.379 . S
C1873 N1871 1.356 . S
N1874 C1866 1.356 . S
N1874 H1880 0.984 . S
N1874 H1881 0.984 . S
N1875 C1868 1.356 . S
N1875 H1878 0.984 . S
N1875 H1879 0.985 . S
H1876 N1871 0.984 . S
H1877 N1871 0.985 . S
H1878 N1875 0.984 . S
H1879 N1875 0.985 . S
H1880 N1874 0.984 . S
H1881 N1874 0.984 . S
H1882 N1870 0.984 . S
H1883 N1870 0.985 . S
C1884 C1885 1.363 . S
C1884 C1890 1.379 . S
C1884 N1892 1.356 . S
C1885 C1884 1.363 . S
C1885 C1891 1.363 . S
C1886 C1887 1.363 . S
C1886 C1891 1.379 . S
C1886 N1893 1.356 . S
C1887 C1886 1.363 . S
C1887 C1890 1.363 . S
N1888 C1890 1.356 . S
N1888 H1900 0.984 . S
N1888 H1901 0.985 . S
N1889 C1891 1.356 . S
N1889 H1894 0.984 . S
N1889 H1895 0.985 . S
C1890 C1884 1.379 . S
C1890 C1887 1.363 . S
C1890 N1888 1.356 . S
C1891 C1885 1.363 . S
C1891 C1886 1.379 . S
C1891 N1889 1.356 . S
N1892 C1884 1.356 . S
N1892 H1898 0.984 . S
N1892 H1899 0.984 . S
N1893 C1886 1.356 . S
N1893 H1896 0.984 . S
N1893 H1897 0.985 . S
H1894 N1889 0.984 . S
H1895 N1889 0.985 . S
H1896 N1893 0.984 . S
H1897 N1893 0.985 . S
H1898 N1892 0.984 . S
H1899 N1892 0.984 . S
H1900 N1888 0.984 . S
H1901 N1888 0.985 . S
C1902 C1903 1.363 . S
C1902 C1908 1.379 1_455 S
C1902 N1910 1.356 . S
C1903 C1902 1.363 . S
C1903 C1909 1.363 . S
C1904 C1905 1.363 . S
C1904 C1909 1.379 1_655 S
C1904 N1911 1.356 . S
C1905 C1904 1.363 . S
C1905 C1908 1.363 . S
N1906 C1908 1.356 . S
N1906 H1918 0.984 1_554 S
N1906 H1919 0.985 . S
N1907 C1909 1.356 . S
N1907 H1912 0.984 . S
N1907 H1913 0.985 . S
C1908 C1902 1.379 1_655 S
C1908 C1905 1.363 . S
C1908 N1906 1.356 . S
C1909 C1903 1.363 . S
C1909 C1904 1.379 1_455 S
C1909 N1907 1.356 . S
N1910 C1902 1.356 . S
N1910 H1916 0.984 1_554 S
N1910 H1917 0.984 . S
N1911 C1904 1.356 . S
N1911 H1914 0.984 . S
N1911 H1915 0.985 . S
H1912 N1907 0.984 . S
H1913 N1907 0.985 . S
H1914 N1911 0.984 . S
H1915 N1911 0.985 . S
H1916 N1910 0.984 1_556 S
H1917 N1910 0.984 . S
H1918 N1906 0.984 1_556 S
H1919 N1906 0.985 . S
C1920 C1921 1.363 . S
C1920 C1926 1.379 . S
C1920 N1928 1.356 . S
C1921 C1920 1.363 . S
C1921 C1927 1.363 1_554 S
C1922 C1923 1.363 . S
C1922 C1927 1.379 . S
C1922 N1929 1.356 . S
C1923 C1922 1.363 . S
C1923 C1926 1.363 1_556 S
N1924 C1926 1.356 . S
N1924 H1936 0.984 . S
N1924 H1937 0.985 1_554 S
N1925 C1927 1.356 . S
N1925 H1930 0.984 1_556 S
N1925 H1931 0.985 . S
C1926 C1920 1.379 . S
C1926 C1923 1.363 1_554 S
C1926 N1924 1.356 . S
C1927 C1921 1.363 1_556 S
C1927 C1922 1.379 . S
C1927 N1925 1.356 . S
N1928 C1920 1.356 . S
N1928 H1934 0.984 . S
N1928 H1935 0.984 . S
N1929 C1922 1.356 . S
N1929 H1932 0.984 . S
N1929 H1933 0.985 . S
H1930 N1925 0.984 1_554 S
H1931 N1925 0.985 . S
H1932 N1929 0.984 . S
H1933 N1929 0.985 . S
H1934 N1928 0.984 . S
H1935 N1928 0.984 . S
H1936 N1924 0.984 . S
H1937 N1924 0.985 1_556 S
C1938 C1939 1.363 . S
C1938 C1944 1.379 . S
C1938 N1946 1.356 . S
C1939 C1938 1.363 . S
C1939 C1945 1.363 . S
C1940 C1941 1.363 . S
C1940 C1945 1.379 . S
C1940 N1947 1.356 . S
C1941 C1940 1.363 . S
C1941 C1944 1.363 . S
N1942 C1944 1.356 . S
N1942 H1954 0.984 . S
N1942 H1955 0.985 . S
N1943 C1945 1.356 . S
N1943 H1948 0.984 . S
N1943 H1949 0.985 . S
C1944 C1938 1.379 . S
C1944 C1941 1.363 . S
C1944 N1942 1.356 . S
C1945 C1939 1.363 . S
C1945 C1940 1.379 . S
C1945 N1943 1.356 . S
N1946 C1938 1.356 . S
N1946 H1952 0.984 . S
N1946 H1953 0.984 . S
N1947 C1940 1.356 . S
N1947 H1950 0.984 . S
N1947 H1951 0.985 . S
H1948 N1943 0.984 . S
H1949 N1943 0.985 . S
H1950 N1947 0.984 . S
H1951 N1947 0.985 . S
H1952 N1946 0.984 . S
H1953 N1946 0.984 . S
H1954 N1942 0.984 . S
H1955 N1942 0.985 . S
C1956 C1957 1.363 . S
C1956 C1962 1.379 . S
C1956 N1964 1.356 . S
C1957 C1956 1.363 . S
C1957 C1963 1.363 . S
C1958 C1959 1.363 . S
C1958 C1963 1.379 . S
C1958 N1965 1.356 . S
C1959 C1958 1.363 . S
C1959 C1962 1.363 . S
N1960 C1962 1.356 . S
N1960 H1972 0.984 . S
N1960 H1973 0.985 . S
N1961 C1963 1.356 . S
N1961 H1966 0.984 . S
N1961 H1967 0.985 . S
C1962 C1956 1.379 . S
C1962 C1959 1.363 . S
C1962 N1960 1.356 . S
C1963 C1957 1.363 . S
C1963 C1958 1.379 . S
C1963 N1961 1.356 . S
N1964 C1956 1.356 . S
N1964 H1970 0.984 . S
N1964 H1971 0.984 . S
N1965 C1958 1.356 . S
N1965 H1968 0.984 . S
N1965 H1969 0.985 . S
H1966 N1961 0.984 . S
H1967 N1961 0.985 . S
H1968 N1965 0.984 . S
H1969 N1965 0.985 . S
H1970 N1964 0.984 . S
H1971 N1964 0.984 . S
H1972 N1960 0.984 . S
H1973 N1960 0.985 . S
C1974 C1975 1.363 . S
C1974 C1980 1.379 . S
C1974 N1982 1.356 . S
C1975 C1974 1.363 . S
C1975 C1981 1.363 . S
C1976 C1977 1.363 . S
C1976 C1981 1.379 . S
C1976 N1983 1.356 . S
C1977 C1976 1.363 . S
C1977 C1980 1.363 . S
N1978 C1980 1.356 . S
N1978 H1990 0.984 . S
N1978 H1991 0.985 . S
N1979 C1981 1.356 . S
N1979 H1984 0.984 . S
N1979 H1985 0.985 . S
C1980 C1974 1.379 . S
C1980 C1977 1.363 . S
C1980 N1978 1.356 . S
C1981 C1975 1.363 . S
C1981 C1976 1.379 . S
C1981 N1979 1.356 . S
N1982 C1974 1.356 . S
N1982 H1988 0.984 . S
N1982 H1989 0.984 . S
N1983 C1976 1.356 . S
N1983 H1986 0.984 . S
N1983 H1987 0.985 . S
H1984 N1979 0.984 . S
H1985 N1979 0.985 . S
H1986 N1983 0.984 . S
H1987 N1983 0.985 . S
H1988 N1982 0.984 . S
H1989 N1982 0.984 . S
H1990 N1978 0.984 . S
H1991 N1978 0.985 . S
C1992 C1993 1.363 . S
C1992 C1998 1.379 1_554 S
C1992 N2000 1.356 . S
C1993 C1992 1.363 . S
C1993 C1999 1.363 . S
C1994 C1995 1.363 . S
C1994 C1999 1.379 1_556 S
C1994 N2001 1.356 . S
C1995 C1994 1.363 . S
C1995 C1998 1.363 . S
N1996 C1998 1.356 . S
N1996 H2008 0.984 . S
N1996 H2009 0.985 . S
N1997 C1999 1.356 . S
N1997 H2002 0.984 . S
N1997 H2003 0.985 . S
C1998 C1992 1.379 1_556 S
C1998 C1995 1.363 . S
C1998 N1996 1.356 . S
C1999 C1993 1.363 . S
C1999 C1994 1.379 1_554 S
C1999 N1997 1.356 . S
N2000 C1992 1.356 . S
N2000 H2006 0.984 . S
N2000 H2007 0.984 . S
N2001 C1994 1.356 . S
N2001 H2004 0.984 . S
N2001 H2005 0.985 . S
H2002 N1997 0.984 . S
H2003 N1997 0.985 . S
H2004 N2001 0.984 . S
H2005 N2001 0.985 . S
H2006 N2000 0.984 . S
H2007 N2000 0.984 . S
H2008 N1996 0.984 . S
H2009 N1996 0.985 . S
C2010 C2011 1.363 . S
C2010 C2016 1.379 . S
C2010 N2018 1.356 . S
C2011 C2010 1.363 . S
C2011 C2017 1.363 . S
C2012 C2013 1.363 . S
C2012 C2017 1.379 . S
C2012 N2019 1.356 . S
C2013 C2012 1.363 . S
C2013 C2016 1.363 . S
N2014 C2016 1.356 . S
N2014 H2026 0.984 . S
N2014 H2027 0.985 . S
N2015 C2017 1.356 . S
N2015 H2020 0.984 . S
N2015 H2021 0.985 . S
C2016 C2010 1.379 . S
C2016 C2013 1.363 . S
C2016 N2014 1.356 . S
C2017 C2011 1.363 . S
C2017 C2012 1.379 . S
C2017 N2015 1.356 . S
N2018 C2010 1.356 . S
N2018 H2024 0.984 . S
N2018 H2025 0.984 . S
N2019 C2012 1.356 . S
N2019 H2022 0.984 . S
N2019 H2023 0.985 . S
H2020 N2015 0.984 . S
H2021 N2015 0.985 . S
H2022 N2019 0.984 . S
H2023 N2019 0.985 . S
H2024 N2018 0.984 . S
H2025 N2018 0.984 . S
H2026 N2014 0.984 . S
H2027 N2014 0.985 . S
C2028 C2029 1.363 . S
C2028 C2034 1.379 . S
C2028 N2036 1.356 . S
C2029 C2028 1.363 . S
C2029 C2035 1.363 . S
C2030 C2031 1.363 . S
C2030 C2035 1.379 . S
C2030 N2037 1.356 . S
C2031 C2030 1.363 . S
C2031 C2034 1.363 . S
N2032 C2034 1.356 . S
N2032 H2044 0.984 . S
N2032 H2045 0.985 . S
N2033 C2035 1.356 . S
N2033 H2038 0.984 . S
N2033 H2039 0.985 . S
C2034 C2028 1.379 . S
C2034 C2031 1.363 . S
C2034 N2032 1.356 . S
C2035 C2029 1.363 . S
C2035 C2030 1.379 . S
C2035 N2033 1.356 . S
N2036 C2028 1.356 . S
N2036 H2042 0.984 . S
N2036 H2043 0.984 . S
N2037 C2030 1.356 . S
N2037 H2040 0.984 . S
N2037 H2041 0.985 . S
H2038 N2033 0.984 . S
H2039 N2033 0.985 . S
H2040 N2037 0.984 . S
H2041 N2037 0.985 . S
H2042 N2036 0.984 . S
H2043 N2036 0.984 . S
H2044 N2032 0.984 . S
H2045 N2032 0.985 . S
C2046 C2047 1.363 . S
C2046 C2052 1.379 . S
C2046 N2054 1.356 . S
C2047 C2046 1.363 . S
C2047 C2053 1.363 . S
C2048 C2049 1.363 . S
C2048 C2053 1.379 . S
C2048 N2055 1.356 . S
C2049 C2048 1.363 . S
C2049 C2052 1.363 . S
N2050 C2052 1.356 . S
N2050 H2062 0.984 . S
N2050 H2063 0.985 . S
N2051 C2053 1.356 . S
N2051 H2056 0.984 . S
N2051 H2057 0.985 . S
C2052 C2046 1.379 . S
C2052 C2049 1.363 . S
C2052 N2050 1.356 . S
C2053 C2047 1.363 . S
C2053 C2048 1.379 . S
C2053 N2051 1.356 . S
N2054 C2046 1.356 . S
N2054 H2060 0.984 . S
N2054 H2061 0.984 . S
N2055 C2048 1.356 . S
N2055 H2058 0.984 . S
N2055 H2059 0.985 . S
H2056 N2051 0.984 . S
H2057 N2051 0.985 . S
H2058 N2055 0.984 . S
H2059 N2055 0.985 . S
H2060 N2054 0.984 . S
H2061 N2054 0.984 . S
H2062 N2050 0.984 . S
H2063 N2050 0.985 . S
C2064 C2065 1.363 . S
C2064 C2070 1.374 1_565 S
C2064 N2072 1.356 . S
C2065 C2064 1.363 . S
C2065 C2071 1.363 1_565 S
C2066 C2067 1.363 . S
C2066 C2071 1.379 . S
C2066 N2073 1.356 . S
C2067 C2066 1.363 . S
C2067 C2070 1.369 . S
N2068 C2070 1.357 . S
N2068 H2080 0.984 1_545 S
N2068 H2081 0.985 . S
N2069 C2071 1.356 . S
N2069 H2074 0.984 1_545 S
N2069 H2075 0.985 . S
C2070 C2064 1.374 1_545 S
C2070 C2067 1.369 . S
C2070 N2068 1.357 . S
C2071 C2065 1.363 1_545 S
C2071 C2066 1.379 . S
C2071 N2069 1.356 . S
N2072 C2064 1.356 . S
N2072 H2078 0.984 . S
N2072 H2079 0.984 . S
N2073 C2066 1.356 . S
N2073 H2076 0.984 . S
N2073 H2077 0.985 . S
H2074 N2069 0.984 1_565 S
H2075 N2069 0.985 . S
H2076 N2073 0.984 . S
H2077 N2073 0.985 . S
H2078 N2072 0.984 . S
H2079 N2072 0.984 . S
H2080 N2068 0.984 1_565 S
H2081 N2068 0.985 . S
C2082 C2083 1.363 . S
C2082 C2088 1.379 . S
C2082 N2090 1.356 . S
C2083 C2082 1.363 . S
C2083 C2089 1.363 . S
C2084 C2085 1.363 . S
C2084 C2089 1.379 . S
C2084 N2091 1.356 . S
C2085 C2084 1.363 . S
C2085 C2088 1.363 . S
N2086 C2088 1.356 . S
N2086 H2098 0.984 . S
N2086 H2099 0.985 . S
N2087 C2089 1.356 . S
N2087 H2092 0.984 . S
N2087 H2093 0.985 . S
C2088 C2082 1.379 . S
C2088 C2085 1.363 . S
C2088 N2086 1.356 . S
C2089 C2083 1.363 . S
C2089 C2084 1.379 . S
C2089 N2087 1.356 . S
N2090 C2082 1.356 . S
N2090 H2096 0.984 . S
N2090 H2097 0.984 . S
N2091 C2084 1.356 . S
N2091 H2094 0.984 . S
N2091 H2095 0.985 . S
H2092 N2087 0.984 . S
H2093 N2087 0.985 . S
H2094 N2091 0.984 . S
H2095 N2091 0.985 . S
H2096 N2090 0.984 . S
H2097 N2090 0.984 . S
H2098 N2086 0.984 . S
H2099 N2086 0.985 . S
C2100 C2101 1.363 1_556 S
C2100 C2106 1.385 . S
C2100 N2108 1.356 . S
C2101 C2100 1.363 1_554 S
C2101 C2107 1.360 1_565 S
C2102 C2103 1.363 1_554 S
C2102 C2107 1.381 . S
C2102 N2109 1.356 . S
C2103 C2102 1.363 1_556 S
C2103 C2106 1.356 1_545 S
N2104 C2106 1.354 1_545 S
N2104 H2116 0.984 1_545 S
N2104 H2117 0.985 . S
N2105 C2107 1.355 1_565 S
N2105 H2110 0.984 . S
N2105 H2111 0.985 1_565 S
C2106 C2100 1.385 . S
C2106 C2103 1.356 1_565 S
C2106 N2104 1.354 1_565 S
C2107 C2101 1.360 1_545 S
C2107 C2102 1.381 . S
C2107 N2105 1.355 1_545 S
N2108 C2100 1.356 . S
N2108 H2114 0.984 . S
N2108 H2115 0.984 1_556 S
N2109 C2102 1.356 . S
N2109 H2112 0.984 1_554 S
N2109 H2113 0.985 . S
H2110 N2105 0.984 . S
H2111 N2105 0.985 1_545 S
H2112 N2109 0.984 1_556 S
H2113 N2109 0.985 . S
H2114 N2108 0.984 . S
H2115 N2108 0.984 1_554 S
H2116 N2104 0.984 1_565 S
H2117 N2104 0.985 . S
C2118 C2119 1.363 . S
C2118 C2124 1.379 . S
C2118 N2126 1.356 . S
C2119 C2118 1.363 . S
C2119 C2125 1.363 . S
C2120 C2121 1.363 . S
C2120 C2125 1.379 . S
C2120 N2127 1.356 . S
C2121 C2120 1.363 . S
C2121 C2124 1.363 . S
N2122 C2124 1.356 . S
N2122 H2134 0.984 . S
N2122 H2135 0.985 . S
N2123 C2125 1.356 . S
N2123 H2128 0.984 . S
N2123 H2129 0.985 . S
C2124 C2118 1.379 . S
C2124 C2121 1.363 . S
C2124 N2122 1.356 . S
C2125 C2119 1.363 . S
C2125 C2120 1.379 . S
C2125 N2123 1.356 . S
N2126 C2118 1.356 . S
N2126 H2132 0.984 . S
N2126 H2133 0.984 . S
N2127 C2120 1.356 . S
N2127 H2130 0.984 . S
N2127 H2131 0.985 . S
H2128 N2123 0.984 . S
H2129 N2123 0.985 . S
H2130 N2127 0.984 . S
H2131 N2127 0.985 . S
H2132 N2126 0.984 . S
H2133 N2126 0.984 . S
H2134 N2122 0.984 . S
H2135 N2122 0.985 . S
C2136 C2137 1.363 . S
C2136 C2142 1.379 1_565 S
C2136 N2144 1.356 . S
C2137 C2136 1.363 . S
C2137 C2143 1.363 . S
C2138 C2139 1.363 1_565 S
C2138 C2143 1.379 . S
C2138 N2145 1.356 1_565 S
C2139 C2138 1.363 1_545 S
C2139 C2142 1.363 . S
N2140 C2142 1.356 . S
N2140 H2152 0.984 . S
N2140 H2153 0.985 . S
N2141 C2143 1.356 . S
N2141 H2146 0.984 . S
N2141 H2147 0.985 . S
C2142 C2136 1.379 1_545 S
C2142 C2139 1.363 . S
C2142 N2140 1.356 . S
C2143 C2137 1.363 . S
C2143 C2138 1.379 . S
C2143 N2141 1.356 . S
N2144 C2136 1.356 . S
N2144 H2150 1.001 . S
N2144 H2151 0.984 . S
N2145 C2138 1.356 1_545 S
N2145 H2148 0.984 . S
N2145 H2149 0.985 1_545 S
H2146 N2141 0.984 . S
H2147 N2141 0.985 . S
H2148 N2145 0.984 . S
H2149 N2145 0.985 1_565 S
H2150 N2144 1.001 . S
H2151 N2144 0.984 . S
H2152 N2140 0.984 . S
H2153 N2140 0.985 . S
C2154 C2155 1.363 . S
C2154 C2160 1.379 . S
C2154 N2162 1.356 . S
C2155 C2154 1.363 . S
C2155 C2161 1.363 . S
C2156 C2157 1.363 . S
C2156 C2161 1.379 . S
C2156 N2163 1.356 . S
C2157 C2156 1.363 . S
C2157 C2160 1.363 . S
N2158 C2160 1.356 . S
N2158 H2170 0.984 . S
N2158 H2171 0.985 . S
N2159 C2161 1.356 . S
N2159 H2164 0.984 . S
N2159 H2165 0.985 . S
C2160 C2154 1.379 . S
C2160 C2157 1.363 . S
C2160 N2158 1.356 . S
C2161 C2155 1.363 . S
C2161 C2156 1.379 . S
C2161 N2159 1.356 . S
N2162 C2154 1.356 . S
N2162 H2168 0.984 . S
N2162 H2169 0.984 . S
N2163 C2156 1.356 . S
N2163 H2166 0.984 . S
N2163 H2167 0.985 . S
H2164 N2159 0.984 . S
H2165 N2159 0.985 . S
H2166 N2163 0.984 . S
H2167 N2163 0.985 . S
H2168 N2162 0.984 . S
H2169 N2162 0.984 . S
H2170 N2158 0.984 . S
H2171 N2158 0.985 . S
C2172 C2173 1.363 1_554 S
C2172 C2178 1.372 1_545 S
C2172 N2180 1.356 . S
C2173 C2172 1.363 1_556 S
C2173 C2179 1.363 1_545 S
C2174 C2175 1.363 1_556 S
C2174 C2179 1.379 . S
C2174 N2181 1.356 . S
C2175 C2174 1.363 1_554 S
C2175 C2178 1.370 . S
N2176 C2178 1.358 . S
N2176 H2188 0.984 1_565 S
N2176 H2189 0.985 . S
N2177 C2179 1.356 . S
N2177 H2182 0.984 1_565 S
N2177 H2183 0.985 . S
C2178 C2172 1.372 1_565 S
C2178 C2175 1.370 . S
C2178 N2176 1.358 . S
C2179 C2173 1.363 1_565 S
C2179 C2174 1.379 . S
C2179 N2177 1.356 . S
N2180 C2172 1.356 . S
N2180 H2186 0.984 . S
N2180 H2187 0.984 1_554 S
N2181 C2174 1.356 . S
N2181 H2184 0.984 1_556 S
N2181 H2185 0.985 . S
H2182 N2177 0.984 1_545 S
H2183 N2177 0.985 . S
H2184 N2181 0.984 1_554 S
H2185 N2181 0.985 . S
H2186 N2180 0.984 . S
H2187 N2180 0.984 1_556 S
H2188 N2176 0.984 1_545 S
H2189 N2176 0.985 . S
C2190 C2191 1.363 . S
C2190 C2196 1.379 . S
C2190 N2198 1.356 . S
C2191 C2190 1.363 . S
C2191 C2197 1.363 . S
C2192 C2193 1.363 . S
C2192 C2197 1.379 . S
C2192 N2199 1.356 . S
C2193 C2192 1.363 . S
C2193 C2196 1.363 . S
N2194 C2196 1.356 . S
N2194 H2206 0.984 . S
N2194 H2207 0.985 . S
N2195 C2197 1.356 . S
N2195 H2200 0.984 . S
N2195 H2201 0.985 . S
C2196 C2190 1.379 . S
C2196 C2193 1.363 . S
C2196 N2194 1.356 . S
C2197 C2191 1.363 . S
C2197 C2192 1.379 . S
C2197 N2195 1.356 . S
N2198 C2190 1.356 . S
N2198 H2204 0.984 . S
N2198 H2205 0.984 . S
N2199 C2192 1.356 . S
N2199 H2202 0.984 . S
N2199 H2203 0.985 . S
H2200 N2195 0.984 . S
H2201 N2195 0.985 . S
H2202 N2199 0.984 . S
H2203 N2199 0.985 . S
H2204 N2198 0.984 . S
H2205 N2198 0.984 . S
H2206 N2194 0.984 . S
H2207 N2194 0.985 . S
C1345 C70 1.388 . S
C1347 C58 1.388 . S
C1363 C154 1.357 . S
C1365 C142 1.357 . S
C1381 C238 1.354 . S
C1383 C226 1.354 . S
C1399 C310 1.367 . S
C1401 C322 1.367 . S
C1417 C394 1.363 . S
C1419 C406 1.363 . S
C1435 C490 1.362 . S
C1437 C478 1.362 . S
C1453 C574 1.374 . S
C1455 C562 1.374 . S
C1471 C646 1.389 . S
C1473 C658 1.389 . S
C1489 C742 1.398 . S
C1491 C730 1.398 . S
C1507 C826 1.360 . S
C1509 C814 1.360 . S
C1525 C898 1.358 . S
C1527 C910 1.358 . S
C1543 C994 1.370 . S
C1545 C982 1.370 . S
C1561 C1078 1.363 . S
C1563 C1066 1.363 . S
C1579 C1150 1.360 . S
C1581 C1162 1.360 . S
C1597 C1234 1.367 . S
C1599 C1246 1.367 . S
C1615 C1330 1.387 . S
C1617 C1318 1.387 . S
C1633 C56 1.824 . S
C1635 C991 1.823 . S
C1651 C140 1.769 . S
C1653 C1323 1.697 . S
C1669 C224 1.837 . S
C1671 C819 1.759 . S
C1687 C326 1.734 . S
C1689 C1159 1.812 . S
C1705 C410 1.706 . S
C1707 C1155 1.707 . S
C1723 C987 1.681 . S
C1725 C494 1.681 . S
C1741 C560 1.876 . S
C1743 C1327 1.875 . S
C1759 C662 1.746 . S
C1761 C823 1.821 . S
C1777 C308 1.798 . S
C1779 C735 1.723 . S
C1795 C158 1.696 . S
C1797 C903 1.702 . S
C1813 C1071 1.720 . S
C1815 C476 1.796 . S
C1831 C644 1.836 . S
C1833 C1243 1.829 . S
C1849 C739 1.854 . S
C1851 C392 1.848 . S
C1867 C578 1.744 . S
C1869 C907 1.819 . S
C1885 C242 1.725 . S
C1887 C1239 1.719 . S
C1903 C74 1.740 . S
C1905 C1075 1.816 . S
C1921 C67 1.519 . S
C1923 C399 1.633 . S
C1939 C151 1.549 . S
C1941 C483 1.665 . S
C1957 C235 1.605 . S
C1959 C571 1.594 . S
C1975 C315 1.654 . S
C1977 C651 1.645 . S
C1993 C1082 1.642 . S
C1995 C746 1.632 . S
C2011 C1148 1.593 . S
C2013 C812 1.590 . S
C2029 C914 1.689 . S
C2031 C1232 1.567 . S
C2047 C1334 1.594 . S
C2049 C998 1.597 . S
C2065 C147 1.645 . S
C2067 C655 1.524 . S
C2083 C403 1.595 . S
C2085 C231 1.715 . S
C2101 C487 1.557 . S
C2103 C319 1.547 . S
C2119 C63 1.634 . S
C2121 C567 1.641 . S
C2137 C1316 1.568 . S
C2139 C830 1.690 . S
C2155 C1064 1.575 . S
C2157 C896 1.583 . S
C2173 C1166 1.681 . S
C2175 C980 1.553 . S
C2191 C1250 1.646 . S
C2193 C728 1.535 . S
