# Generated by pormake.
# Topology cag, (4)-cn, num edge types: 1
# Building blocks:
#     Node 0, Type 0, BuildingBlock: QUQFOY_clean_sbu_1, # of connection points: 4
#     Node 1, Type 0, BuildingBlock: QUQFOY_clean_sbu_1, # of connection points: 4
#     Node 2, Type 0, BuildingBlock: QUQFOY_clean_sbu_1, # of connection points: 4
#     Node 3, Type 0, BuildingBlock: QUQFOY_clean_sbu_1, # of connection points: 4
#     Node 4, Type 0, BuildingBlock: QUQFOY_clean_sbu_1, # of connection points: 4
#     Node 5, Type 0, BuildingBlock: QUQFOY_clean_sbu_1, # of connection points: 4
#     Node 6, Type 0, BuildingBlock: QUQFOY_clean_sbu_1, # of connection points: 4
#     Node 7, Type 0, BuildingBlock: QUQFOY_clean_sbu_1, # of connection points: 4
#     Node 8, Type 0, BuildingBlock: QUQFOY_clean_sbu_1, # of connection points: 4
#     Node 9, Type 0, BuildingBlock: QUQFOY_clean_sbu_1, # of connection points: 4
#     Node 10, Type 0, BuildingBlock: QUQFOY_clean_sbu_1, # of connection points: 4
#     Node 11, Type 0, BuildingBlock: QUQFOY_clean_sbu_1, # of connection points: 4
#     Node 12, Type 0, BuildingBlock: QUQFOY_clean_sbu_1, # of connection points: 4
#     Node 13, Type 0, BuildingBlock: QUQFOY_clean_sbu_1, # of connection points: 4
#     Node 14, Type 0, BuildingBlock: QUQFOY_clean_sbu_1, # of connection points: 4
#     Node 15, Type 0, BuildingBlock: QUQFOY_clean_sbu_1, # of connection points: 4
#     Edge 16, Type (0, 0), BuildingBlock: XIVTED_clean_linker_0, # of connection points: 2
#     Edge 17, Type (0, 0), BuildingBlock: XIVTED_clean_linker_0, # of connection points: 2
#     Edge 18, Type (0, 0), BuildingBlock: XIVTED_clean_linker_0, # of connection points: 2
#     Edge 19, Type (0, 0), BuildingBlock: XIVTED_clean_linker_0, # of connection points: 2
#     Edge 20, Type (0, 0), BuildingBlock: XIVTED_clean_linker_0, # of connection points: 2
#     Edge 21, Type (0, 0), BuildingBlock: XIVTED_clean_linker_0, # of connection points: 2
#     Edge 22, Type (0, 0), BuildingBlock: XIVTED_clean_linker_0, # of connection points: 2
#     Edge 23, Type (0, 0), BuildingBlock: XIVTED_clean_linker_0, # of connection points: 2
#     Edge 24, Type (0, 0), BuildingBlock: XIVTED_clean_linker_0, # of connection points: 2
#     Edge 25, Type (0, 0), BuildingBlock: XIVTED_clean_linker_0, # of connection points: 2
#     Edge 26, Type (0, 0), BuildingBlock: XIVTED_clean_linker_0, # of connection points: 2
#     Edge 27, Type (0, 0), BuildingBlock: XIVTED_clean_linker_0, # of connection points: 2
#     Edge 28, Type (0, 0), BuildingBlock: XIVTED_clean_linker_0, # of connection points: 2
#     Edge 29, Type (0, 0), BuildingBlock: XIVTED_clean_linker_0, # of connection points: 2
#     Edge 30, Type (0, 0), BuildingBlock: XIVTED_clean_linker_0, # of connection points: 2
#     Edge 31, Type (0, 0), BuildingBlock: XIVTED_clean_linker_0, # of connection points: 2
#     Edge 32, Type (0, 0), BuildingBlock: XIVTED_clean_linker_0, # of connection points: 2
#     Edge 33, Type (0, 0), BuildingBlock: XIVTED_clean_linker_0, # of connection points: 2
#     Edge 34, Type (0, 0), BuildingBlock: XIVTED_clean_linker_0, # of connection points: 2
#     Edge 35, Type (0, 0), BuildingBlock: XIVTED_clean_linker_0, # of connection points: 2
#     Edge 36, Type (0, 0), BuildingBlock: XIVTED_clean_linker_0, # of connection points: 2
#     Edge 37, Type (0, 0), BuildingBlock: XIVTED_clean_linker_0, # of connection points: 2
#     Edge 38, Type (0, 0), BuildingBlock: XIVTED_clean_linker_0, # of connection points: 2
#     Edge 39, Type (0, 0), BuildingBlock: XIVTED_clean_linker_0, # of connection points: 2
#     Edge 40, Type (0, 0), BuildingBlock: XIVTED_clean_linker_0, # of connection points: 2
#     Edge 41, Type (0, 0), BuildingBlock: XIVTED_clean_linker_0, # of connection points: 2
#     Edge 42, Type (0, 0), BuildingBlock: XIVTED_clean_linker_0, # of connection points: 2
#     Edge 43, Type (0, 0), BuildingBlock: XIVTED_clean_linker_0, # of connection points: 2
#     Edge 44, Type (0, 0), BuildingBlock: XIVTED_clean_linker_0, # of connection points: 2
#     Edge 45, Type (0, 0), BuildingBlock: XIVTED_clean_linker_0, # of connection points: 2
#     Edge 46, Type (0, 0), BuildingBlock: XIVTED_clean_linker_0, # of connection points: 2
#     Edge 47, Type (0, 0), BuildingBlock: XIVTED_clean_linker_0, # of connection points: 2
# Relax obj value: 0.136
# Max RMSD: 0.200
# Mean RMSD: 0.178
data_MOF--net-cag--node1-QUQFOY_clean_sbu_1--edge1-XIVTED_clean_linker_0
_symmetry_space_group_name_H-M    P1
_symmetry_Int_Tables_number       1
_symmetry_cell_setting            triclinic
loop_
_symmetry_equiv_pos_as_xyz
'x, y, z'
_cell_length_a     42.109417
_cell_length_b     56.444793
_cell_length_c     42.439353
_cell_angle_alpha  89.916484
_cell_angle_beta   90.059985
_cell_angle_gamma 90.05688
loop_
_atom_site_label
_atom_site_type_symbol
_atom_site_fract_x
_atom_site_fract_y
_atom_site_fract_z
_atom_type_partial_charge
O0 O 0.28658 0.14167 0.10506 0.0
Cd1 Cd 0.29945 0.14293 0.05828 0.0
Cd2 Cd 0.29005 0.09384 0.06428 0.0
O3 O 0.27348 0.10392 0.10728 0.0
O4 O 0.30268 0.17758 0.05187 0.0
O5 O 0.26854 0.15518 0.02583 0.0
C6 C 0.28004 0.17594 0.03163 0.0
C7 C 0.26265 0.06278 0.04052 0.0
C8 C 0.27568 0.12407 0.12021 0.0
C9 C 0.35573 0.11111 0.04922 0.0
O10 O 0.33851 0.09385 0.058 0.0
O11 O 0.34407 0.13168 0.04588 0.0
O12 O 0.27972 0.05963 0.06532 0.0
O13 O 0.2609 0.0839 0.02891 0.0
O14 O 0.20813 0.84284 0.60834 0.0
Cd15 Cd 0.19025 0.84224 0.56313 0.0
Cd16 Cd 0.19982 0.89153 0.56902 0.0
O17 O 0.22287 0.88029 0.60854 0.0
O18 O 0.1869 0.80778 0.55552 0.0
O19 O 0.21817 0.83124 0.52757 0.0
C20 C 0.20754 0.81021 0.53341 0.0
C21 C 0.2227 0.92394 0.54373 0.0
C22 C 0.22192 0.86012 0.62167 0.0
C23 C 0.13314 0.87386 0.56049 0.0
O24 O 0.15089 0.89098 0.56861 0.0
O25 O 0.14468 0.85353 0.555 0.0
O26 O 0.20919 0.92591 0.57076 0.0
O27 O 0.22351 0.90326 0.53079 0.0
O28 O 0.28961 0.83732 0.86366 0.0
Cd29 Cd 0.30207 0.83572 0.91057 0.0
Cd30 Cd 0.29382 0.88448 0.90684 0.0
O31 O 0.27915 0.87553 0.86268 0.0
O32 O 0.30164 0.80122 0.91858 0.0
O33 O 0.2698 0.82627 0.94318 0.0
C34 C 0.27917 0.80477 0.93856 0.0
C35 C 0.26572 0.91539 0.93007 0.0
C36 C 0.28036 0.85564 0.84896 0.0
C37 C 0.35899 0.86642 0.92235 0.0
O38 O 0.34193 0.88415 0.91514 0.0
O39 O 0.34721 0.84572 0.9234 0.0
O40 O 0.28404 0.91878 0.90628 0.0
O41 O 0.26318 0.89414 0.94108 0.0
O42 O 0.21375 0.15247 0.36119 0.0
Cd43 Cd 0.19389 0.15735 0.40464 0.0
Cd44 Cd 0.1953 0.10728 0.40684 0.0
O45 O 0.21357 0.11346 0.36282 0.0
O46 O 0.19689 0.19207 0.40973 0.0
O47 O 0.22057 0.16679 0.44195 0.0
C48 C 0.21462 0.18844 0.43397 0.0
C49 C 0.21719 0.07403 0.4312 0.0
C50 C 0.2194 0.13267 0.34838 0.0
C51 C 0.13194 0.13152 0.41305 0.0
O52 O 0.14732 0.11219 0.41385 0.0
O53 O 0.14618 0.15113 0.40915 0.0
O54 O 0.19873 0.07228 0.40719 0.0
O55 O 0.22312 0.09491 0.44207 0.0
O56 O 0.67219 0.82453 0.91475 0.0
Cd57 Cd 0.65467 0.85366 0.89078 0.0
Cd58 Cd 0.66053 0.87404 0.94714 0.0
O59 O 0.68536 0.84401 0.95772 0.0
O60 O 0.66055 0.84504 0.84598 0.0
O61 O 0.685 0.87546 0.86836 0.0
C62 C 0.68043 0.86234 0.84384 0.0
C63 C 0.68237 0.9103 0.96098 0.0
C64 C 0.6854 0.82509 0.94165 0.0
C65 C 0.59485 0.86869 0.92186 0.0
O66 O 0.6117 0.87232 0.9462 0.0
O67 O 0.60767 0.86271 0.896 0.0
O68 O 0.67061 0.89622 0.98187 0.0
O69 O 0.68224 0.90354 0.9319 0.0
O70 O 0.81275 0.16843 0.40915 0.0
Cd71 Cd 0.83245 0.14137 0.38358 0.0
Cd72 Cd 0.8304 0.11811 0.43956 0.0
O73 O 0.80731 0.14845 0.45342 0.0
O74 O 0.8247 0.15128 0.33954 0.0
O75 O 0.8044 0.11851 0.36008 0.0
C76 C 0.80689 0.13285 0.33645 0.0
C77 C 0.80952 0.08216 0.45659 0.0
C78 C 0.80349 0.1673 0.43752 0.0
C79 C 0.89468 0.12706 0.41086 0.0
O80 O 0.87906 0.11896 0.4341 0.0
O81 O 0.88047 0.13638 0.38755 0.0
O82 O 0.82376 0.09635 0.47568 0.0
O83 O 0.80663 0.08855 0.42748 0.0
O84 O 0.66422 0.16134 0.07281 0.0
Cd85 Cd 0.64786 0.13123 0.09543 0.0
Cd86 Cd 0.65792 0.11198 0.03906 0.0
O87 O 0.68179 0.14285 0.03069 0.0
O88 O 0.65035 0.13997 0.1405 0.0
O89 O 0.6791 0.11121 0.1195 0.0
C90 C 0.67196 0.12399 0.14371 0.0
C91 C 0.68181 0.07632 0.02609 0.0
C92 C 0.67933 0.1616 0.04694 0.0
C93 C 0.59089 0.11429 0.06092 0.0
O94 O 0.60909 0.11219 0.03728 0.0
O95 O 0.60204 0.11996 0.08768 0.0
O96 O 0.67094 0.09038 0.0047 0.0
O97 O 0.67985 0.08288 0.05519 0.0
O98 O 0.822 0.83172 0.57779 0.0
Cd99 Cd 0.8384 0.86121 0.60167 0.0
Cd100 Cd 0.8311 0.88125 0.54445 0.0
O101 O 0.80715 0.85058 0.53481 0.0
O102 O 0.83501 0.85111 0.64621 0.0
O103 O 0.80748 0.88103 0.62639 0.0
C104 C 0.81395 0.8674 0.65002 0.0
C105 C 0.80887 0.917 0.52871 0.0
C106 C 0.80835 0.83175 0.55111 0.0
C107 C 0.89719 0.87744 0.56957 0.0
O108 O 0.87996 0.88035 0.54531 0.0
O109 O 0.88485 0.87155 0.59572 0.0
O110 O 0.82069 0.9024 0.50858 0.0
O111 O 0.80898 0.911 0.55811 0.0
O112 O 0.77632 0.64777 0.12074 0.0
Cd113 Cd 0.79521 0.65027 0.07643 0.0
Cd114 Cd 0.79155 0.60104 0.07809 0.0
O115 O 0.77446 0.6088 0.12206 0.0
O116 O 0.79476 0.68484 0.06921 0.0
O117 O 0.76825 0.65972 0.03913 0.0
C118 C 0.77621 0.68128 0.04559 0.0
C119 C 0.76624 0.56923 0.05393 0.0
C120 C 0.77003 0.62868 0.1352 0.0
C121 C 0.85596 0.62263 0.06962 0.0
O122 O 0.83981 0.60364 0.07072 0.0
O123 O 0.8425 0.64266 0.0717 0.0
O124 O 0.78432 0.56641 0.07807 0.0
O125 O 0.76254 0.59039 0.04294 0.0
O126 O 0.71252 0.34167 0.62309 0.0
Cd127 Cd 0.69238 0.33833 0.57947 0.0
Cd128 Cd 0.69688 0.38813 0.57936 0.0
O129 O 0.71559 0.38063 0.62287 0.0
O130 O 0.69306 0.30363 0.57331 0.0
O131 O 0.71848 0.32857 0.54197 0.0
C132 C 0.7111 0.30703 0.54928 0.0
C133 C 0.72069 0.42043 0.55461 0.0
C134 C 0.71993 0.36092 0.63657 0.0
C135 C 0.63197 0.36631 0.57293 0.0
O136 O 0.64844 0.38517 0.57322 0.0
O137 O 0.64512 0.34617 0.57533 0.0
O138 O 0.70325 0.42288 0.57922 0.0
O139 O 0.72459 0.39936 0.54347 0.0
O140 O 0.78186 0.342 0.88006 0.0
Cd141 Cd 0.79808 0.33894 0.92541 0.0
Cd142 Cd 0.79747 0.38857 0.92265 0.0
O143 O 0.7834 0.38096 0.87761 0.0
O144 O 0.79728 0.30418 0.93075 0.0
O145 O 0.76891 0.32825 0.96048 0.0
C146 C 0.7773 0.30693 0.95333 0.0
C147 C 0.77133 0.42077 0.94475 0.0
C148 C 0.7782 0.36108 0.86472 0.0
C149 C 0.85976 0.36534 0.93586 0.0
O150 O 0.84488 0.38481 0.93343 0.0
O151 O 0.84526 0.34573 0.93319 0.0
O152 O 0.79145 0.42332 0.92222 0.0
O153 O 0.76616 0.39968 0.9554 0.0
O154 O 0.71322 0.65025 0.37939 0.0
Cd155 Cd 0.69604 0.65401 0.42424 0.0
Cd156 Cd 0.69633 0.60378 0.42252 0.0
O157 O 0.71192 0.61125 0.37788 0.0
O158 O 0.69709 0.68887 0.42864 0.0
O159 O 0.72431 0.66502 0.45987 0.0
C160 C 0.71636 0.68629 0.45191 0.0
C161 C 0.72003 0.57054 0.445 0.0
C162 C 0.71735 0.631 0.36465 0.0
C163 C 0.63399 0.62792 0.4337 0.0
O164 O 0.64877 0.60837 0.43195 0.0
O165 O 0.64865 0.64747 0.43104 0.0
O166 O 0.70057 0.56885 0.42176 0.0
O167 O 0.72605 0.59136 0.45606 0.0
O168 O 0.17624 0.32594 0.91685 0.0
Cd169 Cd 0.15605 0.3543 0.89417 0.0
Cd170 Cd 0.16269 0.37477 0.95114 0.0
O171 O 0.18637 0.34388 0.9618 0.0
O172 O 0.15897 0.34488 0.84938 0.0
O173 O 0.18338 0.37646 0.86856 0.0
C174 C 0.17772 0.36261 0.84499 0.0
C175 C 0.18549 0.41089 0.96421 0.0
C176 C 0.18792 0.32564 0.9444 0.0
C177 C 0.09635 0.36802 0.92702 0.0
O178 O 0.11371 0.37442 0.94998 0.0
O179 O 0.10871 0.36014 0.90187 0.0
O180 O 0.17372 0.39711 0.98545 0.0
O181 O 0.18518 0.40376 0.93527 0.0
O182 O 0.31701 0.66646 0.40958 0.0
Cd183 Cd 0.33808 0.63839 0.38725 0.0
Cd184 Cd 0.33088 0.61726 0.44395 0.0
O185 O 0.30622 0.64781 0.45392 0.0
O186 O 0.3349 0.64735 0.34229 0.0
O187 O 0.31114 0.6157 0.36219 0.0
C188 C 0.31638 0.62942 0.33835 0.0
C189 C 0.30875 0.5812 0.45859 0.0
C190 C 0.30459 0.66623 0.43679 0.0
C191 C 0.3975 0.62502 0.42085 0.0
O192 O 0.37988 0.61822 0.44339 0.0
O193 O 0.38543 0.63303 0.39557 0.0
O194 O 0.3203 0.59558 0.4792 0.0
O195 O 0.30907 0.5876 0.42934 0.0
O196 O 0.17369 0.66386 0.07073 0.0
Cd197 Cd 0.15576 0.63667 0.09749 0.0
Cd198 Cd 0.15688 0.6132 0.04209 0.0
O199 O 0.17843 0.64378 0.02655 0.0
O200 O 0.16373 0.64782 0.14094 0.0
O201 O 0.18525 0.61516 0.12161 0.0
C202 C 0.18243 0.62998 0.14461 0.0
C203 C 0.17955 0.57729 0.0278 0.0
C204 C 0.18207 0.66279 0.04208 0.0
C205 C 0.09321 0.62087 0.07222 0.0
O206 O 0.10832 0.61301 0.04855 0.0
O207 O 0.10788 0.63054 0.09497 0.0
O208 O 0.16443 0.59018 0.00769 0.0
O209 O 0.18226 0.58502 0.05632 0.0
O210 O 0.31278 0.32876 0.57281 0.0
Cd211 Cd 0.33167 0.35539 0.59986 0.0
Cd212 Cd 0.33156 0.37934 0.54396 0.0
O213 O 0.30959 0.34896 0.52848 0.0
O214 O 0.32405 0.34361 0.6431 0.0
O215 O 0.30313 0.37691 0.62498 0.0
C216 C 0.30597 0.36168 0.64755 0.0
C217 C 0.31053 0.41528 0.5272 0.0
C218 C 0.30498 0.33003 0.54398 0.0
C219 C 0.39475 0.37052 0.57485 0.0
O220 O 0.37998 0.37889 0.55123 0.0
O221 O 0.37974 0.36075 0.59731 0.0
O222 O 0.32573 0.40158 0.50824 0.0
O223 O 0.30681 0.40839 0.55601 0.0
H224 H 0.23592 0.17943 0.98404 0.0
H225 H 0.22378 0.32012 -0.00235 0.0
H226 H 0.29492 0.22162 0.04554 0.0
H227 H 0.18547 0.28123 0.91868 0.0
H228 H 0.24691 0.28347 0.01777 0.0
H229 H 0.21404 0.21604 0.96158 0.0
C230 C 0.24433 0.19636 0.99272 0.0
C231 C 0.26723 0.19751 0.01668 0.0
C232 C 0.23355 0.28298 -0.00403 0.0
C233 C 0.24225 0.23922 0.99142 0.0
C234 C 0.22027 0.30388 0.98452 0.0
C235 C 0.2027 0.30373 0.95645 0.0
C236 C 0.22895 0.26171 0.97942 0.0
C237 C 0.19896 0.28216 0.94038 0.0
C238 C 0.2319 0.21719 0.97988 0.0
C239 C 0.27733 0.21988 0.02708 0.0
N240 N 0.21184 0.26196 0.95219 0.0
N241 N 0.26464 0.23982 0.01451 0.0
H242 H 0.30594 0.71106 0.41199 0.0
H243 H 0.19174 0.76417 0.5441 0.0
H244 H 0.26699 0.67019 0.48892 0.0
H245 H 0.25023 0.8083 0.48449 0.0
H246 H 0.21359 0.7292 0.51876 0.0
H247 H 0.28049 0.74652 0.43338 0.0
C248 C 0.29193 0.70951 0.43328 0.0
C249 C 0.28865 0.68765 0.44879 0.0
C250 C 0.22162 0.74651 0.51114 0.0
C251 C 0.25947 0.72804 0.47316 0.0
C252 C 0.20908 0.76653 0.52552 0.0
C253 C 0.21935 0.7892 0.51651 0.0
C254 C 0.24452 0.74911 0.48743 0.0
C255 C 0.24179 0.79113 0.49223 0.0
C256 C 0.27752 0.72976 0.44548 0.0
C257 C 0.27029 0.68668 0.47629 0.0
N258 N 0.25373 0.77128 0.47853 0.0
N259 N 0.25637 0.70659 0.48757 0.0
H260 H 0.23693 0.80533 0.98791 0.0
H261 H 0.21187 0.66511 0.98501 0.0
H262 H 0.28767 0.75802 0.92597 0.0
H263 H 0.18392 0.70837 0.06412 0.0
H264 H 0.23499 0.70003 0.96006 0.0
H265 H 0.2126 0.7708 0.0136 0.0
C266 C 0.24294 0.78772 0.97975 0.0
C267 C 0.26436 0.7845 0.95484 0.0
C268 C 0.22385 0.70187 0.98291 0.0
C269 C 0.23659 0.74519 0.98376 0.0
C270 C 0.21056 0.68196 -0.00288 0.0
C271 C 0.19604 0.68382 0.02673 0.0
C272 C 0.22236 0.72387 -0.00175 0.0
C273 C 0.19505 0.70613 0.04133 0.0
C274 C 0.22913 0.76807 -0.00557 0.0
C275 C 0.27137 0.76133 0.94517 0.0
N276 N 0.20797 0.72534 0.02689 0.0
N277 N 0.25742 0.74259 0.95956 0.0
H278 H 0.27874 0.32787 0.48518 0.0
H279 H 0.24875 0.18806 0.48926 0.0
H280 H 0.29956 0.28472 0.56676 0.0
H281 H 0.2106 0.23504 0.41833 0.0
H282 H 0.27061 0.22256 0.51696 0.0
H283 H 0.25669 0.29317 0.45901 0.0
C284 C 0.27864 0.3111 0.49761 0.0
C285 C 0.29098 0.3092 0.52821 0.0
C286 C 0.25737 0.22523 0.49537 0.0
C287 C 0.26586 0.26934 0.49832 0.0
C288 C 0.24497 0.20559 0.47955 0.0
C289 C 0.22785 0.20871 0.45148 0.0
C290 C 0.25277 0.24803 0.4828 0.0
C291 C 0.2236 0.23179 0.43992 0.0
C292 C 0.26599 0.29128 0.48268 0.0
C293 C 0.29019 0.28699 0.54318 0.0
N294 N 0.23605 0.25052 0.45557 0.0
N295 N 0.27793 0.26787 0.52803 0.0
H296 H 0.73526 0.68123 -0.00514 0.0
H297 H 0.72417 0.8224 0.99281 0.0
H298 H 0.78994 0.72774 0.05476 0.0
H299 H 0.68114 0.77912 0.92056 0.0
H300 H 0.74757 0.78714 0.01589 0.0
H301 H 0.71435 0.71613 0.96709 0.0
C302 C 0.74296 0.69872 0.00205 0.0
C303 C 0.7642 0.7016 0.02727 0.0
C304 C 0.73315 0.78527 -0.00509 0.0
C305 C 0.74045 0.74135 -0.00413 0.0
C306 C 0.71968 0.80544 0.98174 0.0
C307 C 0.70056 0.8037 0.95479 0.0
C308 C 0.72733 0.76304 0.98126 0.0
C309 C 0.69576 0.78123 0.94138 0.0
C310 C 0.73107 0.71858 0.98621 0.0
C311 C 0.77348 0.72463 0.0356 0.0
N312 N 0.70891 0.76169 0.9549 0.0
N313 N 0.76144 0.74355 0.02006 0.0
H314 H 0.79987 0.21264 0.41449 0.0
H315 H 0.70266 0.26035 0.56274 0.0
H316 H 0.77346 0.16949 0.49444 0.0
H317 H 0.7472 0.30709 0.49529 0.0
H318 H 0.72388 0.22649 0.53445 0.0
H319 H 0.77631 0.24708 0.44047 0.0
C320 C 0.78902 0.21038 0.43743 0.0
C321 C 0.78868 0.18816 0.45237 0.0
C322 C 0.72904 0.24413 0.52578 0.0
C323 C 0.76171 0.2274 0.48204 0.0
C324 C 0.71686 0.26351 0.54188 0.0
C325 C 0.72328 0.2866 0.53141 0.0
C326 C 0.74771 0.24777 0.49886 0.0
C327 C 0.74179 0.28958 0.50421 0.0
C328 C 0.77569 0.23005 0.45224 0.0
C329 C 0.77438 0.18628 0.48209 0.0
N330 N 0.75341 0.27033 0.48882 0.0
N331 N 0.76144 0.20564 0.49591 0.0
H332 H 0.79229 0.2609 0.94272 0.0
H333 H 0.67284 0.20685 0.07013 0.0
H334 H 0.73276 0.30515 0.00087 0.0
H335 H 0.7199 0.1665 -0.0025 0.0
H336 H 0.69769 0.243 0.04937 0.0
H337 H 0.76953 0.22605 0.96735 0.0
C338 C 0.77442 0.26331 0.96078 0.0
C339 C 0.76424 0.28599 0.96961 0.0
C340 C 0.70251 0.22619 0.03809 0.0
C341 C 0.73788 0.24592 -0.00203 0.0
C342 C 0.68842 0.20558 0.04992 0.0
C343 C 0.69424 0.18364 0.03545 0.0
C344 C 0.72269 0.22471 0.01185 0.0
C345 C 0.71458 0.183 0.00935 0.0
C346 C 0.76137 0.24334 0.97482 0.0
C347 C 0.74116 0.28796 0.99331 0.0
N348 N 0.72805 0.2032 -0.00155 0.0
N349 N 0.72861 0.2681 0.00667 0.0
H350 H 0.81275 0.78647 0.57478 0.0
H351 H 0.704 0.73236 0.43823 0.0
H352 H 0.77149 0.82703 0.4987 0.0
H353 H 0.75721 0.68831 0.50264 0.0
H354 H 0.72536 0.76732 0.46379 0.0
H355 H 0.78964 0.7504 0.55212 0.0
C356 C 0.79877 0.78781 0.55342 0.0
C357 C 0.7941 0.8098 0.53855 0.0
C358 C 0.73244 0.75005 0.47242 0.0
C359 C 0.76768 0.76876 0.51271 0.0
C360 C 0.7202 0.73002 0.45785 0.0
C361 C 0.72895 0.70735 0.46824 0.0
C362 C 0.75365 0.74754 0.49772 0.0
C363 C 0.74994 0.70547 0.49384 0.0
C364 C 0.78569 0.76723 0.54049 0.0
C365 C 0.77585 0.8105 0.51092 0.0
N366 N 0.76166 0.72537 0.50775 0.0
N367 N 0.76333 0.79031 0.49895 0.0
H368 H 0.24128 0.05934 0.97965 0.0
H369 H 0.24218 0.91855 0.99016 0.0
H370 H 0.25099 0.01934 0.06584 0.0
H371 H 0.25456 0.95877 0.9045 0.0
H372 H 0.22745 0.95514 0.01751 0.0
H373 H 0.22812 0.02261 0.95184 0.0
C374 C 0.23991 0.04293 0.99284 0.0
C375 C 0.24801 0.04221 0.02486 0.0
C376 C 0.23277 0.95584 0.99257 0.0
C377 C 0.23318 0.00031 0.99337 0.0
C378 C 0.24108 0.93497 0.97697 0.0
C379 C 0.25035 0.93581 0.94529 0.0
C380 C 0.23372 0.97753 0.97624 0.0
C381 C 0.2483 0.95748 0.92918 0.0
C382 C 0.2325 0.02198 0.97698 0.0
C383 C 0.24563 0.02054 0.04093 0.0
N384 N 0.24066 0.97756 0.94494 0.0
N385 N 0.23891 0.00038 0.02492 0.0
H386 H 0.23543 0.96708 0.56948 0.0
H387 H 0.22318 0.0305 0.40473 0.0
H388 H 0.2363 0.92947 0.48103 0.0
H389 H 0.23945 0.06833 0.49154 0.0
H390 H 0.23584 0.99348 0.43143 0.0
H391 H 0.24506 0.00403 0.54126 0.0
C392 C 0.23814 0.96656 0.54411 0.0
C393 C 0.23443 0.94528 0.52745 0.0
C394 C 0.23716 0.00987 0.44461 0.0
C395 C 0.24507 0.98755 0.49499 0.0
C396 C 0.2298 0.03102 0.4294 0.0
C397 C 0.22968 0.05241 0.44617 0.0
C398 C 0.24387 0.01004 0.477 0.0
C399 C 0.23896 0.05215 0.47788 0.0
C400 C 0.24372 0.98768 0.52802 0.0
C401 C 0.23867 0.94555 0.49471 0.0
N402 N 0.24511 0.03118 0.49247 0.0
N403 N 0.24316 0.96647 0.47946 0.0
H404 H 0.69898 0.94737 0.92252 0.0
H405 H 0.69673 0.03925 0.06518 0.0
H406 H 0.69058 0.92752 0.02044 0.0
H407 H 0.69298 0.05927 0.96702 0.0
H408 H 0.70687 -0.0017 0.04938 0.0
H409 H 0.70903 0.98828 0.9387 0.0
C410 C 0.69975 0.95154 0.94742 0.0
C411 C 0.69338 0.93414 0.97016 0.0
C412 C 0.70428 0.01174 0.03132 0.0
C413 C 0.70467 0.98081 0.9888 0.0
C414 C 0.69859 0.03512 0.04033 0.0
C415 C 0.69343 0.05258 0.01737 0.0
C416 C 0.70475 0.00584 -0.00085 0.0
C417 C 0.6963 0.04627 0.98552 0.0
C418 C 0.70542 0.97489 0.95664 0.0
C419 C 0.69487 0.94047 0.0021 0.0
N420 N 0.70137 0.02336 0.97734 0.0
N421 N 0.69999 0.96335 0.01046 0.0
H422 H 0.8031 0.06719 0.51733 0.0
H423 H 0.79791 0.93196 0.46853 0.0
H424 H 0.79229 0.04361 0.42122 0.0
H425 H 0.7958 0.95586 0.56506 0.0
H426 H 0.78878 0.97253 0.45098 0.0
H427 H 0.7935 0.02683 0.53547 0.0
C428 C 0.79831 0.05354 0.50003 0.0
C429 C 0.79896 0.05866 0.46768 0.0
C430 C 0.78983 0.9689 0.47602 0.0
C431 C 0.78828 0.01233 0.48831 0.0
C432 C 0.79508 0.94572 0.48608 0.0
C433 C 0.79811 0.94061 0.51831 0.0
C434 C 0.78801 0.98717 0.49834 0.0
C435 C 0.79388 0.95906 0.53998 0.0
C436 C 0.79276 0.03049 0.51044 0.0
C437 C 0.79223 0.04037 0.44636 0.0
N438 N 0.78955 0.98161 0.52957 0.0
N439 N 0.78766 0.01791 0.45705 0.0
H440 H 0.76254 0.4637 0.91716 0.0
H441 H 0.7536 0.52648 0.08052 0.0
H442 H 0.74653 0.42579 0.00404 0.0
H443 H 0.74761 0.5644 0.9924 0.0
H444 H 0.74135 0.48975 0.05299 0.0
H445 H 0.74764 0.50047 0.9432 0.0
C446 C 0.75538 0.4631 0.94166 0.0
C447 C 0.75644 0.44183 0.95875 0.0
C448 C 0.74204 0.50612 0.03968 0.0
C449 C 0.73981 0.48388 0.98883 0.0
C450 C 0.74914 0.52709 0.05538 0.0
C451 C 0.7523 0.54834 0.03851 0.0
C452 C 0.73881 0.50634 0.00677 0.0
C453 C 0.74575 0.54829 0.00616 0.0
C454 C 0.74674 0.48409 0.9565 0.0
C455 C 0.74638 0.44191 0.99019 0.0
N456 N 0.74002 0.52746 0.99115 0.0
N457 N 0.73916 0.46276 0.00447 0.0
H458 H 0.73257 0.46329 0.58109 0.0
H459 H 0.72617 0.52731 0.41763 0.0
H460 H 0.73847 0.42569 0.49288 0.0
H461 H 0.74352 0.56447 0.50473 0.0
H462 H 0.73863 0.49002 0.44384 0.0
H463 H 0.74468 0.50014 0.55364 0.0
C464 C 0.73691 0.46278 0.55594 0.0
C465 C 0.73389 0.44156 0.53905 0.0
C466 C 0.74033 0.50633 0.45715 0.0
C467 C 0.74729 0.48371 0.5074 0.0
C468 C 0.73308 0.52762 0.44222 0.0
C469 C 0.73319 0.54889 0.45928 0.0
C470 C 0.74707 0.50625 0.48953 0.0
C471 C 0.74283 0.54839 0.49087 0.0
C472 C 0.74395 0.48382 0.54029 0.0
C473 C 0.74027 0.44176 0.50667 0.0
N474 N 0.74874 0.5273 0.5052 0.0
N475 N 0.74601 0.46265 0.49172 0.0
H476 H 0.2002 0.54127 0.06609 0.0
H477 H 0.19964 0.4479 0.92477 0.0
H478 H 0.18541 0.55957 0.96838 0.0
H479 H 0.19523 0.42871 0.02317 0.0
H480 H 0.20797 0.48923 0.94004 0.0
H481 H 0.21171 0.50048 0.0502 0.0
C482 C 0.19989 0.53681 0.04128 0.0
C483 C 0.19131 0.55369 0.01856 0.0
C484 C 0.20564 0.4759 0.95827 0.0
C485 C 0.20434 0.50721 0.00026 0.0
C486 C 0.20102 0.4523 0.94957 0.0
C487 C 0.19619 0.43494 0.97274 0.0
C488 C 0.20548 0.48209 0.99034 0.0
C489 C 0.19834 0.44161 0.00452 0.0
C490 C 0.20637 0.51353 0.03223 0.0
C491 C 0.19142 0.54699 0.98673 0.0
N492 N 0.20246 0.46471 0.0124 0.0
N493 N 0.19748 0.52422 0.97855 0.0
H494 H 0.29712 0.56541 0.51825 0.0
H495 H 0.30533 0.43095 0.46667 0.0
H496 H 0.29655 0.54273 0.42117 0.0
H497 H 0.29166 0.45314 0.56297 0.0
H498 H 0.29539 0.47142 0.44918 0.0
H499 H 0.28822 0.52454 0.53474 0.0
C500 C 0.29467 0.55185 0.50035 0.0
C501 C 0.29807 0.55739 0.46829 0.0
C502 C 0.2941 0.46742 0.47411 0.0
C503 C 0.28824 0.51051 0.48705 0.0
C504 C 0.29984 0.44431 0.48413 0.0
C505 C 0.29979 0.43878 0.51637 0.0
C506 C 0.28871 0.48523 0.49652 0.0
C507 C 0.29216 0.4567 0.53791 0.0
C508 C 0.28954 0.52851 0.50981 0.0
C509 C 0.29433 0.53919 0.44614 0.0
N510 N 0.28743 0.47924 0.52762 0.0
N511 N 0.29013 0.51648 0.45597 0.0
H512 H 0.54842 0.10008 0.10561 0.0
H513 H 0.39635 0.13637 0.01202 0.0
H514 H 0.55532 0.12028 0.00772 0.0
H515 H 0.39342 0.07902 0.07933 0.0
H516 H 0.45449 0.13409 0.01206 0.0
H517 H 0.49086 0.09573 0.09931 0.0
C518 C 0.5378 0.10353 0.0828 0.0
C519 C 0.5565 0.11062 0.05716 0.0
C520 C 0.44102 0.12181 0.02643 0.0
C521 C 0.49103 0.10598 0.04998 0.0
C522 C 0.40797 0.12312 0.02649 0.0
C523 C 0.39021 0.10789 0.04576 0.0
C524 C 0.45626 0.10561 0.04644 0.0
C525 C 0.40631 0.09102 0.06405 0.0
C526 C 0.50509 0.10088 0.07919 0.0
C527 C 0.54167 0.11473 0.02804 0.0
N528 N 0.43855 0.0906 0.0644 0.0
N529 N 0.50964 0.1127 0.02533 0.0
H530 H 0.93921 0.88863 0.61632 0.0
H531 H 0.09109 0.85025 0.52315 0.0
H532 H 0.93393 0.8719 0.51723 0.0
H533 H 0.0967 0.9047 0.59423 0.0
H534 H 0.03313 0.85388 0.52348 0.0
H535 H -0.00278 0.89069 0.61204 0.0
C536 C 0.95027 0.88549 0.59367 0.0
C537 C 0.93188 0.88003 0.56709 0.0
C538 C 0.04713 0.86517 0.53874 0.0
C539 C -0.0022 0.882 0.56223 0.0
C540 C 0.08008 0.86305 0.53868 0.0
C541 C 0.09855 0.87718 0.55873 0.0
C542 C 0.03263 0.88106 0.55961 0.0
C543 C 0.08322 0.89356 0.57833 0.0
C544 C 0.98324 0.8868 0.59124 0.0
C545 C 0.9473 0.87622 0.53826 0.0
N546 N 0.05101 0.89482 0.57866 0.0
N547 N 0.97949 0.87694 0.53667 0.0
H548 H 0.39884 0.83966 0.9586 0.0
H549 H 0.55401 0.88157 0.87505 0.0
H550 H 0.39719 0.89984 0.89577 0.0
H551 H 0.55698 0.86083 0.97292 0.0
H552 H 0.49595 0.88388 0.87828 0.0
H553 H 0.45694 0.84271 0.96115 0.0
C554 C 0.41072 0.85363 0.94561 0.0
C555 C 0.39336 0.86952 0.92693 0.0
C556 C 0.50943 0.87902 0.89906 0.0
C557 C 0.45931 0.87269 0.92915 0.0
C558 C 0.5424 0.87755 0.89719 0.0
C559 C 0.56013 0.87097 0.92376 0.0
C560 C 0.49419 0.87321 0.9274 0.0
C561 C 0.54406 0.86605 0.95197 0.0
C562 C 0.44371 0.85539 0.94716 0.0
C563 C 0.40977 0.88733 0.91056 0.0
N564 N 0.51184 0.86692 0.95296 0.0
N565 N 0.44197 0.88819 0.9116 0.0
H566 H 0.09105 0.16684 0.39654 0.0
H567 H 0.93343 0.09966 0.44784 0.0
H568 H 0.09324 0.09545 0.43327 0.0
H569 H 0.9355 0.15364 0.37565 0.0
H570 H 0.99164 0.10056 0.44968 0.0
H571 H 0.03316 0.16534 0.39647 0.0
C572 C 0.07936 0.1509 0.40483 0.0
C573 C 0.09698 0.13119 0.41483 0.0
C574 C 0.97924 0.1121 0.4334 0.0
C575 C 0.03079 0.12944 0.41481 0.0
C576 C 0.94612 0.11166 0.43237 0.0
C577 C 0.92967 0.12659 0.41153 0.0
C578 C -0.00416 0.12791 0.4139 0.0
C579 C 0.94724 0.14175 0.39195 0.0
C580 C 0.04634 0.15003 0.40458 0.0
C581 C 0.08054 0.11099 0.42521 0.0
N582 N 0.97939 0.14215 0.39379 0.0
N583 N 0.04826 0.11064 0.42502 0.0
H584 H 0.05301 0.64668 0.10886 0.0
H585 H 0.89353 0.58532 0.0514 0.0
H586 H 0.05383 0.59296 0.0365 0.0
H587 H 0.89789 0.6575 0.08477 0.0
H588 H 0.95185 0.58392 0.05195 0.0
H589 H 0.99509 0.64653 0.10748 0.0
C590 C 0.04101 0.63472 0.09284 0.0
C591 C 0.05823 0.61987 0.07266 0.0
C592 C 0.93988 0.60004 0.05897 0.0
C593 C 0.99204 0.6196 0.07108 0.0
C594 C 0.90673 0.60085 0.05872 0.0
C595 C 0.8909 0.62157 0.06803 0.0
C596 C 0.95709 0.61989 0.06921 0.0
C597 C 0.90909 0.64121 0.07727 0.0
C598 C 0.00798 0.63476 0.09194 0.0
C599 C 0.04141 0.60479 0.0523 0.0
N600 N 0.94121 0.63981 0.07789 0.0
N601 N 0.00912 0.60496 0.05209 0.0
H602 H 0.59497 0.40377 0.55407 0.0
H603 H 0.43424 0.34408 0.61171 0.0
H604 H 0.58952 0.33206 0.58931 0.0
H605 H 0.43487 0.39811 0.53953 0.0
H606 H 0.49218 0.34362 0.61075 0.0
H607 H 0.53673 0.40575 0.55466 0.0
C608 C 0.58155 0.38846 0.56184 0.0
C609 C 0.59705 0.3677 0.57162 0.0
C610 C 0.4796 0.35558 0.59516 0.0
C611 C 0.5309 0.37003 0.57281 0.0
C612 C 0.44657 0.35598 0.59582 0.0
C613 C 0.42975 0.3711 0.57557 0.0
C614 C 0.49595 0.37065 0.57446 0.0
C615 C 0.44697 0.38607 0.55538 0.0
C616 C 0.54842 0.3896 0.5621 0.0
C617 C 0.57856 0.34837 0.58142 0.0
N618 N 0.47924 0.38554 0.5554 0.0
N619 N 0.54646 0.35007 0.58201 0.0
H620 H 0.06029 0.39546 0.96647 0.0
H621 H 0.89993 0.32847 0.92528 0.0
H622 H 0.05334 0.34165 0.89459 0.0
H623 H 0.89906 0.4021 0.95291 0.0
H624 H 0.95778 0.32941 0.92496 0.0
H625 H 0.00211 0.39494 0.9715 0.0
C626 C 0.04654 0.38356 0.9518 0.0
C627 C 0.06153 0.36861 0.93001 0.0
C628 C 0.94488 0.34531 0.93126 0.0
C629 C -0.00435 0.36764 0.93612 0.0
C630 C 0.91189 0.34478 0.93167 0.0
C631 C 0.89465 0.36531 0.93893 0.0
C632 C 0.96082 0.36639 0.93861 0.0
C633 C 0.91148 0.38594 0.94695 0.0
C634 C 0.01349 0.38334 0.95464 0.0
C635 C 0.0427 0.35357 0.91151 0.0
N636 N 0.94378 0.38598 0.9466 0.0
N637 N 0.01074 0.35333 0.91518 0.0
H638 H 0.5941 0.66478 0.42162 0.0
H639 H 0.43318 0.59764 0.46084 0.0
H640 H 0.5943 0.59141 0.45071 0.0
H641 H 0.44081 0.65182 0.38932 0.0
H642 H 0.49125 0.59836 0.46686 0.0
H643 H 0.53624 0.66394 0.42033 0.0
C644 C 0.58199 0.64856 0.42811 0.0
C645 C 0.59905 0.62806 0.43608 0.0
C646 C 0.48005 0.61001 0.44987 0.0
C647 C 0.53288 0.62709 0.43466 0.0
C648 C 0.44706 0.60966 0.44646 0.0
C649 C 0.43228 0.62464 0.42447 0.0
C650 C 0.49807 0.62584 0.43169 0.0
C651 C 0.45127 0.63986 0.40638 0.0
C652 C 0.54899 0.64808 0.42715 0.0
C653 C 0.58203 0.60754 0.44421 0.0
N654 N 0.48319 0.6402 0.41056 0.0
N655 N 0.54975 0.60755 0.44331 0.0
H656 H 0.27545 0.1644 0.1564 0.0
H657 H 0.23231 0.09332 0.3135 0.0
H658 H 0.25683 0.08915 0.16043 0.0
H659 H 0.23238 0.1698 0.30856 0.0
H660 H 0.24676 0.09177 0.25813 0.0
H661 H 0.26381 0.16706 0.21281 0.0
C662 C 0.2688 0.14848 0.16907 0.0
C663 C 0.26711 0.12652 0.15369 0.0
C664 C 0.24368 0.10891 0.26914 0.0
C665 C 0.25416 0.12942 0.218 0.0
C666 C 0.23555 0.10982 0.30082 0.0
C667 C 0.23089 0.13173 0.31563 0.0
C668 C 0.24725 0.13004 0.25206 0.0
C669 C 0.23559 0.15252 0.29801 0.0
C670 C 0.26223 0.15002 0.20123 0.0
C671 C 0.25841 0.10647 0.17125 0.0
N672 N 0.24341 0.15117 0.26703 0.0
N673 N 0.25238 0.10841 0.20246 0.0
H674 H 0.27124 0.81607 0.81213 0.0
H675 H 0.25411 0.89326 0.65554 0.0
H676 H 0.27243 0.89258 0.80872 0.0
H677 H 0.21981 0.82117 0.66072 0.0
H678 H 0.27058 0.89069 0.71025 0.0
H679 H 0.26016 0.81543 0.75524 0.0
C680 C 0.26914 0.83267 0.79947 0.0
C681 C 0.27265 0.85441 0.81515 0.0
C682 C 0.25954 0.87538 0.69942 0.0
C683 C 0.2606 0.85375 0.75056 0.0
C684 C 0.25021 0.8768 0.66811 0.0
C685 C 0.23512 0.85751 0.65365 0.0
C686 C 0.25382 0.85454 0.71651 0.0
C687 C 0.23112 0.83654 0.67108 0.0
C688 C 0.26286 0.83228 0.76713 0.0
C689 C 0.26974 0.8754 0.7977 0.0
N690 N 0.24023 0.83564 0.70181 0.0
N691 N 0.26402 0.87452 0.76636 0.0
H692 H 0.71164 0.90236 0.82309 0.0
H693 H 0.80923 0.83342 0.69494 0.0
H694 H 0.69183 0.8296 0.79869 0.0
H695 H 0.77804 0.90439 0.6729 0.0
H696 H 0.7764 0.83401 0.74218 0.0
H697 H 0.74503 0.9057 0.7755 0.0
C698 C 0.7142 0.88719 0.8077 0.0
C699 C 0.69899 0.86567 0.81474 0.0
C700 C 0.77694 0.8495 0.72708 0.0
C701 C 0.73734 0.86924 0.76139 0.0
C702 C 0.79578 0.84926 0.70023 0.0
C703 C 0.7962 0.86886 0.67989 0.0
C704 C 0.75884 0.86961 0.73406 0.0
C705 C 0.77815 0.88888 0.68793 0.0
C706 C 0.73308 0.88915 0.78067 0.0
C707 C 0.703 0.84654 0.79409 0.0
N708 N 0.76016 0.88881 0.7146 0.0
N709 N 0.72212 0.84868 0.7686 0.0
H710 H 0.7921 0.16637 0.29317 0.0
H711 H 0.71066 0.08773 0.16429 0.0
H712 H 0.77889 0.09208 0.31382 0.0
H713 H 0.67425 0.15636 0.19076 0.0
H714 H 0.74384 0.08779 0.21226 0.0
H715 H 0.75816 0.16211 0.24699 0.0
C716 C 0.78232 0.14908 0.28781 0.0
C717 C 0.78819 0.12955 0.3074 0.0
C718 C 0.72824 0.10262 0.20751 0.0
C719 C 0.74954 0.12462 0.25445 0.0
C720 C 0.70944 0.10265 0.18027 0.0
C721 C 0.68977 0.12211 0.17356 0.0
C722 C 0.72784 0.12245 0.22739 0.0
C723 C 0.68901 0.14098 0.19499 0.0
C724 C 0.76282 0.14673 0.26159 0.0
C725 C 0.77474 0.10758 0.29934 0.0
N726 N 0.70814 0.14084 0.22067 0.0
N727 N 0.75606 0.10562 0.27322 0.0
H728 H 0.7286 0.66974 0.32715 0.0
H729 H 0.75375 0.59127 0.17262 0.0
H730 H 0.72652 0.59321 0.32571 0.0
H731 H 0.763 0.66752 0.17334 0.0
H732 H 0.74116 0.59215 0.22849 0.0
H733 H 0.73999 0.66971 0.27068 0.0
C734 C 0.73073 0.65294 0.31503 0.0
C735 C 0.72654 0.63144 0.33116 0.0
C736 C 0.74585 0.60872 0.21645 0.0
C737 C 0.73924 0.63132 0.26667 0.0
C738 C 0.75294 0.60824 0.18448 0.0
C739 C 0.75961 0.62935 0.16831 0.0
C740 C 0.74543 0.63046 0.23245 0.0
C741 C 0.75808 0.65081 0.18492 0.0
C742 C 0.73712 0.65295 0.2828 0.0
C743 C 0.72952 0.61022 0.31427 0.0
N744 N 0.75127 0.65081 0.21618 0.0
N745 N 0.73559 0.61071 0.28294 0.0
H746 H 0.73849 0.39867 0.67224 0.0
H747 H 0.7663 0.32197 0.82827 0.0
H748 H 0.72781 0.32256 0.67548 0.0
H749 H 0.77032 0.39843 0.82461 0.0
H750 H 0.75417 0.32138 0.77193 0.0
H751 H 0.75337 0.39838 0.72762 0.0
C752 C 0.73947 0.38186 0.68454 0.0
C753 C 0.73169 0.36061 0.66926 0.0
C754 C 0.75768 0.33826 0.78353 0.0
C755 C 0.7485 0.36019 0.73281 0.0
C756 C 0.76451 0.33862 0.81567 0.0
C757 C 0.76932 0.36028 0.83116 0.0
C758 C 0.75573 0.35971 0.76684 0.0
C759 C 0.76678 0.38131 0.81368 0.0
C760 C 0.74788 0.38172 0.71622 0.0
C761 C 0.73352 0.33936 0.68638 0.0
N762 N 0.76021 0.38047 0.78245 0.0
N763 N 0.74159 0.3397 0.71735 0.0
H764 H 0.29306 0.32656 0.68913 0.0
H765 H 0.21209 0.4009 0.82311 0.0
H766 H 0.27701 0.40113 0.67286 0.0
H767 H 0.18106 0.33054 0.79763 0.0
H768 H 0.24315 0.40267 0.77391 0.0
H769 H 0.26048 0.32877 0.73637 0.0
C770 C 0.28288 0.34348 0.69564 0.0
C771 C 0.28763 0.36369 0.67701 0.0
C772 C 0.22919 0.38704 0.77916 0.0
C773 C 0.25044 0.36629 0.73119 0.0
C774 C 0.21158 0.38597 0.80711 0.0
C775 C 0.1941 0.3655 0.8145 0.0
C776 C 0.22977 0.36727 0.75916 0.0
C777 C 0.19418 0.34666 0.79297 0.0
C778 C 0.26413 0.34466 0.72248 0.0
C779 C 0.27372 0.38513 0.68657 0.0
N780 N 0.21209 0.34788 0.76654 0.0
N781 N 0.25579 0.38594 0.71326 0.0
H782 H 0.28174 0.59093 0.31763 0.0
H783 H 0.19564 0.66477 0.18646 0.0
H784 H 0.31224 0.66111 0.29044 0.0
H785 H 0.21301 0.59063 0.16849 0.0
H786 H 0.22989 0.66251 0.23262 0.0
H787 H 0.24933 0.58894 0.26925 0.0
C788 C 0.28189 0.60575 0.30141 0.0
C789 C 0.29956 0.62626 0.30811 0.0
C790 C 0.22613 0.64673 0.2186 0.0
C791 C 0.26235 0.62425 0.25374 0.0
C792 C 0.20643 0.64793 0.19239 0.0
C793 C 0.20159 0.62786 0.17358 0.0
C794 C 0.24067 0.62521 0.22651 0.0
C795 C 0.21633 0.60652 0.18236 0.0
C796 C 0.26351 0.60456 0.27392 0.0
C797 C 0.29898 0.64496 0.28631 0.0
N798 N 0.23519 0.60568 0.20847 0.0
N799 N 0.2803 0.64364 0.26039 0.0
loop_
_geom_bond_atom_site_label_1
_geom_bond_atom_site_label_2
_geom_bond_distance
_geom_bond_site_symmetry_2
_ccdc_geom_bond_type
O0 Cd1 2.223 . S
O0 C8 1.315 . S
Cd1 O0 2.223 . S
Cd1 O4 2.297 . S
Cd1 O5 2.439 . S
Cd1 O11 2.240 . S
Cd2 O3 2.240 . S
Cd2 O10 2.223 . S
Cd2 O12 2.297 . S
Cd2 O13 2.439 . S
O3 Cd2 2.240 . S
O3 C8 1.279 . S
O4 Cd1 2.297 . S
O4 C6 1.247 . S
O5 Cd1 2.439 . S
O5 C6 1.208 . S
C6 O4 1.247 . S
C6 O5 1.208 . S
C7 O12 1.247 . S
C7 O13 1.208 . S
C8 O0 1.315 . S
C8 O3 1.279 . S
C9 O10 1.315 . S
C9 O11 1.279 . S
O10 Cd2 2.223 . S
O10 C9 1.315 . S
O11 Cd1 2.240 . S
O11 C9 1.279 . S
O12 Cd2 2.297 . S
O12 C7 1.247 . S
O13 Cd2 2.439 . S
O13 C7 1.208 . S
O14 Cd15 2.223 . S
O14 C22 1.315 . S
Cd15 O14 2.223 . S
Cd15 O18 2.297 . S
Cd15 O19 2.439 . S
Cd15 O25 2.240 . S
Cd16 O17 2.240 . S
Cd16 O24 2.223 . S
Cd16 O26 2.297 . S
Cd16 O27 2.439 . S
O17 Cd16 2.240 . S
O17 C22 1.279 . S
O18 Cd15 2.297 . S
O18 C20 1.247 . S
O19 Cd15 2.439 . S
O19 C20 1.208 . S
C20 O18 1.247 . S
C20 O19 1.208 . S
C21 O26 1.247 . S
C21 O27 1.208 . S
C22 O14 1.315 . S
C22 O17 1.279 . S
C23 O24 1.315 . S
C23 O25 1.279 . S
O24 Cd16 2.223 . S
O24 C23 1.315 . S
O25 Cd15 2.240 . S
O25 C23 1.279 . S
O26 Cd16 2.297 . S
O26 C21 1.247 . S
O27 Cd16 2.439 . S
O27 C21 1.208 . S
O28 Cd29 2.223 . S
O28 C36 1.315 . S
Cd29 O28 2.223 . S
Cd29 O32 2.297 . S
Cd29 O33 2.439 . S
Cd29 O39 2.240 . S
Cd30 O31 2.240 . S
Cd30 O38 2.223 . S
Cd30 O40 2.297 . S
Cd30 O41 2.439 . S
O31 Cd30 2.240 . S
O31 C36 1.279 . S
O32 Cd29 2.297 . S
O32 C34 1.247 . S
O33 Cd29 2.439 . S
O33 C34 1.208 . S
C34 O32 1.247 . S
C34 O33 1.208 . S
C35 O40 1.247 . S
C35 O41 1.208 . S
C36 O28 1.315 . S
C36 O31 1.279 . S
C37 O38 1.315 . S
C37 O39 1.279 . S
O38 Cd30 2.223 . S
O38 C37 1.315 . S
O39 Cd29 2.240 . S
O39 C37 1.279 . S
O40 Cd30 2.297 . S
O40 C35 1.247 . S
O41 Cd30 2.439 . S
O41 C35 1.208 . S
O42 Cd43 2.223 . S
O42 C50 1.315 . S
Cd43 O42 2.223 . S
Cd43 O46 2.297 . S
Cd43 O47 2.439 . S
Cd43 O53 2.240 . S
Cd44 O45 2.240 . S
Cd44 O52 2.223 . S
Cd44 O54 2.297 . S
Cd44 O55 2.439 . S
O45 Cd44 2.240 . S
O45 C50 1.279 . S
O46 Cd43 2.297 . S
O46 C48 1.247 . S
O47 Cd43 2.439 . S
O47 C48 1.208 . S
C48 O46 1.247 . S
C48 O47 1.208 . S
C49 O54 1.247 . S
C49 O55 1.208 . S
C50 O42 1.315 . S
C50 O45 1.279 . S
C51 O52 1.315 . S
C51 O53 1.279 . S
O52 Cd44 2.223 . S
O52 C51 1.315 . S
O53 Cd43 2.240 . S
O53 C51 1.279 . S
O54 Cd44 2.297 . S
O54 C49 1.247 . S
O55 Cd44 2.439 . S
O55 C49 1.208 . S
O56 Cd57 2.223 . S
O56 C64 1.315 . S
Cd57 O56 2.223 . S
Cd57 O60 2.297 . S
Cd57 O61 2.439 . S
Cd57 O67 2.240 . S
Cd58 O59 2.240 . S
Cd58 O66 2.223 . S
Cd58 O68 2.297 . S
Cd58 O69 2.439 . S
O59 Cd58 2.240 . S
O59 C64 1.279 . S
O60 Cd57 2.297 . S
O60 C62 1.247 . S
O61 Cd57 2.439 . S
O61 C62 1.208 . S
C62 O60 1.247 . S
C62 O61 1.208 . S
C63 O68 1.247 . S
C63 O69 1.208 . S
C64 O56 1.315 . S
C64 O59 1.279 . S
C65 O66 1.315 . S
C65 O67 1.279 . S
O66 Cd58 2.223 . S
O66 C65 1.315 . S
O67 Cd57 2.240 . S
O67 C65 1.279 . S
O68 Cd58 2.297 . S
O68 C63 1.247 . S
O69 Cd58 2.439 . S
O69 C63 1.208 . S
O70 Cd71 2.223 . S
O70 C78 1.315 . S
Cd71 O70 2.223 . S
Cd71 O74 2.297 . S
Cd71 O75 2.439 . S
Cd71 O81 2.240 . S
Cd72 O73 2.240 . S
Cd72 O80 2.223 . S
Cd72 O82 2.297 . S
Cd72 O83 2.439 . S
O73 Cd72 2.240 . S
O73 C78 1.279 . S
O74 Cd71 2.297 . S
O74 C76 1.247 . S
O75 Cd71 2.439 . S
O75 C76 1.208 . S
C76 O74 1.247 . S
C76 O75 1.208 . S
C77 O82 1.247 . S
C77 O83 1.208 . S
C78 O70 1.315 . S
C78 O73 1.279 . S
C79 O80 1.315 . S
C79 O81 1.279 . S
O80 Cd72 2.223 . S
O80 C79 1.315 . S
O81 Cd71 2.240 . S
O81 C79 1.279 . S
O82 Cd72 2.297 . S
O82 C77 1.247 . S
O83 Cd72 2.439 . S
O83 C77 1.208 . S
O84 Cd85 2.223 . S
O84 C92 1.315 . S
Cd85 O84 2.223 . S
Cd85 O88 2.297 . S
Cd85 O89 2.439 . S
Cd85 O95 2.240 . S
Cd86 O87 2.240 . S
Cd86 O94 2.223 . S
Cd86 O96 2.297 . S
Cd86 O97 2.439 . S
O87 Cd86 2.240 . S
O87 C92 1.279 . S
O88 Cd85 2.297 . S
O88 C90 1.247 . S
O89 Cd85 2.439 . S
O89 C90 1.208 . S
C90 O88 1.247 . S
C90 O89 1.208 . S
C91 O96 1.247 . S
C91 O97 1.208 . S
C92 O84 1.315 . S
C92 O87 1.279 . S
C93 O94 1.315 . S
C93 O95 1.279 . S
O94 Cd86 2.223 . S
O94 C93 1.315 . S
O95 Cd85 2.240 . S
O95 C93 1.279 . S
O96 Cd86 2.297 . S
O96 C91 1.247 . S
O97 Cd86 2.439 . S
O97 C91 1.208 . S
O98 Cd99 2.223 . S
O98 C106 1.315 . S
Cd99 O98 2.223 . S
Cd99 O102 2.297 . S
Cd99 O103 2.439 . S
Cd99 O109 2.240 . S
Cd100 O101 2.240 . S
Cd100 O108 2.223 . S
Cd100 O110 2.297 . S
Cd100 O111 2.439 . S
O101 Cd100 2.240 . S
O101 C106 1.279 . S
O102 Cd99 2.297 . S
O102 C104 1.247 . S
O103 Cd99 2.439 . S
O103 C104 1.208 . S
C104 O102 1.247 . S
C104 O103 1.208 . S
C105 O110 1.247 . S
C105 O111 1.208 . S
C106 O98 1.315 . S
C106 O101 1.279 . S
C107 O108 1.315 . S
C107 O109 1.279 . S
O108 Cd100 2.223 . S
O108 C107 1.315 . S
O109 Cd99 2.240 . S
O109 C107 1.279 . S
O110 Cd100 2.297 . S
O110 C105 1.247 . S
O111 Cd100 2.439 . S
O111 C105 1.208 . S
O112 Cd113 2.223 . S
O112 C120 1.315 . S
Cd113 O112 2.223 . S
Cd113 O116 2.297 . S
Cd113 O117 2.439 . S
Cd113 O123 2.240 . S
Cd114 O115 2.240 . S
Cd114 O122 2.223 . S
Cd114 O124 2.297 . S
Cd114 O125 2.439 . S
O115 Cd114 2.240 . S
O115 C120 1.279 . S
O116 Cd113 2.297 . S
O116 C118 1.247 . S
O117 Cd113 2.439 . S
O117 C118 1.208 . S
C118 O116 1.247 . S
C118 O117 1.208 . S
C119 O124 1.247 . S
C119 O125 1.208 . S
C120 O112 1.315 . S
C120 O115 1.279 . S
C121 O122 1.315 . S
C121 O123 1.279 . S
O122 Cd114 2.223 . S
O122 C121 1.315 . S
O123 Cd113 2.240 . S
O123 C121 1.279 . S
O124 Cd114 2.297 . S
O124 C119 1.247 . S
O125 Cd114 2.439 . S
O125 C119 1.208 . S
O126 Cd127 2.223 . S
O126 C134 1.315 . S
Cd127 O126 2.223 . S
Cd127 O130 2.297 . S
Cd127 O131 2.439 . S
Cd127 O137 2.240 . S
Cd128 O129 2.240 . S
Cd128 O136 2.223 . S
Cd128 O138 2.297 . S
Cd128 O139 2.439 . S
O129 Cd128 2.240 . S
O129 C134 1.279 . S
O130 Cd127 2.297 . S
O130 C132 1.247 . S
O131 Cd127 2.439 . S
O131 C132 1.208 . S
C132 O130 1.247 . S
C132 O131 1.208 . S
C133 O138 1.247 . S
C133 O139 1.208 . S
C134 O126 1.315 . S
C134 O129 1.279 . S
C135 O136 1.315 . S
C135 O137 1.279 . S
O136 Cd128 2.223 . S
O136 C135 1.315 . S
O137 Cd127 2.240 . S
O137 C135 1.279 . S
O138 Cd128 2.297 . S
O138 C133 1.247 . S
O139 Cd128 2.439 . S
O139 C133 1.208 . S
O140 Cd141 2.223 . S
O140 C148 1.315 . S
Cd141 O140 2.223 . S
Cd141 O144 2.297 . S
Cd141 O145 2.439 . S
Cd141 O151 2.240 . S
Cd142 O143 2.240 . S
Cd142 O150 2.223 . S
Cd142 O152 2.297 . S
Cd142 O153 2.439 . S
O143 Cd142 2.240 . S
O143 C148 1.279 . S
O144 Cd141 2.297 . S
O144 C146 1.247 . S
O145 Cd141 2.439 . S
O145 C146 1.208 . S
C146 O144 1.247 . S
C146 O145 1.208 . S
C147 O152 1.247 . S
C147 O153 1.208 . S
C148 O140 1.315 . S
C148 O143 1.279 . S
C149 O150 1.315 . S
C149 O151 1.279 . S
O150 Cd142 2.223 . S
O150 C149 1.315 . S
O151 Cd141 2.240 . S
O151 C149 1.279 . S
O152 Cd142 2.297 . S
O152 C147 1.247 . S
O153 Cd142 2.439 . S
O153 C147 1.208 . S
O154 Cd155 2.223 . S
O154 C162 1.315 . S
Cd155 O154 2.223 . S
Cd155 O158 2.297 . S
Cd155 O159 2.439 . S
Cd155 O165 2.240 . S
Cd156 O157 2.240 . S
Cd156 O164 2.223 . S
Cd156 O166 2.297 . S
Cd156 O167 2.439 . S
O157 Cd156 2.240 . S
O157 C162 1.279 . S
O158 Cd155 2.297 . S
O158 C160 1.247 . S
O159 Cd155 2.439 . S
O159 C160 1.208 . S
C160 O158 1.247 . S
C160 O159 1.208 . S
C161 O166 1.247 . S
C161 O167 1.208 . S
C162 O154 1.315 . S
C162 O157 1.279 . S
C163 O164 1.315 . S
C163 O165 1.279 . S
O164 Cd156 2.223 . S
O164 C163 1.315 . S
O165 Cd155 2.240 . S
O165 C163 1.279 . S
O166 Cd156 2.297 . S
O166 C161 1.247 . S
O167 Cd156 2.439 . S
O167 C161 1.208 . S
O168 Cd169 2.223 . S
O168 C176 1.315 . S
Cd169 O168 2.223 . S
Cd169 O172 2.297 . S
Cd169 O173 2.439 . S
Cd169 O179 2.240 . S
Cd170 O171 2.240 . S
Cd170 O178 2.223 . S
Cd170 O180 2.297 . S
Cd170 O181 2.439 . S
O171 Cd170 2.240 . S
O171 C176 1.279 . S
O172 Cd169 2.297 . S
O172 C174 1.247 . S
O173 Cd169 2.439 . S
O173 C174 1.208 . S
C174 O172 1.247 . S
C174 O173 1.208 . S
C175 O180 1.247 . S
C175 O181 1.208 . S
C176 O168 1.315 . S
C176 O171 1.279 . S
C177 O178 1.315 . S
C177 O179 1.279 . S
O178 Cd170 2.223 . S
O178 C177 1.315 . S
O179 Cd169 2.240 . S
O179 C177 1.279 . S
O180 Cd170 2.297 . S
O180 C175 1.247 . S
O181 Cd170 2.439 . S
O181 C175 1.208 . S
O182 Cd183 2.223 . S
O182 C190 1.315 . S
Cd183 O182 2.223 . S
Cd183 O186 2.297 . S
Cd183 O187 2.439 . S
Cd183 O193 2.240 . S
Cd184 O185 2.240 . S
Cd184 O192 2.223 . S
Cd184 O194 2.297 . S
Cd184 O195 2.439 . S
O185 Cd184 2.240 . S
O185 C190 1.279 . S
O186 Cd183 2.297 . S
O186 C188 1.247 . S
O187 Cd183 2.439 . S
O187 C188 1.208 . S
C188 O186 1.247 . S
C188 O187 1.208 . S
C189 O194 1.247 . S
C189 O195 1.208 . S
C190 O182 1.315 . S
C190 O185 1.279 . S
C191 O192 1.315 . S
C191 O193 1.279 . S
O192 Cd184 2.223 . S
O192 C191 1.315 . S
O193 Cd183 2.240 . S
O193 C191 1.279 . S
O194 Cd184 2.297 . S
O194 C189 1.247 . S
O195 Cd184 2.439 . S
O195 C189 1.208 . S
O196 Cd197 2.223 . S
O196 C204 1.315 . S
Cd197 O196 2.223 . S
Cd197 O200 2.297 . S
Cd197 O201 2.439 . S
Cd197 O207 2.240 . S
Cd198 O199 2.240 . S
Cd198 O206 2.223 . S
Cd198 O208 2.297 . S
Cd198 O209 2.439 . S
O199 Cd198 2.240 . S
O199 C204 1.279 . S
O200 Cd197 2.297 . S
O200 C202 1.247 . S
O201 Cd197 2.439 . S
O201 C202 1.208 . S
C202 O200 1.247 . S
C202 O201 1.208 . S
C203 O208 1.247 . S
C203 O209 1.208 . S
C204 O196 1.315 . S
C204 O199 1.279 . S
C205 O206 1.315 . S
C205 O207 1.279 . S
O206 Cd198 2.223 . S
O206 C205 1.315 . S
O207 Cd197 2.240 . S
O207 C205 1.279 . S
O208 Cd198 2.297 . S
O208 C203 1.247 . S
O209 Cd198 2.439 . S
O209 C203 1.208 . S
O210 Cd211 2.223 . S
O210 C218 1.315 . S
Cd211 O210 2.223 . S
Cd211 O214 2.297 . S
Cd211 O215 2.439 . S
Cd211 O221 2.240 . S
Cd212 O213 2.240 . S
Cd212 O220 2.223 . S
Cd212 O222 2.297 . S
Cd212 O223 2.439 . S
O213 Cd212 2.240 . S
O213 C218 1.279 . S
O214 Cd211 2.297 . S
O214 C216 1.247 . S
O215 Cd211 2.439 . S
O215 C216 1.208 . S
C216 O214 1.247 . S
C216 O215 1.208 . S
C217 O222 1.247 . S
C217 O223 1.208 . S
C218 O210 1.315 . S
C218 O213 1.279 . S
C219 O220 1.315 . S
C219 O221 1.279 . S
O220 Cd212 2.223 . S
O220 C219 1.315 . S
O221 Cd211 2.240 . S
O221 C219 1.279 . S
O222 Cd212 2.297 . S
O222 C217 1.247 . S
O223 Cd212 2.439 . S
O223 C217 1.208 . S
H224 C230 0.930 . S
H225 C234 0.930 . S
H226 C239 0.929 . S
H227 C237 0.929 . S
H228 C232 0.929 . S
H229 C238 0.929 . S
C230 H224 0.930 . S
C230 C231 1.367 . S
C230 C238 1.378 1_554 S
C231 C230 1.367 . S
C231 C239 1.433 . S
C232 H228 0.929 . S
C232 C234 1.378 . S
C232 C236 1.350 . S
C233 C236 1.463 . S
C233 C238 1.350 . S
C233 N241 1.427 1_556 S
C234 H225 0.930 . S
C234 C232 1.378 . S
C234 C235 1.367 . S
C235 C234 1.367 . S
C235 C237 1.433 . S
C236 C232 1.350 . S
C236 C233 1.463 . S
C236 N240 1.427 . S
C237 H227 0.929 . S
C237 C235 1.433 . S
C237 N240 1.384 . S
C238 H229 0.929 . S
C238 C230 1.378 1_556 S
C238 C233 1.350 . S
C239 H226 0.929 . S
C239 C231 1.433 . S
C239 N241 1.384 . S
N240 C236 1.427 . S
N240 C237 1.384 . S
N241 C233 1.427 1_554 S
N241 C239 1.384 . S
H242 C248 0.930 . S
H243 C252 0.930 . S
H244 C257 0.929 . S
H245 C255 0.929 . S
H246 C250 0.929 . S
H247 C256 0.929 . S
C248 H242 0.930 . S
C248 C249 1.367 . S
C248 C256 1.378 . S
C249 C248 1.367 . S
C249 C257 1.433 . S
C250 H246 0.929 . S
C250 C252 1.378 . S
C250 C254 1.350 . S
C251 C254 1.463 . S
C251 C256 1.350 . S
C251 N259 1.427 . S
C252 H243 0.930 . S
C252 C250 1.378 . S
C252 C253 1.367 . S
C253 C252 1.367 . S
C253 C255 1.433 . S
C254 C250 1.350 . S
C254 C251 1.463 . S
C254 N258 1.427 . S
C255 H245 0.929 . S
C255 C253 1.433 . S
C255 N258 1.384 . S
C256 H247 0.929 . S
C256 C248 1.378 . S
C256 C251 1.350 . S
C257 H244 0.929 . S
C257 C249 1.433 . S
C257 N259 1.384 . S
N258 C254 1.427 . S
N258 C255 1.384 . S
N259 C251 1.427 . S
N259 C257 1.384 . S
H260 C266 0.923 1_554 S
H261 C270 0.930 . S
H262 C275 0.929 . S
H263 C273 0.929 . S
H264 C268 0.929 1_556 S
H265 C274 0.929 . S
C266 H260 0.923 1_556 S
C266 C267 1.386 . S
C266 C274 1.366 1_556 S
C267 C266 1.386 . S
C267 C275 1.433 . S
C268 H264 0.929 1_554 S
C268 C270 1.378 . S
C268 C272 1.350 . S
C269 C272 1.463 . S
C269 C274 1.350 . S
C269 N277 1.427 1_554 S
C270 H261 0.930 . S
C270 C268 1.378 . S
C270 C271 1.367 . S
C271 C270 1.367 . S
C271 C273 1.433 . S
C272 C268 1.350 . S
C272 C269 1.463 . S
C272 N276 1.427 . S
C273 H263 0.929 . S
C273 C271 1.433 . S
C273 N276 1.384 . S
C274 H265 0.929 . S
C274 C266 1.366 1_554 S
C274 C269 1.350 . S
C275 H262 0.929 . S
C275 C267 1.433 . S
C275 N277 1.384 . S
N276 C272 1.427 . S
N276 C273 1.384 . S
N277 C269 1.427 1_556 S
N277 C275 1.384 . S
H278 C284 0.930 . S
H279 C288 0.930 . S
H280 C293 0.929 . S
H281 C291 0.929 . S
H282 C286 0.929 . S
H283 C292 0.929 . S
C284 H278 0.930 . S
C284 C285 1.367 . S
C284 C292 1.378 . S
C285 C284 1.367 . S
C285 C293 1.433 . S
C286 H282 0.929 . S
C286 C288 1.378 . S
C286 C290 1.350 . S
C287 C290 1.463 . S
C287 C292 1.350 . S
C287 N295 1.427 . S
C288 H279 0.930 . S
C288 C286 1.378 . S
C288 C289 1.367 . S
C289 C288 1.367 . S
C289 C291 1.433 . S
C290 C286 1.350 . S
C290 C287 1.463 . S
C290 N294 1.427 . S
C291 H281 0.929 . S
C291 C289 1.433 . S
C291 N294 1.384 . S
C292 H283 0.929 . S
C292 C284 1.378 . S
C292 C287 1.350 . S
C293 H280 0.929 . S
C293 C285 1.433 . S
C293 N295 1.384 . S
N294 C290 1.427 . S
N294 C291 1.384 . S
N295 C287 1.427 . S
N295 C293 1.384 . S
H296 C302 0.931 1_556 S
H297 C306 0.930 . S
H298 C311 0.929 . S
H299 C309 0.929 . S
H300 C304 0.929 1_554 S
H301 C310 0.929 . S
C302 H296 0.931 1_554 S
C302 C303 1.366 . S
C302 C310 1.378 1_554 S
C303 C302 1.366 . S
C303 C311 1.433 . S
C304 H300 0.929 1_556 S
C304 C306 1.378 . S
C304 C308 1.350 . S
C305 C308 1.463 . S
C305 C310 1.350 . S
C305 N313 1.427 1_556 S
C306 H297 0.930 . S
C306 C304 1.378 . S
C306 C307 1.367 . S
C307 C306 1.367 . S
C307 C309 1.433 . S
C308 C304 1.350 . S
C308 C305 1.463 . S
C308 N312 1.427 . S
C309 H299 0.929 . S
C309 C307 1.433 . S
C309 N312 1.384 . S
C310 H301 0.929 . S
C310 C302 1.378 1_556 S
C310 C305 1.350 . S
C311 H298 0.929 . S
C311 C303 1.433 . S
C311 N313 1.384 . S
N312 C308 1.427 . S
N312 C309 1.384 . S
N313 C305 1.427 1_554 S
N313 C311 1.384 . S
H314 C320 0.930 . S
H315 C324 0.930 . S
H316 C329 0.929 . S
H317 C327 0.929 . S
H318 C322 0.929 . S
H319 C328 0.929 . S
C320 H314 0.930 . S
C320 C321 1.367 . S
C320 C328 1.378 . S
C321 C320 1.367 . S
C321 C329 1.433 . S
C322 H318 0.929 . S
C322 C324 1.378 . S
C322 C326 1.350 . S
C323 C326 1.463 . S
C323 C328 1.350 . S
C323 N331 1.427 . S
C324 H315 0.930 . S
C324 C322 1.378 . S
C324 C325 1.367 . S
C325 C324 1.367 . S
C325 C327 1.433 . S
C326 C322 1.350 . S
C326 C323 1.463 . S
C326 N330 1.427 . S
C327 H317 0.929 . S
C327 C325 1.433 . S
C327 N330 1.384 . S
C328 H319 0.929 . S
C328 C320 1.378 . S
C328 C323 1.350 . S
C329 H316 0.929 . S
C329 C321 1.433 . S
C329 N331 1.384 . S
N330 C326 1.427 . S
N330 C327 1.384 . S
N331 C323 1.427 . S
N331 C329 1.384 . S
H332 C338 0.930 . S
H333 C342 0.930 . S
H334 C347 0.929 . S
H335 C345 0.929 . S
H336 C340 0.929 . S
H337 C346 0.929 . S
C338 H332 0.930 . S
C338 C339 1.367 . S
C338 C346 1.378 . S
C339 C338 1.367 . S
C339 C347 1.433 . S
C340 H336 0.929 . S
C340 C342 1.378 . S
C340 C344 1.350 . S
C341 C344 1.463 . S
C341 C346 1.350 1_554 S
C341 N349 1.427 . S
C342 H333 0.930 . S
C342 C340 1.378 . S
C342 C343 1.367 . S
C343 C342 1.367 . S
C343 C345 1.433 . S
C344 C340 1.350 . S
C344 C341 1.463 . S
C344 N348 1.427 . S
C345 H335 0.929 . S
C345 C343 1.433 . S
C345 N348 1.384 . S
C346 H337 0.929 . S
C346 C338 1.378 . S
C346 C341 1.350 1_556 S
C347 H334 0.929 . S
C347 C339 1.433 . S
C347 N349 1.384 1_556 S
N348 C344 1.427 . S
N348 C345 1.384 . S
N349 C341 1.427 . S
N349 C347 1.384 1_554 S
H350 C356 0.930 . S
H351 C360 0.930 . S
H352 C365 0.929 . S
H353 C363 0.929 . S
H354 C358 0.929 . S
H355 C364 0.929 . S
C356 H350 0.930 . S
C356 C357 1.367 . S
C356 C364 1.378 . S
C357 C356 1.367 . S
C357 C365 1.433 . S
C358 H354 0.929 . S
C358 C360 1.378 . S
C358 C362 1.350 . S
C359 C362 1.463 . S
C359 C364 1.350 . S
C359 N367 1.427 . S
C360 H351 0.930 . S
C360 C358 1.378 . S
C360 C361 1.367 . S
C361 C360 1.367 . S
C361 C363 1.433 . S
C362 C358 1.350 . S
C362 C359 1.463 . S
C362 N366 1.427 . S
C363 H353 0.929 . S
C363 C361 1.433 . S
C363 N366 1.384 . S
C364 H355 0.929 . S
C364 C356 1.378 . S
C364 C359 1.350 . S
C365 H352 0.929 . S
C365 C357 1.433 . S
C365 N367 1.384 . S
N366 C362 1.427 . S
N366 C363 1.384 . S
N367 C359 1.427 . S
N367 C365 1.384 . S
H368 C374 0.930 . S
H369 C378 0.930 . S
H370 C383 0.929 . S
H371 C381 0.929 . S
H372 C376 0.929 . S
H373 C382 0.929 . S
C374 H368 0.930 . S
C374 C375 1.367 1_556 S
C374 C382 1.378 . S
C375 C374 1.367 1_554 S
C375 C383 1.433 . S
C376 H372 0.929 . S
C376 C378 1.378 . S
C376 C380 1.350 1_554 S
C377 C380 1.463 1_544 S
C377 C382 1.350 1_554 S
C377 N385 1.427 . S
C378 H369 0.930 . S
C378 C376 1.378 . S
C378 C379 1.367 1_554 S
C379 C378 1.367 1_556 S
C379 C381 1.433 . S
C380 C376 1.350 1_556 S
C380 C377 1.463 1_566 S
C380 N384 1.427 . S
C381 H371 0.929 . S
C381 C379 1.433 . S
C381 N384 1.384 . S
C382 H373 0.929 . S
C382 C374 1.378 . S
C382 C377 1.350 1_556 S
C383 H370 0.929 . S
C383 C375 1.433 . S
C383 N385 1.384 . S
N384 C380 1.427 . S
N384 C381 1.384 . S
N385 C377 1.427 . S
N385 C383 1.384 . S
H386 C392 0.930 . S
H387 C396 0.930 . S
H388 C401 0.929 . S
H389 C399 0.929 . S
H390 C394 0.929 . S
H391 C400 0.929 . S
C392 H386 0.930 . S
C392 C393 1.367 . S
C392 C400 1.378 . S
C393 C392 1.367 . S
C393 C401 1.433 . S
C394 H390 0.929 . S
C394 C396 1.378 . S
C394 C398 1.350 . S
C395 C398 1.463 1_565 S
C395 C400 1.350 . S
C395 N403 1.427 . S
C396 H387 0.930 . S
C396 C394 1.378 . S
C396 C397 1.367 . S
C397 C396 1.367 . S
C397 C399 1.433 . S
C398 C394 1.350 . S
C398 C395 1.463 1_545 S
C398 N402 1.427 . S
C399 H389 0.929 . S
C399 C397 1.433 . S
C399 N402 1.384 . S
C400 H391 0.929 . S
C400 C392 1.378 . S
C400 C395 1.350 . S
C401 H388 0.929 . S
C401 C393 1.433 . S
C401 N403 1.384 . S
N402 C398 1.427 . S
N402 C399 1.384 . S
N403 C395 1.427 . S
N403 C401 1.384 . S
H404 C410 0.930 . S
H405 C414 0.930 . S
H406 C419 0.929 . S
H407 C417 0.929 . S
H408 C412 0.929 . S
H409 C418 0.929 . S
C410 H404 0.930 . S
C410 C411 1.367 . S
C410 C418 1.378 . S
C411 C410 1.367 . S
C411 C419 1.433 . S
C412 H408 0.929 . S
C412 C414 1.378 . S
C412 C416 1.350 . S
C413 C416 1.463 1_566 S
C413 C418 1.350 . S
C413 N421 1.427 . S
C414 H405 0.930 . S
C414 C412 1.378 . S
C414 C415 1.367 . S
C415 C414 1.367 . S
C415 C417 1.433 . S
C416 C412 1.350 . S
C416 C413 1.463 1_544 S
C416 N420 1.427 . S
C417 H407 0.929 . S
C417 C415 1.433 . S
C417 N420 1.384 . S
C418 H409 0.929 . S
C418 C410 1.378 . S
C418 C413 1.350 . S
C419 H406 0.929 . S
C419 C411 1.433 . S
C419 N421 1.384 . S
N420 C416 1.427 . S
N420 C417 1.384 . S
N421 C413 1.427 . S
N421 C419 1.384 . S
H422 C428 0.930 . S
H423 C432 0.930 . S
H424 C437 0.929 . S
H425 C435 0.929 . S
H426 C430 0.929 . S
H427 C436 0.929 . S
C428 H422 0.930 . S
C428 C429 1.367 . S
C428 C436 1.378 . S
C429 C428 1.367 . S
C429 C437 1.433 . S
C430 H426 0.929 . S
C430 C432 1.378 . S
C430 C434 1.350 . S
C431 C434 1.463 1_545 S
C431 C436 1.350 . S
C431 N439 1.427 . S
C432 H423 0.930 . S
C432 C430 1.378 . S
C432 C433 1.367 . S
C433 C432 1.367 . S
C433 C435 1.433 . S
C434 C430 1.350 . S
C434 C431 1.463 1_565 S
C434 N438 1.427 . S
C435 H425 0.929 . S
C435 C433 1.433 . S
C435 N438 1.384 . S
C436 H427 0.929 . S
C436 C428 1.378 . S
C436 C431 1.350 . S
C437 H424 0.929 . S
C437 C429 1.433 . S
C437 N439 1.384 . S
N438 C434 1.427 . S
N438 C435 1.384 . S
N439 C431 1.427 . S
N439 C437 1.384 . S
H440 C446 0.930 . S
H441 C450 0.930 . S
H442 C455 0.929 . S
H443 C453 0.929 . S
H444 C448 0.929 . S
H445 C454 0.929 . S
C446 H440 0.930 . S
C446 C447 1.367 . S
C446 C454 1.378 . S
C447 C446 1.367 . S
C447 C455 1.433 1_556 S
C448 H444 0.929 . S
C448 C450 1.378 . S
C448 C452 1.350 . S
C449 C452 1.463 1_556 S
C449 C454 1.350 . S
C449 N457 1.427 1_556 S
C450 H441 0.930 . S
C450 C448 1.378 . S
C450 C451 1.367 . S
C451 C450 1.367 . S
C451 C453 1.433 1_554 S
C452 C448 1.350 . S
C452 C449 1.463 1_554 S
C452 N456 1.427 1_554 S
C453 H443 0.929 . S
C453 C451 1.433 1_556 S
C453 N456 1.384 . S
C454 H445 0.929 . S
C454 C446 1.378 . S
C454 C449 1.350 . S
C455 H442 0.929 . S
C455 C447 1.433 1_554 S
C455 N457 1.384 . S
N456 C452 1.427 1_556 S
N456 C453 1.384 . S
N457 C449 1.427 1_554 S
N457 C455 1.384 . S
H458 C464 0.930 . S
H459 C468 0.930 . S
H460 C473 0.929 . S
H461 C471 0.929 . S
H462 C466 0.929 . S
H463 C472 0.929 . S
C464 H458 0.930 . S
C464 C465 1.367 . S
C464 C472 1.378 . S
C465 C464 1.367 . S
C465 C473 1.433 . S
C466 H462 0.929 . S
C466 C468 1.378 . S
C466 C470 1.350 . S
C467 C470 1.463 . S
C467 C472 1.350 . S
C467 N475 1.427 . S
C468 H459 0.930 . S
C468 C466 1.378 . S
C468 C469 1.367 . S
C469 C468 1.367 . S
C469 C471 1.433 . S
C470 C466 1.350 . S
C470 C467 1.463 . S
C470 N474 1.427 . S
C471 H461 0.929 . S
C471 C469 1.433 . S
C471 N474 1.384 . S
C472 H463 0.929 . S
C472 C464 1.378 . S
C472 C467 1.350 . S
C473 H460 0.929 . S
C473 C465 1.433 . S
C473 N475 1.384 . S
N474 C470 1.427 . S
N474 C471 1.384 . S
N475 C467 1.427 . S
N475 C473 1.384 . S
H476 C482 0.930 . S
H477 C486 0.930 . S
H478 C491 0.929 . S
H479 C489 0.929 . S
H480 C484 0.929 . S
H481 C490 0.929 . S
C482 H476 0.930 . S
C482 C483 1.367 . S
C482 C490 1.378 . S
C483 C482 1.367 . S
C483 C491 1.433 . S
C484 H480 0.929 . S
C484 C486 1.378 . S
C484 C488 1.350 . S
C485 C488 1.463 1_554 S
C485 C490 1.350 . S
C485 N493 1.427 1_554 S
C486 H477 0.930 . S
C486 C484 1.378 . S
C486 C487 1.367 . S
C487 C486 1.367 . S
C487 C489 1.433 . S
C488 C484 1.350 . S
C488 C485 1.463 1_556 S
C488 N492 1.427 1_556 S
C489 H479 0.929 . S
C489 C487 1.433 . S
C489 N492 1.384 1_556 S
C490 H481 0.929 . S
C490 C482 1.378 . S
C490 C485 1.350 . S
C491 H478 0.929 . S
C491 C483 1.433 . S
C491 N493 1.384 1_554 S
N492 C488 1.427 1_554 S
N492 C489 1.384 1_554 S
N493 C485 1.427 1_556 S
N493 C491 1.384 1_556 S
H494 C500 0.930 . S
H495 C504 0.930 . S
H496 C509 0.929 . S
H497 C507 0.929 . S
H498 C502 0.929 . S
H499 C508 0.929 . S
C500 H494 0.930 . S
C500 C501 1.367 . S
C500 C508 1.378 . S
C501 C500 1.367 . S
C501 C509 1.433 . S
C502 H498 0.929 . S
C502 C504 1.378 . S
C502 C506 1.350 . S
C503 C506 1.463 . S
C503 C508 1.350 . S
C503 N511 1.427 . S
C504 H495 0.930 . S
C504 C502 1.378 . S
C504 C505 1.367 . S
C505 C504 1.367 . S
C505 C507 1.433 . S
C506 C502 1.350 . S
C506 C503 1.463 . S
C506 N510 1.427 . S
C507 H497 0.929 . S
C507 C505 1.433 . S
C507 N510 1.384 . S
C508 H499 0.929 . S
C508 C500 1.378 . S
C508 C503 1.350 . S
C509 H496 0.929 . S
C509 C501 1.433 . S
C509 N511 1.384 . S
N510 C506 1.427 . S
N510 C507 1.384 . S
N511 C503 1.427 . S
N511 C509 1.384 . S
H512 C518 0.930 . S
H513 C522 0.930 . S
H514 C527 0.929 . S
H515 C525 0.929 . S
H516 C520 0.929 . S
H517 C526 0.929 . S
C518 H512 0.930 . S
C518 C519 1.367 . S
C518 C526 1.378 . S
C519 C518 1.367 . S
C519 C527 1.433 . S
C520 H516 0.929 . S
C520 C522 1.378 . S
C520 C524 1.350 . S
C521 C524 1.463 . S
C521 C526 1.350 . S
C521 N529 1.427 . S
C522 H513 0.930 . S
C522 C520 1.378 . S
C522 C523 1.367 . S
C523 C522 1.367 . S
C523 C525 1.433 . S
C524 C520 1.350 . S
C524 C521 1.463 . S
C524 N528 1.427 . S
C525 H515 0.929 . S
C525 C523 1.433 . S
C525 N528 1.384 . S
C526 H517 0.929 . S
C526 C518 1.378 . S
C526 C521 1.350 . S
C527 H514 0.929 . S
C527 C519 1.433 . S
C527 N529 1.384 . S
N528 C524 1.427 . S
N528 C525 1.384 . S
N529 C521 1.427 . S
N529 C527 1.384 . S
H530 C536 0.930 . S
H531 C540 0.930 . S
H532 C545 0.929 . S
H533 C543 0.929 . S
H534 C538 0.929 . S
H535 C544 0.929 . S
C536 H530 0.930 . S
C536 C537 1.367 . S
C536 C544 1.378 1_655 S
C537 C536 1.367 . S
C537 C545 1.433 . S
C538 H534 0.929 . S
C538 C540 1.378 . S
C538 C542 1.350 . S
C539 C542 1.463 . S
C539 C544 1.350 . S
C539 N547 1.427 . S
C540 H531 0.930 . S
C540 C538 1.378 . S
C540 C541 1.367 . S
C541 C540 1.367 . S
C541 C543 1.433 . S
C542 C538 1.350 . S
C542 C539 1.463 . S
C542 N546 1.427 . S
C543 H533 0.929 . S
C543 C541 1.433 . S
C543 N546 1.384 . S
C544 H535 0.929 . S
C544 C536 1.378 1_455 S
C544 C539 1.350 . S
C545 H532 0.929 . S
C545 C537 1.433 . S
C545 N547 1.384 1_655 S
N546 C542 1.427 . S
N546 C543 1.384 . S
N547 C539 1.427 . S
N547 C545 1.384 1_455 S
H548 C554 0.930 . S
H549 C558 0.930 . S
H550 C563 0.929 . S
H551 C561 0.929 . S
H552 C556 0.929 . S
H553 C562 0.929 . S
C554 H548 0.930 . S
C554 C555 1.367 . S
C554 C562 1.378 . S
C555 C554 1.367 . S
C555 C563 1.433 . S
C556 H552 0.929 . S
C556 C558 1.378 . S
C556 C560 1.350 . S
C557 C560 1.463 . S
C557 C562 1.350 . S
C557 N565 1.427 . S
C558 H549 0.930 . S
C558 C556 1.378 . S
C558 C559 1.367 . S
C559 C558 1.367 . S
C559 C561 1.433 . S
C560 C556 1.350 . S
C560 C557 1.463 . S
C560 N564 1.427 . S
C561 H551 0.929 . S
C561 C559 1.433 . S
C561 N564 1.384 . S
C562 H553 0.929 . S
C562 C554 1.378 . S
C562 C557 1.350 . S
C563 H550 0.929 . S
C563 C555 1.433 . S
C563 N565 1.384 . S
N564 C560 1.427 . S
N564 C561 1.384 . S
N565 C557 1.427 . S
N565 C563 1.384 . S
H566 C572 0.930 . S
H567 C576 0.930 . S
H568 C581 0.929 . S
H569 C579 0.929 . S
H570 C574 0.929 . S
H571 C580 0.929 . S
C572 H566 0.930 . S
C572 C573 1.367 . S
C572 C580 1.378 . S
C573 C572 1.367 . S
C573 C581 1.433 . S
C574 H570 0.929 . S
C574 C576 1.378 1_455 S
C574 C578 1.350 . S
C575 C578 1.463 . S
C575 C580 1.350 . S
C575 N583 1.427 . S
C576 H567 0.930 . S
C576 C574 1.378 1_655 S
C576 C577 1.367 . S
C577 C576 1.367 . S
C577 C579 1.433 . S
C578 C574 1.350 . S
C578 C575 1.463 . S
C578 N582 1.427 . S
C579 H569 0.929 . S
C579 C577 1.433 . S
C579 N582 1.384 1_655 S
C580 H571 0.929 . S
C580 C572 1.378 . S
C580 C575 1.350 . S
C581 H568 0.929 . S
C581 C573 1.433 . S
C581 N583 1.384 . S
N582 C578 1.427 . S
N582 C579 1.384 1_455 S
N583 C575 1.427 . S
N583 C581 1.384 . S
H584 C590 0.930 . S
H585 C594 0.930 . S
H586 C599 0.929 . S
H587 C597 0.929 . S
H588 C592 0.929 . S
H589 C598 0.929 . S
C590 H584 0.930 . S
C590 C591 1.367 . S
C590 C598 1.378 1_455 S
C591 C590 1.367 . S
C591 C599 1.433 . S
C592 H588 0.929 . S
C592 C594 1.378 . S
C592 C596 1.350 . S
C593 C596 1.463 . S
C593 C598 1.350 . S
C593 N601 1.427 . S
C594 H585 0.930 . S
C594 C592 1.378 . S
C594 C595 1.367 . S
C595 C594 1.367 . S
C595 C597 1.433 . S
C596 C592 1.350 . S
C596 C593 1.463 . S
C596 N600 1.427 . S
C597 H587 0.929 . S
C597 C595 1.433 . S
C597 N600 1.384 . S
C598 H589 0.929 . S
C598 C590 1.378 1_655 S
C598 C593 1.350 . S
C599 H586 0.929 . S
C599 C591 1.433 . S
C599 N601 1.384 1_455 S
N600 C596 1.427 . S
N600 C597 1.384 . S
N601 C593 1.427 . S
N601 C599 1.384 1_655 S
H602 C608 0.930 . S
H603 C612 0.930 . S
H604 C617 0.929 . S
H605 C615 0.929 . S
H606 C610 0.929 . S
H607 C616 0.929 . S
C608 H602 0.930 . S
C608 C609 1.367 . S
C608 C616 1.378 . S
C609 C608 1.367 . S
C609 C617 1.433 . S
C610 H606 0.929 . S
C610 C612 1.378 . S
C610 C614 1.350 . S
C611 C614 1.463 . S
C611 C616 1.350 . S
C611 N619 1.427 . S
C612 H603 0.930 . S
C612 C610 1.378 . S
C612 C613 1.367 . S
C613 C612 1.367 . S
C613 C615 1.433 . S
C614 C610 1.350 . S
C614 C611 1.463 . S
C614 N618 1.427 . S
C615 H605 0.929 . S
C615 C613 1.433 . S
C615 N618 1.384 . S
C616 H607 0.929 . S
C616 C608 1.378 . S
C616 C611 1.350 . S
C617 H604 0.929 . S
C617 C609 1.433 . S
C617 N619 1.384 . S
N618 C614 1.427 . S
N618 C615 1.384 . S
N619 C611 1.427 . S
N619 C617 1.384 . S
H620 C626 0.930 . S
H621 C630 0.930 . S
H622 C635 0.929 . S
H623 C633 0.929 . S
H624 C628 0.929 . S
H625 C634 0.929 . S
C626 H620 0.930 . S
C626 C627 1.367 . S
C626 C634 1.378 1_455 S
C627 C626 1.367 . S
C627 C635 1.433 . S
C628 H624 0.929 . S
C628 C630 1.378 . S
C628 C632 1.350 . S
C629 C632 1.463 . S
C629 C634 1.350 . S
C629 N637 1.427 . S
C630 H621 0.930 . S
C630 C628 1.378 . S
C630 C631 1.367 . S
C631 C630 1.367 . S
C631 C633 1.433 . S
C632 C628 1.350 . S
C632 C629 1.463 . S
C632 N636 1.427 . S
C633 H623 0.929 . S
C633 C631 1.433 . S
C633 N636 1.384 . S
C634 H625 0.929 . S
C634 C626 1.378 1_655 S
C634 C629 1.350 . S
C635 H622 0.929 . S
C635 C627 1.433 . S
C635 N637 1.384 1_455 S
N636 C632 1.427 . S
N636 C633 1.384 . S
N637 C629 1.427 . S
N637 C635 1.384 1_655 S
H638 C644 0.930 . S
H639 C648 0.930 . S
H640 C653 0.929 . S
H641 C651 0.929 . S
H642 C646 0.929 . S
H643 C652 0.929 . S
C644 H638 0.930 . S
C644 C645 1.367 . S
C644 C652 1.378 . S
C645 C644 1.367 . S
C645 C653 1.433 . S
C646 H642 0.929 . S
C646 C648 1.378 . S
C646 C650 1.350 . S
C647 C650 1.463 . S
C647 C652 1.350 . S
C647 N655 1.427 . S
C648 H639 0.930 . S
C648 C646 1.378 . S
C648 C649 1.367 . S
C649 C648 1.367 . S
C649 C651 1.433 . S
C650 C646 1.350 . S
C650 C647 1.463 . S
C650 N654 1.427 . S
C651 H641 0.929 . S
C651 C649 1.433 . S
C651 N654 1.384 . S
C652 H643 0.929 . S
C652 C644 1.378 . S
C652 C647 1.350 . S
C653 H640 0.929 . S
C653 C645 1.433 . S
C653 N655 1.384 . S
N654 C650 1.427 . S
N654 C651 1.384 . S
N655 C647 1.427 . S
N655 C653 1.384 . S
H656 C662 0.930 . S
H657 C666 0.930 . S
H658 C671 0.929 . S
H659 C669 0.929 . S
H660 C664 0.929 . S
H661 C670 0.929 . S
C662 H656 0.930 . S
C662 C663 1.367 . S
C662 C670 1.378 . S
C663 C662 1.367 . S
C663 C671 1.433 . S
C664 H660 0.929 . S
C664 C666 1.378 . S
C664 C668 1.350 . S
C665 C668 1.463 . S
C665 C670 1.350 . S
C665 N673 1.427 . S
C666 H657 0.930 . S
C666 C664 1.378 . S
C666 C667 1.367 . S
C667 C666 1.367 . S
C667 C669 1.433 . S
C668 C664 1.350 . S
C668 C665 1.463 . S
C668 N672 1.427 . S
C669 H659 0.929 . S
C669 C667 1.433 . S
C669 N672 1.384 . S
C670 H661 0.929 . S
C670 C662 1.378 . S
C670 C665 1.350 . S
C671 H658 0.929 . S
C671 C663 1.433 . S
C671 N673 1.384 . S
N672 C668 1.427 . S
N672 C669 1.384 . S
N673 C665 1.427 . S
N673 C671 1.384 . S
H674 C680 0.930 . S
H675 C684 0.930 . S
H676 C689 0.929 . S
H677 C687 0.929 . S
H678 C682 0.929 . S
H679 C688 0.929 . S
C680 H674 0.930 . S
C680 C681 1.367 . S
C680 C688 1.378 . S
C681 C680 1.367 . S
C681 C689 1.433 . S
C682 H678 0.929 . S
C682 C684 1.378 . S
C682 C686 1.350 . S
C683 C686 1.463 . S
C683 C688 1.350 . S
C683 N691 1.427 . S
C684 H675 0.930 . S
C684 C682 1.378 . S
C684 C685 1.367 . S
C685 C684 1.367 . S
C685 C687 1.433 . S
C686 C682 1.350 . S
C686 C683 1.463 . S
C686 N690 1.427 . S
C687 H677 0.929 . S
C687 C685 1.433 . S
C687 N690 1.384 . S
C688 H679 0.929 . S
C688 C680 1.378 . S
C688 C683 1.350 . S
C689 H676 0.929 . S
C689 C681 1.433 . S
C689 N691 1.384 . S
N690 C686 1.427 . S
N690 C687 1.384 . S
N691 C683 1.427 . S
N691 C689 1.384 . S
H692 C698 0.930 . S
H693 C702 0.930 . S
H694 C707 0.929 . S
H695 C705 0.929 . S
H696 C700 0.929 . S
H697 C706 0.929 . S
C698 H692 0.930 . S
C698 C699 1.367 . S
C698 C706 1.378 . S
C699 C698 1.367 . S
C699 C707 1.433 . S
C700 H696 0.929 . S
C700 C702 1.378 . S
C700 C704 1.350 . S
C701 C704 1.463 . S
C701 C706 1.350 . S
C701 N709 1.427 . S
C702 H693 0.930 . S
C702 C700 1.378 . S
C702 C703 1.367 . S
C703 C702 1.367 . S
C703 C705 1.433 . S
C704 C700 1.350 . S
C704 C701 1.463 . S
C704 N708 1.427 . S
C705 H695 0.929 . S
C705 C703 1.433 . S
C705 N708 1.384 . S
C706 H697 0.929 . S
C706 C698 1.378 . S
C706 C701 1.350 . S
C707 H694 0.929 . S
C707 C699 1.433 . S
C707 N709 1.384 . S
N708 C704 1.427 . S
N708 C705 1.384 . S
N709 C701 1.427 . S
N709 C707 1.384 . S
H710 C716 0.930 . S
H711 C720 0.930 . S
H712 C725 0.929 . S
H713 C723 0.929 . S
H714 C718 0.929 . S
H715 C724 0.929 . S
C716 H710 0.930 . S
C716 C717 1.367 . S
C716 C724 1.378 . S
C717 C716 1.367 . S
C717 C725 1.433 . S
C718 H714 0.929 . S
C718 C720 1.378 . S
C718 C722 1.350 . S
C719 C722 1.463 . S
C719 C724 1.350 . S
C719 N727 1.427 . S
C720 H711 0.930 . S
C720 C718 1.378 . S
C720 C721 1.367 . S
C721 C720 1.367 . S
C721 C723 1.433 . S
C722 C718 1.350 . S
C722 C719 1.463 . S
C722 N726 1.427 . S
C723 H713 0.929 . S
C723 C721 1.433 . S
C723 N726 1.384 . S
C724 H715 0.929 . S
C724 C716 1.378 . S
C724 C719 1.350 . S
C725 H712 0.929 . S
C725 C717 1.433 . S
C725 N727 1.384 . S
N726 C722 1.427 . S
N726 C723 1.384 . S
N727 C719 1.427 . S
N727 C725 1.384 . S
H728 C734 0.930 . S
H729 C738 0.930 . S
H730 C743 0.929 . S
H731 C741 0.929 . S
H732 C736 0.929 . S
H733 C742 0.929 . S
C734 H728 0.930 . S
C734 C735 1.367 . S
C734 C742 1.378 . S
C735 C734 1.367 . S
C735 C743 1.433 . S
C736 H732 0.929 . S
C736 C738 1.378 . S
C736 C740 1.350 . S
C737 C740 1.463 . S
C737 C742 1.350 . S
C737 N745 1.427 . S
C738 H729 0.930 . S
C738 C736 1.378 . S
C738 C739 1.367 . S
C739 C738 1.367 . S
C739 C741 1.433 . S
C740 C736 1.350 . S
C740 C737 1.463 . S
C740 N744 1.427 . S
C741 H731 0.929 . S
C741 C739 1.433 . S
C741 N744 1.384 . S
C742 H733 0.929 . S
C742 C734 1.378 . S
C742 C737 1.350 . S
C743 H730 0.929 . S
C743 C735 1.433 . S
C743 N745 1.384 . S
N744 C740 1.427 . S
N744 C741 1.384 . S
N745 C737 1.427 . S
N745 C743 1.384 . S
H746 C752 0.930 . S
H747 C756 0.930 . S
H748 C761 0.929 . S
H749 C759 0.929 . S
H750 C754 0.929 . S
H751 C760 0.929 . S
C752 H746 0.930 . S
C752 C753 1.367 . S
C752 C760 1.378 . S
C753 C752 1.367 . S
C753 C761 1.433 . S
C754 H750 0.929 . S
C754 C756 1.378 . S
C754 C758 1.350 . S
C755 C758 1.463 . S
C755 C760 1.350 . S
C755 N763 1.427 . S
C756 H747 0.930 . S
C756 C754 1.378 . S
C756 C757 1.367 . S
C757 C756 1.367 . S
C757 C759 1.433 . S
C758 C754 1.350 . S
C758 C755 1.463 . S
C758 N762 1.427 . S
C759 H749 0.929 . S
C759 C757 1.433 . S
C759 N762 1.384 . S
C760 H751 0.929 . S
C760 C752 1.378 . S
C760 C755 1.350 . S
C761 H748 0.929 . S
C761 C753 1.433 . S
C761 N763 1.384 . S
N762 C758 1.427 . S
N762 C759 1.384 . S
N763 C755 1.427 . S
N763 C761 1.384 . S
H764 C770 0.930 . S
H765 C774 0.930 . S
H766 C779 0.929 . S
H767 C777 0.929 . S
H768 C772 0.929 . S
H769 C778 0.929 . S
C770 H764 0.930 . S
C770 C771 1.367 . S
C770 C778 1.378 . S
C771 C770 1.367 . S
C771 C779 1.433 . S
C772 H768 0.929 . S
C772 C774 1.378 . S
C772 C776 1.350 . S
C773 C776 1.463 . S
C773 C778 1.350 . S
C773 N781 1.427 . S
C774 H765 0.930 . S
C774 C772 1.378 . S
C774 C775 1.367 . S
C775 C774 1.367 . S
C775 C777 1.433 . S
C776 C772 1.350 . S
C776 C773 1.463 . S
C776 N780 1.427 . S
C777 H767 0.929 . S
C777 C775 1.433 . S
C777 N780 1.384 . S
C778 H769 0.929 . S
C778 C770 1.378 . S
C778 C773 1.350 . S
C779 H766 0.929 . S
C779 C771 1.433 . S
C779 N781 1.384 . S
N780 C776 1.427 . S
N780 C777 1.384 . S
N781 C773 1.427 . S
N781 C779 1.384 . S
H782 C788 0.930 . S
H783 C792 0.930 . S
H784 C797 0.929 . S
H785 C795 0.929 . S
H786 C790 0.929 . S
H787 C796 0.929 . S
C788 H782 0.930 . S
C788 C789 1.367 . S
C788 C796 1.378 . S
C789 C788 1.367 . S
C789 C797 1.433 . S
C790 H786 0.929 . S
C790 C792 1.378 . S
C790 C794 1.350 . S
C791 C794 1.463 . S
C791 C796 1.350 . S
C791 N799 1.427 . S
C792 H783 0.930 . S
C792 C790 1.378 . S
C792 C793 1.367 . S
C793 C792 1.367 . S
C793 C795 1.433 . S
C794 C790 1.350 . S
C794 C791 1.463 . S
C794 N798 1.427 . S
C795 H785 0.929 . S
C795 C793 1.433 . S
C795 N798 1.384 . S
C796 H787 0.929 . S
C796 C788 1.378 . S
C796 C791 1.350 . S
C797 H784 0.929 . S
C797 C789 1.433 . S
C797 N799 1.384 . S
N798 C794 1.427 . S
N798 C795 1.384 . S
N799 C791 1.427 . S
N799 C797 1.384 . S
C231 C6 1.606 . S
C235 C176 1.669 . S
C249 C190 1.672 . S
C253 C20 1.591 . S
C267 C34 1.603 . S
C271 C204 1.671 . S
C285 C218 1.672 . S
C289 C48 1.600 . S
C303 C118 1.603 . S
C307 C64 1.671 . S
C321 C78 1.668 . S
C325 C132 1.599 . S
C339 C146 1.592 . S
C343 C92 1.671 . S
C357 C106 1.668 . S
C361 C160 1.600 . S
C375 C7 1.652 . S
C379 C35 1.653 . S
C393 C21 1.637 . S
C397 C49 1.636 . S
C411 C63 1.412 . S
C415 C91 1.413 . S
C429 C77 1.403 . S
C433 C105 1.404 . S
C447 C147 1.637 . S
C451 C119 1.636 . S
C465 C133 1.640 . S
C469 C161 1.638 . S
C483 C203 1.418 . S
C487 C175 1.417 . S
C501 C189 1.406 . S
C505 C217 1.407 . S
C519 C93 1.543 . S
C523 C9 1.562 . S
C537 C107 1.541 . S
C541 C23 1.563 . S
C555 C37 1.562 . S
C559 C65 1.544 . S
C573 C51 1.568 . S
C577 C79 1.534 . S
C591 C205 1.545 . S
C595 C121 1.561 . S
C609 C135 1.561 . S
C613 C219 1.545 . S
C627 C177 1.535 . S
C631 C149 1.567 . S
C645 C163 1.567 . S
C649 C191 1.536 . S
C663 C8 1.551 . S
C667 C50 1.554 . S
C681 C36 1.552 . S
C685 C22 1.554 . S
C699 C62 1.554 . S
C703 C104 1.549 . S
C717 C76 1.546 . S
C721 C90 1.549 . S
C735 C162 1.552 . S
C739 C120 1.554 . S
C753 C134 1.553 . S
C757 C148 1.552 . S
C771 C216 1.547 . S
C775 C174 1.552 . S
C789 C188 1.554 . S
C793 C202 1.548 . S
