# Generated by pormake.
# Topology wfs, (7)-cn, num edge types: 1
# Building blocks:
#     Node 0, Type 0, BuildingBlock: HICVOG_clean_sbu_0, # of connection points: 7
#     Node 1, Type 0, BuildingBlock: HICVOG_clean_sbu_0, # of connection points: 7
#     Node 2, Type 0, BuildingBlock: HICVOG_clean_sbu_0, # of connection points: 7
#     Node 3, Type 0, BuildingBlock: HICVOG_clean_sbu_0, # of connection points: 7
#     Node 4, Type 0, BuildingBlock: HICVOG_clean_sbu_0, # of connection points: 7
#     Node 5, Type 0, BuildingBlock: HICVOG_clean_sbu_0, # of connection points: 7
#     Node 6, Type 0, BuildingBlock: HICVOG_clean_sbu_0, # of connection points: 7
#     Node 7, Type 0, BuildingBlock: HICVOG_clean_sbu_0, # of connection points: 7
#     Edge 8, Type (0, 0), BuildingBlock: AJUNOK_clean_linker_0, # of connection points: 2
#     Edge 9, Type (0, 0), BuildingBlock: AJUNOK_clean_linker_0, # of connection points: 2
#     Edge 10, Type (0, 0), BuildingBlock: AJUNOK_clean_linker_0, # of connection points: 2
#     Edge 11, Type (0, 0), BuildingBlock: AJUNOK_clean_linker_0, # of connection points: 2
#     Edge 12, Type (0, 0), BuildingBlock: AJUNOK_clean_linker_0, # of connection points: 2
#     Edge 13, Type (0, 0), BuildingBlock: AJUNOK_clean_linker_0, # of connection points: 2
#     Edge 14, Type (0, 0), BuildingBlock: AJUNOK_clean_linker_0, # of connection points: 2
#     Edge 15, Type (0, 0), BuildingBlock: AJUNOK_clean_linker_0, # of connection points: 2
#     Edge 16, Type (0, 0), BuildingBlock: AJUNOK_clean_linker_0, # of connection points: 2
#     Edge 17, Type (0, 0), BuildingBlock: AJUNOK_clean_linker_0, # of connection points: 2
#     Edge 18, Type (0, 0), BuildingBlock: AJUNOK_clean_linker_0, # of connection points: 2
#     Edge 19, Type (0, 0), BuildingBlock: AJUNOK_clean_linker_0, # of connection points: 2
#     Edge 20, Type (0, 0), BuildingBlock: AJUNOK_clean_linker_0, # of connection points: 2
#     Edge 21, Type (0, 0), BuildingBlock: AJUNOK_clean_linker_0, # of connection points: 2
#     Edge 22, Type (0, 0), BuildingBlock: AJUNOK_clean_linker_0, # of connection points: 2
#     Edge 23, Type (0, 0), BuildingBlock: AJUNOK_clean_linker_0, # of connection points: 2
#     Edge 24, Type (0, 0), BuildingBlock: AJUNOK_clean_linker_0, # of connection points: 2
#     Edge 25, Type (0, 0), BuildingBlock: AJUNOK_clean_linker_0, # of connection points: 2
#     Edge 26, Type (0, 0), BuildingBlock: AJUNOK_clean_linker_0, # of connection points: 2
#     Edge 27, Type (0, 0), BuildingBlock: AJUNOK_clean_linker_0, # of connection points: 2
#     Edge 28, Type (0, 0), BuildingBlock: AJUNOK_clean_linker_0, # of connection points: 2
#     Edge 29, Type (0, 0), BuildingBlock: AJUNOK_clean_linker_0, # of connection points: 2
#     Edge 30, Type (0, 0), BuildingBlock: AJUNOK_clean_linker_0, # of connection points: 2
#     Edge 31, Type (0, 0), BuildingBlock: AJUNOK_clean_linker_0, # of connection points: 2
#     Edge 32, Type (0, 0), BuildingBlock: AJUNOK_clean_linker_0, # of connection points: 2
#     Edge 33, Type (0, 0), BuildingBlock: AJUNOK_clean_linker_0, # of connection points: 2
#     Edge 34, Type (0, 0), BuildingBlock: AJUNOK_clean_linker_0, # of connection points: 2
#     Edge 35, Type (0, 0), BuildingBlock: AJUNOK_clean_linker_0, # of connection points: 2
# Relax obj value: 0.589
# Max RMSD: 0.327
# Mean RMSD: 0.327
data_MOF--net-wfs--node1-HICVOG_clean_sbu_0--edge1-AJUNOK_clean_linker_0
_symmetry_space_group_name_H-M    P1
_symmetry_Int_Tables_number       1
_symmetry_cell_setting            triclinic
loop_
_symmetry_equiv_pos_as_xyz
'x, y, z'
_cell_length_a     24.879718
_cell_length_b     22.144973
_cell_length_c     25.870448
_cell_angle_alpha  90.529987
_cell_angle_beta   89.632278
_cell_angle_gamma 90.011499
loop_
_atom_site_label
_atom_site_type_symbol
_atom_site_fract_x
_atom_site_fract_y
_atom_site_fract_z
_atom_type_partial_charge
Zn0 Zn 0.1735 0.15186 0.23172 0.0
C1 C 0.16561 0.32892 0.25853 0.0
N2 N 0.21513 0.31818 0.27702 0.0
C3 C 0.2189 0.25811 0.27399 0.0
N4 N 0.17444 0.23342 0.2542 0.0
N5 N 0.14019 0.27711 0.24331 0.0
C6 C 0.02431 0.3025 0.11208 0.0
O7 O 0.00939 0.35297 0.13502 0.0
O8 O 0.23695 0.10139 0.25705 0.0
Zn9 Zn 0.06611 0.25841 0.21844 0.0
N10 N 0.18194 0.15135 0.15898 0.0
C11 C 0.17983 0.19029 0.07407 0.0
C12 C 0.16861 0.19679 0.12665 0.0
C13 C 0.20606 0.10043 0.1416 0.0
N14 N 0.20218 0.13796 0.05644 0.0
C15 C 0.21541 0.09216 0.08895 0.0
O16 O 0.03978 0.17172 0.2377 0.0
C17 C 0.05682 0.11859 0.24804 0.0
O18 O 0.10675 0.10696 0.24851 0.0
H19 H 0.15124 0.23805 0.14171 0.0
H20 H 0.21757 0.06734 0.16934 0.0
C21 C 0.96837 0.31982 0.24063 0.0
C22 C 0.93381 0.35793 0.26885 0.0
C23 C 0.0041 0.37919 0.32761 0.0
C24 C 0.0373 0.33908 0.30072 0.0
N25 N 0.01967 0.31254 0.2564 0.0
N26 N 0.9529 0.38709 0.31151 0.0
H27 H 0.95406 0.29276 0.20851 0.0
C28 C 0.24032 0.06702 0.29599 0.0
O29 O 0.20234 0.06967 0.33145 0.0
O30 O 0.05044 0.26337 0.13821 0.0
H31 H 0.07608 0.3278 0.31594 0.0
H32 H 0.17018 0.22595 0.0474 0.0
H33 H 0.01803 0.4016 0.36238 0.0
Zn34 Zn 0.06396 0.78633 0.8004 0.0
C35 C 0.22202 0.79976 0.76436 0.0
N36 N 0.22109 0.74015 0.75591 0.0
C37 C 0.17069 0.72517 0.77001 0.0
N38 N 0.14184 0.77398 0.78679 0.0
N39 N 0.1753 0.82034 0.78338 0.0
C40 C 0.24251 0.98321 0.75736 0.0
O41 O 0.2201 0.96607 0.71378 0.0
O42 O 0.03342 0.76785 0.87469 0.0
Zn43 Zn 0.16339 0.90048 0.80831 0.0
N44 N 0.0264 0.73241 0.75459 0.0
C45 C 0.01763 0.66931 0.6803 0.0
C46 C 0.04846 0.70775 0.7111 0.0
C47 C 0.97401 0.72373 0.76656 0.0
N48 N 0.9649 0.66107 0.69204 0.0
C49 C 0.94169 0.68812 0.73411 0.0
O50 O 0.10162 0.94014 0.77573 0.0
C51 C 0.05257 0.92606 0.7703 0.0
O52 O 0.03598 0.87245 0.77993 0.0
H53 H 0.08897 0.71883 0.69974 0.0
H54 H 0.95737 0.74824 0.79931 0.0
C55 C 0.18968 0.90093 0.9133 0.0
C56 C 0.17977 0.90564 0.96648 0.0
C57 C 0.08623 0.89507 0.95084 0.0
C58 C 0.09627 0.89325 0.89797 0.0
N59 N 0.14776 0.89593 0.88038 0.0
N60 N 0.12799 0.90208 0.98367 0.0
H61 H 0.2298 0.90589 0.89776 0.0
C62 C 0.05369 0.75774 0.91906 0.0
O63 O 0.10622 0.75689 0.9237 0.0
O64 O 0.22684 0.95881 0.7993 0.0
H65 H 0.06322 0.89006 0.87149 0.0
H66 H 0.03483 0.64832 0.64605 0.0
H67 H 0.04553 0.89282 0.96567 0.0
Zn68 Zn 0.79616 0.87697 0.21783 0.0
C69 C 0.79753 0.70772 0.2677 0.0
N70 N 0.74862 0.72361 0.28585 0.0
C71 C 0.7462 0.78252 0.2754 0.0
N72 N 0.79071 0.80162 0.25148 0.0
N73 N 0.82411 0.75549 0.24624 0.0
C74 C 0.91137 0.73566 0.10143 0.0
O75 O 0.86952 0.69989 0.09822 0.0
O76 O 0.73492 0.93724 0.23039 0.0
Zn77 Zn 0.89989 0.77004 0.22277 0.0
N78 N 0.79767 0.86217 0.14564 0.0
C79 C 0.78664 0.80416 0.06874 0.0
C80 C 0.79029 0.80747 0.12253 0.0
C81 C 0.80159 0.91323 0.11791 0.0
N82 N 0.78962 0.85575 0.04081 0.0
C83 C 0.79715 0.91034 0.06432 0.0
O84 O 0.92871 0.85663 0.24243 0.0
C85 C 0.91051 0.91075 0.24541 0.0
O86 O 0.86146 0.92165 0.23686 0.0
H87 H 0.78598 0.7673 0.14554 0.0
H88 H 0.8054 0.95608 0.13811 0.0
C89 C -0.00451 0.70736 0.24326 0.0
C90 C 0.03197 0.67415 0.2726 0.0
C91 C 0.96293 0.65317 0.33329 0.0
C92 C 0.92781 0.68965 0.30577 0.0
N93 N 0.94443 0.71491 0.26068 0.0
N94 N 0.01461 0.6476 0.3169 0.0
H95 H 0.00867 0.73178 0.20942 0.0
C96 C 0.72066 0.96541 0.27139 0.0
O97 O 0.74349 0.95142 0.31534 0.0
O98 O 0.92231 0.76137 0.1446 0.0
H99 H 0.88859 0.69954 0.32146 0.0
H100 H 0.78043 0.7612 0.04943 0.0
H101 H 0.95016 0.63245 0.36904 0.0
Zn102 Zn 0.89699 0.27237 0.79726 0.0
C103 C 0.74485 0.26371 0.74296 0.0
N104 N 0.74863 0.32286 0.73365 0.0
C105 C 0.79763 0.33681 0.75219 0.0
N106 N 0.82278 0.28781 0.77248 0.0
N107 N 0.78854 0.24273 0.76649 0.0
C108 C 0.71821 0.08298 0.74304 0.0
O109 O 0.74329 0.10061 0.70097 0.0
O110 O 0.91237 0.28666 0.87686 0.0
Zn111 Zn 0.79187 0.16725 0.80001 0.0
N112 N 0.94191 0.32716 0.75897 0.0
C113 C 0.95957 0.39145 0.68764 0.0
C114 C 0.92572 0.35179 0.71368 0.0
C115 C -0.00801 0.3371 0.77723 0.0
N116 N 0.01003 0.40071 0.70554 0.0
C117 C 0.02756 0.37393 0.7495 0.0
O118 O 0.85646 0.12151 0.78011 0.0
C119 C 0.90589 0.13198 0.77274 0.0
O120 O 0.92475 0.18558 0.77766 0.0
H121 H 0.88757 0.33976 0.69706 0.0
H122 H 0.00493 0.31239 0.81074 0.0
C123 C 0.79202 0.13102 0.90027 0.0
C124 C 0.79244 0.1346 0.95402 0.0
C125 C 0.79859 0.24112 0.94948 0.0
C126 C 0.79658 0.23733 0.89559 0.0
N127 N 0.79396 0.18207 0.87239 0.0
N128 N 0.79662 0.18959 0.97762 0.0
H129 H 0.79067 0.08788 0.88023 0.0
C130 C 0.94916 0.25534 0.89857 0.0
O131 O 0.97427 0.2145 0.87035 0.0
O132 O 0.73026 0.10787 0.78606 0.0
H133 H 0.79738 0.2778 0.87271 0.0
H134 H 0.94688 0.41226 0.65206 0.0
H135 H 0.80154 0.28456 0.96875 0.0
Zn136 Zn 0.56572 0.772 0.7172 0.0
C137 C 0.72405 0.76274 0.75327 0.0
N138 N 0.7231 0.82271 0.75948 0.0
C139 C 0.67204 0.83664 0.74732 0.0
N140 N 0.64283 0.78693 0.73367 0.0
N141 N 0.67659 0.74115 0.73791 0.0
C142 C 0.74395 0.58051 0.76519 0.0
O143 O 0.72191 0.59994 0.80851 0.0
O144 O 0.54349 0.77131 0.63922 0.0
Zn145 Zn 0.66426 0.66121 0.71575 0.0
N146 N 0.52398 0.83057 0.75578 0.0
C147 C 0.51353 0.89941 0.82632 0.0
C148 C 0.54478 0.85841 0.7982 0.0
C149 C 0.47178 0.83827 0.74283 0.0
N150 N 0.46118 0.90687 0.81361 0.0
C151 C 0.43905 0.87682 0.77282 0.0
O152 O 0.60366 0.62175 0.75167 0.0
C153 C 0.5542 0.63536 0.7542 0.0
O154 O 0.5379 0.68799 0.74148 0.0
H155 H 0.58453 0.84733 0.81127 0.0
H156 H 0.45538 0.81068 0.71204 0.0
C157 C 0.62979 0.60909 0.62742 0.0
C158 C 0.62155 0.60039 0.57474 0.0
C159 C 0.63624 0.70499 0.56128 0.0
C160 C 0.64847 0.71232 0.61355 0.0
N161 N 0.64522 0.66373 0.64513 0.0
N162 N 0.62406 0.64897 0.54283 0.0
H163 H 0.62613 0.57241 0.65452 0.0
C164 C 0.52265 0.81096 0.60976 0.0
O165 O 0.51785 0.86679 0.62676 0.0
O166 O 0.72804 0.60301 0.72273 0.0
H167 H 0.66051 0.75594 0.62862 0.0
H168 H 0.5299 0.92268 0.85964 0.0
H169 H 0.63799 0.74299 0.53534 0.0
Zn170 Zn 0.56486 0.27203 0.30261 0.0
C171 C 0.71658 0.28602 0.24509 0.0
N172 N 0.71446 0.22691 0.23432 0.0
C173 C 0.66631 0.21061 0.25376 0.0
N174 N 0.6397 0.25832 0.27572 0.0
N175 N 0.67248 0.30483 0.27023 0.0
C176 C 0.73893 0.46357 0.26132 0.0
O177 O 0.71173 0.44676 0.22028 0.0
O178 O 0.54958 0.25826 0.38227 0.0
Zn179 Zn 0.66686 0.37617 0.31036 0.0
N180 N 0.52014 0.21573 0.26523 0.0
C181 C 0.50508 0.14644 0.19594 0.0
C182 C 0.53781 0.18809 0.22115 0.0
C183 C 0.469 0.20796 0.28213 0.0
N184 N 0.45354 0.13985 0.21203 0.0
C185 C 0.43399 0.1711 0.25364 0.0
O186 O 0.60271 0.42316 0.29112 0.0
C187 C 0.55363 0.4123 0.28219 0.0
O188 O 0.53532 0.35825 0.28447 0.0
H189 H 0.576 0.19969 0.20453 0.0
H190 H 0.4547 0.23477 0.31462 0.0
C191 C 0.63683 0.39204 0.41186 0.0
C192 C 0.62671 0.37761 0.46342 0.0
C193 C 0.65764 0.27795 0.44734 0.0
C194 C 0.66872 0.29311 0.39611 0.0
N195 N 0.65778 0.34996 0.37969 0.0
N196 N 0.63752 0.32075 0.48006 0.0
H197 H 0.63041 0.43713 0.39736 0.0
C198 C 0.51691 0.29334 0.40675 0.0
O199 O 0.49584 0.33869 0.38164 0.0
O200 O 0.72898 0.43724 0.30398 0.0
H201 H 0.68545 0.25978 0.36984 0.0
H202 H 0.51928 0.12274 0.16172 0.0
H203 H 0.66573 0.23294 0.46118 0.0
Zn204 Zn 0.29357 0.39343 0.71853 0.0
C205 C 0.29643 0.2277 0.77233 0.0
N206 N 0.24717 0.24271 0.79021 0.0
C207 C 0.24418 0.30174 0.78007 0.0
N208 N 0.2888 0.32156 0.75671 0.0
N209 N 0.32266 0.27595 0.75172 0.0
C210 C 0.43545 0.2465 0.61796 0.0
O211 O 0.4448 0.19353 0.63847 0.0
O212 O 0.2324 0.45407 0.7302 0.0
Zn213 Zn 0.39724 0.29085 0.72601 0.0
N214 N 0.29365 0.37057 0.64743 0.0
C215 C 0.29211 0.30292 0.57544 0.0
C216 C 0.29479 0.31292 0.62875 0.0
C217 C 0.28863 0.418 0.61567 0.0
N218 N 0.28671 0.35081 0.54343 0.0
C219 C 0.28375 0.40813 0.56266 0.0
O220 O 0.42577 0.3758 0.74787 0.0
C221 C 0.40733 0.42978 0.74785 0.0
O222 O 0.35896 0.44005 0.73568 0.0
H223 H 0.29761 0.27515 0.65459 0.0
H224 H 0.28847 0.46315 0.63213 0.0
C225 C 0.49328 0.22639 0.74243 0.0
C226 C 0.52845 0.1878 0.76836 0.0
C227 C 0.45993 0.1671 0.82975 0.0
C228 C 0.42657 0.20841 0.80551 0.0
N229 N 0.44281 0.23458 0.76082 0.0
N230 N 0.51041 0.15844 0.81113 0.0
H231 H 0.5067 0.25371 0.7104 0.0
C232 C 0.21972 0.47941 0.77299 0.0
O233 O 0.24411 0.46217 0.81524 0.0
O234 O 0.41291 0.28753 0.64588 0.0
H235 H 0.38907 0.22129 0.82315 0.0
H236 H 0.29385 0.25751 0.55971 0.0
H237 H 0.447 0.14476 0.86472 0.0
Zn238 Zn 0.39633 0.76127 0.29827 0.0
C239 C 0.2462 0.75717 0.23781 0.0
N240 N 0.2496 0.81754 0.23581 0.0
C241 C 0.29866 0.82927 0.25522 0.0
N242 N 0.32403 0.77778 0.2697 0.0
N243 N 0.29077 0.73334 0.2579 0.0
C244 C 0.21967 0.56934 0.23675 0.0
O245 O 0.25117 0.57615 0.19627 0.0
O246 O 0.41007 0.78343 0.37642 0.0
Zn247 Zn 0.29223 0.65724 0.29017 0.0
N248 N 0.44329 0.8114 0.25846 0.0
C249 C 0.46198 0.87172 0.185 0.0
C250 C 0.42748 0.83409 0.21238 0.0
C251 C 0.49358 0.82072 0.27637 0.0
N252 N 0.51245 0.88098 0.20277 0.0
C253 C 0.52971 0.85576 0.24754 0.0
O254 O 0.35715 0.60848 0.27346 0.0
C255 C 0.40711 0.6198 0.27521 0.0
O256 O 0.42399 0.6734 0.28461 0.0
H257 H 0.38889 0.82231 0.19657 0.0
H258 H 0.50584 0.79702 0.3107 0.0
C259 C 0.29204 0.62147 0.38988 0.0
C260 C 0.28961 0.62476 0.44354 0.0
C261 C 0.28901 0.73154 0.43959 0.0
C262 C 0.29076 0.72793 0.38574 0.0
N263 N 0.29246 0.67272 0.36231 0.0
N264 N 0.28809 0.67981 0.46738 0.0
H265 H 0.29186 0.57848 0.36954 0.0
C266 C 0.43045 0.74474 0.40722 0.0
O267 O 0.43776 0.68933 0.39014 0.0
O268 O 0.22787 0.60202 0.27671 0.0
H269 H 0.29012 0.76856 0.36324 0.0
H270 H 0.44966 0.8912 0.14874 0.0
H271 H 0.28774 0.77495 0.45909 0.0
C272 C 0.27356 0.96861 0.33146 0.0
C273 C 0.27623 1.01293 0.29278 0.0
C274 C 0.29099 0.90912 0.32179 0.0
C275 C 0.31067 0.89144 0.27283 0.0
H276 H 0.25337 0.97826 0.36783 0.0
H277 H 0.28251 0.87531 0.35069 0.0
S278 S 0.33861 0.99338 0.1629 0.0
N279 N 0.31309 0.03804 0.20817 0.0
N280 N 0.33895 0.92512 0.18795 0.0
C281 C 0.31924 0.93681 0.23608 0.0
C282 C 0.30399 0.99793 0.24671 0.0
C283 C 0.85883 0.70065 0.78897 0.0
C284 C 0.88239 0.68971 0.73997 0.0
C285 C 0.8059 0.72135 0.79354 0.0
C286 C 0.77436 0.72915 0.74954 0.0
H287 H 0.88231 0.69692 0.82389 0.0
H288 H 0.79032 0.73368 0.8314 0.0
S289 S 0.81235 0.6958 0.61376 0.0
N290 N 0.86682 0.68042 0.64727 0.0
N291 N 0.7669 0.71793 0.65661 0.0
C292 C 0.79517 0.71256 0.70108 0.0
C293 C 0.84921 0.69231 0.69617 0.0
C294 C 0.66092 0.11848 0.30766 0.0
C295 C 0.65465 0.14542 0.25909 0.0
C296 C 0.67762 0.05787 0.31174 0.0
C297 C 0.68826 0.02207 0.26736 0.0
H298 H 0.65894 0.14606 0.34243 0.0
H299 H 0.68637 0.04066 0.34982 0.0
S300 S 0.66741 0.06896 0.1314 0.0
N301 N 0.6536 0.12993 0.16617 0.0
N302 N 0.68189 1.01596 0.1735 0.0
C303 C 0.67546 0.04666 0.2189 0.0
C304 C 0.6595 0.10838 0.21487 0.0
C305 C 0.12023 0.3609 0.71746 0.0
C306 C 0.08563 0.37109 0.75978 0.0
C307 C 0.17259 0.34074 0.72484 0.0
C308 C 0.19245 0.33167 0.77471 0.0
H309 H 0.10564 0.36375 0.67818 0.0
H310 H 0.19683 0.32946 0.69122 0.0
S311 S 0.12176 0.36181 0.89844 0.0
N312 N 0.07732 0.37849 0.85357 0.0
N313 N 0.17651 0.33962 0.8671 0.0
C314 C 0.15995 0.34559 0.81748 0.0
C315 C 0.1064 0.36624 0.81009 0.0
C316 C 0.28255 0.07469 0.71431 0.0
C317 C 0.27596 0.03935 0.75909 0.0
C318 C 0.2992 0.13544 0.71757 0.0
C319 C 0.30943 0.163 0.76567 0.0
H320 H 0.27031 0.05719 0.67697 0.0
H321 H 0.29777 0.16267 0.68302 0.0
S322 S 0.31112 0.08702 0.89247 0.0
N323 N 0.29283 0.03345 0.85143 0.0
N324 N 0.31954 0.14828 0.85772 0.0
C325 C 0.309 0.12632 0.80963 0.0
C326 C 0.29355 0.06428 0.80629 0.0
C327 C 0.17097 0.7315 0.29486 0.0
C328 C 0.19415 0.72832 0.24539 0.0
C329 C 0.11971 0.70862 0.30406 0.0
C330 C 0.08977 0.68262 0.26384 0.0
H331 H 0.19197 0.75366 0.32631 0.0
H332 H 0.10211 0.71489 0.34217 0.0
S333 S 0.13702 0.65335 0.12984 0.0
N334 N 0.18708 0.6906 0.15729 0.0
N335 N 0.08947 0.64753 0.17448 0.0
C336 C 0.11378 0.67587 0.2148 0.0
C337 C 0.16637 0.69907 0.2055 0.0
C338 C 0.67698 0.99611 0.79002 0.0
C339 C 0.68667 0.02559 0.74288 0.0
C340 C 0.66298 0.93485 0.7912 0.0
C341 C 0.65639 0.90088 0.74544 0.0
H342 H 0.68548 1.01855 0.82643 0.0
H343 H 0.66298 0.91238 0.82824 0.0
S344 S 0.66397 0.95975 0.61224 0.0
N345 N 0.67898 1.01859 0.64919 0.0
N346 N 0.65187 0.90335 0.65202 0.0
C347 C 0.6588 0.93157 0.69833 0.0
C348 C 0.67406 0.99399 0.69689 0.0
C349 C 0.78963 0.32644 0.29813 0.0
C350 C 0.76793 0.31697 0.2489 0.0
C351 C 0.8424 0.34601 0.30386 0.0
C352 C 0.87555 0.35499 0.26046 0.0
H353 H 0.76645 0.31602 0.33247 0.0
H354 H 0.85845 0.34936 0.34263 0.0
S355 S 0.83477 0.34338 0.12304 0.0
N356 N 0.78078 0.32284 0.15605 0.0
N357 N 0.88092 0.36025 0.16652 0.0
C358 C 0.85309 0.3495 0.21085 0.0
C359 C 0.79906 0.32966 0.20513 0.0
C360 C 0.79202 0.49773 0.71679 0.0
C361 C 0.77754 0.52448 0.76448 0.0
C362 C 0.80863 0.43723 0.71373 0.0
C363 C 0.81216 0.40125 0.75812 0.0
H364 H 0.78578 0.52169 0.681 0.0
H365 H 0.81301 0.4166 0.6758 0.0
S366 S 0.79316 0.4536 0.89323 0.0
N367 N 0.77889 0.51341 0.85814 0.0
N368 N 0.81005 0.39971 0.85167 0.0
C369 C 0.80554 0.42972 0.80636 0.0
C370 C 0.78813 0.49136 0.80972 0.0
C371 C 0.29935 0.21022 0.31318 0.0
C372 C 0.27098 0.22861 0.26943 0.0
C373 C 0.35134 0.18638 0.30796 0.0
C374 C 0.37573 0.18036 0.25886 0.0
H375 H 0.2819 0.21578 0.35139 0.0
H376 H 0.37343 0.17502 0.34249 0.0
S377 S 0.31696 0.22377 0.13312 0.0
N378 N 0.27051 0.24119 0.17651 0.0
N379 N 0.36671 0.19385 0.16601 0.0
C380 C 0.34633 0.19647 0.21492 0.0
C381 C 0.29434 0.22174 0.22043 0.0
C382 C 0.16424 0.62726 0.725 0.0
C383 C 0.15572 0.66058 0.77094 0.0
C384 C 0.17917 0.56625 0.72589 0.0
C385 C 0.18761 0.53633 0.7729 0.0
H386 H 0.16522 0.65018 0.68817 0.0
H387 H 0.18936 0.54443 0.68953 0.0
S388 S 0.15983 0.59984 0.90367 0.0
N389 N 0.1484 0.65655 0.86421 0.0
N390 N 0.17666 0.54179 0.8664 0.0
C391 C 0.173 0.56702 0.81888 0.0
C392 C 0.15702 0.62918 0.81775 0.0
C393 C 0.62234 0.84422 0.21502 0.0
C394 C 0.58784 0.85282 0.25769 0.0
C395 C 0.67478 0.82418 0.22169 0.0
C396 C 0.6949 0.81354 0.27117 0.0
H397 H 0.60767 0.84813 0.17585 0.0
H398 H 0.69876 0.81392 0.18771 0.0
S399 S 0.62518 0.84044 0.39592 0.0
N400 N 0.58037 0.85821 0.3517 0.0
N401 N 0.67966 0.81901 0.36378 0.0
C402 C 0.6627 0.82622 0.31441 0.0
C403 C 0.60904 0.84692 0.30778 0.0
C404 C 0.78886 0.54736 0.30655 0.0
C405 C 0.77243 0.51969 0.26003 0.0
C406 C 0.80667 0.60762 0.30776 0.0
C407 C 0.80969 0.64247 0.26252 0.0
H408 H 0.78336 0.52441 0.343 0.0
H409 H 0.81248 0.62905 0.34513 0.0
S410 S 0.7811 0.58823 0.12974 0.0
N411 N 0.76882 0.52913 0.16642 0.0
N412 N 0.80097 0.64244 0.16948 0.0
C413 C 0.79947 0.61319 0.21531 0.0
C414 C 0.78115 0.55183 0.21387 0.0
C415 C 0.62026 0.19927 0.80146 0.0
C416 C 0.58659 0.19171 0.75848 0.0
C417 C 0.67246 0.22068 0.79548 0.0
C418 C 0.69307 0.23361 0.74633 0.0
H419 H 0.60502 0.19334 0.84042 0.0
H420 H 0.69607 0.2296 0.82975 0.0
S421 S 0.62503 0.21198 0.62086 0.0
N422 N 0.58 0.19125 0.66447 0.0
N423 N 0.67896 0.2325 0.65363 0.0
C424 C 0.66157 0.22252 0.7027 0.0
C425 C 0.60817 0.20058 0.70866 0.0
C426 C 0.17637 0.47753 0.19656 0.0
C427 C 0.18439 0.5149 0.24035 0.0
C428 C 0.15883 0.41732 0.20156 0.0
C429 C 0.14941 0.39228 0.25053 0.0
H430 H 0.18829 0.49299 0.15858 0.0
H431 H 0.15962 0.38824 0.16764 0.0
S432 S 0.154 0.47412 0.37631 0.0
N433 N 0.17125 0.5253 0.33334 0.0
N434 N 0.14218 0.41186 0.34276 0.0
C435 C 0.15082 0.43138 0.29372 0.0
C436 C 0.1674 0.4928 0.28864 0.0
C437 C 0.29675 0.84588 0.81207 0.0
C438 C 0.27213 0.83373 0.76462 0.0
C439 C 0.34973 0.86639 0.81397 0.0
C440 C 0.38007 0.87368 0.76837 0.0
H441 H 0.27627 0.83525 0.84787 0.0
H442 H 0.36833 0.87128 0.85154 0.0
S443 S 0.33028 0.85601 0.63425 0.0
N444 N 0.27889 0.83601 0.6711 0.0
N445 N 0.37895 0.87545 0.67425 0.0
C446 C 0.35427 0.86615 0.72051 0.0
C447 C 0.30021 0.84528 0.71873 0.0
C448 C 0.03812 1.00674 0.25284 0.0
C449 C 0.01853 0.06675 0.25411 0.0
C450 C 0.00333 0.95658 0.25239 0.0
C451 C 0.94718 0.96386 0.25347 0.0
H452 H 0.0809 0.99808 0.25027 0.0
H453 H 0.02073 0.91184 0.24933 0.0
S454 S 0.87488 0.11118 0.26284 0.0
N455 N 0.93901 0.13004 0.26042 0.0
N456 N 0.87367 0.0367 0.2604 0.0
C457 C 0.92704 0.02367 0.25747 0.0
C458 C 0.96256 0.07471 0.25755 0.0
C459 C -0.00174 0.08671 0.76215 0.0
C460 C 0.94223 0.07896 0.76346 0.0
C461 C 0.03322 0.03692 0.76094 0.0
C462 C 0.01396 0.97677 0.76145 0.0
H463 H 0.01551 0.13159 0.76409 0.0
H464 H 0.07596 0.04611 0.76201 0.0
S465 S 0.87049 0.93113 0.75758 0.0
N466 N 0.86891 1.00564 0.75935 0.0
N467 N 0.93477 0.91272 0.7581 0.0
C468 C 0.95803 0.96826 0.75953 0.0
C469 C 0.92225 1.01904 0.76032 0.0
C470 C 0.53414 0.52473 0.76464 0.0
C471 C 0.51512 0.58487 0.7626 0.0
C472 C 0.4991 0.47501 0.76228 0.0
C473 C 0.44324 0.48287 0.75803 0.0
H474 H 0.57687 0.5155 0.76556 0.0
H475 H 0.5163 0.43007 0.76165 0.0
S476 S 0.37169 0.6308 0.75896 0.0
N477 N 0.43595 0.64908 0.76144 0.0
N478 N 0.37001 0.55629 0.75781 0.0
C479 C 0.42329 0.54281 0.75956 0.0
C480 C 0.45913 0.59349 0.76168 0.0
C481 C 0.46084 0.45783 0.27511 0.0
C482 C 0.517 0.46516 0.27393 0.0
C483 C 0.42598 0.50784 0.27365 0.0
C484 C 0.44551 0.56776 0.27114 0.0
H485 H 0.44348 0.41321 0.27888 0.0
H486 H 0.38319 0.49926 0.27621 0.0
S487 S 0.58917 0.61205 0.26208 0.0
N488 N 0.59046 0.53771 0.26599 0.0
N489 N 0.52501 0.6309 0.26398 0.0
C490 C 0.50151 0.57568 0.2679 0.0
C491 C 0.5371 0.52476 0.26907 0.0
C492 C 0.25466 0.0329 0.01675 0.0
C493 C 0.23282 0.03323 0.06689 0.0
C494 C 0.24875 0.98249 0.98457 0.0
C495 C 0.22007 0.93177 1.00177 0.0
H496 H 0.27009 0.07418 1.00016 0.0
H497 H 0.25835 0.98778 0.94416 0.0
S498 S 0.18334 0.8974 0.13683 0.0
N499 N 0.20105 0.96914 0.13776 0.0
N500 N 0.19238 0.87448 0.07653 0.0
C501 C 0.21184 0.9258 0.05497 0.0
C502 C 0.21678 0.97718 0.08793 0.0
C503 C 0.96347 0.73576 0.9612 0.0
C504 C 0.01806 0.75206 0.96604 0.0
C505 C 0.92937 0.7306 1.00486 0.0
C506 C 0.94781 0.7431 0.05534 0.0
H507 H 0.94698 0.72615 0.92335 0.0
H508 H 0.888 0.71714 0.99886 0.0
S509 S 0.08608 0.79069 0.08945 0.0
N510 N 0.08846 0.78105 0.02617 0.0
N511 N 0.02401 0.77456 0.10705 0.0
C512 C 0.00189 0.76068 0.06058 0.0
C513 C 0.037 0.7642 0.01641 0.0
C514 C 0.83052 0.06828 0.02095 0.0
C515 C 0.79071 0.07898 0.98411 0.0
C516 C 0.83332 1.01269 0.04583 0.0
C517 C 0.79618 0.96645 0.03471 0.0
H518 H 0.86051 0.10239 0.02948 0.0
H519 H 0.86494 1.0057 0.07377 0.0
S520 S 0.68129 0.97477 0.94476 0.0
N521 N 0.71131 0.04102 0.93995 0.0
N522 N 0.71677 0.93615 0.98687 0.0
C523 C 0.75562 0.97711 0.99863 0.0
C524 C 0.75266 0.03368 0.97343 0.0
C525 C 0.97243 0.33073 0.0314 0.0
C526 C 0.00605 0.28949 0.05746 0.0
C527 C 0.95313 0.31913 0.98093 0.0
C528 C 0.96674 0.26585 0.95369 0.0
H529 H 0.96057 0.37259 0.05019 0.0
H530 H 0.92797 0.35272 0.96288 0.0
S531 S 0.05119 0.1412 1.00474 0.0
N532 N 0.05002 0.19171 0.05202 0.0
N533 N 0.01478 0.17018 0.95799 0.0
C534 C -0.00023 0.22386 0.97953 0.0
C535 C 0.0191 0.23555 0.03096 0.0
C536 C 0.58044 0.47413 0.48508 0.0
C537 C 0.61427 0.42659 0.50016 0.0
C538 C 0.58131 0.52962 0.51099 0.0
C539 C 0.61547 0.53908 0.55317 0.0
H540 H 0.55585 0.46979 0.45084 0.0
H541 H 0.55695 0.56612 0.4964 0.0
S542 S 0.70966 0.42717 0.60932 0.0
N543 N 0.67997 0.39068 0.56158 0.0
N544 N 0.68307 0.49538 0.60984 0.0
C545 C 0.64715 0.49053 0.57059 0.0
C546 C 0.64579 0.43391 0.54439 0.0
C547 C 0.47982 0.21338 0.53354 0.0
C548 C 0.45605 0.25961 0.5642 0.0
C549 C 0.501 0.22459 0.48364 0.0
C550 C 0.49916 0.28252 0.46172 0.0
H551 H 0.48205 0.16777 0.5481 0.0
H552 H 0.51783 0.18719 0.46166 0.0
S553 S 0.4471 0.42104 0.52745 0.0
N554 N 0.43626 0.36693 0.56966 0.0
N555 N 0.47472 0.38769 0.47653 0.0
C556 C 0.47672 0.32943 0.49242 0.0
C557 C 0.45555 0.31812 0.54326 0.0
C558 C 0.31483 0.46532 0.48675 0.0
C559 C 0.27908 0.45995 0.52844 0.0
C560 C 0.31875 0.51943 0.45989 0.0
C561 C 0.28606 0.5691 0.47333 0.0
H562 H 0.34147 0.42847 0.47628 0.0
H563 H 0.34821 0.52274 0.42901 0.0
S564 S 0.17907 0.57337 0.57337 0.0
N565 N 0.20575 0.50536 0.57798 0.0
N566 N 0.21276 0.60734 0.52675 0.0
C567 C 0.24802 0.56304 0.51303 0.0
C568 C 0.24423 0.5081 0.54052 0.0
C569 C 0.48818 0.83723 0.52057 0.0
C570 C 0.49908 0.79324 0.55833 0.0
C571 C 0.46467 0.82188 0.47255 0.0
C572 C 0.45065 0.76181 0.46011 0.0
H573 H 0.49842 0.88406 0.52788 0.0
H574 H 0.45851 0.85726 0.44458 0.0
S575 S 0.46448 0.63039 0.5476 0.0
N576 N 0.48999 0.6874 0.58086 0.0
N577 N 0.44582 0.65879 0.49173 0.0
C578 C 0.45993 0.71769 0.49814 0.0
C579 C 0.48408 0.73325 0.54678 0.0
loop_
_geom_bond_atom_site_label_1
_geom_bond_atom_site_label_2
_geom_bond_distance
_geom_bond_site_symmetry_2
_ccdc_geom_bond_type
Zn0 N4 2.020 . S
Zn0 O8 2.019 . S
Zn0 N10 2.119 . S
Zn0 O18 1.975 . S
C1 N2 1.334 . S
C1 N5 1.336 . S
N2 C1 1.334 . S
N2 C3 1.334 . S
C3 N2 1.334 . S
C3 N4 1.336 . S
N4 Zn0 2.020 . S
N4 C3 1.336 . S
N4 N5 1.354 . S
N5 C1 1.336 . S
N5 N4 1.354 . S
N5 Zn9 2.020 . S
C6 O7 1.244 . S
C6 O30 1.257 . S
O7 C6 1.244 . S
O8 Zn0 2.019 . S
O8 C28 1.257 . S
Zn9 N5 2.020 . S
Zn9 O16 1.975 . S
Zn9 N25 2.119 . S
Zn9 O30 2.019 . S
N10 Zn0 2.119 . S
N10 C12 1.334 . S
N10 C13 1.328 . S
C11 C12 1.391 . S
C11 N14 1.329 . S
C11 H32 0.930 1_554 S
C12 N10 1.334 . S
C12 C11 1.391 . S
C12 H19 0.930 . S
C13 N10 1.328 . S
C13 C15 1.392 . S
C13 H20 0.930 . S
N14 C11 1.329 . S
N14 C15 1.331 . S
C15 C13 1.392 . S
C15 N14 1.331 . S
O16 Zn9 1.975 . S
O16 C17 1.252 . S
C17 O16 1.252 . S
C17 O18 1.252 . S
O18 Zn0 1.975 . S
O18 C17 1.252 . S
H19 C12 0.930 . S
H20 C13 0.930 . S
C21 C22 1.392 . S
C21 N25 1.328 . S
C21 H27 0.930 . S
C22 C21 1.392 . S
C22 N26 1.331 . S
C23 C24 1.391 . S
C23 N26 1.329 . S
C23 H33 0.930 . S
C24 C23 1.391 . S
C24 N25 1.334 . S
C24 H31 0.930 . S
N25 Zn9 2.119 . S
N25 C21 1.328 . S
N25 C24 1.334 . S
N26 C22 1.331 . S
N26 C23 1.329 . S
H27 C21 0.930 . S
C28 O8 1.257 . S
C28 O29 1.244 . S
O29 C28 1.244 . S
O30 C6 1.257 . S
O30 Zn9 2.019 . S
H31 C24 0.930 . S
H32 C11 0.930 1_556 S
H33 C23 0.930 . S
Zn34 N38 2.020 . S
Zn34 O42 2.019 . S
Zn34 N44 2.119 . S
Zn34 O52 1.975 . S
C35 N36 1.334 . S
C35 N39 1.336 . S
N36 C35 1.334 . S
N36 C37 1.334 . S
C37 N36 1.334 . S
C37 N38 1.336 . S
N38 Zn34 2.020 . S
N38 C37 1.336 . S
N38 N39 1.354 . S
N39 C35 1.336 . S
N39 N38 1.354 . S
N39 Zn43 2.020 . S
C40 O41 1.244 . S
C40 O64 1.257 . S
O41 C40 1.244 . S
O42 Zn34 2.019 . S
O42 C62 1.257 . S
Zn43 N39 2.020 . S
Zn43 O50 1.975 . S
Zn43 N59 2.119 . S
Zn43 O64 2.019 . S
N44 Zn34 2.119 . S
N44 C46 1.334 . S
N44 C47 1.328 . S
C45 C46 1.391 . S
C45 N48 1.329 . S
C45 H66 0.930 . S
C46 N44 1.334 . S
C46 C45 1.391 . S
C46 H53 0.930 . S
C47 N44 1.328 . S
C47 C49 1.392 . S
C47 H54 0.930 . S
N48 C45 1.329 . S
N48 C49 1.331 . S
C49 C47 1.392 . S
C49 N48 1.331 . S
O50 Zn43 1.975 . S
O50 C51 1.252 . S
C51 O50 1.252 . S
C51 O52 1.252 . S
O52 Zn34 1.975 . S
O52 C51 1.252 . S
H53 C46 0.930 . S
H54 C47 0.930 . S
C55 C56 1.392 . S
C55 N59 1.328 . S
C55 H61 0.930 . S
C56 C55 1.392 . S
C56 N60 1.331 . S
C57 C58 1.391 . S
C57 N60 1.329 . S
C57 H67 0.930 1_556 S
C58 C57 1.391 . S
C58 N59 1.334 . S
C58 H65 0.930 . S
N59 Zn43 2.119 . S
N59 C55 1.328 . S
N59 C58 1.334 . S
N60 C56 1.331 . S
N60 C57 1.329 . S
H61 C55 0.930 . S
C62 O42 1.257 . S
C62 O63 1.244 . S
O63 C62 1.244 . S
O64 C40 1.257 . S
O64 Zn43 2.019 . S
H65 C58 0.930 . S
H66 C45 0.930 . S
H67 C57 0.930 1_554 S
Zn68 N72 2.020 . S
Zn68 O76 2.019 . S
Zn68 N78 2.119 . S
Zn68 O86 1.975 . S
C69 N70 1.334 . S
C69 N73 1.336 . S
N70 C69 1.334 . S
N70 C71 1.334 . S
C71 N70 1.334 . S
C71 N72 1.336 . S
N72 Zn68 2.020 . S
N72 C71 1.336 . S
N72 N73 1.354 . S
N73 C69 1.336 . S
N73 N72 1.354 . S
N73 Zn77 2.020 . S
C74 O75 1.244 . S
C74 O98 1.257 . S
O75 C74 1.244 . S
O76 Zn68 2.019 . S
O76 C96 1.257 . S
Zn77 N73 2.020 . S
Zn77 O84 1.975 . S
Zn77 N93 2.119 . S
Zn77 O98 2.019 . S
N78 Zn68 2.119 . S
N78 C80 1.334 . S
N78 C81 1.328 . S
C79 C80 1.391 . S
C79 N82 1.329 . S
C79 H100 0.930 1_554 S
C80 N78 1.334 . S
C80 C79 1.391 . S
C80 H87 0.930 . S
C81 N78 1.328 . S
C81 C83 1.392 . S
C81 H88 0.930 . S
N82 C79 1.329 . S
N82 C83 1.331 . S
C83 C81 1.392 . S
C83 N82 1.331 . S
O84 Zn77 1.975 . S
O84 C85 1.252 . S
C85 O84 1.252 . S
C85 O86 1.252 . S
O86 Zn68 1.975 . S
O86 C85 1.252 . S
H87 C80 0.930 . S
H88 C81 0.930 . S
C89 C90 1.392 . S
C89 N93 1.328 . S
C89 H95 0.930 . S
C90 C89 1.392 . S
C90 N94 1.331 . S
C91 C92 1.391 . S
C91 N94 1.329 . S
C91 H101 0.930 . S
C92 C91 1.391 . S
C92 N93 1.334 . S
C92 H99 0.930 . S
N93 Zn77 2.119 . S
N93 C89 1.328 . S
N93 C92 1.334 . S
N94 C90 1.331 . S
N94 C91 1.329 . S
H95 C89 0.930 . S
C96 O76 1.257 . S
C96 O97 1.244 . S
O97 C96 1.244 . S
O98 C74 1.257 . S
O98 Zn77 2.019 . S
H99 C92 0.930 . S
H100 C79 0.930 1_556 S
H101 C91 0.930 . S
Zn102 N106 2.020 . S
Zn102 O110 2.019 . S
Zn102 N112 2.119 . S
Zn102 O120 1.975 . S
C103 N104 1.334 . S
C103 N107 1.336 . S
N104 C103 1.334 . S
N104 C105 1.334 . S
C105 N104 1.334 . S
C105 N106 1.336 . S
N106 Zn102 2.020 . S
N106 C105 1.336 . S
N106 N107 1.354 . S
N107 C103 1.336 . S
N107 N106 1.354 . S
N107 Zn111 2.020 . S
C108 O109 1.244 . S
C108 O132 1.257 . S
O109 C108 1.244 . S
O110 Zn102 2.019 . S
O110 C130 1.257 . S
Zn111 N107 2.020 . S
Zn111 O118 1.975 . S
Zn111 N127 2.119 . S
Zn111 O132 2.019 . S
N112 Zn102 2.119 . S
N112 C114 1.334 . S
N112 C115 1.328 . S
C113 C114 1.391 . S
C113 N116 1.329 . S
C113 H134 0.930 . S
C114 N112 1.334 . S
C114 C113 1.391 . S
C114 H121 0.930 . S
C115 N112 1.328 . S
C115 C117 1.392 . S
C115 H122 0.930 . S
N116 C113 1.329 . S
N116 C117 1.331 . S
C117 C115 1.392 . S
C117 N116 1.331 . S
O118 Zn111 1.975 . S
O118 C119 1.252 . S
C119 O118 1.252 . S
C119 O120 1.252 . S
O120 Zn102 1.975 . S
O120 C119 1.252 . S
H121 C114 0.930 . S
H122 C115 0.930 . S
C123 C124 1.392 . S
C123 N127 1.328 . S
C123 H129 0.930 . S
C124 C123 1.392 . S
C124 N128 1.331 . S
C125 C126 1.391 . S
C125 N128 1.329 . S
C125 H135 0.930 1_556 S
C126 C125 1.391 . S
C126 N127 1.334 . S
C126 H133 0.930 . S
N127 Zn111 2.119 . S
N127 C123 1.328 . S
N127 C126 1.334 . S
N128 C124 1.331 . S
N128 C125 1.329 . S
H129 C123 0.930 . S
C130 O110 1.257 . S
C130 O131 1.244 . S
O131 C130 1.244 . S
O132 C108 1.257 . S
O132 Zn111 2.019 . S
H133 C126 0.930 . S
H134 C113 0.930 . S
H135 C125 0.930 1_554 S
Zn136 N140 2.020 . S
Zn136 O144 2.019 . S
Zn136 N146 2.119 . S
Zn136 O154 1.975 . S
C137 N138 1.334 . S
C137 N141 1.336 . S
N138 C137 1.334 . S
N138 C139 1.334 . S
C139 N138 1.334 . S
C139 N140 1.336 . S
N140 Zn136 2.020 . S
N140 C139 1.336 . S
N140 N141 1.354 . S
N141 C137 1.336 . S
N141 N140 1.354 . S
N141 Zn145 2.020 . S
C142 O143 1.244 . S
C142 O166 1.257 . S
O143 C142 1.244 . S
O144 Zn136 2.019 . S
O144 C164 1.257 . S
Zn145 N141 2.020 . S
Zn145 O152 1.975 . S
Zn145 N161 2.119 . S
Zn145 O166 2.019 . S
N146 Zn136 2.119 . S
N146 C148 1.334 . S
N146 C149 1.328 . S
C147 C148 1.391 . S
C147 N150 1.329 . S
C147 H168 0.930 . S
C148 N146 1.334 . S
C148 C147 1.391 . S
C148 H155 0.930 . S
C149 N146 1.328 . S
C149 C151 1.392 . S
C149 H156 0.930 . S
N150 C147 1.329 . S
N150 C151 1.331 . S
C151 C149 1.392 . S
C151 N150 1.331 . S
O152 Zn145 1.975 . S
O152 C153 1.252 . S
C153 O152 1.252 . S
C153 O154 1.252 . S
O154 Zn136 1.975 . S
O154 C153 1.252 . S
H155 C148 0.930 . S
H156 C149 0.930 . S
C157 C158 1.392 . S
C157 N161 1.328 . S
C157 H163 0.930 . S
C158 C157 1.392 . S
C158 N162 1.331 . S
C159 C160 1.391 . S
C159 N162 1.329 . S
C159 H169 0.930 . S
C160 C159 1.391 . S
C160 N161 1.334 . S
C160 H167 0.930 . S
N161 Zn145 2.119 . S
N161 C157 1.328 . S
N161 C160 1.334 . S
N162 C158 1.331 . S
N162 C159 1.329 . S
H163 C157 0.930 . S
C164 O144 1.257 . S
C164 O165 1.244 . S
O165 C164 1.244 . S
O166 C142 1.257 . S
O166 Zn145 2.019 . S
H167 C160 0.930 . S
H168 C147 0.930 . S
H169 C159 0.930 . S
Zn170 N174 2.020 . S
Zn170 O178 2.019 . S
Zn170 N180 2.119 . S
Zn170 O188 1.975 . S
C171 N172 1.334 . S
C171 N175 1.336 . S
N172 C171 1.334 . S
N172 C173 1.334 . S
C173 N172 1.334 . S
C173 N174 1.336 . S
N174 Zn170 2.020 . S
N174 C173 1.336 . S
N174 N175 1.354 . S
N175 C171 1.336 . S
N175 N174 1.354 . S
N175 Zn179 2.020 . S
C176 O177 1.244 . S
C176 O200 1.257 . S
O177 C176 1.244 . S
O178 Zn170 2.019 . S
O178 C198 1.257 . S
Zn179 N175 2.020 . S
Zn179 O186 1.975 . S
Zn179 N195 2.119 . S
Zn179 O200 2.019 . S
N180 Zn170 2.119 . S
N180 C182 1.334 . S
N180 C183 1.328 . S
C181 C182 1.391 . S
C181 N184 1.329 . S
C181 H202 0.930 . S
C182 N180 1.334 . S
C182 C181 1.391 . S
C182 H189 0.930 . S
C183 N180 1.328 . S
C183 C185 1.392 . S
C183 H190 0.930 . S
N184 C181 1.329 . S
N184 C185 1.331 . S
C185 C183 1.392 . S
C185 N184 1.331 . S
O186 Zn179 1.975 . S
O186 C187 1.252 . S
C187 O186 1.252 . S
C187 O188 1.252 . S
O188 Zn170 1.975 . S
O188 C187 1.252 . S
H189 C182 0.930 . S
H190 C183 0.930 . S
C191 C192 1.392 . S
C191 N195 1.328 . S
C191 H197 0.930 . S
C192 C191 1.392 . S
C192 N196 1.331 . S
C193 C194 1.391 . S
C193 N196 1.329 . S
C193 H203 0.930 . S
C194 C193 1.391 . S
C194 N195 1.334 . S
C194 H201 0.930 . S
N195 Zn179 2.119 . S
N195 C191 1.328 . S
N195 C194 1.334 . S
N196 C192 1.331 . S
N196 C193 1.329 . S
H197 C191 0.930 . S
C198 O178 1.257 . S
C198 O199 1.244 . S
O199 C198 1.244 . S
O200 C176 1.257 . S
O200 Zn179 2.019 . S
H201 C194 0.930 . S
H202 C181 0.930 . S
H203 C193 0.930 . S
Zn204 N208 2.020 . S
Zn204 O212 2.019 . S
Zn204 N214 2.119 . S
Zn204 O222 1.975 . S
C205 N206 1.334 . S
C205 N209 1.336 . S
N206 C205 1.334 . S
N206 C207 1.334 . S
C207 N206 1.334 . S
C207 N208 1.336 . S
N208 Zn204 2.020 . S
N208 C207 1.336 . S
N208 N209 1.354 . S
N209 C205 1.336 . S
N209 N208 1.354 . S
N209 Zn213 2.020 . S
C210 O211 1.244 . S
C210 O234 1.257 . S
O211 C210 1.244 . S
O212 Zn204 2.019 . S
O212 C232 1.257 . S
Zn213 N209 2.020 . S
Zn213 O220 1.975 . S
Zn213 N229 2.119 . S
Zn213 O234 2.019 . S
N214 Zn204 2.119 . S
N214 C216 1.334 . S
N214 C217 1.328 . S
C215 C216 1.391 . S
C215 N218 1.329 . S
C215 H236 0.930 . S
C216 N214 1.334 . S
C216 C215 1.391 . S
C216 H223 0.930 . S
C217 N214 1.328 . S
C217 C219 1.392 . S
C217 H224 0.930 . S
N218 C215 1.329 . S
N218 C219 1.331 . S
C219 C217 1.392 . S
C219 N218 1.331 . S
O220 Zn213 1.975 . S
O220 C221 1.252 . S
C221 O220 1.252 . S
C221 O222 1.252 . S
O222 Zn204 1.975 . S
O222 C221 1.252 . S
H223 C216 0.930 . S
H224 C217 0.930 . S
C225 C226 1.392 . S
C225 N229 1.328 . S
C225 H231 0.930 . S
C226 C225 1.392 . S
C226 N230 1.331 . S
C227 C228 1.391 . S
C227 N230 1.329 . S
C227 H237 0.930 . S
C228 C227 1.391 . S
C228 N229 1.334 . S
C228 H235 0.930 . S
N229 Zn213 2.119 . S
N229 C225 1.328 . S
N229 C228 1.334 . S
N230 C226 1.331 . S
N230 C227 1.329 . S
H231 C225 0.930 . S
C232 O212 1.257 . S
C232 O233 1.244 . S
O233 C232 1.244 . S
O234 C210 1.257 . S
O234 Zn213 2.019 . S
H235 C228 0.930 . S
H236 C215 0.930 . S
H237 C227 0.930 . S
Zn238 N242 2.020 . S
Zn238 O246 2.019 . S
Zn238 N248 2.119 . S
Zn238 O256 1.975 . S
C239 N240 1.334 . S
C239 N243 1.336 . S
N240 C239 1.334 . S
N240 C241 1.334 . S
C241 N240 1.334 . S
C241 N242 1.336 . S
N242 Zn238 2.020 . S
N242 C241 1.336 . S
N242 N243 1.354 . S
N243 C239 1.336 . S
N243 N242 1.354 . S
N243 Zn247 2.020 . S
C244 O245 1.244 . S
C244 O268 1.257 . S
O245 C244 1.244 . S
O246 Zn238 2.019 . S
O246 C266 1.257 . S
Zn247 N243 2.020 . S
Zn247 O254 1.975 . S
Zn247 N263 2.119 . S
Zn247 O268 2.019 . S
N248 Zn238 2.119 . S
N248 C250 1.334 . S
N248 C251 1.328 . S
C249 C250 1.391 . S
C249 N252 1.329 . S
C249 H270 0.930 . S
C250 N248 1.334 . S
C250 C249 1.391 . S
C250 H257 0.930 . S
C251 N248 1.328 . S
C251 C253 1.392 . S
C251 H258 0.930 . S
N252 C249 1.329 . S
N252 C253 1.331 . S
C253 C251 1.392 . S
C253 N252 1.331 . S
O254 Zn247 1.975 . S
O254 C255 1.252 . S
C255 O254 1.252 . S
C255 O256 1.252 . S
O256 Zn238 1.975 . S
O256 C255 1.252 . S
H257 C250 0.930 . S
H258 C251 0.930 . S
C259 C260 1.392 . S
C259 N263 1.328 . S
C259 H265 0.930 . S
C260 C259 1.392 . S
C260 N264 1.331 . S
C261 C262 1.391 . S
C261 N264 1.329 . S
C261 H271 0.930 . S
C262 C261 1.391 . S
C262 N263 1.334 . S
C262 H269 0.930 . S
N263 Zn247 2.119 . S
N263 C259 1.328 . S
N263 C262 1.334 . S
N264 C260 1.331 . S
N264 C261 1.329 . S
H265 C259 0.930 . S
C266 O246 1.257 . S
C266 O267 1.244 . S
O267 C266 1.244 . S
O268 C244 1.257 . S
O268 Zn247 2.019 . S
H269 C262 0.930 . S
H270 C249 0.930 . S
H271 C261 0.930 . S
C272 C273 1.369 . S
C272 C274 1.419 . S
C272 H276 0.930 . S
C273 C272 1.369 . S
C273 C282 1.429 . S
C274 C272 1.419 . S
C274 C275 1.363 . S
C274 H277 0.929 . S
C275 C274 1.363 . S
C275 C281 1.428 . S
H276 C272 0.930 . S
H277 C274 0.929 . S
S278 N279 1.613 . S
S278 N280 1.610 . S
N279 S278 1.613 . S
N279 C282 1.350 . S
N280 S278 1.610 . S
N280 C281 1.351 . S
C281 C275 1.428 . S
C281 N280 1.351 . S
C281 C282 1.434 . S
C282 C273 1.429 . S
C282 N279 1.350 . S
C282 C281 1.434 . S
C283 C284 1.369 . S
C283 C285 1.419 . S
C283 H287 0.930 . S
C284 C283 1.369 . S
C284 C293 1.429 . S
C285 C283 1.419 . S
C285 C286 1.363 . S
C285 H288 0.929 . S
C286 C285 1.363 . S
C286 C292 1.428 . S
H287 C283 0.930 . S
H288 C285 0.929 . S
S289 N290 1.613 . S
S289 N291 1.610 . S
N290 S289 1.613 . S
N290 C293 1.350 . S
N291 S289 1.610 . S
N291 C292 1.351 . S
C292 C286 1.428 . S
C292 N291 1.351 . S
C292 C293 1.434 . S
C293 C284 1.429 . S
C293 N290 1.350 . S
C293 C292 1.434 . S
C294 C295 1.369 . S
C294 C296 1.419 . S
C294 H298 0.930 . S
C295 C294 1.369 . S
C295 C304 1.429 . S
C296 C294 1.419 . S
C296 C297 1.363 . S
C296 H299 0.929 . S
C297 C296 1.363 . S
C297 C303 1.428 . S
H298 C294 0.930 . S
H299 C296 0.929 . S
S300 N301 1.613 . S
S300 N302 1.610 . S
N301 S300 1.613 . S
N301 C304 1.350 . S
N302 S300 1.610 . S
N302 C303 1.351 . S
C303 C297 1.428 . S
C303 N302 1.351 . S
C303 C304 1.434 . S
C304 C295 1.429 . S
C304 N301 1.350 . S
C304 C303 1.434 . S
C305 C306 1.369 . S
C305 C307 1.419 . S
C305 H309 0.930 . S
C306 C305 1.369 . S
C306 C315 1.429 . S
C307 C305 1.419 . S
C307 C308 1.363 . S
C307 H310 0.929 . S
C308 C307 1.363 . S
C308 C314 1.428 . S
H309 C305 0.930 . S
H310 C307 0.929 . S
S311 N312 1.613 . S
S311 N313 1.610 . S
N312 S311 1.613 . S
N312 C315 1.350 . S
N313 S311 1.610 . S
N313 C314 1.351 . S
C314 C308 1.428 . S
C314 N313 1.351 . S
C314 C315 1.434 . S
C315 C306 1.429 . S
C315 N312 1.350 . S
C315 C314 1.434 . S
C316 C317 1.369 . S
C316 C318 1.419 . S
C316 H320 0.930 . S
C317 C316 1.369 . S
C317 C326 1.429 . S
C318 C316 1.419 . S
C318 C319 1.363 . S
C318 H321 0.929 . S
C319 C318 1.363 . S
C319 C325 1.428 . S
H320 C316 0.930 . S
H321 C318 0.929 . S
S322 N323 1.613 . S
S322 N324 1.610 . S
N323 S322 1.613 . S
N323 C326 1.350 . S
N324 S322 1.610 . S
N324 C325 1.351 . S
C325 C319 1.428 . S
C325 N324 1.351 . S
C325 C326 1.434 . S
C326 C317 1.429 . S
C326 N323 1.350 . S
C326 C325 1.434 . S
C327 C328 1.369 . S
C327 C329 1.419 . S
C327 H331 0.930 . S
C328 C327 1.369 . S
C328 C337 1.429 . S
C329 C327 1.419 . S
C329 C330 1.363 . S
C329 H332 0.929 . S
C330 C329 1.363 . S
C330 C336 1.428 . S
H331 C327 0.930 . S
H332 C329 0.929 . S
S333 N334 1.613 . S
S333 N335 1.610 . S
N334 S333 1.613 . S
N334 C337 1.350 . S
N335 S333 1.610 . S
N335 C336 1.351 . S
C336 C330 1.428 . S
C336 N335 1.351 . S
C336 C337 1.434 . S
C337 C328 1.429 . S
C337 N334 1.350 . S
C337 C336 1.434 . S
C338 C339 1.369 . S
C338 C340 1.419 . S
C338 H342 0.930 . S
C339 C338 1.369 . S
C339 C348 1.429 . S
C340 C338 1.419 . S
C340 C341 1.363 . S
C340 H343 0.929 . S
C341 C340 1.363 . S
C341 C347 1.428 . S
H342 C338 0.930 . S
H343 C340 0.929 . S
S344 N345 1.613 . S
S344 N346 1.610 . S
N345 S344 1.613 . S
N345 C348 1.350 . S
N346 S344 1.610 . S
N346 C347 1.351 . S
C347 C341 1.428 . S
C347 N346 1.351 . S
C347 C348 1.434 . S
C348 C339 1.429 . S
C348 N345 1.350 . S
C348 C347 1.434 . S
C349 C350 1.369 . S
C349 C351 1.419 . S
C349 H353 0.930 . S
C350 C349 1.369 . S
C350 C359 1.429 . S
C351 C349 1.419 . S
C351 C352 1.363 . S
C351 H354 0.929 . S
C352 C351 1.363 . S
C352 C358 1.428 . S
H353 C349 0.930 . S
H354 C351 0.929 . S
S355 N356 1.613 . S
S355 N357 1.610 . S
N356 S355 1.613 . S
N356 C359 1.350 . S
N357 S355 1.610 . S
N357 C358 1.351 . S
C358 C352 1.428 . S
C358 N357 1.351 . S
C358 C359 1.434 . S
C359 C350 1.429 . S
C359 N356 1.350 . S
C359 C358 1.434 . S
C360 C361 1.369 . S
C360 C362 1.419 . S
C360 H364 0.930 . S
C361 C360 1.369 . S
C361 C370 1.429 . S
C362 C360 1.419 . S
C362 C363 1.363 . S
C362 H365 0.929 . S
C363 C362 1.363 . S
C363 C369 1.428 . S
H364 C360 0.930 . S
H365 C362 0.929 . S
S366 N367 1.613 . S
S366 N368 1.610 . S
N367 S366 1.613 . S
N367 C370 1.350 . S
N368 S366 1.610 . S
N368 C369 1.351 . S
C369 C363 1.428 . S
C369 N368 1.351 . S
C369 C370 1.434 . S
C370 C361 1.429 . S
C370 N367 1.350 . S
C370 C369 1.434 . S
C371 C372 1.369 . S
C371 C373 1.419 . S
C371 H375 0.930 . S
C372 C371 1.369 . S
C372 C381 1.429 . S
C373 C371 1.419 . S
C373 C374 1.363 . S
C373 H376 0.929 . S
C374 C373 1.363 . S
C374 C380 1.428 . S
H375 C371 0.930 . S
H376 C373 0.929 . S
S377 N378 1.613 . S
S377 N379 1.610 . S
N378 S377 1.613 . S
N378 C381 1.350 . S
N379 S377 1.610 . S
N379 C380 1.351 . S
C380 C374 1.428 . S
C380 N379 1.351 . S
C380 C381 1.434 . S
C381 C372 1.429 . S
C381 N378 1.350 . S
C381 C380 1.434 . S
C382 C383 1.369 . S
C382 C384 1.419 . S
C382 H386 0.930 . S
C383 C382 1.369 . S
C383 C392 1.429 . S
C384 C382 1.419 . S
C384 C385 1.363 . S
C384 H387 0.929 . S
C385 C384 1.363 . S
C385 C391 1.428 . S
H386 C382 0.930 . S
H387 C384 0.929 . S
S388 N389 1.613 . S
S388 N390 1.610 . S
N389 S388 1.613 . S
N389 C392 1.350 . S
N390 S388 1.610 . S
N390 C391 1.351 . S
C391 C385 1.428 . S
C391 N390 1.351 . S
C391 C392 1.434 . S
C392 C383 1.429 . S
C392 N389 1.350 . S
C392 C391 1.434 . S
C393 C394 1.369 . S
C393 C395 1.419 . S
C393 H397 0.930 . S
C394 C393 1.369 . S
C394 C403 1.429 . S
C395 C393 1.419 . S
C395 C396 1.363 . S
C395 H398 0.929 . S
C396 C395 1.363 . S
C396 C402 1.428 . S
H397 C393 0.930 . S
H398 C395 0.929 . S
S399 N400 1.613 . S
S399 N401 1.610 . S
N400 S399 1.613 . S
N400 C403 1.350 . S
N401 S399 1.610 . S
N401 C402 1.351 . S
C402 C396 1.428 . S
C402 N401 1.351 . S
C402 C403 1.434 . S
C403 C394 1.429 . S
C403 N400 1.350 . S
C403 C402 1.434 . S
C404 C405 1.369 . S
C404 C406 1.419 . S
C404 H408 0.930 . S
C405 C404 1.369 . S
C405 C414 1.429 . S
C406 C404 1.419 . S
C406 C407 1.363 . S
C406 H409 0.929 . S
C407 C406 1.363 . S
C407 C413 1.428 . S
H408 C404 0.930 . S
H409 C406 0.929 . S
S410 N411 1.613 . S
S410 N412 1.610 . S
N411 S410 1.613 . S
N411 C414 1.350 . S
N412 S410 1.610 . S
N412 C413 1.351 . S
C413 C407 1.428 . S
C413 N412 1.351 . S
C413 C414 1.434 . S
C414 C405 1.429 . S
C414 N411 1.350 . S
C414 C413 1.434 . S
C415 C416 1.369 . S
C415 C417 1.419 . S
C415 H419 0.930 . S
C416 C415 1.369 . S
C416 C425 1.429 . S
C417 C415 1.419 . S
C417 C418 1.363 . S
C417 H420 0.929 . S
C418 C417 1.363 . S
C418 C424 1.428 . S
H419 C415 0.930 . S
H420 C417 0.929 . S
S421 N422 1.613 . S
S421 N423 1.610 . S
N422 S421 1.613 . S
N422 C425 1.350 . S
N423 S421 1.610 . S
N423 C424 1.351 . S
C424 C418 1.428 . S
C424 N423 1.351 . S
C424 C425 1.434 . S
C425 C416 1.429 . S
C425 N422 1.350 . S
C425 C424 1.434 . S
C426 C427 1.369 . S
C426 C428 1.419 . S
C426 H430 0.930 . S
C427 C426 1.369 . S
C427 C436 1.429 . S
C428 C426 1.419 . S
C428 C429 1.363 . S
C428 H431 0.929 . S
C429 C428 1.363 . S
C429 C435 1.428 . S
H430 C426 0.930 . S
H431 C428 0.929 . S
S432 N433 1.613 . S
S432 N434 1.610 . S
N433 S432 1.613 . S
N433 C436 1.350 . S
N434 S432 1.610 . S
N434 C435 1.351 . S
C435 C429 1.428 . S
C435 N434 1.351 . S
C435 C436 1.434 . S
C436 C427 1.429 . S
C436 N433 1.350 . S
C436 C435 1.434 . S
C437 C438 1.369 . S
C437 C439 1.419 . S
C437 H441 0.930 . S
C438 C437 1.369 . S
C438 C447 1.429 . S
C439 C437 1.419 . S
C439 C440 1.363 . S
C439 H442 0.929 . S
C440 C439 1.363 . S
C440 C446 1.428 . S
H441 C437 0.930 . S
H442 C439 0.929 . S
S443 N444 1.613 . S
S443 N445 1.610 . S
N444 S443 1.613 . S
N444 C447 1.350 . S
N445 S443 1.610 . S
N445 C446 1.351 . S
C446 C440 1.428 . S
C446 N445 1.351 . S
C446 C447 1.434 . S
C447 C438 1.429 . S
C447 N444 1.350 . S
C447 C446 1.434 . S
C448 C449 1.369 . S
C448 C450 1.419 1_445 S
C448 H452 0.930 . S
C449 C448 1.369 . S
C449 C458 1.429 . S
C450 C448 1.419 1_665 S
C450 C451 1.363 . S
C450 H453 0.929 . S
C451 C450 1.363 . S
C451 C457 1.428 . S
H452 C448 0.930 . S
H453 C450 0.929 . S
S454 N455 1.613 1_655 S
S454 N456 1.610 1_545 S
N455 S454 1.613 1_455 S
N455 C458 1.350 . S
N456 S454 1.610 1_565 S
N456 C457 1.351 . S
C457 C451 1.428 . S
C457 N456 1.351 . S
C457 C458 1.434 1_665 S
C458 C449 1.429 . S
C458 N455 1.350 . S
C458 C457 1.434 1_445 S
C459 C460 1.369 . S
C459 C461 1.419 1_645 S
C459 H463 0.930 . S
C460 C459 1.369 . S
C460 C469 1.429 . S
C461 C459 1.419 1_465 S
C461 C462 1.363 . S
C461 H464 0.929 . S
C462 C461 1.363 . S
C462 C468 1.428 . S
H463 C459 0.930 . S
H464 C461 0.929 . S
S465 N466 1.612 1_455 S
S465 N467 1.611 1_545 S
N466 S465 1.612 1_655 S
N466 C469 1.350 . S
N467 S465 1.611 1_565 S
N467 C468 1.351 . S
C468 C462 1.428 . S
C468 N467 1.351 . S
C468 C469 1.434 1_465 S
C469 C460 1.429 . S
C469 N466 1.350 . S
C469 C468 1.434 1_645 S
C470 C471 1.369 . S
C470 C472 1.419 . S
C470 H474 0.930 . S
C471 C470 1.369 . S
C471 C480 1.429 . S
C472 C470 1.419 . S
C472 C473 1.363 . S
C472 H475 0.929 . S
C473 C472 1.363 . S
C473 C479 1.428 . S
H474 C470 0.930 . S
H475 C472 0.929 . S
S476 N477 1.613 . S
S476 N478 1.610 . S
N477 S476 1.613 . S
N477 C480 1.350 . S
N478 S476 1.610 . S
N478 C479 1.351 . S
C479 C473 1.428 . S
C479 N478 1.351 . S
C479 C480 1.434 . S
C480 C471 1.429 . S
C480 N477 1.350 . S
C480 C479 1.434 . S
C481 C482 1.369 . S
C481 C483 1.419 . S
C481 H485 0.930 . S
C482 C481 1.369 . S
C482 C491 1.429 . S
C483 C481 1.419 . S
C483 C484 1.363 . S
C483 H486 0.929 . S
C484 C483 1.363 . S
C484 C490 1.428 . S
H485 C481 0.930 . S
H486 C483 0.929 . S
S487 N488 1.613 . S
S487 N489 1.610 . S
N488 S487 1.613 . S
N488 C491 1.350 . S
N489 S487 1.610 . S
N489 C490 1.351 . S
C490 C484 1.428 . S
C490 N489 1.351 . S
C490 C491 1.434 . S
C491 C482 1.429 . S
C491 N488 1.350 . S
C491 C490 1.434 . S
C492 C493 1.369 . S
C492 C494 1.419 1_554 S
C492 H496 0.930 . S
C493 C492 1.369 . S
C493 C502 1.429 1_545 S
C494 C492 1.419 1_556 S
C494 C495 1.363 1_545 S
C494 H497 0.929 . S
C495 C494 1.363 1_565 S
C495 C501 1.428 . S
H496 C492 0.930 . S
H497 C494 0.929 . S
S498 N499 1.613 . S
S498 N500 1.610 1_554 S
N499 S498 1.613 . S
N499 C502 1.350 . S
N500 S498 1.610 1_556 S
N500 C501 1.351 . S
C501 C495 1.428 . S
C501 N500 1.351 . S
C501 C502 1.434 1_556 S
C502 C493 1.429 1_565 S
C502 N499 1.350 . S
C502 C501 1.434 1_554 S
C503 C504 1.369 1_655 S
C503 C505 1.419 1_556 S
C503 H507 0.930 . S
C504 C503 1.369 1_455 S
C504 C513 1.429 . S
C505 C503 1.419 1_554 S
C505 C506 1.363 . S
C505 H508 0.929 . S
C506 C505 1.363 . S
C506 C512 1.428 1_655 S
H507 C503 0.930 . S
H508 C505 0.929 . S
S509 N510 1.613 1_554 S
S509 N511 1.610 . S
N510 S509 1.613 1_556 S
N510 C513 1.350 . S
N511 S509 1.610 . S
N511 C512 1.351 . S
C512 C506 1.428 1_455 S
C512 N511 1.351 . S
C512 C513 1.434 1_554 S
C513 C504 1.429 . S
C513 N510 1.350 . S
C513 C512 1.434 1_556 S
C514 C515 1.369 . S
C514 C516 1.419 1_556 S
C514 H518 0.930 . S
C515 C514 1.369 . S
C515 C524 1.429 1_545 S
C516 C514 1.419 1_554 S
C516 C517 1.363 1_545 S
C516 H519 0.929 . S
C517 C516 1.363 1_565 S
C517 C523 1.428 . S
H518 C514 0.930 . S
H519 C516 0.929 . S
S520 N521 1.613 . S
S520 N522 1.610 1_556 S
N521 S520 1.613 . S
N521 C524 1.350 . S
N522 S520 1.610 1_554 S
N522 C523 1.351 . S
C523 C517 1.428 . S
C523 N522 1.351 . S
C523 C524 1.434 1_554 S
C524 C515 1.429 1_565 S
C524 N521 1.350 . S
C524 C523 1.434 1_556 S
C525 C526 1.369 . S
C525 C527 1.419 1_554 S
C525 H529 0.930 . S
C526 C525 1.369 . S
C526 C535 1.429 1_455 S
C527 C525 1.419 1_556 S
C527 C528 1.363 1_455 S
C527 H530 0.929 . S
C528 C527 1.363 1_655 S
C528 C534 1.428 . S
H529 C525 0.930 . S
H530 C527 0.929 . S
S531 N532 1.613 . S
S531 N533 1.610 1_554 S
N532 S531 1.613 . S
N532 C535 1.350 . S
N533 S531 1.610 1_556 S
N533 C534 1.351 . S
C534 C528 1.428 . S
C534 N533 1.351 . S
C534 C535 1.434 1_556 S
C535 C526 1.429 1_655 S
C535 N532 1.350 . S
C535 C534 1.434 1_554 S
C536 C537 1.369 . S
C536 C538 1.419 . S
C536 H540 0.930 . S
C537 C536 1.369 . S
C537 C546 1.429 . S
C538 C536 1.419 . S
C538 C539 1.363 . S
C538 H541 0.929 . S
C539 C538 1.363 . S
C539 C545 1.428 . S
H540 C536 0.930 . S
H541 C538 0.929 . S
S542 N543 1.613 . S
S542 N544 1.610 . S
N543 S542 1.613 . S
N543 C546 1.350 . S
N544 S542 1.610 . S
N544 C545 1.351 . S
C545 C539 1.428 . S
C545 N544 1.351 . S
C545 C546 1.434 . S
C546 C537 1.429 . S
C546 N543 1.350 . S
C546 C545 1.434 . S
C547 C548 1.369 . S
C547 C549 1.419 . S
C547 H551 0.930 . S
C548 C547 1.369 . S
C548 C557 1.429 . S
C549 C547 1.419 . S
C549 C550 1.363 . S
C549 H552 0.929 . S
C550 C549 1.363 . S
C550 C556 1.428 . S
H551 C547 0.930 . S
H552 C549 0.929 . S
S553 N554 1.613 . S
S553 N555 1.610 . S
N554 S553 1.613 . S
N554 C557 1.350 . S
N555 S553 1.610 . S
N555 C556 1.351 . S
C556 C550 1.428 . S
C556 N555 1.351 . S
C556 C557 1.434 . S
C557 C548 1.429 . S
C557 N554 1.350 . S
C557 C556 1.434 . S
C558 C559 1.369 . S
C558 C560 1.419 . S
C558 H562 0.930 . S
C559 C558 1.369 . S
C559 C568 1.429 . S
C560 C558 1.419 . S
C560 C561 1.363 . S
C560 H563 0.929 . S
C561 C560 1.363 . S
C561 C567 1.428 . S
H562 C558 0.930 . S
H563 C560 0.929 . S
S564 N565 1.613 . S
S564 N566 1.610 . S
N565 S564 1.613 . S
N565 C568 1.350 . S
N566 S564 1.610 . S
N566 C567 1.351 . S
C567 C561 1.428 . S
C567 N566 1.351 . S
C567 C568 1.434 . S
C568 C559 1.429 . S
C568 N565 1.350 . S
C568 C567 1.434 . S
C569 C570 1.369 . S
C569 C571 1.419 . S
C569 H573 0.930 . S
C570 C569 1.369 . S
C570 C579 1.429 . S
C571 C569 1.419 . S
C571 C572 1.363 . S
C571 H574 0.929 . S
C572 C571 1.363 . S
C572 C578 1.428 . S
H573 C569 0.930 . S
H574 C571 0.929 . S
S575 N576 1.613 . S
S575 N577 1.610 . S
N576 S575 1.613 . S
N576 C579 1.350 . S
N577 S575 1.610 . S
N577 C578 1.351 . S
C578 C572 1.428 . S
C578 N577 1.351 . S
C578 C579 1.434 . S
C579 C570 1.429 . S
C579 N576 1.350 . S
C579 C578 1.434 . S
C273 C28 1.755 1_565 S
C275 C241 1.661 . S
C284 C49 1.333 1_655 S
C286 C137 1.391 . S
C295 C173 1.666 . S
C297 C96 1.757 1_545 S
C306 C117 1.340 1_455 S
C308 C207 1.397 . S
C317 C40 1.753 1_545 S
C319 C205 1.658 . S
C328 C239 1.398 . S
C330 C90 1.340 1_455 S
C339 C108 1.756 1_565 S
C341 C139 1.660 . S
C350 C171 1.396 . S
C352 C22 1.338 1_655 S
C361 C142 1.759 . S
C363 C105 1.666 . S
C372 C3 1.398 . S
C374 C185 1.340 . S
C383 C37 1.658 . S
C385 C232 1.755 . S
C394 C253 1.337 . S
C396 C71 1.395 . S
C405 C176 1.758 . S
C407 C69 1.666 . S
C416 C226 1.340 . S
C418 C103 1.397 . S
C427 C244 1.753 . S
C429 C1 1.658 . S
C438 C35 1.397 . S
C440 C151 1.340 . S
C449 C17 1.878 . S
C451 C85 1.878 . S
C460 C119 1.878 . S
C462 C51 1.878 . S
C471 C153 1.878 . S
C473 C221 1.878 . S
C482 C187 1.877 . S
C484 C255 1.877 . S
C493 C15 0.709 . S
C495 C56 0.689 . S
C504 C62 1.205 . S
C506 C74 1.205 . S
C515 C124 0.715 . S
C517 C83 0.706 . S
C526 C6 1.198 . S
C528 C130 1.195 . S
C537 C192 0.694 . S
C539 C158 0.712 . S
C548 C210 1.195 . S
C550 C198 1.195 . S
C559 C219 0.689 . S
C561 C260 0.709 . S
C570 C164 1.204 . S
C572 C266 1.200 . S
