# Generated by pormake.
# Topology soi, (5)-cn, num edge types: 1
# Building blocks:
#     Node 0, Type 0, BuildingBlock: XOMCOT_clean_sbu_1, # of connection points: 5
#     Node 1, Type 0, BuildingBlock: XOMCOT_clean_sbu_1, # of connection points: 5
#     Node 2, Type 0, BuildingBlock: XOMCOT_clean_sbu_1, # of connection points: 5
#     Node 3, Type 0, BuildingBlock: XOMCOT_clean_sbu_1, # of connection points: 5
#     Node 4, Type 0, BuildingBlock: XOMCOT_clean_sbu_1, # of connection points: 5
#     Node 5, Type 0, BuildingBlock: XOMCOT_clean_sbu_1, # of connection points: 5
#     Node 6, Type 0, BuildingBlock: XOMCOT_clean_sbu_1, # of connection points: 5
#     Node 7, Type 0, BuildingBlock: XOMCOT_clean_sbu_1, # of connection points: 5
#     Node 8, Type 0, BuildingBlock: XOMCOT_clean_sbu_1, # of connection points: 5
#     Node 9, Type 0, BuildingBlock: XOMCOT_clean_sbu_1, # of connection points: 5
#     Node 10, Type 0, BuildingBlock: XOMCOT_clean_sbu_1, # of connection points: 5
#     Node 11, Type 0, BuildingBlock: XOMCOT_clean_sbu_1, # of connection points: 5
#     Node 12, Type 0, BuildingBlock: XOMCOT_clean_sbu_1, # of connection points: 5
#     Node 13, Type 0, BuildingBlock: XOMCOT_clean_sbu_1, # of connection points: 5
#     Node 14, Type 0, BuildingBlock: XOMCOT_clean_sbu_1, # of connection points: 5
#     Node 15, Type 0, BuildingBlock: XOMCOT_clean_sbu_1, # of connection points: 5
#     Edge 16, Type (0, 0), BuildingBlock: CIFDUS_clean_linker_0, # of connection points: 2
#     Edge 17, Type (0, 0), BuildingBlock: CIFDUS_clean_linker_0, # of connection points: 2
#     Edge 18, Type (0, 0), BuildingBlock: CIFDUS_clean_linker_0, # of connection points: 2
#     Edge 19, Type (0, 0), BuildingBlock: CIFDUS_clean_linker_0, # of connection points: 2
#     Edge 20, Type (0, 0), BuildingBlock: CIFDUS_clean_linker_0, # of connection points: 2
#     Edge 21, Type (0, 0), BuildingBlock: CIFDUS_clean_linker_0, # of connection points: 2
#     Edge 22, Type (0, 0), BuildingBlock: CIFDUS_clean_linker_0, # of connection points: 2
#     Edge 23, Type (0, 0), BuildingBlock: CIFDUS_clean_linker_0, # of connection points: 2
#     Edge 24, Type (0, 0), BuildingBlock: CIFDUS_clean_linker_0, # of connection points: 2
#     Edge 25, Type (0, 0), BuildingBlock: CIFDUS_clean_linker_0, # of connection points: 2
#     Edge 26, Type (0, 0), BuildingBlock: CIFDUS_clean_linker_0, # of connection points: 2
#     Edge 27, Type (0, 0), BuildingBlock: CIFDUS_clean_linker_0, # of connection points: 2
#     Edge 28, Type (0, 0), BuildingBlock: CIFDUS_clean_linker_0, # of connection points: 2
#     Edge 29, Type (0, 0), BuildingBlock: CIFDUS_clean_linker_0, # of connection points: 2
#     Edge 30, Type (0, 0), BuildingBlock: CIFDUS_clean_linker_0, # of connection points: 2
#     Edge 31, Type (0, 0), BuildingBlock: CIFDUS_clean_linker_0, # of connection points: 2
#     Edge 32, Type (0, 0), BuildingBlock: CIFDUS_clean_linker_0, # of connection points: 2
#     Edge 33, Type (0, 0), BuildingBlock: CIFDUS_clean_linker_0, # of connection points: 2
#     Edge 34, Type (0, 0), BuildingBlock: CIFDUS_clean_linker_0, # of connection points: 2
#     Edge 35, Type (0, 0), BuildingBlock: CIFDUS_clean_linker_0, # of connection points: 2
#     Edge 36, Type (0, 0), BuildingBlock: CIFDUS_clean_linker_0, # of connection points: 2
#     Edge 37, Type (0, 0), BuildingBlock: CIFDUS_clean_linker_0, # of connection points: 2
#     Edge 38, Type (0, 0), BuildingBlock: CIFDUS_clean_linker_0, # of connection points: 2
#     Edge 39, Type (0, 0), BuildingBlock: CIFDUS_clean_linker_0, # of connection points: 2
#     Edge 40, Type (0, 0), BuildingBlock: CIFDUS_clean_linker_0, # of connection points: 2
#     Edge 41, Type (0, 0), BuildingBlock: CIFDUS_clean_linker_0, # of connection points: 2
#     Edge 42, Type (0, 0), BuildingBlock: CIFDUS_clean_linker_0, # of connection points: 2
#     Edge 43, Type (0, 0), BuildingBlock: CIFDUS_clean_linker_0, # of connection points: 2
#     Edge 44, Type (0, 0), BuildingBlock: CIFDUS_clean_linker_0, # of connection points: 2
#     Edge 45, Type (0, 0), BuildingBlock: CIFDUS_clean_linker_0, # of connection points: 2
#     Edge 46, Type (0, 0), BuildingBlock: CIFDUS_clean_linker_0, # of connection points: 2
#     Edge 47, Type (0, 0), BuildingBlock: CIFDUS_clean_linker_0, # of connection points: 2
#     Edge 48, Type (0, 0), BuildingBlock: CIFDUS_clean_linker_0, # of connection points: 2
#     Edge 49, Type (0, 0), BuildingBlock: CIFDUS_clean_linker_0, # of connection points: 2
#     Edge 50, Type (0, 0), BuildingBlock: CIFDUS_clean_linker_0, # of connection points: 2
#     Edge 51, Type (0, 0), BuildingBlock: CIFDUS_clean_linker_0, # of connection points: 2
#     Edge 52, Type (0, 0), BuildingBlock: CIFDUS_clean_linker_0, # of connection points: 2
#     Edge 53, Type (0, 0), BuildingBlock: CIFDUS_clean_linker_0, # of connection points: 2
#     Edge 54, Type (0, 0), BuildingBlock: CIFDUS_clean_linker_0, # of connection points: 2
#     Edge 55, Type (0, 0), BuildingBlock: CIFDUS_clean_linker_0, # of connection points: 2
# Relax obj value: 0.114
# Max RMSD: 0.161
# Mean RMSD: 0.161
data_MOF--net-soi--node1-XOMCOT_clean_sbu_1--edge1-CIFDUS_clean_linker_0
_symmetry_space_group_name_H-M    P1
_symmetry_Int_Tables_number       1
_symmetry_cell_setting            triclinic
loop_
_symmetry_equiv_pos_as_xyz
'x, y, z'
_cell_length_a     42.463561
_cell_length_b     22.791829
_cell_length_c     59.480546
_cell_angle_alpha  89.764803
_cell_angle_beta   89.590817
_cell_angle_gamma 90.04733
loop_
_atom_site_label
_atom_site_type_symbol
_atom_site_fract_x
_atom_site_fract_y
_atom_site_fract_z
_atom_type_partial_charge
C0 C 0.34712 0.0246 0.10033 0.0
C1 C 0.34012 0.02567 0.07778 0.0
N2 N 0.3105 0.046 0.07529 0.0
N3 N 0.3222 0.04468 0.11213 0.0
C4 C 0.30022 0.05715 0.09648 0.0
H5 H 0.36867 0.0086 0.10775 0.0
Co6 Co 0.31862 0.04584 0.14347 0.0
C7 C 0.29534 0.16202 0.15509 0.0
O8 O 0.31708 0.16097 0.17071 0.0
N9 N 0.31341 0.04466 0.17551 0.0
C10 C 0.28519 0.0429 0.2073 0.0
C11 C 0.28411 0.04867 0.18442 0.0
C12 C 0.33196 0.03562 0.19375 0.0
N13 N 0.31533 0.03475 0.21335 0.0
O14 O 0.28384 0.99287 0.14142 0.0
H15 H 0.26288 0.05457 0.17474 0.0
H16 H 0.35702 0.02902 0.19292 0.0
O17 O 0.29161 0.11732 0.14223 0.0
C18 C 0.29661 0.94235 0.14295 0.0
O19 O 0.32735 0.9399 0.1453 0.0
N20 N 0.35539 0.09205 0.1444 0.0
C21 C 0.41411 0.14701 0.14037 0.0
C22 C 0.38743 0.17055 0.12986 0.0
C23 C 0.35848 0.14221 0.13188 0.0
C24 C 0.38142 0.06624 0.15328 0.0
C25 C 0.41072 0.0939 0.15223 0.0
H26 H 0.33888 0.15919 0.12238 0.0
H27 H 0.37986 0.0225 0.16021 0.0
H28 H 0.27689 0.07288 0.10068 0.0
H29 H 0.35526 0.01008 0.06438 0.0
H30 H 0.26495 0.04266 0.21844 0.0
H31 H 0.38894 0.20935 0.11935 0.0
H32 H 0.43055 0.07296 0.16028 0.0
C33 C 0.64373 0.48928 0.10357 0.0
C34 C 0.65415 0.49195 0.08168 0.0
N35 N 0.6826 0.46594 0.08042 0.0
N36 N 0.66531 0.4613 0.11617 0.0
C37 C 0.68893 0.44799 0.10166 0.0
H38 H 0.62185 0.507 0.11 0.0
Co39 Co 0.66064 0.44867 0.14707 0.0
C40 C 0.68519 0.32711 0.15346 0.0
O41 O 0.65896 0.31336 0.16394 0.0
N42 N 0.65571 0.43684 0.17919 0.0
C43 C 0.63952 0.40339 0.21276 0.0
C44 C 0.63482 0.40142 0.19008 0.0
C45 C 0.67241 0.46107 0.19629 0.0
N46 N 0.66313 0.44081 0.21671 0.0
O47 O 0.69531 0.50076 0.15187 0.0
H48 H 0.61731 0.37392 0.18236 0.0
H49 H 0.69125 0.4925 0.19399 0.0
O50 O 0.68906 0.37924 0.14561 0.0
C51 C 0.68368 0.55247 0.15219 0.0
O52 O 0.65287 0.55775 0.15149 0.0
N53 N 0.62444 0.40498 0.14105 0.0
C54 C 0.56602 0.35382 0.13325 0.0
C55 C 0.59355 0.32982 0.12378 0.0
C56 C 0.62259 0.35691 0.12751 0.0
C57 C 0.59772 0.43237 0.14819 0.0
C58 C 0.56837 0.4067 0.14512 0.0
H59 H 0.64349 0.33935 0.11955 0.0
H60 H 0.59944 0.47324 0.15729 0.0
H61 H 0.71026 0.42554 0.10657 0.0
H62 H 0.64202 0.51287 0.06786 0.0
H63 H 0.62615 0.37987 0.22549 0.0
H64 H 0.59269 0.29071 0.11353 0.0
H65 H 0.54794 0.42742 0.15261 0.0
C66 C 0.34164 0.00071 0.45661 0.0
C67 C 0.32858 0.00063 0.47777 0.0
N68 N 0.30126 0.97051 0.47724 0.0
N69 N 0.3229 0.97055 0.44262 0.0
C70 C 0.2982 0.953 0.4556 0.0
H71 H 0.3635 0.02158 0.45165 0.0
Co72 Co 0.33315 0.9616 0.41219 0.0
C73 C 0.31001 0.84144 0.40149 0.0
O74 O 0.33765 0.82739 0.39318 0.0
N75 N 0.34391 0.95434 0.38067 0.0
C76 C 0.36631 0.92913 0.34798 0.0
C77 C 0.3665 0.92105 0.3708 0.0
C78 C 0.3306 0.98272 0.36297 0.0
N79 N 0.34376 0.96824 0.34289 0.0
O80 O 0.29842 0.0106 0.4048 0.0
H81 H 0.38209 0.89106 0.37931 0.0
H82 H 0.31165 0.01387 0.3647 0.0
O83 O 0.30568 0.89225 0.41009 0.0
C84 C 0.30456 0.06506 0.40684 0.0
O85 O 0.33305 0.08059 0.41296 0.0
N86 N 0.36859 0.91819 0.4208 0.0
C87 C 0.42518 0.86514 0.43315 0.0
C88 C 0.39607 0.84113 0.43997 0.0
C89 C 0.36799 0.86874 0.43381 0.0
C90 C 0.39644 0.94545 0.41615 0.0
C91 C 0.42495 0.91885 0.42146 0.0
H92 H 0.34583 0.85058 0.43957 0.0
H93 H 0.39646 0.98702 0.4073 0.0
H94 H 0.27862 0.92747 0.44939 0.0
H95 H 0.3383 0.022 0.49238 0.0
H96 H 0.38135 0.9065 0.33611 0.0
H97 H 0.39486 0.80148 0.45002 0.0
H98 H 0.44648 0.93973 0.41576 0.0
C99 C 0.65692 0.51081 0.44956 0.0
C100 C 0.67067 0.50661 0.47035 0.0
N101 N 0.69777 0.53761 0.47 0.0
N102 N 0.6751 0.54443 0.43609 0.0
C103 C 0.69992 0.55989 0.44891 0.0
H104 H 0.63522 0.49007 0.44443 0.0
Co105 Co 0.66652 0.55983 0.40601 0.0
C106 C 0.69018 0.68201 0.39961 0.0
O107 O 0.66284 0.69656 0.39117 0.0
N108 N 0.65788 0.57461 0.37459 0.0
C109 C 0.6382 0.61037 0.34255 0.0
C110 C 0.6356 0.60996 0.36548 0.0
C111 C 0.67338 0.55328 0.35624 0.0
N112 N 0.66196 0.5748 0.33669 0.0
O113 O 0.70049 0.50826 0.3982 0.0
H114 H 0.6187 0.63607 0.37462 0.0
H115 H 0.69301 0.52321 0.35702 0.0
O116 O 0.69493 0.62917 0.40633 0.0
C117 C 0.68893 0.4565 0.39749 0.0
O118 O 0.65817 0.45085 0.39905 0.0
N119 N 0.63119 0.60293 0.41532 0.0
C120 C 0.57432 0.65289 0.42933 0.0
C121 C 0.60327 0.67485 0.43704 0.0
C122 C 0.63147 0.64866 0.43008 0.0
C123 C 0.6034 0.57708 0.40975 0.0
C124 C 0.57478 0.60242 0.41584 0.0
H125 H 0.65347 0.66478 0.43669 0.0
H126 H 0.60355 0.53777 0.39962 0.0
H127 H 0.71917 0.5869 0.44286 0.0
H128 H 0.66167 0.48133 0.48443 0.0
H129 H 0.62338 0.63444 0.331 0.0
H130 H 0.60426 0.71163 0.44846 0.0
H131 H 0.55338 0.58315 0.40943 0.0
C132 C 0.6533 0.96954 0.95074 0.0
C133 C 0.66653 0.96605 0.97169 0.0
N134 N 0.69725 0.95218 0.96928 0.0
N135 N 0.67544 0.95746 0.93513 0.0
C136 C 0.70199 0.94725 0.94685 0.0
H137 H 0.62935 0.98219 0.947 0.0
Co138 Co 0.66963 0.96513 0.90445 0.0
C139 C 0.69955 0.85252 0.88899 0.0
O140 O 0.67436 0.8374 0.87766 0.0
N141 N 0.66342 0.97763 0.87361 0.0
C142 C 0.64748 0.03094 0.84439 0.0
C143 C 0.6469 0.02545 0.86733 0.0
C144 C 0.67463 0.95549 0.85399 0.0
N145 N 0.66489 0.98686 0.83598 0.0
O146 O 0.70292 0.02136 0.90324 0.0
H147 H 0.63547 0.0552 0.87892 0.0
H148 H 0.69091 0.91938 0.85268 0.0
O149 O 0.70034 0.90188 0.89919 0.0
C150 C 0.69753 0.07343 0.90997 0.0
O151 O 0.66944 0.08629 0.91793 0.0
N152 N 0.63558 0.91131 0.90626 0.0
C153 C 0.58368 0.83706 0.91065 0.0
C154 C 0.61298 0.82019 0.91903 0.0
C155 C 0.63843 0.8587 0.91726 0.0
C156 C 0.60673 0.92928 0.89897 0.0
C157 C 0.58045 0.89266 0.90091 0.0
H158 H 0.66052 0.84612 0.92478 0.0
H159 H 0.60366 0.97262 0.89204 0.0
H160 H 0.72449 0.93815 0.93897 0.0
H161 H 0.65467 0.97595 0.98739 0.0
H162 H 0.63585 0.06462 0.83461 0.0
H163 H 0.616 0.77807 0.92724 0.0
H164 H 0.55787 0.90748 0.89472 0.0
C165 C 0.34354 0.50087 0.95056 0.0
C166 C 0.32804 0.497 0.9708 0.0
N167 N 0.30028 0.52539 0.9691 0.0
N168 N 0.32585 0.53159 0.936 0.0
C169 C 0.29953 0.54586 0.94768 0.0
H170 H 0.36588 0.48073 0.94644 0.0
Co171 Co 0.3371 0.54075 0.90603 0.0
C172 C 0.30362 0.64782 0.88915 0.0
O173 O 0.32628 0.65815 0.87454 0.0
N174 N 0.34933 0.54756 0.87521 0.0
C175 C 0.37583 0.56471 0.84331 0.0
C176 C 0.37622 0.56995 0.86625 0.0
C177 C 0.33304 0.52909 0.85703 0.0
N178 N 0.34869 0.5388 0.83745 0.0
O179 O 0.30588 0.48362 0.89842 0.0
H180 H 0.39508 0.59036 0.87535 0.0
H181 H 0.31016 0.50839 0.85806 0.0
O182 O 0.30548 0.60348 0.90241 0.0
C183 C 0.31235 0.4295 0.90136 0.0
O184 O 0.34051 0.41509 0.90853 0.0
N185 N 0.36881 0.59347 0.91483 0.0
C186 C 0.42181 0.66147 0.92416 0.0
C187 C 0.39161 0.68663 0.92388 0.0
C188 C 0.36531 0.65155 0.91979 0.0
C189 C 0.3974 0.56719 0.9173 0.0
C190 C 0.42424 0.60032 0.92183 0.0
H191 H 0.34245 0.67179 0.92049 0.0
H192 H 0.39958 0.52049 0.91451 0.0
H193 H 0.28006 0.56981 0.94049 0.0
H194 H 0.33626 0.47297 0.98533 0.0
H195 H 0.39397 0.57996 0.83183 0.0
H196 H 0.38821 0.73331 0.92608 0.0
H197 H 0.44673 0.57824 0.92293 0.0
C198 C 0.64583 0.03494 0.59096 0.0
C199 C 0.65687 0.04659 0.5697 0.0
N200 N 0.68762 0.06077 0.57102 0.0
N201 N 0.66931 0.04238 0.6058 0.0
C202 C 0.69465 0.05764 0.59317 0.0
H203 H 0.62231 0.02043 0.59536 0.0
Co204 Co 0.66486 0.02537 0.63635 0.0
C205 C 0.68794 0.13426 0.65757 0.0
O206 O 0.66235 0.13304 0.67015 0.0
N207 N 0.66028 0.0029 0.66678 0.0
C208 C 0.64572 0.94362 0.69492 0.0
C209 C 0.64335 0.9547 0.67228 0.0
C210 C 0.67443 0.01794 0.6863 0.0
N211 N 0.66513 0.98386 0.70377 0.0
O212 O 0.69894 0.97074 0.63458 0.0
H213 H 0.63013 0.92887 0.66039 0.0
H214 H 0.69226 0.05142 0.68781 0.0
O215 O 0.69343 0.09188 0.64388 0.0
C216 C 0.69231 0.92303 0.62449 0.0
O217 O 0.66516 0.91845 0.6142 0.0
N218 N 0.62947 0.07672 0.63764 0.0
C219 C 0.57736 0.15154 0.6387 0.0
C220 C 0.6054 0.16892 0.62809 0.0
C221 C 0.63099 0.13083 0.62757 0.0
C222 C 0.60176 0.05799 0.64696 0.0
C223 C 0.57565 0.09502 0.64805 0.0
H224 H 0.65227 0.14521 0.61911 0.0
H225 H 0.59936 0.01409 0.65341 0.0
H226 H 0.71783 0.06499 0.60005 0.0
H227 H 0.64358 0.04221 0.55433 0.0
H228 H 0.6336 0.90935 0.7042 0.0
H229 H 0.60751 0.21132 0.61993 0.0
H230 H 0.55436 0.07939 0.65623 0.0
C231 C 0.34965 0.47443 0.59665 0.0
C232 C 0.33846 0.48093 0.57501 0.0
N233 N 0.30764 0.46663 0.57505 0.0
N234 N 0.32599 0.45545 0.61008 0.0
C235 C 0.30088 0.45111 0.59644 0.0
H236 H 0.37317 0.48442 0.60235 0.0
Co237 Co 0.32425 0.44429 0.64116 0.0
C238 C 0.29854 0.32485 0.64501 0.0
O239 O 0.32106 0.31214 0.65929 0.0
N240 N 0.32043 0.43541 0.67287 0.0
C241 C 0.29561 0.42254 0.70574 0.0
C242 C 0.29405 0.41449 0.68303 0.0
C243 C 0.3368 0.45947 0.69007 0.0
N244 N 0.32247 0.45114 0.71025 0.0
O245 O 0.28913 0.49479 0.64255 0.0
H246 H 0.27357 0.39785 0.67448 0.0
H247 H 0.35729 0.487 0.68783 0.0
O248 O 0.29658 0.37657 0.6367 0.0
C249 C 0.29557 0.54901 0.64066 0.0
O250 O 0.32503 0.56505 0.6376 0.0
N251 N 0.36048 0.39608 0.63937 0.0
C252 C 0.41398 0.32517 0.63731 0.0
C253 C 0.38858 0.31537 0.62289 0.0
C254 C 0.36231 0.35178 0.62396 0.0
C255 C 0.38617 0.4096 0.65193 0.0
C256 C 0.41284 0.3739 0.65163 0.0
H257 H 0.34318 0.34383 0.61247 0.0
H258 H 0.38647 0.4486 0.66198 0.0
H259 H 0.27773 0.4381 0.60232 0.0
H260 H 0.35159 0.49736 0.56064 0.0
H261 H 0.27772 0.40993 0.71787 0.0
H262 H 0.38901 0.2801 0.61075 0.0
H263 H 0.4322 0.38429 0.66267 0.0
C264 C 0.83956 0.53259 0.60357 0.0
C265 C 0.82829 0.53581 0.58187 0.0
N266 N 0.79683 0.54425 0.58279 0.0
N267 N 0.81534 0.53931 0.61808 0.0
C268 C 0.78984 0.54672 0.60497 0.0
H269 H 0.86355 0.52331 0.60845 0.0
Co270 Co 0.81382 0.5297 0.64925 0.0
C271 C 0.78061 0.63411 0.66591 0.0
O272 O 0.80011 0.63336 0.68297 0.0
N273 N 0.8103 0.51817 0.68102 0.0
C274 C 0.78369 0.50193 0.71294 0.0
C275 C 0.78151 0.508 0.69015 0.0
C276 C 0.82977 0.51751 0.69909 0.0
N277 N 0.81402 0.50828 0.71871 0.0
O278 O 0.78247 0.46922 0.64546 0.0
H279 H 0.75976 0.5064 0.68083 0.0
H280 H 0.85481 0.5249 0.69825 0.0
O281 O 0.78209 0.59327 0.65114 0.0
C282 C 0.79364 0.42086 0.63815 0.0
O283 O 0.82364 0.41824 0.6327 0.0
N284 N 0.84687 0.5848 0.6519 0.0
C285 C 0.89997 0.6579 0.6522 0.0
C286 C 0.87139 0.67724 0.64305 0.0
C287 C 0.84535 0.6399 0.64277 0.0
C288 C 0.87499 0.56371 0.65925 0.0
C289 C 0.9015 0.59994 0.6603 0.0
H290 H 0.82438 0.6547 0.63431 0.0
H291 H 0.87705 0.51802 0.66396 0.0
H292 H 0.76634 0.55172 0.61178 0.0
H293 H 0.84203 0.52928 0.5667 0.0
H294 H 0.76428 0.49297 0.72433 0.0
H295 H 0.86932 0.72018 0.63536 0.0
H296 H 0.92301 0.58216 0.66718 0.0
C297 C 0.1285 0.96463 0.59535 0.0
C298 C 0.13774 0.966 0.57304 0.0
N299 N 0.1681 0.94863 0.57156 0.0
N300 N 0.15281 0.94607 0.60792 0.0
C301 C 0.17643 0.93661 0.59301 0.0
H302 H 0.10595 0.97832 0.60207 0.0
Co303 Co 0.15668 0.94319 0.63926 0.0
C304 C 0.18444 0.82825 0.64801 0.0
O305 O 0.16345 0.82058 0.66412 0.0
N306 N 0.16301 0.94202 0.67119 0.0
C307 C 0.19316 0.94076 0.70182 0.0
C308 C 0.19266 0.93509 0.67899 0.0
C309 C 0.14598 0.95362 0.69014 0.0
N310 N 0.16378 0.95232 0.70906 0.0
O311 O 0.19154 0.99462 0.63691 0.0
H312 H 0.21327 0.92813 0.66856 0.0
H313 H 0.12135 0.96475 0.69025 0.0
O314 O 0.18458 0.87565 0.63645 0.0
C315 C 0.18572 0.0487 0.63385 0.0
O316 O 0.15634 0.0656 0.63154 0.0
N317 N 0.12066 0.89429 0.64093 0.0
C318 C 0.06623 0.82501 0.64332 0.0
C319 C 0.09181 0.80878 0.62961 0.0
C320 C 0.11853 0.84426 0.62843 0.0
C321 C 0.09487 0.914 0.65234 0.0
C322 C 0.06782 0.87928 0.65442 0.0
H323 H 0.1375 0.83152 0.61729 0.0
H324 H 0.09491 0.95739 0.65948 0.0
H325 H 0.19967 0.92272 0.59805 0.0
H326 H 0.12352 0.98124 0.55918 0.0
H327 H 0.21409 0.93937 0.71207 0.0
H328 H 0.09115 0.76936 0.61954 0.0
H329 H 0.0485 0.89505 0.66468 0.0
C330 C 0.84966 0.51348 0.96128 0.0
C331 C 0.83821 0.51396 0.98291 0.0
N332 N 0.81125 0.48276 0.9836 0.0
N333 N 0.83019 0.48199 0.94825 0.0
C334 C 0.80674 0.46412 0.96225 0.0
H335 H 0.8711 0.53426 0.95537 0.0
Co336 Co 0.83933 0.46916 0.91798 0.0
C337 C 0.81149 0.3529 0.90781 0.0
O338 O 0.83779 0.33836 0.89762 0.0
N339 N 0.8494 0.45831 0.88647 0.0
C340 C 0.87137 0.43127 0.85381 0.0
C341 C 0.87227 0.42536 0.8767 0.0
C342 C 0.83506 0.48397 0.86858 0.0
N343 N 0.848 0.46841 0.84858 0.0
O344 O 0.80627 0.52252 0.91008 0.0
H345 H 0.888 0.39573 0.8852 0.0
H346 H 0.81543 0.51378 0.87003 0.0
O347 O 0.80894 0.4035 0.91695 0.0
C348 C 0.8123 0.57729 0.91086 0.0
O349 O 0.84058 0.59413 0.91694 0.0
N350 N 0.87266 0.42006 0.92708 0.0
C351 C 0.92411 0.34913 0.93767 0.0
C352 C 0.89367 0.33481 0.94536 0.0
C353 C 0.86832 0.37113 0.94006 0.0
C354 C 0.90241 0.4395 0.92259 0.0
C355 C 0.92839 0.40373 0.9269 0.0
H356 H 0.84513 0.35939 0.94617 0.0
H357 H 0.90575 0.48098 0.91398 0.0
H358 H 0.7872 0.43699 0.95704 0.0
H359 H 0.84882 0.53616 0.99702 0.0
H360 H 0.88614 0.40798 0.84195 0.0
H361 H 0.88921 0.29547 0.95512 0.0
H362 H 0.95122 0.41796 0.92083 0.0
C363 C 0.15483 0.99232 0.95043 0.0
C364 C 0.16509 0.9914 0.97221 0.0
N365 N 0.19167 0.02352 0.97347 0.0
N366 N 0.17472 0.02473 0.93776 0.0
C367 C 0.19724 0.04296 0.95222 0.0
H368 H 0.13375 0.97154 0.94418 0.0
Co369 Co 0.16571 0.03819 0.90749 0.0
C370 C 0.19548 0.15422 0.89742 0.0
O371 O 0.16899 0.17183 0.88852 0.0
N372 N 0.15533 0.04921 0.87608 0.0
C373 C 0.13297 0.07813 0.84394 0.0
C374 C 0.13488 0.08751 0.86659 0.0
C375 C 0.16507 0.01632 0.85829 0.0
N376 N 0.15182 0.03294 0.83856 0.0
O377 O 0.19798 0.98278 0.89936 0.0
H378 H 0.1218 0.12119 0.87525 0.0
H379 H 0.18108 0.97979 0.85977 0.0
O380 O 0.19735 0.10247 0.90586 0.0
C381 C 0.19161 0.92836 0.90177 0.0
O382 O 0.16332 0.9132 0.90875 0.0
N383 N 0.1332 0.08913 0.91687 0.0
C384 C 0.08289 0.16052 0.93005 0.0
C385 C 0.11371 0.17249 0.93717 0.0
C386 C 0.13845 0.13605 0.93055 0.0
C387 C 0.10312 0.07256 0.91217 0.0
C388 C 0.07773 0.10865 0.91785 0.0
H389 H 0.16188 0.14576 0.93643 0.0
H390 H 0.09899 0.03267 0.90283 0.0
H391 H 0.21661 0.07139 0.94747 0.0
H392 H 0.15376 0.96868 0.98609 0.0
H393 H 0.11887 0.10352 0.83237 0.0
H394 H 0.11887 0.20975 0.94774 0.0
H395 H 0.05455 0.09657 0.91203 0.0
C396 C 0.1636 0.51613 0.44526 0.0
C397 C 0.17902 0.52076 0.46537 0.0
N398 N 0.20533 0.48776 0.46437 0.0
N399 N 0.17997 0.48034 0.43155 0.0
C400 C 0.20543 0.46392 0.44357 0.0
H401 H 0.14186 0.53779 0.44078 0.0
Co402 Co 0.16738 0.46336 0.40249 0.0
C403 C 0.19405 0.34566 0.39223 0.0
O404 O 0.16818 0.33103 0.38172 0.0
N405 N 0.15392 0.44745 0.37229 0.0
C406 C 0.12727 0.41512 0.34253 0.0
C407 C 0.1281 0.41741 0.36547 0.0
C408 C 0.1682 0.46321 0.35264 0.0
N409 N 0.15251 0.44378 0.33436 0.0
O410 O 0.20006 0.51352 0.39159 0.0
H411 H 0.11121 0.39535 0.37611 0.0
H412 H 0.18997 0.48773 0.35164 0.0
O413 O 0.19637 0.39629 0.40132 0.0
C414 C 0.19313 0.56784 0.39249 0.0
O415 O 0.16418 0.58266 0.39796 0.0
N416 N 0.13446 0.41884 0.41471 0.0
C417 C 0.08067 0.35941 0.42817 0.0
C418 C 0.11038 0.33548 0.43247 0.0
C419 C 0.13727 0.36668 0.42592 0.0
C420 C 0.10602 0.44629 0.41358 0.0
C421 C 0.07856 0.41656 0.41962 0.0
H422 H 0.16009 0.34821 0.42945 0.0
H423 H 0.10452 0.48963 0.40618 0.0
H424 H 0.2235 0.43475 0.43729 0.0
H425 H 0.17161 0.54728 0.4795 0.0
H426 H 0.10918 0.39427 0.33262 0.0
H427 H 0.11275 0.29203 0.43971 0.0
H428 H 0.05589 0.4368 0.41663 0.0
C429 C 0.8508 0.02408 0.44825 0.0
C430 C 0.84214 0.02087 0.47053 0.0
N431 N 0.81519 0.05145 0.47349 0.0
N432 N 0.82957 0.05668 0.4371 0.0
C433 C 0.80814 0.0726 0.45279 0.0
H434 H 0.8709 0.00294 0.4405 0.0
Co435 Co 0.82964 0.06911 0.40618 0.0
C436 C 0.81408 0.19542 0.40238 0.0
O437 O 0.83953 0.20098 0.38985 0.0
N438 N 0.82866 0.0786 0.37446 0.0
C439 C 0.81264 0.10184 0.33992 0.0
C440 C 0.80839 0.11186 0.36242 0.0
C441 C 0.84314 0.04523 0.35867 0.0
N442 N 0.83457 0.05994 0.33754 0.0
O443 O 0.79175 0.02384 0.40416 0.0
H444 H 0.78978 0.13868 0.36928 0.0
H445 H 0.85842 0.00869 0.36256 0.0
O446 O 0.80593 0.14453 0.40993 0.0
C447 C 0.79845 0.96921 0.40384 0.0
O448 O 0.82828 0.9539 0.40435 0.0
N449 N 0.86878 0.10901 0.4088 0.0
C450 C 0.92612 0.16771 0.41194 0.0
C451 C 0.9016 0.18042 0.42694 0.0
C452 C 0.8732 0.15005 0.42526 0.0
C453 C 0.89364 0.09226 0.39568 0.0
C454 C 0.92227 0.12211 0.39654 0.0
H455 H 0.85431 0.16111 0.43675 0.0
H456 H 0.89175 0.05541 0.38461 0.0
H457 H 0.78757 0.09845 0.44888 0.0
H458 H 0.85434 0.996 0.48329 0.0
H459 H 0.79887 0.12056 0.32642 0.0
H460 H 0.90394 0.21483 0.43932 0.0
H461 H 0.94127 0.10953 0.3853 0.0
C462 C 0.14665 0.526 0.09771 0.0
C463 C 0.15945 0.51886 0.07648 0.0
N464 N 0.19091 0.52628 0.07781 0.0
N465 N 0.16996 0.53833 0.11221 0.0
C466 C 0.19648 0.53788 0.09964 0.0
H467 H 0.122 0.52269 0.10227 0.0
Co468 Co 0.16832 0.55361 0.14291 0.0
C469 C 0.22796 0.61651 0.14827 0.0
O470 O 0.23863 0.57387 0.16103 0.0
N471 N 0.16768 0.57077 0.17389 0.0
C472 C 0.16948 0.62498 0.20484 0.0
C473 C 0.16669 0.62609 0.18196 0.0
C474 C 0.17103 0.53659 0.19241 0.0
N475 N 0.17246 0.56879 0.2115 0.0
O476 O 0.19767 0.49109 0.14759 0.0
H477 H 0.16486 0.6653 0.17176 0.0
H478 H 0.17343 0.48937 0.19185 0.0
O479 O 0.20091 0.61221 0.13936 0.0
C480 C 0.18329 0.44196 0.14664 0.0
O481 O 0.15249 0.44244 0.14452 0.0
N482 N 0.13749 0.60979 0.13798 0.0
C483 C 0.0864 0.68443 0.13259 0.0
C484 C 0.11548 0.69763 0.1224 0.0
C485 C 0.14084 0.65922 0.12514 0.0
C486 C 0.10933 0.59578 0.14761 0.0
C487 C 0.08357 0.63278 0.14536 0.0
H488 H 0.16289 0.66872 0.1167 0.0
H489 H 0.10705 0.55567 0.15728 0.0
H490 H 0.21954 0.54668 0.10645 0.0
H491 H 0.14664 0.50832 0.06136 0.0
H492 H 0.16926 0.66289 0.21574 0.0
H493 H 0.11842 0.73654 0.11208 0.0
H494 H 0.06168 0.62118 0.15372 0.0
C495 C 0.83923 0.98344 0.10126 0.0
C496 C 0.82655 0.98558 0.08002 0.0
N497 N 0.79888 0.95638 0.08036 0.0
N498 N 0.81976 0.95267 0.11485 0.0
C499 C 0.79541 0.93704 0.10174 0.0
H500 H 0.8609 0.00391 0.10661 0.0
Co501 Co 0.82388 0.94035 0.14559 0.0
C502 C 0.80934 0.8138 0.1503 0.0
O503 O 0.83596 0.80888 0.16131 0.0
N504 N 0.82663 0.9306 0.1772 0.0
C505 C 0.81322 0.90741 0.21245 0.0
C506 C 0.80727 0.89742 0.19024 0.0
C507 C 0.8424 0.96393 0.19225 0.0
N508 N 0.83532 0.9493 0.21377 0.0
O509 O 0.78636 0.98527 0.15027 0.0
H510 H 0.7879 0.87113 0.18436 0.0
H511 H 0.85729 0.00062 0.1876 0.0
O512 O 0.80017 0.86456 0.14338 0.0
C513 C 0.79315 0.03987 0.14955 0.0
O514 O 0.82285 0.05495 0.14697 0.0
N515 N 0.86256 0.90077 0.1401 0.0
C516 C 0.91917 0.84215 0.13191 0.0
C517 C 0.89253 0.83031 0.11897 0.0
C518 C 0.86464 0.86046 0.12314 0.0
C519 C 0.88905 0.91656 0.15143 0.0
C520 C 0.91745 0.88703 0.14793 0.0
H521 H 0.84434 0.85 0.11306 0.0
H522 H 0.88854 0.95219 0.16319 0.0
H523 H 0.77535 0.91243 0.10793 0.0
H524 H 0.83649 0.00862 0.0657 0.0
H525 H 0.80021 0.88915 0.22656 0.0
H526 H 0.89307 0.79758 0.10582 0.0
H527 H 0.93763 0.89849 0.15804 0.0
H528 H 0.31904 0.83383 0.1509 0.0
H529 H 0.23359 0.92591 0.13398 0.0
H530 H 0.205 0.83224 0.13306 0.0
H531 H 0.20454 0.72444 0.13775 0.0
H532 H 0.29028 0.63466 0.15579 0.0
H533 H 0.31871 0.72779 0.15543 0.0
C534 C 0.29415 0.83373 0.14694 0.0
C535 C 0.27846 0.88688 0.14248 0.0
C536 C 0.27803 0.78016 0.14657 0.0
C537 C 0.24618 0.88565 0.13752 0.0
C538 C 0.2299 0.83212 0.13694 0.0
C539 C 0.22954 0.72516 0.14132 0.0
C540 C 0.24538 0.67257 0.14663 0.0
C541 C 0.24563 0.7791 0.14147 0.0
C542 C 0.2776 0.67443 0.15164 0.0
C543 C 0.29384 0.72765 0.15146 0.0
H544 H 0.74804 0.56148 0.14961 0.0
H545 H 0.66319 0.66528 0.15345 0.0
H546 H 0.69395 0.7551 0.15123 0.0
H547 H 0.74523 0.80541 0.14915 0.0
H548 H 0.8302 0.70219 0.14668 0.0
H549 H 0.79933 0.61182 0.14707 0.0
C550 C 0.73633 0.60374 0.15005 0.0
C551 C 0.70335 0.60631 0.15178 0.0
C552 C 0.75422 0.65577 0.14881 0.0
C553 C 0.68857 0.66165 0.1522 0.0
C554 C 0.70613 0.71333 0.15085 0.0
C555 C 0.75687 0.76311 0.14835 0.0
C556 C 0.78987 0.76046 0.14784 0.0
C557 C 0.73898 0.71107 0.14916 0.0
C558 C 0.80474 0.70533 0.14715 0.0
C559 C 0.78713 0.65356 0.14745 0.0
H560 H 0.309 0.18144 0.41543 0.0
H561 H 0.24632 0.05095 0.3882 0.0
H562 H 0.20704 0.12688 0.38076 0.0
H563 H 0.19049 0.22974 0.38231 0.0
H564 H 0.25266 0.35995 0.41036 0.0
H565 H 0.29235 0.28436 0.4171 0.0
C566 C 0.28678 0.16953 0.40781 0.0
C567 C 0.2806 0.11058 0.40235 0.0
C568 C 0.26429 0.21328 0.40373 0.0
C569 C 0.25162 0.09593 0.39262 0.0
C570 C 0.22919 0.13934 0.38833 0.0
C571 C 0.21276 0.24181 0.38981 0.0
C572 C 0.2186 0.30056 0.39578 0.0
C573 C 0.23528 0.19809 0.39384 0.0
C574 C 0.24753 0.31514 0.40562 0.0
C575 C 0.27023 0.27192 0.40948 0.0
H576 H 0.75016 0.20339 0.39997 0.0
H577 H 0.83416 0.30579 0.41003 0.0
H578 H 0.80342 0.39638 0.40902 0.0
H579 H 0.75272 0.44716 0.40368 0.0
H580 H 0.66912 0.34426 0.39191 0.0
H581 H 0.69946 0.25411 0.39484 0.0
C582 C 0.76151 0.24553 0.4024 0.0
C583 C 0.79423 0.24802 0.40534 0.0
C584 C 0.74382 0.29769 0.40102 0.0
C585 C 0.80888 0.30292 0.4079 0.0
C586 C 0.79137 0.35476 0.40716 0.0
C587 C 0.74123 0.40505 0.40157 0.0
C588 C 0.70869 0.40278 0.39748 0.0
C589 C 0.75887 0.35285 0.40333 0.0
C590 C 0.69415 0.3476 0.39501 0.0
C591 C 0.71146 0.29575 0.39679 0.0
H592 H 0.69393 0.18683 0.92426 0.0
H593 H 0.75656 0.06331 0.89202 0.0
H594 H 0.79684 0.13918 0.8885 0.0
H595 H 0.81415 0.23989 0.89421 0.0
H596 H 0.75253 0.36437 0.92681 0.0
H597 H 0.71184 0.28852 0.93051 0.0
C598 C 0.71641 0.17645 0.91649 0.0
C599 C 0.72216 0.11936 0.90838 0.0
C600 C 0.73956 0.22038 0.91453 0.0
C601 C 0.75146 0.10674 0.89841 0.0
C602 C 0.77452 0.15015 0.89636 0.0
C603 C 0.79183 0.25077 0.90212 0.0
C604 C 0.78639 0.30796 0.91014 0.0
C605 C 0.76877 0.20705 0.90429 0.0
C606 C 0.75733 0.32082 0.92044 0.0
C607 C 0.73408 0.27743 0.92256 0.0
H608 H 0.31529 0.3141 0.91359 0.0
H609 H 0.25479 0.44159 0.88181 0.0
H610 H 0.21408 0.36698 0.87736 0.0
H611 H 0.19525 0.26706 0.88312 0.0
H612 H 0.25439 0.13887 0.91575 0.0
H613 H 0.29623 0.21252 0.91917 0.0
C614 C 0.29327 0.32552 0.90557 0.0
C615 C 0.28813 0.3835 0.89803 0.0
C616 C 0.26975 0.28242 0.90327 0.0
C617 C 0.25937 0.3975 0.88781 0.0
C618 C 0.23607 0.35482 0.88526 0.0
C619 C 0.21729 0.25482 0.89096 0.0
C620 C 0.22162 0.19728 0.89917 0.0
C621 C 0.24095 0.29735 0.89304 0.0
C622 C 0.2504 0.1827 0.90927 0.0
C623 C 0.2743 0.22485 0.91124 0.0
H624 H 0.72112 0.88755 0.66256 0.0
H625 H 0.70359 0.83708 0.59406 0.0
H626 H 0.72812 0.74142 0.60083 0.0
H627 H 0.75357 0.6712 0.62666 0.0
H628 H 0.76827 0.72099 0.69576 0.0
H629 H 0.74533 0.81697 0.68846 0.0
C630 C 0.72332 0.85598 0.64903 0.0
C631 C 0.71123 0.86952 0.62774 0.0
C632 C 0.7363 0.80036 0.6533 0.0
C633 C 0.71319 0.82767 0.61051 0.0
C634 C 0.72695 0.77287 0.61443 0.0
C635 C 0.75133 0.70274 0.64018 0.0
C636 C 0.76261 0.68871 0.66173 0.0
C637 C 0.73821 0.75837 0.63586 0.0
C638 C 0.75981 0.73048 0.67899 0.0
C639 C 0.74685 0.78565 0.67483 0.0
H640 H 0.17995 0.71395 0.65957 0.0
H641 H 0.24069 0.83888 0.62594 0.0
H642 H 0.28037 0.76255 0.62023 0.0
H643 H 0.29841 0.66143 0.62615 0.0
H644 H 0.23685 0.53596 0.6587 0.0
H645 H 0.19662 0.61162 0.66341 0.0
C646 C 0.20188 0.72444 0.65098 0.0
C647 C 0.20764 0.78191 0.64341 0.0
C648 C 0.22434 0.6804 0.6476 0.0
C649 C 0.23584 0.79483 0.63196 0.0
C650 C 0.25852 0.75133 0.62874 0.0
C651 C 0.27616 0.65068 0.63424 0.0
C652 C 0.27064 0.59353 0.64227 0.0
C653 C 0.25313 0.69415 0.63671 0.0
C654 C 0.24158 0.57978 0.6524 0.0
C655 C 0.21865 0.62299 0.65516 0.0
H656 H 0.747 0.38756 0.66697 0.0
H657 H 0.79909 0.33113 0.60853 0.0
H658 H 0.77201 0.23631 0.60948 0.0
H659 H 0.73385 0.16843 0.62742 0.0
H660 H 0.68413 0.2243 0.68718 0.0
H661 H 0.71015 0.31922 0.6854 0.0
C662 C 0.75203 0.35475 0.65428 0.0
C663 C 0.77466 0.36649 0.63755 0.0
C664 C 0.73713 0.29961 0.65537 0.0
C665 C 0.78156 0.32312 0.62151 0.0
C666 C 0.76621 0.26879 0.62211 0.0
C667 C 0.72902 0.20111 0.64019 0.0
C668 C 0.70701 0.18894 0.65738 0.0
C669 C 0.74416 0.25619 0.63912 0.0
C670 C 0.70089 0.2322 0.67369 0.0
C671 C 0.71568 0.28683 0.67267 0.0
H672 H 0.3038 0.20797 0.65129 0.0
H673 H 0.2408 0.3408 0.62594 0.0
H674 H 0.20063 0.26606 0.61915 0.0
H675 H 0.18258 0.16389 0.62245 0.0
H676 H 0.24618 0.03137 0.64739 0.0
H677 H 0.28714 0.10529 0.65216 0.0
C678 C 0.28129 0.22057 0.64424 0.0
C679 C 0.27506 0.27978 0.6394 0.0
C680 C 0.25848 0.17753 0.64033 0.0
C681 C 0.24605 0.29542 0.62989 0.0
C682 C 0.22309 0.25278 0.62605 0.0
C683 C 0.20547 0.15115 0.6288 0.0
C684 C 0.21126 0.09241 0.63475 0.0
C685 C 0.22891 0.19385 0.63152 0.0
C686 C 0.24112 0.07636 0.64271 0.0
C687 C 0.26452 0.1186 0.64552 0.0
H688 H 0.81574 0.69543 0.91643 0.0
H689 H 0.75491 0.55911 0.89134 0.0
H690 H 0.71552 0.63267 0.8812 0.0
H691 H 0.69785 0.73537 0.88029 0.0
H692 H 0.75797 0.87114 0.90667 0.0
H693 H 0.79824 0.79806 0.9153 0.0
C694 C 0.7939 0.68171 0.90869 0.0
C695 C 0.7883 0.62172 0.90469 0.0
C696 C 0.77126 0.72419 0.90307 0.0
C697 C 0.7598 0.60488 0.89472 0.0
C698 C 0.73729 0.64697 0.88886 0.0
C699 C 0.71989 0.74916 0.88771 0.0
C700 C 0.7249 0.80883 0.89271 0.0
C701 C 0.74272 0.70672 0.89303 0.0
C702 C 0.75348 0.82562 0.9026 0.0
C703 C 0.77651 0.78381 0.90759 0.0
H704 H 0.18969 0.81391 0.91464 0.0
H705 H 0.24709 0.93933 0.87839 0.0
H706 H 0.28607 0.8629 0.87058 0.0
H707 H 0.30408 0.76095 0.87445 0.0
H708 H 0.24782 0.63655 0.91213 0.0
H709 H 0.20804 0.71218 0.91892 0.0
C710 C 0.21068 0.82456 0.90496 0.0
C711 C 0.21542 0.88232 0.89705 0.0
C712 C 0.23315 0.78057 0.90078 0.0
C713 C 0.2429 0.89537 0.88472 0.0
C714 C 0.26516 0.85162 0.88021 0.0
C715 C 0.28302 0.75014 0.88402 0.0
C716 C 0.27888 0.69292 0.89266 0.0
C717 C 0.26054 0.79412 0.88819 0.0
C718 C 0.25162 0.68011 0.90528 0.0
C719 C 0.22887 0.72338 0.90917 0.0
H720 H 0.18828 0.68199 0.4048 0.0
H721 H 0.25379 0.55595 0.37737 0.0
H722 H 0.29553 0.62999 0.37761 0.0
H723 H 0.31361 0.72922 0.38656 0.0
H724 H 0.24857 0.85453 0.4151 0.0
H725 H 0.20635 0.78158 0.4136 0.0
C726 C 0.21161 0.67076 0.39865 0.0
C727 C 0.21788 0.61351 0.39097 0.0
C728 C 0.23558 0.71319 0.39924 0.0
C729 C 0.24833 0.59966 0.38332 0.0
C730 C 0.27221 0.64193 0.38352 0.0
C731 C 0.29021 0.74079 0.39246 0.0
C732 C 0.2843 0.79741 0.40095 0.0
C733 C 0.26615 0.69863 0.39163 0.0
C734 C 0.25381 0.81134 0.40853 0.0
C735 C 0.22965 0.76967 0.40763 0.0
H736 H 0.80651 0.85249 0.41085 0.0
H737 H 0.73535 0.98145 0.39547 0.0
H738 H 0.69575 0.90358 0.39313 0.0
H739 H 0.68178 0.79928 0.39462 0.0
H740 H 0.75257 0.67019 0.41076 0.0
H741 H 0.79206 0.7482 0.41371 0.0
C742 C 0.78233 0.86372 0.40698 0.0
C743 C 0.77394 0.92284 0.40318 0.0
C744 C 0.75973 0.81878 0.40579 0.0
C745 C 0.74244 0.93646 0.39844 0.0
C746 C 0.71983 0.89191 0.39707 0.0
C747 C 0.70585 0.78795 0.39878 0.0
C748 C 0.71425 0.7287 0.40227 0.0
C749 C 0.72828 0.83296 0.40056 0.0
C750 C 0.74548 0.71525 0.40792 0.0
C751 C 0.76805 0.75986 0.40958 0.0
H752 H 0.23368 0.18052 0.14415 0.0
H753 H 0.32102 0.26972 0.15769 0.0
H754 H 0.29465 0.36453 0.15572 0.0
H755 H 0.24621 0.4224 0.15218 0.0
H756 H 0.15818 0.33336 0.14032 0.0
H757 H 0.18511 0.23909 0.13973 0.0
C758 C 0.24687 0.22086 0.14632 0.0
C759 C 0.27913 0.21827 0.15108 0.0
C760 C 0.23135 0.27549 0.14578 0.0
C761 C 0.29603 0.27072 0.15415 0.0
C762 C 0.28099 0.32499 0.15307 0.0
C763 C 0.23295 0.38239 0.14945 0.0
C764 C 0.20023 0.38513 0.14645 0.0
C765 C 0.24854 0.32795 0.1493 0.0
C766 C 0.18341 0.33272 0.14286 0.0
C767 C 0.19879 0.27858 0.14243 0.0
H768 H 0.67728 0.21066 0.1608 0.0
H769 H 0.74656 0.33762 0.13878 0.0
H770 H 0.78588 0.25932 0.13552 0.0
H771 H 0.80066 0.15555 0.13994 0.0
H772 H 0.73086 0.02884 0.1613 0.0
H773 H 0.69142 0.10688 0.16383 0.0
C774 C 0.70097 0.22149 0.15527 0.0
C775 C 0.70903 0.28023 0.15023 0.0
C776 C 0.72329 0.17637 0.1534 0.0
C777 C 0.73975 0.29297 0.14282 0.0
C778 C 0.76222 0.24821 0.14101 0.0
C779 C 0.77682 0.14487 0.14519 0.0
C780 C 0.76878 0.08636 0.15062 0.0
C781 C 0.75429 0.18987 0.14644 0.0
C782 C 0.73769 0.07337 0.15709 0.0
C783 C 0.71517 0.11801 0.15855 0.0
H784 H 0.24712 0.04404 0.0705 0.0
H785 H 0.33413 0.05547 0.03282 0.0
H786 H 0.30498 0.05255 0.99765 0.0
H787 H 0.25458 0.04113 0.97737 0.0
H788 H 0.16801 0.03184 1.01557 0.0
H789 H 0.19707 0.04038 0.05051 0.0
C790 C 0.2598 0.0469 0.05467 0.0
C791 C 0.29293 0.04934 0.05452 0.0
C792 C 0.24288 0.04529 0.03443 0.0
C793 C 0.30872 0.05238 0.03362 0.0
C794 C 0.29203 0.05103 1.01341 0.0
C795 C 0.24211 0.04183 0.99333 0.0
C796 C 0.20916 0.03487 0.99377 0.0
C797 C 0.25908 0.04659 1.01357 0.0
C798 C 0.19338 0.03572 1.01467 0.0
C799 C 0.20999 0.04089 0.03473 0.0
H800 H 0.74802 0.46862 0.98522 0.0
H801 H 0.83093 0.47378 0.02657 0.0
H802 H 0.79845 0.46575 0.06041 0.0
H803 H 0.74621 0.46346 0.07851 0.0
H804 H 0.66316 0.45852 0.03729 0.0
H805 H 0.69577 0.45993 1.00335 0.0
C806 C 0.75896 0.46711 1.00161 0.0
C807 C 0.79187 0.4725 1.0033 0.0
C808 C 0.74005 0.46295 1.02113 0.0
C809 C 0.80564 0.47089 1.02475 0.0
C810 C 0.78708 0.46603 0.04416 0.0
C811 C 0.73527 0.46176 0.06213 0.0
C812 C 0.70223 0.46146 0.06054 0.0
C813 C 0.75421 0.46302 0.0426 0.0
C814 C 0.68849 0.45985 0.03907 0.0
C815 C 0.70715 0.4604 1.0196 0.0
H816 H 0.23746 0.95956 0.47714 0.0
H817 H 0.31844 0.9579 0.5205 0.0
H818 H 0.28438 0.95005 0.55343 0.0
H819 H 0.23201 0.94886 0.57017 0.0
H820 H 0.15009 0.9477 0.52759 0.0
H821 H 0.18402 0.95188 0.49431 0.0
C822 C 0.24759 0.95668 0.49377 0.0
C823 C 0.28054 0.96013 0.49627 0.0
C824 C 0.22769 0.95228 0.51287 0.0
C825 C 0.29322 0.95661 0.51803 0.0
C826 C 0.27373 0.95187 0.53693 0.0
C827 C 0.2213 0.94853 0.55372 0.0
C828 C 0.18823 0.94817 0.5517 0.0
C829 C 0.24094 0.95054 0.5346 0.0
C830 C 0.17532 0.94881 0.52992 0.0
C831 C 0.19478 0.95087 0.51077 0.0
H832 H 0.80918 0.56552 0.53858 0.0
H833 H 0.73403 0.52096 0.58499 0.0
H834 H 0.6969 0.51817 0.55433 0.0
H835 H 0.68541 0.52572 0.51435 0.0
H836 H 0.76023 0.56442 0.46711 0.0
H837 H 0.79752 0.57232 0.49802 0.0
C838 C 0.78475 0.55488 0.54203 0.0
C839 C 0.77474 0.54384 0.56433 0.0
C840 C 0.76327 0.55223 0.5241 0.0
C841 C 0.74271 0.53084 0.56828 0.0
C842 C 0.7213 0.5287 0.55063 0.0
C843 C 0.70989 0.5353 0.51068 0.0
C844 C 0.71983 0.54404 0.48828 0.0
C845 C 0.73132 0.53891 0.52849 0.0
C846 C 0.75166 0.55791 0.4841 0.0
C847 C 0.77313 0.56209 0.50181 0.0
H848 H 0.68644 0.93117 1.01331 0.0
H849 H 0.76069 0.96702 0.96523 0.0
H850 H 0.79913 0.96852 0.99545 0.0
H851 H 0.81134 0.96406 0.03575 0.0
H852 H 0.73608 0.93486 0.08376 0.0
H853 H 0.69852 0.92657 0.05334 0.0
C854 C 0.71095 0.93978 1.00937 0.0
C855 C 0.72042 0.94941 0.98693 0.0
C856 C 0.73287 0.94191 0.02688 0.0
C857 C 0.75256 0.95894 0.98223 0.0
C858 C 0.77461 0.96028 0.99957 0.0
C859 C 0.78672 0.9563 0.03963 0.0
C860 C 0.77678 0.95019 0.06217 0.0
C861 C 0.76496 0.9526 1.02199 0.0
C862 C 0.74474 0.93901 0.0667 0.0
C863 C 0.72307 0.93463 0.04926 0.0
H864 H 0.18193 0.54512 0.03323 0.0
H865 H 0.25261 0.49947 0.08211 0.0
H866 H 0.29273 0.49845 0.05285 0.0
H867 H 0.30808 0.51085 1.01375 0.0
H868 H 0.23782 0.55014 0.9638 0.0
H869 H 0.19741 0.55415 0.99317 0.0
C870 C 0.20602 0.53436 0.03744 0.0
C871 C 0.21413 0.52301 0.05999 0.0
C872 C 0.22918 0.53313 1.02037 0.0
C873 C 0.24564 0.50967 0.06509 0.0
C874 C 0.26867 0.50871 0.0483 0.0
C875 C 0.28394 0.5195 1.00907 0.0
C876 C 0.27625 0.52971 0.9864 0.0
C877 C 0.26073 0.52051 1.02593 0.0
C878 C 0.24474 0.54252 0.98103 0.0
C879 C 0.22147 0.54441 0.99784 0.0
H880 H 0.75012 0.03795 0.56875 0.0
H881 H 0.67221 0.10605 0.53054 0.0
H882 H 0.70526 0.11112 0.49695 0.0
H883 H 0.75483 0.08959 0.47788 0.0
H884 H 0.8338 0.02521 0.5162 0.0
H885 H 0.8017 0.02544 0.55016 0.0
C886 C 0.74054 0.05492 0.5532 0.0
C887 C 0.70854 0.0707 0.55215 0.0
C888 C 0.75973 0.05772 0.53383 0.0
C889 C 0.69653 0.09233 0.53175 0.0
C890 C 0.71546 0.09545 0.51251 0.0
C891 C 0.76542 0.07632 0.49357 0.0
C892 C 0.79682 0.05639 0.49404 0.0
C893 C 0.74691 0.07708 0.51324 0.0
C894 C 0.80961 0.03942 0.51489 0.0
C895 C 0.79127 0.03988 0.53451 0.0
H896 H 0.3193 0.45394 0.53051 0.0
H897 H 0.24578 0.49243 0.57869 0.0
H898 H 0.20757 0.50023 0.54861 0.0
H899 H 0.19474 0.49656 0.50883 0.0
H900 H 0.26749 0.46103 0.45982 0.0
H901 H 0.30614 0.45099 0.48994 0.0
C902 C 0.29496 0.46436 0.53435 0.0
C903 C 0.28546 0.47205 0.55689 0.0
C904 C 0.27291 0.46908 0.51683 0.0
C905 C 0.25372 0.48508 0.5616 0.0
C906 C 0.23181 0.48996 0.54437 0.0
C907 C 0.21908 0.48725 0.50464 0.0
C908 C 0.22815 0.48005 0.48203 0.0
C909 C 0.24112 0.48206 0.52197 0.0
C910 C 0.25975 0.46642 0.47706 0.0
C911 C 0.28192 0.46104 0.49429 0.0
H912 H 0.28516 0.05945 0.25254 0.0
H913 H 0.37103 0.98492 0.22575 0.0
H914 H 0.38817 0.96131 0.26371 0.0
H915 H 0.37789 0.9578 0.30423 0.0
H916 H 0.28993 0.02498 0.33058 0.0
H917 H 0.27472 0.0553 0.29297 0.0
C918 C 0.3075 0.03748 0.2548 0.0
C919 C 0.3265 0.02363 0.23596 0.0
C920 C 0.31692 0.02254 0.27669 0.0
C921 C 0.35583 0.99667 0.23967 0.0
C922 C 0.36561 0.98269 0.26147 0.0
C923 C 0.35521 0.97848 0.30193 0.0
C924 C 0.33513 0.98838 0.32059 0.0
C925 C 0.34615 0.99471 0.28007 0.0
C926 C 0.30619 0.01683 0.31688 0.0
C927 C 0.2973 0.03401 0.29524 0.0
H928 H 0.67043 0.55033 0.23234 0.0
H929 H 0.67732 0.3681 0.25071 0.0
H930 H 0.68264 0.39436 0.29036 0.0
H931 H 0.677 0.46855 0.32021 0.0
H932 H 0.66621 0.65031 0.30192 0.0
H933 H 0.67109 0.62561 0.26208 0.0
C934 C 0.67412 0.51677 0.24502 0.0
C935 C 0.6735 0.45749 0.23876 0.0
C936 C 0.67592 0.53222 0.26789 0.0
C937 C 0.6777 0.41403 0.2553 0.0
C938 C 0.68056 0.42903 0.27794 0.0
C939 C 0.67661 0.50272 0.30748 0.0
C940 C 0.67099 0.56102 0.31391 0.0
C941 C 0.67847 0.48787 0.28454 0.0
C942 C 0.67015 0.60501 0.29728 0.0
C943 C 0.67291 0.5909 0.27451 0.0
H944 H 0.67449 0.0672 0.80356 0.0
H945 H 0.66792 0.88116 0.81568 0.0
H946 H 0.67004 0.86275 0.77511 0.0
H947 H 0.66873 0.90079 0.73615 0.0
H948 H 0.67518 0.08729 0.72446 0.0
H949 H 0.67852 0.10444 0.76484 0.0
C950 C 0.67376 0.02264 0.79727 0.0
C951 C 0.67062 0.97561 0.8125 0.0
C952 C 0.67485 0.01261 0.77402 0.0
C953 C 0.67038 0.91798 0.80424 0.0
C954 C 0.67137 0.90755 0.78107 0.0
C955 C 0.67109 0.94509 0.74248 0.0
C956 C 0.67137 0.99273 0.72732 0.0
C957 C 0.67281 0.95465 0.76579 0.0
C958 C 0.67508 0.04985 0.73572 0.0
C959 C 0.67675 0.05973 0.75883 0.0
H960 H 0.28509 0.47819 0.74559 0.0
H961 H 0.38225 0.46927 0.72421 0.0
H962 H 0.39913 0.49677 0.762 0.0
H963 H 0.38617 0.51868 0.8014 0.0
H964 H 0.28882 0.52678 0.82257 0.0
H965 H 0.27212 0.50211 0.78461 0.0
C966 C 0.30999 0.48173 0.74917 0.0
C967 C 0.3324 0.47109 0.73208 0.0
C968 C 0.31946 0.4967 0.77095 0.0
C969 C 0.36453 0.47757 0.73697 0.0
C970 C 0.37417 0.49285 0.75862 0.0
C971 C 0.36128 0.51577 0.79771 0.0
C972 C 0.33881 0.52451 0.81495 0.0
C973 C 0.35183 0.50197 0.77578 0.0
C974 C 0.30666 0.51946 0.80982 0.0
C975 C 0.29708 0.50577 0.78804 0.0
H976 H 0.88287 0.46461 0.81029 0.0
H977 H 0.79059 0.5094 0.83596 0.0
H978 H 0.7729 0.5304 0.79792 0.0
H979 H 0.78253 0.5306 0.75734 0.0
H980 H 0.87347 0.47919 0.73126 0.0
H981 H 0.8928 0.46661 0.76958 0.0
C982 C 0.8588 0.47852 0.80766 0.0
C983 C 0.83808 0.48468 0.82618 0.0
C984 C 0.8485 0.4893 0.78562 0.0
C985 C 0.80723 0.50449 0.82225 0.0
C986 C 0.79698 0.51616 0.80041 0.0
C987 C 0.80652 0.51615 0.75993 0.0
C988 C 0.82633 0.50507 0.74129 0.0
C989 C 0.81725 0.50776 0.78197 0.0
C990 C 0.85768 0.48826 0.74517 0.0
C991 C 0.86869 0.48066 0.76712 0.0
H992 H 0.11455 0.04696 0.80192 0.0
H993 H 0.20005 0.96312 0.8244 0.0
H994 H 0.20948 0.92639 0.78658 0.0
H995 H 0.19509 0.92202 0.74689 0.0
H996 H 0.11218 0.01291 0.72366 0.0
H997 H 0.10005 0.04227 0.76216 0.0
C998 C 0.13548 0.02121 0.79869 0.0
C999 C 0.15668 0.00864 0.81629 0.0
C1000 C 0.14123 0.00128 0.77668 0.0
C1001 C 0.18312 0.97353 0.8115 0.0
C1002 C 0.18867 0.95267 0.78974 0.0
C1003 C 0.17449 0.94877 0.75005 0.0
C1004 C 0.1549 0.96579 0.73206 0.0
C1005 C 0.16813 0.967 0.77216 0.0
C1006 C 0.12773 0.99879 0.73693 0.0
C1007 C 0.12088 0.01604 0.75901 0.0
H1008 H 0.18269 0.53657 0.31582 0.0
H1009 H 0.13789 0.37232 0.29976 0.0
H1010 H 0.14218 0.3945 0.25973 0.0
H1011 H 0.15407 0.46496 0.22935 0.0
H1012 H 0.19974 0.6284 0.24546 0.0
H1013 H 0.19997 0.60198 0.28516 0.0
C1014 C 0.17447 0.50514 0.30356 0.0
C1015 C 0.15947 0.45342 0.31085 0.0
C1016 C 0.17684 0.51831 0.28048 0.0
C1017 C 0.14884 0.41319 0.29466 0.0
C1018 C 0.15138 0.42571 0.27172 0.0
C1019 C 0.16457 0.49425 0.24149 0.0
C1020 C 0.17622 0.54908 0.23442 0.0
C1021 C 0.16458 0.47886 0.26443 0.0
C1022 C 0.18977 0.58659 0.25046 0.0
C1023 C 0.19009 0.57141 0.27321 0.0
H1024 H 0.84224 0.11188 0.29742 0.0
H1025 H 0.84478 0.94415 0.33103 0.0
H1026 H 0.84978 0.89451 0.29478 0.0
H1027 H 0.84631 0.89866 0.25351 0.0
H1028 H 0.84248 0.06609 0.21982 0.0
H1029 H 0.84568 0.11646 0.25604 0.0
C1030 C 0.84431 0.06451 0.29672 0.0
C1031 C 0.84274 0.03156 0.31676 0.0
C1032 C 0.84682 0.03644 0.27584 0.0
C1033 C 0.84601 0.97034 0.31582 0.0
C1034 C 0.84864 0.942 0.29511 0.0
C1035 C 0.84677 0.94619 0.25417 0.0
C1036 C 0.84384 0.97875 0.23416 0.0
C1037 C 0.84804 0.97454 0.27502 0.0
C1038 C 0.84487 0.04024 0.23502 0.0
C1039 C 0.84637 0.06894 0.25573 0.0
H1040 H 0.555 0.23601 0.1346 0.0
H1041 H 0.50745 0.40277 0.12842 0.0
H1042 H 0.45664 0.3536 0.13095 0.0
H1043 H 0.42593 0.26448 0.13691 0.0
H1044 H 0.47305 0.09641 0.13851 0.0
H1045 H 0.52386 0.14543 0.13612 0.0
C1046 C 0.53359 0.26163 0.13329 0.0
C1047 C 0.53521 0.3232 0.13169 0.0
C1048 C 0.50434 0.23304 0.13432 0.0
C1049 C 0.50705 0.3555 0.13027 0.0
C1050 C 0.47791 0.32741 0.1316 0.0
C1051 C 0.44714 0.23812 0.13626 0.0
C1052 C 0.44531 0.1766 0.13817 0.0
C1053 C 0.47632 0.26632 0.13398 0.0
C1054 C 0.47343 0.14384 0.13776 0.0
C1055 C 0.50263 0.1718 0.13609 0.0
H1056 H 0.4351 0.74647 0.4351 0.0
H1057 H 0.48409 0.91216 0.44046 0.0
H1058 H 0.5343 0.86107 0.4405 0.0
H1059 H 0.56434 0.77049 0.43541 0.0
H1060 H 0.5153 0.60417 0.43503 0.0
H1061 H 0.46507 0.65501 0.43696 0.0
C1062 C 0.45655 0.77172 0.43691 0.0
C1063 C 0.45547 0.83352 0.43711 0.0
C1064 C 0.4855 0.74204 0.43757 0.0
C1065 C 0.48392 0.86479 0.43935 0.0
C1066 C 0.5128 0.83556 0.43959 0.0
C1067 C 0.54285 0.7449 0.43636 0.0
C1068 C 0.54395 0.68334 0.43438 0.0
C1069 C 0.51389 0.77427 0.43811 0.0
C1070 C 0.51547 0.65162 0.43557 0.0
C1071 C 0.48658 0.68065 0.4369 0.0
H1072 H 0.5287 0.85402 0.93301 0.0
H1073 H 0.57854 0.72998 0.89151 0.0
H1074 H 0.53303 0.66388 0.8924 0.0
H1075 H 0.47859 0.64393 0.90358 0.0
H1076 H 0.42994 0.7641 0.94779 0.0
H1077 H 0.47535 0.8296 0.947 0.0
C1078 C 0.52944 0.81238 0.92425 0.0
C1079 C 0.55657 0.79672 0.91206 0.0
C1080 C 0.50346 0.77426 0.92522 0.0
C1081 C 0.55773 0.7426 0.90096 0.0
C1082 C 0.53177 0.705 0.90145 0.0
C1083 C 0.478 0.68367 0.91351 0.0
C1084 C 0.45055 0.69892 0.92558 0.0
C1085 C 0.50445 0.72056 0.91342 0.0
C1086 C 0.45033 0.75153 0.93792 0.0
C1087 C 0.47642 0.78898 0.93761 0.0
H1088 H 0.47604 0.3537 0.6417 0.0
H1089 H 0.41367 0.2059 0.63283 0.0
H1090 H 0.45863 0.13958 0.63209 0.0
H1091 H 0.51549 0.12353 0.6337 0.0
H1092 H 0.57759 0.27025 0.64541 0.0
H1093 H 0.53273 0.33696 0.64539 0.0
C1094 C 0.47218 0.30693 0.63992 0.0
C1095 C 0.44147 0.285 0.63722 0.0
C1096 C 0.49806 0.2688 0.63996 0.0
C1097 C 0.43707 0.22425 0.63452 0.0
C1098 C 0.46274 0.18615 0.63427 0.0
C1099 C 0.51923 0.16994 0.6366 0.0
C1100 C 0.54991 0.19175 0.63947 0.0
C1101 C 0.49332 0.20796 0.63695 0.0
C1102 C 0.55429 0.2523 0.64277 0.0
C1103 C 0.52863 0.2905 0.64291 0.0
H1104 H 0.96197 0.62708 0.64689 0.0
H1105 H 0.90192 0.77766 0.6574 0.0
H1106 H 0.94751 0.84227 0.65494 0.0
H1107 H 0.00418 0.85641 0.64895 0.0
H1108 H 0.06466 0.70469 0.64298 0.0
H1109 H 0.01897 0.64049 0.64463 0.0
C1110 C 0.9587 0.67383 0.64914 0.0
C1111 C 0.92822 0.69704 0.65214 0.0
C1112 C 0.98514 0.71085 0.64836 0.0
C1113 C 0.92484 0.75821 0.65453 0.0
C1114 C 0.951 0.79536 0.65331 0.0
C1115 C 0.00762 0.80934 0.64842 0.0
C1116 C 0.03809 0.78594 0.64551 0.0
C1117 C 0.98125 0.7722 0.65008 0.0
C1118 C 0.0416 0.72452 0.64454 0.0
C1119 C 0.01544 0.6875 0.64571 0.0
H1120 H 0.01993 0.13701 0.93644 0.0
H1121 H 0.08647 0.28064 0.93359 0.0
H1122 H 0.04387 0.35029 0.93876 0.0
H1123 H 0.98759 0.37149 0.94149 0.0
H1124 H 0.92075 0.22857 0.93783 0.0
H1125 H 0.9636 0.15837 0.93802 0.0
C1126 C 0.0253 0.18348 0.93665 0.0
C1127 C 0.05672 0.20285 0.93456 0.0
C1128 C 0.00048 0.22392 0.93852 0.0
C1129 C 0.06282 0.26361 0.93559 0.0
C1130 C 0.03833 0.30387 0.9383 0.0
C1131 C 0.98216 0.32514 0.94046 0.0
C1132 C 0.95058 0.30614 0.93962 0.0
C1133 C 0.00703 0.2846 0.93936 0.0
C1134 C 0.94453 0.24531 0.93899 0.0
C1135 C 0.96914 0.20474 0.9388 0.0
H1136 H 0.04252 0.33254 0.39429 0.0
H1137 H 0.05636 0.30272 0.46508 0.0
H1138 H 0.00912 0.24028 0.4665 0.0
H1139 H 0.96386 0.19465 0.44719 0.0
H1140 H 0.95264 0.22122 0.37586 0.0
H1141 H -0.00088 0.2844 0.3749 0.0
C1142 C 0.03495 0.31262 0.41004 0.0
C1143 C 0.05226 0.32257 0.42964 0.0
C1144 C 0.00849 0.27611 0.41052 0.0
C1145 C 0.04299 0.29572 0.44988 0.0
C1146 C 0.01612 0.26015 0.45065 0.0
C1147 C 0.97172 0.2144 0.4315 0.0
C1148 C 0.95503 0.20361 0.41162 0.0
C1149 C -0.00132 0.25009 0.43104 0.0
C1150 C 0.96541 0.22871 0.3913 0.0
C1151 C 0.9918 0.26499 0.39076 0.0
H1152 H 0.98053 0.87854 0.1327 0.0
H1153 H 0.92244 0.72415 0.12553 0.0
H1154 H 0.96921 0.66298 0.12295 0.0
H1155 H 0.02618 0.65223 0.12483 0.0
H1156 H 0.08484 0.80453 0.13456 0.0
H1157 H 0.03827 0.86774 0.13377 0.0
C1158 C 0.97813 0.8315 0.13066 0.0
C1159 C 0.94799 0.80607 0.12931 0.0
C1160 C 0.00518 0.79621 0.12963 0.0
C1161 C 0.94531 0.7451 0.12628 0.0
C1162 C 0.97204 0.70993 0.12497 0.0
C1163 C 0.02879 0.69925 0.12688 0.0
C1164 C 0.05883 0.72359 0.13004 0.0
C1165 C 0.00201 0.73492 0.12693 0.0
C1166 C 0.06194 0.78475 0.13203 0.0
C1167 C 0.03532 0.82082 0.13175 0.0
loop_
_geom_bond_atom_site_label_1
_geom_bond_atom_site_label_2
_geom_bond_distance
_geom_bond_site_symmetry_2
_ccdc_geom_bond_type
C0 C1 1.351 . S
C0 N3 1.368 . S
C0 H5 0.931 . S
C1 C0 1.351 . S
C1 N2 1.373 . S
C1 H29 0.930 . S
N2 C1 1.373 . S
N2 C4 1.340 . S
N3 C0 1.368 . S
N3 C4 1.321 . S
N3 Co6 2.135 . S
C4 N2 1.340 . S
C4 N3 1.321 . S
C4 H28 0.930 . S
H5 C0 0.931 . S
Co6 N3 2.135 . S
Co6 N9 2.121 . S
Co6 O14 2.055 . S
Co6 O17 2.039 . S
Co6 N20 2.140 . S
C7 O8 1.227 . S
C7 O17 1.265 . S
O8 C7 1.227 . S
N9 Co6 2.121 . S
N9 C11 1.375 . S
N9 C12 1.313 . S
C10 C11 1.338 . S
C10 N13 1.377 . S
C10 H30 0.930 . S
C11 N9 1.375 . S
C11 C10 1.338 . S
C11 H15 0.931 . S
C12 N9 1.313 . S
C12 N13 1.344 . S
C12 H16 0.930 . S
N13 C10 1.377 . S
N13 C12 1.344 . S
O14 Co6 2.055 . S
O14 C18 1.253 . S
H15 C11 0.931 . S
H16 C12 0.930 . S
O17 Co6 2.039 . S
O17 C7 1.265 . S
C18 O14 1.253 . S
C18 O19 1.227 . S
O19 C18 1.227 . S
N20 Co6 2.140 . S
N20 C23 1.346 . S
N20 C24 1.345 . S
C21 C22 1.387 . S
C21 C25 1.391 . S
C22 C21 1.387 . S
C22 C23 1.369 . S
C22 H31 0.929 . S
C23 N20 1.346 . S
C23 C22 1.369 . S
C23 H26 0.928 . S
C24 N20 1.345 . S
C24 C25 1.371 . S
C24 H27 0.931 . S
C25 C21 1.391 . S
C25 C24 1.371 . S
C25 H32 0.930 . S
H26 C23 0.928 . S
H27 C24 0.931 . S
H28 C4 0.930 . S
H29 C1 0.930 . S
H30 C10 0.930 . S
H31 C22 0.929 . S
H32 C25 0.930 . S
C33 C34 1.351 . S
C33 N36 1.368 . S
C33 H38 0.931 . S
C34 C33 1.351 . S
C34 N35 1.373 . S
C34 H62 0.930 . S
N35 C34 1.373 . S
N35 C37 1.340 . S
N36 C33 1.368 . S
N36 C37 1.321 . S
N36 Co39 2.135 . S
C37 N35 1.340 . S
C37 N36 1.321 . S
C37 H61 0.930 . S
H38 C33 0.931 . S
Co39 N36 2.135 . S
Co39 N42 2.121 . S
Co39 O47 2.055 . S
Co39 O50 2.039 . S
Co39 N53 2.140 . S
C40 O41 1.227 . S
C40 O50 1.265 . S
O41 C40 1.227 . S
N42 Co39 2.121 . S
N42 C44 1.375 . S
N42 C45 1.313 . S
C43 C44 1.338 . S
C43 N46 1.377 . S
C43 H63 0.930 . S
C44 N42 1.375 . S
C44 C43 1.338 . S
C44 H48 0.931 . S
C45 N42 1.313 . S
C45 N46 1.344 . S
C45 H49 0.930 . S
N46 C43 1.377 . S
N46 C45 1.344 . S
O47 Co39 2.055 . S
O47 C51 1.253 . S
H48 C44 0.931 . S
H49 C45 0.930 . S
O50 Co39 2.039 . S
O50 C40 1.265 . S
C51 O47 1.253 . S
C51 O52 1.227 . S
O52 C51 1.227 . S
N53 Co39 2.140 . S
N53 C56 1.346 . S
N53 C57 1.345 . S
C54 C55 1.387 . S
C54 C58 1.391 . S
C55 C54 1.387 . S
C55 C56 1.369 . S
C55 H64 0.929 . S
C56 N53 1.346 . S
C56 C55 1.369 . S
C56 H59 0.928 . S
C57 N53 1.345 . S
C57 C58 1.371 . S
C57 H60 0.931 . S
C58 C54 1.391 . S
C58 C57 1.371 . S
C58 H65 0.930 . S
H59 C56 0.928 . S
H60 C57 0.931 . S
H61 C37 0.930 . S
H62 C34 0.930 . S
H63 C43 0.930 . S
H64 C55 0.929 . S
H65 C58 0.930 . S
C66 C67 1.351 . S
C66 N69 1.368 . S
C66 H71 0.931 . S
C67 C66 1.351 . S
C67 N68 1.373 . S
C67 H95 0.930 . S
N68 C67 1.373 . S
N68 C70 1.340 . S
N69 C66 1.368 . S
N69 C70 1.321 . S
N69 Co72 2.135 . S
C70 N68 1.340 . S
C70 N69 1.321 . S
C70 H94 0.930 . S
H71 C66 0.931 . S
Co72 N69 2.135 . S
Co72 N75 2.121 . S
Co72 O80 2.055 . S
Co72 O83 2.039 . S
Co72 N86 2.140 . S
C73 O74 1.227 . S
C73 O83 1.265 . S
O74 C73 1.227 . S
N75 Co72 2.121 . S
N75 C77 1.375 . S
N75 C78 1.313 . S
C76 C77 1.338 . S
C76 N79 1.377 . S
C76 H96 0.930 . S
C77 N75 1.375 . S
C77 C76 1.338 . S
C77 H81 0.931 . S
C78 N75 1.313 . S
C78 N79 1.344 . S
C78 H82 0.930 . S
N79 C76 1.377 . S
N79 C78 1.344 . S
O80 Co72 2.055 . S
O80 C84 1.253 . S
H81 C77 0.931 . S
H82 C78 0.930 . S
O83 Co72 2.039 . S
O83 C73 1.265 . S
C84 O80 1.253 . S
C84 O85 1.227 . S
O85 C84 1.227 . S
N86 Co72 2.140 . S
N86 C89 1.346 . S
N86 C90 1.345 . S
C87 C88 1.387 . S
C87 C91 1.391 . S
C88 C87 1.387 . S
C88 C89 1.369 . S
C88 H97 0.929 . S
C89 N86 1.346 . S
C89 C88 1.369 . S
C89 H92 0.928 . S
C90 N86 1.345 . S
C90 C91 1.371 . S
C90 H93 0.931 . S
C91 C87 1.391 . S
C91 C90 1.371 . S
C91 H98 0.930 . S
H92 C89 0.928 . S
H93 C90 0.931 . S
H94 C70 0.930 . S
H95 C67 0.930 . S
H96 C76 0.930 . S
H97 C88 0.929 . S
H98 C91 0.930 . S
C99 C100 1.351 . S
C99 N102 1.368 . S
C99 H104 0.931 . S
C100 C99 1.351 . S
C100 N101 1.373 . S
C100 H128 0.930 . S
N101 C100 1.373 . S
N101 C103 1.340 . S
N102 C99 1.368 . S
N102 C103 1.321 . S
N102 Co105 2.135 . S
C103 N101 1.340 . S
C103 N102 1.321 . S
C103 H127 0.930 . S
H104 C99 0.931 . S
Co105 N102 2.135 . S
Co105 N108 2.121 . S
Co105 O113 2.055 . S
Co105 O116 2.039 . S
Co105 N119 2.140 . S
C106 O107 1.227 . S
C106 O116 1.265 . S
O107 C106 1.227 . S
N108 Co105 2.121 . S
N108 C110 1.375 . S
N108 C111 1.313 . S
C109 C110 1.338 . S
C109 N112 1.377 . S
C109 H129 0.930 . S
C110 N108 1.375 . S
C110 C109 1.338 . S
C110 H114 0.931 . S
C111 N108 1.313 . S
C111 N112 1.344 . S
C111 H115 0.930 . S
N112 C109 1.377 . S
N112 C111 1.344 . S
O113 Co105 2.055 . S
O113 C117 1.253 . S
H114 C110 0.931 . S
H115 C111 0.930 . S
O116 Co105 2.039 . S
O116 C106 1.265 . S
C117 O113 1.253 . S
C117 O118 1.227 . S
O118 C117 1.227 . S
N119 Co105 2.140 . S
N119 C122 1.346 . S
N119 C123 1.345 . S
C120 C121 1.387 . S
C120 C124 1.391 . S
C121 C120 1.387 . S
C121 C122 1.369 . S
C121 H130 0.929 . S
C122 N119 1.346 . S
C122 C121 1.369 . S
C122 H125 0.928 . S
C123 N119 1.345 . S
C123 C124 1.371 . S
C123 H126 0.931 . S
C124 C120 1.391 . S
C124 C123 1.371 . S
C124 H131 0.930 . S
H125 C122 0.928 . S
H126 C123 0.931 . S
H127 C103 0.930 . S
H128 C100 0.930 . S
H129 C109 0.930 . S
H130 C121 0.929 . S
H131 C124 0.930 . S
C132 C133 1.351 . S
C132 N135 1.368 . S
C132 H137 0.931 . S
C133 C132 1.351 . S
C133 N134 1.373 . S
C133 H161 0.930 . S
N134 C133 1.373 . S
N134 C136 1.340 . S
N135 C132 1.368 . S
N135 C136 1.321 . S
N135 Co138 2.135 . S
C136 N134 1.340 . S
C136 N135 1.321 . S
C136 H160 0.930 . S
H137 C132 0.931 . S
Co138 N135 2.135 . S
Co138 N141 2.121 . S
Co138 O146 2.055 . S
Co138 O149 2.039 . S
Co138 N152 2.140 . S
C139 O140 1.227 . S
C139 O149 1.265 . S
O140 C139 1.227 . S
N141 Co138 2.121 . S
N141 C143 1.375 . S
N141 C144 1.313 . S
C142 C143 1.338 . S
C142 N145 1.377 . S
C142 H162 0.930 . S
C143 N141 1.375 . S
C143 C142 1.338 . S
C143 H147 0.931 . S
C144 N141 1.313 . S
C144 N145 1.344 . S
C144 H148 0.930 . S
N145 C142 1.377 . S
N145 C144 1.344 . S
O146 Co138 2.055 . S
O146 C150 1.253 . S
H147 C143 0.931 . S
H148 C144 0.930 . S
O149 Co138 2.039 . S
O149 C139 1.265 . S
C150 O146 1.253 . S
C150 O151 1.227 . S
O151 C150 1.227 . S
N152 Co138 2.140 . S
N152 C155 1.346 . S
N152 C156 1.345 . S
C153 C154 1.387 . S
C153 C157 1.391 . S
C154 C153 1.387 . S
C154 C155 1.369 . S
C154 H163 0.929 . S
C155 N152 1.346 . S
C155 C154 1.369 . S
C155 H158 0.928 . S
C156 N152 1.345 . S
C156 C157 1.371 . S
C156 H159 0.931 . S
C157 C153 1.391 . S
C157 C156 1.371 . S
C157 H164 0.930 . S
H158 C155 0.928 . S
H159 C156 0.931 . S
H160 C136 0.930 . S
H161 C133 0.930 . S
H162 C142 0.930 . S
H163 C154 0.929 . S
H164 C157 0.930 . S
C165 C166 1.351 . S
C165 N168 1.368 . S
C165 H170 0.931 . S
C166 C165 1.351 . S
C166 N167 1.373 . S
C166 H194 0.930 . S
N167 C166 1.373 . S
N167 C169 1.340 . S
N168 C165 1.368 . S
N168 C169 1.321 . S
N168 Co171 2.135 . S
C169 N167 1.340 . S
C169 N168 1.321 . S
C169 H193 0.930 . S
H170 C165 0.931 . S
Co171 N168 2.135 . S
Co171 N174 2.121 . S
Co171 O179 2.055 . S
Co171 O182 2.039 . S
Co171 N185 2.140 . S
C172 O173 1.227 . S
C172 O182 1.265 . S
O173 C172 1.227 . S
N174 Co171 2.121 . S
N174 C176 1.375 . S
N174 C177 1.313 . S
C175 C176 1.338 . S
C175 N178 1.377 . S
C175 H195 0.930 . S
C176 N174 1.375 . S
C176 C175 1.338 . S
C176 H180 0.931 . S
C177 N174 1.313 . S
C177 N178 1.344 . S
C177 H181 0.930 . S
N178 C175 1.377 . S
N178 C177 1.344 . S
O179 Co171 2.055 . S
O179 C183 1.253 . S
H180 C176 0.931 . S
H181 C177 0.930 . S
O182 Co171 2.039 . S
O182 C172 1.265 . S
C183 O179 1.253 . S
C183 O184 1.227 . S
O184 C183 1.227 . S
N185 Co171 2.140 . S
N185 C188 1.346 . S
N185 C189 1.345 . S
C186 C187 1.387 . S
C186 C190 1.391 . S
C187 C186 1.387 . S
C187 C188 1.369 . S
C187 H196 0.929 . S
C188 N185 1.346 . S
C188 C187 1.369 . S
C188 H191 0.928 . S
C189 N185 1.345 . S
C189 C190 1.371 . S
C189 H192 0.931 . S
C190 C186 1.391 . S
C190 C189 1.371 . S
C190 H197 0.930 . S
H191 C188 0.928 . S
H192 C189 0.931 . S
H193 C169 0.930 . S
H194 C166 0.930 . S
H195 C175 0.930 . S
H196 C187 0.929 . S
H197 C190 0.930 . S
C198 C199 1.351 . S
C198 N201 1.368 . S
C198 H203 0.931 . S
C199 C198 1.351 . S
C199 N200 1.373 . S
C199 H227 0.930 . S
N200 C199 1.373 . S
N200 C202 1.340 . S
N201 C198 1.368 . S
N201 C202 1.321 . S
N201 Co204 2.135 . S
C202 N200 1.340 . S
C202 N201 1.321 . S
C202 H226 0.930 . S
H203 C198 0.931 . S
Co204 N201 2.135 . S
Co204 N207 2.121 . S
Co204 O212 2.055 . S
Co204 O215 2.039 . S
Co204 N218 2.140 . S
C205 O206 1.227 . S
C205 O215 1.265 . S
O206 C205 1.227 . S
N207 Co204 2.121 . S
N207 C209 1.375 . S
N207 C210 1.313 . S
C208 C209 1.338 . S
C208 N211 1.377 . S
C208 H228 0.930 . S
C209 N207 1.375 . S
C209 C208 1.338 . S
C209 H213 0.931 . S
C210 N207 1.313 . S
C210 N211 1.344 . S
C210 H214 0.930 . S
N211 C208 1.377 . S
N211 C210 1.344 . S
O212 Co204 2.055 . S
O212 C216 1.253 . S
H213 C209 0.931 . S
H214 C210 0.930 . S
O215 Co204 2.039 . S
O215 C205 1.265 . S
C216 O212 1.253 . S
C216 O217 1.227 . S
O217 C216 1.227 . S
N218 Co204 2.140 . S
N218 C221 1.346 . S
N218 C222 1.345 . S
C219 C220 1.387 . S
C219 C223 1.391 . S
C220 C219 1.387 . S
C220 C221 1.369 . S
C220 H229 0.929 . S
C221 N218 1.346 . S
C221 C220 1.369 . S
C221 H224 0.928 . S
C222 N218 1.345 . S
C222 C223 1.371 . S
C222 H225 0.931 . S
C223 C219 1.391 . S
C223 C222 1.371 . S
C223 H230 0.930 . S
H224 C221 0.928 . S
H225 C222 0.931 . S
H226 C202 0.930 . S
H227 C199 0.930 . S
H228 C208 0.930 . S
H229 C220 0.929 . S
H230 C223 0.930 . S
C231 C232 1.351 . S
C231 N234 1.368 . S
C231 H236 0.931 . S
C232 C231 1.351 . S
C232 N233 1.373 . S
C232 H260 0.930 . S
N233 C232 1.373 . S
N233 C235 1.340 . S
N234 C231 1.368 . S
N234 C235 1.321 . S
N234 Co237 2.135 . S
C235 N233 1.340 . S
C235 N234 1.321 . S
C235 H259 0.930 . S
H236 C231 0.931 . S
Co237 N234 2.135 . S
Co237 N240 2.121 . S
Co237 O245 2.055 . S
Co237 O248 2.039 . S
Co237 N251 2.140 . S
C238 O239 1.227 . S
C238 O248 1.265 . S
O239 C238 1.227 . S
N240 Co237 2.121 . S
N240 C242 1.375 . S
N240 C243 1.313 . S
C241 C242 1.338 . S
C241 N244 1.377 . S
C241 H261 0.930 . S
C242 N240 1.375 . S
C242 C241 1.338 . S
C242 H246 0.931 . S
C243 N240 1.313 . S
C243 N244 1.344 . S
C243 H247 0.930 . S
N244 C241 1.377 . S
N244 C243 1.344 . S
O245 Co237 2.055 . S
O245 C249 1.253 . S
H246 C242 0.931 . S
H247 C243 0.930 . S
O248 Co237 2.039 . S
O248 C238 1.265 . S
C249 O245 1.253 . S
C249 O250 1.227 . S
O250 C249 1.227 . S
N251 Co237 2.140 . S
N251 C254 1.346 . S
N251 C255 1.345 . S
C252 C253 1.387 . S
C252 C256 1.391 . S
C253 C252 1.387 . S
C253 C254 1.369 . S
C253 H262 0.929 . S
C254 N251 1.346 . S
C254 C253 1.369 . S
C254 H257 0.928 . S
C255 N251 1.345 . S
C255 C256 1.371 . S
C255 H258 0.931 . S
C256 C252 1.391 . S
C256 C255 1.371 . S
C256 H263 0.930 . S
H257 C254 0.928 . S
H258 C255 0.931 . S
H259 C235 0.930 . S
H260 C232 0.930 . S
H261 C241 0.930 . S
H262 C253 0.929 . S
H263 C256 0.930 . S
C264 C265 1.351 . S
C264 N267 1.368 . S
C264 H269 0.931 . S
C265 C264 1.351 . S
C265 N266 1.373 . S
C265 H293 0.930 . S
N266 C265 1.373 . S
N266 C268 1.340 . S
N267 C264 1.368 . S
N267 C268 1.321 . S
N267 Co270 2.135 . S
C268 N266 1.340 . S
C268 N267 1.321 . S
C268 H292 0.930 . S
H269 C264 0.931 . S
Co270 N267 2.135 . S
Co270 N273 2.121 . S
Co270 O278 2.055 . S
Co270 O281 2.039 . S
Co270 N284 2.140 . S
C271 O272 1.227 . S
C271 O281 1.265 . S
O272 C271 1.227 . S
N273 Co270 2.121 . S
N273 C275 1.375 . S
N273 C276 1.313 . S
C274 C275 1.338 . S
C274 N277 1.377 . S
C274 H294 0.930 . S
C275 N273 1.375 . S
C275 C274 1.338 . S
C275 H279 0.931 . S
C276 N273 1.313 . S
C276 N277 1.344 . S
C276 H280 0.930 . S
N277 C274 1.377 . S
N277 C276 1.344 . S
O278 Co270 2.055 . S
O278 C282 1.253 . S
H279 C275 0.931 . S
H280 C276 0.930 . S
O281 Co270 2.039 . S
O281 C271 1.265 . S
C282 O278 1.253 . S
C282 O283 1.227 . S
O283 C282 1.227 . S
N284 Co270 2.140 . S
N284 C287 1.346 . S
N284 C288 1.345 . S
C285 C286 1.387 . S
C285 C289 1.391 . S
C286 C285 1.387 . S
C286 C287 1.369 . S
C286 H295 0.929 . S
C287 N284 1.346 . S
C287 C286 1.369 . S
C287 H290 0.928 . S
C288 N284 1.345 . S
C288 C289 1.371 . S
C288 H291 0.931 . S
C289 C285 1.391 . S
C289 C288 1.371 . S
C289 H296 0.930 . S
H290 C287 0.928 . S
H291 C288 0.931 . S
H292 C268 0.930 . S
H293 C265 0.930 . S
H294 C274 0.930 . S
H295 C286 0.929 . S
H296 C289 0.930 . S
C297 C298 1.351 . S
C297 N300 1.368 . S
C297 H302 0.931 . S
C298 C297 1.351 . S
C298 N299 1.373 . S
C298 H326 0.930 . S
N299 C298 1.373 . S
N299 C301 1.340 . S
N300 C297 1.368 . S
N300 C301 1.321 . S
N300 Co303 2.135 . S
C301 N299 1.340 . S
C301 N300 1.321 . S
C301 H325 0.930 . S
H302 C297 0.931 . S
Co303 N300 2.135 . S
Co303 N306 2.121 . S
Co303 O311 2.055 . S
Co303 O314 2.039 . S
Co303 N317 2.140 . S
C304 O305 1.227 . S
C304 O314 1.265 . S
O305 C304 1.227 . S
N306 Co303 2.121 . S
N306 C308 1.375 . S
N306 C309 1.313 . S
C307 C308 1.338 . S
C307 N310 1.377 . S
C307 H327 0.930 . S
C308 N306 1.375 . S
C308 C307 1.338 . S
C308 H312 0.931 . S
C309 N306 1.313 . S
C309 N310 1.344 . S
C309 H313 0.930 . S
N310 C307 1.377 . S
N310 C309 1.344 . S
O311 Co303 2.055 . S
O311 C315 1.253 . S
H312 C308 0.931 . S
H313 C309 0.930 . S
O314 Co303 2.039 . S
O314 C304 1.265 . S
C315 O311 1.253 . S
C315 O316 1.227 . S
O316 C315 1.227 . S
N317 Co303 2.140 . S
N317 C320 1.346 . S
N317 C321 1.345 . S
C318 C319 1.387 . S
C318 C322 1.391 . S
C319 C318 1.387 . S
C319 C320 1.369 . S
C319 H328 0.929 . S
C320 N317 1.346 . S
C320 C319 1.369 . S
C320 H323 0.928 . S
C321 N317 1.345 . S
C321 C322 1.371 . S
C321 H324 0.931 . S
C322 C318 1.391 . S
C322 C321 1.371 . S
C322 H329 0.930 . S
H323 C320 0.928 . S
H324 C321 0.931 . S
H325 C301 0.930 . S
H326 C298 0.930 . S
H327 C307 0.930 . S
H328 C319 0.929 . S
H329 C322 0.930 . S
C330 C331 1.351 . S
C330 N333 1.368 . S
C330 H335 0.931 . S
C331 C330 1.351 . S
C331 N332 1.373 . S
C331 H359 0.930 . S
N332 C331 1.373 . S
N332 C334 1.340 . S
N333 C330 1.368 . S
N333 C334 1.321 . S
N333 Co336 2.135 . S
C334 N332 1.340 . S
C334 N333 1.321 . S
C334 H358 0.930 . S
H335 C330 0.931 . S
Co336 N333 2.135 . S
Co336 N339 2.121 . S
Co336 O344 2.055 . S
Co336 O347 2.039 . S
Co336 N350 2.140 . S
C337 O338 1.227 . S
C337 O347 1.265 . S
O338 C337 1.227 . S
N339 Co336 2.121 . S
N339 C341 1.375 . S
N339 C342 1.313 . S
C340 C341 1.338 . S
C340 N343 1.377 . S
C340 H360 0.930 . S
C341 N339 1.375 . S
C341 C340 1.338 . S
C341 H345 0.931 . S
C342 N339 1.313 . S
C342 N343 1.344 . S
C342 H346 0.930 . S
N343 C340 1.377 . S
N343 C342 1.344 . S
O344 Co336 2.055 . S
O344 C348 1.253 . S
H345 C341 0.931 . S
H346 C342 0.930 . S
O347 Co336 2.039 . S
O347 C337 1.265 . S
C348 O344 1.253 . S
C348 O349 1.227 . S
O349 C348 1.227 . S
N350 Co336 2.140 . S
N350 C353 1.346 . S
N350 C354 1.345 . S
C351 C352 1.387 . S
C351 C355 1.391 . S
C352 C351 1.387 . S
C352 C353 1.369 . S
C352 H361 0.929 . S
C353 N350 1.346 . S
C353 C352 1.369 . S
C353 H356 0.928 . S
C354 N350 1.345 . S
C354 C355 1.371 . S
C354 H357 0.931 . S
C355 C351 1.391 . S
C355 C354 1.371 . S
C355 H362 0.930 . S
H356 C353 0.928 . S
H357 C354 0.931 . S
H358 C334 0.930 . S
H359 C331 0.930 . S
H360 C340 0.930 . S
H361 C352 0.929 . S
H362 C355 0.930 . S
C363 C364 1.351 . S
C363 N366 1.368 . S
C363 H368 0.931 . S
C364 C363 1.351 . S
C364 N365 1.373 . S
C364 H392 0.930 . S
N365 C364 1.373 . S
N365 C367 1.340 . S
N366 C363 1.368 . S
N366 C367 1.321 . S
N366 Co369 2.135 . S
C367 N365 1.340 . S
C367 N366 1.321 . S
C367 H391 0.930 . S
H368 C363 0.931 . S
Co369 N366 2.135 . S
Co369 N372 2.121 . S
Co369 O377 2.055 . S
Co369 O380 2.039 . S
Co369 N383 2.140 . S
C370 O371 1.227 . S
C370 O380 1.265 . S
O371 C370 1.227 . S
N372 Co369 2.121 . S
N372 C374 1.375 . S
N372 C375 1.313 . S
C373 C374 1.338 . S
C373 N376 1.377 . S
C373 H393 0.930 . S
C374 N372 1.375 . S
C374 C373 1.338 . S
C374 H378 0.931 . S
C375 N372 1.313 . S
C375 N376 1.344 . S
C375 H379 0.930 . S
N376 C373 1.377 . S
N376 C375 1.344 . S
O377 Co369 2.055 . S
O377 C381 1.253 . S
H378 C374 0.931 . S
H379 C375 0.930 . S
O380 Co369 2.039 . S
O380 C370 1.265 . S
C381 O377 1.253 . S
C381 O382 1.227 . S
O382 C381 1.227 . S
N383 Co369 2.140 . S
N383 C386 1.346 . S
N383 C387 1.345 . S
C384 C385 1.387 . S
C384 C388 1.391 . S
C385 C384 1.387 . S
C385 C386 1.369 . S
C385 H394 0.929 . S
C386 N383 1.346 . S
C386 C385 1.369 . S
C386 H389 0.928 . S
C387 N383 1.345 . S
C387 C388 1.371 . S
C387 H390 0.931 . S
C388 C384 1.391 . S
C388 C387 1.371 . S
C388 H395 0.930 . S
H389 C386 0.928 . S
H390 C387 0.931 . S
H391 C367 0.930 . S
H392 C364 0.930 . S
H393 C373 0.930 . S
H394 C385 0.929 . S
H395 C388 0.930 . S
C396 C397 1.351 . S
C396 N399 1.368 . S
C396 H401 0.931 . S
C397 C396 1.351 . S
C397 N398 1.373 . S
C397 H425 0.930 . S
N398 C397 1.373 . S
N398 C400 1.340 . S
N399 C396 1.368 . S
N399 C400 1.321 . S
N399 Co402 2.135 . S
C400 N398 1.340 . S
C400 N399 1.321 . S
C400 H424 0.930 . S
H401 C396 0.931 . S
Co402 N399 2.135 . S
Co402 N405 2.121 . S
Co402 O410 2.055 . S
Co402 O413 2.039 . S
Co402 N416 2.140 . S
C403 O404 1.227 . S
C403 O413 1.265 . S
O404 C403 1.227 . S
N405 Co402 2.121 . S
N405 C407 1.375 . S
N405 C408 1.313 . S
C406 C407 1.338 . S
C406 N409 1.377 . S
C406 H426 0.930 . S
C407 N405 1.375 . S
C407 C406 1.338 . S
C407 H411 0.931 . S
C408 N405 1.313 . S
C408 N409 1.344 . S
C408 H412 0.930 . S
N409 C406 1.377 . S
N409 C408 1.344 . S
O410 Co402 2.055 . S
O410 C414 1.253 . S
H411 C407 0.931 . S
H412 C408 0.930 . S
O413 Co402 2.039 . S
O413 C403 1.265 . S
C414 O410 1.253 . S
C414 O415 1.227 . S
O415 C414 1.227 . S
N416 Co402 2.140 . S
N416 C419 1.346 . S
N416 C420 1.345 . S
C417 C418 1.387 . S
C417 C421 1.391 . S
C418 C417 1.387 . S
C418 C419 1.369 . S
C418 H427 0.929 . S
C419 N416 1.346 . S
C419 C418 1.369 . S
C419 H422 0.928 . S
C420 N416 1.345 . S
C420 C421 1.371 . S
C420 H423 0.931 . S
C421 C417 1.391 . S
C421 C420 1.371 . S
C421 H428 0.930 . S
H422 C419 0.928 . S
H423 C420 0.931 . S
H424 C400 0.930 . S
H425 C397 0.930 . S
H426 C406 0.930 . S
H427 C418 0.929 . S
H428 C421 0.930 . S
C429 C430 1.351 . S
C429 N432 1.368 . S
C429 H434 0.931 . S
C430 C429 1.351 . S
C430 N431 1.373 . S
C430 H458 0.930 . S
N431 C430 1.373 . S
N431 C433 1.340 . S
N432 C429 1.368 . S
N432 C433 1.321 . S
N432 Co435 2.135 . S
C433 N431 1.340 . S
C433 N432 1.321 . S
C433 H457 0.930 . S
H434 C429 0.931 . S
Co435 N432 2.135 . S
Co435 N438 2.121 . S
Co435 O443 2.055 . S
Co435 O446 2.039 . S
Co435 N449 2.140 . S
C436 O437 1.227 . S
C436 O446 1.265 . S
O437 C436 1.227 . S
N438 Co435 2.121 . S
N438 C440 1.375 . S
N438 C441 1.313 . S
C439 C440 1.338 . S
C439 N442 1.377 . S
C439 H459 0.930 . S
C440 N438 1.375 . S
C440 C439 1.338 . S
C440 H444 0.931 . S
C441 N438 1.313 . S
C441 N442 1.344 . S
C441 H445 0.930 . S
N442 C439 1.377 . S
N442 C441 1.344 . S
O443 Co435 2.055 . S
O443 C447 1.253 . S
H444 C440 0.931 . S
H445 C441 0.930 . S
O446 Co435 2.039 . S
O446 C436 1.265 . S
C447 O443 1.253 . S
C447 O448 1.227 . S
O448 C447 1.227 . S
N449 Co435 2.140 . S
N449 C452 1.346 . S
N449 C453 1.345 . S
C450 C451 1.387 . S
C450 C454 1.391 . S
C451 C450 1.387 . S
C451 C452 1.369 . S
C451 H460 0.929 . S
C452 N449 1.346 . S
C452 C451 1.369 . S
C452 H455 0.928 . S
C453 N449 1.345 . S
C453 C454 1.371 . S
C453 H456 0.931 . S
C454 C450 1.391 . S
C454 C453 1.371 . S
C454 H461 0.930 . S
H455 C452 0.928 . S
H456 C453 0.931 . S
H457 C433 0.930 . S
H458 C430 0.930 . S
H459 C439 0.930 . S
H460 C451 0.929 . S
H461 C454 0.930 . S
C462 C463 1.351 . S
C462 N465 1.368 . S
C462 H467 0.931 . S
C463 C462 1.351 . S
C463 N464 1.373 . S
C463 H491 0.930 . S
N464 C463 1.373 . S
N464 C466 1.340 . S
N465 C462 1.368 . S
N465 C466 1.321 . S
N465 Co468 2.135 . S
C466 N464 1.340 . S
C466 N465 1.321 . S
C466 H490 0.930 . S
H467 C462 0.931 . S
Co468 N465 2.135 . S
Co468 N471 2.121 . S
Co468 O476 2.055 . S
Co468 O479 2.039 . S
Co468 N482 2.140 . S
C469 O470 1.227 . S
C469 O479 1.265 . S
O470 C469 1.227 . S
N471 Co468 2.121 . S
N471 C473 1.375 . S
N471 C474 1.313 . S
C472 C473 1.338 . S
C472 N475 1.377 . S
C472 H492 0.930 . S
C473 N471 1.375 . S
C473 C472 1.338 . S
C473 H477 0.931 . S
C474 N471 1.313 . S
C474 N475 1.344 . S
C474 H478 0.930 . S
N475 C472 1.377 . S
N475 C474 1.344 . S
O476 Co468 2.055 . S
O476 C480 1.253 . S
H477 C473 0.931 . S
H478 C474 0.930 . S
O479 Co468 2.039 . S
O479 C469 1.265 . S
C480 O476 1.253 . S
C480 O481 1.227 . S
O481 C480 1.227 . S
N482 Co468 2.140 . S
N482 C485 1.346 . S
N482 C486 1.345 . S
C483 C484 1.387 . S
C483 C487 1.391 . S
C484 C483 1.387 . S
C484 C485 1.369 . S
C484 H493 0.929 . S
C485 N482 1.346 . S
C485 C484 1.369 . S
C485 H488 0.928 . S
C486 N482 1.345 . S
C486 C487 1.371 . S
C486 H489 0.931 . S
C487 C483 1.391 . S
C487 C486 1.371 . S
C487 H494 0.930 . S
H488 C485 0.928 . S
H489 C486 0.931 . S
H490 C466 0.930 . S
H491 C463 0.930 . S
H492 C472 0.930 . S
H493 C484 0.929 . S
H494 C487 0.930 . S
C495 C496 1.351 . S
C495 N498 1.368 . S
C495 H500 0.931 . S
C496 C495 1.351 . S
C496 N497 1.373 . S
C496 H524 0.930 . S
N497 C496 1.373 . S
N497 C499 1.340 . S
N498 C495 1.368 . S
N498 C499 1.321 . S
N498 Co501 2.135 . S
C499 N497 1.340 . S
C499 N498 1.321 . S
C499 H523 0.930 . S
H500 C495 0.931 . S
Co501 N498 2.135 . S
Co501 N504 2.121 . S
Co501 O509 2.055 . S
Co501 O512 2.039 . S
Co501 N515 2.140 . S
C502 O503 1.227 . S
C502 O512 1.265 . S
O503 C502 1.227 . S
N504 Co501 2.121 . S
N504 C506 1.375 . S
N504 C507 1.313 . S
C505 C506 1.338 . S
C505 N508 1.377 . S
C505 H525 0.930 . S
C506 N504 1.375 . S
C506 C505 1.338 . S
C506 H510 0.931 . S
C507 N504 1.313 . S
C507 N508 1.344 . S
C507 H511 0.930 . S
N508 C505 1.377 . S
N508 C507 1.344 . S
O509 Co501 2.055 . S
O509 C513 1.253 . S
H510 C506 0.931 . S
H511 C507 0.930 . S
O512 Co501 2.039 . S
O512 C502 1.265 . S
C513 O509 1.253 . S
C513 O514 1.227 . S
O514 C513 1.227 . S
N515 Co501 2.140 . S
N515 C518 1.346 . S
N515 C519 1.345 . S
C516 C517 1.387 . S
C516 C520 1.391 . S
C517 C516 1.387 . S
C517 C518 1.369 . S
C517 H526 0.929 . S
C518 N515 1.346 . S
C518 C517 1.369 . S
C518 H521 0.928 . S
C519 N515 1.345 . S
C519 C520 1.371 . S
C519 H522 0.931 . S
C520 C516 1.391 . S
C520 C519 1.371 . S
C520 H527 0.930 . S
H521 C518 0.928 . S
H522 C519 0.931 . S
H523 C499 0.930 . S
H524 C496 0.930 . S
H525 C505 0.930 . S
H526 C517 0.929 . S
H527 C520 0.930 . S
H528 C534 0.930 . S
H529 C537 0.930 . S
H530 C538 0.930 . S
H531 C539 0.930 . S
H532 C542 0.930 . S
H533 C543 0.930 . S
C534 H528 0.930 . S
C534 C535 1.355 . S
C534 C536 1.415 . S
C535 C534 1.355 . S
C535 C537 1.419 . S
C536 C534 1.415 . S
C536 C541 1.425 . S
C536 C543 1.409 . S
C537 H529 0.930 . S
C537 C535 1.419 . S
C537 C538 1.362 . S
C538 H530 0.930 . S
C538 C537 1.362 . S
C538 C541 1.409 . S
C539 H531 0.930 . S
C539 C540 1.355 . S
C539 C541 1.415 . S
C540 C539 1.355 . S
C540 C542 1.419 . S
C541 C536 1.425 . S
C541 C538 1.409 . S
C541 C539 1.415 . S
C542 H532 0.930 . S
C542 C540 1.419 . S
C542 C543 1.362 . S
C543 H533 0.930 . S
C543 C536 1.409 . S
C543 C542 1.362 . S
H544 C550 0.930 . S
H545 C553 0.930 . S
H546 C554 0.930 . S
H547 C555 0.930 . S
H548 C558 0.930 . S
H549 C559 0.930 . S
C550 H544 0.930 . S
C550 C551 1.355 . S
C550 C552 1.415 . S
C551 C550 1.355 . S
C551 C553 1.419 . S
C552 C550 1.415 . S
C552 C557 1.425 . S
C552 C559 1.409 . S
C553 H545 0.930 . S
C553 C551 1.419 . S
C553 C554 1.362 . S
C554 H546 0.930 . S
C554 C553 1.362 . S
C554 C557 1.409 . S
C555 H547 0.930 . S
C555 C556 1.355 . S
C555 C557 1.415 . S
C556 C555 1.355 . S
C556 C558 1.419 . S
C557 C552 1.425 . S
C557 C554 1.409 . S
C557 C555 1.415 . S
C558 H548 0.930 . S
C558 C556 1.419 . S
C558 C559 1.362 . S
C559 H549 0.930 . S
C559 C552 1.409 . S
C559 C558 1.362 . S
H560 C566 0.930 . S
H561 C569 0.930 1_565 S
H562 C570 0.930 . S
H563 C571 0.930 . S
H564 C574 0.930 . S
H565 C575 0.930 . S
C566 H560 0.930 . S
C566 C567 1.355 . S
C566 C568 1.415 . S
C567 C566 1.355 . S
C567 C569 1.419 . S
C568 C566 1.415 . S
C568 C573 1.425 . S
C568 C575 1.409 . S
C569 H561 0.930 1_545 S
C569 C567 1.419 . S
C569 C570 1.362 . S
C570 H562 0.930 . S
C570 C569 1.362 . S
C570 C573 1.409 . S
C571 H563 0.930 . S
C571 C572 1.355 . S
C571 C573 1.415 . S
C572 C571 1.355 . S
C572 C574 1.419 . S
C573 C568 1.425 . S
C573 C570 1.409 . S
C573 C571 1.415 . S
C574 H564 0.930 . S
C574 C572 1.419 . S
C574 C575 1.362 . S
C575 H565 0.930 . S
C575 C568 1.409 . S
C575 C574 1.362 . S
H576 C582 0.930 . S
H577 C585 0.930 . S
H578 C586 0.930 . S
H579 C587 0.930 . S
H580 C590 0.930 . S
H581 C591 0.930 . S
C582 H576 0.930 . S
C582 C583 1.355 . S
C582 C584 1.415 . S
C583 C582 1.355 . S
C583 C585 1.419 . S
C584 C582 1.415 . S
C584 C589 1.425 . S
C584 C591 1.409 . S
C585 H577 0.930 . S
C585 C583 1.419 . S
C585 C586 1.362 . S
C586 H578 0.930 . S
C586 C585 1.362 . S
C586 C589 1.409 . S
C587 H579 0.930 . S
C587 C588 1.355 . S
C587 C589 1.415 . S
C588 C587 1.355 . S
C588 C590 1.419 . S
C589 C584 1.425 . S
C589 C586 1.409 . S
C589 C587 1.415 . S
C590 H580 0.930 . S
C590 C588 1.419 . S
C590 C591 1.362 . S
C591 H581 0.930 . S
C591 C584 1.409 . S
C591 C590 1.362 . S
H592 C598 0.930 . S
H593 C601 0.930 1_565 S
H594 C602 0.930 . S
H595 C603 0.930 . S
H596 C606 0.930 . S
H597 C607 0.930 . S
C598 H592 0.930 . S
C598 C599 1.355 . S
C598 C600 1.415 . S
C599 C598 1.355 . S
C599 C601 1.419 . S
C600 C598 1.415 . S
C600 C605 1.425 . S
C600 C607 1.409 . S
C601 H593 0.930 1_545 S
C601 C599 1.419 . S
C601 C602 1.362 . S
C602 H594 0.930 . S
C602 C601 1.362 . S
C602 C605 1.409 . S
C603 H595 0.930 . S
C603 C604 1.355 . S
C603 C605 1.415 . S
C604 C603 1.355 . S
C604 C606 1.419 . S
C605 C600 1.425 . S
C605 C602 1.409 . S
C605 C603 1.415 . S
C606 H596 0.930 . S
C606 C604 1.419 . S
C606 C607 1.362 . S
C607 H597 0.930 . S
C607 C600 1.409 . S
C607 C606 1.362 . S
H608 C614 0.930 . S
H609 C617 0.930 . S
H610 C618 0.930 . S
H611 C619 0.930 . S
H612 C622 0.930 . S
H613 C623 0.930 . S
C614 H608 0.930 . S
C614 C615 1.355 . S
C614 C616 1.415 . S
C615 C614 1.355 . S
C615 C617 1.419 . S
C616 C614 1.415 . S
C616 C621 1.425 . S
C616 C623 1.409 . S
C617 H609 0.930 . S
C617 C615 1.419 . S
C617 C618 1.362 . S
C618 H610 0.930 . S
C618 C617 1.362 . S
C618 C621 1.409 . S
C619 H611 0.930 . S
C619 C620 1.355 . S
C619 C621 1.415 . S
C620 C619 1.355 . S
C620 C622 1.419 . S
C621 C616 1.425 . S
C621 C618 1.409 . S
C621 C619 1.415 . S
C622 H612 0.930 . S
C622 C620 1.419 . S
C622 C623 1.362 . S
C623 H613 0.930 . S
C623 C616 1.409 . S
C623 C622 1.362 . S
H624 C630 0.930 . S
H625 C633 0.930 . S
H626 C634 0.930 . S
H627 C635 0.930 . S
H628 C638 0.930 . S
H629 C639 0.930 . S
C630 H624 0.930 . S
C630 C631 1.355 . S
C630 C632 1.415 . S
C631 C630 1.355 . S
C631 C633 1.419 . S
C632 C630 1.415 . S
C632 C637 1.425 . S
C632 C639 1.409 . S
C633 H625 0.930 . S
C633 C631 1.419 . S
C633 C634 1.362 . S
C634 H626 0.930 . S
C634 C633 1.362 . S
C634 C637 1.409 . S
C635 H627 0.930 . S
C635 C636 1.355 . S
C635 C637 1.415 . S
C636 C635 1.355 . S
C636 C638 1.419 . S
C637 C632 1.425 . S
C637 C634 1.409 . S
C637 C635 1.415 . S
C638 H628 0.930 . S
C638 C636 1.419 . S
C638 C639 1.362 . S
C639 H629 0.930 . S
C639 C632 1.409 . S
C639 C638 1.362 . S
H640 C646 0.930 . S
H641 C649 0.930 . S
H642 C650 0.930 . S
H643 C651 0.930 . S
H644 C654 0.930 . S
H645 C655 0.930 . S
C646 H640 0.930 . S
C646 C647 1.355 . S
C646 C648 1.415 . S
C647 C646 1.355 . S
C647 C649 1.419 . S
C648 C646 1.415 . S
C648 C653 1.425 . S
C648 C655 1.409 . S
C649 H641 0.930 . S
C649 C647 1.419 . S
C649 C650 1.362 . S
C650 H642 0.930 . S
C650 C649 1.362 . S
C650 C653 1.409 . S
C651 H643 0.930 . S
C651 C652 1.355 . S
C651 C653 1.415 . S
C652 C651 1.355 . S
C652 C654 1.419 . S
C653 C648 1.425 . S
C653 C650 1.409 . S
C653 C651 1.415 . S
C654 H644 0.930 . S
C654 C652 1.419 . S
C654 C655 1.362 . S
C655 H645 0.930 . S
C655 C648 1.409 . S
C655 C654 1.362 . S
H656 C662 0.930 . S
H657 C665 0.930 . S
H658 C666 0.930 . S
H659 C667 0.930 . S
H660 C670 0.930 . S
H661 C671 0.930 . S
C662 H656 0.930 . S
C662 C663 1.355 . S
C662 C664 1.415 . S
C663 C662 1.355 . S
C663 C665 1.419 . S
C664 C662 1.415 . S
C664 C669 1.425 . S
C664 C671 1.409 . S
C665 H657 0.930 . S
C665 C663 1.419 . S
C665 C666 1.362 . S
C666 H658 0.930 . S
C666 C665 1.362 . S
C666 C669 1.409 . S
C667 H659 0.930 . S
C667 C668 1.355 . S
C667 C669 1.415 . S
C668 C667 1.355 . S
C668 C670 1.419 . S
C669 C664 1.425 . S
C669 C666 1.409 . S
C669 C667 1.415 . S
C670 H660 0.930 . S
C670 C668 1.419 . S
C670 C671 1.362 . S
C671 H661 0.930 . S
C671 C664 1.409 . S
C671 C670 1.362 . S
H672 C678 0.930 . S
H673 C681 0.930 . S
H674 C682 0.930 . S
H675 C683 0.930 . S
H676 C686 0.930 1_565 S
H677 C687 0.930 . S
C678 H672 0.930 . S
C678 C679 1.355 . S
C678 C680 1.415 . S
C679 C678 1.355 . S
C679 C681 1.419 . S
C680 C678 1.415 . S
C680 C685 1.425 . S
C680 C687 1.409 . S
C681 H673 0.930 . S
C681 C679 1.419 . S
C681 C682 1.362 . S
C682 H674 0.930 . S
C682 C681 1.362 . S
C682 C685 1.409 . S
C683 H675 0.930 . S
C683 C684 1.355 . S
C683 C685 1.415 . S
C684 C683 1.355 . S
C684 C686 1.419 . S
C685 C680 1.425 . S
C685 C682 1.409 . S
C685 C683 1.415 . S
C686 H676 0.930 1_545 S
C686 C684 1.419 . S
C686 C687 1.362 . S
C687 H677 0.930 . S
C687 C680 1.409 . S
C687 C686 1.362 . S
H688 C694 0.930 . S
H689 C697 0.930 . S
H690 C698 0.930 . S
H691 C699 0.930 . S
H692 C702 0.930 . S
H693 C703 0.930 . S
C694 H688 0.930 . S
C694 C695 1.355 . S
C694 C696 1.415 . S
C695 C694 1.355 . S
C695 C697 1.419 . S
C696 C694 1.415 . S
C696 C701 1.425 . S
C696 C703 1.409 . S
C697 H689 0.930 . S
C697 C695 1.419 . S
C697 C698 1.362 . S
C698 H690 0.930 . S
C698 C697 1.362 . S
C698 C701 1.409 . S
C699 H691 0.930 . S
C699 C700 1.355 . S
C699 C701 1.415 . S
C700 C699 1.355 . S
C700 C702 1.419 . S
C701 C696 1.425 . S
C701 C698 1.409 . S
C701 C699 1.415 . S
C702 H692 0.930 . S
C702 C700 1.419 . S
C702 C703 1.362 . S
C703 H693 0.930 . S
C703 C696 1.409 . S
C703 C702 1.362 . S
H704 C710 0.930 . S
H705 C713 0.930 1_545 S
H706 C714 0.930 . S
H707 C715 0.930 . S
H708 C718 0.930 . S
H709 C719 0.930 . S
C710 H704 0.930 . S
C710 C711 1.355 . S
C710 C712 1.415 . S
C711 C710 1.355 . S
C711 C713 1.419 . S
C712 C710 1.415 . S
C712 C717 1.425 . S
C712 C719 1.409 . S
C713 H705 0.930 1_565 S
C713 C711 1.419 . S
C713 C714 1.362 . S
C714 H706 0.930 . S
C714 C713 1.362 . S
C714 C717 1.409 . S
C715 H707 0.930 . S
C715 C716 1.355 . S
C715 C717 1.415 . S
C716 C715 1.355 . S
C716 C718 1.419 . S
C717 C712 1.425 . S
C717 C714 1.409 . S
C717 C715 1.415 . S
C718 H708 0.930 . S
C718 C716 1.419 . S
C718 C719 1.362 . S
C719 H709 0.930 . S
C719 C712 1.409 . S
C719 C718 1.362 . S
H720 C726 0.930 . S
H721 C729 0.930 . S
H722 C730 0.930 . S
H723 C731 0.930 . S
H724 C734 0.930 . S
H725 C735 0.930 . S
C726 H720 0.930 . S
C726 C727 1.355 . S
C726 C728 1.415 . S
C727 C726 1.355 . S
C727 C729 1.419 . S
C728 C726 1.415 . S
C728 C733 1.425 . S
C728 C735 1.409 . S
C729 H721 0.930 . S
C729 C727 1.419 . S
C729 C730 1.362 . S
C730 H722 0.930 . S
C730 C729 1.362 . S
C730 C733 1.409 . S
C731 H723 0.930 . S
C731 C732 1.355 . S
C731 C733 1.415 . S
C732 C731 1.355 . S
C732 C734 1.419 . S
C733 C728 1.425 . S
C733 C730 1.409 . S
C733 C731 1.415 . S
C734 H724 0.930 . S
C734 C732 1.419 . S
C734 C735 1.362 . S
C735 H725 0.930 . S
C735 C728 1.409 . S
C735 C734 1.362 . S
H736 C742 0.930 . S
H737 C745 0.930 1_545 S
H738 C746 0.930 . S
H739 C747 0.930 . S
H740 C750 0.930 . S
H741 C751 0.930 . S
C742 H736 0.930 . S
C742 C743 1.355 . S
C742 C744 1.415 . S
C743 C742 1.355 . S
C743 C745 1.419 . S
C744 C742 1.415 . S
C744 C749 1.425 . S
C744 C751 1.409 . S
C745 H737 0.930 1_565 S
C745 C743 1.419 . S
C745 C746 1.362 . S
C746 H738 0.930 . S
C746 C745 1.362 . S
C746 C749 1.409 . S
C747 H739 0.930 . S
C747 C748 1.355 . S
C747 C749 1.415 . S
C748 C747 1.355 . S
C748 C750 1.419 . S
C749 C744 1.425 . S
C749 C746 1.409 . S
C749 C747 1.415 . S
C750 H740 0.930 . S
C750 C748 1.419 . S
C750 C751 1.362 . S
C751 H741 0.930 . S
C751 C744 1.409 . S
C751 C750 1.362 . S
H752 C758 0.930 . S
H753 C761 0.930 . S
H754 C762 0.930 . S
H755 C763 0.930 . S
H756 C766 0.930 . S
H757 C767 0.930 . S
C758 H752 0.930 . S
C758 C759 1.355 . S
C758 C760 1.415 . S
C759 C758 1.355 . S
C759 C761 1.419 . S
C760 C758 1.415 . S
C760 C765 1.425 . S
C760 C767 1.409 . S
C761 H753 0.930 . S
C761 C759 1.419 . S
C761 C762 1.362 . S
C762 H754 0.930 . S
C762 C761 1.362 . S
C762 C765 1.409 . S
C763 H755 0.930 . S
C763 C764 1.355 . S
C763 C765 1.415 . S
C764 C763 1.355 . S
C764 C766 1.419 . S
C765 C760 1.425 . S
C765 C762 1.409 . S
C765 C763 1.415 . S
C766 H756 0.930 . S
C766 C764 1.419 . S
C766 C767 1.362 . S
C767 H757 0.930 . S
C767 C760 1.409 . S
C767 C766 1.362 . S
H768 C774 0.930 . S
H769 C777 0.930 . S
H770 C778 0.930 . S
H771 C779 0.930 . S
H772 C782 0.930 1_565 S
H773 C783 0.930 . S
C774 H768 0.930 . S
C774 C775 1.355 . S
C774 C776 1.415 . S
C775 C774 1.355 . S
C775 C777 1.419 . S
C776 C774 1.415 . S
C776 C781 1.425 . S
C776 C783 1.409 . S
C777 H769 0.930 . S
C777 C775 1.419 . S
C777 C778 1.362 . S
C778 H770 0.930 . S
C778 C777 1.362 . S
C778 C781 1.409 . S
C779 H771 0.930 . S
C779 C780 1.355 . S
C779 C781 1.415 . S
C780 C779 1.355 . S
C780 C782 1.419 . S
C781 C776 1.425 . S
C781 C778 1.409 . S
C781 C779 1.415 . S
C782 H772 0.930 1_545 S
C782 C780 1.419 . S
C782 C783 1.362 . S
C783 H773 0.930 . S
C783 C776 1.409 . S
C783 C782 1.362 . S
H784 C790 0.930 . S
H785 C793 0.930 . S
H786 C794 0.930 . S
H787 C795 0.930 . S
H788 C798 0.930 . S
H789 C799 0.930 . S
C790 H784 0.930 . S
C790 C791 1.355 . S
C790 C792 1.415 . S
C791 C790 1.355 . S
C791 C793 1.419 . S
C792 C790 1.415 . S
C792 C797 1.425 1_554 S
C792 C799 1.409 . S
C793 H785 0.930 . S
C793 C791 1.419 . S
C793 C794 1.362 1_554 S
C794 H786 0.930 . S
C794 C793 1.362 1_556 S
C794 C797 1.409 . S
C795 H787 0.930 . S
C795 C796 1.355 . S
C795 C797 1.415 . S
C796 C795 1.355 . S
C796 C798 1.419 . S
C797 C792 1.425 1_556 S
C797 C794 1.409 . S
C797 C795 1.415 . S
C798 H788 0.930 . S
C798 C796 1.419 . S
C798 C799 1.362 1_556 S
C799 H789 0.930 . S
C799 C792 1.409 . S
C799 C798 1.362 1_554 S
H800 C806 0.930 . S
H801 C809 0.930 . S
H802 C810 0.930 . S
H803 C811 0.930 . S
H804 C814 0.930 . S
H805 C815 0.930 . S
C806 H800 0.930 . S
C806 C807 1.355 . S
C806 C808 1.415 . S
C807 C806 1.355 . S
C807 C809 1.419 . S
C808 C806 1.415 . S
C808 C813 1.425 1_556 S
C808 C815 1.409 . S
C809 H801 0.930 . S
C809 C807 1.419 . S
C809 C810 1.362 1_556 S
C810 H802 0.930 . S
C810 C809 1.362 1_554 S
C810 C813 1.409 . S
C811 H803 0.930 . S
C811 C812 1.355 . S
C811 C813 1.415 . S
C812 C811 1.355 . S
C812 C814 1.419 . S
C813 C808 1.425 1_554 S
C813 C810 1.409 . S
C813 C811 1.415 . S
C814 H804 0.930 . S
C814 C812 1.419 . S
C814 C815 1.362 1_554 S
C815 H805 0.930 . S
C815 C808 1.409 . S
C815 C814 1.362 1_556 S
H816 C822 0.930 . S
H817 C825 0.930 . S
H818 C826 0.930 . S
H819 C827 0.930 . S
H820 C830 0.930 . S
H821 C831 0.930 . S
C822 H816 0.930 . S
C822 C823 1.355 . S
C822 C824 1.415 . S
C823 C822 1.355 . S
C823 C825 1.419 . S
C824 C822 1.415 . S
C824 C829 1.425 . S
C824 C831 1.409 . S
C825 H817 0.930 . S
C825 C823 1.419 . S
C825 C826 1.362 . S
C826 H818 0.930 . S
C826 C825 1.362 . S
C826 C829 1.409 . S
C827 H819 0.930 . S
C827 C828 1.355 . S
C827 C829 1.415 . S
C828 C827 1.355 . S
C828 C830 1.419 . S
C829 C824 1.425 . S
C829 C826 1.409 . S
C829 C827 1.415 . S
C830 H820 0.930 . S
C830 C828 1.419 . S
C830 C831 1.362 . S
C831 H821 0.930 . S
C831 C824 1.409 . S
C831 C830 1.362 . S
H832 C838 0.930 . S
H833 C841 0.930 . S
H834 C842 0.930 . S
H835 C843 0.930 . S
H836 C846 0.930 . S
H837 C847 0.930 . S
C838 H832 0.930 . S
C838 C839 1.355 . S
C838 C840 1.415 . S
C839 C838 1.355 . S
C839 C841 1.419 . S
C840 C838 1.415 . S
C840 C845 1.425 . S
C840 C847 1.409 . S
C841 H833 0.930 . S
C841 C839 1.419 . S
C841 C842 1.362 . S
C842 H834 0.930 . S
C842 C841 1.362 . S
C842 C845 1.409 . S
C843 H835 0.930 . S
C843 C844 1.355 . S
C843 C845 1.415 . S
C844 C843 1.355 . S
C844 C846 1.419 . S
C845 C840 1.425 . S
C845 C842 1.409 . S
C845 C843 1.415 . S
C846 H836 0.930 . S
C846 C844 1.419 . S
C846 C847 1.362 . S
C847 H837 0.930 . S
C847 C840 1.409 . S
C847 C846 1.362 . S
H848 C854 0.930 . S
H849 C857 0.930 . S
H850 C858 0.930 . S
H851 C859 0.930 . S
H852 C862 0.930 . S
H853 C863 0.930 . S
C854 H848 0.930 . S
C854 C855 1.355 . S
C854 C856 1.415 1_556 S
C855 C854 1.355 . S
C855 C857 1.419 . S
C856 C854 1.415 1_554 S
C856 C861 1.425 1_554 S
C856 C863 1.409 . S
C857 H849 0.930 . S
C857 C855 1.419 . S
C857 C858 1.362 . S
C858 H850 0.930 . S
C858 C857 1.362 . S
C858 C861 1.409 . S
C859 H851 0.930 . S
C859 C860 1.355 . S
C859 C861 1.415 1_554 S
C860 C859 1.355 . S
C860 C862 1.419 . S
C861 C856 1.425 1_556 S
C861 C858 1.409 . S
C861 C859 1.415 1_556 S
C862 H852 0.930 . S
C862 C860 1.419 . S
C862 C863 1.362 . S
C863 H853 0.930 . S
C863 C856 1.409 . S
C863 C862 1.362 . S
H864 C870 0.930 . S
H865 C873 0.930 . S
H866 C874 0.930 . S
H867 C875 0.930 . S
H868 C878 0.930 . S
H869 C879 0.930 . S
C870 H864 0.930 . S
C870 C871 1.355 . S
C870 C872 1.415 . S
C871 C870 1.355 . S
C871 C873 1.419 . S
C872 C870 1.415 . S
C872 C877 1.425 1_554 S
C872 C879 1.409 1_554 S
C873 H865 0.930 . S
C873 C871 1.419 . S
C873 C874 1.362 . S
C874 H866 0.930 . S
C874 C873 1.362 . S
C874 C877 1.409 1_554 S
C875 H867 0.930 . S
C875 C876 1.355 . S
C875 C877 1.415 . S
C876 C875 1.355 . S
C876 C878 1.419 . S
C877 C872 1.425 1_556 S
C877 C874 1.409 1_556 S
C877 C875 1.415 . S
C878 H868 0.930 . S
C878 C876 1.419 . S
C878 C879 1.362 . S
C879 H869 0.930 . S
C879 C872 1.409 1_556 S
C879 C878 1.362 . S
H880 C886 0.930 . S
H881 C889 0.930 . S
H882 C890 0.930 . S
H883 C891 0.930 . S
H884 C894 0.930 . S
H885 C895 0.930 . S
C886 H880 0.930 . S
C886 C887 1.355 . S
C886 C888 1.415 . S
C887 C886 1.355 . S
C887 C889 1.419 . S
C888 C886 1.415 . S
C888 C893 1.425 . S
C888 C895 1.409 . S
C889 H881 0.930 . S
C889 C887 1.419 . S
C889 C890 1.362 . S
C890 H882 0.930 . S
C890 C889 1.362 . S
C890 C893 1.409 . S
C891 H883 0.930 . S
C891 C892 1.355 . S
C891 C893 1.415 . S
C892 C891 1.355 . S
C892 C894 1.419 . S
C893 C888 1.425 . S
C893 C890 1.409 . S
C893 C891 1.415 . S
C894 H884 0.930 . S
C894 C892 1.419 . S
C894 C895 1.362 . S
C895 H885 0.930 . S
C895 C888 1.409 . S
C895 C894 1.362 . S
H896 C902 0.930 . S
H897 C905 0.930 . S
H898 C906 0.930 . S
H899 C907 0.930 . S
H900 C910 0.930 . S
H901 C911 0.930 . S
C902 H896 0.930 . S
C902 C903 1.355 . S
C902 C904 1.415 . S
C903 C902 1.355 . S
C903 C905 1.419 . S
C904 C902 1.415 . S
C904 C909 1.425 . S
C904 C911 1.409 . S
C905 H897 0.930 . S
C905 C903 1.419 . S
C905 C906 1.362 . S
C906 H898 0.930 . S
C906 C905 1.362 . S
C906 C909 1.409 . S
C907 H899 0.930 . S
C907 C908 1.355 . S
C907 C909 1.415 . S
C908 C907 1.355 . S
C908 C910 1.419 . S
C909 C904 1.425 . S
C909 C906 1.409 . S
C909 C907 1.415 . S
C910 H900 0.930 . S
C910 C908 1.419 . S
C910 C911 1.362 . S
C911 H901 0.930 . S
C911 C904 1.409 . S
C911 C910 1.362 . S
H912 C918 0.930 . S
H913 C921 0.930 . S
H914 C922 0.930 . S
H915 C923 0.930 . S
H916 C926 0.930 . S
H917 C927 0.930 . S
C918 H912 0.930 . S
C918 C919 1.355 . S
C918 C920 1.415 . S
C919 C918 1.355 . S
C919 C921 1.419 . S
C920 C918 1.415 . S
C920 C925 1.425 1_545 S
C920 C927 1.409 1_545 S
C921 H913 0.930 . S
C921 C919 1.419 . S
C921 C922 1.362 . S
C922 H914 0.930 . S
C922 C921 1.362 . S
C922 C925 1.409 1_545 S
C923 H915 0.930 . S
C923 C924 1.355 . S
C923 C925 1.415 . S
C924 C923 1.355 . S
C924 C926 1.419 . S
C925 C920 1.425 1_565 S
C925 C922 1.409 1_565 S
C925 C923 1.415 . S
C926 H916 0.930 . S
C926 C924 1.419 . S
C926 C927 1.362 . S
C927 H917 0.930 . S
C927 C920 1.409 1_565 S
C927 C926 1.362 . S
H928 C934 0.930 . S
H929 C937 0.930 . S
H930 C938 0.930 . S
H931 C939 0.930 . S
H932 C942 0.930 . S
H933 C943 0.930 . S
C934 H928 0.930 . S
C934 C935 1.355 . S
C934 C936 1.415 . S
C935 C934 1.355 . S
C935 C937 1.419 . S
C936 C934 1.415 . S
C936 C941 1.425 . S
C936 C943 1.409 . S
C937 H929 0.930 . S
C937 C935 1.419 . S
C937 C938 1.362 . S
C938 H930 0.930 . S
C938 C937 1.362 . S
C938 C941 1.409 . S
C939 H931 0.930 . S
C939 C940 1.355 . S
C939 C941 1.415 . S
C940 C939 1.355 . S
C940 C942 1.419 . S
C941 C936 1.425 . S
C941 C938 1.409 . S
C941 C939 1.415 . S
C942 H932 0.930 . S
C942 C940 1.419 . S
C942 C943 1.362 . S
C943 H933 0.930 . S
C943 C936 1.409 . S
C943 C942 1.362 . S
H944 C950 0.938 . S
H945 C953 0.930 . S
H946 C954 0.930 . S
H947 C955 0.938 . S
H948 C958 0.930 . S
H949 C959 0.930 . S
C950 H944 0.938 . S
C950 C951 1.355 . S
C950 C952 1.415 1_565 S
C951 C950 1.355 . S
C951 C953 1.419 . S
C952 C950 1.415 1_545 S
C952 C957 1.425 1_545 S
C952 C959 1.409 . S
C953 H945 0.930 . S
C953 C951 1.419 . S
C953 C954 1.362 . S
C954 H946 0.930 . S
C954 C953 1.362 . S
C954 C957 1.409 . S
C955 H947 0.938 . S
C955 C956 1.355 . S
C955 C957 1.415 1_545 S
C956 C955 1.355 . S
C956 C958 1.419 . S
C957 C952 1.425 1_565 S
C957 C954 1.409 . S
C957 C955 1.415 1_565 S
C958 H948 0.930 . S
C958 C956 1.419 . S
C958 C959 1.362 . S
C959 H949 0.930 . S
C959 C952 1.409 . S
C959 C958 1.362 . S
H960 C966 0.930 . S
H961 C969 0.930 . S
H962 C970 0.930 . S
H963 C971 0.930 . S
H964 C974 0.930 . S
H965 C975 0.930 . S
C966 H960 0.930 . S
C966 C967 1.355 . S
C966 C968 1.415 . S
C967 C966 1.355 . S
C967 C969 1.419 . S
C968 C966 1.415 . S
C968 C973 1.425 . S
C968 C975 1.409 . S
C969 H961 0.930 . S
C969 C967 1.419 . S
C969 C970 1.362 . S
C970 H962 0.930 . S
C970 C969 1.362 . S
C970 C973 1.409 . S
C971 H963 0.930 . S
C971 C972 1.355 . S
C971 C973 1.415 . S
C972 C971 1.355 . S
C972 C974 1.419 . S
C973 C968 1.425 . S
C973 C970 1.409 . S
C973 C971 1.415 . S
C974 H964 0.930 . S
C974 C972 1.419 . S
C974 C975 1.362 . S
C975 H965 0.930 . S
C975 C968 1.409 . S
C975 C974 1.362 . S
H976 C982 0.930 . S
H977 C985 0.930 . S
H978 C986 0.930 . S
H979 C987 0.930 . S
H980 C990 0.930 . S
H981 C991 0.930 . S
C982 H976 0.930 . S
C982 C983 1.355 . S
C982 C984 1.415 . S
C983 C982 1.355 . S
C983 C985 1.419 . S
C984 C982 1.415 . S
C984 C989 1.425 . S
C984 C991 1.409 . S
C985 H977 0.930 . S
C985 C983 1.419 . S
C985 C986 1.362 . S
C986 H978 0.930 . S
C986 C985 1.362 . S
C986 C989 1.409 . S
C987 H979 0.930 . S
C987 C988 1.355 . S
C987 C989 1.415 . S
C988 C987 1.355 . S
C988 C990 1.419 . S
C989 C984 1.425 . S
C989 C986 1.409 . S
C989 C987 1.415 . S
C990 H980 0.930 . S
C990 C988 1.419 . S
C990 C991 1.362 . S
C991 H981 0.930 . S
C991 C984 1.409 . S
C991 C990 1.362 . S
H992 C998 0.930 . S
H993 C1001 0.930 . S
H994 C1002 0.930 . S
H995 C1003 0.930 . S
H996 C1006 0.930 . S
H997 C1007 0.930 . S
C998 H992 0.930 . S
C998 C999 1.355 . S
C998 C1000 1.415 . S
C999 C998 1.355 . S
C999 C1001 1.419 . S
C1000 C998 1.415 . S
C1000 C1005 1.425 1_545 S
C1000 C1007 1.409 . S
C1001 H993 0.930 . S
C1001 C999 1.419 . S
C1001 C1002 1.362 1_545 S
C1002 H994 0.930 . S
C1002 C1001 1.362 1_565 S
C1002 C1005 1.409 . S
C1003 H995 0.930 . S
C1003 C1004 1.355 . S
C1003 C1005 1.415 . S
C1004 C1003 1.355 . S
C1004 C1006 1.419 . S
C1005 C1000 1.425 1_565 S
C1005 C1002 1.409 . S
C1005 C1003 1.415 . S
C1006 H996 0.930 . S
C1006 C1004 1.419 . S
C1006 C1007 1.362 1_565 S
C1007 H997 0.930 . S
C1007 C1000 1.409 . S
C1007 C1006 1.362 1_545 S
H1008 C1014 0.930 . S
H1009 C1017 0.930 . S
H1010 C1018 0.930 . S
H1011 C1019 0.930 . S
H1012 C1022 0.930 . S
H1013 C1023 0.930 . S
C1014 H1008 0.930 . S
C1014 C1015 1.355 . S
C1014 C1016 1.415 . S
C1015 C1014 1.355 . S
C1015 C1017 1.419 . S
C1016 C1014 1.415 . S
C1016 C1021 1.425 . S
C1016 C1023 1.409 . S
C1017 H1009 0.930 . S
C1017 C1015 1.419 . S
C1017 C1018 1.362 . S
C1018 H1010 0.930 . S
C1018 C1017 1.362 . S
C1018 C1021 1.409 . S
C1019 H1011 0.930 . S
C1019 C1020 1.355 . S
C1019 C1021 1.415 . S
C1020 C1019 1.355 . S
C1020 C1022 1.419 . S
C1021 C1016 1.425 . S
C1021 C1018 1.409 . S
C1021 C1019 1.415 . S
C1022 H1012 0.930 . S
C1022 C1020 1.419 . S
C1022 C1023 1.362 . S
C1023 H1013 0.930 . S
C1023 C1016 1.409 . S
C1023 C1022 1.362 . S
H1024 C1030 0.930 . S
H1025 C1033 0.930 . S
H1026 C1034 0.930 . S
H1027 C1035 0.930 . S
H1028 C1038 0.930 . S
H1029 C1039 0.930 . S
C1030 H1024 0.930 . S
C1030 C1031 1.355 . S
C1030 C1032 1.415 . S
C1031 C1030 1.355 . S
C1031 C1033 1.419 . S
C1032 C1030 1.415 . S
C1032 C1037 1.425 1_545 S
C1032 C1039 1.409 . S
C1033 H1025 0.930 . S
C1033 C1031 1.419 . S
C1033 C1034 1.362 1_545 S
C1034 H1026 0.930 . S
C1034 C1033 1.362 1_565 S
C1034 C1037 1.409 . S
C1035 H1027 0.930 . S
C1035 C1036 1.355 . S
C1035 C1037 1.415 . S
C1036 C1035 1.355 . S
C1036 C1038 1.419 . S
C1037 C1032 1.425 1_565 S
C1037 C1034 1.409 . S
C1037 C1035 1.415 . S
C1038 H1028 0.930 . S
C1038 C1036 1.419 . S
C1038 C1039 1.362 1_565 S
C1039 H1029 0.930 . S
C1039 C1032 1.409 . S
C1039 C1038 1.362 1_545 S
H1040 C1046 0.930 . S
H1041 C1049 0.930 . S
H1042 C1050 0.930 . S
H1043 C1051 0.930 . S
H1044 C1054 0.930 . S
H1045 C1055 0.930 . S
C1046 H1040 0.930 . S
C1046 C1047 1.355 . S
C1046 C1048 1.415 . S
C1047 C1046 1.355 . S
C1047 C1049 1.419 . S
C1048 C1046 1.415 . S
C1048 C1053 1.425 . S
C1048 C1055 1.409 . S
C1049 H1041 0.930 . S
C1049 C1047 1.419 . S
C1049 C1050 1.362 . S
C1050 H1042 0.930 . S
C1050 C1049 1.362 . S
C1050 C1053 1.409 . S
C1051 H1043 0.930 . S
C1051 C1052 1.355 . S
C1051 C1053 1.415 . S
C1052 C1051 1.355 . S
C1052 C1054 1.419 . S
C1053 C1048 1.425 . S
C1053 C1050 1.409 . S
C1053 C1051 1.415 . S
C1054 H1044 0.930 . S
C1054 C1052 1.419 . S
C1054 C1055 1.362 . S
C1055 H1045 0.930 . S
C1055 C1048 1.409 . S
C1055 C1054 1.362 . S
H1056 C1062 0.930 . S
H1057 C1065 0.930 . S
H1058 C1066 0.930 . S
H1059 C1067 0.930 . S
H1060 C1070 0.930 . S
H1061 C1071 0.930 . S
C1062 H1056 0.930 . S
C1062 C1063 1.355 . S
C1062 C1064 1.415 . S
C1063 C1062 1.355 . S
C1063 C1065 1.419 . S
C1064 C1062 1.415 . S
C1064 C1069 1.425 . S
C1064 C1071 1.409 . S
C1065 H1057 0.930 . S
C1065 C1063 1.419 . S
C1065 C1066 1.362 . S
C1066 H1058 0.930 . S
C1066 C1065 1.362 . S
C1066 C1069 1.409 . S
C1067 H1059 0.930 . S
C1067 C1068 1.355 . S
C1067 C1069 1.415 . S
C1068 C1067 1.355 . S
C1068 C1070 1.419 . S
C1069 C1064 1.425 . S
C1069 C1066 1.409 . S
C1069 C1067 1.415 . S
C1070 H1060 0.930 . S
C1070 C1068 1.419 . S
C1070 C1071 1.362 . S
C1071 H1061 0.930 . S
C1071 C1064 1.409 . S
C1071 C1070 1.362 . S
H1072 C1078 0.930 . S
H1073 C1081 0.930 . S
H1074 C1082 0.930 . S
H1075 C1083 0.930 . S
H1076 C1086 0.930 . S
H1077 C1087 0.930 . S
C1078 H1072 0.930 . S
C1078 C1079 1.355 . S
C1078 C1080 1.415 . S
C1079 C1078 1.355 . S
C1079 C1081 1.419 . S
C1080 C1078 1.415 . S
C1080 C1085 1.425 . S
C1080 C1087 1.409 . S
C1081 H1073 0.930 . S
C1081 C1079 1.419 . S
C1081 C1082 1.362 . S
C1082 H1074 0.930 . S
C1082 C1081 1.362 . S
C1082 C1085 1.409 . S
C1083 H1075 0.930 . S
C1083 C1084 1.355 . S
C1083 C1085 1.415 . S
C1084 C1083 1.355 . S
C1084 C1086 1.419 . S
C1085 C1080 1.425 . S
C1085 C1082 1.409 . S
C1085 C1083 1.415 . S
C1086 H1076 0.930 . S
C1086 C1084 1.419 . S
C1086 C1087 1.362 . S
C1087 H1077 0.930 . S
C1087 C1080 1.409 . S
C1087 C1086 1.362 . S
H1088 C1094 0.930 . S
H1089 C1097 0.930 . S
H1090 C1098 0.930 . S
H1091 C1099 0.930 . S
H1092 C1102 0.930 . S
H1093 C1103 0.930 . S
C1094 H1088 0.930 . S
C1094 C1095 1.355 . S
C1094 C1096 1.415 . S
C1095 C1094 1.355 . S
C1095 C1097 1.419 . S
C1096 C1094 1.415 . S
C1096 C1101 1.425 . S
C1096 C1103 1.409 . S
C1097 H1089 0.930 . S
C1097 C1095 1.419 . S
C1097 C1098 1.362 . S
C1098 H1090 0.930 . S
C1098 C1097 1.362 . S
C1098 C1101 1.409 . S
C1099 H1091 0.930 . S
C1099 C1100 1.355 . S
C1099 C1101 1.415 . S
C1100 C1099 1.355 . S
C1100 C1102 1.419 . S
C1101 C1096 1.425 . S
C1101 C1098 1.409 . S
C1101 C1099 1.415 . S
C1102 H1092 0.930 . S
C1102 C1100 1.419 . S
C1102 C1103 1.362 . S
C1103 H1093 0.930 . S
C1103 C1096 1.409 . S
C1103 C1102 1.362 . S
H1104 C1110 0.930 . S
H1105 C1113 0.930 . S
H1106 C1114 0.930 . S
H1107 C1115 0.930 . S
H1108 C1118 0.930 . S
H1109 C1119 0.930 . S
C1110 H1104 0.930 . S
C1110 C1111 1.355 . S
C1110 C1112 1.415 1_655 S
C1111 C1110 1.355 . S
C1111 C1113 1.419 . S
C1112 C1110 1.415 1_455 S
C1112 C1117 1.425 1_455 S
C1112 C1119 1.409 . S
C1113 H1105 0.930 . S
C1113 C1111 1.419 . S
C1113 C1114 1.362 . S
C1114 H1106 0.930 . S
C1114 C1113 1.362 . S
C1114 C1117 1.409 . S
C1115 H1107 0.930 . S
C1115 C1116 1.355 . S
C1115 C1117 1.415 1_455 S
C1116 C1115 1.355 . S
C1116 C1118 1.419 . S
C1117 C1112 1.425 1_655 S
C1117 C1114 1.409 . S
C1117 C1115 1.415 1_655 S
C1118 H1108 0.930 . S
C1118 C1116 1.419 . S
C1118 C1119 1.362 . S
C1119 H1109 0.930 . S
C1119 C1112 1.409 . S
C1119 C1118 1.362 . S
H1120 C1126 0.930 . S
H1121 C1129 0.930 . S
H1122 C1130 0.930 . S
H1123 C1131 0.930 . S
H1124 C1134 0.930 . S
H1125 C1135 0.930 . S
C1126 H1120 0.930 . S
C1126 C1127 1.355 . S
C1126 C1128 1.415 1_455 S
C1127 C1126 1.355 . S
C1127 C1129 1.419 . S
C1128 C1126 1.415 1_655 S
C1128 C1133 1.425 1_655 S
C1128 C1135 1.409 . S
C1129 H1121 0.930 . S
C1129 C1127 1.419 . S
C1129 C1130 1.362 . S
C1130 H1122 0.930 . S
C1130 C1129 1.362 . S
C1130 C1133 1.409 . S
C1131 H1123 0.930 . S
C1131 C1132 1.355 . S
C1131 C1133 1.415 1_655 S
C1132 C1131 1.355 . S
C1132 C1134 1.419 . S
C1133 C1128 1.425 1_455 S
C1133 C1130 1.409 . S
C1133 C1131 1.415 1_455 S
C1134 H1124 0.930 . S
C1134 C1132 1.419 . S
C1134 C1135 1.362 . S
C1135 H1125 0.930 . S
C1135 C1128 1.409 . S
C1135 C1134 1.362 . S
H1136 C1142 0.930 . S
H1137 C1145 0.930 . S
H1138 C1146 0.930 1_655 S
H1139 C1147 0.930 . S
H1140 C1150 0.930 . S
H1141 C1151 0.930 1_455 S
C1142 H1136 0.930 . S
C1142 C1143 1.355 . S
C1142 C1144 1.415 . S
C1143 C1142 1.355 . S
C1143 C1145 1.419 . S
C1144 C1142 1.415 . S
C1144 C1149 1.425 1_455 S
C1144 C1151 1.409 1_455 S
C1145 H1137 0.930 . S
C1145 C1143 1.419 . S
C1145 C1146 1.362 . S
C1146 H1138 0.930 1_455 S
C1146 C1145 1.362 . S
C1146 C1149 1.409 1_455 S
C1147 H1139 0.930 . S
C1147 C1148 1.355 . S
C1147 C1149 1.415 . S
C1148 C1147 1.355 . S
C1148 C1150 1.419 . S
C1149 C1144 1.425 1_655 S
C1149 C1146 1.409 1_655 S
C1149 C1147 1.415 . S
C1150 H1140 0.930 . S
C1150 C1148 1.419 . S
C1150 C1151 1.362 . S
C1151 H1141 0.930 1_655 S
C1151 C1144 1.409 1_655 S
C1151 C1150 1.362 . S
H1152 C1158 0.930 . S
H1153 C1161 0.930 . S
H1154 C1162 0.930 . S
H1155 C1163 0.930 . S
H1156 C1166 0.930 . S
H1157 C1167 0.930 . S
C1158 H1152 0.930 . S
C1158 C1159 1.355 . S
C1158 C1160 1.415 1_655 S
C1159 C1158 1.355 . S
C1159 C1161 1.419 . S
C1160 C1158 1.415 1_455 S
C1160 C1165 1.425 1_455 S
C1160 C1167 1.409 . S
C1161 H1153 0.930 . S
C1161 C1159 1.419 . S
C1161 C1162 1.362 . S
C1162 H1154 0.930 . S
C1162 C1161 1.362 . S
C1162 C1165 1.409 . S
C1163 H1155 0.930 . S
C1163 C1164 1.355 . S
C1163 C1165 1.415 1_455 S
C1164 C1163 1.355 . S
C1164 C1166 1.419 . S
C1165 C1160 1.425 1_655 S
C1165 C1162 1.409 . S
C1165 C1163 1.415 1_655 S
C1166 H1156 0.930 . S
C1166 C1164 1.419 . S
C1166 C1167 1.362 . S
C1167 H1157 0.930 . S
C1167 C1160 1.409 . S
C1167 C1166 1.362 . S
C535 C18 0.866 1_565 S
C540 C469 0.876 . S
C551 C51 0.853 . S
C556 C502 0.811 . S
C567 C84 0.864 1_545 S
C572 C403 0.892 . S
C583 C436 0.819 . S
C588 C117 0.857 . S
C599 C150 0.855 1_545 S
C604 C337 0.842 . S
C615 C183 0.860 . S
C620 C370 0.873 . S
C631 C216 0.865 1_565 S
C636 C271 0.874 . S
C647 C304 0.897 . S
C652 C249 0.866 . S
C663 C282 0.861 . S
C668 C205 0.842 . S
C679 C238 0.878 . S
C684 C315 0.861 1_545 S
C695 C348 0.866 . S
C700 C139 0.897 . S
C711 C381 0.857 1_565 S
C716 C172 0.852 . S
C727 C414 0.857 . S
C732 C73 0.856 . S
C743 C447 0.864 1_565 S
C748 C106 0.893 . S
C759 C7 0.828 . S
C764 C480 0.859 . S
C775 C40 0.895 . S
C780 C513 0.865 1_545 S
C791 N2 1.669 . S
C796 N365 1.668 . S
C807 N332 1.672 . S
C812 N35 1.665 . S
C823 N68 1.625 . S
C828 N299 1.690 . S
C839 N266 1.631 . S
C844 N101 1.627 . S
C855 N134 1.632 . S
C860 N497 1.625 . S
C871 N464 1.617 . S
C876 N167 1.688 . S
C887 N200 1.688 . S
C892 N431 1.635 . S
C903 N233 1.671 . S
C908 N398 1.607 . S
C919 N13 1.825 . S
C924 N79 1.818 . S
C935 N46 1.822 . S
C940 N112 1.823 . S
C951 N145 1.821 . S
C956 N211 1.823 . S
C967 N244 1.825 . S
C972 N178 1.818 . S
C983 N343 1.817 . S
C988 N277 1.821 . S
C999 N376 1.816 . S
C1004 N310 1.822 . S
C1015 N409 1.824 . S
C1020 N475 1.820 . S
C1031 N442 1.816 . S
C1036 N508 1.823 . S
C1047 C54 1.605 . S
C1052 C21 1.603 . S
C1063 C87 1.604 . S
C1068 C120 1.597 . S
C1079 C153 1.561 . S
C1084 C186 1.569 . S
C1095 C252 1.570 . S
C1100 C219 1.561 . S
C1111 C285 1.559 . S
C1116 C318 1.562 . S
C1127 C384 1.559 . S
C1132 C351 1.560 . S
C1143 C417 1.600 . S
C1148 C450 1.590 . S
C1159 C516 1.560 . S
C1164 C483 1.559 . S
