# Generated by pormake.
# Topology hcp, (12)-cn, num edge types: 1
# Building blocks:
#     Node 0, Type 0, BuildingBlock: QEWDON_clean_sbu_0, # of connection points: 12
#     Node 1, Type 0, BuildingBlock: QEWDON_clean_sbu_0, # of connection points: 12
#     Edge 2, Type (0, 0), BuildingBlock: CIFDUS_clean_linker_0, # of connection points: 2
#     Edge 3, Type (0, 0), BuildingBlock: CIFDUS_clean_linker_0, # of connection points: 2
#     Edge 4, Type (0, 0), BuildingBlock: CIFDUS_clean_linker_0, # of connection points: 2
#     Edge 5, Type (0, 0), BuildingBlock: CIFDUS_clean_linker_0, # of connection points: 2
#     Edge 6, Type (0, 0), BuildingBlock: CIFDUS_clean_linker_0, # of connection points: 2
#     Edge 7, Type (0, 0), BuildingBlock: CIFDUS_clean_linker_0, # of connection points: 2
#     Edge 8, Type (0, 0), BuildingBlock: CIFDUS_clean_linker_0, # of connection points: 2
#     Edge 9, Type (0, 0), BuildingBlock: CIFDUS_clean_linker_0, # of connection points: 2
#     Edge 10, Type (0, 0), BuildingBlock: CIFDUS_clean_linker_0, # of connection points: 2
#     Edge 11, Type (0, 0), BuildingBlock: CIFDUS_clean_linker_0, # of connection points: 2
#     Edge 12, Type (0, 0), BuildingBlock: CIFDUS_clean_linker_0, # of connection points: 2
#     Edge 13, Type (0, 0), BuildingBlock: CIFDUS_clean_linker_0, # of connection points: 2
# Relax obj value: 0.195
# Max RMSD: 0.274
# Mean RMSD: 0.274
data_MOF--net-hcp--node1-QEWDON_clean_sbu_0--edge1-CIFDUS_clean_linker_0
_symmetry_space_group_name_H-M    P1
_symmetry_Int_Tables_number       1
_symmetry_cell_setting            triclinic
loop_
_symmetry_equiv_pos_as_xyz
'x, y, z'
_cell_length_a     17.505895
_cell_length_b     16.415591
_cell_length_c     28.945842
_cell_angle_alpha  90.639053
_cell_angle_beta   88.398194
_cell_angle_gamma 121.75042
loop_
_atom_site_label
_atom_site_type_symbol
_atom_site_fract_x
_atom_site_fract_y
_atom_site_fract_z
_atom_type_partial_charge
Zn0 Zn 0.86091 0.34643 0.31644 0.0
Zn1 Zn 0.86762 0.40653 0.19012 0.0
O2 O 0.80007 0.34999 0.25302 0.0
H3 H 0.73579 0.32265 0.25544 0.0
C4 C 0.60851 0.07125 0.26973 0.0
O5 O 0.5447 0.0687 0.29586 0.0
Zn6 Zn 0.56647 0.51765 0.22489 0.0
Zn7 Zn 0.43518 0.33558 0.29281 0.0
O8 O 0.50615 0.37325 0.23171 0.0
H9 H 0.48585 0.32753 0.2068 0.0
Zn10 Zn 0.57007 0.18944 0.20913 0.0
O11 O 0.63328 0.33486 0.19469 0.0
Zn12 Zn 0.59965 0.34844 0.13133 0.0
H13 H 0.6795 0.38982 0.21078 0.0
Zn14 Zn 0.62712 0.4289 0.37026 0.0
O15 O 0.6775 0.45013 0.30562 0.0
H16 H 0.65512 0.39645 0.28494 0.0
Zn17 Zn 0.80246 0.56338 0.30791 0.0
C18 C 0.43625 0.27513 0.40293 0.0
O19 O 0.36361 0.19001 0.39795 0.0
O20 O 0.87119 0.31894 0.24812 0.0
O21 O 0.92763 0.33088 0.17936 0.0
O22 O 0.44391 0.45789 0.31594 0.0
O23 O 0.48691 0.55648 0.25742 0.0
O24 O 0.50557 0.10666 0.15305 0.0
O25 O 0.53854 0.2201 0.10114 0.0
C26 C 0.95023 0.58741 0.23534 0.0
O27 O 0.72952 0.45606 0.41411 0.0
O28 O 0.85015 0.55213 0.3693 0.0
O29 O 0.31582 0.20303 0.29611 0.0
C30 C 0.92741 0.3121 0.22198 0.0
O31 O 0.78416 0.24025 0.36475 0.0
C32 C 0.5514 0.49518 0.12363 0.0
O33 O 0.63665 0.12418 0.23385 0.0
C34 C 0.42536 0.50082 0.2862 0.0
O35 O 0.50119 0.30247 0.37397 0.0
C36 C 0.78147 0.42909 0.10125 0.0
O37 O 0.96356 0.54186 0.20357 0.0
O38 O 0.87253 0.54739 0.25492 0.0
C39 C 0.50626 0.13273 0.11182 0.0
O40 O 0.57481 0.55246 0.1577 0.0
O41 O 0.52213 0.40686 0.13027 0.0
C42 C 0.73082 0.66586 0.27343 0.0
O43 O 0.70805 0.4198 0.08942 0.0
O44 O 0.78545 0.40513 0.14237 0.0
C45 C 0.8147 0.50612 0.40713 0.0
O46 O 0.79358 0.68152 0.30016 0.0
O47 O 0.68549 0.58331 0.25539 0.0
C48 C 0.32345 0.13194 0.28632 0.0
O49 O 0.40385 0.14766 0.27632 0.0
C50 C 0.70792 0.22699 0.37632 0.0
O51 O 0.68065 0.27812 0.35601 0.0
Zn52 Zn 0.40869 0.5312 0.76632 0.0
Zn53 Zn 0.50755 0.69566 0.69355 0.0
O54 O 0.40839 0.64686 0.74203 0.0
H55 H 0.39485 0.68482 0.76235 0.0
C56 C 0.25619 0.39527 0.72327 0.0
O57 O 0.23577 0.43576 0.75675 0.0
Zn58 Zn 0.24724 0.83885 0.65744 0.0
Zn59 Zn 0.12248 0.63447 0.70138 0.0
O60 O 0.20912 0.7017 0.64582 0.0
H61 H 0.19338 0.6788 0.61468 0.0
Zn62 Zn 0.24225 0.53279 0.66268 0.0
O63 O 0.34215 0.6747 0.66709 0.0
Zn64 Zn 0.37153 0.71261 0.60108 0.0
H65 H 0.34403 0.71826 0.6904 0.0
Zn66 Zn 0.30538 0.68709 0.8459 0.0
O67 O 0.30276 0.75851 0.78934 0.0
H68 H 0.25764 0.73226 0.76594 0.0
Zn69 Zn 0.42447 0.87982 0.78453 0.0
C70 C 0.11504 0.59806 0.88007 0.0
O71 O 0.10179 0.62026 0.8388 0.0
O72 O 0.49549 0.50199 0.73323 0.0
O73 O 0.58912 0.656 0.71578 0.0
O74 O 0.10717 0.73799 0.73239 0.0
O75 O 0.13112 0.82781 0.67129 0.0
O76 O 0.16651 0.50475 0.60495 0.0
O77 O 0.27495 0.61419 0.55876 0.0
C78 C 0.57073 0.89732 0.71221 0.0
O79 O 0.41208 0.77356 0.88632 0.0
O80 O 0.48303 0.90973 0.84625 0.0
O81 O 0.00763 0.49297 0.69782 0.0
C82 C 0.57347 0.57215 0.72317 0.0
O83 O 0.43757 0.52737 0.83409 0.0
C84 C 0.36509 0.90213 0.57759 0.0
O85 O 0.26408 0.42486 0.68198 0.0
C86 C 0.08101 0.77856 0.70541 0.0
O87 O 0.19253 0.61546 0.88963 0.0
C88 C 0.49401 0.6595 0.59125 0.0
O89 O 0.58657 0.84225 0.68811 0.0
O90 O 0.49801 0.85867 0.73627 0.0
C91 C 0.195 0.54281 0.56515 0.0
O92 O 0.3119 0.9182 0.60068 0.0
O93 O 0.36749 0.82832 0.5868 0.0
C94 C 0.35395 0.97198 0.73604 0.0
O95 O 0.49089 0.73303 0.58251 0.0
O96 O 0.47565 0.62437 0.63195 0.0
C97 C 0.47276 0.86184 0.88275 0.0
O98 O 0.40433 0.98569 0.76958 0.0
O99 O 0.32686 0.896 0.71227 0.0
C100 C 0.01251 0.42646 0.71694 0.0
O101 O 0.08744 0.44902 0.73701 0.0
C102 C 0.40888 0.54249 0.87184 0.0
O103 O 0.34794 0.56599 0.87173 0.0
H104 H 0.41155 0.80272 0.97026 0.0
H105 H 0.62011 0.04215 0.891 0.0
H106 H 0.64863 0.14789 0.95683 0.0
H107 H 0.59849 0.17591 0.03145 0.0
H108 H 0.38722 0.93883 0.11034 0.0
H109 H 0.37289 0.82794 0.04877 0.0
C110 C 0.46508 0.87746 0.9677 0.0
C111 C 0.51248 0.91519 0.92549 0.0
C112 C 0.47754 0.93856 0.00463 0.0
C113 C 0.58214 1.01185 0.92298 0.0
C114 C 0.59749 0.07248 0.96031 0.0
C115 C 0.54838 0.10006 0.03492 0.0
C116 C 0.49139 0.06549 0.07434 0.0
C117 C 0.54221 0.0374 0.00018 0.0
C118 C 0.42983 0.96684 0.07954 0.0
C119 C 0.42249 0.90368 0.0447 0.0
H120 H 0.41486 0.46702 0.58818 0.0
H121 H 0.5756 0.72362 0.50665 0.0
H122 H 0.5757 0.62769 0.44123 0.0
H123 H 0.52673 0.46988 0.40694 0.0
H124 H 0.35452 0.21402 0.48713 0.0
H125 H 0.36221 0.31057 0.55339 0.0
C126 C 0.45057 0.50199 0.55622 0.0
C127 C 0.49586 0.60205 0.55226 0.0
C128 C 0.44822 0.44647 0.51857 0.0
C129 C 0.54038 0.64645 0.5104 0.0
C130 C 0.54049 0.59174 0.47307 0.0
C131 C 0.49212 0.43554 0.43915 0.0
C132 C 0.44212 0.33511 0.44256 0.0
C133 C 0.49436 0.49157 0.47673 0.0
C134 C 0.39468 0.29126 0.48389 0.0
C135 C 0.39879 0.34637 0.52178 0.0
H136 H 0.77366 0.45582 0.01031 0.0
H137 H 0.95727 0.47923 0.11358 0.0
H138 H 0.0764 0.53126 0.05385 0.0
H139 H 0.12759 0.57034 0.97198 0.0
H140 H 0.94007 0.54309 0.86991 0.0
H141 H 0.82266 0.49094 0.92973 0.0
C142 C 0.83987 0.4729 0.0201 0.0
C143 C 0.85668 0.46474 0.06665 0.0
C144 C 0.90703 0.50121 0.98565 0.0
C145 C 0.9426 0.48573 0.07823 0.0
C146 C 0.01058 0.51511 0.044 0.0
C147 C 0.06089 0.55249 0.96277 0.0
C148 C 0.04285 0.56091 0.91637 0.0
C149 C -0.00657 0.52295 -0.00246 0.0
C150 C 0.95606 0.53761 0.90518 0.0
C151 C 0.88884 0.50794 0.93943 0.0
H152 H 0.51754 0.92471 0.53823 0.0
H153 H 0.32891 0.01718 0.52813 0.0
H154 H 0.41606 0.12106 0.46324 0.0
H155 H 0.5482 0.19102 0.41157 0.0
H156 H 0.74276 0.10765 0.42428 0.0
H157 H 0.65101 0.99528 0.48605 0.0
C158 C 0.49554 0.9676 0.52166 0.0
C159 C 0.41718 0.96355 0.53791 0.0
C160 C 0.54725 0.02948 0.48515 0.0
C161 C 0.38947 0.01969 0.51645 0.0
C162 C 0.43919 0.07921 0.47937 0.0
C163 C 0.57061 0.1484 0.42776 0.0
C164 C 0.65212 0.15785 0.41327 0.0
C165 C 0.51864 0.0856 0.46381 0.0
C166 C 0.68033 0.10206 0.43486 0.0
C167 C 0.62787 0.03767 0.47013 0.0
H168 H 0.56235 0.43488 0.03859 0.0
H169 H 0.49005 0.61595 0.1117 0.0
H170 H 0.43821 0.64663 0.03995 0.0
H171 H 0.40775 0.61587 0.9567 0.0
H172 H 0.48758 0.44004 0.88401 0.0
H173 H 0.54246 0.41385 0.95516 0.0
C174 C 0.53592 0.48168 0.0386 0.0
C175 C 0.52963 0.52281 0.08006 0.0
C176 C 0.50708 0.49945 -0.00261 0.0
C177 C 0.49608 0.58406 0.07991 0.0
C178 C 0.46586 0.60104 0.03903 0.0
C179 C 0.43697 0.57171 0.95661 0.0
C180 C 0.44261 0.52907 0.91537 0.0
C181 C 0.46993 0.55802 -0.00236 0.0
C182 C 0.48214 0.47342 0.91541 0.0
C183 C 0.51355 0.45826 0.95606 0.0
H184 H 0.98441 0.54427 0.39363 0.0
H185 H 0.77611 0.46019 0.49877 0.0
H186 H 0.87225 0.45217 0.55587 0.0
H187 H 0.01779 0.47667 0.5766 0.0
H188 H 0.22752 0.56509 0.47199 0.0
H189 H 0.12722 0.56083 0.41354 0.0
C190 C 0.96019 0.52475 0.42911 0.0
C191 C 0.87372 0.50424 0.44211 0.0
C192 C 0.0154 0.51937 0.46159 0.0
C193 C 0.84265 0.47702 0.48797 0.0
C194 C 0.89741 0.47201 0.52058 0.0
C195 C 0.04087 0.4927 0.5408 0.0
C196 C 0.12978 0.5206 0.52853 0.0
C197 C 0.984 0.49341 0.5078 0.0
C198 C 0.15924 0.54303 0.48218 0.0
C199 C 0.10223 0.54145 0.44888 0.0
H200 H 0.64983 0.97699 0.20576 0.0
H201 H 0.62364 1.00517 0.35242 0.0
H202 H 0.66425 0.8863 0.36713 0.0
H203 H 0.70382 0.77058 0.33777 0.0
H204 H 0.70823 0.72596 0.19107 0.0
H205 H 0.67802 0.85307 0.1765 0.0
C206 C 0.65426 0.95791 0.24091 0.0
C207 C 0.63702 1.00234 0.27818 0.0
C208 C 0.67236 0.88525 0.24888 0.0
C209 C 0.63948 0.97421 0.32343 0.0
C210 C 0.66179 0.90551 0.33174 0.0
C211 C 0.69812 0.78902 0.3027 0.0
C212 C 0.70858 0.73971 0.26547 0.0
C213 C 0.67801 0.86017 0.29473 0.0
C214 C 0.69977 0.76278 0.22018 0.0
C215 C 0.68308 0.83578 0.21187 0.0
H216 H 0.95176 0.67875 0.77079 0.0
H217 H -0.0069 0.77151 0.62813 0.0
H218 H 0.83212 0.6852 0.61781 0.0
H219 H 0.68181 0.60408 0.65167 0.0
H220 H 0.63782 0.52503 0.79555 0.0
H221 H 0.79734 0.58053 0.80275 0.0
C222 C 0.92526 0.68037 0.73759 0.0
C223 C 0.98398 0.73379 0.70079 0.0
C224 C 0.83243 0.63115 0.73187 0.0
C225 C 0.94927 0.73378 0.65756 0.0
C226 C 0.85729 0.68317 0.65131 0.0
C227 C 0.70706 0.59551 0.68397 0.0
C228 C 0.65025 0.56132 0.72295 0.0
C229 C 0.7986 0.63392 0.68846 0.0
C230 C 0.68158 0.5503 0.76503 0.0
C231 C 0.77273 0.58403 0.76933 0.0
H232 H 0.32032 0.96951 0.26445 0.0
H233 H 0.14643 0.07337 0.30257 0.0
H234 H 0.01452 0.91195 0.29382 0.0
H235 H 0.94872 0.74276 0.27005 0.0
H236 H 0.12516 0.64327 0.23081 0.0
H237 H 0.25576 0.80131 0.24517 0.0
C238 C 0.25369 0.95701 0.27118 0.0
C239 C 0.24338 0.03362 0.28389 0.0
C240 C 0.17841 0.86458 0.26571 0.0
C241 C 0.15635 1.01574 0.29256 0.0
C242 C 0.08083 0.92342 0.28755 0.0
C243 C 0.01554 0.75532 0.26579 0.0
C244 C 0.02692 0.6813 0.24958 0.0
C245 C 0.09097 0.84739 0.27354 0.0
C246 C 0.11442 0.69921 0.24304 0.0
C247 C 0.1893 0.7896 0.25123 0.0
H248 H 0.24316 0.25818 0.66534 0.0
H249 H 0.30828 0.36066 0.80509 0.0
H250 H 0.3485 0.24198 0.82077 0.0
H251 H 0.36544 0.10899 0.79428 0.0
H252 H 0.2807 0.99501 0.65817 0.0
H253 H 0.24713 0.11669 0.64146 0.0
C254 C 0.26609 0.25444 0.69924 0.0
C255 C 0.2748 0.31951 0.73368 0.0
C256 C 0.28541 0.18354 0.70859 0.0
C257 C 0.30253 0.31241 0.77776 0.0
C258 C 0.32525 0.24434 0.78679 0.0
C259 C 0.33973 0.11067 0.76088 0.0
C260 C 0.32804 0.04324 0.72677 0.0
C261 C 0.31722 0.17963 0.75234 0.0
C262 C 0.29265 0.04602 0.68441 0.0
C263 C 0.27285 0.11598 0.675 0.0
H264 H 0.26774 0.42084 0.33463 0.0
H265 H 0.37909 0.45649 0.19611 0.0
H266 H 0.22979 0.38288 0.16446 0.0
H267 H 0.07214 0.33159 0.17521 0.0
H268 H 0.95872 0.29622 0.31312 0.0
H269 H 0.10348 0.34559 0.34579 0.0
C270 C 0.25878 0.41152 0.2976 0.0
C271 C 0.33418 0.44707 0.26773 0.0
C272 C 0.17262 0.37032 0.27942 0.0
C273 C 0.32217 0.43288 0.21979 0.0
C274 C 0.23679 0.39018 0.20161 0.0
C275 C 0.07846 0.3328 0.21243 0.0
C276 C 0.00571 0.31459 0.24157 0.0
C277 C 0.16211 0.36222 0.23096 0.0
C278 C 0.01448 0.31386 0.28973 0.0
C279 C 0.09738 0.3418 0.30854 0.0
H280 H 0.82977 0.35169 0.71478 0.0
H281 H 0.02792 0.27114 0.71655 0.0
H282 H 0.90957 0.10227 0.71511 0.0
H283 H 0.75018 0.9764 0.71299 0.0
H284 H 0.54892 0.05181 0.71624 0.0
H285 H 0.66695 0.22273 0.71661 0.0
C286 C 0.84674 0.29698 0.71461 0.0
C287 C 0.93788 0.32429 0.71531 0.0
C288 C 0.77759 0.19885 0.71504 0.0
C289 C 0.95864 0.25243 0.71594 0.0
C290 C 0.89089 0.1556 0.71511 0.0
C291 C 0.73206 0.03026 0.71385 0.0
C292 C 0.64069 1.00131 0.71471 0.0
C293 C 0.80025 0.12791 0.71464 0.0
C294 C 0.61848 0.07202 0.71631 0.0
C295 C 0.68618 0.16984 0.7161 0.0
loop_
_geom_bond_atom_site_label_1
_geom_bond_atom_site_label_2
_geom_bond_distance
_geom_bond_site_symmetry_2
_ccdc_geom_bond_type
Zn0 O2 1.933 . S
Zn0 O20 1.985 . S
Zn0 O31 1.955 . S
Zn1 O2 1.911 . S
Zn1 O21 1.970 . S
Zn1 O37 1.945 . S
Zn1 O44 1.981 . S
O2 Zn0 1.933 . S
O2 Zn1 1.911 . S
O2 H3 0.841 . S
H3 O2 0.841 . S
C4 O5 1.246 . S
C4 O33 1.276 . S
O5 C4 1.246 . S
Zn6 O8 1.911 . S
Zn6 O23 1.970 . S
Zn6 O40 1.945 . S
Zn6 O47 1.981 . S
Zn7 O8 1.933 . S
Zn7 O22 1.985 . S
Zn7 O29 1.955 . S
O8 Zn6 1.911 . S
O8 Zn7 1.933 . S
O8 H9 0.841 . S
H9 O8 0.841 . S
Zn10 O11 1.933 . S
Zn10 O24 1.985 . S
Zn10 O33 1.955 . S
O11 Zn10 1.933 . S
O11 Zn12 1.911 . S
O11 H13 0.841 . S
Zn12 O11 1.911 . S
Zn12 O25 1.970 . S
Zn12 O41 1.981 . S
Zn12 O43 1.945 . S
H13 O11 0.841 . S
Zn14 O15 1.933 . S
Zn14 O27 1.985 . S
Zn14 O35 1.955 . S
O15 Zn14 1.933 . S
O15 H16 0.841 . S
O15 Zn17 1.911 . S
H16 O15 0.841 . S
Zn17 O15 1.911 . S
Zn17 O28 1.970 . S
Zn17 O38 1.981 . S
Zn17 O46 1.945 . S
C18 O19 1.246 . S
C18 O35 1.276 . S
O19 C18 1.246 . S
O20 Zn0 1.985 . S
O20 C30 1.245 . S
O21 Zn1 1.970 . S
O21 C30 1.263 . S
O22 Zn7 1.985 . S
O22 C34 1.245 . S
O23 Zn6 1.970 . S
O23 C34 1.263 . S
O24 Zn10 1.985 . S
O24 C39 1.245 . S
O25 Zn12 1.970 . S
O25 C39 1.263 . S
C26 O37 1.262 . S
C26 O38 1.245 . S
O27 Zn14 1.985 . S
O27 C45 1.245 . S
O28 Zn17 1.970 . S
O28 C45 1.263 . S
O29 Zn7 1.955 . S
O29 C48 1.276 . S
C30 O20 1.245 . S
C30 O21 1.263 . S
O31 Zn0 1.955 . S
O31 C50 1.276 . S
C32 O40 1.262 . S
C32 O41 1.245 . S
O33 C4 1.276 . S
O33 Zn10 1.955 . S
C34 O22 1.245 . S
C34 O23 1.263 . S
O35 Zn14 1.955 . S
O35 C18 1.276 . S
C36 O43 1.262 . S
C36 O44 1.245 . S
O37 Zn1 1.945 . S
O37 C26 1.262 . S
O38 Zn17 1.981 . S
O38 C26 1.245 . S
C39 O24 1.245 . S
C39 O25 1.263 . S
O40 Zn6 1.945 . S
O40 C32 1.262 . S
O41 Zn12 1.981 . S
O41 C32 1.245 . S
C42 O46 1.262 . S
C42 O47 1.245 . S
O43 Zn12 1.945 . S
O43 C36 1.262 . S
O44 Zn1 1.981 . S
O44 C36 1.245 . S
C45 O27 1.245 . S
C45 O28 1.263 . S
O46 Zn17 1.945 . S
O46 C42 1.262 . S
O47 Zn6 1.981 . S
O47 C42 1.245 . S
C48 O29 1.276 . S
C48 O49 1.246 . S
O49 C48 1.246 . S
C50 O31 1.276 . S
C50 O51 1.246 . S
O51 C50 1.246 . S
Zn52 O54 1.933 . S
Zn52 O72 1.985 . S
Zn52 O83 1.955 . S
Zn53 O54 1.911 . S
Zn53 O73 1.970 . S
Zn53 O89 1.945 . S
Zn53 O96 1.981 . S
O54 Zn52 1.933 . S
O54 Zn53 1.911 . S
O54 H55 0.841 . S
H55 O54 0.841 . S
C56 O57 1.246 . S
C56 O85 1.276 . S
O57 C56 1.246 . S
Zn58 O60 1.911 . S
Zn58 O75 1.970 . S
Zn58 O92 1.945 . S
Zn58 O99 1.981 . S
Zn59 O60 1.933 . S
Zn59 O74 1.985 . S
Zn59 O81 1.955 . S
O60 Zn58 1.911 . S
O60 Zn59 1.933 . S
O60 H61 0.841 . S
H61 O60 0.841 . S
Zn62 O63 1.933 . S
Zn62 O76 1.985 . S
Zn62 O85 1.955 . S
O63 Zn62 1.933 . S
O63 Zn64 1.911 . S
O63 H65 0.841 . S
Zn64 O63 1.911 . S
Zn64 O77 1.970 . S
Zn64 O93 1.981 . S
Zn64 O95 1.945 . S
H65 O63 0.841 . S
Zn66 O67 1.933 . S
Zn66 O79 1.985 . S
Zn66 O87 1.955 . S
O67 Zn66 1.933 . S
O67 H68 0.841 . S
O67 Zn69 1.911 . S
H68 O67 0.841 . S
Zn69 O67 1.911 . S
Zn69 O80 1.970 . S
Zn69 O90 1.981 . S
Zn69 O98 1.945 . S
C70 O71 1.246 . S
C70 O87 1.276 . S
O71 C70 1.246 . S
O72 Zn52 1.985 . S
O72 C82 1.245 . S
O73 Zn53 1.970 . S
O73 C82 1.263 . S
O74 Zn59 1.985 . S
O74 C86 1.245 . S
O75 Zn58 1.970 . S
O75 C86 1.263 . S
O76 Zn62 1.985 . S
O76 C91 1.245 . S
O77 Zn64 1.970 . S
O77 C91 1.263 . S
C78 O89 1.262 . S
C78 O90 1.245 . S
O79 Zn66 1.985 . S
O79 C97 1.245 . S
O80 Zn69 1.970 . S
O80 C97 1.263 . S
O81 Zn59 1.955 . S
O81 C100 1.276 . S
C82 O72 1.245 . S
C82 O73 1.263 . S
O83 Zn52 1.955 . S
O83 C102 1.276 . S
C84 O92 1.262 . S
C84 O93 1.245 . S
O85 C56 1.276 . S
O85 Zn62 1.955 . S
C86 O74 1.245 . S
C86 O75 1.263 . S
O87 Zn66 1.955 . S
O87 C70 1.276 . S
C88 O95 1.262 . S
C88 O96 1.245 . S
O89 Zn53 1.945 . S
O89 C78 1.262 . S
O90 Zn69 1.981 . S
O90 C78 1.245 . S
C91 O76 1.245 . S
C91 O77 1.263 . S
O92 Zn58 1.945 . S
O92 C84 1.262 . S
O93 Zn64 1.981 . S
O93 C84 1.245 . S
C94 O98 1.262 . S
C94 O99 1.245 . S
O95 Zn64 1.945 . S
O95 C88 1.262 . S
O96 Zn53 1.981 . S
O96 C88 1.245 . S
C97 O79 1.245 . S
C97 O80 1.263 . S
O98 Zn69 1.945 . S
O98 C94 1.262 . S
O99 Zn58 1.981 . S
O99 C94 1.245 . S
C100 O81 1.276 . S
C100 O101 1.246 . S
O101 C100 1.246 . S
C102 O83 1.276 . S
C102 O103 1.246 . S
O103 C102 1.246 . S
H104 C110 0.930 . S
H105 C113 0.930 . S
H106 C114 0.930 . S
H107 C115 0.930 . S
H108 C118 0.930 . S
H109 C119 0.930 . S
C110 H104 0.930 . S
C110 C111 1.355 . S
C110 C112 1.415 1_556 S
C111 C110 1.355 . S
C111 C113 1.419 1_565 S
C112 C110 1.415 1_554 S
C112 C117 1.425 1_564 S
C112 C119 1.409 . S
C113 H105 0.930 . S
C113 C111 1.419 1_545 S
C113 C114 1.362 . S
C114 H106 0.930 . S
C114 C113 1.362 . S
C114 C117 1.409 . S
C115 H107 0.930 . S
C115 C116 1.355 . S
C115 C117 1.415 1_554 S
C116 C115 1.355 . S
C116 C118 1.419 1_545 S
C117 C112 1.425 1_546 S
C117 C114 1.409 . S
C117 C115 1.415 1_556 S
C118 H108 0.930 . S
C118 C116 1.419 1_565 S
C118 C119 1.362 . S
C119 H109 0.930 . S
C119 C112 1.409 . S
C119 C118 1.362 . S
H120 C126 0.930 . S
H121 C129 0.930 . S
H122 C130 0.930 . S
H123 C131 0.930 . S
H124 C134 0.930 . S
H125 C135 0.930 . S
C126 H120 0.930 . S
C126 C127 1.355 . S
C126 C128 1.415 . S
C127 C126 1.355 . S
C127 C129 1.419 . S
C128 C126 1.415 . S
C128 C133 1.425 . S
C128 C135 1.409 . S
C129 H121 0.930 . S
C129 C127 1.419 . S
C129 C130 1.362 . S
C130 H122 0.930 . S
C130 C129 1.362 . S
C130 C133 1.409 . S
C131 H123 0.930 . S
C131 C132 1.355 . S
C131 C133 1.415 . S
C132 C131 1.355 . S
C132 C134 1.419 . S
C133 C128 1.425 . S
C133 C130 1.409 . S
C133 C131 1.415 . S
C134 H124 0.930 . S
C134 C132 1.419 . S
C134 C135 1.362 . S
C135 H125 0.930 . S
C135 C128 1.409 . S
C135 C134 1.362 . S
H136 C142 0.930 . S
H137 C145 0.930 . S
H138 C146 0.930 . S
H139 C147 0.930 . S
H140 C150 0.930 . S
H141 C151 0.930 . S
C142 H136 0.930 . S
C142 C143 1.355 . S
C142 C144 1.415 1_554 S
C143 C142 1.355 . S
C143 C145 1.419 1_655 S
C144 C142 1.415 1_556 S
C144 C149 1.425 1_656 S
C144 C151 1.409 . S
C145 H137 0.930 . S
C145 C143 1.419 1_455 S
C145 C146 1.362 . S
C146 H138 0.930 . S
C146 C145 1.362 . S
C146 C149 1.412 . S
C147 H139 0.930 . S
C147 C148 1.355 . S
C147 C149 1.412 1_556 S
C148 C147 1.355 . S
C148 C150 1.419 1_455 S
C149 C144 1.425 1_454 S
C149 C146 1.412 . S
C149 C147 1.412 1_554 S
C150 H140 0.930 . S
C150 C148 1.419 1_655 S
C150 C151 1.362 . S
C151 H141 0.930 . S
C151 C144 1.409 . S
C151 C150 1.362 . S
H152 C158 0.930 . S
H153 C161 0.930 . S
H154 C162 0.930 . S
H155 C163 0.930 . S
H156 C166 0.930 . S
H157 C167 0.930 . S
C158 H152 0.930 . S
C158 C159 1.355 . S
C158 C160 1.415 . S
C159 C158 1.355 . S
C159 C161 1.419 . S
C160 C158 1.415 . S
C160 C165 1.425 1_565 S
C160 C167 1.409 . S
C161 H153 0.930 . S
C161 C159 1.419 . S
C161 C162 1.362 1_565 S
C162 H154 0.930 . S
C162 C161 1.362 1_545 S
C162 C165 1.409 . S
C163 H155 0.930 . S
C163 C164 1.355 . S
C163 C165 1.415 . S
C164 C163 1.355 . S
C164 C166 1.419 . S
C165 C160 1.425 1_545 S
C165 C162 1.409 . S
C165 C163 1.415 . S
C166 H156 0.930 . S
C166 C164 1.419 . S
C166 C167 1.362 1_545 S
C167 H157 0.930 . S
C167 C160 1.409 . S
C167 C166 1.362 1_565 S
H168 C174 0.930 . S
H169 C177 0.930 . S
H170 C178 0.930 . S
H171 C179 0.930 . S
H172 C182 0.930 . S
H173 C183 0.930 . S
C174 H168 0.930 . S
C174 C175 1.355 . S
C174 C176 1.415 1_554 S
C175 C174 1.355 . S
C175 C177 1.419 . S
C176 C174 1.415 1_556 S
C176 C181 1.425 1_556 S
C176 C183 1.409 . S
C177 H169 0.930 . S
C177 C175 1.419 . S
C177 C178 1.362 . S
C178 H170 0.930 . S
C178 C177 1.362 . S
C178 C181 1.409 . S
C179 H171 0.930 . S
C179 C180 1.355 . S
C179 C181 1.415 1_556 S
C180 C179 1.355 . S
C180 C182 1.419 . S
C181 C176 1.425 1_554 S
C181 C178 1.409 . S
C181 C179 1.415 1_554 S
C182 H172 0.930 . S
C182 C180 1.419 . S
C182 C183 1.362 . S
C183 H173 0.930 . S
C183 C176 1.409 . S
C183 C182 1.362 . S
H184 C190 0.930 . S
H185 C193 0.930 . S
H186 C194 0.930 . S
H187 C195 0.930 . S
H188 C198 0.930 . S
H189 C199 0.930 . S
C190 H184 0.930 . S
C190 C191 1.355 . S
C190 C192 1.415 1_655 S
C191 C190 1.355 . S
C191 C193 1.419 . S
C192 C190 1.415 1_455 S
C192 C197 1.425 . S
C192 C199 1.409 . S
C193 H185 0.930 . S
C193 C191 1.419 . S
C193 C194 1.362 . S
C194 H186 0.930 . S
C194 C193 1.362 . S
C194 C197 1.410 1_655 S
C195 H187 0.930 . S
C195 C196 1.355 . S
C195 C197 1.414 . S
C196 C195 1.355 . S
C196 C198 1.419 . S
C197 C192 1.425 . S
C197 C194 1.410 1_455 S
C197 C195 1.414 . S
C198 H188 0.930 . S
C198 C196 1.419 . S
C198 C199 1.362 . S
C199 H189 0.930 . S
C199 C192 1.409 . S
C199 C198 1.362 . S
H200 C206 0.930 . S
H201 C209 0.930 . S
H202 C210 0.930 . S
H203 C211 0.930 . S
H204 C214 0.930 . S
H205 C215 0.930 . S
C206 H200 0.930 . S
C206 C207 1.355 . S
C206 C208 1.415 . S
C207 C206 1.355 . S
C207 C209 1.419 . S
C208 C206 1.415 . S
C208 C213 1.425 . S
C208 C215 1.409 . S
C209 H201 0.930 . S
C209 C207 1.419 . S
C209 C210 1.362 . S
C210 H202 0.930 . S
C210 C209 1.362 . S
C210 C213 1.409 . S
C211 H203 0.930 . S
C211 C212 1.355 . S
C211 C213 1.415 . S
C212 C211 1.355 . S
C212 C214 1.419 . S
C213 C208 1.425 . S
C213 C210 1.409 . S
C213 C211 1.415 . S
C214 H204 0.930 . S
C214 C212 1.419 . S
C214 C215 1.362 . S
C215 H205 0.930 . S
C215 C208 1.409 . S
C215 C214 1.362 . S
H216 C222 0.930 . S
H217 C225 0.930 1_455 S
H218 C226 0.930 . S
H219 C227 0.930 . S
H220 C230 0.930 . S
H221 C231 0.930 . S
C222 H216 0.930 . S
C222 C223 1.355 1_655 S
C222 C224 1.415 . S
C223 C222 1.355 1_455 S
C223 C225 1.419 1_455 S
C224 C222 1.415 . S
C224 C229 1.425 . S
C224 C231 1.409 . S
C225 H217 0.930 1_655 S
C225 C223 1.419 1_655 S
C225 C226 1.362 . S
C226 H218 0.930 . S
C226 C225 1.362 . S
C226 C229 1.409 . S
C227 H219 0.930 . S
C227 C228 1.355 . S
C227 C229 1.415 . S
C228 C227 1.355 . S
C228 C230 1.419 . S
C229 C224 1.425 . S
C229 C226 1.409 . S
C229 C227 1.415 . S
C230 H220 0.930 . S
C230 C228 1.419 . S
C230 C231 1.362 . S
C231 H221 0.930 . S
C231 C224 1.409 . S
C231 C230 1.362 . S
H232 C238 0.930 . S
H233 C241 0.930 . S
H234 C242 0.930 . S
H235 C243 0.930 . S
H236 C246 0.930 . S
H237 C247 0.930 . S
C238 H232 0.930 . S
C238 C239 1.355 . S
C238 C240 1.415 . S
C239 C238 1.355 . S
C239 C241 1.419 1_565 S
C240 C238 1.415 . S
C240 C245 1.425 . S
C240 C247 1.409 . S
C241 H233 0.930 . S
C241 C239 1.419 1_545 S
C241 C242 1.362 1_545 S
C242 H234 0.930 . S
C242 C241 1.362 1_565 S
C242 C245 1.409 . S
C243 H235 0.930 . S
C243 C244 1.355 . S
C243 C245 1.415 . S
C244 C243 1.355 . S
C244 C246 1.419 . S
C245 C240 1.425 . S
C245 C242 1.409 . S
C245 C243 1.415 . S
C246 H236 0.930 . S
C246 C244 1.419 . S
C246 C247 1.362 . S
C247 H237 0.930 . S
C247 C240 1.409 . S
C247 C246 1.362 . S
H248 C254 0.930 . S
H249 C257 0.930 . S
H250 C258 0.930 . S
H251 C259 0.930 . S
H252 C262 0.933 . S
H253 C263 0.930 . S
C254 H248 0.930 . S
C254 C255 1.355 . S
C254 C256 1.415 . S
C255 C254 1.355 . S
C255 C257 1.419 . S
C256 C254 1.415 . S
C256 C261 1.425 . S
C256 C263 1.409 . S
C257 H249 0.930 . S
C257 C255 1.419 . S
C257 C258 1.362 . S
C258 H250 0.930 . S
C258 C257 1.362 . S
C258 C261 1.409 . S
C259 H251 0.930 . S
C259 C260 1.355 . S
C259 C261 1.415 . S
C260 C259 1.355 . S
C260 C262 1.420 1_545 S
C261 C256 1.425 . S
C261 C258 1.409 . S
C261 C259 1.415 . S
C262 H252 0.933 . S
C262 C260 1.420 1_565 S
C262 C263 1.358 1_565 S
C263 H253 0.930 . S
C263 C256 1.409 . S
C263 C262 1.358 1_545 S
H264 C270 0.930 . S
H265 C273 0.930 . S
H266 C274 0.930 . S
H267 C275 0.930 . S
H268 C278 0.930 1_655 S
H269 C279 0.930 . S
C270 H264 0.930 . S
C270 C271 1.355 . S
C270 C272 1.415 . S
C271 C270 1.355 . S
C271 C273 1.419 . S
C272 C270 1.415 . S
C272 C277 1.425 . S
C272 C279 1.409 . S
C273 H265 0.930 . S
C273 C271 1.419 . S
C273 C274 1.362 . S
C274 H266 0.930 . S
C274 C273 1.362 . S
C274 C277 1.409 . S
C275 H267 0.930 . S
C275 C276 1.355 1_455 S
C275 C277 1.415 . S
C276 C275 1.355 1_655 S
C276 C278 1.419 1_655 S
C277 C272 1.425 . S
C277 C274 1.409 . S
C277 C275 1.415 . S
C278 H268 0.930 1_455 S
C278 C276 1.419 1_455 S
C278 C279 1.362 . S
C279 H269 0.930 . S
C279 C272 1.409 . S
C279 C278 1.362 . S
H280 C286 0.930 . S
H281 C289 0.930 . S
H282 C290 0.930 . S
H283 C291 0.930 1_565 S
H284 C294 0.930 . S
H285 C295 0.930 . S
C286 H280 0.930 . S
C286 C287 1.355 . S
C286 C288 1.415 . S
C287 C286 1.355 . S
C287 C289 1.419 1_655 S
C288 C286 1.415 . S
C288 C293 1.425 . S
C288 C295 1.409 . S
C289 H281 0.930 . S
C289 C287 1.419 1_455 S
C289 C290 1.362 1_455 S
C290 H282 0.930 . S
C290 C289 1.362 1_655 S
C290 C293 1.409 . S
C291 H283 0.930 1_545 S
C291 C292 1.355 . S
C291 C293 1.415 . S
C292 C291 1.355 . S
C292 C294 1.419 . S
C293 C288 1.425 . S
C293 C290 1.409 . S
C293 C291 1.415 . S
C294 H284 0.930 . S
C294 C292 1.419 . S
C294 C295 1.362 . S
C295 H285 0.930 . S
C295 C288 1.409 . S
C295 C294 1.362 . S
C111 C97 0.743 . S
C116 C39 0.742 . S
C127 C88 2.590 . S
C132 C18 2.560 . S
C143 C36 1.796 . S
C148 C70 1.784 . S
C159 C84 2.818 . S
C164 C50 2.821 . S
C175 C32 1.757 . S
C180 C102 1.739 . S
C191 C45 2.052 . S
C196 C91 2.054 . S
C207 C4 1.429 1_565 S
C212 C42 1.436 . S
C223 C86 0.761 . S
C228 C82 0.761 . S
C239 C48 1.374 1_565 S
C244 C26 1.386 1_455 S
C255 C56 1.401 . S
C260 C94 1.408 1_545 S
C271 C34 0.758 . S
C276 C30 0.759 . S
C287 C100 1.448 1_655 S
C292 C78 1.455 1_545 S
