# Generated by pormake.
# Topology zfc, (5)-cn, num edge types: 1
# Building blocks:
#     Node 0, Type 0, BuildingBlock: XOMCOT_clean_sbu_1, # of connection points: 5
#     Node 1, Type 0, BuildingBlock: XOMCOT_clean_sbu_1, # of connection points: 5
#     Node 2, Type 0, BuildingBlock: XOMCOT_clean_sbu_1, # of connection points: 5
#     Node 3, Type 0, BuildingBlock: XOMCOT_clean_sbu_1, # of connection points: 5
#     Node 4, Type 0, BuildingBlock: XOMCOT_clean_sbu_1, # of connection points: 5
#     Node 5, Type 0, BuildingBlock: XOMCOT_clean_sbu_1, # of connection points: 5
#     Node 6, Type 0, BuildingBlock: XOMCOT_clean_sbu_1, # of connection points: 5
#     Node 7, Type 0, BuildingBlock: XOMCOT_clean_sbu_1, # of connection points: 5
#     Node 8, Type 0, BuildingBlock: XOMCOT_clean_sbu_1, # of connection points: 5
#     Node 9, Type 0, BuildingBlock: XOMCOT_clean_sbu_1, # of connection points: 5
#     Node 10, Type 0, BuildingBlock: XOMCOT_clean_sbu_1, # of connection points: 5
#     Node 11, Type 0, BuildingBlock: XOMCOT_clean_sbu_1, # of connection points: 5
#     Node 12, Type 0, BuildingBlock: XOMCOT_clean_sbu_1, # of connection points: 5
#     Node 13, Type 0, BuildingBlock: XOMCOT_clean_sbu_1, # of connection points: 5
#     Node 14, Type 0, BuildingBlock: XOMCOT_clean_sbu_1, # of connection points: 5
#     Node 15, Type 0, BuildingBlock: XOMCOT_clean_sbu_1, # of connection points: 5
#     Edge 16, Type (0, 0), BuildingBlock: UVAHIK_clean_linker_0, # of connection points: 2
#     Edge 17, Type (0, 0), BuildingBlock: UVAHIK_clean_linker_0, # of connection points: 2
#     Edge 18, Type (0, 0), BuildingBlock: UVAHIK_clean_linker_0, # of connection points: 2
#     Edge 19, Type (0, 0), BuildingBlock: UVAHIK_clean_linker_0, # of connection points: 2
#     Edge 20, Type (0, 0), BuildingBlock: UVAHIK_clean_linker_0, # of connection points: 2
#     Edge 21, Type (0, 0), BuildingBlock: UVAHIK_clean_linker_0, # of connection points: 2
#     Edge 22, Type (0, 0), BuildingBlock: UVAHIK_clean_linker_0, # of connection points: 2
#     Edge 23, Type (0, 0), BuildingBlock: UVAHIK_clean_linker_0, # of connection points: 2
#     Edge 24, Type (0, 0), BuildingBlock: UVAHIK_clean_linker_0, # of connection points: 2
#     Edge 25, Type (0, 0), BuildingBlock: UVAHIK_clean_linker_0, # of connection points: 2
#     Edge 26, Type (0, 0), BuildingBlock: UVAHIK_clean_linker_0, # of connection points: 2
#     Edge 27, Type (0, 0), BuildingBlock: UVAHIK_clean_linker_0, # of connection points: 2
#     Edge 28, Type (0, 0), BuildingBlock: UVAHIK_clean_linker_0, # of connection points: 2
#     Edge 29, Type (0, 0), BuildingBlock: UVAHIK_clean_linker_0, # of connection points: 2
#     Edge 30, Type (0, 0), BuildingBlock: UVAHIK_clean_linker_0, # of connection points: 2
#     Edge 31, Type (0, 0), BuildingBlock: UVAHIK_clean_linker_0, # of connection points: 2
#     Edge 32, Type (0, 0), BuildingBlock: UVAHIK_clean_linker_0, # of connection points: 2
#     Edge 33, Type (0, 0), BuildingBlock: UVAHIK_clean_linker_0, # of connection points: 2
#     Edge 34, Type (0, 0), BuildingBlock: UVAHIK_clean_linker_0, # of connection points: 2
#     Edge 35, Type (0, 0), BuildingBlock: UVAHIK_clean_linker_0, # of connection points: 2
#     Edge 36, Type (0, 0), BuildingBlock: UVAHIK_clean_linker_0, # of connection points: 2
#     Edge 37, Type (0, 0), BuildingBlock: UVAHIK_clean_linker_0, # of connection points: 2
#     Edge 38, Type (0, 0), BuildingBlock: UVAHIK_clean_linker_0, # of connection points: 2
#     Edge 39, Type (0, 0), BuildingBlock: UVAHIK_clean_linker_0, # of connection points: 2
#     Edge 40, Type (0, 0), BuildingBlock: UVAHIK_clean_linker_0, # of connection points: 2
#     Edge 41, Type (0, 0), BuildingBlock: UVAHIK_clean_linker_0, # of connection points: 2
#     Edge 42, Type (0, 0), BuildingBlock: UVAHIK_clean_linker_0, # of connection points: 2
#     Edge 43, Type (0, 0), BuildingBlock: UVAHIK_clean_linker_0, # of connection points: 2
#     Edge 44, Type (0, 0), BuildingBlock: UVAHIK_clean_linker_0, # of connection points: 2
#     Edge 45, Type (0, 0), BuildingBlock: UVAHIK_clean_linker_0, # of connection points: 2
#     Edge 46, Type (0, 0), BuildingBlock: UVAHIK_clean_linker_0, # of connection points: 2
#     Edge 47, Type (0, 0), BuildingBlock: UVAHIK_clean_linker_0, # of connection points: 2
#     Edge 48, Type (0, 0), BuildingBlock: UVAHIK_clean_linker_0, # of connection points: 2
#     Edge 49, Type (0, 0), BuildingBlock: UVAHIK_clean_linker_0, # of connection points: 2
#     Edge 50, Type (0, 0), BuildingBlock: UVAHIK_clean_linker_0, # of connection points: 2
#     Edge 51, Type (0, 0), BuildingBlock: UVAHIK_clean_linker_0, # of connection points: 2
#     Edge 52, Type (0, 0), BuildingBlock: UVAHIK_clean_linker_0, # of connection points: 2
#     Edge 53, Type (0, 0), BuildingBlock: UVAHIK_clean_linker_0, # of connection points: 2
#     Edge 54, Type (0, 0), BuildingBlock: UVAHIK_clean_linker_0, # of connection points: 2
#     Edge 55, Type (0, 0), BuildingBlock: UVAHIK_clean_linker_0, # of connection points: 2
# Relax obj value: 0.147
# Max RMSD: 0.156
# Mean RMSD: 0.156
data_MOF--net-zfc--node1-XOMCOT_clean_sbu_1--edge1-UVAHIK_clean_linker_0
_symmetry_space_group_name_H-M    P1
_symmetry_Int_Tables_number       1
_symmetry_cell_setting            triclinic
loop_
_symmetry_equiv_pos_as_xyz
'x, y, z'
_cell_length_a     95.185432
_cell_length_b     95.187031
_cell_length_c     21.947319
_cell_angle_alpha  90.005347
_cell_angle_beta   90.002579
_cell_angle_gamma 90.008612
loop_
_atom_site_label
_atom_site_type_symbol
_atom_site_fract_x
_atom_site_fract_y
_atom_site_fract_z
_atom_type_partial_charge
C0 C 0.2545 0.10007 0.10352 0.0
C1 C 0.25246 0.09982 0.16556 0.0
N2 N 0.26505 0.0982 0.19282 0.0
N3 N 0.26833 0.09873 0.09166 0.0
C4 C 0.27445 0.09745 0.14682 0.0
H5 H 0.24641 0.10118 0.06929 0.0
Co6 Co 0.27685 0.09843 0.01541 0.0
C7 C 0.30238 0.11622 0.03064 0.0
O8 O 0.30085 0.12149 0.9757 0.0
N9 N 0.28551 0.09761 0.9382 0.0
C10 C 0.30131 0.09237 0.86676 0.0
C11 C 0.29871 0.09288 0.9283 0.0
C12 C 0.28021 0.09951 0.88157 0.0
N13 N 0.28962 0.0965 0.83744 0.0
O14 O 0.28442 0.08029 0.03281 0.0
H15 H 0.30593 0.08968 0.96375 0.0
H16 H 0.2696 0.10275 0.87206 0.0
O17 O 0.29356 0.10719 0.05054 0.0
C18 C 0.27556 0.0703 0.03133 0.0
O19 O 0.26233 0.07319 0.01986 0.0
N20 N 0.26837 0.1159 0.99834 0.0
C21 C 0.25064 0.13907 0.98255 0.0
C22 C 0.26258 0.13999 0.01982 0.0
C23 C 0.27116 0.12822 0.0281 0.0
C24 C 0.25661 0.11475 0.96335 0.0
C25 C 0.24781 0.12624 0.95362 0.0
H26 H 0.27938 0.12888 0.06171 0.0
H27 H 0.25359 0.10461 0.94549 0.0
H28 H 0.28558 0.0957 0.15294 0.0
H29 H 0.24248 0.10096 0.18862 0.0
H30 H 0.31087 0.0887 0.84528 0.0
H31 H 0.26484 0.14948 0.04527 0.0
H32 H 0.23861 0.12492 0.92517 0.0
C33 C 0.89845 0.25217 0.11281 0.0
C34 C 0.89848 0.24995 0.17476 0.0
N35 N 0.90001 0.26247 0.20268 0.0
N36 N 0.89978 0.26604 0.10174 0.0
C37 C 0.90089 0.27201 0.15732 0.0
H38 H 0.89749 0.24418 0.07806 0.0
Co39 Co 0.89994 0.27464 0.0256 0.0
C40 C 0.88265 0.30046 0.04214 0.0
O41 O 0.87711 0.29887 0.98772 0.0
N42 N 0.90064 0.28333 0.9484 0.0
C43 C 0.906 0.29911 0.8771 0.0
C44 C 0.90549 0.29648 0.93857 0.0
C45 C 0.89866 0.27807 0.89172 0.0
N46 N 0.90172 0.28748 0.8475 0.0
O47 O 0.91831 0.28178 0.0416 0.0
H48 H 0.90872 0.30368 0.97405 0.0
H49 H 0.89575 0.26736 0.88238 0.0
O50 O 0.89167 0.29156 0.06157 0.0
C51 C 0.92803 0.27268 0.03696 0.0
O52 O 0.92464 0.25964 0.02389 0.0
N53 N 0.88221 0.26656 0.00985 0.0
C54 C 0.85863 0.24924 0.99722 0.0
C55 C 0.85818 0.26119 0.03453 0.0
C56 C 0.87016 0.26954 0.04129 0.0
C57 C 0.88287 0.25481 0.97448 0.0
C58 C 0.87117 0.24619 0.96645 0.0
H59 H 0.8699 0.27771 0.07523 0.0
H60 H 0.89283 0.25158 0.95541 0.0
H61 H 0.90219 0.28317 0.16439 0.0
H62 H 0.8976 0.23989 0.1974 0.0
H63 H 0.90941 0.3088 0.85607 0.0
H64 H 0.84893 0.26358 0.06136 0.0
H65 H 0.87212 0.23693 0.93807 0.0
C66 C 0.74509 0.90042 0.08047 0.0
C67 C 0.74736 0.90089 0.14237 0.0
N68 N 0.73478 0.90112 0.17058 0.0
N69 N 0.73115 0.90023 0.06976 0.0
C70 C 0.72514 0.9008 0.12543 0.0
H71 H 0.75307 0.90011 0.04542 0.0
Co72 Co 0.72261 0.89917 0.9937 0.0
C73 C 0.69875 0.8798 0.0141 0.0
O74 O 0.70185 0.8732 0.96321 0.0
N75 N 0.71386 0.89869 0.91629 0.0
C76 C 0.69743 0.90167 0.84495 0.0
C77 C 0.70008 0.90128 0.90645 0.0
C78 C 0.71942 0.89816 0.85953 0.0
N79 N 0.70965 0.89969 0.81536 0.0
O80 O 0.71458 0.9173 0.00627 0.0
H81 H 0.69242 0.90321 0.94186 0.0
H82 H 0.73049 0.89763 0.85001 0.0
O83 O 0.70612 0.89034 0.03088 0.0
C84 C 0.72339 0.92717 0.99822 0.0
O85 O 0.73633 0.92394 0.98266 0.0
N86 N 0.73162 0.88164 0.98166 0.0
C87 C 0.74938 0.85818 0.97163 0.0
C88 C 0.73875 0.85871 0.01605 0.0
C89 C 0.73011 0.87053 0.02068 0.0
C90 C 0.74241 0.88165 0.94093 0.0
C91 C 0.75095 0.86988 0.9332 0.0
H92 H 0.72288 0.87107 0.05845 0.0
H93 H 0.74511 0.89116 0.91714 0.0
H94 H 0.71391 0.90071 0.13278 0.0
H95 H 0.75748 0.90113 0.16478 0.0
H96 H 0.68732 0.90348 0.82389 0.0
H97 H 0.73751 0.85042 0.04937 0.0
H98 H 0.75903 0.8703 0.89863 0.0
C99 C 0.10172 0.74302 0.10581 0.0
C100 C 0.10142 0.74513 0.1678 0.0
N101 N 0.09958 0.73259 0.19526 0.0
N102 N 0.10019 0.7292 0.09416 0.0
C103 C 0.09873 0.72316 0.1494 0.0
H104 H 0.10303 0.75105 0.07146 0.0
Co105 Co 0.1 0.72062 0.01803 0.0
C106 C 0.11715 0.69463 0.0351 0.0
O107 O 0.12255 0.69584 0.98023 0.0
N108 N 0.09928 0.71196 0.94088 0.0
C109 C 0.09391 0.69633 0.86891 0.0
C110 C 0.09436 0.69885 0.93053 0.0
C111 C 0.10133 0.71731 0.88445 0.0
N112 N 0.09825 0.708 0.83998 0.0
O113 O 0.08166 0.71342 0.0343 0.0
H114 H 0.09097 0.69165 0.96571 0.0
H115 H 0.10469 0.72791 0.87537 0.0
O116 O 0.1083 0.70374 0.05405 0.0
C117 C 0.07182 0.72242 0.03109 0.0
O118 O 0.07499 0.73555 0.01867 0.0
N119 N 0.11773 0.72872 0.00207 0.0
C120 C 0.1415 0.74568 0.9875 0.0
C121 C 0.14194 0.73371 0.02471 0.0
C122 C 0.12987 0.72554 0.03244 0.0
C123 C 0.11705 0.74054 0.9672 0.0
C124 C 0.12884 0.74901 0.95828 0.0
H125 H 0.13021 0.71727 0.06588 0.0
H126 H 0.10704 0.74391 0.94904 0.0
H127 H 0.0968 0.71207 0.15568 0.0
H128 H 0.10273 0.75511 0.19072 0.0
H129 H 0.09011 0.68686 0.8471 0.0
H130 H 0.15139 0.73092 0.04935 0.0
H131 H 0.1278 0.7585 0.93144 0.0
C132 C 0.25121 0.90258 0.90876 0.0
C133 C 0.24882 0.90358 0.84708 0.0
N134 N 0.26105 0.90127 0.8177 0.0
N135 N 0.26486 0.8996 0.91827 0.0
C136 C 0.27062 0.899 0.86214 0.0
H137 H 0.24345 0.9036 0.94446 0.0
Co138 Co 0.27276 0.89624 0.99395 0.0
C139 C 0.29658 0.87707 0.96921 0.0
O140 O 0.29294 0.86948 0.01671 0.0
N141 N 0.28072 0.89343 0.07179 0.0
C142 C 0.29629 0.89472 0.1475 0.0
C143 C 0.2944 0.89559 0.08561 0.0
C144 C 0.27444 0.89186 0.12671 0.0
N145 N 0.28369 0.89244 0.1733 0.0
O146 O 0.28127 0.91435 0.9922 0.0
H147 H 0.30245 0.89836 0.05298 0.0
H148 H 0.26327 0.891 0.1333 0.0
O149 O 0.28945 0.88801 0.95538 0.0
C150 C 0.27368 0.92332 0.01984 0.0
O151 O 0.26169 0.91908 0.04328 0.0
N152 N 0.26321 0.87884 0.99564 0.0
C153 C 0.24503 0.85575 0.99313 0.0
C154 C 0.25657 0.85646 0.95358 0.0
C155 C 0.2653 0.86826 0.95441 0.0
C156 C 0.2516 0.87863 0.03191 0.0
C157 C 0.24257 0.86708 0.03251 0.0
H158 H 0.27323 0.86911 0.91954 0.0
H159 H 0.24882 0.88782 0.05803 0.0
H160 H 0.2816 0.89686 0.854 0.0
H161 H 0.23874 0.90541 0.82573 0.0
H162 H 0.30602 0.89651 0.17184 0.0
H163 H 0.25844 0.84831 0.92012 0.0
H164 H 0.23355 0.8672 0.0626 0.0
C165 C 0.1009 0.25029 0.90089 0.0
C166 C 0.10011 0.24798 0.83911 0.0
N167 N 0.09982 0.26053 0.81064 0.0
N168 N 0.10122 0.26423 0.91139 0.0
C169 C 0.10033 0.27019 0.85574 0.0
H170 H 0.1015 0.24233 0.93592 0.0
Co171 Co 0.10314 0.27267 0.98711 0.0
C172 C 0.12051 0.29812 0.96505 0.0
O173 O 0.12725 0.29596 0.01648 0.0
N174 N 0.10447 0.28112 0.0647 0.0
C175 C 0.10078 0.29663 0.1391 0.0
C176 C 0.10042 0.29442 0.07729 0.0
C177 C 0.10676 0.27534 0.12016 0.0
N178 N 0.1047 0.28457 0.16603 0.0
O179 O 0.08456 0.27998 0.9805 0.0
H180 H 0.09684 0.30192 0.04368 0.0
H181 H 0.10933 0.26445 0.12763 0.0
O182 O 0.11082 0.28962 0.94842 0.0
C183 C 0.07582 0.27156 0.00477 0.0
O184 O 0.0806 0.25967 0.02708 0.0
N185 N 0.12101 0.26427 0.99398 0.0
C186 C 0.14438 0.24645 0.99505 0.0
C187 C 0.14417 0.25846 0.95803 0.0
C188 C 0.13226 0.26706 0.9571 0.0
C189 C 0.12097 0.25247 0.02907 0.0
C190 C 0.13261 0.2436 0.03139 0.0
H191 H 0.13184 0.2753 0.92348 0.0
H192 H 0.11147 0.24936 0.05235 0.0
H193 H 0.09998 0.2814 0.84853 0.0
H194 H 0.10019 0.23782 0.81702 0.0
H195 H 0.09761 0.30612 0.16254 0.0
H196 H 0.15276 0.26071 0.92717 0.0
H197 H 0.13217 0.23431 0.05979 0.0
C198 C 0.74727 0.10096 0.90156 0.0
C199 C 0.74986 0.10041 0.8399 0.0
N200 N 0.73743 0.10005 0.81051 0.0
N201 N 0.73329 0.10109 0.91098 0.0
C202 C 0.72757 0.10033 0.85476 0.0
H203 H 0.75508 0.10142 0.9373 0.0
Co204 Co 0.72462 0.10258 0.98651 0.0
C205 C 0.69924 0.12001 0.96391 0.0
O206 O 0.70141 0.12675 0.01534 0.0
N207 N 0.71594 0.10347 0.06394 0.0
C208 C 0.70013 0.09949 0.13681 0.0
C209 C 0.7025 0.0997 0.07514 0.0
C210 C 0.72164 0.10497 0.12014 0.0
N211 N 0.71222 0.10275 0.16532 0.0
O212 O 0.71743 0.08402 0.97777 0.0
H213 H 0.69496 0.09672 0.04058 0.0
H214 H 0.73265 0.10667 0.12837 0.0
O215 O 0.70769 0.11025 0.94761 0.0
C216 C 0.72558 0.07498 0.00166 0.0
O217 O 0.73741 0.0794 0.02599 0.0
N218 N 0.73278 0.12056 0.99529 0.0
C219 C 0.74944 0.14473 0.00184 0.0
C220 C 0.73804 0.14401 0.96147 0.0
C221 C 0.73005 0.13173 0.9579 0.0
C222 C 0.7442 0.12089 0.03269 0.0
C223 C 0.75247 0.13294 0.03777 0.0
H224 H 0.72223 0.13105 0.9225 0.0
H225 H 0.74752 0.11145 0.05574 0.0
H226 H 0.7164 0.10027 0.84631 0.0
H227 H 0.7601 0.10027 0.81845 0.0
H228 H 0.69032 0.09678 0.15869 0.0
H229 H 0.73556 0.15271 0.93155 0.0
H230 H 0.76161 0.13273 0.06713 0.0
C231 C 0.90086 0.74519 0.92239 0.0
C232 C 0.90245 0.74772 0.86099 0.0
N233 N 0.90262 0.73528 0.83146 0.0
N234 N 0.89991 0.73124 0.93166 0.0
C235 C 0.90125 0.72547 0.87566 0.0
H236 H 0.90016 0.75301 0.95801 0.0
Co237 Co 0.89685 0.72257 0.0068 0.0
C238 C 0.87721 0.69962 0.97484 0.0
O239 O 0.86928 0.70312 0.02151 0.0
N240 N 0.89467 0.71386 0.08422 0.0
C241 C 0.89498 0.6979 0.15878 0.0
C242 C 0.89409 0.69996 0.09693 0.0
C243 C 0.89689 0.71986 0.13944 0.0
N244 N 0.89672 0.71048 0.18567 0.0
O245 O 0.91514 0.71451 0.00265 0.0
H246 H 0.89393 0.69163 0.06355 0.0
H247 H 0.89977 0.73075 0.14546 0.0
O248 O 0.88868 0.70624 0.96482 0.0
C249 C 0.92414 0.72272 0.02649 0.0
O250 O 0.91978 0.73489 0.04762 0.0
N251 N 0.87893 0.73153 0.0111 0.0
C252 C 0.85503 0.74889 0.0101 0.0
C253 C 0.85808 0.74001 0.96071 0.0
C254 C 0.87001 0.73144 0.96217 0.0
C255 C 0.87618 0.74022 0.05901 0.0
C256 C 0.86412 0.74853 0.06045 0.0
H257 H 0.87245 0.7253 0.92215 0.0
H258 H 0.88361 0.74148 0.09519 0.0
H259 H 0.90087 0.7143 0.86736 0.0
H260 H 0.90335 0.75795 0.8399 0.0
H261 H 0.89475 0.68786 0.18181 0.0
H262 H 0.85178 0.74011 0.9197 0.0
H263 H 0.86232 0.75497 0.10028 0.0
C264 C 0.75321 0.60135 0.59562 0.0
C265 C 0.7509 0.60045 0.65741 0.0
N266 N 0.76345 0.59944 0.68566 0.0
N267 N 0.76714 0.60102 0.58491 0.0
C268 C 0.77308 0.59961 0.64042 0.0
H269 H 0.74527 0.60253 0.56078 0.0
Co270 Co 0.77573 0.60299 0.5094 0.0
C271 C 0.80141 0.61996 0.53454 0.0
O272 O 0.79954 0.62699 0.48364 0.0
N273 N 0.78434 0.60438 0.43205 0.0
C274 C 0.79995 0.60069 0.35799 0.0
C275 C 0.79771 0.6005 0.41981 0.0
C276 C 0.77855 0.60636 0.37634 0.0
N277 N 0.78784 0.60431 0.33065 0.0
O278 O 0.78269 0.58426 0.51513 0.0
H279 H 0.80523 0.59707 0.45363 0.0
H280 H 0.76761 0.60862 0.36862 0.0
O281 O 0.79276 0.61023 0.54922 0.0
C282 C 0.77417 0.57573 0.4901 0.0
O283 O 0.76238 0.58077 0.46774 0.0
N284 N 0.76773 0.62107 0.5033 0.0
C285 C 0.75112 0.6453 0.50023 0.0
C286 C 0.7626 0.64432 0.54004 0.0
C287 C 0.77061 0.63202 0.54174 0.0
C288 C 0.75621 0.62165 0.4665 0.0
C289 C 0.74798 0.63375 0.46307 0.0
H290 H 0.77852 0.63112 0.57663 0.0
H291 H 0.75281 0.61235 0.44262 0.0
H292 H 0.78425 0.59867 0.64746 0.0
H293 H 0.74078 0.60101 0.67973 0.0
H294 H 0.8095 0.59758 0.33487 0.0
H295 H 0.76513 0.65283 0.57091 0.0
H296 H 0.73878 0.63375 0.43406 0.0
C297 C 0.40078 0.75622 0.61248 0.0
C298 C 0.40084 0.75405 0.67442 0.0
N299 N 0.40093 0.76668 0.70217 0.0
N300 N 0.40072 0.77014 0.60127 0.0
C301 C 0.40093 0.77625 0.65676 0.0
H302 H 0.40076 0.74816 0.57775 0.0
Co303 Co 0.40021 0.77851 0.52485 0.0
C304 C 0.38079 0.80264 0.54029 0.0
O305 O 0.3749 0.79985 0.48748 0.0
N306 N 0.40015 0.78704 0.44739 0.0
C307 C 0.40396 0.80324 0.376 0.0
C308 C 0.4037 0.8006 0.43745 0.0
C309 C 0.39871 0.78159 0.39078 0.0
N310 N 0.40084 0.79124 0.34654 0.0
O311 O 0.41805 0.78709 0.53967 0.0
H312 H 0.40623 0.8081 0.47283 0.0
H313 H 0.39687 0.77064 0.3815 0.0
O314 O 0.39081 0.79492 0.55982 0.0
C315 C 0.42869 0.77902 0.54157 0.0
O316 O 0.42685 0.76539 0.53668 0.0
N317 N 0.38306 0.76909 0.51014 0.0
C318 C 0.36053 0.75043 0.4975 0.0
C319 C 0.35953 0.7621 0.53622 0.0
C320 C 0.37102 0.77111 0.54304 0.0
C321 C 0.38434 0.75752 0.474 0.0
C322 C 0.37314 0.74825 0.46588 0.0
H323 H 0.37043 0.77907 0.57787 0.0
H324 H 0.39441 0.75496 0.45423 0.0
H325 H 0.40087 0.7875 0.66377 0.0
H326 H 0.40095 0.74397 0.69721 0.0
H327 H 0.4064 0.81322 0.35489 0.0
H328 H 0.35026 0.7638 0.56388 0.0
H329 H 0.37454 0.7392 0.43662 0.0
C330 C 0.24503 0.39691 0.60583 0.0
C331 C 0.24718 0.39735 0.66779 0.0
N332 N 0.23465 0.3992 0.69533 0.0
N333 N 0.2312 0.39836 0.59432 0.0
C334 C 0.22519 0.39993 0.64957 0.0
H335 H 0.25302 0.39546 0.57139 0.0
Co336 Co 0.22261 0.39809 0.51826 0.0
C337 C 0.19654 0.38132 0.53751 0.0
O338 O 0.19801 0.37532 0.48396 0.0
N339 N 0.21395 0.39836 0.44101 0.0
C340 C 0.19832 0.40351 0.36871 0.0
C341 C 0.20081 0.40318 0.43035 0.0
C342 C 0.21935 0.39628 0.38468 0.0
N343 N 0.21004 0.39922 0.34003 0.0
O344 O 0.21582 0.41669 0.53154 0.0
H345 H 0.1936 0.40667 0.46529 0.0
H346 H 0.23 0.39308 0.37577 0.0
O347 O 0.20555 0.3904 0.55536 0.0
C348 C 0.2251 0.42618 0.5248 0.0
O349 O 0.23801 0.42241 0.51132 0.0
N350 N 0.23035 0.38008 0.50525 0.0
C351 C 0.24693 0.35593 0.49577 0.0
C352 C 0.23522 0.35621 0.53446 0.0
C353 C 0.22721 0.36846 0.5394 0.0
C354 C 0.242 0.38008 0.46915 0.0
C355 C 0.25023 0.36804 0.4625 0.0
H356 H 0.21916 0.36876 0.57384 0.0
H357 H 0.24552 0.38976 0.44855 0.0
H358 H 0.21409 0.40177 0.65596 0.0
H359 H 0.25717 0.39606 0.69064 0.0
H360 H 0.18886 0.40725 0.3467 0.0
H361 H 0.23255 0.34721 0.56235 0.0
H362 H 0.25958 0.3685 0.43444 0.0
C363 C 0.60071 0.24854 0.62021 0.0
C364 C 0.60068 0.25071 0.68215 0.0
N365 N 0.59948 0.23814 0.70988 0.0
N366 N 0.59969 0.23465 0.60895 0.0
C367 C 0.59877 0.22861 0.66443 0.0
H368 H 0.60146 0.25658 0.58557 0.0
Co369 Co 0.59973 0.22616 0.53263 0.0
C370 C 0.61771 0.20081 0.54781 0.0
O371 O 0.62311 0.2026 0.49327 0.0
N372 N 0.59927 0.21756 0.45524 0.0
C373 C 0.59425 0.20167 0.38392 0.0
C374 C 0.5947 0.2043 0.44536 0.0
C375 C 0.60115 0.22285 0.39859 0.0
N376 N 0.59828 0.21338 0.35438 0.0
O377 O 0.5816 0.21832 0.54817 0.0
H378 H 0.59163 0.19703 0.48079 0.0
H379 H 0.60385 0.23362 0.38925 0.0
O380 O 0.60854 0.20946 0.568 0.0
C381 C 0.57117 0.22664 0.55093 0.0
O382 O 0.57335 0.24025 0.5476 0.0
N383 N 0.61722 0.2348 0.51704 0.0
C384 C 0.64033 0.25274 0.5047 0.0
C385 C 0.64108 0.2408 0.54199 0.0
C386 C 0.62933 0.23212 0.54852 0.0
C387 C 0.61626 0.24652 0.48165 0.0
C388 C 0.62773 0.25544 0.47371 0.0
H389 H 0.6298 0.22392 0.5823 0.0
H390 H 0.60623 0.24947 0.46245 0.0
H391 H 0.59778 0.21741 0.67135 0.0
H392 H 0.60135 0.26077 0.70494 0.0
H393 H 0.59106 0.1919 0.36287 0.0
H394 H 0.65036 0.23865 0.56894 0.0
H395 H 0.62655 0.26465 0.44523 0.0
C396 C 0.7516 0.39863 0.37837 0.0
C397 C 0.74947 0.39857 0.31637 0.0
N398 N 0.76205 0.39986 0.28877 0.0
N399 N 0.76547 0.39976 0.38978 0.0
C400 C 0.77154 0.40068 0.33435 0.0
H401 H 0.74353 0.39789 0.41291 0.0
Co402 Co 0.774 0.40006 0.46602 0.0
C403 C 0.79941 0.38216 0.45192 0.0
O404 O 0.79766 0.377 0.50694 0.0
N405 N 0.78266 0.4009 0.54332 0.0
C406 C 0.79854 0.40618 0.61433 0.0
C407 C 0.79584 0.40568 0.55291 0.0
C408 C 0.77746 0.39893 0.6001 0.0
N409 N 0.78692 0.40195 0.64413 0.0
O410 O 0.78159 0.41819 0.44863 0.0
H411 H 0.80304 0.40882 0.51728 0.0
H412 H 0.76677 0.396 0.60969 0.0
O413 O 0.79072 0.3912 0.4311 0.0
C414 C 0.7727 0.42812 0.45221 0.0
O415 O 0.75956 0.42508 0.46492 0.0
N416 N 0.76546 0.38263 0.48317 0.0
C417 C 0.74748 0.35963 0.49832 0.0
C418 C 0.75941 0.35863 0.46102 0.0
C419 C 0.76812 0.37032 0.45309 0.0
C420 C 0.75373 0.38384 0.51833 0.0
C421 C 0.74482 0.37243 0.52778 0.0
H422 H 0.77634 0.36964 0.41946 0.0
H423 H 0.75081 0.39399 0.5364 0.0
H424 H 0.78273 0.4018 0.32757 0.0
H425 H 0.73943 0.39782 0.29345 0.0
H426 H 0.80828 0.40952 0.63518 0.0
H427 H 0.76155 0.34917 0.43524 0.0
H428 H 0.73565 0.37381 0.55635 0.0
C429 C 0.59968 0.75403 0.37978 0.0
C430 C 0.59907 0.7519 0.31788 0.0
N431 N 0.59879 0.76454 0.29015 0.0
N432 N 0.59985 0.76794 0.39104 0.0
C433 C 0.59918 0.77407 0.33571 0.0
H434 H 0.60014 0.74597 0.41443 0.0
Co435 Co 0.60109 0.77624 0.46728 0.0
C436 C 0.62002 0.80063 0.44815 0.0
O437 O 0.62654 0.79781 0.49951 0.0
N438 N 0.60183 0.78469 0.54482 0.0
C439 C 0.59852 0.8007 0.61754 0.0
C440 C 0.59852 0.79827 0.5559 0.0
C441 C 0.60331 0.779 0.60097 0.0
N442 N 0.6015 0.78854 0.64583 0.0
O443 O 0.583 0.78459 0.45633 0.0
H444 H 0.59577 0.80587 0.52126 0.0
H445 H 0.60521 0.76804 0.60959 0.0
O446 O 0.60982 0.79286 0.43072 0.0
C447 C 0.57232 0.77656 0.45646 0.0
O448 O 0.57416 0.76292 0.46092 0.0
N449 N 0.61859 0.76714 0.47801 0.0
C450 C 0.64229 0.74991 0.48796 0.0
C451 C 0.64207 0.76117 0.44684 0.0
C452 C 0.63003 0.76944 0.44155 0.0
C453 C 0.61837 0.75572 0.51548 0.0
C454 C 0.6302 0.74719 0.52243 0.0
H455 H 0.62975 0.77719 0.40575 0.0
H456 H 0.60869 0.7527 0.53753 0.0
H457 H 0.5989 0.78533 0.32909 0.0
H458 H 0.59917 0.74181 0.29518 0.0
H459 H 0.59588 0.81049 0.63985 0.0
H460 H 0.65101 0.76338 0.41788 0.0
H461 H 0.62963 0.73815 0.55227 0.0
C462 C 0.25048 0.59976 0.39457 0.0
C463 C 0.25297 0.59923 0.33284 0.0
N464 N 0.2405 0.59896 0.30381 0.0
N465 N 0.23651 0.59999 0.4044 0.0
C466 C 0.23071 0.59928 0.34834 0.0
H467 H 0.25835 0.60012 0.43007 0.0
Co468 Co 0.22787 0.60147 0.48004 0.0
C469 C 0.20283 0.61945 0.45845 0.0
O470 O 0.20501 0.62591 0.51053 0.0
N471 N 0.21917 0.60236 0.55744 0.0
C472 C 0.20324 0.59846 0.62988 0.0
C473 C 0.2057 0.59861 0.56829 0.0
C474 C 0.22476 0.60395 0.61378 0.0
N475 N 0.21528 0.60176 0.6587 0.0
O476 O 0.22031 0.58306 0.47052 0.0
H477 H 0.19821 0.59566 0.53351 0.0
H478 H 0.23575 0.60575 0.62232 0.0
O479 O 0.21116 0.60967 0.44136 0.0
C480 C 0.22869 0.5741 0.49345 0.0
O481 O 0.24066 0.57863 0.51601 0.0
N482 N 0.23649 0.61915 0.49001 0.0
C483 C 0.25452 0.6423 0.49735 0.0
C484 C 0.24281 0.64252 0.45859 0.0
C485 C 0.23409 0.63072 0.45454 0.0
C486 C 0.24806 0.61866 0.52649 0.0
C487 C 0.257 0.63017 0.53198 0.0
H488 H 0.22606 0.63067 0.41994 0.0
H489 H 0.25091 0.60892 0.54851 0.0
H490 H 0.21952 0.59925 0.34022 0.0
H491 H 0.26318 0.59902 0.31111 0.0
H492 H 0.19338 0.59578 0.65151 0.0
H493 H 0.24084 0.65141 0.42899 0.0
H494 H 0.26606 0.62938 0.56165 0.0
C495 C 0.39979 0.25018 0.36849 0.0
C496 C 0.40014 0.25256 0.30676 0.0
N497 N 0.39996 0.24005 0.27783 0.0
N498 N 0.39936 0.23624 0.37865 0.0
C499 C 0.39959 0.23035 0.32281 0.0
H500 H 0.3999 0.25809 0.40385 0.0
Co501 Co 0.39882 0.22778 0.45461 0.0
C502 C 0.38165 0.20195 0.43906 0.0
O503 O 0.37602 0.20388 0.49309 0.0
N504 N 0.39886 0.21931 0.53218 0.0
C505 C 0.40442 0.20407 0.60533 0.0
C506 C 0.40432 0.20647 0.5437 0.0
C507 C 0.3959 0.22454 0.58802 0.0
N508 N 0.39914 0.21549 0.63337 0.0
O509 O 0.41722 0.2203 0.4418 0.0
H510 H 0.40839 0.19941 0.50936 0.0
H511 H 0.39181 0.23491 0.5959 0.0
O512 O 0.39067 0.21075 0.41872 0.0
C513 C 0.42763 0.22867 0.44284 0.0
O514 O 0.42537 0.24222 0.44857 0.0
N515 N 0.38101 0.23603 0.46697 0.0
C516 C 0.35687 0.25256 0.47771 0.0
C517 C 0.35705 0.24082 0.4392 0.0
C518 C 0.36929 0.23284 0.43361 0.0
C519 C 0.38119 0.24783 0.50217 0.0
C520 C 0.36915 0.25603 0.50952 0.0
H521 H 0.36945 0.22464 0.39977 0.0
H522 H 0.39093 0.25125 0.52268 0.0
H523 H 0.39945 0.21914 0.31555 0.0
H524 H 0.40065 0.26277 0.28528 0.0
H525 H 0.40866 0.19487 0.62761 0.0
H526 H 0.34791 0.23802 0.41241 0.0
H527 H 0.36966 0.26539 0.53755 0.0
C528 C 0.2986 0.09937 0.73248 0.0
C529 C 0.28737 0.09677 0.77251 0.0
C530 C 0.29645 0.09947 0.66946 0.0
C531 C 0.27251 0.08626 0.55096 0.0
H532 H 0.28882 0.11568 0.45131 0.0
C533 C 0.25728 0.09378 0.29876 0.0
C534 C 0.26789 0.09762 0.2574 0.0
C535 C 0.25994 0.09348 0.36135 0.0
C536 C 0.28435 0.10727 0.47832 0.0
H537 H 0.26511 0.09205 0.77763 0.0
H538 H 0.26134 0.09233 0.66778 0.0
H539 H 0.29299 0.11556 0.56098 0.0
H540 H 0.28965 0.10425 0.25005 0.0
H541 H 0.29437 0.10335 0.35888 0.0
H542 H 0.26395 0.07789 0.4685 0.0
C543 C 0.27181 0.09426 0.68515 0.0
C544 C 0.28672 0.10723 0.54118 0.0
C545 C 0.27394 0.09426 0.74813 0.0
C546 C 0.28126 0.10108 0.28031 0.0
C547 C 0.28392 0.10074 0.34292 0.0
C548 C 0.2702 0.08626 0.4881 0.0
C549 C 0.28304 0.09685 0.64512 0.0
C550 C 0.28076 0.09677 0.57821 0.0
C551 C 0.27328 0.09698 0.38426 0.0
C552 C 0.27603 0.09681 0.451 0.0
H553 H 0.30903 0.10144 0.74992 0.0
H554 H 0.30533 0.1014 0.63975 0.0
H555 H 0.26795 0.07793 0.57819 0.0
H556 H 0.24692 0.09091 0.2829 0.0
H557 H 0.25144 0.0907 0.39186 0.0
C558 C 0.90946 0.29358 0.74293 0.0
C559 C 0.90131 0.28525 0.78238 0.0
C560 C 0.90919 0.29132 0.68003 0.0
C561 C 0.88812 0.27458 0.55767 0.0
H562 H 0.92279 0.27754 0.4657 0.0
C563 C 0.89298 0.25623 0.30768 0.0
C564 C 0.90022 0.26513 0.26734 0.0
C565 C 0.89302 0.25888 0.3703 0.0
C566 C 0.913 0.27681 0.49068 0.0
H567 H 0.88627 0.26813 0.78576 0.0
H568 H 0.88614 0.26392 0.6765 0.0
H569 H 0.92301 0.28167 0.57532 0.0
H570 H 0.91333 0.28371 0.26136 0.0
H571 H 0.91337 0.28836 0.3708 0.0
H572 H 0.87817 0.26952 0.47294 0.0
C573 C 0.89261 0.27234 0.69417 0.0
C574 C 0.91311 0.2792 0.55352 0.0
C575 C 0.89283 0.27464 0.75709 0.0
C576 C 0.90755 0.27672 0.29114 0.0
C577 C 0.90769 0.27931 0.35386 0.0
C578 C 0.88803 0.2721 0.4949 0.0
C579 C 0.9008 0.28064 0.65482 0.0
C580 C 0.90067 0.27812 0.58785 0.0
C581 C 0.90039 0.27044 0.3941 0.0
C582 C 0.90047 0.27319 0.46071 0.0
H583 H 0.91623 0.30175 0.76049 0.0
H584 H 0.9155 0.29804 0.6511 0.0
H585 H 0.8783 0.2739 0.5824 0.0
H586 H 0.88711 0.24731 0.29078 0.0
H587 H 0.8874 0.25178 0.40019 0.0
C588 C 0.71975 0.90705 0.25896 0.0
C589 C 0.73216 0.90119 0.23531 0.0
C590 C 0.71716 0.90697 0.32169 0.0
C591 C 0.72691 0.88858 0.46318 0.0
H592 H 0.71242 0.9219 0.54297 0.0
C593 C 0.72379 0.89315 0.72501 0.0
C594 C 0.71198 0.89984 0.75032 0.0
C595 C 0.72611 0.89332 0.66214 0.0
C596 C 0.71629 0.91244 0.52132 0.0
H597 H 0.75151 0.8905 0.25917 0.0
H598 H 0.74706 0.89047 0.36855 0.0
H599 H 0.71663 0.92219 0.43335 0.0
H600 H 0.69338 0.91205 0.72869 0.0
H601 H 0.69721 0.91202 0.61914 0.0
H602 H 0.72648 0.87877 0.55085 0.0
C603 C 0.7393 0.89508 0.33852 0.0
C604 C 0.71873 0.91262 0.45849 0.0
C605 C 0.74192 0.89524 0.27588 0.0
C606 C 0.70251 0.90666 0.71099 0.0
C607 C 0.70481 0.9068 0.64807 0.0
C608 C 0.72442 0.88837 0.52593 0.0
C609 C 0.72689 0.90094 0.36215 0.0
C610 C 0.72411 0.90071 0.42876 0.0
C611 C 0.71664 0.90015 0.62284 0.0
C612 C 0.71913 0.90032 0.55586 0.0
H613 H 0.71208 0.91183 0.22905 0.0
H614 H 0.70745 0.91147 0.33845 0.0
H615 H 0.73086 0.87915 0.44145 0.0
H616 H 0.73122 0.88764 0.75366 0.0
H617 H 0.73542 0.88822 0.64442 0.0
C618 C 0.09536 0.74051 0.30117 0.0
C619 C 0.09901 0.72981 0.25989 0.0
C620 C 0.09514 0.73792 0.36383 0.0
C621 C 0.10883 0.71342 0.4807 0.0
H622 H 0.07991 0.73025 0.58147 0.0
C623 C 0.101 0.69913 0.7348 0.0
C624 C 0.09858 0.71035 0.77512 0.0
C625 C 0.1011 0.70135 0.67183 0.0
C626 C 0.08812 0.72558 0.55399 0.0
H627 H 0.10533 0.70796 0.25276 0.0
H628 H 0.10453 0.70336 0.36167 0.0
H629 H 0.07973 0.73424 0.47177 0.0
H630 H 0.09419 0.73267 0.78077 0.0
H631 H 0.09447 0.73656 0.67099 0.0
H632 H 0.11713 0.70467 0.5631 0.0
C633 C 0.10204 0.71382 0.34561 0.0
C634 C 0.08804 0.72788 0.49111 0.0
C635 C 0.10231 0.71642 0.28294 0.0
C636 C 0.09626 0.72384 0.75105 0.0
C637 C 0.09626 0.72604 0.68811 0.0
C638 C 0.10886 0.71106 0.54357 0.0
C639 C 0.0985 0.72455 0.38687 0.0
C640 C 0.09843 0.72188 0.45368 0.0
C641 C 0.09866 0.71482 0.6478 0.0
C642 C 0.09854 0.71717 0.58092 0.0
H643 H 0.09262 0.7509 0.2852 0.0
H644 H 0.09253 0.74649 0.39426 0.0
H645 H 0.11712 0.70882 0.45344 0.0
H646 H 0.10293 0.68865 0.75198 0.0
H647 H 0.10288 0.69248 0.64191 0.0
C648 C 0.26802 0.898 0.25985 0.0
C649 C 0.28066 0.89236 0.23757 0.0
C650 C 0.26548 0.89865 0.32252 0.0
C651 C 0.27602 0.88329 0.46938 0.0
H652 H 0.2624 0.91834 0.53734 0.0
C653 C 0.27481 0.89318 0.72843 0.0
C654 C 0.26325 0.90051 0.75265 0.0
C655 C 0.27673 0.89215 0.66549 0.0
C656 C 0.26601 0.90841 0.5191 0.0
H657 H 0.30035 0.88264 0.26323 0.0
H658 H 0.29592 0.88372 0.37279 0.0
H659 H 0.26572 0.91621 0.42758 0.0
H660 H 0.24479 0.91272 0.72887 0.0
H661 H 0.2479 0.91055 0.61938 0.0
H662 H 0.2762 0.87541 0.5606 0.0
C663 C 0.28798 0.88765 0.34179 0.0
C664 C 0.26793 0.9072 0.45619 0.0
C665 C 0.29057 0.88712 0.27919 0.0
C666 C 0.25372 0.90685 0.71211 0.0
C667 C 0.2556 0.90576 0.64914 0.0
C668 C 0.27401 0.88445 0.53224 0.0
C669 C 0.27547 0.89355 0.36414 0.0
C670 C 0.27302 0.89466 0.43072 0.0
C671 C 0.26711 0.89835 0.62501 0.0
C672 C 0.26905 0.89706 0.55796 0.0
H673 H 0.26025 0.90227 0.22898 0.0
H674 H 0.25569 0.90316 0.33845 0.0
H675 H 0.27979 0.87343 0.45092 0.0
H676 H 0.2823 0.888 0.75787 0.0
H677 H 0.28583 0.88654 0.6486 0.0
C678 C 0.1049 0.27586 0.72207 0.0
C679 C 0.09989 0.26307 0.74575 0.0
C680 C 0.10543 0.27813 0.65922 0.0
C681 C 0.09128 0.26498 0.51237 0.0
H682 H 0.12331 0.28474 0.44457 0.0
C683 C 0.10146 0.26846 0.25334 0.0
C684 C 0.10503 0.28179 0.23054 0.0
C685 C 0.10109 0.26601 0.31611 0.0
C686 C 0.11425 0.2793 0.4629 0.0
H687 H 0.09123 0.24275 0.7212 0.0
H688 H 0.09255 0.24654 0.61182 0.0
H689 H 0.12194 0.28084 0.5542 0.0
H690 H 0.11136 0.30288 0.25556 0.0
H691 H 0.11071 0.29861 0.36529 0.0
H692 H 0.08369 0.26333 0.42079 0.0
C693 C 0.0959 0.25491 0.64193 0.0
C694 C 0.11343 0.27709 0.52576 0.0
C695 C 0.0953 0.25267 0.70481 0.0
C696 C 0.10847 0.29254 0.27184 0.0
C697 C 0.10821 0.29006 0.33458 0.0
C698 C 0.09215 0.26711 0.44948 0.0
C699 C 0.10103 0.26765 0.61831 0.0
C700 C 0.10192 0.26994 0.55133 0.0
C701 C 0.10439 0.2768 0.35741 0.0
C702 C 0.10362 0.27433 0.42409 0.0
H703 H 0.10868 0.28408 0.75187 0.0
H704 H 0.10927 0.28814 0.64273 0.0
H705 H 0.08215 0.25964 0.53051 0.0
H706 H 0.0986 0.26001 0.22278 0.0
H707 H 0.09822 0.25566 0.33236 0.0
C708 C 0.72293 0.09407 0.72052 0.0
C709 C 0.73514 0.10006 0.74552 0.0
C710 C 0.72064 0.09427 0.65757 0.0
C711 C 0.7305 0.11324 0.51778 0.0
H712 H 0.71695 0.07983 0.43563 0.0
C713 C 0.72646 0.10981 0.25499 0.0
C714 C 0.71486 0.10264 0.23024 0.0
C715 C 0.72911 0.1095 0.3177 0.0
C716 C 0.72055 0.08932 0.45789 0.0
H717 H 0.75442 0.11112 0.72385 0.0
H718 H 0.75046 0.1114 0.61405 0.0
H719 H 0.72108 0.07927 0.5452 0.0
H720 H 0.69698 0.08947 0.25305 0.0
H721 H 0.70131 0.08935 0.36185 0.0
H722 H 0.7298 0.12337 0.4308 0.0
C723 C 0.74265 0.10657 0.64321 0.0
C724 C 0.72295 0.08897 0.52072 0.0
C725 C 0.74499 0.10627 0.70608 0.0
C726 C 0.70593 0.09525 0.27007 0.0
C727 C 0.70854 0.09501 0.3327 0.0
C728 C 0.72802 0.11362 0.45498 0.0
C729 C 0.73045 0.10057 0.61823 0.0
C730 C 0.72794 0.10093 0.55139 0.0
C731 C 0.72019 0.10207 0.35738 0.0
C732 C 0.72299 0.10166 0.4242 0.0
H733 H 0.7152 0.08911 0.74955 0.0
H734 H 0.71108 0.08966 0.63975 0.0
H735 H 0.73418 0.12268 0.54025 0.0
H736 H 0.73349 0.11575 0.22606 0.0
H737 H 0.73827 0.11495 0.33493 0.0
C738 C 0.90756 0.72 0.7423 0.0
C739 C 0.90317 0.73298 0.76631 0.0
C740 C 0.90762 0.71764 0.67931 0.0
C741 C 0.90713 0.73611 0.53019 0.0
H742 H 0.89383 0.70028 0.46924 0.0
C743 C 0.895 0.72643 0.2747 0.0
C744 C 0.89854 0.71325 0.24999 0.0
C745 C 0.8962 0.72893 0.33737 0.0
C746 C 0.89775 0.71028 0.48542 0.0
H747 H 0.89529 0.75363 0.74201 0.0
H748 H 0.89543 0.74954 0.63269 0.0
H749 H 0.89484 0.70439 0.57871 0.0
H750 H 0.90658 0.69255 0.27216 0.0
H751 H 0.90868 0.69691 0.38102 0.0
H752 H 0.90996 0.74203 0.4368 0.0
C753 C 0.89904 0.74123 0.66253 0.0
C754 C 0.89834 0.71264 0.54831 0.0
C755 C 0.89897 0.74358 0.72547 0.0
C756 C 0.90351 0.70273 0.28952 0.0
C757 C 0.90471 0.70524 0.35211 0.0
C758 C 0.90655 0.73375 0.46726 0.0
C759 C 0.9033 0.72821 0.6386 0.0
C760 C 0.903 0.7256 0.57156 0.0
C761 C 0.90097 0.71833 0.37698 0.0
C762 C 0.90182 0.72082 0.44403 0.0
H763 H 0.91107 0.71165 0.77206 0.0
H764 H 0.91118 0.70755 0.66249 0.0
H765 H 0.91098 0.74615 0.54643 0.0
H766 H 0.89097 0.73471 0.24584 0.0
H767 H 0.89305 0.73908 0.35495 0.0
C768 C 0.79587 0.60771 0.2246 0.0
C769 C 0.7851 0.60441 0.26602 0.0
C770 C 0.7934 0.60733 0.16183 0.0
C771 C 0.77012 0.59146 0.04697 0.0
H772 H 0.78452 0.62086 0.94184 0.0
C773 C 0.75555 0.59505 0.79157 0.0
C774 C 0.76606 0.59933 0.75052 0.0
C775 C 0.75786 0.59553 0.85446 0.0
C776 C 0.78058 0.61246 0.9704 0.0
H777 H 0.76329 0.59807 0.2738 0.0
H778 H 0.75895 0.59752 0.16428 0.0
H779 H 0.78849 0.62219 0.05141 0.0
H780 H 0.78732 0.60748 0.74417 0.0
H781 H 0.79148 0.6079 0.8533 0.0
H782 H 0.76234 0.58163 0.96604 0.0
C783 C 0.76933 0.60035 0.18043 0.0
C784 C 0.78284 0.61325 0.03324 0.0
C785 C 0.77177 0.60083 0.24322 0.0
C786 C 0.77902 0.60393 0.77408 0.0
C787 C 0.78135 0.60437 0.83692 0.0
C788 C 0.76793 0.59063 0.98407 0.0
C789 C 0.78013 0.60355 0.13901 0.0
C790 C 0.77763 0.60277 0.07225 0.0
C791 C 0.77077 0.60028 0.87796 0.0
C792 C 0.77313 0.60111 0.94495 0.0
H793 H 0.80621 0.61061 0.24077 0.0
H794 H 0.80198 0.60974 0.13111 0.0
H795 H 0.76615 0.58311 0.07572 0.0
H796 H 0.7455 0.59132 0.77521 0.0
H797 H 0.74942 0.59242 0.88467 0.0
C798 C 0.40793 0.79802 0.24202 0.0
C799 C 0.40059 0.78898 0.28149 0.0
C800 C 0.40778 0.79579 0.17914 0.0
C801 C 0.38808 0.77743 0.05718 0.0
H802 H 0.42227 0.78338 0.96457 0.0
C803 C 0.39437 0.75981 0.8069 0.0
C804 C 0.40077 0.76937 0.76675 0.0
C805 C 0.39417 0.76241 0.86952 0.0
C806 C 0.41261 0.78181 0.98975 0.0
H807 H 0.38714 0.77059 0.28509 0.0
H808 H 0.38725 0.76644 0.17575 0.0
H809 H 0.4223 0.78736 0.07429 0.0
H810 H 0.41208 0.78909 0.76092 0.0
H811 H 0.4117 0.79365 0.87043 0.0
H812 H 0.37848 0.77168 0.97252 0.0
C813 C 0.39297 0.77539 0.19342 0.0
C814 C 0.41261 0.78411 0.05262 0.0
C815 C 0.39306 0.77767 0.25633 0.0
C816 C 0.40697 0.78159 0.79062 0.0
C817 C 0.40687 0.78413 0.85333 0.0
C818 C 0.38812 0.77504 0.99437 0.0
C819 C 0.40034 0.78442 0.15405 0.0
C820 C 0.40034 0.78196 0.08712 0.0
C821 C 0.40045 0.77457 0.89342 0.0
C822 C 0.40038 0.77722 0.96001 0.0
H823 H 0.41397 0.80675 0.25955 0.0
H824 H 0.41343 0.80306 0.15015 0.0
H825 H 0.37839 0.7759 0.08213 0.0
H826 H 0.38937 0.75039 0.78985 0.0
H827 H 0.38925 0.75479 0.89935 0.0
C828 C 0.20129 0.39644 0.23469 0.0
C829 C 0.21245 0.39894 0.27521 0.0
C830 C 0.20355 0.39645 0.17176 0.0
C831 C 0.22769 0.40993 0.0546 0.0
H832 H 0.2112 0.38099 0.95285 0.0
C833 C 0.24257 0.40339 0.80126 0.0
C834 C 0.23189 0.39971 0.75998 0.0
C835 C 0.24002 0.40348 0.86396 0.0
C836 C 0.21573 0.38927 0.98045 0.0
H837 H 0.23472 0.40358 0.28125 0.0
H838 H 0.23868 0.40349 0.1715 0.0
H839 H 0.20708 0.38069 0.0625 0.0
H840 H 0.21008 0.39321 0.75289 0.0
H841 H 0.20554 0.39378 0.86184 0.0
H842 H 0.23624 0.4186 0.97271 0.0
C843 C 0.22817 0.40156 0.18846 0.0
C844 C 0.21338 0.38907 0.04332 0.0
C845 C 0.22593 0.40144 0.25137 0.0
C846 C 0.21854 0.39626 0.78306 0.0
C847 C 0.21597 0.3964 0.84576 0.0
C848 C 0.22997 0.41018 0.99172 0.0
C849 C 0.21701 0.39909 0.14795 0.0
C850 C 0.21938 0.39937 0.0811 0.0
C851 C 0.2267 0.39994 0.88702 0.0
C852 C 0.22407 0.39982 0.95386 0.0
H853 H 0.19082 0.39437 0.2517 0.0
H854 H 0.19472 0.39462 0.14168 0.0
H855 H 0.23227 0.41814 0.08242 0.0
H856 H 0.25293 0.40624 0.78524 0.0
H857 H 0.24858 0.40611 0.8944 0.0
C858 C 0.60697 0.22634 0.26397 0.0
C859 C 0.59865 0.2156 0.2893 0.0
C860 C 0.60715 0.22861 0.20105 0.0
C861 C 0.58676 0.22137 0.06058 0.0
H862 H 0.62159 0.23138 0.97983 0.0
C863 C 0.59227 0.22373 0.79829 0.0
C864 C 0.59938 0.23544 0.77448 0.0
C865 C 0.59221 0.22114 0.861 0.0
C866 C 0.61176 0.2287 0.00185 0.0
H867 H 0.58398 0.19887 0.26757 0.0
H868 H 0.58467 0.20253 0.15817 0.0
H869 H 0.62151 0.2271 0.08937 0.0
H870 H 0.61221 0.25349 0.79776 0.0
H871 H 0.61205 0.24902 0.90716 0.0
H872 H 0.57706 0.22285 0.97275 0.0
C873 C 0.59087 0.20936 0.18705 0.0
C874 C 0.6117 0.22628 0.06464 0.0
C875 C 0.59062 0.20714 0.24994 0.0
C876 C 0.6065 0.24447 0.81471 0.0
C877 C 0.60653 0.24182 0.87731 0.0
C878 C 0.58684 0.22371 0.99772 0.0
C879 C 0.59909 0.22016 0.1618 0.0
C880 C 0.59919 0.22262 0.09485 0.0
C881 C 0.59937 0.23015 0.90115 0.0
C882 C 0.59933 0.22744 0.96773 0.0
H883 H 0.61342 0.23296 0.29261 0.0
H884 H 0.6135 0.23712 0.18328 0.0
H885 H 0.57689 0.21881 0.08244 0.0
H886 H 0.5866 0.21665 0.76855 0.0
H887 H 0.58668 0.212 0.87802 0.0
C888 C 0.77646 0.40726 0.20063 0.0
C889 C 0.76479 0.40002 0.22419 0.0
C890 C 0.7791 0.40739 0.13795 0.0
C891 C 0.77183 0.38789 0.99662 0.0
H892 H 0.78149 0.42292 0.91677 0.0
C893 C 0.77419 0.39296 0.73459 0.0
C894 C 0.78479 0.40145 0.70928 0.0
C895 C 0.77196 0.39267 0.79754 0.0
C896 C 0.779 0.41301 0.93841 0.0
H897 H 0.74689 0.38705 0.20046 0.0
H898 H 0.75144 0.38733 0.0911 0.0
H899 H 0.77738 0.42261 0.0264 0.0
H900 H 0.80136 0.4163 0.73113 0.0
H901 H 0.79778 0.41543 0.8406 0.0
H902 H 0.77358 0.37824 0.90894 0.0
C903 C 0.75856 0.39289 0.12114 0.0
C904 C 0.77662 0.41284 0.00125 0.0
C905 C 0.75587 0.39285 0.18371 0.0
C906 C 0.79319 0.40953 0.74873 0.0
C907 C 0.79101 0.40918 0.81167 0.0
C908 C 0.7743 0.38803 0.93384 0.0
C909 C 0.77019 0.40018 0.09755 0.0
C910 C 0.77296 0.4003 0.03099 0.0
C911 C 0.78033 0.4008 0.83689 0.0
C912 C 0.77787 0.4006 0.90388 0.0
H913 H 0.78347 0.41297 0.23054 0.0
H914 H 0.7882 0.41301 0.12115 0.0
H915 H 0.76921 0.37803 0.01842 0.0
H916 H 0.76762 0.38645 0.70593 0.0
H917 H 0.76354 0.3862 0.81523 0.0
C918 C 0.60373 0.78006 0.20215 0.0
C919 C 0.59866 0.76726 0.22548 0.0
C920 C 0.60391 0.78254 0.13942 0.0
C921 C 0.58846 0.7702 0.99398 0.0
H922 H 0.62065 0.78902 0.92263 0.0
C923 C 0.59751 0.77297 0.73433 0.0
C924 C 0.60159 0.78606 0.71056 0.0
C925 C 0.5972 0.77074 0.79722 0.0
C926 C 0.61154 0.78386 0.94199 0.0
H927 H 0.58956 0.74715 0.20072 0.0
H928 H 0.59024 0.75131 0.0915 0.0
H929 H 0.61985 0.78508 0.03237 0.0
H930 H 0.60879 0.80697 0.73399 0.0
H931 H 0.6082 0.8031 0.84396 0.0
H932 H 0.58024 0.76886 0.90337 0.0
C933 C 0.59391 0.75952 0.12176 0.0
C934 C 0.61106 0.78163 0.00487 0.0
C935 C 0.59369 0.75706 0.18448 0.0
C936 C 0.6055 0.79682 0.75101 0.0
C937 C 0.60528 0.79456 0.81389 0.0
C938 C 0.58898 0.77237 0.93108 0.0
C939 C 0.59907 0.77227 0.09844 0.0
C940 C 0.59951 0.77477 0.03163 0.0
C941 C 0.60105 0.78152 0.83766 0.0
C942 C 0.60053 0.77921 0.90443 0.0
H943 H 0.60779 0.78811 0.23215 0.0
H944 H 0.60779 0.79255 0.12307 0.0
H945 H 0.57931 0.7651 0.01317 0.0
H946 H 0.59428 0.76453 0.70444 0.0
H947 H 0.59401 0.76055 0.81421 0.0
C948 C 0.24794 0.60523 0.1993 0.0
C949 C 0.23812 0.59903 0.2389 0.0
C950 C 0.24551 0.60558 0.1365 0.0
C951 C 0.22567 0.5881 0.01428 0.0
H952 H 0.23256 0.6225 0.92449 0.0
C953 C 0.20882 0.59436 0.76339 0.0
C954 C 0.21781 0.60172 0.7237 0.0
C955 C 0.21135 0.59415 0.82609 0.0
C956 C 0.23076 0.61275 0.94864 0.0
H957 H 0.21814 0.58815 0.24328 0.0
H958 H 0.21389 0.58877 0.13358 0.0
H959 H 0.23695 0.62178 0.03393 0.0
H960 H 0.23645 0.61482 0.71984 0.0
H961 H 0.2411 0.61408 0.82881 0.0
H962 H 0.21965 0.57897 0.92915 0.0
C963 C 0.22348 0.59335 0.15123 0.0
C964 C 0.23325 0.61235 0.01143 0.0
C965 C 0.22585 0.5931 0.21412 0.0
C966 C 0.22938 0.6089 0.74866 0.0
C967 C 0.23195 0.60862 0.81142 0.0
C968 C 0.22327 0.58845 0.95145 0.0
C969 C 0.23326 0.59964 0.11174 0.0
C970 C 0.23069 0.60003 0.04497 0.0
C971 C 0.22298 0.60121 0.85096 0.0
C972 C 0.22573 0.6008 0.91781 0.0
H973 H 0.25741 0.61004 0.21691 0.0
H974 H 0.2533 0.6104 0.10722 0.0
H975 H 0.2238 0.57839 0.03871 0.0
H976 H 0.19989 0.58857 0.74622 0.0
H977 H 0.20409 0.5885 0.85513 0.0
C978 C 0.39688 0.24855 0.17181 0.0
C979 C 0.39985 0.23756 0.21282 0.0
C980 C 0.39664 0.24613 0.10908 0.0
C981 C 0.39146 0.21856 0.99544 0.0
H982 H 0.41135 0.24384 0.88703 0.0
C983 C 0.39867 0.20662 0.73946 0.0
C984 C 0.3983 0.21794 0.69823 0.0
C985 C 0.39851 0.20899 0.80226 0.0
C986 C 0.40555 0.2368 0.91649 0.0
H987 H 0.40508 0.21534 0.2185 0.0
H988 H 0.40432 0.21117 0.10943 0.0
H989 H 0.41175 0.24809 0.99651 0.0
H990 H 0.39731 0.24071 0.69181 0.0
H991 H 0.39644 0.24475 0.80065 0.0
H992 H 0.38502 0.2074 0.91564 0.0
C993 C 0.40213 0.22164 0.12632 0.0
C994 C 0.40584 0.23921 0.97922 0.0
C995 C 0.40254 0.22408 0.18905 0.0
C996 C 0.39747 0.23168 0.72164 0.0
C997 C 0.39719 0.23403 0.78441 0.0
C998 C 0.39104 0.21623 0.93263 0.0
C999 C 0.3992 0.23265 0.08577 0.0
C1000 C 0.39884 0.2301 0.01927 0.0
C1001 C 0.39786 0.22274 0.82553 0.0
C1002 C 0.39811 0.2253 0.89236 0.0
H1003 H 0.39453 0.25903 0.18781 0.0
H1004 H 0.3942 0.25478 0.07878 0.0
H1005 H 0.38583 0.21147 0.02535 0.0
H1006 H 0.39911 0.19589 0.72341 0.0
H1007 H 0.39918 0.20003 0.83252 0.0
C1008 C 0.31299 0.11867 0.13468 0.0
C1009 C 0.31296 0.12229 0.07257 0.0
C1010 C 0.32198 0.12546 0.17545 0.0
C1011 C 0.35386 0.14748 0.18659 0.0
H1012 H 0.33607 0.16168 0.33307 0.0
C1013 C 0.3786 0.19097 0.33594 0.0
C1014 C 0.3761 0.19073 0.39904 0.0
C1015 C 0.37218 0.18115 0.29761 0.0
C1016 C 0.34133 0.15759 0.29307 0.0
H1017 H 0.32285 0.13545 0.00418 0.0
H1018 H 0.33856 0.14729 0.07543 0.0
H1019 H 0.32274 0.14697 0.26347 0.0
H1020 H 0.36552 0.17952 0.47177 0.0
H1021 H 0.35463 0.16218 0.40526 0.0
H1022 H 0.37245 0.15817 0.2161 0.0
C1023 C 0.33163 0.13917 0.09251 0.0
C1024 C 0.33365 0.14916 0.25306 0.0
C1025 C 0.32256 0.13244 0.05175 0.0
C1026 C 0.36753 0.18009 0.42325 0.0
C1027 C 0.36122 0.1702 0.38504 0.0
C1028 C 0.3616 0.15584 0.2269 0.0
C1029 C 0.33122 0.13596 0.15499 0.0
C1030 C 0.33978 0.14413 0.19909 0.0
C1031 C 0.36321 0.17078 0.32157 0.0
C1032 C 0.35537 0.16112 0.28037 0.0
H1033 H 0.30581 0.11085 0.15228 0.0
H1034 H 0.32156 0.12263 0.22323 0.0
H1035 H 0.35891 0.14363 0.14562 0.0
H1036 H 0.38509 0.19904 0.31572 0.0
H1037 H 0.37384 0.18204 0.24896 0.0
C1038 C 0.80983 0.37831 0.34829 0.0
C1039 C 0.81032 0.37613 0.41159 0.0
C1040 C 0.8194 0.37159 0.30977 0.0
C1041 C 0.84272 0.34053 0.30574 0.0
H1042 H 0.85625 0.35752 0.15624 0.0
C1043 C 0.88078 0.31138 0.14587 0.0
C1044 C 0.87688 0.31121 0.08408 0.0
C1045 C 0.87422 0.32054 0.18673 0.0
C1046 C 0.85251 0.35264 0.19778 0.0
H1047 H 0.82167 0.3657 0.48434 0.0
H1048 H 0.83857 0.35426 0.41742 0.0
H1049 H 0.84207 0.3714 0.22686 0.0
H1050 H 0.86351 0.32102 0.01627 0.0
H1051 H 0.85211 0.33702 0.08761 0.0
H1052 H 0.8531 0.32177 0.27654 0.0
C1053 C 0.83056 0.36087 0.39726 0.0
C1054 C 0.84436 0.36056 0.23819 0.0
C1055 C 0.82092 0.36749 0.43571 0.0
C1056 C 0.86673 0.32084 0.0636 0.0
C1057 C 0.86024 0.33006 0.10441 0.0
C1058 C 0.85094 0.33266 0.26561 0.0
C1059 C 0.82977 0.36261 0.33369 0.0
C1060 C 0.83922 0.35456 0.29238 0.0
C1061 C 0.86371 0.32981 0.16663 0.0
C1062 C 0.8558 0.33857 0.21089 0.0
H1063 H 0.80177 0.38483 0.32814 0.0
H1064 H 0.81833 0.37305 0.26107 0.0
H1065 H 0.83873 0.33544 0.34635 0.0
H1066 H 0.88862 0.3042 0.16321 0.0
H1067 H 0.87725 0.32023 0.23429 0.0
C1068 C 0.63924 0.81697 0.4166 0.0
C1069 C 0.62577 0.81141 0.40653 0.0
C1070 C 0.64527 0.8262 0.37468 0.0
C1071 C 0.64252 0.83699 0.21275 0.0
H1072 H 0.6698 0.86482 0.26403 0.0
C1073 C 0.68292 0.86022 0.0463 0.0
C1074 C 0.688 0.87391 0.05553 0.0
C1075 C 0.67369 0.85411 0.08801 0.0
C1076 C 0.66204 0.8573 0.24866 0.0
H1077 H 0.6078 0.81166 0.34583 0.0
H1078 H 0.61811 0.82817 0.27363 0.0
H1079 H 0.65633 0.85216 0.34013 0.0
H1080 H 0.68694 0.89215 0.11449 0.0
H1081 H 0.67042 0.88168 0.18629 0.0
H1082 H 0.64792 0.84243 0.12126 0.0
C1083 C 0.62422 0.82508 0.31303 0.0
C1084 C 0.65445 0.84983 0.29253 0.0
C1085 C 0.61825 0.81568 0.35464 0.0
C1086 C 0.68328 0.88154 0.10635 0.0
C1087 C 0.67388 0.87548 0.14774 0.0
C1088 C 0.64996 0.8446 0.16887 0.0
C1089 C 0.63792 0.83029 0.32195 0.0
C1090 C 0.64484 0.83933 0.27525 0.0
C1091 C 0.66913 0.86159 0.13966 0.0
C1092 C 0.66008 0.85462 0.1862 0.0
H1093 H 0.64536 0.81382 0.45589 0.0
H1094 H 0.65592 0.82973 0.38276 0.0
H1095 H 0.63532 0.82893 0.19743 0.0
H1096 H 0.68643 0.85401 0.00785 0.0
H1097 H 0.67053 0.84331 0.08064 0.0
C1098 C 0.19201 0.62142 0.35451 0.0
C1099 C 0.19174 0.62467 0.41695 0.0
C1100 C 0.18228 0.62747 0.3146 0.0
C1101 C 0.15877 0.65834 0.30312 0.0
H1102 H 0.14485 0.63914 0.15945 0.0
C1103 C 0.11948 0.6847 0.14046 0.0
C1104 C 0.12314 0.6843 0.07841 0.0
C1105 C 0.12635 0.67612 0.18259 0.0
C1106 C 0.14869 0.64463 0.19935 0.0
H1107 H 0.1806 0.63625 0.48699 0.0
H1108 H 0.16341 0.64646 0.4179 0.0
H1109 H 0.15947 0.62643 0.23253 0.0
H1110 H 0.13638 0.67396 0.0116 0.0
H1111 H 0.14832 0.65891 0.08524 0.0
H1112 H 0.14802 0.67653 0.26993 0.0
C1113 C 0.17138 0.63958 0.39926 0.0
C1114 C 0.1571 0.63737 0.24114 0.0
C1115 C 0.1812 0.63365 0.439 0.0
C1116 C 0.13334 0.67459 0.05907 0.0
C1117 C 0.14014 0.66591 0.10121 0.0
C1118 C 0.15028 0.66554 0.26169 0.0
C1119 C 0.17197 0.63681 0.33633 0.0
C1120 C 0.16236 0.64418 0.29332 0.0
C1121 C 0.13695 0.66683 0.1636 0.0
C1122 C 0.14525 0.6588 0.2091 0.0
H1123 H 0.20003 0.61461 0.33596 0.0
H1124 H 0.18319 0.62521 0.26641 0.0
H1125 H 0.16285 0.66405 0.34196 0.0
H1126 H 0.11161 0.69195 0.15697 0.0
H1127 H 0.12352 0.67691 0.23028 0.0
C1128 C 0.36096 0.81853 0.56901 0.0
C1129 C 0.37449 0.81333 0.58088 0.0
C1130 C 0.35439 0.82759 0.61018 0.0
C1131 C 0.34381 0.85065 0.69251 0.0
H1132 H 0.34946 0.84275 0.86395 0.0
C1133 C 0.31248 0.88011 0.87876 0.0
C1134 C 0.3077 0.8719 0.92777 0.0
C1135 C 0.32235 0.87472 0.83762 0.0
C1136 C 0.34767 0.84506 0.81626 0.0
H1137 H 0.39204 0.81408 0.64373 0.0
H1138 H 0.3808 0.83029 0.7146 0.0
H1139 H 0.36312 0.83013 0.7885 0.0
H1140 H 0.30964 0.85165 0.97235 0.0
H1141 H 0.32637 0.84214 0.90015 0.0
H1142 H 0.32767 0.86488 0.72026 0.0
C1143 C 0.37505 0.82704 0.67444 0.0
C1144 C 0.35571 0.83796 0.77282 0.0
C1145 C 0.38155 0.81782 0.63361 0.0
C1146 C 0.31316 0.8583 0.93536 0.0
C1147 C 0.32287 0.85288 0.89402 0.0
C1148 C 0.33562 0.85761 0.73596 0.0
C1149 C 0.36126 0.83183 0.66391 0.0
C1150 C 0.35372 0.84046 0.71024 0.0
C1151 C 0.32754 0.86095 0.8443 0.0
C1152 C 0.33725 0.8547 0.7984 0.0
H1153 H 0.3552 0.81522 0.52896 0.0
H1154 H 0.3437 0.83081 0.60081 0.0
H1155 H 0.34216 0.85309 0.64486 0.0
H1156 H 0.30853 0.89066 0.87186 0.0
H1157 H 0.32584 0.88133 0.80046 0.0
C1158 C 0.12245 0.30866 0.86062 0.0
C1159 C 0.1255 0.30923 0.92319 0.0
C1160 C 0.12845 0.31833 0.82032 0.0
C1161 C 0.15903 0.34221 0.80905 0.0
H1162 H 0.14039 0.35484 0.66179 0.0
C1163 C 0.18603 0.38014 0.64221 0.0
C1164 C 0.18595 0.37583 0.58093 0.0
C1165 C 0.17722 0.3737 0.68479 0.0
C1166 C 0.14572 0.35138 0.70272 0.0
H1167 H 0.1366 0.32089 0.99307 0.0
H1168 H 0.1467 0.33802 0.92329 0.0
H1169 H 0.12746 0.34066 0.73574 0.0
H1170 H 0.17595 0.36191 0.51576 0.0
H1171 H 0.16052 0.35073 0.59011 0.0
H1172 H 0.17727 0.35288 0.77596 0.0
C1173 C 0.14003 0.32983 0.90486 0.0
C1174 C 0.13834 0.34321 0.74502 0.0
C1175 C 0.13417 0.32006 0.94499 0.0
C1176 C 0.17633 0.36544 0.56264 0.0
C1177 C 0.16743 0.35907 0.60517 0.0
C1178 C 0.16634 0.35046 0.7671 0.0
C1179 C 0.13752 0.32891 0.8418 0.0
C1180 C 0.14496 0.33839 0.79845 0.0
C1181 C 0.16803 0.36291 0.66696 0.0
C1182 C 0.15982 0.35501 0.71318 0.0
H1183 H 0.11589 0.3004 0.84229 0.0
H1184 H 0.12639 0.31715 0.77207 0.0
H1185 H 0.16459 0.33847 0.8489 0.0
H1186 H 0.19319 0.38818 0.65787 0.0
H1187 H 0.17778 0.37701 0.73197 0.0
C1188 C 0.67886 0.13567 0.93973 0.0
C1189 C 0.68829 0.12512 0.92136 0.0
C1190 C 0.66948 0.1416 0.89806 0.0
C1191 C 0.66639 0.14886 0.73569 0.0
H1192 H 0.62792 0.1587 0.77513 0.0
C1193 C 0.63191 0.17902 0.56455 0.0
C1194 C 0.62354 0.18986 0.58842 0.0
C1195 C 0.63835 0.16931 0.60327 0.0
C1196 C 0.63867 0.15613 0.76355 0.0
H1197 H 0.69473 0.11206 0.84533 0.0
H1198 H 0.67847 0.12253 0.77248 0.0
H1199 H 0.64176 0.14488 0.84711 0.0
H1200 H 0.61516 0.19882 0.67165 0.0
H1201 H 0.62665 0.18218 0.73917 0.0
H1202 H 0.66361 0.16053 0.65349 0.0
C1203 C 0.67844 0.12627 0.81911 0.0
C1204 C 0.64657 0.14817 0.80471 0.0
C1205 C 0.68773 0.12024 0.86095 0.0
C1206 C 0.62145 0.19055 0.65171 0.0
C1207 C 0.62801 0.18093 0.69049 0.0
C1208 C 0.65855 0.15692 0.69481 0.0
C1209 C 0.66939 0.13717 0.837 0.0
C1210 C 0.66056 0.14458 0.79147 0.0
C1211 C 0.63671 0.1703 0.66685 0.0
C1212 C 0.64464 0.16081 0.70848 0.0
H1213 H 0.67896 0.13964 0.98599 0.0
H1214 H 0.6627 0.15005 0.9131 0.0
H1215 H 0.67721 0.14644 0.72462 0.0
H1216 H 0.63361 0.17812 0.51591 0.0
H1217 H 0.64474 0.1611 0.5833 0.0
C1218 C 0.82182 0.6353 0.56256 0.0
C1219 C 0.81201 0.62492 0.57908 0.0
C1220 C 0.83072 0.64123 0.60627 0.0
C1221 C 0.83116 0.64935 0.76788 0.0
H1222 H 0.87067 0.65753 0.74346 0.0
C1223 C 0.86255 0.67855 0.95177 0.0
C1224 C 0.87221 0.68872 0.93209 0.0
C1225 C 0.8567 0.66904 0.91048 0.0
C1226 C 0.85961 0.65546 0.7508 0.0
H1227 H 0.80444 0.61216 0.65404 0.0
H1228 H 0.81975 0.62269 0.73035 0.0
H1229 H 0.85782 0.644 0.66691 0.0
H1230 H 0.88355 0.69673 0.85389 0.0
H1231 H 0.87301 0.68052 0.78132 0.0
H1232 H 0.8326 0.66127 0.84989 0.0
C1233 C 0.8205 0.62625 0.68357 0.0
C1234 C 0.85229 0.64764 0.70705 0.0
C1235 C 0.81175 0.62019 0.63974 0.0
C1236 C 0.87623 0.68893 0.87054 0.0
C1237 C 0.87019 0.67957 0.82893 0.0
C1238 C 0.8384 0.6573 0.81112 0.0
C1239 C 0.82988 0.63702 0.6675 0.0
C1240 C 0.83798 0.64456 0.7151 0.0
C1241 C 0.86015 0.66964 0.84816 0.0
C1242 C 0.85272 0.66053 0.80315 0.0
H1243 H 0.82237 0.63914 0.51617 0.0
H1244 H 0.8378 0.64957 0.59265 0.0
H1245 H 0.82007 0.64734 0.77479 0.0
H1246 H 0.85937 0.67804 0.99912 0.0
H1247 H 0.84931 0.66133 0.92743 0.0
C1248 C 0.27009 0.04602 0.0652 0.0
C1249 C 0.27985 0.0556 0.04134 0.0
C1250 C 0.2735 0.03184 0.0706 0.0
C1251 C 0.29312 0.00453 0.99785 0.0
H1252 H 0.28338 0.98327 0.14251 0.0
C1253 C 0.29034 0.94341 0.99977 0.0
C1254 C 0.27806 0.93814 0.02712 0.0
C1255 C 0.29403 0.9576 0.00656 0.0
C1256 C 0.28618 0.98904 0.10173 0.0
H1257 H 0.30089 0.05798 0.00505 0.0
H1258 H 0.30672 0.03284 0.01271 0.0
H1259 H 0.28365 0.00887 0.14645 0.0
H1260 H 0.26014 0.9436 0.08358 0.0
H1261 H 0.26641 0.96809 0.09461 0.0
H1262 H 0.29475 0.98472 0.95198 0.0
C1263 C 0.29653 0.03646 0.02806 0.0
C1264 C 0.2864 0.00368 0.10417 0.0
C1265 C 0.29322 0.05078 0.02395 0.0
C1266 C 0.26968 0.94727 0.06189 0.0
C1267 C 0.27337 0.96133 0.06878 0.0
C1268 C 0.29277 0.98983 0.99521 0.0
C1269 C 0.28664 0.02687 0.05118 0.0
C1270 C 0.28938 0.01156 0.05173 0.0
C1271 C 0.28555 0.96671 0.04121 0.0
C1272 C 0.28873 0.98196 0.04656 0.0
H1273 H 0.25973 0.04947 0.0791 0.0
H1274 H 0.26563 0.02465 0.08795 0.0
H1275 H 0.29538 0.0104 0.9567 0.0
H1276 H 0.29702 0.93662 0.97278 0.0
H1277 H 0.3035 0.96143 0.98483 0.0
C1278 C 0.0552 0.28788 0.9902 0.0
C1279 C 0.06076 0.27509 0.01137 0.0
C1280 C 0.04092 0.29102 0.99857 0.0
C1281 C 0.01023 0.28047 0.09245 0.0
H1282 H 0.98762 0.29326 0.95637 0.0
C1283 C 0.95257 0.26616 0.06287 0.0
C1284 C 0.94295 0.27649 0.04459 0.0
C1285 C 0.96688 0.26917 0.06591 0.0
C1286 C 0.99384 0.28997 0.99515 0.0
H1287 H 0.05565 0.25554 0.05735 0.0
H1288 H 0.03102 0.26091 0.07119 0.0
H1289 H 0.01326 0.29266 0.94691 0.0
H1290 H 0.94065 0.29814 0.01572 0.0
H1291 H 0.96596 0.30334 0.01945 0.0
H1292 H 0.99083 0.27703 0.13942 0.0
C1293 C 0.03763 0.26866 0.04917 0.0
C1294 C 0.00851 0.28962 0.98977 0.0
C1295 C 0.05178 0.26553 0.04069 0.0
C1296 C 0.94787 0.29002 0.03033 0.0
C1297 C 0.96231 0.29297 0.03215 0.0
C1298 C 0.99564 0.28072 0.09762 0.0
C1299 C 0.03202 0.28146 0.02868 0.0
C1300 C 0.01681 0.28436 0.0376 0.0
C1301 C 0.97192 0.28253 0.04975 0.0
C1302 C 0.98728 0.285 0.04832 0.0
H1303 H 0.06187 0.29547 0.96749 0.0
H1304 H 0.03688 0.30097 0.98222 0.0
H1305 H 0.01636 0.27669 0.13067 0.0
H1306 H 0.94906 0.25565 0.07425 0.0
H1307 H 0.97407 0.26088 0.07896 0.0
C1308 C 0.70596 0.94702 0.99657 0.0
C1309 C 0.71961 0.94202 0.00798 0.0
C1310 C 0.70299 0.96142 0.00163 0.0
C1311 C 0.71519 0.99378 0.07434 0.0
H1312 H 0.70391 0.01361 0.92791 0.0
C1313 C 0.73109 0.0505 0.03355 0.0
C1314 C 0.72183 0.05991 0.00504 0.0
C1315 C 0.72775 0.0363 0.03849 0.0
C1316 C 0.70675 0.00824 0.96963 0.0
H1317 H 0.74064 0.94792 0.03584 0.0
H1318 H 0.73537 0.97282 0.04638 0.0
H1319 H 0.70306 0.98789 0.93049 0.0
H1320 H 0.70175 0.06177 0.95908 0.0
H1321 H 0.69587 0.03674 0.96767 0.0
H1322 H 0.71927 0.01395 0.11319 0.0
C1323 C 0.72702 0.96573 0.0329 0.0
C1324 C 0.70626 0.99353 0.97106 0.0
C1325 C 0.73005 0.9515 0.0265 0.0
C1326 C 0.70911 0.05476 0.98124 0.0
C1327 C 0.70576 0.04045 0.98608 0.0
C1328 C 0.71557 0.00842 0.07315 0.0
C1329 C 0.71353 0.97087 0.01983 0.0
C1330 C 0.71101 0.9862 0.02262 0.0
C1331 C 0.71503 0.03108 0.01518 0.0
C1332 C 0.71194 0.01581 0.01991 0.0
H1333 H 0.69775 0.93989 0.98193 0.0
H1334 H 0.69252 0.96517 0.99122 0.0
H1335 H 0.71875 0.98835 0.11488 0.0
H1336 H 0.74101 0.05406 0.05219 0.0
H1337 H 0.73529 0.02935 0.05983 0.0
C1338 C 0.94451 0.7063 0.00782 0.0
C1339 C 0.93915 0.71887 0.0322 0.0
C1340 C 0.95884 0.70304 0.01369 0.0
C1341 C 0.99051 0.71289 0.10338 0.0
H1342 H 0.01154 0.70172 0.96002 0.0
C1343 C 0.04743 0.72856 0.06131 0.0
C1344 C 0.05701 0.71843 0.04063 0.0
C1345 C 0.03322 0.7253 0.06705 0.0
C1346 C 0.00577 0.70455 0.00075 0.0
H1347 H 0.9446 0.7378 0.08205 0.0
H1348 H 0.96929 0.73227 0.09152 0.0
H1349 H 0.98582 0.70201 0.9567 0.0
H1350 H 0.05934 0.6969 0.01005 0.0
H1351 H 0.03416 0.69129 0.01836 0.0
H1352 H 0.01045 0.71627 0.14613 0.0
C1353 C 0.96252 0.72477 0.06879 0.0
C1354 C 0.99105 0.70471 0.99891 0.0
C1355 C 0.94833 0.72801 0.06279 0.0
C1356 C 0.05214 0.70487 0.02646 0.0
C1357 C 0.03779 0.70168 0.03093 0.0
C1358 C 0.00516 0.71285 0.10499 0.0
C1359 C 0.96798 0.71226 0.04448 0.0
C1360 C 0.9833 0.70941 0.04952 0.0
C1361 C 0.02822 0.71191 0.05118 0.0
C1362 C 0.01292 0.70916 0.05307 0.0
H1363 H 0.93769 0.69903 0.98403 0.0
H1364 H 0.96274 0.69332 0.99448 0.0
H1365 H 0.98484 0.71622 0.14365 0.0
H1366 H 0.0509 0.73907 0.07271 0.0
H1367 H 0.02604 0.73342 0.08213 0.0
C1368 C 0.79044 0.44758 0.45995 0.0
C1369 C 0.77688 0.44294 0.44446 0.0
C1370 C 0.79368 0.46196 0.45854 0.0
C1371 C 0.78228 0.49565 0.3933 0.0
H1372 H 0.79401 0.51269 0.54561 0.0
C1373 C 0.76786 0.55191 0.45228 0.0
C1374 C 0.77747 0.56063 0.48273 0.0
C1375 C 0.77078 0.53774 0.44314 0.0
C1376 C 0.79104 0.5081 0.50233 0.0
H1377 H 0.75632 0.44947 0.41289 0.0
H1378 H 0.76206 0.47437 0.40891 0.0
H1379 H 0.7942 0.48707 0.53492 0.0
H1380 H 0.79772 0.56126 0.52791 0.0
H1381 H 0.80284 0.53624 0.51204 0.0
H1382 H 0.77871 0.51653 0.36104 0.0
C1383 C 0.77015 0.46701 0.4226 0.0
C1384 C 0.79115 0.49345 0.49624 0.0
C1385 C 0.76684 0.45277 0.42521 0.0
C1386 C 0.7901 0.55479 0.50433 0.0
C1387 C 0.79302 0.54049 0.49531 0.0
C1388 C 0.78226 0.51024 0.39919 0.0
C1389 C 0.78351 0.47179 0.44015 0.0
C1390 C 0.78625 0.4871 0.44244 0.0
C1391 C 0.78342 0.53185 0.46411 0.0
C1392 C 0.78607 0.51661 0.45459 0.0
H1393 H 0.79833 0.44019 0.47535 0.0
H1394 H 0.80405 0.4654 0.47231 0.0
H1395 H 0.77865 0.49102 0.35104 0.0
H1396 H 0.75799 0.55601 0.43523 0.0
H1397 H 0.76299 0.53133 0.42026 0.0
C1398 C 0.44653 0.79699 0.51093 0.0
C1399 C 0.44308 0.78469 0.54302 0.0
C1400 C 0.46062 0.80089 0.50354 0.0
C1401 C 0.49068 0.79546 0.45359 0.0
H1402 H 0.51843 0.79514 0.5831 0.0
C1403 C 0.5469 0.77445 0.43193 0.0
C1404 C 0.55796 0.78233 0.45678 0.0
C1405 C 0.53303 0.77893 0.43841 0.0
C1406 C 0.51079 0.79553 0.54653 0.0
H1407 H 0.4514 0.76738 0.59588 0.0
H1408 H 0.47592 0.77446 0.58488 0.0
H1409 H 0.49336 0.79569 0.60852 0.0
H1410 H 0.56331 0.80124 0.50663 0.0
H1411 H 0.53883 0.80885 0.52006 0.0
H1412 H 0.50808 0.79417 0.39172 0.0
C1413 C 0.46782 0.78098 0.56487 0.0
C1414 C 0.49649 0.79579 0.56106 0.0
C1415 C 0.45381 0.7769 0.57091 0.0
C1416 C 0.55495 0.79504 0.48666 0.0
C1417 C 0.541 0.79936 0.49452 0.0
C1418 C 0.50497 0.79492 0.43909 0.0
C1419 C 0.47138 0.79276 0.52961 0.0
C1420 C 0.48632 0.79538 0.51473 0.0
C1421 C 0.52993 0.79123 0.47108 0.0
C1422 C 0.51512 0.79457 0.48549 0.0
H1423 H 0.43843 0.8031 0.48858 0.0
H1424 H 0.46315 0.80999 0.476 0.0
H1425 H 0.48303 0.795 0.41709 0.0
H1426 H 0.54896 0.76462 0.40865 0.0
H1427 H 0.52467 0.77241 0.42047 0.0
C1428 C 0.20814 0.44636 0.51854 0.0
C1429 C 0.22167 0.44122 0.53129 0.0
C1430 C 0.20548 0.46085 0.51997 0.0
C1431 C 0.21867 0.49395 0.58354 0.0
H1432 H 0.20627 0.51187 0.43419 0.0
C1433 C 0.23463 0.54979 0.5261 0.0
C1434 C 0.22501 0.55904 0.49877 0.0
C1435 C 0.2313 0.53568 0.5341 0.0
C1436 C 0.20944 0.50704 0.47668 0.0
H1437 H 0.24284 0.44702 0.55765 0.0
H1438 H 0.23812 0.47213 0.56173 0.0
H1439 H 0.20527 0.48622 0.44348 0.0
H1440 H 0.20436 0.56065 0.4576 0.0
H1441 H 0.19854 0.5357 0.47141 0.0
H1442 H 0.22325 0.51458 0.61637 0.0
C1443 C 0.2296 0.46506 0.55013 0.0
C1444 C 0.20887 0.49238 0.48197 0.0
C1445 C 0.23232 0.4507 0.54745 0.0
C1446 C 0.21199 0.55377 0.47879 0.0
C1447 C 0.20866 0.53951 0.48665 0.0
C1448 C 0.21915 0.50854 0.57848 0.0
C1449 C 0.21623 0.47031 0.53571 0.0
C1450 C 0.214 0.4857 0.53459 0.0
C1451 C 0.21826 0.53036 0.51507 0.0
C1452 C 0.21511 0.51521 0.52407 0.0
H1453 H 0.19977 0.43925 0.50558 0.0
H1454 H 0.19509 0.46468 0.50863 0.0
H1455 H 0.2225 0.48906 0.62492 0.0
H1456 H 0.24478 0.55344 0.54175 0.0
H1457 H 0.23908 0.52886 0.55474 0.0
C1458 C 0.55326 0.2091 0.51676 0.0
C1459 C 0.55665 0.22128 0.54986 0.0
C1460 C 0.53919 0.20549 0.50673 0.0
C1461 C 0.50972 0.21155 0.45182 0.0
H1462 H 0.48086 0.21123 0.57667 0.0
C1463 C 0.45318 0.23163 0.42243 0.0
C1464 C 0.44215 0.2233 0.44462 0.0
C1465 C 0.46712 0.22751 0.43094 0.0
C1466 C 0.48882 0.21105 0.54139 0.0
H1467 H 0.54818 0.23868 0.60175 0.0
H1468 H 0.52363 0.23208 0.58614 0.0
H1469 H 0.5057 0.21078 0.60618 0.0
H1470 H 0.43693 0.20398 0.49176 0.0
H1471 H 0.46147 0.19702 0.5087 0.0
H1472 H 0.49285 0.2129 0.38721 0.0
C1473 C 0.5318 0.22544 0.56737 0.0
C1474 C 0.50298 0.21085 0.55825 0.0
C1475 C 0.54582 0.22925 0.57607 0.0
C1476 C 0.44526 0.21053 0.47379 0.0
C1477 C 0.45925 0.20658 0.48369 0.0
C1478 C 0.49556 0.21205 0.43501 0.0
C1479 C 0.52836 0.21379 0.53111 0.0
C1480 C 0.51354 0.21141 0.51363 0.0
C1481 C 0.47027 0.21515 0.46302 0.0
C1482 C 0.48501 0.21212 0.47973 0.0
H1483 H 0.56144 0.20286 0.49564 0.0
H1484 H 0.53675 0.19648 0.47849 0.0
H1485 H 0.51768 0.21214 0.41663 0.0
H1486 H 0.45104 0.24152 0.3998 0.0
H1487 H 0.47545 0.23436 0.4151 0.0
C1488 C 0.24529 0.16495 0.97488 0.0
C1489 C 0.24056 0.15096 0.97811 0.0
C1490 C 0.23568 0.17607 0.97244 0.0
C1491 C 0.19862 0.184 0.93563 0.0
H1492 H 0.20383 0.21649 0.0398 0.0
C1493 C 0.15341 0.22176 0.98964 0.0
C1494 C 0.15618 0.23626 0.99147 0.0
C1495 C 0.16435 0.21209 0.98466 0.0
C1496 C 0.20233 0.20759 0.00978 0.0
H1497 H 0.22196 0.13779 0.98289 0.0
H1498 H 0.20532 0.15709 0.97796 0.0
H1499 H 0.22191 0.19827 0.03615 0.0
H1500 H 0.17269 0.25195 0.98971 0.0
H1501 H 0.19189 0.23498 0.98039 0.0
H1502 H 0.17901 0.19316 0.90973 0.0
C1503 C 0.21644 0.15947 0.97615 0.0
C1504 C 0.21268 0.19716 0.00768 0.0
C1505 C 0.22601 0.14839 0.97883 0.0
C1506 C 0.17021 0.24085 0.9882 0.0
C1507 C 0.1812 0.23114 0.98333 0.0
C1508 C 0.18831 0.1944 0.93766 0.0
C1509 C 0.22115 0.17344 0.97296 0.0
C1510 C 0.21081 0.18512 0.97141 0.0
C1511 C 0.17838 0.21664 0.98118 0.0
C1512 C 0.18991 0.2062 0.9756 0.0
H1513 H 0.25642 0.1673 0.97378 0.0
H1514 H 0.23962 0.18673 0.96953 0.0
H1515 H 0.19699 0.17499 0.90629 0.0
H1516 H 0.14273 0.21785 0.99103 0.0
H1517 H 0.16182 0.201 0.98397 0.0
C1518 C 0.83267 0.24423 0.99304 0.0
C1519 C 0.84659 0.2393 0.9952 0.0
C1520 C 0.82139 0.23479 0.99409 0.0
C1521 C 0.81249 0.19859 0.04064 0.0
H1522 H 0.78011 0.20348 0.93559 0.0
C1523 C 0.7644 0.16215 0.05823 0.0
C1524 C 0.75888 0.15717 0.0029 0.0
C1525 C 0.77414 0.17314 0.05882 0.0
C1526 C 0.7891 0.20195 0.96509 0.0
H1527 H 0.85953 0.22056 0.00058 0.0
H1528 H 0.83994 0.20418 0.00103 0.0
H1529 H 0.79927 0.22054 0.93207 0.0
H1530 H 0.75916 0.15997 0.9048 0.0
H1531 H 0.77615 0.17911 0.90585 0.0
H1532 H 0.80257 0.17984 0.07252 0.0
C1533 C 0.83771 0.21533 0.99907 0.0
C1534 C 0.80001 0.2118 0.96349 0.0
C1535 C 0.84896 0.22473 0.99792 0.0
C1536 C 0.76304 0.16369 0.9483 0.0
C1537 C 0.77279 0.17467 0.94889 0.0
C1538 C 0.8016 0.18878 0.04232 0.0
C1539 C 0.82379 0.22024 0.9977 0.0
C1540 C 0.8119 0.21014 0.00082 0.0
C1541 C 0.77861 0.17938 0.00408 0.0
C1542 C 0.78981 0.19028 0.00426 0.0
H1543 H 0.8305 0.25538 0.99061 0.0
H1544 H 0.81078 0.23891 0.99334 0.0
H1545 H 0.82141 0.19711 0.07061 0.0
H1546 H 0.76126 0.15748 0.10112 0.0
H1547 H 0.77824 0.17669 0.10221 0.0
C1548 C 0.83111 0.75664 0.97185 0.0
C1549 C 0.84319 0.75924 0.00723 0.0
C1550 C 0.82057 0.76681 0.96611 0.0
C1551 C 0.8144 0.80522 0.99304 0.0
H1552 H 0.77566 0.79501 0.96255 0.0
C1553 C 0.77343 0.84817 0.94943 0.0
C1554 C 0.75949 0.84613 0.96913 0.0
C1555 C 0.78308 0.83715 0.94971 0.0
C1556 C 0.78637 0.79811 0.97198 0.0
H1557 H 0.85326 0.77489 0.06493 0.0
H1558 H 0.83454 0.79172 0.05989 0.0
H1559 H 0.79308 0.77671 0.97628 0.0
H1560 H 0.7449 0.83039 0.00296 0.0
H1561 H 0.76198 0.81161 0.0087 0.0
H1562 H 0.80765 0.8265 0.99377 0.0
C1563 C 0.83341 0.78211 0.03397 0.0
C1564 C 0.79649 0.78754 0.97874 0.0
C1565 C 0.84412 0.77216 0.0382 0.0
C1566 C 0.75555 0.83259 0.98864 0.0
C1567 C 0.76536 0.82164 0.99077 0.0
C1568 C 0.80427 0.81573 0.98809 0.0
C1569 C 0.8216 0.77976 0.9968 0.0
C1570 C 0.81068 0.79093 0.98937 0.0
C1571 C 0.77933 0.82379 0.97186 0.0
C1572 C 0.79009 0.81239 0.97705 0.0
H1573 H 0.82977 0.74677 0.94806 0.0
H1574 H 0.81175 0.76456 0.93653 0.0
H1575 H 0.82521 0.80842 0.99955 0.0
H1576 H 0.77715 0.85838 0.93507 0.0
H1577 H 0.79356 0.83924 0.93295 0.0
C1578 C 0.16154 0.75871 0.03584 0.0
C1579 C 0.15372 0.75536 0.98347 0.0
C1580 C 0.17234 0.76864 0.03324 0.0
C1581 C 0.18388 0.79922 0.94395 0.0
H1582 H 0.21816 0.79516 0.03786 0.0
C1583 C 0.22053 0.84599 0.99318 0.0
C1584 C 0.2351 0.84371 0.99028 0.0
C1585 C 0.21116 0.83473 0.98951 0.0
C1586 C 0.20871 0.7964 0.01091 0.0
H1587 H 0.15146 0.75946 0.88679 0.0
H1588 H 0.17034 0.7768 0.8822 0.0
H1589 H 0.20123 0.77592 0.03487 0.0
H1590 H 0.25126 0.82778 0.98153 0.0
H1591 H 0.23486 0.8081 0.97437 0.0
H1592 H 0.19138 0.81966 0.91969 0.0
C1593 C 0.16797 0.77188 0.9255 0.0
C1594 C 0.19894 0.78543 0.00969 0.0
C1595 C 0.15717 0.76194 0.9281 0.0
C1596 C 0.24009 0.82989 0.98358 0.0
C1597 C 0.2307 0.81861 0.98002 0.0
C1598 C 0.19363 0.81019 0.94524 0.0
C1599 C 0.17556 0.77548 0.97822 0.0
C1600 C 0.18635 0.78676 0.97665 0.0
C1601 C 0.21613 0.82091 0.98281 0.0
C1602 C 0.20609 0.80897 0.97923 0.0
H1603 H 0.15901 0.75404 0.07947 0.0
H1604 H 0.17782 0.77132 0.07489 0.0
H1605 H 0.17423 0.80065 0.91854 0.0
H1606 H 0.21631 0.85651 0.99742 0.0
H1607 H 0.2 0.83685 0.99253 0.0
C1608 C 0.6595 0.73555 0.54834 0.0
C1609 C 0.65465 0.74043 0.49169 0.0
C1610 C 0.67088 0.72629 0.55158 0.0
C1611 C 0.70089 0.7124 0.46131 0.0
H1612 H 0.69891 0.68143 0.57572 0.0
C1613 C 0.73646 0.66331 0.44618 0.0
C1614 C 0.74171 0.65773 0.50091 0.0
C1615 C 0.72679 0.67435 0.44697 0.0
C1616 C 0.69972 0.69013 0.54409 0.0
H1617 H 0.65783 0.73927 0.39398 0.0
H1618 H 0.67753 0.72303 0.3995 0.0
H1619 H 0.68017 0.69884 0.57367 0.0
H1620 H 0.74101 0.65944 0.59941 0.0
H1621 H 0.72418 0.6788 0.60075 0.0
H1622 H 0.72031 0.70344 0.43086 0.0
C1623 C 0.67279 0.7266 0.4416 0.0
C1624 C 0.68898 0.70013 0.54295 0.0
C1625 C 0.66147 0.73591 0.4384 0.0
C1626 C 0.73728 0.66361 0.55644 0.0
C1627 C 0.72753 0.67459 0.55724 0.0
C1628 C 0.71159 0.70235 0.46224 0.0
C1629 C 0.67762 0.72163 0.4982 0.0
C1630 C 0.68938 0.71134 0.50124 0.0
C1631 C 0.72207 0.67998 0.50254 0.0
C1632 C 0.71108 0.69105 0.50337 0.0
H1633 H 0.65454 0.73897 0.59022 0.0
H1634 H 0.67445 0.72285 0.59598 0.0
H1635 H 0.70167 0.72103 0.42933 0.0
H1636 H 0.73974 0.65904 0.4027 0.0
H1637 H 0.72269 0.6782 0.40407 0.0
C1638 C 0.33485 0.74413 0.49352 0.0
C1639 C 0.34901 0.7399 0.49471 0.0
C1640 C 0.32406 0.73414 0.49385 0.0
C1641 C 0.31716 0.69732 0.53708 0.0
H1642 H 0.28448 0.70076 0.43264 0.0
C1643 C 0.27926 0.65131 0.499 0.0
C1644 C 0.26476 0.6541 0.49799 0.0
C1645 C 0.28898 0.66227 0.49957 0.0
C1646 C 0.29346 0.69975 0.46264 0.0
H1647 H 0.36289 0.72183 0.49746 0.0
H1648 H 0.34415 0.70448 0.49672 0.0
H1649 H 0.30253 0.71904 0.4311 0.0
H1650 H 0.24912 0.67065 0.49622 0.0
H1651 H 0.26618 0.68988 0.4972 0.0
H1652 H 0.3082 0.67804 0.56842 0.0
C1653 C 0.34136 0.71551 0.49608 0.0
C1654 C 0.3038 0.71021 0.46173 0.0
C1655 C 0.35212 0.72547 0.49563 0.0
C1656 C 0.26022 0.66815 0.49671 0.0
C1657 C 0.26998 0.67916 0.49721 0.0
C1658 C 0.30686 0.68689 0.53799 0.0
C1659 C 0.32721 0.71971 0.49577 0.0
C1660 C 0.31585 0.70901 0.49839 0.0
C1661 C 0.28448 0.67632 0.49902 0.0
C1662 C 0.29497 0.68788 0.50024 0.0
H1663 H 0.33211 0.75517 0.49245 0.0
H1664 H 0.31326 0.73771 0.49392 0.0
H1665 H 0.32617 0.69623 0.56689 0.0
H1666 H 0.28315 0.64062 0.49838 0.0
H1667 H 0.30007 0.65971 0.49957 0.0
C1668 C 0.33727 0.2659 0.42804 0.0
C1669 C 0.34431 0.26175 0.48133 0.0
C1670 C 0.32588 0.27512 0.43102 0.0
C1671 C 0.30974 0.30179 0.5322 0.0
H1672 H 0.27842 0.29849 0.42004 0.0
C1673 C 0.2608 0.33726 0.54921 0.0
C1674 C 0.25648 0.34362 0.49453 0.0
C1675 C 0.27071 0.32643 0.54865 0.0
C1676 C 0.28713 0.29957 0.45145 0.0
H1677 H 0.34472 0.26367 0.57964 0.0
H1678 H 0.32461 0.27952 0.58519 0.0
H1679 H 0.29713 0.28097 0.4181 0.0
H1680 H 0.25881 0.34334 0.39633 0.0
H1681 H 0.2761 0.32432 0.3953 0.0
H1682 H 0.29965 0.32034 0.56575 0.0
C1683 C 0.32808 0.27593 0.54086 0.0
C1684 C 0.29788 0.28956 0.45027 0.0
C1685 C 0.33957 0.26681 0.53779 0.0
C1686 C 0.26199 0.33866 0.43915 0.0
C1687 C 0.2718 0.32773 0.43855 0.0
C1688 C 0.29893 0.31171 0.53374 0.0
C1689 C 0.32117 0.28033 0.48744 0.0
C1690 C 0.30939 0.29061 0.49032 0.0
C1691 C 0.27641 0.32165 0.49338 0.0
C1692 C 0.28756 0.31076 0.49311 0.0
H1693 H 0.34083 0.26233 0.38378 0.0
H1694 H 0.32101 0.27845 0.38884 0.0
H1695 H 0.31854 0.30312 0.56293 0.0
H1696 H 0.25687 0.34096 0.59266 0.0
H1697 H 0.27399 0.32186 0.59155 0.0
C1698 C 0.74175 0.3338 0.50479 0.0
C1699 C 0.73722 0.34786 0.50232 0.0
C1700 C 0.73198 0.32282 0.50723 0.0
C1701 C 0.69506 0.3154 0.54725 0.0
H1702 H 0.6992 0.28287 0.4424 0.0
C1703 C 0.64929 0.27752 0.50467 0.0
C1704 C 0.65209 0.26303 0.50291 0.0
C1705 C 0.66024 0.28726 0.50587 0.0
C1706 C 0.69799 0.29179 0.47257 0.0
H1707 H 0.71882 0.36131 0.49859 0.0
H1708 H 0.7019 0.34226 0.50372 0.0
H1709 H 0.71747 0.30093 0.44357 0.0
H1710 H 0.66868 0.24743 0.50016 0.0
H1711 H 0.68788 0.26449 0.50323 0.0
H1712 H 0.67561 0.30638 0.57617 0.0
C1713 C 0.71299 0.33972 0.50487 0.0
C1714 C 0.70845 0.30213 0.47323 0.0
C1715 C 0.72271 0.35066 0.50213 0.0
C1716 C 0.66617 0.25852 0.50187 0.0
C1717 C 0.67716 0.26829 0.5031 0.0
C1718 C 0.68465 0.30508 0.54673 0.0
C1719 C 0.71749 0.32568 0.50752 0.0
C1720 C 0.70698 0.31416 0.50989 0.0
C1721 C 0.67431 0.28277 0.50567 0.0
C1722 C 0.68587 0.29326 0.50866 0.0
H1723 H 0.75284 0.33129 0.50543 0.0
H1724 H 0.73575 0.3121 0.50967 0.0
H1725 H 0.69375 0.32441 0.57688 0.0
H1726 H 0.6386 0.28139 0.50651 0.0
H1727 H 0.65766 0.29833 0.50691 0.0
loop_
_geom_bond_atom_site_label_1
_geom_bond_atom_site_label_2
_geom_bond_distance
_geom_bond_site_symmetry_2
_ccdc_geom_bond_type
C0 C1 1.351 . S
C0 N3 1.368 . S
C0 H5 0.931 . S
C1 C0 1.351 . S
C1 N2 1.373 . S
C1 H29 0.930 . S
N2 C1 1.373 . S
N2 C4 1.340 . S
N3 C0 1.368 . S
N3 C4 1.321 . S
N3 Co6 2.135 . S
C4 N2 1.340 . S
C4 N3 1.321 . S
C4 H28 0.930 . S
H5 C0 0.931 . S
Co6 N3 2.135 . S
Co6 N9 2.109 1_554 S
Co6 O14 2.055 . S
Co6 O17 2.039 . S
Co6 N20 2.140 . S
C7 O8 1.227 . S
C7 O17 1.265 . S
O8 C7 1.227 . S
N9 Co6 2.109 1_556 S
N9 C11 1.380 . S
N9 C12 1.323 . S
C10 C11 1.338 . S
C10 N13 1.377 . S
C10 H30 0.930 . S
C11 N9 1.380 . S
C11 C10 1.338 . S
C11 H15 0.926 1_556 S
C12 N9 1.323 . S
C12 N13 1.344 . S
C12 H16 0.930 . S
N13 C10 1.377 . S
N13 C12 1.344 . S
O14 Co6 2.055 . S
O14 C18 1.253 . S
H15 C11 0.926 1_554 S
H16 C12 0.930 . S
O17 Co6 2.039 . S
O17 C7 1.265 . S
C18 O14 1.253 . S
C18 O19 1.227 . S
O19 C18 1.227 . S
N20 Co6 2.140 . S
N20 C23 1.346 . S
N20 C24 1.345 . S
C21 C22 1.387 . S
C21 C25 1.391 . S
C22 C21 1.387 . S
C22 C23 1.369 . S
C22 H31 0.929 . S
C23 N20 1.346 . S
C23 C22 1.369 . S
C23 H26 0.928 . S
C24 N20 1.345 . S
C24 C25 1.371 . S
C24 H27 0.931 . S
C25 C21 1.391 . S
C25 C24 1.371 . S
C25 H32 0.930 1_554 S
H26 C23 0.928 . S
H27 C24 0.931 . S
H28 C4 0.930 . S
H29 C1 0.930 . S
H30 C10 0.930 . S
H31 C22 0.929 . S
H32 C25 0.930 1_556 S
C33 C34 1.351 . S
C33 N36 1.368 . S
C33 H38 0.931 . S
C34 C33 1.351 . S
C34 N35 1.373 . S
C34 H62 0.930 . S
N35 C34 1.373 . S
N35 C37 1.340 . S
N36 C33 1.368 . S
N36 C37 1.321 . S
N36 Co39 2.135 . S
C37 N35 1.340 . S
C37 N36 1.321 . S
C37 H61 0.930 . S
H38 C33 0.931 . S
Co39 N36 2.135 . S
Co39 N42 2.109 1_554 S
Co39 O47 2.055 . S
Co39 O50 2.039 . S
Co39 N53 2.140 . S
C40 O41 1.227 . S
C40 O50 1.265 . S
O41 C40 1.227 . S
N42 Co39 2.109 1_556 S
N42 C44 1.380 . S
N42 C45 1.323 . S
C43 C44 1.338 . S
C43 N46 1.377 . S
C43 H63 0.930 . S
C44 N42 1.380 . S
C44 C43 1.338 . S
C44 H48 0.926 1_556 S
C45 N42 1.323 . S
C45 N46 1.344 . S
C45 H49 0.930 . S
N46 C43 1.377 . S
N46 C45 1.344 . S
O47 Co39 2.055 . S
O47 C51 1.253 . S
H48 C44 0.926 1_554 S
H49 C45 0.930 . S
O50 Co39 2.039 . S
O50 C40 1.265 . S
C51 O47 1.253 . S
C51 O52 1.227 . S
O52 C51 1.227 . S
N53 Co39 2.140 . S
N53 C56 1.346 . S
N53 C57 1.345 . S
C54 C55 1.387 . S
C54 C58 1.391 . S
C55 C54 1.387 . S
C55 C56 1.369 . S
C55 H64 0.929 . S
C56 N53 1.346 . S
C56 C55 1.369 . S
C56 H59 0.928 . S
C57 N53 1.345 . S
C57 C58 1.371 . S
C57 H60 0.931 . S
C58 C54 1.391 . S
C58 C57 1.371 . S
C58 H65 0.930 1_554 S
H59 C56 0.928 . S
H60 C57 0.931 . S
H61 C37 0.930 . S
H62 C34 0.930 . S
H63 C43 0.930 . S
H64 C55 0.929 . S
H65 C58 0.930 1_556 S
C66 C67 1.351 . S
C66 N69 1.368 . S
C66 H71 0.931 . S
C67 C66 1.351 . S
C67 N68 1.373 . S
C67 H95 0.930 . S
N68 C67 1.373 . S
N68 C70 1.340 . S
N69 C66 1.368 . S
N69 C70 1.321 . S
N69 Co72 2.135 . S
C70 N68 1.340 . S
C70 N69 1.321 . S
C70 H94 0.930 . S
H71 C66 0.931 . S
Co72 N69 2.135 . S
Co72 N75 2.109 1_554 S
Co72 O80 2.055 . S
Co72 O83 2.039 . S
Co72 N86 2.140 . S
C73 O74 1.227 . S
C73 O83 1.265 . S
O74 C73 1.227 . S
N75 Co72 2.109 1_556 S
N75 C77 1.380 . S
N75 C78 1.323 . S
C76 C77 1.338 . S
C76 N79 1.377 . S
C76 H96 0.930 . S
C77 N75 1.380 . S
C77 C76 1.338 . S
C77 H81 0.926 1_556 S
C78 N75 1.323 . S
C78 N79 1.344 . S
C78 H82 0.930 . S
N79 C76 1.377 . S
N79 C78 1.344 . S
O80 Co72 2.055 . S
O80 C84 1.253 . S
H81 C77 0.926 1_554 S
H82 C78 0.930 . S
O83 Co72 2.039 . S
O83 C73 1.265 . S
C84 O80 1.253 . S
C84 O85 1.227 . S
O85 C84 1.227 . S
N86 Co72 2.140 . S
N86 C89 1.346 . S
N86 C90 1.345 . S
C87 C88 1.387 . S
C87 C91 1.391 . S
C88 C87 1.387 . S
C88 C89 1.369 . S
C88 H97 0.929 . S
C89 N86 1.346 . S
C89 C88 1.369 . S
C89 H92 0.928 . S
C90 N86 1.345 . S
C90 C91 1.371 . S
C90 H93 0.931 . S
C91 C87 1.391 . S
C91 C90 1.371 . S
C91 H98 0.930 1_554 S
H92 C89 0.928 . S
H93 C90 0.931 . S
H94 C70 0.930 . S
H95 C67 0.930 . S
H96 C76 0.930 . S
H97 C88 0.929 . S
H98 C91 0.930 1_556 S
C99 C100 1.351 . S
C99 N102 1.368 . S
C99 H104 0.931 . S
C100 C99 1.351 . S
C100 N101 1.373 . S
C100 H128 0.930 . S
N101 C100 1.373 . S
N101 C103 1.340 . S
N102 C99 1.368 . S
N102 C103 1.321 . S
N102 Co105 2.135 . S
C103 N101 1.340 . S
C103 N102 1.321 . S
C103 H127 0.930 . S
H104 C99 0.931 . S
Co105 N102 2.135 . S
Co105 N108 2.109 1_554 S
Co105 O113 2.055 . S
Co105 O116 2.039 . S
Co105 N119 2.140 . S
C106 O107 1.227 . S
C106 O116 1.265 . S
O107 C106 1.227 . S
N108 Co105 2.109 1_556 S
N108 C110 1.380 . S
N108 C111 1.323 . S
C109 C110 1.338 . S
C109 N112 1.377 . S
C109 H129 0.930 . S
C110 N108 1.380 . S
C110 C109 1.338 . S
C110 H114 0.926 1_556 S
C111 N108 1.323 . S
C111 N112 1.344 . S
C111 H115 0.930 . S
N112 C109 1.377 . S
N112 C111 1.344 . S
O113 Co105 2.055 . S
O113 C117 1.253 . S
H114 C110 0.926 1_554 S
H115 C111 0.930 . S
O116 Co105 2.039 . S
O116 C106 1.265 . S
C117 O113 1.253 . S
C117 O118 1.227 . S
O118 C117 1.227 . S
N119 Co105 2.140 . S
N119 C122 1.346 . S
N119 C123 1.345 . S
C120 C121 1.387 . S
C120 C124 1.391 . S
C121 C120 1.387 . S
C121 C122 1.369 . S
C121 H130 0.929 . S
C122 N119 1.346 . S
C122 C121 1.369 . S
C122 H125 0.928 . S
C123 N119 1.345 . S
C123 C124 1.371 . S
C123 H126 0.931 . S
C124 C120 1.391 . S
C124 C123 1.371 . S
C124 H131 0.930 1_554 S
H125 C122 0.928 . S
H126 C123 0.931 . S
H127 C103 0.930 . S
H128 C100 0.930 . S
H129 C109 0.930 . S
H130 C121 0.929 . S
H131 C124 0.930 1_556 S
C132 C133 1.351 . S
C132 N135 1.368 . S
C132 H137 0.931 . S
C133 C132 1.351 . S
C133 N134 1.373 . S
C133 H161 0.930 . S
N134 C133 1.373 . S
N134 C136 1.340 . S
N135 C132 1.368 . S
N135 C136 1.321 . S
N135 Co138 2.135 . S
C136 N134 1.340 . S
C136 N135 1.321 . S
C136 H160 0.930 . S
H137 C132 0.931 . S
Co138 N135 2.135 . S
Co138 N141 2.109 1_556 S
Co138 O146 2.055 . S
Co138 O149 2.039 . S
Co138 N152 2.140 . S
C139 O140 1.227 . S
C139 O149 1.265 . S
O140 C139 1.227 . S
N141 Co138 2.109 1_554 S
N141 C143 1.380 . S
N141 C144 1.323 . S
C142 C143 1.338 . S
C142 N145 1.377 . S
C142 H162 0.930 . S
C143 N141 1.380 . S
C143 C142 1.338 . S
C143 H147 0.926 1_554 S
C144 N141 1.323 . S
C144 N145 1.344 . S
C144 H148 0.930 . S
N145 C142 1.377 . S
N145 C144 1.344 . S
O146 Co138 2.055 . S
O146 C150 1.253 . S
H147 C143 0.926 1_556 S
H148 C144 0.930 . S
O149 Co138 2.039 . S
O149 C139 1.265 . S
C150 O146 1.253 . S
C150 O151 1.227 . S
O151 C150 1.227 . S
N152 Co138 2.140 . S
N152 C155 1.346 . S
N152 C156 1.345 . S
C153 C154 1.387 . S
C153 C157 1.391 . S
C154 C153 1.387 . S
C154 C155 1.369 . S
C154 H163 0.929 . S
C155 N152 1.346 . S
C155 C154 1.369 . S
C155 H158 0.928 . S
C156 N152 1.345 . S
C156 C157 1.371 . S
C156 H159 0.931 . S
C157 C153 1.391 . S
C157 C156 1.371 . S
C157 H164 0.930 1_556 S
H158 C155 0.928 . S
H159 C156 0.931 . S
H160 C136 0.930 . S
H161 C133 0.930 . S
H162 C142 0.930 . S
H163 C154 0.929 . S
H164 C157 0.930 1_554 S
C165 C166 1.351 . S
C165 N168 1.368 . S
C165 H170 0.931 . S
C166 C165 1.351 . S
C166 N167 1.373 . S
C166 H194 0.930 . S
N167 C166 1.373 . S
N167 C169 1.340 . S
N168 C165 1.368 . S
N168 C169 1.321 . S
N168 Co171 2.135 . S
C169 N167 1.340 . S
C169 N168 1.321 . S
C169 H193 0.930 . S
H170 C165 0.931 . S
Co171 N168 2.135 . S
Co171 N174 2.109 1_556 S
Co171 O179 2.055 . S
Co171 O182 2.039 . S
Co171 N185 2.140 . S
C172 O173 1.227 . S
C172 O182 1.265 . S
O173 C172 1.227 . S
N174 Co171 2.109 1_554 S
N174 C176 1.380 . S
N174 C177 1.323 . S
C175 C176 1.338 . S
C175 N178 1.377 . S
C175 H195 0.930 . S
C176 N174 1.380 . S
C176 C175 1.338 . S
C176 H180 0.926 1_554 S
C177 N174 1.323 . S
C177 N178 1.344 . S
C177 H181 0.930 . S
N178 C175 1.377 . S
N178 C177 1.344 . S
O179 Co171 2.055 . S
O179 C183 1.253 . S
H180 C176 0.926 1_556 S
H181 C177 0.930 . S
O182 Co171 2.039 . S
O182 C172 1.265 . S
C183 O179 1.253 . S
C183 O184 1.227 . S
O184 C183 1.227 . S
N185 Co171 2.140 . S
N185 C188 1.346 . S
N185 C189 1.345 . S
C186 C187 1.387 . S
C186 C190 1.391 . S
C187 C186 1.387 . S
C187 C188 1.369 . S
C187 H196 0.929 . S
C188 N185 1.346 . S
C188 C187 1.369 . S
C188 H191 0.928 . S
C189 N185 1.345 . S
C189 C190 1.371 . S
C189 H192 0.931 . S
C190 C186 1.391 . S
C190 C189 1.371 . S
C190 H197 0.930 1_556 S
H191 C188 0.928 . S
H192 C189 0.931 . S
H193 C169 0.930 . S
H194 C166 0.930 . S
H195 C175 0.930 . S
H196 C187 0.929 . S
H197 C190 0.930 1_554 S
C198 C199 1.351 . S
C198 N201 1.368 . S
C198 H203 0.931 . S
C199 C198 1.351 . S
C199 N200 1.373 . S
C199 H227 0.930 . S
N200 C199 1.373 . S
N200 C202 1.340 . S
N201 C198 1.368 . S
N201 C202 1.321 . S
N201 Co204 2.135 . S
C202 N200 1.340 . S
C202 N201 1.321 . S
C202 H226 0.930 . S
H203 C198 0.931 . S
Co204 N201 2.135 . S
Co204 N207 2.109 1_556 S
Co204 O212 2.055 . S
Co204 O215 2.039 . S
Co204 N218 2.140 . S
C205 O206 1.227 . S
C205 O215 1.265 . S
O206 C205 1.227 . S
N207 Co204 2.109 1_554 S
N207 C209 1.380 . S
N207 C210 1.323 . S
C208 C209 1.338 . S
C208 N211 1.377 . S
C208 H228 0.930 . S
C209 N207 1.380 . S
C209 C208 1.338 . S
C209 H213 0.926 1_554 S
C210 N207 1.323 . S
C210 N211 1.344 . S
C210 H214 0.930 . S
N211 C208 1.377 . S
N211 C210 1.344 . S
O212 Co204 2.055 . S
O212 C216 1.253 . S
H213 C209 0.926 1_556 S
H214 C210 0.930 . S
O215 Co204 2.039 . S
O215 C205 1.265 . S
C216 O212 1.253 . S
C216 O217 1.227 . S
O217 C216 1.227 . S
N218 Co204 2.140 . S
N218 C221 1.346 . S
N218 C222 1.345 . S
C219 C220 1.387 . S
C219 C223 1.391 . S
C220 C219 1.387 . S
C220 C221 1.369 . S
C220 H229 0.929 . S
C221 N218 1.346 . S
C221 C220 1.369 . S
C221 H224 0.928 . S
C222 N218 1.345 . S
C222 C223 1.371 . S
C222 H225 0.931 . S
C223 C219 1.391 . S
C223 C222 1.371 . S
C223 H230 0.930 1_556 S
H224 C221 0.928 . S
H225 C222 0.931 . S
H226 C202 0.930 . S
H227 C199 0.930 . S
H228 C208 0.930 . S
H229 C220 0.929 . S
H230 C223 0.930 1_554 S
C231 C232 1.351 . S
C231 N234 1.368 . S
C231 H236 0.931 . S
C232 C231 1.351 . S
C232 N233 1.373 . S
C232 H260 0.930 . S
N233 C232 1.373 . S
N233 C235 1.340 . S
N234 C231 1.368 . S
N234 C235 1.321 . S
N234 Co237 2.135 . S
C235 N233 1.340 . S
C235 N234 1.321 . S
C235 H259 0.930 . S
H236 C231 0.931 . S
Co237 N234 2.135 . S
Co237 N240 2.109 1_556 S
Co237 O245 2.055 . S
Co237 O248 2.039 . S
Co237 N251 2.140 . S
C238 O239 1.227 . S
C238 O248 1.265 . S
O239 C238 1.227 . S
N240 Co237 2.109 1_554 S
N240 C242 1.380 . S
N240 C243 1.323 . S
C241 C242 1.338 . S
C241 N244 1.377 . S
C241 H261 0.930 . S
C242 N240 1.380 . S
C242 C241 1.338 . S
C242 H246 0.926 1_554 S
C243 N240 1.323 . S
C243 N244 1.344 . S
C243 H247 0.930 . S
N244 C241 1.377 . S
N244 C243 1.344 . S
O245 Co237 2.055 . S
O245 C249 1.253 . S
H246 C242 0.926 1_556 S
H247 C243 0.930 . S
O248 Co237 2.039 . S
O248 C238 1.265 . S
C249 O245 1.253 . S
C249 O250 1.227 . S
O250 C249 1.227 . S
N251 Co237 2.140 . S
N251 C254 1.346 . S
N251 C255 1.345 . S
C252 C253 1.387 . S
C252 C256 1.391 . S
C253 C252 1.387 . S
C253 C254 1.369 . S
C253 H262 0.929 . S
C254 N251 1.346 . S
C254 C253 1.369 . S
C254 H257 0.928 . S
C255 N251 1.345 . S
C255 C256 1.371 . S
C255 H258 0.931 . S
C256 C252 1.391 . S
C256 C255 1.371 . S
C256 H263 0.930 1_556 S
H257 C254 0.928 . S
H258 C255 0.931 . S
H259 C235 0.930 . S
H260 C232 0.930 . S
H261 C241 0.930 . S
H262 C253 0.929 . S
H263 C256 0.930 1_554 S
C264 C265 1.351 . S
C264 N267 1.368 . S
C264 H269 0.931 . S
C265 C264 1.351 . S
C265 N266 1.373 . S
C265 H293 0.930 . S
N266 C265 1.373 . S
N266 C268 1.340 . S
N267 C264 1.368 . S
N267 C268 1.321 . S
N267 Co270 2.135 . S
C268 N266 1.340 . S
C268 N267 1.321 . S
C268 H292 0.930 . S
H269 C264 0.931 . S
Co270 N267 2.135 . S
Co270 N273 2.121 . S
Co270 O278 2.055 . S
Co270 O281 2.039 . S
Co270 N284 2.140 . S
C271 O272 1.227 . S
C271 O281 1.265 . S
O272 C271 1.227 . S
N273 Co270 2.121 . S
N273 C275 1.375 . S
N273 C276 1.313 . S
C274 C275 1.338 . S
C274 N277 1.377 . S
C274 H294 0.930 . S
C275 N273 1.375 . S
C275 C274 1.338 . S
C275 H279 0.931 . S
C276 N273 1.313 . S
C276 N277 1.344 . S
C276 H280 0.930 . S
N277 C274 1.377 . S
N277 C276 1.344 . S
O278 Co270 2.055 . S
O278 C282 1.253 . S
H279 C275 0.931 . S
H280 C276 0.930 . S
O281 Co270 2.039 . S
O281 C271 1.265 . S
C282 O278 1.253 . S
C282 O283 1.227 . S
O283 C282 1.227 . S
N284 Co270 2.140 . S
N284 C287 1.346 . S
N284 C288 1.345 . S
C285 C286 1.387 . S
C285 C289 1.391 . S
C286 C285 1.387 . S
C286 C287 1.369 . S
C286 H295 0.929 . S
C287 N284 1.346 . S
C287 C286 1.369 . S
C287 H290 0.928 . S
C288 N284 1.345 . S
C288 C289 1.371 . S
C288 H291 0.931 . S
C289 C285 1.391 . S
C289 C288 1.371 . S
C289 H296 0.930 . S
H290 C287 0.928 . S
H291 C288 0.931 . S
H292 C268 0.930 . S
H293 C265 0.930 . S
H294 C274 0.930 . S
H295 C286 0.929 . S
H296 C289 0.930 . S
C297 C298 1.351 . S
C297 N300 1.368 . S
C297 H302 0.931 . S
C298 C297 1.351 . S
C298 N299 1.373 . S
C298 H326 0.930 . S
N299 C298 1.373 . S
N299 C301 1.340 . S
N300 C297 1.368 . S
N300 C301 1.321 . S
N300 Co303 2.135 . S
C301 N299 1.340 . S
C301 N300 1.321 . S
C301 H325 0.930 . S
H302 C297 0.931 . S
Co303 N300 2.135 . S
Co303 N306 2.121 . S
Co303 O311 2.055 . S
Co303 O314 2.039 . S
Co303 N317 2.140 . S
C304 O305 1.227 . S
C304 O314 1.265 . S
O305 C304 1.227 . S
N306 Co303 2.121 . S
N306 C308 1.375 . S
N306 C309 1.313 . S
C307 C308 1.338 . S
C307 N310 1.377 . S
C307 H327 0.930 . S
C308 N306 1.375 . S
C308 C307 1.338 . S
C308 H312 0.931 . S
C309 N306 1.313 . S
C309 N310 1.344 . S
C309 H313 0.930 . S
N310 C307 1.377 . S
N310 C309 1.344 . S
O311 Co303 2.055 . S
O311 C315 1.253 . S
H312 C308 0.931 . S
H313 C309 0.930 . S
O314 Co303 2.039 . S
O314 C304 1.265 . S
C315 O311 1.253 . S
C315 O316 1.227 . S
O316 C315 1.227 . S
N317 Co303 2.140 . S
N317 C320 1.346 . S
N317 C321 1.345 . S
C318 C319 1.387 . S
C318 C322 1.391 . S
C319 C318 1.387 . S
C319 C320 1.369 . S
C319 H328 0.929 . S
C320 N317 1.346 . S
C320 C319 1.369 . S
C320 H323 0.928 . S
C321 N317 1.345 . S
C321 C322 1.371 . S
C321 H324 0.931 . S
C322 C318 1.391 . S
C322 C321 1.371 . S
C322 H329 0.930 . S
H323 C320 0.928 . S
H324 C321 0.931 . S
H325 C301 0.930 . S
H326 C298 0.930 . S
H327 C307 0.930 . S
H328 C319 0.929 . S
H329 C322 0.930 . S
C330 C331 1.351 . S
C330 N333 1.368 . S
C330 H335 0.931 . S
C331 C330 1.351 . S
C331 N332 1.373 . S
C331 H359 0.930 . S
N332 C331 1.373 . S
N332 C334 1.340 . S
N333 C330 1.368 . S
N333 C334 1.321 . S
N333 Co336 2.135 . S
C334 N332 1.340 . S
C334 N333 1.321 . S
C334 H358 0.930 . S
H335 C330 0.931 . S
Co336 N333 2.135 . S
Co336 N339 2.121 . S
Co336 O344 2.055 . S
Co336 O347 2.039 . S
Co336 N350 2.140 . S
C337 O338 1.227 . S
C337 O347 1.265 . S
O338 C337 1.227 . S
N339 Co336 2.121 . S
N339 C341 1.375 . S
N339 C342 1.313 . S
C340 C341 1.338 . S
C340 N343 1.377 . S
C340 H360 0.930 . S
C341 N339 1.375 . S
C341 C340 1.338 . S
C341 H345 0.931 . S
C342 N339 1.313 . S
C342 N343 1.344 . S
C342 H346 0.930 . S
N343 C340 1.377 . S
N343 C342 1.344 . S
O344 Co336 2.055 . S
O344 C348 1.253 . S
H345 C341 0.931 . S
H346 C342 0.930 . S
O347 Co336 2.039 . S
O347 C337 1.265 . S
C348 O344 1.253 . S
C348 O349 1.227 . S
O349 C348 1.227 . S
N350 Co336 2.140 . S
N350 C353 1.346 . S
N350 C354 1.345 . S
C351 C352 1.387 . S
C351 C355 1.391 . S
C352 C351 1.387 . S
C352 C353 1.369 . S
C352 H361 0.929 . S
C353 N350 1.346 . S
C353 C352 1.369 . S
C353 H356 0.928 . S
C354 N350 1.345 . S
C354 C355 1.371 . S
C354 H357 0.931 . S
C355 C351 1.391 . S
C355 C354 1.371 . S
C355 H362 0.930 . S
H356 C353 0.928 . S
H357 C354 0.931 . S
H358 C334 0.930 . S
H359 C331 0.930 . S
H360 C340 0.930 . S
H361 C352 0.929 . S
H362 C355 0.930 . S
C363 C364 1.351 . S
C363 N366 1.368 . S
C363 H368 0.931 . S
C364 C363 1.351 . S
C364 N365 1.373 . S
C364 H392 0.930 . S
N365 C364 1.373 . S
N365 C367 1.340 . S
N366 C363 1.368 . S
N366 C367 1.321 . S
N366 Co369 2.135 . S
C367 N365 1.340 . S
C367 N366 1.321 . S
C367 H391 0.930 . S
H368 C363 0.931 . S
Co369 N366 2.135 . S
Co369 N372 2.121 . S
Co369 O377 2.055 . S
Co369 O380 2.039 . S
Co369 N383 2.140 . S
C370 O371 1.227 . S
C370 O380 1.265 . S
O371 C370 1.227 . S
N372 Co369 2.121 . S
N372 C374 1.375 . S
N372 C375 1.313 . S
C373 C374 1.338 . S
C373 N376 1.377 . S
C373 H393 0.930 . S
C374 N372 1.375 . S
C374 C373 1.338 . S
C374 H378 0.931 . S
C375 N372 1.313 . S
C375 N376 1.344 . S
C375 H379 0.930 . S
N376 C373 1.377 . S
N376 C375 1.344 . S
O377 Co369 2.055 . S
O377 C381 1.253 . S
H378 C374 0.931 . S
H379 C375 0.930 . S
O380 Co369 2.039 . S
O380 C370 1.265 . S
C381 O377 1.253 . S
C381 O382 1.227 . S
O382 C381 1.227 . S
N383 Co369 2.140 . S
N383 C386 1.346 . S
N383 C387 1.345 . S
C384 C385 1.387 . S
C384 C388 1.391 . S
C385 C384 1.387 . S
C385 C386 1.369 . S
C385 H394 0.929 . S
C386 N383 1.346 . S
C386 C385 1.369 . S
C386 H389 0.928 . S
C387 N383 1.345 . S
C387 C388 1.371 . S
C387 H390 0.931 . S
C388 C384 1.391 . S
C388 C387 1.371 . S
C388 H395 0.930 . S
H389 C386 0.928 . S
H390 C387 0.931 . S
H391 C367 0.930 . S
H392 C364 0.930 . S
H393 C373 0.930 . S
H394 C385 0.929 . S
H395 C388 0.930 . S
C396 C397 1.351 . S
C396 N399 1.368 . S
C396 H401 0.931 . S
C397 C396 1.351 . S
C397 N398 1.373 . S
C397 H425 0.930 . S
N398 C397 1.373 . S
N398 C400 1.340 . S
N399 C396 1.368 . S
N399 C400 1.321 . S
N399 Co402 2.135 . S
C400 N398 1.340 . S
C400 N399 1.321 . S
C400 H424 0.930 . S
H401 C396 0.931 . S
Co402 N399 2.135 . S
Co402 N405 2.121 . S
Co402 O410 2.055 . S
Co402 O413 2.039 . S
Co402 N416 2.140 . S
C403 O404 1.227 . S
C403 O413 1.265 . S
O404 C403 1.227 . S
N405 Co402 2.121 . S
N405 C407 1.375 . S
N405 C408 1.313 . S
C406 C407 1.338 . S
C406 N409 1.377 . S
C406 H426 0.930 . S
C407 N405 1.375 . S
C407 C406 1.338 . S
C407 H411 0.931 . S
C408 N405 1.313 . S
C408 N409 1.344 . S
C408 H412 0.930 . S
N409 C406 1.377 . S
N409 C408 1.344 . S
O410 Co402 2.055 . S
O410 C414 1.253 . S
H411 C407 0.931 . S
H412 C408 0.930 . S
O413 Co402 2.039 . S
O413 C403 1.265 . S
C414 O410 1.253 . S
C414 O415 1.227 . S
O415 C414 1.227 . S
N416 Co402 2.140 . S
N416 C419 1.346 . S
N416 C420 1.345 . S
C417 C418 1.387 . S
C417 C421 1.391 . S
C418 C417 1.387 . S
C418 C419 1.369 . S
C418 H427 0.929 . S
C419 N416 1.346 . S
C419 C418 1.369 . S
C419 H422 0.928 . S
C420 N416 1.345 . S
C420 C421 1.371 . S
C420 H423 0.931 . S
C421 C417 1.391 . S
C421 C420 1.371 . S
C421 H428 0.930 . S
H422 C419 0.928 . S
H423 C420 0.931 . S
H424 C400 0.930 . S
H425 C397 0.930 . S
H426 C406 0.930 . S
H427 C418 0.929 . S
H428 C421 0.930 . S
C429 C430 1.351 . S
C429 N432 1.368 . S
C429 H434 0.931 . S
C430 C429 1.351 . S
C430 N431 1.373 . S
C430 H458 0.930 . S
N431 C430 1.373 . S
N431 C433 1.340 . S
N432 C429 1.368 . S
N432 C433 1.321 . S
N432 Co435 2.135 . S
C433 N431 1.340 . S
C433 N432 1.321 . S
C433 H457 0.930 . S
H434 C429 0.931 . S
Co435 N432 2.135 . S
Co435 N438 2.121 . S
Co435 O443 2.055 . S
Co435 O446 2.039 . S
Co435 N449 2.140 . S
C436 O437 1.227 . S
C436 O446 1.265 . S
O437 C436 1.227 . S
N438 Co435 2.121 . S
N438 C440 1.375 . S
N438 C441 1.313 . S
C439 C440 1.338 . S
C439 N442 1.377 . S
C439 H459 0.930 . S
C440 N438 1.375 . S
C440 C439 1.338 . S
C440 H444 0.931 . S
C441 N438 1.313 . S
C441 N442 1.344 . S
C441 H445 0.930 . S
N442 C439 1.377 . S
N442 C441 1.344 . S
O443 Co435 2.055 . S
O443 C447 1.253 . S
H444 C440 0.931 . S
H445 C441 0.930 . S
O446 Co435 2.039 . S
O446 C436 1.265 . S
C447 O443 1.253 . S
C447 O448 1.227 . S
O448 C447 1.227 . S
N449 Co435 2.140 . S
N449 C452 1.346 . S
N449 C453 1.345 . S
C450 C451 1.387 . S
C450 C454 1.391 . S
C451 C450 1.387 . S
C451 C452 1.369 . S
C451 H460 0.929 . S
C452 N449 1.346 . S
C452 C451 1.369 . S
C452 H455 0.928 . S
C453 N449 1.345 . S
C453 C454 1.371 . S
C453 H456 0.931 . S
C454 C450 1.391 . S
C454 C453 1.371 . S
C454 H461 0.930 . S
H455 C452 0.928 . S
H456 C453 0.931 . S
H457 C433 0.930 . S
H458 C430 0.930 . S
H459 C439 0.930 . S
H460 C451 0.929 . S
H461 C454 0.930 . S
C462 C463 1.351 . S
C462 N465 1.368 . S
C462 H467 0.931 . S
C463 C462 1.351 . S
C463 N464 1.373 . S
C463 H491 0.930 . S
N464 C463 1.373 . S
N464 C466 1.340 . S
N465 C462 1.368 . S
N465 C466 1.321 . S
N465 Co468 2.135 . S
C466 N464 1.340 . S
C466 N465 1.321 . S
C466 H490 0.930 . S
H467 C462 0.931 . S
Co468 N465 2.135 . S
Co468 N471 2.121 . S
Co468 O476 2.055 . S
Co468 O479 2.039 . S
Co468 N482 2.140 . S
C469 O470 1.227 . S
C469 O479 1.265 . S
O470 C469 1.227 . S
N471 Co468 2.121 . S
N471 C473 1.375 . S
N471 C474 1.313 . S
C472 C473 1.338 . S
C472 N475 1.377 . S
C472 H492 0.930 . S
C473 N471 1.375 . S
C473 C472 1.338 . S
C473 H477 0.931 . S
C474 N471 1.313 . S
C474 N475 1.344 . S
C474 H478 0.930 . S
N475 C472 1.377 . S
N475 C474 1.344 . S
O476 Co468 2.055 . S
O476 C480 1.253 . S
H477 C473 0.931 . S
H478 C474 0.930 . S
O479 Co468 2.039 . S
O479 C469 1.265 . S
C480 O476 1.253 . S
C480 O481 1.227 . S
O481 C480 1.227 . S
N482 Co468 2.140 . S
N482 C485 1.346 . S
N482 C486 1.345 . S
C483 C484 1.387 . S
C483 C487 1.391 . S
C484 C483 1.387 . S
C484 C485 1.369 . S
C484 H493 0.929 . S
C485 N482 1.346 . S
C485 C484 1.369 . S
C485 H488 0.928 . S
C486 N482 1.345 . S
C486 C487 1.371 . S
C486 H489 0.931 . S
C487 C483 1.391 . S
C487 C486 1.371 . S
C487 H494 0.930 . S
H488 C485 0.928 . S
H489 C486 0.931 . S
H490 C466 0.930 . S
H491 C463 0.930 . S
H492 C472 0.930 . S
H493 C484 0.929 . S
H494 C487 0.930 . S
C495 C496 1.351 . S
C495 N498 1.368 . S
C495 H500 0.931 . S
C496 C495 1.351 . S
C496 N497 1.373 . S
C496 H524 0.930 . S
N497 C496 1.373 . S
N497 C499 1.340 . S
N498 C495 1.368 . S
N498 C499 1.321 . S
N498 Co501 2.135 . S
C499 N497 1.340 . S
C499 N498 1.321 . S
C499 H523 0.930 . S
H500 C495 0.931 . S
Co501 N498 2.135 . S
Co501 N504 2.121 . S
Co501 O509 2.055 . S
Co501 O512 2.039 . S
Co501 N515 2.140 . S
C502 O503 1.227 . S
C502 O512 1.265 . S
O503 C502 1.227 . S
N504 Co501 2.121 . S
N504 C506 1.375 . S
N504 C507 1.313 . S
C505 C506 1.338 . S
C505 N508 1.377 . S
C505 H525 0.930 . S
C506 N504 1.375 . S
C506 C505 1.338 . S
C506 H510 0.931 . S
C507 N504 1.313 . S
C507 N508 1.344 . S
C507 H511 0.930 . S
N508 C505 1.377 . S
N508 C507 1.344 . S
O509 Co501 2.055 . S
O509 C513 1.253 . S
H510 C506 0.931 . S
H511 C507 0.930 . S
O512 Co501 2.039 . S
O512 C502 1.265 . S
C513 O509 1.253 . S
C513 O514 1.227 . S
O514 C513 1.227 . S
N515 Co501 2.140 . S
N515 C518 1.346 . S
N515 C519 1.345 . S
C516 C517 1.387 . S
C516 C520 1.391 . S
C517 C516 1.387 . S
C517 C518 1.369 . S
C517 H526 0.929 . S
C518 N515 1.346 . S
C518 C517 1.369 . S
C518 H521 0.928 . S
C519 N515 1.345 . S
C519 C520 1.371 . S
C519 H522 0.931 . S
C520 C516 1.391 . S
C520 C519 1.371 . S
C520 H527 0.930 . S
H521 C518 0.928 . S
H522 C519 0.931 . S
H523 C499 0.930 . S
H524 C496 0.930 . S
H525 C505 0.930 . S
H526 C517 0.929 . S
H527 C520 0.930 . S
C528 C529 1.349 . S
C528 C530 1.327 . S
C528 H553 0.950 . S
C529 C528 1.349 . S
C529 C545 1.349 . S
C530 C528 1.327 . S
C530 C549 1.429 . S
C530 H554 0.950 . S
C531 C548 1.574 . S
C531 C550 1.368 . S
C531 H555 0.949 . S
H532 C536 0.949 . S
C533 C534 1.349 . S
C533 C535 1.327 . S
C533 H556 0.950 . S
C534 C533 1.349 . S
C534 C546 1.349 . S
C535 C533 1.327 . S
C535 C551 1.429 . S
C535 H557 0.950 . S
C536 H532 0.949 . S
C536 C544 1.574 . S
C536 C552 1.368 . S
H537 C545 0.950 . S
H538 C543 0.950 . S
H539 C544 0.949 . S
H540 C546 0.950 . S
H541 C547 0.950 . S
H542 C548 0.949 . S
C543 H538 0.950 . S
C543 C545 1.327 . S
C543 C549 1.429 . S
C544 C536 1.574 . S
C544 H539 0.949 . S
C544 C550 1.368 . S
C545 C529 1.349 . S
C545 H537 0.950 . S
C545 C543 1.327 . S
C546 C534 1.349 . S
C546 H540 0.950 . S
C546 C547 1.327 . S
C547 H541 0.950 . S
C547 C546 1.327 . S
C547 C551 1.429 . S
C548 C531 1.574 . S
C548 H542 0.949 . S
C548 C552 1.368 . S
C549 C530 1.429 . S
C549 C543 1.429 . S
C549 C550 1.523 . S
C550 C531 1.368 . S
C550 C544 1.368 . S
C550 C549 1.523 . S
C551 C535 1.429 . S
C551 C547 1.429 . S
C551 C552 1.523 . S
C552 C536 1.368 . S
C552 C548 1.368 . S
C552 C551 1.523 . S
H553 C528 0.950 . S
H554 C530 0.950 . S
H555 C531 0.949 . S
H556 C533 0.950 . S
H557 C535 0.950 . S
C558 C559 1.349 . S
C558 C560 1.327 . S
C558 H583 0.950 . S
C559 C558 1.349 . S
C559 C575 1.349 . S
C560 C558 1.327 . S
C560 C579 1.429 . S
C560 H584 0.950 . S
C561 C578 1.574 . S
C561 C580 1.368 . S
C561 H585 0.949 . S
H562 C566 0.949 . S
C563 C564 1.349 . S
C563 C565 1.327 . S
C563 H586 0.950 . S
C564 C563 1.349 . S
C564 C576 1.349 . S
C565 C563 1.327 . S
C565 C581 1.429 . S
C565 H587 0.950 . S
C566 H562 0.949 . S
C566 C574 1.574 . S
C566 C582 1.368 . S
H567 C575 0.950 . S
H568 C573 0.950 . S
H569 C574 0.949 . S
H570 C576 0.950 . S
H571 C577 0.950 . S
H572 C578 0.949 . S
C573 H568 0.950 . S
C573 C575 1.327 . S
C573 C579 1.429 . S
C574 C566 1.574 . S
C574 H569 0.949 . S
C574 C580 1.368 . S
C575 C559 1.349 . S
C575 H567 0.950 . S
C575 C573 1.327 . S
C576 C564 1.349 . S
C576 H570 0.950 . S
C576 C577 1.327 . S
C577 H571 0.950 . S
C577 C576 1.327 . S
C577 C581 1.429 . S
C578 C561 1.574 . S
C578 H572 0.949 . S
C578 C582 1.368 . S
C579 C560 1.429 . S
C579 C573 1.429 . S
C579 C580 1.523 . S
C580 C561 1.368 . S
C580 C574 1.368 . S
C580 C579 1.523 . S
C581 C565 1.429 . S
C581 C577 1.429 . S
C581 C582 1.523 . S
C582 C566 1.368 . S
C582 C578 1.368 . S
C582 C581 1.523 . S
H583 C558 0.950 . S
H584 C560 0.950 . S
H585 C561 0.949 . S
H586 C563 0.950 . S
H587 C565 0.950 . S
C588 C589 1.349 . S
C588 C590 1.327 . S
C588 H613 0.950 . S
C589 C588 1.349 . S
C589 C605 1.349 . S
C590 C588 1.327 . S
C590 C609 1.429 . S
C590 H614 0.950 . S
C591 C608 1.574 . S
C591 C610 1.368 . S
C591 H615 0.949 . S
H592 C596 0.949 . S
C593 C594 1.349 . S
C593 C595 1.327 . S
C593 H616 0.950 . S
C594 C593 1.349 . S
C594 C606 1.349 . S
C595 C593 1.327 . S
C595 C611 1.429 . S
C595 H617 0.950 . S
C596 H592 0.949 . S
C596 C604 1.574 . S
C596 C612 1.368 . S
H597 C605 0.950 . S
H598 C603 0.950 . S
H599 C604 0.949 . S
H600 C606 0.950 . S
H601 C607 0.950 . S
H602 C608 0.949 . S
C603 H598 0.950 . S
C603 C605 1.327 . S
C603 C609 1.429 . S
C604 C596 1.574 . S
C604 H599 0.949 . S
C604 C610 1.368 . S
C605 C589 1.349 . S
C605 H597 0.950 . S
C605 C603 1.327 . S
C606 C594 1.349 . S
C606 H600 0.950 . S
C606 C607 1.327 . S
C607 H601 0.950 . S
C607 C606 1.327 . S
C607 C611 1.429 . S
C608 C591 1.574 . S
C608 H602 0.949 . S
C608 C612 1.368 . S
C609 C590 1.429 . S
C609 C603 1.429 . S
C609 C610 1.523 . S
C610 C591 1.368 . S
C610 C604 1.368 . S
C610 C609 1.523 . S
C611 C595 1.429 . S
C611 C607 1.429 . S
C611 C612 1.523 . S
C612 C596 1.368 . S
C612 C608 1.368 . S
C612 C611 1.523 . S
H613 C588 0.950 . S
H614 C590 0.950 . S
H615 C591 0.949 . S
H616 C593 0.950 . S
H617 C595 0.950 . S
C618 C619 1.349 . S
C618 C620 1.327 . S
C618 H643 0.950 . S
C619 C618 1.349 . S
C619 C635 1.349 . S
C620 C618 1.327 . S
C620 C639 1.429 . S
C620 H644 0.950 . S
C621 C638 1.574 . S
C621 C640 1.368 . S
C621 H645 0.949 . S
H622 C626 0.949 . S
C623 C624 1.349 . S
C623 C625 1.327 . S
C623 H646 0.950 . S
C624 C623 1.349 . S
C624 C636 1.349 . S
C625 C623 1.327 . S
C625 C641 1.429 . S
C625 H647 0.950 . S
C626 H622 0.949 . S
C626 C634 1.574 . S
C626 C642 1.368 . S
H627 C635 0.950 . S
H628 C633 0.950 . S
H629 C634 0.949 . S
H630 C636 0.950 . S
H631 C637 0.950 . S
H632 C638 0.949 . S
C633 H628 0.950 . S
C633 C635 1.327 . S
C633 C639 1.429 . S
C634 C626 1.574 . S
C634 H629 0.949 . S
C634 C640 1.368 . S
C635 C619 1.349 . S
C635 H627 0.950 . S
C635 C633 1.327 . S
C636 C624 1.349 . S
C636 H630 0.950 . S
C636 C637 1.327 . S
C637 H631 0.950 . S
C637 C636 1.327 . S
C637 C641 1.429 . S
C638 C621 1.574 . S
C638 H632 0.949 . S
C638 C642 1.368 . S
C639 C620 1.429 . S
C639 C633 1.429 . S
C639 C640 1.523 . S
C640 C621 1.368 . S
C640 C634 1.368 . S
C640 C639 1.523 . S
C641 C625 1.429 . S
C641 C637 1.429 . S
C641 C642 1.523 . S
C642 C626 1.368 . S
C642 C638 1.368 . S
C642 C641 1.523 . S
H643 C618 0.950 . S
H644 C620 0.950 . S
H645 C621 0.949 . S
H646 C623 0.950 . S
H647 C625 0.950 . S
C648 C649 1.349 . S
C648 C650 1.327 . S
C648 H673 0.950 . S
C649 C648 1.349 . S
C649 C665 1.349 . S
C650 C648 1.327 . S
C650 C669 1.429 . S
C650 H674 0.950 . S
C651 C668 1.574 . S
C651 C670 1.368 . S
C651 H675 0.949 . S
H652 C656 0.949 . S
C653 C654 1.349 . S
C653 C655 1.327 . S
C653 H676 0.950 . S
C654 C653 1.349 . S
C654 C666 1.349 . S
C655 C653 1.327 . S
C655 C671 1.429 . S
C655 H677 0.950 . S
C656 H652 0.949 . S
C656 C664 1.574 . S
C656 C672 1.368 . S
H657 C665 0.950 . S
H658 C663 0.950 . S
H659 C664 0.949 . S
H660 C666 0.950 . S
H661 C667 0.950 . S
H662 C668 0.949 . S
C663 H658 0.950 . S
C663 C665 1.327 . S
C663 C669 1.429 . S
C664 C656 1.574 . S
C664 H659 0.949 . S
C664 C670 1.368 . S
C665 C649 1.349 . S
C665 H657 0.950 . S
C665 C663 1.327 . S
C666 C654 1.349 . S
C666 H660 0.950 . S
C666 C667 1.327 . S
C667 H661 0.950 . S
C667 C666 1.327 . S
C667 C671 1.429 . S
C668 C651 1.574 . S
C668 H662 0.949 . S
C668 C672 1.368 . S
C669 C650 1.429 . S
C669 C663 1.429 . S
C669 C670 1.523 . S
C670 C651 1.368 . S
C670 C664 1.368 . S
C670 C669 1.523 . S
C671 C655 1.429 . S
C671 C667 1.429 . S
C671 C672 1.523 . S
C672 C656 1.368 . S
C672 C668 1.368 . S
C672 C671 1.523 . S
H673 C648 0.950 . S
H674 C650 0.950 . S
H675 C651 0.949 . S
H676 C653 0.950 . S
H677 C655 0.950 . S
C678 C679 1.349 . S
C678 C680 1.327 . S
C678 H703 0.950 . S
C679 C678 1.349 . S
C679 C695 1.349 . S
C680 C678 1.327 . S
C680 C699 1.429 . S
C680 H704 0.950 . S
C681 C698 1.574 . S
C681 C700 1.368 . S
C681 H705 0.949 . S
H682 C686 0.949 . S
C683 C684 1.349 . S
C683 C685 1.327 . S
C683 H706 0.950 . S
C684 C683 1.349 . S
C684 C696 1.349 . S
C685 C683 1.327 . S
C685 C701 1.429 . S
C685 H707 0.950 . S
C686 H682 0.949 . S
C686 C694 1.574 . S
C686 C702 1.368 . S
H687 C695 0.950 . S
H688 C693 0.950 . S
H689 C694 0.949 . S
H690 C696 0.950 . S
H691 C697 0.950 . S
H692 C698 0.949 . S
C693 H688 0.950 . S
C693 C695 1.327 . S
C693 C699 1.429 . S
C694 C686 1.574 . S
C694 H689 0.949 . S
C694 C700 1.368 . S
C695 C679 1.349 . S
C695 H687 0.950 . S
C695 C693 1.327 . S
C696 C684 1.349 . S
C696 H690 0.950 . S
C696 C697 1.327 . S
C697 H691 0.950 . S
C697 C696 1.327 . S
C697 C701 1.429 . S
C698 C681 1.574 . S
C698 H692 0.949 . S
C698 C702 1.368 . S
C699 C680 1.429 . S
C699 C693 1.429 . S
C699 C700 1.523 . S
C700 C681 1.368 . S
C700 C694 1.368 . S
C700 C699 1.523 . S
C701 C685 1.429 . S
C701 C697 1.429 . S
C701 C702 1.523 . S
C702 C686 1.368 . S
C702 C698 1.368 . S
C702 C701 1.523 . S
H703 C678 0.950 . S
H704 C680 0.950 . S
H705 C681 0.949 . S
H706 C683 0.950 . S
H707 C685 0.950 . S
C708 C709 1.349 . S
C708 C710 1.327 . S
C708 H733 0.950 . S
C709 C708 1.349 . S
C709 C725 1.349 . S
C710 C708 1.327 . S
C710 C729 1.429 . S
C710 H734 0.950 . S
C711 C728 1.574 . S
C711 C730 1.368 . S
C711 H735 0.949 . S
H712 C716 0.949 . S
C713 C714 1.349 . S
C713 C715 1.327 . S
C713 H736 0.950 . S
C714 C713 1.349 . S
C714 C726 1.349 . S
C715 C713 1.327 . S
C715 C731 1.429 . S
C715 H737 0.950 . S
C716 H712 0.949 . S
C716 C724 1.574 . S
C716 C732 1.368 . S
H717 C725 0.950 . S
H718 C723 0.950 . S
H719 C724 0.949 . S
H720 C726 0.950 . S
H721 C727 0.950 . S
H722 C728 0.949 . S
C723 H718 0.950 . S
C723 C725 1.327 . S
C723 C729 1.429 . S
C724 C716 1.574 . S
C724 H719 0.949 . S
C724 C730 1.368 . S
C725 C709 1.349 . S
C725 H717 0.950 . S
C725 C723 1.327 . S
C726 C714 1.349 . S
C726 H720 0.950 . S
C726 C727 1.327 . S
C727 H721 0.950 . S
C727 C726 1.327 . S
C727 C731 1.429 . S
C728 C711 1.574 . S
C728 H722 0.949 . S
C728 C732 1.368 . S
C729 C710 1.429 . S
C729 C723 1.429 . S
C729 C730 1.523 . S
C730 C711 1.368 . S
C730 C724 1.368 . S
C730 C729 1.523 . S
C731 C715 1.429 . S
C731 C727 1.429 . S
C731 C732 1.523 . S
C732 C716 1.368 . S
C732 C728 1.368 . S
C732 C731 1.523 . S
H733 C708 0.950 . S
H734 C710 0.950 . S
H735 C711 0.949 . S
H736 C713 0.950 . S
H737 C715 0.950 . S
C738 C739 1.349 . S
C738 C740 1.327 . S
C738 H763 0.950 . S
C739 C738 1.349 . S
C739 C755 1.349 . S
C740 C738 1.327 . S
C740 C759 1.429 . S
C740 H764 0.950 . S
C741 C758 1.574 . S
C741 C760 1.368 . S
C741 H765 0.949 . S
H742 C746 0.949 . S
C743 C744 1.349 . S
C743 C745 1.327 . S
C743 H766 0.950 . S
C744 C743 1.349 . S
C744 C756 1.349 . S
C745 C743 1.327 . S
C745 C761 1.429 . S
C745 H767 0.950 . S
C746 H742 0.949 . S
C746 C754 1.574 . S
C746 C762 1.368 . S
H747 C755 0.950 . S
H748 C753 0.950 . S
H749 C754 0.949 . S
H750 C756 0.950 . S
H751 C757 0.950 . S
H752 C758 0.949 . S
C753 H748 0.950 . S
C753 C755 1.327 . S
C753 C759 1.429 . S
C754 C746 1.574 . S
C754 H749 0.949 . S
C754 C760 1.368 . S
C755 C739 1.349 . S
C755 H747 0.950 . S
C755 C753 1.327 . S
C756 C744 1.349 . S
C756 H750 0.950 . S
C756 C757 1.327 . S
C757 H751 0.950 . S
C757 C756 1.327 . S
C757 C761 1.429 . S
C758 C741 1.574 . S
C758 H752 0.949 . S
C758 C762 1.368 . S
C759 C740 1.429 . S
C759 C753 1.429 . S
C759 C760 1.523 . S
C760 C741 1.368 . S
C760 C754 1.368 . S
C760 C759 1.523 . S
C761 C745 1.429 . S
C761 C757 1.429 . S
C761 C762 1.523 . S
C762 C746 1.368 . S
C762 C758 1.368 . S
C762 C761 1.523 . S
H763 C738 0.950 . S
H764 C740 0.950 . S
H765 C741 0.949 . S
H766 C743 0.950 . S
H767 C745 0.950 . S
C768 C769 1.349 . S
C768 C770 1.327 . S
C768 H793 0.950 . S
C769 C768 1.349 . S
C769 C785 1.349 . S
C770 C768 1.327 . S
C770 C789 1.429 . S
C770 H794 0.950 . S
C771 C788 1.574 . S
C771 C790 1.368 . S
C771 H795 0.949 . S
H772 C776 0.949 . S
C773 C774 1.349 . S
C773 C775 1.327 . S
C773 H796 0.950 . S
C774 C773 1.349 . S
C774 C786 1.349 . S
C775 C773 1.327 . S
C775 C791 1.429 . S
C775 H797 0.950 . S
C776 H772 0.949 . S
C776 C784 1.574 . S
C776 C792 1.368 . S
H777 C785 0.950 . S
H778 C783 0.950 . S
H779 C784 0.949 . S
H780 C786 0.950 . S
H781 C787 0.950 . S
H782 C788 0.949 . S
C783 H778 0.950 . S
C783 C785 1.327 . S
C783 C789 1.429 . S
C784 C776 1.574 . S
C784 H779 0.949 . S
C784 C790 1.368 . S
C785 C769 1.349 . S
C785 H777 0.950 . S
C785 C783 1.327 . S
C786 C774 1.349 . S
C786 H780 0.950 . S
C786 C787 1.327 . S
C787 H781 0.950 . S
C787 C786 1.327 . S
C787 C791 1.429 . S
C788 C771 1.574 . S
C788 H782 0.949 . S
C788 C792 1.368 . S
C789 C770 1.429 . S
C789 C783 1.429 . S
C789 C790 1.523 . S
C790 C771 1.368 . S
C790 C784 1.368 . S
C790 C789 1.523 . S
C791 C775 1.429 . S
C791 C787 1.429 . S
C791 C792 1.523 1_556 S
C792 C776 1.368 . S
C792 C788 1.368 . S
C792 C791 1.523 1_554 S
H793 C768 0.950 . S
H794 C770 0.950 . S
H795 C771 0.949 . S
H796 C773 0.950 . S
H797 C775 0.950 . S
C798 C799 1.349 . S
C798 C800 1.327 . S
C798 H823 0.950 . S
C799 C798 1.349 . S
C799 C815 1.349 . S
C800 C798 1.327 . S
C800 C819 1.429 . S
C800 H824 0.950 . S
C801 C818 1.574 . S
C801 C820 1.368 . S
C801 H825 0.949 . S
H802 C806 0.949 . S
C803 C804 1.349 . S
C803 C805 1.327 . S
C803 H826 0.950 . S
C804 C803 1.349 . S
C804 C816 1.349 . S
C805 C803 1.327 . S
C805 C821 1.429 . S
C805 H827 0.950 . S
C806 H802 0.949 . S
C806 C814 1.574 . S
C806 C822 1.368 . S
H807 C815 0.950 . S
H808 C813 0.950 . S
H809 C814 0.949 . S
H810 C816 0.950 . S
H811 C817 0.950 . S
H812 C818 0.949 . S
C813 H808 0.950 . S
C813 C815 1.327 . S
C813 C819 1.429 . S
C814 C806 1.574 . S
C814 H809 0.949 . S
C814 C820 1.368 . S
C815 C799 1.349 . S
C815 H807 0.950 . S
C815 C813 1.327 . S
C816 C804 1.349 . S
C816 H810 0.950 . S
C816 C817 1.327 . S
C817 H811 0.950 . S
C817 C816 1.327 . S
C817 C821 1.429 . S
C818 C801 1.574 . S
C818 H812 0.949 . S
C818 C822 1.368 . S
C819 C800 1.429 . S
C819 C813 1.429 . S
C819 C820 1.523 . S
C820 C801 1.368 . S
C820 C814 1.368 . S
C820 C819 1.523 . S
C821 C805 1.429 . S
C821 C817 1.429 . S
C821 C822 1.523 1_556 S
C822 C806 1.368 . S
C822 C818 1.368 . S
C822 C821 1.523 1_554 S
H823 C798 0.950 . S
H824 C800 0.950 . S
H825 C801 0.949 . S
H826 C803 0.950 . S
H827 C805 0.950 . S
C828 C829 1.349 . S
C828 C830 1.327 . S
C828 H853 0.950 . S
C829 C828 1.349 . S
C829 C845 1.349 . S
C830 C828 1.327 . S
C830 C849 1.429 . S
C830 H854 0.950 . S
C831 C848 1.574 . S
C831 C850 1.368 . S
C831 H855 0.949 . S
H832 C836 0.949 . S
C833 C834 1.349 . S
C833 C835 1.327 . S
C833 H856 0.950 . S
C834 C833 1.349 . S
C834 C846 1.349 . S
C835 C833 1.327 . S
C835 C851 1.429 . S
C835 H857 0.950 . S
C836 H832 0.949 . S
C836 C844 1.574 . S
C836 C852 1.368 . S
H837 C845 0.950 . S
H838 C843 0.950 . S
H839 C844 0.949 . S
H840 C846 0.950 . S
H841 C847 0.950 . S
H842 C848 0.949 . S
C843 H838 0.950 . S
C843 C845 1.327 . S
C843 C849 1.429 . S
C844 C836 1.574 . S
C844 H839 0.949 . S
C844 C850 1.368 . S
C845 C829 1.349 . S
C845 H837 0.950 . S
C845 C843 1.327 . S
C846 C834 1.349 . S
C846 H840 0.950 . S
C846 C847 1.327 . S
C847 H841 0.950 . S
C847 C846 1.327 . S
C847 C851 1.429 . S
C848 C831 1.574 . S
C848 H842 0.949 . S
C848 C852 1.368 . S
C849 C830 1.429 . S
C849 C843 1.429 . S
C849 C850 1.523 . S
C850 C831 1.368 . S
C850 C844 1.368 . S
C850 C849 1.523 . S
C851 C835 1.429 . S
C851 C847 1.429 . S
C851 C852 1.523 1_556 S
C852 C836 1.368 . S
C852 C848 1.368 . S
C852 C851 1.523 1_554 S
H853 C828 0.950 . S
H854 C830 0.950 . S
H855 C831 0.949 . S
H856 C833 0.950 . S
H857 C835 0.950 . S
C858 C859 1.349 . S
C858 C860 1.327 . S
C858 H883 0.950 . S
C859 C858 1.349 . S
C859 C875 1.349 . S
C860 C858 1.327 . S
C860 C879 1.429 . S
C860 H884 0.950 . S
C861 C878 1.574 . S
C861 C880 1.368 . S
C861 H885 0.949 . S
H862 C866 0.949 . S
C863 C864 1.349 . S
C863 C865 1.327 . S
C863 H886 0.950 . S
C864 C863 1.349 . S
C864 C876 1.349 . S
C865 C863 1.327 . S
C865 C881 1.429 . S
C865 H887 0.950 . S
C866 H862 0.949 . S
C866 C874 1.574 . S
C866 C882 1.368 . S
H867 C875 0.950 . S
H868 C873 0.950 . S
H869 C874 0.949 . S
H870 C876 0.950 . S
H871 C877 0.950 . S
H872 C878 0.949 . S
C873 H868 0.950 . S
C873 C875 1.327 . S
C873 C879 1.429 . S
C874 C866 1.574 . S
C874 H869 0.949 . S
C874 C880 1.368 . S
C875 C859 1.349 . S
C875 H867 0.950 . S
C875 C873 1.327 . S
C876 C864 1.349 . S
C876 H870 0.950 . S
C876 C877 1.327 . S
C877 H871 0.950 . S
C877 C876 1.327 . S
C877 C881 1.429 . S
C878 C861 1.574 . S
C878 H872 0.949 . S
C878 C882 1.368 . S
C879 C860 1.429 . S
C879 C873 1.429 . S
C879 C880 1.523 . S
C880 C861 1.368 . S
C880 C874 1.368 . S
C880 C879 1.523 . S
C881 C865 1.429 . S
C881 C877 1.429 . S
C881 C882 1.523 1_556 S
C882 C866 1.368 . S
C882 C878 1.368 . S
C882 C881 1.523 1_554 S
H883 C858 0.950 . S
H884 C860 0.950 . S
H885 C861 0.949 . S
H886 C863 0.950 . S
H887 C865 0.950 . S
C888 C889 1.349 . S
C888 C890 1.327 . S
C888 H913 0.950 . S
C889 C888 1.349 . S
C889 C905 1.349 . S
C890 C888 1.327 . S
C890 C909 1.429 . S
C890 H914 0.950 . S
C891 C908 1.574 . S
C891 C910 1.368 . S
C891 H915 0.949 . S
H892 C896 0.949 . S
C893 C894 1.349 . S
C893 C895 1.327 . S
C893 H916 0.950 . S
C894 C893 1.349 . S
C894 C906 1.349 . S
C895 C893 1.327 . S
C895 C911 1.429 . S
C895 H917 0.950 . S
C896 H892 0.949 . S
C896 C904 1.574 . S
C896 C912 1.368 . S
H897 C905 0.950 . S
H898 C903 0.950 . S
H899 C904 0.949 . S
H900 C906 0.950 . S
H901 C907 0.950 . S
H902 C908 0.949 . S
C903 H898 0.950 . S
C903 C905 1.327 . S
C903 C909 1.429 . S
C904 C896 1.574 . S
C904 H899 0.949 . S
C904 C910 1.368 . S
C905 C889 1.349 . S
C905 H897 0.950 . S
C905 C903 1.327 . S
C906 C894 1.349 . S
C906 H900 0.950 . S
C906 C907 1.327 . S
C907 H901 0.950 . S
C907 C906 1.327 . S
C907 C911 1.429 . S
C908 C891 1.574 . S
C908 H902 0.949 . S
C908 C912 1.368 . S
C909 C890 1.429 . S
C909 C903 1.429 . S
C909 C910 1.523 1_554 S
C910 C891 1.368 . S
C910 C904 1.368 . S
C910 C909 1.523 1_556 S
C911 C895 1.429 . S
C911 C907 1.429 . S
C911 C912 1.523 . S
C912 C896 1.368 . S
C912 C908 1.368 . S
C912 C911 1.523 . S
H913 C888 0.950 . S
H914 C890 0.950 . S
H915 C891 0.949 . S
H916 C893 0.950 . S
H917 C895 0.950 . S
C918 C919 1.349 . S
C918 C920 1.327 . S
C918 H943 0.950 . S
C919 C918 1.349 . S
C919 C935 1.349 . S
C920 C918 1.327 . S
C920 C939 1.429 . S
C920 H944 0.950 . S
C921 C938 1.574 . S
C921 C940 1.368 . S
C921 H945 0.949 . S
H922 C926 0.949 . S
C923 C924 1.349 . S
C923 C925 1.327 . S
C923 H946 0.950 . S
C924 C923 1.349 . S
C924 C936 1.349 . S
C925 C923 1.327 . S
C925 C941 1.429 . S
C925 H947 0.950 . S
C926 H922 0.949 . S
C926 C934 1.574 . S
C926 C942 1.368 . S
H927 C935 0.950 . S
H928 C933 0.950 . S
H929 C934 0.949 . S
H930 C936 0.950 . S
H931 C937 0.950 . S
H932 C938 0.949 . S
C933 H928 0.950 . S
C933 C935 1.327 . S
C933 C939 1.429 . S
C934 C926 1.574 . S
C934 H929 0.949 . S
C934 C940 1.368 . S
C935 C919 1.349 . S
C935 H927 0.950 . S
C935 C933 1.327 . S
C936 C924 1.349 . S
C936 H930 0.950 . S
C936 C937 1.327 . S
C937 H931 0.950 . S
C937 C936 1.327 . S
C937 C941 1.429 . S
C938 C921 1.574 . S
C938 H932 0.949 . S
C938 C942 1.368 . S
C939 C920 1.429 . S
C939 C933 1.429 . S
C939 C940 1.523 1_554 S
C940 C921 1.368 . S
C940 C934 1.368 . S
C940 C939 1.523 1_556 S
C941 C925 1.429 . S
C941 C937 1.429 . S
C941 C942 1.523 . S
C942 C926 1.368 . S
C942 C938 1.368 . S
C942 C941 1.523 . S
H943 C918 0.950 . S
H944 C920 0.950 . S
H945 C921 0.949 . S
H946 C923 0.950 . S
H947 C925 0.950 . S
C948 C949 1.349 . S
C948 C950 1.327 . S
C948 H973 0.950 . S
C949 C948 1.349 . S
C949 C965 1.349 . S
C950 C948 1.327 . S
C950 C969 1.429 . S
C950 H974 0.950 . S
C951 C968 1.574 . S
C951 C970 1.368 . S
C951 H975 0.949 . S
H952 C956 0.949 . S
C953 C954 1.349 . S
C953 C955 1.327 . S
C953 H976 0.950 . S
C954 C953 1.349 . S
C954 C966 1.349 . S
C955 C953 1.327 . S
C955 C971 1.429 . S
C955 H977 0.950 . S
C956 H952 0.949 . S
C956 C964 1.574 . S
C956 C972 1.368 . S
H957 C965 0.950 . S
H958 C963 0.950 . S
H959 C964 0.949 . S
H960 C966 0.950 . S
H961 C967 0.950 . S
H962 C968 0.949 . S
C963 H958 0.950 . S
C963 C965 1.327 . S
C963 C969 1.429 . S
C964 C956 1.574 . S
C964 H959 0.949 . S
C964 C970 1.368 . S
C965 C949 1.349 . S
C965 H957 0.950 . S
C965 C963 1.327 . S
C966 C954 1.349 . S
C966 H960 0.950 . S
C966 C967 1.327 . S
C967 H961 0.950 . S
C967 C966 1.327 . S
C967 C971 1.429 . S
C968 C951 1.574 . S
C968 H962 0.949 . S
C968 C972 1.368 . S
C969 C950 1.429 . S
C969 C963 1.429 . S
C969 C970 1.523 1_554 S
C970 C951 1.368 . S
C970 C964 1.368 . S
C970 C969 1.523 1_556 S
C971 C955 1.429 . S
C971 C967 1.429 . S
C971 C972 1.523 . S
C972 C956 1.368 . S
C972 C968 1.368 . S
C972 C971 1.523 . S
H973 C948 0.950 . S
H974 C950 0.950 . S
H975 C951 0.949 . S
H976 C953 0.950 . S
H977 C955 0.950 . S
C978 C979 1.349 . S
C978 C980 1.327 . S
C978 H1003 0.950 . S
C979 C978 1.349 . S
C979 C995 1.349 . S
C980 C978 1.327 . S
C980 C999 1.429 . S
C980 H1004 0.950 . S
C981 C998 1.574 . S
C981 C1000 1.368 . S
C981 H1005 0.949 . S
H982 C986 0.949 . S
C983 C984 1.349 . S
C983 C985 1.327 . S
C983 H1006 0.950 . S
C984 C983 1.349 . S
C984 C996 1.349 . S
C985 C983 1.327 . S
C985 C1001 1.429 . S
C985 H1007 0.950 . S
C986 H982 0.949 . S
C986 C994 1.574 . S
C986 C1002 1.368 . S
H987 C995 0.950 . S
H988 C993 0.950 . S
H989 C994 0.949 . S
H990 C996 0.950 . S
H991 C997 0.950 . S
H992 C998 0.949 . S
C993 H988 0.950 . S
C993 C995 1.327 . S
C993 C999 1.429 . S
C994 C986 1.574 . S
C994 H989 0.949 . S
C994 C1000 1.368 . S
C995 C979 1.349 . S
C995 H987 0.950 . S
C995 C993 1.327 . S
C996 C984 1.349 . S
C996 H990 0.950 . S
C996 C997 1.327 . S
C997 H991 0.950 . S
C997 C996 1.327 . S
C997 C1001 1.429 . S
C998 C981 1.574 . S
C998 H992 0.949 . S
C998 C1002 1.368 . S
C999 C980 1.429 . S
C999 C993 1.429 . S
C999 C1000 1.523 1_554 S
C1000 C981 1.368 . S
C1000 C994 1.368 . S
C1000 C999 1.523 1_556 S
C1001 C985 1.429 . S
C1001 C997 1.429 . S
C1001 C1002 1.523 . S
C1002 C986 1.368 . S
C1002 C998 1.368 . S
C1002 C1001 1.523 . S
H1003 C978 0.950 . S
H1004 C980 0.950 . S
H1005 C981 0.949 . S
H1006 C983 0.950 . S
H1007 C985 0.950 . S
C1008 C1009 1.349 . S
C1008 C1010 1.327 . S
C1008 H1033 0.950 . S
C1009 C1008 1.349 . S
C1009 C1025 1.349 . S
C1010 C1008 1.327 . S
C1010 C1029 1.429 . S
C1010 H1034 0.950 . S
C1011 C1028 1.574 . S
C1011 C1030 1.368 . S
C1011 H1035 0.949 . S
H1012 C1016 0.949 . S
C1013 C1014 1.349 . S
C1013 C1015 1.327 . S
C1013 H1036 0.950 . S
C1014 C1013 1.349 . S
C1014 C1026 1.349 . S
C1015 C1013 1.327 . S
C1015 C1031 1.429 . S
C1015 H1037 0.950 . S
C1016 H1012 0.949 . S
C1016 C1024 1.574 . S
C1016 C1032 1.368 . S
H1017 C1025 0.950 . S
H1018 C1023 0.950 . S
H1019 C1024 0.949 . S
H1020 C1026 0.950 . S
H1021 C1027 0.950 . S
H1022 C1028 0.949 . S
C1023 H1018 0.950 . S
C1023 C1025 1.327 . S
C1023 C1029 1.429 . S
C1024 C1016 1.574 . S
C1024 H1019 0.949 . S
C1024 C1030 1.368 . S
C1025 C1009 1.349 . S
C1025 H1017 0.950 . S
C1025 C1023 1.327 . S
C1026 C1014 1.349 . S
C1026 H1020 0.950 . S
C1026 C1027 1.327 . S
C1027 H1021 0.950 . S
C1027 C1026 1.327 . S
C1027 C1031 1.429 . S
C1028 C1011 1.574 . S
C1028 H1022 0.949 . S
C1028 C1032 1.368 . S
C1029 C1010 1.429 . S
C1029 C1023 1.429 . S
C1029 C1030 1.523 . S
C1030 C1011 1.368 . S
C1030 C1024 1.368 . S
C1030 C1029 1.523 . S
C1031 C1015 1.429 . S
C1031 C1027 1.429 . S
C1031 C1032 1.523 . S
C1032 C1016 1.368 . S
C1032 C1028 1.368 . S
C1032 C1031 1.523 . S
H1033 C1008 0.950 . S
H1034 C1010 0.950 . S
H1035 C1011 0.949 . S
H1036 C1013 0.950 . S
H1037 C1015 0.950 . S
C1038 C1039 1.349 . S
C1038 C1040 1.327 . S
C1038 H1063 0.950 . S
C1039 C1038 1.349 . S
C1039 C1055 1.349 . S
C1040 C1038 1.327 . S
C1040 C1059 1.429 . S
C1040 H1064 0.950 . S
C1041 C1058 1.574 . S
C1041 C1060 1.368 . S
C1041 H1065 0.949 . S
H1042 C1046 0.949 . S
C1043 C1044 1.349 . S
C1043 C1045 1.327 . S
C1043 H1066 0.950 . S
C1044 C1043 1.349 . S
C1044 C1056 1.349 . S
C1045 C1043 1.327 . S
C1045 C1061 1.429 . S
C1045 H1067 0.950 . S
C1046 H1042 0.949 . S
C1046 C1054 1.574 . S
C1046 C1062 1.368 . S
H1047 C1055 0.950 . S
H1048 C1053 0.950 . S
H1049 C1054 0.949 . S
H1050 C1056 0.950 . S
H1051 C1057 0.950 . S
H1052 C1058 0.949 . S
C1053 H1048 0.950 . S
C1053 C1055 1.327 . S
C1053 C1059 1.429 . S
C1054 C1046 1.574 . S
C1054 H1049 0.949 . S
C1054 C1060 1.368 . S
C1055 C1039 1.349 . S
C1055 H1047 0.950 . S
C1055 C1053 1.327 . S
C1056 C1044 1.349 . S
C1056 H1050 0.950 . S
C1056 C1057 1.327 . S
C1057 H1051 0.950 . S
C1057 C1056 1.327 . S
C1057 C1061 1.429 . S
C1058 C1041 1.574 . S
C1058 H1052 0.949 . S
C1058 C1062 1.368 . S
C1059 C1040 1.429 . S
C1059 C1053 1.429 . S
C1059 C1060 1.523 . S
C1060 C1041 1.368 . S
C1060 C1054 1.368 . S
C1060 C1059 1.523 . S
C1061 C1045 1.429 . S
C1061 C1057 1.429 . S
C1061 C1062 1.523 . S
C1062 C1046 1.368 . S
C1062 C1058 1.368 . S
C1062 C1061 1.523 . S
H1063 C1038 0.950 . S
H1064 C1040 0.950 . S
H1065 C1041 0.949 . S
H1066 C1043 0.950 . S
H1067 C1045 0.950 . S
C1068 C1069 1.349 . S
C1068 C1070 1.327 . S
C1068 H1093 0.950 . S
C1069 C1068 1.349 . S
C1069 C1085 1.349 . S
C1070 C1068 1.327 . S
C1070 C1089 1.429 . S
C1070 H1094 0.950 . S
C1071 C1088 1.574 . S
C1071 C1090 1.368 . S
C1071 H1095 0.949 . S
H1072 C1076 0.949 . S
C1073 C1074 1.349 . S
C1073 C1075 1.327 . S
C1073 H1096 0.950 . S
C1074 C1073 1.349 . S
C1074 C1086 1.349 . S
C1075 C1073 1.327 . S
C1075 C1091 1.429 . S
C1075 H1097 0.950 . S
C1076 H1072 0.949 . S
C1076 C1084 1.574 . S
C1076 C1092 1.368 . S
H1077 C1085 0.950 . S
H1078 C1083 0.950 . S
H1079 C1084 0.949 . S
H1080 C1086 0.950 . S
H1081 C1087 0.950 . S
H1082 C1088 0.949 . S
C1083 H1078 0.950 . S
C1083 C1085 1.327 . S
C1083 C1089 1.429 . S
C1084 C1076 1.574 . S
C1084 H1079 0.949 . S
C1084 C1090 1.368 . S
C1085 C1069 1.349 . S
C1085 H1077 0.950 . S
C1085 C1083 1.327 . S
C1086 C1074 1.349 . S
C1086 H1080 0.950 . S
C1086 C1087 1.327 . S
C1087 H1081 0.950 . S
C1087 C1086 1.327 . S
C1087 C1091 1.429 . S
C1088 C1071 1.574 . S
C1088 H1082 0.949 . S
C1088 C1092 1.368 . S
C1089 C1070 1.429 . S
C1089 C1083 1.429 . S
C1089 C1090 1.523 . S
C1090 C1071 1.368 . S
C1090 C1084 1.368 . S
C1090 C1089 1.523 . S
C1091 C1075 1.429 . S
C1091 C1087 1.429 . S
C1091 C1092 1.523 . S
C1092 C1076 1.368 . S
C1092 C1088 1.368 . S
C1092 C1091 1.523 . S
H1093 C1068 0.950 . S
H1094 C1070 0.950 . S
H1095 C1071 0.949 . S
H1096 C1073 0.950 . S
H1097 C1075 0.950 . S
C1098 C1099 1.349 . S
C1098 C1100 1.327 . S
C1098 H1123 0.950 . S
C1099 C1098 1.349 . S
C1099 C1115 1.349 . S
C1100 C1098 1.327 . S
C1100 C1119 1.429 . S
C1100 H1124 0.950 . S
C1101 C1118 1.574 . S
C1101 C1120 1.368 . S
C1101 H1125 0.949 . S
H1102 C1106 0.949 . S
C1103 C1104 1.349 . S
C1103 C1105 1.327 . S
C1103 H1126 0.950 . S
C1104 C1103 1.349 . S
C1104 C1116 1.349 . S
C1105 C1103 1.327 . S
C1105 C1121 1.429 . S
C1105 H1127 0.950 . S
C1106 H1102 0.949 . S
C1106 C1114 1.574 . S
C1106 C1122 1.368 . S
H1107 C1115 0.950 . S
H1108 C1113 0.950 . S
H1109 C1114 0.949 . S
H1110 C1116 0.950 . S
H1111 C1117 0.950 . S
H1112 C1118 0.949 . S
C1113 H1108 0.950 . S
C1113 C1115 1.327 . S
C1113 C1119 1.429 . S
C1114 C1106 1.574 . S
C1114 H1109 0.949 . S
C1114 C1120 1.368 . S
C1115 C1099 1.349 . S
C1115 H1107 0.950 . S
C1115 C1113 1.327 . S
C1116 C1104 1.349 . S
C1116 H1110 0.950 . S
C1116 C1117 1.327 . S
C1117 H1111 0.950 . S
C1117 C1116 1.327 . S
C1117 C1121 1.429 . S
C1118 C1101 1.574 . S
C1118 H1112 0.949 . S
C1118 C1122 1.368 . S
C1119 C1100 1.429 . S
C1119 C1113 1.429 . S
C1119 C1120 1.523 . S
C1120 C1101 1.368 . S
C1120 C1114 1.368 . S
C1120 C1119 1.523 . S
C1121 C1105 1.429 . S
C1121 C1117 1.429 . S
C1121 C1122 1.523 . S
C1122 C1106 1.368 . S
C1122 C1118 1.368 . S
C1122 C1121 1.523 . S
H1123 C1098 0.950 . S
H1124 C1100 0.950 . S
H1125 C1101 0.949 . S
H1126 C1103 0.950 . S
H1127 C1105 0.950 . S
C1128 C1129 1.349 . S
C1128 C1130 1.327 . S
C1128 H1153 0.950 . S
C1129 C1128 1.349 . S
C1129 C1145 1.349 . S
C1130 C1128 1.327 . S
C1130 C1149 1.429 . S
C1130 H1154 0.950 . S
C1131 C1148 1.574 . S
C1131 C1150 1.368 . S
C1131 H1155 0.949 . S
H1132 C1136 0.949 . S
C1133 C1134 1.349 . S
C1133 C1135 1.327 . S
C1133 H1156 0.950 . S
C1134 C1133 1.349 . S
C1134 C1146 1.349 . S
C1135 C1133 1.327 . S
C1135 C1151 1.429 . S
C1135 H1157 0.950 . S
C1136 H1132 0.949 . S
C1136 C1144 1.574 . S
C1136 C1152 1.368 . S
H1137 C1145 0.950 . S
H1138 C1143 0.950 . S
H1139 C1144 0.949 . S
H1140 C1146 0.950 . S
H1141 C1147 0.950 . S
H1142 C1148 0.949 . S
C1143 H1138 0.950 . S
C1143 C1145 1.327 . S
C1143 C1149 1.429 . S
C1144 C1136 1.574 . S
C1144 H1139 0.949 . S
C1144 C1150 1.368 . S
C1145 C1129 1.349 . S
C1145 H1137 0.950 . S
C1145 C1143 1.327 . S
C1146 C1134 1.349 . S
C1146 H1140 0.950 . S
C1146 C1147 1.327 . S
C1147 H1141 0.950 . S
C1147 C1146 1.327 . S
C1147 C1151 1.429 . S
C1148 C1131 1.574 . S
C1148 H1142 0.949 . S
C1148 C1152 1.368 . S
C1149 C1130 1.429 . S
C1149 C1143 1.429 . S
C1149 C1150 1.523 . S
C1150 C1131 1.368 . S
C1150 C1144 1.368 . S
C1150 C1149 1.523 . S
C1151 C1135 1.429 . S
C1151 C1147 1.429 . S
C1151 C1152 1.523 . S
C1152 C1136 1.368 . S
C1152 C1148 1.368 . S
C1152 C1151 1.523 . S
H1153 C1128 0.950 . S
H1154 C1130 0.950 . S
H1155 C1131 0.949 . S
H1156 C1133 0.950 . S
H1157 C1135 0.950 . S
C1158 C1159 1.349 . S
C1158 C1160 1.327 . S
C1158 H1183 0.950 . S
C1159 C1158 1.349 . S
C1159 C1175 1.349 . S
C1160 C1158 1.327 . S
C1160 C1179 1.429 . S
C1160 H1184 0.950 . S
C1161 C1178 1.574 . S
C1161 C1180 1.368 . S
C1161 H1185 0.949 . S
H1162 C1166 0.949 . S
C1163 C1164 1.349 . S
C1163 C1165 1.327 . S
C1163 H1186 0.950 . S
C1164 C1163 1.349 . S
C1164 C1176 1.349 . S
C1165 C1163 1.327 . S
C1165 C1181 1.429 . S
C1165 H1187 0.950 . S
C1166 H1162 0.949 . S
C1166 C1174 1.574 . S
C1166 C1182 1.368 . S
H1167 C1175 0.950 . S
H1168 C1173 0.950 . S
H1169 C1174 0.949 . S
H1170 C1176 0.950 . S
H1171 C1177 0.950 . S
H1172 C1178 0.949 . S
C1173 H1168 0.950 . S
C1173 C1175 1.327 . S
C1173 C1179 1.429 . S
C1174 C1166 1.574 . S
C1174 H1169 0.949 . S
C1174 C1180 1.368 . S
C1175 C1159 1.349 . S
C1175 H1167 0.950 . S
C1175 C1173 1.327 . S
C1176 C1164 1.349 . S
C1176 H1170 0.950 . S
C1176 C1177 1.327 . S
C1177 H1171 0.950 . S
C1177 C1176 1.327 . S
C1177 C1181 1.429 . S
C1178 C1161 1.574 . S
C1178 H1172 0.949 . S
C1178 C1182 1.368 . S
C1179 C1160 1.429 . S
C1179 C1173 1.429 . S
C1179 C1180 1.523 . S
C1180 C1161 1.368 . S
C1180 C1174 1.368 . S
C1180 C1179 1.523 . S
C1181 C1165 1.429 . S
C1181 C1177 1.429 . S
C1181 C1182 1.523 . S
C1182 C1166 1.368 . S
C1182 C1178 1.368 . S
C1182 C1181 1.523 . S
H1183 C1158 0.950 . S
H1184 C1160 0.950 . S
H1185 C1161 0.949 . S
H1186 C1163 0.950 . S
H1187 C1165 0.950 . S
C1188 C1189 1.349 . S
C1188 C1190 1.327 . S
C1188 H1213 0.950 . S
C1189 C1188 1.349 . S
C1189 C1205 1.349 . S
C1190 C1188 1.327 . S
C1190 C1209 1.429 . S
C1190 H1214 0.950 . S
C1191 C1208 1.574 . S
C1191 C1210 1.368 . S
C1191 H1215 0.949 . S
H1192 C1196 0.949 . S
C1193 C1194 1.349 . S
C1193 C1195 1.327 . S
C1193 H1216 0.950 . S
C1194 C1193 1.349 . S
C1194 C1206 1.349 . S
C1195 C1193 1.327 . S
C1195 C1211 1.429 . S
C1195 H1217 0.950 . S
C1196 H1192 0.949 . S
C1196 C1204 1.574 . S
C1196 C1212 1.368 . S
H1197 C1205 0.950 . S
H1198 C1203 0.950 . S
H1199 C1204 0.949 . S
H1200 C1206 0.950 . S
H1201 C1207 0.950 . S
H1202 C1208 0.949 . S
C1203 H1198 0.950 . S
C1203 C1205 1.327 . S
C1203 C1209 1.429 . S
C1204 C1196 1.574 . S
C1204 H1199 0.949 . S
C1204 C1210 1.368 . S
C1205 C1189 1.349 . S
C1205 H1197 0.950 . S
C1205 C1203 1.327 . S
C1206 C1194 1.349 . S
C1206 H1200 0.950 . S
C1206 C1207 1.327 . S
C1207 H1201 0.950 . S
C1207 C1206 1.327 . S
C1207 C1211 1.429 . S
C1208 C1191 1.574 . S
C1208 H1202 0.949 . S
C1208 C1212 1.368 . S
C1209 C1190 1.429 . S
C1209 C1203 1.429 . S
C1209 C1210 1.523 . S
C1210 C1191 1.368 . S
C1210 C1204 1.368 . S
C1210 C1209 1.523 . S
C1211 C1195 1.429 . S
C1211 C1207 1.429 . S
C1211 C1212 1.523 . S
C1212 C1196 1.368 . S
C1212 C1208 1.368 . S
C1212 C1211 1.523 . S
H1213 C1188 0.950 . S
H1214 C1190 0.950 . S
H1215 C1191 0.949 . S
H1216 C1193 0.950 . S
H1217 C1195 0.950 . S
C1218 C1219 1.349 . S
C1218 C1220 1.327 . S
C1218 H1243 0.950 . S
C1219 C1218 1.349 . S
C1219 C1235 1.349 . S
C1220 C1218 1.327 . S
C1220 C1239 1.429 . S
C1220 H1244 0.950 . S
C1221 C1238 1.574 . S
C1221 C1240 1.368 . S
C1221 H1245 0.949 . S
H1222 C1226 0.949 . S
C1223 C1224 1.349 . S
C1223 C1225 1.327 . S
C1223 H1246 0.950 . S
C1224 C1223 1.349 . S
C1224 C1236 1.349 . S
C1225 C1223 1.327 . S
C1225 C1241 1.429 . S
C1225 H1247 0.950 . S
C1226 H1222 0.949 . S
C1226 C1234 1.574 . S
C1226 C1242 1.368 . S
H1227 C1235 0.950 . S
H1228 C1233 0.950 . S
H1229 C1234 0.949 . S
H1230 C1236 0.950 . S
H1231 C1237 0.950 . S
H1232 C1238 0.949 . S
C1233 H1228 0.950 . S
C1233 C1235 1.327 . S
C1233 C1239 1.429 . S
C1234 C1226 1.574 . S
C1234 H1229 0.949 . S
C1234 C1240 1.368 . S
C1235 C1219 1.349 . S
C1235 H1227 0.950 . S
C1235 C1233 1.327 . S
C1236 C1224 1.349 . S
C1236 H1230 0.950 . S
C1236 C1237 1.327 . S
C1237 H1231 0.950 . S
C1237 C1236 1.327 . S
C1237 C1241 1.429 . S
C1238 C1221 1.574 . S
C1238 H1232 0.949 . S
C1238 C1242 1.368 . S
C1239 C1220 1.429 . S
C1239 C1233 1.429 . S
C1239 C1240 1.523 . S
C1240 C1221 1.368 . S
C1240 C1234 1.368 . S
C1240 C1239 1.523 . S
C1241 C1225 1.429 . S
C1241 C1237 1.429 . S
C1241 C1242 1.523 . S
C1242 C1226 1.368 . S
C1242 C1238 1.368 . S
C1242 C1241 1.523 . S
H1243 C1218 0.950 . S
H1244 C1220 0.950 . S
H1245 C1221 0.949 . S
H1246 C1223 0.950 . S
H1247 C1225 0.950 . S
C1248 C1249 1.349 . S
C1248 C1250 1.327 . S
C1248 H1273 0.950 . S
C1249 C1248 1.349 . S
C1249 C1265 1.349 . S
C1250 C1248 1.327 . S
C1250 C1269 1.429 . S
C1250 H1274 0.950 . S
C1251 C1268 1.574 1_545 S
C1251 C1270 1.368 1_556 S
C1251 H1275 0.949 . S
H1252 C1256 0.949 . S
C1253 C1254 1.349 . S
C1253 C1255 1.327 . S
C1253 H1276 0.950 . S
C1254 C1253 1.349 . S
C1254 C1266 1.349 . S
C1255 C1253 1.327 . S
C1255 C1271 1.429 . S
C1255 H1277 0.950 . S
C1256 H1252 0.949 . S
C1256 C1264 1.574 1_565 S
C1256 C1272 1.368 1_554 S
H1257 C1265 0.950 1_556 S
H1258 C1263 0.950 . S
H1259 C1264 0.949 . S
H1260 C1266 0.950 1_554 S
H1261 C1267 0.950 . S
H1262 C1268 0.949 . S
C1263 H1258 0.950 . S
C1263 C1265 1.327 1_556 S
C1263 C1269 1.429 1_556 S
C1264 C1256 1.574 1_545 S
C1264 H1259 0.949 . S
C1264 C1270 1.368 . S
C1265 C1249 1.349 . S
C1265 H1257 0.950 1_554 S
C1265 C1263 1.327 1_554 S
C1266 C1254 1.349 . S
C1266 H1260 0.950 1_556 S
C1266 C1267 1.327 1_556 S
C1267 H1261 0.950 . S
C1267 C1266 1.327 1_554 S
C1267 C1271 1.429 1_554 S
C1268 C1251 1.574 1_565 S
C1268 H1262 0.949 . S
C1268 C1272 1.368 . S
C1269 C1250 1.429 . S
C1269 C1263 1.429 1_554 S
C1269 C1270 1.523 . S
C1270 C1251 1.368 1_554 S
C1270 C1264 1.368 . S
C1270 C1269 1.523 . S
C1271 C1255 1.429 . S
C1271 C1267 1.429 1_556 S
C1271 C1272 1.523 . S
C1272 C1256 1.368 1_556 S
C1272 C1268 1.368 . S
C1272 C1271 1.523 . S
H1273 C1248 0.950 . S
H1274 C1250 0.950 . S
H1275 C1251 0.949 . S
H1276 C1253 0.950 . S
H1277 C1255 0.950 . S
C1278 C1279 1.349 . S
C1278 C1280 1.327 . S
C1278 H1303 0.950 . S
C1279 C1278 1.349 . S
C1279 C1295 1.349 . S
C1280 C1278 1.327 . S
C1280 C1299 1.429 . S
C1280 H1304 0.950 . S
C1281 C1298 1.574 1_455 S
C1281 C1300 1.368 1_554 S
C1281 H1305 0.949 . S
H1282 C1286 0.949 . S
C1283 C1284 1.349 . S
C1283 C1285 1.327 . S
C1283 H1306 0.950 . S
C1284 C1283 1.349 . S
C1284 C1296 1.349 . S
C1285 C1283 1.327 . S
C1285 C1301 1.429 . S
C1285 H1307 0.950 . S
C1286 H1282 0.949 . S
C1286 C1294 1.574 1_655 S
C1286 C1302 1.368 1_556 S
H1287 C1295 0.950 . S
H1288 C1293 0.950 1_554 S
H1289 C1294 0.949 . S
H1290 C1296 0.950 . S
H1291 C1297 0.950 1_556 S
H1292 C1298 0.949 . S
C1293 H1288 0.950 1_556 S
C1293 C1295 1.327 . S
C1293 C1299 1.429 . S
C1294 C1286 1.574 1_455 S
C1294 H1289 0.949 . S
C1294 C1300 1.368 . S
C1295 C1279 1.349 . S
C1295 H1287 0.950 . S
C1295 C1293 1.327 . S
C1296 C1284 1.349 . S
C1296 H1290 0.950 . S
C1296 C1297 1.327 . S
C1297 H1291 0.950 1_554 S
C1297 C1296 1.327 . S
C1297 C1301 1.429 . S
C1298 C1281 1.574 1_655 S
C1298 H1292 0.949 . S
C1298 C1302 1.368 . S
C1299 C1280 1.429 . S
C1299 C1293 1.429 . S
C1299 C1300 1.523 . S
C1300 C1281 1.368 1_556 S
C1300 C1294 1.368 . S
C1300 C1299 1.523 . S
C1301 C1285 1.429 . S
C1301 C1297 1.429 . S
C1301 C1302 1.523 . S
C1302 C1286 1.368 1_554 S
C1302 C1298 1.368 . S
C1302 C1301 1.523 . S
H1303 C1278 0.950 . S
H1304 C1280 0.950 . S
H1305 C1281 0.949 . S
H1306 C1283 0.950 . S
H1307 C1285 0.950 . S
C1308 C1309 1.349 . S
C1308 C1310 1.327 1_554 S
C1308 H1333 0.950 1_554 S
C1309 C1308 1.349 . S
C1309 C1325 1.349 . S
C1310 C1308 1.327 1_556 S
C1310 C1329 1.429 1_556 S
C1310 H1334 0.950 . S
C1311 C1328 1.574 1_565 S
C1311 C1330 1.368 . S
C1311 H1335 0.949 . S
H1312 C1316 0.949 . S
C1313 C1314 1.349 . S
C1313 C1315 1.327 1_556 S
C1313 H1336 0.950 1_556 S
C1314 C1313 1.349 . S
C1314 C1326 1.349 . S
C1315 C1313 1.327 1_554 S
C1315 C1331 1.429 1_554 S
C1315 H1337 0.950 . S
C1316 H1312 0.949 . S
C1316 C1324 1.574 1_545 S
C1316 C1332 1.368 . S
H1317 C1325 0.950 . S
H1318 C1323 0.950 . S
H1319 C1324 0.949 . S
H1320 C1326 0.950 . S
H1321 C1327 0.950 . S
H1322 C1328 0.949 . S
C1323 H1318 0.950 . S
C1323 C1325 1.327 . S
C1323 C1329 1.429 . S
C1324 C1316 1.574 1_565 S
C1324 H1319 0.949 . S
C1324 C1330 1.368 1_556 S
C1325 C1309 1.349 . S
C1325 H1317 0.950 . S
C1325 C1323 1.327 . S
C1326 C1314 1.349 . S
C1326 H1320 0.950 . S
C1326 C1327 1.327 . S
C1327 H1321 0.950 . S
C1327 C1326 1.327 . S
C1327 C1331 1.429 . S
C1328 C1311 1.574 1_545 S
C1328 H1322 0.949 . S
C1328 C1332 1.368 1_554 S
C1329 C1310 1.429 1_554 S
C1329 C1323 1.429 . S
C1329 C1330 1.523 . S
C1330 C1311 1.368 . S
C1330 C1324 1.368 1_554 S
C1330 C1329 1.523 . S
C1331 C1315 1.429 1_556 S
C1331 C1327 1.429 . S
C1331 C1332 1.523 . S
C1332 C1316 1.368 . S
C1332 C1328 1.368 1_556 S
C1332 C1331 1.523 . S
H1333 C1308 0.950 1_556 S
H1334 C1310 0.950 . S
H1335 C1311 0.949 . S
H1336 C1313 0.950 1_554 S
H1337 C1315 0.950 . S
C1338 C1339 1.349 . S
C1338 C1340 1.327 . S
C1338 H1363 0.950 . S
C1339 C1338 1.349 . S
C1339 C1355 1.349 . S
C1340 C1338 1.327 . S
C1340 C1359 1.429 . S
C1340 H1364 0.950 . S
C1341 C1358 1.574 1_655 S
C1341 C1360 1.368 1_554 S
C1341 H1365 0.949 . S
H1342 C1346 0.949 . S
C1343 C1344 1.349 . S
C1343 C1345 1.327 . S
C1343 H1366 0.950 . S
C1344 C1343 1.349 . S
C1344 C1356 1.349 . S
C1345 C1343 1.327 . S
C1345 C1361 1.429 . S
C1345 H1367 0.950 . S
C1346 H1342 0.949 . S
C1346 C1354 1.574 1_455 S
C1346 C1362 1.368 1_556 S
H1347 C1355 0.950 . S
H1348 C1353 0.950 1_554 S
H1349 C1354 0.949 . S
H1350 C1356 0.950 . S
H1351 C1357 0.950 1_556 S
H1352 C1358 0.949 . S
C1353 H1348 0.950 1_556 S
C1353 C1355 1.327 . S
C1353 C1359 1.429 . S
C1354 C1346 1.574 1_655 S
C1354 H1349 0.949 . S
C1354 C1360 1.368 . S
C1355 C1339 1.349 . S
C1355 H1347 0.950 . S
C1355 C1353 1.327 . S
C1356 C1344 1.349 . S
C1356 H1350 0.950 . S
C1356 C1357 1.327 . S
C1357 H1351 0.950 1_554 S
C1357 C1356 1.327 . S
C1357 C1361 1.429 . S
C1358 C1341 1.574 1_455 S
C1358 H1352 0.949 . S
C1358 C1362 1.368 . S
C1359 C1340 1.429 . S
C1359 C1353 1.429 . S
C1359 C1360 1.523 . S
C1360 C1341 1.368 1_556 S
C1360 C1354 1.368 . S
C1360 C1359 1.523 . S
C1361 C1345 1.429 . S
C1361 C1357 1.429 . S
C1361 C1362 1.523 . S
C1362 C1346 1.368 1_554 S
C1362 C1358 1.368 . S
C1362 C1361 1.523 . S
H1363 C1338 0.950 . S
H1364 C1340 0.950 . S
H1365 C1341 0.949 . S
H1366 C1343 0.950 . S
H1367 C1345 0.950 . S
C1368 C1369 1.349 . S
C1368 C1370 1.327 . S
C1368 H1393 0.950 . S
C1369 C1368 1.349 . S
C1369 C1385 1.349 . S
C1370 C1368 1.327 . S
C1370 C1389 1.429 . S
C1370 H1394 0.950 . S
C1371 C1388 1.574 . S
C1371 C1390 1.368 . S
C1371 H1395 0.949 . S
H1372 C1376 0.949 . S
C1373 C1374 1.349 . S
C1373 C1375 1.327 . S
C1373 H1396 0.950 . S
C1374 C1373 1.349 . S
C1374 C1386 1.349 . S
C1375 C1373 1.327 . S
C1375 C1391 1.429 . S
C1375 H1397 0.950 . S
C1376 H1372 0.949 . S
C1376 C1384 1.574 . S
C1376 C1392 1.368 . S
H1377 C1385 0.950 . S
H1378 C1383 0.950 . S
H1379 C1384 0.949 . S
H1380 C1386 0.950 . S
H1381 C1387 0.950 . S
H1382 C1388 0.949 . S
C1383 H1378 0.950 . S
C1383 C1385 1.327 . S
C1383 C1389 1.429 . S
C1384 C1376 1.574 . S
C1384 H1379 0.949 . S
C1384 C1390 1.368 . S
C1385 C1369 1.349 . S
C1385 H1377 0.950 . S
C1385 C1383 1.327 . S
C1386 C1374 1.349 . S
C1386 H1380 0.950 . S
C1386 C1387 1.327 . S
C1387 H1381 0.950 . S
C1387 C1386 1.327 . S
C1387 C1391 1.429 . S
C1388 C1371 1.574 . S
C1388 H1382 0.949 . S
C1388 C1392 1.368 . S
C1389 C1370 1.429 . S
C1389 C1383 1.429 . S
C1389 C1390 1.523 . S
C1390 C1371 1.368 . S
C1390 C1384 1.368 . S
C1390 C1389 1.523 . S
C1391 C1375 1.429 . S
C1391 C1387 1.429 . S
C1391 C1392 1.523 . S
C1392 C1376 1.368 . S
C1392 C1388 1.368 . S
C1392 C1391 1.523 . S
H1393 C1368 0.950 . S
H1394 C1370 0.950 . S
H1395 C1371 0.949 . S
H1396 C1373 0.950 . S
H1397 C1375 0.950 . S
C1398 C1399 1.349 . S
C1398 C1400 1.327 . S
C1398 H1423 0.950 . S
C1399 C1398 1.349 . S
C1399 C1415 1.349 . S
C1400 C1398 1.327 . S
C1400 C1419 1.429 . S
C1400 H1424 0.950 . S
C1401 C1418 1.574 . S
C1401 C1420 1.368 . S
C1401 H1425 0.949 . S
H1402 C1406 0.949 . S
C1403 C1404 1.349 . S
C1403 C1405 1.327 . S
C1403 H1426 0.950 . S
C1404 C1403 1.349 . S
C1404 C1416 1.349 . S
C1405 C1403 1.327 . S
C1405 C1421 1.429 . S
C1405 H1427 0.950 . S
C1406 H1402 0.949 . S
C1406 C1414 1.574 . S
C1406 C1422 1.368 . S
H1407 C1415 0.950 . S
H1408 C1413 0.950 . S
H1409 C1414 0.949 . S
H1410 C1416 0.950 . S
H1411 C1417 0.950 . S
H1412 C1418 0.949 . S
C1413 H1408 0.950 . S
C1413 C1415 1.327 . S
C1413 C1419 1.429 . S
C1414 C1406 1.574 . S
C1414 H1409 0.949 . S
C1414 C1420 1.368 . S
C1415 C1399 1.349 . S
C1415 H1407 0.950 . S
C1415 C1413 1.327 . S
C1416 C1404 1.349 . S
C1416 H1410 0.950 . S
C1416 C1417 1.327 . S
C1417 H1411 0.950 . S
C1417 C1416 1.327 . S
C1417 C1421 1.429 . S
C1418 C1401 1.574 . S
C1418 H1412 0.949 . S
C1418 C1422 1.368 . S
C1419 C1400 1.429 . S
C1419 C1413 1.429 . S
C1419 C1420 1.523 . S
C1420 C1401 1.368 . S
C1420 C1414 1.368 . S
C1420 C1419 1.523 . S
C1421 C1405 1.429 . S
C1421 C1417 1.429 . S
C1421 C1422 1.523 . S
C1422 C1406 1.368 . S
C1422 C1418 1.368 . S
C1422 C1421 1.523 . S
H1423 C1398 0.950 . S
H1424 C1400 0.950 . S
H1425 C1401 0.949 . S
H1426 C1403 0.950 . S
H1427 C1405 0.950 . S
C1428 C1429 1.349 . S
C1428 C1430 1.327 . S
C1428 H1453 0.950 . S
C1429 C1428 1.349 . S
C1429 C1445 1.349 . S
C1430 C1428 1.327 . S
C1430 C1449 1.429 . S
C1430 H1454 0.950 . S
C1431 C1448 1.574 . S
C1431 C1450 1.368 . S
C1431 H1455 0.949 . S
H1432 C1436 0.949 . S
C1433 C1434 1.349 . S
C1433 C1435 1.327 . S
C1433 H1456 0.950 . S
C1434 C1433 1.349 . S
C1434 C1446 1.349 . S
C1435 C1433 1.327 . S
C1435 C1451 1.429 . S
C1435 H1457 0.950 . S
C1436 H1432 0.949 . S
C1436 C1444 1.574 . S
C1436 C1452 1.368 . S
H1437 C1445 0.950 . S
H1438 C1443 0.950 . S
H1439 C1444 0.949 . S
H1440 C1446 0.950 . S
H1441 C1447 0.950 . S
H1442 C1448 0.949 . S
C1443 H1438 0.950 . S
C1443 C1445 1.327 . S
C1443 C1449 1.429 . S
C1444 C1436 1.574 . S
C1444 H1439 0.949 . S
C1444 C1450 1.368 . S
C1445 C1429 1.349 . S
C1445 H1437 0.950 . S
C1445 C1443 1.327 . S
C1446 C1434 1.349 . S
C1446 H1440 0.950 . S
C1446 C1447 1.327 . S
C1447 H1441 0.950 . S
C1447 C1446 1.327 . S
C1447 C1451 1.429 . S
C1448 C1431 1.574 . S
C1448 H1442 0.949 . S
C1448 C1452 1.368 . S
C1449 C1430 1.429 . S
C1449 C1443 1.429 . S
C1449 C1450 1.523 . S
C1450 C1431 1.368 . S
C1450 C1444 1.368 . S
C1450 C1449 1.523 . S
C1451 C1435 1.429 . S
C1451 C1447 1.429 . S
C1451 C1452 1.523 . S
C1452 C1436 1.368 . S
C1452 C1448 1.368 . S
C1452 C1451 1.523 . S
H1453 C1428 0.950 . S
H1454 C1430 0.950 . S
H1455 C1431 0.949 . S
H1456 C1433 0.950 . S
H1457 C1435 0.950 . S
C1458 C1459 1.349 . S
C1458 C1460 1.327 . S
C1458 H1483 0.950 . S
C1459 C1458 1.349 . S
C1459 C1475 1.349 . S
C1460 C1458 1.327 . S
C1460 C1479 1.429 . S
C1460 H1484 0.950 . S
C1461 C1478 1.574 . S
C1461 C1480 1.368 . S
C1461 H1485 0.949 . S
H1462 C1466 0.949 . S
C1463 C1464 1.349 . S
C1463 C1465 1.327 . S
C1463 H1486 0.950 . S
C1464 C1463 1.349 . S
C1464 C1476 1.349 . S
C1465 C1463 1.327 . S
C1465 C1481 1.429 . S
C1465 H1487 0.950 . S
C1466 H1462 0.949 . S
C1466 C1474 1.574 . S
C1466 C1482 1.368 . S
H1467 C1475 0.950 . S
H1468 C1473 0.950 . S
H1469 C1474 0.949 . S
H1470 C1476 0.950 . S
H1471 C1477 0.950 . S
H1472 C1478 0.949 . S
C1473 H1468 0.950 . S
C1473 C1475 1.327 . S
C1473 C1479 1.429 . S
C1474 C1466 1.574 . S
C1474 H1469 0.949 . S
C1474 C1480 1.368 . S
C1475 C1459 1.349 . S
C1475 H1467 0.950 . S
C1475 C1473 1.327 . S
C1476 C1464 1.349 . S
C1476 H1470 0.950 . S
C1476 C1477 1.327 . S
C1477 H1471 0.950 . S
C1477 C1476 1.327 . S
C1477 C1481 1.429 . S
C1478 C1461 1.574 . S
C1478 H1472 0.949 . S
C1478 C1482 1.368 . S
C1479 C1460 1.429 . S
C1479 C1473 1.429 . S
C1479 C1480 1.523 . S
C1480 C1461 1.368 . S
C1480 C1474 1.368 . S
C1480 C1479 1.523 . S
C1481 C1465 1.429 . S
C1481 C1477 1.429 . S
C1481 C1482 1.523 . S
C1482 C1466 1.368 . S
C1482 C1478 1.368 . S
C1482 C1481 1.523 . S
H1483 C1458 0.950 . S
H1484 C1460 0.950 . S
H1485 C1461 0.949 . S
H1486 C1463 0.950 . S
H1487 C1465 0.950 . S
C1488 C1489 1.349 . S
C1488 C1490 1.327 . S
C1488 H1513 0.950 . S
C1489 C1488 1.349 . S
C1489 C1505 1.349 . S
C1490 C1488 1.327 . S
C1490 C1509 1.429 . S
C1490 H1514 0.950 . S
C1491 C1508 1.574 . S
C1491 C1510 1.368 1_556 S
C1491 H1515 0.949 . S
H1492 C1496 0.949 . S
C1493 C1494 1.349 . S
C1493 C1495 1.327 . S
C1493 H1516 0.950 . S
C1494 C1493 1.349 . S
C1494 C1506 1.349 . S
C1495 C1493 1.327 . S
C1495 C1511 1.429 . S
C1495 H1517 0.950 . S
C1496 H1492 0.949 . S
C1496 C1504 1.574 . S
C1496 C1512 1.368 1_554 S
H1497 C1505 0.950 1_556 S
H1498 C1503 0.950 . S
H1499 C1504 0.949 . S
H1500 C1506 0.950 1_554 S
H1501 C1507 0.950 . S
H1502 C1508 0.949 . S
C1503 H1498 0.950 . S
C1503 C1505 1.327 1_556 S
C1503 C1509 1.429 1_556 S
C1504 C1496 1.574 . S
C1504 H1499 0.949 . S
C1504 C1510 1.368 . S
C1505 C1489 1.349 . S
C1505 H1497 0.950 1_554 S
C1505 C1503 1.327 1_554 S
C1506 C1494 1.349 . S
C1506 H1500 0.950 1_556 S
C1506 C1507 1.327 1_556 S
C1507 H1501 0.950 . S
C1507 C1506 1.327 1_554 S
C1507 C1511 1.429 1_554 S
C1508 C1491 1.574 . S
C1508 H1502 0.949 . S
C1508 C1512 1.368 . S
C1509 C1490 1.429 . S
C1509 C1503 1.429 1_554 S
C1509 C1510 1.523 . S
C1510 C1491 1.368 1_554 S
C1510 C1504 1.368 . S
C1510 C1509 1.523 . S
C1511 C1495 1.429 . S
C1511 C1507 1.429 1_556 S
C1511 C1512 1.523 . S
C1512 C1496 1.368 1_556 S
C1512 C1508 1.368 . S
C1512 C1511 1.523 . S
H1513 C1488 0.950 . S
H1514 C1490 0.950 . S
H1515 C1491 0.949 . S
H1516 C1493 0.950 . S
H1517 C1495 0.950 . S
C1518 C1519 1.349 . S
C1518 C1520 1.327 1_554 S
C1518 H1543 0.950 1_554 S
C1519 C1518 1.349 . S
C1519 C1535 1.349 . S
C1520 C1518 1.327 1_556 S
C1520 C1539 1.429 1_556 S
C1520 H1544 0.950 . S
C1521 C1538 1.574 . S
C1521 C1540 1.368 . S
C1521 H1545 0.949 . S
H1522 C1526 0.949 . S
C1523 C1524 1.349 . S
C1523 C1525 1.327 1_556 S
C1523 H1546 0.950 1_556 S
C1524 C1523 1.349 . S
C1524 C1536 1.349 . S
C1525 C1523 1.327 1_554 S
C1525 C1541 1.429 1_554 S
C1525 H1547 0.950 . S
C1526 H1522 0.949 . S
C1526 C1534 1.574 . S
C1526 C1542 1.368 . S
H1527 C1535 0.950 . S
H1528 C1533 0.950 . S
H1529 C1534 0.949 . S
H1530 C1536 0.950 . S
H1531 C1537 0.950 . S
H1532 C1538 0.949 . S
C1533 H1528 0.950 . S
C1533 C1535 1.327 . S
C1533 C1539 1.429 . S
C1534 C1526 1.574 . S
C1534 H1529 0.949 . S
C1534 C1540 1.368 1_556 S
C1535 C1519 1.349 . S
C1535 H1527 0.950 . S
C1535 C1533 1.327 . S
C1536 C1524 1.349 . S
C1536 H1530 0.950 . S
C1536 C1537 1.327 . S
C1537 H1531 0.950 . S
C1537 C1536 1.327 . S
C1537 C1541 1.429 . S
C1538 C1521 1.574 . S
C1538 H1532 0.949 . S
C1538 C1542 1.368 1_554 S
C1539 C1520 1.429 1_554 S
C1539 C1533 1.429 . S
C1539 C1540 1.523 . S
C1540 C1521 1.368 . S
C1540 C1534 1.368 1_554 S
C1540 C1539 1.523 . S
C1541 C1525 1.429 1_556 S
C1541 C1537 1.429 . S
C1541 C1542 1.523 . S
C1542 C1526 1.368 . S
C1542 C1538 1.368 1_556 S
C1542 C1541 1.523 . S
H1543 C1518 0.950 1_556 S
H1544 C1520 0.950 . S
H1545 C1521 0.949 . S
H1546 C1523 0.950 1_554 S
H1547 C1525 0.950 . S
C1548 C1549 1.349 . S
C1548 C1550 1.327 . S
C1548 H1573 0.950 . S
C1549 C1548 1.349 . S
C1549 C1565 1.349 . S
C1550 C1548 1.327 . S
C1550 C1569 1.429 . S
C1550 H1574 0.950 . S
C1551 C1568 1.574 . S
C1551 C1570 1.368 1_554 S
C1551 H1575 0.949 . S
H1552 C1556 0.949 . S
C1553 C1554 1.349 . S
C1553 C1555 1.327 . S
C1553 H1576 0.950 . S
C1554 C1553 1.349 . S
C1554 C1566 1.349 . S
C1555 C1553 1.327 . S
C1555 C1571 1.429 . S
C1555 H1577 0.950 . S
C1556 H1552 0.949 . S
C1556 C1564 1.574 . S
C1556 C1572 1.368 1_556 S
H1557 C1565 0.950 . S
H1558 C1563 0.950 . S
H1559 C1564 0.949 . S
H1560 C1566 0.950 . S
H1561 C1567 0.950 . S
H1562 C1568 0.949 . S
C1563 H1558 0.950 . S
C1563 C1565 1.327 . S
C1563 C1569 1.429 . S
C1564 C1556 1.574 . S
C1564 H1559 0.949 . S
C1564 C1570 1.368 . S
C1565 C1549 1.349 . S
C1565 H1557 0.950 . S
C1565 C1563 1.327 . S
C1566 C1554 1.349 . S
C1566 H1560 0.950 . S
C1566 C1567 1.327 . S
C1567 H1561 0.950 . S
C1567 C1566 1.327 . S
C1567 C1571 1.429 . S
C1568 C1551 1.574 . S
C1568 H1562 0.949 . S
C1568 C1572 1.368 . S
C1569 C1550 1.429 . S
C1569 C1563 1.429 . S
C1569 C1570 1.523 . S
C1570 C1551 1.368 1_556 S
C1570 C1564 1.368 . S
C1570 C1569 1.523 . S
C1571 C1555 1.429 . S
C1571 C1567 1.429 . S
C1571 C1572 1.523 . S
C1572 C1556 1.368 1_554 S
C1572 C1568 1.368 . S
C1572 C1571 1.523 . S
H1573 C1548 0.950 . S
H1574 C1550 0.950 . S
H1575 C1551 0.949 . S
H1576 C1553 0.950 . S
H1577 C1555 0.950 . S
C1578 C1579 1.349 . S
C1578 C1580 1.327 . S
C1578 H1603 0.950 . S
C1579 C1578 1.349 . S
C1579 C1595 1.349 . S
C1580 C1578 1.327 . S
C1580 C1599 1.429 . S
C1580 H1604 0.950 . S
C1581 C1598 1.574 . S
C1581 C1600 1.368 1_556 S
C1581 H1605 0.949 . S
H1582 C1586 0.949 . S
C1583 C1584 1.349 . S
C1583 C1585 1.327 . S
C1583 H1606 0.950 . S
C1584 C1583 1.349 . S
C1584 C1596 1.349 . S
C1585 C1583 1.327 . S
C1585 C1601 1.429 . S
C1585 H1607 0.950 . S
C1586 H1582 0.949 . S
C1586 C1594 1.574 . S
C1586 C1602 1.368 1_554 S
H1587 C1595 0.950 1_556 S
H1588 C1593 0.950 . S
H1589 C1594 0.949 . S
H1590 C1596 0.950 1_554 S
H1591 C1597 0.950 . S
H1592 C1598 0.949 . S
C1593 H1588 0.950 . S
C1593 C1595 1.327 1_556 S
C1593 C1599 1.429 1_556 S
C1594 C1586 1.574 . S
C1594 H1589 0.949 . S
C1594 C1600 1.368 . S
C1595 C1579 1.349 . S
C1595 H1587 0.950 1_554 S
C1595 C1593 1.327 1_554 S
C1596 C1584 1.349 . S
C1596 H1590 0.950 1_556 S
C1596 C1597 1.327 1_556 S
C1597 H1591 0.950 . S
C1597 C1596 1.327 1_554 S
C1597 C1601 1.429 1_554 S
C1598 C1581 1.574 . S
C1598 H1592 0.949 . S
C1598 C1602 1.368 . S
C1599 C1580 1.429 . S
C1599 C1593 1.429 1_554 S
C1599 C1600 1.523 . S
C1600 C1581 1.368 1_554 S
C1600 C1594 1.368 . S
C1600 C1599 1.523 . S
C1601 C1585 1.429 . S
C1601 C1597 1.429 1_556 S
C1601 C1602 1.523 . S
C1602 C1586 1.368 1_556 S
C1602 C1598 1.368 . S
C1602 C1601 1.523 . S
H1603 C1578 0.950 . S
H1604 C1580 0.950 . S
H1605 C1581 0.949 . S
H1606 C1583 0.950 . S
H1607 C1585 0.950 . S
C1608 C1609 1.349 . S
C1608 C1610 1.327 . S
C1608 H1633 0.950 . S
C1609 C1608 1.349 . S
C1609 C1625 1.349 . S
C1610 C1608 1.327 . S
C1610 C1629 1.429 . S
C1610 H1634 0.950 . S
C1611 C1628 1.574 . S
C1611 C1630 1.368 . S
C1611 H1635 0.949 . S
H1612 C1616 0.949 . S
C1613 C1614 1.349 . S
C1613 C1615 1.327 . S
C1613 H1636 0.950 . S
C1614 C1613 1.349 . S
C1614 C1626 1.349 . S
C1615 C1613 1.327 . S
C1615 C1631 1.429 . S
C1615 H1637 0.950 . S
C1616 H1612 0.949 . S
C1616 C1624 1.574 . S
C1616 C1632 1.368 . S
H1617 C1625 0.950 . S
H1618 C1623 0.950 . S
H1619 C1624 0.949 . S
H1620 C1626 0.950 . S
H1621 C1627 0.950 . S
H1622 C1628 0.949 . S
C1623 H1618 0.950 . S
C1623 C1625 1.327 . S
C1623 C1629 1.429 . S
C1624 C1616 1.574 . S
C1624 H1619 0.949 . S
C1624 C1630 1.368 . S
C1625 C1609 1.349 . S
C1625 H1617 0.950 . S
C1625 C1623 1.327 . S
C1626 C1614 1.349 . S
C1626 H1620 0.950 . S
C1626 C1627 1.327 . S
C1627 H1621 0.950 . S
C1627 C1626 1.327 . S
C1627 C1631 1.429 . S
C1628 C1611 1.574 . S
C1628 H1622 0.949 . S
C1628 C1632 1.368 . S
C1629 C1610 1.429 . S
C1629 C1623 1.429 . S
C1629 C1630 1.523 . S
C1630 C1611 1.368 . S
C1630 C1624 1.368 . S
C1630 C1629 1.523 . S
C1631 C1615 1.429 . S
C1631 C1627 1.429 . S
C1631 C1632 1.523 . S
C1632 C1616 1.368 . S
C1632 C1628 1.368 . S
C1632 C1631 1.523 . S
H1633 C1608 0.950 . S
H1634 C1610 0.950 . S
H1635 C1611 0.949 . S
H1636 C1613 0.950 . S
H1637 C1615 0.950 . S
C1638 C1639 1.349 . S
C1638 C1640 1.327 . S
C1638 H1663 0.950 . S
C1639 C1638 1.349 . S
C1639 C1655 1.349 . S
C1640 C1638 1.327 . S
C1640 C1659 1.429 . S
C1640 H1664 0.950 . S
C1641 C1658 1.574 . S
C1641 C1660 1.368 . S
C1641 H1665 0.949 . S
H1642 C1646 0.949 . S
C1643 C1644 1.349 . S
C1643 C1645 1.327 . S
C1643 H1666 0.950 . S
C1644 C1643 1.349 . S
C1644 C1656 1.349 . S
C1645 C1643 1.327 . S
C1645 C1661 1.429 . S
C1645 H1667 0.950 . S
C1646 H1642 0.949 . S
C1646 C1654 1.574 . S
C1646 C1662 1.368 . S
H1647 C1655 0.950 . S
H1648 C1653 0.950 . S
H1649 C1654 0.949 . S
H1650 C1656 0.950 . S
H1651 C1657 0.950 . S
H1652 C1658 0.949 . S
C1653 H1648 0.950 . S
C1653 C1655 1.327 . S
C1653 C1659 1.429 . S
C1654 C1646 1.574 . S
C1654 H1649 0.949 . S
C1654 C1660 1.368 . S
C1655 C1639 1.349 . S
C1655 H1647 0.950 . S
C1655 C1653 1.327 . S
C1656 C1644 1.349 . S
C1656 H1650 0.950 . S
C1656 C1657 1.327 . S
C1657 H1651 0.950 . S
C1657 C1656 1.327 . S
C1657 C1661 1.429 . S
C1658 C1641 1.574 . S
C1658 H1652 0.949 . S
C1658 C1662 1.368 . S
C1659 C1640 1.429 . S
C1659 C1653 1.429 . S
C1659 C1660 1.523 . S
C1660 C1641 1.368 . S
C1660 C1654 1.368 . S
C1660 C1659 1.523 . S
C1661 C1645 1.429 . S
C1661 C1657 1.429 . S
C1661 C1662 1.523 . S
C1662 C1646 1.368 . S
C1662 C1658 1.368 . S
C1662 C1661 1.523 . S
H1663 C1638 0.950 . S
H1664 C1640 0.950 . S
H1665 C1641 0.949 . S
H1666 C1643 0.950 . S
H1667 C1645 0.950 . S
C1668 C1669 1.349 . S
C1668 C1670 1.327 . S
C1668 H1693 0.950 . S
C1669 C1668 1.349 . S
C1669 C1685 1.349 . S
C1670 C1668 1.327 . S
C1670 C1689 1.429 . S
C1670 H1694 0.950 . S
C1671 C1688 1.574 . S
C1671 C1690 1.368 . S
C1671 H1695 0.949 . S
H1672 C1676 0.949 . S
C1673 C1674 1.349 . S
C1673 C1675 1.327 . S
C1673 H1696 0.950 . S
C1674 C1673 1.349 . S
C1674 C1686 1.349 . S
C1675 C1673 1.327 . S
C1675 C1691 1.429 . S
C1675 H1697 0.950 . S
C1676 H1672 0.949 . S
C1676 C1684 1.574 . S
C1676 C1692 1.368 . S
H1677 C1685 0.950 . S
H1678 C1683 0.950 . S
H1679 C1684 0.949 . S
H1680 C1686 0.950 . S
H1681 C1687 0.950 . S
H1682 C1688 0.949 . S
C1683 H1678 0.950 . S
C1683 C1685 1.327 . S
C1683 C1689 1.429 . S
C1684 C1676 1.574 . S
C1684 H1679 0.949 . S
C1684 C1690 1.368 . S
C1685 C1669 1.349 . S
C1685 H1677 0.950 . S
C1685 C1683 1.327 . S
C1686 C1674 1.349 . S
C1686 H1680 0.950 . S
C1686 C1687 1.327 . S
C1687 H1681 0.950 . S
C1687 C1686 1.327 . S
C1687 C1691 1.429 . S
C1688 C1671 1.574 . S
C1688 H1682 0.949 . S
C1688 C1692 1.368 . S
C1689 C1670 1.429 . S
C1689 C1683 1.429 . S
C1689 C1690 1.523 . S
C1690 C1671 1.368 . S
C1690 C1684 1.368 . S
C1690 C1689 1.523 . S
C1691 C1675 1.429 . S
C1691 C1687 1.429 . S
C1691 C1692 1.523 . S
C1692 C1676 1.368 . S
C1692 C1688 1.368 . S
C1692 C1691 1.523 . S
H1693 C1668 0.950 . S
H1694 C1670 0.950 . S
H1695 C1671 0.949 . S
H1696 C1673 0.950 . S
H1697 C1675 0.950 . S
C1698 C1699 1.349 . S
C1698 C1700 1.327 . S
C1698 H1723 0.950 . S
C1699 C1698 1.349 . S
C1699 C1715 1.349 . S
C1700 C1698 1.327 . S
C1700 C1719 1.429 . S
C1700 H1724 0.950 . S
C1701 C1718 1.574 . S
C1701 C1720 1.368 . S
C1701 H1725 0.949 . S
H1702 C1706 0.949 . S
C1703 C1704 1.349 . S
C1703 C1705 1.327 . S
C1703 H1726 0.950 . S
C1704 C1703 1.349 . S
C1704 C1716 1.349 . S
C1705 C1703 1.327 . S
C1705 C1721 1.429 . S
C1705 H1727 0.950 . S
C1706 H1702 0.949 . S
C1706 C1714 1.574 . S
C1706 C1722 1.368 . S
H1707 C1715 0.950 . S
H1708 C1713 0.950 . S
H1709 C1714 0.949 . S
H1710 C1716 0.950 . S
H1711 C1717 0.950 . S
H1712 C1718 0.949 . S
C1713 H1708 0.950 . S
C1713 C1715 1.327 . S
C1713 C1719 1.429 . S
C1714 C1706 1.574 . S
C1714 H1709 0.949 . S
C1714 C1720 1.368 . S
C1715 C1699 1.349 . S
C1715 H1707 0.950 . S
C1715 C1713 1.327 . S
C1716 C1704 1.349 . S
C1716 H1710 0.950 . S
C1716 C1717 1.327 . S
C1717 H1711 0.950 . S
C1717 C1716 1.327 . S
C1717 C1721 1.429 . S
C1718 C1701 1.574 . S
C1718 H1712 0.949 . S
C1718 C1722 1.368 . S
C1719 C1700 1.429 . S
C1719 C1713 1.429 . S
C1719 C1720 1.523 . S
C1720 C1701 1.368 . S
C1720 C1714 1.368 . S
C1720 C1719 1.523 . S
C1721 C1705 1.429 . S
C1721 C1717 1.429 . S
C1721 C1722 1.523 . S
C1722 C1706 1.368 . S
C1722 C1718 1.368 . S
C1722 C1721 1.523 . S
H1723 C1698 0.950 . S
H1724 C1700 0.950 . S
H1725 C1701 0.949 . S
H1726 C1703 0.950 . S
H1727 C1705 0.950 . S
C529 N13 1.198 . S
C534 N2 1.196 . S
C559 N46 1.198 . S
C564 N35 1.196 . S
C589 N68 1.196 . S
C594 N79 1.198 . S
C619 N101 1.196 . S
C624 N112 1.198 . S
C649 N145 1.198 . S
C654 N134 1.196 . S
C679 N167 1.196 . S
C684 N178 1.198 . S
C709 N200 1.196 . S
C714 N211 1.198 . S
C739 N233 1.196 . S
C744 N244 1.198 . S
C769 N277 1.198 . S
C774 N266 1.196 . S
C799 N310 1.198 . S
C804 N299 1.196 . S
C829 N343 1.198 . S
C834 N332 1.196 . S
C859 N376 1.198 . S
C864 N365 1.196 . S
C889 N398 1.196 . S
C894 N409 1.198 . S
C919 N431 1.196 . S
C924 N442 1.198 . S
C949 N464 1.196 . S
C954 N475 1.198 . S
C979 N497 1.196 . S
C984 N508 1.198 . S
C1009 C7 1.353 . S
C1014 C502 1.353 . S
C1039 C403 1.353 . S
C1044 C40 1.353 . S
C1069 C436 1.353 . S
C1074 C73 1.353 . S
C1099 C469 1.353 . S
C1104 C106 1.353 . S
C1129 C304 1.353 . S
C1134 C139 1.353 . S
C1159 C172 1.353 . S
C1164 C337 1.353 . S
C1189 C205 1.353 . S
C1194 C370 1.353 . S
C1219 C271 1.353 . S
C1224 C238 1.353 . S
C1249 C18 1.069 . S
C1254 C150 1.069 . S
C1279 C183 1.069 . S
C1284 C51 1.069 . S
C1309 C84 1.069 . S
C1314 C216 1.069 . S
C1339 C249 1.069 . S
C1344 C117 1.069 . S
C1369 C414 1.069 . S
C1374 C282 1.069 . S
C1399 C315 1.069 . S
C1404 C447 1.069 . S
C1429 C348 1.069 . S
C1434 C480 1.069 . S
C1459 C381 1.069 . S
C1464 C513 1.069 . S
C1489 C21 1.495 . S
C1494 C186 1.495 . S
C1519 C54 1.495 . S
C1524 C219 1.495 . S
C1549 C252 1.495 . S
C1554 C87 1.495 . S
C1579 C120 1.495 . S
C1584 C153 1.495 . S
C1609 C450 1.495 . S
C1614 C285 1.495 . S
C1639 C318 1.495 . S
C1644 C483 1.495 . S
C1669 C516 1.495 . S
C1674 C351 1.495 . S
C1699 C417 1.495 . S
C1704 C384 1.495 . S
