# Generated by pormake.
# Topology mon, (4)-cn, num edge types: 1
# Building blocks:
#     Node 0, Type 0, BuildingBlock: QUQFOY_clean_sbu_1, # of connection points: 4
#     Node 1, Type 0, BuildingBlock: QUQFOY_clean_sbu_1, # of connection points: 4
#     Node 2, Type 0, BuildingBlock: QUQFOY_clean_sbu_1, # of connection points: 4
#     Node 3, Type 0, BuildingBlock: QUQFOY_clean_sbu_1, # of connection points: 4
#     Node 4, Type 0, BuildingBlock: QUQFOY_clean_sbu_1, # of connection points: 4
#     Node 5, Type 0, BuildingBlock: QUQFOY_clean_sbu_1, # of connection points: 4
#     Node 6, Type 0, BuildingBlock: QUQFOY_clean_sbu_1, # of connection points: 4
#     Node 7, Type 0, BuildingBlock: QUQFOY_clean_sbu_1, # of connection points: 4
#     Node 8, Type 0, BuildingBlock: QUQFOY_clean_sbu_1, # of connection points: 4
#     Node 9, Type 0, BuildingBlock: QUQFOY_clean_sbu_1, # of connection points: 4
#     Node 10, Type 0, BuildingBlock: QUQFOY_clean_sbu_1, # of connection points: 4
#     Node 11, Type 0, BuildingBlock: QUQFOY_clean_sbu_1, # of connection points: 4
#     Node 12, Type 0, BuildingBlock: QUQFOY_clean_sbu_1, # of connection points: 4
#     Node 13, Type 0, BuildingBlock: QUQFOY_clean_sbu_1, # of connection points: 4
#     Node 14, Type 0, BuildingBlock: QUQFOY_clean_sbu_1, # of connection points: 4
#     Node 15, Type 0, BuildingBlock: QUQFOY_clean_sbu_1, # of connection points: 4
#     Edge 16, Type (0, 0), BuildingBlock: KIFKEQ_clean_linker_1, # of connection points: 2
#     Edge 17, Type (0, 0), BuildingBlock: KIFKEQ_clean_linker_1, # of connection points: 2
#     Edge 18, Type (0, 0), BuildingBlock: KIFKEQ_clean_linker_1, # of connection points: 2
#     Edge 19, Type (0, 0), BuildingBlock: KIFKEQ_clean_linker_1, # of connection points: 2
#     Edge 20, Type (0, 0), BuildingBlock: KIFKEQ_clean_linker_1, # of connection points: 2
#     Edge 21, Type (0, 0), BuildingBlock: KIFKEQ_clean_linker_1, # of connection points: 2
#     Edge 22, Type (0, 0), BuildingBlock: KIFKEQ_clean_linker_1, # of connection points: 2
#     Edge 23, Type (0, 0), BuildingBlock: KIFKEQ_clean_linker_1, # of connection points: 2
#     Edge 24, Type (0, 0), BuildingBlock: KIFKEQ_clean_linker_1, # of connection points: 2
#     Edge 25, Type (0, 0), BuildingBlock: KIFKEQ_clean_linker_1, # of connection points: 2
#     Edge 26, Type (0, 0), BuildingBlock: KIFKEQ_clean_linker_1, # of connection points: 2
#     Edge 27, Type (0, 0), BuildingBlock: KIFKEQ_clean_linker_1, # of connection points: 2
#     Edge 28, Type (0, 0), BuildingBlock: KIFKEQ_clean_linker_1, # of connection points: 2
#     Edge 29, Type (0, 0), BuildingBlock: KIFKEQ_clean_linker_1, # of connection points: 2
#     Edge 30, Type (0, 0), BuildingBlock: KIFKEQ_clean_linker_1, # of connection points: 2
#     Edge 31, Type (0, 0), BuildingBlock: KIFKEQ_clean_linker_1, # of connection points: 2
#     Edge 32, Type (0, 0), BuildingBlock: KIFKEQ_clean_linker_1, # of connection points: 2
#     Edge 33, Type (0, 0), BuildingBlock: KIFKEQ_clean_linker_1, # of connection points: 2
#     Edge 34, Type (0, 0), BuildingBlock: KIFKEQ_clean_linker_1, # of connection points: 2
#     Edge 35, Type (0, 0), BuildingBlock: KIFKEQ_clean_linker_1, # of connection points: 2
#     Edge 36, Type (0, 0), BuildingBlock: KIFKEQ_clean_linker_1, # of connection points: 2
#     Edge 37, Type (0, 0), BuildingBlock: KIFKEQ_clean_linker_1, # of connection points: 2
#     Edge 38, Type (0, 0), BuildingBlock: KIFKEQ_clean_linker_1, # of connection points: 2
#     Edge 39, Type (0, 0), BuildingBlock: KIFKEQ_clean_linker_1, # of connection points: 2
#     Edge 40, Type (0, 0), BuildingBlock: KIFKEQ_clean_linker_1, # of connection points: 2
#     Edge 41, Type (0, 0), BuildingBlock: KIFKEQ_clean_linker_1, # of connection points: 2
#     Edge 42, Type (0, 0), BuildingBlock: KIFKEQ_clean_linker_1, # of connection points: 2
#     Edge 43, Type (0, 0), BuildingBlock: KIFKEQ_clean_linker_1, # of connection points: 2
#     Edge 44, Type (0, 0), BuildingBlock: KIFKEQ_clean_linker_1, # of connection points: 2
#     Edge 45, Type (0, 0), BuildingBlock: KIFKEQ_clean_linker_1, # of connection points: 2
#     Edge 46, Type (0, 0), BuildingBlock: KIFKEQ_clean_linker_1, # of connection points: 2
#     Edge 47, Type (0, 0), BuildingBlock: KIFKEQ_clean_linker_1, # of connection points: 2
# Relax obj value: 0.203
# Max RMSD: 0.220
# Mean RMSD: 0.220
data_MOF--net-mon--node1-QUQFOY_clean_sbu_1--edge1-KIFKEQ_clean_linker_1
_symmetry_space_group_name_H-M    P1
_symmetry_Int_Tables_number       1
_symmetry_cell_setting            triclinic
loop_
_symmetry_equiv_pos_as_xyz
'x, y, z'
_cell_length_a     36.865814
_cell_length_b     36.866553
_cell_length_c     85.760637
_cell_angle_alpha  89.965553
_cell_angle_beta   89.974273
_cell_angle_gamma 90.012341
loop_
_atom_site_label
_atom_site_type_symbol
_atom_site_fract_x
_atom_site_fract_y
_atom_site_fract_z
_atom_type_partial_charge
O0 O 0.03003 0.04935 0.55734 0.0
Cd1 Cd 0.02434 0.06099 0.58071 0.0
Cd2 Cd 0.07435 0.00408 0.58468 0.0
O3 O 0.07054 0.00597 0.56076 0.0
O4 O 0.00422 0.11094 0.58259 0.0
O5 O 0.0597 0.096 0.59024 0.0
C6 C 0.03499 0.12055 0.58844 0.0
C7 C 0.13119 0.9857 0.59408 0.0
C8 C 0.051 0.02522 0.5518 0.0
C9 C 0.99938 0.99613 0.59893 0.0
O10 O 0.03086 0.98303 0.59676 0.0
O11 O 0.99114 0.02726 0.59363 0.0
O12 O 0.11028 0.96409 0.58652 0.0
O13 O 0.12 0.0184 0.59644 0.0
O14 O 0.26797 0.71934 0.8111 0.0
Cd15 Cd 0.25805 0.71714 0.83478 0.0
Cd16 Cd 0.31156 0.76885 0.83631 0.0
O17 O 0.30687 0.7647 0.81259 0.0
O18 O 0.20877 0.69608 0.83781 0.0
O19 O 0.22262 0.75302 0.84362 0.0
C20 C 0.19859 0.72754 0.84274 0.0
C21 C 0.32381 0.82675 0.84601 0.0
C22 C 0.28911 0.74193 0.80455 0.0
C23 C 0.32655 0.69615 0.85117 0.0
O24 O 0.33854 0.72711 0.84719 0.0
O25 O 0.29398 0.68721 0.84813 0.0
O26 O 0.34677 0.80962 0.83749 0.0
O27 O 0.29331 0.81123 0.84916 0.0
O28 O 0.60094 0.95825 0.05672 0.0
Cd29 Cd 0.60294 0.9468 0.08027 0.0
Cd30 Cd 0.54916 0.9981 0.08218 0.0
O31 O 0.5502 0.98957 0.05854 0.0
O32 O 0.62163 0.89662 0.08325 0.0
O33 O 0.56511 0.91307 0.0887 0.0
C34 C 0.58948 0.88789 0.08791 0.0
C35 C 0.49248 0.01551 0.09218 0.0
C36 C 0.57495 0.97525 0.0503 0.0
C37 C 0.62325 0.01481 0.09614 0.0
O38 O 0.59232 0.02606 0.09171 0.0
O39 O 0.63244 0.982 0.09394 0.0
O40 O 0.51062 0.03584 0.08283 0.0
O41 O 0.50631 0.98458 0.09594 0.0
O42 O 0.35939 0.2876 0.30812 0.0
Cd43 Cd 0.36764 0.28863 0.33191 0.0
Cd44 Cd 0.31683 0.23573 0.33213 0.0
O45 O 0.33032 0.23543 0.30888 0.0
O46 O 0.41723 0.30746 0.33618 0.0
O47 O 0.40042 0.25063 0.34081 0.0
C48 C 0.42555 0.27514 0.34075 0.0
C49 C 0.30085 0.17956 0.34284 0.0
C50 C 0.34485 0.26093 0.30113 0.0
C51 C 0.29721 0.30918 0.34548 0.0
O52 O 0.28627 0.27894 0.34012 0.0
O53 O 0.33063 0.31748 0.34489 0.0
O54 O 0.28141 0.19495 0.33231 0.0
O55 O 0.32996 0.19582 0.3474 0.0
O56 O 0.03293 0.95126 0.43076 0.0
Cd57 Cd 0.02664 0.94071 0.40733 0.0
Cd58 Cd 0.0756 0.99695 0.40371 0.0
O59 O 0.07424 0.99401 0.42766 0.0
O60 O 0.00661 0.8908 0.40517 0.0
O61 O 0.06173 0.9063 0.39722 0.0
C62 C 0.03717 0.88159 0.399 0.0
C63 C 0.13146 0.01126 0.39242 0.0
C64 C 0.0545 0.97462 0.43649 0.0
C65 C 1.0 0.00679 0.39063 0.0
O66 O 0.03135 0.02006 0.39297 0.0
O67 O 0.99251 0.97478 0.3951 0.0
O68 O 0.11396 0.03433 0.40075 0.0
O69 O 0.1176 0.97946 0.39046 0.0
O70 O 0.35589 0.71621 0.68278 0.0
Cd71 Cd 0.36655 0.71199 0.6592 0.0
Cd72 Cd 0.31287 0.76412 0.65697 0.0
O73 O 0.31736 0.76174 0.68074 0.0
O74 O 0.41667 0.69247 0.65725 0.0
O75 O 0.40099 0.7476 0.64947 0.0
C76 C 0.42599 0.72341 0.65143 0.0
C77 C 0.29635 0.82092 0.64688 0.0
C78 C 0.33489 0.73931 0.68905 0.0
C79 C 0.29902 0.68949 0.64303 0.0
O80 O 0.28734 0.72083 0.64661 0.0
O81 O 0.33147 0.68038 0.64617 0.0
O82 O 0.27484 0.8022 0.65549 0.0
O83 O 0.32795 0.80759 0.64389 0.0
O84 O 0.60166 0.04575 0.92865 0.0
Cd85 Cd 0.60351 0.05596 0.905 0.0
Cd86 Cd 0.54914 0.00717 0.90345 0.0
O87 O 0.54989 0.01615 0.92707 0.0
O88 O 0.62295 0.10567 0.90143 0.0
O89 O 0.56607 0.08981 0.89638 0.0
C90 C 0.59083 0.11467 0.89683 0.0
C91 C 0.49213 0.99593 0.89259 0.0
C92 C 0.57514 0.02988 0.93521 0.0
C93 C 0.62183 0.98648 0.8897 0.0
O94 O 0.5907 0.97619 0.89431 0.0
O95 O 0.63177 0.0192 0.89159 0.0
O96 O 0.50681 0.97383 0.9023 0.0
O97 O 0.50961 0.02502 0.88892 0.0
O98 O 0.26687 0.28744 0.1809 0.0
Cd99 Cd 0.2535 0.29184 0.15769 0.0
Cd100 Cd 0.30792 0.23945 0.15338 0.0
O101 O 0.30498 0.24205 0.17734 0.0
O102 O 0.20341 0.31166 0.15594 0.0
O103 O 0.21836 0.2558 0.14879 0.0
C104 C 0.19376 0.28051 0.15048 0.0
C105 C 0.32682 0.18276 0.1439 0.0
C106 C 0.28855 0.26387 0.18636 0.0
C107 C 0.31832 0.31474 0.13936 0.0
O108 O 0.33066 0.28305 0.14179 0.0
O109 O 0.28713 0.32376 0.14431 0.0
O110 O 0.34792 0.20342 0.15183 0.0
O111 O 0.29433 0.19411 0.14118 0.0
O112 O 0.85554 0.22198 0.18067 0.0
Cd113 Cd 0.86616 0.22079 0.15702 0.0
Cd114 Cd 0.81075 0.27156 0.15585 0.0
O115 O 0.81651 0.26732 0.17956 0.0
O116 O 0.91606 0.20116 0.1541 0.0
O117 O 0.90087 0.25793 0.14859 0.0
C118 C 0.92552 0.23305 0.14941 0.0
C119 C 0.7931 0.32858 0.14632 0.0
C120 C 0.83444 0.24429 0.18741 0.0
C121 C 0.79854 0.19824 0.14067 0.0
O122 O 0.78571 0.22856 0.14503 0.0
O123 O 0.83149 0.19024 0.14335 0.0
O124 O 0.77214 0.30923 0.15494 0.0
O125 O 0.82487 0.31589 0.14313 0.0
O126 O 0.76397 0.79614 0.6836 0.0
Cd127 Cd 0.75014 0.7995 0.66042 0.0
Cd128 Cd 0.80209 0.74573 0.65707 0.0
O129 O 0.79544 0.74557 0.681 0.0
O130 O 0.69949 0.81778 0.65903 0.0
O131 O 0.71607 0.76293 0.6512 0.0
C132 C 0.69066 0.78667 0.65324 0.0
C133 C 0.82041 0.68982 0.64657 0.0
C134 C 0.78153 0.76998 0.68956 0.0
C135 C 0.81562 0.82144 0.64324 0.0
O136 O 0.82733 0.78996 0.64667 0.0
O137 O 0.78359 0.83083 0.6469 0.0
O138 O 0.84108 0.70856 0.65554 0.0
O139 O 0.78862 0.70258 0.64349 0.0
O140 O 0.76094 0.21164 0.30832 0.0
Cd141 Cd 0.74991 0.20741 0.3318 0.0
Cd142 Cd 0.80491 0.2578 0.3353 0.0
O143 O 0.80415 0.25241 0.31145 0.0
O144 O 0.69954 0.18907 0.3345 0.0
O145 O 0.71682 0.24453 0.34127 0.0
C146 C 0.69136 0.22055 0.34006 0.0
C147 C 0.82081 0.3158 0.34417 0.0
C148 C 0.78519 0.23227 0.30264 0.0
C149 C 0.81476 0.18389 0.35012 0.0
O150 O 0.82707 0.21564 0.34784 0.0
O151 O 0.78391 0.17477 0.3448 0.0
O152 O 0.84344 0.29528 0.33697 0.0
O153 O 0.78848 0.30351 0.3465 0.0
O154 O 0.8594 0.78533 0.81128 0.0
Cd155 Cd 0.87034 0.78249 0.83484 0.0
Cd156 Cd 0.8188 0.72961 0.8337 0.0
O157 O 0.83276 0.73178 0.81044 0.0
O158 O 0.91957 0.80299 0.83857 0.0
O159 O 0.90586 0.74503 0.84225 0.0
C160 C 0.9298 0.77068 0.84236 0.0
C161 C 0.79991 0.67295 0.84322 0.0
C162 C 0.84587 0.75928 0.80354 0.0
C163 C 0.80088 0.80153 0.84928 0.0
O164 O 0.78945 0.77266 0.84283 0.0
O165 O 0.83447 0.80912 0.84912 0.0
O166 O 0.78118 0.69085 0.83319 0.0
O167 O 0.83028 0.68682 0.84776 0.0
O168 O 0.5192 0.54889 0.05647 0.0
Cd169 Cd 0.51873 0.56243 0.07972 0.0
Cd170 Cd 0.5717 0.51027 0.08209 0.0
O171 O 0.56999 0.5174 0.05821 0.0
O172 O 0.50069 0.61295 0.08225 0.0
O173 O 0.55712 0.59617 0.08768 0.0
C174 C 0.53292 0.62151 0.08684 0.0
C175 C 0.62836 0.49287 0.0921 0.0
C176 C 0.54481 0.53133 0.05007 0.0
C177 C 0.49753 0.49646 0.09685 0.0
O178 O 0.52837 0.48423 0.09276 0.0
O179 O 0.48867 0.52894 0.09374 0.0
O180 O 0.60969 0.472 0.0832 0.0
O181 O 0.61515 0.5244 0.09534 0.0
O182 O 0.08912 0.45865 0.55776 0.0
Cd183 Cd 0.09138 0.44827 0.58142 0.0
Cd184 Cd 0.04152 0.50508 0.58281 0.0
O185 O 0.0451 0.49915 0.55911 0.0
O186 O 0.11127 0.39843 0.58418 0.0
O187 O 0.05479 0.41349 0.59026 0.0
C188 C 0.0797 0.38892 0.58923 0.0
C189 C 0.98505 0.52414 0.59247 0.0
C190 C 0.06724 0.4804 0.55114 0.0
C191 C 0.11566 0.51567 0.59754 0.0
O192 O 0.08538 0.52904 0.59342 0.0
O193 O 0.12302 0.48261 0.59478 0.0
O194 O 0.00482 0.54463 0.58383 0.0
O195 O 0.99703 0.49209 0.59565 0.0
O196 O 0.52006 0.44994 0.92901 0.0
Cd197 Cd 0.52238 0.43967 0.90538 0.0
Cd198 Cd 0.57598 0.48922 0.90647 0.0
O199 O 0.57465 0.47434 0.92962 0.0
O200 O 0.50371 0.38997 0.90119 0.0
O201 O 0.56117 0.40608 0.89772 0.0
C202 C 0.53645 0.38117 0.8974 0.0
C203 C 0.63257 0.50714 0.89655 0.0
C204 C 0.54689 0.46218 0.93666 0.0
C205 C 0.50386 0.50963 0.89165 0.0
O206 O 0.53317 0.52004 0.89806 0.0
O207 O 0.49565 0.47619 0.89144 0.0
O208 O 0.61568 0.52583 0.9069 0.0
O209 O 0.61771 0.47735 0.89189 0.0
O210 O 0.0913 0.54403 0.42873 0.0
Cd211 Cd 0.09286 0.55428 0.40506 0.0
Cd212 Cd 0.04108 0.50005 0.40366 0.0
O213 O 0.04633 0.50463 0.42736 0.0
O214 O 0.11308 0.60385 0.40192 0.0
O215 O 0.05612 0.58914 0.39649 0.0
C216 C 0.0813 0.61352 0.39718 0.0
C217 C 0.98308 0.48435 0.39474 0.0
C218 C 0.06911 0.52256 0.43534 0.0
C219 C 0.11364 0.48657 0.38815 0.0
O220 O 0.08283 0.47438 0.39223 0.0
O221 O 0.12268 0.51898 0.39139 0.0
O222 O 0.0024 0.46255 0.40295 0.0
O223 O 0.99647 0.51583 0.39153 0.0
H224 H 0.98641 0.17161 0.59787 0.0
H225 H 0.09948 0.15632 0.58679 0.0
H226 H 0.99679 0.23626 0.60145 0.0
H227 H 0.10969 0.2212 0.58907 0.0
H228 H 0.12672 0.33776 0.59997 0.0
H229 H 0.11581 0.27305 0.60312 0.0
H230 H 0.00498 0.28837 0.58775 0.0
H231 H 0.01553 0.35327 0.58589 0.0
C232 C 0.01354 0.18222 0.59619 0.0
C233 C 0.04214 0.15905 0.59203 0.0
C234 C 0.01951 0.21943 0.59807 0.0
C235 C 0.05404 0.23459 0.59535 0.0
C236 C 0.08283 0.21093 0.59158 0.0
C237 C 0.07701 0.17357 0.59015 0.0
C238 C 0.09988 0.32719 0.59755 0.0
C239 C 0.07197 0.35043 0.59267 0.0
C240 C 0.09364 0.28996 0.59918 0.0
C241 C 0.05959 0.27485 0.59548 0.0
C242 C 0.03142 0.29859 0.59101 0.0
C243 C 0.03744 0.33596 0.58983 0.0
H244 H 0.98043 0.81767 0.85365 0.0
H245 H 0.96627 0.70705 0.83846 0.0
H246 H 0.04514 0.80714 0.857 0.0
H247 H 0.0312 0.69693 0.84067 0.0
H248 H 0.14746 0.67878 0.85211 0.0
H249 H 0.08259 0.68879 0.85521 0.0
H250 H 0.09743 0.80167 0.84281 0.0
H251 H 0.16245 0.79185 0.84086 0.0
C252 C 0.99127 0.79104 0.85103 0.0
C253 C 0.96838 0.7632 0.84576 0.0
C254 C 0.0285 0.78503 0.85279 0.0
C255 C 0.04395 0.75126 0.84892 0.0
C256 C 0.02062 0.72314 0.84405 0.0
C257 C 0.98326 0.72894 0.84267 0.0
C258 C 0.13678 0.70584 0.85032 0.0
C259 C 0.15994 0.73452 0.84621 0.0
C260 C 0.09947 0.71158 0.85193 0.0
C261 C 0.08422 0.74598 0.84905 0.0
C262 C 0.10782 0.77489 0.84539 0.0
C263 C 0.14525 0.76929 0.84417 0.0
H264 H 0.48768 0.67459 0.09726 0.0
H265 H 0.59861 0.65462 0.08377 0.0
H266 H 0.50129 0.73868 0.10075 0.0
H267 H 0.61192 0.71897 0.08605 0.0
H268 H 0.63508 0.83432 0.09768 0.0
H269 H 0.62162 0.77 0.10055 0.0
H270 H 0.51052 0.79055 0.08679 0.0
H271 H 0.5237 0.85498 0.08512 0.0
C272 C 0.51503 0.68404 0.09502 0.0
C273 C 0.54208 0.65972 0.09021 0.0
C274 C 0.52283 0.72091 0.09686 0.0
C275 C 0.55766 0.73458 0.09349 0.0
C276 C 0.58492 0.70979 0.08905 0.0
C277 C 0.5773 0.67276 0.08762 0.0
C278 C 0.60766 0.825 0.09555 0.0
C279 C 0.58044 0.84958 0.09116 0.0
C280 C 0.59994 0.78801 0.09702 0.0
C281 C 0.56501 0.77452 0.09371 0.0
C282 C 0.5376 0.79956 0.08973 0.0
C283 C 0.54514 0.83666 0.08867 0.0
H284 H 0.65811 0.28637 0.33851 0.0
H285 H 0.6389 0.17419 0.35017 0.0
H286 H 0.59372 0.29906 0.34115 0.0
H287 H 0.57478 0.18707 0.35406 0.0
H288 H 0.45892 0.20972 0.33776 0.0
H289 H 0.52327 0.19687 0.34 0.0
H290 H 0.54213 0.30706 0.35547 0.0
H291 H 0.47791 0.32028 0.35202 0.0
C292 C 0.64013 0.26464 0.34207 0.0
C293 C 0.65336 0.22927 0.34399 0.0
C294 C 0.60308 0.27189 0.34371 0.0
C295 C 0.57848 0.24406 0.3477 0.0
C296 C 0.5924 0.20907 0.35052 0.0
C297 C 0.62928 0.20167 0.34845 0.0
C298 C 0.47683 0.231 0.34183 0.0
C299 C 0.46352 0.26604 0.34459 0.0
C300 C 0.51389 0.22364 0.34323 0.0
C301 C 0.53847 0.25096 0.34781 0.0
C302 C 0.52451 0.28551 0.35147 0.0
C303 C 0.48757 0.29307 0.34966 0.0
H304 H 0.10172 0.84586 0.40005 0.0
H305 H 0.98842 0.83096 0.38934 0.0
H306 H 0.11182 0.78103 0.39735 0.0
H307 H 0.99867 0.76642 0.38535 0.0
H308 H 0.01733 0.64933 0.40079 0.0
H309 H 0.00695 0.71423 0.39898 0.0
H310 H 0.11747 0.7293 0.38312 0.0
H311 H 0.12826 0.66455 0.38619 0.0
C312 C 0.07918 0.82872 0.39667 0.0
C313 C 0.04427 0.84329 0.39503 0.0
C314 C 0.08493 0.79141 0.39501 0.0
C315 C 0.05602 0.76788 0.39125 0.0
C316 C 0.02147 0.78314 0.38872 0.0
C317 C 0.01558 0.82028 0.39083 0.0
C318 C 0.03921 0.66657 0.39674 0.0
C319 C 0.07364 0.65201 0.39374 0.0
C320 C 0.03328 0.70395 0.3956 0.0
C321 C 0.06142 0.72761 0.39101 0.0
C322 C 0.09534 0.71244 0.38714 0.0
C323 C 0.1015 0.67518 0.38873 0.0
H324 H 0.48432 0.67922 0.65614 0.0
H325 H 0.45525 0.78608 0.63964 0.0
H326 H 0.54819 0.69473 0.65407 0.0
H327 H 0.51944 0.80134 0.63713 0.0
H328 H 0.63162 0.82991 0.65792 0.0
H329 H 0.56804 0.81418 0.65483 0.0
H330 H 0.59866 0.70851 0.63746 0.0
H331 H 0.66255 0.72399 0.64099 0.0
C332 C 0.49156 0.70584 0.65179 0.0
C333 C 0.46465 0.73153 0.6482 0.0
C334 C 0.5283 0.71468 0.6505 0.0
C335 C 0.53909 0.7494 0.64552 0.0
C336 C 0.51212 0.77456 0.64125 0.0
C337 C 0.47531 0.76574 0.6426 0.0
C338 C 0.62487 0.80342 0.6533 0.0
C339 C 0.65219 0.77809 0.64983 0.0
C340 C 0.58831 0.79448 0.65141 0.0
C341 C 0.5781 0.76001 0.64594 0.0
C342 C 0.60551 0.73512 0.64192 0.0
C343 C 0.64215 0.74404 0.64387 0.0
H344 H 0.49156 0.32877 0.886 0.0
H345 H 0.60166 0.34746 0.90099 0.0
H346 H 0.50481 0.26459 0.8825 0.0
H347 H 0.61453 0.28306 0.89861 0.0
H348 H 0.63733 0.16766 0.88717 0.0
H349 H 0.62458 0.23204 0.88399 0.0
H350 H 0.51264 0.21268 0.8968 0.0
H351 H 0.52517 0.14818 0.89885 0.0
C352 C 0.51866 0.31905 0.88853 0.0
C353 C 0.54555 0.34304 0.8938 0.0
C354 C 0.52624 0.28213 0.88668 0.0
C355 C 0.56068 0.2681 0.89046 0.0
C356 C 0.58785 0.29256 0.8953 0.0
C357 C 0.58047 0.32961 0.89678 0.0
C358 C 0.60989 0.17724 0.88903 0.0
C359 C 0.58226 0.15296 0.8933 0.0
C360 C 0.60257 0.21426 0.88737 0.0
C361 C 0.56762 0.22809 0.89034 0.0
C362 C 0.53977 0.20337 0.89414 0.0
C363 C 0.54695 0.16624 0.89542 0.0
H364 H 0.14203 0.32859 0.1412 0.0
H365 H 0.15851 0.21573 0.15238 0.0
H366 H 0.07746 0.31754 0.13772 0.0
H367 H 0.0937 0.20486 0.15016 0.0
H368 H 0.97741 0.18661 0.13881 0.0
H369 H 0.04207 0.1982 0.13592 0.0
H370 H 0.02536 0.30872 0.15141 0.0
H371 H 0.96054 0.2975 0.15304 0.0
C372 C 0.1317 0.30137 0.14294 0.0
C373 C 0.15519 0.27302 0.14708 0.0
C374 C 0.09454 0.29502 0.1411 0.0
C375 C 0.07975 0.26033 0.14385 0.0
C376 C 0.10371 0.23182 0.14764 0.0
C377 C 0.14101 0.23802 0.14904 0.0
C378 C 0.98766 0.21353 0.14131 0.0
C379 C 0.96403 0.24116 0.14616 0.0
C380 C 0.02486 0.22016 0.13984 0.0
C381 C 0.03955 0.25433 0.14364 0.0
C382 C 0.01545 0.28221 0.14808 0.0
C383 C 0.97813 0.2758 0.14913 0.0
H384 H 0.02881 0.93051 0.45971 0.0
H385 H 0.08135 0.0337 0.45165 0.0
H386 H 0.02801 0.94299 0.48775 0.0
H387 H 0.08006 0.04615 0.47957 0.0
H388 H 0.02757 0.06939 0.52816 0.0
H389 H 0.02884 0.05664 0.50014 0.0
H390 H 0.07712 0.95212 0.50927 0.0
H391 H 0.07633 0.96481 0.53717 0.0
C392 C 0.04024 0.95575 0.46391 0.0
C393 C 0.05523 0.98106 0.45349 0.0
C394 C 0.03983 0.96283 0.47992 0.0
C395 C 0.05382 0.9956 0.48574 0.0
C396 C 0.06882 0.02085 0.47534 0.0
C397 C 0.06978 0.01354 0.45939 0.0
C398 C 0.03849 0.04375 0.52418 0.0
C399 C 0.05194 0.01817 0.53486 0.0
C400 C 0.03932 0.03653 0.50818 0.0
C401 C 0.053 0.00338 0.50263 0.0
C402 C 0.06619 0.97775 0.51329 0.0
C403 C 0.06594 0.98517 0.52924 0.0
H404 H 0.24457 0.71355 0.78207 0.0
H405 H 0.34781 0.76698 0.78873 0.0
H406 H 0.25591 0.71149 0.75388 0.0
H407 H 0.35921 0.76418 0.76075 0.0
H408 H 0.37895 0.71143 0.7118 0.0
H409 H 0.36742 0.71055 0.73997 0.0
H410 H 0.26483 0.76421 0.7326 0.0
H411 H 0.27643 0.76583 0.7046 0.0
C412 C 0.26963 0.72471 0.77753 0.0
C413 C 0.29518 0.74063 0.78756 0.0
C414 C 0.27607 0.72356 0.76146 0.0
C415 C 0.30849 0.73754 0.75527 0.0
C416 C 0.33418 0.75298 0.76531 0.0
C417 C 0.32745 0.75481 0.78128 0.0
C418 C 0.35401 0.72307 0.71622 0.0
C419 C 0.32872 0.73891 0.70604 0.0
C420 C 0.34745 0.72257 0.73228 0.0
C421 C 0.31518 0.73716 0.73832 0.0
C422 C 0.28974 0.75254 0.72815 0.0
C423 C 0.29659 0.75372 0.71217 0.0
H424 H 0.5205 0.00489 0.03306 0.0
H425 H 0.62832 0.95969 0.029 0.0
H426 H 0.52102 0.01978 0.00548 0.0
H427 H 0.6285 0.97424 0.00117 0.0
H428 H 0.62943 0.04362 0.95628 0.0
H429 H 0.6295 0.02943 0.98415 0.0
H430 H 0.52004 0.98858 0.98035 0.0
H431 H 0.51965 0.00312 0.95274 0.0
C432 C 0.54421 0.99778 0.02625 0.0
C433 C 0.57439 0.98107 0.03324 0.0
C434 C 0.54444 0.00627 0.01042 0.0
C435 C 0.57484 0.99831 0.00119 0.0
C436 C 0.60487 0.98112 0.00807 0.0
C437 C 0.60461 0.97245 0.02396 0.0
C438 C 0.60527 0.03199 0.96145 0.0
C439 C 0.57454 0.02454 0.95229 0.0
C440 C 0.60546 0.02353 0.97735 0.0
C441 C 0.57485 0.00771 0.98439 0.0
C442 C 0.54393 1.00101 0.97529 0.0
C443 C 0.54377 0.00929 0.95944 0.0
H444 H 0.32729 0.21252 0.20204 0.0
H445 H 0.26901 0.31307 0.20881 0.0
H446 H 0.34417 0.21222 0.22946 0.0
H447 H 0.28579 0.31247 0.23638 0.0
H448 H 0.35512 0.31748 0.28086 0.0
H449 H 0.3422 0.31824 0.25288 0.0
H450 H 0.31299 0.20487 0.25485 0.0
H451 H 0.32605 0.20394 0.28265 0.0
C452 C 0.31788 0.23447 0.20939 0.0
C453 C 0.29671 0.2628 0.20324 0.0
C454 C 0.32755 0.23424 0.2251 0.0
C455 C 0.31643 0.26239 0.23502 0.0
C456 C 0.29512 0.29066 0.22894 0.0
C457 C 0.28521 0.29079 0.2132 0.0
C458 C 0.34647 0.29261 0.27526 0.0
C459 C 0.34152 0.26067 0.28397 0.0
C460 C 0.33873 0.29316 0.2593 0.0
C461 C 0.32633 0.26169 0.25175 0.0
C462 C 0.32269 0.22948 0.26035 0.0
C463 C 0.3301 0.229 0.27628 0.0
H464 H 0.8774 0.21168 0.20944 0.0
H465 H 0.7774 0.2715 0.20375 0.0
H466 H 0.86556 0.20695 0.23751 0.0
H467 H 0.76555 0.2662 0.23161 0.0
H468 H 0.7403 0.21046 0.279 0.0
H469 H 0.75298 0.21205 0.25095 0.0
H470 H 0.85971 0.25505 0.2602 0.0
H471 H 0.84706 0.25406 0.28813 0.0
C472 C 0.85299 0.22378 0.21416 0.0
C473 C 0.82844 0.2421 0.20441 0.0
C474 C 0.84625 0.22109 0.23017 0.0
C475 C 0.81454 0.23602 0.23661 0.0
C476 C 0.78998 0.25415 0.22687 0.0
C477 C 0.79699 0.25742 0.21096 0.0
C478 C 0.76646 0.22016 0.27503 0.0
C479 C 0.79258 0.23235 0.28573 0.0
C480 C 0.77366 0.22113 0.25903 0.0
C481 C 0.80733 0.23361 0.25351 0.0
C482 C 0.83367 0.24507 0.26421 0.0
C483 C 0.82627 0.24474 0.28015 0.0
H484 H 0.80058 0.82684 0.70778 0.0
H485 H 0.78031 0.71172 0.70895 0.0
H486 H 0.82016 0.82518 0.73482 0.0
H487 H 0.79643 0.71009 0.73645 0.0
H488 H 0.85614 0.70705 0.78164 0.0
H489 H 0.84208 0.71061 0.75396 0.0
H490 H 0.80583 0.82145 0.76028 0.0
H491 H 0.82334 0.81842 0.78754 0.0
C492 C 0.79942 0.80133 0.71404 0.0
C493 C 0.78891 0.76943 0.70639 0.0
C494 C 0.81051 0.80028 0.72961 0.0
C495 C 0.8102 0.76743 0.73804 0.0
C496 C 0.79829 0.73575 0.73037 0.0
C497 C 0.78844 0.73665 0.71465 0.0
C498 C 0.84587 0.73231 0.77692 0.0
C499 C 0.84109 0.76254 0.78659 0.0
C500 C 0.83718 0.7343 0.76109 0.0
C501 C 0.82212 0.76618 0.7547 0.0
C502 C 0.81793 0.79659 0.7645 0.0
C503 C 0.82785 0.79493 0.7802 0.0
H504 H 0.48891 0.48633 0.95302 0.0
H505 H 0.59959 0.4506 0.95821 0.0
H506 H 0.48771 0.50501 0.98018 0.0
H507 H 0.5978 0.46597 0.98579 0.0
H508 H 0.6014 0.53101 0.0298 0.0
H509 H 0.60061 0.51335 0.00249 0.0
H510 H 0.48527 0.49212 0.00591 0.0
H511 H 0.48604 0.51309 0.03278 0.0
C512 C 0.5126 0.48139 0.96019 0.0
C513 C 0.54432 0.46706 0.95362 0.0
C514 C 0.51199 0.49202 0.97582 0.0
C515 C 0.54282 0.48753 0.98535 0.0
C516 C 0.57389 0.47117 0.97883 0.0
C517 C 0.57484 0.46172 0.96307 0.0
C518 C 0.57587 0.52313 0.02454 0.0
C519 C 0.54375 0.52369 0.03326 0.0
C520 C 0.57539 0.51239 0.00893 0.0
C521 C 0.54294 0.50061 0.00185 0.0
C522 C 0.51073 0.50153 0.0107 0.0
C523 C 0.51107 0.51347 0.02616 0.0
H524 H 0.04298 0.53889 0.53491 0.0
H525 H 0.09527 0.43486 0.52894 0.0
H526 H 0.04619 0.54934 0.50687 0.0
H527 H 0.09783 0.44528 0.50071 0.0
H528 H 0.04433 0.46394 0.45131 0.0
H529 H 0.0464 0.4533 0.47935 0.0
H530 H 0.09882 0.55684 0.48595 0.0
H531 H 0.09741 0.56744 0.45771 0.0
C532 C 0.055 0.51817 0.5276 0.0
C533 C 0.06872 0.48593 0.5341 0.0
C534 C 0.0571 0.52435 0.51159 0.0
C535 C 0.07237 0.49818 0.50173 0.0
C536 C 0.08591 0.46583 0.50815 0.0
C537 C 0.08445 0.4599 0.52424 0.0
C538 C 0.05634 0.48448 0.45872 0.0
C539 C 0.07054 0.51665 0.45234 0.0
C540 C 0.05776 0.47819 0.47473 0.0
C541 C 0.07283 0.50421 0.48472 0.0
C542 C 0.08701 0.53643 0.47842 0.0
C543 C 0.08624 0.54245 0.46232 0.0
H544 H 0.31756 0.85264 0.61946 0.0
H545 H 0.2455 0.86616 0.65872 0.0
H546 H 0.28662 0.90243 0.6059 0.0
H547 H 0.21503 0.91577 0.64535 0.0
H548 H 0.16805 0.00947 0.61987 0.0
H549 H 0.21848 0.97834 0.63291 0.0
H550 H 0.222 0.89982 0.59559 0.0
H551 H 0.17178 0.93048 0.58275 0.0
C552 C 0.2959 0.86697 0.62536 0.0
C553 C 0.28355 0.85531 0.64002 0.0
C554 C 0.27816 0.89534 0.61761 0.0
C555 C 0.24832 0.91285 0.62455 0.0
C556 C 0.23812 0.90308 0.63976 0.0
C557 C 0.25537 0.87444 0.64736 0.0
C558 C 0.18033 0.98614 0.61429 0.0
C559 C 0.16577 0.97204 0.60044 0.0
C560 C 0.20907 0.96832 0.62175 0.0
C561 C 0.22406 0.9366 0.61528 0.0
C562 C 0.21131 0.92438 0.60078 0.0
C563 C 0.1823 0.94175 0.5935 0.0
H564 H 0.34341 0.88774 0.83055 0.0
H565 H 0.32942 0.84324 0.8766 0.0
H566 H 0.37383 0.94061 0.8415 0.0
H567 H 0.36272 0.89383 0.88763 0.0
H568 H 0.42818 0.98101 0.90676 0.0
H569 H 0.37594 0.95079 0.89517 0.0
H570 H 0.42998 0.95312 0.85028 0.0
H571 H 0.48004 0.98629 0.86181 0.0
C572 C 0.34641 0.88978 0.84309 0.0
C573 C 0.33415 0.86176 0.8528 0.0
C574 C 0.36437 0.91976 0.8494 0.0
C575 C 0.37193 0.92148 0.86549 0.0
C576 C 0.35733 0.89423 0.87524 0.0
C577 C 0.33825 0.86493 0.86895 0.0
C578 C 0.42793 0.97615 0.8943 0.0
C579 C 0.45781 0.98589 0.88511 0.0
C580 C 0.39829 0.95829 0.88764 0.0
C581 C 0.39872 0.94829 0.87178 0.0
C582 C 0.42791 0.96043 0.86246 0.0
C583 C 0.45692 0.97943 0.86904 0.0
H584 H 0.46063 0.99596 0.11982 0.0
H585 H 0.44751 0.06616 0.0799 0.0
H586 H 0.41085 0.02765 0.13303 0.0
H587 H 0.39802 0.09747 0.09296 0.0
H588 H 0.30411 0.14585 0.11792 0.0
H589 H 0.33563 0.09527 0.10518 0.0
H590 H 0.41284 0.09203 0.14301 0.0
H591 H 0.38174 0.1423 0.15557 0.0
C592 C 0.44645 0.01742 0.11371 0.0
C593 C 0.45821 0.02899 0.09895 0.0
C594 C 0.41808 0.0356 0.12127 0.0
C595 C 0.40069 0.06516 0.11405 0.0
C596 C 0.4106 0.07462 0.09877 0.0
C597 C 0.4392 0.05689 0.09135 0.0
C598 C 0.32725 0.13362 0.12366 0.0
C599 C 0.34083 0.14824 0.1376 0.0
C600 C 0.34531 0.1048 0.11637 0.0
C601 C 0.37678 0.08981 0.12307 0.0
C602 C 0.3885 0.1027 0.13762 0.0
C603 C 0.37087 0.13175 0.14475 0.0
H604 H 0.13953 0.02442 0.36174 0.0
H605 H 0.19676 0.02625 0.40548 0.0
H606 H 0.18817 0.05846 0.34952 0.0
H607 H 0.24749 0.05774 0.39313 0.0
H608 H 0.29579 0.16405 0.37371 0.0
H609 H 0.26111 0.11501 0.38542 0.0
H610 H 0.24401 0.06852 0.33962 0.0
H611 H 0.27592 0.11971 0.32804 0.0
C612 C 0.16349 0.03081 0.36853 0.0
C613 C 0.16472 0.02275 0.38445 0.0
C614 C 0.19166 0.05029 0.36154 0.0
C615 C 0.22207 0.06153 0.3703 0.0
C616 C 0.22427 0.05067 0.38604 0.0
C617 C 0.19553 0.0321 0.39311 0.0
C618 C 0.28518 0.14283 0.36625 0.0
C619 C 0.2881 0.14566 0.35002 0.0
C620 C 0.26533 0.11444 0.37294 0.0
C621 C 0.24882 0.08773 0.36351 0.0
C622 C 0.25495 0.08907 0.34729 0.0
C623 C 0.27369 0.11813 0.34062 0.0
H624 H 0.00901 0.07107 0.37543 0.0
H625 H 0.9265 0.99541 0.39043 0.0
H626 H 0.9623 0.11234 0.36628 0.0
H627 H 0.8795 0.0374 0.38168 0.0
H628 H 0.80788 0.10988 0.34975 0.0
H629 H 0.8517 0.06534 0.35918 0.0
H630 H 0.91823 0.15204 0.37741 0.0
H631 H 0.87519 0.19639 0.36758 0.0
C632 C 0.98086 0.06321 0.37676 0.0
C633 C 0.97149 0.03003 0.38373 0.0
C634 C 0.95403 0.08705 0.37164 0.0
C635 C 0.9171 0.07851 0.3735 0.0
C636 C 0.90768 0.04478 0.38001 0.0
C637 C 0.93462 0.02072 0.38504 0.0
C638 C 0.83165 0.11935 0.35595 0.0
C639 C 0.83825 0.15668 0.35778 0.0
C640 C 0.85676 0.09382 0.36137 0.0
C641 C 0.88882 0.10513 0.36881 0.0
C642 C 0.89435 0.1424 0.37134 0.0
C643 C 0.86949 0.16786 0.36582 0.0
H644 H 0.68714 1.00052 0.11144 0.0
H645 H 0.6186 0.08842 0.09585 0.0
H646 H 0.73026 0.04449 0.12199 0.0
H647 H 0.66207 0.13204 0.10567 0.0
H648 H 0.72492 0.20107 0.13933 0.0
H649 H 0.68353 0.15599 0.12914 0.0
H650 H 0.77438 0.08939 0.11513 0.0
H651 H 0.81612 0.13422 0.12605 0.0
C652 C 0.68133 0.02919 0.11023 0.0
C653 C 0.64928 0.04095 0.10295 0.0
C654 C 0.70619 0.0544 0.11615 0.0
C655 C 0.69965 0.09189 0.11475 0.0
C656 C 0.66771 0.10346 0.1073 0.0
C657 C 0.64276 0.07836 0.10159 0.0
C658 C 0.73621 0.17695 0.13399 0.0
C659 C 0.77389 0.17136 0.13344 0.0
C660 C 0.71238 0.15107 0.12807 0.0
C661 C 0.72551 0.11905 0.1212 0.0
C662 C 0.76327 0.11351 0.12052 0.0
C663 C 0.78722 0.13933 0.12665 0.0
H664 H 0.72701 0.79937 0.8473 0.0
H665 H 0.81512 0.863 0.86617 0.0
H666 H 0.68381 0.84434 0.85643 0.0
H667 H 0.77167 0.9075 0.87582 0.0
H668 H 0.61339 0.91301 0.88835 0.0
H669 H 0.65677 0.86815 0.8793 0.0
H670 H 0.73134 0.95383 0.86674 0.0
H671 H 0.68829 0.99881 0.87634 0.0
C672 C 0.73715 0.82272 0.8536 0.0
C673 C 0.77456 0.82757 0.85599 0.0
C674 C 0.71231 0.84851 0.85889 0.0
C675 C 0.7242 0.87967 0.86684 0.0
C676 C 0.76159 0.88418 0.86949 0.0
C677 C 0.78649 0.85848 0.86409 0.0
C678 C 0.63894 0.92237 0.88358 0.0
C679 C 0.64734 0.95955 0.88308 0.0
C680 C 0.66382 0.89658 0.87833 0.0
C681 C 0.69764 0.90729 0.8723 0.0
C682 C 0.70582 0.94455 0.87156 0.0
C683 C 0.681 0.97038 0.87693 0.0
H684 H 0.88023 0.80772 0.62892 0.0
H685 H 0.80746 0.89511 0.64107 0.0
H686 H 0.92336 0.85135 0.61853 0.0
H687 H 0.8513 0.93903 0.6312 0.0
H688 H 0.92558 0.00448 0.59825 0.0
H689 H 0.87991 0.96284 0.60845 0.0
H690 H 0.96485 0.89544 0.62765 0.0
H691 H 0.01031 0.93623 0.61696 0.0
C692 C 0.87345 0.83629 0.62939 0.0
C693 C 0.84046 0.84793 0.63587 0.0
C694 C 0.89835 0.86139 0.62356 0.0
C695 C 0.89112 0.89883 0.62423 0.0
C696 C 0.85769 0.91043 0.63038 0.0
C697 C 0.83257 0.88524 0.63607 0.0
C698 C 0.93443 0.98095 0.60479 0.0
C699 C 0.97156 0.97351 0.6067 0.0
C700 C 0.90824 0.95707 0.61066 0.0
C701 C 0.91865 0.92545 0.61869 0.0
C702 C 0.95581 0.91896 0.62115 0.0
C703 C 0.98192 0.94255 0.61514 0.0
H704 H 0.73927 0.37116 0.15767 0.0
H705 H 0.81543 0.36268 0.11958 0.0
H706 H 0.70826 0.42041 0.1443 0.0
H707 H 0.78404 0.41218 0.10605 0.0
H708 H 0.6721 0.43999 0.08078 0.0
H709 H 0.7213 0.40927 0.09429 0.0
H710 H 0.71046 0.48359 0.13292 0.0
H711 H 0.66099 0.51469 0.11924 0.0
C712 C 0.74989 0.38044 0.14658 0.0
C713 C 0.77946 0.36281 0.13956 0.0
C714 C 0.73229 0.40889 0.13898 0.0
C715 C 0.74359 0.42003 0.12408 0.0
C716 C 0.77467 0.404 0.1175 0.0
C717 C 0.79268 0.37579 0.12524 0.0
C718 C 0.68078 0.45035 0.09199 0.0
C719 C 0.66245 0.47942 0.09905 0.0
C720 C 0.70921 0.43293 0.09968 0.0
C721 C 0.71962 0.4439 0.1147 0.0
C722 C 0.70285 0.47449 0.12137 0.0
C723 C 0.67466 0.49233 0.11353 0.0
H724 H 0.87379 0.35831 0.33222 0.0
H725 H 0.79591 0.35271 0.36975 0.0
H726 H 0.90284 0.41002 0.34461 0.0
H727 H 0.82543 0.40468 0.38236 0.0
H728 H 0.93828 0.43402 0.40731 0.0
H729 H 0.88817 0.40317 0.39449 0.0
H730 H 0.89916 0.47444 0.35478 0.0
H731 H 0.94949 0.50573 0.36778 0.0
C732 C 0.86236 0.36877 0.34296 0.0
C733 C 0.83295 0.35127 0.35016 0.0
C734 C 0.87879 0.39863 0.34998 0.0
C735 C 0.86651 0.41129 0.36449 0.0
C736 C 0.83548 0.39537 0.37118 0.0
C737 C 0.81857 0.36574 0.36398 0.0
C738 C 0.92932 0.4438 0.39603 0.0
C739 C 0.94803 0.47188 0.38842 0.0
C740 C 0.90038 0.42633 0.38874 0.0
C741 C 0.88991 0.43623 0.37359 0.0
C742 C 0.90682 0.46619 0.36645 0.0
C743 C 0.9355 0.48413 0.37388 0.0
H744 H 0.94375 0.57902 0.58116 0.0
H745 H 0.95024 0.50231 0.61912 0.0
H746 H 0.89468 0.61064 0.5944 0.0
H747 H 0.90096 0.53433 0.63253 0.0
H748 H 0.79941 0.65779 0.61918 0.0
H749 H 0.8309 0.60857 0.60548 0.0
H750 H 0.90439 0.59718 0.64437 0.0
H751 H 0.87335 0.64618 0.6579 0.0
C752 C 0.9341 0.56845 0.5922 0.0
C753 C 0.95108 0.53849 0.59921 0.0
C754 C 0.90575 0.5864 0.59972 0.0
C755 C 0.89409 0.57507 0.61454 0.0
C756 C 0.90955 0.54371 0.62113 0.0
C757 C 0.93763 0.52535 0.61346 0.0
C758 C 0.8217 0.64408 0.62493 0.0
C759 C 0.83426 0.65604 0.6395 0.0
C760 C 0.83976 0.61604 0.61708 0.0
C761 C 0.87018 0.59915 0.62384 0.0
C762 C 0.88085 0.60938 0.63892 0.0
C763 C 0.86325 0.63768 0.64661 0.0
H764 H 0.74603 0.63087 0.83144 0.0
H765 H 0.81978 0.63909 0.87039 0.0
H766 H 0.7137 0.58214 0.84454 0.0
H767 H 0.78729 0.58984 0.88357 0.0
H768 H 0.67673 0.5592 0.90843 0.0
H769 H 0.72559 0.59095 0.89515 0.0
H770 H 0.71375 0.51979 0.85548 0.0
H771 H 0.66438 0.48789 0.86884 0.0
C772 C 0.75584 0.62169 0.84268 0.0
C773 C 0.78514 0.63914 0.84999 0.0
C774 C 0.73746 0.59349 0.85013 0.0
C775 C 0.74777 0.58227 0.86514 0.0
C776 C 0.77855 0.59814 0.87205 0.0
C777 C 0.79723 0.62621 0.86449 0.0
C778 C 0.68503 0.54979 0.897 0.0
C779 C 0.6664 0.52138 0.88958 0.0
C780 C 0.71329 0.56781 0.88944 0.0
C781 C 0.7234 0.55806 0.87422 0.0
C782 C 0.70632 0.5281 0.86717 0.0
C783 C 0.67819 0.50976 0.87483 0.0
H784 H 0.44281 0.49809 0.87408 0.0
H785 H 0.50647 0.58299 0.89546 0.0
H786 H 0.39956 0.5433 0.86481 0.0
H787 H 0.46272 0.62783 0.88678 0.0
H788 H 0.31061 0.6291 0.86334 0.0
H789 H 0.3532 0.58409 0.87338 0.0
H790 H 0.44215 0.65744 0.86412 0.0
H791 H 0.39972 0.70265 0.85471 0.0
C792 C 0.44755 0.52637 0.87682 0.0
C793 C 0.47822 0.53693 0.88542 0.0
C794 C 0.42257 0.55227 0.87164 0.0
C795 C 0.42754 0.58927 0.87506 0.0
C796 C 0.45826 0.59971 0.88368 0.0
C797 C 0.48337 0.57392 0.88871 0.0
C798 C 0.33924 0.6357 0.86361 0.0
C799 C 0.35171 0.66952 0.85827 0.0
C800 C 0.3637 0.60977 0.86923 0.0
C801 C 0.40119 0.61702 0.86951 0.0
C802 C 0.41349 0.65105 0.86432 0.0
C803 C 0.38907 0.677 0.85886 0.0
H804 H 0.17869 0.49693 0.61272 0.0
H805 H 0.1153 0.58929 0.59788 0.0
H806 H 0.22408 0.53797 0.62379 0.0
H807 H 0.16091 0.62987 0.60817 0.0
H808 H 0.31424 0.62453 0.62859 0.0
H809 H 0.27071 0.58138 0.6176 0.0
H810 H 0.18256 0.651 0.63208 0.0
H811 H 0.22563 0.69433 0.64228 0.0
C812 C 0.17449 0.52592 0.61179 0.0
C813 C 0.14318 0.53983 0.6046 0.0
C814 C 0.20063 0.54945 0.61801 0.0
C815 C 0.19609 0.5873 0.61699 0.0
C816 C 0.16497 0.60096 0.60956 0.0
C817 C 0.13878 0.57759 0.60358 0.0
C818 C 0.28554 0.63059 0.62929 0.0
C819 C 0.27344 0.66306 0.63612 0.0
C820 C 0.26058 0.60576 0.62312 0.0
C821 C 0.22306 0.6128 0.62382 0.0
C822 C 0.21119 0.64502 0.63093 0.0
C823 C 0.23599 0.6699 0.63686 0.0
H824 H 0.10721 0.41352 0.3844 0.0
H825 H 0.17981 0.50311 0.37522 0.0
H826 H 0.15179 0.37152 0.37421 0.0
H827 H 0.22418 0.46092 0.36434 0.0
H828 H 0.31019 0.37094 0.36238 0.0
H829 H 0.26574 0.41454 0.37202 0.0
H830 H 0.17965 0.35141 0.35117 0.0
H831 H 0.22376 0.30729 0.34217 0.0
C832 C 0.1325 0.42437 0.37996 0.0
C833 C 0.13991 0.46174 0.38063 0.0
C834 C 0.15809 0.4002 0.37403 0.0
C835 C 0.19166 0.41273 0.36842 0.0
C836 C 0.19885 0.45023 0.36879 0.0
C837 C 0.17329 0.47447 0.37489 0.0
C838 C 0.28173 0.36634 0.35994 0.0
C839 C 0.27049 0.33549 0.35163 0.0
C840 C 0.25626 0.39151 0.36534 0.0
C841 C 0.21903 0.38655 0.3624 0.0
C842 C 0.20796 0.35582 0.35394 0.0
C843 C 0.23332 0.33051 0.34872 0.0
H844 H 0.51031 0.4308 0.11051 0.0
H845 H 0.42423 0.50592 0.09932 0.0
H846 H 0.46588 0.38791 0.12054 0.0
H847 H 0.37958 0.46241 0.1087 0.0
H848 H 0.31183 0.38857 0.14038 0.0
H849 H 0.35492 0.43345 0.13082 0.0
H850 H 0.42101 0.34756 0.11155 0.0
H851 H 0.37874 0.30275 0.12172 0.0
C852 C 0.48187 0.43814 0.1102 0.0
C853 C 0.47081 0.47173 0.10411 0.0
C854 C 0.45631 0.41339 0.1158 0.0
C855 C 0.419 0.4214 0.11525 0.0
C856 C 0.40804 0.45539 0.10947 0.0
C857 C 0.43367 0.48035 0.10405 0.0
C858 C 0.33539 0.37933 0.13396 0.0
C859 C 0.34198 0.3421 0.13188 0.0
C860 C 0.36011 0.40509 0.12845 0.0
C861 C 0.39176 0.39421 0.12055 0.0
C862 C 0.39749 0.35696 0.11794 0.0
C863 C 0.37305 0.33123 0.12363 0.0
loop_
_geom_bond_atom_site_label_1
_geom_bond_atom_site_label_2
_geom_bond_distance
_geom_bond_site_symmetry_2
_ccdc_geom_bond_type
O0 Cd1 2.223 . S
O0 C8 1.315 1_655 S
Cd1 O0 2.223 . S
Cd1 O4 2.297 1_655 S
Cd1 O5 2.439 1_655 S
Cd1 O11 2.240 1_655 S
Cd2 O3 2.240 1_565 S
Cd2 O10 2.223 . S
Cd2 O12 2.297 . S
Cd2 O13 2.439 1_565 S
O3 Cd2 2.240 1_545 S
O3 C8 1.279 . S
O4 Cd1 2.297 1_455 S
O4 C6 1.247 . S
O5 Cd1 2.439 1_455 S
O5 C6 1.208 . S
C6 O4 1.247 . S
C6 O5 1.208 . S
C7 O12 1.247 . S
C7 O13 1.208 1_565 S
C8 O0 1.315 1_455 S
C8 O3 1.279 . S
C9 O10 1.315 1_655 S
C9 O11 1.279 1_665 S
O10 Cd2 2.223 . S
O10 C9 1.315 1_455 S
O11 Cd1 2.240 1_455 S
O11 C9 1.279 1_445 S
O12 Cd2 2.297 . S
O12 C7 1.247 . S
O13 Cd2 2.439 1_545 S
O13 C7 1.208 1_545 S
O14 Cd15 2.223 . S
O14 C22 1.315 . S
Cd15 O14 2.223 . S
Cd15 O18 2.297 . S
Cd15 O19 2.439 . S
Cd15 O25 2.240 . S
Cd16 O17 2.240 . S
Cd16 O24 2.223 . S
Cd16 O26 2.297 . S
Cd16 O27 2.439 . S
O17 Cd16 2.240 . S
O17 C22 1.279 . S
O18 Cd15 2.297 . S
O18 C20 1.247 . S
O19 Cd15 2.439 . S
O19 C20 1.208 . S
C20 O18 1.247 . S
C20 O19 1.208 . S
C21 O26 1.247 . S
C21 O27 1.208 . S
C22 O14 1.315 . S
C22 O17 1.279 . S
C23 O24 1.315 . S
C23 O25 1.279 . S
O24 Cd16 2.223 . S
O24 C23 1.315 . S
O25 Cd15 2.240 . S
O25 C23 1.279 . S
O26 Cd16 2.297 . S
O26 C21 1.247 . S
O27 Cd16 2.439 . S
O27 C21 1.208 . S
O28 Cd29 2.223 . S
O28 C36 1.315 . S
Cd29 O28 2.223 . S
Cd29 O32 2.297 . S
Cd29 O33 2.439 . S
Cd29 O39 2.240 . S
Cd30 O31 2.240 1_545 S
Cd30 O38 2.223 . S
Cd30 O40 2.297 . S
Cd30 O41 2.439 1_545 S
O31 Cd30 2.240 1_565 S
O31 C36 1.279 . S
O32 Cd29 2.297 . S
O32 C34 1.247 . S
O33 Cd29 2.439 . S
O33 C34 1.208 . S
C34 O32 1.247 . S
C34 O33 1.208 . S
C35 O40 1.247 . S
C35 O41 1.208 1_545 S
C36 O28 1.315 . S
C36 O31 1.279 . S
C37 O38 1.315 . S
C37 O39 1.279 1_545 S
O38 Cd30 2.223 . S
O38 C37 1.315 . S
O39 Cd29 2.240 . S
O39 C37 1.279 1_565 S
O40 Cd30 2.297 . S
O40 C35 1.247 . S
O41 Cd30 2.439 1_565 S
O41 C35 1.208 1_565 S
O42 Cd43 2.223 . S
O42 C50 1.315 . S
Cd43 O42 2.223 . S
Cd43 O46 2.297 . S
Cd43 O47 2.439 . S
Cd43 O53 2.240 . S
Cd44 O45 2.240 . S
Cd44 O52 2.223 . S
Cd44 O54 2.297 . S
Cd44 O55 2.439 . S
O45 Cd44 2.240 . S
O45 C50 1.279 . S
O46 Cd43 2.297 . S
O46 C48 1.247 . S
O47 Cd43 2.439 . S
O47 C48 1.208 . S
C48 O46 1.247 . S
C48 O47 1.208 . S
C49 O54 1.247 . S
C49 O55 1.208 . S
C50 O42 1.315 . S
C50 O45 1.279 . S
C51 O52 1.315 . S
C51 O53 1.279 . S
O52 Cd44 2.223 . S
O52 C51 1.315 . S
O53 Cd43 2.240 . S
O53 C51 1.279 . S
O54 Cd44 2.297 . S
O54 C49 1.247 . S
O55 Cd44 2.439 . S
O55 C49 1.208 . S
O56 Cd57 2.223 . S
O56 C64 1.315 1_655 S
Cd57 O56 2.223 . S
Cd57 O60 2.297 1_655 S
Cd57 O61 2.439 1_655 S
Cd57 O67 2.240 1_655 S
Cd58 O59 2.240 1_545 S
Cd58 O66 2.223 . S
Cd58 O68 2.297 . S
Cd58 O69 2.439 1_545 S
O59 Cd58 2.240 1_565 S
O59 C64 1.279 . S
O60 Cd57 2.297 1_455 S
O60 C62 1.247 . S
O61 Cd57 2.439 1_455 S
O61 C62 1.208 . S
C62 O60 1.247 . S
C62 O61 1.208 . S
C63 O68 1.247 . S
C63 O69 1.208 1_545 S
C64 O56 1.315 1_455 S
C64 O59 1.279 . S
C65 O66 1.315 1_655 S
C65 O67 1.279 1_645 S
O66 Cd58 2.223 . S
O66 C65 1.315 1_455 S
O67 Cd57 2.240 1_455 S
O67 C65 1.279 1_465 S
O68 Cd58 2.297 . S
O68 C63 1.247 . S
O69 Cd58 2.439 1_565 S
O69 C63 1.208 1_565 S
O70 Cd71 2.223 . S
O70 C78 1.315 . S
Cd71 O70 2.223 . S
Cd71 O74 2.297 . S
Cd71 O75 2.439 . S
Cd71 O81 2.240 . S
Cd72 O73 2.240 . S
Cd72 O80 2.223 . S
Cd72 O82 2.297 . S
Cd72 O83 2.439 . S
O73 Cd72 2.240 . S
O73 C78 1.279 . S
O74 Cd71 2.297 . S
O74 C76 1.247 . S
O75 Cd71 2.439 . S
O75 C76 1.208 . S
C76 O74 1.247 . S
C76 O75 1.208 . S
C77 O82 1.247 . S
C77 O83 1.208 . S
C78 O70 1.315 . S
C78 O73 1.279 . S
C79 O80 1.315 . S
C79 O81 1.279 . S
O80 Cd72 2.223 . S
O80 C79 1.315 . S
O81 Cd71 2.240 . S
O81 C79 1.279 . S
O82 Cd72 2.297 . S
O82 C77 1.247 . S
O83 Cd72 2.439 . S
O83 C77 1.208 . S
O84 Cd85 2.223 . S
O84 C92 1.315 . S
Cd85 O84 2.223 . S
Cd85 O88 2.297 . S
Cd85 O89 2.439 . S
Cd85 O95 2.240 . S
Cd86 O87 2.240 1_565 S
Cd86 O94 2.223 . S
Cd86 O96 2.297 . S
Cd86 O97 2.439 1_565 S
O87 Cd86 2.240 1_545 S
O87 C92 1.279 . S
O88 Cd85 2.297 . S
O88 C90 1.247 . S
O89 Cd85 2.439 . S
O89 C90 1.208 . S
C90 O88 1.247 . S
C90 O89 1.208 . S
C91 O96 1.247 . S
C91 O97 1.208 1_565 S
C92 O84 1.315 . S
C92 O87 1.279 . S
C93 O94 1.315 . S
C93 O95 1.279 1_565 S
O94 Cd86 2.223 . S
O94 C93 1.315 . S
O95 Cd85 2.240 . S
O95 C93 1.279 1_545 S
O96 Cd86 2.297 . S
O96 C91 1.247 . S
O97 Cd86 2.439 1_545 S
O97 C91 1.208 1_545 S
O98 Cd99 2.223 . S
O98 C106 1.315 . S
Cd99 O98 2.223 . S
Cd99 O102 2.297 . S
Cd99 O103 2.439 . S
Cd99 O109 2.240 . S
Cd100 O101 2.240 . S
Cd100 O108 2.223 . S
Cd100 O110 2.297 . S
Cd100 O111 2.439 . S
O101 Cd100 2.240 . S
O101 C106 1.279 . S
O102 Cd99 2.297 . S
O102 C104 1.247 . S
O103 Cd99 2.439 . S
O103 C104 1.208 . S
C104 O102 1.247 . S
C104 O103 1.208 . S
C105 O110 1.247 . S
C105 O111 1.208 . S
C106 O98 1.315 . S
C106 O101 1.279 . S
C107 O108 1.315 . S
C107 O109 1.279 . S
O108 Cd100 2.223 . S
O108 C107 1.315 . S
O109 Cd99 2.240 . S
O109 C107 1.279 . S
O110 Cd100 2.297 . S
O110 C105 1.247 . S
O111 Cd100 2.439 . S
O111 C105 1.208 . S
O112 Cd113 2.223 . S
O112 C120 1.315 . S
Cd113 O112 2.223 . S
Cd113 O116 2.297 . S
Cd113 O117 2.439 . S
Cd113 O123 2.240 . S
Cd114 O115 2.240 . S
Cd114 O122 2.223 . S
Cd114 O124 2.297 . S
Cd114 O125 2.439 . S
O115 Cd114 2.240 . S
O115 C120 1.279 . S
O116 Cd113 2.297 . S
O116 C118 1.247 . S
O117 Cd113 2.439 . S
O117 C118 1.208 . S
C118 O116 1.247 . S
C118 O117 1.208 . S
C119 O124 1.247 . S
C119 O125 1.208 . S
C120 O112 1.315 . S
C120 O115 1.279 . S
C121 O122 1.315 . S
C121 O123 1.279 . S
O122 Cd114 2.223 . S
O122 C121 1.315 . S
O123 Cd113 2.240 . S
O123 C121 1.279 . S
O124 Cd114 2.297 . S
O124 C119 1.247 . S
O125 Cd114 2.439 . S
O125 C119 1.208 . S
O126 Cd127 2.223 . S
O126 C134 1.315 . S
Cd127 O126 2.223 . S
Cd127 O130 2.297 . S
Cd127 O131 2.439 . S
Cd127 O137 2.240 . S
Cd128 O129 2.240 . S
Cd128 O136 2.223 . S
Cd128 O138 2.297 . S
Cd128 O139 2.439 . S
O129 Cd128 2.240 . S
O129 C134 1.279 . S
O130 Cd127 2.297 . S
O130 C132 1.247 . S
O131 Cd127 2.439 . S
O131 C132 1.208 . S
C132 O130 1.247 . S
C132 O131 1.208 . S
C133 O138 1.247 . S
C133 O139 1.208 . S
C134 O126 1.315 . S
C134 O129 1.279 . S
C135 O136 1.315 . S
C135 O137 1.279 . S
O136 Cd128 2.223 . S
O136 C135 1.315 . S
O137 Cd127 2.240 . S
O137 C135 1.279 . S
O138 Cd128 2.297 . S
O138 C133 1.247 . S
O139 Cd128 2.439 . S
O139 C133 1.208 . S
O140 Cd141 2.223 . S
O140 C148 1.315 . S
Cd141 O140 2.223 . S
Cd141 O144 2.297 . S
Cd141 O145 2.439 . S
Cd141 O151 2.240 . S
Cd142 O143 2.240 . S
Cd142 O150 2.223 . S
Cd142 O152 2.297 . S
Cd142 O153 2.439 . S
O143 Cd142 2.240 . S
O143 C148 1.279 . S
O144 Cd141 2.297 . S
O144 C146 1.247 . S
O145 Cd141 2.439 . S
O145 C146 1.208 . S
C146 O144 1.247 . S
C146 O145 1.208 . S
C147 O152 1.247 . S
C147 O153 1.208 . S
C148 O140 1.315 . S
C148 O143 1.279 . S
C149 O150 1.315 . S
C149 O151 1.279 . S
O150 Cd142 2.223 . S
O150 C149 1.315 . S
O151 Cd141 2.240 . S
O151 C149 1.279 . S
O152 Cd142 2.297 . S
O152 C147 1.247 . S
O153 Cd142 2.439 . S
O153 C147 1.208 . S
O154 Cd155 2.223 . S
O154 C162 1.315 . S
Cd155 O154 2.223 . S
Cd155 O158 2.297 . S
Cd155 O159 2.439 . S
Cd155 O165 2.240 . S
Cd156 O157 2.240 . S
Cd156 O164 2.223 . S
Cd156 O166 2.297 . S
Cd156 O167 2.439 . S
O157 Cd156 2.240 . S
O157 C162 1.279 . S
O158 Cd155 2.297 . S
O158 C160 1.247 . S
O159 Cd155 2.439 . S
O159 C160 1.208 . S
C160 O158 1.247 . S
C160 O159 1.208 . S
C161 O166 1.247 . S
C161 O167 1.208 . S
C162 O154 1.315 . S
C162 O157 1.279 . S
C163 O164 1.315 . S
C163 O165 1.279 . S
O164 Cd156 2.223 . S
O164 C163 1.315 . S
O165 Cd155 2.240 . S
O165 C163 1.279 . S
O166 Cd156 2.297 . S
O166 C161 1.247 . S
O167 Cd156 2.439 . S
O167 C161 1.208 . S
O168 Cd169 2.223 . S
O168 C176 1.315 . S
Cd169 O168 2.223 . S
Cd169 O172 2.297 . S
Cd169 O173 2.439 . S
Cd169 O179 2.240 . S
Cd170 O171 2.240 . S
Cd170 O178 2.223 . S
Cd170 O180 2.297 . S
Cd170 O181 2.439 . S
O171 Cd170 2.240 . S
O171 C176 1.279 . S
O172 Cd169 2.297 . S
O172 C174 1.247 . S
O173 Cd169 2.439 . S
O173 C174 1.208 . S
C174 O172 1.247 . S
C174 O173 1.208 . S
C175 O180 1.247 . S
C175 O181 1.208 . S
C176 O168 1.315 . S
C176 O171 1.279 . S
C177 O178 1.315 . S
C177 O179 1.279 . S
O178 Cd170 2.223 . S
O178 C177 1.315 . S
O179 Cd169 2.240 . S
O179 C177 1.279 . S
O180 Cd170 2.297 . S
O180 C175 1.247 . S
O181 Cd170 2.439 . S
O181 C175 1.208 . S
O182 Cd183 2.223 . S
O182 C190 1.315 . S
Cd183 O182 2.223 . S
Cd183 O186 2.297 . S
Cd183 O187 2.439 . S
Cd183 O193 2.240 . S
Cd184 O185 2.240 . S
Cd184 O192 2.223 . S
Cd184 O194 2.297 . S
Cd184 O195 2.439 . S
O185 Cd184 2.240 . S
O185 C190 1.279 . S
O186 Cd183 2.297 . S
O186 C188 1.247 . S
O187 Cd183 2.439 . S
O187 C188 1.208 . S
C188 O186 1.247 . S
C188 O187 1.208 . S
C189 O194 1.247 . S
C189 O195 1.208 . S
C190 O182 1.315 . S
C190 O185 1.279 . S
C191 O192 1.315 . S
C191 O193 1.279 . S
O192 Cd184 2.223 . S
O192 C191 1.315 . S
O193 Cd183 2.240 . S
O193 C191 1.279 . S
O194 Cd184 2.297 . S
O194 C189 1.247 . S
O195 Cd184 2.439 . S
O195 C189 1.208 . S
O196 Cd197 2.223 . S
O196 C204 1.315 . S
Cd197 O196 2.223 . S
Cd197 O200 2.297 . S
Cd197 O201 2.439 . S
Cd197 O207 2.240 . S
Cd198 O199 2.240 . S
Cd198 O206 2.223 . S
Cd198 O208 2.297 . S
Cd198 O209 2.439 . S
O199 Cd198 2.240 . S
O199 C204 1.279 . S
O200 Cd197 2.297 . S
O200 C202 1.247 . S
O201 Cd197 2.439 . S
O201 C202 1.208 . S
C202 O200 1.247 . S
C202 O201 1.208 . S
C203 O208 1.247 . S
C203 O209 1.208 . S
C204 O196 1.315 . S
C204 O199 1.279 . S
C205 O206 1.315 . S
C205 O207 1.279 . S
O206 Cd198 2.223 . S
O206 C205 1.315 . S
O207 Cd197 2.240 . S
O207 C205 1.279 . S
O208 Cd198 2.297 . S
O208 C203 1.247 . S
O209 Cd198 2.439 . S
O209 C203 1.208 . S
O210 Cd211 2.223 . S
O210 C218 1.315 . S
Cd211 O210 2.223 . S
Cd211 O214 2.297 . S
Cd211 O215 2.439 . S
Cd211 O221 2.240 . S
Cd212 O213 2.240 . S
Cd212 O220 2.223 . S
Cd212 O222 2.297 . S
Cd212 O223 2.439 . S
O213 Cd212 2.240 . S
O213 C218 1.279 . S
O214 Cd211 2.297 . S
O214 C216 1.247 . S
O215 Cd211 2.439 . S
O215 C216 1.208 . S
C216 O214 1.247 . S
C216 O215 1.208 . S
C217 O222 1.247 . S
C217 O223 1.208 . S
C218 O210 1.315 . S
C218 O213 1.279 . S
C219 O220 1.315 . S
C219 O221 1.279 . S
O220 Cd212 2.223 . S
O220 C219 1.315 . S
O221 Cd211 2.240 . S
O221 C219 1.279 . S
O222 Cd212 2.297 . S
O222 C217 1.247 . S
O223 Cd212 2.439 . S
O223 C217 1.208 . S
H224 C232 0.950 . S
H225 C237 0.950 . S
H226 C234 0.950 . S
H227 C236 0.950 . S
H228 C238 0.950 . S
H229 C240 0.950 . S
H230 C242 0.950 . S
H231 C243 0.950 . S
C232 H224 0.950 . S
C232 C233 1.386 . S
C232 C234 1.391 . S
C233 C232 1.386 . S
C233 C237 1.393 . S
C234 H226 0.950 . S
C234 C232 1.391 . S
C234 C235 1.400 . S
C235 C234 1.400 . S
C235 C236 1.398 . S
C235 C241 1.491 . S
C236 H227 0.950 . S
C236 C235 1.398 . S
C236 C237 1.391 . S
C237 H225 0.950 . S
C237 C233 1.393 . S
C237 C236 1.391 . S
C238 H228 0.950 . S
C238 C239 1.386 . S
C238 C240 1.391 . S
C239 C238 1.386 . S
C239 C243 1.393 . S
C240 H229 0.950 . S
C240 C238 1.391 . S
C240 C241 1.400 . S
C241 C235 1.491 . S
C241 C240 1.400 . S
C241 C242 1.398 . S
C242 H230 0.950 . S
C242 C241 1.398 . S
C242 C243 1.391 . S
C243 H231 0.950 . S
C243 C239 1.393 . S
C243 C242 1.391 . S
H244 C252 0.950 . S
H245 C257 0.950 . S
H246 C254 0.950 . S
H247 C256 0.950 . S
H248 C258 0.950 . S
H249 C260 0.950 . S
H250 C262 0.950 . S
H251 C263 0.950 . S
C252 H244 0.950 . S
C252 C253 1.386 . S
C252 C254 1.391 1_655 S
C253 C252 1.386 . S
C253 C257 1.393 . S
C254 H246 0.950 . S
C254 C252 1.391 1_455 S
C254 C255 1.400 . S
C255 C254 1.400 . S
C255 C256 1.398 . S
C255 C261 1.491 . S
C256 H247 0.950 . S
C256 C255 1.398 . S
C256 C257 1.391 1_455 S
C257 H245 0.950 . S
C257 C253 1.393 . S
C257 C256 1.391 1_655 S
C258 H248 0.950 . S
C258 C259 1.386 . S
C258 C260 1.391 . S
C259 C258 1.386 . S
C259 C263 1.393 . S
C260 H249 0.950 . S
C260 C258 1.391 . S
C260 C261 1.400 . S
C261 C255 1.491 . S
C261 C260 1.400 . S
C261 C262 1.398 . S
C262 H250 0.950 . S
C262 C261 1.398 . S
C262 C263 1.391 . S
C263 H251 0.950 . S
C263 C259 1.393 . S
C263 C262 1.391 . S
H264 C272 0.950 . S
H265 C277 0.950 . S
H266 C274 0.950 . S
H267 C276 0.950 . S
H268 C278 0.950 . S
H269 C280 0.950 . S
H270 C282 0.950 . S
H271 C283 0.950 . S
C272 H264 0.950 . S
C272 C273 1.386 . S
C272 C274 1.391 . S
C273 C272 1.386 . S
C273 C277 1.393 . S
C274 H266 0.950 . S
C274 C272 1.391 . S
C274 C275 1.400 . S
C275 C274 1.400 . S
C275 C276 1.398 . S
C275 C281 1.491 . S
C276 H267 0.950 . S
C276 C275 1.398 . S
C276 C277 1.391 . S
C277 H265 0.950 . S
C277 C273 1.393 . S
C277 C276 1.391 . S
C278 H268 0.950 . S
C278 C279 1.386 . S
C278 C280 1.391 . S
C279 C278 1.386 . S
C279 C283 1.393 . S
C280 H269 0.950 . S
C280 C278 1.391 . S
C280 C281 1.400 . S
C281 C275 1.491 . S
C281 C280 1.400 . S
C281 C282 1.398 . S
C282 H270 0.950 . S
C282 C281 1.398 . S
C282 C283 1.391 . S
C283 H271 0.950 . S
C283 C279 1.393 . S
C283 C282 1.391 . S
H284 C292 0.950 . S
H285 C297 0.950 . S
H286 C294 0.950 . S
H287 C296 0.950 . S
H288 C298 0.950 . S
H289 C300 0.950 . S
H290 C302 0.950 . S
H291 C303 0.950 . S
C292 H284 0.950 . S
C292 C293 1.386 . S
C292 C294 1.391 . S
C293 C292 1.386 . S
C293 C297 1.393 . S
C294 H286 0.950 . S
C294 C292 1.391 . S
C294 C295 1.400 . S
C295 C294 1.400 . S
C295 C296 1.398 . S
C295 C301 1.491 . S
C296 H287 0.950 . S
C296 C295 1.398 . S
C296 C297 1.391 . S
C297 H285 0.950 . S
C297 C293 1.393 . S
C297 C296 1.391 . S
C298 H288 0.950 . S
C298 C299 1.386 . S
C298 C300 1.391 . S
C299 C298 1.386 . S
C299 C303 1.393 . S
C300 H289 0.950 . S
C300 C298 1.391 . S
C300 C301 1.400 . S
C301 C295 1.491 . S
C301 C300 1.400 . S
C301 C302 1.398 . S
C302 H290 0.950 . S
C302 C301 1.398 . S
C302 C303 1.391 . S
C303 H291 0.950 . S
C303 C299 1.393 . S
C303 C302 1.391 . S
H304 C312 0.950 . S
H305 C317 0.950 . S
H306 C314 0.950 . S
H307 C316 0.950 . S
H308 C318 0.950 . S
H309 C320 0.950 . S
H310 C322 0.950 . S
H311 C323 0.950 . S
C312 H304 0.950 . S
C312 C313 1.386 . S
C312 C314 1.391 . S
C313 C312 1.386 . S
C313 C317 1.393 . S
C314 H306 0.950 . S
C314 C312 1.391 . S
C314 C315 1.400 . S
C315 C314 1.400 . S
C315 C316 1.398 . S
C315 C321 1.491 . S
C316 H307 0.950 . S
C316 C315 1.398 . S
C316 C317 1.391 . S
C317 H305 0.950 . S
C317 C313 1.393 . S
C317 C316 1.391 . S
C318 H308 0.950 . S
C318 C319 1.386 . S
C318 C320 1.391 . S
C319 C318 1.386 . S
C319 C323 1.393 . S
C320 H309 0.950 . S
C320 C318 1.391 . S
C320 C321 1.400 . S
C321 C315 1.491 . S
C321 C320 1.400 . S
C321 C322 1.398 . S
C322 H310 0.950 . S
C322 C321 1.398 . S
C322 C323 1.391 . S
C323 H311 0.950 . S
C323 C319 1.393 . S
C323 C322 1.391 . S
H324 C332 0.950 . S
H325 C337 0.950 . S
H326 C334 0.950 . S
H327 C336 0.950 . S
H328 C338 0.950 . S
H329 C340 0.950 . S
H330 C342 0.950 . S
H331 C343 0.950 . S
C332 H324 0.950 . S
C332 C333 1.386 . S
C332 C334 1.391 . S
C333 C332 1.386 . S
C333 C337 1.393 . S
C334 H326 0.950 . S
C334 C332 1.391 . S
C334 C335 1.400 . S
C335 C334 1.400 . S
C335 C336 1.398 . S
C335 C341 1.491 . S
C336 H327 0.950 . S
C336 C335 1.398 . S
C336 C337 1.391 . S
C337 H325 0.950 . S
C337 C333 1.393 . S
C337 C336 1.391 . S
C338 H328 0.950 . S
C338 C339 1.386 . S
C338 C340 1.391 . S
C339 C338 1.386 . S
C339 C343 1.393 . S
C340 H329 0.950 . S
C340 C338 1.391 . S
C340 C341 1.400 . S
C341 C335 1.491 . S
C341 C340 1.400 . S
C341 C342 1.398 . S
C342 H330 0.950 . S
C342 C341 1.398 . S
C342 C343 1.391 . S
C343 H331 0.950 . S
C343 C339 1.393 . S
C343 C342 1.391 . S
H344 C352 0.950 . S
H345 C357 0.950 . S
H346 C354 0.950 . S
H347 C356 0.950 . S
H348 C358 0.950 . S
H349 C360 0.950 . S
H350 C362 0.950 . S
H351 C363 0.950 . S
C352 H344 0.950 . S
C352 C353 1.386 . S
C352 C354 1.391 . S
C353 C352 1.386 . S
C353 C357 1.393 . S
C354 H346 0.950 . S
C354 C352 1.391 . S
C354 C355 1.400 . S
C355 C354 1.400 . S
C355 C356 1.398 . S
C355 C361 1.491 . S
C356 H347 0.950 . S
C356 C355 1.398 . S
C356 C357 1.391 . S
C357 H345 0.950 . S
C357 C353 1.393 . S
C357 C356 1.391 . S
C358 H348 0.950 . S
C358 C359 1.386 . S
C358 C360 1.391 . S
C359 C358 1.386 . S
C359 C363 1.393 . S
C360 H349 0.950 . S
C360 C358 1.391 . S
C360 C361 1.400 . S
C361 C355 1.491 . S
C361 C360 1.400 . S
C361 C362 1.398 . S
C362 H350 0.950 . S
C362 C361 1.398 . S
C362 C363 1.391 . S
C363 H351 0.950 . S
C363 C359 1.393 . S
C363 C362 1.391 . S
H364 C372 0.950 . S
H365 C377 0.950 . S
H366 C374 0.950 . S
H367 C376 0.950 . S
H368 C378 0.950 . S
H369 C380 0.950 . S
H370 C382 0.950 . S
H371 C383 0.950 . S
C372 H364 0.950 . S
C372 C373 1.386 . S
C372 C374 1.391 . S
C373 C372 1.386 . S
C373 C377 1.393 . S
C374 H366 0.950 . S
C374 C372 1.391 . S
C374 C375 1.400 . S
C375 C374 1.400 . S
C375 C376 1.398 . S
C375 C381 1.491 . S
C376 H367 0.950 . S
C376 C375 1.398 . S
C376 C377 1.391 . S
C377 H365 0.950 . S
C377 C373 1.393 . S
C377 C376 1.391 . S
C378 H368 0.950 . S
C378 C379 1.386 . S
C378 C380 1.391 1_655 S
C379 C378 1.386 . S
C379 C383 1.393 . S
C380 H369 0.950 . S
C380 C378 1.391 1_455 S
C380 C381 1.400 . S
C381 C375 1.491 . S
C381 C380 1.400 . S
C381 C382 1.398 . S
C382 H370 0.950 . S
C382 C381 1.398 . S
C382 C383 1.391 1_455 S
C383 H371 0.950 . S
C383 C379 1.393 . S
C383 C382 1.391 1_655 S
H384 C392 0.950 . S
H385 C397 0.943 1_655 S
H386 C394 0.950 . S
H387 C396 0.950 1_655 S
H388 C398 0.950 . S
H389 C400 0.950 . S
H390 C402 0.950 . S
H391 C403 0.950 . S
C392 H384 0.950 . S
C392 C393 1.386 . S
C392 C394 1.391 . S
C393 C392 1.386 . S
C393 C397 1.400 1_565 S
C394 H386 0.950 . S
C394 C392 1.391 . S
C394 C395 1.400 . S
C395 C394 1.400 . S
C395 C396 1.398 1_565 S
C395 C401 1.491 1_565 S
C396 H387 0.950 1_455 S
C396 C395 1.398 1_545 S
C396 C397 1.391 . S
C397 H385 0.943 1_455 S
C397 C393 1.400 1_545 S
C397 C396 1.391 . S
C398 H388 0.950 . S
C398 C399 1.386 1_655 S
C398 C400 1.391 . S
C399 C398 1.386 1_455 S
C399 C403 1.393 1_545 S
C400 H389 0.950 . S
C400 C398 1.391 . S
C400 C401 1.400 1_655 S
C401 C395 1.491 1_545 S
C401 C400 1.400 1_455 S
C401 C402 1.398 1_545 S
C402 H390 0.950 . S
C402 C401 1.398 1_565 S
C402 C403 1.391 . S
C403 H391 0.950 . S
C403 C399 1.393 1_565 S
C403 C402 1.391 . S
H404 C412 0.950 . S
H405 C417 0.950 . S
H406 C414 0.950 . S
H407 C416 0.950 . S
H408 C418 0.950 . S
H409 C420 0.950 . S
H410 C422 0.950 . S
H411 C423 0.950 . S
C412 H404 0.950 . S
C412 C413 1.386 . S
C412 C414 1.391 . S
C413 C412 1.386 . S
C413 C417 1.393 . S
C414 H406 0.950 . S
C414 C412 1.391 . S
C414 C415 1.400 . S
C415 C414 1.400 . S
C415 C416 1.398 . S
C415 C421 1.491 . S
C416 H407 0.950 . S
C416 C415 1.398 . S
C416 C417 1.391 . S
C417 H405 0.950 . S
C417 C413 1.393 . S
C417 C416 1.391 . S
C418 H408 0.950 . S
C418 C419 1.386 . S
C418 C420 1.391 . S
C419 C418 1.386 . S
C419 C423 1.393 . S
C420 H409 0.950 . S
C420 C418 1.391 . S
C420 C421 1.400 . S
C421 C415 1.491 . S
C421 C420 1.400 . S
C421 C422 1.398 . S
C422 H410 0.950 . S
C422 C421 1.398 . S
C422 C423 1.391 . S
C423 H411 0.950 . S
C423 C419 1.393 . S
C423 C422 1.391 . S
H424 C432 0.950 . S
H425 C437 0.950 . S
H426 C434 0.950 . S
H427 C436 0.950 . S
H428 C438 0.950 . S
H429 C440 0.950 . S
H430 C442 0.950 . S
H431 C443 0.950 . S
C432 H424 0.950 . S
C432 C433 1.386 1_545 S
C432 C434 1.391 . S
C433 C432 1.386 1_565 S
C433 C437 1.393 . S
C434 H426 0.950 . S
C434 C432 1.391 . S
C434 C435 1.400 1_545 S
C435 C434 1.400 1_565 S
C435 C436 1.398 . S
C435 C441 1.491 1_564 S
C436 H427 0.950 . S
C436 C435 1.398 . S
C436 C437 1.391 . S
C437 H425 0.950 . S
C437 C433 1.393 . S
C437 C436 1.391 . S
C438 H428 0.950 . S
C438 C439 1.386 1_565 S
C438 C440 1.391 . S
C439 C438 1.386 1_545 S
C439 C443 1.393 . S
C440 H429 0.950 . S
C440 C438 1.391 . S
C440 C441 1.400 1_565 S
C441 C435 1.491 1_546 S
C441 C440 1.400 1_545 S
C441 C442 1.398 . S
C442 H430 0.950 . S
C442 C441 1.398 . S
C442 C443 1.391 . S
C443 H431 0.950 . S
C443 C439 1.393 . S
C443 C442 1.391 . S
H444 C452 0.950 . S
H445 C457 0.950 . S
H446 C454 0.950 . S
H447 C456 0.950 . S
H448 C458 0.950 . S
H449 C460 0.950 . S
H450 C462 0.950 . S
H451 C463 0.950 . S
C452 H444 0.950 . S
C452 C453 1.386 . S
C452 C454 1.391 . S
C453 C452 1.386 . S
C453 C457 1.393 . S
C454 H446 0.950 . S
C454 C452 1.391 . S
C454 C455 1.400 . S
C455 C454 1.400 . S
C455 C456 1.398 . S
C455 C461 1.491 . S
C456 H447 0.950 . S
C456 C455 1.398 . S
C456 C457 1.391 . S
C457 H445 0.950 . S
C457 C453 1.393 . S
C457 C456 1.391 . S
C458 H448 0.950 . S
C458 C459 1.386 . S
C458 C460 1.391 . S
C459 C458 1.386 . S
C459 C463 1.393 . S
C460 H449 0.950 . S
C460 C458 1.391 . S
C460 C461 1.400 . S
C461 C455 1.491 . S
C461 C460 1.400 . S
C461 C462 1.398 . S
C462 H450 0.950 . S
C462 C461 1.398 . S
C462 C463 1.391 . S
C463 H451 0.950 . S
C463 C459 1.393 . S
C463 C462 1.391 . S
H464 C472 0.950 . S
H465 C477 0.950 . S
H466 C474 0.950 . S
H467 C476 0.950 . S
H468 C478 0.950 . S
H469 C480 0.950 . S
H470 C482 0.950 . S
H471 C483 0.950 . S
C472 H464 0.950 . S
C472 C473 1.386 . S
C472 C474 1.391 . S
C473 C472 1.386 . S
C473 C477 1.393 . S
C474 H466 0.950 . S
C474 C472 1.391 . S
C474 C475 1.400 . S
C475 C474 1.400 . S
C475 C476 1.398 . S
C475 C481 1.491 . S
C476 H467 0.950 . S
C476 C475 1.398 . S
C476 C477 1.391 . S
C477 H465 0.950 . S
C477 C473 1.393 . S
C477 C476 1.391 . S
C478 H468 0.950 . S
C478 C479 1.386 . S
C478 C480 1.391 . S
C479 C478 1.386 . S
C479 C483 1.393 . S
C480 H469 0.950 . S
C480 C478 1.391 . S
C480 C481 1.400 . S
C481 C475 1.491 . S
C481 C480 1.400 . S
C481 C482 1.398 . S
C482 H470 0.950 . S
C482 C481 1.398 . S
C482 C483 1.391 . S
C483 H471 0.950 . S
C483 C479 1.393 . S
C483 C482 1.391 . S
H484 C492 0.950 . S
H485 C497 0.950 . S
H486 C494 0.950 . S
H487 C496 0.950 . S
H488 C498 0.950 . S
H489 C500 0.950 . S
H490 C502 0.950 . S
H491 C503 0.950 . S
C492 H484 0.950 . S
C492 C493 1.386 . S
C492 C494 1.391 . S
C493 C492 1.386 . S
C493 C497 1.393 . S
C494 H486 0.950 . S
C494 C492 1.391 . S
C494 C495 1.400 . S
C495 C494 1.400 . S
C495 C496 1.398 . S
C495 C501 1.491 . S
C496 H487 0.950 . S
C496 C495 1.398 . S
C496 C497 1.391 . S
C497 H485 0.950 . S
C497 C493 1.393 . S
C497 C496 1.391 . S
C498 H488 0.950 . S
C498 C499 1.386 . S
C498 C500 1.391 . S
C499 C498 1.386 . S
C499 C503 1.393 . S
C500 H489 0.950 . S
C500 C498 1.391 . S
C500 C501 1.400 . S
C501 C495 1.491 . S
C501 C500 1.400 . S
C501 C502 1.398 . S
C502 H490 0.950 . S
C502 C501 1.398 . S
C502 C503 1.391 . S
C503 H491 0.950 . S
C503 C499 1.393 . S
C503 C502 1.391 . S
H504 C512 0.950 . S
H505 C517 0.950 . S
H506 C514 0.950 . S
H507 C516 0.950 . S
H508 C518 0.950 . S
H509 C520 0.950 . S
H510 C522 0.950 . S
H511 C523 0.950 . S
C512 H504 0.950 . S
C512 C513 1.386 . S
C512 C514 1.391 . S
C513 C512 1.386 . S
C513 C517 1.393 . S
C514 H506 0.950 . S
C514 C512 1.391 . S
C514 C515 1.400 . S
C515 C514 1.400 . S
C515 C516 1.398 . S
C515 C521 1.491 1_556 S
C516 H507 0.950 . S
C516 C515 1.398 . S
C516 C517 1.391 . S
C517 H505 0.950 . S
C517 C513 1.393 . S
C517 C516 1.391 . S
C518 H508 0.950 . S
C518 C519 1.386 . S
C518 C520 1.391 . S
C519 C518 1.386 . S
C519 C523 1.393 . S
C520 H509 0.950 . S
C520 C518 1.391 . S
C520 C521 1.400 . S
C521 C515 1.491 1_554 S
C521 C520 1.400 . S
C521 C522 1.398 . S
C522 H510 0.950 . S
C522 C521 1.398 . S
C522 C523 1.391 . S
C523 H511 0.950 . S
C523 C519 1.393 . S
C523 C522 1.391 . S
H524 C532 0.950 . S
H525 C537 0.950 . S
H526 C534 0.950 . S
H527 C536 0.950 . S
H528 C538 0.950 . S
H529 C540 0.950 . S
H530 C542 0.950 . S
H531 C543 0.950 . S
C532 H524 0.950 . S
C532 C533 1.386 . S
C532 C534 1.391 . S
C533 C532 1.386 . S
C533 C537 1.393 . S
C534 H526 0.950 . S
C534 C532 1.391 . S
C534 C535 1.400 . S
C535 C534 1.400 . S
C535 C536 1.398 . S
C535 C541 1.491 . S
C536 H527 0.950 . S
C536 C535 1.398 . S
C536 C537 1.391 . S
C537 H525 0.950 . S
C537 C533 1.393 . S
C537 C536 1.391 . S
C538 H528 0.950 . S
C538 C539 1.386 . S
C538 C540 1.391 . S
C539 C538 1.386 . S
C539 C543 1.393 . S
C540 H529 0.950 . S
C540 C538 1.391 . S
C540 C541 1.400 . S
C541 C535 1.491 . S
C541 C540 1.400 . S
C541 C542 1.398 . S
C542 H530 0.950 . S
C542 C541 1.398 . S
C542 C543 1.391 . S
C543 H531 0.950 . S
C543 C539 1.393 . S
C543 C542 1.391 . S
H544 C552 0.950 . S
H545 C557 0.950 . S
H546 C554 0.950 . S
H547 C556 0.950 . S
H548 C558 0.950 . S
H549 C560 0.950 . S
H550 C562 0.950 . S
H551 C563 0.950 . S
C552 H544 0.950 . S
C552 C553 1.386 . S
C552 C554 1.391 . S
C553 C552 1.386 . S
C553 C557 1.393 . S
C554 H546 0.950 . S
C554 C552 1.391 . S
C554 C555 1.400 . S
C555 C554 1.400 . S
C555 C556 1.398 . S
C555 C561 1.491 . S
C556 H547 0.950 . S
C556 C555 1.398 . S
C556 C557 1.391 . S
C557 H545 0.950 . S
C557 C553 1.393 . S
C557 C556 1.391 . S
C558 H548 0.950 . S
C558 C559 1.386 . S
C558 C560 1.391 . S
C559 C558 1.386 . S
C559 C563 1.393 . S
C560 H549 0.950 . S
C560 C558 1.391 . S
C560 C561 1.400 . S
C561 C555 1.491 . S
C561 C560 1.400 . S
C561 C562 1.398 . S
C562 H550 0.950 . S
C562 C561 1.398 . S
C562 C563 1.391 . S
C563 H551 0.950 . S
C563 C559 1.393 . S
C563 C562 1.391 . S
H564 C572 0.950 . S
H565 C577 0.950 . S
H566 C574 0.950 . S
H567 C576 0.950 . S
H568 C578 0.950 . S
H569 C580 0.950 . S
H570 C582 0.950 . S
H571 C583 0.950 . S
C572 H564 0.950 . S
C572 C573 1.386 . S
C572 C574 1.391 . S
C573 C572 1.386 . S
C573 C577 1.393 . S
C574 H566 0.950 . S
C574 C572 1.391 . S
C574 C575 1.400 . S
C575 C574 1.400 . S
C575 C576 1.398 . S
C575 C581 1.491 . S
C576 H567 0.950 . S
C576 C575 1.398 . S
C576 C577 1.391 . S
C577 H565 0.950 . S
C577 C573 1.393 . S
C577 C576 1.391 . S
C578 H568 0.950 . S
C578 C579 1.386 . S
C578 C580 1.391 . S
C579 C578 1.386 . S
C579 C583 1.393 . S
C580 H569 0.950 . S
C580 C578 1.391 . S
C580 C581 1.400 . S
C581 C575 1.491 . S
C581 C580 1.400 . S
C581 C582 1.398 . S
C582 H570 0.950 . S
C582 C581 1.398 . S
C582 C583 1.391 . S
C583 H571 0.950 . S
C583 C579 1.393 . S
C583 C582 1.391 . S
H584 C592 0.950 . S
H585 C597 0.950 . S
H586 C594 0.950 . S
H587 C596 0.950 . S
H588 C598 0.950 . S
H589 C600 0.950 . S
H590 C602 0.950 . S
H591 C603 0.950 . S
C592 H584 0.950 . S
C592 C593 1.386 . S
C592 C594 1.391 . S
C593 C592 1.386 . S
C593 C597 1.393 . S
C594 H586 0.950 . S
C594 C592 1.391 . S
C594 C595 1.400 . S
C595 C594 1.400 . S
C595 C596 1.398 . S
C595 C601 1.491 . S
C596 H587 0.950 . S
C596 C595 1.398 . S
C596 C597 1.391 . S
C597 H585 0.950 . S
C597 C593 1.393 . S
C597 C596 1.391 . S
C598 H588 0.950 . S
C598 C599 1.386 . S
C598 C600 1.391 . S
C599 C598 1.386 . S
C599 C603 1.393 . S
C600 H589 0.950 . S
C600 C598 1.391 . S
C600 C601 1.400 . S
C601 C595 1.491 . S
C601 C600 1.400 . S
C601 C602 1.398 . S
C602 H590 0.950 . S
C602 C601 1.398 . S
C602 C603 1.391 . S
C603 H591 0.950 . S
C603 C599 1.393 . S
C603 C602 1.391 . S
H604 C612 0.950 . S
H605 C617 0.950 . S
H606 C614 0.950 . S
H607 C616 0.950 . S
H608 C618 0.950 . S
H609 C620 0.950 . S
H610 C622 0.950 . S
H611 C623 0.950 . S
C612 H604 0.950 . S
C612 C613 1.386 . S
C612 C614 1.391 . S
C613 C612 1.386 . S
C613 C617 1.393 . S
C614 H606 0.950 . S
C614 C612 1.391 . S
C614 C615 1.400 . S
C615 C614 1.400 . S
C615 C616 1.398 . S
C615 C621 1.491 . S
C616 H607 0.950 . S
C616 C615 1.398 . S
C616 C617 1.391 . S
C617 H605 0.950 . S
C617 C613 1.393 . S
C617 C616 1.391 . S
C618 H608 0.950 . S
C618 C619 1.386 . S
C618 C620 1.391 . S
C619 C618 1.386 . S
C619 C623 1.393 . S
C620 H609 0.950 . S
C620 C618 1.391 . S
C620 C621 1.400 . S
C621 C615 1.491 . S
C621 C620 1.400 . S
C621 C622 1.398 . S
C622 H610 0.950 . S
C622 C621 1.398 . S
C622 C623 1.391 . S
C623 H611 0.950 . S
C623 C619 1.393 . S
C623 C622 1.391 . S
H624 C632 0.950 . S
H625 C637 0.950 . S
H626 C634 0.950 . S
H627 C636 0.950 . S
H628 C638 0.950 . S
H629 C640 0.950 . S
H630 C642 0.950 . S
H631 C643 0.950 . S
C632 H624 0.950 . S
C632 C633 1.386 . S
C632 C634 1.391 . S
C633 C632 1.386 . S
C633 C637 1.393 . S
C634 H626 0.950 . S
C634 C632 1.391 . S
C634 C635 1.400 . S
C635 C634 1.400 . S
C635 C636 1.398 . S
C635 C641 1.491 . S
C636 H627 0.950 . S
C636 C635 1.398 . S
C636 C637 1.391 . S
C637 H625 0.950 . S
C637 C633 1.393 . S
C637 C636 1.391 . S
C638 H628 0.950 . S
C638 C639 1.386 . S
C638 C640 1.391 . S
C639 C638 1.386 . S
C639 C643 1.393 . S
C640 H629 0.950 . S
C640 C638 1.391 . S
C640 C641 1.400 . S
C641 C635 1.491 . S
C641 C640 1.400 . S
C641 C642 1.398 . S
C642 H630 0.950 . S
C642 C641 1.398 . S
C642 C643 1.391 . S
C643 H631 0.950 . S
C643 C639 1.393 . S
C643 C642 1.391 . S
H644 C652 0.950 . S
H645 C657 0.950 . S
H646 C654 0.950 . S
H647 C656 0.950 . S
H648 C658 0.950 . S
H649 C660 0.950 . S
H650 C662 0.950 . S
H651 C663 0.950 . S
C652 H644 0.950 . S
C652 C653 1.386 . S
C652 C654 1.391 . S
C653 C652 1.386 . S
C653 C657 1.393 . S
C654 H646 0.950 . S
C654 C652 1.391 . S
C654 C655 1.400 . S
C655 C654 1.400 . S
C655 C656 1.398 . S
C655 C661 1.491 . S
C656 H647 0.950 . S
C656 C655 1.398 . S
C656 C657 1.391 . S
C657 H645 0.950 . S
C657 C653 1.393 . S
C657 C656 1.391 . S
C658 H648 0.950 . S
C658 C659 1.386 . S
C658 C660 1.391 . S
C659 C658 1.386 . S
C659 C663 1.393 . S
C660 H649 0.950 . S
C660 C658 1.391 . S
C660 C661 1.400 . S
C661 C655 1.491 . S
C661 C660 1.400 . S
C661 C662 1.398 . S
C662 H650 0.950 . S
C662 C661 1.398 . S
C662 C663 1.391 . S
C663 H651 0.950 . S
C663 C659 1.393 . S
C663 C662 1.391 . S
H664 C672 0.950 . S
H665 C677 0.950 . S
H666 C674 0.950 . S
H667 C676 0.950 . S
H668 C678 0.950 . S
H669 C680 0.950 . S
H670 C682 0.950 . S
H671 C683 0.950 . S
C672 H664 0.950 . S
C672 C673 1.386 . S
C672 C674 1.391 . S
C673 C672 1.386 . S
C673 C677 1.393 . S
C674 H666 0.950 . S
C674 C672 1.391 . S
C674 C675 1.400 . S
C675 C674 1.400 . S
C675 C676 1.398 . S
C675 C681 1.491 . S
C676 H667 0.950 . S
C676 C675 1.398 . S
C676 C677 1.391 . S
C677 H665 0.950 . S
C677 C673 1.393 . S
C677 C676 1.391 . S
C678 H668 0.950 . S
C678 C679 1.386 . S
C678 C680 1.391 . S
C679 C678 1.386 . S
C679 C683 1.393 . S
C680 H669 0.950 . S
C680 C678 1.391 . S
C680 C681 1.400 . S
C681 C675 1.491 . S
C681 C680 1.400 . S
C681 C682 1.398 . S
C682 H670 0.950 . S
C682 C681 1.398 . S
C682 C683 1.391 . S
C683 H671 0.950 . S
C683 C679 1.393 . S
C683 C682 1.391 . S
H684 C692 0.950 . S
H685 C697 0.950 . S
H686 C694 0.950 . S
H687 C696 0.950 . S
H688 C698 0.950 . S
H689 C700 0.950 . S
H690 C702 0.950 . S
H691 C703 0.950 . S
C692 H684 0.950 . S
C692 C693 1.386 . S
C692 C694 1.391 . S
C693 C692 1.386 . S
C693 C697 1.393 . S
C694 H686 0.950 . S
C694 C692 1.391 . S
C694 C695 1.400 . S
C695 C694 1.400 . S
C695 C696 1.398 . S
C695 C701 1.491 . S
C696 H687 0.950 . S
C696 C695 1.398 . S
C696 C697 1.391 . S
C697 H685 0.950 . S
C697 C693 1.393 . S
C697 C696 1.391 . S
C698 H688 0.950 . S
C698 C699 1.386 . S
C698 C700 1.391 . S
C699 C698 1.386 . S
C699 C703 1.393 . S
C700 H689 0.950 . S
C700 C698 1.391 . S
C700 C701 1.400 . S
C701 C695 1.491 . S
C701 C700 1.400 . S
C701 C702 1.398 . S
C702 H690 0.950 . S
C702 C701 1.398 . S
C702 C703 1.391 . S
C703 H691 0.950 . S
C703 C699 1.393 . S
C703 C702 1.391 . S
H704 C712 0.950 . S
H705 C717 0.950 . S
H706 C714 0.950 . S
H707 C716 0.950 . S
H708 C718 0.950 . S
H709 C720 0.950 . S
H710 C722 0.950 . S
H711 C723 0.950 . S
C712 H704 0.950 . S
C712 C713 1.386 . S
C712 C714 1.391 . S
C713 C712 1.386 . S
C713 C717 1.393 . S
C714 H706 0.950 . S
C714 C712 1.391 . S
C714 C715 1.400 . S
C715 C714 1.400 . S
C715 C716 1.398 . S
C715 C721 1.491 . S
C716 H707 0.950 . S
C716 C715 1.398 . S
C716 C717 1.391 . S
C717 H705 0.950 . S
C717 C713 1.393 . S
C717 C716 1.391 . S
C718 H708 0.950 . S
C718 C719 1.386 . S
C718 C720 1.391 . S
C719 C718 1.386 . S
C719 C723 1.393 . S
C720 H709 0.950 . S
C720 C718 1.391 . S
C720 C721 1.400 . S
C721 C715 1.491 . S
C721 C720 1.400 . S
C721 C722 1.398 . S
C722 H710 0.950 . S
C722 C721 1.398 . S
C722 C723 1.391 . S
C723 H711 0.950 . S
C723 C719 1.393 . S
C723 C722 1.391 . S
H724 C732 0.950 . S
H725 C737 0.950 . S
H726 C734 0.950 . S
H727 C736 0.950 . S
H728 C738 0.950 . S
H729 C740 0.950 . S
H730 C742 0.950 . S
H731 C743 0.927 1_455 S
C732 H724 0.950 . S
C732 C733 1.386 . S
C732 C734 1.391 . S
C733 C732 1.386 . S
C733 C737 1.393 . S
C734 H726 0.950 . S
C734 C732 1.391 . S
C734 C735 1.400 . S
C735 C734 1.400 . S
C735 C736 1.398 . S
C735 C741 1.491 . S
C736 H727 0.950 . S
C736 C735 1.398 . S
C736 C737 1.391 . S
C737 H725 0.950 . S
C737 C733 1.393 . S
C737 C736 1.391 . S
C738 H728 0.950 . S
C738 C739 1.386 . S
C738 C740 1.391 . S
C739 C738 1.386 . S
C739 C743 1.399 . S
C740 H729 0.950 . S
C740 C738 1.391 . S
C740 C741 1.400 . S
C741 C735 1.491 . S
C741 C740 1.400 . S
C741 C742 1.398 . S
C742 H730 0.950 . S
C742 C741 1.398 . S
C742 C743 1.408 . S
C743 H731 0.927 1_655 S
C743 C739 1.399 . S
C743 C742 1.408 . S
H744 C752 0.950 1_455 S
H745 C757 0.950 . S
H746 C754 0.950 . S
H747 C756 0.950 . S
H748 C758 0.950 . S
H749 C760 0.950 . S
H750 C762 0.950 . S
H751 C763 0.950 . S
C752 H744 0.950 1_655 S
C752 C753 1.386 . S
C752 C754 1.391 . S
C753 C752 1.386 . S
C753 C757 1.393 . S
C754 H746 0.950 . S
C754 C752 1.391 . S
C754 C755 1.400 . S
C755 C754 1.400 . S
C755 C756 1.398 . S
C755 C761 1.491 . S
C756 H747 0.950 . S
C756 C755 1.398 . S
C756 C757 1.391 . S
C757 H745 0.950 . S
C757 C753 1.393 . S
C757 C756 1.391 . S
C758 H748 0.950 . S
C758 C759 1.386 . S
C758 C760 1.391 . S
C759 C758 1.386 . S
C759 C763 1.393 . S
C760 H749 0.950 . S
C760 C758 1.391 . S
C760 C761 1.400 . S
C761 C755 1.491 . S
C761 C760 1.400 . S
C761 C762 1.398 . S
C762 H750 0.950 . S
C762 C761 1.398 . S
C762 C763 1.391 . S
C763 H751 0.950 . S
C763 C759 1.393 . S
C763 C762 1.391 . S
H764 C772 0.950 . S
H765 C777 0.950 . S
H766 C774 0.950 . S
H767 C776 0.950 . S
H768 C778 0.950 . S
H769 C780 0.950 . S
H770 C782 0.950 . S
H771 C783 0.950 . S
C772 H764 0.950 . S
C772 C773 1.386 . S
C772 C774 1.391 . S
C773 C772 1.386 . S
C773 C777 1.393 . S
C774 H766 0.950 . S
C774 C772 1.391 . S
C774 C775 1.400 . S
C775 C774 1.400 . S
C775 C776 1.398 . S
C775 C781 1.491 . S
C776 H767 0.950 . S
C776 C775 1.398 . S
C776 C777 1.391 . S
C777 H765 0.950 . S
C777 C773 1.393 . S
C777 C776 1.391 . S
C778 H768 0.950 . S
C778 C779 1.386 . S
C778 C780 1.391 . S
C779 C778 1.386 . S
C779 C783 1.393 . S
C780 H769 0.950 . S
C780 C778 1.391 . S
C780 C781 1.400 . S
C781 C775 1.491 . S
C781 C780 1.400 . S
C781 C782 1.398 . S
C782 H770 0.950 . S
C782 C781 1.398 . S
C782 C783 1.391 . S
C783 H771 0.950 . S
C783 C779 1.393 . S
C783 C782 1.391 . S
H784 C792 0.950 . S
H785 C797 0.950 . S
H786 C794 0.950 . S
H787 C796 0.950 . S
H788 C798 0.950 . S
H789 C800 0.950 . S
H790 C802 0.950 . S
H791 C803 0.950 . S
C792 H784 0.950 . S
C792 C793 1.386 . S
C792 C794 1.391 . S
C793 C792 1.386 . S
C793 C797 1.393 . S
C794 H786 0.950 . S
C794 C792 1.391 . S
C794 C795 1.400 . S
C795 C794 1.400 . S
C795 C796 1.398 . S
C795 C801 1.491 . S
C796 H787 0.950 . S
C796 C795 1.398 . S
C796 C797 1.391 . S
C797 H785 0.950 . S
C797 C793 1.393 . S
C797 C796 1.391 . S
C798 H788 0.950 . S
C798 C799 1.386 . S
C798 C800 1.391 . S
C799 C798 1.386 . S
C799 C803 1.393 . S
C800 H789 0.950 . S
C800 C798 1.391 . S
C800 C801 1.400 . S
C801 C795 1.491 . S
C801 C800 1.400 . S
C801 C802 1.398 . S
C802 H790 0.950 . S
C802 C801 1.398 . S
C802 C803 1.391 . S
C803 H791 0.950 . S
C803 C799 1.393 . S
C803 C802 1.391 . S
H804 C812 0.950 . S
H805 C817 0.950 . S
H806 C814 0.950 . S
H807 C816 0.950 . S
H808 C818 0.950 . S
H809 C820 0.950 . S
H810 C822 0.950 . S
H811 C823 0.950 . S
C812 H804 0.950 . S
C812 C813 1.386 . S
C812 C814 1.391 . S
C813 C812 1.386 . S
C813 C817 1.393 . S
C814 H806 0.950 . S
C814 C812 1.391 . S
C814 C815 1.400 . S
C815 C814 1.400 . S
C815 C816 1.398 . S
C815 C821 1.491 . S
C816 H807 0.950 . S
C816 C815 1.398 . S
C816 C817 1.391 . S
C817 H805 0.950 . S
C817 C813 1.393 . S
C817 C816 1.391 . S
C818 H808 0.950 . S
C818 C819 1.386 . S
C818 C820 1.391 . S
C819 C818 1.386 . S
C819 C823 1.393 . S
C820 H809 0.950 . S
C820 C818 1.391 . S
C820 C821 1.400 . S
C821 C815 1.491 . S
C821 C820 1.400 . S
C821 C822 1.398 . S
C822 H810 0.950 . S
C822 C821 1.398 . S
C822 C823 1.391 . S
C823 H811 0.950 . S
C823 C819 1.393 . S
C823 C822 1.391 . S
H824 C832 0.950 . S
H825 C837 0.950 . S
H826 C834 0.950 . S
H827 C836 0.950 . S
H828 C838 0.950 . S
H829 C840 0.950 . S
H830 C842 0.950 . S
H831 C843 0.950 . S
C832 H824 0.950 . S
C832 C833 1.386 . S
C832 C834 1.391 . S
C833 C832 1.386 . S
C833 C837 1.393 . S
C834 H826 0.950 . S
C834 C832 1.391 . S
C834 C835 1.400 . S
C835 C834 1.400 . S
C835 C836 1.398 . S
C835 C841 1.491 . S
C836 H827 0.950 . S
C836 C835 1.398 . S
C836 C837 1.391 . S
C837 H825 0.950 . S
C837 C833 1.393 . S
C837 C836 1.391 . S
C838 H828 0.950 . S
C838 C839 1.386 . S
C838 C840 1.391 . S
C839 C838 1.386 . S
C839 C843 1.393 . S
C840 H829 0.950 . S
C840 C838 1.391 . S
C840 C841 1.400 . S
C841 C835 1.491 . S
C841 C840 1.400 . S
C841 C842 1.398 . S
C842 H830 0.950 . S
C842 C841 1.398 . S
C842 C843 1.391 . S
C843 H831 0.950 . S
C843 C839 1.393 . S
C843 C842 1.391 . S
H844 C852 0.950 . S
H845 C857 0.950 . S
H846 C854 0.950 . S
H847 C856 0.950 . S
H848 C858 0.950 . S
H849 C860 0.950 . S
H850 C862 0.950 . S
H851 C863 0.950 . S
C852 H844 0.950 . S
C852 C853 1.386 . S
C852 C854 1.391 . S
C853 C852 1.386 . S
C853 C857 1.393 . S
C854 H846 0.950 . S
C854 C852 1.391 . S
C854 C855 1.400 . S
C855 C854 1.400 . S
C855 C856 1.398 . S
C855 C861 1.491 . S
C856 H847 0.950 . S
C856 C855 1.398 . S
C856 C857 1.391 . S
C857 H845 0.950 . S
C857 C853 1.393 . S
C857 C856 1.391 . S
C858 H848 0.950 . S
C858 C859 1.386 . S
C858 C860 1.391 . S
C859 C858 1.386 . S
C859 C863 1.393 . S
C860 H849 0.950 . S
C860 C858 1.391 . S
C860 C861 1.400 . S
C861 C855 1.491 . S
C861 C860 1.400 . S
C861 C862 1.398 . S
C862 H850 0.950 . S
C862 C861 1.398 . S
C862 C863 1.391 . S
C863 H851 0.950 . S
C863 C859 1.393 . S
C863 C862 1.391 . S
C233 C6 1.379 . S
C239 C188 1.379 . S
C253 C160 1.394 . S
C259 C20 1.394 . S
C273 C174 1.399 . S
C279 C34 1.399 . S
C293 C146 1.384 . S
C299 C48 1.384 . S
C313 C62 1.376 . S
C319 C216 1.376 . S
C333 C76 1.399 . S
C339 C132 1.399 . S
C353 C202 1.386 . S
C359 C90 1.386 . S
C373 C104 1.392 . S
C379 C118 1.392 . S
C393 C64 1.759 . S
C399 C8 1.763 . S
C413 C22 1.759 . S
C419 C78 1.763 . S
C433 C36 1.764 . S
C439 C92 1.760 . S
C453 C106 1.763 . S
C459 C50 1.760 . S
C473 C120 1.756 . S
C479 C148 1.760 . S
C493 C134 1.756 . S
C499 C162 1.757 . S
C513 C204 1.757 . S
C519 C176 1.756 . S
C533 C190 1.759 . S
C539 C218 1.756 . S
C553 C77 1.402 . S
C559 C7 1.403 . S
C573 C21 1.422 . S
C579 C91 1.407 . S
C593 C35 1.432 . S
C599 C105 1.438 . S
C613 C63 1.405 . S
C619 C49 1.420 . S
C633 C65 1.307 . S
C639 C149 1.326 . S
C653 C37 1.332 . S
C659 C121 1.326 . S
C673 C163 1.309 . S
C679 C93 1.333 . S
C693 C135 1.328 . S
C699 C9 1.307 . S
C713 C119 1.411 . S
C719 C175 1.401 . S
C733 C147 1.411 . S
C739 C217 1.401 1_655 S
C753 C189 1.403 1_655 S
C759 C133 1.416 . S
C773 C161 1.407 . S
C779 C203 1.400 . S
C793 C205 1.335 . S
C799 C23 1.311 . S
C813 C191 1.332 . S
C819 C79 1.308 . S
C833 C219 1.324 . S
C839 C51 1.308 . S
C853 C177 1.308 . S
C859 C107 1.324 . S
