# Generated by pormake.
# Topology umm, (4)-cn, num edge types: 1
# Building blocks:
#     Node 0, Type 0, BuildingBlock: KOZSID_clean_sbu_0, # of connection points: 4
#     Node 1, Type 0, BuildingBlock: KOZSID_clean_sbu_0, # of connection points: 4
#     Node 2, Type 0, BuildingBlock: KOZSID_clean_sbu_0, # of connection points: 4
#     Node 3, Type 0, BuildingBlock: KOZSID_clean_sbu_0, # of connection points: 4
#     Node 4, Type 0, BuildingBlock: KOZSID_clean_sbu_0, # of connection points: 4
#     Node 5, Type 0, BuildingBlock: KOZSID_clean_sbu_0, # of connection points: 4
#     Node 6, Type 0, BuildingBlock: KOZSID_clean_sbu_0, # of connection points: 4
#     Node 7, Type 0, BuildingBlock: KOZSID_clean_sbu_0, # of connection points: 4
#     Node 8, Type 0, BuildingBlock: KOZSID_clean_sbu_0, # of connection points: 4
#     Node 9, Type 0, BuildingBlock: KOZSID_clean_sbu_0, # of connection points: 4
#     Node 10, Type 0, BuildingBlock: KOZSID_clean_sbu_0, # of connection points: 4
#     Node 11, Type 0, BuildingBlock: KOZSID_clean_sbu_0, # of connection points: 4
#     Edge 12, Type (0, 0), BuildingBlock: XUDNAN_clean_linker_2, # of connection points: 2
#     Edge 13, Type (0, 0), BuildingBlock: XUDNAN_clean_linker_2, # of connection points: 2
#     Edge 14, Type (0, 0), BuildingBlock: XUDNAN_clean_linker_2, # of connection points: 2
#     Edge 15, Type (0, 0), BuildingBlock: XUDNAN_clean_linker_2, # of connection points: 2
#     Edge 16, Type (0, 0), BuildingBlock: XUDNAN_clean_linker_2, # of connection points: 2
#     Edge 17, Type (0, 0), BuildingBlock: XUDNAN_clean_linker_2, # of connection points: 2
#     Edge 18, Type (0, 0), BuildingBlock: XUDNAN_clean_linker_2, # of connection points: 2
#     Edge 19, Type (0, 0), BuildingBlock: XUDNAN_clean_linker_2, # of connection points: 2
#     Edge 20, Type (0, 0), BuildingBlock: XUDNAN_clean_linker_2, # of connection points: 2
#     Edge 21, Type (0, 0), BuildingBlock: XUDNAN_clean_linker_2, # of connection points: 2
#     Edge 22, Type (0, 0), BuildingBlock: XUDNAN_clean_linker_2, # of connection points: 2
#     Edge 23, Type (0, 0), BuildingBlock: XUDNAN_clean_linker_2, # of connection points: 2
#     Edge 24, Type (0, 0), BuildingBlock: XUDNAN_clean_linker_2, # of connection points: 2
#     Edge 25, Type (0, 0), BuildingBlock: XUDNAN_clean_linker_2, # of connection points: 2
#     Edge 26, Type (0, 0), BuildingBlock: XUDNAN_clean_linker_2, # of connection points: 2
#     Edge 27, Type (0, 0), BuildingBlock: XUDNAN_clean_linker_2, # of connection points: 2
#     Edge 28, Type (0, 0), BuildingBlock: XUDNAN_clean_linker_2, # of connection points: 2
#     Edge 29, Type (0, 0), BuildingBlock: XUDNAN_clean_linker_2, # of connection points: 2
#     Edge 30, Type (0, 0), BuildingBlock: XUDNAN_clean_linker_2, # of connection points: 2
#     Edge 31, Type (0, 0), BuildingBlock: XUDNAN_clean_linker_2, # of connection points: 2
#     Edge 32, Type (0, 0), BuildingBlock: XUDNAN_clean_linker_2, # of connection points: 2
#     Edge 33, Type (0, 0), BuildingBlock: XUDNAN_clean_linker_2, # of connection points: 2
#     Edge 34, Type (0, 0), BuildingBlock: XUDNAN_clean_linker_2, # of connection points: 2
#     Edge 35, Type (0, 0), BuildingBlock: XUDNAN_clean_linker_2, # of connection points: 2
# Relax obj value: 0.060
# Max RMSD: 0.165
# Mean RMSD: 0.165
data_MOF--net-umm--node1-KOZSID_clean_sbu_0--edge1-XUDNAN_clean_linker_2
_symmetry_space_group_name_H-M    P1
_symmetry_Int_Tables_number       1
_symmetry_cell_setting            triclinic
loop_
_symmetry_equiv_pos_as_xyz
'x, y, z'
_cell_length_a     61.883647
_cell_length_b     61.949983
_cell_length_c     38.136383
_cell_angle_alpha  90.166704
_cell_angle_beta   89.95603
_cell_angle_gamma 119.9718
loop_
_atom_site_label
_atom_site_type_symbol
_atom_site_fract_x
_atom_site_fract_y
_atom_site_fract_z
_atom_type_partial_charge
C0 C 0.35733 0.55126 0.09025 0.0
C1 C 0.33241 0.53267 0.09151 0.0
C2 C 0.33177 0.51211 0.10594 0.0
C3 C 0.3562 0.519 0.11224 0.0
N4 N 0.37215 0.54262 0.10257 0.0
Co5 Co 0.40904 0.55932 0.1047 0.0
N6 N 0.40834 0.52701 0.10688 0.0
C7 C 0.38865 0.50507 0.11632 0.0
C8 C 0.39379 0.48592 0.11607 0.0
C9 C 0.4183 0.49656 0.10608 0.0
C10 C 0.42675 0.5217 0.10072 0.0
N11 N 0.44593 0.57598 0.10731 0.0
C12 C 0.46131 0.5666 0.10154 0.0
C13 C 0.48601 0.58482 0.10672 0.0
C14 C 0.48589 0.60617 0.11644 0.0
C15 C 0.46121 0.59988 0.11662 0.0
N16 N 0.40945 0.59141 0.10214 0.0
C17 C 0.42847 0.61374 0.11186 0.0
C18 C 0.4234 0.63269 0.1062 0.0
C19 C 0.39975 0.62145 0.09211 0.0
C20 C 0.3917 0.59621 0.08983 0.0
N21 N 0.40785 0.56026 0.15625 0.0
C22 C 0.40942 0.56437 0.22973 0.0
C23 C 0.39494 0.57146 0.20988 0.0
C24 C 0.39415 0.56895 0.17317 0.0
C25 C 0.4229 0.55509 0.21209 0.0
C26 C 0.42206 0.5534 0.17557 0.0
N27 N 0.41085 0.5589 0.05354 0.0
C28 C 0.43087 0.58022 1.00021 0.0
C29 C 0.41543 0.55897 0.9803 0.0
C30 C 0.39736 0.53769 0.99804 0.0
C31 C 0.39543 0.53802 0.03463 0.0
C32 C 0.42821 0.57983 0.03652 0.0
H33 H 0.38158 0.52139 0.04768 0.0
H34 H 0.44051 0.59651 0.05087 0.0
H35 H 0.38263 0.57423 0.15845 0.0
H36 H 0.43323 0.54675 0.16301 0.0
C37 C 0.36496 0.50256 0.11951 0.0
C38 C 0.36657 0.57703 0.0783 0.0
C39 C 0.45283 0.54031 0.09324 0.0
C40 C 0.45199 0.6165 0.11937 0.0
H41 H 0.31625 0.53336 0.08241 0.0
H42 H 0.31552 0.49383 0.10925 0.0
H43 H 0.38106 0.46642 0.1214 0.0
H44 H 0.42883 0.48699 0.10356 0.0
H45 H 0.50236 0.58288 0.10391 0.0
H46 H 0.50196 0.62431 0.12147 0.0
H47 H 0.4358 0.65245 0.11026 0.0
H48 H 0.38958 0.6307 0.08444 0.0
H49 H 0.38399 0.57843 0.22265 0.0
H50 H 0.43432 0.54941 0.22649 0.0
H51 H 0.44541 0.59698 0.98805 0.0
H52 H 0.38472 0.52089 0.98384 0.0
C53 C 0.81279 0.35361 0.42239 0.0
C54 C 0.80655 0.32877 0.42476 0.0
C55 C 0.82666 0.32851 0.43937 0.0
C56 C 0.8442 0.35306 0.44472 0.0
N57 N 0.83632 0.36873 0.43438 0.0
Co58 Co 0.8565 0.40563 0.43466 0.0
N59 N 0.88827 0.4051 0.437 0.0
C60 C 0.89066 0.38556 0.44684 0.0
C61 C 0.91491 0.39058 0.44605 0.0
C62 C 0.92866 0.4149 0.43539 0.0
C63 C 0.91195 0.42342 0.4304 0.0
N64 N 0.87658 0.44253 0.43534 0.0
C65 C 0.9013 0.45785 0.42936 0.0
C66 C 0.90772 0.48258 0.43388 0.0
C67 C 0.88624 0.48257 0.44322 0.0
C68 C 0.86791 0.45791 0.44397 0.0
N69 N 0.82466 0.40582 0.4319 0.0
C70 C 0.82131 0.42497 0.44069 0.0
C71 C 0.79721 0.41972 0.43491 0.0
C72 C 0.78481 0.39581 0.42167 0.0
C73 C 0.80208 0.38781 0.42 0.0
N74 N 0.85517 0.4061 0.48637 0.0
C75 C 0.8532 0.41649 0.5579 0.0
C76 C 0.83161 0.399 0.54 0.0
C77 C 0.83302 0.39398 0.50423 0.0
C78 C 0.87594 0.42682 0.53991 0.0
C79 C 0.87653 0.42146 0.50451 0.0
N80 N 0.85803 0.40611 0.38337 0.0
C81 C 0.85644 0.4253 0.32935 0.0
C82 C 0.86235 0.40972 0.30995 0.0
C83 C 0.86565 0.39191 0.32834 0.0
C84 C 0.86348 0.39046 0.36501 0.0
C85 C 0.85422 0.42309 0.36569 0.0
H86 H 0.86642 0.37687 0.37857 0.0
H87 H 0.8498 0.43556 0.37953 0.0
H88 H 0.81602 0.38133 0.49059 0.0
H89 H 0.89428 0.43106 0.49146 0.0
C90 C 0.86955 0.36201 0.45118 0.0
C91 C 0.79621 0.36254 0.40935 0.0
C92 C 0.91937 0.44944 0.42255 0.0
C93 C 0.84208 0.44867 0.44717 0.0
H94 H 0.78968 0.31243 0.41615 0.0
H95 H 0.82883 0.31239 0.44325 0.0
H96 H 0.92173 0.37789 0.45146 0.0
H97 H 0.9487 0.4252 0.4321 0.0
H98 H 0.92604 0.49885 0.43117 0.0
H99 H 0.88415 0.49867 0.4479 0.0
H100 H 0.7898 0.43215 0.43824 0.0
H101 H 0.76536 0.38546 0.41411 0.0
H102 H 0.81363 0.39034 0.55291 0.0
H103 H 0.89322 0.43991 0.55277 0.0
H104 H 0.85415 0.43969 0.3168 0.0
H105 H 0.86988 0.37915 0.31461 0.0
C106 C 0.46305 0.80857 0.75756 0.0
C107 C 0.48182 0.80247 0.75793 0.0
C108 C 0.50264 0.82267 0.77142 0.0
C109 C 0.49565 0.84009 0.77813 0.0
N110 N 0.4717 0.83207 0.76977 0.0
Co111 Co 0.45464 0.85198 0.77295 0.0
N112 N 0.48688 0.88395 0.77386 0.0
C113 C 0.50933 0.88639 0.78082 0.0
C114 C 0.52839 0.91065 0.78029 0.0
C115 C 0.51724 0.92444 0.77308 0.0
C116 C 0.49182 0.90775 0.76964 0.0
N117 N 0.43748 0.87174 0.77697 0.0
C118 C 0.44651 0.89663 0.7736 0.0
C119 C 0.42788 0.90242 0.77997 0.0
C120 C 0.40674 0.88053 0.78837 0.0
C121 C 0.4135 0.86255 0.78657 0.0
N122 N 0.4227 0.81992 0.77116 0.0
C123 C 0.40031 0.81624 0.7813 0.0
C124 C 0.38149 0.79216 0.77557 0.0
C125 C 0.39284 0.78007 0.76086 0.0
C126 C 0.41801 0.79751 0.75833 0.0
N127 N 0.4549 0.85026 0.82452 0.0
C128 C 0.45159 0.84824 0.89809 0.0
C129 C 0.44413 0.82653 0.87832 0.0
C130 C 0.44626 0.82799 0.84155 0.0
C131 C 0.46098 0.87088 0.88037 0.0
C132 C 0.46229 0.87147 0.84385 0.0
N133 N 0.45379 0.85366 0.72176 0.0
C134 C 0.4304 0.84954 0.66926 0.0
C135 C 0.45001 0.85173 0.64855 0.0
C136 C 0.4719 0.85564 0.66512 0.0
C137 C 0.47356 0.85693 0.70178 0.0
C138 C 0.43256 0.8503 0.70568 0.0
H139 H 0.49056 0.85995 0.71399 0.0
H140 H 0.41665 0.84742 0.72078 0.0
H141 H 0.44064 0.81107 0.82687 0.0
H142 H 0.46894 0.88922 0.83139 0.0
C143 C 0.51213 0.86543 0.78383 0.0
C144 C 0.43722 0.7919 0.74593 0.0
C145 C 0.47293 0.91553 0.76803 0.0
C146 C 0.39727 0.83671 0.78916 0.0
H147 H 0.48107 0.78562 0.74865 0.0
H148 H 0.52113 0.825 0.7736 0.0
H149 H 0.54808 0.9175 0.7843 0.0
H150 H 0.52668 0.94457 0.77177 0.0
H151 H 0.42953 0.92065 0.77931 0.0
H152 H 0.38852 0.87799 0.79437 0.0
H153 H 0.36171 0.78458 0.77991 0.0
H154 H 0.38372 0.76071 0.75286 0.0
H155 H 0.43707 0.80868 0.89116 0.0
H156 H 0.46695 0.88809 0.89469 0.0
H157 H 0.41307 0.84619 0.65744 0.0
H158 H 0.48751 0.85749 0.64987 0.0
C159 C 0.65987 0.45746 0.08569 0.0
C160 C 0.68501 0.47517 0.08837 0.0
C161 C 0.68629 0.49595 0.1033 0.0
C162 C 0.66197 0.48981 0.10899 0.0
N163 N 0.64551 0.46651 0.09845 0.0
Co164 Co 0.60872 0.45028 0.10233 0.0
N165 N 0.61006 0.48283 0.10719 0.0
C166 C 0.63027 0.50452 0.11634 0.0
C167 C 0.62571 0.52404 0.1172 0.0
C168 C 0.60105 0.51395 0.10829 0.0
C169 C 0.59184 0.48866 0.10272 0.0
N170 N 0.57196 0.43414 0.10642 0.0
C171 C 0.55683 0.44395 0.10208 0.0
C172 C 0.53211 0.42603 0.1078 0.0
C173 C 0.53192 0.40433 0.11603 0.0
C174 C 0.55647 0.41018 0.11498 0.0
N175 N 0.6076 0.41784 0.09741 0.0
C176 C 0.58835 0.39554 0.10665 0.0
C177 C 0.59282 0.37632 0.09978 0.0
C178 C 0.61637 0.38731 0.08557 0.0
C179 C 0.62508 0.41274 0.08466 0.0
N180 N 0.61103 0.44844 0.1536 0.0
C181 C 0.61029 0.44097 0.22667 0.0
C182 C 0.62499 0.43552 0.20422 0.0
C183 C 0.6253 0.4396 0.16807 0.0
C184 C 0.59652 0.45095 0.21147 0.0
C185 C 0.59707 0.45442 0.17512 0.0
N186 N 0.60589 0.45159 0.05142 0.0
C187 C 0.58496 0.43121 0.9979 0.0
C188 C 0.60032 0.45268 0.97852 0.0
C189 C 0.61874 0.47362 0.9966 0.0
C190 C 0.62118 0.47271 0.03302 0.0
C191 C 0.5881 0.43102 0.03406 0.0
H192 H 0.63536 0.48906 0.04633 0.0
H193 H 0.57588 0.41418 0.04801 0.0
H194 H 0.63663 0.43498 0.15171 0.0
H195 H 0.58576 0.46155 0.1644 0.0
C196 C 0.65382 0.50652 0.11796 0.0
C197 C 0.65043 0.43172 0.0736 0.0
C198 C 0.56555 0.47044 0.09543 0.0
C199 C 0.56522 0.39316 0.11567 0.0
H200 H 0.70079 0.47325 0.08056 0.0
H201 H 0.70293 0.51371 0.1081 0.0
H202 H 0.63895 0.54348 0.12226 0.0
H203 H 0.59111 0.52411 0.10621 0.0
H204 H 0.51599 0.42845 0.10643 0.0
H205 H 0.51572 0.38627 0.12088 0.0
H206 H 0.5801 0.35658 0.10326 0.0
H207 H 0.62597 0.37769 0.07689 0.0
H208 H 0.63579 0.4275 0.2142 0.0
H209 H 0.58531 0.45608 0.22742 0.0
H210 H 0.57017 0.4147 0.98544 0.0
H211 H 0.63131 0.49058 0.98278 0.0
C212 C 0.20868 0.65626 0.41434 0.0
C213 C 0.21581 0.68139 0.41448 0.0
C214 C 0.196 0.68304 0.42741 0.0
C215 C 0.17794 0.65897 0.43454 0.0
N216 N 0.18513 0.64228 0.42673 0.0
Co217 Co 0.16491 0.6058 0.43395 0.0
N218 N 0.13353 0.60699 0.43579 0.0
C219 C 0.13165 0.62732 0.44246 0.0
C220 C 0.1074 0.6224 0.44237 0.0
C221 C 0.09318 0.59737 0.43536 0.0
C222 C 0.10964 0.58844 0.43153 0.0
N223 N 0.14451 0.56934 0.44155 0.0
C224 C 0.11963 0.55387 0.43711 0.0
C225 C 0.113 0.52957 0.44552 0.0
C226 C 0.13456 0.53004 0.45576 0.0
C227 C 0.15312 0.55454 0.45303 0.0
N228 N 0.19647 0.60485 0.4319 0.0
C229 C 0.19965 0.58625 0.444 0.0
C230 C 0.22348 0.59063 0.43863 0.0
C231 C 0.236 0.61346 0.42243 0.0
C232 C 0.21913 0.62189 0.4189 0.0
N233 N 0.16873 0.61064 0.48513 0.0
C234 C 0.17541 0.61132 0.55847 0.0
C235 C 0.19556 0.62567 0.5359 0.0
C236 C 0.19179 0.6253 0.49962 0.0
C237 C 0.15164 0.59754 0.54324 0.0
C238 C 0.14873 0.59739 0.50678 0.0
N239 N 0.16108 0.60026 0.38323 0.0
C240 C 0.15947 0.57527 0.33384 0.0
C241 C 0.15296 0.58898 0.31164 0.0
C242 C 0.15128 0.60904 0.32568 0.0
C243 C 0.15522 0.61426 0.36176 0.0
C244 C 0.16367 0.58133 0.36926 0.0
H245 H 0.15317 0.6293 0.37241 0.0
H246 H 0.16863 0.57029 0.38547 0.0
H247 H 0.20779 0.63621 0.48317 0.0
H248 H 0.13031 0.58588 0.49607 0.0
C249 C 0.15299 0.65101 0.44273 0.0
C250 C 0.22542 0.64665 0.40523 0.0
C251 C 0.10194 0.56206 0.42677 0.0
C252 C 0.17896 0.56355 0.45455 0.0
H253 H 0.23354 0.69693 0.40644 0.0
H254 H 0.19466 0.69973 0.43011 0.0
H255 H 0.10087 0.63555 0.44573 0.0
H256 H 0.07304 0.58687 0.43362 0.0
H257 H 0.09458 0.51327 0.44438 0.0
H258 H 0.13657 0.51424 0.46285 0.0
H259 H 0.23066 0.57829 0.4445 0.0
H260 H 0.25531 0.62279 0.41423 0.0
H261 H 0.21439 0.63654 0.54585 0.0
H262 H 0.13528 0.58667 0.55924 0.0
H263 H 0.16122 0.55982 0.32385 0.0
H264 H 0.14628 0.62006 0.30917 0.0
C265 C 0.5587 0.20761 0.75726 0.0
C266 C 0.54012 0.21399 0.75616 0.0
C267 C 0.51831 0.19312 0.76459 0.0
C268 C 0.52459 0.17512 0.77009 0.0
N269 N 0.54922 0.18332 0.76636 0.0
Co270 Co 0.5658 0.16254 0.76955 0.0
N271 N 0.53287 0.13083 0.77289 0.0
C272 C 0.51005 0.12871 0.77256 0.0
C273 C 0.49074 0.10461 0.77356 0.0
C274 C 0.50185 0.09038 0.77441 0.0
C275 C 0.52743 0.10672 0.77408 0.0
N276 N 0.58235 0.14181 0.77389 0.0
C277 C 0.57232 0.11669 0.77645 0.0
C278 C 0.59067 0.11022 0.77993 0.0
C279 C 0.61306 0.13196 0.77947 0.0
C280 C 0.60717 0.15045 0.77589 0.0
N281 N 0.59856 0.19419 0.76419 0.0
C282 C 0.62147 0.1965 0.76497 0.0
C283 C 0.64037 0.22008 0.75731 0.0
C284 C 0.62879 0.23347 0.75027 0.0
C285 C 0.60339 0.21724 0.75399 0.0
N286 N 0.56735 0.16619 0.82184 0.0
C287 C 0.56897 0.16493 0.89625 0.0
C288 C 0.59056 0.17345 0.87606 0.0
C289 C 0.5894 0.17428 0.83951 0.0
C290 C 0.54675 0.15851 0.87832 0.0
C291 C 0.54635 0.15918 0.84157 0.0
N292 N 0.56466 0.15891 0.71786 0.0
C293 C 0.58543 0.15924 0.66406 0.0
C294 C 0.5669 0.15992 0.64423 0.0
C295 C 0.54654 0.15891 0.66174 0.0
C296 C 0.54559 0.158 0.69844 0.0
C297 C 0.58404 0.15889 0.70049 0.0
H298 H 0.52962 0.15716 0.71067 0.0
H299 H 0.59932 0.15939 0.71397 0.0
H300 H 0.60664 0.18103 0.82631 0.0
H301 H 0.52872 0.15352 0.82977 0.0
C302 C 0.50737 0.14973 0.77196 0.0
C303 C 0.58457 0.22443 0.74656 0.0
C304 C 0.54566 0.09832 0.77569 0.0
C305 C 0.6244 0.17578 0.77088 0.0
H306 H 0.5416 0.23141 0.74833 0.0
H307 H 0.49981 0.19088 0.76416 0.0
H308 H 0.47094 0.09816 0.77369 0.0
H309 H 0.49221 0.07022 0.77531 0.0
H310 H 0.58811 0.09167 0.78219 0.0
H311 H 0.63146 0.13399 0.78075 0.0
H312 H 0.66015 0.22655 0.75584 0.0
H313 H 0.63792 0.25283 0.74246 0.0
H314 H 0.60837 0.17871 0.88807 0.0
H315 H 0.52953 0.15267 0.89242 0.0
H316 H 0.60163 0.16018 0.65159 0.0
H317 H 0.5316 0.15909 0.64721 0.0
C318 C 0.46164 0.65826 0.62102 0.0
C319 C 0.48 0.68323 0.62121 0.0
C320 C 0.50166 0.68423 0.61068 0.0
C321 C 0.49535 0.65992 0.60456 0.0
N322 N 0.47108 0.64371 0.61053 0.0
Co323 Co 0.45432 0.607 0.60488 0.0
N324 N 0.48661 0.60732 0.60709 0.0
C325 C 0.50935 0.62753 0.60288 0.0
C326 C 0.52838 0.62232 0.6056 0.0
C327 C 0.51691 0.59719 0.61138 0.0
C328 C 0.49138 0.58837 0.61176 0.0
N329 N 0.43754 0.57026 0.59858 0.0
C330 C 0.4465 0.55436 0.60243 0.0
C331 C 0.42841 0.53022 0.59359 0.0
C332 C 0.4077 0.5312 0.58325 0.0
C333 C 0.41416 0.55579 0.58639 0.0
N334 N 0.42222 0.60705 0.60345 0.0
C335 C 0.40048 0.5886 0.59089 0.0
C336 C 0.38134 0.59367 0.59421 0.0
C337 C 0.39177 0.61678 0.60974 0.0
C338 C 0.41681 0.62461 0.61493 0.0
N339 N 0.45703 0.61041 0.55337 0.0
C340 C 0.4475 0.60191 0.4811 0.0
C341 C 0.44196 0.61835 0.49914 0.0
C342 C 0.44714 0.62256 0.5353 0.0
C343 C 0.46053 0.59233 0.49917 0.0
C344 C 0.46505 0.59673 0.53498 0.0
N345 N 0.45086 0.60256 0.65576 0.0
C346 C 0.42595 0.57806 0.70431 0.0
C347 C 0.44587 0.59123 0.7273 0.0
C348 C 0.4681 0.61105 0.71419 0.0
C349 C 0.47028 0.61634 0.67813 0.0
C350 C 0.42873 0.58414 0.6689 0.0
H351 H 0.48779 0.63108 0.6682 0.0
H352 H 0.41304 0.57334 0.652 0.0
H353 H 0.44156 0.63426 0.54903 0.0
H354 H 0.47332 0.58729 0.54801 0.0
C355 C 0.51223 0.65134 0.60044 0.0
C356 C 0.43529 0.64919 0.62909 0.0
C357 C 0.47255 0.56169 0.61085 0.0
C358 C 0.39802 0.56542 0.5824 0.0
H359 H 0.47799 0.69906 0.62837 0.0
H360 H 0.52003 0.7006 0.60941 0.0
H361 H 0.54822 0.63527 0.60402 0.0
H362 H 0.52628 0.58646 0.61378 0.0
H363 H 0.43019 0.5137 0.59392 0.0
H364 H 0.38991 0.51575 0.57505 0.0
H365 H 0.36189 0.58156 0.58767 0.0
H366 H 0.38203 0.62664 0.61656 0.0
H367 H 0.43226 0.62654 0.48609 0.0
H368 H 0.46592 0.58018 0.48615 0.0
H369 H 0.40837 0.56284 0.7136 0.0
H370 H 0.48389 0.62169 0.73136 0.0
C371 C 0.81292 0.46074 0.95429 0.0
C372 C 0.80775 0.48007 0.95745 0.0
C373 C 0.82848 0.50123 0.94609 0.0
C374 C 0.84529 0.49387 0.93712 0.0
N375 N 0.83644 0.46937 0.94215 0.0
Co376 Co 0.85529 0.45153 0.93459 0.0
N377 N 0.88788 0.48311 0.93587 0.0
C378 C 0.89116 0.50617 0.93211 0.0
C379 C 0.91569 0.52457 0.93392 0.0
C380 C 0.92877 0.51236 0.93868 0.0
C381 C 0.91139 0.48702 0.93946 0.0
N382 N 0.87408 0.43373 0.92636 0.0
C383 C 0.89884 0.4418 0.92952 0.0
C384 C 0.90392 0.42317 0.91976 0.0
C385 C 0.88167 0.40303 0.90958 0.0
C386 C 0.86422 0.41036 0.91372 0.0
N387 N 0.82261 0.42016 0.93406 0.0
C388 C 0.81823 0.39824 0.92064 0.0
C389 C 0.79382 0.37973 0.92466 0.0
C390 C 0.78221 0.39079 0.94162 0.0
C391 C 0.80025 0.41548 0.94711 0.0
N392 N 0.85337 0.45455 0.88333 0.0
C393 C 0.8506 0.45261 0.80962 0.0
C394 C 0.82917 0.44532 0.82994 0.0
C395 C 0.83102 0.44682 0.86676 0.0
C396 C 0.87343 0.46154 0.82689 0.0
C397 C 0.87439 0.46217 0.86347 0.0
N398 N 0.85734 0.44782 0.9853 0.0
C399 C 0.85646 0.42222 0.03323 0.0
C400 C 0.86354 0.44195 0.05672 0.0
C401 C 0.86663 0.46456 0.04408 0.0
C402 C 0.86362 0.46718 1.00809 0.0
C403 C 0.85322 0.42544 0.9979 0.0
H404 H 0.86681 0.48493 0.9986 0.0
H405 H 0.84784 0.4098 0.98067 0.0
H406 H 0.81427 0.44117 0.88183 0.0
H407 H 0.89221 0.46819 0.87553 0.0
C408 C 0.87073 0.50995 0.93162 0.0
C409 C 0.79518 0.43443 0.96219 0.0
C410 C 0.91828 0.46747 0.93843 0.0
C411 C 0.83824 0.39495 0.91064 0.0
H412 H 0.7911 0.47938 0.96756 0.0
H413 H 0.83149 0.52001 0.94657 0.0
H414 H 0.92317 0.54451 0.93261 0.0
H415 H 0.94887 0.52111 0.94035 0.0
H416 H 0.92189 0.42418 0.91949 0.0
H417 H 0.87854 0.38503 0.90096 0.0
H418 H 0.78564 0.36028 0.91749 0.0
H419 H 0.76273 0.3818 0.94895 0.0
H420 H 0.81121 0.43871 0.8175 0.0
H421 H 0.89045 0.46747 0.81214 0.0
H422 H 0.85362 0.40439 0.04211 0.0
H423 H 0.8721 0.48024 0.06159 0.0
C424 C 0.35708 0.80887 0.28702 0.0
C425 C 0.33221 0.80274 0.28849 0.0
C426 C 0.33133 0.82345 0.2781 0.0
C427 C 0.3556 0.84117 0.2713 0.0
N428 N 0.37167 0.83286 0.27677 0.0
Co429 Co 0.40847 0.85286 0.2723 0.0
N430 N 0.40818 0.88465 0.27626 0.0
C431 C 0.38826 0.88751 0.27102 0.0
C432 C 0.39368 0.91175 0.27462 0.0
C433 C 0.41865 0.92502 0.28229 0.0
C434 C 0.42709 0.90803 0.28303 0.0
N435 N 0.44526 0.87291 0.26701 0.0
C436 C 0.46117 0.89742 0.27378 0.0
C437 C 0.48544 0.90383 0.26517 0.0
C438 C 0.48448 0.88266 0.25204 0.0
C439 C 0.45977 0.86448 0.25343 0.0
N440 N 0.40843 0.82092 0.26908 0.0
C441 C 0.42684 0.81785 0.25576 0.0
C442 C 0.42171 0.79359 0.25821 0.0
C443 C 0.39866 0.78076 0.27402 0.0
C444 C 0.39102 0.79796 0.28045 0.0
N445 N 0.40554 0.85336 0.22088 0.0
C446 C 0.41442 0.85298 0.14867 0.0
C447 C 0.39728 0.83102 0.16593 0.0
C448 C 0.39291 0.83166 0.20205 0.0
C449 C 0.42458 0.87539 0.16753 0.0
C450 C 0.41993 0.8752 0.20335 0.0
N451 N 0.4123 0.85223 0.32319 0.0
C452 C 0.43317 0.84512 0.37106 0.0
C453 C 0.4171 0.84678 0.3953 0.0
C454 C 0.39912 0.85239 0.38274 0.0
C455 C 0.39703 0.85507 0.34643 0.0
C456 C 0.43038 0.84772 0.33551 0.0
H457 H 0.38282 0.8589 0.33709 0.0
H458 H 0.44269 0.84546 0.31794 0.0
H459 H 0.38073 0.81433 0.21518 0.0
H460 H 0.42972 0.89264 0.21722 0.0
C461 C 0.36437 0.8667 0.26773 0.0
C462 C 0.36645 0.79172 0.29482 0.0
C463 C 0.45351 0.91517 0.28615 0.0
C464 C 0.4501 0.83878 0.24781 0.0
H465 H 0.31628 0.78547 0.29687 0.0
H466 H 0.31512 0.82578 0.27787 0.0
H467 H 0.38093 0.91888 0.27269 0.0
H468 H 0.4295 0.94499 0.2861 0.0
H469 H 0.50206 0.9219 0.26784 0.0
H470 H 0.50008 0.88063 0.24363 0.0
H471 H 0.43372 0.78627 0.25089 0.0
H472 H 0.38861 0.76107 0.28006 0.0
H473 H 0.38866 0.81329 0.15232 0.0
H474 H 0.43727 0.89296 0.15512 0.0
H475 H 0.44783 0.84156 0.37942 0.0
H476 H 0.38638 0.85399 0.4006 0.0
C477 C 0.5577 0.3566 0.62353 0.0
C478 C 0.53957 0.33154 0.62447 0.0
C479 C 0.51804 0.32983 0.61187 0.0
C480 C 0.52416 0.35382 0.6039 0.0
N481 N 0.54818 0.37052 0.61078 0.0
Co482 Co 0.56458 0.40697 0.60266 0.0
N483 N 0.53204 0.40601 0.60083 0.0
C484 C 0.50964 0.38549 0.59571 0.0
C485 C 0.49033 0.39037 0.59551 0.0
C486 C 0.50125 0.41559 0.60045 0.0
C487 C 0.52676 0.42475 0.60333 0.0
N488 N 0.58092 0.44341 0.59409 0.0
C489 C 0.57157 0.45908 0.59633 0.0
C490 C 0.58951 0.48311 0.58696 0.0
C491 C 0.61059 0.48228 0.57815 0.0
C492 C 0.60446 0.45788 0.58264 0.0
N493 N 0.59702 0.40769 0.60484 0.0
C494 C 0.61887 0.42602 0.59242 0.0
C495 C 0.63818 0.42145 0.59772 0.0
C496 C 0.62775 0.39877 0.61429 0.0
C497 C 0.60254 0.39067 0.61811 0.0
N498 N 0.56337 0.40157 0.5516 0.0
C499 C 0.57288 0.40332 0.47925 0.0
C500 C 0.57734 0.38798 0.50156 0.0
C501 C 0.57217 0.38712 0.53748 0.0
C502 C 0.56156 0.41607 0.49356 0.0
C503 C 0.55697 0.41496 0.52967 0.0
N504 N 0.56651 0.41309 0.65323 0.0
C505 C 0.59018 0.43833 0.70223 0.0
C506 C 0.57012 0.42462 0.72474 0.0
C507 C 0.54831 0.4045 0.71103 0.0
C508 C 0.54679 0.39917 0.67499 0.0
C509 C 0.5881 0.43214 0.66683 0.0
H510 H 0.52965 0.38404 0.66465 0.0
H511 H 0.604 0.44308 0.6504 0.0
H512 H 0.57662 0.37581 0.55409 0.0
H513 H 0.54963 0.42618 0.54001 0.0
C514 C 0.50719 0.3618 0.59615 0.0
C515 C 0.58406 0.36616 0.63229 0.0
C516 C 0.5454 0.45147 0.60417 0.0
C517 C 0.62107 0.44865 0.58146 0.0
H518 H 0.5417 0.31609 0.63317 0.0
H519 H 0.49987 0.31321 0.61011 0.0
H520 H 0.4706 0.37713 0.59295 0.0
H521 H 0.49157 0.42608 0.60111 0.0
H522 H 0.58746 0.49946 0.58616 0.0
H523 H 0.62845 0.49776 0.57037 0.0
H524 H 0.65768 0.43356 0.59151 0.0
H525 H 0.63756 0.38928 0.6225 0.0
H526 H 0.58554 0.37732 0.49153 0.0
H527 H 0.5577 0.42811 0.47741 0.0
H528 H 0.60744 0.45382 0.71198 0.0
H529 H 0.53241 0.39348 0.72779 0.0
C530 C 0.20948 0.55389 0.95163 0.0
C531 C 0.21694 0.53618 0.94962 0.0
C532 C 0.1975 0.51526 0.93494 0.0
C533 C 0.17933 0.52133 0.92876 0.0
N534 N 0.1861 0.54473 0.93869 0.0
Co535 Co 0.16543 0.56085 0.93428 0.0
N536 N 0.13426 0.52819 0.92966 0.0
C537 C 0.13294 0.50639 0.92147 0.0
C538 C 0.10893 0.48681 0.92004 0.0
C539 C 0.09418 0.49693 0.92738 0.0
C540 C 0.11008 0.52229 0.93277 0.0
N541 N 0.14474 0.57696 0.92956 0.0
C542 C 0.11963 0.56704 0.93177 0.0
C543 C 0.11307 0.58508 0.92543 0.0
C544 C 0.1348 0.60686 0.91863 0.0
C545 C 0.15341 0.60101 0.92118 0.0
N546 N 0.19678 0.59336 0.93916 0.0
C547 C 0.19989 0.61565 0.9298 0.0
C548 C 0.22358 0.63489 0.93656 0.0
C549 C 0.23612 0.62394 0.95091 0.0
C550 C 0.21935 0.59853 0.95205 0.0
N551 N 0.16974 0.56254 0.88296 0.0
C552 C 0.17711 0.57386 0.81094 0.0
C553 C 0.1971 0.57811 0.83285 0.0
C554 C 0.193 0.5721 0.86857 0.0
C555 C 0.15313 0.56221 0.82551 0.0
C556 C 0.14986 0.55675 0.86141 0.0
N557 N 0.16114 0.55981 0.98522 0.0
C558 C 0.16057 0.58059 0.03838 0.0
C559 C 0.1545 0.55929 0.05814 0.0
C560 C 0.152 0.53822 0.04043 0.0
C561 C 0.15536 0.53886 1.004 0.0
C562 C 0.16386 0.58048 1.00223 0.0
H563 H 0.15324 0.52242 0.991 0.0
H564 H 0.16845 0.59721 0.98803 0.0
H565 H 0.20887 0.57622 0.88485 0.0
H566 H 0.13129 0.54894 0.87192 0.0
C567 C 0.15451 0.50447 0.92016 0.0
C568 C 0.22567 0.57966 0.96355 0.0
C569 C 0.1014 0.54037 0.93645 0.0
C570 C 0.17918 0.61799 0.9207 0.0
H571 H 0.23459 0.53817 0.95782 0.0
H572 H 0.19637 0.49744 0.93074 0.0
H573 H 0.10287 0.46739 0.91509 0.0
H574 H 0.074 0.48687 0.92793 0.0
H575 H 0.09449 0.58263 0.9252 0.0
H576 H 0.1368 0.62492 0.9133 0.0
H577 H 0.23063 0.65461 0.93289 0.0
H578 H 0.25535 0.63354 0.95954 0.0
H579 H 0.21592 0.58659 0.82266 0.0
H580 H 0.13709 0.55853 0.80974 0.0
H581 H 0.1623 0.59719 0.05055 0.0
H582 H 0.14762 0.52138 0.05455 0.0
C583 C 0.66411 0.20416 0.28412 0.0
C584 C 0.6892 0.21113 0.28423 0.0
C585 C 0.69045 0.19035 0.27502 0.0
C586 C 0.66617 0.17194 0.2697 0.0
N587 N 0.64979 0.1799 0.27491 0.0
Co588 Co 0.61309 0.15948 0.27039 0.0
N589 N 0.61388 0.12802 0.27586 0.0
C590 C 0.63407 0.12544 0.27156 0.0
C591 C 0.62902 0.10142 0.27654 0.0
C592 C 0.60403 0.08801 0.28407 0.0
C593 C 0.59518 0.10465 0.28314 0.0
N594 N 0.57636 0.13897 0.26514 0.0
C595 C 0.56073 0.11454 0.2724 0.0
C596 C 0.53642 0.10753 0.26306 0.0
C597 C 0.53704 0.12831 0.24923 0.0
C598 C 0.56162 0.14683 0.25081 0.0
N599 N 0.6127 0.19118 0.26569 0.0
C600 C 0.59405 0.19364 0.25194 0.0
C601 C 0.5988 0.21781 0.2535 0.0
C602 C 0.62187 0.23125 0.26912 0.0
C603 C 0.63001 0.21453 0.27616 0.0
N604 N 0.61598 0.15789 0.21911 0.0
C605 C 0.60627 0.15597 0.14681 0.0
C606 C 0.62264 0.17868 0.16335 0.0
C607 C 0.6276 0.17917 0.19942 0.0
C608 C 0.59754 0.13412 0.16656 0.0
C609 C 0.60236 0.13547 0.20243 0.0
N610 N 0.60925 0.16108 0.32101 0.0
C611 C 0.58821 0.16877 0.36813 0.0
C612 C 0.60403 0.16711 0.39271 0.0
C613 C 0.62208 0.1614 0.38077 0.0
C614 C 0.62442 0.15848 0.34463 0.0
C615 C 0.59115 0.1658 0.33274 0.0
H616 H 0.63866 0.15454 0.33571 0.0
H617 H 0.5789 0.16781 0.3148 0.0
H618 H 0.63934 0.19698 0.21182 0.0
H619 H 0.59333 0.11831 0.2169 0.0
C620 C 0.6578 0.14639 0.26746 0.0
C621 C 0.65459 0.22123 0.29116 0.0
C622 C 0.56863 0.09719 0.28539 0.0
C623 C 0.57094 0.17235 0.24437 0.0
H624 H 0.70491 0.22924 0.29055 0.0
H625 H 0.70699 0.18858 0.27421 0.0
H626 H 0.64202 0.09456 0.2756 0.0
H627 H 0.59347 0.06817 0.28894 0.0
H628 H 0.52005 0.08926 0.26558 0.0
H629 H 0.52132 0.12986 0.24007 0.0
H630 H 0.58648 0.22466 0.24584 0.0
H631 H 0.63145 0.25101 0.27483 0.0
H632 H 0.63034 0.19611 0.14923 0.0
H633 H 0.58583 0.11596 0.15485 0.0
H634 H 0.57356 0.17247 0.37612 0.0
H635 H 0.63462 0.15982 0.39901 0.0
H636 H 0.42465 0.60537 0.27318 0.0
H637 H 0.39628 0.52569 0.27394 0.0
H638 H 0.40035 0.52672 0.33839 0.0
H639 H 0.4708 0.62018 0.3384 0.0
H640 H 0.46754 0.64462 0.359 0.0
H641 H 0.46004 0.63759 0.31326 0.0
H642 H 0.41578 0.63072 0.32445 0.0
H643 H 0.42317 0.63783 0.37026 0.0
H644 H 0.39632 0.60878 0.3574 0.0
H645 H 0.40951 0.5362 0.40136 0.0
H646 H 0.42407 0.55359 0.46025 0.0
H647 H 0.44812 0.62791 0.42096 0.0
C648 C 0.41881 0.58813 0.28715 0.0
C649 C 0.40987 0.56534 0.26871 0.0
C650 C 0.40301 0.54324 0.28764 0.0
C651 C 0.40523 0.54367 0.32423 0.0
C652 C 0.41448 0.5664 0.34165 0.0
C653 C 0.42119 0.58828 0.32392 0.0
C654 C 0.43214 0.61034 0.34917 0.0
C655 C 0.45924 0.6293 0.33936 0.0
C656 C 0.41588 0.62264 0.35039 0.0
C657 C 0.43086 0.59743 0.38365 0.0
C658 C 0.42037 0.57204 0.37849 0.0
C659 C 0.41772 0.55604 0.40574 0.0
C660 C 0.42624 0.56616 0.43912 0.0
C661 C 0.43755 0.59217 0.44529 0.0
C662 C 0.43949 0.60797 0.41715 0.0
H663 H 0.82832 0.38997 0.61801 0.0
H664 H 0.87629 0.46487 0.57887 0.0
H665 H 0.87822 0.4819 0.63783 0.0
H666 H 0.79382 0.40685 0.68155 0.0
H667 H 0.79227 0.38519 0.71427 0.0
H668 H 0.79313 0.37854 0.6684 0.0
H669 H 0.8318 0.37377 0.67944 0.0
H670 H 0.83106 0.3804 0.72528 0.0
H671 H 0.859 0.39887 0.70009 0.0
H672 H 0.87795 0.49108 0.70106 0.0
H673 H 0.87474 0.49176 0.76558 0.0
H674 H 0.82605 0.41161 0.76587 0.0
C675 C 0.8389 0.40996 0.62183 0.0
C676 C 0.85236 0.42604 0.59369 0.0
C677 C 0.86616 0.4521 0.59996 0.0
C678 C 0.86725 0.46201 0.63339 0.0
C679 C 0.85428 0.44574 0.66063 0.0
C680 C 0.84024 0.42028 0.65538 0.0
C681 C 0.82898 0.40708 0.68988 0.0
C682 C 0.80034 0.39362 0.68843 0.0
C683 C 0.83827 0.38896 0.69922 0.0
C684 C 0.83926 0.42908 0.71521 0.0
C685 C 0.85373 0.45118 0.69756 0.0
C686 C 0.86638 0.47395 0.71513 0.0
C687 C 0.86447 0.47418 0.75176 0.0
C688 C 0.84988 0.45186 0.7706 0.0
C689 C 0.83686 0.42902 0.75199 0.0
H690 H 0.41053 0.82358 0.94151 0.0
H691 H 0.49055 0.87356 0.94225 0.0
H692 H 0.4896 0.87786 1.00653 0.0
H693 H 0.39655 0.85666 1.00477 0.0
H694 H 0.37177 0.82964 0.02597 0.0
H695 H 0.3787 0.82808 0.98048 0.0
H696 H 0.38474 0.79046 0.99359 0.0
H697 H 0.37767 0.7918 0.03914 0.0
H698 H 0.4065 0.79317 0.0271 0.0
H699 H 0.48014 0.87919 0.06921 0.0
H700 H 0.46285 0.87758 0.12779 0.0
H701 H 0.38824 0.82748 0.08853 0.0
C702 C 0.42786 0.8349 0.95547 0.0
C703 C 0.45072 0.84804 0.93706 0.0
C704 C 0.47295 0.86325 0.95595 0.0
C705 C 0.47257 0.86578 0.99243 0.0
C706 C 0.44976 0.85306 1.00979 0.0
C707 C 0.42777 0.83785 0.99212 0.0
C708 C 0.40568 0.8276 1.01721 0.0
C709 C 0.38708 0.83601 1.00646 0.0
C710 C 0.39289 0.79906 1.01939 0.0
C711 C 0.41871 0.83976 0.0515 0.0
C712 C 0.44415 0.8542 0.04643 0.0
C713 C 0.46025 0.86791 0.07354 0.0
C714 C 0.45017 0.86703 0.10673 0.0
C715 C 0.42412 0.85268 0.11284 0.0
C716 C 0.40822 0.83856 0.0848 0.0
H717 H 0.57051 0.42699 0.27254 0.0
H718 H 0.64771 0.44413 0.26949 0.0
H719 H 0.64566 0.43461 0.33238 0.0
H720 H 0.57526 0.45564 0.3573 0.0
H721 H 0.54412 0.43274 0.37047 0.0
H722 H 0.55124 0.43995 0.32471 0.0
H723 H 0.53494 0.3933 0.3114 0.0
H724 H 0.52793 0.38596 0.35715 0.0
H725 H 0.54797 0.37713 0.33464 0.0
H726 H 0.63528 0.42265 0.39569 0.0
H727 H 0.61829 0.41229 0.45573 0.0
H728 H 0.54871 0.40538 0.41924 0.0
C729 C 0.58715 0.42907 0.28498 0.0
C730 C 0.60922 0.43609 0.2654 0.0
C731 C 0.63034 0.43819 0.28321 0.0
C732 C 0.62944 0.43299 0.31917 0.0
C733 C 0.60739 0.42594 0.33741 0.0
C734 C 0.58671 0.42425 0.32105 0.0
C735 C 0.56555 0.41697 0.34704 0.0
C736 C 0.55864 0.43756 0.35005 0.0
C737 C 0.54275 0.39185 0.33694 0.0
C738 C 0.57759 0.41482 0.38054 0.0
C739 C 0.60165 0.41983 0.37426 0.0
C740 C 0.61646 0.41872 0.40091 0.0
C741 C 0.60656 0.41262 0.43492 0.0
C742 C 0.58211 0.40787 0.44229 0.0
C743 C 0.56748 0.40898 0.41453 0.0
H744 H 0.14926 0.57197 0.60472 0.0
H745 H 0.21027 0.64859 0.60114 0.0
H746 H 0.21807 0.64655 0.66393 0.0
H747 H 0.12642 0.57767 0.69008 0.0
H748 H 0.11768 0.54641 0.70312 0.0
H749 H 0.11731 0.55353 0.65744 0.0
H750 H 0.14677 0.53623 0.64337 0.0
H751 H 0.14737 0.52921 0.68904 0.0
H752 H 0.17615 0.54871 0.66612 0.0
H753 H 0.21998 0.6361 0.72727 0.0
H754 H 0.21374 0.6191 0.78721 0.0
H755 H 0.14999 0.55017 0.75116 0.0
C756 C 0.16408 0.58852 0.61702 0.0
C757 C 0.17929 0.6104 0.59727 0.0
C758 C 0.19866 0.63135 0.61495 0.0
C759 C 0.20317 0.63046 0.65087 0.0
C760 C 0.18801 0.60859 0.66925 0.0
C761 C 0.16865 0.58809 0.65306 0.0
C762 C 0.1547 0.56708 0.67914 0.0
C763 C 0.12741 0.56081 0.68265 0.0
C764 C 0.15636 0.54394 0.66879 0.0
C765 C 0.16933 0.57895 0.71248 0.0
C766 C 0.18859 0.60284 0.70607 0.0
C767 C 0.20492 0.61744 0.73257 0.0
C768 C 0.20133 0.60752 0.76654 0.0
C769 C 0.18145 0.58324 0.77404 0.0
C770 C 0.16529 0.56882 0.74642 0.0
H771 H 0.63045 0.18535 0.0884 0.0
H772 H 0.55898 0.1244 0.123 0.0
H773 H 0.54197 0.12091 0.0639 0.0
H774 H 0.60378 0.21346 0.03116 0.0
H775 H 0.62772 0.22259 0.99831 0.0
H776 H 0.63474 0.22052 0.04361 0.0
H777 H 0.65019 0.19004 0.02641 0.0
H778 H 0.64317 0.19197 0.9811 0.0
H779 H 0.62975 0.16205 1.00232 0.0
H780 H 0.53279 0.12232 1.00073 0.0
H781 H 0.53173 0.12951 0.93767 0.0
H782 H 0.60761 0.19202 0.94373 0.0
C783 C 0.61119 0.17139 0.08367 0.0
C784 C 0.59636 0.15478 0.11056 0.0
C785 C 0.57116 0.13682 0.1029 0.0
C786 C 0.56114 0.13483 0.06936 0.0
C787 C 0.57629 0.15116 0.0435 0.0
C788 C 0.60069 0.16925 0.05019 0.0
C789 C 0.61276 0.18444 1.01739 0.0
C790 C 0.62018 0.21188 0.02296 0.0
C791 C 0.6353 0.18197 1.00615 0.0
C792 C 0.59141 0.17175 0.99129 0.0
C793 C 0.57059 0.15262 1.00701 0.0
C794 C 0.54886 0.13753 0.98818 0.0
C795 C 0.54839 0.14197 0.95223 0.0
C796 C 0.56944 0.16156 0.93517 0.0
C797 C 0.59116 0.17674 0.95542 0.0
H798 H 0.32133 0.57256 0.09774 0.0
H799 H 0.37496 0.59736 1.01293 0.0
H800 H 0.34652 0.60524 0.97628 0.0
H801 H 0.26859 0.53783 0.04345 0.0
H802 H 0.248 0.54451 0.06877 0.0
H803 H 0.27398 0.54436 0.08972 0.0
H804 H 0.28991 0.58934 0.11218 0.0
H805 H 0.26399 0.58965 0.09116 0.0
H806 H 0.29547 0.61356 0.08131 0.0
H807 H 0.31045 0.6071 0.94717 0.0
H808 H 0.26967 0.60123 0.92749 0.0
H809 H 0.23823 0.5722 0.02965 0.0
C810 C 0.32706 0.57965 0.07143 0.0
C811 C 0.35021 0.58396 0.0579 0.0
C812 C 0.3573 0.59386 0.02372 0.0
C813 C 0.34123 0.59835 1.00275 0.0
C814 C 0.31806 0.59287 1.01633 0.0
C815 C 0.31098 0.58366 0.04991 0.0
C816 C 0.28429 0.57728 0.05727 0.0
C817 C 0.26774 0.54934 0.06527 0.0
C818 C 0.28337 0.59343 0.08726 0.0
C819 C 0.27729 0.58402 0.0225 0.0
C820 C 0.29717 0.59337 0.99939 0.0
C821 C 0.29492 0.6001 0.96524 0.0
C822 C 0.27176 0.59685 0.95431 0.0
C823 C 0.25105 0.58685 0.97731 0.0
C824 C 0.25396 0.58047 1.01187 0.0
H825 H 0.75511 0.31721 0.42782 0.0
H826 H 0.78531 0.37065 0.34313 0.0
H827 H 0.74966 0.34217 0.30537 0.0
H828 H 0.73774 0.26421 0.37392 0.0
H829 H 0.71006 0.24385 0.39851 0.0
H830 H 0.73596 0.26978 0.41997 0.0
H831 H 0.7067 0.28596 0.44066 0.0
H832 H 0.68073 0.26012 0.41904 0.0
H833 H 0.68861 0.29161 0.40878 0.0
H834 H 0.71223 0.30596 0.27516 0.0
H835 H 0.67769 0.26519 0.2548 0.0
H836 H 0.67329 0.23419 0.35787 0.0
C837 C 0.75424 0.32288 0.40128 0.0
C838 C 0.77327 0.34602 0.38816 0.0
C839 C 0.77101 0.35302 0.35365 0.0
C840 C 0.75082 0.33691 0.33204 0.0
C841 C 0.7329 0.31378 0.34529 0.0
C842 C 0.73447 0.30677 0.37915 0.0
C843 C 0.71396 0.28017 0.38622 0.0
C844 C 0.7251 0.26352 0.39517 0.0
C845 C 0.69646 0.27943 0.41541 0.0
C846 C 0.70073 0.27314 0.35097 0.0
C847 C 0.71172 0.29291 0.32783 0.0
C848 C 0.70332 0.29054 0.29327 0.0
C849 C 0.68356 0.26737 0.28195 0.0
C850 C 0.67235 0.24677 0.30501 0.0
C851 C 0.68106 0.24984 0.33999 0.0
H852 H 0.44148 0.75102 0.76465 0.0
H853 H 0.41765 0.78073 0.67994 0.0
H854 H 0.41017 0.74483 0.64245 0.0
H855 H 0.47654 0.73319 0.71076 0.0
H856 H 0.46943 0.70569 0.73555 0.0
H857 H 0.46953 0.7317 0.75688 0.0
H858 H 0.42422 0.70268 0.77805 0.0
H859 H 0.42398 0.67658 0.75665 0.0
H860 H 0.40027 0.68438 0.74645 0.0
H861 H 0.40873 0.70723 0.61256 0.0
H862 H 0.41467 0.67243 0.59251 0.0
H863 H 0.44184 0.66858 0.69552 0.0
C864 C 0.43457 0.74987 0.73824 0.0
C865 C 0.4304 0.76881 0.72499 0.0
C866 C 0.42095 0.76643 0.69055 0.0
C867 C 0.41671 0.74612 0.6691 0.0
C868 C 0.42196 0.72824 0.68247 0.0
C869 C 0.43073 0.72998 0.71629 0.0
C870 C 0.43689 0.70953 0.72348 0.0
C871 C 0.46475 0.7207 0.73217 0.0
C872 C 0.42035 0.69227 0.75291 0.0
C873 C 0.43046 0.69611 0.68838 0.0
C874 C 0.42156 0.70698 0.66518 0.0
C875 C 0.41533 0.6984 0.63071 0.0
C876 C 0.41859 0.67852 0.61957 0.0
C877 C 0.42803 0.66738 0.64273 0.0
C878 C 0.43394 0.67631 0.67759 0.0
H879 H 0.67288 0.44206 1.00895 0.0
H880 H 0.67073 0.40749 0.10834 0.0
H881 H 0.70526 0.40097 0.08874 0.0
H882 H 0.68853 0.40217 0.95384 0.0
H883 H 0.70882 0.42769 0.92574 0.0
H884 H 0.68248 0.4274 0.94644 0.0
H885 H 0.71194 0.47076 0.97366 0.0
H886 H 0.73836 0.47112 0.95327 0.0
H887 H 0.73798 0.47509 1.00006 0.0
H888 H 0.74312 0.40221 0.06024 0.0
H889 H 0.78018 0.41043 0.02497 0.0
H890 H 0.75639 0.44199 0.94269 0.0
C891 C 0.67927 0.43248 0.02609 0.0
C892 C 0.66872 0.42464 0.0598 0.0
C893 C 0.6781 0.41297 0.08207 0.0
C894 C 0.69779 0.40933 0.07119 0.0
C895 C 0.70796 0.41743 0.03786 0.0
C896 C 0.69884 0.42856 1.01549 0.0
C897 C 0.71386 0.43671 0.98174 0.0
C898 C 0.69744 0.42265 0.95006 0.0
C899 C 0.72626 0.4651 0.97692 0.0
C900 C 0.73314 0.42891 0.98883 0.0
C901 C 0.72945 0.41782 0.02136 0.0
C902 C 0.74594 0.4106 0.03457 0.0
C903 C 0.76691 0.41527 1.01438 0.0
C904 C 0.77131 0.42709 0.98136 0.0
C905 C 0.75367 0.43319 0.96806 0.0
H906 H 0.23814 0.66779 0.33987 0.0
H907 H 0.26966 0.66791 0.44119 0.0
H908 H 0.31064 0.70255 0.42195 0.0
H909 H 0.29484 0.68409 0.28678 0.0
H910 H 0.28925 0.70361 0.25757 0.0
H911 H 0.26337 0.67712 0.27808 0.0
H912 H 0.24795 0.70591 0.30331 0.0
H913 H 0.27382 0.73249 0.28313 0.0
H914 H 0.2688 0.73243 0.32969 0.0
H915 H 0.34709 0.74055 0.39356 0.0
H916 H 0.37552 0.77768 0.35833 0.0
H917 H 0.32117 0.75172 0.2743 0.0
C918 C 0.25394 0.67463 0.35751 0.0
C919 C 0.25096 0.66467 0.39167 0.0
C920 C 0.27176 0.67473 0.41457 0.0
C921 C 0.29506 0.69452 0.4039 0.0
C922 C 0.29736 0.70413 0.37015 0.0
C923 C 0.27737 0.69434 0.34716 0.0
C924 C 0.2843 0.70898 0.31313 0.0
C925 C 0.28286 0.69246 0.28205 0.0
C926 C 0.26773 0.72064 0.30697 0.0
C927 C 0.31109 0.72885 0.32075 0.0
C928 C 0.31833 0.72575 0.35377 0.0
C929 C 0.34168 0.74289 0.3675 0.0
C930 C 0.35776 0.7639 0.34731 0.0
C931 C 0.35048 0.76769 0.31379 0.0
C932 C 0.32715 0.74943 0.30001 0.0
H933 H 0.58162 0.26587 0.76661 0.0
H934 H 0.60188 0.23469 0.67934 0.0
H935 H 0.60868 0.27037 0.6423 0.0
H936 H 0.54522 0.28337 0.7157 0.0
H937 H 0.55322 0.31123 0.74041 0.0
H938 H 0.55371 0.28547 0.7613 0.0
H939 H 0.5997 0.31462 0.77974 0.0
H940 H 0.59934 0.34049 0.75881 0.0
H941 H 0.62262 0.33244 0.7468 0.0
H942 H 0.60986 0.30782 0.61333 0.0
H943 H 0.60349 0.34246 0.59426 0.0
H944 H 0.57949 0.34773 0.69899 0.0
C945 C 0.58777 0.26676 0.7398 0.0
C946 C 0.59117 0.24748 0.72576 0.0
C947 C 0.5993 0.24932 0.69063 0.0
C948 C 0.60314 0.2695 0.66942 0.0
C949 C 0.59871 0.28773 0.68365 0.0
C950 C 0.59109 0.28648 0.71804 0.0
C951 C 0.58526 0.30709 0.72601 0.0
C952 C 0.55772 0.29613 0.73647 0.0
C953 C 0.60278 0.3247 0.75453 0.0
C954 C 0.59058 0.32005 0.69072 0.0
C955 C 0.59868 0.30882 0.66675 0.0
C956 C 0.60386 0.31692 0.63204 0.0
C957 C 0.60034 0.33669 0.62145 0.0
C958 C 0.59163 0.34813 0.64537 0.0
C959 C 0.5868 0.33972 0.68046 0.0
H960 H 0.48562 0.53707 0.13858 0.0
H961 H 0.4589 0.52191 0.03149 0.0
H962 H 0.48466 0.50221 0.02005 0.0
H963 H 0.54944 0.5506 0.12049 0.0
H964 H 0.55123 0.53565 0.15997 0.0
H965 H 0.53186 0.54973 0.15872 0.0
H966 H 0.49384 0.50782 0.17782 0.0
H967 H 0.51302 0.49352 0.17872 0.0
H968 H 0.48514 0.48013 0.15228 0.0
H969 H 0.51244 0.48273 0.02119 0.0
H970 H 0.54108 0.46657 0.03427 0.0
H971 H 0.54897 0.49359 0.14096 0.0
C972 C 0.48574 0.53011 0.11254 0.0
C973 C 0.47082 0.53149 0.08556 0.0
C974 C 0.47066 0.52145 0.05216 0.0
C975 C 0.48511 0.51013 0.04555 0.0
C976 C 0.49949 0.50883 0.07277 0.0
C977 C 0.5 0.51866 0.10557 0.0
C978 C 0.51643 0.51418 0.13058 0.0
C979 C 0.53855 0.53902 0.14318 0.0
C980 C 0.50119 0.49795 0.16169 0.0
C981 C 0.52505 0.50026 0.10684 0.0
C982 C 0.5151 0.49735 0.07356 0.0
C983 C 0.5204 0.48503 0.04712 0.0
C984 C 0.53658 0.47583 0.05474 0.0
C985 C 0.5473 0.47905 0.08842 0.0
C986 C 0.54112 0.49108 0.11489 0.0
H987 H 0.95741 0.46965 0.4708 0.0
H988 H 0.94177 0.47012 0.36028 0.0
H989 H 0.98694 0.49811 0.34881 0.0
H990 H 1.00735 0.53438 0.47664 0.0
H991 H 0.02538 0.52765 0.50722 0.0
H992 H 0.99191 0.50849 0.50638 0.0
H993 H 0.9962 0.46936 0.49705 0.0
H994 H 0.0297 0.48845 0.49741 0.0
H995 H 0.01418 0.4683 0.46055 0.0
H996 H 0.03422 0.52575 0.34965 0.0
H997 H 0.07935 0.55197 0.36297 0.0
H998 H 0.06437 0.53287 0.47282 0.0
C999 C 0.96359 0.47592 0.44428 0.0
C1000 C 0.94626 0.46789 0.41631 0.0
C1001 C 0.95485 0.47623 0.38194 0.0
C1002 C 0.98044 0.49201 0.37525 0.0
C1003 C 0.99719 0.49928 0.40328 0.0
C1004 C 0.98908 0.49161 0.43717 0.0
C1005 C 0.01088 0.50192 0.46261 0.0
C1006 C 1.00875 0.51914 0.48982 0.0
C1007 C 0.01285 0.48074 0.48046 0.0
C1008 C 0.03258 0.51652 0.43782 0.0
C1009 C 0.02429 0.51477 0.40368 0.0
C1010 C 0.04086 0.5271 0.37625 0.0
C1011 C 0.06644 0.54181 0.38396 0.0
C1012 C 0.07526 0.54393 0.41869 0.0
C1013 C 0.05809 0.53104 0.44591 0.0
H1014 H 0.5386 0.06243 0.72692 0.0
H1015 H 0.53116 0.07347 0.83747 0.0
H1016 H 0.51117 0.02794 0.84726 0.0
H1017 H 0.48037 0.00643 0.71686 0.0
H1018 H 0.49167 0.99167 0.68704 0.0
H1019 H 0.50659 0.02516 0.68877 0.0
H1020 H 0.54915 0.02821 0.70144 0.0
H1021 H 0.53442 0.99474 0.69924 0.0
H1022 H 0.55189 0.01112 0.73771 0.0
H1023 H 0.49037 0.98123 0.8446 0.0
H1024 H 0.47267 0.9365 0.83051 0.0
H1025 H 0.49353 0.95503 0.72164 0.0
C1026 C 0.53315 0.05517 0.75322 0.0
C1027 C 0.53661 0.07131 0.78163 0.0
C1028 C 0.52889 0.0613 0.8156 0.0
C1029 C 0.51742 0.03552 0.82129 0.0
C1030 C 0.51383 0.01996 0.79271 0.0
C1031 C 0.5217 0.02938 0.75938 0.0
C1032 C 0.5153 0.00845 0.73322 0.0
C1033 C 0.49742 0.00791 0.7048 0.0
C1034 C 0.53911 0.01078 0.71694 0.0
C1035 C 0.50244 0.98582 0.75696 0.0
C1036 C 0.50175 0.99294 0.79116 0.0
C1037 C 0.49081 0.97547 0.81792 0.0
C1038 C 0.48065 0.95012 0.80968 0.0
C1039 C 0.48139 0.94238 0.77497 0.0
C1040 C 0.4924 0.96049 0.74827 0.0
H1041 H 0.48741 0.53794 0.65837 0.0
H1042 H 0.47892 0.54607 0.54727 0.0
H1043 H 0.49761 0.51982 0.53369 0.0
H1044 H 0.54623 0.54002 0.65311 0.0
H1045 H 0.53918 0.51678 0.68633 0.0
H1046 H 0.52455 0.53565 0.68769 0.0
H1047 H 0.48092 0.49593 0.68796 0.0
H1048 H 0.49543 0.47694 0.68704 0.0
H1049 H 0.47293 0.4729 0.65391 0.0
H1050 H 0.51858 0.49414 0.53194 0.0
H1051 H 0.53758 0.46775 0.5422 0.0
H1052 H 0.53186 0.47478 0.65438 0.0
C1053 C 0.4892 0.5338 0.63128 0.0
C1054 C 0.48149 0.5437 0.60377 0.0
C1055 C 0.48443 0.53833 0.56859 0.0
C1056 C 0.49515 0.52358 0.56069 0.0
C1057 C 0.50282 0.51426 0.58828 0.0
C1058 C 0.49975 0.51888 0.6229 0.0
C1059 C 0.50955 0.50642 0.64746 0.0
C1060 C 0.53116 0.52588 0.66998 0.0
C1061 C 0.48845 0.48689 0.67045 0.0
C1062 C 0.51868 0.49419 0.62126 0.0
C1063 C 0.51475 0.49916 0.58726 0.0
C1064 C 0.52171 0.49011 0.55844 0.0
C1065 C 0.53261 0.4753 0.56445 0.0
C1066 C 0.5364 0.46957 0.59897 0.0
C1067 C 0.5294 0.4792 0.62775 0.0
H1068 H 0.0641 0.52747 0.98573 0.0
H1069 H 0.07779 0.53166 0.8739 0.0
H1070 H 0.03244 0.51205 0.86253 0.0
H1071 H 1.00767 0.46847 0.98589 0.0
H1072 H 0.99215 0.47677 1.01879 0.0
H1073 H 0.02569 0.4917 1.0185 0.0
H1074 H 0.02907 0.53504 1.01541 0.0
H1075 H 0.99554 0.52025 1.01621 0.0
H1076 H 0.01289 0.54126 0.98112 0.0
H1077 H 0.98574 0.49056 0.86319 0.0
H1078 H 0.94067 0.47209 0.8756 0.0
H1079 H 0.95636 0.48253 0.98697 0.0
C1080 C 0.05743 0.52454 0.95893 0.0
C1081 C 0.0743 0.53118 0.93057 0.0
C1082 C 0.06507 0.52687 0.89582 0.0
C1083 C 0.03938 0.51563 0.88919 0.0
C1084 C 0.02311 0.5089 0.91762 0.0
C1085 C 0.03173 0.51349 0.95181 0.0
C1086 C 0.01011 0.50462 0.97746 0.0
C1087 C 1.00884 0.48418 1.00158 0.0
C1088 C 0.01202 0.52661 0.99881 0.0
C1089 C 0.98806 0.49419 0.95237 0.0
C1090 C 0.99605 0.49672 0.91798 0.0
C1091 C 0.97928 0.48849 0.89 0.0
C1092 C 0.95373 0.47785 0.89726 0.0
C1093 C 0.94511 0.47553 0.93217 0.0
C1094 C 0.96251 0.48373 0.96009 0.0
H1095 H 0.48512 0.95141 0.23996 0.0
H1096 H 0.46225 0.93925 0.34879 0.0
H1097 H 0.48884 0.98449 0.36065 0.0
H1098 H 0.54993 1.00079 0.25547 0.0
H1099 H 0.5508 0.01799 0.21695 0.0
H1100 H 0.53106 0.9846 0.21786 0.0
H1101 H 0.49295 0.98944 0.20241 0.0
H1102 H 0.51249 0.02284 0.20195 0.0
H1103 H 0.48542 0.00848 0.22992 0.0
H1104 H 0.51694 0.03157 0.35997 0.0
H1105 H 0.54567 0.07634 0.34727 0.0
H1106 H 0.55011 0.05806 0.23884 0.0
C1107 C 0.48627 0.95828 0.26643 0.0
C1108 C 0.47216 0.94184 0.29376 0.0
C1109 C 0.47337 0.95153 0.32779 0.0
C1110 C 0.4883 0.97718 0.33465 0.0
C1111 C 0.50184 0.99299 0.30712 0.0
C1112 C 0.50111 0.98388 0.27371 0.0
C1113 C 0.517 1.00491 0.24859 0.0
C1114 C 0.53847 1.00189 0.23385 0.0
C1115 C 0.501 0.0065 0.21897 0.0
C1116 C 0.52666 0.02728 0.27295 0.0
C1117 C 0.5177 0.02002 0.30663 0.0
C1118 C 0.52407 0.03741 0.33371 0.0
C1119 C 0.54027 0.06277 0.3263 0.0
C1120 C 0.54986 0.07051 0.29216 0.0
C1121 C 0.54281 0.05254 0.26513 0.0
H1122 H 0.44941 0.6178 0.78705 0.0
H1123 H 0.43543 0.5457 0.7502 0.0
H1124 H 0.42668 0.52968 0.81091 0.0
H1125 H 0.47835 0.61766 0.871 0.0
H1126 H 0.46375 0.63227 0.89448 0.0
H1127 H 0.47075 0.63858 0.84851 0.0
H1128 H 0.42445 0.62476 0.83616 0.0
H1129 H 0.41727 0.61821 0.88201 0.0
H1130 H 0.4004 0.59424 0.84977 0.0
H1131 H 0.41814 0.52108 0.87509 0.0
H1132 H 0.41097 0.52058 0.93876 0.0
H1133 H 0.42804 0.59759 0.93375 0.0
C1134 C 0.445 0.59883 0.79204 0.0
C1135 C 0.44332 0.58299 0.7642 0.0
C1136 C 0.43692 0.55808 0.77136 0.0
C1137 C 0.43191 0.54884 0.80568 0.0
C1138 C 0.4332 0.56471 0.83255 0.0
C1139 C 0.43962 0.58919 0.82621 0.0
C1140 C 0.43851 0.6019 0.85966 0.0
C1141 C 0.46438 0.62391 0.86896 0.0
C1142 C 0.41899 0.61026 0.85671 0.0
C1143 C 0.43042 0.58074 0.88564 0.0
C1144 C 0.42758 0.55951 0.86949 0.0
C1145 C 0.42025 0.53759 0.88806 0.0
C1146 C 0.41597 0.53742 0.92423 0.0
C1147 C 0.41884 0.55899 0.94153 0.0
C1148 C 0.42599 0.58084 0.92164 0.0
H1149 H 0.83696 0.42276 0.26259 0.0
H1150 H 0.89602 0.40434 0.26893 0.0
H1151 H 0.90319 0.41152 0.20538 0.0
H1152 H 0.81314 0.39579 0.17824 0.0
H1153 H 0.80729 0.42025 0.16466 0.0
H1154 H 0.80624 0.41283 0.21047 0.0
H1155 H 0.83906 0.4588 0.22387 0.0
H1156 H 0.84035 0.46634 0.17804 0.0
H1157 H 0.8685 0.47314 0.20105 0.0
H1158 H 0.90388 0.42047 0.14103 0.0
H1159 H 0.8976 0.43008 0.08026 0.0
H1160 H 0.84016 0.44546 0.11612 0.0
C1161 C 0.85158 0.4204 0.25083 0.0
C1162 C 0.86587 0.41287 0.27112 0.0
C1163 C 0.88445 0.4096 0.25416 0.0
C1164 C 0.88886 0.4139 0.21804 0.0
C1165 C 0.8747 0.42166 0.19912 0.0
C1166 C 0.85644 0.4249 0.21491 0.0
C1167 C 0.84398 0.43358 0.18865 0.0
C1168 C 0.81601 0.41447 0.18531 0.0
C1169 C 0.84824 0.45951 0.1985 0.0
C1170 C 0.858 0.43458 0.15551 0.0
C1171 C 0.87561 0.42758 0.16218 0.0
C1172 C 0.89029 0.42615 0.13557 0.0
C1173 C 0.88663 0.43166 0.10121 0.0
C1174 C 0.86863 0.43874 0.09373 0.0
C1175 C 0.85436 0.44052 0.12132 0.0
H1176 H 0.43578 0.87607 0.60189 0.0
H1177 H 0.45612 0.81862 0.60898 0.0
H1178 H 0.44722 0.80957 0.54575 0.0
H1179 H 0.38579 0.8453 0.53947 0.0
H1180 H 0.3933 0.87322 0.51551 0.0
H1181 H 0.40077 0.87508 0.56148 0.0
H1182 H 0.4471 0.90673 0.5481 0.0
H1183 H 0.4397 0.90522 0.50217 0.0
H1184 H 0.46366 0.89877 0.51645 0.0
H1185 H 0.4345 0.80549 0.48312 0.0
H1186 H 0.42449 0.81028 0.42228 0.0
H1187 H 0.41494 0.87242 0.45377 0.0
C1188 C 0.43843 0.86168 0.58996 0.0
C1189 C 0.44666 0.84802 0.61013 0.0
C1190 C 0.45008 0.82942 0.5938 0.0
C1191 C 0.44486 0.82402 0.55805 0.0
C1192 C 0.4365 0.83759 0.53895 0.0
C1193 C 0.43371 0.85634 0.55409 0.0
C1194 C 0.42551 0.8688 0.52712 0.0
C1195 C 0.39981 0.86539 0.53646 0.0
C1196 C 0.44517 0.89652 0.52323 0.0
C1197 C 0.42411 0.85409 0.49446 0.0
C1198 C 0.43017 0.83596 0.50216 0.0
C1199 C 0.43005 0.81983 0.47667 0.0
C1200 C 0.42442 0.82279 0.44213 0.0
C1201 C 0.41939 0.84205 0.43303 0.0
C1202 C 0.41865 0.85751 0.45983 0.0
H1203 H 0.56652 0.39712 0.7831 0.0
H1204 H 0.57986 0.4696 0.74982 0.0
H1205 H 0.58824 0.4845 0.81123 0.0
H1206 H 0.5372 0.39533 0.86768 0.0
H1207 H 0.55208 0.3806 0.88999 0.0
H1208 H 0.54514 0.37507 0.84386 0.0
H1209 H 0.59156 0.38963 0.83118 0.0
H1210 H 0.59868 0.3954 0.8772 0.0
H1211 H 0.61536 0.42 0.84591 0.0
H1212 H 0.59679 0.49204 0.87567 0.0
H1213 H 0.60424 0.49157 0.93912 0.0
H1214 H 0.5876 0.41483 0.93032 0.0
C1215 C 0.57067 0.41592 0.78901 0.0
C1216 C 0.57228 0.43219 0.76199 0.0
C1217 C 0.5784 0.45688 0.77035 0.0
C1218 C 0.58321 0.46549 0.80507 0.0
C1219 C 0.582 0.44921 0.83112 0.0
C1220 C 0.57585 0.42493 0.82359 0.0
C1221 C 0.5771 0.41172 0.85628 0.0
C1222 C 0.55134 0.38936 0.86496 0.0
C1223 C 0.59685 0.40372 0.8524 0.0
C1224 C 0.58495 0.43237 0.88324 0.0
C1225 C 0.58758 0.45379 0.86819 0.0
C1226 C 0.59481 0.47537 0.88777 0.0
C1227 C 0.59924 0.47499 0.92379 0.0
C1228 C 0.59659 0.45321 0.93994 0.0
C1229 C 0.58948 0.43171 0.91908 0.0
H1230 H 0.17977 0.59747 0.10585 0.0
H1231 H 0.11943 0.52079 0.09803 0.0
H1232 H 0.11148 0.52085 0.16142 0.0
H1233 H 0.20226 0.59258 0.19011 0.0
H1234 H 0.20921 0.62314 0.20442 0.0
H1235 H 0.21023 0.61699 0.15846 0.0
H1236 H 0.17879 0.63201 0.14544 0.0
H1237 H 0.17753 0.63804 0.19143 0.0
H1238 H 0.14922 0.61772 0.16793 0.0
H1239 H 0.11045 0.5289 0.22572 0.0
H1240 H 0.11721 0.54414 0.28697 0.0
H1241 H 0.17677 0.61618 0.25292 0.0
C1242 C 0.16471 0.58072 0.1173 0.0
C1243 C 0.15025 0.55908 0.09672 0.0
C1244 C 0.13105 0.53747 0.11314 0.0
C1245 C 0.12622 0.5374 0.14912 0.0
C1246 C 0.14064 0.55911 0.16842 0.0
C1247 C 0.15952 0.58037 0.15314 0.0
C1248 C 0.17246 0.60115 0.1799 0.0
C1249 C 0.20018 0.60891 0.18343 0.0
C1250 C 0.1693 0.62355 0.17061 0.0
C1251 C 0.15799 0.5882 0.21273 0.0
C1252 C 0.1397 0.56395 0.20545 0.0
C1253 C 0.12456 0.5479 0.23167 0.0
C1254 C 0.12848 0.5567 0.2663 0.0
C1255 C 0.14726 0.58136 0.27442 0.0
C1256 C 0.16195 0.59742 0.24721 0.0
H1257 H 0.57928 0.13438 0.59692 0.0
H1258 H 0.56259 0.19439 0.60538 0.0
H1259 H 0.57262 0.20403 0.54258 0.0
H1260 H 0.63083 0.16464 0.53791 0.0
H1261 H 0.62298 0.13699 0.51276 0.0
H1262 H 0.61423 0.13441 0.55828 0.0
H1263 H 0.56797 0.1045 0.54192 0.0
H1264 H 0.57664 0.10667 0.49643 0.0
H1265 H 0.55312 0.11405 0.50974 0.0
H1266 H 0.58644 0.20854 0.48037 0.0
H1267 H 0.59761 0.20424 0.4198 0.0
H1268 H 0.60377 0.14008 0.45038 0.0
C1269 C 0.57758 0.14942 0.58539 0.0
C1270 C 0.57011 0.16364 0.60584 0.0
C1271 C 0.56796 0.1831 0.58998 0.0
C1272 C 0.57386 0.18885 0.55449 0.0
C1273 C 0.58167 0.17482 0.53525 0.0
C1274 C 0.58313 0.15523 0.5499 0.0
C1275 C 0.59138 0.1427 0.52304 0.0
C1276 C 0.61634 0.14482 0.53364 0.0
C1277 C 0.57106 0.11536 0.51745 0.0
C1278 C 0.59437 0.15836 0.49098 0.0
C1279 C 0.58896 0.17696 0.49884 0.0
C1280 C 0.59044 0.19389 0.47379 0.0
C1281 C 0.59677 0.19125 0.43946 0.0
C1282 C 0.60122 0.17161 0.43027 0.0
C1283 C 0.60059 0.15533 0.45664 0.0
loop_
_geom_bond_atom_site_label_1
_geom_bond_atom_site_label_2
_geom_bond_distance
_geom_bond_site_symmetry_2
_ccdc_geom_bond_type
C0 C1 1.443 . S
C0 N4 1.376 . S
C0 C38 1.389 . S
C1 C0 1.443 . S
C1 C2 1.340 . S
C1 H41 0.951 . S
C2 C1 1.340 . S
C2 C3 1.439 . S
C2 H42 0.950 . S
C3 C2 1.439 . S
C3 N4 1.374 . S
C3 C37 1.395 . S
N4 C0 1.376 . S
N4 C3 1.374 . S
N4 Co5 2.008 . S
Co5 N4 2.008 . S
Co5 N6 1.995 . S
Co5 N11 2.008 . S
Co5 N16 1.995 . S
Co5 N21 2.282 . S
Co5 N27 2.282 . S
N6 Co5 1.995 . S
N6 C7 1.376 . S
N6 C10 1.383 . S
C7 N6 1.376 . S
C7 C8 1.446 . S
C7 C37 1.391 . S
C8 C7 1.446 . S
C8 C9 1.339 . S
C8 H43 0.949 . S
C9 C8 1.339 . S
C9 C10 1.439 . S
C9 H44 0.950 . S
C10 N6 1.383 . S
C10 C9 1.439 . S
C10 C39 1.392 . S
N11 Co5 2.008 . S
N11 C12 1.376 . S
N11 C15 1.374 . S
C12 N11 1.376 . S
C12 C13 1.443 . S
C12 C39 1.389 . S
C13 C12 1.443 . S
C13 C14 1.340 . S
C13 H45 0.951 . S
C14 C13 1.340 . S
C14 C15 1.439 . S
C14 H46 0.950 . S
C15 N11 1.374 . S
C15 C14 1.439 . S
C15 C40 1.395 . S
N16 Co5 1.995 . S
N16 C17 1.376 . S
N16 C20 1.383 . S
C17 N16 1.376 . S
C17 C18 1.446 . S
C17 C40 1.391 . S
C18 C17 1.446 . S
C18 C19 1.339 . S
C18 H47 0.949 . S
C19 C18 1.339 . S
C19 C20 1.439 . S
C19 H48 0.950 . S
C20 N16 1.383 . S
C20 C19 1.439 . S
C20 C38 1.392 . S
N21 Co5 2.282 . S
N21 C24 1.332 . S
N21 C26 1.332 . S
C22 C23 1.386 . S
C22 C25 1.388 . S
C23 C22 1.386 . S
C23 C24 1.382 . S
C23 H49 0.950 . S
C24 N21 1.332 . S
C24 C23 1.382 . S
C24 H35 0.952 . S
C25 C22 1.388 . S
C25 C26 1.382 . S
C25 H50 0.950 . S
C26 N21 1.332 . S
C26 C25 1.382 . S
C26 H36 0.948 . S
N27 Co5 2.282 . S
N27 C31 1.332 . S
N27 C32 1.332 . S
C28 C29 1.388 . S
C28 C32 1.382 1_556 S
C28 H51 0.950 . S
C29 C28 1.388 . S
C29 C30 1.386 . S
C30 C29 1.386 . S
C30 C31 1.382 1_556 S
C30 H52 0.950 . S
C31 N27 1.332 . S
C31 C30 1.382 1_554 S
C31 H33 0.952 . S
C32 N27 1.332 . S
C32 C28 1.382 1_554 S
C32 H34 0.948 . S
H33 C31 0.952 . S
H34 C32 0.948 . S
H35 C24 0.952 . S
H36 C26 0.948 . S
C37 C3 1.395 . S
C37 C7 1.391 . S
C38 C0 1.389 . S
C38 C20 1.392 . S
C39 C10 1.392 . S
C39 C12 1.389 . S
C40 C15 1.395 . S
C40 C17 1.391 . S
H41 C1 0.951 . S
H42 C2 0.950 . S
H43 C8 0.949 . S
H44 C9 0.950 . S
H45 C13 0.951 . S
H46 C14 0.950 . S
H47 C18 0.949 . S
H48 C19 0.950 . S
H49 C23 0.950 . S
H50 C25 0.950 . S
H51 C28 0.950 . S
H52 C30 0.950 . S
C53 C54 1.443 . S
C53 N57 1.376 . S
C53 C91 1.389 . S
C54 C53 1.443 . S
C54 C55 1.340 . S
C54 H94 0.951 . S
C55 C54 1.340 . S
C55 C56 1.439 . S
C55 H95 0.950 . S
C56 C55 1.439 . S
C56 N57 1.374 . S
C56 C90 1.395 . S
N57 C53 1.376 . S
N57 C56 1.374 . S
N57 Co58 2.008 . S
Co58 N57 2.008 . S
Co58 N59 1.995 . S
Co58 N64 2.008 . S
Co58 N69 1.995 . S
Co58 N74 2.282 . S
Co58 N80 2.282 . S
N59 Co58 1.995 . S
N59 C60 1.376 . S
N59 C63 1.383 . S
C60 N59 1.376 . S
C60 C61 1.446 . S
C60 C90 1.391 . S
C61 C60 1.446 . S
C61 C62 1.339 . S
C61 H96 0.949 . S
C62 C61 1.339 . S
C62 C63 1.439 . S
C62 H97 0.950 . S
C63 N59 1.383 . S
C63 C62 1.439 . S
C63 C92 1.392 . S
N64 Co58 2.008 . S
N64 C65 1.376 . S
N64 C68 1.374 . S
C65 N64 1.376 . S
C65 C66 1.443 . S
C65 C92 1.389 . S
C66 C65 1.443 . S
C66 C67 1.340 . S
C66 H98 0.951 . S
C67 C66 1.340 . S
C67 C68 1.439 . S
C67 H99 0.950 . S
C68 N64 1.374 . S
C68 C67 1.439 . S
C68 C93 1.395 . S
N69 Co58 1.995 . S
N69 C70 1.376 . S
N69 C73 1.383 . S
C70 N69 1.376 . S
C70 C71 1.446 . S
C70 C93 1.391 . S
C71 C70 1.446 . S
C71 C72 1.339 . S
C71 H100 0.949 . S
C72 C71 1.339 . S
C72 C73 1.439 . S
C72 H101 0.950 . S
C73 N69 1.383 . S
C73 C72 1.439 . S
C73 C91 1.392 . S
N74 Co58 2.282 . S
N74 C77 1.332 . S
N74 C79 1.332 . S
C75 C76 1.386 . S
C75 C78 1.388 . S
C76 C75 1.386 . S
C76 C77 1.382 . S
C76 H102 0.950 . S
C77 N74 1.332 . S
C77 C76 1.382 . S
C77 H88 0.952 . S
C78 C75 1.388 . S
C78 C79 1.382 . S
C78 H103 0.950 . S
C79 N74 1.332 . S
C79 C78 1.382 . S
C79 H89 0.948 . S
N80 Co58 2.282 . S
N80 C84 1.332 . S
N80 C85 1.332 . S
C81 C82 1.388 . S
C81 C85 1.382 . S
C81 H104 0.950 . S
C82 C81 1.388 . S
C82 C83 1.386 . S
C83 C82 1.386 . S
C83 C84 1.382 . S
C83 H105 0.950 . S
C84 N80 1.332 . S
C84 C83 1.382 . S
C84 H86 0.952 . S
C85 N80 1.332 . S
C85 C81 1.382 . S
C85 H87 0.948 . S
H86 C84 0.952 . S
H87 C85 0.948 . S
H88 C77 0.952 . S
H89 C79 0.948 . S
C90 C56 1.395 . S
C90 C60 1.391 . S
C91 C53 1.389 . S
C91 C73 1.392 . S
C92 C63 1.392 . S
C92 C65 1.389 . S
C93 C68 1.395 . S
C93 C70 1.391 . S
H94 C54 0.951 . S
H95 C55 0.950 . S
H96 C61 0.949 . S
H97 C62 0.950 . S
H98 C66 0.951 . S
H99 C67 0.950 . S
H100 C71 0.949 . S
H101 C72 0.950 . S
H102 C76 0.950 . S
H103 C78 0.950 . S
H104 C81 0.950 . S
H105 C83 0.950 . S
C106 C107 1.443 . S
C106 N110 1.376 . S
C106 C144 1.389 . S
C107 C106 1.443 . S
C107 C108 1.340 . S
C107 H147 0.951 . S
C108 C107 1.340 . S
C108 C109 1.439 . S
C108 H148 0.950 . S
C109 C108 1.439 . S
C109 N110 1.374 . S
C109 C143 1.395 . S
N110 C106 1.376 . S
N110 C109 1.374 . S
N110 Co111 2.008 . S
Co111 N110 2.008 . S
Co111 N112 1.995 . S
Co111 N117 2.008 . S
Co111 N122 1.995 . S
Co111 N127 2.282 . S
Co111 N133 2.282 . S
N112 Co111 1.995 . S
N112 C113 1.376 . S
N112 C116 1.383 . S
C113 N112 1.376 . S
C113 C114 1.446 . S
C113 C143 1.391 . S
C114 C113 1.446 . S
C114 C115 1.339 . S
C114 H149 0.949 . S
C115 C114 1.339 . S
C115 C116 1.439 . S
C115 H150 0.950 . S
C116 N112 1.383 . S
C116 C115 1.439 . S
C116 C145 1.392 . S
N117 Co111 2.008 . S
N117 C118 1.376 . S
N117 C121 1.374 . S
C118 N117 1.376 . S
C118 C119 1.443 . S
C118 C145 1.389 . S
C119 C118 1.443 . S
C119 C120 1.340 . S
C119 H151 0.951 . S
C120 C119 1.340 . S
C120 C121 1.439 . S
C120 H152 0.950 . S
C121 N117 1.374 . S
C121 C120 1.439 . S
C121 C146 1.395 . S
N122 Co111 1.995 . S
N122 C123 1.376 . S
N122 C126 1.383 . S
C123 N122 1.376 . S
C123 C124 1.446 . S
C123 C146 1.391 . S
C124 C123 1.446 . S
C124 C125 1.339 . S
C124 H153 0.949 . S
C125 C124 1.339 . S
C125 C126 1.439 . S
C125 H154 0.950 . S
C126 N122 1.383 . S
C126 C125 1.439 . S
C126 C144 1.392 . S
N127 Co111 2.282 . S
N127 C130 1.332 . S
N127 C132 1.332 . S
C128 C129 1.386 . S
C128 C131 1.388 . S
C129 C128 1.386 . S
C129 C130 1.382 . S
C129 H155 0.950 . S
C130 N127 1.332 . S
C130 C129 1.382 . S
C130 H141 0.952 . S
C131 C128 1.388 . S
C131 C132 1.382 . S
C131 H156 0.950 . S
C132 N127 1.332 . S
C132 C131 1.382 . S
C132 H142 0.948 . S
N133 Co111 2.282 . S
N133 C137 1.332 . S
N133 C138 1.332 . S
C134 C135 1.388 . S
C134 C138 1.382 . S
C134 H157 0.950 . S
C135 C134 1.388 . S
C135 C136 1.386 . S
C136 C135 1.386 . S
C136 C137 1.382 . S
C136 H158 0.950 . S
C137 N133 1.332 . S
C137 C136 1.382 . S
C137 H139 0.952 . S
C138 N133 1.332 . S
C138 C134 1.382 . S
C138 H140 0.948 . S
H139 C137 0.952 . S
H140 C138 0.948 . S
H141 C130 0.952 . S
H142 C132 0.948 . S
C143 C109 1.395 . S
C143 C113 1.391 . S
C144 C106 1.389 . S
C144 C126 1.392 . S
C145 C116 1.392 . S
C145 C118 1.389 . S
C146 C121 1.395 . S
C146 C123 1.391 . S
H147 C107 0.951 . S
H148 C108 0.950 . S
H149 C114 0.949 . S
H150 C115 0.950 . S
H151 C119 0.951 . S
H152 C120 0.950 . S
H153 C124 0.949 . S
H154 C125 0.950 . S
H155 C129 0.950 . S
H156 C131 0.950 . S
H157 C134 0.950 . S
H158 C136 0.950 . S
C159 C160 1.443 . S
C159 N163 1.376 . S
C159 C197 1.389 . S
C160 C159 1.443 . S
C160 C161 1.340 . S
C160 H200 0.951 . S
C161 C160 1.340 . S
C161 C162 1.439 . S
C161 H201 0.950 . S
C162 C161 1.439 . S
C162 N163 1.374 . S
C162 C196 1.395 . S
N163 C159 1.376 . S
N163 C162 1.374 . S
N163 Co164 2.008 . S
Co164 N163 2.008 . S
Co164 N165 1.995 . S
Co164 N170 2.008 . S
Co164 N175 1.995 . S
Co164 N180 2.282 . S
Co164 N186 2.282 . S
N165 Co164 1.995 . S
N165 C166 1.376 . S
N165 C169 1.383 . S
C166 N165 1.376 . S
C166 C167 1.446 . S
C166 C196 1.391 . S
C167 C166 1.446 . S
C167 C168 1.339 . S
C167 H202 0.949 . S
C168 C167 1.339 . S
C168 C169 1.439 . S
C168 H203 0.950 . S
C169 N165 1.383 . S
C169 C168 1.439 . S
C169 C198 1.392 . S
N170 Co164 2.008 . S
N170 C171 1.376 . S
N170 C174 1.374 . S
C171 N170 1.376 . S
C171 C172 1.443 . S
C171 C198 1.389 . S
C172 C171 1.443 . S
C172 C173 1.340 . S
C172 H204 0.951 . S
C173 C172 1.340 . S
C173 C174 1.439 . S
C173 H205 0.950 . S
C174 N170 1.374 . S
C174 C173 1.439 . S
C174 C199 1.395 . S
N175 Co164 1.995 . S
N175 C176 1.376 . S
N175 C179 1.383 . S
C176 N175 1.376 . S
C176 C177 1.446 . S
C176 C199 1.391 . S
C177 C176 1.446 . S
C177 C178 1.339 . S
C177 H206 0.949 . S
C178 C177 1.339 . S
C178 C179 1.439 . S
C178 H207 0.950 . S
C179 N175 1.383 . S
C179 C178 1.439 . S
C179 C197 1.392 . S
N180 Co164 2.282 . S
N180 C183 1.332 . S
N180 C185 1.332 . S
C181 C182 1.386 . S
C181 C184 1.388 . S
C182 C181 1.386 . S
C182 C183 1.382 . S
C182 H208 0.950 . S
C183 N180 1.332 . S
C183 C182 1.382 . S
C183 H194 0.952 . S
C184 C181 1.388 . S
C184 C185 1.382 . S
C184 H209 0.950 . S
C185 N180 1.332 . S
C185 C184 1.382 . S
C185 H195 0.948 . S
N186 Co164 2.282 . S
N186 C190 1.332 . S
N186 C191 1.332 . S
C187 C188 1.388 . S
C187 C191 1.382 1_556 S
C187 H210 0.950 . S
C188 C187 1.388 . S
C188 C189 1.386 . S
C189 C188 1.386 . S
C189 C190 1.382 1_556 S
C189 H211 0.950 . S
C190 N186 1.332 . S
C190 C189 1.382 1_554 S
C190 H192 0.952 . S
C191 N186 1.332 . S
C191 C187 1.382 1_554 S
C191 H193 0.948 . S
H192 C190 0.952 . S
H193 C191 0.948 . S
H194 C183 0.952 . S
H195 C185 0.948 . S
C196 C162 1.395 . S
C196 C166 1.391 . S
C197 C159 1.389 . S
C197 C179 1.392 . S
C198 C169 1.392 . S
C198 C171 1.389 . S
C199 C174 1.395 . S
C199 C176 1.391 . S
H200 C160 0.951 . S
H201 C161 0.950 . S
H202 C167 0.949 . S
H203 C168 0.950 . S
H204 C172 0.951 . S
H205 C173 0.950 . S
H206 C177 0.949 . S
H207 C178 0.950 . S
H208 C182 0.950 . S
H209 C184 0.950 . S
H210 C187 0.950 . S
H211 C189 0.950 . S
C212 C213 1.443 . S
C212 N216 1.376 . S
C212 C250 1.389 . S
C213 C212 1.443 . S
C213 C214 1.340 . S
C213 H253 0.951 . S
C214 C213 1.340 . S
C214 C215 1.439 . S
C214 H254 0.950 . S
C215 C214 1.439 . S
C215 N216 1.374 . S
C215 C249 1.395 . S
N216 C212 1.376 . S
N216 C215 1.374 . S
N216 Co217 2.008 . S
Co217 N216 2.008 . S
Co217 N218 1.995 . S
Co217 N223 2.008 . S
Co217 N228 1.995 . S
Co217 N233 2.282 . S
Co217 N239 2.282 . S
N218 Co217 1.995 . S
N218 C219 1.376 . S
N218 C222 1.383 . S
C219 N218 1.376 . S
C219 C220 1.446 . S
C219 C249 1.391 . S
C220 C219 1.446 . S
C220 C221 1.339 . S
C220 H255 0.949 . S
C221 C220 1.339 . S
C221 C222 1.439 . S
C221 H256 0.950 . S
C222 N218 1.383 . S
C222 C221 1.439 . S
C222 C251 1.392 . S
N223 Co217 2.008 . S
N223 C224 1.376 . S
N223 C227 1.374 . S
C224 N223 1.376 . S
C224 C225 1.443 . S
C224 C251 1.389 . S
C225 C224 1.443 . S
C225 C226 1.340 . S
C225 H257 0.951 . S
C226 C225 1.340 . S
C226 C227 1.439 . S
C226 H258 0.950 . S
C227 N223 1.374 . S
C227 C226 1.439 . S
C227 C252 1.395 . S
N228 Co217 1.995 . S
N228 C229 1.376 . S
N228 C232 1.383 . S
C229 N228 1.376 . S
C229 C230 1.446 . S
C229 C252 1.391 . S
C230 C229 1.446 . S
C230 C231 1.339 . S
C230 H259 0.949 . S
C231 C230 1.339 . S
C231 C232 1.439 . S
C231 H260 0.950 . S
C232 N228 1.383 . S
C232 C231 1.439 . S
C232 C250 1.392 . S
N233 Co217 2.282 . S
N233 C236 1.332 . S
N233 C238 1.332 . S
C234 C235 1.386 . S
C234 C237 1.388 . S
C235 C234 1.386 . S
C235 C236 1.382 . S
C235 H261 0.950 . S
C236 N233 1.332 . S
C236 C235 1.382 . S
C236 H247 0.952 . S
C237 C234 1.388 . S
C237 C238 1.382 . S
C237 H262 0.950 . S
C238 N233 1.332 . S
C238 C237 1.382 . S
C238 H248 0.948 . S
N239 Co217 2.282 . S
N239 C243 1.332 . S
N239 C244 1.332 . S
C240 C241 1.388 . S
C240 C244 1.382 . S
C240 H263 0.950 . S
C241 C240 1.388 . S
C241 C242 1.386 . S
C242 C241 1.386 . S
C242 C243 1.382 . S
C242 H264 0.950 . S
C243 N239 1.332 . S
C243 C242 1.382 . S
C243 H245 0.952 . S
C244 N239 1.332 . S
C244 C240 1.382 . S
C244 H246 0.948 . S
H245 C243 0.952 . S
H246 C244 0.948 . S
H247 C236 0.952 . S
H248 C238 0.948 . S
C249 C215 1.395 . S
C249 C219 1.391 . S
C250 C212 1.389 . S
C250 C232 1.392 . S
C251 C222 1.392 . S
C251 C224 1.389 . S
C252 C227 1.395 . S
C252 C229 1.391 . S
H253 C213 0.951 . S
H254 C214 0.950 . S
H255 C220 0.949 . S
H256 C221 0.950 . S
H257 C225 0.951 . S
H258 C226 0.950 . S
H259 C230 0.949 . S
H260 C231 0.950 . S
H261 C235 0.950 . S
H262 C237 0.950 . S
H263 C240 0.950 . S
H264 C242 0.950 . S
C265 C266 1.443 . S
C265 N269 1.376 . S
C265 C303 1.389 . S
C266 C265 1.443 . S
C266 C267 1.340 . S
C266 H306 0.951 . S
C267 C266 1.340 . S
C267 C268 1.439 . S
C267 H307 0.950 . S
C268 C267 1.439 . S
C268 N269 1.374 . S
C268 C302 1.395 . S
N269 C265 1.376 . S
N269 C268 1.374 . S
N269 Co270 2.008 . S
Co270 N269 2.008 . S
Co270 N271 1.995 . S
Co270 N276 2.008 . S
Co270 N281 1.995 . S
Co270 N286 2.282 . S
Co270 N292 2.282 . S
N271 Co270 1.995 . S
N271 C272 1.376 . S
N271 C275 1.383 . S
C272 N271 1.376 . S
C272 C273 1.446 . S
C272 C302 1.391 . S
C273 C272 1.446 . S
C273 C274 1.339 . S
C273 H308 0.949 . S
C274 C273 1.339 . S
C274 C275 1.439 . S
C274 H309 0.950 . S
C275 N271 1.383 . S
C275 C274 1.439 . S
C275 C304 1.392 . S
N276 Co270 2.008 . S
N276 C277 1.376 . S
N276 C280 1.374 . S
C277 N276 1.376 . S
C277 C278 1.443 . S
C277 C304 1.389 . S
C278 C277 1.443 . S
C278 C279 1.340 . S
C278 H310 0.951 . S
C279 C278 1.340 . S
C279 C280 1.439 . S
C279 H311 0.950 . S
C280 N276 1.374 . S
C280 C279 1.439 . S
C280 C305 1.395 . S
N281 Co270 1.995 . S
N281 C282 1.376 . S
N281 C285 1.383 . S
C282 N281 1.376 . S
C282 C283 1.446 . S
C282 C305 1.391 . S
C283 C282 1.446 . S
C283 C284 1.339 . S
C283 H312 0.949 . S
C284 C283 1.339 . S
C284 C285 1.439 . S
C284 H313 0.950 . S
C285 N281 1.383 . S
C285 C284 1.439 . S
C285 C303 1.392 . S
N286 Co270 2.282 . S
N286 C289 1.332 . S
N286 C291 1.332 . S
C287 C288 1.386 . S
C287 C290 1.388 . S
C288 C287 1.386 . S
C288 C289 1.382 . S
C288 H314 0.950 . S
C289 N286 1.332 . S
C289 C288 1.382 . S
C289 H300 0.952 . S
C290 C287 1.388 . S
C290 C291 1.382 . S
C290 H315 0.950 . S
C291 N286 1.332 . S
C291 C290 1.382 . S
C291 H301 0.948 . S
N292 Co270 2.282 . S
N292 C296 1.332 . S
N292 C297 1.332 . S
C293 C294 1.388 . S
C293 C297 1.382 . S
C293 H316 0.950 . S
C294 C293 1.388 . S
C294 C295 1.386 . S
C295 C294 1.386 . S
C295 C296 1.382 . S
C295 H317 0.950 . S
C296 N292 1.332 . S
C296 C295 1.382 . S
C296 H298 0.952 . S
C297 N292 1.332 . S
C297 C293 1.382 . S
C297 H299 0.948 . S
H298 C296 0.952 . S
H299 C297 0.948 . S
H300 C289 0.952 . S
H301 C291 0.948 . S
C302 C268 1.395 . S
C302 C272 1.391 . S
C303 C265 1.389 . S
C303 C285 1.392 . S
C304 C275 1.392 . S
C304 C277 1.389 . S
C305 C280 1.395 . S
C305 C282 1.391 . S
H306 C266 0.951 . S
H307 C267 0.950 . S
H308 C273 0.949 . S
H309 C274 0.950 . S
H310 C278 0.951 . S
H311 C279 0.950 . S
H312 C283 0.949 . S
H313 C284 0.950 . S
H314 C288 0.950 . S
H315 C290 0.950 . S
H316 C293 0.950 . S
H317 C295 0.950 . S
C318 C319 1.443 . S
C318 N322 1.376 . S
C318 C356 1.389 . S
C319 C318 1.443 . S
C319 C320 1.340 . S
C319 H359 0.951 . S
C320 C319 1.340 . S
C320 C321 1.439 . S
C320 H360 0.950 . S
C321 C320 1.439 . S
C321 N322 1.374 . S
C321 C355 1.395 . S
N322 C318 1.376 . S
N322 C321 1.374 . S
N322 Co323 2.008 . S
Co323 N322 2.008 . S
Co323 N324 1.995 . S
Co323 N329 2.008 . S
Co323 N334 1.995 . S
Co323 N339 2.282 . S
Co323 N345 2.282 . S
N324 Co323 1.995 . S
N324 C325 1.376 . S
N324 C328 1.383 . S
C325 N324 1.376 . S
C325 C326 1.446 . S
C325 C355 1.391 . S
C326 C325 1.446 . S
C326 C327 1.339 . S
C326 H361 0.949 . S
C327 C326 1.339 . S
C327 C328 1.439 . S
C327 H362 0.950 . S
C328 N324 1.383 . S
C328 C327 1.439 . S
C328 C357 1.392 . S
N329 Co323 2.008 . S
N329 C330 1.376 . S
N329 C333 1.374 . S
C330 N329 1.376 . S
C330 C331 1.443 . S
C330 C357 1.389 . S
C331 C330 1.443 . S
C331 C332 1.340 . S
C331 H363 0.951 . S
C332 C331 1.340 . S
C332 C333 1.439 . S
C332 H364 0.950 . S
C333 N329 1.374 . S
C333 C332 1.439 . S
C333 C358 1.395 . S
N334 Co323 1.995 . S
N334 C335 1.376 . S
N334 C338 1.383 . S
C335 N334 1.376 . S
C335 C336 1.446 . S
C335 C358 1.391 . S
C336 C335 1.446 . S
C336 C337 1.339 . S
C336 H365 0.949 . S
C337 C336 1.339 . S
C337 C338 1.439 . S
C337 H366 0.950 . S
C338 N334 1.383 . S
C338 C337 1.439 . S
C338 C356 1.392 . S
N339 Co323 2.282 . S
N339 C342 1.332 . S
N339 C344 1.332 . S
C340 C341 1.386 . S
C340 C343 1.388 . S
C341 C340 1.386 . S
C341 C342 1.382 . S
C341 H367 0.950 . S
C342 N339 1.332 . S
C342 C341 1.382 . S
C342 H353 0.952 . S
C343 C340 1.388 . S
C343 C344 1.382 . S
C343 H368 0.950 . S
C344 N339 1.332 . S
C344 C343 1.382 . S
C344 H354 0.948 . S
N345 Co323 2.282 . S
N345 C349 1.332 . S
N345 C350 1.332 . S
C346 C347 1.388 . S
C346 C350 1.382 . S
C346 H369 0.950 . S
C347 C346 1.388 . S
C347 C348 1.386 . S
C348 C347 1.386 . S
C348 C349 1.382 . S
C348 H370 0.950 . S
C349 N345 1.332 . S
C349 C348 1.382 . S
C349 H351 0.952 . S
C350 N345 1.332 . S
C350 C346 1.382 . S
C350 H352 0.948 . S
H351 C349 0.952 . S
H352 C350 0.948 . S
H353 C342 0.952 . S
H354 C344 0.948 . S
C355 C321 1.395 . S
C355 C325 1.391 . S
C356 C318 1.389 . S
C356 C338 1.392 . S
C357 C328 1.392 . S
C357 C330 1.389 . S
C358 C333 1.395 . S
C358 C335 1.391 . S
H359 C319 0.951 . S
H360 C320 0.950 . S
H361 C326 0.949 . S
H362 C327 0.950 . S
H363 C331 0.951 . S
H364 C332 0.950 . S
H365 C336 0.949 . S
H366 C337 0.950 . S
H367 C341 0.950 . S
H368 C343 0.950 . S
H369 C346 0.950 . S
H370 C348 0.950 . S
C371 C372 1.443 . S
C371 N375 1.376 . S
C371 C409 1.389 . S
C372 C371 1.443 . S
C372 C373 1.340 . S
C372 H412 0.951 . S
C373 C372 1.340 . S
C373 C374 1.439 . S
C373 H413 0.950 . S
C374 C373 1.439 . S
C374 N375 1.374 . S
C374 C408 1.395 . S
N375 C371 1.376 . S
N375 C374 1.374 . S
N375 Co376 2.008 . S
Co376 N375 2.008 . S
Co376 N377 1.995 . S
Co376 N382 2.008 . S
Co376 N387 1.995 . S
Co376 N392 2.282 . S
Co376 N398 2.282 . S
N377 Co376 1.995 . S
N377 C378 1.376 . S
N377 C381 1.383 . S
C378 N377 1.376 . S
C378 C379 1.446 . S
C378 C408 1.391 . S
C379 C378 1.446 . S
C379 C380 1.339 . S
C379 H414 0.949 . S
C380 C379 1.339 . S
C380 C381 1.439 . S
C380 H415 0.950 . S
C381 N377 1.383 . S
C381 C380 1.439 . S
C381 C410 1.392 . S
N382 Co376 2.008 . S
N382 C383 1.376 . S
N382 C386 1.374 . S
C383 N382 1.376 . S
C383 C384 1.443 . S
C383 C410 1.389 . S
C384 C383 1.443 . S
C384 C385 1.340 . S
C384 H416 0.951 . S
C385 C384 1.340 . S
C385 C386 1.439 . S
C385 H417 0.950 . S
C386 N382 1.374 . S
C386 C385 1.439 . S
C386 C411 1.395 . S
N387 Co376 1.995 . S
N387 C388 1.376 . S
N387 C391 1.383 . S
C388 N387 1.376 . S
C388 C389 1.446 . S
C388 C411 1.391 . S
C389 C388 1.446 . S
C389 C390 1.339 . S
C389 H418 0.949 . S
C390 C389 1.339 . S
C390 C391 1.439 . S
C390 H419 0.950 . S
C391 N387 1.383 . S
C391 C390 1.439 . S
C391 C409 1.392 . S
N392 Co376 2.282 . S
N392 C395 1.332 . S
N392 C397 1.332 . S
C393 C394 1.386 . S
C393 C396 1.388 . S
C394 C393 1.386 . S
C394 C395 1.382 . S
C394 H420 0.950 . S
C395 N392 1.332 . S
C395 C394 1.382 . S
C395 H406 0.952 . S
C396 C393 1.388 . S
C396 C397 1.382 . S
C396 H421 0.950 . S
C397 N392 1.332 . S
C397 C396 1.382 . S
C397 H407 0.948 . S
N398 Co376 2.282 . S
N398 C402 1.332 . S
N398 C403 1.332 . S
C399 C400 1.388 . S
C399 C403 1.382 1_554 S
C399 H422 0.950 . S
C400 C399 1.388 . S
C400 C401 1.386 . S
C401 C400 1.386 . S
C401 C402 1.382 1_554 S
C401 H423 0.950 . S
C402 N398 1.332 . S
C402 C401 1.382 1_556 S
C402 H404 0.952 . S
C403 N398 1.332 . S
C403 C399 1.382 1_556 S
C403 H405 0.948 . S
H404 C402 0.952 . S
H405 C403 0.948 . S
H406 C395 0.952 . S
H407 C397 0.948 . S
C408 C374 1.395 . S
C408 C378 1.391 . S
C409 C371 1.389 . S
C409 C391 1.392 . S
C410 C381 1.392 . S
C410 C383 1.389 . S
C411 C386 1.395 . S
C411 C388 1.391 . S
H412 C372 0.951 . S
H413 C373 0.950 . S
H414 C379 0.949 . S
H415 C380 0.950 . S
H416 C384 0.951 . S
H417 C385 0.950 . S
H418 C389 0.949 . S
H419 C390 0.950 . S
H420 C394 0.950 . S
H421 C396 0.950 . S
H422 C399 0.950 . S
H423 C401 0.950 . S
C424 C425 1.443 . S
C424 N428 1.376 . S
C424 C462 1.389 . S
C425 C424 1.443 . S
C425 C426 1.340 . S
C425 H465 0.951 . S
C426 C425 1.340 . S
C426 C427 1.439 . S
C426 H466 0.950 . S
C427 C426 1.439 . S
C427 N428 1.374 . S
C427 C461 1.395 . S
N428 C424 1.376 . S
N428 C427 1.374 . S
N428 Co429 2.008 . S
Co429 N428 2.008 . S
Co429 N430 1.995 . S
Co429 N435 2.008 . S
Co429 N440 1.995 . S
Co429 N445 2.282 . S
Co429 N451 2.282 . S
N430 Co429 1.995 . S
N430 C431 1.376 . S
N430 C434 1.383 . S
C431 N430 1.376 . S
C431 C432 1.446 . S
C431 C461 1.391 . S
C432 C431 1.446 . S
C432 C433 1.339 . S
C432 H467 0.949 . S
C433 C432 1.339 . S
C433 C434 1.439 . S
C433 H468 0.950 . S
C434 N430 1.383 . S
C434 C433 1.439 . S
C434 C463 1.392 . S
N435 Co429 2.008 . S
N435 C436 1.376 . S
N435 C439 1.374 . S
C436 N435 1.376 . S
C436 C437 1.443 . S
C436 C463 1.389 . S
C437 C436 1.443 . S
C437 C438 1.340 . S
C437 H469 0.951 . S
C438 C437 1.340 . S
C438 C439 1.439 . S
C438 H470 0.950 . S
C439 N435 1.374 . S
C439 C438 1.439 . S
C439 C464 1.395 . S
N440 Co429 1.995 . S
N440 C441 1.376 . S
N440 C444 1.383 . S
C441 N440 1.376 . S
C441 C442 1.446 . S
C441 C464 1.391 . S
C442 C441 1.446 . S
C442 C443 1.339 . S
C442 H471 0.949 . S
C443 C442 1.339 . S
C443 C444 1.439 . S
C443 H472 0.950 . S
C444 N440 1.383 . S
C444 C443 1.439 . S
C444 C462 1.392 . S
N445 Co429 2.282 . S
N445 C448 1.332 . S
N445 C450 1.332 . S
C446 C447 1.386 . S
C446 C449 1.388 . S
C447 C446 1.386 . S
C447 C448 1.382 . S
C447 H473 0.950 . S
C448 N445 1.332 . S
C448 C447 1.382 . S
C448 H459 0.952 . S
C449 C446 1.388 . S
C449 C450 1.382 . S
C449 H474 0.950 . S
C450 N445 1.332 . S
C450 C449 1.382 . S
C450 H460 0.948 . S
N451 Co429 2.282 . S
N451 C455 1.332 . S
N451 C456 1.332 . S
C452 C453 1.388 . S
C452 C456 1.382 . S
C452 H475 0.950 . S
C453 C452 1.388 . S
C453 C454 1.386 . S
C454 C453 1.386 . S
C454 C455 1.382 . S
C454 H476 0.950 . S
C455 N451 1.332 . S
C455 C454 1.382 . S
C455 H457 0.952 . S
C456 N451 1.332 . S
C456 C452 1.382 . S
C456 H458 0.948 . S
H457 C455 0.952 . S
H458 C456 0.948 . S
H459 C448 0.952 . S
H460 C450 0.948 . S
C461 C427 1.395 . S
C461 C431 1.391 . S
C462 C424 1.389 . S
C462 C444 1.392 . S
C463 C434 1.392 . S
C463 C436 1.389 . S
C464 C439 1.395 . S
C464 C441 1.391 . S
H465 C425 0.951 . S
H466 C426 0.950 . S
H467 C432 0.949 . S
H468 C433 0.950 . S
H469 C437 0.951 . S
H470 C438 0.950 . S
H471 C442 0.949 . S
H472 C443 0.950 . S
H473 C447 0.950 . S
H474 C449 0.950 . S
H475 C452 0.950 . S
H476 C454 0.950 . S
C477 C478 1.443 . S
C477 N481 1.376 . S
C477 C515 1.389 . S
C478 C477 1.443 . S
C478 C479 1.340 . S
C478 H518 0.951 . S
C479 C478 1.340 . S
C479 C480 1.439 . S
C479 H519 0.950 . S
C480 C479 1.439 . S
C480 N481 1.374 . S
C480 C514 1.395 . S
N481 C477 1.376 . S
N481 C480 1.374 . S
N481 Co482 2.008 . S
Co482 N481 2.008 . S
Co482 N483 1.995 . S
Co482 N488 2.008 . S
Co482 N493 1.995 . S
Co482 N498 2.282 . S
Co482 N504 2.282 . S
N483 Co482 1.995 . S
N483 C484 1.376 . S
N483 C487 1.383 . S
C484 N483 1.376 . S
C484 C485 1.446 . S
C484 C514 1.391 . S
C485 C484 1.446 . S
C485 C486 1.339 . S
C485 H520 0.949 . S
C486 C485 1.339 . S
C486 C487 1.439 . S
C486 H521 0.950 . S
C487 N483 1.383 . S
C487 C486 1.439 . S
C487 C516 1.392 . S
N488 Co482 2.008 . S
N488 C489 1.376 . S
N488 C492 1.374 . S
C489 N488 1.376 . S
C489 C490 1.443 . S
C489 C516 1.389 . S
C490 C489 1.443 . S
C490 C491 1.340 . S
C490 H522 0.951 . S
C491 C490 1.340 . S
C491 C492 1.439 . S
C491 H523 0.950 . S
C492 N488 1.374 . S
C492 C491 1.439 . S
C492 C517 1.395 . S
N493 Co482 1.995 . S
N493 C494 1.376 . S
N493 C497 1.383 . S
C494 N493 1.376 . S
C494 C495 1.446 . S
C494 C517 1.391 . S
C495 C494 1.446 . S
C495 C496 1.339 . S
C495 H524 0.949 . S
C496 C495 1.339 . S
C496 C497 1.439 . S
C496 H525 0.950 . S
C497 N493 1.383 . S
C497 C496 1.439 . S
C497 C515 1.392 . S
N498 Co482 2.282 . S
N498 C501 1.332 . S
N498 C503 1.332 . S
C499 C500 1.386 . S
C499 C502 1.388 . S
C500 C499 1.386 . S
C500 C501 1.382 . S
C500 H526 0.950 . S
C501 N498 1.332 . S
C501 C500 1.382 . S
C501 H512 0.952 . S
C502 C499 1.388 . S
C502 C503 1.382 . S
C502 H527 0.950 . S
C503 N498 1.332 . S
C503 C502 1.382 . S
C503 H513 0.948 . S
N504 Co482 2.282 . S
N504 C508 1.332 . S
N504 C509 1.332 . S
C505 C506 1.388 . S
C505 C509 1.382 . S
C505 H528 0.950 . S
C506 C505 1.388 . S
C506 C507 1.386 . S
C507 C506 1.386 . S
C507 C508 1.382 . S
C507 H529 0.950 . S
C508 N504 1.332 . S
C508 C507 1.382 . S
C508 H510 0.952 . S
C509 N504 1.332 . S
C509 C505 1.382 . S
C509 H511 0.948 . S
H510 C508 0.952 . S
H511 C509 0.948 . S
H512 C501 0.952 . S
H513 C503 0.948 . S
C514 C480 1.395 . S
C514 C484 1.391 . S
C515 C477 1.389 . S
C515 C497 1.392 . S
C516 C487 1.392 . S
C516 C489 1.389 . S
C517 C492 1.395 . S
C517 C494 1.391 . S
H518 C478 0.951 . S
H519 C479 0.950 . S
H520 C485 0.949 . S
H521 C486 0.950 . S
H522 C490 0.951 . S
H523 C491 0.950 . S
H524 C495 0.949 . S
H525 C496 0.950 . S
H526 C500 0.950 . S
H527 C502 0.950 . S
H528 C505 0.950 . S
H529 C507 0.950 . S
C530 C531 1.443 . S
C530 N534 1.376 . S
C530 C568 1.389 . S
C531 C530 1.443 . S
C531 C532 1.340 . S
C531 H571 0.951 . S
C532 C531 1.340 . S
C532 C533 1.439 . S
C532 H572 0.950 . S
C533 C532 1.439 . S
C533 N534 1.374 . S
C533 C567 1.395 . S
N534 C530 1.376 . S
N534 C533 1.374 . S
N534 Co535 2.008 . S
Co535 N534 2.008 . S
Co535 N536 1.995 . S
Co535 N541 2.008 . S
Co535 N546 1.995 . S
Co535 N551 2.282 . S
Co535 N557 2.282 . S
N536 Co535 1.995 . S
N536 C537 1.376 . S
N536 C540 1.383 . S
C537 N536 1.376 . S
C537 C538 1.446 . S
C537 C567 1.391 . S
C538 C537 1.446 . S
C538 C539 1.339 . S
C538 H573 0.949 . S
C539 C538 1.339 . S
C539 C540 1.439 . S
C539 H574 0.950 . S
C540 N536 1.383 . S
C540 C539 1.439 . S
C540 C569 1.392 . S
N541 Co535 2.008 . S
N541 C542 1.376 . S
N541 C545 1.374 . S
C542 N541 1.376 . S
C542 C543 1.443 . S
C542 C569 1.389 . S
C543 C542 1.443 . S
C543 C544 1.340 . S
C543 H575 0.951 . S
C544 C543 1.340 . S
C544 C545 1.439 . S
C544 H576 0.950 . S
C545 N541 1.374 . S
C545 C544 1.439 . S
C545 C570 1.395 . S
N546 Co535 1.995 . S
N546 C547 1.376 . S
N546 C550 1.383 . S
C547 N546 1.376 . S
C547 C548 1.446 . S
C547 C570 1.391 . S
C548 C547 1.446 . S
C548 C549 1.339 . S
C548 H577 0.949 . S
C549 C548 1.339 . S
C549 C550 1.439 . S
C549 H578 0.950 . S
C550 N546 1.383 . S
C550 C549 1.439 . S
C550 C568 1.392 . S
N551 Co535 2.282 . S
N551 C554 1.332 . S
N551 C556 1.332 . S
C552 C553 1.386 . S
C552 C555 1.388 . S
C553 C552 1.386 . S
C553 C554 1.382 . S
C553 H579 0.950 . S
C554 N551 1.332 . S
C554 C553 1.382 . S
C554 H565 0.952 . S
C555 C552 1.388 . S
C555 C556 1.382 . S
C555 H580 0.950 . S
C556 N551 1.332 . S
C556 C555 1.382 . S
C556 H566 0.948 . S
N557 Co535 2.282 . S
N557 C561 1.332 . S
N557 C562 1.332 . S
C558 C559 1.388 . S
C558 C562 1.382 1_554 S
C558 H581 0.950 . S
C559 C558 1.388 . S
C559 C560 1.386 . S
C560 C559 1.386 . S
C560 C561 1.382 1_554 S
C560 H582 0.950 . S
C561 N557 1.332 . S
C561 C560 1.382 1_556 S
C561 H563 0.952 . S
C562 N557 1.332 . S
C562 C558 1.382 1_556 S
C562 H564 0.948 . S
H563 C561 0.952 . S
H564 C562 0.948 . S
H565 C554 0.952 . S
H566 C556 0.948 . S
C567 C533 1.395 . S
C567 C537 1.391 . S
C568 C530 1.389 . S
C568 C550 1.392 . S
C569 C540 1.392 . S
C569 C542 1.389 . S
C570 C545 1.395 . S
C570 C547 1.391 . S
H571 C531 0.951 . S
H572 C532 0.950 . S
H573 C538 0.949 . S
H574 C539 0.950 . S
H575 C543 0.951 . S
H576 C544 0.950 . S
H577 C548 0.949 . S
H578 C549 0.950 . S
H579 C553 0.950 . S
H580 C555 0.950 . S
H581 C558 0.950 . S
H582 C560 0.950 . S
C583 C584 1.443 . S
C583 N587 1.376 . S
C583 C621 1.389 . S
C584 C583 1.443 . S
C584 C585 1.340 . S
C584 H624 0.951 . S
C585 C584 1.340 . S
C585 C586 1.439 . S
C585 H625 0.950 . S
C586 C585 1.439 . S
C586 N587 1.374 . S
C586 C620 1.395 . S
N587 C583 1.376 . S
N587 C586 1.374 . S
N587 Co588 2.008 . S
Co588 N587 2.008 . S
Co588 N589 1.995 . S
Co588 N594 2.008 . S
Co588 N599 1.995 . S
Co588 N604 2.282 . S
Co588 N610 2.282 . S
N589 Co588 1.995 . S
N589 C590 1.376 . S
N589 C593 1.383 . S
C590 N589 1.376 . S
C590 C591 1.446 . S
C590 C620 1.391 . S
C591 C590 1.446 . S
C591 C592 1.339 . S
C591 H626 0.949 . S
C592 C591 1.339 . S
C592 C593 1.439 . S
C592 H627 0.950 . S
C593 N589 1.383 . S
C593 C592 1.439 . S
C593 C622 1.392 . S
N594 Co588 2.008 . S
N594 C595 1.376 . S
N594 C598 1.374 . S
C595 N594 1.376 . S
C595 C596 1.443 . S
C595 C622 1.389 . S
C596 C595 1.443 . S
C596 C597 1.340 . S
C596 H628 0.951 . S
C597 C596 1.340 . S
C597 C598 1.439 . S
C597 H629 0.950 . S
C598 N594 1.374 . S
C598 C597 1.439 . S
C598 C623 1.395 . S
N599 Co588 1.995 . S
N599 C600 1.376 . S
N599 C603 1.383 . S
C600 N599 1.376 . S
C600 C601 1.446 . S
C600 C623 1.391 . S
C601 C600 1.446 . S
C601 C602 1.339 . S
C601 H630 0.949 . S
C602 C601 1.339 . S
C602 C603 1.439 . S
C602 H631 0.950 . S
C603 N599 1.383 . S
C603 C602 1.439 . S
C603 C621 1.392 . S
N604 Co588 2.282 . S
N604 C607 1.332 . S
N604 C609 1.332 . S
C605 C606 1.386 . S
C605 C608 1.388 . S
C606 C605 1.386 . S
C606 C607 1.382 . S
C606 H632 0.950 . S
C607 N604 1.332 . S
C607 C606 1.382 . S
C607 H618 0.952 . S
C608 C605 1.388 . S
C608 C609 1.382 . S
C608 H633 0.950 . S
C609 N604 1.332 . S
C609 C608 1.382 . S
C609 H619 0.948 . S
N610 Co588 2.282 . S
N610 C614 1.332 . S
N610 C615 1.332 . S
C611 C612 1.388 . S
C611 C615 1.382 . S
C611 H634 0.950 . S
C612 C611 1.388 . S
C612 C613 1.386 . S
C613 C612 1.386 . S
C613 C614 1.382 . S
C613 H635 0.950 . S
C614 N610 1.332 . S
C614 C613 1.382 . S
C614 H616 0.952 . S
C615 N610 1.332 . S
C615 C611 1.382 . S
C615 H617 0.948 . S
H616 C614 0.952 . S
H617 C615 0.948 . S
H618 C607 0.952 . S
H619 C609 0.948 . S
C620 C586 1.395 . S
C620 C590 1.391 . S
C621 C583 1.389 . S
C621 C603 1.392 . S
C622 C593 1.392 . S
C622 C595 1.389 . S
C623 C598 1.395 . S
C623 C600 1.391 . S
H624 C584 0.951 . S
H625 C585 0.950 . S
H626 C591 0.949 . S
H627 C592 0.950 . S
H628 C596 0.951 . S
H629 C597 0.950 . S
H630 C601 0.949 . S
H631 C602 0.950 . S
H632 C606 0.950 . S
H633 C608 0.950 . S
H634 C611 0.950 . S
H635 C613 0.950 . S
H636 C648 0.930 . S
H637 C650 0.930 . S
H638 C651 0.930 . S
H639 C655 0.959 . S
H640 C655 0.959 . S
H641 C655 0.961 . S
H642 C656 0.960 . S
H643 C656 0.961 . S
H644 C656 0.959 . S
H645 C659 0.929 . S
H646 C660 0.931 . S
H647 C662 0.930 . S
C648 H636 0.930 . S
C648 C649 1.399 . S
C648 C653 1.399 . S
C649 C648 1.399 . S
C649 C650 1.376 . S
C650 H637 0.930 . S
C650 C649 1.376 . S
C650 C651 1.388 . S
C651 H638 0.930 . S
C651 C650 1.388 . S
C651 C652 1.390 . S
C652 C651 1.390 . S
C652 C653 1.394 . S
C652 C658 1.465 . S
C653 C648 1.399 . S
C653 C652 1.394 . S
C653 C654 1.516 . S
C654 C653 1.516 . S
C654 C655 1.502 . S
C654 C656 1.561 . S
C654 C657 1.526 . S
C655 H639 0.959 . S
C655 H640 0.959 . S
C655 H641 0.961 . S
C655 C654 1.502 . S
C656 H642 0.960 . S
C656 H643 0.961 . S
C656 H644 0.959 . S
C656 C654 1.561 . S
C657 C654 1.526 . S
C657 C658 1.396 . S
C657 C662 1.390 . S
C658 C652 1.465 . S
C658 C657 1.396 . S
C658 C659 1.399 . S
C659 H645 0.929 . S
C659 C658 1.399 . S
C659 C660 1.385 . S
C660 H646 0.931 . S
C660 C659 1.385 . S
C660 C661 1.389 . S
C661 C660 1.389 . S
C661 C662 1.387 . S
C662 H647 0.930 . S
C662 C657 1.390 . S
C662 C661 1.387 . S
H663 C675 0.930 . S
H664 C677 0.930 . S
H665 C678 0.930 . S
H666 C682 0.959 . S
H667 C682 0.959 . S
H668 C682 0.961 . S
H669 C683 0.960 . S
H670 C683 0.961 . S
H671 C683 0.959 . S
H672 C686 0.929 . S
H673 C687 0.931 . S
H674 C689 0.930 . S
C675 H663 0.930 . S
C675 C676 1.399 . S
C675 C680 1.399 . S
C676 C675 1.399 . S
C676 C677 1.376 . S
C677 H664 0.930 . S
C677 C676 1.376 . S
C677 C678 1.388 . S
C678 H665 0.930 . S
C678 C677 1.388 . S
C678 C679 1.390 . S
C679 C678 1.390 . S
C679 C680 1.394 . S
C679 C685 1.465 . S
C680 C675 1.399 . S
C680 C679 1.394 . S
C680 C681 1.516 . S
C681 C680 1.516 . S
C681 C682 1.502 . S
C681 C683 1.561 . S
C681 C684 1.526 . S
C682 H666 0.959 . S
C682 H667 0.959 . S
C682 H668 0.961 . S
C682 C681 1.502 . S
C683 H669 0.960 . S
C683 H670 0.961 . S
C683 H671 0.959 . S
C683 C681 1.561 . S
C684 C681 1.526 . S
C684 C685 1.396 . S
C684 C689 1.390 . S
C685 C679 1.465 . S
C685 C684 1.396 . S
C685 C686 1.399 . S
C686 H672 0.929 . S
C686 C685 1.399 . S
C686 C687 1.385 . S
C687 H673 0.931 . S
C687 C686 1.385 . S
C687 C688 1.389 . S
C688 C687 1.389 . S
C688 C689 1.387 . S
C689 H674 0.930 . S
C689 C684 1.390 . S
C689 C688 1.387 . S
H690 C702 0.930 . S
H691 C704 0.930 . S
H692 C705 0.930 . S
H693 C709 0.959 . S
H694 C709 0.959 1_554 S
H695 C709 0.961 . S
H696 C710 0.960 1_556 S
H697 C710 0.961 . S
H698 C710 0.959 . S
H699 C713 0.929 . S
H700 C714 0.931 . S
H701 C716 0.930 . S
C702 H690 0.930 . S
C702 C703 1.399 . S
C702 C707 1.399 . S
C703 C702 1.399 . S
C703 C704 1.376 . S
C704 H691 0.930 . S
C704 C703 1.376 . S
C704 C705 1.388 . S
C705 H692 0.930 . S
C705 C704 1.388 . S
C705 C706 1.390 . S
C706 C705 1.390 . S
C706 C707 1.394 . S
C706 C712 1.465 1_556 S
C707 C702 1.399 . S
C707 C706 1.394 . S
C707 C708 1.532 . S
C708 C707 1.532 . S
C708 C709 1.504 . S
C708 C710 1.559 1_556 S
C708 C711 1.510 1_556 S
C709 H693 0.959 . S
C709 H694 0.959 1_556 S
C709 H695 0.961 . S
C709 C708 1.504 . S
C710 H696 0.960 1_554 S
C710 H697 0.961 . S
C710 H698 0.959 . S
C710 C708 1.559 1_554 S
C711 C708 1.510 1_554 S
C711 C712 1.396 . S
C711 C716 1.390 . S
C712 C706 1.465 1_554 S
C712 C711 1.396 . S
C712 C713 1.399 . S
C713 H699 0.929 . S
C713 C712 1.399 . S
C713 C714 1.385 . S
C714 H700 0.931 . S
C714 C713 1.385 . S
C714 C715 1.389 . S
C715 C714 1.389 . S
C715 C716 1.387 . S
C716 H701 0.930 . S
C716 C711 1.390 . S
C716 C715 1.387 . S
H717 C729 0.930 . S
H718 C731 0.930 . S
H719 C732 0.930 . S
H720 C736 0.959 . S
H721 C736 0.959 . S
H722 C736 0.961 . S
H723 C737 0.960 . S
H724 C737 0.961 . S
H725 C737 0.959 . S
H726 C740 0.929 . S
H727 C741 0.931 . S
H728 C743 0.930 . S
C729 H717 0.930 . S
C729 C730 1.399 . S
C729 C734 1.399 . S
C730 C729 1.399 . S
C730 C731 1.376 . S
C731 H718 0.930 . S
C731 C730 1.376 . S
C731 C732 1.388 . S
C732 H719 0.930 . S
C732 C731 1.388 . S
C732 C733 1.390 . S
C733 C732 1.390 . S
C733 C734 1.394 . S
C733 C739 1.465 . S
C734 C729 1.399 . S
C734 C733 1.394 . S
C734 C735 1.516 . S
C735 C734 1.516 . S
C735 C736 1.502 . S
C735 C737 1.561 . S
C735 C738 1.526 . S
C736 H720 0.959 . S
C736 H721 0.959 . S
C736 H722 0.961 . S
C736 C735 1.502 . S
C737 H723 0.960 . S
C737 H724 0.961 . S
C737 H725 0.959 . S
C737 C735 1.561 . S
C738 C735 1.526 . S
C738 C739 1.396 . S
C738 C743 1.390 . S
C739 C733 1.465 . S
C739 C738 1.396 . S
C739 C740 1.399 . S
C740 H726 0.929 . S
C740 C739 1.399 . S
C740 C741 1.385 . S
C741 H727 0.931 . S
C741 C740 1.385 . S
C741 C742 1.389 . S
C742 C741 1.389 . S
C742 C743 1.387 . S
C743 H728 0.930 . S
C743 C738 1.390 . S
C743 C742 1.387 . S
H744 C756 0.930 . S
H745 C758 0.930 . S
H746 C759 0.930 . S
H747 C763 0.959 . S
H748 C763 0.959 . S
H749 C763 0.961 . S
H750 C764 0.960 . S
H751 C764 0.961 . S
H752 C764 0.959 . S
H753 C767 0.929 . S
H754 C768 0.931 . S
H755 C770 0.930 . S
C756 H744 0.930 . S
C756 C757 1.399 . S
C756 C761 1.399 . S
C757 C756 1.399 . S
C757 C758 1.376 . S
C758 H745 0.930 . S
C758 C757 1.376 . S
C758 C759 1.388 . S
C759 H746 0.930 . S
C759 C758 1.388 . S
C759 C760 1.390 . S
C760 C759 1.390 . S
C760 C761 1.394 . S
C760 C766 1.465 . S
C761 C756 1.399 . S
C761 C760 1.394 . S
C761 C762 1.516 . S
C762 C761 1.516 . S
C762 C763 1.502 . S
C762 C764 1.561 . S
C762 C765 1.526 . S
C763 H747 0.959 . S
C763 H748 0.959 . S
C763 H749 0.961 . S
C763 C762 1.502 . S
C764 H750 0.960 . S
C764 H751 0.961 . S
C764 H752 0.959 . S
C764 C762 1.561 . S
C765 C762 1.526 . S
C765 C766 1.396 . S
C765 C770 1.390 . S
C766 C760 1.465 . S
C766 C765 1.396 . S
C766 C767 1.399 . S
C767 H753 0.929 . S
C767 C766 1.399 . S
C767 C768 1.385 . S
C768 H754 0.931 . S
C768 C767 1.385 . S
C768 C769 1.389 . S
C769 C768 1.389 . S
C769 C770 1.387 . S
C770 H755 0.930 . S
C770 C765 1.390 . S
C770 C769 1.387 . S
H771 C783 0.930 . S
H772 C785 0.930 . S
H773 C786 0.930 . S
H774 C790 0.959 . S
H775 C790 0.959 . S
H776 C790 0.961 1_554 S
H777 C791 0.960 1_554 S
H778 C791 0.961 . S
H779 C791 0.959 . S
H780 C794 0.929 . S
H781 C795 0.931 . S
H782 C797 0.930 . S
C783 H771 0.930 . S
C783 C784 1.399 . S
C783 C788 1.399 . S
C784 C783 1.399 . S
C784 C785 1.376 . S
C785 H772 0.930 . S
C785 C784 1.376 . S
C785 C786 1.388 . S
C786 H773 0.930 . S
C786 C785 1.388 . S
C786 C787 1.390 . S
C787 C786 1.390 . S
C787 C788 1.394 . S
C787 C793 1.465 1_554 S
C788 C783 1.399 . S
C788 C787 1.394 . S
C788 C789 1.516 1_554 S
C789 C788 1.516 1_556 S
C789 C790 1.502 . S
C789 C791 1.561 . S
C789 C792 1.526 . S
C790 H774 0.959 . S
C790 H775 0.959 . S
C790 H776 0.961 1_556 S
C790 C789 1.502 . S
C791 H777 0.960 1_556 S
C791 H778 0.961 . S
C791 H779 0.959 . S
C791 C789 1.561 . S
C792 C789 1.526 . S
C792 C793 1.396 . S
C792 C797 1.390 . S
C793 C787 1.465 1_556 S
C793 C792 1.396 . S
C793 C794 1.399 . S
C794 H780 0.929 . S
C794 C793 1.399 . S
C794 C795 1.385 . S
C795 H781 0.931 . S
C795 C794 1.385 . S
C795 C796 1.389 . S
C796 C795 1.389 . S
C796 C797 1.387 . S
C797 H782 0.930 . S
C797 C792 1.390 . S
C797 C796 1.387 . S
H798 C810 0.930 . S
H799 C812 0.930 . S
H800 C813 0.934 . S
H801 C817 0.959 . S
H802 C817 0.959 . S
H803 C817 0.961 . S
H804 C818 0.960 . S
H805 C818 0.961 . S
H806 C818 0.959 . S
H807 C821 0.929 . S
H808 C822 0.931 . S
H809 C824 0.930 . S
C810 H798 0.930 . S
C810 C811 1.399 . S
C810 C815 1.399 . S
C811 C810 1.399 . S
C811 C812 1.376 . S
C812 H799 0.930 . S
C812 C811 1.376 . S
C812 C813 1.388 . S
C813 H800 0.934 . S
C813 C812 1.388 . S
C813 C814 1.390 . S
C814 C813 1.390 . S
C814 C815 1.394 . S
C814 C820 1.465 1_554 S
C815 C810 1.399 . S
C815 C814 1.394 . S
C815 C816 1.516 . S
C816 C815 1.516 . S
C816 C817 1.502 . S
C816 C818 1.561 1_554 S
C816 C819 1.526 1_554 S
C817 H801 0.959 . S
C817 H802 0.959 . S
C817 H803 0.961 . S
C817 C816 1.502 . S
C818 H804 0.960 . S
C818 H805 0.961 . S
C818 H806 0.959 . S
C818 C816 1.561 1_556 S
C819 C816 1.526 1_556 S
C819 C820 1.396 . S
C819 C824 1.390 . S
C820 C814 1.465 1_556 S
C820 C819 1.396 . S
C820 C821 1.399 . S
C821 H807 0.929 . S
C821 C820 1.399 . S
C821 C822 1.385 . S
C822 H808 0.931 . S
C822 C821 1.385 . S
C822 C823 1.389 . S
C823 C822 1.389 . S
C823 C824 1.387 . S
C824 H809 0.930 . S
C824 C819 1.390 . S
C824 C823 1.387 . S
H825 C837 0.930 . S
H826 C839 0.930 . S
H827 C840 0.930 . S
H828 C844 0.959 . S
H829 C844 0.959 . S
H830 C844 0.961 . S
H831 C845 0.960 . S
H832 C845 0.961 . S
H833 C845 0.959 . S
H834 C848 0.929 . S
H835 C849 0.931 . S
H836 C851 0.930 . S
C837 H825 0.930 . S
C837 C838 1.399 . S
C837 C842 1.399 . S
C838 C837 1.399 . S
C838 C839 1.376 . S
C839 H826 0.930 . S
C839 C838 1.376 . S
C839 C840 1.388 . S
C840 H827 0.930 . S
C840 C839 1.388 . S
C840 C841 1.390 . S
C841 C840 1.390 . S
C841 C842 1.394 . S
C841 C847 1.465 . S
C842 C837 1.399 . S
C842 C841 1.394 . S
C842 C843 1.516 . S
C843 C842 1.516 . S
C843 C844 1.502 . S
C843 C845 1.561 . S
C843 C846 1.526 . S
C844 H828 0.959 . S
C844 H829 0.959 . S
C844 H830 0.961 . S
C844 C843 1.502 . S
C845 H831 0.960 . S
C845 H832 0.961 . S
C845 H833 0.959 . S
C845 C843 1.561 . S
C846 C843 1.526 . S
C846 C847 1.396 . S
C846 C851 1.390 . S
C847 C841 1.465 . S
C847 C846 1.396 . S
C847 C848 1.399 . S
C848 H834 0.929 . S
C848 C847 1.399 . S
C848 C849 1.385 . S
C849 H835 0.931 . S
C849 C848 1.385 . S
C849 C850 1.389 . S
C850 C849 1.389 . S
C850 C851 1.387 . S
C851 H836 0.930 . S
C851 C846 1.390 . S
C851 C850 1.387 . S
H852 C864 0.930 . S
H853 C866 0.930 . S
H854 C867 0.930 . S
H855 C871 0.959 . S
H856 C871 0.959 . S
H857 C871 0.961 . S
H858 C872 0.960 . S
H859 C872 0.961 . S
H860 C872 0.959 . S
H861 C875 0.929 . S
H862 C876 0.931 . S
H863 C878 0.930 . S
C864 H852 0.930 . S
C864 C865 1.399 . S
C864 C869 1.399 . S
C865 C864 1.399 . S
C865 C866 1.376 . S
C866 H853 0.930 . S
C866 C865 1.376 . S
C866 C867 1.388 . S
C867 H854 0.930 . S
C867 C866 1.388 . S
C867 C868 1.390 . S
C868 C867 1.390 . S
C868 C869 1.394 . S
C868 C874 1.465 . S
C869 C864 1.399 . S
C869 C868 1.394 . S
C869 C870 1.516 . S
C870 C869 1.516 . S
C870 C871 1.502 . S
C870 C872 1.561 . S
C870 C873 1.526 . S
C871 H855 0.959 . S
C871 H856 0.959 . S
C871 H857 0.961 . S
C871 C870 1.502 . S
C872 H858 0.960 . S
C872 H859 0.961 . S
C872 H860 0.959 . S
C872 C870 1.561 . S
C873 C870 1.526 . S
C873 C874 1.396 . S
C873 C878 1.390 . S
C874 C868 1.465 . S
C874 C873 1.396 . S
C874 C875 1.399 . S
C875 H861 0.929 . S
C875 C874 1.399 . S
C875 C876 1.385 . S
C876 H862 0.931 . S
C876 C875 1.385 . S
C876 C877 1.389 . S
C877 C876 1.389 . S
C877 C878 1.387 . S
C878 H863 0.930 . S
C878 C873 1.390 . S
C878 C877 1.387 . S
H879 C891 0.930 . S
H880 C893 0.930 . S
H881 C894 0.930 . S
H882 C898 0.959 . S
H883 C898 0.959 . S
H884 C898 0.961 . S
H885 C899 0.960 . S
H886 C899 0.961 1_556 S
H887 C899 0.959 . S
H888 C902 0.920 1_554 S
H889 C903 0.931 . S
H890 C905 0.930 . S
C891 H879 0.930 . S
C891 C892 1.399 . S
C891 C896 1.399 . S
C892 C891 1.399 . S
C892 C893 1.376 . S
C893 H880 0.930 . S
C893 C892 1.376 . S
C893 C894 1.388 . S
C894 H881 0.930 . S
C894 C893 1.388 . S
C894 C895 1.390 . S
C895 C894 1.390 . S
C895 C896 1.394 . S
C895 C901 1.472 . S
C896 C891 1.399 . S
C896 C895 1.394 . S
C896 C897 1.516 1_554 S
C897 C896 1.516 1_556 S
C897 C898 1.502 . S
C897 C899 1.561 1_556 S
C897 C900 1.526 . S
C898 H882 0.959 . S
C898 H883 0.959 . S
C898 H884 0.961 . S
C898 C897 1.502 . S
C899 H885 0.960 . S
C899 H886 0.961 1_554 S
C899 H887 0.959 . S
C899 C897 1.561 1_554 S
C900 C897 1.526 . S
C900 C901 1.389 1_556 S
C900 C905 1.390 . S
C901 C895 1.472 . S
C901 C900 1.389 1_554 S
C901 C902 1.398 1_554 S
C902 H888 0.920 1_556 S
C902 C901 1.398 1_556 S
C902 C903 1.395 . S
C903 H889 0.931 . S
C903 C902 1.395 . S
C903 C904 1.389 . S
C904 C903 1.389 . S
C904 C905 1.387 . S
C905 H890 0.930 . S
C905 C900 1.390 . S
C905 C904 1.387 . S
H906 C918 0.930 . S
H907 C920 0.930 . S
H908 C921 0.930 . S
H909 C925 0.959 . S
H910 C925 0.959 . S
H911 C925 0.961 . S
H912 C926 0.960 . S
H913 C926 0.961 . S
H914 C926 0.959 . S
H915 C929 0.929 . S
H916 C930 0.931 . S
H917 C932 0.930 . S
C918 H906 0.930 . S
C918 C919 1.399 . S
C918 C923 1.399 . S
C919 C918 1.399 . S
C919 C920 1.376 . S
C920 H907 0.930 . S
C920 C919 1.376 . S
C920 C921 1.388 . S
C921 H908 0.930 . S
C921 C920 1.388 . S
C921 C922 1.390 . S
C922 C921 1.390 . S
C922 C923 1.394 . S
C922 C928 1.465 . S
C923 C918 1.399 . S
C923 C922 1.394 . S
C923 C924 1.516 . S
C924 C923 1.516 . S
C924 C925 1.502 . S
C924 C926 1.561 . S
C924 C927 1.526 . S
C925 H909 0.959 . S
C925 H910 0.959 . S
C925 H911 0.961 . S
C925 C924 1.502 . S
C926 H912 0.960 . S
C926 H913 0.961 . S
C926 H914 0.959 . S
C926 C924 1.561 . S
C927 C924 1.526 . S
C927 C928 1.396 . S
C927 C932 1.390 . S
C928 C922 1.465 . S
C928 C927 1.396 . S
C928 C929 1.399 . S
C929 H915 0.929 . S
C929 C928 1.399 . S
C929 C930 1.385 . S
C930 H916 0.931 . S
C930 C929 1.385 . S
C930 C931 1.389 . S
C931 C930 1.389 . S
C931 C932 1.387 . S
C932 H917 0.930 . S
C932 C927 1.390 . S
C932 C931 1.387 . S
H933 C945 0.930 . S
H934 C947 0.930 . S
H935 C948 0.930 . S
H936 C952 0.959 . S
H937 C952 0.959 . S
H938 C952 0.961 . S
H939 C953 0.960 . S
H940 C953 0.961 . S
H941 C953 0.959 . S
H942 C956 0.929 . S
H943 C957 0.931 . S
H944 C959 0.930 . S
C945 H933 0.930 . S
C945 C946 1.399 . S
C945 C950 1.399 . S
C946 C945 1.399 . S
C946 C947 1.376 . S
C947 H934 0.930 . S
C947 C946 1.376 . S
C947 C948 1.388 . S
C948 H935 0.930 . S
C948 C947 1.388 . S
C948 C949 1.390 . S
C949 C948 1.390 . S
C949 C950 1.394 . S
C949 C955 1.465 . S
C950 C945 1.399 . S
C950 C949 1.394 . S
C950 C951 1.516 . S
C951 C950 1.516 . S
C951 C952 1.502 . S
C951 C953 1.561 . S
C951 C954 1.526 . S
C952 H936 0.959 . S
C952 H937 0.959 . S
C952 H938 0.961 . S
C952 C951 1.502 . S
C953 H939 0.960 . S
C953 H940 0.961 . S
C953 H941 0.959 . S
C953 C951 1.561 . S
C954 C951 1.526 . S
C954 C955 1.396 . S
C954 C959 1.390 . S
C955 C949 1.465 . S
C955 C954 1.396 . S
C955 C956 1.399 . S
C956 H942 0.929 . S
C956 C955 1.399 . S
C956 C957 1.385 . S
C957 H943 0.931 . S
C957 C956 1.385 . S
C957 C958 1.389 . S
C958 C957 1.389 . S
C958 C959 1.387 . S
C959 H944 0.930 . S
C959 C954 1.390 . S
C959 C958 1.387 . S
H960 C972 0.930 . S
H961 C974 0.930 . S
H962 C975 0.930 . S
H963 C979 0.959 . S
H964 C979 0.959 . S
H965 C979 0.961 . S
H966 C980 0.960 . S
H967 C980 0.961 . S
H968 C980 0.959 . S
H969 C983 0.929 . S
H970 C984 0.931 . S
H971 C986 0.930 . S
C972 H960 0.930 . S
C972 C973 1.399 . S
C972 C977 1.399 . S
C973 C972 1.399 . S
C973 C974 1.376 . S
C974 H961 0.930 . S
C974 C973 1.376 . S
C974 C975 1.388 . S
C975 H962 0.930 . S
C975 C974 1.388 . S
C975 C976 1.390 . S
C976 C975 1.390 . S
C976 C977 1.394 . S
C976 C982 1.465 . S
C977 C972 1.399 . S
C977 C976 1.394 . S
C977 C978 1.516 . S
C978 C977 1.516 . S
C978 C979 1.502 . S
C978 C980 1.561 . S
C978 C981 1.526 . S
C979 H963 0.959 . S
C979 H964 0.959 . S
C979 H965 0.961 . S
C979 C978 1.502 . S
C980 H966 0.960 . S
C980 H967 0.961 . S
C980 H968 0.959 . S
C980 C978 1.561 . S
C981 C978 1.526 . S
C981 C982 1.396 . S
C981 C986 1.390 . S
C982 C976 1.465 . S
C982 C981 1.396 . S
C982 C983 1.399 . S
C983 H969 0.929 . S
C983 C982 1.399 . S
C983 C984 1.385 . S
C984 H970 0.931 . S
C984 C983 1.385 . S
C984 C985 1.389 . S
C985 C984 1.389 . S
C985 C986 1.387 . S
C986 H971 0.930 . S
C986 C981 1.390 . S
C986 C985 1.387 . S
H987 C999 0.930 . S
H988 C1001 0.930 . S
H989 C1002 0.930 . S
H990 C1006 0.959 . S
H991 C1006 0.959 . S
H992 C1006 0.961 1_655 S
H993 C1007 0.960 . S
H994 C1007 0.961 1_455 S
H995 C1007 0.959 . S
H996 C1010 0.929 . S
H997 C1011 0.931 . S
H998 C1013 0.930 . S
C999 H987 0.930 . S
C999 C1000 1.399 . S
C999 C1004 1.399 . S
C1000 C999 1.399 . S
C1000 C1001 1.376 . S
C1001 H988 0.930 . S
C1001 C1000 1.376 . S
C1001 C1002 1.388 . S
C1002 H989 0.930 . S
C1002 C1001 1.388 . S
C1002 C1003 1.390 . S
C1003 C1002 1.390 . S
C1003 C1004 1.394 . S
C1003 C1009 1.465 1_655 S
C1004 C999 1.399 . S
C1004 C1003 1.394 . S
C1004 C1005 1.513 . S
C1005 C1004 1.513 . S
C1005 C1006 1.500 1_655 S
C1005 C1007 1.563 . S
C1005 C1008 1.529 1_655 S
C1006 H990 0.959 . S
C1006 H991 0.959 . S
C1006 H992 0.961 1_455 S
C1006 C1005 1.500 1_455 S
C1007 H993 0.960 . S
C1007 H994 0.961 1_655 S
C1007 H995 0.959 . S
C1007 C1005 1.563 . S
C1008 C1005 1.529 1_455 S
C1008 C1009 1.396 . S
C1008 C1013 1.390 . S
C1009 C1003 1.465 1_455 S
C1009 C1008 1.396 . S
C1009 C1010 1.399 . S
C1010 H996 0.929 . S
C1010 C1009 1.399 . S
C1010 C1011 1.385 . S
C1011 H997 0.931 . S
C1011 C1010 1.385 . S
C1011 C1012 1.389 . S
C1012 C1011 1.389 . S
C1012 C1013 1.387 . S
C1013 H998 0.930 . S
C1013 C1008 1.390 . S
C1013 C1012 1.387 . S
H1014 C1026 0.930 . S
H1015 C1028 0.930 . S
H1016 C1029 0.930 . S
H1017 C1033 0.955 . S
H1018 C1033 0.939 1_565 S
H1019 C1033 0.979 . S
H1020 C1034 0.960 1_545 S
H1021 C1034 0.961 . S
H1022 C1034 0.959 . S
H1023 C1037 0.929 . S
H1024 C1038 0.931 . S
H1025 C1040 0.930 . S
C1026 H1014 0.930 . S
C1026 C1027 1.399 . S
C1026 C1031 1.399 . S
C1027 C1026 1.399 . S
C1027 C1028 1.376 . S
C1028 H1015 0.930 . S
C1028 C1027 1.376 . S
C1028 C1029 1.388 . S
C1029 H1016 0.930 . S
C1029 C1028 1.388 . S
C1029 C1030 1.390 . S
C1030 C1029 1.390 . S
C1030 C1031 1.394 . S
C1030 C1036 1.465 1_545 S
C1031 C1026 1.399 . S
C1031 C1030 1.394 . S
C1031 C1032 1.490 1_545 S
C1032 C1031 1.490 1_565 S
C1032 C1033 1.480 1_565 S
C1032 C1034 1.582 . S
C1032 C1035 1.548 . S
C1033 H1017 0.955 . S
C1033 H1018 0.939 1_545 S
C1033 H1019 0.979 . S
C1033 C1032 1.480 1_545 S
C1034 H1020 0.960 1_565 S
C1034 H1021 0.961 . S
C1034 H1022 0.959 . S
C1034 C1032 1.582 . S
C1035 C1032 1.548 . S
C1035 C1036 1.396 . S
C1035 C1040 1.390 . S
C1036 C1030 1.465 1_565 S
C1036 C1035 1.396 . S
C1036 C1037 1.399 . S
C1037 H1023 0.929 . S
C1037 C1036 1.399 . S
C1037 C1038 1.385 . S
C1038 H1024 0.931 . S
C1038 C1037 1.385 . S
C1038 C1039 1.389 . S
C1039 C1038 1.389 . S
C1039 C1040 1.387 . S
C1040 H1025 0.930 . S
C1040 C1035 1.390 . S
C1040 C1039 1.387 . S
H1041 C1053 0.930 . S
H1042 C1055 0.930 . S
H1043 C1056 0.930 . S
H1044 C1060 0.959 . S
H1045 C1060 0.959 . S
H1046 C1060 0.961 . S
H1047 C1061 0.960 . S
H1048 C1061 0.961 . S
H1049 C1061 0.959 . S
H1050 C1064 0.929 . S
H1051 C1065 0.931 . S
H1052 C1067 0.930 . S
C1053 H1041 0.930 . S
C1053 C1054 1.399 . S
C1053 C1058 1.399 . S
C1054 C1053 1.399 . S
C1054 C1055 1.376 . S
C1055 H1042 0.930 . S
C1055 C1054 1.376 . S
C1055 C1056 1.388 . S
C1056 H1043 0.930 . S
C1056 C1055 1.388 . S
C1056 C1057 1.390 . S
C1057 C1056 1.390 . S
C1057 C1058 1.394 . S
C1057 C1063 1.465 . S
C1058 C1053 1.399 . S
C1058 C1057 1.394 . S
C1058 C1059 1.516 . S
C1059 C1058 1.516 . S
C1059 C1060 1.502 . S
C1059 C1061 1.561 . S
C1059 C1062 1.526 . S
C1060 H1044 0.959 . S
C1060 H1045 0.959 . S
C1060 H1046 0.961 . S
C1060 C1059 1.502 . S
C1061 H1047 0.960 . S
C1061 H1048 0.961 . S
C1061 H1049 0.959 . S
C1061 C1059 1.561 . S
C1062 C1059 1.526 . S
C1062 C1063 1.396 . S
C1062 C1067 1.390 . S
C1063 C1057 1.465 . S
C1063 C1062 1.396 . S
C1063 C1064 1.399 . S
C1064 H1050 0.929 . S
C1064 C1063 1.399 . S
C1064 C1065 1.385 . S
C1065 H1051 0.931 . S
C1065 C1064 1.385 . S
C1065 C1066 1.389 . S
C1066 C1065 1.389 . S
C1066 C1067 1.387 . S
C1067 H1052 0.930 . S
C1067 C1062 1.390 . S
C1067 C1066 1.387 . S
H1068 C1080 0.930 . S
H1069 C1082 0.930 . S
H1070 C1083 0.930 . S
H1071 C1087 0.957 . S
H1072 C1087 0.925 1_655 S
H1073 C1087 0.994 . S
H1074 C1088 0.960 1_455 S
H1075 C1088 0.961 . S
H1076 C1088 0.959 . S
H1077 C1091 0.929 . S
H1078 C1092 0.931 . S
H1079 C1094 0.930 . S
C1080 H1068 0.930 . S
C1080 C1081 1.399 . S
C1080 C1085 1.399 . S
C1081 C1080 1.399 . S
C1081 C1082 1.376 . S
C1082 H1069 0.930 . S
C1082 C1081 1.376 . S
C1082 C1083 1.388 . S
C1083 H1070 0.930 . S
C1083 C1082 1.388 . S
C1083 C1084 1.390 . S
C1084 C1083 1.390 . S
C1084 C1085 1.394 . S
C1084 C1090 1.465 1_455 S
C1085 C1080 1.399 . S
C1085 C1084 1.394 . S
C1085 C1086 1.499 1_455 S
C1086 C1085 1.499 1_655 S
C1086 C1087 1.474 1_655 S
C1086 C1088 1.575 . S
C1086 C1089 1.541 . S
C1087 H1071 0.957 . S
C1087 H1072 0.925 1_455 S
C1087 H1073 0.994 . S
C1087 C1086 1.474 1_455 S
C1088 H1074 0.960 1_655 S
C1088 H1075 0.961 . S
C1088 H1076 0.959 . S
C1088 C1086 1.575 . S
C1089 C1086 1.541 . S
C1089 C1090 1.396 . S
C1089 C1094 1.390 . S
C1090 C1084 1.465 1_655 S
C1090 C1089 1.396 . S
C1090 C1091 1.399 . S
C1091 H1077 0.929 . S
C1091 C1090 1.399 . S
C1091 C1092 1.385 . S
C1092 H1078 0.931 . S
C1092 C1091 1.385 . S
C1092 C1093 1.389 . S
C1093 C1092 1.389 . S
C1093 C1094 1.387 . S
C1094 H1079 0.930 . S
C1094 C1089 1.390 . S
C1094 C1093 1.387 . S
H1095 C1107 0.930 . S
H1096 C1109 0.930 . S
H1097 C1110 0.930 . S
H1098 C1114 0.959 . S
H1099 C1114 0.959 . S
H1100 C1114 0.961 1_565 S
H1101 C1115 0.960 . S
H1102 C1115 0.961 1_545 S
H1103 C1115 0.959 . S
H1104 C1118 0.929 . S
H1105 C1119 0.931 . S
H1106 C1121 0.930 . S
C1107 H1095 0.930 . S
C1107 C1108 1.399 . S
C1107 C1112 1.399 . S
C1108 C1107 1.399 . S
C1108 C1109 1.376 . S
C1109 H1096 0.930 . S
C1109 C1108 1.376 . S
C1109 C1110 1.388 . S
C1110 H1097 0.930 . S
C1110 C1109 1.388 . S
C1110 C1111 1.390 . S
C1111 C1110 1.390 . S
C1111 C1112 1.394 . S
C1111 C1117 1.465 1_565 S
C1112 C1107 1.399 . S
C1112 C1111 1.394 . S
C1112 C1113 1.493 1_565 S
C1113 C1112 1.493 1_545 S
C1113 C1114 1.489 . S
C1113 C1115 1.572 1_545 S
C1113 C1116 1.553 . S
C1114 H1098 0.959 . S
C1114 H1099 0.959 . S
C1114 H1100 0.961 1_545 S
C1114 C1113 1.489 . S
C1115 H1101 0.960 . S
C1115 H1102 0.961 1_565 S
C1115 H1103 0.959 . S
C1115 C1113 1.572 1_565 S
C1116 C1113 1.553 . S
C1116 C1117 1.396 . S
C1116 C1121 1.390 . S
C1117 C1111 1.465 1_545 S
C1117 C1116 1.396 . S
C1117 C1118 1.399 . S
C1118 H1104 0.929 . S
C1118 C1117 1.399 . S
C1118 C1119 1.385 . S
C1119 H1105 0.931 . S
C1119 C1118 1.385 . S
C1119 C1120 1.389 . S
C1120 C1119 1.389 . S
C1120 C1121 1.387 . S
C1121 H1106 0.930 . S
C1121 C1116 1.390 . S
C1121 C1120 1.387 . S
H1122 C1134 0.930 . S
H1123 C1136 0.930 . S
H1124 C1137 0.930 . S
H1125 C1141 0.959 . S
H1126 C1141 0.959 . S
H1127 C1141 0.961 . S
H1128 C1142 0.960 . S
H1129 C1142 0.961 . S
H1130 C1142 0.959 . S
H1131 C1145 0.929 . S
H1132 C1146 0.931 . S
H1133 C1148 0.930 . S
C1134 H1122 0.930 . S
C1134 C1135 1.399 . S
C1134 C1139 1.399 . S
C1135 C1134 1.399 . S
C1135 C1136 1.376 . S
C1136 H1123 0.930 . S
C1136 C1135 1.376 . S
C1136 C1137 1.388 . S
C1137 H1124 0.930 . S
C1137 C1136 1.388 . S
C1137 C1138 1.390 . S
C1138 C1137 1.390 . S
C1138 C1139 1.394 . S
C1138 C1144 1.465 . S
C1139 C1134 1.399 . S
C1139 C1138 1.394 . S
C1139 C1140 1.516 . S
C1140 C1139 1.516 . S
C1140 C1141 1.502 . S
C1140 C1142 1.561 . S
C1140 C1143 1.526 . S
C1141 H1125 0.959 . S
C1141 H1126 0.959 . S
C1141 H1127 0.961 . S
C1141 C1140 1.502 . S
C1142 H1128 0.960 . S
C1142 H1129 0.961 . S
C1142 H1130 0.959 . S
C1142 C1140 1.561 . S
C1143 C1140 1.526 . S
C1143 C1144 1.396 . S
C1143 C1148 1.390 . S
C1144 C1138 1.465 . S
C1144 C1143 1.396 . S
C1144 C1145 1.399 . S
C1145 H1131 0.929 . S
C1145 C1144 1.399 . S
C1145 C1146 1.385 . S
C1146 H1132 0.931 . S
C1146 C1145 1.385 . S
C1146 C1147 1.389 . S
C1147 C1146 1.389 . S
C1147 C1148 1.387 . S
C1148 H1133 0.930 . S
C1148 C1143 1.390 . S
C1148 C1147 1.387 . S
H1149 C1161 0.930 . S
H1150 C1163 0.930 . S
H1151 C1164 0.930 . S
H1152 C1168 0.959 . S
H1153 C1168 0.959 . S
H1154 C1168 0.961 . S
H1155 C1169 0.960 . S
H1156 C1169 0.961 . S
H1157 C1169 0.959 . S
H1158 C1172 0.929 . S
H1159 C1173 0.931 . S
H1160 C1175 0.930 . S
C1161 H1149 0.930 . S
C1161 C1162 1.399 . S
C1161 C1166 1.399 . S
C1162 C1161 1.399 . S
C1162 C1163 1.376 . S
C1163 H1150 0.930 . S
C1163 C1162 1.376 . S
C1163 C1164 1.388 . S
C1164 H1151 0.930 . S
C1164 C1163 1.388 . S
C1164 C1165 1.390 . S
C1165 C1164 1.390 . S
C1165 C1166 1.394 . S
C1165 C1171 1.465 . S
C1166 C1161 1.399 . S
C1166 C1165 1.394 . S
C1166 C1167 1.516 . S
C1167 C1166 1.516 . S
C1167 C1168 1.502 . S
C1167 C1169 1.561 . S
C1167 C1170 1.526 . S
C1168 H1152 0.959 . S
C1168 H1153 0.959 . S
C1168 H1154 0.961 . S
C1168 C1167 1.502 . S
C1169 H1155 0.960 . S
C1169 H1156 0.961 . S
C1169 H1157 0.959 . S
C1169 C1167 1.561 . S
C1170 C1167 1.526 . S
C1170 C1171 1.396 . S
C1170 C1175 1.390 . S
C1171 C1165 1.465 . S
C1171 C1170 1.396 . S
C1171 C1172 1.399 . S
C1172 H1158 0.929 . S
C1172 C1171 1.399 . S
C1172 C1173 1.385 . S
C1173 H1159 0.931 . S
C1173 C1172 1.385 . S
C1173 C1174 1.389 . S
C1174 C1173 1.389 . S
C1174 C1175 1.387 . S
C1175 H1160 0.930 . S
C1175 C1170 1.390 . S
C1175 C1174 1.387 . S
H1176 C1188 0.930 . S
H1177 C1190 0.930 . S
H1178 C1191 0.930 . S
H1179 C1195 0.959 . S
H1180 C1195 0.959 . S
H1181 C1195 0.961 . S
H1182 C1196 0.960 . S
H1183 C1196 0.961 . S
H1184 C1196 0.959 . S
H1185 C1199 0.929 . S
H1186 C1200 0.931 . S
H1187 C1202 0.930 . S
C1188 H1176 0.930 . S
C1188 C1189 1.399 . S
C1188 C1193 1.399 . S
C1189 C1188 1.399 . S
C1189 C1190 1.376 . S
C1190 H1177 0.930 . S
C1190 C1189 1.376 . S
C1190 C1191 1.388 . S
C1191 H1178 0.930 . S
C1191 C1190 1.388 . S
C1191 C1192 1.390 . S
C1192 C1191 1.390 . S
C1192 C1193 1.394 . S
C1192 C1198 1.465 . S
C1193 C1188 1.399 . S
C1193 C1192 1.394 . S
C1193 C1194 1.516 . S
C1194 C1193 1.516 . S
C1194 C1195 1.502 . S
C1194 C1196 1.561 . S
C1194 C1197 1.526 . S
C1195 H1179 0.959 . S
C1195 H1180 0.959 . S
C1195 H1181 0.961 . S
C1195 C1194 1.502 . S
C1196 H1182 0.960 . S
C1196 H1183 0.961 . S
C1196 H1184 0.959 . S
C1196 C1194 1.561 . S
C1197 C1194 1.526 . S
C1197 C1198 1.396 . S
C1197 C1202 1.390 . S
C1198 C1192 1.465 . S
C1198 C1197 1.396 . S
C1198 C1199 1.399 . S
C1199 H1185 0.929 . S
C1199 C1198 1.399 . S
C1199 C1200 1.385 . S
C1200 H1186 0.931 . S
C1200 C1199 1.385 . S
C1200 C1201 1.389 . S
C1201 C1200 1.389 . S
C1201 C1202 1.387 . S
C1202 H1187 0.930 . S
C1202 C1197 1.390 . S
C1202 C1201 1.387 . S
H1203 C1215 0.930 . S
H1204 C1217 0.930 . S
H1205 C1218 0.930 . S
H1206 C1222 0.959 . S
H1207 C1222 0.959 . S
H1208 C1222 0.961 . S
H1209 C1223 0.960 . S
H1210 C1223 0.961 . S
H1211 C1223 0.959 . S
H1212 C1226 0.929 . S
H1213 C1227 0.931 . S
H1214 C1229 0.930 . S
C1215 H1203 0.930 . S
C1215 C1216 1.399 . S
C1215 C1220 1.399 . S
C1216 C1215 1.399 . S
C1216 C1217 1.376 . S
C1217 H1204 0.930 . S
C1217 C1216 1.376 . S
C1217 C1218 1.388 . S
C1218 H1205 0.930 . S
C1218 C1217 1.388 . S
C1218 C1219 1.390 . S
C1219 C1218 1.390 . S
C1219 C1220 1.394 . S
C1219 C1225 1.465 . S
C1220 C1215 1.399 . S
C1220 C1219 1.394 . S
C1220 C1221 1.516 . S
C1221 C1220 1.516 . S
C1221 C1222 1.502 . S
C1221 C1223 1.561 . S
C1221 C1224 1.526 . S
C1222 H1206 0.959 . S
C1222 H1207 0.959 . S
C1222 H1208 0.961 . S
C1222 C1221 1.502 . S
C1223 H1209 0.960 . S
C1223 H1210 0.961 . S
C1223 H1211 0.959 . S
C1223 C1221 1.561 . S
C1224 C1221 1.526 . S
C1224 C1225 1.396 . S
C1224 C1229 1.390 . S
C1225 C1219 1.465 . S
C1225 C1224 1.396 . S
C1225 C1226 1.399 . S
C1226 H1212 0.929 . S
C1226 C1225 1.399 . S
C1226 C1227 1.385 . S
C1227 H1213 0.931 . S
C1227 C1226 1.385 . S
C1227 C1228 1.389 . S
C1228 C1227 1.389 . S
C1228 C1229 1.387 . S
C1229 H1214 0.930 . S
C1229 C1224 1.390 . S
C1229 C1228 1.387 . S
H1230 C1242 0.930 . S
H1231 C1244 0.930 . S
H1232 C1245 0.930 . S
H1233 C1249 0.959 . S
H1234 C1249 0.959 . S
H1235 C1249 0.961 . S
H1236 C1250 0.960 . S
H1237 C1250 0.961 . S
H1238 C1250 0.959 . S
H1239 C1253 0.929 . S
H1240 C1254 0.931 . S
H1241 C1256 0.930 . S
C1242 H1230 0.930 . S
C1242 C1243 1.399 . S
C1242 C1247 1.399 . S
C1243 C1242 1.399 . S
C1243 C1244 1.376 . S
C1244 H1231 0.930 . S
C1244 C1243 1.376 . S
C1244 C1245 1.388 . S
C1245 H1232 0.930 . S
C1245 C1244 1.388 . S
C1245 C1246 1.390 . S
C1246 C1245 1.390 . S
C1246 C1247 1.394 . S
C1246 C1252 1.465 . S
C1247 C1242 1.399 . S
C1247 C1246 1.394 . S
C1247 C1248 1.516 . S
C1248 C1247 1.516 . S
C1248 C1249 1.502 . S
C1248 C1250 1.561 . S
C1248 C1251 1.526 . S
C1249 H1233 0.959 . S
C1249 H1234 0.959 . S
C1249 H1235 0.961 . S
C1249 C1248 1.502 . S
C1250 H1236 0.960 . S
C1250 H1237 0.961 . S
C1250 H1238 0.959 . S
C1250 C1248 1.561 . S
C1251 C1248 1.526 . S
C1251 C1252 1.396 . S
C1251 C1256 1.390 . S
C1252 C1246 1.465 . S
C1252 C1251 1.396 . S
C1252 C1253 1.399 . S
C1253 H1239 0.929 . S
C1253 C1252 1.399 . S
C1253 C1254 1.385 . S
C1254 H1240 0.931 . S
C1254 C1253 1.385 . S
C1254 C1255 1.389 . S
C1255 C1254 1.389 . S
C1255 C1256 1.387 . S
C1256 H1241 0.930 . S
C1256 C1251 1.390 . S
C1256 C1255 1.387 . S
H1257 C1269 0.930 . S
H1258 C1271 0.930 . S
H1259 C1272 0.930 . S
H1260 C1276 0.959 . S
H1261 C1276 0.959 . S
H1262 C1276 0.961 . S
H1263 C1277 0.960 . S
H1264 C1277 0.961 . S
H1265 C1277 0.959 . S
H1266 C1280 0.929 . S
H1267 C1281 0.931 . S
H1268 C1283 0.930 . S
C1269 H1257 0.930 . S
C1269 C1270 1.399 . S
C1269 C1274 1.399 . S
C1270 C1269 1.399 . S
C1270 C1271 1.376 . S
C1271 H1258 0.930 . S
C1271 C1270 1.376 . S
C1271 C1272 1.388 . S
C1272 H1259 0.930 . S
C1272 C1271 1.388 . S
C1272 C1273 1.390 . S
C1273 C1272 1.390 . S
C1273 C1274 1.394 . S
C1273 C1279 1.465 . S
C1274 C1269 1.399 . S
C1274 C1273 1.394 . S
C1274 C1275 1.516 . S
C1275 C1274 1.516 . S
C1275 C1276 1.502 . S
C1275 C1277 1.561 . S
C1275 C1278 1.526 . S
C1276 H1260 0.959 . S
C1276 H1261 0.959 . S
C1276 H1262 0.961 . S
C1276 C1275 1.502 . S
C1277 H1263 0.960 . S
C1277 H1264 0.961 . S
C1277 H1265 0.959 . S
C1277 C1275 1.561 . S
C1278 C1275 1.526 . S
C1278 C1279 1.396 . S
C1278 C1283 1.390 . S
C1279 C1273 1.465 . S
C1279 C1278 1.396 . S
C1279 C1280 1.399 . S
C1280 H1266 0.929 . S
C1280 C1279 1.399 . S
C1280 C1281 1.385 . S
C1281 H1267 0.931 . S
C1281 C1280 1.385 . S
C1281 C1282 1.389 . S
C1282 C1281 1.389 . S
C1282 C1283 1.387 . S
C1283 H1268 0.930 . S
C1283 C1278 1.390 . S
C1283 C1282 1.387 . S
C649 C22 1.635 . S
C661 C340 1.621 . S
C676 C75 1.633 . S
C688 C393 1.638 . S
C703 C128 1.638 . S
C715 C446 1.632 . S
C730 C181 1.633 . S
C742 C499 1.620 . S
C757 C234 1.623 . S
C769 C552 1.621 . S
C784 C605 1.631 . S
C796 C287 1.639 . S
C811 C38 1.838 . S
C823 C568 1.846 . S
C838 C91 1.851 . S
C850 C621 1.866 . S
C865 C144 1.852 . S
C877 C356 1.867 . S
C892 C197 1.872 . S
C904 C409 1.862 . S
C919 C250 1.862 . S
C931 C462 1.848 . S
C946 C303 1.850 . S
C958 C515 1.866 . S
C973 C39 1.897 . S
C985 C198 1.921 . S
C1000 C92 1.898 . S
C1012 C251 1.911 . S
C1027 C304 1.945 . S
C1039 C145 1.939 . S
C1054 C357 1.948 . S
C1066 C516 1.928 . S
C1081 C569 1.946 . S
C1093 C410 1.938 . S
C1108 C463 1.897 . S
C1120 C622 1.916 . S
C1135 C347 1.294 . S
C1147 C29 1.326 . S
C1162 C82 1.319 . S
C1174 C400 1.288 . S
C1189 C135 1.323 . S
C1201 C453 1.309 . S
C1216 C506 1.287 . S
C1228 C188 1.314 . S
C1243 C559 1.303 . S
C1255 C241 1.291 . S
C1270 C294 1.325 . S
C1282 C612 1.304 . S
