# Generated by pormake.
# Topology uog, (4)-cn, num edge types: 1
# Building blocks:
#     Node 0, Type 0, BuildingBlock: GALJAG_clean_sbu_0, # of connection points: 4
#     Node 1, Type 0, BuildingBlock: GALJAG_clean_sbu_0, # of connection points: 4
#     Node 2, Type 0, BuildingBlock: GALJAG_clean_sbu_0, # of connection points: 4
#     Node 3, Type 0, BuildingBlock: GALJAG_clean_sbu_0, # of connection points: 4
#     Node 4, Type 0, BuildingBlock: GALJAG_clean_sbu_0, # of connection points: 4
#     Node 5, Type 0, BuildingBlock: GALJAG_clean_sbu_0, # of connection points: 4
#     Edge 6, Type (0, 0), BuildingBlock: FUNLAD_clean_linker_0, # of connection points: 2
#     Edge 7, Type (0, 0), BuildingBlock: FUNLAD_clean_linker_0, # of connection points: 2
#     Edge 8, Type (0, 0), BuildingBlock: FUNLAD_clean_linker_0, # of connection points: 2
#     Edge 9, Type (0, 0), BuildingBlock: FUNLAD_clean_linker_0, # of connection points: 2
#     Edge 10, Type (0, 0), BuildingBlock: FUNLAD_clean_linker_0, # of connection points: 2
#     Edge 11, Type (0, 0), BuildingBlock: FUNLAD_clean_linker_0, # of connection points: 2
#     Edge 12, Type (0, 0), BuildingBlock: FUNLAD_clean_linker_0, # of connection points: 2
#     Edge 13, Type (0, 0), BuildingBlock: FUNLAD_clean_linker_0, # of connection points: 2
#     Edge 14, Type (0, 0), BuildingBlock: FUNLAD_clean_linker_0, # of connection points: 2
#     Edge 15, Type (0, 0), BuildingBlock: FUNLAD_clean_linker_0, # of connection points: 2
#     Edge 16, Type (0, 0), BuildingBlock: FUNLAD_clean_linker_0, # of connection points: 2
#     Edge 17, Type (0, 0), BuildingBlock: FUNLAD_clean_linker_0, # of connection points: 2
# Relax obj value: 0.035
# Max RMSD: 0.144
# Mean RMSD: 0.144
data_MOF--net-uog--node1-GALJAG_clean_sbu_0--edge1-FUNLAD_clean_linker_0
_symmetry_space_group_name_H-M    P1
_symmetry_Int_Tables_number       1
_symmetry_cell_setting            triclinic
loop_
_symmetry_equiv_pos_as_xyz
'x, y, z'
_cell_length_a     33.713082
_cell_length_b     33.747467
_cell_length_c     49.710406
_cell_angle_alpha  90.183434
_cell_angle_beta   89.954561
_cell_angle_gamma 120.22164
loop_
_atom_site_label
_atom_site_type_symbol
_atom_site_fract_x
_atom_site_fract_y
_atom_site_fract_z
_atom_type_partial_charge
In0 In 0.59776 0.26882 0.17071 0.0
O1 O 0.53603 0.27976 0.16648 0.0
O2 O 0.60358 0.33802 0.16888 0.0
C3 C 0.57221 0.17982 0.16869 0.0
C4 C 0.61715 0.2792 0.22335 0.0
C5 C 0.64243 0.29078 0.12378 0.0
O6 O 0.54377 0.19329 0.16427 0.0
O7 O 0.6126 0.21118 0.17421 0.0
O8 O 0.66272 0.3103 0.14547 0.0
O9 O 0.60051 0.26089 0.12603 0.0
C10 C 0.56108 0.32312 0.16676 0.0
O11 O 0.64866 0.29503 0.20575 0.0
O12 O 0.5767 0.25893 0.21418 0.0
In13 In 0.27009 0.59876 0.48199 0.0
O14 O 0.31271 0.6641 0.50681 0.0
O15 O 0.28953 0.59869 0.52505 0.0
C16 C 0.26749 0.61923 0.43038 0.0
C17 C 0.18402 0.57682 0.49477 0.0
C18 C 0.32178 0.55975 0.47535 0.0
O19 O 0.29162 0.64989 0.44755 0.0
O20 O 0.24514 0.57885 0.43945 0.0
O21 O 0.28053 0.53677 0.48347 0.0
O22 O 0.3357 0.60133 0.47009 0.0
C23 C 0.31168 0.64178 0.52753 0.0
O24 O 0.19499 0.54617 0.49189 0.0
O25 O 0.21644 0.61745 0.4916 0.0
In26 In 0.7171 0.31314 0.83506 0.0
O27 O 0.69812 0.34641 0.86912 0.0
O28 O 0.74109 0.31809 0.87757 0.0
C29 C 0.68155 0.31509 0.7874 0.0
C30 C 0.6595 0.22302 0.84208 0.0
C31 C 0.80512 0.37439 0.82415 0.0
O32 O 0.67621 0.33447 0.80792 0.0
O33 O 0.7051 0.29602 0.79123 0.0
O34 O 0.7918 0.3323 0.82791 0.0
O35 O 0.77391 0.38465 0.82545 0.0
C36 C 0.72103 0.33859 0.88642 0.0
O37 O 0.70095 0.2385 0.83504 0.0
O38 O 0.64827 0.25308 0.84606 0.0
In39 In 0.42186 0.68103 0.15064 0.0
O40 O 0.48076 0.6668 0.15662 0.0
O41 O 0.41179 0.61136 0.16045 0.0
C42 C 0.45404 0.77066 0.14234 0.0
C43 C 0.38508 0.67979 0.19851 0.0
C44 C 0.39504 0.65232 0.10025 0.0
O45 O 0.48034 0.75581 0.14942 0.0
O46 O 0.41252 0.74023 0.13898 0.0
O47 O 0.36603 0.64392 0.11883 0.0
O48 O 0.43662 0.67482 0.1074 0.0
C49 C 0.45408 0.62437 0.16088 0.0
O50 O 0.35996 0.65942 0.17831 0.0
O51 O 0.42775 0.69921 0.19437 0.0
In52 In 0.68565 0.43192 0.50725 0.0
O53 O 0.76092 0.48875 0.51114 0.0
O54 O 0.74292 0.41927 0.51843 0.0
C55 C 0.62946 0.46409 0.49541 0.0
C56 C 0.65421 0.40375 0.55707 0.0
C57 C 0.68579 0.39783 0.45865 0.0
O58 O 0.67135 0.49089 0.50132 0.0
O59 O 0.61686 0.42194 0.49533 0.0
O60 O 0.66383 0.37176 0.47816 0.0
O61 O 0.70668 0.44025 0.4639 0.0
C62 C 0.77432 0.46077 0.51704 0.0
O63 O 0.6466 0.37537 0.5382 0.0
O64 O 0.67731 0.44551 0.55053 0.0
In65 In 0.31336 0.71841 0.81838 0.0
O66 O 0.3312 0.79344 0.82301 0.0
O67 O 0.38501 0.77861 0.81606 0.0
C68 C 0.22237 0.65884 0.82029 0.0
C69 C 0.33526 0.6998 0.86646 0.0
C70 C 0.33003 0.70699 0.76719 0.0
O71 O 0.23801 0.7018 0.81958 0.0
O72 O 0.25245 0.64712 0.81992 0.0
O73 O 0.34336 0.6923 0.78657 0.0
O74 O 0.30778 0.72646 0.77379 0.0
C75 C 0.37391 0.80878 0.81989 0.0
O76 O 0.33943 0.68155 0.84516 0.0
O77 O 0.3202 0.72699 0.86333 0.0
C78 C 0.51781 0.09746 0.15658 0.0
C79 C 0.5603 0.13134 0.16689 0.0
C80 C 0.50799 0.05205 0.15402 0.0
C81 C 0.5406 0.03979 0.1618 0.0
C82 C 0.58252 0.07358 0.17268 0.0
C83 C 0.59243 0.11886 0.17502 0.0
C84 C 0.53183 0.99209 0.1598 0.0
C85 C 0.50292 0.96119 0.14177 0.0
C86 C 0.49307 0.91303 0.14054 0.0
C87 C 0.45061 0.87932 0.13019 0.0
C88 C 0.43864 0.83326 0.13009 0.0
C89 C 0.46917 0.8199 0.14002 0.0
H90 H 0.55826 0.92508 0.15667 0.0
C91 C 0.51259 0.85374 0.14921 0.0
C92 C 0.5245 0.89994 0.14946 0.0
H93 H 0.53692 0.84445 0.15679 0.0
H94 H 0.49231 0.10608 0.1503 0.0
H95 H 0.47467 0.02671 0.14636 0.0
H96 H 0.60803 0.06505 0.1791 0.0
H97 H 0.62542 0.14415 0.18319 0.0
H98 H 0.55053 0.9826 0.17363 0.0
H99 H 0.4842 0.97071 0.12796 0.0
H100 H 0.426 0.88844 0.12287 0.0
H101 H 0.40501 0.80799 0.12269 0.0
C102 C 0.39731 0.56803 0.46304 0.0
C103 C 0.35318 0.54118 0.47398 0.0
C104 C 0.42911 0.5531 0.46389 0.0
C105 C 0.41766 0.51107 0.47604 0.0
C106 C 0.37287 0.48337 0.48596 0.0
C107 C 0.34092 0.49828 0.48501 0.0
C108 C 0.45127 0.49493 0.47853 0.0
C109 C 0.49726 0.52331 0.47828 0.0
C110 C 0.53104 0.50756 0.48175 0.0
C111 C 0.5761 0.53943 0.48984 0.0
C112 C 0.60859 0.52577 0.49386 0.0
C113 C 0.5966 0.47989 0.4898 0.0
H114 H 0.48605 0.43657 0.4696 0.0
C115 C 0.55198 0.44829 0.48099 0.0
C116 C 0.51966 0.46194 0.47684 0.0
H117 H 0.54186 0.41277 0.47733 0.0
H118 H 0.4076 0.60104 0.45408 0.0
H119 H 0.46248 0.5747 0.45497 0.0
H120 H 0.36286 0.45053 0.49508 0.0
H121 H 0.30713 0.47681 0.49356 0.0
H122 H 0.43726 0.45865 0.48234 0.0
H123 H 0.51113 0.56006 0.47696 0.0
H124 H 0.58606 0.57493 0.49345 0.0
H125 H 0.64277 0.55091 0.50057 0.0
C126 C 0.88899 0.39947 0.82187 0.0
C127 C 0.85373 0.40994 0.8199 0.0
C128 C 0.93502 0.43413 0.81956 0.0
C129 C 0.94668 0.48008 0.81532 0.0
C130 C 0.91123 0.49004 0.81244 0.0
C131 C 0.86535 0.4555 0.81485 0.0
C132 C 0.9951 0.51842 0.81349 0.0
C133 C 0.03057 0.5172 0.82508 0.0
C134 C 0.0792 0.555 0.82345 0.0
C135 C 0.11373 0.54397 0.82713 0.0
C136 C 0.15991 0.57784 0.82605 0.0
C137 C 0.17294 0.62394 0.82161 0.0
H138 H 0.06648 0.61143 0.81703 0.0
C139 C 0.13858 0.63546 0.81836 0.0
C140 C 0.09204 0.60128 0.81921 0.0
H141 H 0.14762 0.67074 0.81506 0.0
H142 H 0.88107 0.36461 0.82553 0.0
H143 H 0.96114 0.42459 0.82091 0.0
H144 H 0.91906 0.52491 0.80885 0.0
H145 H 0.83896 0.46469 0.81306 0.0
H146 H 0.00123 0.54895 0.80275 0.0
H147 H 0.02424 0.48673 0.83596 0.0
H148 H 0.10497 0.5088 0.83064 0.0
H149 H 0.18549 0.56777 0.8288 0.0
C150 C 0.10039 0.52179 0.50382 0.0
C151 C 0.13672 0.56684 0.50014 0.0
C152 C 0.05548 0.51313 0.50749 0.0
C153 C 0.04623 0.5495 0.50752 0.0
C154 C 0.0827 0.59439 0.50401 0.0
C155 C 0.12741 0.60303 0.50056 0.0
C156 C 0.99895 0.54207 0.50937 0.0
C157 C 0.96411 0.50593 0.52184 0.0
C158 C 0.91602 0.49681 0.5222 0.0
C159 C 0.88063 0.45202 0.52761 0.0
C160 C 0.83478 0.44083 0.52662 0.0
C161 C 0.82312 0.47429 0.52036 0.0
H162 H 0.93051 0.56619 0.51369 0.0
C163 C 0.85839 0.51959 0.51602 0.0
C164 C 0.90444 0.53085 0.51702 0.0
H165 H 0.85042 0.54617 0.5114 0.0
H166 H 0.10653 0.49322 0.5034 0.0
H167 H 0.0281 0.4779 0.50939 0.0
H168 H 0.07657 0.62298 0.50376 0.0
H169 H 0.1546 0.63817 0.49771 0.0
H170 H 0.99318 0.56766 0.49992 0.0
H171 H 0.97046 0.48075 0.53139 0.0
H172 H 0.88838 0.42518 0.53196 0.0
H173 H 0.8084 0.4056 0.53025 0.0
C174 C 0.3989 0.8913 0.82994 0.0
C175 C 0.4092 0.85803 0.82089 0.0
C176 C 0.43353 0.93751 0.83167 0.0
C177 C 0.47903 0.95118 0.82424 0.0
C178 C 0.48878 0.91791 0.81462 0.0
C179 C 0.45445 0.87192 0.81315 0.0
C180 C 0.51713 0.99968 0.82537 0.0
C181 C 0.51807 0.03127 0.84241 0.0
C182 C 0.55615 0.07987 0.84324 0.0
C183 C 0.54683 0.11326 0.85322 0.0
C184 C 0.58081 0.15952 0.85341 0.0
C185 C 0.62523 0.17353 0.8439 0.0
H186 H 0.6103 0.06893 0.82765 0.0
C187 C 0.6353 0.1401 0.8349 0.0
C188 C 0.60114 0.09368 0.83458 0.0
H189 H 0.6693 0.14986 0.82763 0.0
H190 H 0.36427 0.88159 0.8359 0.0
H191 H 0.42431 0.96232 0.83841 0.0
H192 H 0.52332 0.92744 0.80851 0.0
H193 H 0.46351 0.84719 0.80592 0.0
H194 H 0.54581 0.00911 0.81187 0.0
H195 H 0.48931 0.02178 0.85587 0.0
H196 H 0.51277 0.10367 0.86033 0.0
H197 H 0.57198 0.18441 0.86064 0.0
C198 C 0.43863 0.54468 0.16826 0.0
C199 C 0.47044 0.59155 0.16475 0.0
C200 C 0.45339 0.51286 0.17042 0.0
C201 C 0.50041 0.52725 0.16899 0.0
C202 C 0.53224 0.5743 0.16631 0.0
C203 C 0.51744 0.60615 0.16407 0.0
C204 C 0.51768 0.49453 0.17058 0.0
C205 C 0.49255 0.44978 0.16368 0.0
C206 C 0.51073 0.41768 0.16423 0.0
C207 C 0.47978 0.37016 0.16553 0.0
C208 C 0.49575 0.33902 0.16609 0.0
C209 C 0.54303 0.35491 0.16523 0.0
H210 H 0.58309 0.46926 0.16049 0.0
C211 C 0.57387 0.4023 0.16333 0.0
C212 C 0.55801 0.43328 0.16266 0.0
H213 H 0.61055 0.41564 0.16226 0.0
H214 H 0.40215 0.5324 0.16913 0.0
H215 H 0.4278 0.47723 0.17345 0.0
H216 H 0.56871 0.58641 0.16545 0.0
H217 H 0.54275 0.64206 0.16148 0.0
H218 H 0.55298 0.50863 0.17706 0.0
H219 H 0.45718 0.43567 0.1573 0.0
H220 H 0.44314 0.3571 0.1664 0.0
H221 H 0.47117 0.30267 0.16746 0.0
C222 C 0.75212 0.34322 0.9324 0.0
C223 C 0.72303 0.35011 0.91525 0.0
C224 C 0.75095 0.34879 0.9601 0.0
C225 C 0.72038 0.36105 0.97134 0.0
C226 C 0.69352 0.37102 0.95412 0.0
C227 C 0.69467 0.3654 0.92624 0.0
C228 C 0.71366 0.36025 0.00087 0.0
C229 C 0.71431 0.3278 0.01623 0.0
C230 C 0.69903 0.31986 0.04454 0.0
C231 C 0.67124 0.27451 0.05315 0.0
C232 C 0.65371 0.26532 0.0792 0.0
C233 C 0.66504 0.30127 0.09742 0.0
H234 H 0.73317 0.3913 0.05674 0.0
C235 C 0.69469 0.34669 0.08935 0.0
C236 C 0.71115 0.35603 0.06287 0.0
H237 H 0.70356 0.37488 0.10313 0.0
H238 H 0.77504 0.33228 0.92449 0.0
H239 H 0.77324 0.34237 0.97276 0.0
H240 H 0.67001 0.38097 0.96233 0.0
H241 H 0.6722 0.37135 0.91345 0.0
H242 H 0.70246 0.38263 0.0095 0.0
H243 H 0.72035 0.30214 0.00688 0.0
H244 H 0.66174 0.24614 0.03939 0.0
H245 H 0.63092 0.23003 0.08507 0.0
C246 C 0.31961 0.65792 0.23056 0.0
C247 C 0.36691 0.68181 0.22516 0.0
C248 C 0.30351 0.65937 0.25633 0.0
C249 C 0.33463 0.68471 0.27708 0.0
C250 C 0.38165 0.70985 0.27121 0.0
C251 C 0.39763 0.70828 0.24564 0.0
C252 C 0.32046 0.68464 0.30538 0.0
C253 C 0.28147 0.6507 0.31612 0.0
C254 C 0.27373 0.64506 0.34563 0.0
C255 C 0.24577 0.60067 0.35572 0.0
C256 C 0.24258 0.59262 0.38335 0.0
C257 C 0.26715 0.6289 0.4015 0.0
H258 H 0.3162 0.71688 0.35701 0.0
C259 C 0.29281 0.67377 0.39161 0.0
C260 C 0.29585 0.68188 0.36392 0.0
H261 H 0.31139 0.70248 0.4052 0.0
H262 H 0.29516 0.63779 0.21501 0.0
H263 H 0.26687 0.6406 0.2598 0.0
H264 H 0.4064 0.7299 0.28668 0.0
H265 H 0.4343 0.72756 0.24204 0.0
H266 H 0.34612 0.71062 0.31853 0.0
H267 H 0.25734 0.62265 0.30342 0.0
H268 H 0.22793 0.57174 0.34216 0.0
H269 H 0.22204 0.55766 0.3904 0.0
C270 C 0.64085 0.33999 0.7552 0.0
C271 C 0.66251 0.3146 0.76059 0.0
C272 C 0.62572 0.34112 0.72911 0.0
C273 C 0.63222 0.31691 0.708 0.0
C274 C 0.65184 0.28987 0.71388 0.0
C275 C 0.667 0.28888 0.73978 0.0
C276 C 0.6217 0.32051 0.67938 0.0
C277 C 0.62 0.35665 0.66936 0.0
C278 C 0.62226 0.36623 0.64004 0.0
C279 C 0.64107 0.41197 0.63192 0.0
C280 C 0.64992 0.42377 0.60484 0.0
C281 C 0.63983 0.38998 0.58518 0.0
H282 H 0.59312 0.29607 0.62546 0.0
C283 C 0.61829 0.34381 0.59298 0.0
C284 C 0.60936 0.33195 0.62017 0.0
H285 H 0.60948 0.317 0.57819 0.0
H286 H 0.63638 0.3596 0.77097 0.0
H287 H 0.60939 0.36121 0.72564 0.0
H288 H 0.65695 0.27056 0.69816 0.0
H289 H 0.68301 0.26844 0.74335 0.0
H290 H 0.6216 0.29542 0.66563 0.0
H291 H 0.62359 0.38358 0.68287 0.0
H292 H 0.65088 0.43905 0.64668 0.0
H293 H 0.66603 0.45966 0.59942 0.0
C294 C 0.34126 0.64779 0.89987 0.0
C295 C 0.34751 0.69097 0.89321 0.0
C296 C 0.35076 0.63941 0.92597 0.0
C297 C 0.36779 0.6746 0.94536 0.0
C298 C 0.37526 0.718 0.93835 0.0
C299 C 0.36445 0.72592 0.91264 0.0
C300 C 0.37927 0.66773 0.9729 0.0
C301 C 0.35175 0.63054 0.98767 0.0
C302 C 0.36164 0.62903 0.01651 0.0
C303 C 0.3263 0.61455 0.03557 0.0
C304 C 0.3366 0.62029 0.0631 0.0
C305 C 0.38235 0.64004 0.0718 0.0
H306 H 0.43461 0.65604 0.01104 0.0
C307 C 0.41711 0.6512 0.05269 0.0
C308 C 0.40688 0.64575 0.02534 0.0
H309 H 0.45262 0.66578 0.05878 0.0
H310 H 0.3281 0.62036 0.88512 0.0
H311 H 0.34542 0.60583 0.93089 0.0
H312 H 0.38866 0.74563 0.95299 0.0
H313 H 0.36975 0.75955 0.90787 0.0
H314 H 0.40885 0.69662 0.98232 0.0
H315 H 0.31931 0.60386 0.97943 0.0
H316 H 0.29111 0.60122 0.02914 0.0
H317 H 0.30912 0.61102 0.07744 0.0
C318 C 0.66005 0.33426 0.42471 0.0
C319 C 0.68694 0.38089 0.43141 0.0
C320 C 0.65975 0.31944 0.39833 0.0
C321 C 0.68629 0.35117 0.37821 0.0
C322 C 0.71459 0.39736 0.38534 0.0
C323 C 0.71475 0.41211 0.41157 0.0
C324 C 0.68443 0.33827 0.34944 0.0
C325 C 0.64744 0.30242 0.33815 0.0
C326 C 0.64158 0.29481 0.30861 0.0
C327 C 0.5968 0.27014 0.29833 0.0
C328 C 0.58913 0.26484 0.27067 0.0
C329 C 0.62614 0.28381 0.25258 0.0
H330 H 0.71393 0.33041 0.29763 0.0
C331 C 0.67111 0.30713 0.26274 0.0
C332 C 0.67883 0.31248 0.29053 0.0
H333 H 0.70027 0.32154 0.24925 0.0
H334 H 0.63875 0.30938 0.43971 0.0
H335 H 0.63864 0.28327 0.39384 0.0
H336 H 0.73568 0.42247 0.37036 0.0
H337 H 0.73628 0.44826 0.41617 0.0
H338 H 0.7123 0.36235 0.3367 0.0
H339 H 0.61796 0.28065 0.35062 0.0
H340 H 0.56749 0.25586 0.31173 0.0
H341 H 0.55402 0.24628 0.26347 0.0
C342 C 0.32908 0.72439 0.7186 0.0
C343 C 0.33988 0.70238 0.73883 0.0
C344 C 0.33698 0.71926 0.69162 0.0
C345 C 0.3559 0.69196 0.6843 0.0
C346 C 0.36704 0.67027 0.70456 0.0
C347 C 0.35947 0.67573 0.73162 0.0
C348 C 0.35967 0.68146 0.65576 0.0
C349 C 0.36462 0.70971 0.63526 0.0
C350 C 0.35874 0.69557 0.60647 0.0
C351 C 0.34986 0.72117 0.58761 0.0
C352 C 0.33711 0.70528 0.56121 0.0
C353 C 0.3327 0.6633 0.5534 0.0
H354 H 0.36692 0.63575 0.61091 0.0
C355 C 0.34473 0.6394 0.57156 0.0
C356 C 0.35821 0.65558 0.5977 0.0
H357 H 0.3426 0.6074 0.56575 0.0
H358 H 0.31387 0.74512 0.72358 0.0
H359 H 0.32647 0.73526 0.67659 0.0
H360 H 0.38109 0.64857 0.69941 0.0
H361 H 0.36809 0.65835 0.74681 0.0
H362 H 0.35577 0.64807 0.6519 0.0
H363 H 0.36947 0.74339 0.63974 0.0
H364 H 0.35061 0.75243 0.59363 0.0
H365 H 0.3282 0.72442 0.54745 0.0
loop_
_geom_bond_atom_site_label_1
_geom_bond_atom_site_label_2
_geom_bond_distance
_geom_bond_site_symmetry_2
_ccdc_geom_bond_type
In0 O1 2.294 . S
In0 O2 2.326 . S
In0 O6 2.266 . S
In0 O7 2.326 . S
In0 O8 2.266 . S
In0 O9 2.326 . S
In0 O11 2.294 . S
In0 O12 2.326 . S
O1 In0 2.294 . S
O1 C10 1.240 . S
O2 In0 2.326 . S
O2 C10 1.252 . S
C3 O6 1.252 . S
C3 O7 1.260 . S
C4 O11 1.240 . S
C4 O12 1.252 . S
C5 O8 1.252 . S
C5 O9 1.260 . S
O6 In0 2.266 . S
O6 C3 1.252 . S
O7 In0 2.326 . S
O7 C3 1.260 . S
O8 In0 2.266 . S
O8 C5 1.252 . S
O9 In0 2.326 . S
O9 C5 1.260 . S
C10 O1 1.240 . S
C10 O2 1.252 . S
O11 In0 2.294 . S
O11 C4 1.240 . S
O12 In0 2.326 . S
O12 C4 1.252 . S
In13 O14 2.294 . S
In13 O15 2.326 . S
In13 O19 2.266 . S
In13 O20 2.326 . S
In13 O21 2.266 . S
In13 O22 2.326 . S
In13 O24 2.294 . S
In13 O25 2.326 . S
O14 In13 2.294 . S
O14 C23 1.240 . S
O15 In13 2.326 . S
O15 C23 1.252 . S
C16 O19 1.252 . S
C16 O20 1.260 . S
C17 O24 1.240 . S
C17 O25 1.252 . S
C18 O21 1.252 . S
C18 O22 1.260 . S
O19 In13 2.266 . S
O19 C16 1.252 . S
O20 In13 2.326 . S
O20 C16 1.260 . S
O21 In13 2.266 . S
O21 C18 1.252 . S
O22 In13 2.326 . S
O22 C18 1.260 . S
C23 O14 1.240 . S
C23 O15 1.252 . S
O24 In13 2.294 . S
O24 C17 1.240 . S
O25 In13 2.326 . S
O25 C17 1.252 . S
In26 O27 2.294 . S
In26 O28 2.326 . S
In26 O32 2.266 . S
In26 O33 2.326 . S
In26 O34 2.266 . S
In26 O35 2.326 . S
In26 O37 2.294 . S
In26 O38 2.326 . S
O27 In26 2.294 . S
O27 C36 1.240 . S
O28 In26 2.326 . S
O28 C36 1.252 . S
C29 O32 1.252 . S
C29 O33 1.260 . S
C30 O37 1.240 . S
C30 O38 1.252 . S
C31 O34 1.252 . S
C31 O35 1.260 . S
O32 In26 2.266 . S
O32 C29 1.252 . S
O33 In26 2.326 . S
O33 C29 1.260 . S
O34 In26 2.266 . S
O34 C31 1.252 . S
O35 In26 2.326 . S
O35 C31 1.260 . S
C36 O27 1.240 . S
C36 O28 1.252 . S
O37 In26 2.294 . S
O37 C30 1.240 . S
O38 In26 2.326 . S
O38 C30 1.252 . S
In39 O40 2.294 . S
In39 O41 2.326 . S
In39 O45 2.266 . S
In39 O46 2.326 . S
In39 O47 2.266 . S
In39 O48 2.326 . S
In39 O50 2.294 . S
In39 O51 2.326 . S
O40 In39 2.294 . S
O40 C49 1.240 . S
O41 In39 2.326 . S
O41 C49 1.252 . S
C42 O45 1.252 . S
C42 O46 1.260 . S
C43 O50 1.240 . S
C43 O51 1.252 . S
C44 O47 1.252 . S
C44 O48 1.260 . S
O45 In39 2.266 . S
O45 C42 1.252 . S
O46 In39 2.326 . S
O46 C42 1.260 . S
O47 In39 2.266 . S
O47 C44 1.252 . S
O48 In39 2.326 . S
O48 C44 1.260 . S
C49 O40 1.240 . S
C49 O41 1.252 . S
O50 In39 2.294 . S
O50 C43 1.240 . S
O51 In39 2.326 . S
O51 C43 1.252 . S
In52 O53 2.294 . S
In52 O54 2.326 . S
In52 O58 2.266 . S
In52 O59 2.326 . S
In52 O60 2.266 . S
In52 O61 2.326 . S
In52 O63 2.294 . S
In52 O64 2.326 . S
O53 In52 2.294 . S
O53 C62 1.240 . S
O54 In52 2.326 . S
O54 C62 1.252 . S
C55 O58 1.252 . S
C55 O59 1.260 . S
C56 O63 1.240 . S
C56 O64 1.252 . S
C57 O60 1.252 . S
C57 O61 1.260 . S
O58 In52 2.266 . S
O58 C55 1.252 . S
O59 In52 2.326 . S
O59 C55 1.260 . S
O60 In52 2.266 . S
O60 C57 1.252 . S
O61 In52 2.326 . S
O61 C57 1.260 . S
C62 O53 1.240 . S
C62 O54 1.252 . S
O63 In52 2.294 . S
O63 C56 1.240 . S
O64 In52 2.326 . S
O64 C56 1.252 . S
In65 O66 2.294 . S
In65 O67 2.326 . S
In65 O71 2.266 . S
In65 O72 2.326 . S
In65 O73 2.266 . S
In65 O74 2.326 . S
In65 O76 2.294 . S
In65 O77 2.326 . S
O66 In65 2.294 . S
O66 C75 1.240 . S
O67 In65 2.326 . S
O67 C75 1.252 . S
C68 O71 1.252 . S
C68 O72 1.260 . S
C69 O76 1.240 . S
C69 O77 1.252 . S
C70 O73 1.252 . S
C70 O74 1.260 . S
O71 In65 2.266 . S
O71 C68 1.252 . S
O72 In65 2.326 . S
O72 C68 1.260 . S
O73 In65 2.266 . S
O73 C70 1.252 . S
O74 In65 2.326 . S
O74 C70 1.260 . S
C75 O66 1.240 . S
C75 O67 1.252 . S
O76 In65 2.294 . S
O76 C69 1.240 . S
O77 In65 2.326 . S
O77 C69 1.252 . S
C78 C79 1.386 . S
C78 C80 1.383 . S
C78 H94 0.951 . S
C79 C78 1.386 . S
C79 C83 1.383 . S
C80 C78 1.383 . S
C80 C81 1.402 . S
C80 H95 0.951 . S
C81 C80 1.402 . S
C81 C82 1.375 . S
C81 C84 1.481 . S
C82 C81 1.375 . S
C82 C83 1.367 . S
C82 H96 0.951 . S
C83 C79 1.383 . S
C83 C82 1.367 . S
C83 H97 0.950 . S
C84 C81 1.481 . S
C84 C85 1.297 1_545 S
C84 H98 0.950 . S
C85 C84 1.297 1_565 S
C85 C86 1.479 . S
C85 H99 0.950 . S
C86 C85 1.479 . S
C86 C87 1.375 . S
C86 C92 1.404 . S
C87 C86 1.375 . S
C87 C88 1.369 . S
C87 H100 0.950 . S
C88 C87 1.369 . S
C88 C89 1.392 . S
C88 H101 0.951 . S
C89 C88 1.392 . S
C89 C91 1.384 . S
H90 C92 0.949 . S
C91 C89 1.384 . S
C91 C92 1.385 . S
C91 H93 0.950 . S
C92 C86 1.404 . S
C92 H90 0.949 . S
C92 C91 1.385 . S
H93 C91 0.950 . S
H94 C78 0.951 . S
H95 C80 0.951 . S
H96 C82 0.951 . S
H97 C83 0.950 . S
H98 C84 0.950 . S
H99 C85 0.950 . S
H100 C87 0.950 . S
H101 C88 0.951 . S
C102 C103 1.386 . S
C102 C104 1.383 . S
C102 H118 0.951 . S
C103 C102 1.386 . S
C103 C107 1.383 . S
C104 C102 1.383 . S
C104 C105 1.402 . S
C104 H119 0.951 . S
C105 C104 1.402 . S
C105 C106 1.375 . S
C105 C108 1.481 . S
C106 C105 1.375 . S
C106 C107 1.367 . S
C106 H120 0.951 . S
C107 C103 1.383 . S
C107 C106 1.367 . S
C107 H121 0.950 . S
C108 C105 1.481 . S
C108 C109 1.297 . S
C108 H122 0.950 . S
C109 C108 1.297 . S
C109 C110 1.479 . S
C109 H123 0.950 . S
C110 C109 1.479 . S
C110 C111 1.375 . S
C110 C116 1.404 . S
C111 C110 1.375 . S
C111 C112 1.369 . S
C111 H124 0.950 . S
C112 C111 1.369 . S
C112 C113 1.392 . S
C112 H125 0.951 . S
C113 C112 1.392 . S
C113 C115 1.384 . S
H114 C116 0.949 . S
C115 C113 1.384 . S
C115 C116 1.385 . S
C115 H117 0.950 . S
C116 C110 1.404 . S
C116 H114 0.949 . S
C116 C115 1.385 . S
H117 C115 0.950 . S
H118 C102 0.951 . S
H119 C104 0.951 . S
H120 C106 0.951 . S
H121 C107 0.950 . S
H122 C108 0.950 . S
H123 C109 0.950 . S
H124 C111 0.950 . S
H125 C112 0.951 . S
C126 C127 1.386 . S
C126 C128 1.383 . S
C126 H142 0.951 . S
C127 C126 1.386 . S
C127 C131 1.383 . S
C128 C126 1.383 . S
C128 C129 1.402 . S
C128 H143 0.951 . S
C129 C128 1.402 . S
C129 C130 1.375 . S
C129 C132 1.481 . S
C130 C129 1.375 . S
C130 C131 1.367 . S
C130 H144 0.951 . S
C131 C127 1.383 . S
C131 C130 1.367 . S
C131 H145 0.950 . S
C132 C129 1.481 . S
C132 C133 1.297 1_655 S
C132 H146 0.950 . S
C133 C132 1.297 1_455 S
C133 C134 1.479 . S
C133 H147 0.950 . S
C134 C133 1.479 . S
C134 C135 1.375 . S
C134 C140 1.404 . S
C135 C134 1.375 . S
C135 C136 1.369 . S
C135 H148 0.950 . S
C136 C135 1.369 . S
C136 C137 1.392 . S
C136 H149 0.951 . S
C137 C136 1.392 . S
C137 C139 1.384 . S
H138 C140 0.949 . S
C139 C137 1.384 . S
C139 C140 1.385 . S
C139 H141 0.950 . S
C140 C134 1.404 . S
C140 H138 0.949 . S
C140 C139 1.385 . S
H141 C139 0.950 . S
H142 C126 0.951 . S
H143 C128 0.951 . S
H144 C130 0.951 . S
H145 C131 0.950 . S
H146 C132 0.950 . S
H147 C133 0.950 . S
H148 C135 0.950 . S
H149 C136 0.951 . S
C150 C151 1.386 . S
C150 C152 1.383 . S
C150 H166 0.951 . S
C151 C150 1.386 . S
C151 C155 1.383 . S
C152 C150 1.383 . S
C152 C153 1.402 . S
C152 H167 0.951 . S
C153 C152 1.402 . S
C153 C154 1.375 . S
C153 C156 1.481 . S
C154 C153 1.375 . S
C154 C155 1.367 . S
C154 H168 0.951 . S
C155 C151 1.383 . S
C155 C154 1.367 . S
C155 H169 0.950 . S
C156 C153 1.481 . S
C156 C157 1.297 1_455 S
C156 H170 0.950 . S
C157 C156 1.297 1_655 S
C157 C158 1.479 . S
C157 H171 0.950 . S
C158 C157 1.479 . S
C158 C159 1.375 . S
C158 C164 1.404 . S
C159 C158 1.375 . S
C159 C160 1.369 . S
C159 H172 0.950 . S
C160 C159 1.369 . S
C160 C161 1.392 . S
C160 H173 0.951 . S
C161 C160 1.392 . S
C161 C163 1.384 . S
H162 C164 0.949 . S
C163 C161 1.384 . S
C163 C164 1.385 . S
C163 H165 0.950 . S
C164 C158 1.404 . S
C164 H162 0.949 . S
C164 C163 1.385 . S
H165 C163 0.950 . S
H166 C150 0.951 . S
H167 C152 0.951 . S
H168 C154 0.951 . S
H169 C155 0.950 . S
H170 C156 0.950 . S
H171 C157 0.950 . S
H172 C159 0.950 . S
H173 C160 0.951 . S
C174 C175 1.386 . S
C174 C176 1.383 . S
C174 H190 0.951 . S
C175 C174 1.386 . S
C175 C179 1.383 . S
C176 C174 1.383 . S
C176 C177 1.402 . S
C176 H191 0.951 . S
C177 C176 1.402 . S
C177 C178 1.375 . S
C177 C180 1.481 . S
C178 C177 1.375 . S
C178 C179 1.367 . S
C178 H192 0.951 . S
C179 C175 1.383 . S
C179 C178 1.367 . S
C179 H193 0.950 . S
C180 C177 1.481 . S
C180 C181 1.297 1_565 S
C180 H194 0.950 . S
C181 C180 1.297 1_545 S
C181 C182 1.479 . S
C181 H195 0.950 . S
C182 C181 1.479 . S
C182 C183 1.375 . S
C182 C188 1.404 . S
C183 C182 1.375 . S
C183 C184 1.369 . S
C183 H196 0.950 . S
C184 C183 1.369 . S
C184 C185 1.392 . S
C184 H197 0.951 . S
C185 C184 1.392 . S
C185 C187 1.384 . S
H186 C188 0.949 . S
C187 C185 1.384 . S
C187 C188 1.385 . S
C187 H189 0.950 . S
C188 C182 1.404 . S
C188 H186 0.949 . S
C188 C187 1.385 . S
H189 C187 0.950 . S
H190 C174 0.951 . S
H191 C176 0.951 . S
H192 C178 0.951 . S
H193 C179 0.950 . S
H194 C180 0.950 . S
H195 C181 0.950 . S
H196 C183 0.950 . S
H197 C184 0.951 . S
C198 C199 1.386 . S
C198 C200 1.383 . S
C198 H214 0.951 . S
C199 C198 1.386 . S
C199 C203 1.383 . S
C200 C198 1.383 . S
C200 C201 1.402 . S
C200 H215 0.951 . S
C201 C200 1.402 . S
C201 C202 1.375 . S
C201 C204 1.481 . S
C202 C201 1.375 . S
C202 C203 1.367 . S
C202 H216 0.951 . S
C203 C199 1.383 . S
C203 C202 1.367 . S
C203 H217 0.950 . S
C204 C201 1.481 . S
C204 C205 1.297 . S
C204 H218 0.950 . S
C205 C204 1.297 . S
C205 C206 1.479 . S
C205 H219 0.950 . S
C206 C205 1.479 . S
C206 C207 1.375 . S
C206 C212 1.404 . S
C207 C206 1.375 . S
C207 C208 1.369 . S
C207 H220 0.950 . S
C208 C207 1.369 . S
C208 C209 1.392 . S
C208 H221 0.951 . S
C209 C208 1.392 . S
C209 C211 1.384 . S
H210 C212 0.949 . S
C211 C209 1.384 . S
C211 C212 1.385 . S
C211 H213 0.950 . S
C212 C206 1.404 . S
C212 H210 0.949 . S
C212 C211 1.385 . S
H213 C211 0.950 . S
H214 C198 0.951 . S
H215 C200 0.951 . S
H216 C202 0.951 . S
H217 C203 0.950 . S
H218 C204 0.950 . S
H219 C205 0.950 . S
H220 C207 0.950 . S
H221 C208 0.951 . S
C222 C223 1.386 . S
C222 C224 1.383 . S
C222 H238 0.951 . S
C223 C222 1.386 . S
C223 C227 1.383 . S
C224 C222 1.383 . S
C224 C225 1.402 . S
C224 H239 0.951 . S
C225 C224 1.402 . S
C225 C226 1.375 . S
C225 C228 1.481 . S
C226 C225 1.375 . S
C226 C227 1.367 . S
C226 H240 0.951 . S
C227 C223 1.383 . S
C227 C226 1.367 . S
C227 H241 0.950 . S
C228 C225 1.481 . S
C228 C229 1.297 1_556 S
C228 H242 0.950 . S
C229 C228 1.297 1_554 S
C229 C230 1.479 . S
C229 H243 0.950 . S
C230 C229 1.479 . S
C230 C231 1.375 . S
C230 C236 1.404 . S
C231 C230 1.375 . S
C231 C232 1.369 . S
C231 H244 0.950 . S
C232 C231 1.369 . S
C232 C233 1.392 . S
C232 H245 0.951 . S
C233 C232 1.392 . S
C233 C235 1.384 . S
H234 C236 0.949 . S
C235 C233 1.384 . S
C235 C236 1.385 . S
C235 H237 0.950 . S
C236 C230 1.404 . S
C236 H234 0.949 . S
C236 C235 1.385 . S
H237 C235 0.950 . S
H238 C222 0.951 . S
H239 C224 0.951 . S
H240 C226 0.951 . S
H241 C227 0.950 . S
H242 C228 0.950 . S
H243 C229 0.950 . S
H244 C231 0.950 . S
H245 C232 0.951 . S
C246 C247 1.386 . S
C246 C248 1.383 . S
C246 H262 0.951 . S
C247 C246 1.386 . S
C247 C251 1.383 . S
C248 C246 1.383 . S
C248 C249 1.402 . S
C248 H263 0.951 . S
C249 C248 1.402 . S
C249 C250 1.375 . S
C249 C252 1.481 . S
C250 C249 1.375 . S
C250 C251 1.367 . S
C250 H264 0.951 . S
C251 C247 1.383 . S
C251 C250 1.367 . S
C251 H265 0.950 . S
C252 C249 1.481 . S
C252 C253 1.297 . S
C252 H266 0.950 . S
C253 C252 1.297 . S
C253 C254 1.479 . S
C253 H267 0.950 . S
C254 C253 1.479 . S
C254 C255 1.375 . S
C254 C260 1.404 . S
C255 C254 1.375 . S
C255 C256 1.369 . S
C255 H268 0.950 . S
C256 C255 1.369 . S
C256 C257 1.392 . S
C256 H269 0.951 . S
C257 C256 1.392 . S
C257 C259 1.384 . S
H258 C260 0.949 . S
C259 C257 1.384 . S
C259 C260 1.385 . S
C259 H261 0.950 . S
C260 C254 1.404 . S
C260 H258 0.949 . S
C260 C259 1.385 . S
H261 C259 0.950 . S
H262 C246 0.951 . S
H263 C248 0.951 . S
H264 C250 0.951 . S
H265 C251 0.950 . S
H266 C252 0.950 . S
H267 C253 0.950 . S
H268 C255 0.950 . S
H269 C256 0.951 . S
C270 C271 1.386 . S
C270 C272 1.383 . S
C270 H286 0.951 . S
C271 C270 1.386 . S
C271 C275 1.383 . S
C272 C270 1.383 . S
C272 C273 1.402 . S
C272 H287 0.951 . S
C273 C272 1.402 . S
C273 C274 1.375 . S
C273 C276 1.481 . S
C274 C273 1.375 . S
C274 C275 1.367 . S
C274 H288 0.951 . S
C275 C271 1.383 . S
C275 C274 1.367 . S
C275 H289 0.950 . S
C276 C273 1.481 . S
C276 C277 1.297 . S
C276 H290 0.950 . S
C277 C276 1.297 . S
C277 C278 1.479 . S
C277 H291 0.950 . S
C278 C277 1.479 . S
C278 C279 1.375 . S
C278 C284 1.404 . S
C279 C278 1.375 . S
C279 C280 1.369 . S
C279 H292 0.950 . S
C280 C279 1.369 . S
C280 C281 1.392 . S
C280 H293 0.951 . S
C281 C280 1.392 . S
C281 C283 1.384 . S
H282 C284 0.949 . S
C283 C281 1.384 . S
C283 C284 1.385 . S
C283 H285 0.950 . S
C284 C278 1.404 . S
C284 H282 0.949 . S
C284 C283 1.385 . S
H285 C283 0.950 . S
H286 C270 0.951 . S
H287 C272 0.951 . S
H288 C274 0.951 . S
H289 C275 0.950 . S
H290 C276 0.950 . S
H291 C277 0.950 . S
H292 C279 0.950 . S
H293 C280 0.951 . S
C294 C295 1.386 . S
C294 C296 1.383 . S
C294 H310 0.951 . S
C295 C294 1.386 . S
C295 C299 1.383 . S
C296 C294 1.383 . S
C296 C297 1.402 . S
C296 H311 0.951 . S
C297 C296 1.402 . S
C297 C298 1.375 . S
C297 C300 1.481 . S
C298 C297 1.375 . S
C298 C299 1.367 . S
C298 H312 0.951 . S
C299 C295 1.383 . S
C299 C298 1.367 . S
C299 H313 0.950 . S
C300 C297 1.481 . S
C300 C301 1.297 1_556 S
C300 H314 0.950 . S
C301 C300 1.297 1_554 S
C301 C302 1.479 . S
C301 H315 0.950 1_554 S
C302 C301 1.479 . S
C302 C303 1.375 . S
C302 C308 1.404 . S
C303 C302 1.375 . S
C303 C304 1.369 . S
C303 H316 0.950 . S
C304 C303 1.369 . S
C304 C305 1.392 . S
C304 H317 0.951 . S
C305 C304 1.392 . S
C305 C307 1.384 . S
H306 C308 0.949 . S
C307 C305 1.384 . S
C307 C308 1.385 . S
C307 H309 0.950 . S
C308 C302 1.404 . S
C308 H306 0.949 . S
C308 C307 1.385 . S
H309 C307 0.950 . S
H310 C294 0.951 . S
H311 C296 0.951 . S
H312 C298 0.951 . S
H313 C299 0.950 . S
H314 C300 0.950 . S
H315 C301 0.950 1_556 S
H316 C303 0.950 . S
H317 C304 0.951 . S
C318 C319 1.386 . S
C318 C320 1.383 . S
C318 H334 0.951 . S
C319 C318 1.386 . S
C319 C323 1.383 . S
C320 C318 1.383 . S
C320 C321 1.402 . S
C320 H335 0.951 . S
C321 C320 1.402 . S
C321 C322 1.375 . S
C321 C324 1.481 . S
C322 C321 1.375 . S
C322 C323 1.367 . S
C322 H336 0.951 . S
C323 C319 1.383 . S
C323 C322 1.367 . S
C323 H337 0.950 . S
C324 C321 1.481 . S
C324 C325 1.297 . S
C324 H338 0.950 . S
C325 C324 1.297 . S
C325 C326 1.479 . S
C325 H339 0.950 . S
C326 C325 1.479 . S
C326 C327 1.375 . S
C326 C332 1.404 . S
C327 C326 1.375 . S
C327 C328 1.369 . S
C327 H340 0.950 . S
C328 C327 1.369 . S
C328 C329 1.392 . S
C328 H341 0.951 . S
C329 C328 1.392 . S
C329 C331 1.384 . S
H330 C332 0.949 . S
C331 C329 1.384 . S
C331 C332 1.385 . S
C331 H333 0.950 . S
C332 C326 1.404 . S
C332 H330 0.949 . S
C332 C331 1.385 . S
H333 C331 0.950 . S
H334 C318 0.951 . S
H335 C320 0.951 . S
H336 C322 0.951 . S
H337 C323 0.950 . S
H338 C324 0.950 . S
H339 C325 0.950 . S
H340 C327 0.950 . S
H341 C328 0.951 . S
C342 C343 1.386 . S
C342 C344 1.383 . S
C342 H358 0.951 . S
C343 C342 1.386 . S
C343 C347 1.383 . S
C344 C342 1.383 . S
C344 C345 1.402 . S
C344 H359 0.951 . S
C345 C344 1.402 . S
C345 C346 1.375 . S
C345 C348 1.481 . S
C346 C345 1.375 . S
C346 C347 1.367 . S
C346 H360 0.951 . S
C347 C343 1.383 . S
C347 C346 1.367 . S
C347 H361 0.950 . S
C348 C345 1.481 . S
C348 C349 1.297 . S
C348 H362 0.950 . S
C349 C348 1.297 . S
C349 C350 1.479 . S
C349 H363 0.950 . S
C350 C349 1.479 . S
C350 C351 1.375 . S
C350 C356 1.404 . S
C351 C350 1.375 . S
C351 C352 1.369 . S
C351 H364 0.950 . S
C352 C351 1.369 . S
C352 C353 1.392 . S
C352 H365 0.951 . S
C353 C352 1.392 . S
C353 C355 1.384 . S
H354 C356 0.949 . S
C355 C353 1.384 . S
C355 C356 1.385 . S
C355 H357 0.950 . S
C356 C350 1.404 . S
C356 H354 0.949 . S
C356 C355 1.385 . S
H357 C355 0.950 . S
H358 C342 0.951 . S
H359 C344 0.951 . S
H360 C346 0.951 . S
H361 C347 0.950 . S
H362 C348 0.950 . S
H363 C349 0.950 . S
H364 C351 0.950 . S
H365 C352 0.951 . S
C79 C3 1.374 . S
C89 C42 1.369 . S
C103 C18 1.400 . S
C113 C55 1.376 . S
C127 C31 1.389 . S
C137 C68 1.349 . S
C151 C17 1.350 . S
C161 C62 1.343 . S
C175 C75 1.362 . S
C185 C30 1.328 . S
C199 C49 1.357 . S
C209 C10 1.386 . S
C223 C36 1.313 . S
C233 C5 1.324 . S
C247 C43 1.303 . S
C257 C16 1.317 . S
C271 C29 1.294 . S
C281 C56 1.292 . S
C295 C69 1.310 . S
C305 C44 1.279 . S
C319 C57 1.294 . S
C329 C4 1.293 . S
C343 C70 1.310 . S
C353 C23 1.323 . S
