# Generated by pormake.
# Topology fcm, (5)-cn, num edge types: 1
# Building blocks:
#     Node 0, Type 0, BuildingBlock: BEQFEK_clean_sbu_0, # of connection points: 5
#     Node 1, Type 0, BuildingBlock: BEQFEK_clean_sbu_0, # of connection points: 5
#     Node 2, Type 0, BuildingBlock: BEQFEK_clean_sbu_0, # of connection points: 5
#     Node 3, Type 0, BuildingBlock: BEQFEK_clean_sbu_0, # of connection points: 5
#     Node 4, Type 0, BuildingBlock: BEQFEK_clean_sbu_0, # of connection points: 5
#     Node 5, Type 0, BuildingBlock: BEQFEK_clean_sbu_0, # of connection points: 5
#     Node 6, Type 0, BuildingBlock: BEQFEK_clean_sbu_0, # of connection points: 5
#     Node 7, Type 0, BuildingBlock: BEQFEK_clean_sbu_0, # of connection points: 5
#     Node 8, Type 0, BuildingBlock: BEQFEK_clean_sbu_0, # of connection points: 5
#     Node 9, Type 0, BuildingBlock: BEQFEK_clean_sbu_0, # of connection points: 5
#     Node 10, Type 0, BuildingBlock: BEQFEK_clean_sbu_0, # of connection points: 5
#     Node 11, Type 0, BuildingBlock: BEQFEK_clean_sbu_0, # of connection points: 5
#     Node 12, Type 0, BuildingBlock: BEQFEK_clean_sbu_0, # of connection points: 5
#     Node 13, Type 0, BuildingBlock: BEQFEK_clean_sbu_0, # of connection points: 5
#     Node 14, Type 0, BuildingBlock: BEQFEK_clean_sbu_0, # of connection points: 5
#     Node 15, Type 0, BuildingBlock: BEQFEK_clean_sbu_0, # of connection points: 5
#     Node 16, Type 0, BuildingBlock: BEQFEK_clean_sbu_0, # of connection points: 5
#     Node 17, Type 0, BuildingBlock: BEQFEK_clean_sbu_0, # of connection points: 5
#     Node 18, Type 0, BuildingBlock: BEQFEK_clean_sbu_0, # of connection points: 5
#     Node 19, Type 0, BuildingBlock: BEQFEK_clean_sbu_0, # of connection points: 5
#     Node 20, Type 0, BuildingBlock: BEQFEK_clean_sbu_0, # of connection points: 5
#     Node 21, Type 0, BuildingBlock: BEQFEK_clean_sbu_0, # of connection points: 5
#     Node 22, Type 0, BuildingBlock: BEQFEK_clean_sbu_0, # of connection points: 5
#     Node 23, Type 0, BuildingBlock: BEQFEK_clean_sbu_0, # of connection points: 5
#     Node 24, Type 0, BuildingBlock: BEQFEK_clean_sbu_0, # of connection points: 5
#     Node 25, Type 0, BuildingBlock: BEQFEK_clean_sbu_0, # of connection points: 5
#     Node 26, Type 0, BuildingBlock: BEQFEK_clean_sbu_0, # of connection points: 5
#     Node 27, Type 0, BuildingBlock: BEQFEK_clean_sbu_0, # of connection points: 5
#     Node 28, Type 0, BuildingBlock: BEQFEK_clean_sbu_0, # of connection points: 5
#     Node 29, Type 0, BuildingBlock: BEQFEK_clean_sbu_0, # of connection points: 5
#     Node 30, Type 0, BuildingBlock: BEQFEK_clean_sbu_0, # of connection points: 5
#     Node 31, Type 0, BuildingBlock: BEQFEK_clean_sbu_0, # of connection points: 5
#     Node 32, Type 0, BuildingBlock: BEQFEK_clean_sbu_0, # of connection points: 5
#     Node 33, Type 0, BuildingBlock: BEQFEK_clean_sbu_0, # of connection points: 5
#     Node 34, Type 0, BuildingBlock: BEQFEK_clean_sbu_0, # of connection points: 5
#     Node 35, Type 0, BuildingBlock: BEQFEK_clean_sbu_0, # of connection points: 5
#     Node 36, Type 0, BuildingBlock: BEQFEK_clean_sbu_0, # of connection points: 5
#     Node 37, Type 0, BuildingBlock: BEQFEK_clean_sbu_0, # of connection points: 5
#     Node 38, Type 0, BuildingBlock: BEQFEK_clean_sbu_0, # of connection points: 5
#     Node 39, Type 0, BuildingBlock: BEQFEK_clean_sbu_0, # of connection points: 5
#     Node 40, Type 0, BuildingBlock: BEQFEK_clean_sbu_0, # of connection points: 5
#     Node 41, Type 0, BuildingBlock: BEQFEK_clean_sbu_0, # of connection points: 5
#     Node 42, Type 0, BuildingBlock: BEQFEK_clean_sbu_0, # of connection points: 5
#     Node 43, Type 0, BuildingBlock: BEQFEK_clean_sbu_0, # of connection points: 5
#     Node 44, Type 0, BuildingBlock: BEQFEK_clean_sbu_0, # of connection points: 5
#     Node 45, Type 0, BuildingBlock: BEQFEK_clean_sbu_0, # of connection points: 5
#     Node 46, Type 0, BuildingBlock: BEQFEK_clean_sbu_0, # of connection points: 5
#     Node 47, Type 0, BuildingBlock: BEQFEK_clean_sbu_0, # of connection points: 5
#     Edge 48, Type (0, 0), BuildingBlock: KIFKEQ_clean_linker_1, # of connection points: 2
#     Edge 49, Type (0, 0), BuildingBlock: KIFKEQ_clean_linker_1, # of connection points: 2
#     Edge 50, Type (0, 0), BuildingBlock: KIFKEQ_clean_linker_1, # of connection points: 2
#     Edge 51, Type (0, 0), BuildingBlock: KIFKEQ_clean_linker_1, # of connection points: 2
#     Edge 52, Type (0, 0), BuildingBlock: KIFKEQ_clean_linker_1, # of connection points: 2
#     Edge 53, Type (0, 0), BuildingBlock: KIFKEQ_clean_linker_1, # of connection points: 2
#     Edge 54, Type (0, 0), BuildingBlock: KIFKEQ_clean_linker_1, # of connection points: 2
#     Edge 55, Type (0, 0), BuildingBlock: KIFKEQ_clean_linker_1, # of connection points: 2
#     Edge 56, Type (0, 0), BuildingBlock: KIFKEQ_clean_linker_1, # of connection points: 2
#     Edge 57, Type (0, 0), BuildingBlock: KIFKEQ_clean_linker_1, # of connection points: 2
#     Edge 58, Type (0, 0), BuildingBlock: KIFKEQ_clean_linker_1, # of connection points: 2
#     Edge 59, Type (0, 0), BuildingBlock: KIFKEQ_clean_linker_1, # of connection points: 2
#     Edge 60, Type (0, 0), BuildingBlock: KIFKEQ_clean_linker_1, # of connection points: 2
#     Edge 61, Type (0, 0), BuildingBlock: KIFKEQ_clean_linker_1, # of connection points: 2
#     Edge 62, Type (0, 0), BuildingBlock: KIFKEQ_clean_linker_1, # of connection points: 2
#     Edge 63, Type (0, 0), BuildingBlock: KIFKEQ_clean_linker_1, # of connection points: 2
#     Edge 64, Type (0, 0), BuildingBlock: KIFKEQ_clean_linker_1, # of connection points: 2
#     Edge 65, Type (0, 0), BuildingBlock: KIFKEQ_clean_linker_1, # of connection points: 2
#     Edge 66, Type (0, 0), BuildingBlock: KIFKEQ_clean_linker_1, # of connection points: 2
#     Edge 67, Type (0, 0), BuildingBlock: KIFKEQ_clean_linker_1, # of connection points: 2
#     Edge 68, Type (0, 0), BuildingBlock: KIFKEQ_clean_linker_1, # of connection points: 2
#     Edge 69, Type (0, 0), BuildingBlock: KIFKEQ_clean_linker_1, # of connection points: 2
#     Edge 70, Type (0, 0), BuildingBlock: KIFKEQ_clean_linker_1, # of connection points: 2
#     Edge 71, Type (0, 0), BuildingBlock: KIFKEQ_clean_linker_1, # of connection points: 2
#     Edge 72, Type (0, 0), BuildingBlock: KIFKEQ_clean_linker_1, # of connection points: 2
#     Edge 73, Type (0, 0), BuildingBlock: KIFKEQ_clean_linker_1, # of connection points: 2
#     Edge 74, Type (0, 0), BuildingBlock: KIFKEQ_clean_linker_1, # of connection points: 2
#     Edge 75, Type (0, 0), BuildingBlock: KIFKEQ_clean_linker_1, # of connection points: 2
#     Edge 76, Type (0, 0), BuildingBlock: KIFKEQ_clean_linker_1, # of connection points: 2
#     Edge 77, Type (0, 0), BuildingBlock: KIFKEQ_clean_linker_1, # of connection points: 2
#     Edge 78, Type (0, 0), BuildingBlock: KIFKEQ_clean_linker_1, # of connection points: 2
#     Edge 79, Type (0, 0), BuildingBlock: KIFKEQ_clean_linker_1, # of connection points: 2
#     Edge 80, Type (0, 0), BuildingBlock: KIFKEQ_clean_linker_1, # of connection points: 2
#     Edge 81, Type (0, 0), BuildingBlock: KIFKEQ_clean_linker_1, # of connection points: 2
#     Edge 82, Type (0, 0), BuildingBlock: KIFKEQ_clean_linker_1, # of connection points: 2
#     Edge 83, Type (0, 0), BuildingBlock: KIFKEQ_clean_linker_1, # of connection points: 2
#     Edge 84, Type (0, 0), BuildingBlock: KIFKEQ_clean_linker_1, # of connection points: 2
#     Edge 85, Type (0, 0), BuildingBlock: KIFKEQ_clean_linker_1, # of connection points: 2
#     Edge 86, Type (0, 0), BuildingBlock: KIFKEQ_clean_linker_1, # of connection points: 2
#     Edge 87, Type (0, 0), BuildingBlock: KIFKEQ_clean_linker_1, # of connection points: 2
#     Edge 88, Type (0, 0), BuildingBlock: KIFKEQ_clean_linker_1, # of connection points: 2
#     Edge 89, Type (0, 0), BuildingBlock: KIFKEQ_clean_linker_1, # of connection points: 2
#     Edge 90, Type (0, 0), BuildingBlock: KIFKEQ_clean_linker_1, # of connection points: 2
#     Edge 91, Type (0, 0), BuildingBlock: KIFKEQ_clean_linker_1, # of connection points: 2
#     Edge 92, Type (0, 0), BuildingBlock: KIFKEQ_clean_linker_1, # of connection points: 2
#     Edge 93, Type (0, 0), BuildingBlock: KIFKEQ_clean_linker_1, # of connection points: 2
#     Edge 94, Type (0, 0), BuildingBlock: KIFKEQ_clean_linker_1, # of connection points: 2
#     Edge 95, Type (0, 0), BuildingBlock: KIFKEQ_clean_linker_1, # of connection points: 2
#     Edge 96, Type (0, 0), BuildingBlock: KIFKEQ_clean_linker_1, # of connection points: 2
#     Edge 97, Type (0, 0), BuildingBlock: KIFKEQ_clean_linker_1, # of connection points: 2
#     Edge 98, Type (0, 0), BuildingBlock: KIFKEQ_clean_linker_1, # of connection points: 2
#     Edge 99, Type (0, 0), BuildingBlock: KIFKEQ_clean_linker_1, # of connection points: 2
#     Edge 100, Type (0, 0), BuildingBlock: KIFKEQ_clean_linker_1, # of connection points: 2
#     Edge 101, Type (0, 0), BuildingBlock: KIFKEQ_clean_linker_1, # of connection points: 2
#     Edge 102, Type (0, 0), BuildingBlock: KIFKEQ_clean_linker_1, # of connection points: 2
#     Edge 103, Type (0, 0), BuildingBlock: KIFKEQ_clean_linker_1, # of connection points: 2
#     Edge 104, Type (0, 0), BuildingBlock: KIFKEQ_clean_linker_1, # of connection points: 2
#     Edge 105, Type (0, 0), BuildingBlock: KIFKEQ_clean_linker_1, # of connection points: 2
#     Edge 106, Type (0, 0), BuildingBlock: KIFKEQ_clean_linker_1, # of connection points: 2
#     Edge 107, Type (0, 0), BuildingBlock: KIFKEQ_clean_linker_1, # of connection points: 2
#     Edge 108, Type (0, 0), BuildingBlock: KIFKEQ_clean_linker_1, # of connection points: 2
#     Edge 109, Type (0, 0), BuildingBlock: KIFKEQ_clean_linker_1, # of connection points: 2
#     Edge 110, Type (0, 0), BuildingBlock: KIFKEQ_clean_linker_1, # of connection points: 2
#     Edge 111, Type (0, 0), BuildingBlock: KIFKEQ_clean_linker_1, # of connection points: 2
#     Edge 112, Type (0, 0), BuildingBlock: KIFKEQ_clean_linker_1, # of connection points: 2
#     Edge 113, Type (0, 0), BuildingBlock: KIFKEQ_clean_linker_1, # of connection points: 2
#     Edge 114, Type (0, 0), BuildingBlock: KIFKEQ_clean_linker_1, # of connection points: 2
#     Edge 115, Type (0, 0), BuildingBlock: KIFKEQ_clean_linker_1, # of connection points: 2
#     Edge 116, Type (0, 0), BuildingBlock: KIFKEQ_clean_linker_1, # of connection points: 2
#     Edge 117, Type (0, 0), BuildingBlock: KIFKEQ_clean_linker_1, # of connection points: 2
#     Edge 118, Type (0, 0), BuildingBlock: KIFKEQ_clean_linker_1, # of connection points: 2
#     Edge 119, Type (0, 0), BuildingBlock: KIFKEQ_clean_linker_1, # of connection points: 2
#     Edge 120, Type (0, 0), BuildingBlock: KIFKEQ_clean_linker_1, # of connection points: 2
#     Edge 121, Type (0, 0), BuildingBlock: KIFKEQ_clean_linker_1, # of connection points: 2
#     Edge 122, Type (0, 0), BuildingBlock: KIFKEQ_clean_linker_1, # of connection points: 2
#     Edge 123, Type (0, 0), BuildingBlock: KIFKEQ_clean_linker_1, # of connection points: 2
#     Edge 124, Type (0, 0), BuildingBlock: KIFKEQ_clean_linker_1, # of connection points: 2
#     Edge 125, Type (0, 0), BuildingBlock: KIFKEQ_clean_linker_1, # of connection points: 2
#     Edge 126, Type (0, 0), BuildingBlock: KIFKEQ_clean_linker_1, # of connection points: 2
#     Edge 127, Type (0, 0), BuildingBlock: KIFKEQ_clean_linker_1, # of connection points: 2
#     Edge 128, Type (0, 0), BuildingBlock: KIFKEQ_clean_linker_1, # of connection points: 2
#     Edge 129, Type (0, 0), BuildingBlock: KIFKEQ_clean_linker_1, # of connection points: 2
#     Edge 130, Type (0, 0), BuildingBlock: KIFKEQ_clean_linker_1, # of connection points: 2
#     Edge 131, Type (0, 0), BuildingBlock: KIFKEQ_clean_linker_1, # of connection points: 2
#     Edge 132, Type (0, 0), BuildingBlock: KIFKEQ_clean_linker_1, # of connection points: 2
#     Edge 133, Type (0, 0), BuildingBlock: KIFKEQ_clean_linker_1, # of connection points: 2
#     Edge 134, Type (0, 0), BuildingBlock: KIFKEQ_clean_linker_1, # of connection points: 2
#     Edge 135, Type (0, 0), BuildingBlock: KIFKEQ_clean_linker_1, # of connection points: 2
#     Edge 136, Type (0, 0), BuildingBlock: KIFKEQ_clean_linker_1, # of connection points: 2
#     Edge 137, Type (0, 0), BuildingBlock: KIFKEQ_clean_linker_1, # of connection points: 2
#     Edge 138, Type (0, 0), BuildingBlock: KIFKEQ_clean_linker_1, # of connection points: 2
#     Edge 139, Type (0, 0), BuildingBlock: KIFKEQ_clean_linker_1, # of connection points: 2
#     Edge 140, Type (0, 0), BuildingBlock: KIFKEQ_clean_linker_1, # of connection points: 2
#     Edge 141, Type (0, 0), BuildingBlock: KIFKEQ_clean_linker_1, # of connection points: 2
#     Edge 142, Type (0, 0), BuildingBlock: KIFKEQ_clean_linker_1, # of connection points: 2
#     Edge 143, Type (0, 0), BuildingBlock: KIFKEQ_clean_linker_1, # of connection points: 2
#     Edge 144, Type (0, 0), BuildingBlock: KIFKEQ_clean_linker_1, # of connection points: 2
#     Edge 145, Type (0, 0), BuildingBlock: KIFKEQ_clean_linker_1, # of connection points: 2
#     Edge 146, Type (0, 0), BuildingBlock: KIFKEQ_clean_linker_1, # of connection points: 2
#     Edge 147, Type (0, 0), BuildingBlock: KIFKEQ_clean_linker_1, # of connection points: 2
#     Edge 148, Type (0, 0), BuildingBlock: KIFKEQ_clean_linker_1, # of connection points: 2
#     Edge 149, Type (0, 0), BuildingBlock: KIFKEQ_clean_linker_1, # of connection points: 2
#     Edge 150, Type (0, 0), BuildingBlock: KIFKEQ_clean_linker_1, # of connection points: 2
#     Edge 151, Type (0, 0), BuildingBlock: KIFKEQ_clean_linker_1, # of connection points: 2
#     Edge 152, Type (0, 0), BuildingBlock: KIFKEQ_clean_linker_1, # of connection points: 2
#     Edge 153, Type (0, 0), BuildingBlock: KIFKEQ_clean_linker_1, # of connection points: 2
#     Edge 154, Type (0, 0), BuildingBlock: KIFKEQ_clean_linker_1, # of connection points: 2
#     Edge 155, Type (0, 0), BuildingBlock: KIFKEQ_clean_linker_1, # of connection points: 2
#     Edge 156, Type (0, 0), BuildingBlock: KIFKEQ_clean_linker_1, # of connection points: 2
#     Edge 157, Type (0, 0), BuildingBlock: KIFKEQ_clean_linker_1, # of connection points: 2
#     Edge 158, Type (0, 0), BuildingBlock: KIFKEQ_clean_linker_1, # of connection points: 2
#     Edge 159, Type (0, 0), BuildingBlock: KIFKEQ_clean_linker_1, # of connection points: 2
#     Edge 160, Type (0, 0), BuildingBlock: KIFKEQ_clean_linker_1, # of connection points: 2
#     Edge 161, Type (0, 0), BuildingBlock: KIFKEQ_clean_linker_1, # of connection points: 2
#     Edge 162, Type (0, 0), BuildingBlock: KIFKEQ_clean_linker_1, # of connection points: 2
#     Edge 163, Type (0, 0), BuildingBlock: KIFKEQ_clean_linker_1, # of connection points: 2
#     Edge 164, Type (0, 0), BuildingBlock: KIFKEQ_clean_linker_1, # of connection points: 2
#     Edge 165, Type (0, 0), BuildingBlock: KIFKEQ_clean_linker_1, # of connection points: 2
#     Edge 166, Type (0, 0), BuildingBlock: KIFKEQ_clean_linker_1, # of connection points: 2
#     Edge 167, Type (0, 0), BuildingBlock: KIFKEQ_clean_linker_1, # of connection points: 2
# Relax obj value: 0.468
# Max RMSD: 0.214
# Mean RMSD: 0.214
data_MOF--net-fcm--node1-BEQFEK_clean_sbu_0--edge1-KIFKEQ_clean_linker_1
_symmetry_space_group_name_H-M    P1
_symmetry_Int_Tables_number       1
_symmetry_cell_setting            triclinic
loop_
_symmetry_equiv_pos_as_xyz
'x, y, z'
_cell_length_a     71.293013
_cell_length_b     71.285707
_cell_length_c     71.309371
_cell_angle_alpha  89.985752
_cell_angle_beta   90.007833
_cell_angle_gamma 90.004116
loop_
_atom_site_label
_atom_site_type_symbol
_atom_site_fract_x
_atom_site_fract_y
_atom_site_fract_z
_atom_type_partial_charge
Co0 Co 0.01721 0.06168 0.33286 0.0
Co1 Co 0.98535 0.03586 0.34855 0.0
C2 C 0.00117 0.0285 0.31129 0.0
O3 O 0.01115 0.04311 0.31324 0.0
O4 O 0.99074 0.02268 0.32455 0.0
C5 C 0.05355 0.05786 0.32423 0.0
O6 O 0.04741 0.04076 0.32734 0.0
C7 C 0.96836 0.00297 0.36563 0.0
C8 C 0.94801 0.01551 0.38533 0.0
C9 C 0.95633 -0.00134 0.38033 0.0
N10 N 0.96772 0.02156 0.36265 0.0
N11 N 0.95516 0.02893 0.37411 0.0
C12 C 0.9804 0.98984 0.35448 0.0
H13 H 0.97797 0.9923 0.33933 0.0
H14 H 0.99541 0.99277 0.35732 0.0
H15 H 0.97717 0.97495 0.35759 0.0
C16 C 0.03338 0.05397 0.37008 0.0
N17 N 0.01997 0.05131 0.35702 0.0
N18 N 0.00728 0.03962 0.36357 0.0
C19 C 0.01262 0.03411 0.38095 0.0
C20 C 0.02932 0.04296 0.38541 0.0
C21 C 0.04923 0.06766 0.3686 0.0
H22 H 0.04536 0.07957 0.35939 0.0
H23 H 0.06172 0.06042 0.36281 0.0
H24 H 0.05309 0.07315 0.38264 0.0
O25 O 0.99673 0.07997 0.33303 0.0
O26 O 0.97376 0.06063 0.34199 0.0
H27 H 0.98732 0.02687 0.39531 0.0
H28 H 0.0084 0.02017 0.40757 0.0
C29 C 0.00174 0.02139 0.39356 0.0
H30 H 0.00099 0.00726 0.38719 0.0
H31 H 0.95237 0.04327 0.3751 0.0
O32 O 0.04199 0.07143 0.32519 0.0
C33 C 0.97946 0.07671 0.33646 0.0
Co34 Co 0.18118 0.76872 0.5828 0.0
Co35 Co 0.20734 0.73693 0.59882 0.0
C36 C 0.21365 0.75318 0.56075 0.0
O37 O 0.19934 0.76364 0.56262 0.0
O38 O 0.21914 0.74252 0.57401 0.0
C39 C 0.17138 0.80197 0.5621 0.0
O40 O 0.18131 0.79426 0.54864 0.0
C41 C 0.24132 0.72254 0.61637 0.0
C42 C 0.23036 0.69935 0.63375 0.0
C43 C 0.24638 0.70983 0.63026 0.0
N44 N 0.22304 0.72014 0.61245 0.0
N45 N 0.21667 0.70596 0.62254 0.0
C46 C 0.25345 0.73681 0.60683 0.0
H47 H 0.25015 0.73721 0.59165 0.0
H48 H 0.25049 0.75094 0.61261 0.0
H49 H 0.26855 0.73351 0.60861 0.0
C50 C 0.19248 0.78701 0.61804 0.0
N51 N 0.19332 0.77246 0.60604 0.0
N52 N 0.20338 0.75893 0.61356 0.0
C53 C 0.20861 0.76431 0.63101 0.0
C54 C 0.20212 0.78235 0.63416 0.0
C55 C 0.18176 0.8047 0.6146 0.0
H56 H 0.16682 0.80118 0.61205 0.0
H57 H 0.18747 0.81172 0.60196 0.0
H58 H 0.18261 0.8145 0.62666 0.0
O59 O 0.1639 0.74699 0.58396 0.0
O60 O 0.18316 0.72429 0.59352 0.0
H61 H 0.21339 0.73772 0.64426 0.0
H62 H 0.21708 0.75769 0.65937 0.0
C63 C 0.21877 0.75228 0.64488 0.0
H64 H 0.23393 0.75226 0.64156 0.0
H65 H 0.20273 0.70151 0.62257 0.0
O66 O 0.1679 0.79248 0.57679 0.0
C67 C 0.16711 0.72981 0.58788 0.0
Co68 Co 0.4764 0.93416 0.83332 0.0
Co69 Co 0.5094 0.95968 0.84777 0.0
C70 C 0.49193 0.96545 0.80986 0.0
O71 O 0.48065 0.95193 0.81268 0.0
O72 O 0.50375 0.97041 0.82234 0.0
C73 C 0.44333 0.92243 0.81327 0.0
O74 O 0.45147 0.93028 0.79874 0.0
C75 C 0.52393 0.99393 0.86448 0.0
C76 C 0.5476 0.9834 0.88147 0.0
C77 C 0.53674 -0.00077 0.87822 0.0
N78 N 0.52661 0.9757 0.86052 0.0
N79 N 0.5411 0.96961 0.87033 0.0
C80 C 0.50916 0.00568 0.85525 0.0
H81 H 0.50792 0.00179 0.84026 0.0
H82 H 0.49537 0.00298 0.86192 0.0
H83 H 0.51256 0.02084 0.8563 0.0
C84 C 0.4594 0.94654 0.8687 0.0
N85 N 0.47358 0.94691 0.85624 0.0
N86 N 0.48761 0.95666 0.86319 0.0
C87 C 0.48298 0.96207 0.88081 0.0
C88 C 0.46487 0.95612 0.88459 0.0
C89 C 0.44142 0.93608 0.86599 0.0
H90 H 0.44457 0.92097 0.86409 0.0
H91 H 0.43434 0.94135 0.85318 0.0
H92 H 0.43182 0.9377 0.87812 0.0
O93 O 0.49798 0.91661 0.83424 0.0
O94 O 0.52145 0.9351 0.84347 0.0
H95 H 0.51024 0.96588 0.89296 0.0
H96 H 0.49107 0.9696 0.90904 0.0
C97 C 0.49587 0.97156 0.89437 0.0
H98 H 0.49606 0.98681 0.89147 0.0
H99 H 0.54575 0.95573 0.87036 0.0
O100 O 0.45244 0.92087 0.8285 0.0
C101 C 0.51528 0.91918 0.83812 0.0
Co102 Co 0.30789 0.22692 0.08289 0.0
Co103 Co 0.2831 0.26023 0.09826 0.0
C104 C 0.27532 0.24393 0.06104 0.0
O105 O 0.28936 0.23322 0.06341 0.0
O106 O 0.27003 0.25518 0.0739 0.0
C107 C 0.30738 0.19016 0.06861 0.0
O108 O 0.29063 0.1959 0.06354 0.0
C109 C 0.25141 0.27869 0.11667 0.0
C110 C 0.26601 0.29911 0.13483 0.0
C111 C 0.24857 0.29138 0.13113 0.0
N112 N 0.26975 0.27867 0.1123 0.0
N113 N 0.2783 0.29133 0.12281 0.0
C114 C 0.23756 0.26487 0.10905 0.0
H115 H 0.24489 0.2527 0.1027 0.0
H116 H 0.2279 0.25998 0.12023 0.0
H117 H 0.22903 0.27185 0.09806 0.0
C118 C 0.29848 0.21105 0.11961 0.0
N119 N 0.29675 0.22472 0.10671 0.0
N120 N 0.2863 0.23832 0.11354 0.0
C121 C 0.28121 0.23361 0.13124 0.0
C122 C 0.28858 0.21611 0.13541 0.0
C123 C 0.31073 0.19414 0.11757 0.0
H124 H 0.32417 0.19814 0.11087 0.0
H125 H 0.30342 0.18372 0.10865 0.0
H126 H 0.31377 0.18753 0.13133 0.0
O127 O 0.32662 0.24739 0.0829 0.0
O128 O 0.30802 0.27093 0.09176 0.0
H129 H 0.27624 0.25984 0.14496 0.0
H130 H 0.26944 0.23966 0.1586 0.0
C131 C 0.26999 0.24564 0.14425 0.0
H132 H 0.25545 0.24676 0.13896 0.0
H133 H 0.29276 0.2936 0.12278 0.0
O134 O 0.31849 0.2018 0.07638 0.0
C135 C 0.32388 0.26479 0.08619 0.0
Co136 Co 0.01909 0.93402 0.16215 0.0
Co137 Co 0.9867 0.95961 0.14639 0.0
C138 C 0.00353 0.96637 0.18422 0.0
O139 O 0.01415 0.95217 0.18231 0.0
O140 O 0.99262 0.97161 0.17106 0.0
C141 C 0.05254 0.92424 0.18268 0.0
O142 O 0.04472 0.93379 0.19634 0.0
C143 C 0.9726 0.99333 0.12821 0.0
C144 C 0.94715 0.98308 0.11383 0.0
C145 C 0.95874 -0.0014 0.11558 0.0
N146 N 0.96966 0.9754 0.13318 0.0
N147 N 0.9542 0.96945 0.12486 0.0
C148 C 0.98838 0.00504 0.13567 0.0
H149 H 0.00177 0.00068 0.1291 0.0
H150 H 0.98598 0.02019 0.13298 0.0
H151 H 0.9898 0.00273 0.15098 0.0
C152 C 0.03666 0.94527 0.12656 0.0
N153 N 0.02231 0.9461 0.13881 0.0
N154 N 0.00839 0.95557 0.13125 0.0
C155 C 0.01321 0.96022 0.11348 0.0
C156 C 0.03139 0.95418 0.11021 0.0
C157 C 0.05463 0.93503 0.12996 0.0
H158 H 0.05151 0.92 0.13246 0.0
H159 H 0.06151 0.94087 0.14263 0.0
H160 H 0.06439 0.93616 0.1179 0.0
O161 O 0.99744 0.91649 0.16131 0.0
O162 O 0.97435 0.93535 0.15184 0.0
H163 H 0.98578 0.96451 0.10173 0.0
H164 H 0.00462 0.96513 0.08487 0.0
C165 C 0.00044 0.96901 0.09934 0.0
H166 H 0.00137 0.98445 0.10046 0.0
H167 H 0.94899 0.95581 0.12596 0.0
O168 O 0.04312 0.92101 0.16788 0.0
C169 C 0.98017 0.91939 0.15748 0.0
Co170 Co 0.31112 0.76656 0.4139 0.0
Co171 Co 0.28523 0.73515 0.39722 0.0
C172 C 0.27692 0.75114 0.43424 0.0
O173 O 0.2918 0.76079 0.43276 0.0
O174 O 0.27128 0.74086 0.42078 0.0
C175 C 0.30799 0.80296 0.42327 0.0
O176 O 0.29078 0.79735 0.41978 0.0
C177 C 0.25261 0.71876 0.37889 0.0
C178 C 0.26555 0.69841 0.35945 0.0
C179 C 0.24865 0.70693 0.36392 0.0
N180 N 0.27108 0.71785 0.38251 0.0
N181 N 0.27866 0.70528 0.3712 0.0
C182 C 0.23925 0.73088 0.38968 0.0
H183 H 0.24133 0.72851 0.4049 0.0
H184 H 0.24227 0.74587 0.38684 0.0
H185 H 0.22443 0.72767 0.38621 0.0
C186 C 0.30444 0.78334 0.37673 0.0
N187 N 0.30146 0.76971 0.38948 0.0
N188 N 0.29014 0.75701 0.38234 0.0
C189 C 0.28544 0.7624 0.36474 0.0
C190 C 0.2942 0.77932 0.36083 0.0
C191 C 0.31811 0.79915 0.37887 0.0
H192 H 0.32987 0.79499 0.38815 0.0
H193 H 0.3108 0.81147 0.38491 0.0
H194 H 0.32384 0.80339 0.36502 0.0
O195 O 0.32892 0.74552 0.41433 0.0
O196 O 0.30936 0.72294 0.40485 0.0
H197 H 0.27845 0.73732 0.34987 0.0
H198 H 0.27179 0.75856 0.33785 0.0
C199 C 0.2729 0.75171 0.35176 0.0
H200 H 0.2587 0.75084 0.35792 0.0
H201 H 0.29299 0.7023 0.37067 0.0
O202 O 0.32126 0.79105 0.42217 0.0
C203 C 0.32535 0.72829 0.41096 0.0
Co204 Co 0.47836 0.05634 0.66105 0.0
Co205 Co 0.51203 0.03338 0.64454 0.0
C206 C 0.49458 0.02192 0.68022 0.0
O207 O 0.48357 0.03582 0.67864 0.0
O208 O 0.50675 0.01835 0.66765 0.0
C209 C 0.44088 0.05226 0.66724 0.0
O210 O 0.44593 0.03569 0.66095 0.0
C211 C 0.53112 0.00299 0.62513 0.0
C212 C 0.5522 0.01829 0.60832 0.0
C213 C 0.54445 0.00068 0.61115 0.0
N214 N 0.53084 0.02115 0.63012 0.0
N215 N 0.54381 0.03014 0.62039 0.0
C216 C 0.51699 0.9889 0.63171 0.0
H217 H 0.50457 0.99603 0.63779 0.0
H218 H 0.5125 0.97967 0.62001 0.0
H219 H 0.52349 0.97998 0.64269 0.0
C220 C 0.46427 0.05185 0.6226 0.0
N221 N 0.47706 0.04821 0.63599 0.0
N222 N 0.49046 0.03761 0.62898 0.0
C223 C 0.48622 0.03389 0.61083 0.0
C224 C 0.46939 0.0426 0.60646 0.0
C225 C 0.4486 0.06573 0.62431 0.0
H226 H 0.45171 0.07625 0.63531 0.0
H227 H 0.43546 0.05821 0.62777 0.0
H228 H 0.44632 0.07307 0.61076 0.0
O229 O 0.49846 0.07514 0.6635 0.0
O230 O 0.52235 0.05796 0.65283 0.0
H231 H 0.51249 0.02871 0.5973 0.0
H232 H 0.49232 0.02285 0.5832 0.0
C233 C 0.49814 0.02278 0.59763 0.0
H234 H 0.49891 0.00807 0.60253 0.0
H235 H 0.54602 0.0446 0.62107 0.0
O236 O 0.4532 0.06508 0.66889 0.0
C237 C 0.51586 0.07314 0.65976 0.0
Co238 Co 0.1875 0.2265 0.90984 0.0
Co239 Co 0.20862 0.26215 0.89478 0.0
C240 C 0.21935 0.24354 0.93109 0.0
O241 O 0.20688 0.23103 0.92873 0.0
O242 O 0.22187 0.25654 0.91905 0.0
C243 C 0.18001 0.19192 0.92936 0.0
O244 O 0.18902 0.19987 0.94332 0.0
C245 C 0.2406 0.28008 0.87736 0.0
C246 C 0.22767 0.30356 0.8618 0.0
C247 C 0.24447 0.29411 0.86444 0.0
N248 N 0.22236 0.28106 0.88192 0.0
N249 N 0.21478 0.2954 0.87296 0.0
C250 C 0.25316 0.26427 0.88316 0.0
H251 H 0.24481 0.25237 0.88871 0.0
H252 H 0.26184 0.25945 0.87118 0.0
H253 H 0.26274 0.26927 0.89436 0.0
C254 C 0.19743 0.21221 0.87265 0.0
N255 N 0.19795 0.22582 0.88569 0.0
N256 N 0.20617 0.24078 0.87867 0.0
C257 C 0.21058 0.23722 0.86054 0.0
C258 C 0.20544 0.21892 0.85636 0.0
C259 C 0.18814 0.19358 0.87532 0.0
H260 H 0.17323 0.19582 0.87914 0.0
H261 H 0.19514 0.18599 0.88695 0.0
H262 H 0.1887 0.18482 0.86248 0.0
O263 O 0.16864 0.24672 0.91209 0.0
O264 O 0.18354 0.27203 0.90143 0.0
H265 H 0.21214 0.26503 0.84916 0.0
H266 H 0.21679 0.24664 0.83237 0.0
C267 C 0.21877 0.25113 0.84713 0.0
H268 H 0.23403 0.25238 0.84973 0.0
H269 H 0.20056 0.29883 0.87348 0.0
O270 O 0.17641 0.20149 0.91477 0.0
C271 C 0.16905 0.26425 0.90847 0.0
Co272 Co 0.33527 0.01836 0.06456 0.0
Co273 Co 0.3503 0.9867 0.03771 0.0
C274 C 0.31318 0.00517 0.03118 0.0
O275 O 0.31524 0.01518 0.04579 0.0
O276 O 0.32598 0.99392 0.02578 0.0
C277 C 0.31394 0.04983 0.07847 0.0
O278 O 0.29936 0.04065 0.07193 0.0
C279 C 0.36757 0.973 0.00334 0.0
C280 C 0.38367 0.94848 0.01334 0.0
C281 C 0.38085 0.95984 0.99779 0.0
N282 N 0.36337 0.96997 0.02145 0.0
N283 N 0.37268 0.95503 0.02724 0.0
C284 C 0.35891 0.98829 0.99181 0.0
H285 H 0.34374 0.98934 0.99501 0.0
H286 H 0.36542 0.00194 0.99544 0.0
H287 H 0.36064 0.98558 0.97658 0.0
C288 C 0.37171 0.03509 0.05496 0.0
N289 N 0.35895 0.02129 0.05315 0.0
N290 N 0.36602 0.00777 0.04277 0.0
C291 C 0.38389 0.01237 0.03825 0.0
C292 C 0.38784 0.02993 0.04559 0.0
C293 C 0.36892 0.05242 0.06642 0.0
H294 H 0.36533 0.04839 0.08101 0.0
H295 H 0.35708 0.06055 0.06043 0.0
H296 H 0.38162 0.0614 0.06668 0.0
O297 O 0.33492 0.99596 0.08106 0.0
O298 O 0.34401 0.97343 0.06134 0.0
H299 H 0.39591 0.98534 0.03281 0.0
H300 H 0.41203 0.00466 0.0299 0.0
C301 C 0.39732 1e-05 0.0279 0.0
H302 H 0.39418 0.0006 0.01271 0.0
H303 H 0.37236 0.94994 0.04096 0.0
O304 O 0.32991 0.04194 0.07833 0.0
C305 C 0.33821 0.97872 0.07742 0.0
Co306 Co 0.2286 0.08283 0.31026 0.0
Co307 Co 0.26083 0.09891 0.2851 0.0
C308 C 0.24541 0.06136 0.27756 0.0
O309 O 0.2351 0.06322 0.29194 0.0
O310 O 0.25584 0.07472 0.27195 0.0
C311 C 0.19234 0.07315 0.30659 0.0
O312 O 0.19835 0.07573 0.28936 0.0
C313 C 0.27762 0.11633 0.25233 0.0
C314 C 0.29755 0.13638 0.26498 0.0
C315 C 0.28919 0.13145 0.24812 0.0
N316 N 0.27843 0.11315 0.27087 0.0
N317 N 0.29081 0.12479 0.27829 0.0
C318 C 0.26565 0.10513 0.23918 0.0
H319 H 0.26789 0.08997 0.24183 0.0
H320 H 0.25063 0.10818 0.24184 0.0
H321 H 0.26913 0.10806 0.22431 0.0
C322 C 0.21177 0.11962 0.30165 0.0
N323 N 0.22555 0.10684 0.29956 0.0
N324 N 0.23869 0.11375 0.2886 0.0
C325 C 0.23345 0.13123 0.28328 0.0
C326 C 0.21619 0.13526 0.2912 0.0
C327 C 0.19546 0.11788 0.31477 0.0
H328 H 0.19919 0.10905 0.327 0.0
H329 H 0.18347 0.11152 0.3072 0.0
H330 H 0.19093 0.13189 0.31984 0.0
O331 O 0.24894 0.08335 0.3288 0.0
O332 O 0.27221 0.09251 0.30993 0.0
H333 H 0.25899 0.14581 0.27742 0.0
H334 H 0.23818 0.15827 0.27025 0.0
C335 C 0.24479 0.14422 0.27135 0.0
H336 H 0.24601 0.13827 0.25709 0.0
H337 H 0.29363 0.12572 0.29262 0.0
O338 O 0.20394 0.07487 0.32005 0.0
C339 C 0.26624 0.08691 0.32589 0.0
Co340 Co 0.16182 0.97541 0.56029 0.0
Co341 Co 0.14743 0.00844 0.53481 0.0
C342 C 0.18533 0.99081 0.52903 0.0
O343 O 0.18254 0.97951 0.54254 0.0
O344 O 0.17282 0.00262 0.52411 0.0
C345 C 0.18133 0.94189 0.57173 0.0
O346 O 0.19581 0.94953 0.5633 0.0
C347 C 0.13067 0.02282 0.50053 0.0
C348 C 0.11569 0.04804 0.51047 0.0
C349 C 0.11802 0.03657 0.49494 0.0
N350 N 0.13501 0.02569 0.51863 0.0
N351 N 0.12636 0.04103 0.52439 0.0
C352 C 0.13864 0.00714 0.48904 0.0
H353 H 0.1536 0.005 0.4927 0.0
H354 H 0.13114 0.9939 0.49225 0.0
H355 H 0.13745 0.01016 0.47382 0.0
C356 C 0.12625 0.95861 0.54799 0.0
N357 N 0.13881 0.97271 0.54757 0.0
N358 N 0.13183 0.98684 0.53797 0.0
C359 C 0.11408 0.9824 0.53282 0.0
C360 C 0.11025 0.96425 0.53868 0.0
C361 C 0.12897 0.94057 0.55834 0.0
H362 H 0.13086 0.94364 0.57347 0.0
H363 H 0.14177 0.93351 0.55304 0.0
H364 H 0.11683 0.93097 0.5567 0.0
O365 O 0.16106 0.9971 0.5778 0.0
O366 O 0.15179 0.02054 0.55931 0.0
H367 H 0.10277 0.01005 0.52885 0.0
H368 H 0.08577 0.9914 0.5269 0.0
C369 C 0.10044 0.99555 0.5238 0.0
H370 H 0.10226 0.99512 0.5084 0.0
H371 H 0.12692 0.04612 0.5381 0.0
O372 O 0.16642 0.95146 0.5737 0.0
C373 C 0.1572 0.0144 0.57521 0.0
Co374 Co 0.26934 0.91435 0.81053 0.0
Co375 Co 0.2368 0.89908 0.7849 0.0
C376 C 0.25281 0.93748 0.77942 0.0
O377 O 0.26371 0.93519 0.79333 0.0
O378 O 0.24205 0.92435 0.77381 0.0
C379 C 0.30334 0.9341 0.81952 0.0
O380 O 0.29613 0.9474 0.80901 0.0
C381 C 0.22233 0.88187 0.75083 0.0
C382 C 0.19794 0.86589 0.76131 0.0
C383 C 0.20895 0.86871 0.74552 0.0
N384 N 0.21973 0.88601 0.76902 0.0
N385 N 0.20488 0.87675 0.77511 0.0
C386 C 0.23741 0.8905 0.73901 0.0
H387 H 0.2509 0.8832 0.74155 0.0
H388 H 0.23386 0.88965 0.72389 0.0
H389 H 0.23936 0.90541 0.74296 0.0
C390 C 0.28709 0.87921 0.7981 0.0
N391 N 0.27278 0.89152 0.79752 0.0
N392 N 0.25882 0.88419 0.78793 0.0
C393 C 0.26361 0.86652 0.78288 0.0
C394 C 0.28179 0.86307 0.78883 0.0
C395 C 0.3049 0.88217 0.80876 0.0
H396 H 0.30156 0.88426 0.8238 0.0
H397 H 0.31197 0.89494 0.80339 0.0
H398 H 0.3146 0.87007 0.8074 0.0
O399 O 0.24806 0.91247 0.82834 0.0
O400 O 0.22476 0.90342 0.80955 0.0
H401 H 0.2363 0.85421 0.77982 0.0
H402 H 0.25546 0.83794 0.77682 0.0
C403 C 0.25065 0.8525 0.77415 0.0
H404 H 0.25034 0.85462 0.75878 0.0
H405 H 0.2001 0.87707 0.78894 0.0
O406 O 0.29338 0.91987 0.82354 0.0
C407 C 0.2308 0.90853 0.82559 0.0
Co408 Co 0.33466 0.97824 0.43857 0.0
Co409 Co 0.35093 0.01193 0.46165 0.0
C410 C 0.31504 0.99456 0.47271 0.0
O411 O 0.31668 0.98367 0.45873 0.0
O412 O 0.32769 0.00659 0.47655 0.0
C413 C 0.32702 0.94124 0.44291 0.0
O414 O 0.331 0.94703 0.45995 0.0
C415 C 0.37032 0.03128 0.49197 0.0
C416 C 0.38709 0.05223 0.47645 0.0
C417 C 0.38433 0.04462 0.49412 0.0
N418 N 0.36528 0.03085 0.47383 0.0
N419 N 0.37497 0.04375 0.46471 0.0
C420 C 0.36378 0.01728 0.5062 0.0
H421 H 0.3576 0.00483 0.49921 0.0
H422 H 0.37553 0.01282 0.51538 0.0
H423 H 0.3529 0.02389 0.51514 0.0
C424 C 0.37274 0.96352 0.4445 0.0
N425 N 0.35951 0.97668 0.44738 0.0
N426 N 0.36654 0.99032 0.45765 0.0
C427 C 0.38462 0.98604 0.46169 0.0
C428 C 0.38888 0.96882 0.4537 0.0
C429 C 0.3708 0.94703 0.43162 0.0
H430 H 0.36091 0.95025 0.42008 0.0
H431 H 0.3656 0.9348 0.4397 0.0
H432 H 0.38458 0.94314 0.42551 0.0
O433 O 0.33256 0.99832 0.41965 0.0
O434 O 0.34268 0.02223 0.43709 0.0
H435 H 0.39803 0.01249 0.46632 0.0
H436 H 0.41231 0.9925 0.4724 0.0
C437 C 0.39784 0.99823 0.47248 0.0
H438 H 0.39308 -0.00082 0.48722 0.0
H439 H 0.37426 0.04585 0.45024 0.0
O440 O 0.32713 0.95311 0.42957 0.0
C441 C 0.336 0.01577 0.42179 0.0
Co442 Co 0.26615 0.08485 0.68368 0.0
Co443 Co 0.23419 0.10144 0.70884 0.0
C444 C 0.25082 0.06512 0.71838 0.0
O445 O 0.26065 0.06666 0.70362 0.0
O446 O 0.24004 0.07835 0.72361 0.0
C447 C 0.30324 0.07753 0.68728 0.0
O448 O 0.29827 0.08366 0.70392 0.0
C449 C 0.21676 0.12091 0.74022 0.0
C450 C 0.19504 0.13787 0.72603 0.0
C451 C 0.20364 0.135 0.74324 0.0
N452 N 0.21613 0.116 0.72205 0.0
N453 N 0.20279 0.12582 0.71374 0.0
C454 C 0.23145 0.11403 0.75358 0.0
H455 H 0.24347 0.1079 0.74583 0.0
H456 H 0.23651 0.12558 0.7627 0.0
H457 H 0.22527 0.103 0.76265 0.0
C458 C 0.28146 0.12285 0.6886 0.0
N459 N 0.26839 0.10973 0.69229 0.0
N460 N 0.25568 0.11678 0.70367 0.0
C461 C 0.26065 0.13465 0.70783 0.0
C462 C 0.27723 0.13884 0.69857 0.0
C463 C 0.29678 0.12099 0.67437 0.0
H464 H 0.2931 0.11034 0.66367 0.0
H465 H 0.30995 0.11693 0.68151 0.0
H466 H 0.29932 0.13465 0.66733 0.0
O467 O 0.24543 0.08325 0.66564 0.0
O468 O 0.22256 0.09298 0.68471 0.0
H469 H 0.23503 0.14828 0.71549 0.0
H470 H 0.25574 0.16207 0.71997 0.0
C471 C 0.24982 0.14768 0.72019 0.0
H472 H 0.25027 0.14247 0.73479 0.0
H473 H 0.19984 0.12519 0.69942 0.0
O474 O 0.29094 0.07644 0.67437 0.0
C475 C 0.22813 0.08653 0.66894 0.0
Co476 Co 0.1652 0.01887 0.9338 0.0
Co477 Co 0.14953 0.9873 0.96032 0.0
C478 C 0.18695 0.00475 0.96714 0.0
O479 O 0.18506 0.01476 0.95251 0.0
O480 O 0.17392 0.99381 0.97262 0.0
C481 C 0.18627 0.05146 0.92265 0.0
O482 O 0.20011 0.04343 0.93178 0.0
C483 C 0.13151 0.97301 0.99412 0.0
C484 C 0.11536 0.94892 0.98322 0.0
C485 C 0.11805 0.95981 -0.0009 0.0
N486 N 0.13597 0.97044 0.976 0.0
N487 N 0.12661 0.95575 0.96968 0.0
C488 C 0.14016 0.98787 0.00621 0.0
H489 H 0.15536 0.98894 0.00317 0.0
H490 H 0.13377 0.00167 0.00297 0.0
H491 H 0.13826 0.98468 0.02132 0.0
C492 C 0.12913 0.03633 0.94349 0.0
N493 N 0.14163 0.02229 0.9453 0.0
N494 N 0.13427 0.00881 0.95552 0.0
C495 C 0.11644 0.01366 0.95992 0.0
C496 C 0.11284 0.03136 0.95269 0.0
C497 C 0.13221 0.05358 0.93196 0.0
H498 H 0.13552 0.04944 0.91733 0.0
H499 H 0.14433 0.06145 0.93773 0.0
H500 H 0.11973 0.06286 0.93184 0.0
O501 O 0.16479 0.99685 0.91692 0.0
O502 O 0.15555 0.97427 0.93649 0.0
H503 H 0.10388 0.98674 0.96467 0.0
H504 H 0.08806 0.00627 0.96776 0.0
C505 C 0.10266 0.00133 0.96985 0.0
H506 H 0.10561 0.00155 0.98508 0.0
H507 H 0.12712 0.95103 0.95583 0.0
O508 O 0.17109 0.04244 0.92024 0.0
C509 C 0.1612 0.97965 0.92039 0.0
Co510 Co 0.22682 0.91167 0.18443 0.0
Co511 Co 0.25923 0.89565 0.20997 0.0
C512 C 0.24343 0.93384 0.21639 0.0
O513 O 0.23261 0.93188 0.20235 0.0
O514 O 0.25415 0.92057 0.22177 0.0
C515 C 0.193 0.93218 0.17603 0.0
O516 O 0.2006 0.94529 0.1865 0.0
C517 C 0.27506 0.87821 0.24352 0.0
C518 C 0.29707 0.86003 0.2315 0.0
C519 C 0.28766 0.864 0.24805 0.0
N520 N 0.27648 0.88181 0.22507 0.0
N521 N 0.28998 0.87123 0.21806 0.0
C522 C 0.26181 0.88835 0.25629 0.0
H523 H 0.26102 0.90334 0.25229 0.0
H524 H 0.24753 0.88234 0.25486 0.0
H525 H 0.26641 0.88734 0.27112 0.0
C526 C 0.20896 0.8763 0.19589 0.0
N527 N 0.22337 0.88847 0.19674 0.0
N528 N 0.23703 0.88106 0.2067 0.0
C529 C 0.23183 0.86357 0.21197 0.0
C530 C 0.2138 0.86023 0.20553 0.0
C531 C 0.19139 0.87939 0.18487 0.0
H532 H 0.19509 0.88233 0.17006 0.0
H533 H 0.18389 0.89171 0.19068 0.0
H534 H 0.18192 0.86705 0.18535 0.0
O535 O 0.24807 0.91037 0.16655 0.0
O536 O 0.27113 0.90079 0.18536 0.0
H537 H 0.25827 0.84978 0.21564 0.0
H538 H 0.23822 0.83538 0.22127 0.0
C539 C 0.24409 0.84978 0.22196 0.0
H540 H 0.24522 0.85378 0.23691 0.0
H541 H 0.2936 0.87088 0.20388 0.0
O542 O 0.20265 0.91777 0.17183 0.0
C543 C 0.2653 0.90638 0.1694 0.0
Co544 Co 0.05668 0.33253 0.01922 0.0
Co545 Co 0.03476 0.34799 0.98419 0.0
C546 C 0.02599 0.31042 0.00062 0.0
O547 O 0.03897 0.31265 0.01261 0.0
O548 O 0.02181 0.32335 0.98898 0.0
C549 C 0.06076 0.31398 0.05472 0.0
O550 O 0.04845 0.3022 0.04772 0.0
C551 C 0.00307 0.36637 0.9665 0.0
C552 C 0.0165 0.38203 0.94338 0.0
C553 C -0.00039 0.37976 0.95277 0.0
N554 N 0.02117 0.3613 0.96545 0.0
N555 N 0.02902 0.3703 0.95128 0.0
C556 C 0.99031 0.36053 0.98213 0.0
H557 H 0.99844 0.35417 0.99378 0.0
H558 H 0.98215 0.37268 0.98742 0.0
H559 H 0.98025 0.34993 0.97676 0.0
C560 C 0.04559 0.36897 0.03466 0.0
N561 N 0.045 0.35615 0.02082 0.0
N562 N 0.03677 0.36347 0.00602 0.0
C563 C 0.03251 0.38158 0.00987 0.0
C564 C 0.03766 0.38542 0.02823 0.0
C565 C 0.05539 0.36616 0.05299 0.0
H566 H 0.07024 0.36237 0.05031 0.0
H567 H 0.04856 0.35448 0.06066 0.0
H568 H 0.05506 0.37892 0.06188 0.0
O569 O 0.0761 0.33249 -0.00045 0.0
O570 O 0.06017 0.34208 0.97443 0.0
H571 H 0.03177 0.39339 0.9822 0.0
H572 H 0.02738 0.41008 0.00072 0.0
C573 C 0.02499 0.39545 0.99602 0.0
H574 H 0.00967 0.39342 0.99453 0.0
H575 H 0.04323 0.36945 0.94787 0.0
O576 O 0.0674 0.32683 0.04429 0.0
C577 C 0.07523 0.33609 0.98203 0.0
Co578 Co 0.55738 0.16208 0.97777 0.0
Co579 Co 0.53576 0.14505 0.01189 0.0
C580 C 0.52648 0.18298 0.99802 0.0
O581 O 0.53963 0.18128 0.98615 0.0
O582 O 0.52203 0.16945 0.00881 0.0
C583 C 0.55186 0.17293 0.94169 0.0
O584 O 0.53474 0.17034 0.94803 0.0
C585 C 0.50515 0.12629 0.03121 0.0
C586 C 0.52022 0.10841 0.05155 0.0
C587 C 0.50256 0.11206 0.04427 0.0
N588 N 0.52348 0.13055 0.03062 0.0
N589 N 0.53237 0.12019 0.04316 0.0
C590 C 0.49104 0.13388 0.01761 0.0
H591 H 0.49816 0.14022 0.00531 0.0
H592 H 0.48136 0.12267 0.01284 0.0
H593 H 0.48261 0.14489 0.02468 0.0
C594 C 0.54783 0.12559 0.96105 0.0
N595 N 0.54666 0.13808 0.97517 0.0
N596 N 0.53734 0.13058 0.98923 0.0
C597 C 0.53227 0.11292 0.98432 0.0
C598 C 0.5385 0.10947 0.96622 0.0
C599 C 0.55952 0.12797 0.94376 0.0
H600 H 0.57199 0.13675 0.94676 0.0
H601 H 0.55094 0.13472 0.93268 0.0
H602 H 0.5643 0.11419 0.93831 0.0
O603 O 0.57755 0.1615 0.99635 0.0
O604 O 0.56154 0.15119 0.02112 0.0
H605 H 0.52937 0.09881 0.01068 0.0
H606 H 0.52237 0.08491 0.99072 0.0
C607 C 0.52242 0.09923 0.9968 0.0
H608 H 0.50767 0.10369 -0.00133 0.0
H609 H 0.54688 0.12027 0.04508 0.0
O610 O 0.56559 0.17067 0.95285 0.0
C611 C 0.57665 0.15735 0.01372 0.0
Co612 Co 0.08177 0.31121 0.22609 0.0
Co613 Co 0.09764 0.28561 0.2582 0.0
C614 C 0.06023 0.27813 0.23996 0.0
O615 O 0.06232 0.29215 0.22916 0.0
O616 O 0.07285 0.27359 0.25182 0.0
C617 C 0.06027 0.32478 0.19489 0.0
O618 O 0.04602 0.31711 0.2037 0.0
C619 C 0.11677 0.25191 0.271 0.0
C620 C 0.13085 0.26161 0.29683 0.0
C621 C 0.12967 0.2465 0.28462 0.0
N622 N 0.11119 0.26953 0.2747 0.0
N623 N 0.11937 0.27513 0.29035 0.0
C624 C 0.10963 0.24076 0.25469 0.0
H625 H 0.09504 0.24491 0.25132 0.0
H626 H 0.11835 0.24369 0.24215 0.0
H627 H 0.11007 0.22551 0.25778 0.0
C628 C 0.1177 0.30146 0.20866 0.0
N629 N 0.10537 0.29994 0.22284 0.0
N630 N 0.11308 0.29064 0.23675 0.0
C631 C 0.13114 0.28691 0.23218 0.0
C632 C 0.1346 0.29358 0.21415 0.0
C633 C 0.11296 0.30944 0.18983 0.0
H634 H 0.09874 0.30478 0.18562 0.0
H635 H 0.12302 0.3048 0.17891 0.0
H636 H 0.11315 0.32497 0.1907 0.0
O637 O 0.08139 0.32777 0.24847 0.0
O638 O 0.09159 0.30918 0.27144 0.0
H639 H 0.1422 0.28382 0.26005 0.0
H640 H 0.15974 0.2845 0.24187 0.0
C641 C 0.1455 0.2794 0.24554 0.0
H642 H 0.14561 0.26387 0.24484 0.0
H643 H 0.11784 0.28851 0.29609 0.0
O644 O 0.07611 0.32549 0.20301 0.0
C645 C 0.08521 0.32487 0.26572 0.0
Co646 Co 0.93319 0.83237 0.47484 0.0
Co647 Co 0.95891 0.84778 0.5074 0.0
C648 C 0.96557 0.81011 0.49032 0.0
O649 O 0.95138 0.8122 0.47974 0.0
O650 O 0.97087 0.8231 0.50138 0.0
C651 C 0.92454 0.81263 0.44068 0.0
O652 O 0.93492 0.79928 0.44797 0.0
C653 C 0.99281 0.86519 0.52205 0.0
C654 C 0.98195 0.88207 0.54563 0.0
C655 C 0.9979 0.8789 0.53496 0.0
N656 N 0.97458 0.8611 0.52452 0.0
N657 N 0.96828 0.87087 0.53895 0.0
C658 C 0.00485 0.85608 0.50744 0.0
H659 H 0.00178 0.84086 0.50686 0.0
H660 H 0.00157 0.86205 0.49346 0.0
H661 H 0.01998 0.85803 0.51053 0.0
C662 C 0.94392 0.86835 0.45787 0.0
N663 N 0.94513 0.8558 0.47192 0.0
N664 N 0.95503 0.86303 0.48571 0.0
C665 C 0.95984 0.88079 0.48101 0.0
C666 C 0.9532 0.8845 0.46312 0.0
C667 C 0.93284 0.86549 0.4403 0.0
H668 H 0.91814 0.86204 0.44404 0.0
H669 H 0.93893 0.85358 0.43238 0.0
H670 H 0.93282 0.87813 0.43123 0.0
O671 O 0.91563 0.83309 0.49633 0.0
O672 O 0.93446 0.84228 0.51957 0.0
H673 H 0.96417 0.89332 0.50799 0.0
H674 H 0.96811 0.90903 0.48855 0.0
C675 C 0.96975 0.89439 0.49355 0.0
H676 H 0.98492 0.89113 0.49369 0.0
H677 H 0.95436 0.87075 0.5435 0.0
O678 O 0.92037 0.8268 0.45068 0.0
C679 C 0.91849 0.83678 0.51362 0.0
Co680 Co 0.91083 0.18702 0.22604 0.0
Co681 Co 0.89492 0.21109 0.25924 0.0
C682 C 0.93071 0.22145 0.24132 0.0
O683 O 0.92886 0.20733 0.23065 0.0
O684 O 0.91821 0.22555 0.25338 0.0
C685 C 0.91657 0.19028 0.18844 0.0
O686 O 0.91047 0.20698 0.1933 0.0
C687 C 0.87631 0.24244 0.27758 0.0
C688 C 0.86012 0.22827 0.29989 0.0
C689 C 0.8629 0.24552 0.29135 0.0
N690 N 0.88099 0.2242 0.27783 0.0
N691 N 0.87162 0.21588 0.29149 0.0
C692 C 0.88269 0.25586 0.26273 0.0
H693 H 0.88828 0.24815 0.25043 0.0
H694 H 0.87099 0.2651 0.25823 0.0
H695 H 0.89401 0.26482 0.26853 0.0
C696 C 0.87226 0.19164 0.21227 0.0
N697 N 0.88585 0.19549 0.22479 0.0
N698 N 0.8791 0.2065 0.23798 0.0
C699 C 0.86092 0.21026 0.2339 0.0
C700 C 0.85625 0.20117 0.21736 0.0
C701 C 0.87364 0.17731 0.19699 0.0
H702 H 0.88458 0.16677 0.20026 0.0
H703 H 0.87701 0.18442 0.1836 0.0
H704 H 0.85999 0.17005 0.19509 0.0
O705 O 0.91323 0.16872 0.24663 0.0
O706 O 0.90301 0.18669 0.27013 0.0
H707 H 0.84799 0.21628 0.2603 0.0
H708 H 0.83341 0.22145 0.24027 0.0
C709 C 0.84797 0.22173 0.24576 0.0
H710 H 0.85285 0.23647 0.24592 0.0
H711 H 0.87222 0.20152 0.2943 0.0
O712 O 0.9183 0.17766 0.20096 0.0
C713 C 0.90971 0.17125 0.26401 0.0
Co714 Co 0.43699 0.66135 0.51987 0.0
Co715 Co 0.46078 0.64642 0.48574 0.0
C716 C 0.468 0.68413 0.50173 0.0
O717 O 0.45453 0.68151 0.51309 0.0
O718 O 0.47306 0.67131 0.49034 0.0
C719 C 0.43757 0.67606 0.55645 0.0
O720 O 0.45403 0.6817 0.55042 0.0
C721 C 0.4929 0.62864 0.46794 0.0
C722 C 0.4795 0.61217 0.44538 0.0
C723 C 0.49648 0.61508 0.45443 0.0
N724 N 0.47464 0.63318 0.46714 0.0
N725 N 0.4668 0.6237 0.45328 0.0
C726 C 0.50582 0.63522 0.48315 0.0
H727 H 0.49772 0.64143 0.49491 0.0
H728 H 0.51459 0.62349 0.48841 0.0
H729 H 0.51531 0.64611 0.47736 0.0
C730 C 0.44808 0.62498 0.53564 0.0
N731 N 0.44908 0.63792 0.52192 0.0
N732 N 0.4586 0.63104 0.50769 0.0
C733 C 0.46354 0.61316 0.51188 0.0
C734 C 0.45733 0.60902 0.52983 0.0
C735 C 0.43673 0.62703 0.55316 0.0
H736 H 0.4227 0.63275 0.54967 0.0
H737 H 0.44399 0.6369 0.56273 0.0
H738 H 0.4349 0.61346 0.56055 0.0
O739 O 0.41768 0.6606 0.49983 0.0
O740 O 0.43545 0.6518 0.47565 0.0
H741 H 0.46625 0.60085 0.48458 0.0
H742 H 0.47142 0.58501 0.50363 0.0
C743 C 0.47271 0.5997 0.49865 0.0
H744 H 0.48783 0.60302 0.49761 0.0
H745 H 0.45252 0.6241 0.4501 0.0
O746 O 0.42663 0.66765 0.54511 0.0
C747 C 0.41973 0.65707 0.48238 0.0
Co748 Co 0.08334 0.6847 0.2682 0.0
Co749 Co 0.09841 0.71025 0.23555 0.0
C750 C 0.06158 0.71797 0.25337 0.0
O751 O 0.06362 0.70352 0.26363 0.0
O752 O 0.07445 0.72325 0.24213 0.0
C753 C 0.06335 0.67592 0.30222 0.0
O754 O 0.04977 0.68581 0.29466 0.0
C755 C 0.11623 0.743 0.21883 0.0
C756 C 0.13219 0.73035 0.19548 0.0
C757 C 0.12948 0.74701 0.20513 0.0
N758 N 0.11164 0.72478 0.2175 0.0
N759 N 0.12083 0.7174 0.20321 0.0
C760 C 0.10994 0.75544 0.23454 0.0
H761 H 0.1043 0.74696 0.24631 0.0
H762 H 0.12168 0.76432 0.2396 0.0
H763 H 0.09867 0.76483 0.22935 0.0
C764 C 0.11992 0.69451 0.28442 0.0
N765 N 0.10717 0.69594 0.27058 0.0
N766 N 0.11418 0.70606 0.25683 0.0
C767 C 0.13197 0.71091 0.2614 0.0
C768 C 0.13596 0.70396 0.27912 0.0
C769 C 0.11722 0.68332 0.30195 0.0
H770 H 0.11316 0.66878 0.2982 0.0
H771 H 0.10576 0.6897 0.31031 0.0
H772 H 0.13013 0.6828 0.31063 0.0
O773 O 0.08298 0.66695 0.24693 0.0
O774 O 0.09163 0.686 0.2237 0.0
H775 H 0.14421 0.71631 0.23447 0.0
H776 H 0.15988 0.72024 0.25395 0.0
C777 C 0.14518 0.72156 0.24905 0.0
H778 H 0.14141 0.73662 0.24929 0.0
H779 H 0.1203 0.70324 0.19953 0.0
O780 O 0.07782 0.67221 0.29249 0.0
C781 C 0.08604 0.67005 0.22957 0.0
Co782 Co 0.41167 0.31147 0.77096 0.0
Co783 Co 0.39567 0.28669 0.738 0.0
C784 C 0.43347 0.27929 0.75425 0.0
O785 O 0.43158 0.2932 0.76525 0.0
O786 O 0.42027 0.27429 0.74328 0.0
C787 C 0.43277 0.32017 0.80443 0.0
O788 O 0.44638 0.31096 0.7961 0.0
C789 C 0.37768 0.25391 0.72129 0.0
C790 C 0.3604 0.26677 0.69902 0.0
C791 C 0.36367 0.24997 0.70828 0.0
N792 N 0.38182 0.27226 0.72024 0.0
N793 N 0.3718 0.27978 0.70658 0.0
C794 C 0.3871 0.24066 0.7346 0.0
H795 H 0.40217 0.24423 0.73585 0.0
H796 H 0.38077 0.24204 0.74874 0.0
H797 H 0.3858 0.22593 0.72976 0.0
C798 C 0.37563 0.30085 0.78795 0.0
N799 N 0.38812 0.29969 0.77384 0.0
N800 N 0.38074 0.29006 0.75994 0.0
C801 C 0.36296 0.28534 0.76466 0.0
C802 C 0.35937 0.29179 0.78263 0.0
C803 C 0.37865 0.3117 0.80562 0.0
H804 H 0.38218 0.32643 0.80206 0.0
H805 H 0.3906 0.30546 0.81339 0.0
H806 H 0.36607 0.3116 0.81478 0.0
O807 O 0.41116 0.32969 0.74995 0.0
O808 O 0.40156 0.31128 0.72658 0.0
H809 H 0.34965 0.28241 0.73787 0.0
H810 H 0.33467 0.27688 0.75752 0.0
C811 C 0.34917 0.2759 0.75196 0.0
H812 H 0.3528 0.26086 0.75069 0.0
H813 H 0.37194 0.29402 0.70317 0.0
O814 O 0.41775 0.32348 0.7954 0.0
C815 C 0.40739 0.32707 0.73264 0.0
Co816 Co 0.51429 0.56181 0.83235 0.0
Co817 Co 0.48361 0.53471 0.84849 0.0
C818 C 0.49839 0.52858 0.81064 0.0
O819 O 0.50798 0.54345 0.81263 0.0
O820 O 0.48865 0.52208 0.82411 0.0
C821 C 0.55051 0.55849 0.82298 0.0
O822 O 0.54447 0.54133 0.82592 0.0
C823 C 0.46803 0.50127 0.86614 0.0
C824 C 0.44746 0.51336 0.88587 0.0
C825 C 0.45631 0.49673 0.88105 0.0
N826 N 0.46672 0.51979 0.86292 0.0
N827 N 0.45402 0.52686 0.87441 0.0
C828 C 0.48034 0.48839 0.85498 0.0
H829 H 0.47821 0.49109 0.83982 0.0
H830 H 0.49528 0.49131 0.85815 0.0
H831 H 0.47712 0.47344 0.85784 0.0
C832 C 0.53123 0.55456 0.86925 0.0
N833 N 0.51785 0.55125 0.85633 0.0
N834 N 0.50578 0.53899 0.86299 0.0
C835 C 0.51156 0.53372 0.88031 0.0
C836 C 0.52786 0.54337 0.88462 0.0
C837 C 0.54645 0.56894 0.8675 0.0
H838 H 0.54187 0.58066 0.85837 0.0
H839 H 0.55912 0.56226 0.86144 0.0
H840 H 0.55036 0.57462 0.88145 0.0
O841 O 0.49328 0.57955 0.83333 0.0
O842 O 0.47123 0.55928 0.84258 0.0
H843 H 0.48661 0.52591 0.895 0.0
H844 H 0.50797 0.52012 0.90721 0.0
C845 C 0.50118 0.52087 0.89322 0.0
H846 H 0.50086 0.5066 0.88714 0.0
H847 H 0.45073 0.5411 0.87524 0.0
O848 O 0.53888 0.57199 0.82426 0.0
C849 C 0.47622 0.57564 0.83716 0.0
Co850 Co 0.68907 0.2664 0.08473 0.0
Co851 Co 0.71046 0.23164 0.10099 0.0
C852 C 0.72233 0.2489 0.06505 0.0
O853 O 0.70908 0.26063 0.06686 0.0
O854 O 0.72533 0.23639 0.07748 0.0
C855 C 0.69356 0.30342 0.07644 0.0
O856 O 0.71073 0.2978 0.08008 0.0
C857 C 0.74053 0.21165 0.12 0.0
C858 C 0.72484 0.19118 0.13718 0.0
C859 C 0.74263 0.19838 0.13407 0.0
N860 N 0.72233 0.21244 0.11523 0.0
N861 N 0.71309 0.19981 0.12516 0.0
C862 C 0.75495 0.22533 0.11315 0.0
H863 H 0.74811 0.23794 0.10711 0.0
H864 H 0.76448 0.22958 0.1247 0.0
H865 H 0.76351 0.21852 0.10209 0.0
C866 C 0.69594 0.28106 0.12267 0.0
N867 N 0.69788 0.26761 0.10955 0.0
N868 N 0.70747 0.25348 0.11659 0.0
C869 C 0.71201 0.25773 0.13456 0.0
C870 C 0.70506 0.27541 0.13873 0.0
C871 C 0.68422 0.29838 0.12065 0.0
H872 H 0.67223 0.29579 0.11113 0.0
H873 H 0.69302 0.30989 0.11499 0.0
H874 H 0.67875 0.30299 0.13448 0.0
O875 O 0.66981 0.24689 0.08224 0.0
O876 O 0.68541 0.22208 0.09309 0.0
H877 H 0.71593 0.23111 0.14787 0.0
H878 H 0.72254 0.25087 0.1622 0.0
C879 C 0.72247 0.24519 0.14772 0.0
H880 H 0.73718 0.24387 0.14296 0.0
H881 H 0.69856 0.19803 0.1247 0.0
O882 O 0.68028 0.29152 0.07716 0.0
C883 C 0.67072 0.2294 0.08593 0.0
Co884 Co 0.97661 0.43767 0.33179 0.0
Co885 Co 0.01081 0.46146 0.34667 0.0
C886 C 0.99465 0.46891 0.30914 0.0
O887 O 0.98332 0.4554 0.31173 0.0
O888 O 0.00611 0.47391 0.32192 0.0
C889 C 0.93993 0.43824 0.31708 0.0
O890 O 0.94601 0.45456 0.31109 0.0
C891 C 0.02929 0.49333 0.36434 0.0
C892 C 0.05152 0.47946 0.38087 0.0
C893 C 0.04291 0.49665 0.37788 0.0
N894 N 0.02963 0.47502 0.35991 0.0
N895 N 0.04329 0.4669 0.36944 0.0
C896 C 0.01446 0.5066 0.35758 0.0
H897 H 0.00245 0.49877 0.35152 0.0
H898 H 0.00948 0.51571 0.36918 0.0
H899 H 0.02051 0.51574 0.34654 0.0
C900 C 0.96097 0.44874 0.3682 0.0
N901 N 0.97473 0.4496 0.35531 0.0
N902 N 0.9889 0.4593 0.36211 0.0
C903 C 0.98457 0.46457 0.37985 0.0
C904 C 0.96662 0.45832 0.38401 0.0
C905 C 0.94342 0.43741 0.36619 0.0
H906 H 0.94686 0.42343 0.36034 0.0
H907 H 0.93377 0.4448 0.3565 0.0
H908 H 0.93618 0.43545 0.37982 0.0
O909 O 0.99659 0.41833 0.33232 0.0
O910 O 0.02077 0.43613 0.34106 0.0
H911 H 0.01169 0.46821 0.39232 0.0
H912 H 0.9924 0.47374 0.40772 0.0
C913 C 0.99751 0.4745 0.39306 0.0
H914 H 0.99837 0.48948 0.3891 0.0
H915 H 0.04613 0.45254 0.36911 0.0
O916 O 0.95128 0.4274 0.32561 0.0
C917 C 0.01405 0.42041 0.33576 0.0
Co918 Co 0.8094 0.72733 0.58369 0.0
Co919 Co 0.78402 0.75987 0.59917 0.0
C920 C 0.77502 0.74144 0.5631 0.0
O921 O 0.78951 0.7313 0.56503 0.0
O922 O 0.77034 0.75323 0.57564 0.0
C923 C 0.80657 0.69033 0.57687 0.0
O924 O 0.78941 0.69593 0.58065 0.0
C925 C 0.75083 0.77512 0.61701 0.0
C926 C 0.76183 0.7994 0.63278 0.0
C927 C 0.74584 0.78865 0.63009 0.0
N928 N 0.76901 0.77742 0.61265 0.0
N929 N 0.77543 0.79222 0.62179 0.0
C930 C 0.73869 0.76017 0.60859 0.0
H931 H 0.74477 0.74615 0.61151 0.0
H932 H 0.72405 0.76088 0.61375 0.0
H933 H 0.73853 0.76193 0.59313 0.0
C934 C 0.80371 0.71282 0.62189 0.0
N935 N 0.80032 0.72565 0.60844 0.0
N936 N 0.78925 0.73881 0.61516 0.0
C937 C 0.78523 0.73455 0.63324 0.0
C938 C 0.79404 0.71783 0.63783 0.0
C939 C 0.81735 0.69692 0.62037 0.0
H940 H 0.82888 0.70051 0.61058 0.0
H941 H 0.80991 0.68424 0.6153 0.0
H942 H 0.82344 0.69354 0.6343 0.0
O943 O 0.8269 0.7487 0.58179 0.0
O944 O 0.80812 0.77189 0.59145 0.0
H945 H 0.77805 0.76111 0.64529 0.0
H946 H 0.77477 0.74146 0.66089 0.0
C947 C 0.77359 0.74626 0.64615 0.0
H948 H 0.75871 0.74519 0.64192 0.0
H949 H 0.78933 0.79678 0.6213 0.0
O950 O 0.81969 0.70246 0.57674 0.0
C951 C 0.82383 0.76606 0.58506 0.0
Co952 Co 0.51664 0.43566 0.66161 0.0
Co953 Co 0.48397 0.46021 0.64543 0.0
C954 C 0.49997 0.46899 0.68238 0.0
O955 O 0.51035 0.45463 0.68064 0.0
O956 O 0.48926 0.47425 0.66908 0.0
C957 C 0.55336 0.43968 0.67031 0.0
O958 O 0.54744 0.45685 0.6672 0.0
C959 C 0.46628 0.4918 0.62668 0.0
C960 C 0.44453 0.47788 0.60954 0.0
C961 C 0.45312 0.49504 0.61269 0.0
N962 N 0.46568 0.47355 0.63129 0.0
N963 N 0.45231 0.46539 0.62138 0.0
C964 C 0.48103 0.50504 0.63364 0.0
H965 H 0.49305 0.49718 0.63965 0.0
H966 H 0.48607 0.51428 0.62217 0.0
H967 H 0.47491 0.51403 0.64477 0.0
C968 C 0.53253 0.44305 0.62419 0.0
N969 N 0.51906 0.4456 0.6372 0.0
N970 N 0.5057 0.45624 0.63017 0.0
C971 C 0.51044 0.4608 0.61233 0.0
C972 C 0.52767 0.45283 0.60826 0.0
C973 C 0.54886 0.42997 0.62603 0.0
H974 H 0.54533 0.41808 0.6354 0.0
H975 H 0.56102 0.43775 0.63182 0.0
H976 H 0.55305 0.42436 0.61213 0.0
O977 O 0.4963 0.41697 0.66232 0.0
O978 O 0.47296 0.43565 0.65303 0.0
H979 H 0.48406 0.4662 0.59902 0.0
H980 H 0.50416 0.47129 0.58454 0.0
C981 C 0.49853 0.47182 0.59903 0.0
H982 H 0.4982 0.48667 0.60352 0.0
H983 H 0.4494 0.45104 0.62177 0.0
O984 O 0.5416 0.42627 0.66938 0.0
C985 C 0.47892 0.41988 0.6591 0.0
Co986 Co 0.81119 0.26798 0.9129 0.0
Co987 Co 0.78518 0.23581 0.89736 0.0
C988 C 0.77912 0.25251 0.93549 0.0
O989 O 0.793 0.26345 0.93312 0.0
O990 O 0.77397 0.24118 0.92264 0.0
C991 C 0.82258 0.3007 0.93379 0.0
O992 O 0.81398 0.29257 0.9479 0.0
C993 C 0.75115 0.22225 0.87925 0.0
C994 C 0.76042 0.19572 0.86622 0.0
C995 C 0.74531 0.20788 0.8675 0.0
N996 N 0.76897 0.21893 0.88437 0.0
N997 N 0.77435 0.20288 0.8768 0.0
C998 C 0.73998 0.23872 0.88598 0.0
H999 H 0.74931 0.24944 0.89233 0.0
H1000 H 0.73172 0.24509 0.87448 0.0
H1001 H 0.72989 0.23384 0.89679 0.0
C1002 C 0.80022 0.28574 0.87744 0.0
N1003 N 0.79904 0.27146 0.88974 0.0
N1004 N 0.78907 0.25779 0.88236 0.0
C1005 C 0.78433 0.26278 0.86466 0.0
C1006 C 0.79093 0.28075 0.86122 0.0
C1007 C 0.81128 0.30328 0.88061 0.0
H1008 H 0.82613 0.29952 0.8833 0.0
H1009 H 0.80567 0.31065 0.8931 0.0
H1010 H 0.81072 0.31288 0.86838 0.0
O1011 O 0.82842 0.24617 0.91167 0.0
O1012 O 0.80952 0.22326 0.90185 0.0
H1013 H 0.77852 0.23567 0.85286 0.0
H1014 H 0.77743 0.25475 0.83626 0.0
C1015 C 0.77437 0.2505 0.8509 0.0
H1016 H 0.7591 0.25199 0.85313 0.0
H1017 H 0.78778 0.19722 0.8782 0.0
O1018 O 0.82466 0.29168 0.91857 0.0
C1019 C 0.82553 0.22901 0.90739 0.0
Co1020 Co 0.97951 0.55771 0.15873 0.0
Co1021 Co 0.01327 0.53463 0.1426 0.0
C1022 C 0.99648 0.52448 0.17909 0.0
O1023 O 0.98529 0.53819 0.17725 0.0
O1024 O 0.00834 0.52052 0.16636 0.0
C1025 C 0.94275 0.55334 0.16722 0.0
O1026 O 0.94866 0.53625 0.16362 0.0
C1027 C 0.03093 0.50312 0.12404 0.0
C1028 C 0.05324 0.51669 0.10736 0.0
C1029 C 0.04432 0.49966 0.11034 0.0
N1030 N 0.03173 0.52135 0.12867 0.0
N1031 N 0.04541 0.52932 0.11903 0.0
C1032 C 0.01576 0.49017 0.13067 0.0
H1033 H 0.00381 0.49825 0.13648 0.0
H1034 H 0.01073 0.48109 0.11907 0.0
H1035 H 0.02148 0.481 0.14187 0.0
C1036 C 0.96422 0.55045 0.12107 0.0
N1037 N 0.97765 0.54818 0.13417 0.0
N1038 N 0.99146 0.53814 0.12713 0.0
C1039 C 0.98706 0.53373 0.10916 0.0
C1040 C 0.96957 0.54112 0.10504 0.0
C1041 C 0.94735 0.56282 0.12299 0.0
H1042 H 0.95039 0.57478 0.13242 0.0
H1043 H 0.93553 0.5545 0.12874 0.0
H1044 H 0.9429 0.56834 0.10913 0.0
O1045 O -0.00038 0.57668 0.16012 0.0
O1046 O 0.02372 0.55942 0.15005 0.0
H1047 H 0.0139 0.52936 0.0964 0.0
H1048 H 0.99429 0.52467 0.08112 0.0
C1049 C -0.00047 0.52353 0.09573 0.0
H1050 H -3e-05 0.50848 0.09953 0.0
H1051 H 0.04855 0.54361 0.11949 0.0
O1052 O 0.95445 0.5668 0.16644 0.0
C1053 C 0.01707 0.57472 0.15656 0.0
Co1054 Co 0.68396 0.72495 0.41268 0.0
Co1055 Co 0.70958 0.75737 0.39725 0.0
C1056 C 0.7175 0.73864 0.43405 0.0
O1057 O 0.70337 0.72797 0.432 0.0
O1058 O 0.72198 0.75058 0.42152 0.0
C1059 C 0.67206 0.69255 0.43362 0.0
O1060 O 0.68019 0.70093 0.44787 0.0
C1061 C 0.74316 0.77103 0.37862 0.0
C1062 C 0.73426 0.79847 0.36731 0.0
C1063 C 0.74906 0.78588 0.36756 0.0
N1064 N 0.72558 0.7745 0.3844 0.0
N1065 N 0.72041 0.79107 0.37785 0.0
C1066 C 0.75404 0.75386 0.3839 0.0
H1067 H 0.74454 0.74282 0.38941 0.0
H1068 H 0.7621 0.74836 0.37182 0.0
H1069 H 0.76426 0.75764 0.39501 0.0
C1070 C 0.69281 0.70859 0.37601 0.0
N1071 N 0.69464 0.72242 0.38872 0.0
N1072 N 0.7045 0.73622 0.38144 0.0
C1073 C 0.70858 0.73176 0.36344 0.0
C1074 C 0.7016 0.71401 0.35965 0.0
C1075 C 0.68193 0.69094 0.37913 0.0
H1076 H 0.66726 0.69458 0.3828 0.0
H1077 H 0.68822 0.6831 0.39101 0.0
H1078 H 0.68177 0.68183 0.36652 0.0
O1079 O 0.66717 0.74706 0.41359 0.0
O1080 O 0.68584 0.77018 0.40376 0.0
H1081 H 0.71514 0.7591 0.35255 0.0
H1082 H 0.71483 0.74069 0.33519 0.0
C1083 C 0.71859 0.7442 0.34986 0.0
H1084 H 0.73387 0.742 0.35144 0.0
H1085 H 0.70719 0.79698 0.37997 0.0
O1086 O 0.67047 0.7013 0.41818 0.0
C1087 C 0.67012 0.76436 0.41001 0.0
Co1088 Co 0.83321 0.51535 0.56141 0.0
Co1089 Co 0.84909 0.48444 0.53448 0.0
C1090 C 0.81123 0.49952 0.52835 0.0
O1091 O 0.8133 0.50929 0.5431 0.0
O1092 O 0.8246 0.48953 0.52203 0.0
C1093 C 0.82387 0.55176 0.55873 0.0
O1094 O 0.82643 0.54607 0.54139 0.0
C1095 C 0.86652 0.46892 0.50098 0.0
C1096 C 0.88638 0.44838 0.51293 0.0
C1097 C 0.88151 0.45734 0.49636 0.0
N1098 N 0.86332 0.46748 0.51948 0.0
N1099 N 0.87487 0.45477 0.52647 0.0
C1100 C 0.85531 0.48131 0.48821 0.0
H1101 H 0.84016 0.47911 0.4909 0.0
H1102 H 0.85844 0.49624 0.49125 0.0
H1103 H 0.85817 0.47823 0.47324 0.0
C1104 C 0.87014 0.5322 0.5538 0.0
N1105 N 0.85714 0.51882 0.5507 0.0
N1106 N 0.86369 0.50662 0.5385 0.0
C1107 C 0.88098 0.51231 0.53306 0.0
C1108 C 0.88542 0.52868 0.54251 0.0
C1109 C 0.86851 0.54759 0.568 0.0
H1110 H 0.85953 0.54313 0.57987 0.0
H1111 H 0.86235 0.56016 0.56123 0.0
H1112 H 0.8825 0.55162 0.5735 0.0
O1113 O 0.83424 0.49437 0.57917 0.0
O1114 O 0.84346 0.47213 0.55912 0.0
H1115 H 0.9079 0.50836 0.51958 0.0
H1116 H 0.88779 0.5015 0.50603 0.0
C1117 C 0.89382 0.50174 0.5203 0.0
H1118 H 0.89542 0.48717 0.5254 0.0
H1119 H 0.87575 0.45141 0.54069 0.0
O1120 O 0.82538 0.53984 0.57194 0.0
C1121 C 0.83813 0.47728 0.57545 0.0
Co1122 Co 0.72615 0.58225 0.80965 0.0
Co1123 Co 0.75863 0.59873 0.78494 0.0
C1124 C 0.74286 0.56164 0.77624 0.0
O1125 O 0.7325 0.56326 0.79063 0.0
O1126 O 0.75346 0.57502 0.771 0.0
C1127 C 0.68953 0.57364 0.80551 0.0
O1128 O 0.69558 0.57688 0.78841 0.0
C1129 C 0.77656 0.61709 0.75311 0.0
C1130 C 0.79623 0.63652 0.76708 0.0
C1131 C 0.7885 0.63215 0.74978 0.0
N1132 N 0.77662 0.61338 0.77158 0.0
N1133 N 0.78881 0.62466 0.77979 0.0
C1134 C 0.76506 0.60636 0.73917 0.0
H1135 H 0.76674 0.59112 0.74172 0.0
H1136 H 0.75 0.60978 0.74103 0.0
H1137 H 0.76942 0.60942 0.72456 0.0
C1138 C 0.71005 0.61961 0.8025 0.0
N1139 N 0.72355 0.60667 0.7998 0.0
N1140 N 0.73667 0.6137 0.78889 0.0
C1141 C 0.73167 0.63141 0.78416 0.0
C1142 C 0.71457 0.63549 0.79246 0.0
C1143 C 0.69408 0.61779 0.81603 0.0
H1144 H 0.69786 0.60831 0.82774 0.0
H1145 H 0.68165 0.61217 0.80855 0.0
H1146 H 0.69017 0.6317 0.82184 0.0
O1147 O 0.74652 0.58171 0.82826 0.0
O1148 O 0.76976 0.59124 0.80955 0.0
H1149 H 0.75712 0.64629 0.77867 0.0
H1150 H 0.73629 0.65841 0.77096 0.0
C1151 C 0.74306 0.64446 0.77233 0.0
H1152 H 0.7447 0.63842 0.75815 0.0
H1153 H 0.79113 0.62513 0.79423 0.0
O1154 O 0.70121 0.57439 0.819 0.0
C1155 C 0.76386 0.58511 0.82533 0.0
Co1156 Co 0.66243 0.47755 0.05852 0.0
Co1157 Co 0.64673 0.50995 0.03327 0.0
C1158 C 0.68374 0.49289 0.02519 0.0
O1159 O 0.68163 0.48253 0.03948 0.0
O1160 O 0.67094 0.50428 0.02017 0.0
C1161 C 0.67146 0.441 0.05588 0.0
O1162 O 0.66817 0.44638 0.03856 0.0
C1163 C 0.62871 0.525 5e-05 0.0
C1164 C 0.61308 0.54939 0.01103 0.0
C1165 C 0.61565 0.53856 0.99509 0.0
N1166 N 0.63316 0.52735 0.0182 0.0
N1167 N 0.62411 0.5422 0.0246 0.0
C1168 C 0.63702 0.50999 0.98792 0.0
H1169 H 0.63277 0.49598 0.99319 0.0
H1170 H 0.63283 0.51158 0.97303 0.0
H1171 H 0.65253 0.5107 0.98882 0.0
C1172 C 0.62503 0.46159 0.05107 0.0
N1173 N 0.63816 0.47492 0.04834 0.0
N1174 N 0.63119 0.48833 0.03772 0.0
C1175 C 0.61317 0.48386 0.03356 0.0
C1176 C 0.60899 0.46664 0.04156 0.0
C1177 C 0.62687 0.44529 0.0642 0.0
H1178 H 0.63594 0.449 0.07626 0.0
H1179 H 0.63306 0.43324 0.05657 0.0
H1180 H 0.61294 0.44084 0.06957 0.0
O1181 O 0.66293 0.49867 0.07641 0.0
O1182 O 0.65335 0.5219 0.05768 0.0
H1183 H 0.60104 0.51084 0.02815 0.0
H1184 H 0.58502 0.49147 0.02514 0.0
C1185 C 0.59972 0.49618 0.0232 0.0
H1186 H 0.60294 0.49564 0.00805 0.0
H1187 H 0.6247 0.54683 0.03848 0.0
O1188 O 0.67015 0.45305 0.06899 0.0
C1189 C 0.65935 0.516 0.07351 0.0
Co1190 Co 0.7676 0.4118 0.31265 0.0
Co1191 Co 0.73549 0.39601 0.28678 0.0
C1192 C 0.75268 0.43366 0.27982 0.0
O1193 O 0.76317 0.43179 0.29412 0.0
O1194 O 0.74166 0.42056 0.27461 0.0
C1195 C 0.79942 0.4335 0.32534 0.0
O1196 O 0.79041 0.44786 0.31811 0.0
C1197 C 0.7211 0.37767 0.25326 0.0
C1198 C 0.69755 0.361 0.26455 0.0
C1199 C 0.70832 0.36368 0.24857 0.0
N1200 N 0.71848 0.38235 0.27131 0.0
N1201 N 0.70407 0.37271 0.27786 0.0
C1202 C 0.73573 0.38652 0.24103 0.0
H1203 H 0.7367 0.40172 0.24412 0.0
H1204 H 0.74962 0.38023 0.24409 0.0
H1205 H 0.73236 0.38463 0.22596 0.0
C1206 C 0.78497 0.37585 0.30244 0.0
N1207 N 0.77082 0.38827 0.30103 0.0
N1208 N 0.75711 0.38082 0.29119 0.0
C1209 C 0.76193 0.363 0.2867 0.0
C1210 C 0.77983 0.35953 0.29342 0.0
C1211 C 0.80259 0.37908 0.31333 0.0
H1212 H 0.79894 0.38208 0.32815 0.0
H1213 H 0.81 0.39142 0.30743 0.0
H1214 H 0.81209 0.36676 0.3129 0.0
O1215 O 0.74579 0.41146 0.32986 0.0
O1216 O 0.72288 0.40198 0.31079 0.0
H1217 H 0.73495 0.35035 0.28264 0.0
H1218 H 0.75442 0.33451 0.27946 0.0
C1219 C 0.74943 0.34907 0.27721 0.0
H1220 H 0.74941 0.35176 0.26193 0.0
H1221 H 0.69945 0.37324 0.29173 0.0
O1222 O 0.79136 0.41762 0.32593 0.0
C1223 C 0.72854 0.4078 0.32673 0.0
Co1224 Co 0.83452 0.47538 0.93571 0.0
Co1225 Co 0.85007 0.50938 0.95918 0.0
C1226 C 0.81346 0.49129 0.96871 0.0
O1227 O 0.81549 0.47987 0.95516 0.0
O1228 O 0.82597 0.50352 0.9725 0.0
C1229 C 0.8145 0.44118 0.92751 0.0
O1230 O 0.80075 0.44899 0.93693 0.0
C1231 C 0.86888 0.52687 0.99094 0.0
C1232 C 0.88433 0.55 0.97727 0.0
C1233 C 0.88227 0.54063 0.99418 0.0
N1234 N 0.86357 0.52789 0.97289 0.0
N1235 N 0.87246 0.54207 0.96492 0.0
C1236 C 0.86316 0.51133 0.00385 0.0
H1237 H 0.85699 0.4995 0.99582 0.0
H1238 H 0.87532 0.50629 0.01215 0.0
H1239 H 0.85245 0.5167 0.01378 0.0
C1240 C 0.87134 0.45972 0.94535 0.0
N1241 N 0.85859 0.4736 0.94642 0.0
N1242 N 0.86582 0.48789 0.95559 0.0
C1243 C 0.88381 0.48366 0.96003 0.0
C1244 C 0.88765 0.46559 0.95395 0.0
C1245 C 0.86837 0.44158 0.93526 0.0
H1246 H 0.86463 0.44453 0.92045 0.0
H1247 H 0.85659 0.43391 0.94193 0.0
H1248 H 0.88106 0.43257 0.93551 0.0
O1249 O 0.83318 0.49628 0.91735 0.0
O1250 O 0.84305 0.52031 0.93471 0.0
H1251 H 0.89586 0.51104 0.9632 0.0
H1252 H 0.91215 0.49201 0.96688 0.0
C1253 C 0.89749 0.49675 0.96906 0.0
H1254 H 0.89486 0.49718 0.98435 0.0
H1255 H 0.87141 0.54548 0.95073 0.0
O1256 O 0.82908 0.45077 0.92387 0.0
C1257 C 0.83662 0.51374 0.91938 0.0
Co1258 Co 0.76819 0.58176 0.1841 0.0
Co1259 Co 0.73616 0.59814 0.20935 0.0
C1260 C 0.75143 0.56052 0.21701 0.0
O1261 O 0.76168 0.56226 0.20256 0.0
O1262 O 0.74109 0.57396 0.2226 0.0
C1263 C 0.80451 0.57166 0.18741 0.0
O1264 O 0.79881 0.5744 0.20472 0.0
C1265 C 0.71913 0.61577 0.24203 0.0
C1266 C 0.69869 0.63515 0.22912 0.0
C1267 C 0.70698 0.63046 0.24608 0.0
N1268 N 0.71859 0.61251 0.22348 0.0
N1269 N 0.70598 0.62379 0.21591 0.0
C1270 C 0.73118 0.60489 0.25538 0.0
H1271 H 0.72918 0.58967 0.25289 0.0
H1272 H 0.74618 0.60809 0.25275 0.0
H1273 H 0.72761 0.60795 0.2702 0.0
C1274 C 0.78533 0.61846 0.19265 0.0
N1275 N 0.77146 0.60578 0.19478 0.0
N1276 N 0.75837 0.61283 0.20572 0.0
C1277 C 0.76369 0.63031 0.21095 0.0
C1278 C 0.78102 0.6342 0.20302 0.0
C1279 C 0.80157 0.61653 0.17948 0.0
H1280 H 0.79768 0.60776 0.16726 0.0
H1281 H 0.81351 0.61 0.187 0.0
H1282 H 0.80626 0.63049 0.17439 0.0
O1283 O 0.74771 0.58238 0.16562 0.0
O1284 O 0.72465 0.59182 0.18456 0.0
H1285 H 0.73818 0.64494 0.21686 0.0
H1286 H 0.75904 0.65735 0.22403 0.0
C1287 C 0.7524 0.64333 0.2229 0.0
H1288 H 0.75115 0.63738 0.23717 0.0
H1289 H 0.7032 0.62453 0.20155 0.0
O1290 O 0.79273 0.57354 0.17413 0.0
C1291 C 0.73046 0.58614 0.16859 0.0
Co1292 Co 0.6614 0.51785 0.43599 0.0
Co1293 Co 0.64532 0.48506 0.46069 0.0
C1294 C 0.68294 0.50096 0.4685 0.0
O1295 O 0.68108 0.51166 0.45436 0.0
O1296 O 0.66965 0.4902 0.47378 0.0
C1297 C 0.68161 0.55219 0.42962 0.0
O1298 O 0.694 0.5448 0.44107 0.0
C1299 C 0.62656 0.46749 0.49253 0.0
C1300 C 0.60991 0.44539 0.47856 0.0
C1301 C 0.61277 0.45412 0.49569 0.0
N1302 N 0.63135 0.46688 0.47433 0.0
N1303 N 0.62173 0.45331 0.46616 0.0
C1304 C 0.63323 0.48233 0.50581 0.0
H1305 H 0.63956 0.49422 0.49801 0.0
H1306 H 0.62151 0.48747 0.51467 0.0
H1307 H 0.64404 0.47622 0.51519 0.0
C1308 C 0.62547 0.53512 0.4465 0.0
N1309 N 0.6378 0.52087 0.44761 0.0
N1310 N 0.63035 0.50706 0.45732 0.0
C1311 C 0.61266 0.512 0.46217 0.0
C1312 C 0.60923 0.53003 0.45572 0.0
C1313 C 0.62862 0.55276 0.4356 0.0
H1314 H 0.63244 0.54914 0.42097 0.0
H1315 H 0.6404 0.56063 0.44203 0.0
H1316 H 0.616 0.56186 0.43539 0.0
O1317 O 0.66077 0.4972 0.41749 0.0
O1318 O 0.65158 0.47383 0.43606 0.0
H1319 H 0.59939 0.48528 0.46589 0.0
H1320 H 0.58436 0.50508 0.4707 0.0
C1321 C 0.59886 0.49957 0.47194 0.0
H1322 H 0.60243 0.49882 0.48702 0.0
H1323 H 0.6223 0.45031 0.45185 0.0
O1324 O 0.6678 0.54229 0.42421 0.0
C1325 C 0.6572 0.47987 0.4202 0.0
Co1326 Co 0.72857 0.41189 0.68259 0.0
Co1327 Co 0.7597 0.39601 0.70934 0.0
C1328 C 0.74466 0.43386 0.7155 0.0
O1329 O 0.73481 0.4318 0.70081 0.0
O1330 O 0.75466 0.42048 0.72179 0.0
C1331 C 0.69222 0.42108 0.6859 0.0
O1332 O 0.69821 0.41819 0.70308 0.0
C1333 C 0.77567 0.37887 0.74284 0.0
C1334 C 0.79663 0.35944 0.73088 0.0
C1335 C 0.78776 0.3643 0.74749 0.0
N1336 N 0.77682 0.38188 0.72428 0.0
N1337 N 0.78972 0.37057 0.71728 0.0
C1338 C 0.76319 0.38992 0.75564 0.0
H1339 H 0.76509 0.40509 0.75284 0.0
H1340 H 0.7483 0.38649 0.75274 0.0
H1341 H 0.76645 0.38722 0.7706 0.0
C1342 C 0.71196 0.37487 0.69024 0.0
N1343 N 0.72526 0.38794 0.69336 0.0
N1344 N 0.73756 0.38139 0.70546 0.0
C1345 C 0.73205 0.36401 0.71079 0.0
C1346 C 0.71567 0.35952 0.70138 0.0
C1347 C 0.69655 0.37646 0.67605 0.0
H1348 H 0.70094 0.38552 0.66422 0.0
H1349 H 0.68396 0.38253 0.68285 0.0
H1350 H 0.69261 0.36246 0.67052 0.0
O1351 O 0.74943 0.41086 0.66465 0.0
O1352 O 0.77176 0.40158 0.68459 0.0
H1353 H 0.73628 0.33706 0.72415 0.0
H1354 H 0.74328 0.35715 0.73769 0.0
C1355 C 0.74283 0.35117 0.7234 0.0
H1356 H 0.75735 0.34965 0.71812 0.0
H1357 H 0.79298 0.36966 0.70304 0.0
O1358 O 0.70389 0.41977 0.67244 0.0
C1359 C 0.76653 0.40692 0.66828 0.0
Co1360 Co 0.55714 0.83384 0.51702 0.0
Co1361 Co 0.53455 0.85051 0.4831 0.0
C1362 C 0.52366 0.81414 0.49964 0.0
O1363 O 0.53733 0.81575 0.51093 0.0
O1364 O 0.51995 0.82695 0.48775 0.0
C1365 C 0.55251 0.82531 0.5539 0.0
O1366 O 0.53545 0.82912 0.54805 0.0
C1367 C 0.50401 0.86995 0.46423 0.0
C1368 C 0.51917 0.88704 0.44329 0.0
C1369 C 0.5016 0.88411 0.45109 0.0
N1370 N 0.52219 0.86499 0.46438 0.0
N1371 N 0.53109 0.87488 0.45147 0.0
C1372 C 0.49002 0.86317 0.47836 0.0
H1373 H 0.49723 0.85685 0.49062 0.0
H1374 H 0.48087 0.87484 0.48311 0.0
H1375 H 0.481 0.85234 0.47176 0.0
C1376 C 0.55067 0.87159 0.5322 0.0
N1377 N 0.54802 0.85853 0.51882 0.0
N1378 N 0.53809 0.86576 0.50504 0.0
C1379 C 0.53409 0.88383 0.5094 0.0
C1380 C 0.5417 0.88785 0.52683 0.0
C1381 C 0.56328 0.86944 0.54887 0.0
H1382 H 0.57498 0.85974 0.54565 0.0
H1383 H 0.55504 0.86386 0.56082 0.0
H1384 H 0.56918 0.88318 0.55319 0.0
O1385 O 0.57633 0.83229 0.49716 0.0
O1386 O 0.55935 0.84274 0.47304 0.0
H1387 H 0.53029 0.89739 0.48289 0.0
H1388 H 0.52414 0.91177 0.50277 0.0
C1389 C 0.52385 0.89732 0.49702 0.0
H1390 H 0.50902 0.89292 0.49579 0.0
H1391 H 0.54553 0.87427 0.44918 0.0
O1392 O 0.56594 0.82593 0.54215 0.0
C1393 C 0.57454 0.83603 0.47974 0.0
Co1394 Co 0.06195 0.66178 0.47529 0.0
Co1395 Co 0.03572 0.64596 0.50699 0.0
C1396 C 0.02878 0.68347 0.48969 0.0
O1397 O 0.04332 0.68168 0.47955 0.0
O1398 O 0.0234 0.67034 0.50055 0.0
C1399 C 0.07266 0.68268 0.44243 0.0
O1400 O 0.06345 0.69649 0.45041 0.0
C1401 C 0.00194 0.62778 0.52082 0.0
C1402 C 0.01185 0.61385 0.54667 0.0
C1403 C 0.99646 0.61552 0.5349 0.0
N1404 N 0.01986 0.6327 0.52385 0.0
N1405 N 0.02562 0.62463 0.53951 0.0
C1406 C 0.9904 0.63506 0.50483 0.0
H1407 H 0.99535 0.62882 0.49149 0.0
H1408 H 0.97529 0.63192 0.50678 0.0
H1409 H 0.99228 0.65046 0.50367 0.0
C1410 C 0.05196 0.62578 0.45777 0.0
N1411 N 0.0504 0.63819 0.47191 0.0
N1412 N 0.04051 0.63066 0.48555 0.0
C1413 C 0.03624 0.61279 0.48075 0.0
C1414 C 0.04304 0.60937 0.46287 0.0
C1415 C 0.06292 0.6291 0.44021 0.0
H1416 H 0.07772 0.63213 0.44393 0.0
H1417 H 0.05703 0.64144 0.4328 0.0
H1418 H 0.06257 0.61681 0.43068 0.0
O1419 O 0.07896 0.66145 0.49731 0.0
O1420 O 0.05953 0.652 0.51992 0.0
H1421 H 0.03134 0.60106 0.50808 0.0
H1422 H 0.03078 0.5842 0.4892 0.0
C1423 C 0.02705 0.59873 0.49334 0.0
H1424 H 0.01163 0.60011 0.49222 0.0
H1425 H 0.0392 0.6258 0.54486 0.0
O1426 O 0.07538 0.66764 0.4516 0.0
C1427 C 0.07557 0.6578 0.51452 0.0
Co1428 Co 0.5812 0.80926 0.72874 0.0
Co1429 Co 0.5976 0.78366 0.76046 0.0
C1430 C 0.56051 0.77538 0.74498 0.0
O1431 O 0.56226 0.79007 0.73505 0.0
O1432 O 0.5739 0.76966 0.75534 0.0
C1433 C 0.57218 0.8056 0.69216 0.0
O1434 O 0.57576 0.78844 0.69787 0.0
C1435 C 0.61673 0.75223 0.77861 0.0
C1436 C 0.63475 0.76697 0.79906 0.0
C1437 C 0.63114 0.74948 0.7914 0.0
N1438 N 0.61228 0.77054 0.77851 0.0
N1439 N 0.62274 0.77919 0.79113 0.0
C1440 C 0.60911 0.7383 0.76486 0.0
H1441 H 0.60268 0.74557 0.75269 0.0
H1442 H 0.62032 0.7287 0.75993 0.0
H1443 H 0.59817 0.72974 0.77188 0.0
C1444 C 0.61868 0.80289 0.71268 0.0
N1445 N 0.60562 0.79956 0.72592 0.0
N1446 N 0.61247 0.7879 0.73849 0.0
C1447 C 0.63007 0.78307 0.73322 0.0
C1448 C 0.63439 0.79238 0.71672 0.0
C1449 C 0.61665 0.81658 0.69688 0.0
H1450 H 0.60717 0.82821 0.70093 0.0
H1451 H 0.61082 0.80923 0.68448 0.0
H1452 H 0.63047 0.82247 0.69281 0.0
O1453 O 0.58093 0.82763 0.74921 0.0
O1454 O 0.5903 0.80824 0.77191 0.0
H1455 H 0.64432 0.77612 0.75869 0.0
H1456 H 0.65729 0.77042 0.73775 0.0
C1457 C 0.6431 0.77081 0.74415 0.0
H1458 H 0.63746 0.75635 0.74453 0.0
H1459 H 0.62257 0.79366 0.79341 0.0
O1460 O 0.57307 0.81892 0.70401 0.0
C1461 C 0.58443 0.82426 0.76643 0.0
Co1462 Co 0.43572 0.33284 0.97973 0.0
Co1463 Co 0.46 0.34947 0.01275 0.0
C1464 C 0.46767 0.31142 0.99782 0.0
O1465 O 0.45379 0.31318 0.98677 0.0
O1466 O 0.47294 0.32492 0.00832 0.0
C1467 C 0.43056 0.31251 0.94521 0.0
O1468 O 0.44273 0.30082 0.95259 0.0
C1469 C 0.49202 0.36833 0.03001 0.0
C1470 C 0.47818 0.38592 0.05143 0.0
C1471 C 0.49532 0.38258 0.04288 0.0
N1472 N 0.47374 0.36378 0.03071 0.0
N1473 N 0.46565 0.37397 0.0439 0.0
C1474 C 0.50526 0.36098 0.01546 0.0
H1475 H 0.49741 0.35443 0.00373 0.0
H1476 H 0.51435 0.37238 0.01001 0.0
H1477 H 0.51441 0.3502 0.02195 0.0
C1478 C 0.44639 0.36852 0.96217 0.0
N1479 N 0.44738 0.35638 0.9766 0.0
N1480 N 0.45697 0.36402 0.99038 0.0
C1481 C 0.46197 0.38161 0.98518 0.0
C1482 C 0.45565 0.3848 0.96706 0.0
C1483 C 0.43544 0.36519 0.9446 0.0
H1484 H 0.42093 0.361 0.9483 0.0
H1485 H 0.44212 0.35363 0.93662 0.0
H1486 H 0.43482 0.37785 0.93557 0.0
O1487 O 0.41698 0.33383 9e-05 0.0
O1488 O 0.43512 0.34328 0.02374 0.0
H1489 H 0.46577 0.39544 0.01159 0.0
H1490 H 0.47126 0.40984 0.99152 0.0
C1491 C 0.47199 0.39545 0.99737 0.0
H1492 H 0.48696 0.39149 0.99837 0.0
H1493 H 0.45131 0.3737 0.04684 0.0
O1494 O 0.42437 0.32599 0.95513 0.0
C1495 C 0.41938 0.33754 0.01744 0.0
Co1496 Co 0.40909 0.68384 0.72892 0.0
Co1497 Co 0.39419 0.70979 0.76128 0.0
C1498 C 0.43217 0.71558 0.74464 0.0
O1499 O 0.4298 0.70144 0.73402 0.0
O1500 O 0.41916 0.72129 0.75552 0.0
C1501 C 0.43058 0.67094 0.69704 0.0
O1502 O 0.4451 0.67766 0.70617 0.0
C1503 C 0.37707 0.74343 0.77703 0.0
C1504 C 0.36073 0.73177 0.80063 0.0
C1505 C 0.36383 0.74811 0.79054 0.0
N1506 N 0.38124 0.72515 0.77887 0.0
N1507 N 0.37182 0.71836 0.79331 0.0
C1508 C 0.38382 0.7553 0.76107 0.0
H1509 H 0.38959 0.7464 0.74968 0.0
H1510 H 0.37229 0.76416 0.75551 0.0
H1511 H 0.3951 0.76472 0.76618 0.0
C1512 C 0.37385 0.69601 0.71137 0.0
N1513 N 0.38611 0.69654 0.72571 0.0
N1514 N 0.37898 0.70657 0.73947 0.0
C1515 C 0.36152 0.71211 0.73444 0.0
C1516 C 0.35797 0.70586 0.71639 0.0
C1517 C 0.37678 0.68519 0.69365 0.0
H1518 H 0.37916 0.67022 0.69716 0.0
H1519 H 0.38939 0.69067 0.68639 0.0
H1520 H 0.36456 0.68619 0.68408 0.0
O1521 O 0.40774 0.66609 0.75021 0.0
O1522 O 0.39903 0.68521 0.77331 0.0
H1523 H 0.34906 0.71712 0.76137 0.0
H1524 H 0.33339 0.72073 0.74182 0.0
C1525 C 0.34804 0.72239 0.74681 0.0
H1526 H 0.35141 0.73754 0.7466 0.0
H1527 H 0.37201 0.7043 0.79738 0.0
O1528 O 0.41463 0.67083 0.70498 0.0
C1529 C 0.40407 0.66908 0.76747 0.0
Co1530 Co 0.93479 0.15972 0.01347 0.0
Co1531 Co 0.96111 0.14425 0.9819 0.0
C1532 C 0.96842 0.18125 0.99788 0.0
O1533 O 0.95374 0.17904 0.00773 0.0
O1534 O 0.97449 0.16814 0.9874 0.0
C1535 C 0.93781 0.16663 0.05075 0.0
O1536 O 0.9547 0.16108 0.04589 0.0
C1537 C 0.99346 0.12627 0.96436 0.0
C1538 C 0.97989 0.10829 0.94307 0.0
C1539 C 0.99705 0.11221 0.95136 0.0
N1540 N 0.97503 0.13018 0.96396 0.0
N1541 N 0.96707 0.11975 0.95087 0.0
C1542 C 0.00669 0.13408 0.97869 0.0
H1543 H -0.00117 0.14003 0.99072 0.0
H1544 H 0.01648 0.12309 0.98376 0.0
H1545 H 0.01509 0.14543 0.97216 0.0
C1546 C 0.9408 0.12176 0.02846 0.0
N1547 N 0.94448 0.13524 0.01576 0.0
N1548 N 0.9569 0.12901 0.00362 0.0
C1549 C 0.96213 0.11151 0.00889 0.0
C1550 C 0.95211 0.10654 0.02478 0.0
C1551 C 0.92596 0.12286 0.04326 0.0
H1552 H 0.91528 0.13355 0.03961 0.0
H1553 H 0.93255 0.12642 0.05686 0.0
H1554 H 0.91893 0.10908 0.04497 0.0
O1555 O 0.91673 0.16018 0.99284 0.0
O1556 O 0.93644 0.15123 0.9702 0.0
H1557 H 0.97101 0.09796 0.98365 0.0
H1558 H 0.97604 0.08487 0.00468 0.0
C1559 C 0.97547 0.09914 -0.00153 0.0
H1560 H 0.98969 0.10532 -0.00101 0.0
H1561 H 0.95269 0.11957 0.94813 0.0
O1562 O 0.92505 0.16759 0.03829 0.0
C1563 C 0.92028 0.15685 0.97562 0.0
Co1564 Co 0.58167 0.18425 0.76727 0.0
Co1565 Co 0.59821 0.21003 0.7359 0.0
C1566 C 0.56081 0.21775 0.75104 0.0
O1567 O 0.56246 0.20297 0.76079 0.0
O1568 O 0.57436 0.22369 0.74108 0.0
C1569 C 0.5719 0.18843 0.8032 0.0
O1570 O 0.57563 0.20539 0.79702 0.0
C1571 C 0.6166 0.24285 0.72052 0.0
C1572 C 0.63295 0.2313 0.69688 0.0
C1573 C 0.62991 0.24754 0.70712 0.0
N1574 N 0.61238 0.22461 0.7186 0.0
N1575 N 0.62189 0.21783 0.70421 0.0
C1576 C 0.6077 0.25535 0.73488 0.0
H1577 H 0.60929 0.24912 0.74904 0.0
H1578 H 0.61355 0.26975 0.73461 0.0
H1579 H 0.59243 0.2562 0.732 0.0
C1580 C 0.61892 0.19067 0.78385 0.0
N1581 N 0.60599 0.19412 0.7705 0.0
N1582 N 0.61305 0.20559 0.75789 0.0
C1583 C 0.63073 0.2101 0.76318 0.0
C1584 C 0.63484 0.2009 0.77981 0.0
C1585 C 0.61631 0.17742 0.79995 0.0
H1586 H 0.60692 0.16572 0.79589 0.0
H1587 H 0.61007 0.18513 0.81193 0.0
H1588 H 0.62986 0.17152 0.80475 0.0
O1589 O 0.58206 0.16607 0.74675 0.0
O1590 O 0.59144 0.18546 0.72396 0.0
H1591 H 0.65875 0.22015 0.75729 0.0
H1592 H 0.64013 0.23653 0.75284 0.0
C1593 C 0.6442 0.22158 0.75193 0.0
H1594 H 0.64386 0.21712 0.73707 0.0
H1595 H 0.62152 0.20382 0.69998 0.0
O1596 O 0.5731 0.17471 0.79184 0.0
C1597 C 0.58574 0.16938 0.72954 0.0
Co1598 Co 0.91225 0.81343 0.26808 0.0
Co1599 Co 0.89684 0.78625 0.23678 0.0
C1600 C 0.9345 0.78031 0.25395 0.0
O1601 O 0.9324 0.79493 0.26394 0.0
O1602 O 0.92149 0.77452 0.24313 0.0
C1603 C 0.93299 0.82482 0.30084 0.0
O1604 O 0.94694 0.81577 0.29294 0.0
C1605 C 0.8795 0.75204 0.22217 0.0
C1606 C 0.86211 0.76314 0.19906 0.0
C1607 C 0.86565 0.74702 0.20935 0.0
N1608 N 0.8833 0.77038 0.21999 0.0
N1609 N 0.8732 0.77683 0.20586 0.0
C1610 C 0.88918 0.73978 0.23624 0.0
H1611 H 0.90414 0.74381 0.23737 0.0
H1612 H 0.88271 0.74174 0.25024 0.0
H1613 H 0.88831 0.72478 0.23218 0.0
C1614 C 0.87627 0.80353 0.28555 0.0
N1615 N 0.88877 0.80171 0.27153 0.0
N1616 N 0.88174 0.79076 0.25845 0.0
C1617 C 0.86425 0.78555 0.26373 0.0
C1618 C 0.86035 0.79344 0.28107 0.0
C1619 C 0.87975 0.81428 0.3032 0.0
H1620 H 0.89272 0.80892 0.30989 0.0
H1621 H 0.86808 0.81289 0.31337 0.0
H1622 H 0.88176 0.82932 0.29972 0.0
O1623 O 0.91163 0.83013 0.24598 0.0
O1624 O 0.90251 0.81022 0.22366 0.0
H1625 H 0.8513 0.7799 0.2372 0.0
H1626 H 0.83615 0.77623 0.25709 0.0
C1627 C 0.85073 0.77477 0.25184 0.0
H1628 H 0.85449 0.75971 0.25209 0.0
H1629 H 0.87309 0.79082 0.20155 0.0
O1630 O 0.91793 0.82725 0.2916 0.0
C1631 C 0.90802 0.82644 0.22884 0.0
H1632 H 0.05698 0.0177 0.39057 0.0
H1633 H 0.02846 0.06383 0.4172 0.0
H1634 H 0.07917 0.01613 0.41671 0.0
H1635 H 0.05036 0.06218 0.44369 0.0
H1636 H 0.10525 0.06748 0.4766 0.0
H1637 H 0.0833 0.06867 0.45027 0.0
H1638 H 0.08086 0.00811 0.44971 0.0
H1639 H 0.10265 0.00697 0.47581 0.0
C1640 C 0.05533 0.02724 0.40228 0.0
C1641 C 0.04105 0.04072 0.40219 0.0
C1642 C 0.06798 0.02639 0.41721 0.0
C1643 C 0.06657 0.03908 0.43226 0.0
C1644 C 0.05198 0.05239 0.4322 0.0
C1645 C 0.03934 0.05321 0.41723 0.0
C1646 C 0.10018 0.05445 0.47065 0.0
C1647 C 0.10613 0.03715 0.47795 0.0
C1648 C 0.08749 0.05511 0.45571 0.0
C1649 C 0.08035 0.03847 0.44787 0.0
C1650 C 0.08637 0.02118 0.45516 0.0
C1651 C 0.09904 0.02053 0.47006 0.0
H1652 H 0.23837 0.85537 0.72454 0.0
H1653 H 0.17793 0.8543 0.72862 0.0
H1654 H 0.23702 0.83449 0.69767 0.0
H1655 H 0.17663 0.83287 0.70184 0.0
H1656 H 0.18488 0.77822 0.66786 0.0
H1657 H 0.18647 0.79963 0.69478 0.0
H1658 H 0.2255 0.83468 0.6644 0.0
H1659 H 0.22378 0.81323 0.63761 0.0
C1660 C 0.22474 0.85118 0.71939 0.0
C1661 C 0.20819 0.85706 0.72834 0.0
C1662 C 0.22401 0.83898 0.7041 0.0
C1663 C 0.20673 0.8321 0.69763 0.0
C1664 C 0.19016 0.83786 0.70662 0.0
C1665 C 0.1909 0.8502 0.72185 0.0
C1666 C 0.19393 0.7904 0.66716 0.0
C1667 C 0.20438 0.79412 0.65094 0.0
C1668 C 0.19472 0.80272 0.68239 0.0
C1669 C 0.20607 0.81885 0.68163 0.0
C1670 C 0.21676 0.82229 0.66543 0.0
C1671 C 0.21582 0.81008 0.65016 0.0
H1672 H 0.39529 0.92942 0.97985 0.0
H1673 H 0.39447 0.98998 0.97811 0.0
H1674 H 0.41653 0.92907 0.95287 0.0
H1675 H 0.41514 0.98959 0.95103 0.0
H1676 H 0.43457 0.97822 0.88983 0.0
H1677 H 0.41405 0.97931 0.91736 0.0
H1678 H 0.44967 0.93905 0.94538 0.0
H1679 H 0.47015 0.93806 0.91771 0.0
C1680 C 0.39942 0.94262 0.97355 0.0
C1681 C 0.39263 0.95967 0.9807 0.0
C1682 C 0.41166 0.94243 0.95823 0.0
C1683 C 0.41737 0.95931 0.94979 0.0
C1684 C 0.41067 0.97636 0.95701 0.0
C1685 C 0.39859 0.97655 0.9724 0.0
C1686 C 0.43809 0.96988 0.90205 0.0
C1687 C 0.45392 0.95825 0.90193 0.0
C1688 C 0.42639 0.97046 0.91774 0.0
C1689 C 0.43024 0.95921 0.93347 0.0
C1690 C 0.44628 0.94772 0.93337 0.0
C1691 C 0.45808 0.9473 0.91771 0.0
H1692 H 0.31837 0.15121 0.23332 0.0
H1693 H 0.25931 0.14012 0.22557 0.0
H1694 H 0.31763 0.17278 0.20652 0.0
H1695 H 0.25873 0.16106 0.19881 0.0
H1696 H 0.27221 0.18224 0.13898 0.0
H1697 H 0.27251 0.16166 0.16641 0.0
H1698 H 0.30243 0.20401 0.19778 0.0
H1699 H 0.30207 0.2246 0.17013 0.0
C1700 C 0.30534 0.15314 0.22574 0.0
C1701 C 0.28911 0.14335 0.23112 0.0
C1702 C 0.30488 0.16557 0.21055 0.0
C1703 C 0.28815 0.16844 0.20052 0.0
C1704 C 0.27191 0.15881 0.20603 0.0
C1705 C 0.27233 0.14656 0.22126 0.0
C1706 C 0.27854 0.1872 0.15187 0.0
C1707 C 0.28688 0.20498 0.15269 0.0
C1708 C 0.27876 0.17547 0.16751 0.0
C1709 C 0.28753 0.18124 0.18418 0.0
C1710 C 0.29571 0.19918 0.18504 0.0
C1711 C 0.29532 0.21101 0.16939 0.0
H1712 H 0.10431 0.98949 0.01932 0.0
H1713 H 0.10316 0.92901 0.016 0.0
H1714 H 0.083 0.98854 0.04588 0.0
H1715 H 0.08136 0.92808 0.0425 0.0
H1716 H 0.02707 0.93638 0.07677 0.0
H1717 H 0.04824 0.9378 0.04964 0.0
H1718 H 0.08311 0.97765 0.07915 0.0
H1719 H 0.06186 0.9762 0.10607 0.0
C1720 C 0.09997 0.97595 0.02458 0.0
C1721 C 0.10599 0.95926 0.01598 0.0
C1722 C 0.08754 0.97543 0.03968 0.0
C1723 C 0.08059 0.95824 0.04632 0.0
C1724 C 0.08641 0.94155 0.0376 0.0
C1725 C 0.09897 0.94207 0.02254 0.0
C1726 C 0.03913 0.94562 0.0772 0.0
C1727 C 0.04286 0.95637 0.09322 0.0
C1728 C 0.05132 0.94629 0.06186 0.0
C1729 C 0.06735 0.9578 0.06233 0.0
C1730 C 0.07079 0.9688 0.07832 0.0
C1731 C 0.05869 0.968 0.09367 0.0
H1732 H 0.30546 0.77132 0.32518 0.0
H1733 H 0.27983 0.81428 0.35916 0.0
H1734 H 0.30438 0.79234 0.29783 0.0
H1735 H 0.27845 0.83517 0.33191 0.0
H1736 H 0.25918 0.85439 0.27227 0.0
H1737 H 0.261 0.83421 0.29965 0.0
H1738 H 0.31983 0.82485 0.28905 0.0
H1739 H 0.31831 0.84596 0.26197 0.0
C1740 C 0.29943 0.78519 0.32666 0.0
C1741 C 0.29255 0.79125 0.34405 0.0
C1742 C 0.29895 0.79722 0.31116 0.0
C1743 C 0.29133 0.81534 0.31283 0.0
C1744 C 0.28427 0.82124 0.33024 0.0
C1745 C 0.28505 0.80934 0.34576 0.0
C1746 C 0.27271 0.84876 0.27612 0.0
C1747 C 0.2888 0.85249 0.26534 0.0
C1748 C 0.27365 0.83691 0.29167 0.0
C1749 C 0.29056 0.82809 0.29648 0.0
C1750 C 0.3066 0.83148 0.28558 0.0
C1751 C 0.30574 0.84361 0.27018 0.0
H1752 H 0.37521 0.04921 0.53094 0.0
H1753 H 0.42233 0.04409 0.49336 0.0
H1754 H 0.39653 0.04927 0.55772 0.0
H1755 H 0.44371 0.04329 0.52003 0.0
H1756 H 0.47826 0.05765 0.57244 0.0
H1757 H 0.45775 0.05992 0.54495 0.0
H1758 H 0.41529 0.02803 0.57438 0.0
H1759 H 0.43551 0.02672 0.6019 0.0
C1760 C 0.39016 0.04811 0.52848 0.0
C1761 C 0.39717 0.04657 0.5102 0.0
C1762 C 0.4024 0.04797 0.54377 0.0
C1763 C 0.42188 0.04598 0.54109 0.0
C1764 C 0.42886 0.04503 0.52267 0.0
C1765 C 0.41662 0.04546 0.50737 0.0
C1766 C 0.46461 0.05098 0.57277 0.0
C1767 C 0.45839 0.04188 0.58903 0.0
C1768 C 0.45285 0.05225 0.55711 0.0
C1769 C 0.43474 0.04432 0.55746 0.0
C1770 C 0.4289 0.03473 0.5737 0.0
C1771 C 0.44054 0.03371 0.58937 0.0
H1772 H 0.20072 0.17296 0.74278 0.0
H1773 H 0.20367 0.12565 0.78044 0.0
H1774 H 0.20196 0.19438 0.76942 0.0
H1775 H 0.20463 0.147 0.80718 0.0
H1776 H 0.2271 0.18877 0.84904 0.0
H1777 H 0.22625 0.1688 0.82121 0.0
H1778 H 0.18483 0.20551 0.79636 0.0
H1779 H 0.18623 0.22568 0.82414 0.0
C1780 C 0.20135 0.16715 0.75681 0.0
C1781 C 0.20237 0.14767 0.75958 0.0
C1782 C 0.20208 0.17942 0.77206 0.0
C1783 C 0.20367 0.17242 0.79043 0.0
C1784 C 0.20392 0.15287 0.79319 0.0
C1785 C 0.20329 0.14062 0.77791 0.0
C1786 C 0.21815 0.19268 0.8374 0.0
C1787 C 0.20688 0.20874 0.83848 0.0
C1788 C 0.21744 0.18116 0.8216 0.0
C1789 C 0.20528 0.18541 0.80665 0.0
C1790 C 0.19445 0.20191 0.80754 0.0
C1791 C 0.19525 0.21348 0.82336 0.0
H1792 H 0.42104 0.02208 0.06255 0.0
H1793 H 0.39349 0.06241 0.02695 0.0
H1794 H 0.44897 0.04204 0.0637 0.0
H1795 H 0.42149 0.08217 0.02739 0.0
H1796 H 0.46585 0.12263 0.0476 0.0
H1797 H 0.43835 0.10222 0.04811 0.0
H1798 H 0.47453 0.05359 0.04561 0.0
H1799 H 0.5019 0.07406 0.0456 0.0
C1800 C 0.42121 0.03508 0.05467 0.0
C1801 C 0.40537 0.04076 0.04453 0.0
C1802 C 0.43713 0.04652 0.0553 0.0
C1803 C 0.43746 0.0638 0.04573 0.0
C1804 C 0.42162 0.06916 0.03524 0.0
C1805 C 0.40569 0.05779 0.03475 0.0
C1806 C 0.46784 0.10758 0.04723 0.0
C1807 C 0.48593 0.09991 0.04639 0.0
C1808 C 0.45213 0.09587 0.04742 0.0
C1809 C 0.4542 0.07623 0.04665 0.0
C1810 C 0.47238 0.06861 0.0464 0.0
C1811 C 0.48808 0.08033 0.04638 0.0
H1812 H 0.18385 0.13811 0.27181 0.0
H1813 H 0.2221 0.16979 0.30628 0.0
H1814 H 0.16285 0.16529 0.26994 0.0
H1815 H 0.20092 0.197 0.30478 0.0
H1816 H 0.14452 0.22971 0.3155 0.0
H1817 H 0.16639 0.20326 0.31669 0.0
H1818 H 0.16513 0.19948 0.25633 0.0
H1819 H 0.14421 0.22634 0.25499 0.0
C1820 C 0.18777 0.15102 0.2788 0.0
C1821 C 0.20454 0.15213 0.28898 0.0
C1822 C 0.17582 0.16649 0.27776 0.0
C1823 C 0.18029 0.18316 0.28725 0.0
C1824 C 0.19714 0.18424 0.29744 0.0
C1825 C 0.20927 0.16884 0.29819 0.0
C1826 C 0.14885 0.22318 0.30249 0.0
C1827 C 0.14199 0.22975 0.2852 0.0
C1828 C 0.16141 0.20813 0.30318 0.0
C1829 C 0.16726 0.19929 0.2866 0.0
C1830 C 0.16052 0.20586 0.26933 0.0
C1831 C 0.14824 0.22109 0.26861 0.0
H1832 H 0.01827 0.8917 0.50493 0.0
H1833 H 0.01488 0.89463 0.56532 0.0
H1834 H 0.04494 0.91287 0.50527 0.0
H1835 H 0.04155 0.91626 0.56564 0.0
H1836 H 0.07682 0.9696 0.55627 0.0
H1837 H 0.04932 0.94888 0.55527 0.0
H1838 H 0.07808 0.91292 0.51586 0.0
H1839 H 0.10536 0.93374 0.51687 0.0
C1840 C 0.02353 0.89639 0.51835 0.0
C1841 C 0.01487 0.89089 0.53518 0.0
C1842 C 0.03871 0.90875 0.51851 0.0
C1843 C 0.0454 0.91616 0.53547 0.0
C1844 C 0.03661 0.91088 0.55232 0.0
C1845 C 0.02146 0.89839 0.55216 0.0
C1846 C 0.077 0.95742 0.54718 0.0
C1847 C 0.09292 0.95326 0.53644 0.0
C1848 C 0.06143 0.94548 0.54676 0.0
C1849 C 0.06159 0.92925 0.53553 0.0
C1850 C 0.07746 0.92541 0.52449 0.0
C1851 C 0.09303 0.93727 0.52502 0.0
H1852 H 0.31161 0.85551 0.76666 0.0
H1853 H 0.27651 0.83176 0.80971 0.0
H1854 H 0.33145 0.82752 0.7672 0.0
H1855 H 0.29662 0.80399 0.81098 0.0
H1856 H 0.32618 0.7494 0.79551 0.0
H1857 H 0.30577 0.77673 0.79438 0.0
H1858 H 0.35417 0.81244 0.7865 0.0
H1859 H 0.37451 0.78489 0.78716 0.0
C1860 C 0.30813 0.84412 0.77611 0.0
C1861 C 0.29251 0.84546 0.78794 0.0
C1862 C 0.31958 0.82823 0.77664 0.0
C1863 C 0.31574 0.8135 0.78922 0.0
C1864 C 0.29987 0.8149 0.80092 0.0
C1865 C 0.28835 0.83074 0.80025 0.0
C1866 C 0.33245 0.76313 0.79369 0.0
C1867 C 0.3519 0.76504 0.79124 0.0
C1868 C 0.32076 0.77882 0.79307 0.0
C1869 C 0.32827 0.79683 0.79022 0.0
C1870 C 0.34784 0.79875 0.78827 0.0
C1871 C 0.35952 0.783 0.78872 0.0
H1872 H 0.46468 0.87486 0.44732 0.0
H1873 H 0.50221 0.92213 0.45155 0.0
H1874 H 0.43783 0.8961 0.44769 0.0
H1875 H 0.47549 0.94342 0.45272 0.0
H1876 H 0.42277 0.9776 0.43838 0.0
H1877 H 0.45032 0.95719 0.4362 0.0
H1878 H 0.42135 0.91507 0.46896 0.0
H1879 H 0.39374 0.93521 0.47021 0.0
C1880 C 0.46712 0.88982 0.44834 0.0
C1881 C 0.48542 0.89689 0.44949 0.0
C1882 C 0.45178 0.90201 0.44872 0.0
C1883 C 0.45444 0.92152 0.45053 0.0
C1884 C 0.47286 0.92855 0.45112 0.0
C1885 C 0.48819 0.91636 0.45047 0.0
C1886 C 0.42255 0.96407 0.44528 0.0
C1887 C 0.40638 0.95792 0.45459 0.0
C1888 C 0.43826 0.95235 0.44406 0.0
C1889 C 0.43805 0.93435 0.45225 0.0
C1890 C 0.42192 0.9286 0.46208 0.0
C1891 C 0.4062 0.9402 0.46306 0.0
H1892 H 0.3117 0.14004 0.7139 0.0
H1893 H 0.27004 0.17461 0.68693 0.0
H1894 H 0.33289 0.16698 0.71598 0.0
H1895 H 0.29139 0.2017 0.68874 0.0
H1896 H 0.34619 0.23684 0.67696 0.0
H1897 H 0.32452 0.21026 0.67454 0.0
H1898 H 0.33176 0.19899 0.73355 0.0
H1899 H 0.35252 0.22586 0.73622 0.0
C1900 C 0.30711 0.1535 0.70853 0.0
C1901 C 0.28929 0.15548 0.70047 0.0
C1902 C 0.31918 0.16885 0.7097 0.0
C1903 C 0.31374 0.18635 0.70251 0.0
C1904 C 0.29591 0.18829 0.69429 0.0
C1905 C 0.28369 0.17295 0.69339 0.0
C1906 C 0.34325 0.22859 0.68938 0.0
C1907 C 0.35172 0.23304 0.70662 0.0
C1908 C 0.33079 0.21348 0.688 0.0
C1909 C 0.32666 0.20252 0.70383 0.0
C1910 C 0.33503 0.20701 0.72106 0.0
C1911 C 0.34722 0.22225 0.7225 0.0
H1912 H 0.08025 0.0237 0.93455 0.0
H1913 H 0.10655 0.0637 0.97143 0.0
H1914 H 0.05225 0.04347 0.93289 0.0
H1915 H 0.0784 0.08326 0.97053 0.0
H1916 H 0.03373 0.12348 0.95003 0.0
H1917 H 0.06158 0.10354 0.95015 0.0
H1918 H 0.02616 0.05428 0.95029 0.0
H1919 H 0.99848 0.07427 0.94962 0.0
C1920 C 0.07979 0.03659 0.94258 0.0
C1921 C 0.09529 0.04221 0.95326 0.0
C1922 C 0.06381 0.04792 0.94167 0.0
C1923 C 0.06305 0.06504 0.95152 0.0
C1924 C 0.07859 0.07038 0.96248 0.0
C1925 C 0.0946 0.05912 0.96322 0.0
C1926 C 0.03198 0.10839 0.95005 0.0
C1927 C 0.01401 0.1004 0.94996 0.0
C1928 C 0.0479 0.09694 0.95021 0.0
C1929 C 0.04615 0.07726 0.95043 0.0
C1930 C 0.02809 0.06934 0.9499 0.0
C1931 C 0.01221 0.08079 0.94954 0.0
H1932 H 0.16727 0.74727 0.20133 0.0
H1933 H 0.11948 0.78402 0.20665 0.0
H1934 H 0.18824 0.7742 0.20221 0.0
H1935 H 0.14037 0.81118 0.20689 0.0
H1936 H 0.1828 0.85424 0.22652 0.0
H1937 H 0.16245 0.82663 0.22626 0.0
H1938 H 0.19886 0.80053 0.18531 0.0
H1939 H 0.2195 0.8279 0.1864 0.0
C1940 C 0.16126 0.76119 0.20238 0.0
C1941 C 0.1418 0.76361 0.20406 0.0
C1942 C 0.17327 0.77665 0.20286 0.0
C1943 C 0.16606 0.79491 0.20475 0.0
C1944 C 0.14647 0.79731 0.20588 0.0
C1945 C 0.13447 0.78179 0.20563 0.0
C1946 C 0.1865 0.84238 0.21777 0.0
C1947 C 0.2027 0.84289 0.20668 0.0
C1948 C 0.17477 0.82669 0.21738 0.0
C1949 C 0.1789 0.81135 0.20566 0.0
C1950 C 0.19535 0.81191 0.19472 0.0
C1951 C 0.20718 0.82754 0.19529 0.0
H1952 H 0.05828 0.41662 0.02089 0.0
H1953 H 0.01701 0.39396 0.05878 0.0
H1954 H 0.06123 0.44457 0.04066 0.0
H1955 H 0.01942 0.42198 0.07837 0.0
H1956 H 0.04375 0.46268 0.1204 0.0
H1957 H 0.04192 0.43557 0.09958 0.0
H1958 H 0.04524 0.47236 0.0515 0.0
H1959 H 0.04736 0.49937 0.07239 0.0
C1960 C 0.04951 0.41794 0.03323 0.0
C1961 C 0.03728 0.40342 0.03833 0.0
C1962 C 0.05121 0.43385 0.04457 0.0
C1963 C 0.0407 0.43543 0.06121 0.0
C1964 C 0.028 0.42105 0.06587 0.0
C1965 C 0.0264 0.40515 0.05458 0.0
C1966 C 0.04414 0.46491 0.10539 0.0
C1967 C 0.04546 0.48308 0.09798 0.0
C1968 C 0.043 0.44942 0.09345 0.0
C1969 C 0.04311 0.45182 0.07385 0.0
C1970 C 0.0452 0.47 0.0665 0.0
C1971 C 0.04645 0.48547 0.07846 0.0
H1972 H 0.50653 0.0204 0.88966 0.0
H1973 H 0.56663 0.01533 0.89569 0.0
H1974 H 0.50649 0.0467 0.91121 0.0
H1975 H 0.56641 0.04146 0.91797 0.0
H1976 H 0.5534 0.07479 0.97243 0.0
H1977 H 0.55302 0.04795 0.95079 0.0
H1978 H 0.51931 0.07996 0.91193 0.0
H1979 H 0.51984 0.10665 0.9335 0.0
C1980 C 0.51985 0.0252 0.89506 0.0
C1981 C 0.53672 0.01616 0.89031 0.0
C1982 C 0.51974 0.04014 0.9077 0.0
C1983 C 0.53644 0.04613 0.91621 0.0
C1984 C 0.55331 0.03703 0.91168 0.0
C1985 C 0.55345 0.02219 0.89884 0.0
C1986 C 0.54566 0.07584 0.9594 0.0
C1987 C 0.53639 0.09251 0.95463 0.0
C1988 C 0.54562 0.06066 0.94696 0.0
C1989 C 0.53617 0.06194 0.92969 0.0
C1990 C 0.52656 0.07854 0.92521 0.0
C1991 C 0.52681 0.09375 0.93751 0.0
H1992 H 0.2482 0.28592 0.16869 0.0
H1993 H 0.2122 0.29866 0.12174 0.0
H1994 H 0.22098 0.28616 0.18972 0.0
H1995 H 0.18498 0.29945 0.14292 0.0
H1996 H 0.14989 0.32261 0.19455 0.0
H1997 H 0.17746 0.32198 0.1742 0.0
H1998 H 0.18802 0.26459 0.1902 0.0
H1999 H 0.15969 0.26481 0.20981 0.0
C2000 C 0.23446 0.28898 0.16296 0.0
C2001 C 0.23219 0.2924 0.14369 0.0
C2002 C 0.21895 0.28898 0.17493 0.0
C2003 C 0.201 0.29282 0.16786 0.0
C2004 C 0.19875 0.2965 0.14863 0.0
C2005 C 0.21422 0.29605 0.13657 0.0
C2006 C 0.15795 0.30977 0.19356 0.0
C2007 C 0.15245 0.29363 0.20347 0.0
C2008 C 0.17373 0.30947 0.182 0.0
C2009 C 0.18465 0.29319 0.18056 0.0
C2010 C 0.17973 0.27729 0.19112 0.0
C2011 C 0.16364 0.27746 0.20238 0.0
H2012 H 0.98572 0.97613 0.39023 0.0
H2013 H 0.92604 0.9832 0.39775 0.0
H2014 H 0.9852 0.94883 0.41057 0.0
H2015 H 0.92556 0.95581 0.41854 0.0
H2016 H 0.93741 0.91849 0.47033 0.0
H2017 H 0.93796 0.94635 0.45008 0.0
H2018 H 0.97251 0.91646 0.41025 0.0
H2019 H 0.97202 0.88884 0.43061 0.0
C2020 C 0.97237 0.97154 0.39577 0.0
C2021 C 0.95576 0.98138 0.39179 0.0
C2022 C 0.97212 0.95599 0.40763 0.0
C2023 C 0.95533 0.95011 0.41603 0.0
C2024 C 0.93873 0.9601 0.41231 0.0
C2025 C 0.93897 0.97565 0.40032 0.0
C2026 C 0.94532 0.91812 0.45736 0.0
C2027 C 0.95488 0.9018 0.45201 0.0
C2028 C 0.94546 0.93389 0.44571 0.0
C2029 C 0.95524 0.93354 0.42858 0.0
C2030 C 0.96502 0.91721 0.42345 0.0
C2031 C 0.96477 0.90145 0.43504 0.0
H2032 H 0.85133 0.21605 0.18308 0.0
H2033 H 0.82222 0.1867 0.22717 0.0
H2034 H 0.8235 0.21441 0.16332 0.0
H2035 H 0.7944 0.1841 0.20714 0.0
H2036 H 0.74242 0.19972 0.17205 0.0
H2037 H 0.76943 0.20061 0.19301 0.0
H2038 H 0.8063 0.19283 0.14546 0.0
H2039 H 0.7792 0.1928 0.12455 0.0
C2040 C 0.83881 0.20934 0.18851 0.0
C2041 C 0.83866 0.20171 0.2066 0.0
C2042 C 0.82296 0.20812 0.17714 0.0
C2043 C 0.80672 0.19888 0.18349 0.0
C2044 C 0.80656 0.19149 0.20183 0.0
C2045 C 0.82241 0.19296 0.21332 0.0
C2046 C 0.75632 0.19795 0.16618 0.0
C2047 C 0.75883 0.19632 0.14673 0.0
C2048 C 0.77181 0.19844 0.17817 0.0
C2049 C 0.79012 0.19704 0.17095 0.0
C2050 C 0.79247 0.19449 0.15149 0.0
C2051 C 0.77698 0.19429 0.1395 0.0
H2052 H 0.47668 0.60224 0.56162 0.0
H2053 H 0.43927 0.57642 0.52179 0.0
H2054 H 0.47518 0.57428 0.58138 0.0
H2055 H 0.43705 0.54858 0.54178 0.0
H2056 H 0.45168 0.49508 0.57469 0.0
H2057 H 0.45347 0.52204 0.55373 0.0
H2058 H 0.45349 0.55915 0.6017 0.0
H2059 H 0.45222 0.53204 0.62259 0.0
C2060 C 0.46833 0.59038 0.55705 0.0
C2061 C 0.45832 0.59119 0.54018 0.0
C2062 C 0.46722 0.5745 0.56845 0.0
C2063 C 0.45581 0.55923 0.5633 0.0
C2064 C 0.44613 0.55997 0.54609 0.0
C2065 C 0.4474 0.57583 0.53462 0.0
C2066 C 0.45184 0.50904 0.5807 0.0
C2067 C 0.45201 0.51153 0.60023 0.0
C2068 C 0.45286 0.52449 0.5687 0.0
C2069 C 0.45386 0.54279 0.576 0.0
C2070 C 0.45325 0.54525 0.59559 0.0
C2071 C 0.45241 0.52976 0.60757 0.0
H2072 H 0.23365 0.67693 0.34562 0.0
H2073 H 0.22651 0.73654 0.35366 0.0
H2074 H 0.20684 0.67676 0.32409 0.0
H2075 H 0.19971 0.73631 0.33263 0.0
H2076 H 0.13983 0.72266 0.31176 0.0
H2077 H 0.16727 0.72336 0.33234 0.0
H2078 H 0.19801 0.6897 0.29241 0.0
H2079 H 0.17034 0.689 0.27188 0.0
C2080 C 0.2262 0.68991 0.34299 0.0
C2081 C 0.23173 0.70658 0.35191 0.0
C2082 C 0.21099 0.68986 0.33059 0.0
C2083 C 0.2011 0.70651 0.32683 0.0
C2084 C 0.20681 0.72319 0.33558 0.0
C2085 C 0.22204 0.72326 0.34784 0.0
C2086 C 0.15259 0.71568 0.30734 0.0
C2087 C 0.15321 0.70597 0.29027 0.0
C2088 C 0.16825 0.71605 0.31906 0.0
C2089 C 0.18475 0.70654 0.31399 0.0
C2090 C 0.18541 0.697 0.29673 0.0
C2091 C 0.16974 0.69677 0.28492 0.0
H2092 H 0.24536 0.29821 0.82664 0.0
H2093 H 0.28124 0.29321 0.8751 0.0
H2094 H 0.2727 0.29714 0.80615 0.0
H2095 H 0.30875 0.29274 0.85474 0.0
H2096 H 0.35214 0.27136 0.81372 0.0
H2097 H 0.32407 0.27249 0.83336 0.0
H2098 H 0.29968 0.31341 0.79574 0.0
H2099 H 0.32755 0.31148 0.77581 0.0
C2100 C 0.25917 0.29724 0.8329 0.0
C2101 C 0.26124 0.29562 0.8524 0.0
C2102 C 0.27485 0.29663 0.82117 0.0
C2103 C 0.29297 0.29464 0.82875 0.0
C2104 C 0.295 0.29377 0.84837 0.0
C2105 C 0.27929 0.29417 0.86007 0.0
C2106 C 0.34057 0.28031 0.8096 0.0
C2107 C 0.34172 0.29116 0.79328 0.0
C2108 C 0.32462 0.28119 0.82092 0.0
C2109 C 0.30963 0.29319 0.81626 0.0
C2110 C 0.3108 0.30385 0.79966 0.0
C2111 C 0.32671 0.30279 0.78824 0.0
H2112 H 0.55333 0.5165 0.89238 0.0
H2113 H 0.529 0.56732 0.91416 0.0
H2114 H 0.57523 0.51551 0.91873 0.0
H2115 H 0.55036 0.56617 0.94104 0.0
H2116 H 0.60426 0.56935 0.97557 0.0
H2117 H 0.58268 0.57041 0.9489 0.0
H2118 H 0.57687 0.51009 0.95148 0.0
H2119 H 0.59865 0.50912 0.97758 0.0
C2120 C 0.55253 0.52725 0.90309 0.0
C2121 C 0.53957 0.54189 0.90151 0.0
C2122 C 0.565 0.52672 0.91818 0.0
C2123 C 0.56461 0.54079 0.93203 0.0
C2124 C 0.55128 0.55529 0.9305 0.0
C2125 C 0.53891 0.55586 0.9153 0.0
C2126 C 0.5985 0.55636 0.97021 0.0
C2127 C 0.60354 0.53914 0.97829 0.0
C2128 C 0.58602 0.55694 0.95508 0.0
C2129 C 0.57807 0.54031 0.94796 0.0
C2130 C 0.58303 0.52312 0.95625 0.0
C2131 C 0.59561 0.52255 0.97122 0.0
H2132 H 0.69032 0.26896 0.17343 0.0
H2133 H 0.72431 0.30772 0.14182 0.0
H2134 H 0.69118 0.29033 0.2005 0.0
H2135 H 0.72536 0.32898 0.16872 0.0
H2136 H 0.73844 0.35122 0.22797 0.0
H2137 H 0.73827 0.32926 0.20198 0.0
H2138 H 0.67823 0.32342 0.20712 0.0
H2139 H 0.67826 0.3461 0.23292 0.0
C2140 C 0.69825 0.28189 0.17249 0.0
C2141 C 0.70746 0.28673 0.15581 0.0
C2142 C 0.69859 0.29416 0.18781 0.0
C2143 C 0.70831 0.3113 0.18665 0.0
C2144 C 0.71791 0.3158 0.17005 0.0
C2145 C 0.71735 0.30368 0.15472 0.0
C2146 C 0.72508 0.34589 0.2232 0.0
C2147 C 0.70823 0.35107 0.23205 0.0
C2148 C 0.72505 0.33303 0.20846 0.0
C2149 C 0.70824 0.32471 0.2025 0.0
C2150 C 0.69141 0.32957 0.21152 0.0
C2151 C 0.69142 0.34263 0.22616 0.0
H2152 H 0.89056 0.48768 0.47457 0.0
H2153 H 0.90069 0.42827 0.48072 0.0
H2154 H 0.91184 0.48872 0.44805 0.0
H2155 H 0.92242 0.42938 0.45412 0.0
H2156 H 0.97429 0.44337 0.41833 0.0
H2157 H 0.95364 0.44328 0.44589 0.0
H2158 H 0.91325 0.47675 0.4155 0.0
H2159 H 0.93398 0.47689 0.3882 0.0
C2160 C 0.89687 0.4747 0.46994 0.0
C2161 C 0.89336 0.45772 0.47932 0.0
C2162 C 0.90929 0.47537 0.45485 0.0
C2163 C 0.91874 0.45913 0.44896 0.0
C2164 C 0.91543 0.44216 0.45845 0.0
C2165 C 0.90289 0.44148 0.47353 0.0
C2166 C 0.96117 0.45102 0.41782 0.0
C2167 C 0.95573 0.46039 0.40141 0.0
C2168 C 0.94926 0.45077 0.43342 0.0
C2169 C 0.9318 0.45995 0.4328 0.0
C2170 C 0.92668 0.46972 0.41646 0.0
C2171 C 0.93851 0.46985 0.40088 0.0
H2172 H 0.81878 0.65157 0.73682 0.0
H2173 H 0.75998 0.64182 0.72595 0.0
H2174 H 0.81991 0.67339 0.71023 0.0
H2175 H 0.76128 0.66294 0.69929 0.0
H2176 H 0.77842 0.6836 0.64032 0.0
H2177 H 0.77737 0.66289 0.66761 0.0
H2178 H 0.80534 0.7052 0.70076 0.0
H2179 H 0.8063 0.726 0.67322 0.0
C2180 C 0.80621 0.65385 0.7286 0.0
C2181 C 0.78952 0.64434 0.73301 0.0
C2182 C 0.80681 0.66641 0.71352 0.0
C2183 C 0.79072 0.66967 0.70262 0.0
C2184 C 0.77399 0.66037 0.70721 0.0
C2185 C 0.77335 0.64802 0.72235 0.0
C2186 C 0.78412 0.6885 0.65353 0.0
C2187 C 0.79219 0.70637 0.6549 0.0
C2188 C 0.78354 0.6767 0.6691 0.0
C2189 C 0.79127 0.68246 0.68627 0.0
C2190 C 0.79938 0.7004 0.68764 0.0
C2191 C 0.79976 0.71233 0.67204 0.0
H2192 H 0.62243 0.4525 0.53271 0.0
H2193 H 0.57482 0.45275 0.49539 0.0
H2194 H 0.60133 0.45206 0.55967 0.0
H2195 H 0.55363 0.45315 0.52216 0.0
H2196 H 0.52048 0.43667 0.57449 0.0
H2197 H 0.54122 0.43582 0.54717 0.0
H2198 H 0.58077 0.47143 0.5764 0.0
H2199 H 0.56035 0.47128 0.60387 0.0
C2200 C 0.60743 0.45256 0.53034 0.0
C2201 C 0.60021 0.45272 0.51206 0.0
C2202 C 0.5953 0.45244 0.54574 0.0
C2203 C 0.5757 0.45276 0.54315 0.0
C2204 C 0.56858 0.45263 0.52476 0.0
C2205 C 0.58071 0.45244 0.50939 0.0
C2206 C 0.53354 0.44444 0.57483 0.0
C2207 C 0.53887 0.45419 0.591 0.0
C2208 C 0.54543 0.44401 0.55924 0.0
C2209 C 0.56278 0.45349 0.55955 0.0
C2210 C 0.56776 0.46363 0.57574 0.0
C2211 C 0.556 0.4638 0.59137 0.0
H2212 H 0.75827 0.35435 0.76994 0.0
H2213 H 0.81804 0.34721 0.76328 0.0
H2214 H 0.75876 0.33397 0.79725 0.0
H2215 H 0.81849 0.3264 0.79061 0.0
H2216 H 0.80704 0.27421 0.82726 0.0
H2217 H 0.80639 0.29476 0.79965 0.0
H2218 H 0.77114 0.33381 0.82975 0.0
H2219 H 0.77174 0.31313 0.85714 0.0
C2220 C 0.77163 0.3489 0.77463 0.0
C2221 C 0.78826 0.35297 0.76487 0.0
C2222 C 0.77186 0.33702 0.79018 0.0
C2223 C 0.78867 0.32867 0.79614 0.0
C2224 C 0.8053 0.33256 0.78627 0.0
C2225 C 0.80508 0.34456 0.77074 0.0
C2226 C 0.79896 0.28707 0.82774 0.0
C2227 C 0.78923 0.2921 0.84406 0.0
C2228 C 0.79875 0.29891 0.8121 0.0
C2229 C 0.78875 0.31591 0.81257 0.0
C2230 C 0.7788 0.32073 0.8289 0.0
C2231 C 0.77912 0.30895 0.84454 0.0
H2232 H 0.92014 0.5438 0.99296 0.0
H2233 H 0.87364 0.54021 0.0315 0.0
H2234 H 0.94208 0.54307 0.01914 0.0
H2235 H 0.89547 0.5402 0.05787 0.0
H2236 H 0.93821 0.52068 0.10005 0.0
H2237 H 0.91736 0.52068 0.0729 0.0
H2238 H 0.95433 0.5598 0.04483 0.0
H2239 H 0.97554 0.55889 0.07182 0.0
C2240 C 0.91463 0.54318 0.00711 0.0
C2241 C 0.89524 0.54192 0.01027 0.0
C2242 C 0.9272 0.54279 0.02213 0.0
C2243 C 0.92062 0.5414 0.04068 0.0
C2244 C 0.9011 0.54077 0.04378 0.0
C2245 C 0.88856 0.5409 0.02872 0.0
C2246 C 0.94195 0.52894 0.08785 0.0
C2247 C 0.95847 0.53956 0.08773 0.0
C2248 C 0.92992 0.5292 0.07242 0.0
C2249 C 0.934 0.54042 0.05669 0.0
C2250 C 0.95082 0.55081 0.05655 0.0
C2251 C 0.96299 0.55032 0.07194 0.0
H2252 H 0.72077 0.68167 0.35567 0.0
H2253 H 0.68595 0.7208 0.32545 0.0
H2254 H 0.72183 0.66119 0.32819 0.0
H2255 H 0.6871 0.70043 0.29771 0.0
H2256 H 0.67634 0.64777 0.26094 0.0
H2257 H 0.67528 0.66876 0.28814 0.0
H2258 H 0.73488 0.66136 0.29606 0.0
H2259 H 0.73597 0.6408 0.26894 0.0
C2260 C 0.71358 0.68594 0.34297 0.0
C2261 C 0.70347 0.70278 0.34244 0.0
C2262 C 0.71417 0.67428 0.32728 0.0
C2263 C 0.70453 0.67921 0.31081 0.0
C2264 C 0.69451 0.6962 0.31027 0.0
C2265 C 0.69403 0.70794 0.32599 0.0
C2266 C 0.68914 0.65052 0.26866 0.0
C2267 C 0.70609 0.64207 0.26324 0.0
C2268 C 0.68858 0.66262 0.2841 0.0
C2269 C 0.70498 0.66656 0.29431 0.0
C2270 C 0.72194 0.65825 0.28873 0.0
C2271 C 0.72251 0.64627 0.27329 0.0
H2272 H 0.91424 0.53161 0.56719 0.0
H2273 H 0.89411 0.55201 0.514 0.0
H2274 H 0.94128 0.55268 0.56519 0.0
H2275 H 0.92062 0.57368 0.51212 0.0
H2276 H 0.9798 0.59677 0.50606 0.0
H2277 H 0.95349 0.57516 0.50765 0.0
H2278 H 0.94906 0.58507 0.56732 0.0
H2279 H 0.97589 0.60637 0.56567 0.0
C2280 C 0.91574 0.54064 0.55506 0.0
C2281 C 0.90235 0.5403 0.54071 0.0
C2282 C 0.93105 0.55283 0.55397 0.0
C2283 C 0.93308 0.56501 0.53855 0.0
C2284 C 0.91967 0.56436 0.52407 0.0
C2285 C 0.90448 0.55203 0.52512 0.0
C2286 C 0.97296 0.59463 0.51944 0.0
C2287 C 0.97957 0.60358 0.53569 0.0
C2288 C 0.9579 0.58218 0.52038 0.0
C2289 C 0.94906 0.5784 0.5376 0.0
C2290 C 0.95568 0.58744 0.55386 0.0
C2291 C 0.9709 0.59977 0.55292 0.0
H2292 H 0.621 0.71286 0.79615 0.0
H2293 H 0.66908 0.74904 0.78986 0.0
H2294 H 0.64161 0.68552 0.79679 0.0
H2295 H 0.68971 0.72184 0.78952 0.0
H2296 H 0.72353 0.67008 0.80587 0.0
H2297 H 0.70327 0.69774 0.80697 0.0
H2298 H 0.66014 0.667 0.77727 0.0
H2299 H 0.68015 0.63925 0.77725 0.0
C2300 C 0.636 0.71489 0.79484 0.0
C2301 C 0.64349 0.73296 0.79294 0.0
C2302 C 0.64784 0.69926 0.79504 0.0
C2303 C 0.6674 0.70138 0.79302 0.0
C2304 C 0.67481 0.7196 0.79141 0.0
C2305 C 0.66299 0.73521 0.79154 0.0
C2306 C 0.70976 0.66946 0.79946 0.0
C2307 C 0.70334 0.65278 0.79134 0.0
C2308 C 0.69814 0.68525 0.80004 0.0
C2309 C 0.67995 0.68467 0.79228 0.0
C2310 C 0.67383 0.66793 0.78377 0.0
C2311 C 0.68534 0.6521 0.7835 0.0
H2312 H 0.60393 0.43371 0.02371 0.0
H2313 H 0.5754 0.47446 0.05798 0.0
H2314 H 0.57626 0.41358 0.02424 0.0
H2315 H 0.54783 0.45403 0.05945 0.0
H2316 H 0.49546 0.4206 0.0436 0.0
H2317 H 0.52244 0.44152 0.04263 0.0
H2318 H 0.5595 0.39349 0.04417 0.0
H2319 H 0.53234 0.37264 0.04438 0.0
C2320 C 0.59158 0.43834 0.03125 0.0
C2321 C 0.59152 0.45564 0.04055 0.0
C2322 C 0.57582 0.42673 0.03181 0.0
C2323 C 0.55978 0.43203 0.04204 0.0
C2324 C 0.55977 0.44956 0.0512 0.0
C2325 C 0.5755 0.46128 0.0504 0.0
C2326 C 0.50941 0.41456 0.04389 0.0
C2327 C 0.51186 0.39502 0.04391 0.0
C2328 C 0.5249 0.42655 0.04337 0.0
C2329 C 0.54324 0.41927 0.04317 0.0
C2330 C 0.54562 0.39965 0.04381 0.0
C2331 C 0.53009 0.38766 0.04406 0.0
H2332 H 0.81111 0.35348 0.27296 0.0
H2333 H 0.77358 0.32704 0.31225 0.0
H2334 H 0.83115 0.32567 0.27316 0.0
H2335 H 0.79388 0.29936 0.31319 0.0
H2336 H 0.82507 0.24596 0.29522 0.0
H2337 H 0.80439 0.27318 0.29546 0.0
H2338 H 0.85273 0.30976 0.29301 0.0
H2339 H 0.87331 0.2824 0.29224 0.0
C2340 C 0.80718 0.34156 0.28154 0.0
C2341 C 0.79084 0.34211 0.29241 0.0
C2342 C 0.81872 0.32576 0.28188 0.0
C2343 C 0.81424 0.3103 0.29332 0.0
C2344 C 0.79766 0.31088 0.30404 0.0
C2345 C 0.78603 0.32666 0.30354 0.0
C2346 C 0.83124 0.25985 0.29494 0.0
C2347 C 0.85074 0.26214 0.29349 0.0
C2348 C 0.81941 0.27546 0.2951 0.0
C2349 C 0.82686 0.2937 0.29404 0.0
C2350 C 0.84647 0.29592 0.29334 0.0
C2351 C 0.85829 0.28029 0.293 0.0
H2352 H 0.91984 0.47122 0.9344 0.0
H2353 H 0.89428 0.43538 0.97579 0.0
H2354 H 0.94716 0.45044 0.93317 0.0
H2355 H 0.92175 0.41488 0.97526 0.0
H2356 H 0.96235 0.37079 0.95435 0.0
H2357 H 0.93581 0.39239 0.95502 0.0
H2358 H 0.97392 0.43928 0.94972 0.0
H2359 H 0.00032 0.41758 0.94858 0.0
C2360 C 0.92038 0.4591 0.94356 0.0
C2361 C 0.90522 0.45486 0.95531 0.0
C2362 C 0.93596 0.44719 0.94288 0.0
C2363 C 0.93661 0.43086 0.954 0.0
C2364 C 0.92157 0.42708 0.96622 0.0
C2365 C 0.90597 0.43891 0.96675 0.0
C2366 C 0.96499 0.38572 0.95331 0.0
C2367 C 0.98335 0.39254 0.95157 0.0
C2368 C 0.94982 0.39812 0.9538 0.0
C2369 C 0.95272 0.41764 0.95268 0.0
C2370 C 0.97112 0.42437 0.95044 0.0
C2371 C 0.98626 0.41194 0.94979 0.0
H2372 H 0.81518 0.63627 0.21916 0.0
H2373 H 0.77347 0.6696 0.19074 0.0
H2374 H 0.83604 0.66356 0.22077 0.0
H2375 H 0.79445 0.69695 0.19204 0.0
H2376 H 0.84857 0.73201 0.17871 0.0
H2377 H 0.82741 0.70497 0.17751 0.0
H2378 H 0.83485 0.69647 0.23694 0.0
H2379 H 0.85511 0.72384 0.2384 0.0
C2380 C 0.81049 0.64954 0.21343 0.0
C2381 C 0.79276 0.65106 0.20505 0.0
C2382 C 0.82236 0.66509 0.21432 0.0
C2383 C 0.81683 0.6823 0.20649 0.0
C2384 C 0.79906 0.68379 0.19807 0.0
C2385 C 0.78704 0.66828 0.19747 0.0
C2386 C 0.84579 0.72427 0.19149 0.0
C2387 C 0.85414 0.72971 0.20851 0.0
C2388 C 0.83362 0.7089 0.1908 0.0
C2389 C 0.82966 0.6986 0.20711 0.0
C2390 C 0.83798 0.70398 0.22411 0.0
C2391 C 0.84988 0.71952 0.22486 0.0
H2392 H 0.49636 0.57717 0.45157 0.0
H2393 H 0.53362 0.62475 0.45488 0.0
H2394 H 0.52311 0.55597 0.45265 0.0
H2395 H 0.56058 0.60362 0.45535 0.0
H2396 H 0.60351 0.5616 0.4759 0.0
H2397 H 0.576 0.58206 0.47532 0.0
H2398 H 0.54922 0.5445 0.43587 0.0
H2399 H 0.57654 0.52378 0.43726 0.0
C2400 C 0.51035 0.58308 0.45221 0.0
C2401 C 0.51296 0.60257 0.45329 0.0
C2402 C 0.5257 0.57094 0.4528 0.0
C2403 C 0.54406 0.57803 0.45424 0.0
C2404 C 0.54664 0.59762 0.45472 0.0
C2405 C 0.53123 0.60976 0.45434 0.0
C2406 C 0.59152 0.55767 0.46742 0.0
C2407 C 0.59185 0.54113 0.45683 0.0
C2408 C 0.57589 0.56946 0.46684 0.0
C2409 C 0.5604 0.56506 0.45541 0.0
C2410 C 0.56074 0.54825 0.44503 0.0
C2411 C 0.57633 0.53636 0.44579 0.0
H2412 H 0.64016 0.26753 0.67625 0.0
H2413 H 0.6476 0.26472 0.7362 0.0
H2414 H 0.6613 0.29456 0.67494 0.0
H2415 H 0.66903 0.29115 0.735 0.0
H2416 H 0.69128 0.35075 0.72893 0.0
H2417 H 0.66995 0.32395 0.73014 0.0
H2418 H 0.69349 0.30309 0.67825 0.0
H2419 H 0.71425 0.33044 0.67689 0.0
C2420 C 0.64626 0.2728 0.68913 0.0
C2421 C 0.64185 0.26443 0.70637 0.0
C2422 C 0.65849 0.28813 0.6884 0.0
C2423 C 0.66682 0.29513 0.70489 0.0
C2424 C 0.66254 0.28648 0.72208 0.0
C2425 C 0.6502 0.27133 0.7228 0.0
C2426 C 0.6919 0.34027 0.71794 0.0
C2427 C 0.7043 0.3424 0.70289 0.0
C2428 C 0.67977 0.32492 0.71861 0.0
C2429 C 0.67995 0.31133 0.70426 0.0
C2430 C 0.69273 0.31342 0.68935 0.0
C2431 C 0.70475 0.32889 0.68865 0.0
H2432 H 0.5576 0.92147 0.51809 0.0
H2433 H 0.52505 0.893 0.56031 0.0
H2434 H 0.55999 0.94906 0.53842 0.0
H2435 H 0.52657 0.92065 0.58038 0.0
H2436 H 0.5484 0.96383 0.62053 0.0
H2437 H 0.54813 0.93692 0.59938 0.0
H2438 H 0.54338 0.97444 0.55193 0.0
H2439 H 0.5444 0.00123 0.57314 0.0
C2440 C 0.55059 0.92139 0.53157 0.0
C2441 C 0.541 0.90537 0.53769 0.0
C2442 C 0.55195 0.93711 0.54323 0.0
C2443 C 0.54362 0.93705 0.56116 0.0
C2444 C 0.53354 0.92108 0.5669 0.0
C2445 C 0.53242 0.90534 0.55535 0.0
C2446 C 0.54748 0.96623 0.60556 0.0
C2447 C 0.54632 0.9845 0.59843 0.0
C2448 C 0.54717 0.95086 0.59343 0.0
C2449 C 0.54542 0.95347 0.57392 0.0
C2450 C 0.5449 0.97187 0.56681 0.0
C2451 C 0.54547 0.98723 0.57895 0.0
H2452 H 0.04281 0.53381 0.36811 0.0
H2453 H 0.04656 0.4966 0.41571 0.0
H2454 H 0.04288 0.5608 0.3892 0.0
H2455 H 0.04616 0.52341 0.43685 0.0
H2456 H 0.06223 0.57697 0.46859 0.0
H2457 H 0.06347 0.54967 0.4478 0.0
H2458 H 0.02289 0.57602 0.41117 0.0
H2459 H 0.02236 0.60346 0.43171 0.0
C2460 C 0.04357 0.53144 0.38309 0.0
C2461 C 0.04452 0.51316 0.3903 0.0
C2462 C 0.04353 0.54686 0.3952 0.0
C2463 C 0.04431 0.5443 0.41477 0.0
C2464 C 0.04575 0.52596 0.42188 0.0
C2465 C 0.04596 0.51058 0.40977 0.0
C2466 C 0.05343 0.57667 0.4562 0.0
C2467 C 0.04205 0.59203 0.45172 0.0
C2468 C 0.05411 0.5611 0.44428 0.0
C2469 C 0.04335 0.56065 0.42772 0.0
C2470 C 0.03164 0.57601 0.42358 0.0
C2471 C 0.0311 0.5916 0.43542 0.0
H2472 H 0.64329 0.76519 0.69199 0.0
H2473 H 0.66331 0.8171 0.71553 0.0
H2474 H 0.66998 0.76448 0.6705 0.0
H2475 H 0.69054 0.81626 0.69459 0.0
H2476 H 0.72567 0.81923 0.64093 0.0
H2477 H 0.69884 0.82006 0.66235 0.0
H2478 H 0.70282 0.75993 0.66933 0.0
H2479 H 0.72904 0.75919 0.64768 0.0
C2480 C 0.6537 0.77624 0.69272 0.0
C2481 C 0.65152 0.7911 0.70534 0.0
C2482 C 0.66898 0.77588 0.68049 0.0
C2483 C 0.68245 0.79034 0.68077 0.0
C2484 C 0.68031 0.80506 0.69376 0.0
C2485 C 0.66491 0.80547 0.70589 0.0
C2486 C 0.72058 0.80623 0.64692 0.0
C2487 C 0.72905 0.78911 0.64222 0.0
C2488 C 0.70536 0.80668 0.65932 0.0
C2489 C 0.69857 0.79003 0.66752 0.0
C2490 C 0.70732 0.77297 0.66295 0.0
C2491 C 0.72236 0.77252 0.65046 0.0
H2492 H 0.47405 0.38821 0.93414 0.0
H2493 H 0.4403 0.41914 0.97362 0.0
H2494 H 0.47415 0.41519 0.91292 0.0
H2495 H 0.44045 0.44634 0.9525 0.0
H2496 H 0.42672 0.48126 0.89954 0.0
H2497 H 0.4271 0.45449 0.92107 0.0
H2498 H 0.48652 0.44771 0.91147 0.0
H2499 H 0.48621 0.47448 0.8904 0.0
C2500 C 0.46693 0.40097 0.93834 0.0
C2501 C 0.45736 0.40183 0.95548 0.0
C2502 C 0.46696 0.41636 0.92625 0.0
C2503 C 0.45725 0.43285 0.93103 0.0
C2504 C 0.44788 0.43375 0.94837 0.0
C2505 C 0.44797 0.41835 0.96053 0.0
C2506 C 0.43979 0.47388 0.9019 0.0
C2507 C 0.45627 0.47957 0.89273 0.0
C2508 C 0.44005 0.45868 0.91432 0.0
C2509 C 0.45684 0.44895 0.91786 0.0
C2510 C 0.47331 0.45469 0.90872 0.0
C2511 C 0.47306 0.46992 0.89643 0.0
H2512 H 0.26285 0.67952 0.64656 0.0
H2513 H 0.26747 0.73978 0.64212 0.0
H2514 H 0.28948 0.67922 0.66823 0.0
H2515 H 0.29419 0.73939 0.66324 0.0
H2516 H 0.35434 0.72644 0.68482 0.0
H2517 H 0.32732 0.72758 0.66363 0.0
H2518 H 0.29672 0.6908 0.70085 0.0
H2519 H 0.3239 0.68973 0.72198 0.0
C2520 C 0.26972 0.69264 0.64997 0.0
C2521 C 0.26345 0.70957 0.64208 0.0
C2522 C 0.28484 0.69249 0.66246 0.0
C2523 C 0.29395 0.70928 0.66733 0.0
C2524 C 0.28767 0.7262 0.65946 0.0
C2525 C 0.27248 0.72637 0.64712 0.0
C2526 C 0.34167 0.71889 0.68853 0.0
C2527 C 0.34093 0.70819 0.70499 0.0
C2528 C 0.32627 0.7195 0.67646 0.0
C2529 C 0.30997 0.70921 0.68057 0.0
C2530 C 0.30919 0.69871 0.69725 0.0
C2531 C 0.32457 0.69825 0.70941 0.0
H2532 H 0.9283 0.07691 0.02736 0.0
H2533 H 0.9801 0.09914 0.04911 0.0
H2534 H 0.93015 0.05067 0.04945 0.0
H2535 H 0.98177 0.0735 0.07179 0.0
H2536 H 0.98813 0.01568 0.09792 0.0
H2537 H 0.98694 0.04101 0.07523 0.0
H2538 H 0.92673 0.04408 0.0819 0.0
H2539 H 0.92799 0.01817 0.10431 0.0
C2540 C 0.94014 0.076 0.03685 0.0
C2541 C 0.95416 0.08975 0.03658 0.0
C2542 C 0.94112 0.06117 0.04965 0.0
C2543 C 0.95603 0.06001 0.06255 0.0
C2544 C 0.97022 0.07376 0.06193 0.0
C2545 C 0.96931 0.08844 0.049 0.0
C2546 C 0.97468 0.02201 0.09488 0.0
C2547 C 0.95818 0.01523 0.10322 0.0
C2548 C 0.97398 0.03653 0.08176 0.0
C2549 C 0.95674 0.04467 0.0767 0.0
C2550 C 0.94023 0.03796 0.08522 0.0
C2551 C 0.94094 0.02328 0.0982 0.0
H2552 H 0.66044 0.17355 0.78702 0.0
H2553 H 0.64725 0.23139 0.79859 0.0
H2554 H 0.68724 0.17525 0.80841 0.0
H2555 H 0.67364 0.23315 0.82041 0.0
H2556 H 0.73313 0.23484 0.84345 0.0
H2557 H 0.707 0.23328 0.82171 0.0
H2558 H 0.6942 0.17732 0.84131 0.0
H2559 H 0.72082 0.17895 0.86298 0.0
C2560 C 0.66338 0.18662 0.79419 0.0
C2561 C 0.65192 0.20233 0.79134 0.0
C2562 C 0.67857 0.18758 0.80654 0.0
C2563 C 0.68251 0.20428 0.8163 0.0
C2564 C 0.67116 0.22012 0.81301 0.0
C2565 C 0.65605 0.21916 0.80057 0.0
C2566 C 0.72444 0.22243 0.84351 0.0
C2567 C 0.72858 0.20727 0.85535 0.0
C2568 C 0.7095 0.22146 0.83092 0.0
C2569 C 0.69836 0.20524 0.82983 0.0
C2570 C 0.70259 0.18998 0.84165 0.0
C2571 C 0.71768 0.19094 0.85418 0.0
H2572 H 0.77586 0.81299 0.36607 0.0
H2573 H 0.75857 0.76107 0.3404 0.0
H2574 H 0.80263 0.81466 0.34463 0.0
H2575 H 0.78474 0.76284 0.31863 0.0
H2576 H 0.84446 0.76191 0.29528 0.0
H2577 H 0.81768 0.75993 0.31659 0.0
H2578 H 0.81044 0.82008 0.31278 0.0
H2579 H 0.83768 0.8219 0.29209 0.0
C2580 C 0.77789 0.80192 0.35586 0.0
C2581 C 0.76555 0.78665 0.35517 0.0
C2582 C 0.79307 0.80292 0.34347 0.0
C2583 C 0.79593 0.78882 0.3299 0.0
C2584 C 0.7833 0.7737 0.32914 0.0
C2585 C 0.7683 0.77263 0.34165 0.0
C2586 C 0.83695 0.77461 0.29894 0.0
C2587 C 0.84302 0.79204 0.29223 0.0
C2588 C 0.82161 0.77353 0.31109 0.0
C2589 C 0.81194 0.78988 0.31655 0.0
C2590 C 0.81778 0.80726 0.30925 0.0
C2591 C 0.83322 0.80832 0.29726 0.0
H2592 H 0.1747 0.06258 0.33908 0.0
H2593 H 0.16418 0.07982 0.2819 0.0
H2594 H 0.14079 0.06013 0.34437 0.0
H2595 H 0.13056 0.07757 0.2873 0.0
H2596 H 0.07147 0.08931 0.31121 0.0
H2597 H 0.10544 0.09396 0.30807 0.0
H2598 H 0.11513 0.03844 0.33025 0.0
H2599 H 0.08147 0.03368 0.3332 0.0
C2600 C 0.16518 0.06584 0.32769 0.0
C2601 C 0.17206 0.07121 0.31005 0.0
C2602 C 0.14585 0.06447 0.33072 0.0
C2603 C 0.13317 0.06878 0.31625 0.0
C2604 C 0.14007 0.07439 0.29872 0.0
C2605 C 0.15931 0.07546 0.29561 0.0
C2606 C 0.0809 0.07815 0.3154 0.0
C2607 C 0.07386 0.06108 0.32225 0.0
C2608 C 0.10025 0.0808 0.31362 0.0
C2609 C 0.11279 0.06655 0.319 0.0
C2610 C 0.10574 0.04968 0.32619 0.0
C2611 C 0.08647 0.04692 0.32768 0.0
H2612 H 0.18374 0.82758 0.53643 0.0
H2613 H 0.15369 0.82317 0.58887 0.0
H2614 H 0.18579 0.86136 0.54045 0.0
H2615 H 0.15671 0.85684 0.59345 0.0
H2616 H 0.15291 0.92105 0.58709 0.0
H2617 H 0.14825 0.88741 0.58393 0.0
H2618 H 0.20351 0.88218 0.55953 0.0
H2619 H 0.20768 0.91596 0.56166 0.0
C2620 C 0.17741 0.83381 0.54875 0.0
C2621 C 0.16895 0.82259 0.56255 0.0
C2622 C 0.17886 0.85318 0.55121 0.0
C2623 C 0.17198 0.86178 0.56759 0.0
C2624 C 0.1623 0.85072 0.58073 0.0
C2625 C 0.16064 0.83136 0.57814 0.0
C2626 C 0.1641 0.91272 0.58112 0.0
C2627 C 0.18045 0.92128 0.57415 0.0
C2628 C 0.16147 0.89337 0.5794 0.0
C2629 C 0.17529 0.88211 0.57099 0.0
C2630 C 0.19228 0.89051 0.56545 0.0
C2631 C 0.1948 0.90988 0.56696 0.0
H2632 H 0.32369 0.90708 0.83787 0.0
H2633 H 0.32967 0.95903 0.8072 0.0
H2634 H 0.35736 0.90194 0.83576 0.0
H2635 H 0.36342 0.95441 0.80598 0.0
H2636 H 0.41824 0.93201 0.78593 0.0
H2637 H 0.38438 0.93453 0.78909 0.0
H2638 H 0.38784 0.91153 0.84508 0.0
H2639 H 0.42158 0.90804 0.8415 0.0
C2640 C 0.33222 0.91759 0.83097 0.0
C2641 C 0.32391 0.93323 0.82227 0.0
C2642 C 0.35157 0.91466 0.82983 0.0
C2643 C 0.36307 0.9275 0.82024 0.0
C2644 C 0.3549 0.94389 0.81287 0.0
C2645 C 0.33555 0.94669 0.81383 0.0
C2646 C 0.41175 0.9271 0.79876 0.0
C2647 C 0.42269 0.92021 0.81363 0.0
C2648 C 0.39234 0.92882 0.8007 0.0
C2649 C 0.38342 0.92379 0.81757 0.0
C2650 C 0.39421 0.91566 0.83193 0.0
C2651 C 0.41361 0.91375 0.82991 0.0
H2652 H 0.28313 0.07247 0.07516 0.0
H2653 H 0.34226 0.07393 0.08827 0.0
H2654 H 0.28272 0.1065 0.07349 0.0
H2655 H 0.34229 0.10776 0.08498 0.0
H2656 H 0.33319 0.17108 0.08991 0.0
H2657 H 0.33425 0.13738 0.09526 0.0
H2658 H 0.29199 0.12944 0.05243 0.0
H2659 H 0.29001 0.16315 0.04819 0.0
C2660 C 0.29605 0.08004 0.07775 0.0
C2661 C 0.31285 0.0704 0.08129 0.0
C2662 C 0.29591 0.09959 0.07648 0.0
C2663 C 0.31262 0.10998 0.07839 0.0
C2664 C 0.32914 0.10037 0.08328 0.0
C2665 C 0.32917 0.08085 0.08498 0.0
C2666 C 0.32424 0.1621 0.08156 0.0
C2667 C 0.31124 0.16979 0.0689 0.0
C2668 C 0.32485 0.14271 0.0846 0.0
C2669 C 0.31284 0.13057 0.07464 0.0
C2670 C 0.3009 0.1383 0.06095 0.0
C2671 C 0.29998 0.15765 0.05827 0.0
H2672 H 0.07785 0.93489 0.2094 0.0
H2673 H 0.07408 0.90794 0.15527 0.0
H2674 H 0.11174 0.93649 0.20623 0.0
H2675 H 0.10785 0.91064 0.15152 0.0
H2676 H 0.17177 0.90533 0.1584 0.0
H2677 H 0.13801 0.90119 0.16073 0.0
H2678 H 0.13355 0.95459 0.18911 0.0
H2679 H 0.16741 0.95812 0.18783 0.0
C2680 C 0.08424 0.92919 0.19685 0.0
C2681 C 0.07317 0.92169 0.18239 0.0
C2682 C 0.10369 0.93038 0.19489 0.0
C2683 C 0.11254 0.92427 0.17834 0.0
C2684 C 0.10158 0.91561 0.16442 0.0
C2685 C 0.08213 0.91416 0.16652 0.0
C2686 C 0.16359 0.91623 0.16509 0.0
C2687 C 0.17238 0.9318 0.1734 0.0
C2688 C 0.14416 0.91389 0.16634 0.0
C2689 C 0.13303 0.92731 0.17558 0.0
C2690 C 0.14172 0.94362 0.18252 0.0
C2691 C 0.16116 0.9458 0.18152 0.0
H2692 H 0.34036 0.81985 0.43551 0.0
H2693 H 0.28398 0.8317 0.41657 0.0
H2694 H 0.34596 0.8536 0.43932 0.0
H2695 H 0.28965 0.86511 0.42025 0.0
H2696 H 0.31391 0.92415 0.41109 0.0
H2697 H 0.31051 0.8904 0.40556 0.0
H2698 H 0.33224 0.87906 0.46093 0.0
H2699 H 0.33554 0.91258 0.46654 0.0
C2700 C 0.32922 0.82962 0.43217 0.0
C2701 C 0.31171 0.82314 0.4259 0.0
C2702 C 0.33241 0.84887 0.43434 0.0
C2703 C 0.31824 0.86188 0.42998 0.0
C2704 C 0.30086 0.85538 0.4235 0.0
C2705 C 0.29759 0.83622 0.42159 0.0
C2706 C 0.31795 0.91443 0.42205 0.0
C2707 C 0.32481 0.92099 0.43929 0.0
C2708 C 0.31601 0.89517 0.4189 0.0
C2709 C 0.32118 0.8822 0.43283 0.0
C2710 C 0.32835 0.88877 0.44991 0.0
C2711 C 0.33004 0.90797 0.45316 0.0
H2712 H 0.31868 0.04879 0.6674 0.0
H2713 H 0.33251 0.09848 0.69893 0.0
H2714 H 0.35189 0.04212 0.66327 0.0
H2715 H 0.36551 0.09342 0.693 0.0
H2716 H 0.42482 0.07271 0.69517 0.0
H2717 H 0.39154 0.07804 0.70034 0.0
H2718 H 0.37907 0.04773 0.6491 0.0
H2719 H 0.41207 0.04064 0.64554 0.0
C2720 C 0.32892 0.05851 0.67302 0.0
C2721 C 0.32316 0.07412 0.68341 0.0
C2722 C 0.34804 0.05486 0.67054 0.0
C2723 C 0.36177 0.0672 0.67776 0.0
C2724 C 0.35569 0.08317 0.68768 0.0
C2725 C 0.33667 0.08631 0.69084 0.0
C2726 C 0.41482 0.06718 0.68516 0.0
C2727 C 0.42089 0.05634 0.66999 0.0
C2728 C 0.39567 0.07037 0.68793 0.0
C2729 C 0.38224 0.06347 0.67509 0.0
C2730 C 0.38864 0.05292 0.65966 0.0
C2731 C 0.40766 0.04905 0.65741 0.0
H2732 H 0.19153 0.1664 0.95553 0.0
H2733 H 0.16423 0.1706 0.90158 0.0
H2734 H 0.19313 0.1325 0.95204 0.0
H2735 H 0.1667 0.13682 0.89766 0.0
H2736 H 0.15922 0.07311 0.90604 0.0
H2737 H 0.15611 0.10701 0.90802 0.0
H2738 H 0.2108 0.11044 0.93399 0.0
H2739 H 0.21347 0.07645 0.93289 0.0
C2740 C 0.18575 0.1601 0.94298 0.0
C2741 C 0.17803 0.17127 0.9287 0.0
C2742 C 0.18692 0.14067 0.94084 0.0
C2743 C 0.1805 0.13196 0.92435 0.0
C2744 C 0.17184 0.14303 0.91052 0.0
C2745 C 0.1705 0.16245 0.91274 0.0
C2746 C 0.17065 0.08109 0.91206 0.0
C2747 C 0.18638 0.07201 0.91973 0.0
C2748 C 0.1689 0.10058 0.91312 0.0
C2749 C 0.183 0.11144 0.9216 0.0
C2750 C 0.19939 0.10245 0.92793 0.0
C2751 C 0.20105 0.08295 0.92704 0.0
H2752 H 0.03091 0.31752 0.17131 0.0
H2753 H 0.08783 0.33831 0.17188 0.0
H2754 H 0.03198 0.31565 0.13727 0.0
H2755 H 0.08936 0.33528 0.13802 0.0
H2756 H 0.08091 0.33995 0.07466 0.0
H2757 H 0.07972 0.3454 0.10828 0.0
H2758 H 0.04609 0.29538 0.11511 0.0
H2759 H 0.04633 0.29061 0.08138 0.0
C2760 C 0.0436 0.32187 0.16418 0.0
C2761 C 0.05944 0.32763 0.17436 0.0
C2762 C 0.04433 0.32051 0.14466 0.0
C2763 C 0.06096 0.32473 0.1349 0.0
C2764 C 0.07634 0.33182 0.14501 0.0
C2765 C 0.0755 0.33344 0.1645 0.0
C2766 C 0.07331 0.33007 0.08334 0.0
C2767 C 0.06337 0.31507 0.07527 0.0
C2768 C 0.07269 0.33316 0.10267 0.0
C2769 C 0.06243 0.32109 0.11442 0.0
C2770 C 0.05356 0.30536 0.10644 0.0
C2771 C 0.05395 0.30244 0.08709 0.0
H2772 H 0.52671 0.16723 0.9136 0.0
H2773 H 0.58414 0.18372 0.92403 0.0
H2774 H 0.53202 0.16988 0.87993 0.0
H2775 H 0.58932 0.18656 0.8902 0.0
H2776 H 0.57967 0.21295 0.83115 0.0
H2777 H 0.57537 0.20859 0.86469 0.0
H2778 H 0.5531 0.15315 0.85479 0.0
H2779 H 0.55762 0.15738 0.82091 0.0
C2780 C 0.54043 0.17155 0.90871 0.0
C2781 C 0.555 0.17541 0.92143 0.0
C2782 C 0.54349 0.17286 0.88945 0.0
C2783 C 0.56107 0.17833 0.88257 0.0
C2784 C 0.57561 0.18235 0.89524 0.0
C2785 C 0.57265 0.18075 0.91453 0.0
C2786 C 0.57381 0.19982 0.83606 0.0
C2787 C 0.56886 0.18552 0.82342 0.0
C2788 C 0.57152 0.1973 0.85527 0.0
C2789 C 0.56398 0.18054 0.86223 0.0
C2790 C 0.5589 0.16623 0.84966 0.0
C2791 C 0.5615 0.16863 0.83036 0.0
H2792 H 0.9598 0.81427 0.32612 0.0
H2793 H 0.90543 0.84077 0.32241 0.0
H2794 H 0.95627 0.81181 0.35992 0.0
H2795 H 0.9013 0.83713 0.35603 0.0
H2796 H 0.90667 0.83986 0.42015 0.0
H2797 H 0.90967 0.84541 0.38666 0.0
H2798 H 0.9391 0.79271 0.38073 0.0
H2799 H 0.9372 0.78783 0.41438 0.0
C2800 C 0.94714 0.81972 0.33251 0.0
C2801 C 0.93267 0.82725 0.32147 0.0
C2802 C 0.94497 0.81801 0.3519 0.0
C2803 C 0.92821 0.82364 0.36069 0.0
C2804 C 0.91434 0.8325 0.3498 0.0
C2805 C 0.91666 0.83448 0.33044 0.0
C2806 C 0.91374 0.82943 0.4117 0.0
C2807 C 0.92218 0.81368 0.42006 0.0
C2808 C 0.91538 0.83257 0.39242 0.0
C2809 C 0.92512 0.81978 0.38099 0.0
C2810 C 0.93215 0.80324 0.38917 0.0
C2811 C 0.93078 0.80027 0.40847 0.0
H2812 H 0.94457 0.16987 0.17241 0.0
H2813 H 0.89455 0.20137 0.15969 0.0
H2814 H 0.94981 0.16466 0.13912 0.0
H2815 H 0.8982 0.19439 0.12668 0.0
H2816 H 0.91718 0.19468 0.06646 0.0
H2817 H 0.91251 0.20063 0.09972 0.0
H2818 H 0.94294 0.14958 0.11277 0.0
H2819 H 0.94937 0.14526 0.07975 0.0
C2820 C 0.93447 0.17527 0.16241 0.0
C2821 C 0.91919 0.18596 0.16849 0.0
C2822 C 0.93729 0.17215 0.14326 0.0
C2823 C 0.92442 0.179 0.12983 0.0
C2824 C 0.90881 0.18928 0.13624 0.0
C2825 C 0.9065 0.19307 0.15528 0.0
C2826 C 0.92282 0.18485 0.07659 0.0
C2827 C 0.93357 0.16954 0.07067 0.0
C2828 C 0.92004 0.18809 0.09573 0.0
C2829 C 0.9273 0.17561 0.10932 0.0
C2830 C 0.93755 0.15992 0.10307 0.0
C2831 C 0.94102 0.15721 0.08403 0.0
H2832 H 0.40234 0.66062 0.67309 0.0
H2833 H 0.46143 0.67395 0.67445 0.0
H2834 H 0.40259 0.66248 0.63913 0.0
H2835 H 0.46206 0.6744 0.64038 0.0
H2836 H 0.45438 0.69779 0.58277 0.0
H2837 H 0.45237 0.69473 0.61661 0.0
H2838 H 0.41148 0.65037 0.61013 0.0
H2839 H 0.41268 0.65435 0.57623 0.0
C2840 C 0.41548 0.66366 0.66614 0.0
C2841 C 0.43174 0.66773 0.67655 0.0
C2842 C 0.41566 0.66455 0.64657 0.0
C2843 C 0.43224 0.6691 0.63691 0.0
C2844 C 0.44885 0.67158 0.64732 0.0
C2845 C 0.44858 0.67104 0.6669 0.0
C2846 C 0.44473 0.6876 0.5886 0.0
C2847 C 0.43385 0.67618 0.57683 0.0
C2848 C 0.44378 0.68562 0.60803 0.0
C2849 C 0.43216 0.67192 0.6162 0.0
C2850 C 0.42059 0.66108 0.60441 0.0
C2851 C 0.42128 0.66334 0.58493 0.0
H2852 H 0.08899 0.65546 0.42075 0.0
H2853 H 0.06185 0.70954 0.41731 0.0
H2854 H 0.08607 0.6518 0.387 0.0
H2855 H 0.05997 0.70643 0.38343 0.0
H2856 H 0.03759 0.68752 0.32809 0.0
H2857 H 0.04159 0.68898 0.3619 0.0
H2858 H 0.09532 0.66134 0.35679 0.0
H2859 H 0.09075 0.65884 0.32311 0.0
C2860 C 0.0827 0.66673 0.41276 0.0
C2861 C 0.07517 0.68255 0.42182 0.0
C2862 C 0.08112 0.66467 0.39334 0.0
C2863 C 0.0723 0.67859 0.38249 0.0
C2864 C 0.06621 0.69511 0.39141 0.0
C2865 C 0.06757 0.69704 0.41085 0.0
C2866 C 0.05009 0.68141 0.3342 0.0
C2867 C 0.06405 0.67344 0.32282 0.0
C2868 C 0.05253 0.68252 0.35359 0.0
C2869 C 0.06906 0.67582 0.36206 0.0
C2870 C 0.08246 0.66674 0.3508 0.0
C2871 C 0.07988 0.66541 0.33142 0.0
H2872 H 0.46076 0.31057 0.8288 0.0
H2873 H 0.40533 0.33498 0.82693 0.0
H2874 H 0.45891 0.30901 0.86279 0.0
H2875 H 0.40288 0.33217 0.86077 0.0
H2876 H 0.41093 0.33808 0.92418 0.0
H2877 H 0.41223 0.34211 0.89039 0.0
H2878 H 0.44403 0.29066 0.88562 0.0
H2879 H 0.44383 0.2874 0.91953 0.0
C2880 C 0.44819 0.31568 0.83563 0.0
C2881 C 0.43302 0.3225 0.82507 0.0
C2882 C 0.44699 0.31451 0.85515 0.0
C2883 C 0.43051 0.31991 0.86458 0.0
C2884 C 0.41579 0.3278 0.85408 0.0
C2885 C 0.41714 0.32929 0.83458 0.0
C2886 C 0.41817 0.3276 0.91593 0.0
C2887 C 0.4277 0.31269 0.92463 0.0
C2888 C 0.41882 0.32985 0.89646 0.0
C2889 C 0.42865 0.31697 0.8852 0.0
C2890 C 0.43694 0.30127 0.89385 0.0
C2891 C 0.43657 0.29922 0.91332 0.0
H2892 H 0.5785 0.53393 0.83061 0.0
H2893 H 0.56845 0.59042 0.81097 0.0
H2894 H 0.61211 0.53875 0.82765 0.0
H2895 H 0.60242 0.59515 0.80782 0.0
H2896 H 0.66142 0.5822 0.7813 0.0
H2897 H 0.62776 0.58005 0.78658 0.0
H2898 H 0.63778 0.5594 0.84261 0.0
H2899 H 0.6717 0.56172 0.83744 0.0
C2900 C 0.58347 0.54739 0.82559 0.0
C2901 C 0.57083 0.56178 0.82085 0.0
C2902 C 0.60274 0.55017 0.8241 0.0
C2903 C 0.60981 0.56731 0.8176 0.0
C2904 C 0.59724 0.58177 0.81284 0.0
C2905 C 0.57787 0.57908 0.81463 0.0
C2906 C 0.65649 0.57717 0.79477 0.0
C2907 C 0.6692 0.57193 0.80892 0.0
C2908 C 0.63722 0.57615 0.79782 0.0
C2909 C 0.63023 0.56963 0.81499 0.0
C2910 C 0.64288 0.56443 0.82921 0.0
C2911 C 0.66223 0.56573 0.82626 0.0
H2912 H 0.6647 0.41187 0.03241 0.0
H2913 H 0.68437 0.42477 0.08829 0.0
H2914 H 0.66909 0.3786 0.03843 0.0
H2915 H 0.68891 0.39117 0.09425 0.0
H2916 H 0.71709 0.3325 0.08384 0.0
H2917 H 0.71088 0.36592 0.0802 0.0
H2918 H 0.65513 0.35344 0.0601 0.0
H2919 H 0.66125 0.31985 0.06384 0.0
C2920 C 0.67001 0.4076 0.04598 0.0
C2921 C 0.67432 0.42092 0.05986 0.0
C2922 C 0.67235 0.38853 0.04946 0.0
C2923 C 0.67926 0.38238 0.06679 0.0
C2924 C 0.68361 0.39564 0.08073 0.0
C2925 C 0.681 0.41479 0.07734 0.0
C2926 C 0.7035 0.33685 0.07862 0.0
C2927 C 0.68968 0.32357 0.07396 0.0
C2928 C 0.69991 0.35598 0.07673 0.0
C2929 C 0.68254 0.36218 0.06993 0.0
C2930 C 0.66868 0.34895 0.06531 0.0
C2931 C 0.67217 0.32978 0.06744 0.0
H2932 H 0.82314 0.40543 0.33661 0.0
H2933 H 0.82235 0.46395 0.32092 0.0
H2934 H 0.85702 0.40502 0.33386 0.0
H2935 H 0.85641 0.46404 0.31974 0.0
H2936 H 0.91337 0.455 0.29556 0.0
H2937 H 0.87959 0.45359 0.29944 0.0
H2938 H 0.88649 0.41338 0.34438 0.0
H2939 H 0.92026 0.41383 0.33946 0.0
C2940 C 0.83021 0.41831 0.33286 0.0
C2941 C 0.81996 0.43454 0.32832 0.0
C2942 C 0.84976 0.41813 0.33147 0.0
C2943 C 0.85956 0.43436 0.32602 0.0
C2944 C 0.84935 0.45104 0.3232 0.0
C2945 C 0.82978 0.4511 0.32418 0.0
C2946 C 0.90763 0.4456 0.30605 0.0
C2947 C 0.9195 0.43473 0.31737 0.0
C2948 C 0.88824 0.44502 0.30851 0.0
C2949 C 0.8802 0.43382 0.32264 0.0
C2950 C 0.89207 0.4222 0.33335 0.0
C2951 C 0.9115 0.42247 0.33056 0.0
H2952 H 0.83809 0.67311 0.56304 0.0
H2953 H 0.78373 0.66181 0.5874 0.0
H2954 H 0.84357 0.63926 0.56007 0.0
H2955 H 0.78927 0.62828 0.58454 0.0
H2956 H 0.81389 0.569 0.59167 0.0
H2957 H 0.81129 0.60283 0.59739 0.0
H2958 H 0.82764 0.61382 0.54014 0.0
H2959 H 0.8301 0.58031 0.53436 0.0
C2960 C 0.8274 0.66343 0.56781 0.0
C2961 C 0.81042 0.67008 0.57524 0.0
C2962 C 0.83051 0.64412 0.56612 0.0
C2963 C 0.81683 0.63123 0.57213 0.0
C2964 C 0.80011 0.63791 0.57999 0.0
C2965 C 0.79689 0.65713 0.58142 0.0
C2966 C 0.8169 0.57867 0.58035 0.0
C2967 C 0.822 0.57201 0.56254 0.0
C2968 C 0.81544 0.59797 0.58361 0.0
C2969 C 0.81938 0.61087 0.56921 0.0
C2970 C 0.82477 0.60418 0.55154 0.0
C2971 C 0.82595 0.58497 0.5482 0.0
H2972 H 0.67447 0.43353 0.65405 0.0
H2973 H 0.66409 0.4132 0.71021 0.0
H2974 H 0.64054 0.43698 0.64924 0.0
H2975 H 0.6305 0.41646 0.70532 0.0
H2976 H 0.5709 0.40747 0.68193 0.0
H2977 H 0.60477 0.40201 0.68437 0.0
H2978 H 0.61532 0.45825 0.66454 0.0
H2979 H 0.58171 0.46381 0.66227 0.0
C2980 C 0.66498 0.42977 0.6653 0.0
C2981 C 0.67192 0.42328 0.68254 0.0
C2982 C 0.64563 0.43174 0.66257 0.0
C2983 C 0.63298 0.4269 0.67691 0.0
C2984 C 0.63995 0.4201 0.69398 0.0
C2985 C 0.6592 0.41843 0.69681 0.0
C2986 C 0.58048 0.41864 0.67813 0.0
C2987 C 0.57367 0.43611 0.6721 0.0
C2988 C 0.5998 0.41552 0.6795 0.0
C2989 C 0.61258 0.42971 0.67455 0.0
C2990 C 0.60576 0.44703 0.66824 0.0
C2991 C 0.58651 0.45024 0.66715 0.0
H2992 H 0.84182 0.42 0.91071 0.0
H2993 H 0.78867 0.41551 0.93948 0.0
H2994 H 0.84603 0.38625 0.91311 0.0
H2995 H 0.79236 0.38163 0.94095 0.0
H2996 H 0.81233 0.32571 0.96096 0.0
H2997 H 0.81076 0.35967 0.95814 0.0
H2998 H 0.83598 0.3563 0.90312 0.0
H2999 H 0.83852 0.32246 0.90642 0.0
C3000 C 0.83088 0.41179 0.91729 0.0
C3001 C 0.81511 0.42053 0.92529 0.0
C3002 C 0.83325 0.39238 0.91858 0.0
C3003 C 0.81974 0.38122 0.92762 0.0
C3004 C 0.80336 0.38985 0.93445 0.0
C3005 C 0.80109 0.40928 0.93334 0.0
C3006 C 0.81792 0.33224 0.94843 0.0
C3007 C 0.82519 0.32131 0.93375 0.0
C3008 C 0.81675 0.35171 0.94668 0.0
C3009 C 0.82272 0.36071 0.93016 0.0
C3010 C 0.83116 0.34988 0.91601 0.0
C3011 C 0.83252 0.33042 0.91786 0.0
H3012 H 0.91425 0.52954 0.1588 0.0
H3013 H 0.92555 0.58489 0.18083 0.0
H3014 H 0.88071 0.53482 0.16251 0.0
H3015 H 0.89177 0.59006 0.18472 0.0
H3016 H 0.83323 0.57767 0.21164 0.0
H3017 H 0.86669 0.57437 0.20578 0.0
H3018 H 0.85513 0.55688 0.14899 0.0
H3019 H 0.82139 0.56037 0.15475 0.0
C3020 C 0.90957 0.54283 0.16449 0.0
C3021 C 0.92252 0.55678 0.16968 0.0
C3022 C 0.89036 0.54588 0.16643 0.0
C3023 C 0.88372 0.56283 0.17384 0.0
C3024 C 0.89662 0.57683 0.17901 0.0
C3025 C 0.91588 0.57389 0.17679 0.0
C3026 C 0.83777 0.57307 0.19789 0.0
C3027 C 0.82469 0.56913 0.18367 0.0
C3028 C 0.85693 0.57138 0.19452 0.0
C3029 C 0.86342 0.56547 0.17694 0.0
C3030 C 0.8504 0.56143 0.16269 0.0
C3031 C 0.83116 0.56342 0.16598 0.0
H3032 H 0.70626 0.57819 0.44318 0.0
H3033 H 0.65562 0.57293 0.41029 0.0
H3034 H 0.70217 0.61201 0.44403 0.0
H3035 H 0.65085 0.60662 0.41216 0.0
H3036 H 0.65763 0.67034 0.40582 0.0
H3037 H 0.66071 0.63655 0.40304 0.0
H3038 H 0.6828 0.63401 0.45947 0.0
H3039 H 0.68088 0.66799 0.46173 0.0
C3040 C 0.69429 0.58424 0.43604 0.0
C3041 C 0.68106 0.57279 0.427 0.0
C3042 C 0.69177 0.60364 0.43678 0.0
C3043 C 0.67586 0.61205 0.42867 0.0
C3044 C 0.66323 0.60069 0.41864 0.0
C3045 C 0.66593 0.5813 0.41765 0.0
C3046 C 0.6631 0.66258 0.41766 0.0
C3047 C 0.66952 0.67194 0.43379 0.0
C3048 C 0.66475 0.64313 0.41612 0.0
C3049 C 0.67248 0.63254 0.43084 0.0
C3050 C 0.67742 0.64178 0.44757 0.0
C3051 C 0.67603 0.66127 0.449 0.0
H3052 H 0.55939 0.83772 0.67524 0.0
H3053 H 0.57929 0.78167 0.66343 0.0
H3054 H 0.55545 0.84324 0.64152 0.0
H3055 H 0.57548 0.78727 0.62999 0.0
H3056 H 0.58441 0.81232 0.57098 0.0
H3057 H 0.58983 0.80852 0.6047 0.0
H3058 H 0.53406 0.82919 0.61604 0.0
H3059 H 0.52855 0.83287 0.58254 0.0
C3060 C 0.56292 0.82663 0.66548 0.0
C3061 C 0.5695 0.80924 0.67197 0.0
C3062 C 0.56066 0.82977 0.64624 0.0
C3063 C 0.56525 0.81568 0.63322 0.0
C3064 C 0.57204 0.79842 0.63973 0.0
C3065 C 0.57404 0.79519 0.65889 0.0
C3066 C 0.57333 0.81602 0.58069 0.0
C3067 C 0.55602 0.82274 0.57413 0.0
C3068 C 0.57642 0.81385 0.59994 0.0
C3069 C 0.56236 0.81863 0.61291 0.0
C3070 C 0.54518 0.82559 0.60634 0.0
C3071 C 0.542 0.82751 0.58715 0.0
H3072 H 0.91616 0.1757 0.30143 0.0
H3073 H 0.91587 0.134 0.25741 0.0
H3074 H 0.9297 0.15278 0.32302 0.0
H3075 H 0.92908 0.11106 0.27919 0.0
H3076 H 0.98472 0.11454 0.33418 0.0
H3077 H 0.96361 0.13735 0.31974 0.0
H3078 H 0.92201 0.09408 0.31189 0.0
H3079 H 0.94291 0.07127 0.32669 0.0
C3080 C 0.91857 0.16154 0.29648 0.0
C3081 C 0.91514 0.15667 0.27767 0.0
C3082 C 0.92633 0.14849 0.30884 0.0
C3083 C 0.93039 0.13025 0.30271 0.0
C3084 C 0.9259 0.12503 0.28426 0.0
C3085 C 0.91847 0.13817 0.27178 0.0
C3086 C 0.97088 0.11002 0.32984 0.0
C3087 C 0.96551 0.09113 0.33141 0.0
C3088 C 0.95879 0.12306 0.32166 0.0
C3089 C 0.94131 0.11735 0.31463 0.0
C3090 C 0.93548 0.09873 0.31717 0.0
C3091 C 0.94741 0.08575 0.32571 0.0
H3092 H 0.12936 0.73498 0.58353 0.0
H3093 H 0.17274 0.6927 0.58061 0.0
H3094 H 0.1072 0.71307 0.56925 0.0
H3095 H 0.15062 0.67103 0.56597 0.0
H3096 H 0.11331 0.66258 0.50969 0.0
H3097 H 0.13531 0.67644 0.53202 0.0
H3098 H 0.09153 0.67915 0.5737 0.0
H3099 H 0.06956 0.66492 0.5516 0.0
C3100 C 0.13404 0.72089 0.58025 0.0
C3101 C 0.15281 0.71562 0.58305 0.0
C3102 C 0.12135 0.70835 0.57215 0.0
C3103 C 0.12732 0.69047 0.56645 0.0
C3104 C 0.14576 0.68479 0.57023 0.0
C3105 C 0.15835 0.69718 0.57868 0.0
C3106 C 0.10851 0.66568 0.52376 0.0
C3107 C 0.08969 0.6628 0.52883 0.0
C3108 C 0.1211 0.67352 0.53655 0.0
C3109 C 0.115 0.6789 0.55449 0.0
C3110 C 0.09649 0.67512 0.55992 0.0
C3111 C 0.08398 0.66693 0.54727 0.0
H3112 H 0.55276 0.92297 0.83152 0.0
H3113 H 0.50841 0.88167 0.83408 0.0
H3114 H 0.57359 0.89969 0.8175 0.0
H3115 H 0.52946 0.85836 0.82039 0.0
H3116 H 0.58118 0.8621 0.76153 0.0
H3117 H 0.56793 0.88468 0.78363 0.0
H3118 H 0.56241 0.84099 0.82518 0.0
H3119 H 0.57604 0.81841 0.80327 0.0
C3120 C 0.54762 0.90879 0.82964 0.0
C3121 C 0.52886 0.90419 0.83369 0.0
C3122 C 0.55954 0.89554 0.82156 0.0
C3123 C 0.55304 0.87736 0.81781 0.0
C3124 C 0.5348 0.8723 0.82326 0.0
C3125 C 0.52275 0.88565 0.83101 0.0
C3126 C 0.57756 0.85742 0.77552 0.0
C3127 C 0.57951 0.83849 0.78062 0.0
C3128 C 0.57009 0.87033 0.78818 0.0
C3129 C 0.56414 0.86447 0.80603 0.0
C3130 C 0.56691 0.84578 0.81147 0.0
C3131 C 0.57475 0.83293 0.79895 0.0
H3132 H 0.38186 0.33348 0.0107 0.0
H3133 H 0.42362 0.32895 0.05443 0.0
H3134 H 0.35876 0.31882 0.03138 0.0
H3135 H 0.40057 0.31389 0.07485 0.0
H3136 H 0.31936 0.30206 0.07899 0.0
H3137 H 0.3423 0.32345 0.06523 0.0
H3138 H 0.38446 0.28013 0.06801 0.0
H3139 H 0.36146 0.25846 0.0814 0.0
C3140 C 0.38598 0.32974 0.02484 0.0
C3141 C 0.40455 0.33227 0.0309 0.0
C3142 C 0.37277 0.3214 0.03666 0.0
C3143 C 0.37802 0.31517 0.0546 0.0
C3144 C 0.39628 0.31856 0.06104 0.0
C3145 C 0.40939 0.32726 0.04937 0.0
C3146 C 0.33362 0.29717 0.07705 0.0
C3147 C 0.33858 0.2785 0.08114 0.0
C3148 C 0.34667 0.30942 0.06913 0.0
C3149 C 0.36503 0.30336 0.06556 0.0
C3150 C 0.37037 0.28512 0.07077 0.0
C3151 C 0.35721 0.27273 0.07834 0.0
H3152 H 0.91703 0.82005 0.19224 0.0
H3153 H 0.91072 0.8644 0.23307 0.0
H3154 H 0.9315 0.84223 0.17044 0.0
H3155 H 0.92482 0.88657 0.21108 0.0
H3156 H 0.98625 0.88185 0.16263 0.0
H3157 H 0.96437 0.85915 0.17606 0.0
H3158 H 0.92097 0.90132 0.17706 0.0
H3159 H 0.94264 0.924 0.16331 0.0
C3160 C 0.91819 0.83463 0.19634 0.0
C3161 C 0.9129 0.84049 0.21443 0.0
C3162 C 0.92654 0.84726 0.18389 0.0
C3163 C 0.9293 0.86601 0.18916 0.0
C3164 C 0.92271 0.87218 0.20666 0.0
C3165 C 0.91473 0.8595 0.21926 0.0
C3166 C 0.97191 0.88615 0.16526 0.0
C3167 C 0.96624 0.90475 0.16208 0.0
C3168 C 0.95938 0.87314 0.17285 0.0
C3169 C 0.94107 0.87859 0.17766 0.0
C3170 C 0.93505 0.89685 0.1735 0.0
C3171 C 0.94747 0.90977 0.16558 0.0
H3172 H 0.42226 0.66156 0.44449 0.0
H3173 H 0.3827 0.66365 0.49043 0.0
H3174 H 0.39889 0.67546 0.42375 0.0
H3175 H 0.35923 0.67723 0.4694 0.0
H3176 H 0.31851 0.69232 0.4219 0.0
H3177 H 0.34061 0.67073 0.43689 0.0
H3178 H 0.38541 0.71045 0.428 0.0
H3179 H 0.36332 0.73227 0.41346 0.0
C3180 C 0.40843 0.66449 0.45007 0.0
C3181 C 0.4044 0.66172 0.4692 0.0
C3182 C 0.39511 0.67248 0.43816 0.0
C3183 C 0.3774 0.67747 0.44506 0.0
C3184 C 0.37282 0.67339 0.46377 0.0
C3185 C 0.38626 0.6657 0.4758 0.0
C3186 C 0.33316 0.69626 0.42275 0.0
C3187 C 0.33922 0.71401 0.41661 0.0
C3188 C 0.34573 0.68394 0.4314 0.0
C3189 C 0.36461 0.689 0.43358 0.0
C3190 C 0.37091 0.70621 0.42634 0.0
C3191 C 0.35828 0.7187 0.41809 0.0
H3192 H 0.55345 0.06978 0.66593 0.0
H3193 H 0.5082 0.11016 0.666 0.0
H3194 H 0.57444 0.09331 0.67936 0.0
H3195 H 0.52937 0.13372 0.6791 0.0
H3196 H 0.58441 0.13153 0.73462 0.0
H3197 H 0.57063 0.10844 0.71339 0.0
H3198 H 0.56161 0.1517 0.67201 0.0
H3199 H 0.57576 0.17481 0.69306 0.0
C3200 C 0.5481 0.08379 0.66839 0.0
C3201 C 0.52912 0.0881 0.66511 0.0
C3202 C 0.56011 0.09719 0.67608 0.0
C3203 C 0.55346 0.11523 0.68022 0.0
C3204 C 0.53483 0.11991 0.67585 0.0
C3205 C 0.52271 0.10642 0.66849 0.0
C3206 C 0.57994 0.136 0.7208 0.0
C3207 C 0.58101 0.15495 0.71553 0.0
C3208 C 0.57216 0.1228 0.70865 0.0
C3209 C 0.56501 0.12841 0.69118 0.0
C3210 C 0.56702 0.14713 0.68546 0.0
C3211 C 0.57517 0.16028 0.69746 0.0
H3212 H 0.16378 0.30198 0.90251 0.0
H3213 H 0.13938 0.25373 0.93015 0.0
H3214 H 0.14155 0.32245 0.91894 0.0
H3215 H 0.11762 0.27424 0.94656 0.0
H3216 H 0.10695 0.31744 0.99247 0.0
H3217 H 0.12907 0.30158 0.97191 0.0
H3218 H 0.10162 0.32524 0.92349 0.0
H3219 H 0.07904 0.34108 0.94401 0.0
C3220 C 0.1535 0.2957 0.91177 0.0
C3221 C 0.15351 0.27623 0.91519 0.0
C3222 C 0.14085 0.30742 0.92113 0.0
C3223 C 0.12824 0.29984 0.93417 0.0
C3224 C 0.12746 0.28035 0.93672 0.0
C3225 C 0.13986 0.26864 0.92722 0.0
C3226 C 0.10577 0.31966 0.97749 0.0
C3227 C 0.09101 0.33029 0.96988 0.0
C3228 C 0.1184 0.31049 0.96575 0.0
C3229 C 0.11672 0.31201 0.94622 0.0
C3230 C 0.10304 0.32385 0.93855 0.0
C3231 C 0.09018 0.33289 0.95031 0.0
H3232 H 0.25924 0.91171 0.13187 0.0
H3233 H 0.30282 0.91221 0.17405 0.0
H3234 H 0.28105 0.9256 0.10936 0.0
H3235 H 0.32438 0.92644 0.15159 0.0
H3236 H 0.3291 0.94218 0.07076 0.0
H3237 H 0.31429 0.92027 0.09258 0.0
H3238 H 0.32 0.96081 0.13715 0.0
H3239 H 0.33442 0.98295 0.11531 0.0
C3240 C 0.27356 0.91438 0.13621 0.0
C3241 C 0.27924 0.91102 0.15477 0.0
C3242 C 0.28604 0.92225 0.12331 0.0
C3243 C 0.3043 0.92718 0.12886 0.0
C3244 C 0.31034 0.92281 0.14706 0.0
C3245 C 0.29799 0.9146 0.15985 0.0
C3246 C 0.32761 0.94627 0.08531 0.0
C3247 C 0.33279 0.96435 0.09132 0.0
C3248 C 0.31907 0.93375 0.09773 0.0
C3249 C 0.316 0.93892 0.11645 0.0
C3250 C 0.32236 0.95646 0.12278 0.0
C3251 C 0.33053 0.96914 0.11028 0.0
H3252 H 0.26037 0.08444 0.36362 0.0
H3253 H 0.30291 0.07731 0.32102 0.0
H3254 H 0.28126 0.07014 0.38674 0.0
H3255 H 0.32356 0.06263 0.34413 0.0
H3256 H 0.32914 0.05317 0.42563 0.0
H3257 H 0.31532 0.07424 0.4024 0.0
H3258 H 0.31636 0.02975 0.36139 0.0
H3259 H 0.32983 0.00846 0.38467 0.0
C3260 C 0.27431 0.0802 0.35931 0.0
C3261 C 0.27997 0.08187 0.34052 0.0
C3262 C 0.28626 0.07209 0.37253 0.0
C3263 C 0.3039 0.06523 0.36709 0.0
C3264 C 0.30997 0.0678 0.34857 0.0
C3265 C 0.29819 0.07627 0.33542 0.0
C3266 C 0.32676 0.04796 0.41156 0.0
C3267 C 0.33041 0.02911 0.40698 0.0
C3268 C 0.31883 0.06002 0.39833 0.0
C3269 C 0.31482 0.05355 0.38021 0.0
C3270 C 0.31949 0.03507 0.37527 0.0
C3271 C 0.32708 0.02288 0.3886 0.0
H3272 H 0.16288 0.05203 0.57138 0.0
H3273 H 0.1622 0.00757 0.61264 0.0
H3274 H 0.17673 0.07319 0.59443 0.0
H3275 H 0.17573 0.02897 0.63574 0.0
H3276 H 0.23287 0.08271 0.63118 0.0
H3277 H 0.21104 0.06837 0.609 0.0
H3278 H 0.17009 0.06201 0.6531 0.0
H3279 H 0.19172 0.07676 0.67529 0.0
C3280 C 0.16516 0.04691 0.5855 0.0
C3281 C 0.16166 0.02804 0.59015 0.0
C3282 C 0.17314 0.05904 0.59863 0.0
C3283 C 0.17735 0.05262 0.61673 0.0
C3284 C 0.17249 0.03424 0.62186 0.0
C3285 C 0.16483 0.02199 0.60863 0.0
C3286 C 0.21906 0.07865 0.63604 0.0
C3287 C 0.21403 0.08075 0.65496 0.0
C3288 C 0.20655 0.07055 0.62335 0.0
C3289 C 0.18896 0.0641 0.62944 0.0
C3290 C 0.1836 0.0669 0.64815 0.0
C3291 C 0.19595 0.07538 0.66077 0.0
H3292 H 0.16961 0.9428 0.92627 0.0
H3293 H 0.16409 0.98441 0.88251 0.0
H3294 H 0.18329 0.92091 0.90371 0.0
H3295 H 0.1774 0.96233 0.85996 0.0
H3296 H 0.23742 0.91237 0.86317 0.0
H3297 H 0.21614 0.9258 0.88642 0.0
H3298 H 0.17221 0.92854 0.84489 0.0
H3299 H 0.19326 0.91478 0.82167 0.0
C3300 C 0.17081 0.94709 0.91174 0.0
C3301 C 0.16594 0.96539 0.90616 0.0
C3302 C 0.17869 0.93457 0.8989 0.0
C3303 C 0.1814 0.94 0.88019 0.0
C3304 C 0.1753 0.95779 0.87431 0.0
C3305 C 0.16779 0.97044 0.88721 0.0
C3306 C 0.22307 0.91534 0.85914 0.0
C3307 C 0.21709 0.9127 0.84055 0.0
C3308 C 0.21089 0.92294 0.87246 0.0
C3309 C 0.19264 0.92829 0.86733 0.0
C3310 C 0.18626 0.92456 0.84911 0.0
C3311 C 0.19832 0.91663 0.83588 0.0
H3312 H 0.6668 0.19149 0.09173 0.0
H3313 H 0.64019 0.23913 0.06509 0.0
H3314 H 0.64458 0.17046 0.07596 0.0
H3315 H 0.61844 0.21806 0.04934 0.0
H3316 H 0.60959 0.17379 0.00335 0.0
H3317 H 0.63203 0.18929 0.02385 0.0
H3318 H 0.60239 0.16883 0.07242 0.0
H3319 H 0.57949 0.15335 0.05196 0.0
C3320 C 0.65606 0.19751 0.08283 0.0
C3321 C 0.65542 0.21698 0.07947 0.0
C3322 C 0.64341 0.18547 0.07387 0.0
C3323 C 0.63014 0.19277 0.06135 0.0
C3324 C 0.62876 0.21222 0.05886 0.0
C3325 C 0.64118 0.22424 0.06793 0.0
C3326 C 0.60799 0.17216 0.01837 0.0
C3327 C 0.59252 0.16261 0.026 0.0
C3328 C 0.62084 0.18108 0.03006 0.0
C3329 C 0.61863 0.18038 0.04957 0.0
C3330 C 0.60422 0.16952 0.05735 0.0
C3331 C 0.59118 0.16071 0.04563 0.0
H3332 H 0.07517 0.31908 0.30212 0.0
H3333 H 0.08205 0.36264 0.26052 0.0
H3334 H 0.06024 0.34164 0.32324 0.0
H3335 H 0.06758 0.38523 0.28189 0.0
H3336 H 0.05182 0.42318 0.33048 0.0
H3337 H 0.07252 0.39971 0.31669 0.0
H3338 H 0.02715 0.35968 0.31637 0.0
H3339 H 0.00613 0.38326 0.32981 0.0
C3340 C 0.074 0.33357 0.29771 0.0
C3341 C 0.07968 0.33913 0.27964 0.0
C3342 C 0.06539 0.3464 0.30975 0.0
C3343 C 0.06279 0.36506 0.30411 0.0
C3344 C 0.06958 0.3709 0.28657 0.0
C3345 C 0.07778 0.358 0.27435 0.0
C3346 C 0.0463 0.40926 0.32788 0.0
C3347 C 0.02725 0.40513 0.33104 0.0
C3348 C 0.05818 0.39589 0.31995 0.0
C3349 C 0.05135 0.37803 0.31544 0.0
C3350 C 0.03272 0.37339 0.31986 0.0
C3351 C 0.0207 0.38688 0.32746 0.0
H3352 H 0.88089 0.83287 0.50728 0.0
H3353 H 0.92285 0.82962 0.55094 0.0
H3354 H 0.85777 0.81925 0.52859 0.0
H3355 H 0.89974 0.81568 0.57205 0.0
H3356 H 0.86149 0.76058 0.581 0.0
H3357 H 0.88412 0.78218 0.56699 0.0
H3358 H 0.8409 0.82421 0.56156 0.0
H3359 H 0.81827 0.8028 0.57592 0.0
C3360 C 0.88506 0.82964 0.52153 0.0
C3361 C 0.90371 0.83215 0.52737 0.0
C3362 C 0.87182 0.82193 0.53373 0.0
C3363 C 0.87709 0.81634 0.55186 0.0
C3364 C 0.89542 0.81984 0.55809 0.0
C3365 C 0.90858 0.82787 0.54601 0.0
C3366 C 0.85692 0.77457 0.5772 0.0
C3367 C 0.83811 0.77996 0.57943 0.0
C3368 C 0.86987 0.78694 0.5693 0.0
C3369 C 0.86417 0.80479 0.56319 0.0
C3370 C 0.84558 0.81051 0.56616 0.0
C3371 C 0.8327 0.79827 0.57443 0.0
H3372 H 0.0824 0.6323 0.23519 0.0
H3373 H 0.07728 0.67532 0.19275 0.0
H3374 H 0.06871 0.60947 0.21356 0.0
H3375 H 0.06323 0.65252 0.17137 0.0
H3376 H 0.00946 0.61186 0.16224 0.0
H3377 H 0.03004 0.6351 0.17683 0.0
H3378 H 0.07462 0.59425 0.17941 0.0
H3379 H 0.05429 0.57107 0.16444 0.0
C3380 C 0.07867 0.63679 0.22116 0.0
C3381 C 0.0808 0.6556 0.21571 0.0
C3382 C 0.07094 0.62373 0.20879 0.0
C3383 C 0.0649 0.62935 0.19091 0.0
C3384 C 0.06778 0.64793 0.18513 0.0
C3385 C 0.07587 0.6609 0.19735 0.0
C3386 C 0.02378 0.60798 0.16551 0.0
C3387 C 0.03022 0.58964 0.16231 0.0
C3388 C 0.03555 0.62127 0.17377 0.0
C3389 C 0.05381 0.61634 0.17926 0.0
C3390 C 0.06056 0.5983 0.1753 0.0
C3391 C 0.04893 0.58512 0.16668 0.0
H3392 H 0.44218 0.4255 0.66795 0.0
H3393 H 0.48454 0.38227 0.66413 0.0
H3394 H 0.42097 0.40335 0.68324 0.0
H3395 H 0.46304 0.36005 0.67902 0.0
H3396 H 0.41317 0.3645 0.73896 0.0
H3397 H 0.42728 0.38706 0.71729 0.0
H3398 H 0.42832 0.34493 0.67389 0.0
H3399 H 0.41382 0.32246 0.69526 0.0
C3400 C 0.44679 0.41115 0.66989 0.0
C3401 C 0.46509 0.40562 0.66496 0.0
C3402 C 0.43466 0.39855 0.6787 0.0
C3403 C 0.44046 0.38012 0.68229 0.0
C3404 C 0.45825 0.37422 0.67626 0.0
C3405 C 0.47055 0.38691 0.66781 0.0
C3406 C 0.41596 0.3602 0.72467 0.0
C3407 C 0.41251 0.34169 0.71887 0.0
C3408 C 0.42396 0.3731 0.71228 0.0
C3409 C 0.42894 0.36759 0.69404 0.0
C3410 C 0.42463 0.34942 0.68792 0.0
C3411 C 0.41627 0.33663 0.70016 0.0
H3412 H 0.48016 0.61365 0.83486 0.0
H3413 H 0.43941 0.56912 0.82907 0.0
H3414 H 0.45765 0.63586 0.82172 0.0
H3415 H 0.41707 0.59136 0.81557 0.0
H3416 H 0.4101 0.67344 0.805 0.0
H3417 H 0.42386 0.65051 0.82639 0.0
H3418 H 0.4217 0.60852 0.78287 0.0
H3419 H 0.40825 0.63146 0.76128 0.0
C3420 C 0.46627 0.60871 0.83118 0.0
C3421 C 0.46161 0.58964 0.83284 0.0
C3422 C 0.45337 0.62142 0.82376 0.0
C3423 C 0.43571 0.61523 0.81758 0.0
C3424 C 0.43063 0.59641 0.82022 0.0
C3425 C 0.4434 0.58375 0.828 0.0
C3426 C 0.41209 0.65919 0.8001 0.0
C3427 C 0.40834 0.6543 0.78136 0.0
C3428 C 0.42 0.64613 0.81236 0.0
C3429 C 0.4239 0.62786 0.8062 0.0
C3430 C 0.4187 0.62252 0.78797 0.0
C3431 C 0.41111 0.63567 0.77559 0.0
H3432 H 0.92626 0.16666 0.93915 0.0
H3433 H 0.88238 0.15888 0.98024 0.0
H3434 H 0.9036 0.18101 0.91774 0.0
H3435 H 0.85976 0.17287 0.95867 0.0
H3436 H 0.8631 0.23531 0.91162 0.0
H3437 H 0.88633 0.21337 0.92396 0.0
H3438 H 0.8446 0.16952 0.925 0.0
H3439 H 0.82138 0.19129 0.91235 0.0
C3440 C 0.91169 0.1675 0.94339 0.0
C3441 C 0.90608 0.16184 0.96143 0.0
C3442 C 0.89879 0.17575 0.93116 0.0
C3443 C 0.88003 0.17806 0.93663 0.0
C3444 C 0.87415 0.1711 0.95409 0.0
C3445 C 0.88709 0.16321 0.96646 0.0
C3446 C 0.85901 0.22087 0.91401 0.0
C3447 C 0.84038 0.21509 0.91123 0.0
C3448 C 0.87232 0.2083 0.92096 0.0
C3449 C 0.86715 0.18984 0.9255 0.0
C3450 C 0.84886 0.18372 0.92164 0.0
C3451 C 0.83562 0.19619 0.91436 0.0
H3452 H 0.57133 0.82926 0.44228 0.0
H3453 H 0.61153 0.82978 0.48769 0.0
H3454 H 0.5947 0.81486 0.42179 0.0
H3455 H 0.63497 0.81574 0.46695 0.0
H3456 H 0.67559 0.80097 0.4195 0.0
H3457 H 0.65279 0.82218 0.43388 0.0
H3458 H 0.60958 0.78033 0.42721 0.0
H3459 H 0.63239 0.75887 0.41324 0.0
C3460 C 0.58528 0.82676 0.44776 0.0
C3461 C 0.58958 0.83048 0.46665 0.0
C3462 C 0.59858 0.81849 0.43603 0.0
C3463 C 0.61651 0.81422 0.44287 0.0
C3464 C 0.62123 0.81906 0.46136 0.0
C3465 C 0.60782 0.82698 0.47323 0.0
C3466 C 0.66113 0.79644 0.42071 0.0
C3467 C 0.65575 0.77822 0.41538 0.0
C3468 C 0.64817 0.80856 0.429 0.0
C3469 C 0.62955 0.8028 0.43163 0.0
C3470 C 0.62387 0.78508 0.42517 0.0
C3471 C 0.63691 0.77281 0.41727 0.0
H3472 H 0.83065 0.44023 0.5695 0.0
H3473 H 0.83555 0.48179 0.61336 0.0
H3474 H 0.81701 0.41819 0.59194 0.0
H3475 H 0.82222 0.45962 0.63576 0.0
H3476 H 0.80384 0.4133 0.67393 0.0
H3477 H 0.82607 0.42644 0.65142 0.0
H3478 H 0.7841 0.42299 0.60794 0.0
H3479 H 0.76171 0.41015 0.63043 0.0
C3480 C 0.82937 0.44446 0.58403 0.0
C3481 C 0.83394 0.46282 0.58966 0.0
C3482 C 0.82152 0.43186 0.59682 0.0
C3483 C 0.81851 0.43728 0.61549 0.0
C3484 C 0.82453 0.45507 0.62145 0.0
C3485 C 0.83205 0.46779 0.60862 0.0
C3486 C 0.79949 0.41488 0.65946 0.0
C3487 C 0.78094 0.41094 0.65398 0.0
C3488 C 0.81222 0.42243 0.64663 0.0
C3489 C 0.80673 0.42577 0.62804 0.0
C3490 C 0.7887 0.4204 0.62219 0.0
C3491 C 0.77586 0.41318 0.63508 0.0
H3492 H 0.82944 0.55108 0.92321 0.0
H3493 H 0.83003 0.50632 0.8823 0.0
H3494 H 0.8145 0.57176 0.90037 0.0
H3495 H 0.81546 0.52728 0.85937 0.0
H3496 H 0.75836 0.58095 0.86302 0.0
H3497 H 0.77983 0.56641 0.88549 0.0
H3498 H 0.82168 0.56083 0.84215 0.0
H3499 H 0.80048 0.57578 0.81973 0.0
C3500 C 0.82685 0.54579 0.90921 0.0
C3501 C 0.83078 0.527 0.90458 0.0
C3502 C 0.81824 0.55763 0.89621 0.0
C3503 C 0.81384 0.55104 0.87823 0.0
C3504 C 0.81886 0.53267 0.87316 0.0
C3505 C 0.82711 0.52069 0.88628 0.0
C3506 C 0.7723 0.57704 0.85841 0.0
C3507 C 0.77771 0.57943 0.83963 0.0
C3508 C 0.78457 0.56879 0.87125 0.0
C3509 C 0.8023 0.56247 0.86543 0.0
C3510 C 0.80805 0.56558 0.84689 0.0
C3511 C 0.79594 0.57421 0.83414 0.0
H3512 H 0.66754 0.55304 0.06861 0.0
H3513 H 0.6632 0.51004 0.11114 0.0
H3514 H 0.68166 0.57427 0.09154 0.0
H3515 H 0.67696 0.53146 0.13408 0.0
H3516 H 0.73638 0.58261 0.13091 0.0
H3517 H 0.71486 0.56914 0.10789 0.0
H3518 H 0.67195 0.56471 0.15034 0.0
H3519 H 0.69327 0.57853 0.17335 0.0
C3520 C 0.66911 0.5483 0.08296 0.0
C3521 C 0.66443 0.52981 0.08807 0.0
C3522 C 0.67723 0.56044 0.09601 0.0
C3523 C 0.6804 0.55444 0.11448 0.0
C3524 C 0.67451 0.53644 0.11993 0.0
C3525 C 0.66674 0.52417 0.1068 0.0
C3526 C 0.7222 0.57921 0.13521 0.0
C3527 C 0.71657 0.58147 0.15395 0.0
C3528 C 0.70988 0.5716 0.12203 0.0
C3529 C 0.69184 0.56583 0.12744 0.0
C3530 C 0.68583 0.56903 0.1459 0.0
C3531 C 0.69802 0.57699 0.159 0.0
H3532 H 0.69173 0.41636 0.32103 0.0
H3533 H 0.73375 0.41162 0.36449 0.0
H3534 H 0.67029 0.43104 0.34337 0.0
H3535 H 0.71206 0.42591 0.38686 0.0
H3536 H 0.66253 0.48625 0.38273 0.0
H3537 H 0.6763 0.46461 0.35998 0.0
H3538 H 0.67773 0.42106 0.40198 0.0
H3539 H 0.66359 0.44244 0.42467 0.0
C3540 C 0.69619 0.41793 0.33547 0.0
C3541 C 0.71448 0.41298 0.34101 0.0
C3542 C 0.68394 0.4264 0.34818 0.0
C3543 C 0.68961 0.42961 0.36672 0.0
C3544 C 0.70736 0.42344 0.37262 0.0
C3545 C 0.71977 0.41534 0.35983 0.0
C3546 C 0.66533 0.47193 0.38697 0.0
C3547 C 0.66213 0.46611 0.40552 0.0
C3548 C 0.67312 0.45955 0.37395 0.0
C3549 C 0.67812 0.44127 0.37936 0.0
C3550 C 0.67401 0.43512 0.39757 0.0
C3551 C 0.66587 0.44737 0.41048 0.0
H3552 H 0.98964 0.00131 0.1927 0.0
H3553 H 0.01592 0.95267 0.21763 0.0
H3554 H 0.98825 0.01619 0.22367 0.0
H3555 H 0.01434 0.96745 0.24836 0.0
H3556 H 0.98857 0.99309 0.30252 0.0
H3557 H 0.98846 0.97815 0.27153 0.0
H3558 H 0.01308 0.02791 0.24737 0.0
H3559 H 0.01343 0.04273 0.2781 0.0
C3560 C 0.99512 0.99382 0.20473 0.0
C3561 C 0.00302 0.97588 0.20267 0.0
C3562 C 0.99433 0.00232 0.22242 0.0
C3563 C 0.0011 0.99289 0.23838 0.0
C3564 C 0.00884 0.97494 0.23633 0.0
C3565 C 0.00991 0.96658 0.21867 0.0
C3566 C 0.99397 0.0008 0.29059 0.0
C3567 C 0.0011 0.01904 0.29281 0.0
C3568 C 0.99392 0.99226 0.27289 0.0
C3569 C 0.00069 0.00194 0.25708 0.0
C3570 C 0.00761 0.02021 0.25928 0.0
C3571 C 0.00795 0.02861 0.27694 0.0
H3572 H 0.29034 0.76379 0.46758 0.0
H3573 H 0.24137 0.73836 0.4424 0.0
H3574 H 0.27506 0.76332 0.49803 0.0
H3575 H 0.22594 0.73813 0.47318 0.0
H3576 H 0.19973 0.76511 0.52723 0.0
H3577 H 0.21459 0.76362 0.49652 0.0
H3578 H 0.26362 0.73828 0.52139 0.0
H3579 H 0.24869 0.73959 0.55232 0.0
C3580 C 0.27625 0.75816 0.4685 0.0
C3581 C 0.26703 0.75117 0.4525 0.0
C3582 C 0.2676 0.75776 0.48602 0.0
C3583 C 0.2494 0.7506 0.48797 0.0
C3584 C 0.24001 0.74376 0.47201 0.0
C3585 C 0.24881 0.74388 0.45444 0.0
C3586 C 0.21371 0.75927 0.52623 0.0
C3587 C 0.2231 0.7526 0.54227 0.0
C3588 C 0.22211 0.75825 0.50858 0.0
C3589 C 0.24019 0.75078 0.50659 0.0
C3590 C 0.24966 0.74416 0.52259 0.0
C3591 C 0.24113 0.74491 0.54025 0.0
H3592 H 0.52252 0.00101 0.69669 0.0
H3593 H 0.46512 0.01898 0.70409 0.0
H3594 H 0.52213 0.98724 0.72826 0.0
H3595 H 0.46481 0.0055 0.73536 0.0
H3596 H 0.46482 0.96328 0.78305 0.0
H3597 H 0.46588 0.975 0.7511 0.0
H3598 H 0.52033 -0.00066 0.76167 0.0
H3599 H 0.51942 0.98729 0.79386 0.0
C3600 C 0.50976 0.00174 0.7049 0.0
C3601 C 0.49386 0.01107 0.69791 0.0
C3602 C 0.50961 0.99409 0.72303 0.0
C3603 C 0.49348 0.99542 0.73434 0.0
C3604 C 0.47741 0.00413 0.727 0.0
C3605 C 0.47762 0.01189 0.70906 0.0
C3606 C 0.47702 0.97117 0.77866 0.0
C3607 C 0.49204 0.97434 0.79106 0.0
C3608 C 0.4776 0.97793 0.76031 0.0
C3609 C 0.49323 0.988 0.75382 0.0
C3610 C 0.50821 0.99139 0.76622 0.0
C3611 C 0.50758 0.9847 0.7847 0.0
H3612 H 0.23685 0.27318 0.94849 0.0
H3613 H 0.22433 0.21422 0.95488 0.0
H3614 H 0.24988 0.27372 0.98034 0.0
H3615 H 0.23698 0.21484 0.98648 0.0
H3616 H 0.27961 0.21793 0.03353 0.0
H3617 H 0.26736 0.21854 0.00188 0.0
H3618 H 0.23816 0.27022 0.01393 0.0
H3619 H 0.25074 0.26978 0.046 0.0
C3620 C 0.23712 0.26031 0.95656 0.0
C3621 C 0.22958 0.24365 0.94916 0.0
C3622 C 0.24432 0.26068 0.97486 0.0
C3623 C 0.24433 0.24435 0.98595 0.0
C3624 C 0.23728 0.22763 0.97828 0.0
C3625 C 0.23 0.22729 0.96015 0.0
C3626 C 0.27047 0.2294 0.0296 0.0
C3627 C 0.26611 0.24378 0.04239 0.0
C3628 C 0.26342 0.22972 0.01139 0.0
C3629 C 0.25182 0.24443 0.00539 0.0
C3630 C 0.24725 0.25879 0.01814 0.0
C3631 C 0.25426 0.25842 0.03654 0.0
H3632 H 0.22035 0.01703 0.95334 0.0
H3633 H 0.19512 0.99289 0.00291 0.0
H3634 H 0.25084 0.01688 0.96866 0.0
H3635 H 0.22589 0.99293 0.01834 0.0
H3636 H 0.28007 0.019 0.04436 0.0
H3637 H 0.24947 0.01845 0.02916 0.0
H3638 H 0.27395 0.99171 0.9807 0.0
H3639 H 0.30473 0.99205 0.99598 0.0
C3640 C 0.22126 0.01181 0.96758 0.0
C3641 C 0.20525 0.00507 0.97697 0.0
C3642 C 0.23879 0.01158 0.97626 0.0
C3643 C 0.24072 0.00485 0.99462 0.0
C3644 C 0.22474 0.99827 0.00416 0.0
C3645 C 0.20717 0.99821 0.99534 0.0
C3646 C 0.27902 0.0131 0.03041 0.0
C3647 C 0.29489 0.00565 0.02133 0.0
C3648 C 0.26143 0.01263 0.02181 0.0
C3649 C 0.25935 0.00497 0.00383 0.0
C3650 C 0.27521 0.99776 0.99458 0.0
C3651 C 0.2928 0.99794 0.00331 0.0
H3652 H 0.2334 0.02809 0.29177 0.0
H3653 H 0.25861 0.05257 0.24235 0.0
H3654 H 0.2342 0.99732 0.27709 0.0
H3655 H 0.25917 0.0215 0.22753 0.0
H3656 H 0.2316 0.96726 0.20222 0.0
H3657 H 0.23344 0.99814 0.21669 0.0
H3658 H 0.25921 0.97371 0.26572 0.0
H3659 H 0.25758 0.9426 0.25115 0.0
C3660 C 0.23907 0.02694 0.27772 0.0
C3661 C 0.24586 0.04283 0.26817 0.0
C3662 C 0.23967 0.00925 0.26941 0.0
C3663 C 0.24681 0.00704 0.25124 0.0
C3664 C 0.25355 0.02288 0.24157 0.0
C3665 C 0.25325 0.04062 0.25004 0.0
C3666 C 0.23763 0.9684 0.21612 0.0
C3667 C 0.24432 0.95242 0.22561 0.0
C3668 C 0.23884 0.98614 0.22429 0.0
C3669 C 0.24652 0.9883 0.24225 0.0
C3670 C 0.25318 0.97238 0.25184 0.0
C3671 C 0.25225 0.95461 0.24352 0.0
H3672 H 0.21235 0.96388 0.53119 0.0
H3673 H 0.20114 0.01843 0.50724 0.0
H3674 H 0.24432 0.96521 0.51948 0.0
H3675 H 0.23332 0.01962 0.49523 0.0
H3676 H 0.29833 0.02235 0.49365 0.0
H3677 H 0.26675 0.02166 0.5074 0.0
H3678 H 0.26005 0.96436 0.48891 0.0
H3679 H 0.29132 0.96498 0.47543 0.0
C3680 C 0.21665 0.97612 0.52331 0.0
C3681 C 0.20414 0.99104 0.52015 0.0
C3682 C 0.23501 0.97686 0.51656 0.0
C3683 C 0.24139 0.99256 0.50652 0.0
C3684 C 0.22887 0.00744 0.50315 0.0
C3685 C 0.21038 0.00665 0.50981 0.0
C3686 C 0.2902 0.00953 0.49286 0.0
C3687 C 0.2973 0.99373 0.48346 0.0
C3688 C 0.27206 0.00921 0.5005 0.0
C3689 C 0.26087 0.99299 0.49911 0.0
C3690 C 0.26832 0.97703 0.49033 0.0
C3691 C 0.28626 0.97741 0.48257 0.0
H3692 H 0.26436 0.03205 0.70521 0.0
H3693 H 0.23738 0.05659 0.75366 0.0
H3694 H 0.26362 0.00145 0.72013 0.0
H3695 H 0.23696 0.0256 0.76879 0.0
H3696 H 0.26437 0.9707 0.79433 0.0
H3697 H 0.26276 0.00184 0.78026 0.0
H3698 H 0.23764 0.97813 0.73057 0.0
H3699 H 0.23899 0.94682 0.74472 0.0
C3700 C 0.25837 0.03097 0.71913 0.0
C3701 C 0.25097 0.04684 0.72829 0.0
C3702 C 0.25781 0.01336 0.72757 0.0
C3703 C 0.25012 0.01115 0.74551 0.0
C3704 C 0.24298 0.02698 0.75491 0.0
C3705 C 0.24322 0.04467 0.74628 0.0
C3706 C 0.25851 0.97207 0.78038 0.0
C3707 C 0.25194 0.95625 0.77055 0.0
C3708 C 0.25743 0.98995 0.77245 0.0
C3709 C 0.25004 0.99237 0.75439 0.0
C3710 C 0.24345 0.9766 0.74452 0.0
C3711 C 0.24422 0.95871 0.7526 0.0
H3712 H 0.03993 0.27756 0.01385 0.0
H3713 H 0.99229 0.30072 0.98433 0.0
H3714 H 0.02633 0.24638 0.01164 0.0
H3715 H 0.97847 0.26918 0.98242 0.0
H3716 H 0.95279 0.21421 0.00894 0.0
H3717 H 0.96644 0.24548 0.00792 0.0
H3718 H 0.01761 0.22252 0.98518 0.0
H3719 H 0.00381 0.19095 0.98587 0.0
C3720 C 0.02648 0.27603 0.00696 0.0
C3721 C 0.0171 0.29168 -0.00062 0.0
C3722 C 0.01881 0.2581 0.00555 0.0
C3723 C 0.00144 0.25538 0.99679 0.0
C3724 C 0.99193 0.27096 0.98926 0.0
C3725 C -0.0002 0.28896 0.99035 0.0
C3726 C 0.96698 0.21574 0.00373 0.0
C3727 C 0.97729 0.20004 0.99761 0.0
C3728 C 0.97468 0.23371 0.00298 0.0
C3729 C 0.99299 0.2364 0.99638 0.0
C3730 C 0.00342 0.22076 0.99033 0.0
C3731 C 0.99556 0.20274 0.99075 0.0
H3732 H 0.49198 0.19193 0.0131 0.0
H3733 H 0.5411 0.21639 0.98731 0.0
H3734 H 0.47773 0.2233 0.01504 0.0
H3735 H 0.52707 0.24735 0.98951 0.0
H3736 H 0.50224 0.30236 0.01249 0.0
H3737 H 0.51628 0.27099 0.01477 0.0
H3738 H 0.46683 0.24693 0.98947 0.0
H3739 H 0.45293 0.27798 0.98696 0.0
C3740 C 0.49975 0.20395 0.00797 0.0
C3741 C 0.51755 0.20165 -0.00012 0.0
C3742 C 0.49162 0.22185 0.00907 0.0
C3743 C 0.50138 0.23773 0.00249 0.0
C3744 C 0.51933 0.23542 0.99487 0.0
C3745 C 0.52726 0.21761 0.99345 0.0
C3746 C 0.4944 0.29036 0.00744 0.0
C3747 C 0.47659 0.29271 -0.00065 0.0
C3748 C 0.5024 0.27245 0.00877 0.0
C3749 C 0.49255 0.25655 0.00239 0.0
C3750 C 0.47462 0.25889 0.99469 0.0
C3751 C 0.46679 0.27674 0.99306 0.0
H3752 H 0.95533 0.22258 0.21231 0.0
H3753 H 0.94704 0.24313 0.2687 0.0
H3754 H 0.98689 0.23546 0.21214 0.0
H3755 H 0.97886 0.25626 0.26844 0.0
H3756 H 0.04422 0.25631 0.26742 0.0
H3757 H 0.01222 0.24369 0.26782 0.0
H3758 H 0.00278 0.26603 0.21232 0.0
H3759 H 0.03453 0.27837 0.2118 0.0
C3760 C 0.96017 0.23009 0.2246 0.0
C3761 C 0.94867 0.23184 0.24053 0.0
C3762 C 0.97827 0.23749 0.22448 0.0
C3763 C 0.98542 0.24674 0.24032 0.0
C3764 C 0.97379 0.24896 0.25612 0.0
C3765 C 0.95552 0.24168 0.25618 0.0
C3766 C 0.03538 0.25824 0.25522 0.0
C3767 C 0.04193 0.26831 0.23958 0.0
C3768 C 0.017 0.25125 0.25555 0.0
C3769 C 0.00494 0.25401 0.24017 0.0
C3770 C 0.01173 0.2636 0.22436 0.0
C3771 C 0.02995 0.27068 0.22408 0.0
H3772 H 0.9933 0.69162 0.50241 0.0
H3773 H 0.04243 0.71697 0.4775 0.0
H3774 H 0.97805 0.72246 0.50321 0.0
H3775 H 0.02729 0.74755 0.47849 0.0
H3776 H 0.00069 0.80146 0.50366 0.0
H3777 H 0.01578 0.77055 0.50407 0.0
H3778 H 0.96679 0.7462 0.47814 0.0
H3779 H 0.9518 0.77687 0.47754 0.0
C3780 C 0.00081 0.70372 0.49709 0.0
C3781 C 0.01901 0.70181 0.48977 0.0
C3782 C 0.9921 0.72132 0.49754 0.0
C3783 C 0.00157 0.73736 0.491 0.0
C3784 C 0.01976 0.73546 0.4838 0.0
C3785 C 0.02833 0.71788 0.48307 0.0
C3786 C 0.99318 0.78951 0.49803 0.0
C3787 C 0.97512 0.79166 0.49044 0.0
C3788 C 0.00181 0.77186 0.49824 0.0
C3789 C 0.99239 0.75601 0.49119 0.0
C3790 C 0.97429 0.75814 0.48382 0.0
C3791 C 0.96581 0.77577 0.48332 0.0
H3792 H 0.52017 0.79011 0.52883 0.0
H3793 H 0.50417 0.79737 0.47084 0.0
H3794 H 0.50708 0.75867 0.52865 0.0
H3795 H 0.4908 0.76558 0.47072 0.0
H3796 H 0.491 0.69947 0.47465 0.0
H3797 H 0.50308 0.73171 0.47349 0.0
H3798 H 0.47609 0.74364 0.52635 0.0
H3799 H 0.46428 0.71181 0.52766 0.0
C3800 C 0.51361 0.78506 0.51608 0.0
C3801 C 0.51316 0.79624 0.49985 0.0
C3802 C 0.5061 0.76703 0.51599 0.0
C3803 C 0.49801 0.75962 0.49964 0.0
C3804 C 0.49715 0.77089 0.48346 0.0
C3805 C 0.50455 0.78913 0.4836 0.0
C3806 C 0.48783 0.70895 0.48609 0.0
C3807 C 0.47677 0.70299 0.5013 0.0
C3808 C 0.49455 0.72744 0.48531 0.0
C3809 C 0.49048 0.7402 0.49981 0.0
C3810 C 0.47959 0.73412 0.51504 0.0
C3811 C 0.47282 0.71582 0.51576 0.0
H3812 H 0.05292 0.75327 0.2404 0.0
H3813 H 0.0285 0.70435 0.26662 0.0
H3814 H 0.02198 0.76835 0.24019 0.0
H3815 H 0.99785 0.71931 0.26624 0.0
H3816 H 0.94326 0.7449 0.24156 0.0
H3817 H 0.97428 0.7301 0.24103 0.0
H3818 H -0.00143 0.77988 0.26545 0.0
H3819 H 0.96775 0.79461 0.26616 0.0
C3820 C 0.04101 0.74578 0.24614 0.0
C3821 C 0.04321 0.72768 0.25364 0.0
C3822 C 0.02335 0.75439 0.24604 0.0
C3823 C 0.00754 0.74492 0.25312 0.0
C3824 C 0.00975 0.72684 0.26053 0.0
C3825 C 0.02738 0.71838 0.2609 0.0
C3826 C 0.95521 0.75264 0.24687 0.0
C3827 C 0.953 0.77086 0.25403 0.0
C3828 C 0.97293 0.74417 0.24658 0.0
C3829 C 0.9888 0.75391 0.25313 0.0
C3830 C 0.9866 0.77214 0.26016 0.0
C3831 C 0.9689 0.78047 0.26072 0.0
H3832 H 0.5274 0.20317 0.76209 0.0
H3833 H 0.55223 0.25348 0.73907 0.0
H3834 H 0.49669 0.21795 0.76161 0.0
H3835 H 0.52119 0.26841 0.73881 0.0
H3836 H 0.46688 0.29286 0.76682 0.0
H3837 H 0.4977 0.27835 0.76464 0.0
H3838 H 0.47323 0.23031 0.73712 0.0
H3839 H 0.44215 0.24491 0.73914 0.0
C3840 C 0.52633 0.21743 0.75696 0.0
C3841 C 0.54232 0.22721 0.75071 0.0
C3842 C 0.50867 0.22581 0.75654 0.0
C3843 C 0.50656 0.24426 0.75011 0.0
C3844 C 0.52248 0.25414 0.74388 0.0
C3845 C 0.54021 0.24562 0.74401 0.0
C3846 C 0.46798 0.27915 0.76037 0.0
C3847 C 0.452 0.26994 0.7533 0.0
C3848 C 0.4857 0.27097 0.75894 0.0
C3849 C 0.48785 0.25328 0.75064 0.0
C3850 C 0.47192 0.24397 0.74363 0.0
C3851 C 0.45416 0.2523 0.74479 0.0
H3852 H 0.5137 0.4557 0.71537 0.0
H3853 H 0.48472 0.50334 0.69146 0.0
H3854 H 0.51192 0.46997 0.74625 0.0
H3855 H 0.4832 0.51777 0.72268 0.0
H3856 H 0.50874 0.54423 0.77743 0.0
H3857 H 0.50787 0.53023 0.74633 0.0
H3858 H 0.48603 0.47893 0.76993 0.0
H3859 H 0.48667 0.49303 0.8013 0.0
C3860 C 0.50703 0.46929 0.71665 0.0
C3861 C 0.49942 0.47844 0.70088 0.0
C3862 C 0.50587 0.47735 0.73442 0.0
C3863 C 0.49732 0.49487 0.73686 0.0
C3864 C 0.48988 0.50421 0.72113 0.0
C3865 C 0.49076 0.49598 0.7033 0.0
C3866 C 0.50374 0.52994 0.77607 0.0
C3867 C 0.49789 0.51967 0.79189 0.0
C3868 C 0.50308 0.52203 0.75819 0.0
C3869 C 0.49684 0.50355 0.75573 0.0
C3870 C 0.49097 0.49321 0.77149 0.0
C3871 C 0.49132 0.50126 0.78941 0.0
H3872 H 0.72647 0.27859 0.04173 0.0
H3873 H 0.7419 0.22031 0.0479 0.0
H3874 H 0.73978 0.27899 0.01046 0.0
H3875 H 0.75564 0.2208 0.01629 0.0
H3876 H 0.75649 0.22516 0.95071 0.0
H3877 H 0.74425 0.22376 0.98282 0.0
H3878 H 0.76993 0.27731 0.99479 0.0
H3879 H 0.7817 0.2789 0.96293 0.0
C3880 C 0.73298 0.26589 0.0365 0.0
C3881 C 0.73312 0.2494 0.04732 0.0
C3882 C 0.74066 0.26615 0.01854 0.0
C3883 C 0.74869 0.24991 0.01083 0.0
C3884 C 0.74933 0.23348 0.02179 0.0
C3885 C 0.74171 0.23326 0.03995 0.0
C3886 C 0.7593 0.23671 0.96016 0.0
C3887 C 0.77005 0.25216 0.95422 0.0
C3888 C 0.75252 0.23579 0.97861 0.0
C3889 C 0.75622 0.25037 0.99139 0.0
C3890 C 0.76671 0.26589 0.9853 0.0
C3891 C 0.77352 0.26678 0.96699 0.0
H3892 H 0.96833 0.46578 0.28174 0.0
H3893 H 0.02186 0.49164 0.29368 0.0
H3894 H 0.96947 0.47778 0.24997 0.0
H3895 H 0.02289 0.50387 0.2615 0.0
H3896 H 0.02501 0.50454 0.19578 0.0
H3897 H 0.02513 0.49135 0.22762 0.0
H3898 H 0.96766 0.50898 0.23499 0.0
H3899 H 0.96747 0.52193 0.2035 0.0
C3900 C 0.98031 0.47418 0.27766 0.0
C3901 C 0.99497 0.47782 0.29035 0.0
C3902 C 0.98094 0.48105 0.25939 0.0
C3903 C 0.99628 0.49172 0.25322 0.0
C3904 C 0.01097 0.49551 0.26585 0.0
C3905 C 0.01028 0.48871 0.28431 0.0
C3906 C 0.01234 0.50529 0.20413 0.0
C3907 C 0.99622 0.51423 0.19713 0.0
C3908 C 0.01249 0.49797 0.22241 0.0
C3909 C 0.99644 0.49924 0.23381 0.0
C3910 C 0.98021 0.50769 0.22653 0.0
C3911 C 0.98012 0.51512 0.20846 0.0
H3912 H 0.77487 0.71235 0.5385 0.0
H3913 H 0.75239 0.76802 0.54681 0.0
H3914 H 0.76164 0.7116 0.50706 0.0
H3915 H 0.73903 0.76721 0.51512 0.0
H3916 H 0.73919 0.7662 0.44986 0.0
H3917 H 0.75204 0.76678 0.48171 0.0
H3918 H 0.73045 0.71103 0.49142 0.0
H3919 H 0.71774 0.71037 0.45974 0.0
C3920 C 0.7669 0.72436 0.53369 0.0
C3921 C 0.76469 0.74026 0.54514 0.0
C3922 C 0.7593 0.7239 0.51567 0.0
C3923 C 0.74945 0.7394 0.50857 0.0
C3924 C 0.74679 0.75516 0.52016 0.0
C3925 C 0.75423 0.75553 0.53835 0.0
C3926 C 0.73745 0.75397 0.45871 0.0
C3927 C 0.72746 0.73824 0.45227 0.0
C3928 C 0.74458 0.75441 0.47701 0.0
C3929 C 0.74208 0.73902 0.4891 0.0
C3930 C 0.73263 0.72308 0.48242 0.0
C3931 C 0.72535 0.72272 0.46426 0.0
H3932 H 0.80184 0.48686 0.49315 0.0
H3933 H 0.7781 0.51106 0.54341 0.0
H3934 H 0.77052 0.48617 0.47893 0.0
H3935 H 0.74703 0.51015 0.52929 0.0
H3936 H 0.6919 0.48682 0.50332 0.0
H3937 H 0.72312 0.48545 0.5178 0.0
H3938 H 0.74708 0.51163 0.46877 0.0
H3939 H 0.71619 0.51318 0.45442 0.0
C3940 C 0.78999 0.49199 0.50115 0.0
C3941 C 0.7925 0.49913 0.51934 0.0
C3942 C 0.7721 0.4916 0.49303 0.0
C3943 C 0.75637 0.49803 0.50308 0.0
C3944 C 0.75886 0.50492 0.52132 0.0
C3945 C 0.77672 0.50559 0.52931 0.0
C3946 C 0.70384 0.4923 0.49569 0.0
C3947 C 0.70152 0.50024 0.4778 0.0
C3948 C 0.72167 0.49153 0.50396 0.0
C3949 C 0.7375 0.49835 0.49433 0.0
C3950 C 0.73517 0.50609 0.47641 0.0
C3951 C 0.7174 0.50714 0.46831 0.0
H3952 H 0.7296 0.52841 0.78944 0.0
H3953 H 0.75767 0.55297 0.74162 0.0
H3954 H 0.73133 0.49767 0.77483 0.0
H3955 H 0.75916 0.52189 0.72685 0.0
H3956 H 0.7337 0.4671 0.70027 0.0
H3957 H 0.73445 0.49812 0.71453 0.0
H3958 H 0.75733 0.47431 0.76527 0.0
H3959 H 0.75682 0.44305 0.75091 0.0
C3960 C 0.73606 0.52729 0.77574 0.0
C3961 C 0.74343 0.54321 0.76665 0.0
C3962 C 0.7372 0.50961 0.76748 0.0
C3963 C 0.74548 0.5074 0.74981 0.0
C3964 C 0.75268 0.52326 0.74052 0.0
C3965 C 0.75183 0.54101 0.74895 0.0
C3966 C 0.7389 0.46841 0.71448 0.0
C3967 C 0.74509 0.45256 0.72452 0.0
C3968 C 0.73948 0.48623 0.72255 0.0
C3969 C 0.74599 0.4886 0.74095 0.0
C3970 C 0.75219 0.47281 0.75105 0.0
C3971 C 0.75191 0.45496 0.74285 0.0
H3972 H 0.78864 0.46246 0.97125 0.0
H3973 H 0.79691 0.51999 0.9884 0.0
H3974 H 0.75697 0.46315 0.9838 0.0
H3975 H 0.76502 0.52058 0.0013 0.0
H3976 H 0.6996 0.51945 0.00205 0.0
H3977 H 0.73154 0.51929 0.98918 0.0
H3978 H 0.74127 0.46501 0.01425 0.0
H3979 H 0.70963 0.46504 0.02682 0.0
C3980 C 0.78376 0.47522 0.97789 0.0
C3981 C 0.79531 0.49118 0.97881 0.0
C3982 C 0.7656 0.47559 0.98513 0.0
C3983 C 0.75844 0.49196 0.99342 0.0
C3984 C 0.77008 0.50784 0.99475 0.0
C3985 C 0.78841 0.50742 0.98761 0.0
C3986 C 0.7085 0.5074 0.00455 0.0
C3987 C 0.70207 0.49226 0.01543 0.0
C3988 C 0.72684 0.50741 0.9974 0.0
C3989 C 0.73895 0.49218 0.00081 0.0
C3990 C 0.73228 0.47689 0.01127 0.0
C3991 C 0.71412 0.47694 0.0185 0.0
H3992 H 0.76541 0.46707 0.29326 0.0
H3993 H 0.73877 0.44208 0.24487 0.0
H3994 H 0.76392 0.49776 0.27834 0.0
H3995 H 0.73749 0.473 0.22985 0.0
H3996 H 0.76312 0.52708 0.20294 0.0
H3997 H 0.76244 0.49643 0.21793 0.0
H3998 H 0.73818 0.52113 0.26757 0.0
H3999 H 0.73862 0.55206 0.25244 0.0
C4000 C 0.75935 0.46808 0.27937 0.0
C4001 C 0.75232 0.45207 0.27018 0.0
C4002 C 0.75833 0.48572 0.27094 0.0
C4003 C 0.75052 0.48775 0.25301 0.0
C4004 C 0.74363 0.47178 0.24369 0.0
C4005 C 0.74436 0.45411 0.25227 0.0
C4006 C 0.75763 0.52606 0.21707 0.0
C4007 C 0.751 0.54206 0.22655 0.0
C4008 C 0.75711 0.50844 0.22556 0.0
C4009 C 0.75021 0.50641 0.24385 0.0
C4010 C 0.74363 0.52236 0.25344 0.0
C4011 C 0.74385 0.54002 0.2448 0.0
H4012 H 0.46521 0.7007 0.73257 0.0
H4013 H 0.44173 0.75039 0.75815 0.0
H4014 H 0.49636 0.71468 0.73379 0.0
H4015 H 0.47309 0.76446 0.75916 0.0
H4016 H 0.52735 0.78954 0.73263 0.0
H4017 H 0.49649 0.77512 0.73368 0.0
H4018 H 0.52034 0.72558 0.75902 0.0
H4019 H 0.55154 0.74016 0.75823 0.0
C4020 C 0.46666 0.71466 0.73837 0.0
C4021 C 0.45093 0.72451 0.74512 0.0
C4022 C 0.48456 0.72255 0.73923 0.0
C4023 C 0.48713 0.74059 0.74661 0.0
C4024 C 0.47145 0.75052 0.75335 0.0
C4025 C 0.45353 0.74249 0.75277 0.0
C4026 C 0.52613 0.77554 0.73841 0.0
C4027 C 0.54198 0.76595 0.74528 0.0
C4028 C 0.50837 0.76738 0.73915 0.0
C4029 C 0.50601 0.74931 0.74652 0.0
C4030 C 0.52182 0.73955 0.75323 0.0
C4031 C 0.53964 0.74788 0.75279 0.0
loop_
_geom_bond_atom_site_label_1
_geom_bond_atom_site_label_2
_geom_bond_distance
_geom_bond_site_symmetry_2
_ccdc_geom_bond_type
Co0 O3 1.970 . S
Co0 N17 1.989 . S
Co0 O25 1.967 1_455 S
Co0 O32 1.920 . S
Co1 O4 1.966 . S
Co1 N10 2.022 . S
Co1 N18 1.993 1_655 S
Co1 O26 1.941 . S
C2 O3 1.258 . S
C2 O4 1.263 1_455 S
O3 Co0 1.970 . S
O3 C2 1.258 . S
O4 Co1 1.966 . S
O4 C2 1.263 1_655 S
C5 O6 1.235 . S
C5 O32 1.289 . S
O6 C5 1.235 . S
C7 C9 1.400 . S
C7 N10 1.351 . S
C7 C12 1.501 1_545 S
C8 C9 1.387 . S
C8 N11 1.341 . S
C9 C7 1.400 . S
C9 C8 1.387 . S
N10 Co1 2.022 . S
N10 C7 1.351 . S
N10 N11 1.365 . S
N11 C8 1.341 . S
N11 N10 1.365 . S
N11 H31 0.862 . S
C12 C7 1.501 1_565 S
C12 H13 0.961 1_565 S
C12 H14 0.961 . S
C12 H15 0.960 . S
H13 C12 0.961 1_545 S
H14 C12 0.961 . S
H15 C12 0.960 . S
C16 N17 1.342 . S
C16 C20 1.401 . S
C16 C21 1.499 . S
N17 Co0 1.989 . S
N17 C16 1.342 . S
N17 N18 1.388 . S
N18 Co1 1.993 1_455 S
N18 N17 1.388 . S
N18 C19 1.346 . S
C19 N18 1.346 . S
C19 C20 1.396 . S
C19 C29 1.478 1_455 S
C20 C16 1.401 . S
C20 C19 1.396 . S
C21 C16 1.499 . S
C21 H22 0.959 . S
C21 H23 0.960 . S
C21 H24 0.961 . S
H22 C21 0.959 . S
H23 C21 0.960 . S
H24 C21 0.961 . S
O25 Co0 1.967 1_655 S
O25 C33 1.258 . S
O26 Co1 1.941 . S
O26 C33 1.266 . S
H27 C29 0.979 . S
H28 C29 0.932 1_455 S
C29 C19 1.478 1_655 S
C29 H27 0.979 . S
C29 H28 0.932 1_655 S
C29 H30 1.006 . S
H30 C29 1.006 . S
H31 N11 0.862 . S
O32 Co0 1.920 . S
O32 C5 1.289 . S
C33 O25 1.258 . S
C33 O26 1.266 . S
Co34 O37 1.970 . S
Co34 N51 1.989 . S
Co34 O59 1.967 . S
Co34 O66 1.920 . S
Co35 O38 1.966 . S
Co35 N44 2.022 . S
Co35 N52 1.993 . S
Co35 O60 1.941 . S
C36 O37 1.258 . S
C36 O38 1.263 . S
O37 Co34 1.970 . S
O37 C36 1.258 . S
O38 Co35 1.966 . S
O38 C36 1.263 . S
C39 O40 1.235 . S
C39 O66 1.289 . S
O40 C39 1.235 . S
C41 C43 1.400 . S
C41 N44 1.351 . S
C41 C46 1.501 . S
C42 C43 1.387 . S
C42 N45 1.341 . S
C43 C41 1.400 . S
C43 C42 1.387 . S
N44 Co35 2.022 . S
N44 C41 1.351 . S
N44 N45 1.365 . S
N45 C42 1.341 . S
N45 N44 1.365 . S
N45 H65 0.862 . S
C46 C41 1.501 . S
C46 H47 0.961 . S
C46 H48 0.961 . S
C46 H49 0.960 . S
H47 C46 0.961 . S
H48 C46 0.961 . S
H49 C46 0.960 . S
C50 N51 1.342 . S
C50 C54 1.401 . S
C50 C55 1.499 . S
N51 Co34 1.989 . S
N51 C50 1.342 . S
N51 N52 1.388 . S
N52 Co35 1.993 . S
N52 N51 1.388 . S
N52 C53 1.346 . S
C53 N52 1.346 . S
C53 C54 1.396 . S
C53 C63 1.510 . S
C54 C50 1.401 . S
C54 C53 1.396 . S
C55 C50 1.499 . S
C55 H56 0.959 . S
C55 H57 0.960 . S
C55 H58 0.961 . S
H56 C55 0.959 . S
H57 C55 0.960 . S
H58 C55 0.961 . S
O59 Co34 1.967 . S
O59 C67 1.258 . S
O60 Co35 1.941 . S
O60 C67 1.266 . S
H61 C63 0.959 . S
H62 C63 0.961 . S
C63 C53 1.510 . S
C63 H61 0.959 . S
C63 H62 0.961 . S
C63 H64 0.960 . S
H64 C63 0.960 . S
H65 N45 0.862 . S
O66 Co34 1.920 . S
O66 C39 1.289 . S
C67 O59 1.258 . S
C67 O60 1.266 . S
Co68 O71 1.970 . S
Co68 N85 1.989 . S
Co68 O93 1.967 . S
Co68 O100 1.920 . S
Co69 O72 1.966 . S
Co69 N78 2.022 . S
Co69 N86 1.993 . S
Co69 O94 1.941 . S
C70 O71 1.258 . S
C70 O72 1.263 . S
O71 Co68 1.970 . S
O71 C70 1.258 . S
O72 Co69 1.966 . S
O72 C70 1.263 . S
C73 O74 1.235 . S
C73 O100 1.289 . S
O74 C73 1.235 . S
C75 C77 1.400 . S
C75 N78 1.351 . S
C75 C80 1.501 . S
C76 C77 1.387 . S
C76 N79 1.341 . S
C77 C75 1.400 . S
C77 C76 1.387 . S
N78 Co69 2.022 . S
N78 C75 1.351 . S
N78 N79 1.365 . S
N79 C76 1.341 . S
N79 N78 1.365 . S
N79 H99 0.862 . S
C80 C75 1.501 . S
C80 H81 0.961 . S
C80 H82 0.961 1_565 S
C80 H83 0.960 1_565 S
H81 C80 0.961 . S
H82 C80 0.961 1_545 S
H83 C80 0.960 1_545 S
C84 N85 1.342 . S
C84 C88 1.401 . S
C84 C89 1.499 . S
N85 Co68 1.989 . S
N85 C84 1.342 . S
N85 N86 1.388 . S
N86 Co69 1.993 . S
N86 N85 1.388 . S
N86 C87 1.346 . S
C87 N86 1.346 . S
C87 C88 1.396 . S
C87 C97 1.510 . S
C88 C84 1.401 . S
C88 C87 1.396 . S
C89 C84 1.499 . S
C89 H90 0.959 . S
C89 H91 0.960 . S
C89 H92 0.961 . S
H90 C89 0.959 . S
H91 C89 0.960 . S
H92 C89 0.961 . S
O93 Co68 1.967 . S
O93 C101 1.258 . S
O94 Co69 1.941 . S
O94 C101 1.266 . S
H95 C97 0.959 . S
H96 C97 0.961 . S
C97 C87 1.510 . S
C97 H95 0.959 . S
C97 H96 0.961 . S
C97 H98 0.960 . S
H98 C97 0.960 . S
H99 N79 0.862 . S
O100 Co68 1.920 . S
O100 C73 1.289 . S
C101 O93 1.258 . S
C101 O94 1.266 . S
Co102 O105 1.970 . S
Co102 N119 1.989 . S
Co102 O127 1.967 . S
Co102 O134 1.920 . S
Co103 O106 1.966 . S
Co103 N112 2.022 . S
Co103 N120 1.993 . S
Co103 O128 1.941 . S
C104 O105 1.258 . S
C104 O106 1.263 . S
O105 Co102 1.970 . S
O105 C104 1.258 . S
O106 Co103 1.966 . S
O106 C104 1.263 . S
C107 O108 1.235 . S
C107 O134 1.289 . S
O108 C107 1.235 . S
C109 C111 1.400 . S
C109 N112 1.351 . S
C109 C114 1.501 . S
C110 C111 1.387 . S
C110 N113 1.341 . S
C111 C109 1.400 . S
C111 C110 1.387 . S
N112 Co103 2.022 . S
N112 C109 1.351 . S
N112 N113 1.365 . S
N113 C110 1.341 . S
N113 N112 1.365 . S
N113 H133 0.862 . S
C114 C109 1.501 . S
C114 H115 0.961 . S
C114 H116 0.961 . S
C114 H117 0.960 . S
H115 C114 0.961 . S
H116 C114 0.961 . S
H117 C114 0.960 . S
C118 N119 1.342 . S
C118 C122 1.401 . S
C118 C123 1.499 . S
N119 Co102 1.989 . S
N119 C118 1.342 . S
N119 N120 1.388 . S
N120 Co103 1.993 . S
N120 N119 1.388 . S
N120 C121 1.346 . S
C121 N120 1.346 . S
C121 C122 1.396 . S
C121 C131 1.510 . S
C122 C118 1.401 . S
C122 C121 1.396 . S
C123 C118 1.499 . S
C123 H124 0.959 . S
C123 H125 0.960 . S
C123 H126 0.961 . S
H124 C123 0.959 . S
H125 C123 0.960 . S
H126 C123 0.961 . S
O127 Co102 1.967 . S
O127 C135 1.258 . S
O128 Co103 1.941 . S
O128 C135 1.266 . S
H129 C131 0.959 . S
H130 C131 0.961 . S
C131 C121 1.510 . S
C131 H129 0.959 . S
C131 H130 0.961 . S
C131 H132 0.960 . S
H132 C131 0.960 . S
H133 N113 0.862 . S
O134 Co102 1.920 . S
O134 C107 1.289 . S
C135 O127 1.258 . S
C135 O128 1.266 . S
Co136 O139 1.970 . S
Co136 N153 1.989 . S
Co136 O161 1.967 1_455 S
Co136 O168 1.920 . S
Co137 O140 1.966 . S
Co137 N146 2.022 . S
Co137 N154 1.993 1_655 S
Co137 O162 1.941 . S
C138 O139 1.258 . S
C138 O140 1.263 1_455 S
O139 Co136 1.970 . S
O139 C138 1.258 . S
O140 Co137 1.966 . S
O140 C138 1.263 1_655 S
C141 O142 1.235 . S
C141 O168 1.289 . S
O142 C141 1.235 . S
C143 C145 1.400 . S
C143 N146 1.351 . S
C143 C148 1.501 . S
C144 C145 1.387 . S
C144 N147 1.341 . S
C145 C143 1.400 . S
C145 C144 1.387 . S
N146 Co137 2.022 . S
N146 C143 1.351 . S
N146 N147 1.365 . S
N147 C144 1.341 . S
N147 N146 1.365 . S
N147 H167 0.862 . S
C148 C143 1.501 . S
C148 H149 0.961 . S
C148 H150 0.961 1_565 S
C148 H151 0.960 1_565 S
H149 C148 0.961 . S
H150 C148 0.961 1_545 S
H151 C148 0.960 1_545 S
C152 N153 1.342 . S
C152 C156 1.401 . S
C152 C157 1.499 . S
N153 Co136 1.989 . S
N153 C152 1.342 . S
N153 N154 1.388 . S
N154 Co137 1.993 1_455 S
N154 N153 1.388 . S
N154 C155 1.346 . S
C155 N154 1.346 . S
C155 C156 1.396 . S
C155 C165 1.478 1_455 S
C156 C152 1.401 . S
C156 C155 1.396 . S
C157 C152 1.499 . S
C157 H158 0.959 . S
C157 H159 0.960 . S
C157 H160 0.961 . S
H158 C157 0.959 . S
H159 C157 0.960 . S
H160 C157 0.961 . S
O161 Co136 1.967 1_655 S
O161 C169 1.258 . S
O162 Co137 1.941 . S
O162 C169 1.266 . S
H163 C165 0.979 . S
H164 C165 0.932 1_455 S
C165 C155 1.478 1_655 S
C165 H163 0.979 . S
C165 H164 0.932 1_655 S
C165 H166 1.006 . S
H166 C165 1.006 . S
H167 N147 0.862 . S
O168 Co136 1.920 . S
O168 C141 1.289 . S
C169 O161 1.258 . S
C169 O162 1.266 . S
Co170 O173 1.970 . S
Co170 N187 1.989 . S
Co170 O195 1.967 . S
Co170 O202 1.920 . S
Co171 O174 1.966 . S
Co171 N180 2.022 . S
Co171 N188 1.993 . S
Co171 O196 1.941 . S
C172 O173 1.258 . S
C172 O174 1.263 . S
O173 Co170 1.970 . S
O173 C172 1.258 . S
O174 Co171 1.966 . S
O174 C172 1.263 . S
C175 O176 1.235 . S
C175 O202 1.289 . S
O176 C175 1.235 . S
C177 C179 1.400 . S
C177 N180 1.351 . S
C177 C182 1.501 . S
C178 C179 1.387 . S
C178 N181 1.341 . S
C179 C177 1.400 . S
C179 C178 1.387 . S
N180 Co171 2.022 . S
N180 C177 1.351 . S
N180 N181 1.365 . S
N181 C178 1.341 . S
N181 N180 1.365 . S
N181 H201 0.862 . S
C182 C177 1.501 . S
C182 H183 0.961 . S
C182 H184 0.961 . S
C182 H185 0.960 . S
H183 C182 0.961 . S
H184 C182 0.961 . S
H185 C182 0.960 . S
C186 N187 1.342 . S
C186 C190 1.401 . S
C186 C191 1.499 . S
N187 Co170 1.989 . S
N187 C186 1.342 . S
N187 N188 1.388 . S
N188 Co171 1.993 . S
N188 N187 1.388 . S
N188 C189 1.346 . S
C189 N188 1.346 . S
C189 C190 1.396 . S
C189 C199 1.510 . S
C190 C186 1.401 . S
C190 C189 1.396 . S
C191 C186 1.499 . S
C191 H192 0.959 . S
C191 H193 0.960 . S
C191 H194 0.961 . S
H192 C191 0.959 . S
H193 C191 0.960 . S
H194 C191 0.961 . S
O195 Co170 1.967 . S
O195 C203 1.258 . S
O196 Co171 1.941 . S
O196 C203 1.266 . S
H197 C199 0.959 . S
H198 C199 0.961 . S
C199 C189 1.510 . S
C199 H197 0.959 . S
C199 H198 0.961 . S
C199 H200 0.960 . S
H200 C199 0.960 . S
H201 N181 0.862 . S
O202 Co170 1.920 . S
O202 C175 1.289 . S
C203 O195 1.258 . S
C203 O196 1.266 . S
Co204 O207 1.970 . S
Co204 N221 1.989 . S
Co204 O229 1.967 . S
Co204 O236 1.920 . S
Co205 O208 1.966 . S
Co205 N214 2.022 . S
Co205 N222 1.993 . S
Co205 O230 1.941 . S
C206 O207 1.258 . S
C206 O208 1.263 . S
O207 Co204 1.970 . S
O207 C206 1.258 . S
O208 Co205 1.966 . S
O208 C206 1.263 . S
C209 O210 1.235 . S
C209 O236 1.289 . S
O210 C209 1.235 . S
C211 C213 1.400 . S
C211 N214 1.351 . S
C211 C216 1.501 1_545 S
C212 C213 1.387 . S
C212 N215 1.341 . S
C213 C211 1.400 . S
C213 C212 1.387 . S
N214 Co205 2.022 . S
N214 C211 1.351 . S
N214 N215 1.365 . S
N215 C212 1.341 . S
N215 N214 1.365 . S
N215 H235 0.862 . S
C216 C211 1.501 1_565 S
C216 H217 0.961 1_565 S
C216 H218 0.961 . S
C216 H219 0.960 . S
H217 C216 0.961 1_545 S
H218 C216 0.961 . S
H219 C216 0.960 . S
C220 N221 1.342 . S
C220 C224 1.401 . S
C220 C225 1.499 . S
N221 Co204 1.989 . S
N221 C220 1.342 . S
N221 N222 1.388 . S
N222 Co205 1.993 . S
N222 N221 1.388 . S
N222 C223 1.346 . S
C223 N222 1.346 . S
C223 C224 1.396 . S
C223 C233 1.510 . S
C224 C220 1.401 . S
C224 C223 1.396 . S
C225 C220 1.499 . S
C225 H226 0.959 . S
C225 H227 0.960 . S
C225 H228 0.961 . S
H226 C225 0.959 . S
H227 C225 0.960 . S
H228 C225 0.961 . S
O229 Co204 1.967 . S
O229 C237 1.258 . S
O230 Co205 1.941 . S
O230 C237 1.266 . S
H231 C233 0.959 . S
H232 C233 0.961 . S
C233 C223 1.510 . S
C233 H231 0.959 . S
C233 H232 0.961 . S
C233 H234 0.960 . S
H234 C233 0.960 . S
H235 N215 0.862 . S
O236 Co204 1.920 . S
O236 C209 1.289 . S
C237 O229 1.258 . S
C237 O230 1.266 . S
Co238 O241 1.970 . S
Co238 N255 1.989 . S
Co238 O263 1.967 . S
Co238 O270 1.920 . S
Co239 O242 1.966 . S
Co239 N248 2.022 . S
Co239 N256 1.993 . S
Co239 O264 1.941 . S
C240 O241 1.258 . S
C240 O242 1.263 . S
O241 Co238 1.970 . S
O241 C240 1.258 . S
O242 Co239 1.966 . S
O242 C240 1.263 . S
C243 O244 1.235 . S
C243 O270 1.289 . S
O244 C243 1.235 . S
C245 C247 1.400 . S
C245 N248 1.351 . S
C245 C250 1.501 . S
C246 C247 1.387 . S
C246 N249 1.341 . S
C247 C245 1.400 . S
C247 C246 1.387 . S
N248 Co239 2.022 . S
N248 C245 1.351 . S
N248 N249 1.365 . S
N249 C246 1.341 . S
N249 N248 1.365 . S
N249 H269 0.862 . S
C250 C245 1.501 . S
C250 H251 0.961 . S
C250 H252 0.961 . S
C250 H253 0.960 . S
H251 C250 0.961 . S
H252 C250 0.961 . S
H253 C250 0.960 . S
C254 N255 1.342 . S
C254 C258 1.401 . S
C254 C259 1.499 . S
N255 Co238 1.989 . S
N255 C254 1.342 . S
N255 N256 1.388 . S
N256 Co239 1.993 . S
N256 N255 1.388 . S
N256 C257 1.346 . S
C257 N256 1.346 . S
C257 C258 1.396 . S
C257 C267 1.510 . S
C258 C254 1.401 . S
C258 C257 1.396 . S
C259 C254 1.499 . S
C259 H260 0.959 . S
C259 H261 0.960 . S
C259 H262 0.961 . S
H260 C259 0.959 . S
H261 C259 0.960 . S
H262 C259 0.961 . S
O263 Co238 1.967 . S
O263 C271 1.258 . S
O264 Co239 1.941 . S
O264 C271 1.266 . S
H265 C267 0.959 . S
H266 C267 0.961 . S
C267 C257 1.510 . S
C267 H265 0.959 . S
C267 H266 0.961 . S
C267 H268 0.960 . S
H268 C267 0.960 . S
H269 N249 0.862 . S
O270 Co238 1.920 . S
O270 C243 1.289 . S
C271 O263 1.258 . S
C271 O264 1.266 . S
Co272 O275 1.970 . S
Co272 N289 1.989 . S
Co272 O297 1.967 1_545 S
Co272 O304 1.920 . S
Co273 O276 1.966 . S
Co273 N282 2.022 . S
Co273 N290 1.993 1_565 S
Co273 O298 1.941 . S
C274 O275 1.258 . S
C274 O276 1.263 1_545 S
O275 Co272 1.970 . S
O275 C274 1.258 . S
O276 Co273 1.966 . S
O276 C274 1.263 1_565 S
C277 O278 1.235 . S
C277 O304 1.289 . S
O278 C277 1.235 . S
C279 C281 1.400 . S
C279 N282 1.351 . S
C279 C284 1.501 1_554 S
C280 C281 1.387 . S
C280 N283 1.341 . S
C281 C279 1.400 . S
C281 C280 1.387 . S
N282 Co273 2.022 . S
N282 C279 1.351 . S
N282 N283 1.365 . S
N283 C280 1.341 . S
N283 N282 1.365 . S
N283 H303 0.862 . S
C284 C279 1.501 1_556 S
C284 H285 0.961 1_556 S
C284 H286 0.961 . S
C284 H287 0.960 . S
H285 C284 0.961 1_554 S
H286 C284 0.961 . S
H287 C284 0.960 . S
C288 N289 1.342 . S
C288 C292 1.401 . S
C288 C293 1.499 . S
N289 Co272 1.989 . S
N289 C288 1.342 . S
N289 N290 1.388 . S
N290 Co273 1.993 1_545 S
N290 N289 1.388 . S
N290 C291 1.346 . S
C291 N290 1.346 . S
C291 C292 1.396 . S
C291 C301 1.478 1_545 S
C292 C288 1.401 . S
C292 C291 1.396 . S
C293 C288 1.499 . S
C293 H294 0.959 . S
C293 H295 0.960 . S
C293 H296 0.961 . S
H294 C293 0.959 . S
H295 C293 0.960 . S
H296 C293 0.961 . S
O297 Co272 1.967 1_565 S
O297 C305 1.258 . S
O298 Co273 1.941 . S
O298 C305 1.266 . S
H299 C301 0.979 . S
H300 C301 0.932 1_545 S
C301 C291 1.478 1_565 S
C301 H299 0.979 . S
C301 H300 0.932 1_565 S
C301 H302 1.006 . S
H302 C301 1.006 . S
H303 N283 0.862 . S
O304 Co272 1.920 . S
O304 C277 1.289 . S
C305 O297 1.258 . S
C305 O298 1.266 . S
Co306 O309 1.970 . S
Co306 N323 1.989 . S
Co306 O331 1.967 . S
Co306 O338 1.920 . S
Co307 O310 1.966 . S
Co307 N316 2.022 . S
Co307 N324 1.993 . S
Co307 O332 1.941 . S
C308 O309 1.258 . S
C308 O310 1.263 . S
O309 Co306 1.970 . S
O309 C308 1.258 . S
O310 Co307 1.966 . S
O310 C308 1.263 . S
C311 O312 1.235 . S
C311 O338 1.289 . S
O312 C311 1.235 . S
C313 C315 1.400 . S
C313 N316 1.351 . S
C313 C318 1.501 . S
C314 C315 1.387 . S
C314 N317 1.341 . S
C315 C313 1.400 . S
C315 C314 1.387 . S
N316 Co307 2.022 . S
N316 C313 1.351 . S
N316 N317 1.365 . S
N317 C314 1.341 . S
N317 N316 1.365 . S
N317 H337 0.862 . S
C318 C313 1.501 . S
C318 H319 0.961 . S
C318 H320 0.961 . S
C318 H321 0.960 . S
H319 C318 0.961 . S
H320 C318 0.961 . S
H321 C318 0.960 . S
C322 N323 1.342 . S
C322 C326 1.401 . S
C322 C327 1.499 . S
N323 Co306 1.989 . S
N323 C322 1.342 . S
N323 N324 1.388 . S
N324 Co307 1.993 . S
N324 N323 1.388 . S
N324 C325 1.346 . S
C325 N324 1.346 . S
C325 C326 1.396 . S
C325 C335 1.510 . S
C326 C322 1.401 . S
C326 C325 1.396 . S
C327 C322 1.499 . S
C327 H328 0.959 . S
C327 H329 0.960 . S
C327 H330 0.961 . S
H328 C327 0.959 . S
H329 C327 0.960 . S
H330 C327 0.961 . S
O331 Co306 1.967 . S
O331 C339 1.258 . S
O332 Co307 1.941 . S
O332 C339 1.266 . S
H333 C335 0.959 . S
H334 C335 0.961 . S
C335 C325 1.510 . S
C335 H333 0.959 . S
C335 H334 0.961 . S
C335 H336 0.960 . S
H336 C335 0.960 . S
H337 N317 0.862 . S
O338 Co306 1.920 . S
O338 C311 1.289 . S
C339 O331 1.258 . S
C339 O332 1.266 . S
Co340 O343 1.970 . S
Co340 N357 1.989 . S
Co340 O365 1.967 1_565 S
Co340 O372 1.920 . S
Co341 O344 1.966 . S
Co341 N350 2.022 . S
Co341 N358 1.993 1_545 S
Co341 O366 1.941 . S
C342 O343 1.258 . S
C342 O344 1.263 1_565 S
O343 Co340 1.970 . S
O343 C342 1.258 . S
O344 Co341 1.966 . S
O344 C342 1.263 1_545 S
C345 O346 1.235 . S
C345 O372 1.289 . S
O346 C345 1.235 . S
C347 C349 1.400 . S
C347 N350 1.351 . S
C347 C352 1.501 . S
C348 C349 1.387 . S
C348 N351 1.341 . S
C349 C347 1.400 . S
C349 C348 1.387 . S
N350 Co341 2.022 . S
N350 C347 1.351 . S
N350 N351 1.365 . S
N351 C348 1.341 . S
N351 N350 1.365 . S
N351 H371 0.862 . S
C352 C347 1.501 . S
C352 H353 0.961 . S
C352 H354 0.961 . S
C352 H355 0.960 . S
H353 C352 0.961 . S
H354 C352 0.961 . S
H355 C352 0.960 . S
C356 N357 1.342 . S
C356 C360 1.401 . S
C356 C361 1.499 . S
N357 Co340 1.989 . S
N357 C356 1.342 . S
N357 N358 1.388 . S
N358 Co341 1.993 1_565 S
N358 N357 1.388 . S
N358 C359 1.346 . S
C359 N358 1.346 . S
C359 C360 1.396 . S
C359 C369 1.542 . S
C360 C356 1.401 . S
C360 C359 1.396 . S
C361 C356 1.499 . S
C361 H362 0.959 . S
C361 H363 0.960 . S
C361 H364 0.961 . S
H362 C361 0.959 . S
H363 C361 0.960 . S
H364 C361 0.961 . S
O365 Co340 1.967 1_545 S
O365 C373 1.258 . S
O366 Co341 1.941 . S
O366 C373 1.266 . S
H367 C369 0.944 1_545 S
H368 C369 0.991 . S
C369 C359 1.542 . S
C369 H367 0.944 1_565 S
C369 H368 0.991 . S
C369 H370 0.918 1_565 S
H370 C369 0.918 1_545 S
H371 N351 0.862 . S
O372 Co340 1.920 . S
O372 C345 1.289 . S
C373 O365 1.258 . S
C373 O366 1.266 . S
Co374 O377 1.970 . S
Co374 N391 1.989 . S
Co374 O399 1.967 . S
Co374 O406 1.920 . S
Co375 O378 1.966 . S
Co375 N384 2.022 . S
Co375 N392 1.993 . S
Co375 O400 1.941 . S
C376 O377 1.258 . S
C376 O378 1.263 . S
O377 Co374 1.970 . S
O377 C376 1.258 . S
O378 Co375 1.966 . S
O378 C376 1.263 . S
C379 O380 1.235 . S
C379 O406 1.289 . S
O380 C379 1.235 . S
C381 C383 1.400 . S
C381 N384 1.351 . S
C381 C386 1.501 . S
C382 C383 1.387 . S
C382 N385 1.341 . S
C383 C381 1.400 . S
C383 C382 1.387 . S
N384 Co375 2.022 . S
N384 C381 1.351 . S
N384 N385 1.365 . S
N385 C382 1.341 . S
N385 N384 1.365 . S
N385 H405 0.862 . S
C386 C381 1.501 . S
C386 H387 0.961 . S
C386 H388 0.961 . S
C386 H389 0.960 . S
H387 C386 0.961 . S
H388 C386 0.961 . S
H389 C386 0.960 . S
C390 N391 1.342 . S
C390 C394 1.401 . S
C390 C395 1.499 . S
N391 Co374 1.989 . S
N391 C390 1.342 . S
N391 N392 1.388 . S
N392 Co375 1.993 . S
N392 N391 1.388 . S
N392 C393 1.346 . S
C393 N392 1.346 . S
C393 C394 1.396 . S
C393 C403 1.510 . S
C394 C390 1.401 . S
C394 C393 1.396 . S
C395 C390 1.499 . S
C395 H396 0.959 . S
C395 H397 0.960 . S
C395 H398 0.961 . S
H396 C395 0.959 . S
H397 C395 0.960 . S
H398 C395 0.961 . S
O399 Co374 1.967 . S
O399 C407 1.258 . S
O400 Co375 1.941 . S
O400 C407 1.266 . S
H401 C403 0.959 . S
H402 C403 0.961 . S
C403 C393 1.510 . S
C403 H401 0.959 . S
C403 H402 0.961 . S
C403 H404 0.960 . S
H404 C403 0.960 . S
H405 N385 0.862 . S
O406 Co374 1.920 . S
O406 C379 1.289 . S
C407 O399 1.258 . S
C407 O400 1.266 . S
Co408 O411 1.970 . S
Co408 N425 1.989 . S
Co408 O433 1.967 1_565 S
Co408 O440 1.920 . S
Co409 O412 1.966 . S
Co409 N418 2.022 . S
Co409 N426 1.993 1_545 S
Co409 O434 1.941 . S
C410 O411 1.258 . S
C410 O412 1.263 1_565 S
O411 Co408 1.970 . S
O411 C410 1.258 . S
O412 Co409 1.966 . S
O412 C410 1.263 1_545 S
C413 O414 1.235 . S
C413 O440 1.289 . S
O414 C413 1.235 . S
C415 C417 1.400 . S
C415 N418 1.351 . S
C415 C420 1.501 . S
C416 C417 1.387 . S
C416 N419 1.341 . S
C417 C415 1.400 . S
C417 C416 1.387 . S
N418 Co409 2.022 . S
N418 C415 1.351 . S
N418 N419 1.365 . S
N419 C416 1.341 . S
N419 N418 1.365 . S
N419 H439 0.862 . S
C420 C415 1.501 . S
C420 H421 0.961 . S
C420 H422 0.961 . S
C420 H423 0.960 . S
H421 C420 0.961 . S
H422 C420 0.961 . S
H423 C420 0.960 . S
C424 N425 1.342 . S
C424 C428 1.401 . S
C424 C429 1.499 . S
N425 Co408 1.989 . S
N425 C424 1.342 . S
N425 N426 1.388 . S
N426 Co409 1.993 1_565 S
N426 N425 1.388 . S
N426 C427 1.346 . S
C427 N426 1.346 . S
C427 C428 1.396 . S
C427 C437 1.542 . S
C428 C424 1.401 . S
C428 C427 1.396 . S
C429 C424 1.499 . S
C429 H430 0.959 . S
C429 H431 0.960 . S
C429 H432 0.961 . S
H430 C429 0.959 . S
H431 C429 0.960 . S
H432 C429 0.961 . S
O433 Co408 1.967 1_545 S
O433 C441 1.258 . S
O434 Co409 1.941 . S
O434 C441 1.266 . S
H435 C437 0.944 1_545 S
H436 C437 0.991 . S
C437 C427 1.542 . S
C437 H435 0.944 1_565 S
C437 H436 0.991 . S
C437 H438 0.918 1_565 S
H438 C437 0.918 1_545 S
H439 N419 0.862 . S
O440 Co408 1.920 . S
O440 C413 1.289 . S
C441 O433 1.258 . S
C441 O434 1.266 . S
Co442 O445 1.970 . S
Co442 N459 1.989 . S
Co442 O467 1.967 . S
Co442 O474 1.920 . S
Co443 O446 1.966 . S
Co443 N452 2.022 . S
Co443 N460 1.993 . S
Co443 O468 1.941 . S
C444 O445 1.258 . S
C444 O446 1.263 . S
O445 Co442 1.970 . S
O445 C444 1.258 . S
O446 Co443 1.966 . S
O446 C444 1.263 . S
C447 O448 1.235 . S
C447 O474 1.289 . S
O448 C447 1.235 . S
C449 C451 1.400 . S
C449 N452 1.351 . S
C449 C454 1.501 . S
C450 C451 1.387 . S
C450 N453 1.341 . S
C451 C449 1.400 . S
C451 C450 1.387 . S
N452 Co443 2.022 . S
N452 C449 1.351 . S
N452 N453 1.365 . S
N453 C450 1.341 . S
N453 N452 1.365 . S
N453 H473 0.862 . S
C454 C449 1.501 . S
C454 H455 0.961 . S
C454 H456 0.961 . S
C454 H457 0.960 . S
H455 C454 0.961 . S
H456 C454 0.961 . S
H457 C454 0.960 . S
C458 N459 1.342 . S
C458 C462 1.401 . S
C458 C463 1.499 . S
N459 Co442 1.989 . S
N459 C458 1.342 . S
N459 N460 1.388 . S
N460 Co443 1.993 . S
N460 N459 1.388 . S
N460 C461 1.346 . S
C461 N460 1.346 . S
C461 C462 1.396 . S
C461 C471 1.510 . S
C462 C458 1.401 . S
C462 C461 1.396 . S
C463 C458 1.499 . S
C463 H464 0.959 . S
C463 H465 0.960 . S
C463 H466 0.961 . S
H464 C463 0.959 . S
H465 C463 0.960 . S
H466 C463 0.961 . S
O467 Co442 1.967 . S
O467 C475 1.258 . S
O468 Co443 1.941 . S
O468 C475 1.266 . S
H469 C471 0.959 . S
H470 C471 0.961 . S
C471 C461 1.510 . S
C471 H469 0.959 . S
C471 H470 0.961 . S
C471 H472 0.960 . S
H472 C471 0.960 . S
H473 N453 0.862 . S
O474 Co442 1.920 . S
O474 C447 1.289 . S
C475 O467 1.258 . S
C475 O468 1.266 . S
Co476 O479 1.970 . S
Co476 N493 1.989 . S
Co476 O501 1.967 1_545 S
Co476 O508 1.920 . S
Co477 O480 1.966 . S
Co477 N486 2.022 . S
Co477 N494 1.993 1_565 S
Co477 O502 1.941 . S
C478 O479 1.258 . S
C478 O480 1.263 1_545 S
O479 Co476 1.970 . S
O479 C478 1.258 . S
O480 Co477 1.966 . S
O480 C478 1.263 1_565 S
C481 O482 1.235 . S
C481 O508 1.289 . S
O482 C481 1.235 . S
C483 C485 1.400 . S
C483 N486 1.351 . S
C483 C488 1.501 . S
C484 C485 1.387 . S
C484 N487 1.341 . S
C485 C483 1.400 . S
C485 C484 1.387 . S
N486 Co477 2.022 . S
N486 C483 1.351 . S
N486 N487 1.365 . S
N487 C484 1.341 . S
N487 N486 1.365 . S
N487 H507 0.862 . S
C488 C483 1.501 . S
C488 H489 0.961 . S
C488 H490 0.961 1_556 S
C488 H491 0.960 1_556 S
H489 C488 0.961 . S
H490 C488 0.961 1_554 S
H491 C488 0.960 1_554 S
C492 N493 1.342 . S
C492 C496 1.401 . S
C492 C497 1.499 . S
N493 Co476 1.989 . S
N493 C492 1.342 . S
N493 N494 1.388 . S
N494 Co477 1.993 1_545 S
N494 N493 1.388 . S
N494 C495 1.346 . S
C495 N494 1.346 . S
C495 C496 1.396 . S
C495 C505 1.478 1_545 S
C496 C492 1.401 . S
C496 C495 1.396 . S
C497 C492 1.499 . S
C497 H498 0.959 . S
C497 H499 0.960 . S
C497 H500 0.961 . S
H498 C497 0.959 . S
H499 C497 0.960 . S
H500 C497 0.961 . S
O501 Co476 1.967 1_565 S
O501 C509 1.258 . S
O502 Co477 1.941 . S
O502 C509 1.266 . S
H503 C505 0.979 . S
H504 C505 0.932 1_545 S
C505 C495 1.478 1_565 S
C505 H503 0.979 . S
C505 H504 0.932 1_565 S
C505 H506 1.006 . S
H506 C505 1.006 . S
H507 N487 0.862 . S
O508 Co476 1.920 . S
O508 C481 1.289 . S
C509 O501 1.258 . S
C509 O502 1.266 . S
Co510 O513 1.970 . S
Co510 N527 1.989 . S
Co510 O535 1.967 . S
Co510 O542 1.920 . S
Co511 O514 1.966 . S
Co511 N520 2.022 . S
Co511 N528 1.993 . S
Co511 O536 1.941 . S
C512 O513 1.258 . S
C512 O514 1.263 . S
O513 Co510 1.970 . S
O513 C512 1.258 . S
O514 Co511 1.966 . S
O514 C512 1.263 . S
C515 O516 1.235 . S
C515 O542 1.289 . S
O516 C515 1.235 . S
C517 C519 1.400 . S
C517 N520 1.351 . S
C517 C522 1.501 . S
C518 C519 1.387 . S
C518 N521 1.341 . S
C519 C517 1.400 . S
C519 C518 1.387 . S
N520 Co511 2.022 . S
N520 C517 1.351 . S
N520 N521 1.365 . S
N521 C518 1.341 . S
N521 N520 1.365 . S
N521 H541 0.862 . S
C522 C517 1.501 . S
C522 H523 0.961 . S
C522 H524 0.961 . S
C522 H525 0.960 . S
H523 C522 0.961 . S
H524 C522 0.961 . S
H525 C522 0.960 . S
C526 N527 1.342 . S
C526 C530 1.401 . S
C526 C531 1.499 . S
N527 Co510 1.989 . S
N527 C526 1.342 . S
N527 N528 1.388 . S
N528 Co511 1.993 . S
N528 N527 1.388 . S
N528 C529 1.346 . S
C529 N528 1.346 . S
C529 C530 1.396 . S
C529 C539 1.510 . S
C530 C526 1.401 . S
C530 C529 1.396 . S
C531 C526 1.499 . S
C531 H532 0.959 . S
C531 H533 0.960 . S
C531 H534 0.961 . S
H532 C531 0.959 . S
H533 C531 0.960 . S
H534 C531 0.961 . S
O535 Co510 1.967 . S
O535 C543 1.258 . S
O536 Co511 1.941 . S
O536 C543 1.266 . S
H537 C539 0.959 . S
H538 C539 0.961 . S
C539 C529 1.510 . S
C539 H537 0.959 . S
C539 H538 0.961 . S
C539 H540 0.960 . S
H540 C539 0.960 . S
H541 N521 0.862 . S
O542 Co510 1.920 . S
O542 C515 1.289 . S
C543 O535 1.258 . S
C543 O536 1.266 . S
Co544 O547 1.970 . S
Co544 N561 1.989 . S
Co544 O569 1.967 1_554 S
Co544 O576 1.920 . S
Co545 O548 1.966 . S
Co545 N554 2.022 . S
Co545 N562 1.993 1_556 S
Co545 O570 1.941 . S
C546 O547 1.258 . S
C546 O548 1.263 1_554 S
O547 Co544 1.970 . S
O547 C546 1.258 . S
O548 Co545 1.966 . S
O548 C546 1.263 1_556 S
C549 O550 1.235 . S
C549 O576 1.289 . S
O550 C549 1.235 . S
C551 C553 1.400 . S
C551 N554 1.351 . S
C551 C556 1.501 1_455 S
C552 C553 1.387 . S
C552 N555 1.341 . S
C553 C551 1.400 . S
C553 C552 1.387 . S
N554 Co545 2.022 . S
N554 C551 1.351 . S
N554 N555 1.365 . S
N555 C552 1.341 . S
N555 N554 1.365 . S
N555 H575 0.862 . S
C556 C551 1.501 1_655 S
C556 H557 0.961 1_655 S
C556 H558 0.961 . S
C556 H559 0.960 . S
H557 C556 0.961 1_455 S
H558 C556 0.961 . S
H559 C556 0.960 . S
C560 N561 1.342 . S
C560 C564 1.401 . S
C560 C565 1.499 . S
N561 Co544 1.989 . S
N561 C560 1.342 . S
N561 N562 1.388 . S
N562 Co545 1.993 1_554 S
N562 N561 1.388 . S
N562 C563 1.346 . S
C563 N562 1.346 . S
C563 C564 1.396 . S
C563 C573 1.478 1_554 S
C564 C560 1.401 . S
C564 C563 1.396 . S
C565 C560 1.499 . S
C565 H566 0.959 . S
C565 H567 0.960 . S
C565 H568 0.961 . S
H566 C565 0.959 . S
H567 C565 0.960 . S
H568 C565 0.961 . S
O569 Co544 1.967 1_556 S
O569 C577 1.258 . S
O570 Co545 1.941 . S
O570 C577 1.266 . S
H571 C573 0.979 . S
H572 C573 0.932 1_554 S
C573 C563 1.478 1_556 S
C573 H571 0.979 . S
C573 H572 0.932 1_556 S
C573 H574 1.006 . S
H574 C573 1.006 . S
H575 N555 0.862 . S
O576 Co544 1.920 . S
O576 C549 1.289 . S
C577 O569 1.258 . S
C577 O570 1.266 . S
Co578 O581 1.970 . S
Co578 N595 1.989 . S
Co578 O603 1.967 1_556 S
Co578 O610 1.920 . S
Co579 O582 1.966 . S
Co579 N588 2.022 . S
Co579 N596 1.993 1_554 S
Co579 O604 1.941 . S
C580 O581 1.258 . S
C580 O582 1.263 1_556 S
O581 Co578 1.970 . S
O581 C580 1.258 . S
O582 Co579 1.966 . S
O582 C580 1.263 1_554 S
C583 O584 1.235 . S
C583 O610 1.289 . S
O584 C583 1.235 . S
C585 C587 1.400 . S
C585 N588 1.351 . S
C585 C590 1.501 . S
C586 C587 1.387 . S
C586 N589 1.341 . S
C587 C585 1.400 . S
C587 C586 1.387 . S
N588 Co579 2.022 . S
N588 C585 1.351 . S
N588 N589 1.365 . S
N589 C586 1.341 . S
N589 N588 1.365 . S
N589 H609 0.862 . S
C590 C585 1.501 . S
C590 H591 0.961 . S
C590 H592 0.961 . S
C590 H593 0.960 . S
H591 C590 0.961 . S
H592 C590 0.961 . S
H593 C590 0.960 . S
C594 N595 1.342 . S
C594 C598 1.401 . S
C594 C599 1.499 . S
N595 Co578 1.989 . S
N595 C594 1.342 . S
N595 N596 1.388 . S
N596 Co579 1.993 1_556 S
N596 N595 1.388 . S
N596 C597 1.346 . S
C597 N596 1.346 . S
C597 C598 1.396 . S
C597 C607 1.542 . S
C598 C594 1.401 . S
C598 C597 1.396 . S
C599 C594 1.499 . S
C599 H600 0.959 . S
C599 H601 0.960 . S
C599 H602 0.961 . S
H600 C599 0.959 . S
H601 C599 0.960 . S
H602 C599 0.961 . S
O603 Co578 1.967 1_554 S
O603 C611 1.258 . S
O604 Co579 1.941 . S
O604 C611 1.266 . S
H605 C607 0.944 1_554 S
H606 C607 0.991 . S
C607 C597 1.542 . S
C607 H605 0.944 1_556 S
C607 H606 0.991 . S
C607 H608 0.918 1_556 S
H608 C607 0.918 1_554 S
H609 N589 0.862 . S
O610 Co578 1.920 . S
O610 C583 1.289 . S
C611 O603 1.258 . S
C611 O604 1.266 . S
Co612 O615 1.970 . S
Co612 N629 1.989 . S
Co612 O637 1.967 . S
Co612 O644 1.920 . S
Co613 O616 1.966 . S
Co613 N622 2.022 . S
Co613 N630 1.993 . S
Co613 O638 1.941 . S
C614 O615 1.258 . S
C614 O616 1.263 . S
O615 Co612 1.970 . S
O615 C614 1.258 . S
O616 Co613 1.966 . S
O616 C614 1.263 . S
C617 O618 1.235 . S
C617 O644 1.289 . S
O618 C617 1.235 . S
C619 C621 1.400 . S
C619 N622 1.351 . S
C619 C624 1.501 . S
C620 C621 1.387 . S
C620 N623 1.341 . S
C621 C619 1.400 . S
C621 C620 1.387 . S
N622 Co613 2.022 . S
N622 C619 1.351 . S
N622 N623 1.365 . S
N623 C620 1.341 . S
N623 N622 1.365 . S
N623 H643 0.862 . S
C624 C619 1.501 . S
C624 H625 0.961 . S
C624 H626 0.961 . S
C624 H627 0.960 . S
H625 C624 0.961 . S
H626 C624 0.961 . S
H627 C624 0.960 . S
C628 N629 1.342 . S
C628 C632 1.401 . S
C628 C633 1.499 . S
N629 Co612 1.989 . S
N629 C628 1.342 . S
N629 N630 1.388 . S
N630 Co613 1.993 . S
N630 N629 1.388 . S
N630 C631 1.346 . S
C631 N630 1.346 . S
C631 C632 1.396 . S
C631 C641 1.510 . S
C632 C628 1.401 . S
C632 C631 1.396 . S
C633 C628 1.499 . S
C633 H634 0.959 . S
C633 H635 0.960 . S
C633 H636 0.961 . S
H634 C633 0.959 . S
H635 C633 0.960 . S
H636 C633 0.961 . S
O637 Co612 1.967 . S
O637 C645 1.258 . S
O638 Co613 1.941 . S
O638 C645 1.266 . S
H639 C641 0.959 . S
H640 C641 0.961 . S
C641 C631 1.510 . S
C641 H639 0.959 . S
C641 H640 0.961 . S
C641 H642 0.960 . S
H642 C641 0.960 . S
H643 N623 0.862 . S
O644 Co612 1.920 . S
O644 C617 1.289 . S
C645 O637 1.258 . S
C645 O638 1.266 . S
Co646 O649 1.970 . S
Co646 N663 1.989 . S
Co646 O671 1.967 . S
Co646 O678 1.920 . S
Co647 O650 1.966 . S
Co647 N656 2.022 . S
Co647 N664 1.993 . S
Co647 O672 1.941 . S
C648 O649 1.258 . S
C648 O650 1.263 . S
O649 Co646 1.970 . S
O649 C648 1.258 . S
O650 Co647 1.966 . S
O650 C648 1.263 . S
C651 O652 1.235 . S
C651 O678 1.289 . S
O652 C651 1.235 . S
C653 C655 1.400 . S
C653 N656 1.351 . S
C653 C658 1.501 . S
C654 C655 1.387 . S
C654 N657 1.341 . S
C655 C653 1.400 . S
C655 C654 1.387 . S
N656 Co647 2.022 . S
N656 C653 1.351 . S
N656 N657 1.365 . S
N657 C654 1.341 . S
N657 N656 1.365 . S
N657 H677 0.862 . S
C658 C653 1.501 . S
C658 H659 0.961 . S
C658 H660 0.961 1_655 S
C658 H661 0.960 1_655 S
H659 C658 0.961 . S
H660 C658 0.961 1_455 S
H661 C658 0.960 1_455 S
C662 N663 1.342 . S
C662 C666 1.401 . S
C662 C667 1.499 . S
N663 Co646 1.989 . S
N663 C662 1.342 . S
N663 N664 1.388 . S
N664 Co647 1.993 . S
N664 N663 1.388 . S
N664 C665 1.346 . S
C665 N664 1.346 . S
C665 C666 1.396 . S
C665 C675 1.510 . S
C666 C662 1.401 . S
C666 C665 1.396 . S
C667 C662 1.499 . S
C667 H668 0.959 . S
C667 H669 0.960 . S
C667 H670 0.961 . S
H668 C667 0.959 . S
H669 C667 0.960 . S
H670 C667 0.961 . S
O671 Co646 1.967 . S
O671 C679 1.258 . S
O672 Co647 1.941 . S
O672 C679 1.266 . S
H673 C675 0.959 . S
H674 C675 0.961 . S
C675 C665 1.510 . S
C675 H673 0.959 . S
C675 H674 0.961 . S
C675 H676 0.960 . S
H676 C675 0.960 . S
H677 N657 0.862 . S
O678 Co646 1.920 . S
O678 C651 1.289 . S
C679 O671 1.258 . S
C679 O672 1.266 . S
Co680 O683 1.970 . S
Co680 N697 1.989 . S
Co680 O705 1.967 . S
Co680 O712 1.920 . S
Co681 O684 1.966 . S
Co681 N690 2.022 . S
Co681 N698 1.993 . S
Co681 O706 1.941 . S
C682 O683 1.258 . S
C682 O684 1.263 . S
O683 Co680 1.970 . S
O683 C682 1.258 . S
O684 Co681 1.966 . S
O684 C682 1.263 . S
C685 O686 1.235 . S
C685 O712 1.289 . S
O686 C685 1.235 . S
C687 C689 1.400 . S
C687 N690 1.351 . S
C687 C692 1.501 . S
C688 C689 1.387 . S
C688 N691 1.341 . S
C689 C687 1.400 . S
C689 C688 1.387 . S
N690 Co681 2.022 . S
N690 C687 1.351 . S
N690 N691 1.365 . S
N691 C688 1.341 . S
N691 N690 1.365 . S
N691 H711 0.862 . S
C692 C687 1.501 . S
C692 H693 0.961 . S
C692 H694 0.961 . S
C692 H695 0.960 . S
H693 C692 0.961 . S
H694 C692 0.961 . S
H695 C692 0.960 . S
C696 N697 1.342 . S
C696 C700 1.401 . S
C696 C701 1.499 . S
N697 Co680 1.989 . S
N697 C696 1.342 . S
N697 N698 1.388 . S
N698 Co681 1.993 . S
N698 N697 1.388 . S
N698 C699 1.346 . S
C699 N698 1.346 . S
C699 C700 1.396 . S
C699 C709 1.510 . S
C700 C696 1.401 . S
C700 C699 1.396 . S
C701 C696 1.499 . S
C701 H702 0.959 . S
C701 H703 0.960 . S
C701 H704 0.961 . S
H702 C701 0.959 . S
H703 C701 0.960 . S
H704 C701 0.961 . S
O705 Co680 1.967 . S
O705 C713 1.258 . S
O706 Co681 1.941 . S
O706 C713 1.266 . S
H707 C709 0.959 . S
H708 C709 0.961 . S
C709 C699 1.510 . S
C709 H707 0.959 . S
C709 H708 0.961 . S
C709 H710 0.960 . S
H710 C709 0.960 . S
H711 N691 0.862 . S
O712 Co680 1.920 . S
O712 C685 1.289 . S
C713 O705 1.258 . S
C713 O706 1.266 . S
Co714 O717 1.970 . S
Co714 N731 1.989 . S
Co714 O739 1.967 . S
Co714 O746 1.920 . S
Co715 O718 1.966 . S
Co715 N724 2.022 . S
Co715 N732 1.993 . S
Co715 O740 1.941 . S
C716 O717 1.258 . S
C716 O718 1.263 . S
O717 Co714 1.970 . S
O717 C716 1.258 . S
O718 Co715 1.966 . S
O718 C716 1.263 . S
C719 O720 1.235 . S
C719 O746 1.289 . S
O720 C719 1.235 . S
C721 C723 1.400 . S
C721 N724 1.351 . S
C721 C726 1.501 . S
C722 C723 1.387 . S
C722 N725 1.341 . S
C723 C721 1.400 . S
C723 C722 1.387 . S
N724 Co715 2.022 . S
N724 C721 1.351 . S
N724 N725 1.365 . S
N725 C722 1.341 . S
N725 N724 1.365 . S
N725 H745 0.862 . S
C726 C721 1.501 . S
C726 H727 0.961 . S
C726 H728 0.961 . S
C726 H729 0.960 . S
H727 C726 0.961 . S
H728 C726 0.961 . S
H729 C726 0.960 . S
C730 N731 1.342 . S
C730 C734 1.401 . S
C730 C735 1.499 . S
N731 Co714 1.989 . S
N731 C730 1.342 . S
N731 N732 1.388 . S
N732 Co715 1.993 . S
N732 N731 1.388 . S
N732 C733 1.346 . S
C733 N732 1.346 . S
C733 C734 1.396 . S
C733 C743 1.510 . S
C734 C730 1.401 . S
C734 C733 1.396 . S
C735 C730 1.499 . S
C735 H736 0.959 . S
C735 H737 0.960 . S
C735 H738 0.961 . S
H736 C735 0.959 . S
H737 C735 0.960 . S
H738 C735 0.961 . S
O739 Co714 1.967 . S
O739 C747 1.258 . S
O740 Co715 1.941 . S
O740 C747 1.266 . S
H741 C743 0.959 . S
H742 C743 0.961 . S
C743 C733 1.510 . S
C743 H741 0.959 . S
C743 H742 0.961 . S
C743 H744 0.960 . S
H744 C743 0.960 . S
H745 N725 0.862 . S
O746 Co714 1.920 . S
O746 C719 1.289 . S
C747 O739 1.258 . S
C747 O740 1.266 . S
Co748 O751 1.970 . S
Co748 N765 1.989 . S
Co748 O773 1.967 . S
Co748 O780 1.920 . S
Co749 O752 1.966 . S
Co749 N758 2.022 . S
Co749 N766 1.993 . S
Co749 O774 1.941 . S
C750 O751 1.258 . S
C750 O752 1.263 . S
O751 Co748 1.970 . S
O751 C750 1.258 . S
O752 Co749 1.966 . S
O752 C750 1.263 . S
C753 O754 1.235 . S
C753 O780 1.289 . S
O754 C753 1.235 . S
C755 C757 1.400 . S
C755 N758 1.351 . S
C755 C760 1.501 . S
C756 C757 1.387 . S
C756 N759 1.341 . S
C757 C755 1.400 . S
C757 C756 1.387 . S
N758 Co749 2.022 . S
N758 C755 1.351 . S
N758 N759 1.365 . S
N759 C756 1.341 . S
N759 N758 1.365 . S
N759 H779 0.862 . S
C760 C755 1.501 . S
C760 H761 0.961 . S
C760 H762 0.961 . S
C760 H763 0.960 . S
H761 C760 0.961 . S
H762 C760 0.961 . S
H763 C760 0.960 . S
C764 N765 1.342 . S
C764 C768 1.401 . S
C764 C769 1.499 . S
N765 Co748 1.989 . S
N765 C764 1.342 . S
N765 N766 1.388 . S
N766 Co749 1.993 . S
N766 N765 1.388 . S
N766 C767 1.346 . S
C767 N766 1.346 . S
C767 C768 1.396 . S
C767 C777 1.510 . S
C768 C764 1.401 . S
C768 C767 1.396 . S
C769 C764 1.499 . S
C769 H770 0.959 . S
C769 H771 0.960 . S
C769 H772 0.961 . S
H770 C769 0.959 . S
H771 C769 0.960 . S
H772 C769 0.961 . S
O773 Co748 1.967 . S
O773 C781 1.258 . S
O774 Co749 1.941 . S
O774 C781 1.266 . S
H775 C777 0.959 . S
H776 C777 0.961 . S
C777 C767 1.510 . S
C777 H775 0.959 . S
C777 H776 0.961 . S
C777 H778 0.960 . S
H778 C777 0.960 . S
H779 N759 0.862 . S
O780 Co748 1.920 . S
O780 C753 1.289 . S
C781 O773 1.258 . S
C781 O774 1.266 . S
Co782 O785 1.970 . S
Co782 N799 1.989 . S
Co782 O807 1.967 . S
Co782 O814 1.920 . S
Co783 O786 1.966 . S
Co783 N792 2.022 . S
Co783 N800 1.993 . S
Co783 O808 1.941 . S
C784 O785 1.258 . S
C784 O786 1.263 . S
O785 Co782 1.970 . S
O785 C784 1.258 . S
O786 Co783 1.966 . S
O786 C784 1.263 . S
C787 O788 1.235 . S
C787 O814 1.289 . S
O788 C787 1.235 . S
C789 C791 1.400 . S
C789 N792 1.351 . S
C789 C794 1.501 . S
C790 C791 1.387 . S
C790 N793 1.341 . S
C791 C789 1.400 . S
C791 C790 1.387 . S
N792 Co783 2.022 . S
N792 C789 1.351 . S
N792 N793 1.365 . S
N793 C790 1.341 . S
N793 N792 1.365 . S
N793 H813 0.862 . S
C794 C789 1.501 . S
C794 H795 0.961 . S
C794 H796 0.961 . S
C794 H797 0.960 . S
H795 C794 0.961 . S
H796 C794 0.961 . S
H797 C794 0.960 . S
C798 N799 1.342 . S
C798 C802 1.401 . S
C798 C803 1.499 . S
N799 Co782 1.989 . S
N799 C798 1.342 . S
N799 N800 1.388 . S
N800 Co783 1.993 . S
N800 N799 1.388 . S
N800 C801 1.346 . S
C801 N800 1.346 . S
C801 C802 1.396 . S
C801 C811 1.510 . S
C802 C798 1.401 . S
C802 C801 1.396 . S
C803 C798 1.499 . S
C803 H804 0.959 . S
C803 H805 0.960 . S
C803 H806 0.961 . S
H804 C803 0.959 . S
H805 C803 0.960 . S
H806 C803 0.961 . S
O807 Co782 1.967 . S
O807 C815 1.258 . S
O808 Co783 1.941 . S
O808 C815 1.266 . S
H809 C811 0.959 . S
H810 C811 0.961 . S
C811 C801 1.510 . S
C811 H809 0.959 . S
C811 H810 0.961 . S
C811 H812 0.960 . S
H812 C811 0.960 . S
H813 N793 0.862 . S
O814 Co782 1.920 . S
O814 C787 1.289 . S
C815 O807 1.258 . S
C815 O808 1.266 . S
Co816 O819 1.970 . S
Co816 N833 1.989 . S
Co816 O841 1.967 . S
Co816 O848 1.920 . S
Co817 O820 1.966 . S
Co817 N826 2.022 . S
Co817 N834 1.993 . S
Co817 O842 1.941 . S
C818 O819 1.258 . S
C818 O820 1.263 . S
O819 Co816 1.970 . S
O819 C818 1.258 . S
O820 Co817 1.966 . S
O820 C818 1.263 . S
C821 O822 1.235 . S
C821 O848 1.289 . S
O822 C821 1.235 . S
C823 C825 1.400 . S
C823 N826 1.351 . S
C823 C828 1.501 . S
C824 C825 1.387 . S
C824 N827 1.341 . S
C825 C823 1.400 . S
C825 C824 1.387 . S
N826 Co817 2.022 . S
N826 C823 1.351 . S
N826 N827 1.365 . S
N827 C824 1.341 . S
N827 N826 1.365 . S
N827 H847 0.862 . S
C828 C823 1.501 . S
C828 H829 0.961 . S
C828 H830 0.961 . S
C828 H831 0.960 . S
H829 C828 0.961 . S
H830 C828 0.961 . S
H831 C828 0.960 . S
C832 N833 1.342 . S
C832 C836 1.401 . S
C832 C837 1.499 . S
N833 Co816 1.989 . S
N833 C832 1.342 . S
N833 N834 1.388 . S
N834 Co817 1.993 . S
N834 N833 1.388 . S
N834 C835 1.346 . S
C835 N834 1.346 . S
C835 C836 1.396 . S
C835 C845 1.510 . S
C836 C832 1.401 . S
C836 C835 1.396 . S
C837 C832 1.499 . S
C837 H838 0.959 . S
C837 H839 0.960 . S
C837 H840 0.961 . S
H838 C837 0.959 . S
H839 C837 0.960 . S
H840 C837 0.961 . S
O841 Co816 1.967 . S
O841 C849 1.258 . S
O842 Co817 1.941 . S
O842 C849 1.266 . S
H843 C845 0.959 . S
H844 C845 0.961 . S
C845 C835 1.510 . S
C845 H843 0.959 . S
C845 H844 0.961 . S
C845 H846 0.960 . S
H846 C845 0.960 . S
H847 N827 0.862 . S
O848 Co816 1.920 . S
O848 C821 1.289 . S
C849 O841 1.258 . S
C849 O842 1.266 . S
Co850 O853 1.970 . S
Co850 N867 1.989 . S
Co850 O875 1.967 . S
Co850 O882 1.920 . S
Co851 O854 1.966 . S
Co851 N860 2.022 . S
Co851 N868 1.993 . S
Co851 O876 1.941 . S
C852 O853 1.258 . S
C852 O854 1.263 . S
O853 Co850 1.970 . S
O853 C852 1.258 . S
O854 Co851 1.966 . S
O854 C852 1.263 . S
C855 O856 1.235 . S
C855 O882 1.289 . S
O856 C855 1.235 . S
C857 C859 1.400 . S
C857 N860 1.351 . S
C857 C862 1.501 . S
C858 C859 1.387 . S
C858 N861 1.341 . S
C859 C857 1.400 . S
C859 C858 1.387 . S
N860 Co851 2.022 . S
N860 C857 1.351 . S
N860 N861 1.365 . S
N861 C858 1.341 . S
N861 N860 1.365 . S
N861 H881 0.862 . S
C862 C857 1.501 . S
C862 H863 0.961 . S
C862 H864 0.961 . S
C862 H865 0.960 . S
H863 C862 0.961 . S
H864 C862 0.961 . S
H865 C862 0.960 . S
C866 N867 1.342 . S
C866 C870 1.401 . S
C866 C871 1.499 . S
N867 Co850 1.989 . S
N867 C866 1.342 . S
N867 N868 1.388 . S
N868 Co851 1.993 . S
N868 N867 1.388 . S
N868 C869 1.346 . S
C869 N868 1.346 . S
C869 C870 1.396 . S
C869 C879 1.510 . S
C870 C866 1.401 . S
C870 C869 1.396 . S
C871 C866 1.499 . S
C871 H872 0.959 . S
C871 H873 0.960 . S
C871 H874 0.961 . S
H872 C871 0.959 . S
H873 C871 0.960 . S
H874 C871 0.961 . S
O875 Co850 1.967 . S
O875 C883 1.258 . S
O876 Co851 1.941 . S
O876 C883 1.266 . S
H877 C879 0.959 . S
H878 C879 0.961 . S
C879 C869 1.510 . S
C879 H877 0.959 . S
C879 H878 0.961 . S
C879 H880 0.960 . S
H880 C879 0.960 . S
H881 N861 0.862 . S
O882 Co850 1.920 . S
O882 C855 1.289 . S
C883 O875 1.258 . S
C883 O876 1.266 . S
Co884 O887 1.970 . S
Co884 N901 1.989 . S
Co884 O909 1.967 1_655 S
Co884 O916 1.920 . S
Co885 O888 1.966 . S
Co885 N894 2.022 . S
Co885 N902 1.993 1_455 S
Co885 O910 1.941 . S
C886 O887 1.258 . S
C886 O888 1.263 1_655 S
O887 Co884 1.970 . S
O887 C886 1.258 . S
O888 Co885 1.966 . S
O888 C886 1.263 1_455 S
C889 O890 1.235 . S
C889 O916 1.289 . S
O890 C889 1.235 . S
C891 C893 1.400 . S
C891 N894 1.351 . S
C891 C896 1.501 . S
C892 C893 1.387 . S
C892 N895 1.341 . S
C893 C891 1.400 . S
C893 C892 1.387 . S
N894 Co885 2.022 . S
N894 C891 1.351 . S
N894 N895 1.365 . S
N895 C892 1.341 . S
N895 N894 1.365 . S
N895 H915 0.862 . S
C896 C891 1.501 . S
C896 H897 0.961 . S
C896 H898 0.961 . S
C896 H899 0.960 . S
H897 C896 0.961 . S
H898 C896 0.961 . S
H899 C896 0.960 . S
C900 N901 1.342 . S
C900 C904 1.401 . S
C900 C905 1.499 . S
N901 Co884 1.989 . S
N901 C900 1.342 . S
N901 N902 1.388 . S
N902 Co885 1.993 1_655 S
N902 N901 1.388 . S
N902 C903 1.346 . S
C903 N902 1.346 . S
C903 C904 1.396 . S
C903 C913 1.542 . S
C904 C900 1.401 . S
C904 C903 1.396 . S
C905 C900 1.499 . S
C905 H906 0.959 . S
C905 H907 0.960 . S
C905 H908 0.961 . S
H906 C905 0.959 . S
H907 C905 0.960 . S
H908 C905 0.961 . S
O909 Co884 1.967 1_455 S
O909 C917 1.258 . S
O910 Co885 1.941 . S
O910 C917 1.266 . S
H911 C913 0.944 1_455 S
H912 C913 0.991 . S
C913 C903 1.542 . S
C913 H911 0.944 1_655 S
C913 H912 0.991 . S
C913 H914 0.918 1_655 S
H914 C913 0.918 1_455 S
H915 N895 0.862 . S
O916 Co884 1.920 . S
O916 C889 1.289 . S
C917 O909 1.258 . S
C917 O910 1.266 . S
Co918 O921 1.970 . S
Co918 N935 1.989 . S
Co918 O943 1.967 . S
Co918 O950 1.920 . S
Co919 O922 1.966 . S
Co919 N928 2.022 . S
Co919 N936 1.993 . S
Co919 O944 1.941 . S
C920 O921 1.258 . S
C920 O922 1.263 . S
O921 Co918 1.970 . S
O921 C920 1.258 . S
O922 Co919 1.966 . S
O922 C920 1.263 . S
C923 O924 1.235 . S
C923 O950 1.289 . S
O924 C923 1.235 . S
C925 C927 1.400 . S
C925 N928 1.351 . S
C925 C930 1.501 . S
C926 C927 1.387 . S
C926 N929 1.341 . S
C927 C925 1.400 . S
C927 C926 1.387 . S
N928 Co919 2.022 . S
N928 C925 1.351 . S
N928 N929 1.365 . S
N929 C926 1.341 . S
N929 N928 1.365 . S
N929 H949 0.862 . S
C930 C925 1.501 . S
C930 H931 0.961 . S
C930 H932 0.961 . S
C930 H933 0.960 . S
H931 C930 0.961 . S
H932 C930 0.961 . S
H933 C930 0.960 . S
C934 N935 1.342 . S
C934 C938 1.401 . S
C934 C939 1.499 . S
N935 Co918 1.989 . S
N935 C934 1.342 . S
N935 N936 1.388 . S
N936 Co919 1.993 . S
N936 N935 1.388 . S
N936 C937 1.346 . S
C937 N936 1.346 . S
C937 C938 1.396 . S
C937 C947 1.510 . S
C938 C934 1.401 . S
C938 C937 1.396 . S
C939 C934 1.499 . S
C939 H940 0.959 . S
C939 H941 0.960 . S
C939 H942 0.961 . S
H940 C939 0.959 . S
H941 C939 0.960 . S
H942 C939 0.961 . S
O943 Co918 1.967 . S
O943 C951 1.258 . S
O944 Co919 1.941 . S
O944 C951 1.266 . S
H945 C947 0.959 . S
H946 C947 0.961 . S
C947 C937 1.510 . S
C947 H945 0.959 . S
C947 H946 0.961 . S
C947 H948 0.960 . S
H948 C947 0.960 . S
H949 N929 0.862 . S
O950 Co918 1.920 . S
O950 C923 1.289 . S
C951 O943 1.258 . S
C951 O944 1.266 . S
Co952 O955 1.970 . S
Co952 N969 1.989 . S
Co952 O977 1.967 . S
Co952 O984 1.920 . S
Co953 O956 1.966 . S
Co953 N962 2.022 . S
Co953 N970 1.993 . S
Co953 O978 1.941 . S
C954 O955 1.258 . S
C954 O956 1.263 . S
O955 Co952 1.970 . S
O955 C954 1.258 . S
O956 Co953 1.966 . S
O956 C954 1.263 . S
C957 O958 1.235 . S
C957 O984 1.289 . S
O958 C957 1.235 . S
C959 C961 1.400 . S
C959 N962 1.351 . S
C959 C964 1.501 . S
C960 C961 1.387 . S
C960 N963 1.341 . S
C961 C959 1.400 . S
C961 C960 1.387 . S
N962 Co953 2.022 . S
N962 C959 1.351 . S
N962 N963 1.365 . S
N963 C960 1.341 . S
N963 N962 1.365 . S
N963 H983 0.862 . S
C964 C959 1.501 . S
C964 H965 0.961 . S
C964 H966 0.961 . S
C964 H967 0.960 . S
H965 C964 0.961 . S
H966 C964 0.961 . S
H967 C964 0.960 . S
C968 N969 1.342 . S
C968 C972 1.401 . S
C968 C973 1.499 . S
N969 Co952 1.989 . S
N969 C968 1.342 . S
N969 N970 1.388 . S
N970 Co953 1.993 . S
N970 N969 1.388 . S
N970 C971 1.346 . S
C971 N970 1.346 . S
C971 C972 1.396 . S
C971 C981 1.510 . S
C972 C968 1.401 . S
C972 C971 1.396 . S
C973 C968 1.499 . S
C973 H974 0.959 . S
C973 H975 0.960 . S
C973 H976 0.961 . S
H974 C973 0.959 . S
H975 C973 0.960 . S
H976 C973 0.961 . S
O977 Co952 1.967 . S
O977 C985 1.258 . S
O978 Co953 1.941 . S
O978 C985 1.266 . S
H979 C981 0.959 . S
H980 C981 0.961 . S
C981 C971 1.510 . S
C981 H979 0.959 . S
C981 H980 0.961 . S
C981 H982 0.960 . S
H982 C981 0.960 . S
H983 N963 0.862 . S
O984 Co952 1.920 . S
O984 C957 1.289 . S
C985 O977 1.258 . S
C985 O978 1.266 . S
Co986 O989 1.970 . S
Co986 N1003 1.989 . S
Co986 O1011 1.967 . S
Co986 O1018 1.920 . S
Co987 O990 1.966 . S
Co987 N996 2.022 . S
Co987 N1004 1.993 . S
Co987 O1012 1.941 . S
C988 O989 1.258 . S
C988 O990 1.263 . S
O989 Co986 1.970 . S
O989 C988 1.258 . S
O990 Co987 1.966 . S
O990 C988 1.263 . S
C991 O992 1.235 . S
C991 O1018 1.289 . S
O992 C991 1.235 . S
C993 C995 1.400 . S
C993 N996 1.351 . S
C993 C998 1.501 . S
C994 C995 1.387 . S
C994 N997 1.341 . S
C995 C993 1.400 . S
C995 C994 1.387 . S
N996 Co987 2.022 . S
N996 C993 1.351 . S
N996 N997 1.365 . S
N997 C994 1.341 . S
N997 N996 1.365 . S
N997 H1017 0.862 . S
C998 C993 1.501 . S
C998 H999 0.961 . S
C998 H1000 0.961 . S
C998 H1001 0.960 . S
H999 C998 0.961 . S
H1000 C998 0.961 . S
H1001 C998 0.960 . S
C1002 N1003 1.342 . S
C1002 C1006 1.401 . S
C1002 C1007 1.499 . S
N1003 Co986 1.989 . S
N1003 C1002 1.342 . S
N1003 N1004 1.388 . S
N1004 Co987 1.993 . S
N1004 N1003 1.388 . S
N1004 C1005 1.346 . S
C1005 N1004 1.346 . S
C1005 C1006 1.396 . S
C1005 C1015 1.510 . S
C1006 C1002 1.401 . S
C1006 C1005 1.396 . S
C1007 C1002 1.499 . S
C1007 H1008 0.959 . S
C1007 H1009 0.960 . S
C1007 H1010 0.961 . S
H1008 C1007 0.959 . S
H1009 C1007 0.960 . S
H1010 C1007 0.961 . S
O1011 Co986 1.967 . S
O1011 C1019 1.258 . S
O1012 Co987 1.941 . S
O1012 C1019 1.266 . S
H1013 C1015 0.959 . S
H1014 C1015 0.961 . S
C1015 C1005 1.510 . S
C1015 H1013 0.959 . S
C1015 H1014 0.961 . S
C1015 H1016 0.960 . S
H1016 C1015 0.960 . S
H1017 N997 0.862 . S
O1018 Co986 1.920 . S
O1018 C991 1.289 . S
C1019 O1011 1.258 . S
C1019 O1012 1.266 . S
Co1020 O1023 1.970 . S
Co1020 N1037 1.989 . S
Co1020 O1045 1.967 1_655 S
Co1020 O1052 1.920 . S
Co1021 O1024 1.966 . S
Co1021 N1030 2.022 . S
Co1021 N1038 1.993 1_455 S
Co1021 O1046 1.941 . S
C1022 O1023 1.258 . S
C1022 O1024 1.263 1_655 S
O1023 Co1020 1.970 . S
O1023 C1022 1.258 . S
O1024 Co1021 1.966 . S
O1024 C1022 1.263 1_455 S
C1025 O1026 1.235 . S
C1025 O1052 1.289 . S
O1026 C1025 1.235 . S
C1027 C1029 1.400 . S
C1027 N1030 1.351 . S
C1027 C1032 1.501 . S
C1028 C1029 1.387 . S
C1028 N1031 1.341 . S
C1029 C1027 1.400 . S
C1029 C1028 1.387 . S
N1030 Co1021 2.022 . S
N1030 C1027 1.351 . S
N1030 N1031 1.365 . S
N1031 C1028 1.341 . S
N1031 N1030 1.365 . S
N1031 H1051 0.862 . S
C1032 C1027 1.501 . S
C1032 H1033 0.961 . S
C1032 H1034 0.961 . S
C1032 H1035 0.960 . S
H1033 C1032 0.961 . S
H1034 C1032 0.961 . S
H1035 C1032 0.960 . S
C1036 N1037 1.342 . S
C1036 C1040 1.401 . S
C1036 C1041 1.499 . S
N1037 Co1020 1.989 . S
N1037 C1036 1.342 . S
N1037 N1038 1.388 . S
N1038 Co1021 1.993 1_655 S
N1038 N1037 1.388 . S
N1038 C1039 1.346 . S
C1039 N1038 1.346 . S
C1039 C1040 1.396 . S
C1039 C1049 1.542 . S
C1040 C1036 1.401 . S
C1040 C1039 1.396 . S
C1041 C1036 1.499 . S
C1041 H1042 0.959 . S
C1041 H1043 0.960 . S
C1041 H1044 0.961 . S
H1042 C1041 0.959 . S
H1043 C1041 0.960 . S
H1044 C1041 0.961 . S
O1045 Co1020 1.967 1_455 S
O1045 C1053 1.258 . S
O1046 Co1021 1.941 . S
O1046 C1053 1.266 . S
H1047 C1049 0.944 1_455 S
H1048 C1049 0.991 . S
C1049 C1039 1.542 . S
C1049 H1047 0.944 1_655 S
C1049 H1048 0.991 . S
C1049 H1050 0.918 1_655 S
H1050 C1049 0.918 1_455 S
H1051 N1031 0.862 . S
O1052 Co1020 1.920 . S
O1052 C1025 1.289 . S
C1053 O1045 1.258 . S
C1053 O1046 1.266 . S
Co1054 O1057 1.970 . S
Co1054 N1071 1.989 . S
Co1054 O1079 1.967 . S
Co1054 O1086 1.920 . S
Co1055 O1058 1.966 . S
Co1055 N1064 2.022 . S
Co1055 N1072 1.993 . S
Co1055 O1080 1.941 . S
C1056 O1057 1.258 . S
C1056 O1058 1.263 . S
O1057 Co1054 1.970 . S
O1057 C1056 1.258 . S
O1058 Co1055 1.966 . S
O1058 C1056 1.263 . S
C1059 O1060 1.235 . S
C1059 O1086 1.289 . S
O1060 C1059 1.235 . S
C1061 C1063 1.400 . S
C1061 N1064 1.351 . S
C1061 C1066 1.501 . S
C1062 C1063 1.387 . S
C1062 N1065 1.341 . S
C1063 C1061 1.400 . S
C1063 C1062 1.387 . S
N1064 Co1055 2.022 . S
N1064 C1061 1.351 . S
N1064 N1065 1.365 . S
N1065 C1062 1.341 . S
N1065 N1064 1.365 . S
N1065 H1085 0.862 . S
C1066 C1061 1.501 . S
C1066 H1067 0.961 . S
C1066 H1068 0.961 . S
C1066 H1069 0.960 . S
H1067 C1066 0.961 . S
H1068 C1066 0.961 . S
H1069 C1066 0.960 . S
C1070 N1071 1.342 . S
C1070 C1074 1.401 . S
C1070 C1075 1.499 . S
N1071 Co1054 1.989 . S
N1071 C1070 1.342 . S
N1071 N1072 1.388 . S
N1072 Co1055 1.993 . S
N1072 N1071 1.388 . S
N1072 C1073 1.346 . S
C1073 N1072 1.346 . S
C1073 C1074 1.396 . S
C1073 C1083 1.510 . S
C1074 C1070 1.401 . S
C1074 C1073 1.396 . S
C1075 C1070 1.499 . S
C1075 H1076 0.959 . S
C1075 H1077 0.960 . S
C1075 H1078 0.961 . S
H1076 C1075 0.959 . S
H1077 C1075 0.960 . S
H1078 C1075 0.961 . S
O1079 Co1054 1.967 . S
O1079 C1087 1.258 . S
O1080 Co1055 1.941 . S
O1080 C1087 1.266 . S
H1081 C1083 0.959 . S
H1082 C1083 0.961 . S
C1083 C1073 1.510 . S
C1083 H1081 0.959 . S
C1083 H1082 0.961 . S
C1083 H1084 0.960 . S
H1084 C1083 0.960 . S
H1085 N1065 0.862 . S
O1086 Co1054 1.920 . S
O1086 C1059 1.289 . S
C1087 O1079 1.258 . S
C1087 O1080 1.266 . S
Co1088 O1091 1.970 . S
Co1088 N1105 1.989 . S
Co1088 O1113 1.967 . S
Co1088 O1120 1.920 . S
Co1089 O1092 1.966 . S
Co1089 N1098 2.022 . S
Co1089 N1106 1.993 . S
Co1089 O1114 1.941 . S
C1090 O1091 1.258 . S
C1090 O1092 1.263 . S
O1091 Co1088 1.970 . S
O1091 C1090 1.258 . S
O1092 Co1089 1.966 . S
O1092 C1090 1.263 . S
C1093 O1094 1.235 . S
C1093 O1120 1.289 . S
O1094 C1093 1.235 . S
C1095 C1097 1.400 . S
C1095 N1098 1.351 . S
C1095 C1100 1.501 . S
C1096 C1097 1.387 . S
C1096 N1099 1.341 . S
C1097 C1095 1.400 . S
C1097 C1096 1.387 . S
N1098 Co1089 2.022 . S
N1098 C1095 1.351 . S
N1098 N1099 1.365 . S
N1099 C1096 1.341 . S
N1099 N1098 1.365 . S
N1099 H1119 0.862 . S
C1100 C1095 1.501 . S
C1100 H1101 0.961 . S
C1100 H1102 0.961 . S
C1100 H1103 0.960 . S
H1101 C1100 0.961 . S
H1102 C1100 0.961 . S
H1103 C1100 0.960 . S
C1104 N1105 1.342 . S
C1104 C1108 1.401 . S
C1104 C1109 1.499 . S
N1105 Co1088 1.989 . S
N1105 C1104 1.342 . S
N1105 N1106 1.388 . S
N1106 Co1089 1.993 . S
N1106 N1105 1.388 . S
N1106 C1107 1.346 . S
C1107 N1106 1.346 . S
C1107 C1108 1.396 . S
C1107 C1117 1.510 . S
C1108 C1104 1.401 . S
C1108 C1107 1.396 . S
C1109 C1104 1.499 . S
C1109 H1110 0.959 . S
C1109 H1111 0.960 . S
C1109 H1112 0.961 . S
H1110 C1109 0.959 . S
H1111 C1109 0.960 . S
H1112 C1109 0.961 . S
O1113 Co1088 1.967 . S
O1113 C1121 1.258 . S
O1114 Co1089 1.941 . S
O1114 C1121 1.266 . S
H1115 C1117 0.959 . S
H1116 C1117 0.961 . S
C1117 C1107 1.510 . S
C1117 H1115 0.959 . S
C1117 H1116 0.961 . S
C1117 H1118 0.960 . S
H1118 C1117 0.960 . S
H1119 N1099 0.862 . S
O1120 Co1088 1.920 . S
O1120 C1093 1.289 . S
C1121 O1113 1.258 . S
C1121 O1114 1.266 . S
Co1122 O1125 1.970 . S
Co1122 N1139 1.989 . S
Co1122 O1147 1.967 . S
Co1122 O1154 1.920 . S
Co1123 O1126 1.966 . S
Co1123 N1132 2.022 . S
Co1123 N1140 1.993 . S
Co1123 O1148 1.941 . S
C1124 O1125 1.258 . S
C1124 O1126 1.263 . S
O1125 Co1122 1.970 . S
O1125 C1124 1.258 . S
O1126 Co1123 1.966 . S
O1126 C1124 1.263 . S
C1127 O1128 1.235 . S
C1127 O1154 1.289 . S
O1128 C1127 1.235 . S
C1129 C1131 1.400 . S
C1129 N1132 1.351 . S
C1129 C1134 1.501 . S
C1130 C1131 1.387 . S
C1130 N1133 1.341 . S
C1131 C1129 1.400 . S
C1131 C1130 1.387 . S
N1132 Co1123 2.022 . S
N1132 C1129 1.351 . S
N1132 N1133 1.365 . S
N1133 C1130 1.341 . S
N1133 N1132 1.365 . S
N1133 H1153 0.862 . S
C1134 C1129 1.501 . S
C1134 H1135 0.961 . S
C1134 H1136 0.961 . S
C1134 H1137 0.960 . S
H1135 C1134 0.961 . S
H1136 C1134 0.961 . S
H1137 C1134 0.960 . S
C1138 N1139 1.342 . S
C1138 C1142 1.401 . S
C1138 C1143 1.499 . S
N1139 Co1122 1.989 . S
N1139 C1138 1.342 . S
N1139 N1140 1.388 . S
N1140 Co1123 1.993 . S
N1140 N1139 1.388 . S
N1140 C1141 1.346 . S
C1141 N1140 1.346 . S
C1141 C1142 1.396 . S
C1141 C1151 1.510 . S
C1142 C1138 1.401 . S
C1142 C1141 1.396 . S
C1143 C1138 1.499 . S
C1143 H1144 0.959 . S
C1143 H1145 0.960 . S
C1143 H1146 0.961 . S
H1144 C1143 0.959 . S
H1145 C1143 0.960 . S
H1146 C1143 0.961 . S
O1147 Co1122 1.967 . S
O1147 C1155 1.258 . S
O1148 Co1123 1.941 . S
O1148 C1155 1.266 . S
H1149 C1151 0.959 . S
H1150 C1151 0.961 . S
C1151 C1141 1.510 . S
C1151 H1149 0.959 . S
C1151 H1150 0.961 . S
C1151 H1152 0.960 . S
H1152 C1151 0.960 . S
H1153 N1133 0.862 . S
O1154 Co1122 1.920 . S
O1154 C1127 1.289 . S
C1155 O1147 1.258 . S
C1155 O1148 1.266 . S
Co1156 O1159 1.970 . S
Co1156 N1173 1.989 . S
Co1156 O1181 1.967 . S
Co1156 O1188 1.920 . S
Co1157 O1160 1.966 . S
Co1157 N1166 2.022 . S
Co1157 N1174 1.993 . S
Co1157 O1182 1.941 . S
C1158 O1159 1.258 . S
C1158 O1160 1.263 . S
O1159 Co1156 1.970 . S
O1159 C1158 1.258 . S
O1160 Co1157 1.966 . S
O1160 C1158 1.263 . S
C1161 O1162 1.235 . S
C1161 O1188 1.289 . S
O1162 C1161 1.235 . S
C1163 C1165 1.400 . S
C1163 N1166 1.351 . S
C1163 C1168 1.501 1_554 S
C1164 C1165 1.387 . S
C1164 N1167 1.341 . S
C1165 C1163 1.400 . S
C1165 C1164 1.387 . S
N1166 Co1157 2.022 . S
N1166 C1163 1.351 . S
N1166 N1167 1.365 . S
N1167 C1164 1.341 . S
N1167 N1166 1.365 . S
N1167 H1187 0.862 . S
C1168 C1163 1.501 1_556 S
C1168 H1169 0.961 1_556 S
C1168 H1170 0.961 . S
C1168 H1171 0.960 . S
H1169 C1168 0.961 1_554 S
H1170 C1168 0.961 . S
H1171 C1168 0.960 . S
C1172 N1173 1.342 . S
C1172 C1176 1.401 . S
C1172 C1177 1.499 . S
N1173 Co1156 1.989 . S
N1173 C1172 1.342 . S
N1173 N1174 1.388 . S
N1174 Co1157 1.993 . S
N1174 N1173 1.388 . S
N1174 C1175 1.346 . S
C1175 N1174 1.346 . S
C1175 C1176 1.396 . S
C1175 C1185 1.510 . S
C1176 C1172 1.401 . S
C1176 C1175 1.396 . S
C1177 C1172 1.499 . S
C1177 H1178 0.959 . S
C1177 H1179 0.960 . S
C1177 H1180 0.961 . S
H1178 C1177 0.959 . S
H1179 C1177 0.960 . S
H1180 C1177 0.961 . S
O1181 Co1156 1.967 . S
O1181 C1189 1.258 . S
O1182 Co1157 1.941 . S
O1182 C1189 1.266 . S
H1183 C1185 0.959 . S
H1184 C1185 0.961 . S
C1185 C1175 1.510 . S
C1185 H1183 0.959 . S
C1185 H1184 0.961 . S
C1185 H1186 0.960 . S
H1186 C1185 0.960 . S
H1187 N1167 0.862 . S
O1188 Co1156 1.920 . S
O1188 C1161 1.289 . S
C1189 O1181 1.258 . S
C1189 O1182 1.266 . S
Co1190 O1193 1.970 . S
Co1190 N1207 1.989 . S
Co1190 O1215 1.967 . S
Co1190 O1222 1.920 . S
Co1191 O1194 1.966 . S
Co1191 N1200 2.022 . S
Co1191 N1208 1.993 . S
Co1191 O1216 1.941 . S
C1192 O1193 1.258 . S
C1192 O1194 1.263 . S
O1193 Co1190 1.970 . S
O1193 C1192 1.258 . S
O1194 Co1191 1.966 . S
O1194 C1192 1.263 . S
C1195 O1196 1.235 . S
C1195 O1222 1.289 . S
O1196 C1195 1.235 . S
C1197 C1199 1.400 . S
C1197 N1200 1.351 . S
C1197 C1202 1.501 . S
C1198 C1199 1.387 . S
C1198 N1201 1.341 . S
C1199 C1197 1.400 . S
C1199 C1198 1.387 . S
N1200 Co1191 2.022 . S
N1200 C1197 1.351 . S
N1200 N1201 1.365 . S
N1201 C1198 1.341 . S
N1201 N1200 1.365 . S
N1201 H1221 0.862 . S
C1202 C1197 1.501 . S
C1202 H1203 0.961 . S
C1202 H1204 0.961 . S
C1202 H1205 0.960 . S
H1203 C1202 0.961 . S
H1204 C1202 0.961 . S
H1205 C1202 0.960 . S
C1206 N1207 1.342 . S
C1206 C1210 1.401 . S
C1206 C1211 1.499 . S
N1207 Co1190 1.989 . S
N1207 C1206 1.342 . S
N1207 N1208 1.388 . S
N1208 Co1191 1.993 . S
N1208 N1207 1.388 . S
N1208 C1209 1.346 . S
C1209 N1208 1.346 . S
C1209 C1210 1.396 . S
C1209 C1219 1.510 . S
C1210 C1206 1.401 . S
C1210 C1209 1.396 . S
C1211 C1206 1.499 . S
C1211 H1212 0.959 . S
C1211 H1213 0.960 . S
C1211 H1214 0.961 . S
H1212 C1211 0.959 . S
H1213 C1211 0.960 . S
H1214 C1211 0.961 . S
O1215 Co1190 1.967 . S
O1215 C1223 1.258 . S
O1216 Co1191 1.941 . S
O1216 C1223 1.266 . S
H1217 C1219 0.959 . S
H1218 C1219 0.961 . S
C1219 C1209 1.510 . S
C1219 H1217 0.959 . S
C1219 H1218 0.961 . S
C1219 H1220 0.960 . S
H1220 C1219 0.960 . S
H1221 N1201 0.862 . S
O1222 Co1190 1.920 . S
O1222 C1195 1.289 . S
C1223 O1215 1.258 . S
C1223 O1216 1.266 . S
Co1224 O1227 1.970 . S
Co1224 N1241 1.989 . S
Co1224 O1249 1.967 . S
Co1224 O1256 1.920 . S
Co1225 O1228 1.966 . S
Co1225 N1234 2.022 . S
Co1225 N1242 1.993 . S
Co1225 O1250 1.941 . S
C1226 O1227 1.258 . S
C1226 O1228 1.263 . S
O1227 Co1224 1.970 . S
O1227 C1226 1.258 . S
O1228 Co1225 1.966 . S
O1228 C1226 1.263 . S
C1229 O1230 1.235 . S
C1229 O1256 1.289 . S
O1230 C1229 1.235 . S
C1231 C1233 1.400 . S
C1231 N1234 1.351 . S
C1231 C1236 1.501 . S
C1232 C1233 1.387 . S
C1232 N1235 1.341 . S
C1233 C1231 1.400 . S
C1233 C1232 1.387 . S
N1234 Co1225 2.022 . S
N1234 C1231 1.351 . S
N1234 N1235 1.365 . S
N1235 C1232 1.341 . S
N1235 N1234 1.365 . S
N1235 H1255 0.862 . S
C1236 C1231 1.501 . S
C1236 H1237 0.961 . S
C1236 H1238 0.961 1_556 S
C1236 H1239 0.960 1_556 S
H1237 C1236 0.961 . S
H1238 C1236 0.961 1_554 S
H1239 C1236 0.960 1_554 S
C1240 N1241 1.342 . S
C1240 C1244 1.401 . S
C1240 C1245 1.499 . S
N1241 Co1224 1.989 . S
N1241 C1240 1.342 . S
N1241 N1242 1.388 . S
N1242 Co1225 1.993 . S
N1242 N1241 1.388 . S
N1242 C1243 1.346 . S
C1243 N1242 1.346 . S
C1243 C1244 1.396 . S
C1243 C1253 1.510 . S
C1244 C1240 1.401 . S
C1244 C1243 1.396 . S
C1245 C1240 1.499 . S
C1245 H1246 0.959 . S
C1245 H1247 0.960 . S
C1245 H1248 0.961 . S
H1246 C1245 0.959 . S
H1247 C1245 0.960 . S
H1248 C1245 0.961 . S
O1249 Co1224 1.967 . S
O1249 C1257 1.258 . S
O1250 Co1225 1.941 . S
O1250 C1257 1.266 . S
H1251 C1253 0.959 . S
H1252 C1253 0.961 . S
C1253 C1243 1.510 . S
C1253 H1251 0.959 . S
C1253 H1252 0.961 . S
C1253 H1254 0.960 . S
H1254 C1253 0.960 . S
H1255 N1235 0.862 . S
O1256 Co1224 1.920 . S
O1256 C1229 1.289 . S
C1257 O1249 1.258 . S
C1257 O1250 1.266 . S
Co1258 O1261 1.970 . S
Co1258 N1275 1.989 . S
Co1258 O1283 1.967 . S
Co1258 O1290 1.920 . S
Co1259 O1262 1.966 . S
Co1259 N1268 2.022 . S
Co1259 N1276 1.993 . S
Co1259 O1284 1.941 . S
C1260 O1261 1.258 . S
C1260 O1262 1.263 . S
O1261 Co1258 1.970 . S
O1261 C1260 1.258 . S
O1262 Co1259 1.966 . S
O1262 C1260 1.263 . S
C1263 O1264 1.235 . S
C1263 O1290 1.289 . S
O1264 C1263 1.235 . S
C1265 C1267 1.400 . S
C1265 N1268 1.351 . S
C1265 C1270 1.501 . S
C1266 C1267 1.387 . S
C1266 N1269 1.341 . S
C1267 C1265 1.400 . S
C1267 C1266 1.387 . S
N1268 Co1259 2.022 . S
N1268 C1265 1.351 . S
N1268 N1269 1.365 . S
N1269 C1266 1.341 . S
N1269 N1268 1.365 . S
N1269 H1289 0.862 . S
C1270 C1265 1.501 . S
C1270 H1271 0.961 . S
C1270 H1272 0.961 . S
C1270 H1273 0.960 . S
H1271 C1270 0.961 . S
H1272 C1270 0.961 . S
H1273 C1270 0.960 . S
C1274 N1275 1.342 . S
C1274 C1278 1.401 . S
C1274 C1279 1.499 . S
N1275 Co1258 1.989 . S
N1275 C1274 1.342 . S
N1275 N1276 1.388 . S
N1276 Co1259 1.993 . S
N1276 N1275 1.388 . S
N1276 C1277 1.346 . S
C1277 N1276 1.346 . S
C1277 C1278 1.396 . S
C1277 C1287 1.510 . S
C1278 C1274 1.401 . S
C1278 C1277 1.396 . S
C1279 C1274 1.499 . S
C1279 H1280 0.959 . S
C1279 H1281 0.960 . S
C1279 H1282 0.961 . S
H1280 C1279 0.959 . S
H1281 C1279 0.960 . S
H1282 C1279 0.961 . S
O1283 Co1258 1.967 . S
O1283 C1291 1.258 . S
O1284 Co1259 1.941 . S
O1284 C1291 1.266 . S
H1285 C1287 0.959 . S
H1286 C1287 0.961 . S
C1287 C1277 1.510 . S
C1287 H1285 0.959 . S
C1287 H1286 0.961 . S
C1287 H1288 0.960 . S
H1288 C1287 0.960 . S
H1289 N1269 0.862 . S
O1290 Co1258 1.920 . S
O1290 C1263 1.289 . S
C1291 O1283 1.258 . S
C1291 O1284 1.266 . S
Co1292 O1295 1.970 . S
Co1292 N1309 1.989 . S
Co1292 O1317 1.967 . S
Co1292 O1324 1.920 . S
Co1293 O1296 1.966 . S
Co1293 N1302 2.022 . S
Co1293 N1310 1.993 . S
Co1293 O1318 1.941 . S
C1294 O1295 1.258 . S
C1294 O1296 1.263 . S
O1295 Co1292 1.970 . S
O1295 C1294 1.258 . S
O1296 Co1293 1.966 . S
O1296 C1294 1.263 . S
C1297 O1298 1.235 . S
C1297 O1324 1.289 . S
O1298 C1297 1.235 . S
C1299 C1301 1.400 . S
C1299 N1302 1.351 . S
C1299 C1304 1.501 . S
C1300 C1301 1.387 . S
C1300 N1303 1.341 . S
C1301 C1299 1.400 . S
C1301 C1300 1.387 . S
N1302 Co1293 2.022 . S
N1302 C1299 1.351 . S
N1302 N1303 1.365 . S
N1303 C1300 1.341 . S
N1303 N1302 1.365 . S
N1303 H1323 0.862 . S
C1304 C1299 1.501 . S
C1304 H1305 0.961 . S
C1304 H1306 0.961 . S
C1304 H1307 0.960 . S
H1305 C1304 0.961 . S
H1306 C1304 0.961 . S
H1307 C1304 0.960 . S
C1308 N1309 1.342 . S
C1308 C1312 1.401 . S
C1308 C1313 1.499 . S
N1309 Co1292 1.989 . S
N1309 C1308 1.342 . S
N1309 N1310 1.388 . S
N1310 Co1293 1.993 . S
N1310 N1309 1.388 . S
N1310 C1311 1.346 . S
C1311 N1310 1.346 . S
C1311 C1312 1.396 . S
C1311 C1321 1.510 . S
C1312 C1308 1.401 . S
C1312 C1311 1.396 . S
C1313 C1308 1.499 . S
C1313 H1314 0.959 . S
C1313 H1315 0.960 . S
C1313 H1316 0.961 . S
H1314 C1313 0.959 . S
H1315 C1313 0.960 . S
H1316 C1313 0.961 . S
O1317 Co1292 1.967 . S
O1317 C1325 1.258 . S
O1318 Co1293 1.941 . S
O1318 C1325 1.266 . S
H1319 C1321 0.959 . S
H1320 C1321 0.961 . S
C1321 C1311 1.510 . S
C1321 H1319 0.959 . S
C1321 H1320 0.961 . S
C1321 H1322 0.960 . S
H1322 C1321 0.960 . S
H1323 N1303 0.862 . S
O1324 Co1292 1.920 . S
O1324 C1297 1.289 . S
C1325 O1317 1.258 . S
C1325 O1318 1.266 . S
Co1326 O1329 1.970 . S
Co1326 N1343 1.989 . S
Co1326 O1351 1.967 . S
Co1326 O1358 1.920 . S
Co1327 O1330 1.966 . S
Co1327 N1336 2.022 . S
Co1327 N1344 1.993 . S
Co1327 O1352 1.941 . S
C1328 O1329 1.258 . S
C1328 O1330 1.263 . S
O1329 Co1326 1.970 . S
O1329 C1328 1.258 . S
O1330 Co1327 1.966 . S
O1330 C1328 1.263 . S
C1331 O1332 1.235 . S
C1331 O1358 1.289 . S
O1332 C1331 1.235 . S
C1333 C1335 1.400 . S
C1333 N1336 1.351 . S
C1333 C1338 1.501 . S
C1334 C1335 1.387 . S
C1334 N1337 1.341 . S
C1335 C1333 1.400 . S
C1335 C1334 1.387 . S
N1336 Co1327 2.022 . S
N1336 C1333 1.351 . S
N1336 N1337 1.365 . S
N1337 C1334 1.341 . S
N1337 N1336 1.365 . S
N1337 H1357 0.862 . S
C1338 C1333 1.501 . S
C1338 H1339 0.961 . S
C1338 H1340 0.961 . S
C1338 H1341 0.960 . S
H1339 C1338 0.961 . S
H1340 C1338 0.961 . S
H1341 C1338 0.960 . S
C1342 N1343 1.342 . S
C1342 C1346 1.401 . S
C1342 C1347 1.499 . S
N1343 Co1326 1.989 . S
N1343 C1342 1.342 . S
N1343 N1344 1.388 . S
N1344 Co1327 1.993 . S
N1344 N1343 1.388 . S
N1344 C1345 1.346 . S
C1345 N1344 1.346 . S
C1345 C1346 1.396 . S
C1345 C1355 1.510 . S
C1346 C1342 1.401 . S
C1346 C1345 1.396 . S
C1347 C1342 1.499 . S
C1347 H1348 0.959 . S
C1347 H1349 0.960 . S
C1347 H1350 0.961 . S
H1348 C1347 0.959 . S
H1349 C1347 0.960 . S
H1350 C1347 0.961 . S
O1351 Co1326 1.967 . S
O1351 C1359 1.258 . S
O1352 Co1327 1.941 . S
O1352 C1359 1.266 . S
H1353 C1355 0.959 . S
H1354 C1355 0.961 . S
C1355 C1345 1.510 . S
C1355 H1353 0.959 . S
C1355 H1354 0.961 . S
C1355 H1356 0.960 . S
H1356 C1355 0.960 . S
H1357 N1337 0.862 . S
O1358 Co1326 1.920 . S
O1358 C1331 1.289 . S
C1359 O1351 1.258 . S
C1359 O1352 1.266 . S
Co1360 O1363 1.970 . S
Co1360 N1377 1.989 . S
Co1360 O1385 1.967 . S
Co1360 O1392 1.920 . S
Co1361 O1364 1.966 . S
Co1361 N1370 2.022 . S
Co1361 N1378 1.993 . S
Co1361 O1386 1.941 . S
C1362 O1363 1.258 . S
C1362 O1364 1.263 . S
O1363 Co1360 1.970 . S
O1363 C1362 1.258 . S
O1364 Co1361 1.966 . S
O1364 C1362 1.263 . S
C1365 O1366 1.235 . S
C1365 O1392 1.289 . S
O1366 C1365 1.235 . S
C1367 C1369 1.400 . S
C1367 N1370 1.351 . S
C1367 C1372 1.501 . S
C1368 C1369 1.387 . S
C1368 N1371 1.341 . S
C1369 C1367 1.400 . S
C1369 C1368 1.387 . S
N1370 Co1361 2.022 . S
N1370 C1367 1.351 . S
N1370 N1371 1.365 . S
N1371 C1368 1.341 . S
N1371 N1370 1.365 . S
N1371 H1391 0.862 . S
C1372 C1367 1.501 . S
C1372 H1373 0.961 . S
C1372 H1374 0.961 . S
C1372 H1375 0.960 . S
H1373 C1372 0.961 . S
H1374 C1372 0.961 . S
H1375 C1372 0.960 . S
C1376 N1377 1.342 . S
C1376 C1380 1.401 . S
C1376 C1381 1.499 . S
N1377 Co1360 1.989 . S
N1377 C1376 1.342 . S
N1377 N1378 1.388 . S
N1378 Co1361 1.993 . S
N1378 N1377 1.388 . S
N1378 C1379 1.346 . S
C1379 N1378 1.346 . S
C1379 C1380 1.396 . S
C1379 C1389 1.510 . S
C1380 C1376 1.401 . S
C1380 C1379 1.396 . S
C1381 C1376 1.499 . S
C1381 H1382 0.959 . S
C1381 H1383 0.960 . S
C1381 H1384 0.961 . S
H1382 C1381 0.959 . S
H1383 C1381 0.960 . S
H1384 C1381 0.961 . S
O1385 Co1360 1.967 . S
O1385 C1393 1.258 . S
O1386 Co1361 1.941 . S
O1386 C1393 1.266 . S
H1387 C1389 0.959 . S
H1388 C1389 0.961 . S
C1389 C1379 1.510 . S
C1389 H1387 0.959 . S
C1389 H1388 0.961 . S
C1389 H1390 0.960 . S
H1390 C1389 0.960 . S
H1391 N1371 0.862 . S
O1392 Co1360 1.920 . S
O1392 C1365 1.289 . S
C1393 O1385 1.258 . S
C1393 O1386 1.266 . S
Co1394 O1397 1.970 . S
Co1394 N1411 1.989 . S
Co1394 O1419 1.967 . S
Co1394 O1426 1.920 . S
Co1395 O1398 1.966 . S
Co1395 N1404 2.022 . S
Co1395 N1412 1.993 . S
Co1395 O1420 1.941 . S
C1396 O1397 1.258 . S
C1396 O1398 1.263 . S
O1397 Co1394 1.970 . S
O1397 C1396 1.258 . S
O1398 Co1395 1.966 . S
O1398 C1396 1.263 . S
C1399 O1400 1.235 . S
C1399 O1426 1.289 . S
O1400 C1399 1.235 . S
C1401 C1403 1.400 . S
C1401 N1404 1.351 . S
C1401 C1406 1.501 1_455 S
C1402 C1403 1.387 . S
C1402 N1405 1.341 . S
C1403 C1401 1.400 . S
C1403 C1402 1.387 . S
N1404 Co1395 2.022 . S
N1404 C1401 1.351 . S
N1404 N1405 1.365 . S
N1405 C1402 1.341 . S
N1405 N1404 1.365 . S
N1405 H1425 0.862 . S
C1406 C1401 1.501 1_655 S
C1406 H1407 0.961 1_655 S
C1406 H1408 0.961 . S
C1406 H1409 0.960 . S
H1407 C1406 0.961 1_455 S
H1408 C1406 0.961 . S
H1409 C1406 0.960 . S
C1410 N1411 1.342 . S
C1410 C1414 1.401 . S
C1410 C1415 1.499 . S
N1411 Co1394 1.989 . S
N1411 C1410 1.342 . S
N1411 N1412 1.388 . S
N1412 Co1395 1.993 . S
N1412 N1411 1.388 . S
N1412 C1413 1.346 . S
C1413 N1412 1.346 . S
C1413 C1414 1.396 . S
C1413 C1423 1.510 . S
C1414 C1410 1.401 . S
C1414 C1413 1.396 . S
C1415 C1410 1.499 . S
C1415 H1416 0.959 . S
C1415 H1417 0.960 . S
C1415 H1418 0.961 . S
H1416 C1415 0.959 . S
H1417 C1415 0.960 . S
H1418 C1415 0.961 . S
O1419 Co1394 1.967 . S
O1419 C1427 1.258 . S
O1420 Co1395 1.941 . S
O1420 C1427 1.266 . S
H1421 C1423 0.959 . S
H1422 C1423 0.961 . S
C1423 C1413 1.510 . S
C1423 H1421 0.959 . S
C1423 H1422 0.961 . S
C1423 H1424 0.960 . S
H1424 C1423 0.960 . S
H1425 N1405 0.862 . S
O1426 Co1394 1.920 . S
O1426 C1399 1.289 . S
C1427 O1419 1.258 . S
C1427 O1420 1.266 . S
Co1428 O1431 1.970 . S
Co1428 N1445 1.989 . S
Co1428 O1453 1.967 . S
Co1428 O1460 1.920 . S
Co1429 O1432 1.966 . S
Co1429 N1438 2.022 . S
Co1429 N1446 1.993 . S
Co1429 O1454 1.941 . S
C1430 O1431 1.258 . S
C1430 O1432 1.263 . S
O1431 Co1428 1.970 . S
O1431 C1430 1.258 . S
O1432 Co1429 1.966 . S
O1432 C1430 1.263 . S
C1433 O1434 1.235 . S
C1433 O1460 1.289 . S
O1434 C1433 1.235 . S
C1435 C1437 1.400 . S
C1435 N1438 1.351 . S
C1435 C1440 1.501 . S
C1436 C1437 1.387 . S
C1436 N1439 1.341 . S
C1437 C1435 1.400 . S
C1437 C1436 1.387 . S
N1438 Co1429 2.022 . S
N1438 C1435 1.351 . S
N1438 N1439 1.365 . S
N1439 C1436 1.341 . S
N1439 N1438 1.365 . S
N1439 H1459 0.862 . S
C1440 C1435 1.501 . S
C1440 H1441 0.961 . S
C1440 H1442 0.961 . S
C1440 H1443 0.960 . S
H1441 C1440 0.961 . S
H1442 C1440 0.961 . S
H1443 C1440 0.960 . S
C1444 N1445 1.342 . S
C1444 C1448 1.401 . S
C1444 C1449 1.499 . S
N1445 Co1428 1.989 . S
N1445 C1444 1.342 . S
N1445 N1446 1.388 . S
N1446 Co1429 1.993 . S
N1446 N1445 1.388 . S
N1446 C1447 1.346 . S
C1447 N1446 1.346 . S
C1447 C1448 1.396 . S
C1447 C1457 1.510 . S
C1448 C1444 1.401 . S
C1448 C1447 1.396 . S
C1449 C1444 1.499 . S
C1449 H1450 0.959 . S
C1449 H1451 0.960 . S
C1449 H1452 0.961 . S
H1450 C1449 0.959 . S
H1451 C1449 0.960 . S
H1452 C1449 0.961 . S
O1453 Co1428 1.967 . S
O1453 C1461 1.258 . S
O1454 Co1429 1.941 . S
O1454 C1461 1.266 . S
H1455 C1457 0.959 . S
H1456 C1457 0.961 . S
C1457 C1447 1.510 . S
C1457 H1455 0.959 . S
C1457 H1456 0.961 . S
C1457 H1458 0.960 . S
H1458 C1457 0.960 . S
H1459 N1439 0.862 . S
O1460 Co1428 1.920 . S
O1460 C1433 1.289 . S
C1461 O1453 1.258 . S
C1461 O1454 1.266 . S
Co1462 O1465 1.970 . S
Co1462 N1479 1.989 . S
Co1462 O1487 1.967 1_556 S
Co1462 O1494 1.920 . S
Co1463 O1466 1.966 . S
Co1463 N1472 2.022 . S
Co1463 N1480 1.993 1_554 S
Co1463 O1488 1.941 . S
C1464 O1465 1.258 . S
C1464 O1466 1.263 1_556 S
O1465 Co1462 1.970 . S
O1465 C1464 1.258 . S
O1466 Co1463 1.966 . S
O1466 C1464 1.263 1_554 S
C1467 O1468 1.235 . S
C1467 O1494 1.289 . S
O1468 C1467 1.235 . S
C1469 C1471 1.400 . S
C1469 N1472 1.351 . S
C1469 C1474 1.501 . S
C1470 C1471 1.387 . S
C1470 N1473 1.341 . S
C1471 C1469 1.400 . S
C1471 C1470 1.387 . S
N1472 Co1463 2.022 . S
N1472 C1469 1.351 . S
N1472 N1473 1.365 . S
N1473 C1470 1.341 . S
N1473 N1472 1.365 . S
N1473 H1493 0.862 . S
C1474 C1469 1.501 . S
C1474 H1475 0.961 . S
C1474 H1476 0.961 . S
C1474 H1477 0.960 . S
H1475 C1474 0.961 . S
H1476 C1474 0.961 . S
H1477 C1474 0.960 . S
C1478 N1479 1.342 . S
C1478 C1482 1.401 . S
C1478 C1483 1.499 . S
N1479 Co1462 1.989 . S
N1479 C1478 1.342 . S
N1479 N1480 1.388 . S
N1480 Co1463 1.993 1_556 S
N1480 N1479 1.388 . S
N1480 C1481 1.346 . S
C1481 N1480 1.346 . S
C1481 C1482 1.396 . S
C1481 C1491 1.542 . S
C1482 C1478 1.401 . S
C1482 C1481 1.396 . S
C1483 C1478 1.499 . S
C1483 H1484 0.959 . S
C1483 H1485 0.960 . S
C1483 H1486 0.961 . S
H1484 C1483 0.959 . S
H1485 C1483 0.960 . S
H1486 C1483 0.961 . S
O1487 Co1462 1.967 1_554 S
O1487 C1495 1.258 . S
O1488 Co1463 1.941 . S
O1488 C1495 1.266 . S
H1489 C1491 0.944 1_554 S
H1490 C1491 0.991 . S
C1491 C1481 1.542 . S
C1491 H1489 0.944 1_556 S
C1491 H1490 0.991 . S
C1491 H1492 0.918 1_556 S
H1492 C1491 0.918 1_554 S
H1493 N1473 0.862 . S
O1494 Co1462 1.920 . S
O1494 C1467 1.289 . S
C1495 O1487 1.258 . S
C1495 O1488 1.266 . S
Co1496 O1499 1.970 . S
Co1496 N1513 1.989 . S
Co1496 O1521 1.967 . S
Co1496 O1528 1.920 . S
Co1497 O1500 1.966 . S
Co1497 N1506 2.022 . S
Co1497 N1514 1.993 . S
Co1497 O1522 1.941 . S
C1498 O1499 1.258 . S
C1498 O1500 1.263 . S
O1499 Co1496 1.970 . S
O1499 C1498 1.258 . S
O1500 Co1497 1.966 . S
O1500 C1498 1.263 . S
C1501 O1502 1.235 . S
C1501 O1528 1.289 . S
O1502 C1501 1.235 . S
C1503 C1505 1.400 . S
C1503 N1506 1.351 . S
C1503 C1508 1.501 . S
C1504 C1505 1.387 . S
C1504 N1507 1.341 . S
C1505 C1503 1.400 . S
C1505 C1504 1.387 . S
N1506 Co1497 2.022 . S
N1506 C1503 1.351 . S
N1506 N1507 1.365 . S
N1507 C1504 1.341 . S
N1507 N1506 1.365 . S
N1507 H1527 0.862 . S
C1508 C1503 1.501 . S
C1508 H1509 0.961 . S
C1508 H1510 0.961 . S
C1508 H1511 0.960 . S
H1509 C1508 0.961 . S
H1510 C1508 0.961 . S
H1511 C1508 0.960 . S
C1512 N1513 1.342 . S
C1512 C1516 1.401 . S
C1512 C1517 1.499 . S
N1513 Co1496 1.989 . S
N1513 C1512 1.342 . S
N1513 N1514 1.388 . S
N1514 Co1497 1.993 . S
N1514 N1513 1.388 . S
N1514 C1515 1.346 . S
C1515 N1514 1.346 . S
C1515 C1516 1.396 . S
C1515 C1525 1.510 . S
C1516 C1512 1.401 . S
C1516 C1515 1.396 . S
C1517 C1512 1.499 . S
C1517 H1518 0.959 . S
C1517 H1519 0.960 . S
C1517 H1520 0.961 . S
H1518 C1517 0.959 . S
H1519 C1517 0.960 . S
H1520 C1517 0.961 . S
O1521 Co1496 1.967 . S
O1521 C1529 1.258 . S
O1522 Co1497 1.941 . S
O1522 C1529 1.266 . S
H1523 C1525 0.959 . S
H1524 C1525 0.961 . S
C1525 C1515 1.510 . S
C1525 H1523 0.959 . S
C1525 H1524 0.961 . S
C1525 H1526 0.960 . S
H1526 C1525 0.960 . S
H1527 N1507 0.862 . S
O1528 Co1496 1.920 . S
O1528 C1501 1.289 . S
C1529 O1521 1.258 . S
C1529 O1522 1.266 . S
Co1530 O1533 1.970 . S
Co1530 N1547 1.989 . S
Co1530 O1555 1.967 1_554 S
Co1530 O1562 1.920 . S
Co1531 O1534 1.966 . S
Co1531 N1540 2.022 . S
Co1531 N1548 1.993 1_556 S
Co1531 O1556 1.941 . S
C1532 O1533 1.258 . S
C1532 O1534 1.263 1_554 S
O1533 Co1530 1.970 . S
O1533 C1532 1.258 . S
O1534 Co1531 1.966 . S
O1534 C1532 1.263 1_556 S
C1535 O1536 1.235 . S
C1535 O1562 1.289 . S
O1536 C1535 1.235 . S
C1537 C1539 1.400 . S
C1537 N1540 1.351 . S
C1537 C1542 1.501 . S
C1538 C1539 1.387 . S
C1538 N1541 1.341 . S
C1539 C1537 1.400 . S
C1539 C1538 1.387 . S
N1540 Co1531 2.022 . S
N1540 C1537 1.351 . S
N1540 N1541 1.365 . S
N1541 C1538 1.341 . S
N1541 N1540 1.365 . S
N1541 H1561 0.862 . S
C1542 C1537 1.501 . S
C1542 H1543 0.961 . S
C1542 H1544 0.961 1_655 S
C1542 H1545 0.960 1_655 S
H1543 C1542 0.961 . S
H1544 C1542 0.961 1_455 S
H1545 C1542 0.960 1_455 S
C1546 N1547 1.342 . S
C1546 C1550 1.401 . S
C1546 C1551 1.499 . S
N1547 Co1530 1.989 . S
N1547 C1546 1.342 . S
N1547 N1548 1.388 . S
N1548 Co1531 1.993 1_554 S
N1548 N1547 1.388 . S
N1548 C1549 1.346 . S
C1549 N1548 1.346 . S
C1549 C1550 1.396 . S
C1549 C1559 1.478 1_554 S
C1550 C1546 1.401 . S
C1550 C1549 1.396 . S
C1551 C1546 1.499 . S
C1551 H1552 0.959 . S
C1551 H1553 0.960 . S
C1551 H1554 0.961 . S
H1552 C1551 0.959 . S
H1553 C1551 0.960 . S
H1554 C1551 0.961 . S
O1555 Co1530 1.967 1_556 S
O1555 C1563 1.258 . S
O1556 Co1531 1.941 . S
O1556 C1563 1.266 . S
H1557 C1559 0.979 . S
H1558 C1559 0.932 1_554 S
C1559 C1549 1.478 1_556 S
C1559 H1557 0.979 . S
C1559 H1558 0.932 1_556 S
C1559 H1560 1.006 . S
H1560 C1559 1.006 . S
H1561 N1541 0.862 . S
O1562 Co1530 1.920 . S
O1562 C1535 1.289 . S
C1563 O1555 1.258 . S
C1563 O1556 1.266 . S
Co1564 O1567 1.970 . S
Co1564 N1581 1.989 . S
Co1564 O1589 1.967 . S
Co1564 O1596 1.920 . S
Co1565 O1568 1.966 . S
Co1565 N1574 2.022 . S
Co1565 N1582 1.993 . S
Co1565 O1590 1.941 . S
C1566 O1567 1.258 . S
C1566 O1568 1.263 . S
O1567 Co1564 1.970 . S
O1567 C1566 1.258 . S
O1568 Co1565 1.966 . S
O1568 C1566 1.263 . S
C1569 O1570 1.235 . S
C1569 O1596 1.289 . S
O1570 C1569 1.235 . S
C1571 C1573 1.400 . S
C1571 N1574 1.351 . S
C1571 C1576 1.501 . S
C1572 C1573 1.387 . S
C1572 N1575 1.341 . S
C1573 C1571 1.400 . S
C1573 C1572 1.387 . S
N1574 Co1565 2.022 . S
N1574 C1571 1.351 . S
N1574 N1575 1.365 . S
N1575 C1572 1.341 . S
N1575 N1574 1.365 . S
N1575 H1595 0.862 . S
C1576 C1571 1.501 . S
C1576 H1577 0.961 . S
C1576 H1578 0.961 . S
C1576 H1579 0.960 . S
H1577 C1576 0.961 . S
H1578 C1576 0.961 . S
H1579 C1576 0.960 . S
C1580 N1581 1.342 . S
C1580 C1584 1.401 . S
C1580 C1585 1.499 . S
N1581 Co1564 1.989 . S
N1581 C1580 1.342 . S
N1581 N1582 1.388 . S
N1582 Co1565 1.993 . S
N1582 N1581 1.388 . S
N1582 C1583 1.346 . S
C1583 N1582 1.346 . S
C1583 C1584 1.396 . S
C1583 C1593 1.510 . S
C1584 C1580 1.401 . S
C1584 C1583 1.396 . S
C1585 C1580 1.499 . S
C1585 H1586 0.959 . S
C1585 H1587 0.960 . S
C1585 H1588 0.961 . S
H1586 C1585 0.959 . S
H1587 C1585 0.960 . S
H1588 C1585 0.961 . S
O1589 Co1564 1.967 . S
O1589 C1597 1.258 . S
O1590 Co1565 1.941 . S
O1590 C1597 1.266 . S
H1591 C1593 0.959 . S
H1592 C1593 0.961 . S
C1593 C1583 1.510 . S
C1593 H1591 0.959 . S
C1593 H1592 0.961 . S
C1593 H1594 0.960 . S
H1594 C1593 0.960 . S
H1595 N1575 0.862 . S
O1596 Co1564 1.920 . S
O1596 C1569 1.289 . S
C1597 O1589 1.258 . S
C1597 O1590 1.266 . S
Co1598 O1601 1.970 . S
Co1598 N1615 1.989 . S
Co1598 O1623 1.967 . S
Co1598 O1630 1.920 . S
Co1599 O1602 1.966 . S
Co1599 N1608 2.022 . S
Co1599 N1616 1.993 . S
Co1599 O1624 1.941 . S
C1600 O1601 1.258 . S
C1600 O1602 1.263 . S
O1601 Co1598 1.970 . S
O1601 C1600 1.258 . S
O1602 Co1599 1.966 . S
O1602 C1600 1.263 . S
C1603 O1604 1.235 . S
C1603 O1630 1.289 . S
O1604 C1603 1.235 . S
C1605 C1607 1.400 . S
C1605 N1608 1.351 . S
C1605 C1610 1.501 . S
C1606 C1607 1.387 . S
C1606 N1609 1.341 . S
C1607 C1605 1.400 . S
C1607 C1606 1.387 . S
N1608 Co1599 2.022 . S
N1608 C1605 1.351 . S
N1608 N1609 1.365 . S
N1609 C1606 1.341 . S
N1609 N1608 1.365 . S
N1609 H1629 0.862 . S
C1610 C1605 1.501 . S
C1610 H1611 0.961 . S
C1610 H1612 0.961 . S
C1610 H1613 0.960 . S
H1611 C1610 0.961 . S
H1612 C1610 0.961 . S
H1613 C1610 0.960 . S
C1614 N1615 1.342 . S
C1614 C1618 1.401 . S
C1614 C1619 1.499 . S
N1615 Co1598 1.989 . S
N1615 C1614 1.342 . S
N1615 N1616 1.388 . S
N1616 Co1599 1.993 . S
N1616 N1615 1.388 . S
N1616 C1617 1.346 . S
C1617 N1616 1.346 . S
C1617 C1618 1.396 . S
C1617 C1627 1.510 . S
C1618 C1614 1.401 . S
C1618 C1617 1.396 . S
C1619 C1614 1.499 . S
C1619 H1620 0.959 . S
C1619 H1621 0.960 . S
C1619 H1622 0.961 . S
H1620 C1619 0.959 . S
H1621 C1619 0.960 . S
H1622 C1619 0.961 . S
O1623 Co1598 1.967 . S
O1623 C1631 1.258 . S
O1624 Co1599 1.941 . S
O1624 C1631 1.266 . S
H1625 C1627 0.959 . S
H1626 C1627 0.961 . S
C1627 C1617 1.510 . S
C1627 H1625 0.959 . S
C1627 H1626 0.961 . S
C1627 H1628 0.960 . S
H1628 C1627 0.960 . S
H1629 N1609 0.862 . S
O1630 Co1598 1.920 . S
O1630 C1603 1.289 . S
C1631 O1623 1.258 . S
C1631 O1624 1.266 . S
H1632 C1640 0.950 . S
H1633 C1645 0.950 . S
H1634 C1642 0.950 . S
H1635 C1644 0.950 . S
H1636 C1646 0.950 . S
H1637 C1648 0.950 . S
H1638 C1650 0.950 . S
H1639 C1651 0.950 . S
C1640 H1632 0.950 . S
C1640 C1641 1.386 . S
C1640 C1642 1.391 . S
C1641 C1640 1.386 . S
C1641 C1645 1.393 . S
C1642 H1634 0.950 . S
C1642 C1640 1.391 . S
C1642 C1643 1.400 . S
C1643 C1642 1.400 . S
C1643 C1644 1.398 . S
C1643 C1649 1.491 . S
C1644 H1635 0.950 . S
C1644 C1643 1.398 . S
C1644 C1645 1.391 . S
C1645 H1633 0.950 . S
C1645 C1641 1.393 . S
C1645 C1644 1.391 . S
C1646 H1636 0.950 . S
C1646 C1647 1.386 . S
C1646 C1648 1.391 . S
C1647 C1646 1.386 . S
C1647 C1651 1.393 . S
C1648 H1637 0.950 . S
C1648 C1646 1.391 . S
C1648 C1649 1.400 . S
C1649 C1643 1.491 . S
C1649 C1648 1.400 . S
C1649 C1650 1.398 . S
C1650 H1638 0.950 . S
C1650 C1649 1.398 . S
C1650 C1651 1.391 . S
C1651 H1639 0.950 . S
C1651 C1647 1.393 . S
C1651 C1650 1.391 . S
H1652 C1660 0.950 . S
H1653 C1665 0.950 . S
H1654 C1662 0.950 . S
H1655 C1664 0.950 . S
H1656 C1666 0.950 . S
H1657 C1668 0.950 . S
H1658 C1670 0.950 . S
H1659 C1671 0.950 . S
C1660 H1652 0.950 . S
C1660 C1661 1.386 . S
C1660 C1662 1.391 . S
C1661 C1660 1.386 . S
C1661 C1665 1.393 . S
C1662 H1654 0.950 . S
C1662 C1660 1.391 . S
C1662 C1663 1.400 . S
C1663 C1662 1.400 . S
C1663 C1664 1.398 . S
C1663 C1669 1.491 . S
C1664 H1655 0.950 . S
C1664 C1663 1.398 . S
C1664 C1665 1.391 . S
C1665 H1653 0.950 . S
C1665 C1661 1.393 . S
C1665 C1664 1.391 . S
C1666 H1656 0.950 . S
C1666 C1667 1.386 . S
C1666 C1668 1.391 . S
C1667 C1666 1.386 . S
C1667 C1671 1.393 . S
C1668 H1657 0.950 . S
C1668 C1666 1.391 . S
C1668 C1669 1.400 . S
C1669 C1663 1.491 . S
C1669 C1668 1.400 . S
C1669 C1670 1.398 . S
C1670 H1658 0.950 . S
C1670 C1669 1.398 . S
C1670 C1671 1.391 . S
C1671 H1659 0.950 . S
C1671 C1667 1.393 . S
C1671 C1670 1.391 . S
H1672 C1680 0.950 . S
H1673 C1685 0.950 . S
H1674 C1682 0.950 . S
H1675 C1684 0.950 . S
H1676 C1686 0.950 . S
H1677 C1688 0.950 . S
H1678 C1690 0.950 . S
H1679 C1691 0.950 . S
C1680 H1672 0.950 . S
C1680 C1681 1.386 . S
C1680 C1682 1.391 . S
C1681 C1680 1.386 . S
C1681 C1685 1.393 . S
C1682 H1674 0.950 . S
C1682 C1680 1.391 . S
C1682 C1683 1.400 . S
C1683 C1682 1.400 . S
C1683 C1684 1.398 . S
C1683 C1689 1.491 . S
C1684 H1675 0.950 . S
C1684 C1683 1.398 . S
C1684 C1685 1.391 . S
C1685 H1673 0.950 . S
C1685 C1681 1.393 . S
C1685 C1684 1.391 . S
C1686 H1676 0.950 . S
C1686 C1687 1.386 . S
C1686 C1688 1.391 . S
C1687 C1686 1.386 . S
C1687 C1691 1.393 . S
C1688 H1677 0.950 . S
C1688 C1686 1.391 . S
C1688 C1689 1.400 . S
C1689 C1683 1.491 . S
C1689 C1688 1.400 . S
C1689 C1690 1.398 . S
C1690 H1678 0.950 . S
C1690 C1689 1.398 . S
C1690 C1691 1.391 . S
C1691 H1679 0.950 . S
C1691 C1687 1.393 . S
C1691 C1690 1.391 . S
H1692 C1700 0.950 . S
H1693 C1705 0.950 . S
H1694 C1702 0.950 . S
H1695 C1704 0.950 . S
H1696 C1706 0.950 . S
H1697 C1708 0.950 . S
H1698 C1710 0.950 . S
H1699 C1711 0.950 . S
C1700 H1692 0.950 . S
C1700 C1701 1.386 . S
C1700 C1702 1.391 . S
C1701 C1700 1.386 . S
C1701 C1705 1.393 . S
C1702 H1694 0.950 . S
C1702 C1700 1.391 . S
C1702 C1703 1.400 . S
C1703 C1702 1.400 . S
C1703 C1704 1.398 . S
C1703 C1709 1.491 . S
C1704 H1695 0.950 . S
C1704 C1703 1.398 . S
C1704 C1705 1.391 . S
C1705 H1693 0.950 . S
C1705 C1701 1.393 . S
C1705 C1704 1.391 . S
C1706 H1696 0.950 . S
C1706 C1707 1.386 . S
C1706 C1708 1.391 . S
C1707 C1706 1.386 . S
C1707 C1711 1.393 . S
C1708 H1697 0.950 . S
C1708 C1706 1.391 . S
C1708 C1709 1.400 . S
C1709 C1703 1.491 . S
C1709 C1708 1.400 . S
C1709 C1710 1.398 . S
C1710 H1698 0.950 . S
C1710 C1709 1.398 . S
C1710 C1711 1.391 . S
C1711 H1699 0.950 . S
C1711 C1707 1.393 . S
C1711 C1710 1.391 . S
H1712 C1720 0.950 . S
H1713 C1725 0.950 . S
H1714 C1722 0.950 . S
H1715 C1724 0.950 . S
H1716 C1726 0.950 . S
H1717 C1728 0.950 . S
H1718 C1730 0.950 . S
H1719 C1731 0.950 . S
C1720 H1712 0.950 . S
C1720 C1721 1.386 . S
C1720 C1722 1.391 . S
C1721 C1720 1.386 . S
C1721 C1725 1.393 . S
C1722 H1714 0.950 . S
C1722 C1720 1.391 . S
C1722 C1723 1.400 . S
C1723 C1722 1.400 . S
C1723 C1724 1.398 . S
C1723 C1729 1.491 . S
C1724 H1715 0.950 . S
C1724 C1723 1.398 . S
C1724 C1725 1.391 . S
C1725 H1713 0.950 . S
C1725 C1721 1.393 . S
C1725 C1724 1.391 . S
C1726 H1716 0.950 . S
C1726 C1727 1.386 . S
C1726 C1728 1.391 . S
C1727 C1726 1.386 . S
C1727 C1731 1.393 . S
C1728 H1717 0.950 . S
C1728 C1726 1.391 . S
C1728 C1729 1.400 . S
C1729 C1723 1.491 . S
C1729 C1728 1.400 . S
C1729 C1730 1.398 . S
C1730 H1718 0.950 . S
C1730 C1729 1.398 . S
C1730 C1731 1.391 . S
C1731 H1719 0.950 . S
C1731 C1727 1.393 . S
C1731 C1730 1.391 . S
H1732 C1740 0.950 . S
H1733 C1745 0.950 . S
H1734 C1742 0.950 . S
H1735 C1744 0.950 . S
H1736 C1746 0.950 . S
H1737 C1748 0.950 . S
H1738 C1750 0.950 . S
H1739 C1751 0.950 . S
C1740 H1732 0.950 . S
C1740 C1741 1.386 . S
C1740 C1742 1.391 . S
C1741 C1740 1.386 . S
C1741 C1745 1.393 . S
C1742 H1734 0.950 . S
C1742 C1740 1.391 . S
C1742 C1743 1.400 . S
C1743 C1742 1.400 . S
C1743 C1744 1.398 . S
C1743 C1749 1.491 . S
C1744 H1735 0.950 . S
C1744 C1743 1.398 . S
C1744 C1745 1.391 . S
C1745 H1733 0.950 . S
C1745 C1741 1.393 . S
C1745 C1744 1.391 . S
C1746 H1736 0.950 . S
C1746 C1747 1.386 . S
C1746 C1748 1.391 . S
C1747 C1746 1.386 . S
C1747 C1751 1.393 . S
C1748 H1737 0.950 . S
C1748 C1746 1.391 . S
C1748 C1749 1.400 . S
C1749 C1743 1.491 . S
C1749 C1748 1.400 . S
C1749 C1750 1.398 . S
C1750 H1738 0.950 . S
C1750 C1749 1.398 . S
C1750 C1751 1.391 . S
C1751 H1739 0.950 . S
C1751 C1747 1.393 . S
C1751 C1750 1.391 . S
H1752 C1760 0.950 . S
H1753 C1765 0.950 . S
H1754 C1762 0.950 . S
H1755 C1764 0.950 . S
H1756 C1766 0.950 . S
H1757 C1768 0.950 . S
H1758 C1770 0.950 . S
H1759 C1771 0.950 . S
C1760 H1752 0.950 . S
C1760 C1761 1.386 . S
C1760 C1762 1.391 . S
C1761 C1760 1.386 . S
C1761 C1765 1.393 . S
C1762 H1754 0.950 . S
C1762 C1760 1.391 . S
C1762 C1763 1.400 . S
C1763 C1762 1.400 . S
C1763 C1764 1.398 . S
C1763 C1769 1.491 . S
C1764 H1755 0.950 . S
C1764 C1763 1.398 . S
C1764 C1765 1.391 . S
C1765 H1753 0.950 . S
C1765 C1761 1.393 . S
C1765 C1764 1.391 . S
C1766 H1756 0.950 . S
C1766 C1767 1.386 . S
C1766 C1768 1.391 . S
C1767 C1766 1.386 . S
C1767 C1771 1.393 . S
C1768 H1757 0.950 . S
C1768 C1766 1.391 . S
C1768 C1769 1.400 . S
C1769 C1763 1.491 . S
C1769 C1768 1.400 . S
C1769 C1770 1.398 . S
C1770 H1758 0.950 . S
C1770 C1769 1.398 . S
C1770 C1771 1.391 . S
C1771 H1759 0.950 . S
C1771 C1767 1.393 . S
C1771 C1770 1.391 . S
H1772 C1780 0.950 . S
H1773 C1785 0.950 . S
H1774 C1782 0.950 . S
H1775 C1784 0.950 . S
H1776 C1786 0.950 . S
H1777 C1788 0.950 . S
H1778 C1790 0.950 . S
H1779 C1791 0.950 . S
C1780 H1772 0.950 . S
C1780 C1781 1.386 . S
C1780 C1782 1.391 . S
C1781 C1780 1.386 . S
C1781 C1785 1.393 . S
C1782 H1774 0.950 . S
C1782 C1780 1.391 . S
C1782 C1783 1.400 . S
C1783 C1782 1.400 . S
C1783 C1784 1.398 . S
C1783 C1789 1.491 . S
C1784 H1775 0.950 . S
C1784 C1783 1.398 . S
C1784 C1785 1.391 . S
C1785 H1773 0.950 . S
C1785 C1781 1.393 . S
C1785 C1784 1.391 . S
C1786 H1776 0.950 . S
C1786 C1787 1.386 . S
C1786 C1788 1.391 . S
C1787 C1786 1.386 . S
C1787 C1791 1.393 . S
C1788 H1777 0.950 . S
C1788 C1786 1.391 . S
C1788 C1789 1.400 . S
C1789 C1783 1.491 . S
C1789 C1788 1.400 . S
C1789 C1790 1.398 . S
C1790 H1778 0.950 . S
C1790 C1789 1.398 . S
C1790 C1791 1.391 . S
C1791 H1779 0.950 . S
C1791 C1787 1.393 . S
C1791 C1790 1.391 . S
H1792 C1800 0.950 . S
H1793 C1805 0.950 . S
H1794 C1802 0.950 . S
H1795 C1804 0.950 . S
H1796 C1806 0.950 . S
H1797 C1808 0.950 . S
H1798 C1810 0.950 . S
H1799 C1811 0.950 . S
C1800 H1792 0.950 . S
C1800 C1801 1.386 . S
C1800 C1802 1.391 . S
C1801 C1800 1.386 . S
C1801 C1805 1.393 . S
C1802 H1794 0.950 . S
C1802 C1800 1.391 . S
C1802 C1803 1.400 . S
C1803 C1802 1.400 . S
C1803 C1804 1.398 . S
C1803 C1809 1.491 . S
C1804 H1795 0.950 . S
C1804 C1803 1.398 . S
C1804 C1805 1.391 . S
C1805 H1793 0.950 . S
C1805 C1801 1.393 . S
C1805 C1804 1.391 . S
C1806 H1796 0.950 . S
C1806 C1807 1.386 . S
C1806 C1808 1.391 . S
C1807 C1806 1.386 . S
C1807 C1811 1.393 . S
C1808 H1797 0.950 . S
C1808 C1806 1.391 . S
C1808 C1809 1.400 . S
C1809 C1803 1.491 . S
C1809 C1808 1.400 . S
C1809 C1810 1.398 . S
C1810 H1798 0.950 . S
C1810 C1809 1.398 . S
C1810 C1811 1.391 . S
C1811 H1799 0.950 . S
C1811 C1807 1.393 . S
C1811 C1810 1.391 . S
H1812 C1820 0.950 . S
H1813 C1825 0.950 . S
H1814 C1822 0.950 . S
H1815 C1824 0.950 . S
H1816 C1826 0.950 . S
H1817 C1828 0.950 . S
H1818 C1830 0.950 . S
H1819 C1831 0.950 . S
C1820 H1812 0.950 . S
C1820 C1821 1.386 . S
C1820 C1822 1.391 . S
C1821 C1820 1.386 . S
C1821 C1825 1.393 . S
C1822 H1814 0.950 . S
C1822 C1820 1.391 . S
C1822 C1823 1.400 . S
C1823 C1822 1.400 . S
C1823 C1824 1.398 . S
C1823 C1829 1.491 . S
C1824 H1815 0.950 . S
C1824 C1823 1.398 . S
C1824 C1825 1.391 . S
C1825 H1813 0.950 . S
C1825 C1821 1.393 . S
C1825 C1824 1.391 . S
C1826 H1816 0.950 . S
C1826 C1827 1.386 . S
C1826 C1828 1.391 . S
C1827 C1826 1.386 . S
C1827 C1831 1.393 . S
C1828 H1817 0.950 . S
C1828 C1826 1.391 . S
C1828 C1829 1.400 . S
C1829 C1823 1.491 . S
C1829 C1828 1.400 . S
C1829 C1830 1.398 . S
C1830 H1818 0.950 . S
C1830 C1829 1.398 . S
C1830 C1831 1.391 . S
C1831 H1819 0.950 . S
C1831 C1827 1.393 . S
C1831 C1830 1.391 . S
H1832 C1840 0.950 . S
H1833 C1845 0.950 . S
H1834 C1842 0.950 . S
H1835 C1844 0.950 . S
H1836 C1846 0.950 . S
H1837 C1848 0.950 . S
H1838 C1850 0.950 . S
H1839 C1851 0.950 . S
C1840 H1832 0.950 . S
C1840 C1841 1.386 . S
C1840 C1842 1.391 . S
C1841 C1840 1.386 . S
C1841 C1845 1.393 . S
C1842 H1834 0.950 . S
C1842 C1840 1.391 . S
C1842 C1843 1.400 . S
C1843 C1842 1.400 . S
C1843 C1844 1.398 . S
C1843 C1849 1.491 . S
C1844 H1835 0.950 . S
C1844 C1843 1.398 . S
C1844 C1845 1.391 . S
C1845 H1833 0.950 . S
C1845 C1841 1.393 . S
C1845 C1844 1.391 . S
C1846 H1836 0.950 . S
C1846 C1847 1.386 . S
C1846 C1848 1.391 . S
C1847 C1846 1.386 . S
C1847 C1851 1.393 . S
C1848 H1837 0.950 . S
C1848 C1846 1.391 . S
C1848 C1849 1.400 . S
C1849 C1843 1.491 . S
C1849 C1848 1.400 . S
C1849 C1850 1.398 . S
C1850 H1838 0.950 . S
C1850 C1849 1.398 . S
C1850 C1851 1.391 . S
C1851 H1839 0.950 . S
C1851 C1847 1.393 . S
C1851 C1850 1.391 . S
H1852 C1860 0.950 . S
H1853 C1865 0.950 . S
H1854 C1862 0.950 . S
H1855 C1864 0.950 . S
H1856 C1866 0.950 . S
H1857 C1868 0.950 . S
H1858 C1870 0.950 . S
H1859 C1871 0.950 . S
C1860 H1852 0.950 . S
C1860 C1861 1.386 . S
C1860 C1862 1.391 . S
C1861 C1860 1.386 . S
C1861 C1865 1.393 . S
C1862 H1854 0.950 . S
C1862 C1860 1.391 . S
C1862 C1863 1.400 . S
C1863 C1862 1.400 . S
C1863 C1864 1.398 . S
C1863 C1869 1.491 . S
C1864 H1855 0.950 . S
C1864 C1863 1.398 . S
C1864 C1865 1.391 . S
C1865 H1853 0.950 . S
C1865 C1861 1.393 . S
C1865 C1864 1.391 . S
C1866 H1856 0.950 . S
C1866 C1867 1.386 . S
C1866 C1868 1.391 . S
C1867 C1866 1.386 . S
C1867 C1871 1.393 . S
C1868 H1857 0.950 . S
C1868 C1866 1.391 . S
C1868 C1869 1.400 . S
C1869 C1863 1.491 . S
C1869 C1868 1.400 . S
C1869 C1870 1.398 . S
C1870 H1858 0.950 . S
C1870 C1869 1.398 . S
C1870 C1871 1.391 . S
C1871 H1859 0.950 . S
C1871 C1867 1.393 . S
C1871 C1870 1.391 . S
H1872 C1880 0.950 . S
H1873 C1885 0.950 . S
H1874 C1882 0.950 . S
H1875 C1884 0.950 . S
H1876 C1886 0.950 . S
H1877 C1888 0.950 . S
H1878 C1890 0.950 . S
H1879 C1891 0.950 . S
C1880 H1872 0.950 . S
C1880 C1881 1.386 . S
C1880 C1882 1.391 . S
C1881 C1880 1.386 . S
C1881 C1885 1.393 . S
C1882 H1874 0.950 . S
C1882 C1880 1.391 . S
C1882 C1883 1.400 . S
C1883 C1882 1.400 . S
C1883 C1884 1.398 . S
C1883 C1889 1.491 . S
C1884 H1875 0.950 . S
C1884 C1883 1.398 . S
C1884 C1885 1.391 . S
C1885 H1873 0.950 . S
C1885 C1881 1.393 . S
C1885 C1884 1.391 . S
C1886 H1876 0.950 . S
C1886 C1887 1.386 . S
C1886 C1888 1.391 . S
C1887 C1886 1.386 . S
C1887 C1891 1.393 . S
C1888 H1877 0.950 . S
C1888 C1886 1.391 . S
C1888 C1889 1.400 . S
C1889 C1883 1.491 . S
C1889 C1888 1.400 . S
C1889 C1890 1.398 . S
C1890 H1878 0.950 . S
C1890 C1889 1.398 . S
C1890 C1891 1.391 . S
C1891 H1879 0.950 . S
C1891 C1887 1.393 . S
C1891 C1890 1.391 . S
H1892 C1900 0.950 . S
H1893 C1905 0.950 . S
H1894 C1902 0.950 . S
H1895 C1904 0.950 . S
H1896 C1906 0.950 . S
H1897 C1908 0.950 . S
H1898 C1910 0.950 . S
H1899 C1911 0.950 . S
C1900 H1892 0.950 . S
C1900 C1901 1.386 . S
C1900 C1902 1.391 . S
C1901 C1900 1.386 . S
C1901 C1905 1.393 . S
C1902 H1894 0.950 . S
C1902 C1900 1.391 . S
C1902 C1903 1.400 . S
C1903 C1902 1.400 . S
C1903 C1904 1.398 . S
C1903 C1909 1.491 . S
C1904 H1895 0.950 . S
C1904 C1903 1.398 . S
C1904 C1905 1.391 . S
C1905 H1893 0.950 . S
C1905 C1901 1.393 . S
C1905 C1904 1.391 . S
C1906 H1896 0.950 . S
C1906 C1907 1.386 . S
C1906 C1908 1.391 . S
C1907 C1906 1.386 . S
C1907 C1911 1.393 . S
C1908 H1897 0.950 . S
C1908 C1906 1.391 . S
C1908 C1909 1.400 . S
C1909 C1903 1.491 . S
C1909 C1908 1.400 . S
C1909 C1910 1.398 . S
C1910 H1898 0.950 . S
C1910 C1909 1.398 . S
C1910 C1911 1.391 . S
C1911 H1899 0.950 . S
C1911 C1907 1.393 . S
C1911 C1910 1.391 . S
H1912 C1920 0.950 . S
H1913 C1925 0.950 . S
H1914 C1922 0.950 . S
H1915 C1924 0.950 . S
H1916 C1926 0.950 . S
H1917 C1928 0.950 . S
H1918 C1930 0.950 . S
H1919 C1931 0.950 1_655 S
C1920 H1912 0.950 . S
C1920 C1921 1.386 . S
C1920 C1922 1.391 . S
C1921 C1920 1.386 . S
C1921 C1925 1.393 . S
C1922 H1914 0.950 . S
C1922 C1920 1.391 . S
C1922 C1923 1.400 . S
C1923 C1922 1.400 . S
C1923 C1924 1.398 . S
C1923 C1929 1.491 . S
C1924 H1915 0.950 . S
C1924 C1923 1.398 . S
C1924 C1925 1.391 . S
C1925 H1913 0.950 . S
C1925 C1921 1.393 . S
C1925 C1924 1.391 . S
C1926 H1916 0.950 . S
C1926 C1927 1.386 . S
C1926 C1928 1.391 . S
C1927 C1926 1.386 . S
C1927 C1931 1.393 . S
C1928 H1917 0.950 . S
C1928 C1926 1.391 . S
C1928 C1929 1.400 . S
C1929 C1923 1.491 . S
C1929 C1928 1.400 . S
C1929 C1930 1.398 . S
C1930 H1918 0.950 . S
C1930 C1929 1.398 . S
C1930 C1931 1.391 . S
C1931 H1919 0.950 1_455 S
C1931 C1927 1.393 . S
C1931 C1930 1.391 . S
H1932 C1940 0.950 . S
H1933 C1945 0.950 . S
H1934 C1942 0.950 . S
H1935 C1944 0.950 . S
H1936 C1946 0.950 . S
H1937 C1948 0.950 . S
H1938 C1950 0.950 . S
H1939 C1951 0.950 . S
C1940 H1932 0.950 . S
C1940 C1941 1.386 . S
C1940 C1942 1.391 . S
C1941 C1940 1.386 . S
C1941 C1945 1.393 . S
C1942 H1934 0.950 . S
C1942 C1940 1.391 . S
C1942 C1943 1.400 . S
C1943 C1942 1.400 . S
C1943 C1944 1.398 . S
C1943 C1949 1.491 . S
C1944 H1935 0.950 . S
C1944 C1943 1.398 . S
C1944 C1945 1.391 . S
C1945 H1933 0.950 . S
C1945 C1941 1.393 . S
C1945 C1944 1.391 . S
C1946 H1936 0.950 . S
C1946 C1947 1.386 . S
C1946 C1948 1.391 . S
C1947 C1946 1.386 . S
C1947 C1951 1.393 . S
C1948 H1937 0.950 . S
C1948 C1946 1.391 . S
C1948 C1949 1.400 . S
C1949 C1943 1.491 . S
C1949 C1948 1.400 . S
C1949 C1950 1.398 . S
C1950 H1938 0.950 . S
C1950 C1949 1.398 . S
C1950 C1951 1.391 . S
C1951 H1939 0.950 . S
C1951 C1947 1.393 . S
C1951 C1950 1.391 . S
H1952 C1960 0.950 . S
H1953 C1965 0.950 . S
H1954 C1962 0.950 . S
H1955 C1964 0.950 . S
H1956 C1966 0.950 . S
H1957 C1968 0.950 . S
H1958 C1970 0.950 . S
H1959 C1971 0.950 . S
C1960 H1952 0.950 . S
C1960 C1961 1.386 . S
C1960 C1962 1.391 . S
C1961 C1960 1.386 . S
C1961 C1965 1.393 . S
C1962 H1954 0.950 . S
C1962 C1960 1.391 . S
C1962 C1963 1.400 . S
C1963 C1962 1.400 . S
C1963 C1964 1.398 . S
C1963 C1969 1.491 . S
C1964 H1955 0.950 . S
C1964 C1963 1.398 . S
C1964 C1965 1.391 . S
C1965 H1953 0.950 . S
C1965 C1961 1.393 . S
C1965 C1964 1.391 . S
C1966 H1956 0.950 . S
C1966 C1967 1.386 . S
C1966 C1968 1.391 . S
C1967 C1966 1.386 . S
C1967 C1971 1.393 . S
C1968 H1957 0.950 . S
C1968 C1966 1.391 . S
C1968 C1969 1.400 . S
C1969 C1963 1.491 . S
C1969 C1968 1.400 . S
C1969 C1970 1.398 . S
C1970 H1958 0.950 . S
C1970 C1969 1.398 . S
C1970 C1971 1.391 . S
C1971 H1959 0.950 . S
C1971 C1967 1.393 . S
C1971 C1970 1.391 . S
H1972 C1980 0.950 . S
H1973 C1985 0.950 . S
H1974 C1982 0.950 . S
H1975 C1984 0.950 . S
H1976 C1986 0.950 . S
H1977 C1988 0.950 . S
H1978 C1990 0.950 . S
H1979 C1991 0.950 . S
C1980 H1972 0.950 . S
C1980 C1981 1.386 . S
C1980 C1982 1.391 . S
C1981 C1980 1.386 . S
C1981 C1985 1.393 . S
C1982 H1974 0.950 . S
C1982 C1980 1.391 . S
C1982 C1983 1.400 . S
C1983 C1982 1.400 . S
C1983 C1984 1.398 . S
C1983 C1989 1.491 . S
C1984 H1975 0.950 . S
C1984 C1983 1.398 . S
C1984 C1985 1.391 . S
C1985 H1973 0.950 . S
C1985 C1981 1.393 . S
C1985 C1984 1.391 . S
C1986 H1976 0.950 . S
C1986 C1987 1.386 . S
C1986 C1988 1.391 . S
C1987 C1986 1.386 . S
C1987 C1991 1.393 . S
C1988 H1977 0.950 . S
C1988 C1986 1.391 . S
C1988 C1989 1.400 . S
C1989 C1983 1.491 . S
C1989 C1988 1.400 . S
C1989 C1990 1.398 . S
C1990 H1978 0.950 . S
C1990 C1989 1.398 . S
C1990 C1991 1.391 . S
C1991 H1979 0.950 . S
C1991 C1987 1.393 . S
C1991 C1990 1.391 . S
H1992 C2000 0.950 . S
H1993 C2005 0.950 . S
H1994 C2002 0.950 . S
H1995 C2004 0.950 . S
H1996 C2006 0.950 . S
H1997 C2008 0.950 . S
H1998 C2010 0.950 . S
H1999 C2011 0.950 . S
C2000 H1992 0.950 . S
C2000 C2001 1.386 . S
C2000 C2002 1.391 . S
C2001 C2000 1.386 . S
C2001 C2005 1.393 . S
C2002 H1994 0.950 . S
C2002 C2000 1.391 . S
C2002 C2003 1.400 . S
C2003 C2002 1.400 . S
C2003 C2004 1.398 . S
C2003 C2009 1.491 . S
C2004 H1995 0.950 . S
C2004 C2003 1.398 . S
C2004 C2005 1.391 . S
C2005 H1993 0.950 . S
C2005 C2001 1.393 . S
C2005 C2004 1.391 . S
C2006 H1996 0.950 . S
C2006 C2007 1.386 . S
C2006 C2008 1.391 . S
C2007 C2006 1.386 . S
C2007 C2011 1.393 . S
C2008 H1997 0.950 . S
C2008 C2006 1.391 . S
C2008 C2009 1.400 . S
C2009 C2003 1.491 . S
C2009 C2008 1.400 . S
C2009 C2010 1.398 . S
C2010 H1998 0.950 . S
C2010 C2009 1.398 . S
C2010 C2011 1.391 . S
C2011 H1999 0.950 . S
C2011 C2007 1.393 . S
C2011 C2010 1.391 . S
H2012 C2020 0.950 . S
H2013 C2025 0.950 . S
H2014 C2022 0.950 . S
H2015 C2024 0.950 . S
H2016 C2026 0.950 . S
H2017 C2028 0.950 . S
H2018 C2030 0.950 . S
H2019 C2031 0.950 . S
C2020 H2012 0.950 . S
C2020 C2021 1.386 . S
C2020 C2022 1.391 . S
C2021 C2020 1.386 . S
C2021 C2025 1.393 . S
C2022 H2014 0.950 . S
C2022 C2020 1.391 . S
C2022 C2023 1.400 . S
C2023 C2022 1.400 . S
C2023 C2024 1.398 . S
C2023 C2029 1.491 . S
C2024 H2015 0.950 . S
C2024 C2023 1.398 . S
C2024 C2025 1.391 . S
C2025 H2013 0.950 . S
C2025 C2021 1.393 . S
C2025 C2024 1.391 . S
C2026 H2016 0.950 . S
C2026 C2027 1.386 . S
C2026 C2028 1.391 . S
C2027 C2026 1.386 . S
C2027 C2031 1.393 . S
C2028 H2017 0.950 . S
C2028 C2026 1.391 . S
C2028 C2029 1.400 . S
C2029 C2023 1.491 . S
C2029 C2028 1.400 . S
C2029 C2030 1.398 . S
C2030 H2018 0.950 . S
C2030 C2029 1.398 . S
C2030 C2031 1.391 . S
C2031 H2019 0.950 . S
C2031 C2027 1.393 . S
C2031 C2030 1.391 . S
H2032 C2040 0.950 . S
H2033 C2045 0.950 . S
H2034 C2042 0.950 . S
H2035 C2044 0.950 . S
H2036 C2046 0.950 . S
H2037 C2048 0.950 . S
H2038 C2050 0.950 . S
H2039 C2051 0.950 . S
C2040 H2032 0.950 . S
C2040 C2041 1.386 . S
C2040 C2042 1.391 . S
C2041 C2040 1.386 . S
C2041 C2045 1.393 . S
C2042 H2034 0.950 . S
C2042 C2040 1.391 . S
C2042 C2043 1.400 . S
C2043 C2042 1.400 . S
C2043 C2044 1.398 . S
C2043 C2049 1.491 . S
C2044 H2035 0.950 . S
C2044 C2043 1.398 . S
C2044 C2045 1.391 . S
C2045 H2033 0.950 . S
C2045 C2041 1.393 . S
C2045 C2044 1.391 . S
C2046 H2036 0.950 . S
C2046 C2047 1.386 . S
C2046 C2048 1.391 . S
C2047 C2046 1.386 . S
C2047 C2051 1.393 . S
C2048 H2037 0.950 . S
C2048 C2046 1.391 . S
C2048 C2049 1.400 . S
C2049 C2043 1.491 . S
C2049 C2048 1.400 . S
C2049 C2050 1.398 . S
C2050 H2038 0.950 . S
C2050 C2049 1.398 . S
C2050 C2051 1.391 . S
C2051 H2039 0.950 . S
C2051 C2047 1.393 . S
C2051 C2050 1.391 . S
H2052 C2060 0.950 . S
H2053 C2065 0.950 . S
H2054 C2062 0.950 . S
H2055 C2064 0.950 . S
H2056 C2066 0.950 . S
H2057 C2068 0.950 . S
H2058 C2070 0.950 . S
H2059 C2071 0.950 . S
C2060 H2052 0.950 . S
C2060 C2061 1.386 . S
C2060 C2062 1.391 . S
C2061 C2060 1.386 . S
C2061 C2065 1.393 . S
C2062 H2054 0.950 . S
C2062 C2060 1.391 . S
C2062 C2063 1.400 . S
C2063 C2062 1.400 . S
C2063 C2064 1.398 . S
C2063 C2069 1.491 . S
C2064 H2055 0.950 . S
C2064 C2063 1.398 . S
C2064 C2065 1.391 . S
C2065 H2053 0.950 . S
C2065 C2061 1.393 . S
C2065 C2064 1.391 . S
C2066 H2056 0.950 . S
C2066 C2067 1.386 . S
C2066 C2068 1.391 . S
C2067 C2066 1.386 . S
C2067 C2071 1.393 . S
C2068 H2057 0.950 . S
C2068 C2066 1.391 . S
C2068 C2069 1.400 . S
C2069 C2063 1.491 . S
C2069 C2068 1.400 . S
C2069 C2070 1.398 . S
C2070 H2058 0.950 . S
C2070 C2069 1.398 . S
C2070 C2071 1.391 . S
C2071 H2059 0.950 . S
C2071 C2067 1.393 . S
C2071 C2070 1.391 . S
H2072 C2080 0.950 . S
H2073 C2085 0.950 . S
H2074 C2082 0.950 . S
H2075 C2084 0.950 . S
H2076 C2086 0.950 . S
H2077 C2088 0.950 . S
H2078 C2090 0.950 . S
H2079 C2091 0.950 . S
C2080 H2072 0.950 . S
C2080 C2081 1.386 . S
C2080 C2082 1.391 . S
C2081 C2080 1.386 . S
C2081 C2085 1.393 . S
C2082 H2074 0.950 . S
C2082 C2080 1.391 . S
C2082 C2083 1.400 . S
C2083 C2082 1.400 . S
C2083 C2084 1.398 . S
C2083 C2089 1.491 . S
C2084 H2075 0.950 . S
C2084 C2083 1.398 . S
C2084 C2085 1.391 . S
C2085 H2073 0.950 . S
C2085 C2081 1.393 . S
C2085 C2084 1.391 . S
C2086 H2076 0.950 . S
C2086 C2087 1.386 . S
C2086 C2088 1.391 . S
C2087 C2086 1.386 . S
C2087 C2091 1.393 . S
C2088 H2077 0.950 . S
C2088 C2086 1.391 . S
C2088 C2089 1.400 . S
C2089 C2083 1.491 . S
C2089 C2088 1.400 . S
C2089 C2090 1.398 . S
C2090 H2078 0.950 . S
C2090 C2089 1.398 . S
C2090 C2091 1.391 . S
C2091 H2079 0.950 . S
C2091 C2087 1.393 . S
C2091 C2090 1.391 . S
H2092 C2100 0.950 . S
H2093 C2105 0.950 . S
H2094 C2102 0.950 . S
H2095 C2104 0.950 . S
H2096 C2106 0.950 . S
H2097 C2108 0.950 . S
H2098 C2110 0.950 . S
H2099 C2111 0.950 . S
C2100 H2092 0.950 . S
C2100 C2101 1.386 . S
C2100 C2102 1.391 . S
C2101 C2100 1.386 . S
C2101 C2105 1.393 . S
C2102 H2094 0.950 . S
C2102 C2100 1.391 . S
C2102 C2103 1.400 . S
C2103 C2102 1.400 . S
C2103 C2104 1.398 . S
C2103 C2109 1.491 . S
C2104 H2095 0.950 . S
C2104 C2103 1.398 . S
C2104 C2105 1.391 . S
C2105 H2093 0.950 . S
C2105 C2101 1.393 . S
C2105 C2104 1.391 . S
C2106 H2096 0.950 . S
C2106 C2107 1.386 . S
C2106 C2108 1.391 . S
C2107 C2106 1.386 . S
C2107 C2111 1.393 . S
C2108 H2097 0.950 . S
C2108 C2106 1.391 . S
C2108 C2109 1.400 . S
C2109 C2103 1.491 . S
C2109 C2108 1.400 . S
C2109 C2110 1.398 . S
C2110 H2098 0.950 . S
C2110 C2109 1.398 . S
C2110 C2111 1.391 . S
C2111 H2099 0.950 . S
C2111 C2107 1.393 . S
C2111 C2110 1.391 . S
H2112 C2120 0.950 . S
H2113 C2125 0.950 . S
H2114 C2122 0.950 . S
H2115 C2124 0.950 . S
H2116 C2126 0.950 . S
H2117 C2128 0.950 . S
H2118 C2130 0.950 . S
H2119 C2131 0.950 . S
C2120 H2112 0.950 . S
C2120 C2121 1.386 . S
C2120 C2122 1.391 . S
C2121 C2120 1.386 . S
C2121 C2125 1.393 . S
C2122 H2114 0.950 . S
C2122 C2120 1.391 . S
C2122 C2123 1.400 . S
C2123 C2122 1.400 . S
C2123 C2124 1.398 . S
C2123 C2129 1.491 . S
C2124 H2115 0.950 . S
C2124 C2123 1.398 . S
C2124 C2125 1.391 . S
C2125 H2113 0.950 . S
C2125 C2121 1.393 . S
C2125 C2124 1.391 . S
C2126 H2116 0.950 . S
C2126 C2127 1.386 . S
C2126 C2128 1.391 . S
C2127 C2126 1.386 . S
C2127 C2131 1.393 . S
C2128 H2117 0.950 . S
C2128 C2126 1.391 . S
C2128 C2129 1.400 . S
C2129 C2123 1.491 . S
C2129 C2128 1.400 . S
C2129 C2130 1.398 . S
C2130 H2118 0.950 . S
C2130 C2129 1.398 . S
C2130 C2131 1.391 . S
C2131 H2119 0.950 . S
C2131 C2127 1.393 . S
C2131 C2130 1.391 . S
H2132 C2140 0.950 . S
H2133 C2145 0.950 . S
H2134 C2142 0.950 . S
H2135 C2144 0.950 . S
H2136 C2146 0.950 . S
H2137 C2148 0.950 . S
H2138 C2150 0.950 . S
H2139 C2151 0.950 . S
C2140 H2132 0.950 . S
C2140 C2141 1.386 . S
C2140 C2142 1.391 . S
C2141 C2140 1.386 . S
C2141 C2145 1.393 . S
C2142 H2134 0.950 . S
C2142 C2140 1.391 . S
C2142 C2143 1.400 . S
C2143 C2142 1.400 . S
C2143 C2144 1.398 . S
C2143 C2149 1.491 . S
C2144 H2135 0.950 . S
C2144 C2143 1.398 . S
C2144 C2145 1.391 . S
C2145 H2133 0.950 . S
C2145 C2141 1.393 . S
C2145 C2144 1.391 . S
C2146 H2136 0.950 . S
C2146 C2147 1.386 . S
C2146 C2148 1.391 . S
C2147 C2146 1.386 . S
C2147 C2151 1.393 . S
C2148 H2137 0.950 . S
C2148 C2146 1.391 . S
C2148 C2149 1.400 . S
C2149 C2143 1.491 . S
C2149 C2148 1.400 . S
C2149 C2150 1.398 . S
C2150 H2138 0.950 . S
C2150 C2149 1.398 . S
C2150 C2151 1.391 . S
C2151 H2139 0.950 . S
C2151 C2147 1.393 . S
C2151 C2150 1.391 . S
H2152 C2160 0.950 . S
H2153 C2165 0.950 . S
H2154 C2162 0.950 . S
H2155 C2164 0.950 . S
H2156 C2166 0.950 . S
H2157 C2168 0.950 . S
H2158 C2170 0.950 . S
H2159 C2171 0.950 . S
C2160 H2152 0.950 . S
C2160 C2161 1.386 . S
C2160 C2162 1.391 . S
C2161 C2160 1.386 . S
C2161 C2165 1.393 . S
C2162 H2154 0.950 . S
C2162 C2160 1.391 . S
C2162 C2163 1.400 . S
C2163 C2162 1.400 . S
C2163 C2164 1.398 . S
C2163 C2169 1.491 . S
C2164 H2155 0.950 . S
C2164 C2163 1.398 . S
C2164 C2165 1.391 . S
C2165 H2153 0.950 . S
C2165 C2161 1.393 . S
C2165 C2164 1.391 . S
C2166 H2156 0.950 . S
C2166 C2167 1.386 . S
C2166 C2168 1.391 . S
C2167 C2166 1.386 . S
C2167 C2171 1.393 . S
C2168 H2157 0.950 . S
C2168 C2166 1.391 . S
C2168 C2169 1.400 . S
C2169 C2163 1.491 . S
C2169 C2168 1.400 . S
C2169 C2170 1.398 . S
C2170 H2158 0.950 . S
C2170 C2169 1.398 . S
C2170 C2171 1.391 . S
C2171 H2159 0.950 . S
C2171 C2167 1.393 . S
C2171 C2170 1.391 . S
H2172 C2180 0.950 . S
H2173 C2185 0.950 . S
H2174 C2182 0.950 . S
H2175 C2184 0.950 . S
H2176 C2186 0.950 . S
H2177 C2188 0.950 . S
H2178 C2190 0.950 . S
H2179 C2191 0.950 . S
C2180 H2172 0.950 . S
C2180 C2181 1.386 . S
C2180 C2182 1.391 . S
C2181 C2180 1.386 . S
C2181 C2185 1.393 . S
C2182 H2174 0.950 . S
C2182 C2180 1.391 . S
C2182 C2183 1.400 . S
C2183 C2182 1.400 . S
C2183 C2184 1.398 . S
C2183 C2189 1.491 . S
C2184 H2175 0.950 . S
C2184 C2183 1.398 . S
C2184 C2185 1.391 . S
C2185 H2173 0.950 . S
C2185 C2181 1.393 . S
C2185 C2184 1.391 . S
C2186 H2176 0.950 . S
C2186 C2187 1.386 . S
C2186 C2188 1.391 . S
C2187 C2186 1.386 . S
C2187 C2191 1.393 . S
C2188 H2177 0.950 . S
C2188 C2186 1.391 . S
C2188 C2189 1.400 . S
C2189 C2183 1.491 . S
C2189 C2188 1.400 . S
C2189 C2190 1.398 . S
C2190 H2178 0.950 . S
C2190 C2189 1.398 . S
C2190 C2191 1.391 . S
C2191 H2179 0.950 . S
C2191 C2187 1.393 . S
C2191 C2190 1.391 . S
H2192 C2200 0.950 . S
H2193 C2205 0.950 . S
H2194 C2202 0.950 . S
H2195 C2204 0.950 . S
H2196 C2206 0.950 . S
H2197 C2208 0.950 . S
H2198 C2210 0.950 . S
H2199 C2211 0.950 . S
C2200 H2192 0.950 . S
C2200 C2201 1.386 . S
C2200 C2202 1.391 . S
C2201 C2200 1.386 . S
C2201 C2205 1.393 . S
C2202 H2194 0.950 . S
C2202 C2200 1.391 . S
C2202 C2203 1.400 . S
C2203 C2202 1.400 . S
C2203 C2204 1.398 . S
C2203 C2209 1.491 . S
C2204 H2195 0.950 . S
C2204 C2203 1.398 . S
C2204 C2205 1.391 . S
C2205 H2193 0.950 . S
C2205 C2201 1.393 . S
C2205 C2204 1.391 . S
C2206 H2196 0.950 . S
C2206 C2207 1.386 . S
C2206 C2208 1.391 . S
C2207 C2206 1.386 . S
C2207 C2211 1.393 . S
C2208 H2197 0.950 . S
C2208 C2206 1.391 . S
C2208 C2209 1.400 . S
C2209 C2203 1.491 . S
C2209 C2208 1.400 . S
C2209 C2210 1.398 . S
C2210 H2198 0.950 . S
C2210 C2209 1.398 . S
C2210 C2211 1.391 . S
C2211 H2199 0.950 . S
C2211 C2207 1.393 . S
C2211 C2210 1.391 . S
H2212 C2220 0.950 . S
H2213 C2225 0.950 . S
H2214 C2222 0.950 . S
H2215 C2224 0.950 . S
H2216 C2226 0.950 . S
H2217 C2228 0.950 . S
H2218 C2230 0.950 . S
H2219 C2231 0.950 . S
C2220 H2212 0.950 . S
C2220 C2221 1.386 . S
C2220 C2222 1.391 . S
C2221 C2220 1.386 . S
C2221 C2225 1.393 . S
C2222 H2214 0.950 . S
C2222 C2220 1.391 . S
C2222 C2223 1.400 . S
C2223 C2222 1.400 . S
C2223 C2224 1.398 . S
C2223 C2229 1.491 . S
C2224 H2215 0.950 . S
C2224 C2223 1.398 . S
C2224 C2225 1.391 . S
C2225 H2213 0.950 . S
C2225 C2221 1.393 . S
C2225 C2224 1.391 . S
C2226 H2216 0.950 . S
C2226 C2227 1.386 . S
C2226 C2228 1.391 . S
C2227 C2226 1.386 . S
C2227 C2231 1.393 . S
C2228 H2217 0.950 . S
C2228 C2226 1.391 . S
C2228 C2229 1.400 . S
C2229 C2223 1.491 . S
C2229 C2228 1.400 . S
C2229 C2230 1.398 . S
C2230 H2218 0.950 . S
C2230 C2229 1.398 . S
C2230 C2231 1.391 . S
C2231 H2219 0.950 . S
C2231 C2227 1.393 . S
C2231 C2230 1.391 . S
H2232 C2240 0.950 1_556 S
H2233 C2245 0.950 . S
H2234 C2242 0.950 . S
H2235 C2244 0.950 . S
H2236 C2246 0.950 . S
H2237 C2248 0.950 . S
H2238 C2250 0.950 . S
H2239 C2251 0.950 . S
C2240 H2232 0.950 1_554 S
C2240 C2241 1.386 . S
C2240 C2242 1.391 . S
C2241 C2240 1.386 . S
C2241 C2245 1.393 . S
C2242 H2234 0.950 . S
C2242 C2240 1.391 . S
C2242 C2243 1.400 . S
C2243 C2242 1.400 . S
C2243 C2244 1.398 . S
C2243 C2249 1.491 . S
C2244 H2235 0.950 . S
C2244 C2243 1.398 . S
C2244 C2245 1.391 . S
C2245 H2233 0.950 . S
C2245 C2241 1.393 . S
C2245 C2244 1.391 . S
C2246 H2236 0.950 . S
C2246 C2247 1.386 . S
C2246 C2248 1.391 . S
C2247 C2246 1.386 . S
C2247 C2251 1.393 . S
C2248 H2237 0.950 . S
C2248 C2246 1.391 . S
C2248 C2249 1.400 . S
C2249 C2243 1.491 . S
C2249 C2248 1.400 . S
C2249 C2250 1.398 . S
C2250 H2238 0.950 . S
C2250 C2249 1.398 . S
C2250 C2251 1.391 . S
C2251 H2239 0.950 . S
C2251 C2247 1.393 . S
C2251 C2250 1.391 . S
H2252 C2260 0.950 . S
H2253 C2265 0.950 . S
H2254 C2262 0.950 . S
H2255 C2264 0.950 . S
H2256 C2266 0.950 . S
H2257 C2268 0.950 . S
H2258 C2270 0.950 . S
H2259 C2271 0.950 . S
C2260 H2252 0.950 . S
C2260 C2261 1.386 . S
C2260 C2262 1.391 . S
C2261 C2260 1.386 . S
C2261 C2265 1.393 . S
C2262 H2254 0.950 . S
C2262 C2260 1.391 . S
C2262 C2263 1.400 . S
C2263 C2262 1.400 . S
C2263 C2264 1.398 . S
C2263 C2269 1.491 . S
C2264 H2255 0.950 . S
C2264 C2263 1.398 . S
C2264 C2265 1.391 . S
C2265 H2253 0.950 . S
C2265 C2261 1.393 . S
C2265 C2264 1.391 . S
C2266 H2256 0.950 . S
C2266 C2267 1.386 . S
C2266 C2268 1.391 . S
C2267 C2266 1.386 . S
C2267 C2271 1.393 . S
C2268 H2257 0.950 . S
C2268 C2266 1.391 . S
C2268 C2269 1.400 . S
C2269 C2263 1.491 . S
C2269 C2268 1.400 . S
C2269 C2270 1.398 . S
C2270 H2258 0.950 . S
C2270 C2269 1.398 . S
C2270 C2271 1.391 . S
C2271 H2259 0.950 . S
C2271 C2267 1.393 . S
C2271 C2270 1.391 . S
H2272 C2280 0.950 . S
H2273 C2285 0.950 . S
H2274 C2282 0.950 . S
H2275 C2284 0.950 . S
H2276 C2286 0.950 . S
H2277 C2288 0.950 . S
H2278 C2290 0.950 . S
H2279 C2291 0.950 . S
C2280 H2272 0.950 . S
C2280 C2281 1.386 . S
C2280 C2282 1.391 . S
C2281 C2280 1.386 . S
C2281 C2285 1.393 . S
C2282 H2274 0.950 . S
C2282 C2280 1.391 . S
C2282 C2283 1.400 . S
C2283 C2282 1.400 . S
C2283 C2284 1.398 . S
C2283 C2289 1.491 . S
C2284 H2275 0.950 . S
C2284 C2283 1.398 . S
C2284 C2285 1.391 . S
C2285 H2273 0.950 . S
C2285 C2281 1.393 . S
C2285 C2284 1.391 . S
C2286 H2276 0.950 . S
C2286 C2287 1.386 . S
C2286 C2288 1.391 . S
C2287 C2286 1.386 . S
C2287 C2291 1.393 . S
C2288 H2277 0.950 . S
C2288 C2286 1.391 . S
C2288 C2289 1.400 . S
C2289 C2283 1.491 . S
C2289 C2288 1.400 . S
C2289 C2290 1.398 . S
C2290 H2278 0.950 . S
C2290 C2289 1.398 . S
C2290 C2291 1.391 . S
C2291 H2279 0.950 . S
C2291 C2287 1.393 . S
C2291 C2290 1.391 . S
H2292 C2300 0.950 . S
H2293 C2305 0.950 . S
H2294 C2302 0.950 . S
H2295 C2304 0.950 . S
H2296 C2306 0.950 . S
H2297 C2308 0.950 . S
H2298 C2310 0.950 . S
H2299 C2311 0.950 . S
C2300 H2292 0.950 . S
C2300 C2301 1.386 . S
C2300 C2302 1.391 . S
C2301 C2300 1.386 . S
C2301 C2305 1.393 . S
C2302 H2294 0.950 . S
C2302 C2300 1.391 . S
C2302 C2303 1.400 . S
C2303 C2302 1.400 . S
C2303 C2304 1.398 . S
C2303 C2309 1.491 . S
C2304 H2295 0.950 . S
C2304 C2303 1.398 . S
C2304 C2305 1.391 . S
C2305 H2293 0.950 . S
C2305 C2301 1.393 . S
C2305 C2304 1.391 . S
C2306 H2296 0.950 . S
C2306 C2307 1.386 . S
C2306 C2308 1.391 . S
C2307 C2306 1.386 . S
C2307 C2311 1.393 . S
C2308 H2297 0.950 . S
C2308 C2306 1.391 . S
C2308 C2309 1.400 . S
C2309 C2303 1.491 . S
C2309 C2308 1.400 . S
C2309 C2310 1.398 . S
C2310 H2298 0.950 . S
C2310 C2309 1.398 . S
C2310 C2311 1.391 . S
C2311 H2299 0.950 . S
C2311 C2307 1.393 . S
C2311 C2310 1.391 . S
H2312 C2320 0.950 . S
H2313 C2325 0.950 . S
H2314 C2322 0.950 . S
H2315 C2324 0.950 . S
H2316 C2326 0.950 . S
H2317 C2328 0.950 . S
H2318 C2330 0.950 . S
H2319 C2331 0.950 . S
C2320 H2312 0.950 . S
C2320 C2321 1.386 . S
C2320 C2322 1.391 . S
C2321 C2320 1.386 . S
C2321 C2325 1.393 . S
C2322 H2314 0.950 . S
C2322 C2320 1.391 . S
C2322 C2323 1.400 . S
C2323 C2322 1.400 . S
C2323 C2324 1.398 . S
C2323 C2329 1.491 . S
C2324 H2315 0.950 . S
C2324 C2323 1.398 . S
C2324 C2325 1.391 . S
C2325 H2313 0.950 . S
C2325 C2321 1.393 . S
C2325 C2324 1.391 . S
C2326 H2316 0.950 . S
C2326 C2327 1.386 . S
C2326 C2328 1.391 . S
C2327 C2326 1.386 . S
C2327 C2331 1.393 . S
C2328 H2317 0.950 . S
C2328 C2326 1.391 . S
C2328 C2329 1.400 . S
C2329 C2323 1.491 . S
C2329 C2328 1.400 . S
C2329 C2330 1.398 . S
C2330 H2318 0.950 . S
C2330 C2329 1.398 . S
C2330 C2331 1.391 . S
C2331 H2319 0.950 . S
C2331 C2327 1.393 . S
C2331 C2330 1.391 . S
H2332 C2340 0.950 . S
H2333 C2345 0.950 . S
H2334 C2342 0.950 . S
H2335 C2344 0.950 . S
H2336 C2346 0.950 . S
H2337 C2348 0.950 . S
H2338 C2350 0.950 . S
H2339 C2351 0.950 . S
C2340 H2332 0.950 . S
C2340 C2341 1.386 . S
C2340 C2342 1.391 . S
C2341 C2340 1.386 . S
C2341 C2345 1.393 . S
C2342 H2334 0.950 . S
C2342 C2340 1.391 . S
C2342 C2343 1.400 . S
C2343 C2342 1.400 . S
C2343 C2344 1.398 . S
C2343 C2349 1.491 . S
C2344 H2335 0.950 . S
C2344 C2343 1.398 . S
C2344 C2345 1.391 . S
C2345 H2333 0.950 . S
C2345 C2341 1.393 . S
C2345 C2344 1.391 . S
C2346 H2336 0.950 . S
C2346 C2347 1.386 . S
C2346 C2348 1.391 . S
C2347 C2346 1.386 . S
C2347 C2351 1.393 . S
C2348 H2337 0.950 . S
C2348 C2346 1.391 . S
C2348 C2349 1.400 . S
C2349 C2343 1.491 . S
C2349 C2348 1.400 . S
C2349 C2350 1.398 . S
C2350 H2338 0.950 . S
C2350 C2349 1.398 . S
C2350 C2351 1.391 . S
C2351 H2339 0.950 . S
C2351 C2347 1.393 . S
C2351 C2350 1.391 . S
H2352 C2360 0.950 . S
H2353 C2365 0.950 . S
H2354 C2362 0.950 . S
H2355 C2364 0.950 . S
H2356 C2366 0.950 . S
H2357 C2368 0.950 . S
H2358 C2370 0.950 . S
H2359 C2371 0.950 1_455 S
C2360 H2352 0.950 . S
C2360 C2361 1.386 . S
C2360 C2362 1.391 . S
C2361 C2360 1.386 . S
C2361 C2365 1.393 . S
C2362 H2354 0.950 . S
C2362 C2360 1.391 . S
C2362 C2363 1.400 . S
C2363 C2362 1.400 . S
C2363 C2364 1.398 . S
C2363 C2369 1.491 . S
C2364 H2355 0.950 . S
C2364 C2363 1.398 . S
C2364 C2365 1.391 . S
C2365 H2353 0.950 . S
C2365 C2361 1.393 . S
C2365 C2364 1.391 . S
C2366 H2356 0.950 . S
C2366 C2367 1.386 . S
C2366 C2368 1.391 . S
C2367 C2366 1.386 . S
C2367 C2371 1.393 . S
C2368 H2357 0.950 . S
C2368 C2366 1.391 . S
C2368 C2369 1.400 . S
C2369 C2363 1.491 . S
C2369 C2368 1.400 . S
C2369 C2370 1.398 . S
C2370 H2358 0.950 . S
C2370 C2369 1.398 . S
C2370 C2371 1.391 . S
C2371 H2359 0.950 1_655 S
C2371 C2367 1.393 . S
C2371 C2370 1.391 . S
H2372 C2380 0.950 . S
H2373 C2385 0.950 . S
H2374 C2382 0.950 . S
H2375 C2384 0.950 . S
H2376 C2386 0.950 . S
H2377 C2388 0.950 . S
H2378 C2390 0.950 . S
H2379 C2391 0.950 . S
C2380 H2372 0.950 . S
C2380 C2381 1.386 . S
C2380 C2382 1.391 . S
C2381 C2380 1.386 . S
C2381 C2385 1.393 . S
C2382 H2374 0.950 . S
C2382 C2380 1.391 . S
C2382 C2383 1.400 . S
C2383 C2382 1.400 . S
C2383 C2384 1.398 . S
C2383 C2389 1.491 . S
C2384 H2375 0.950 . S
C2384 C2383 1.398 . S
C2384 C2385 1.391 . S
C2385 H2373 0.950 . S
C2385 C2381 1.393 . S
C2385 C2384 1.391 . S
C2386 H2376 0.950 . S
C2386 C2387 1.386 . S
C2386 C2388 1.391 . S
C2387 C2386 1.386 . S
C2387 C2391 1.393 . S
C2388 H2377 0.950 . S
C2388 C2386 1.391 . S
C2388 C2389 1.400 . S
C2389 C2383 1.491 . S
C2389 C2388 1.400 . S
C2389 C2390 1.398 . S
C2390 H2378 0.950 . S
C2390 C2389 1.398 . S
C2390 C2391 1.391 . S
C2391 H2379 0.950 . S
C2391 C2387 1.393 . S
C2391 C2390 1.391 . S
H2392 C2400 0.950 . S
H2393 C2405 0.950 . S
H2394 C2402 0.950 . S
H2395 C2404 0.950 . S
H2396 C2406 0.950 . S
H2397 C2408 0.950 . S
H2398 C2410 0.950 . S
H2399 C2411 0.950 . S
C2400 H2392 0.950 . S
C2400 C2401 1.386 . S
C2400 C2402 1.391 . S
C2401 C2400 1.386 . S
C2401 C2405 1.393 . S
C2402 H2394 0.950 . S
C2402 C2400 1.391 . S
C2402 C2403 1.400 . S
C2403 C2402 1.400 . S
C2403 C2404 1.398 . S
C2403 C2409 1.491 . S
C2404 H2395 0.950 . S
C2404 C2403 1.398 . S
C2404 C2405 1.391 . S
C2405 H2393 0.950 . S
C2405 C2401 1.393 . S
C2405 C2404 1.391 . S
C2406 H2396 0.950 . S
C2406 C2407 1.386 . S
C2406 C2408 1.391 . S
C2407 C2406 1.386 . S
C2407 C2411 1.393 . S
C2408 H2397 0.950 . S
C2408 C2406 1.391 . S
C2408 C2409 1.400 . S
C2409 C2403 1.491 . S
C2409 C2408 1.400 . S
C2409 C2410 1.398 . S
C2410 H2398 0.950 . S
C2410 C2409 1.398 . S
C2410 C2411 1.391 . S
C2411 H2399 0.950 . S
C2411 C2407 1.393 . S
C2411 C2410 1.391 . S
H2412 C2420 0.950 . S
H2413 C2425 0.950 . S
H2414 C2422 0.950 . S
H2415 C2424 0.950 . S
H2416 C2426 0.950 . S
H2417 C2428 0.950 . S
H2418 C2430 0.950 . S
H2419 C2431 0.950 . S
C2420 H2412 0.950 . S
C2420 C2421 1.386 . S
C2420 C2422 1.391 . S
C2421 C2420 1.386 . S
C2421 C2425 1.393 . S
C2422 H2414 0.950 . S
C2422 C2420 1.391 . S
C2422 C2423 1.400 . S
C2423 C2422 1.400 . S
C2423 C2424 1.398 . S
C2423 C2429 1.491 . S
C2424 H2415 0.950 . S
C2424 C2423 1.398 . S
C2424 C2425 1.391 . S
C2425 H2413 0.950 . S
C2425 C2421 1.393 . S
C2425 C2424 1.391 . S
C2426 H2416 0.950 . S
C2426 C2427 1.386 . S
C2426 C2428 1.391 . S
C2427 C2426 1.386 . S
C2427 C2431 1.393 . S
C2428 H2417 0.950 . S
C2428 C2426 1.391 . S
C2428 C2429 1.400 . S
C2429 C2423 1.491 . S
C2429 C2428 1.400 . S
C2429 C2430 1.398 . S
C2430 H2418 0.950 . S
C2430 C2429 1.398 . S
C2430 C2431 1.391 . S
C2431 H2419 0.950 . S
C2431 C2427 1.393 . S
C2431 C2430 1.391 . S
H2432 C2440 0.950 . S
H2433 C2445 0.950 . S
H2434 C2442 0.950 . S
H2435 C2444 0.950 . S
H2436 C2446 0.950 . S
H2437 C2448 0.950 . S
H2438 C2450 0.950 . S
H2439 C2451 0.950 1_545 S
C2440 H2432 0.950 . S
C2440 C2441 1.386 . S
C2440 C2442 1.391 . S
C2441 C2440 1.386 . S
C2441 C2445 1.393 . S
C2442 H2434 0.950 . S
C2442 C2440 1.391 . S
C2442 C2443 1.400 . S
C2443 C2442 1.400 . S
C2443 C2444 1.398 . S
C2443 C2449 1.491 . S
C2444 H2435 0.950 . S
C2444 C2443 1.398 . S
C2444 C2445 1.391 . S
C2445 H2433 0.950 . S
C2445 C2441 1.393 . S
C2445 C2444 1.391 . S
C2446 H2436 0.950 . S
C2446 C2447 1.386 . S
C2446 C2448 1.391 . S
C2447 C2446 1.386 . S
C2447 C2451 1.393 . S
C2448 H2437 0.950 . S
C2448 C2446 1.391 . S
C2448 C2449 1.400 . S
C2449 C2443 1.491 . S
C2449 C2448 1.400 . S
C2449 C2450 1.398 . S
C2450 H2438 0.950 . S
C2450 C2449 1.398 . S
C2450 C2451 1.391 . S
C2451 H2439 0.950 1_565 S
C2451 C2447 1.393 . S
C2451 C2450 1.391 . S
H2452 C2460 0.950 . S
H2453 C2465 0.950 . S
H2454 C2462 0.950 . S
H2455 C2464 0.950 . S
H2456 C2466 0.950 . S
H2457 C2468 0.950 . S
H2458 C2470 0.950 . S
H2459 C2471 0.950 . S
C2460 H2452 0.950 . S
C2460 C2461 1.386 . S
C2460 C2462 1.391 . S
C2461 C2460 1.386 . S
C2461 C2465 1.393 . S
C2462 H2454 0.950 . S
C2462 C2460 1.391 . S
C2462 C2463 1.400 . S
C2463 C2462 1.400 . S
C2463 C2464 1.398 . S
C2463 C2469 1.491 . S
C2464 H2455 0.950 . S
C2464 C2463 1.398 . S
C2464 C2465 1.391 . S
C2465 H2453 0.950 . S
C2465 C2461 1.393 . S
C2465 C2464 1.391 . S
C2466 H2456 0.950 . S
C2466 C2467 1.386 . S
C2466 C2468 1.391 . S
C2467 C2466 1.386 . S
C2467 C2471 1.393 . S
C2468 H2457 0.950 . S
C2468 C2466 1.391 . S
C2468 C2469 1.400 . S
C2469 C2463 1.491 . S
C2469 C2468 1.400 . S
C2469 C2470 1.398 . S
C2470 H2458 0.950 . S
C2470 C2469 1.398 . S
C2470 C2471 1.391 . S
C2471 H2459 0.950 . S
C2471 C2467 1.393 . S
C2471 C2470 1.391 . S
H2472 C2480 0.950 . S
H2473 C2485 0.950 . S
H2474 C2482 0.950 . S
H2475 C2484 0.950 . S
H2476 C2486 0.950 . S
H2477 C2488 0.950 . S
H2478 C2490 0.950 . S
H2479 C2491 0.950 . S
C2480 H2472 0.950 . S
C2480 C2481 1.386 . S
C2480 C2482 1.391 . S
C2481 C2480 1.386 . S
C2481 C2485 1.393 . S
C2482 H2474 0.950 . S
C2482 C2480 1.391 . S
C2482 C2483 1.400 . S
C2483 C2482 1.400 . S
C2483 C2484 1.398 . S
C2483 C2489 1.491 . S
C2484 H2475 0.950 . S
C2484 C2483 1.398 . S
C2484 C2485 1.391 . S
C2485 H2473 0.950 . S
C2485 C2481 1.393 . S
C2485 C2484 1.391 . S
C2486 H2476 0.950 . S
C2486 C2487 1.386 . S
C2486 C2488 1.391 . S
C2487 C2486 1.386 . S
C2487 C2491 1.393 . S
C2488 H2477 0.950 . S
C2488 C2486 1.391 . S
C2488 C2489 1.400 . S
C2489 C2483 1.491 . S
C2489 C2488 1.400 . S
C2489 C2490 1.398 . S
C2490 H2478 0.950 . S
C2490 C2489 1.398 . S
C2490 C2491 1.391 . S
C2491 H2479 0.950 . S
C2491 C2487 1.393 . S
C2491 C2490 1.391 . S
H2492 C2500 0.950 . S
H2493 C2505 0.950 . S
H2494 C2502 0.950 . S
H2495 C2504 0.950 . S
H2496 C2506 0.950 . S
H2497 C2508 0.950 . S
H2498 C2510 0.950 . S
H2499 C2511 0.950 . S
C2500 H2492 0.950 . S
C2500 C2501 1.386 . S
C2500 C2502 1.391 . S
C2501 C2500 1.386 . S
C2501 C2505 1.393 . S
C2502 H2494 0.950 . S
C2502 C2500 1.391 . S
C2502 C2503 1.400 . S
C2503 C2502 1.400 . S
C2503 C2504 1.398 . S
C2503 C2509 1.491 . S
C2504 H2495 0.950 . S
C2504 C2503 1.398 . S
C2504 C2505 1.391 . S
C2505 H2493 0.950 . S
C2505 C2501 1.393 . S
C2505 C2504 1.391 . S
C2506 H2496 0.950 . S
C2506 C2507 1.386 . S
C2506 C2508 1.391 . S
C2507 C2506 1.386 . S
C2507 C2511 1.393 . S
C2508 H2497 0.950 . S
C2508 C2506 1.391 . S
C2508 C2509 1.400 . S
C2509 C2503 1.491 . S
C2509 C2508 1.400 . S
C2509 C2510 1.398 . S
C2510 H2498 0.950 . S
C2510 C2509 1.398 . S
C2510 C2511 1.391 . S
C2511 H2499 0.950 . S
C2511 C2507 1.393 . S
C2511 C2510 1.391 . S
H2512 C2520 0.950 . S
H2513 C2525 0.950 . S
H2514 C2522 0.950 . S
H2515 C2524 0.950 . S
H2516 C2526 0.950 . S
H2517 C2528 0.950 . S
H2518 C2530 0.950 . S
H2519 C2531 0.950 . S
C2520 H2512 0.950 . S
C2520 C2521 1.386 . S
C2520 C2522 1.391 . S
C2521 C2520 1.386 . S
C2521 C2525 1.393 . S
C2522 H2514 0.950 . S
C2522 C2520 1.391 . S
C2522 C2523 1.400 . S
C2523 C2522 1.400 . S
C2523 C2524 1.398 . S
C2523 C2529 1.491 . S
C2524 H2515 0.950 . S
C2524 C2523 1.398 . S
C2524 C2525 1.391 . S
C2525 H2513 0.950 . S
C2525 C2521 1.393 . S
C2525 C2524 1.391 . S
C2526 H2516 0.950 . S
C2526 C2527 1.386 . S
C2526 C2528 1.391 . S
C2527 C2526 1.386 . S
C2527 C2531 1.393 . S
C2528 H2517 0.950 . S
C2528 C2526 1.391 . S
C2528 C2529 1.400 . S
C2529 C2523 1.491 . S
C2529 C2528 1.400 . S
C2529 C2530 1.398 . S
C2530 H2518 0.950 . S
C2530 C2529 1.398 . S
C2530 C2531 1.391 . S
C2531 H2519 0.950 . S
C2531 C2527 1.393 . S
C2531 C2530 1.391 . S
H2532 C2540 0.950 . S
H2533 C2545 0.950 . S
H2534 C2542 0.950 . S
H2535 C2544 0.950 . S
H2536 C2546 0.950 . S
H2537 C2548 0.950 . S
H2538 C2550 0.950 . S
H2539 C2551 0.950 . S
C2540 H2532 0.950 . S
C2540 C2541 1.386 . S
C2540 C2542 1.391 . S
C2541 C2540 1.386 . S
C2541 C2545 1.393 . S
C2542 H2534 0.950 . S
C2542 C2540 1.391 . S
C2542 C2543 1.400 . S
C2543 C2542 1.400 . S
C2543 C2544 1.398 . S
C2543 C2549 1.491 . S
C2544 H2535 0.950 . S
C2544 C2543 1.398 . S
C2544 C2545 1.391 . S
C2545 H2533 0.950 . S
C2545 C2541 1.393 . S
C2545 C2544 1.391 . S
C2546 H2536 0.950 . S
C2546 C2547 1.386 . S
C2546 C2548 1.391 . S
C2547 C2546 1.386 . S
C2547 C2551 1.393 . S
C2548 H2537 0.950 . S
C2548 C2546 1.391 . S
C2548 C2549 1.400 . S
C2549 C2543 1.491 . S
C2549 C2548 1.400 . S
C2549 C2550 1.398 . S
C2550 H2538 0.950 . S
C2550 C2549 1.398 . S
C2550 C2551 1.391 . S
C2551 H2539 0.950 . S
C2551 C2547 1.393 . S
C2551 C2550 1.391 . S
H2552 C2560 0.950 . S
H2553 C2565 0.950 . S
H2554 C2562 0.950 . S
H2555 C2564 0.950 . S
H2556 C2566 0.950 . S
H2557 C2568 0.950 . S
H2558 C2570 0.950 . S
H2559 C2571 0.950 . S
C2560 H2552 0.950 . S
C2560 C2561 1.386 . S
C2560 C2562 1.391 . S
C2561 C2560 1.386 . S
C2561 C2565 1.393 . S
C2562 H2554 0.950 . S
C2562 C2560 1.391 . S
C2562 C2563 1.400 . S
C2563 C2562 1.400 . S
C2563 C2564 1.398 . S
C2563 C2569 1.491 . S
C2564 H2555 0.950 . S
C2564 C2563 1.398 . S
C2564 C2565 1.391 . S
C2565 H2553 0.950 . S
C2565 C2561 1.393 . S
C2565 C2564 1.391 . S
C2566 H2556 0.950 . S
C2566 C2567 1.386 . S
C2566 C2568 1.391 . S
C2567 C2566 1.386 . S
C2567 C2571 1.393 . S
C2568 H2557 0.950 . S
C2568 C2566 1.391 . S
C2568 C2569 1.400 . S
C2569 C2563 1.491 . S
C2569 C2568 1.400 . S
C2569 C2570 1.398 . S
C2570 H2558 0.950 . S
C2570 C2569 1.398 . S
C2570 C2571 1.391 . S
C2571 H2559 0.950 . S
C2571 C2567 1.393 . S
C2571 C2570 1.391 . S
H2572 C2580 0.950 . S
H2573 C2585 0.950 . S
H2574 C2582 0.950 . S
H2575 C2584 0.950 . S
H2576 C2586 0.950 . S
H2577 C2588 0.950 . S
H2578 C2590 0.950 . S
H2579 C2591 0.950 . S
C2580 H2572 0.950 . S
C2580 C2581 1.386 . S
C2580 C2582 1.391 . S
C2581 C2580 1.386 . S
C2581 C2585 1.393 . S
C2582 H2574 0.950 . S
C2582 C2580 1.391 . S
C2582 C2583 1.400 . S
C2583 C2582 1.400 . S
C2583 C2584 1.398 . S
C2583 C2589 1.491 . S
C2584 H2575 0.950 . S
C2584 C2583 1.398 . S
C2584 C2585 1.391 . S
C2585 H2573 0.950 . S
C2585 C2581 1.393 . S
C2585 C2584 1.391 . S
C2586 H2576 0.950 . S
C2586 C2587 1.386 . S
C2586 C2588 1.391 . S
C2587 C2586 1.386 . S
C2587 C2591 1.393 . S
C2588 H2577 0.950 . S
C2588 C2586 1.391 . S
C2588 C2589 1.400 . S
C2589 C2583 1.491 . S
C2589 C2588 1.400 . S
C2589 C2590 1.398 . S
C2590 H2578 0.950 . S
C2590 C2589 1.398 . S
C2590 C2591 1.391 . S
C2591 H2579 0.950 . S
C2591 C2587 1.393 . S
C2591 C2590 1.391 . S
H2592 C2600 0.950 . S
H2593 C2605 0.950 . S
H2594 C2602 0.950 . S
H2595 C2604 0.950 . S
H2596 C2606 0.950 . S
H2597 C2608 0.950 . S
H2598 C2610 0.950 . S
H2599 C2611 0.950 . S
C2600 H2592 0.950 . S
C2600 C2601 1.386 . S
C2600 C2602 1.391 . S
C2601 C2600 1.386 . S
C2601 C2605 1.393 . S
C2602 H2594 0.950 . S
C2602 C2600 1.391 . S
C2602 C2603 1.400 . S
C2603 C2602 1.400 . S
C2603 C2604 1.398 . S
C2603 C2609 1.491 . S
C2604 H2595 0.950 . S
C2604 C2603 1.398 . S
C2604 C2605 1.391 . S
C2605 H2593 0.950 . S
C2605 C2601 1.393 . S
C2605 C2604 1.391 . S
C2606 H2596 0.950 . S
C2606 C2607 1.386 . S
C2606 C2608 1.391 . S
C2607 C2606 1.386 . S
C2607 C2611 1.393 . S
C2608 H2597 0.950 . S
C2608 C2606 1.391 . S
C2608 C2609 1.400 . S
C2609 C2603 1.491 . S
C2609 C2608 1.400 . S
C2609 C2610 1.398 . S
C2610 H2598 0.950 . S
C2610 C2609 1.398 . S
C2610 C2611 1.391 . S
C2611 H2599 0.950 . S
C2611 C2607 1.393 . S
C2611 C2610 1.391 . S
H2612 C2620 0.950 . S
H2613 C2625 0.950 . S
H2614 C2622 0.950 . S
H2615 C2624 0.950 . S
H2616 C2626 0.950 . S
H2617 C2628 0.950 . S
H2618 C2630 0.950 . S
H2619 C2631 0.950 . S
C2620 H2612 0.950 . S
C2620 C2621 1.386 . S
C2620 C2622 1.391 . S
C2621 C2620 1.386 . S
C2621 C2625 1.393 . S
C2622 H2614 0.950 . S
C2622 C2620 1.391 . S
C2622 C2623 1.400 . S
C2623 C2622 1.400 . S
C2623 C2624 1.398 . S
C2623 C2629 1.491 . S
C2624 H2615 0.950 . S
C2624 C2623 1.398 . S
C2624 C2625 1.391 . S
C2625 H2613 0.950 . S
C2625 C2621 1.393 . S
C2625 C2624 1.391 . S
C2626 H2616 0.950 . S
C2626 C2627 1.386 . S
C2626 C2628 1.391 . S
C2627 C2626 1.386 . S
C2627 C2631 1.393 . S
C2628 H2617 0.950 . S
C2628 C2626 1.391 . S
C2628 C2629 1.400 . S
C2629 C2623 1.491 . S
C2629 C2628 1.400 . S
C2629 C2630 1.398 . S
C2630 H2618 0.950 . S
C2630 C2629 1.398 . S
C2630 C2631 1.391 . S
C2631 H2619 0.950 . S
C2631 C2627 1.393 . S
C2631 C2630 1.391 . S
H2632 C2640 0.950 . S
H2633 C2645 0.950 . S
H2634 C2642 0.950 . S
H2635 C2644 0.950 . S
H2636 C2646 0.950 . S
H2637 C2648 0.950 . S
H2638 C2650 0.950 . S
H2639 C2651 0.950 . S
C2640 H2632 0.950 . S
C2640 C2641 1.386 . S
C2640 C2642 1.391 . S
C2641 C2640 1.386 . S
C2641 C2645 1.393 . S
C2642 H2634 0.950 . S
C2642 C2640 1.391 . S
C2642 C2643 1.400 . S
C2643 C2642 1.400 . S
C2643 C2644 1.398 . S
C2643 C2649 1.491 . S
C2644 H2635 0.950 . S
C2644 C2643 1.398 . S
C2644 C2645 1.391 . S
C2645 H2633 0.950 . S
C2645 C2641 1.393 . S
C2645 C2644 1.391 . S
C2646 H2636 0.950 . S
C2646 C2647 1.386 . S
C2646 C2648 1.391 . S
C2647 C2646 1.386 . S
C2647 C2651 1.393 . S
C2648 H2637 0.950 . S
C2648 C2646 1.391 . S
C2648 C2649 1.400 . S
C2649 C2643 1.491 . S
C2649 C2648 1.400 . S
C2649 C2650 1.398 . S
C2650 H2638 0.950 . S
C2650 C2649 1.398 . S
C2650 C2651 1.391 . S
C2651 H2639 0.950 . S
C2651 C2647 1.393 . S
C2651 C2650 1.391 . S
H2652 C2660 0.950 . S
H2653 C2665 0.950 . S
H2654 C2662 0.950 . S
H2655 C2664 0.950 . S
H2656 C2666 0.950 . S
H2657 C2668 0.950 . S
H2658 C2670 0.950 . S
H2659 C2671 0.950 . S
C2660 H2652 0.950 . S
C2660 C2661 1.386 . S
C2660 C2662 1.391 . S
C2661 C2660 1.386 . S
C2661 C2665 1.393 . S
C2662 H2654 0.950 . S
C2662 C2660 1.391 . S
C2662 C2663 1.400 . S
C2663 C2662 1.400 . S
C2663 C2664 1.398 . S
C2663 C2669 1.491 . S
C2664 H2655 0.950 . S
C2664 C2663 1.398 . S
C2664 C2665 1.391 . S
C2665 H2653 0.950 . S
C2665 C2661 1.393 . S
C2665 C2664 1.391 . S
C2666 H2656 0.950 . S
C2666 C2667 1.386 . S
C2666 C2668 1.391 . S
C2667 C2666 1.386 . S
C2667 C2671 1.393 . S
C2668 H2657 0.950 . S
C2668 C2666 1.391 . S
C2668 C2669 1.400 . S
C2669 C2663 1.491 . S
C2669 C2668 1.400 . S
C2669 C2670 1.398 . S
C2670 H2658 0.950 . S
C2670 C2669 1.398 . S
C2670 C2671 1.391 . S
C2671 H2659 0.950 . S
C2671 C2667 1.393 . S
C2671 C2670 1.391 . S
H2672 C2680 0.950 . S
H2673 C2685 0.950 . S
H2674 C2682 0.950 . S
H2675 C2684 0.950 . S
H2676 C2686 0.950 . S
H2677 C2688 0.950 . S
H2678 C2690 0.950 . S
H2679 C2691 0.950 . S
C2680 H2672 0.950 . S
C2680 C2681 1.386 . S
C2680 C2682 1.391 . S
C2681 C2680 1.386 . S
C2681 C2685 1.393 . S
C2682 H2674 0.950 . S
C2682 C2680 1.391 . S
C2682 C2683 1.400 . S
C2683 C2682 1.400 . S
C2683 C2684 1.398 . S
C2683 C2689 1.491 . S
C2684 H2675 0.950 . S
C2684 C2683 1.398 . S
C2684 C2685 1.391 . S
C2685 H2673 0.950 . S
C2685 C2681 1.393 . S
C2685 C2684 1.391 . S
C2686 H2676 0.950 . S
C2686 C2687 1.386 . S
C2686 C2688 1.391 . S
C2687 C2686 1.386 . S
C2687 C2691 1.393 . S
C2688 H2677 0.950 . S
C2688 C2686 1.391 . S
C2688 C2689 1.400 . S
C2689 C2683 1.491 . S
C2689 C2688 1.400 . S
C2689 C2690 1.398 . S
C2690 H2678 0.950 . S
C2690 C2689 1.398 . S
C2690 C2691 1.391 . S
C2691 H2679 0.950 . S
C2691 C2687 1.393 . S
C2691 C2690 1.391 . S
H2692 C2700 0.950 . S
H2693 C2705 0.950 . S
H2694 C2702 0.950 . S
H2695 C2704 0.950 . S
H2696 C2706 0.950 . S
H2697 C2708 0.950 . S
H2698 C2710 0.950 . S
H2699 C2711 0.950 . S
C2700 H2692 0.950 . S
C2700 C2701 1.386 . S
C2700 C2702 1.391 . S
C2701 C2700 1.386 . S
C2701 C2705 1.393 . S
C2702 H2694 0.950 . S
C2702 C2700 1.391 . S
C2702 C2703 1.400 . S
C2703 C2702 1.400 . S
C2703 C2704 1.398 . S
C2703 C2709 1.491 . S
C2704 H2695 0.950 . S
C2704 C2703 1.398 . S
C2704 C2705 1.391 . S
C2705 H2693 0.950 . S
C2705 C2701 1.393 . S
C2705 C2704 1.391 . S
C2706 H2696 0.950 . S
C2706 C2707 1.386 . S
C2706 C2708 1.391 . S
C2707 C2706 1.386 . S
C2707 C2711 1.393 . S
C2708 H2697 0.950 . S
C2708 C2706 1.391 . S
C2708 C2709 1.400 . S
C2709 C2703 1.491 . S
C2709 C2708 1.400 . S
C2709 C2710 1.398 . S
C2710 H2698 0.950 . S
C2710 C2709 1.398 . S
C2710 C2711 1.391 . S
C2711 H2699 0.950 . S
C2711 C2707 1.393 . S
C2711 C2710 1.391 . S
H2712 C2720 0.950 . S
H2713 C2725 0.950 . S
H2714 C2722 0.950 . S
H2715 C2724 0.950 . S
H2716 C2726 0.950 . S
H2717 C2728 0.950 . S
H2718 C2730 0.950 . S
H2719 C2731 0.950 . S
C2720 H2712 0.950 . S
C2720 C2721 1.386 . S
C2720 C2722 1.391 . S
C2721 C2720 1.386 . S
C2721 C2725 1.393 . S
C2722 H2714 0.950 . S
C2722 C2720 1.391 . S
C2722 C2723 1.400 . S
C2723 C2722 1.400 . S
C2723 C2724 1.398 . S
C2723 C2729 1.491 . S
C2724 H2715 0.950 . S
C2724 C2723 1.398 . S
C2724 C2725 1.391 . S
C2725 H2713 0.950 . S
C2725 C2721 1.393 . S
C2725 C2724 1.391 . S
C2726 H2716 0.950 . S
C2726 C2727 1.386 . S
C2726 C2728 1.391 . S
C2727 C2726 1.386 . S
C2727 C2731 1.393 . S
C2728 H2717 0.950 . S
C2728 C2726 1.391 . S
C2728 C2729 1.400 . S
C2729 C2723 1.491 . S
C2729 C2728 1.400 . S
C2729 C2730 1.398 . S
C2730 H2718 0.950 . S
C2730 C2729 1.398 . S
C2730 C2731 1.391 . S
C2731 H2719 0.950 . S
C2731 C2727 1.393 . S
C2731 C2730 1.391 . S
H2732 C2740 0.950 . S
H2733 C2745 0.950 . S
H2734 C2742 0.950 . S
H2735 C2744 0.950 . S
H2736 C2746 0.950 . S
H2737 C2748 0.950 . S
H2738 C2750 0.950 . S
H2739 C2751 0.950 . S
C2740 H2732 0.950 . S
C2740 C2741 1.386 . S
C2740 C2742 1.391 . S
C2741 C2740 1.386 . S
C2741 C2745 1.393 . S
C2742 H2734 0.950 . S
C2742 C2740 1.391 . S
C2742 C2743 1.400 . S
C2743 C2742 1.400 . S
C2743 C2744 1.398 . S
C2743 C2749 1.491 . S
C2744 H2735 0.950 . S
C2744 C2743 1.398 . S
C2744 C2745 1.391 . S
C2745 H2733 0.950 . S
C2745 C2741 1.393 . S
C2745 C2744 1.391 . S
C2746 H2736 0.950 . S
C2746 C2747 1.386 . S
C2746 C2748 1.391 . S
C2747 C2746 1.386 . S
C2747 C2751 1.393 . S
C2748 H2737 0.950 . S
C2748 C2746 1.391 . S
C2748 C2749 1.400 . S
C2749 C2743 1.491 . S
C2749 C2748 1.400 . S
C2749 C2750 1.398 . S
C2750 H2738 0.950 . S
C2750 C2749 1.398 . S
C2750 C2751 1.391 . S
C2751 H2739 0.950 . S
C2751 C2747 1.393 . S
C2751 C2750 1.391 . S
H2752 C2760 0.950 . S
H2753 C2765 0.950 . S
H2754 C2762 0.950 . S
H2755 C2764 0.950 . S
H2756 C2766 0.950 . S
H2757 C2768 0.950 . S
H2758 C2770 0.950 . S
H2759 C2771 0.950 . S
C2760 H2752 0.950 . S
C2760 C2761 1.386 . S
C2760 C2762 1.391 . S
C2761 C2760 1.386 . S
C2761 C2765 1.393 . S
C2762 H2754 0.950 . S
C2762 C2760 1.391 . S
C2762 C2763 1.400 . S
C2763 C2762 1.400 . S
C2763 C2764 1.398 . S
C2763 C2769 1.491 . S
C2764 H2755 0.950 . S
C2764 C2763 1.398 . S
C2764 C2765 1.391 . S
C2765 H2753 0.950 . S
C2765 C2761 1.393 . S
C2765 C2764 1.391 . S
C2766 H2756 0.950 . S
C2766 C2767 1.386 . S
C2766 C2768 1.391 . S
C2767 C2766 1.386 . S
C2767 C2771 1.393 . S
C2768 H2757 0.950 . S
C2768 C2766 1.391 . S
C2768 C2769 1.400 . S
C2769 C2763 1.491 . S
C2769 C2768 1.400 . S
C2769 C2770 1.398 . S
C2770 H2758 0.950 . S
C2770 C2769 1.398 . S
C2770 C2771 1.391 . S
C2771 H2759 0.950 . S
C2771 C2767 1.393 . S
C2771 C2770 1.391 . S
H2772 C2780 0.950 . S
H2773 C2785 0.950 . S
H2774 C2782 0.950 . S
H2775 C2784 0.950 . S
H2776 C2786 0.950 . S
H2777 C2788 0.950 . S
H2778 C2790 0.950 . S
H2779 C2791 0.950 . S
C2780 H2772 0.950 . S
C2780 C2781 1.386 . S
C2780 C2782 1.391 . S
C2781 C2780 1.386 . S
C2781 C2785 1.393 . S
C2782 H2774 0.950 . S
C2782 C2780 1.391 . S
C2782 C2783 1.400 . S
C2783 C2782 1.400 . S
C2783 C2784 1.398 . S
C2783 C2789 1.491 . S
C2784 H2775 0.950 . S
C2784 C2783 1.398 . S
C2784 C2785 1.391 . S
C2785 H2773 0.950 . S
C2785 C2781 1.393 . S
C2785 C2784 1.391 . S
C2786 H2776 0.950 . S
C2786 C2787 1.386 . S
C2786 C2788 1.391 . S
C2787 C2786 1.386 . S
C2787 C2791 1.393 . S
C2788 H2777 0.950 . S
C2788 C2786 1.391 . S
C2788 C2789 1.400 . S
C2789 C2783 1.491 . S
C2789 C2788 1.400 . S
C2789 C2790 1.398 . S
C2790 H2778 0.950 . S
C2790 C2789 1.398 . S
C2790 C2791 1.391 . S
C2791 H2779 0.950 . S
C2791 C2787 1.393 . S
C2791 C2790 1.391 . S
H2792 C2800 0.950 . S
H2793 C2805 0.950 . S
H2794 C2802 0.950 . S
H2795 C2804 0.950 . S
H2796 C2806 0.950 . S
H2797 C2808 0.950 . S
H2798 C2810 0.950 . S
H2799 C2811 0.950 . S
C2800 H2792 0.950 . S
C2800 C2801 1.386 . S
C2800 C2802 1.391 . S
C2801 C2800 1.386 . S
C2801 C2805 1.393 . S
C2802 H2794 0.950 . S
C2802 C2800 1.391 . S
C2802 C2803 1.400 . S
C2803 C2802 1.400 . S
C2803 C2804 1.398 . S
C2803 C2809 1.491 . S
C2804 H2795 0.950 . S
C2804 C2803 1.398 . S
C2804 C2805 1.391 . S
C2805 H2793 0.950 . S
C2805 C2801 1.393 . S
C2805 C2804 1.391 . S
C2806 H2796 0.950 . S
C2806 C2807 1.386 . S
C2806 C2808 1.391 . S
C2807 C2806 1.386 . S
C2807 C2811 1.393 . S
C2808 H2797 0.950 . S
C2808 C2806 1.391 . S
C2808 C2809 1.400 . S
C2809 C2803 1.491 . S
C2809 C2808 1.400 . S
C2809 C2810 1.398 . S
C2810 H2798 0.950 . S
C2810 C2809 1.398 . S
C2810 C2811 1.391 . S
C2811 H2799 0.950 . S
C2811 C2807 1.393 . S
C2811 C2810 1.391 . S
H2812 C2820 0.950 . S
H2813 C2825 0.950 . S
H2814 C2822 0.950 . S
H2815 C2824 0.950 . S
H2816 C2826 0.950 . S
H2817 C2828 0.950 . S
H2818 C2830 0.950 . S
H2819 C2831 0.950 . S
C2820 H2812 0.950 . S
C2820 C2821 1.386 . S
C2820 C2822 1.391 . S
C2821 C2820 1.386 . S
C2821 C2825 1.393 . S
C2822 H2814 0.950 . S
C2822 C2820 1.391 . S
C2822 C2823 1.400 . S
C2823 C2822 1.400 . S
C2823 C2824 1.398 . S
C2823 C2829 1.491 . S
C2824 H2815 0.950 . S
C2824 C2823 1.398 . S
C2824 C2825 1.391 . S
C2825 H2813 0.950 . S
C2825 C2821 1.393 . S
C2825 C2824 1.391 . S
C2826 H2816 0.950 . S
C2826 C2827 1.386 . S
C2826 C2828 1.391 . S
C2827 C2826 1.386 . S
C2827 C2831 1.393 . S
C2828 H2817 0.950 . S
C2828 C2826 1.391 . S
C2828 C2829 1.400 . S
C2829 C2823 1.491 . S
C2829 C2828 1.400 . S
C2829 C2830 1.398 . S
C2830 H2818 0.950 . S
C2830 C2829 1.398 . S
C2830 C2831 1.391 . S
C2831 H2819 0.950 . S
C2831 C2827 1.393 . S
C2831 C2830 1.391 . S
H2832 C2840 0.950 . S
H2833 C2845 0.950 . S
H2834 C2842 0.950 . S
H2835 C2844 0.950 . S
H2836 C2846 0.950 . S
H2837 C2848 0.950 . S
H2838 C2850 0.950 . S
H2839 C2851 0.950 . S
C2840 H2832 0.950 . S
C2840 C2841 1.386 . S
C2840 C2842 1.391 . S
C2841 C2840 1.386 . S
C2841 C2845 1.393 . S
C2842 H2834 0.950 . S
C2842 C2840 1.391 . S
C2842 C2843 1.400 . S
C2843 C2842 1.400 . S
C2843 C2844 1.398 . S
C2843 C2849 1.491 . S
C2844 H2835 0.950 . S
C2844 C2843 1.398 . S
C2844 C2845 1.391 . S
C2845 H2833 0.950 . S
C2845 C2841 1.393 . S
C2845 C2844 1.391 . S
C2846 H2836 0.950 . S
C2846 C2847 1.386 . S
C2846 C2848 1.391 . S
C2847 C2846 1.386 . S
C2847 C2851 1.393 . S
C2848 H2837 0.950 . S
C2848 C2846 1.391 . S
C2848 C2849 1.400 . S
C2849 C2843 1.491 . S
C2849 C2848 1.400 . S
C2849 C2850 1.398 . S
C2850 H2838 0.950 . S
C2850 C2849 1.398 . S
C2850 C2851 1.391 . S
C2851 H2839 0.950 . S
C2851 C2847 1.393 . S
C2851 C2850 1.391 . S
H2852 C2860 0.950 . S
H2853 C2865 0.950 . S
H2854 C2862 0.950 . S
H2855 C2864 0.950 . S
H2856 C2866 0.950 . S
H2857 C2868 0.950 . S
H2858 C2870 0.950 . S
H2859 C2871 0.950 . S
C2860 H2852 0.950 . S
C2860 C2861 1.386 . S
C2860 C2862 1.391 . S
C2861 C2860 1.386 . S
C2861 C2865 1.393 . S
C2862 H2854 0.950 . S
C2862 C2860 1.391 . S
C2862 C2863 1.400 . S
C2863 C2862 1.400 . S
C2863 C2864 1.398 . S
C2863 C2869 1.491 . S
C2864 H2855 0.950 . S
C2864 C2863 1.398 . S
C2864 C2865 1.391 . S
C2865 H2853 0.950 . S
C2865 C2861 1.393 . S
C2865 C2864 1.391 . S
C2866 H2856 0.950 . S
C2866 C2867 1.386 . S
C2866 C2868 1.391 . S
C2867 C2866 1.386 . S
C2867 C2871 1.393 . S
C2868 H2857 0.950 . S
C2868 C2866 1.391 . S
C2868 C2869 1.400 . S
C2869 C2863 1.491 . S
C2869 C2868 1.400 . S
C2869 C2870 1.398 . S
C2870 H2858 0.950 . S
C2870 C2869 1.398 . S
C2870 C2871 1.391 . S
C2871 H2859 0.950 . S
C2871 C2867 1.393 . S
C2871 C2870 1.391 . S
H2872 C2880 0.950 . S
H2873 C2885 0.950 . S
H2874 C2882 0.950 . S
H2875 C2884 0.950 . S
H2876 C2886 0.950 . S
H2877 C2888 0.950 . S
H2878 C2890 0.950 . S
H2879 C2891 0.950 . S
C2880 H2872 0.950 . S
C2880 C2881 1.386 . S
C2880 C2882 1.391 . S
C2881 C2880 1.386 . S
C2881 C2885 1.393 . S
C2882 H2874 0.950 . S
C2882 C2880 1.391 . S
C2882 C2883 1.400 . S
C2883 C2882 1.400 . S
C2883 C2884 1.398 . S
C2883 C2889 1.491 . S
C2884 H2875 0.950 . S
C2884 C2883 1.398 . S
C2884 C2885 1.391 . S
C2885 H2873 0.950 . S
C2885 C2881 1.393 . S
C2885 C2884 1.391 . S
C2886 H2876 0.950 . S
C2886 C2887 1.386 . S
C2886 C2888 1.391 . S
C2887 C2886 1.386 . S
C2887 C2891 1.393 . S
C2888 H2877 0.950 . S
C2888 C2886 1.391 . S
C2888 C2889 1.400 . S
C2889 C2883 1.491 . S
C2889 C2888 1.400 . S
C2889 C2890 1.398 . S
C2890 H2878 0.950 . S
C2890 C2889 1.398 . S
C2890 C2891 1.391 . S
C2891 H2879 0.950 . S
C2891 C2887 1.393 . S
C2891 C2890 1.391 . S
H2892 C2900 0.950 . S
H2893 C2905 0.950 . S
H2894 C2902 0.950 . S
H2895 C2904 0.950 . S
H2896 C2906 0.950 . S
H2897 C2908 0.950 . S
H2898 C2910 0.950 . S
H2899 C2911 0.950 . S
C2900 H2892 0.950 . S
C2900 C2901 1.386 . S
C2900 C2902 1.391 . S
C2901 C2900 1.386 . S
C2901 C2905 1.393 . S
C2902 H2894 0.950 . S
C2902 C2900 1.391 . S
C2902 C2903 1.400 . S
C2903 C2902 1.400 . S
C2903 C2904 1.398 . S
C2903 C2909 1.491 . S
C2904 H2895 0.950 . S
C2904 C2903 1.398 . S
C2904 C2905 1.391 . S
C2905 H2893 0.950 . S
C2905 C2901 1.393 . S
C2905 C2904 1.391 . S
C2906 H2896 0.950 . S
C2906 C2907 1.386 . S
C2906 C2908 1.391 . S
C2907 C2906 1.386 . S
C2907 C2911 1.393 . S
C2908 H2897 0.950 . S
C2908 C2906 1.391 . S
C2908 C2909 1.400 . S
C2909 C2903 1.491 . S
C2909 C2908 1.400 . S
C2909 C2910 1.398 . S
C2910 H2898 0.950 . S
C2910 C2909 1.398 . S
C2910 C2911 1.391 . S
C2911 H2899 0.950 . S
C2911 C2907 1.393 . S
C2911 C2910 1.391 . S
H2912 C2920 0.950 . S
H2913 C2925 0.950 . S
H2914 C2922 0.950 . S
H2915 C2924 0.950 . S
H2916 C2926 0.950 . S
H2917 C2928 0.950 . S
H2918 C2930 0.950 . S
H2919 C2931 0.950 . S
C2920 H2912 0.950 . S
C2920 C2921 1.386 . S
C2920 C2922 1.391 . S
C2921 C2920 1.386 . S
C2921 C2925 1.393 . S
C2922 H2914 0.950 . S
C2922 C2920 1.391 . S
C2922 C2923 1.400 . S
C2923 C2922 1.400 . S
C2923 C2924 1.398 . S
C2923 C2929 1.491 . S
C2924 H2915 0.950 . S
C2924 C2923 1.398 . S
C2924 C2925 1.391 . S
C2925 H2913 0.950 . S
C2925 C2921 1.393 . S
C2925 C2924 1.391 . S
C2926 H2916 0.950 . S
C2926 C2927 1.386 . S
C2926 C2928 1.391 . S
C2927 C2926 1.386 . S
C2927 C2931 1.393 . S
C2928 H2917 0.950 . S
C2928 C2926 1.391 . S
C2928 C2929 1.400 . S
C2929 C2923 1.491 . S
C2929 C2928 1.400 . S
C2929 C2930 1.398 . S
C2930 H2918 0.950 . S
C2930 C2929 1.398 . S
C2930 C2931 1.391 . S
C2931 H2919 0.950 . S
C2931 C2927 1.393 . S
C2931 C2930 1.391 . S
H2932 C2940 0.950 . S
H2933 C2945 0.950 . S
H2934 C2942 0.950 . S
H2935 C2944 0.950 . S
H2936 C2946 0.950 . S
H2937 C2948 0.950 . S
H2938 C2950 0.950 . S
H2939 C2951 0.950 . S
C2940 H2932 0.950 . S
C2940 C2941 1.386 . S
C2940 C2942 1.391 . S
C2941 C2940 1.386 . S
C2941 C2945 1.393 . S
C2942 H2934 0.950 . S
C2942 C2940 1.391 . S
C2942 C2943 1.400 . S
C2943 C2942 1.400 . S
C2943 C2944 1.398 . S
C2943 C2949 1.491 . S
C2944 H2935 0.950 . S
C2944 C2943 1.398 . S
C2944 C2945 1.391 . S
C2945 H2933 0.950 . S
C2945 C2941 1.393 . S
C2945 C2944 1.391 . S
C2946 H2936 0.950 . S
C2946 C2947 1.386 . S
C2946 C2948 1.391 . S
C2947 C2946 1.386 . S
C2947 C2951 1.393 . S
C2948 H2937 0.950 . S
C2948 C2946 1.391 . S
C2948 C2949 1.400 . S
C2949 C2943 1.491 . S
C2949 C2948 1.400 . S
C2949 C2950 1.398 . S
C2950 H2938 0.950 . S
C2950 C2949 1.398 . S
C2950 C2951 1.391 . S
C2951 H2939 0.950 . S
C2951 C2947 1.393 . S
C2951 C2950 1.391 . S
H2952 C2960 0.950 . S
H2953 C2965 0.950 . S
H2954 C2962 0.950 . S
H2955 C2964 0.950 . S
H2956 C2966 0.950 . S
H2957 C2968 0.950 . S
H2958 C2970 0.950 . S
H2959 C2971 0.950 . S
C2960 H2952 0.950 . S
C2960 C2961 1.386 . S
C2960 C2962 1.391 . S
C2961 C2960 1.386 . S
C2961 C2965 1.393 . S
C2962 H2954 0.950 . S
C2962 C2960 1.391 . S
C2962 C2963 1.400 . S
C2963 C2962 1.400 . S
C2963 C2964 1.398 . S
C2963 C2969 1.491 . S
C2964 H2955 0.950 . S
C2964 C2963 1.398 . S
C2964 C2965 1.391 . S
C2965 H2953 0.950 . S
C2965 C2961 1.393 . S
C2965 C2964 1.391 . S
C2966 H2956 0.950 . S
C2966 C2967 1.386 . S
C2966 C2968 1.391 . S
C2967 C2966 1.386 . S
C2967 C2971 1.393 . S
C2968 H2957 0.950 . S
C2968 C2966 1.391 . S
C2968 C2969 1.400 . S
C2969 C2963 1.491 . S
C2969 C2968 1.400 . S
C2969 C2970 1.398 . S
C2970 H2958 0.950 . S
C2970 C2969 1.398 . S
C2970 C2971 1.391 . S
C2971 H2959 0.950 . S
C2971 C2967 1.393 . S
C2971 C2970 1.391 . S
H2972 C2980 0.950 . S
H2973 C2985 0.950 . S
H2974 C2982 0.950 . S
H2975 C2984 0.950 . S
H2976 C2986 0.950 . S
H2977 C2988 0.950 . S
H2978 C2990 0.950 . S
H2979 C2991 0.950 . S
C2980 H2972 0.950 . S
C2980 C2981 1.386 . S
C2980 C2982 1.391 . S
C2981 C2980 1.386 . S
C2981 C2985 1.393 . S
C2982 H2974 0.950 . S
C2982 C2980 1.391 . S
C2982 C2983 1.400 . S
C2983 C2982 1.400 . S
C2983 C2984 1.398 . S
C2983 C2989 1.491 . S
C2984 H2975 0.950 . S
C2984 C2983 1.398 . S
C2984 C2985 1.391 . S
C2985 H2973 0.950 . S
C2985 C2981 1.393 . S
C2985 C2984 1.391 . S
C2986 H2976 0.950 . S
C2986 C2987 1.386 . S
C2986 C2988 1.391 . S
C2987 C2986 1.386 . S
C2987 C2991 1.393 . S
C2988 H2977 0.950 . S
C2988 C2986 1.391 . S
C2988 C2989 1.400 . S
C2989 C2983 1.491 . S
C2989 C2988 1.400 . S
C2989 C2990 1.398 . S
C2990 H2978 0.950 . S
C2990 C2989 1.398 . S
C2990 C2991 1.391 . S
C2991 H2979 0.950 . S
C2991 C2987 1.393 . S
C2991 C2990 1.391 . S
H2992 C3000 0.950 . S
H2993 C3005 0.950 . S
H2994 C3002 0.950 . S
H2995 C3004 0.950 . S
H2996 C3006 0.950 . S
H2997 C3008 0.950 . S
H2998 C3010 0.950 . S
H2999 C3011 0.950 . S
C3000 H2992 0.950 . S
C3000 C3001 1.386 . S
C3000 C3002 1.391 . S
C3001 C3000 1.386 . S
C3001 C3005 1.393 . S
C3002 H2994 0.950 . S
C3002 C3000 1.391 . S
C3002 C3003 1.400 . S
C3003 C3002 1.400 . S
C3003 C3004 1.398 . S
C3003 C3009 1.491 . S
C3004 H2995 0.950 . S
C3004 C3003 1.398 . S
C3004 C3005 1.391 . S
C3005 H2993 0.950 . S
C3005 C3001 1.393 . S
C3005 C3004 1.391 . S
C3006 H2996 0.950 . S
C3006 C3007 1.386 . S
C3006 C3008 1.391 . S
C3007 C3006 1.386 . S
C3007 C3011 1.393 . S
C3008 H2997 0.950 . S
C3008 C3006 1.391 . S
C3008 C3009 1.400 . S
C3009 C3003 1.491 . S
C3009 C3008 1.400 . S
C3009 C3010 1.398 . S
C3010 H2998 0.950 . S
C3010 C3009 1.398 . S
C3010 C3011 1.391 . S
C3011 H2999 0.950 . S
C3011 C3007 1.393 . S
C3011 C3010 1.391 . S
H3012 C3020 0.950 . S
H3013 C3025 0.950 . S
H3014 C3022 0.950 . S
H3015 C3024 0.950 . S
H3016 C3026 0.950 . S
H3017 C3028 0.950 . S
H3018 C3030 0.950 . S
H3019 C3031 0.950 . S
C3020 H3012 0.950 . S
C3020 C3021 1.386 . S
C3020 C3022 1.391 . S
C3021 C3020 1.386 . S
C3021 C3025 1.393 . S
C3022 H3014 0.950 . S
C3022 C3020 1.391 . S
C3022 C3023 1.400 . S
C3023 C3022 1.400 . S
C3023 C3024 1.398 . S
C3023 C3029 1.491 . S
C3024 H3015 0.950 . S
C3024 C3023 1.398 . S
C3024 C3025 1.391 . S
C3025 H3013 0.950 . S
C3025 C3021 1.393 . S
C3025 C3024 1.391 . S
C3026 H3016 0.950 . S
C3026 C3027 1.386 . S
C3026 C3028 1.391 . S
C3027 C3026 1.386 . S
C3027 C3031 1.393 . S
C3028 H3017 0.950 . S
C3028 C3026 1.391 . S
C3028 C3029 1.400 . S
C3029 C3023 1.491 . S
C3029 C3028 1.400 . S
C3029 C3030 1.398 . S
C3030 H3018 0.950 . S
C3030 C3029 1.398 . S
C3030 C3031 1.391 . S
C3031 H3019 0.950 . S
C3031 C3027 1.393 . S
C3031 C3030 1.391 . S
H3032 C3040 0.950 . S
H3033 C3045 0.950 . S
H3034 C3042 0.950 . S
H3035 C3044 0.950 . S
H3036 C3046 0.950 . S
H3037 C3048 0.950 . S
H3038 C3050 0.950 . S
H3039 C3051 0.950 . S
C3040 H3032 0.950 . S
C3040 C3041 1.386 . S
C3040 C3042 1.391 . S
C3041 C3040 1.386 . S
C3041 C3045 1.393 . S
C3042 H3034 0.950 . S
C3042 C3040 1.391 . S
C3042 C3043 1.400 . S
C3043 C3042 1.400 . S
C3043 C3044 1.398 . S
C3043 C3049 1.491 . S
C3044 H3035 0.950 . S
C3044 C3043 1.398 . S
C3044 C3045 1.391 . S
C3045 H3033 0.950 . S
C3045 C3041 1.393 . S
C3045 C3044 1.391 . S
C3046 H3036 0.950 . S
C3046 C3047 1.386 . S
C3046 C3048 1.391 . S
C3047 C3046 1.386 . S
C3047 C3051 1.393 . S
C3048 H3037 0.950 . S
C3048 C3046 1.391 . S
C3048 C3049 1.400 . S
C3049 C3043 1.491 . S
C3049 C3048 1.400 . S
C3049 C3050 1.398 . S
C3050 H3038 0.950 . S
C3050 C3049 1.398 . S
C3050 C3051 1.391 . S
C3051 H3039 0.950 . S
C3051 C3047 1.393 . S
C3051 C3050 1.391 . S
H3052 C3060 0.950 . S
H3053 C3065 0.950 . S
H3054 C3062 0.950 . S
H3055 C3064 0.950 . S
H3056 C3066 0.950 . S
H3057 C3068 0.950 . S
H3058 C3070 0.950 . S
H3059 C3071 0.950 . S
C3060 H3052 0.950 . S
C3060 C3061 1.386 . S
C3060 C3062 1.391 . S
C3061 C3060 1.386 . S
C3061 C3065 1.393 . S
C3062 H3054 0.950 . S
C3062 C3060 1.391 . S
C3062 C3063 1.400 . S
C3063 C3062 1.400 . S
C3063 C3064 1.398 . S
C3063 C3069 1.491 . S
C3064 H3055 0.950 . S
C3064 C3063 1.398 . S
C3064 C3065 1.391 . S
C3065 H3053 0.950 . S
C3065 C3061 1.393 . S
C3065 C3064 1.391 . S
C3066 H3056 0.950 . S
C3066 C3067 1.386 . S
C3066 C3068 1.391 . S
C3067 C3066 1.386 . S
C3067 C3071 1.393 . S
C3068 H3057 0.950 . S
C3068 C3066 1.391 . S
C3068 C3069 1.400 . S
C3069 C3063 1.491 . S
C3069 C3068 1.400 . S
C3069 C3070 1.398 . S
C3070 H3058 0.950 . S
C3070 C3069 1.398 . S
C3070 C3071 1.391 . S
C3071 H3059 0.950 . S
C3071 C3067 1.393 . S
C3071 C3070 1.391 . S
H3072 C3080 0.950 . S
H3073 C3085 0.950 . S
H3074 C3082 0.950 . S
H3075 C3084 0.950 . S
H3076 C3086 0.950 . S
H3077 C3088 0.950 . S
H3078 C3090 0.950 . S
H3079 C3091 0.950 . S
C3080 H3072 0.950 . S
C3080 C3081 1.386 . S
C3080 C3082 1.391 . S
C3081 C3080 1.386 . S
C3081 C3085 1.393 . S
C3082 H3074 0.950 . S
C3082 C3080 1.391 . S
C3082 C3083 1.400 . S
C3083 C3082 1.400 . S
C3083 C3084 1.398 . S
C3083 C3089 1.491 . S
C3084 H3075 0.950 . S
C3084 C3083 1.398 . S
C3084 C3085 1.391 . S
C3085 H3073 0.950 . S
C3085 C3081 1.393 . S
C3085 C3084 1.391 . S
C3086 H3076 0.950 . S
C3086 C3087 1.386 . S
C3086 C3088 1.391 . S
C3087 C3086 1.386 . S
C3087 C3091 1.393 . S
C3088 H3077 0.950 . S
C3088 C3086 1.391 . S
C3088 C3089 1.400 . S
C3089 C3083 1.491 . S
C3089 C3088 1.400 . S
C3089 C3090 1.398 . S
C3090 H3078 0.950 . S
C3090 C3089 1.398 . S
C3090 C3091 1.391 . S
C3091 H3079 0.950 . S
C3091 C3087 1.393 . S
C3091 C3090 1.391 . S
H3092 C3100 0.950 . S
H3093 C3105 0.950 . S
H3094 C3102 0.950 . S
H3095 C3104 0.950 . S
H3096 C3106 0.950 . S
H3097 C3108 0.950 . S
H3098 C3110 0.950 . S
H3099 C3111 0.950 . S
C3100 H3092 0.950 . S
C3100 C3101 1.386 . S
C3100 C3102 1.391 . S
C3101 C3100 1.386 . S
C3101 C3105 1.393 . S
C3102 H3094 0.950 . S
C3102 C3100 1.391 . S
C3102 C3103 1.400 . S
C3103 C3102 1.400 . S
C3103 C3104 1.398 . S
C3103 C3109 1.491 . S
C3104 H3095 0.950 . S
C3104 C3103 1.398 . S
C3104 C3105 1.391 . S
C3105 H3093 0.950 . S
C3105 C3101 1.393 . S
C3105 C3104 1.391 . S
C3106 H3096 0.950 . S
C3106 C3107 1.386 . S
C3106 C3108 1.391 . S
C3107 C3106 1.386 . S
C3107 C3111 1.393 . S
C3108 H3097 0.950 . S
C3108 C3106 1.391 . S
C3108 C3109 1.400 . S
C3109 C3103 1.491 . S
C3109 C3108 1.400 . S
C3109 C3110 1.398 . S
C3110 H3098 0.950 . S
C3110 C3109 1.398 . S
C3110 C3111 1.391 . S
C3111 H3099 0.950 . S
C3111 C3107 1.393 . S
C3111 C3110 1.391 . S
H3112 C3120 0.950 . S
H3113 C3125 0.950 . S
H3114 C3122 0.950 . S
H3115 C3124 0.950 . S
H3116 C3126 0.950 . S
H3117 C3128 0.950 . S
H3118 C3130 0.950 . S
H3119 C3131 0.950 . S
C3120 H3112 0.950 . S
C3120 C3121 1.386 . S
C3120 C3122 1.391 . S
C3121 C3120 1.386 . S
C3121 C3125 1.393 . S
C3122 H3114 0.950 . S
C3122 C3120 1.391 . S
C3122 C3123 1.400 . S
C3123 C3122 1.400 . S
C3123 C3124 1.398 . S
C3123 C3129 1.491 . S
C3124 H3115 0.950 . S
C3124 C3123 1.398 . S
C3124 C3125 1.391 . S
C3125 H3113 0.950 . S
C3125 C3121 1.393 . S
C3125 C3124 1.391 . S
C3126 H3116 0.950 . S
C3126 C3127 1.386 . S
C3126 C3128 1.391 . S
C3127 C3126 1.386 . S
C3127 C3131 1.393 . S
C3128 H3117 0.950 . S
C3128 C3126 1.391 . S
C3128 C3129 1.400 . S
C3129 C3123 1.491 . S
C3129 C3128 1.400 . S
C3129 C3130 1.398 . S
C3130 H3118 0.950 . S
C3130 C3129 1.398 . S
C3130 C3131 1.391 . S
C3131 H3119 0.950 . S
C3131 C3127 1.393 . S
C3131 C3130 1.391 . S
H3132 C3140 0.950 . S
H3133 C3145 0.950 . S
H3134 C3142 0.950 . S
H3135 C3144 0.950 . S
H3136 C3146 0.950 . S
H3137 C3148 0.950 . S
H3138 C3150 0.950 . S
H3139 C3151 0.950 . S
C3140 H3132 0.950 . S
C3140 C3141 1.386 . S
C3140 C3142 1.391 . S
C3141 C3140 1.386 . S
C3141 C3145 1.393 . S
C3142 H3134 0.950 . S
C3142 C3140 1.391 . S
C3142 C3143 1.400 . S
C3143 C3142 1.400 . S
C3143 C3144 1.398 . S
C3143 C3149 1.491 . S
C3144 H3135 0.950 . S
C3144 C3143 1.398 . S
C3144 C3145 1.391 . S
C3145 H3133 0.950 . S
C3145 C3141 1.393 . S
C3145 C3144 1.391 . S
C3146 H3136 0.950 . S
C3146 C3147 1.386 . S
C3146 C3148 1.391 . S
C3147 C3146 1.386 . S
C3147 C3151 1.393 . S
C3148 H3137 0.950 . S
C3148 C3146 1.391 . S
C3148 C3149 1.400 . S
C3149 C3143 1.491 . S
C3149 C3148 1.400 . S
C3149 C3150 1.398 . S
C3150 H3138 0.950 . S
C3150 C3149 1.398 . S
C3150 C3151 1.391 . S
C3151 H3139 0.950 . S
C3151 C3147 1.393 . S
C3151 C3150 1.391 . S
H3152 C3160 0.950 . S
H3153 C3165 0.950 . S
H3154 C3162 0.950 . S
H3155 C3164 0.950 . S
H3156 C3166 0.950 . S
H3157 C3168 0.950 . S
H3158 C3170 0.950 . S
H3159 C3171 0.950 . S
C3160 H3152 0.950 . S
C3160 C3161 1.386 . S
C3160 C3162 1.391 . S
C3161 C3160 1.386 . S
C3161 C3165 1.393 . S
C3162 H3154 0.950 . S
C3162 C3160 1.391 . S
C3162 C3163 1.400 . S
C3163 C3162 1.400 . S
C3163 C3164 1.398 . S
C3163 C3169 1.491 . S
C3164 H3155 0.950 . S
C3164 C3163 1.398 . S
C3164 C3165 1.391 . S
C3165 H3153 0.950 . S
C3165 C3161 1.393 . S
C3165 C3164 1.391 . S
C3166 H3156 0.950 . S
C3166 C3167 1.386 . S
C3166 C3168 1.391 . S
C3167 C3166 1.386 . S
C3167 C3171 1.393 . S
C3168 H3157 0.950 . S
C3168 C3166 1.391 . S
C3168 C3169 1.400 . S
C3169 C3163 1.491 . S
C3169 C3168 1.400 . S
C3169 C3170 1.398 . S
C3170 H3158 0.950 . S
C3170 C3169 1.398 . S
C3170 C3171 1.391 . S
C3171 H3159 0.950 . S
C3171 C3167 1.393 . S
C3171 C3170 1.391 . S
H3172 C3180 0.950 . S
H3173 C3185 0.950 . S
H3174 C3182 0.950 . S
H3175 C3184 0.950 . S
H3176 C3186 0.950 . S
H3177 C3188 0.950 . S
H3178 C3190 0.950 . S
H3179 C3191 0.950 . S
C3180 H3172 0.950 . S
C3180 C3181 1.386 . S
C3180 C3182 1.391 . S
C3181 C3180 1.386 . S
C3181 C3185 1.393 . S
C3182 H3174 0.950 . S
C3182 C3180 1.391 . S
C3182 C3183 1.400 . S
C3183 C3182 1.400 . S
C3183 C3184 1.398 . S
C3183 C3189 1.491 . S
C3184 H3175 0.950 . S
C3184 C3183 1.398 . S
C3184 C3185 1.391 . S
C3185 H3173 0.950 . S
C3185 C3181 1.393 . S
C3185 C3184 1.391 . S
C3186 H3176 0.950 . S
C3186 C3187 1.386 . S
C3186 C3188 1.391 . S
C3187 C3186 1.386 . S
C3187 C3191 1.393 . S
C3188 H3177 0.950 . S
C3188 C3186 1.391 . S
C3188 C3189 1.400 . S
C3189 C3183 1.491 . S
C3189 C3188 1.400 . S
C3189 C3190 1.398 . S
C3190 H3178 0.950 . S
C3190 C3189 1.398 . S
C3190 C3191 1.391 . S
C3191 H3179 0.950 . S
C3191 C3187 1.393 . S
C3191 C3190 1.391 . S
H3192 C3200 0.950 . S
H3193 C3205 0.950 . S
H3194 C3202 0.950 . S
H3195 C3204 0.950 . S
H3196 C3206 0.950 . S
H3197 C3208 0.950 . S
H3198 C3210 0.950 . S
H3199 C3211 0.950 . S
C3200 H3192 0.950 . S
C3200 C3201 1.386 . S
C3200 C3202 1.391 . S
C3201 C3200 1.386 . S
C3201 C3205 1.393 . S
C3202 H3194 0.950 . S
C3202 C3200 1.391 . S
C3202 C3203 1.400 . S
C3203 C3202 1.400 . S
C3203 C3204 1.398 . S
C3203 C3209 1.491 . S
C3204 H3195 0.950 . S
C3204 C3203 1.398 . S
C3204 C3205 1.391 . S
C3205 H3193 0.950 . S
C3205 C3201 1.393 . S
C3205 C3204 1.391 . S
C3206 H3196 0.950 . S
C3206 C3207 1.386 . S
C3206 C3208 1.391 . S
C3207 C3206 1.386 . S
C3207 C3211 1.393 . S
C3208 H3197 0.950 . S
C3208 C3206 1.391 . S
C3208 C3209 1.400 . S
C3209 C3203 1.491 . S
C3209 C3208 1.400 . S
C3209 C3210 1.398 . S
C3210 H3198 0.950 . S
C3210 C3209 1.398 . S
C3210 C3211 1.391 . S
C3211 H3199 0.950 . S
C3211 C3207 1.393 . S
C3211 C3210 1.391 . S
H3212 C3220 0.950 . S
H3213 C3225 0.950 . S
H3214 C3222 0.950 . S
H3215 C3224 0.950 . S
H3216 C3226 0.950 . S
H3217 C3228 0.950 . S
H3218 C3230 0.950 . S
H3219 C3231 0.950 . S
C3220 H3212 0.950 . S
C3220 C3221 1.386 . S
C3220 C3222 1.391 . S
C3221 C3220 1.386 . S
C3221 C3225 1.393 . S
C3222 H3214 0.950 . S
C3222 C3220 1.391 . S
C3222 C3223 1.400 . S
C3223 C3222 1.400 . S
C3223 C3224 1.398 . S
C3223 C3229 1.491 . S
C3224 H3215 0.950 . S
C3224 C3223 1.398 . S
C3224 C3225 1.391 . S
C3225 H3213 0.950 . S
C3225 C3221 1.393 . S
C3225 C3224 1.391 . S
C3226 H3216 0.950 . S
C3226 C3227 1.386 . S
C3226 C3228 1.391 . S
C3227 C3226 1.386 . S
C3227 C3231 1.393 . S
C3228 H3217 0.950 . S
C3228 C3226 1.391 . S
C3228 C3229 1.400 . S
C3229 C3223 1.491 . S
C3229 C3228 1.400 . S
C3229 C3230 1.398 . S
C3230 H3218 0.950 . S
C3230 C3229 1.398 . S
C3230 C3231 1.391 . S
C3231 H3219 0.950 . S
C3231 C3227 1.393 . S
C3231 C3230 1.391 . S
H3232 C3240 0.950 . S
H3233 C3245 0.950 . S
H3234 C3242 0.950 . S
H3235 C3244 0.950 . S
H3236 C3246 0.950 . S
H3237 C3248 0.950 . S
H3238 C3250 0.950 . S
H3239 C3251 0.950 . S
C3240 H3232 0.950 . S
C3240 C3241 1.386 . S
C3240 C3242 1.391 . S
C3241 C3240 1.386 . S
C3241 C3245 1.393 . S
C3242 H3234 0.950 . S
C3242 C3240 1.391 . S
C3242 C3243 1.400 . S
C3243 C3242 1.400 . S
C3243 C3244 1.398 . S
C3243 C3249 1.491 . S
C3244 H3235 0.950 . S
C3244 C3243 1.398 . S
C3244 C3245 1.391 . S
C3245 H3233 0.950 . S
C3245 C3241 1.393 . S
C3245 C3244 1.391 . S
C3246 H3236 0.950 . S
C3246 C3247 1.386 . S
C3246 C3248 1.391 . S
C3247 C3246 1.386 . S
C3247 C3251 1.393 . S
C3248 H3237 0.950 . S
C3248 C3246 1.391 . S
C3248 C3249 1.400 . S
C3249 C3243 1.491 . S
C3249 C3248 1.400 . S
C3249 C3250 1.398 . S
C3250 H3238 0.950 . S
C3250 C3249 1.398 . S
C3250 C3251 1.391 . S
C3251 H3239 0.950 . S
C3251 C3247 1.393 . S
C3251 C3250 1.391 . S
H3252 C3260 0.950 . S
H3253 C3265 0.950 . S
H3254 C3262 0.950 . S
H3255 C3264 0.950 . S
H3256 C3266 0.950 . S
H3257 C3268 0.950 . S
H3258 C3270 0.950 . S
H3259 C3271 0.950 . S
C3260 H3252 0.950 . S
C3260 C3261 1.386 . S
C3260 C3262 1.391 . S
C3261 C3260 1.386 . S
C3261 C3265 1.393 . S
C3262 H3254 0.950 . S
C3262 C3260 1.391 . S
C3262 C3263 1.400 . S
C3263 C3262 1.400 . S
C3263 C3264 1.398 . S
C3263 C3269 1.491 . S
C3264 H3255 0.950 . S
C3264 C3263 1.398 . S
C3264 C3265 1.391 . S
C3265 H3253 0.950 . S
C3265 C3261 1.393 . S
C3265 C3264 1.391 . S
C3266 H3256 0.950 . S
C3266 C3267 1.386 . S
C3266 C3268 1.391 . S
C3267 C3266 1.386 . S
C3267 C3271 1.393 . S
C3268 H3257 0.950 . S
C3268 C3266 1.391 . S
C3268 C3269 1.400 . S
C3269 C3263 1.491 . S
C3269 C3268 1.400 . S
C3269 C3270 1.398 . S
C3270 H3258 0.950 . S
C3270 C3269 1.398 . S
C3270 C3271 1.391 . S
C3271 H3259 0.950 . S
C3271 C3267 1.393 . S
C3271 C3270 1.391 . S
H3272 C3280 0.950 . S
H3273 C3285 0.950 . S
H3274 C3282 0.950 . S
H3275 C3284 0.950 . S
H3276 C3286 0.950 . S
H3277 C3288 0.950 . S
H3278 C3290 0.950 . S
H3279 C3291 0.950 . S
C3280 H3272 0.950 . S
C3280 C3281 1.386 . S
C3280 C3282 1.391 . S
C3281 C3280 1.386 . S
C3281 C3285 1.393 . S
C3282 H3274 0.950 . S
C3282 C3280 1.391 . S
C3282 C3283 1.400 . S
C3283 C3282 1.400 . S
C3283 C3284 1.398 . S
C3283 C3289 1.491 . S
C3284 H3275 0.950 . S
C3284 C3283 1.398 . S
C3284 C3285 1.391 . S
C3285 H3273 0.950 . S
C3285 C3281 1.393 . S
C3285 C3284 1.391 . S
C3286 H3276 0.950 . S
C3286 C3287 1.386 . S
C3286 C3288 1.391 . S
C3287 C3286 1.386 . S
C3287 C3291 1.393 . S
C3288 H3277 0.950 . S
C3288 C3286 1.391 . S
C3288 C3289 1.400 . S
C3289 C3283 1.491 . S
C3289 C3288 1.400 . S
C3289 C3290 1.398 . S
C3290 H3278 0.950 . S
C3290 C3289 1.398 . S
C3290 C3291 1.391 . S
C3291 H3279 0.950 . S
C3291 C3287 1.393 . S
C3291 C3290 1.391 . S
H3292 C3300 0.950 . S
H3293 C3305 0.950 . S
H3294 C3302 0.950 . S
H3295 C3304 0.950 . S
H3296 C3306 0.950 . S
H3297 C3308 0.950 . S
H3298 C3310 0.950 . S
H3299 C3311 0.950 . S
C3300 H3292 0.950 . S
C3300 C3301 1.386 . S
C3300 C3302 1.391 . S
C3301 C3300 1.386 . S
C3301 C3305 1.393 . S
C3302 H3294 0.950 . S
C3302 C3300 1.391 . S
C3302 C3303 1.400 . S
C3303 C3302 1.400 . S
C3303 C3304 1.398 . S
C3303 C3309 1.491 . S
C3304 H3295 0.950 . S
C3304 C3303 1.398 . S
C3304 C3305 1.391 . S
C3305 H3293 0.950 . S
C3305 C3301 1.393 . S
C3305 C3304 1.391 . S
C3306 H3296 0.950 . S
C3306 C3307 1.386 . S
C3306 C3308 1.391 . S
C3307 C3306 1.386 . S
C3307 C3311 1.393 . S
C3308 H3297 0.950 . S
C3308 C3306 1.391 . S
C3308 C3309 1.400 . S
C3309 C3303 1.491 . S
C3309 C3308 1.400 . S
C3309 C3310 1.398 . S
C3310 H3298 0.950 . S
C3310 C3309 1.398 . S
C3310 C3311 1.391 . S
C3311 H3299 0.950 . S
C3311 C3307 1.393 . S
C3311 C3310 1.391 . S
H3312 C3320 0.950 . S
H3313 C3325 0.950 . S
H3314 C3322 0.950 . S
H3315 C3324 0.950 . S
H3316 C3326 0.950 . S
H3317 C3328 0.950 . S
H3318 C3330 0.950 . S
H3319 C3331 0.950 . S
C3320 H3312 0.950 . S
C3320 C3321 1.386 . S
C3320 C3322 1.391 . S
C3321 C3320 1.386 . S
C3321 C3325 1.393 . S
C3322 H3314 0.950 . S
C3322 C3320 1.391 . S
C3322 C3323 1.400 . S
C3323 C3322 1.400 . S
C3323 C3324 1.398 . S
C3323 C3329 1.491 . S
C3324 H3315 0.950 . S
C3324 C3323 1.398 . S
C3324 C3325 1.391 . S
C3325 H3313 0.950 . S
C3325 C3321 1.393 . S
C3325 C3324 1.391 . S
C3326 H3316 0.950 . S
C3326 C3327 1.386 . S
C3326 C3328 1.391 . S
C3327 C3326 1.386 . S
C3327 C3331 1.393 . S
C3328 H3317 0.950 . S
C3328 C3326 1.391 . S
C3328 C3329 1.400 . S
C3329 C3323 1.491 . S
C3329 C3328 1.400 . S
C3329 C3330 1.398 . S
C3330 H3318 0.950 . S
C3330 C3329 1.398 . S
C3330 C3331 1.391 . S
C3331 H3319 0.950 . S
C3331 C3327 1.393 . S
C3331 C3330 1.391 . S
H3332 C3340 0.950 . S
H3333 C3345 0.950 . S
H3334 C3342 0.950 . S
H3335 C3344 0.950 . S
H3336 C3346 0.950 . S
H3337 C3348 0.950 . S
H3338 C3350 0.950 . S
H3339 C3351 0.950 . S
C3340 H3332 0.950 . S
C3340 C3341 1.386 . S
C3340 C3342 1.391 . S
C3341 C3340 1.386 . S
C3341 C3345 1.393 . S
C3342 H3334 0.950 . S
C3342 C3340 1.391 . S
C3342 C3343 1.400 . S
C3343 C3342 1.400 . S
C3343 C3344 1.398 . S
C3343 C3349 1.491 . S
C3344 H3335 0.950 . S
C3344 C3343 1.398 . S
C3344 C3345 1.391 . S
C3345 H3333 0.950 . S
C3345 C3341 1.393 . S
C3345 C3344 1.391 . S
C3346 H3336 0.950 . S
C3346 C3347 1.386 . S
C3346 C3348 1.391 . S
C3347 C3346 1.386 . S
C3347 C3351 1.393 . S
C3348 H3337 0.950 . S
C3348 C3346 1.391 . S
C3348 C3349 1.400 . S
C3349 C3343 1.491 . S
C3349 C3348 1.400 . S
C3349 C3350 1.398 . S
C3350 H3338 0.950 . S
C3350 C3349 1.398 . S
C3350 C3351 1.391 . S
C3351 H3339 0.950 . S
C3351 C3347 1.393 . S
C3351 C3350 1.391 . S
H3352 C3360 0.950 . S
H3353 C3365 0.950 . S
H3354 C3362 0.950 . S
H3355 C3364 0.950 . S
H3356 C3366 0.950 . S
H3357 C3368 0.950 . S
H3358 C3370 0.950 . S
H3359 C3371 0.950 . S
C3360 H3352 0.950 . S
C3360 C3361 1.386 . S
C3360 C3362 1.391 . S
C3361 C3360 1.386 . S
C3361 C3365 1.393 . S
C3362 H3354 0.950 . S
C3362 C3360 1.391 . S
C3362 C3363 1.400 . S
C3363 C3362 1.400 . S
C3363 C3364 1.398 . S
C3363 C3369 1.491 . S
C3364 H3355 0.950 . S
C3364 C3363 1.398 . S
C3364 C3365 1.391 . S
C3365 H3353 0.950 . S
C3365 C3361 1.393 . S
C3365 C3364 1.391 . S
C3366 H3356 0.950 . S
C3366 C3367 1.386 . S
C3366 C3368 1.391 . S
C3367 C3366 1.386 . S
C3367 C3371 1.393 . S
C3368 H3357 0.950 . S
C3368 C3366 1.391 . S
C3368 C3369 1.400 . S
C3369 C3363 1.491 . S
C3369 C3368 1.400 . S
C3369 C3370 1.398 . S
C3370 H3358 0.950 . S
C3370 C3369 1.398 . S
C3370 C3371 1.391 . S
C3371 H3359 0.950 . S
C3371 C3367 1.393 . S
C3371 C3370 1.391 . S
H3372 C3380 0.950 . S
H3373 C3385 0.950 . S
H3374 C3382 0.950 . S
H3375 C3384 0.950 . S
H3376 C3386 0.950 . S
H3377 C3388 0.950 . S
H3378 C3390 0.950 . S
H3379 C3391 0.950 . S
C3380 H3372 0.950 . S
C3380 C3381 1.386 . S
C3380 C3382 1.391 . S
C3381 C3380 1.386 . S
C3381 C3385 1.393 . S
C3382 H3374 0.950 . S
C3382 C3380 1.391 . S
C3382 C3383 1.400 . S
C3383 C3382 1.400 . S
C3383 C3384 1.398 . S
C3383 C3389 1.491 . S
C3384 H3375 0.950 . S
C3384 C3383 1.398 . S
C3384 C3385 1.391 . S
C3385 H3373 0.950 . S
C3385 C3381 1.393 . S
C3385 C3384 1.391 . S
C3386 H3376 0.950 . S
C3386 C3387 1.386 . S
C3386 C3388 1.391 . S
C3387 C3386 1.386 . S
C3387 C3391 1.393 . S
C3388 H3377 0.950 . S
C3388 C3386 1.391 . S
C3388 C3389 1.400 . S
C3389 C3383 1.491 . S
C3389 C3388 1.400 . S
C3389 C3390 1.398 . S
C3390 H3378 0.950 . S
C3390 C3389 1.398 . S
C3390 C3391 1.391 . S
C3391 H3379 0.950 . S
C3391 C3387 1.393 . S
C3391 C3390 1.391 . S
H3392 C3400 0.950 . S
H3393 C3405 0.950 . S
H3394 C3402 0.950 . S
H3395 C3404 0.950 . S
H3396 C3406 0.950 . S
H3397 C3408 0.950 . S
H3398 C3410 0.950 . S
H3399 C3411 0.950 . S
C3400 H3392 0.950 . S
C3400 C3401 1.386 . S
C3400 C3402 1.391 . S
C3401 C3400 1.386 . S
C3401 C3405 1.393 . S
C3402 H3394 0.950 . S
C3402 C3400 1.391 . S
C3402 C3403 1.400 . S
C3403 C3402 1.400 . S
C3403 C3404 1.398 . S
C3403 C3409 1.491 . S
C3404 H3395 0.950 . S
C3404 C3403 1.398 . S
C3404 C3405 1.391 . S
C3405 H3393 0.950 . S
C3405 C3401 1.393 . S
C3405 C3404 1.391 . S
C3406 H3396 0.950 . S
C3406 C3407 1.386 . S
C3406 C3408 1.391 . S
C3407 C3406 1.386 . S
C3407 C3411 1.393 . S
C3408 H3397 0.950 . S
C3408 C3406 1.391 . S
C3408 C3409 1.400 . S
C3409 C3403 1.491 . S
C3409 C3408 1.400 . S
C3409 C3410 1.398 . S
C3410 H3398 0.950 . S
C3410 C3409 1.398 . S
C3410 C3411 1.391 . S
C3411 H3399 0.950 . S
C3411 C3407 1.393 . S
C3411 C3410 1.391 . S
H3412 C3420 0.950 . S
H3413 C3425 0.950 . S
H3414 C3422 0.950 . S
H3415 C3424 0.950 . S
H3416 C3426 0.950 . S
H3417 C3428 0.950 . S
H3418 C3430 0.950 . S
H3419 C3431 0.950 . S
C3420 H3412 0.950 . S
C3420 C3421 1.386 . S
C3420 C3422 1.391 . S
C3421 C3420 1.386 . S
C3421 C3425 1.393 . S
C3422 H3414 0.950 . S
C3422 C3420 1.391 . S
C3422 C3423 1.400 . S
C3423 C3422 1.400 . S
C3423 C3424 1.398 . S
C3423 C3429 1.491 . S
C3424 H3415 0.950 . S
C3424 C3423 1.398 . S
C3424 C3425 1.391 . S
C3425 H3413 0.950 . S
C3425 C3421 1.393 . S
C3425 C3424 1.391 . S
C3426 H3416 0.950 . S
C3426 C3427 1.386 . S
C3426 C3428 1.391 . S
C3427 C3426 1.386 . S
C3427 C3431 1.393 . S
C3428 H3417 0.950 . S
C3428 C3426 1.391 . S
C3428 C3429 1.400 . S
C3429 C3423 1.491 . S
C3429 C3428 1.400 . S
C3429 C3430 1.398 . S
C3430 H3418 0.950 . S
C3430 C3429 1.398 . S
C3430 C3431 1.391 . S
C3431 H3419 0.950 . S
C3431 C3427 1.393 . S
C3431 C3430 1.391 . S
H3432 C3440 0.950 . S
H3433 C3445 0.950 . S
H3434 C3442 0.950 . S
H3435 C3444 0.950 . S
H3436 C3446 0.950 . S
H3437 C3448 0.950 . S
H3438 C3450 0.950 . S
H3439 C3451 0.950 . S
C3440 H3432 0.950 . S
C3440 C3441 1.386 . S
C3440 C3442 1.391 . S
C3441 C3440 1.386 . S
C3441 C3445 1.393 . S
C3442 H3434 0.950 . S
C3442 C3440 1.391 . S
C3442 C3443 1.400 . S
C3443 C3442 1.400 . S
C3443 C3444 1.398 . S
C3443 C3449 1.491 . S
C3444 H3435 0.950 . S
C3444 C3443 1.398 . S
C3444 C3445 1.391 . S
C3445 H3433 0.950 . S
C3445 C3441 1.393 . S
C3445 C3444 1.391 . S
C3446 H3436 0.950 . S
C3446 C3447 1.386 . S
C3446 C3448 1.391 . S
C3447 C3446 1.386 . S
C3447 C3451 1.393 . S
C3448 H3437 0.950 . S
C3448 C3446 1.391 . S
C3448 C3449 1.400 . S
C3449 C3443 1.491 . S
C3449 C3448 1.400 . S
C3449 C3450 1.398 . S
C3450 H3438 0.950 . S
C3450 C3449 1.398 . S
C3450 C3451 1.391 . S
C3451 H3439 0.950 . S
C3451 C3447 1.393 . S
C3451 C3450 1.391 . S
H3452 C3460 0.950 . S
H3453 C3465 0.950 . S
H3454 C3462 0.950 . S
H3455 C3464 0.950 . S
H3456 C3466 0.950 . S
H3457 C3468 0.950 . S
H3458 C3470 0.950 . S
H3459 C3471 0.950 . S
C3460 H3452 0.950 . S
C3460 C3461 1.386 . S
C3460 C3462 1.391 . S
C3461 C3460 1.386 . S
C3461 C3465 1.393 . S
C3462 H3454 0.950 . S
C3462 C3460 1.391 . S
C3462 C3463 1.400 . S
C3463 C3462 1.400 . S
C3463 C3464 1.398 . S
C3463 C3469 1.491 . S
C3464 H3455 0.950 . S
C3464 C3463 1.398 . S
C3464 C3465 1.391 . S
C3465 H3453 0.950 . S
C3465 C3461 1.393 . S
C3465 C3464 1.391 . S
C3466 H3456 0.950 . S
C3466 C3467 1.386 . S
C3466 C3468 1.391 . S
C3467 C3466 1.386 . S
C3467 C3471 1.393 . S
C3468 H3457 0.950 . S
C3468 C3466 1.391 . S
C3468 C3469 1.400 . S
C3469 C3463 1.491 . S
C3469 C3468 1.400 . S
C3469 C3470 1.398 . S
C3470 H3458 0.950 . S
C3470 C3469 1.398 . S
C3470 C3471 1.391 . S
C3471 H3459 0.950 . S
C3471 C3467 1.393 . S
C3471 C3470 1.391 . S
H3472 C3480 0.950 . S
H3473 C3485 0.950 . S
H3474 C3482 0.950 . S
H3475 C3484 0.950 . S
H3476 C3486 0.950 . S
H3477 C3488 0.950 . S
H3478 C3490 0.950 . S
H3479 C3491 0.950 . S
C3480 H3472 0.950 . S
C3480 C3481 1.386 . S
C3480 C3482 1.391 . S
C3481 C3480 1.386 . S
C3481 C3485 1.393 . S
C3482 H3474 0.950 . S
C3482 C3480 1.391 . S
C3482 C3483 1.400 . S
C3483 C3482 1.400 . S
C3483 C3484 1.398 . S
C3483 C3489 1.491 . S
C3484 H3475 0.950 . S
C3484 C3483 1.398 . S
C3484 C3485 1.391 . S
C3485 H3473 0.950 . S
C3485 C3481 1.393 . S
C3485 C3484 1.391 . S
C3486 H3476 0.950 . S
C3486 C3487 1.386 . S
C3486 C3488 1.391 . S
C3487 C3486 1.386 . S
C3487 C3491 1.393 . S
C3488 H3477 0.950 . S
C3488 C3486 1.391 . S
C3488 C3489 1.400 . S
C3489 C3483 1.491 . S
C3489 C3488 1.400 . S
C3489 C3490 1.398 . S
C3490 H3478 0.950 . S
C3490 C3489 1.398 . S
C3490 C3491 1.391 . S
C3491 H3479 0.950 . S
C3491 C3487 1.393 . S
C3491 C3490 1.391 . S
H3492 C3500 0.950 . S
H3493 C3505 0.950 . S
H3494 C3502 0.950 . S
H3495 C3504 0.950 . S
H3496 C3506 0.950 . S
H3497 C3508 0.950 . S
H3498 C3510 0.950 . S
H3499 C3511 0.950 . S
C3500 H3492 0.950 . S
C3500 C3501 1.386 . S
C3500 C3502 1.391 . S
C3501 C3500 1.386 . S
C3501 C3505 1.393 . S
C3502 H3494 0.950 . S
C3502 C3500 1.391 . S
C3502 C3503 1.400 . S
C3503 C3502 1.400 . S
C3503 C3504 1.398 . S
C3503 C3509 1.491 . S
C3504 H3495 0.950 . S
C3504 C3503 1.398 . S
C3504 C3505 1.391 . S
C3505 H3493 0.950 . S
C3505 C3501 1.393 . S
C3505 C3504 1.391 . S
C3506 H3496 0.950 . S
C3506 C3507 1.386 . S
C3506 C3508 1.391 . S
C3507 C3506 1.386 . S
C3507 C3511 1.393 . S
C3508 H3497 0.950 . S
C3508 C3506 1.391 . S
C3508 C3509 1.400 . S
C3509 C3503 1.491 . S
C3509 C3508 1.400 . S
C3509 C3510 1.398 . S
C3510 H3498 0.950 . S
C3510 C3509 1.398 . S
C3510 C3511 1.391 . S
C3511 H3499 0.950 . S
C3511 C3507 1.393 . S
C3511 C3510 1.391 . S
H3512 C3520 0.950 . S
H3513 C3525 0.950 . S
H3514 C3522 0.950 . S
H3515 C3524 0.950 . S
H3516 C3526 0.950 . S
H3517 C3528 0.950 . S
H3518 C3530 0.950 . S
H3519 C3531 0.950 . S
C3520 H3512 0.950 . S
C3520 C3521 1.386 . S
C3520 C3522 1.391 . S
C3521 C3520 1.386 . S
C3521 C3525 1.393 . S
C3522 H3514 0.950 . S
C3522 C3520 1.391 . S
C3522 C3523 1.400 . S
C3523 C3522 1.400 . S
C3523 C3524 1.398 . S
C3523 C3529 1.491 . S
C3524 H3515 0.950 . S
C3524 C3523 1.398 . S
C3524 C3525 1.391 . S
C3525 H3513 0.950 . S
C3525 C3521 1.393 . S
C3525 C3524 1.391 . S
C3526 H3516 0.950 . S
C3526 C3527 1.386 . S
C3526 C3528 1.391 . S
C3527 C3526 1.386 . S
C3527 C3531 1.393 . S
C3528 H3517 0.950 . S
C3528 C3526 1.391 . S
C3528 C3529 1.400 . S
C3529 C3523 1.491 . S
C3529 C3528 1.400 . S
C3529 C3530 1.398 . S
C3530 H3518 0.950 . S
C3530 C3529 1.398 . S
C3530 C3531 1.391 . S
C3531 H3519 0.950 . S
C3531 C3527 1.393 . S
C3531 C3530 1.391 . S
H3532 C3540 0.950 . S
H3533 C3545 0.950 . S
H3534 C3542 0.950 . S
H3535 C3544 0.950 . S
H3536 C3546 0.950 . S
H3537 C3548 0.950 . S
H3538 C3550 0.950 . S
H3539 C3551 0.950 . S
C3540 H3532 0.950 . S
C3540 C3541 1.386 . S
C3540 C3542 1.391 . S
C3541 C3540 1.386 . S
C3541 C3545 1.393 . S
C3542 H3534 0.950 . S
C3542 C3540 1.391 . S
C3542 C3543 1.400 . S
C3543 C3542 1.400 . S
C3543 C3544 1.398 . S
C3543 C3549 1.491 . S
C3544 H3535 0.950 . S
C3544 C3543 1.398 . S
C3544 C3545 1.391 . S
C3545 H3533 0.950 . S
C3545 C3541 1.393 . S
C3545 C3544 1.391 . S
C3546 H3536 0.950 . S
C3546 C3547 1.386 . S
C3546 C3548 1.391 . S
C3547 C3546 1.386 . S
C3547 C3551 1.393 . S
C3548 H3537 0.950 . S
C3548 C3546 1.391 . S
C3548 C3549 1.400 . S
C3549 C3543 1.491 . S
C3549 C3548 1.400 . S
C3549 C3550 1.398 . S
C3550 H3538 0.950 . S
C3550 C3549 1.398 . S
C3550 C3551 1.391 . S
C3551 H3539 0.950 . S
C3551 C3547 1.393 . S
C3551 C3550 1.391 . S
H3552 C3560 0.949 . S
H3553 C3565 0.950 . S
H3554 C3562 0.950 . S
H3555 C3564 0.950 . S
H3556 C3566 0.950 1_565 S
H3557 C3568 0.950 . S
H3558 C3570 0.950 . S
H3559 C3571 0.950 . S
C3560 H3552 0.949 . S
C3560 C3561 1.414 . S
C3560 C3562 1.391 1_565 S
C3561 C3560 1.414 . S
C3561 C3565 1.367 1_655 S
C3562 H3554 0.950 . S
C3562 C3560 1.391 1_545 S
C3562 C3563 1.420 1_545 S
C3563 C3562 1.420 1_565 S
C3563 C3564 1.381 1_655 S
C3563 C3569 1.490 1_565 S
C3564 H3555 0.950 . S
C3564 C3563 1.381 1_455 S
C3564 C3565 1.391 . S
C3565 H3553 0.950 . S
C3565 C3561 1.367 1_455 S
C3565 C3564 1.391 . S
C3566 H3556 0.950 1_545 S
C3566 C3567 1.387 . S
C3566 C3568 1.391 1_545 S
C3567 C3566 1.387 . S
C3567 C3571 1.391 1_455 S
C3568 H3557 0.950 . S
C3568 C3566 1.391 1_565 S
C3568 C3569 1.400 1_465 S
C3569 C3563 1.490 1_545 S
C3569 C3568 1.400 1_645 S
C3569 C3570 1.398 . S
C3570 H3558 0.950 . S
C3570 C3569 1.398 . S
C3570 C3571 1.391 . S
C3571 H3559 0.950 . S
C3571 C3567 1.391 1_655 S
C3571 C3570 1.391 . S
H3572 C3580 0.950 . S
H3573 C3585 0.950 . S
H3574 C3582 0.950 . S
H3575 C3584 0.950 . S
H3576 C3586 0.950 . S
H3577 C3588 0.950 . S
H3578 C3590 0.950 . S
H3579 C3591 0.950 . S
C3580 H3572 0.950 . S
C3580 C3581 1.386 . S
C3580 C3582 1.391 . S
C3581 C3580 1.386 . S
C3581 C3585 1.393 . S
C3582 H3574 0.950 . S
C3582 C3580 1.391 . S
C3582 C3583 1.400 . S
C3583 C3582 1.400 . S
C3583 C3584 1.398 . S
C3583 C3589 1.491 . S
C3584 H3575 0.950 . S
C3584 C3583 1.398 . S
C3584 C3585 1.391 . S
C3585 H3573 0.950 . S
C3585 C3581 1.393 . S
C3585 C3584 1.391 . S
C3586 H3576 0.950 . S
C3586 C3587 1.386 . S
C3586 C3588 1.391 . S
C3587 C3586 1.386 . S
C3587 C3591 1.393 . S
C3588 H3577 0.950 . S
C3588 C3586 1.391 . S
C3588 C3589 1.400 . S
C3589 C3583 1.491 . S
C3589 C3588 1.400 . S
C3589 C3590 1.398 . S
C3590 H3578 0.950 . S
C3590 C3589 1.398 . S
C3590 C3591 1.391 . S
C3591 H3579 0.950 . S
C3591 C3587 1.393 . S
C3591 C3590 1.391 . S
H3592 C3600 0.950 . S
H3593 C3605 0.950 . S
H3594 C3602 0.950 . S
H3595 C3604 0.950 . S
H3596 C3606 0.950 . S
H3597 C3608 0.950 . S
H3598 C3610 0.950 . S
H3599 C3611 0.950 . S
C3600 H3592 0.950 . S
C3600 C3601 1.386 . S
C3600 C3602 1.391 . S
C3601 C3600 1.386 . S
C3601 C3605 1.393 . S
C3602 H3594 0.950 . S
C3602 C3600 1.391 . S
C3602 C3603 1.400 . S
C3603 C3602 1.400 . S
C3603 C3604 1.398 . S
C3603 C3609 1.491 1_545 S
C3604 H3595 0.950 . S
C3604 C3603 1.398 . S
C3604 C3605 1.391 . S
C3605 H3593 0.950 . S
C3605 C3601 1.393 . S
C3605 C3604 1.391 . S
C3606 H3596 0.950 . S
C3606 C3607 1.386 . S
C3606 C3608 1.391 . S
C3607 C3606 1.386 . S
C3607 C3611 1.393 . S
C3608 H3597 0.950 . S
C3608 C3606 1.391 . S
C3608 C3609 1.400 . S
C3609 C3603 1.491 1_565 S
C3609 C3608 1.400 . S
C3609 C3610 1.398 . S
C3610 H3598 0.950 . S
C3610 C3609 1.398 . S
C3610 C3611 1.391 . S
C3611 H3599 0.950 . S
C3611 C3607 1.393 . S
C3611 C3610 1.391 . S
H3612 C3620 0.950 . S
H3613 C3625 0.950 . S
H3614 C3622 0.950 . S
H3615 C3624 0.950 . S
H3616 C3626 0.950 . S
H3617 C3628 0.950 . S
H3618 C3630 0.950 . S
H3619 C3631 0.950 . S
C3620 H3612 0.950 . S
C3620 C3621 1.386 . S
C3620 C3622 1.391 . S
C3621 C3620 1.386 . S
C3621 C3625 1.393 . S
C3622 H3614 0.950 . S
C3622 C3620 1.391 . S
C3622 C3623 1.400 . S
C3623 C3622 1.400 . S
C3623 C3624 1.398 . S
C3623 C3629 1.491 1_556 S
C3624 H3615 0.950 . S
C3624 C3623 1.398 . S
C3624 C3625 1.391 . S
C3625 H3613 0.950 . S
C3625 C3621 1.393 . S
C3625 C3624 1.391 . S
C3626 H3616 0.950 . S
C3626 C3627 1.386 . S
C3626 C3628 1.391 . S
C3627 C3626 1.386 . S
C3627 C3631 1.393 . S
C3628 H3617 0.950 . S
C3628 C3626 1.391 . S
C3628 C3629 1.400 . S
C3629 C3623 1.491 1_554 S
C3629 C3628 1.400 . S
C3629 C3630 1.398 . S
C3630 H3618 0.950 . S
C3630 C3629 1.398 . S
C3630 C3631 1.391 . S
C3631 H3619 0.950 . S
C3631 C3627 1.393 . S
C3631 C3630 1.391 . S
H3632 C3640 0.950 . S
H3633 C3645 0.950 1_554 S
H3634 C3642 0.950 . S
H3635 C3644 0.950 . S
H3636 C3646 0.950 . S
H3637 C3648 0.950 . S
H3638 C3650 0.950 . S
H3639 C3651 0.950 1_556 S
C3640 H3632 0.950 . S
C3640 C3641 1.388 . S
C3640 C3642 1.391 . S
C3641 C3640 1.388 . S
C3641 C3645 1.391 1_545 S
C3642 H3634 0.950 . S
C3642 C3640 1.391 . S
C3642 C3643 1.401 1_545 S
C3643 C3642 1.401 1_565 S
C3643 C3644 1.398 1_556 S
C3643 C3649 1.490 1_556 S
C3644 H3635 0.950 . S
C3644 C3643 1.398 1_554 S
C3644 C3645 1.391 1_554 S
C3645 H3633 0.950 1_556 S
C3645 C3641 1.391 1_565 S
C3645 C3644 1.391 1_556 S
C3646 H3636 0.950 . S
C3646 C3647 1.413 . S
C3646 C3648 1.391 . S
C3647 C3646 1.413 . S
C3647 C3651 1.368 1_565 S
C3648 H3637 0.950 . S
C3648 C3646 1.391 . S
C3648 C3649 1.419 . S
C3649 C3643 1.490 1_554 S
C3649 C3648 1.419 . S
C3649 C3650 1.382 1_564 S
C3650 H3638 0.950 . S
C3650 C3649 1.382 1_546 S
C3650 C3651 1.391 1_556 S
C3651 H3639 0.950 1_554 S
C3651 C3647 1.368 1_545 S
C3651 C3650 1.391 1_554 S
H3652 C3660 0.950 . S
H3653 C3665 0.950 . S
H3654 C3662 0.950 . S
H3655 C3664 0.950 . S
H3656 C3666 0.950 . S
H3657 C3668 0.950 . S
H3658 C3670 0.950 . S
H3659 C3671 0.950 . S
C3660 H3652 0.950 . S
C3660 C3661 1.386 . S
C3660 C3662 1.391 . S
C3661 C3660 1.386 . S
C3661 C3665 1.393 . S
C3662 H3654 0.950 . S
C3662 C3660 1.391 . S
C3662 C3663 1.400 . S
C3663 C3662 1.400 . S
C3663 C3664 1.398 . S
C3663 C3669 1.491 1_545 S
C3664 H3655 0.950 . S
C3664 C3663 1.398 . S
C3664 C3665 1.391 . S
C3665 H3653 0.950 . S
C3665 C3661 1.393 . S
C3665 C3664 1.391 . S
C3666 H3656 0.950 . S
C3666 C3667 1.386 . S
C3666 C3668 1.391 . S
C3667 C3666 1.386 . S
C3667 C3671 1.393 . S
C3668 H3657 0.950 . S
C3668 C3666 1.391 . S
C3668 C3669 1.400 . S
C3669 C3663 1.491 1_565 S
C3669 C3668 1.400 . S
C3669 C3670 1.398 . S
C3670 H3658 0.950 . S
C3670 C3669 1.398 . S
C3670 C3671 1.391 . S
C3671 H3659 0.950 . S
C3671 C3667 1.393 . S
C3671 C3670 1.391 . S
H3672 C3680 0.950 . S
H3673 C3685 0.950 . S
H3674 C3682 0.950 . S
H3675 C3684 0.950 . S
H3676 C3686 0.950 . S
H3677 C3688 0.950 . S
H3678 C3690 0.950 . S
H3679 C3691 0.950 . S
C3680 H3672 0.950 . S
C3680 C3681 1.386 . S
C3680 C3682 1.391 . S
C3681 C3680 1.386 . S
C3681 C3685 1.393 1_565 S
C3682 H3674 0.950 . S
C3682 C3680 1.391 . S
C3682 C3683 1.400 . S
C3683 C3682 1.400 . S
C3683 C3684 1.398 1_565 S
C3683 C3689 1.491 . S
C3684 H3675 0.950 . S
C3684 C3683 1.398 1_545 S
C3684 C3685 1.391 . S
C3685 H3673 0.950 . S
C3685 C3681 1.393 1_545 S
C3685 C3684 1.391 . S
C3686 H3676 0.950 . S
C3686 C3687 1.350 1_545 S
C3686 C3688 1.391 . S
C3687 C3686 1.350 1_565 S
C3687 C3691 1.429 . S
C3688 H3677 0.950 . S
C3688 C3686 1.391 . S
C3688 C3689 1.400 1_545 S
C3689 C3683 1.491 . S
C3689 C3688 1.400 1_565 S
C3689 C3690 1.398 . S
C3690 H3678 0.950 . S
C3690 C3689 1.398 . S
C3690 C3691 1.391 . S
C3691 H3679 0.950 . S
C3691 C3687 1.429 . S
C3691 C3690 1.391 . S
H3692 C3700 0.950 . S
H3693 C3705 0.950 . S
H3694 C3702 0.950 . S
H3695 C3704 0.950 . S
H3696 C3706 0.950 . S
H3697 C3708 0.950 . S
H3698 C3710 0.950 . S
H3699 C3711 0.950 . S
C3700 H3692 0.950 . S
C3700 C3701 1.386 . S
C3700 C3702 1.391 . S
C3701 C3700 1.386 . S
C3701 C3705 1.393 . S
C3702 H3694 0.950 . S
C3702 C3700 1.391 . S
C3702 C3703 1.400 . S
C3703 C3702 1.400 . S
C3703 C3704 1.398 . S
C3703 C3709 1.491 1_545 S
C3704 H3695 0.950 . S
C3704 C3703 1.398 . S
C3704 C3705 1.391 . S
C3705 H3693 0.950 . S
C3705 C3701 1.393 . S
C3705 C3704 1.391 . S
C3706 H3696 0.950 . S
C3706 C3707 1.386 . S
C3706 C3708 1.391 . S
C3707 C3706 1.386 . S
C3707 C3711 1.393 . S
C3708 H3697 0.950 . S
C3708 C3706 1.391 . S
C3708 C3709 1.400 . S
C3709 C3703 1.491 1_565 S
C3709 C3708 1.400 . S
C3709 C3710 1.398 . S
C3710 H3698 0.950 . S
C3710 C3709 1.398 . S
C3710 C3711 1.391 . S
C3711 H3699 0.950 . S
C3711 C3707 1.393 . S
C3711 C3710 1.391 . S
H3712 C3720 0.950 . S
H3713 C3725 0.922 1_655 S
H3714 C3722 0.950 . S
H3715 C3724 0.950 . S
H3716 C3726 0.950 . S
H3717 C3728 0.950 . S
H3718 C3730 0.950 . S
H3719 C3731 0.950 1_455 S
C3720 H3712 0.950 . S
C3720 C3721 1.388 . S
C3720 C3722 1.391 . S
C3721 C3720 1.388 . S
C3721 C3725 1.442 1_554 S
C3722 H3714 0.950 . S
C3722 C3720 1.391 . S
C3722 C3723 1.401 1_554 S
C3723 C3722 1.401 1_556 S
C3723 C3724 1.398 1_455 S
C3723 C3729 1.490 1_455 S
C3724 H3715 0.950 . S
C3724 C3723 1.398 1_655 S
C3724 C3725 1.370 1_655 S
C3725 H3713 0.922 1_455 S
C3725 C3721 1.442 1_556 S
C3725 C3724 1.370 1_455 S
C3726 H3716 0.950 . S
C3726 C3727 1.386 . S
C3726 C3728 1.391 . S
C3727 C3726 1.386 . S
C3727 C3731 1.393 1_556 S
C3728 H3717 0.950 . S
C3728 C3726 1.391 . S
C3728 C3729 1.408 . S
C3729 C3723 1.490 1_655 S
C3729 C3728 1.408 . S
C3729 C3730 1.394 1_656 S
C3730 H3718 0.950 . S
C3730 C3729 1.394 1_454 S
C3730 C3731 1.391 1_455 S
C3731 H3719 0.950 1_655 S
C3731 C3727 1.393 1_554 S
C3731 C3730 1.391 1_655 S
H3732 C3740 0.950 . S
H3733 C3745 0.950 . S
H3734 C3742 0.950 . S
H3735 C3744 0.950 . S
H3736 C3746 0.950 . S
H3737 C3748 0.950 . S
H3738 C3750 0.950 . S
H3739 C3751 0.950 . S
C3740 H3732 0.950 . S
C3740 C3741 1.363 1_554 S
C3740 C3742 1.391 . S
C3741 C3740 1.363 1_556 S
C3741 C3745 1.417 . S
C3742 H3734 0.950 . S
C3742 C3740 1.391 . S
C3742 C3743 1.400 1_554 S
C3743 C3742 1.400 1_556 S
C3743 C3744 1.398 . S
C3743 C3749 1.491 . S
C3744 H3735 0.950 . S
C3744 C3743 1.398 . S
C3744 C3745 1.391 . S
C3745 H3733 0.950 . S
C3745 C3741 1.417 . S
C3745 C3744 1.391 . S
C3746 H3736 0.950 . S
C3746 C3747 1.386 . S
C3746 C3748 1.391 . S
C3747 C3746 1.386 . S
C3747 C3751 1.393 1_556 S
C3748 H3737 0.950 . S
C3748 C3746 1.391 . S
C3748 C3749 1.400 . S
C3749 C3743 1.491 . S
C3749 C3748 1.400 . S
C3749 C3750 1.398 1_556 S
C3750 H3738 0.950 . S
C3750 C3749 1.398 1_554 S
C3750 C3751 1.391 . S
C3751 H3739 0.950 . S
C3751 C3747 1.393 1_554 S
C3751 C3750 1.391 . S
H3752 C3760 0.950 . S
H3753 C3765 0.950 . S
H3754 C3762 0.950 . S
H3755 C3764 0.950 . S
H3756 C3766 0.950 . S
H3757 C3768 0.950 . S
H3758 C3770 0.950 . S
H3759 C3771 0.950 . S
C3760 H3752 0.950 . S
C3760 C3761 1.386 . S
C3760 C3762 1.391 . S
C3761 C3760 1.386 . S
C3761 C3765 1.393 . S
C3762 H3754 0.950 . S
C3762 C3760 1.391 . S
C3762 C3763 1.400 . S
C3763 C3762 1.400 . S
C3763 C3764 1.398 . S
C3763 C3769 1.491 1_655 S
C3764 H3755 0.950 . S
C3764 C3763 1.398 . S
C3764 C3765 1.391 . S
C3765 H3753 0.950 . S
C3765 C3761 1.393 . S
C3765 C3764 1.391 . S
C3766 H3756 0.950 . S
C3766 C3767 1.386 . S
C3766 C3768 1.391 . S
C3767 C3766 1.386 . S
C3767 C3771 1.393 . S
C3768 H3757 0.950 . S
C3768 C3766 1.391 . S
C3768 C3769 1.400 . S
C3769 C3763 1.491 1_455 S
C3769 C3768 1.400 . S
C3769 C3770 1.398 . S
C3770 H3758 0.950 . S
C3770 C3769 1.398 . S
C3770 C3771 1.391 . S
C3771 H3759 0.950 . S
C3771 C3767 1.393 . S
C3771 C3770 1.391 . S
H3772 C3780 0.950 1_655 S
H3773 C3785 0.950 . S
H3774 C3782 0.950 . S
H3775 C3784 0.950 . S
H3776 C3786 0.950 1_455 S
H3777 C3788 0.950 . S
H3778 C3790 0.950 . S
H3779 C3791 0.950 . S
C3780 H3772 0.950 1_455 S
C3780 C3781 1.386 . S
C3780 C3782 1.391 1_455 S
C3781 C3780 1.386 . S
C3781 C3785 1.393 . S
C3782 H3774 0.950 . S
C3782 C3780 1.391 1_655 S
C3782 C3783 1.400 1_655 S
C3783 C3782 1.400 1_455 S
C3783 C3784 1.398 . S
C3783 C3789 1.491 1_455 S
C3784 H3775 0.950 . S
C3784 C3783 1.398 . S
C3784 C3785 1.391 . S
C3785 H3773 0.950 . S
C3785 C3781 1.393 . S
C3785 C3784 1.391 . S
C3786 H3776 0.950 1_655 S
C3786 C3787 1.386 . S
C3786 C3788 1.391 1_655 S
C3787 C3786 1.386 . S
C3787 C3791 1.393 . S
C3788 H3777 0.950 . S
C3788 C3786 1.391 1_455 S
C3788 C3789 1.400 1_455 S
C3789 C3783 1.491 1_655 S
C3789 C3788 1.400 1_655 S
C3789 C3790 1.398 . S
C3790 H3778 0.950 . S
C3790 C3789 1.398 . S
C3790 C3791 1.391 . S
C3791 H3779 0.950 . S
C3791 C3787 1.393 . S
C3791 C3790 1.391 . S
H3792 C3800 0.950 . S
H3793 C3805 0.950 . S
H3794 C3802 0.950 . S
H3795 C3804 0.950 . S
H3796 C3806 0.950 . S
H3797 C3808 0.950 . S
H3798 C3810 0.950 . S
H3799 C3811 0.950 . S
C3800 H3792 0.950 . S
C3800 C3801 1.386 . S
C3800 C3802 1.391 . S
C3801 C3800 1.386 . S
C3801 C3805 1.393 . S
C3802 H3794 0.950 . S
C3802 C3800 1.391 . S
C3802 C3803 1.400 . S
C3803 C3802 1.400 . S
C3803 C3804 1.398 . S
C3803 C3809 1.491 . S
C3804 H3795 0.950 . S
C3804 C3803 1.398 . S
C3804 C3805 1.391 . S
C3805 H3793 0.950 . S
C3805 C3801 1.393 . S
C3805 C3804 1.391 . S
C3806 H3796 0.950 . S
C3806 C3807 1.386 . S
C3806 C3808 1.391 . S
C3807 C3806 1.386 . S
C3807 C3811 1.393 . S
C3808 H3797 0.950 . S
C3808 C3806 1.391 . S
C3808 C3809 1.400 . S
C3809 C3803 1.491 . S
C3809 C3808 1.400 . S
C3809 C3810 1.398 . S
C3810 H3798 0.950 . S
C3810 C3809 1.398 . S
C3810 C3811 1.391 . S
C3811 H3799 0.950 . S
C3811 C3807 1.393 . S
C3811 C3810 1.391 . S
H3812 C3820 0.950 . S
H3813 C3825 0.950 . S
H3814 C3822 0.950 . S
H3815 C3824 0.950 . S
H3816 C3826 0.950 . S
H3817 C3828 0.950 . S
H3818 C3830 0.950 . S
H3819 C3831 0.950 . S
C3820 H3812 0.950 . S
C3820 C3821 1.386 . S
C3820 C3822 1.391 . S
C3821 C3820 1.386 . S
C3821 C3825 1.393 . S
C3822 H3814 0.950 . S
C3822 C3820 1.391 . S
C3822 C3823 1.400 . S
C3823 C3822 1.400 . S
C3823 C3824 1.398 . S
C3823 C3829 1.491 1_455 S
C3824 H3815 0.950 . S
C3824 C3823 1.398 . S
C3824 C3825 1.391 . S
C3825 H3813 0.950 . S
C3825 C3821 1.393 . S
C3825 C3824 1.391 . S
C3826 H3816 0.950 . S
C3826 C3827 1.386 . S
C3826 C3828 1.391 . S
C3827 C3826 1.386 . S
C3827 C3831 1.393 . S
C3828 H3817 0.950 . S
C3828 C3826 1.391 . S
C3828 C3829 1.400 . S
C3829 C3823 1.491 1_655 S
C3829 C3828 1.400 . S
C3829 C3830 1.398 . S
C3830 H3818 0.950 . S
C3830 C3829 1.398 . S
C3830 C3831 1.391 . S
C3831 H3819 0.950 . S
C3831 C3827 1.393 . S
C3831 C3830 1.391 . S
H3832 C3840 0.950 . S
H3833 C3845 0.950 . S
H3834 C3842 0.950 . S
H3835 C3844 0.950 . S
H3836 C3846 0.950 . S
H3837 C3848 0.950 . S
H3838 C3850 0.950 . S
H3839 C3851 0.950 . S
C3840 H3832 0.950 . S
C3840 C3841 1.386 . S
C3840 C3842 1.391 . S
C3841 C3840 1.386 . S
C3841 C3845 1.393 . S
C3842 H3834 0.950 . S
C3842 C3840 1.391 . S
C3842 C3843 1.400 . S
C3843 C3842 1.400 . S
C3843 C3844 1.398 . S
C3843 C3849 1.491 . S
C3844 H3835 0.950 . S
C3844 C3843 1.398 . S
C3844 C3845 1.391 . S
C3845 H3833 0.950 . S
C3845 C3841 1.393 . S
C3845 C3844 1.391 . S
C3846 H3836 0.950 . S
C3846 C3847 1.386 . S
C3846 C3848 1.391 . S
C3847 C3846 1.386 . S
C3847 C3851 1.393 . S
C3848 H3837 0.950 . S
C3848 C3846 1.391 . S
C3848 C3849 1.400 . S
C3849 C3843 1.491 . S
C3849 C3848 1.400 . S
C3849 C3850 1.398 . S
C3850 H3838 0.950 . S
C3850 C3849 1.398 . S
C3850 C3851 1.391 . S
C3851 H3839 0.950 . S
C3851 C3847 1.393 . S
C3851 C3850 1.391 . S
H3852 C3860 0.950 . S
H3853 C3865 0.950 . S
H3854 C3862 0.950 . S
H3855 C3864 0.950 . S
H3856 C3866 0.950 . S
H3857 C3868 0.950 . S
H3858 C3870 0.950 . S
H3859 C3871 0.950 . S
C3860 H3852 0.950 . S
C3860 C3861 1.386 . S
C3860 C3862 1.391 . S
C3861 C3860 1.386 . S
C3861 C3865 1.393 . S
C3862 H3854 0.950 . S
C3862 C3860 1.391 . S
C3862 C3863 1.400 . S
C3863 C3862 1.400 . S
C3863 C3864 1.398 . S
C3863 C3869 1.491 . S
C3864 H3855 0.950 . S
C3864 C3863 1.398 . S
C3864 C3865 1.391 . S
C3865 H3853 0.950 . S
C3865 C3861 1.393 . S
C3865 C3864 1.391 . S
C3866 H3856 0.950 . S
C3866 C3867 1.386 . S
C3866 C3868 1.391 . S
C3867 C3866 1.386 . S
C3867 C3871 1.393 . S
C3868 H3857 0.950 . S
C3868 C3866 1.391 . S
C3868 C3869 1.400 . S
C3869 C3863 1.491 . S
C3869 C3868 1.400 . S
C3869 C3870 1.398 . S
C3870 H3858 0.950 . S
C3870 C3869 1.398 . S
C3870 C3871 1.391 . S
C3871 H3859 0.950 . S
C3871 C3867 1.393 . S
C3871 C3870 1.391 . S
H3872 C3880 0.950 . S
H3873 C3885 0.950 . S
H3874 C3882 0.950 . S
H3875 C3884 0.950 . S
H3876 C3886 0.950 . S
H3877 C3888 0.950 . S
H3878 C3890 0.950 . S
H3879 C3891 0.950 . S
C3880 H3872 0.950 . S
C3880 C3881 1.386 . S
C3880 C3882 1.391 . S
C3881 C3880 1.386 . S
C3881 C3885 1.393 . S
C3882 H3874 0.950 . S
C3882 C3880 1.391 . S
C3882 C3883 1.400 . S
C3883 C3882 1.400 . S
C3883 C3884 1.398 . S
C3883 C3889 1.491 1_554 S
C3884 H3875 0.950 . S
C3884 C3883 1.398 . S
C3884 C3885 1.391 . S
C3885 H3873 0.950 . S
C3885 C3881 1.393 . S
C3885 C3884 1.391 . S
C3886 H3876 0.950 . S
C3886 C3887 1.386 . S
C3886 C3888 1.391 . S
C3887 C3886 1.386 . S
C3887 C3891 1.393 . S
C3888 H3877 0.950 . S
C3888 C3886 1.391 . S
C3888 C3889 1.400 . S
C3889 C3883 1.491 1_556 S
C3889 C3888 1.400 . S
C3889 C3890 1.398 . S
C3890 H3878 0.950 . S
C3890 C3889 1.398 . S
C3890 C3891 1.391 . S
C3891 H3879 0.950 . S
C3891 C3887 1.393 . S
C3891 C3890 1.391 . S
H3892 C3900 0.950 . S
H3893 C3905 0.950 . S
H3894 C3902 0.950 . S
H3895 C3904 0.950 . S
H3896 C3906 0.950 . S
H3897 C3908 0.950 . S
H3898 C3910 0.950 . S
H3899 C3911 0.950 . S
C3900 H3892 0.950 . S
C3900 C3901 1.386 . S
C3900 C3902 1.391 . S
C3901 C3900 1.386 . S
C3901 C3905 1.393 1_655 S
C3902 H3894 0.950 . S
C3902 C3900 1.391 . S
C3902 C3903 1.400 . S
C3903 C3902 1.400 . S
C3903 C3904 1.398 1_655 S
C3903 C3909 1.491 . S
C3904 H3895 0.950 . S
C3904 C3903 1.398 1_455 S
C3904 C3905 1.391 . S
C3905 H3893 0.950 . S
C3905 C3901 1.393 1_455 S
C3905 C3904 1.391 . S
C3906 H3896 0.950 . S
C3906 C3907 1.386 1_455 S
C3906 C3908 1.391 . S
C3907 C3906 1.386 1_655 S
C3907 C3911 1.393 . S
C3908 H3897 0.950 . S
C3908 C3906 1.391 . S
C3908 C3909 1.400 1_455 S
C3909 C3903 1.491 . S
C3909 C3908 1.400 1_655 S
C3909 C3910 1.398 . S
C3910 H3898 0.950 . S
C3910 C3909 1.398 . S
C3910 C3911 1.391 . S
C3911 H3899 0.950 . S
C3911 C3907 1.393 . S
C3911 C3910 1.391 . S
H3912 C3920 0.950 . S
H3913 C3925 0.950 . S
H3914 C3922 0.950 . S
H3915 C3924 0.950 . S
H3916 C3926 0.950 . S
H3917 C3928 0.950 . S
H3918 C3930 0.950 . S
H3919 C3931 0.950 . S
C3920 H3912 0.950 . S
C3920 C3921 1.386 . S
C3920 C3922 1.391 . S
C3921 C3920 1.386 . S
C3921 C3925 1.393 . S
C3922 H3914 0.950 . S
C3922 C3920 1.391 . S
C3922 C3923 1.400 . S
C3923 C3922 1.400 . S
C3923 C3924 1.398 . S
C3923 C3929 1.491 . S
C3924 H3915 0.950 . S
C3924 C3923 1.398 . S
C3924 C3925 1.391 . S
C3925 H3913 0.950 . S
C3925 C3921 1.393 . S
C3925 C3924 1.391 . S
C3926 H3916 0.950 . S
C3926 C3927 1.386 . S
C3926 C3928 1.391 . S
C3927 C3926 1.386 . S
C3927 C3931 1.393 . S
C3928 H3917 0.950 . S
C3928 C3926 1.391 . S
C3928 C3929 1.400 . S
C3929 C3923 1.491 . S
C3929 C3928 1.400 . S
C3929 C3930 1.398 . S
C3930 H3918 0.950 . S
C3930 C3929 1.398 . S
C3930 C3931 1.391 . S
C3931 H3919 0.950 . S
C3931 C3927 1.393 . S
C3931 C3930 1.391 . S
H3932 C3940 0.950 . S
H3933 C3945 0.950 . S
H3934 C3942 0.950 . S
H3935 C3944 0.950 . S
H3936 C3946 0.950 . S
H3937 C3948 0.950 . S
H3938 C3950 0.950 . S
H3939 C3951 0.950 . S
C3940 H3932 0.950 . S
C3940 C3941 1.386 . S
C3940 C3942 1.391 . S
C3941 C3940 1.386 . S
C3941 C3945 1.393 . S
C3942 H3934 0.950 . S
C3942 C3940 1.391 . S
C3942 C3943 1.400 . S
C3943 C3942 1.400 . S
C3943 C3944 1.398 . S
C3943 C3949 1.491 . S
C3944 H3935 0.950 . S
C3944 C3943 1.398 . S
C3944 C3945 1.391 . S
C3945 H3933 0.950 . S
C3945 C3941 1.393 . S
C3945 C3944 1.391 . S
C3946 H3936 0.950 . S
C3946 C3947 1.386 . S
C3946 C3948 1.391 . S
C3947 C3946 1.386 . S
C3947 C3951 1.393 . S
C3948 H3937 0.950 . S
C3948 C3946 1.391 . S
C3948 C3949 1.400 . S
C3949 C3943 1.491 . S
C3949 C3948 1.400 . S
C3949 C3950 1.398 . S
C3950 H3938 0.950 . S
C3950 C3949 1.398 . S
C3950 C3951 1.391 . S
C3951 H3939 0.950 . S
C3951 C3947 1.393 . S
C3951 C3950 1.391 . S
H3952 C3960 0.950 . S
H3953 C3965 0.950 . S
H3954 C3962 0.950 . S
H3955 C3964 0.950 . S
H3956 C3966 0.950 . S
H3957 C3968 0.950 . S
H3958 C3970 0.950 . S
H3959 C3971 0.950 . S
C3960 H3952 0.950 . S
C3960 C3961 1.386 . S
C3960 C3962 1.391 . S
C3961 C3960 1.386 . S
C3961 C3965 1.393 . S
C3962 H3954 0.950 . S
C3962 C3960 1.391 . S
C3962 C3963 1.400 . S
C3963 C3962 1.400 . S
C3963 C3964 1.398 . S
C3963 C3969 1.491 . S
C3964 H3955 0.950 . S
C3964 C3963 1.398 . S
C3964 C3965 1.391 . S
C3965 H3953 0.950 . S
C3965 C3961 1.393 . S
C3965 C3964 1.391 . S
C3966 H3956 0.950 . S
C3966 C3967 1.386 . S
C3966 C3968 1.391 . S
C3967 C3966 1.386 . S
C3967 C3971 1.393 . S
C3968 H3957 0.950 . S
C3968 C3966 1.391 . S
C3968 C3969 1.400 . S
C3969 C3963 1.491 . S
C3969 C3968 1.400 . S
C3969 C3970 1.398 . S
C3970 H3958 0.950 . S
C3970 C3969 1.398 . S
C3970 C3971 1.391 . S
C3971 H3959 0.950 . S
C3971 C3967 1.393 . S
C3971 C3970 1.391 . S
H3972 C3980 0.950 . S
H3973 C3985 0.950 . S
H3974 C3982 0.950 . S
H3975 C3984 0.950 . S
H3976 C3986 0.950 . S
H3977 C3988 0.950 . S
H3978 C3990 0.950 . S
H3979 C3991 0.953 . S
C3980 H3972 0.950 . S
C3980 C3981 1.386 . S
C3980 C3982 1.391 . S
C3981 C3980 1.386 . S
C3981 C3985 1.393 . S
C3982 H3974 0.950 . S
C3982 C3980 1.391 . S
C3982 C3983 1.400 . S
C3983 C3982 1.400 . S
C3983 C3984 1.398 1_556 S
C3983 C3989 1.491 1_556 S
C3984 H3975 0.950 . S
C3984 C3983 1.398 1_554 S
C3984 C3985 1.391 1_554 S
C3985 H3973 0.950 . S
C3985 C3981 1.393 . S
C3985 C3984 1.391 1_556 S
C3986 H3976 0.950 . S
C3986 C3987 1.386 . S
C3986 C3988 1.391 . S
C3987 C3986 1.386 . S
C3987 C3991 1.393 . S
C3988 H3977 0.950 . S
C3988 C3986 1.391 . S
C3988 C3989 1.400 . S
C3989 C3983 1.491 1_554 S
C3989 C3988 1.400 . S
C3989 C3990 1.398 1_554 S
C3990 H3978 0.950 . S
C3990 C3989 1.398 1_556 S
C3990 C3991 1.391 1_556 S
C3991 H3979 0.953 . S
C3991 C3987 1.393 . S
C3991 C3990 1.391 1_554 S
H3992 C4000 0.950 . S
H3993 C4005 0.950 . S
H3994 C4002 0.950 . S
H3995 C4004 0.950 . S
H3996 C4006 0.950 . S
H3997 C4008 0.950 . S
H3998 C4010 0.950 . S
H3999 C4011 0.950 . S
C4000 H3992 0.950 . S
C4000 C4001 1.386 . S
C4000 C4002 1.391 . S
C4001 C4000 1.386 . S
C4001 C4005 1.393 . S
C4002 H3994 0.950 . S
C4002 C4000 1.391 . S
C4002 C4003 1.400 . S
C4003 C4002 1.400 . S
C4003 C4004 1.398 . S
C4003 C4009 1.491 . S
C4004 H3995 0.950 . S
C4004 C4003 1.398 . S
C4004 C4005 1.391 . S
C4005 H3993 0.950 . S
C4005 C4001 1.393 . S
C4005 C4004 1.391 . S
C4006 H3996 0.950 . S
C4006 C4007 1.386 . S
C4006 C4008 1.391 . S
C4007 C4006 1.386 . S
C4007 C4011 1.393 . S
C4008 H3997 0.950 . S
C4008 C4006 1.391 . S
C4008 C4009 1.400 . S
C4009 C4003 1.491 . S
C4009 C4008 1.400 . S
C4009 C4010 1.398 . S
C4010 H3998 0.950 . S
C4010 C4009 1.398 . S
C4010 C4011 1.391 . S
C4011 H3999 0.950 . S
C4011 C4007 1.393 . S
C4011 C4010 1.391 . S
H4012 C4020 0.950 . S
H4013 C4025 0.950 . S
H4014 C4022 0.950 . S
H4015 C4024 0.950 . S
H4016 C4026 0.950 . S
H4017 C4028 0.950 . S
H4018 C4030 0.950 . S
H4019 C4031 0.950 . S
C4020 H4012 0.950 . S
C4020 C4021 1.386 . S
C4020 C4022 1.391 . S
C4021 C4020 1.386 . S
C4021 C4025 1.393 . S
C4022 H4014 0.950 . S
C4022 C4020 1.391 . S
C4022 C4023 1.400 . S
C4023 C4022 1.400 . S
C4023 C4024 1.398 . S
C4023 C4029 1.491 . S
C4024 H4015 0.950 . S
C4024 C4023 1.398 . S
C4024 C4025 1.391 . S
C4025 H4013 0.950 . S
C4025 C4021 1.393 . S
C4025 C4024 1.391 . S
C4026 H4016 0.950 . S
C4026 C4027 1.386 . S
C4026 C4028 1.391 . S
C4027 C4026 1.386 . S
C4027 C4031 1.393 . S
C4028 H4017 0.950 . S
C4028 C4026 1.391 . S
C4028 C4029 1.400 . S
C4029 C4023 1.491 . S
C4029 C4028 1.400 . S
C4029 C4030 1.398 . S
C4030 H4018 0.950 . S
C4030 C4029 1.398 . S
C4030 C4031 1.391 . S
C4031 H4019 0.950 . S
C4031 C4027 1.393 . S
C4031 C4030 1.391 . S
C1641 C20 1.136 . S
C1647 C349 1.097 . S
C1661 C383 1.100 . S
C1667 C54 1.135 . S
C1681 C281 1.133 1_556 S
C1687 C88 1.153 . S
C1701 C315 1.132 . S
C1707 C122 1.156 . S
C1721 C485 1.096 1_554 S
C1727 C156 1.137 . S
C1741 C190 1.150 . S
C1747 C519 1.129 . S
C1761 C417 1.102 . S
C1767 C224 1.143 . S
C1781 C451 1.124 . S
C1787 C258 1.146 . S
C1801 C292 1.141 . S
C1807 C587 1.116 . S
C1821 C326 1.137 . S
C1827 C621 1.096 . S
C1841 C655 1.096 1_455 S
C1847 C360 1.137 . S
C1861 C394 1.153 . S
C1867 C1505 1.118 . S
C1881 C1369 1.104 . S
C1887 C428 1.145 . S
C1901 C462 1.143 . S
C1907 C791 1.101 . S
C1921 C496 1.138 . S
C1927 C1539 1.110 1_455 S
C1941 C757 1.123 . S
C1947 C530 1.145 . S
C1961 C564 1.143 . S
C1967 C1029 1.119 . S
C1981 C77 1.097 1_545 S
C1987 C598 1.136 . S
C2001 C111 1.102 . S
C2007 C632 1.136 . S
C2021 C9 1.097 1_565 S
C2027 C666 1.136 . S
C2041 C700 1.154 . S
C2047 C859 1.120 . S
C2061 C734 1.146 . S
C2067 C961 1.105 . S
C2081 C179 1.133 . S
C2087 C768 1.154 . S
C2101 C247 1.128 . S
C2107 C802 1.148 . S
C2121 C836 1.135 . S
C2127 C1165 1.099 1_556 S
C2141 C870 1.152 . S
C2147 C1199 1.131 . S
C2161 C1097 1.096 . S
C2167 C904 1.137 . S
C2181 C1131 1.132 . S
C2187 C938 1.156 . S
C2201 C1301 1.100 . S
C2207 C972 1.141 . S
C2221 C1335 1.097 . S
C2227 C1006 1.136 . S
C2241 C1233 1.130 1_554 S
C2247 C1040 1.150 . S
C2261 C1074 1.143 . S
C2267 C1267 1.101 . S
C2281 C1108 1.155 . S
C2287 C1403 1.125 1_655 S
C2301 C1437 1.101 . S
C2307 C1142 1.143 . S
C2321 C1176 1.147 . S
C2327 C1471 1.107 . S
C2341 C1210 1.150 . S
C2347 C689 1.113 . S
C2361 C1244 1.142 . S
C2367 C553 1.117 1_655 S
C2381 C1278 1.139 . S
C2387 C1607 1.097 . S
C2401 C723 1.119 . S
C2407 C1312 1.143 . S
C2421 C1573 1.122 . S
C2427 C1346 1.154 . S
C2441 C1380 1.139 . S
C2447 C213 1.113 1_565 S
C2461 C893 1.104 . S
C2467 C1414 1.145 . S
C2481 C1448 1.136 . S
C2487 C927 1.097 . S
C2501 C1482 1.140 . S
C2507 C825 1.098 . S
C2521 C43 1.131 . S
C2527 C1516 1.152 . S
C2541 C1550 1.156 . S
C2547 C145 1.132 1_545 S
C2561 C1584 1.156 . S
C2567 C995 1.130 . S
C2581 C1063 1.128 . S
C2587 C1618 1.156 . S
C2601 C311 1.429 . S
C2607 C5 1.423 . S
C2621 C39 1.460 . S
C2627 C345 1.464 . S
C2641 C379 1.425 . S
C2647 C73 1.423 . S
C2661 C277 1.463 . S
C2667 C107 1.456 . S
C2681 C141 1.462 . S
C2687 C515 1.464 . S
C2701 C175 1.431 . S
C2707 C413 1.424 . S
C2721 C447 1.435 . S
C2727 C209 1.425 . S
C2741 C243 1.463 . S
C2747 C481 1.463 . S
C2761 C617 1.462 . S
C2767 C549 1.464 . S
C2781 C583 1.449 . S
C2787 C1569 1.459 . S
C2801 C1603 1.464 . S
C2807 C651 1.458 . S
C2821 C685 1.443 . S
C2827 C1535 1.431 . S
C2841 C1501 1.423 . S
C2847 C719 1.427 . S
C2861 C1399 1.426 . S
C2867 C753 1.423 . S
C2881 C787 1.464 . S
C2887 C1467 1.461 . S
C2901 C821 1.443 . S
C2907 C1127 1.455 . S
C2921 C1161 1.427 . S
C2927 C855 1.437 . S
C2941 C1195 1.424 . S
C2947 C889 1.431 . S
C2961 C923 1.439 . S
C2967 C1093 1.429 . S
C2981 C1331 1.457 . S
C2987 C957 1.445 . S
C3001 C1229 1.423 . S
C3007 C991 1.425 . S
C3021 C1025 1.425 . S
C3027 C1263 1.434 . S
C3041 C1297 1.464 . S
C3047 C1059 1.462 . S
C3061 C1433 1.447 . S
C3067 C1365 1.435 . S
C3081 C713 1.414 . S
C3087 C33 1.423 . S
C3101 C67 1.411 . S
C3107 C1427 1.422 . S
C3121 C101 1.420 . S
C3127 C1461 1.424 . S
C3141 C1495 1.402 . S
C3147 C135 1.404 . S
C3161 C1631 1.423 . S
C3167 C169 1.421 . S
C3181 C747 1.422 . S
C3187 C203 1.411 . S
C3201 C237 1.422 . S
C3207 C1597 1.422 . S
C3221 C271 1.424 . S
C3227 C577 1.417 . S
C3241 C543 1.410 . S
C3247 C305 1.402 . S
C3261 C339 1.402 . S
C3267 C441 1.404 . S
C3281 C373 1.424 . S
C3287 C475 1.420 . S
C3301 C509 1.419 . S
C3307 C407 1.424 . S
C3321 C883 1.424 . S
C3327 C611 1.416 . S
C3341 C645 1.422 . S
C3347 C917 1.412 . S
C3361 C679 1.402 . S
C3367 C951 1.412 . S
C3381 C781 1.402 . S
C3387 C1053 1.411 . S
C3401 C985 1.423 . S
C3407 C815 1.414 . S
C3421 C849 1.408 . S
C3427 C1529 1.401 . S
C3441 C1563 1.424 . S
C3447 C1019 1.416 . S
C3461 C1393 1.422 . S
C3467 C1087 1.411 . S
C3481 C1121 1.416 . S
C3487 C1359 1.404 . S
C3501 C1257 1.418 . S
C3507 C1155 1.424 . S
C3521 C1189 1.424 . S
C3527 C1291 1.420 . S
C3541 C1223 1.424 . S
C3547 C1325 1.419 . S
C3561 C138 2.358 1_655 S
C3567 C2 2.358 . S
C3581 C172 2.360 . S
C3587 C36 2.363 . S
C3601 C206 2.358 . S
C3607 C70 2.360 . S
C3621 C240 2.358 . S
C3627 C104 2.360 . S
C3641 C478 2.360 . S
C3647 C274 2.361 1_565 S
C3661 C308 2.360 . S
C3667 C512 2.363 . S
C3681 C342 2.361 . S
C3687 C410 2.368 . S
C3701 C444 2.358 . S
C3707 C376 2.362 . S
C3721 C546 2.360 . S
C3727 C1532 2.363 1_556 S
C3741 C580 2.365 . S
C3747 C1464 2.358 . S
C3761 C682 2.362 . S
C3767 C614 2.363 . S
C3781 C1396 2.362 . S
C3787 C648 2.358 . S
C3801 C1362 2.363 . S
C3807 C716 2.360 . S
C3821 C750 2.361 . S
C3827 C1600 2.358 . S
C3841 C1566 2.360 . S
C3847 C784 2.363 . S
C3861 C954 2.358 . S
C3867 C818 2.363 . S
C3881 C852 2.363 . S
C3887 C988 2.362 . S
C3901 C886 2.361 . S
C3907 C1022 2.363 . S
C3921 C920 2.363 . S
C3927 C1056 2.360 . S
C3941 C1090 2.361 . S
C3947 C1294 2.358 . S
C3961 C1124 2.360 . S
C3967 C1328 2.363 . S
C3981 C1226 2.361 . S
C3987 C1158 2.363 . S
C4001 C1192 2.359 . S
C4007 C1260 2.363 . S
C4021 C1498 2.360 . S
C4027 C1430 2.363 . S
