# Generated by pormake.
# Topology zfr, (5)-cn, num edge types: 1
# Building blocks:
#     Node 0, Type 0, BuildingBlock: XOMCOT_clean_sbu_1, # of connection points: 5
#     Node 1, Type 0, BuildingBlock: XOMCOT_clean_sbu_1, # of connection points: 5
#     Node 2, Type 0, BuildingBlock: XOMCOT_clean_sbu_1, # of connection points: 5
#     Node 3, Type 0, BuildingBlock: XOMCOT_clean_sbu_1, # of connection points: 5
#     Node 4, Type 0, BuildingBlock: XOMCOT_clean_sbu_1, # of connection points: 5
#     Node 5, Type 0, BuildingBlock: XOMCOT_clean_sbu_1, # of connection points: 5
#     Node 6, Type 0, BuildingBlock: XOMCOT_clean_sbu_1, # of connection points: 5
#     Node 7, Type 0, BuildingBlock: XOMCOT_clean_sbu_1, # of connection points: 5
#     Edge 8, Type (0, 0), BuildingBlock: TEMPAE_clean_linker_10, # of connection points: 2
#     Edge 9, Type (0, 0), BuildingBlock: TEMPAE_clean_linker_10, # of connection points: 2
#     Edge 10, Type (0, 0), BuildingBlock: TEMPAE_clean_linker_10, # of connection points: 2
#     Edge 11, Type (0, 0), BuildingBlock: TEMPAE_clean_linker_10, # of connection points: 2
#     Edge 12, Type (0, 0), BuildingBlock: TEMPAE_clean_linker_10, # of connection points: 2
#     Edge 13, Type (0, 0), BuildingBlock: TEMPAE_clean_linker_10, # of connection points: 2
#     Edge 14, Type (0, 0), BuildingBlock: TEMPAE_clean_linker_10, # of connection points: 2
#     Edge 15, Type (0, 0), BuildingBlock: TEMPAE_clean_linker_10, # of connection points: 2
#     Edge 16, Type (0, 0), BuildingBlock: TEMPAE_clean_linker_10, # of connection points: 2
#     Edge 17, Type (0, 0), BuildingBlock: TEMPAE_clean_linker_10, # of connection points: 2
#     Edge 18, Type (0, 0), BuildingBlock: TEMPAE_clean_linker_10, # of connection points: 2
#     Edge 19, Type (0, 0), BuildingBlock: TEMPAE_clean_linker_10, # of connection points: 2
#     Edge 20, Type (0, 0), BuildingBlock: TEMPAE_clean_linker_10, # of connection points: 2
#     Edge 21, Type (0, 0), BuildingBlock: TEMPAE_clean_linker_10, # of connection points: 2
#     Edge 22, Type (0, 0), BuildingBlock: TEMPAE_clean_linker_10, # of connection points: 2
#     Edge 23, Type (0, 0), BuildingBlock: TEMPAE_clean_linker_10, # of connection points: 2
#     Edge 24, Type (0, 0), BuildingBlock: TEMPAE_clean_linker_10, # of connection points: 2
#     Edge 25, Type (0, 0), BuildingBlock: TEMPAE_clean_linker_10, # of connection points: 2
#     Edge 26, Type (0, 0), BuildingBlock: TEMPAE_clean_linker_10, # of connection points: 2
#     Edge 27, Type (0, 0), BuildingBlock: TEMPAE_clean_linker_10, # of connection points: 2
# Relax obj value: 0.189
# Max RMSD: 0.175
# Mean RMSD: 0.175
data_MOF--net-zfr--node1-XOMCOT_clean_sbu_1--edge1-TEMPAE_clean_linker_10
_symmetry_space_group_name_H-M    P1
_symmetry_Int_Tables_number       1
_symmetry_cell_setting            triclinic
loop_
_symmetry_equiv_pos_as_xyz
'x, y, z'
_cell_length_a     51.917457
_cell_length_b     51.899778
_cell_length_c     17.463745
_cell_angle_alpha  89.974427
_cell_angle_beta   89.983944
_cell_angle_gamma 90.007888
loop_
_atom_site_label
_atom_site_type_symbol
_atom_site_fract_x
_atom_site_fract_y
_atom_site_fract_z
_atom_type_partial_charge
C0 C 0.15939 0.32256 0.18201 0.0
C1 C 0.16374 0.32263 0.1041 0.0
N2 N 0.14106 0.31861 0.06883 0.0
N3 N 0.13411 0.31845 0.19541 0.0
C4 C 0.1235 0.31652 0.12511 0.0
H5 H 0.1737 0.32579 0.22586 0.0
Co6 Co 0.11784 0.31797 0.29051 0.0
C7 C 0.07844 0.28516 0.21379 0.0
O8 O 0.09405 0.26525 0.21237 0.0
N9 N 0.10174 0.31791 0.38546 0.0
C10 C 0.07347 0.32228 0.48019 0.0
C11 C 0.07669 0.32223 0.4019 0.0
C12 C 0.11332 0.31555 0.45414 0.0
N13 N 0.09658 0.31795 0.51262 0.0
O14 O 0.12941 0.28317 0.307 0.0
H15 H 0.06181 0.32578 0.35988 0.0
H16 H 0.13381 0.31318 0.46169 0.0
O17 O 0.08587 0.30631 0.24388 0.0
C18 C 0.15155 0.2819 0.33829 0.0
O19 O 0.16356 0.30351 0.35449 0.0
N20 N 0.10878 0.35244 0.27729 0.0
C21 C 0.10352 0.40571 0.26265 0.0
C22 C 0.08778 0.38892 0.22029 0.0
C23 C 0.0908 0.36221 0.22812 0.0
C24 C 0.12393 0.36842 0.31951 0.0
C25 C 0.12155 0.39507 0.31344 0.0
H26 H 0.07917 0.3496 0.19321 0.0
H27 H 0.13826 0.36029 0.35745 0.0
H28 H 0.10311 0.31476 0.11434 0.0
H29 H 0.18207 0.32539 0.0757 0.0
H30 H 0.0556 0.32536 0.51082 0.0
H31 H 0.07382 0.39632 0.1798 0.0
H32 H 0.13385 0.40724 0.3481 0.0
C33 C 0.67187 0.15485 0.40818 0.0
C34 C 0.6731 0.16015 0.33092 0.0
N35 N 0.68828 0.14231 0.2979 0.0
N36 N 0.68626 0.13381 0.42325 0.0
C37 C 0.69622 0.12681 0.35505 0.0
H38 H 0.66075 0.16524 0.45049 0.0
Co39 Co 0.69047 0.11804 0.51802 0.0
C40 C 0.6918 0.06287 0.47557 0.0
O41 O 0.67549 0.058 0.53135 0.0
N42 N 0.69602 0.10347 0.6146 0.0
C43 C 0.71619 0.08431 0.71196 0.0
C44 C 0.71221 0.08409 0.63414 0.0
C45 C 0.6916 0.11588 0.68129 0.0
N46 N 0.70307 0.1043 0.74119 0.0
O47 O 0.72558 0.12939 0.52115 0.0
H48 H 0.72242 0.07187 0.59437 0.0
H49 H 0.68216 0.13442 0.68523 0.0
O50 O 0.70036 0.08581 0.46657 0.0
C51 C 0.72814 0.15325 0.53632 0.0
O52 O 0.70742 0.1676 0.54265 0.0
N53 N 0.65484 0.10816 0.51609 0.0
C54 C 0.60141 0.09917 0.50701 0.0
C55 C 0.61777 0.09343 0.44523 0.0
C56 C 0.64424 0.09793 0.45101 0.0
C57 C 0.63911 0.11438 0.57591 0.0
C58 C 0.61269 0.10937 0.57352 0.0
H59 H 0.65611 0.09385 0.4017 0.0
H60 H 0.64649 0.12412 0.62533 0.0
H61 H 0.70877 0.11042 0.34686 0.0
H62 H 0.6628 0.17522 0.30091 0.0
H63 H 0.72859 0.07149 0.74412 0.0
H64 H 0.61026 0.08633 0.39145 0.0
H65 H 0.60126 0.11399 0.62346 0.0
C66 C 0.84143 0.66696 0.63152 0.0
C67 C 0.8375 0.66495 0.55378 0.0
N68 N 0.8573 0.67668 0.51828 0.0
N69 N 0.86346 0.68006 0.64434 0.0
C70 C 0.87259 0.68582 0.57422 0.0
H71 H 0.82932 0.65893 0.67593 0.0
Co72 Co 0.87797 0.6866 0.73893 0.0
C73 C 0.93428 0.6914 0.70635 0.0
O74 O 0.93993 0.67843 0.76882 0.0
N75 N 0.89187 0.69378 0.83501 0.0
C76 C 0.90937 0.7163 0.93015 0.0
C77 C 0.90689 0.71427 0.85215 0.0
C78 C 0.88487 0.68419 0.90371 0.0
N79 N 0.8954 0.69735 0.96237 0.0
O80 O 0.8669 0.72178 0.73411 0.0
H81 H 0.91445 0.72779 0.81071 0.0
H82 H 0.87066 0.66929 0.9115 0.0
O83 O 0.91071 0.69584 0.6896 0.0
C84 C 0.84311 0.72496 0.74898 0.0
O85 O 0.82854 0.70458 0.75952 0.0
N86 N 0.88684 0.65128 0.74525 0.0
C87 C 0.89194 0.5977 0.75409 0.0
C88 C 0.90785 0.61218 0.70558 0.0
C89 C 0.90447 0.63885 0.70019 0.0
C90 C 0.87027 0.63723 0.78916 0.0
C91 C 0.87273 0.61054 0.79555 0.0
H92 H 0.91525 0.64904 0.65705 0.0
H93 H 0.85427 0.64667 0.81698 0.0
H94 H 0.89017 0.69641 0.56379 0.0
H95 H 0.82185 0.65498 0.52558 0.0
H96 H 0.91984 0.73111 0.96066 0.0
H97 H 0.92202 0.60282 0.66953 0.0
H98 H 0.85947 0.60001 0.83183 0.0
C99 C 0.33541 0.85134 0.8927 0.0
C100 C 0.33584 0.84655 0.81519 0.0
N101 N 0.31897 0.8626 0.7811 0.0
N102 N 0.31859 0.87052 0.90707 0.0
C103 C 0.30858 0.87669 0.83815 0.0
H104 H 0.34733 0.84217 0.93558 0.0
Co105 Co 0.31346 0.88652 0.00119 0.0
C106 C 0.31243 0.94174 0.95203 0.0
O107 O 0.32858 0.94804 0.00693 0.0
N108 N 0.30753 0.90177 0.09715 0.0
C109 C 0.29141 0.92483 0.19365 0.0
C110 C 0.29394 0.92316 0.1155 0.0
C111 C 0.31138 0.88995 0.16519 0.0
N112 N 0.30233 0.90383 0.22461 0.0
O113 O 0.27819 0.87571 0.00206 0.0
H114 H 0.28473 0.93597 0.07532 0.0
H115 H 0.31957 0.87091 0.17108 0.0
O116 O 0.30436 0.9185 0.94687 0.0
C117 C 0.27565 0.85176 0.01614 0.0
O118 O 0.2964 0.83741 0.02192 0.0
N119 N 0.34905 0.89527 0.00263 0.0
C120 C 0.4027 0.90018 0.00138 0.0
C121 C 0.3878 0.9112 0.94321 0.0
C122 C 0.36108 0.90786 0.94362 0.0
C123 C 0.36352 0.88384 0.05831 0.0
C124 C 0.3903 0.88623 0.05918 0.0
H125 H 0.35028 0.91449 0.89462 0.0
H126 H 0.3546 0.87151 0.10006 0.0
H127 H 0.29488 0.89209 0.82926 0.0
H128 H 0.34803 0.83277 0.78601 0.0
H129 H 0.28105 0.93954 0.22502 0.0
H130 H 0.39685 0.92122 0.89588 0.0
H131 H 0.40128 0.87675 0.10379 0.0
C132 C 0.15549 0.66618 0.35914 0.0
C133 C 0.15958 0.66563 0.43704 0.0
N134 N 0.14234 0.68149 0.47017 0.0
N135 N 0.13581 0.68231 0.34383 0.0
C136 C 0.12842 0.69156 0.4124 0.0
H137 H 0.16573 0.65506 0.31651 0.0
Co138 Co 0.12124 0.68875 0.24929 0.0
C139 C 0.06536 0.69382 0.28312 0.0
O140 O 0.05993 0.68048 0.22121 0.0
N141 N 0.10721 0.69611 0.15325 0.0
C142 C 0.09079 0.72029 0.05975 0.0
C143 C 0.0927 0.71714 0.13755 0.0
C144 C 0.1143 0.6872 0.08377 0.0
N145 N 0.10441 0.7014 0.02634 0.0
O146 O 0.1333 0.72367 0.25247 0.0
H147 H 0.08549 0.73049 0.17995 0.0
H148 H 0.12839 0.6723 0.07449 0.0
O149 O 0.08885 0.69884 0.29935 0.0
C150 C 0.15735 0.72648 0.24087 0.0
O151 O 0.17191 0.70587 0.23544 0.0
N152 N 0.11121 0.65359 0.2449 0.0
C153 C 0.10367 0.60012 0.24183 0.0
C154 C 0.09038 0.61562 0.29442 0.0
C155 C 0.09491 0.64216 0.29636 0.0
C156 C 0.12543 0.63855 0.19687 0.0
C157 C 0.12155 0.61195 0.19298 0.0
H158 H 0.08614 0.65312 0.34184 0.0
H159 H 0.14105 0.64692 0.16464 0.0
H160 H 0.11296 0.70527 0.42016 0.0
H161 H 0.17342 0.65375 0.46712 0.0
H162 H 0.08124 0.73593 0.03011 0.0
H163 H 0.077 0.60727 0.33503 0.0
H164 H 0.13338 0.6006 0.15462 0.0
C165 C 0.33935 0.14689 0.54328 0.0
C166 C 0.3397 0.15186 0.62083 0.0
N167 N 0.32289 0.13579 0.65529 0.0
N168 N 0.32274 0.1275 0.5293 0.0
C169 C 0.31259 0.12158 0.59837 0.0
H170 H 0.35137 0.1559 0.50031 0.0
Co171 Co 0.31803 0.11065 0.43597 0.0
C172 C 0.31627 0.05634 0.49006 0.0
O173 O 0.3335 0.0499 0.43828 0.0
N174 N 0.31221 0.09475 0.34003 0.0
C175 C 0.29709 0.07117 0.24308 0.0
C176 C 0.29955 0.07282 0.32138 0.0
C177 C 0.3157 0.10671 0.27191 0.0
N178 N 0.3072 0.09262 0.21222 0.0
O179 O 0.28322 0.12293 0.43316 0.0
H180 H 0.291 0.05949 0.36137 0.0
H181 H 0.32388 0.12578 0.26615 0.0
O182 O 0.30757 0.07941 0.49178 0.0
C183 C 0.28231 0.1446 0.39893 0.0
O184 O 0.30404 0.15483 0.37505 0.0
N185 N 0.3535 0.10028 0.43784 0.0
C186 C 0.40718 0.09301 0.44637 0.0
C187 C 0.39121 0.0878 0.50948 0.0
C188 C 0.36459 0.09139 0.50393 0.0
C189 C 0.36878 0.10563 0.37626 0.0
C190 C 0.39534 0.10141 0.37848 0.0
H191 H 0.35303 0.08799 0.55435 0.0
H192 H 0.36091 0.11425 0.32559 0.0
H193 H 0.29902 0.10611 0.60762 0.0
H194 H 0.35191 0.16566 0.64981 0.0
H195 H 0.2874 0.05606 0.21155 0.0
H196 H 0.39911 0.08201 0.56415 0.0
H197 H 0.40644 0.10542 0.32743 0.0
C198 C 0.84928 0.33635 0.88002 0.0
C199 C 0.84432 0.33674 0.95746 0.0
N200 N 0.86001 0.31955 0.99169 0.0
N201 N 0.86822 0.31923 0.86581 0.0
C202 C 0.87401 0.30899 0.93472 0.0
H203 H 0.8404 0.34846 0.83709 0.0
Co204 Co 0.88431 0.31384 0.77184 0.0
C205 C 0.93946 0.31265 0.82185 0.0
O206 O 0.94572 0.32936 0.76838 0.0
N207 N 0.89958 0.30765 0.67574 0.0
C208 C 0.92299 0.2923 0.57882 0.0
C209 C 0.9214 0.29483 0.65701 0.0
C210 C 0.88749 0.31101 0.60785 0.0
N211 N 0.90157 0.30247 0.54813 0.0
O212 O 0.8734 0.27858 0.77177 0.0
H213 H 0.93467 0.28616 0.6969 0.0
H214 H 0.86823 0.3187 0.60235 0.0
O215 O 0.91622 0.30456 0.8265 0.0
C216 C 0.84943 0.2757 0.75892 0.0
O217 O 0.83478 0.29626 0.75347 0.0
N218 N 0.89328 0.3494 0.76962 0.0
C219 C 0.89904 0.40316 0.76834 0.0
C220 C 0.90883 0.38832 0.82894 0.0
C221 C 0.90526 0.3616 0.82931 0.0
C222 C 0.88288 0.3637 0.71187 0.0
C223 C 0.88583 0.39041 0.70948 0.0
H224 H 0.91142 0.35088 0.87905 0.0
H225 H 0.87093 0.35475 0.66927 0.0
H226 H 0.88905 0.29494 0.9436 0.0
H227 H 0.83069 0.34913 0.98648 0.0
H228 H 0.93804 0.28253 0.54723 0.0
H229 H 0.91879 0.39726 0.87646 0.0
H230 H 0.87677 0.40105 0.66345 0.0
C231 C 0.6645 0.84957 0.09311 0.0
C232 C 0.664 0.84474 0.17059 0.0
N233 N 0.68093 0.86069 0.20478 0.0
N234 N 0.68142 0.86869 0.07888 0.0
C235 C 0.69142 0.87478 0.14787 0.0
H236 H 0.65254 0.84051 0.05015 0.0
Co237 Co 0.68652 0.8847 0.98478 0.0
C238 C 0.68826 0.93983 0.03317 0.0
O239 O 0.67204 0.94607 0.97838 0.0
N240 N 0.69242 0.89993 0.8887 0.0
C241 C 0.70882 0.92271 0.79195 0.0
C242 C 0.70643 0.92103 0.87014 0.0
C243 C 0.68815 0.88825 0.82068 0.0
N244 N 0.69737 0.90199 0.76112 0.0
O245 O 0.72166 0.87358 0.98329 0.0
H246 H 0.71605 0.93359 0.9102 0.0
H247 H 0.67958 0.86937 0.81491 0.0
O248 O 0.69616 0.91655 0.03886 0.0
C249 C 0.7242 0.84961 0.96961 0.0
O250 O 0.70347 0.83522 0.96439 0.0
N251 N 0.65102 0.89392 0.98422 0.0
C252 C 0.59731 0.90036 0.9865 0.0
C253 C 0.61283 0.9106 0.04489 0.0
C254 C 0.63943 0.9065 0.04388 0.0
C255 C 0.63613 0.88312 0.9285 0.0
C256 C 0.60942 0.88629 0.92806 0.0
H257 H 0.65053 0.91281 0.09266 0.0
H258 H 0.64463 0.87069 0.88628 0.0
H259 H 0.70515 0.89015 0.15692 0.0
H260 H 0.6517 0.83103 0.19972 0.0
H261 H 0.71949 0.93718 0.76046 0.0
H262 H 0.60455 0.92132 0.09199 0.0
H263 H 0.59833 0.87679 0.88383 0.0
C264 C 0.23627 0.15506 0.43272 0.0
C265 C 0.25794 0.15876 0.38602 0.0
C266 C 0.21462 0.17132 0.42613 0.0
C267 C 0.21474 0.19154 0.37143 0.0
C268 C 0.23587 0.19404 0.32072 0.0
C269 C 0.25715 0.17771 0.3288 0.0
C270 C 0.19237 0.16786 0.48071 0.0
C271 C 0.23683 0.21511 0.26104 0.0
C272 C 0.15828 0.23443 0.31537 0.0
C273 C 0.16449 0.25709 0.35503 0.0
C274 C 0.17339 0.21205 0.32403 0.0
C275 C 0.19504 0.21245 0.37359 0.0
C276 C 0.2001 0.23474 0.41777 0.0
C277 C 0.18483 0.25672 0.40781 0.0
C278 C 0.16718 0.18859 0.27657 0.0
C279 C 0.22279 0.23607 0.47179 0.0
H280 H 0.23673 0.14034 0.47676 0.0
H281 H 0.27364 0.18034 0.29146 0.0
H282 H 0.19311 0.18309 0.5252 0.0
H283 H 0.17373 0.16983 0.45024 0.0
H284 H 0.19297 0.1488 0.50966 0.0
H285 H 0.25333 0.21277 0.2211 0.0
H286 H 0.21877 0.21542 0.22717 0.0
H287 H 0.23866 0.2341 0.28975 0.0
H288 H 0.14248 0.23456 0.27481 0.0
H289 H 0.18944 0.27402 0.43979 0.0
H290 H 0.16908 0.17076 0.3112 0.0
H291 H 0.18104 0.18719 0.2284 0.0
H292 H 0.1474 0.1895 0.25244 0.0
H293 H 0.22313 0.21898 0.50992 0.0
H294 H 0.22243 0.2537 0.50783 0.0
H295 H 0.24096 0.23601 0.43828 0.0
C296 C 0.85037 0.23427 0.68612 0.0
C297 C 0.83821 0.25047 0.73916 0.0
C298 C 0.83682 0.21377 0.65187 0.0
C299 C 0.81076 0.20933 0.67227 0.0
C300 C 0.79936 0.22424 0.73119 0.0
C301 C 0.81312 0.24484 0.76307 0.0
C302 C 0.84968 0.19843 0.58931 0.0
C303 C 0.77185 0.21987 0.75616 0.0
C304 C 0.75892 0.18961 0.53256 0.0
C305 C 0.7532 0.16459 0.55703 0.0
C306 C 0.77935 0.20349 0.5649 0.0
C307 C 0.79395 0.19233 0.62492 0.0
C308 C 0.78937 0.16635 0.64614 0.0
C309 C 0.76908 0.15265 0.61135 0.0
C310 C 0.78388 0.23091 0.53906 0.0
C311 C 0.80433 0.15374 0.70999 0.0
H312 H 0.86971 0.23883 0.66695 0.0
H313 H 0.80377 0.25738 0.80426 0.0
H314 H 0.84472 0.17769 0.59388 0.0
H315 H 0.84273 0.20534 0.53285 0.0
H316 H 0.87097 0.20054 0.59086 0.0
H317 H 0.76708 0.23064 0.80929 0.0
H318 H 0.75858 0.22631 0.71017 0.0
H319 H 0.76823 0.19908 0.7662 0.0
H320 H 0.7466 0.19878 0.49046 0.0
H321 H 0.76441 0.13338 0.63098 0.0
H322 H 0.80471 0.23445 0.5297 0.0
H323 H 0.77725 0.24439 0.58428 0.0
H324 H 0.77336 0.23546 0.48533 0.0
H325 H 0.82507 0.15876 0.70656 0.0
H326 H 0.80229 0.13244 0.70893 0.0
H327 H 0.797 0.16085 0.76582 0.0
C328 C 0.80707 0.7561 0.74418 0.0
C329 C 0.83229 0.75051 0.76682 0.0
C330 C 0.79373 0.77711 0.77528 0.0
C331 C 0.80568 0.79244 0.83225 0.0
C332 C 0.83187 0.78801 0.85111 0.0
C333 C 0.845 0.76713 0.81754 0.0
C334 C 0.76606 0.78148 0.75183 0.0
C335 C 0.84531 0.80379 0.9116 0.0
C336 C 0.76472 0.84969 0.8926 0.0
C337 C 0.74918 0.83817 0.9486 0.0
C338 C 0.78471 0.83569 0.85732 0.0
C339 C 0.78932 0.80984 0.87974 0.0
C340 C 0.77514 0.79914 0.94141 0.0
C341 C 0.75501 0.81332 0.97425 0.0
C342 C 0.79923 0.8478 0.79174 0.0
C343 C 0.77974 0.77189 0.96855 0.0
H344 H 0.7973 0.74323 0.70481 0.0
H345 H 0.86445 0.7626 0.83573 0.0
H346 H 0.75309 0.77542 0.79904 0.0
H347 H 0.76249 0.80222 0.74077 0.0
H348 H 0.76086 0.77038 0.69969 0.0
H349 H 0.86657 0.80154 0.90863 0.0
H350 H 0.84042 0.82451 0.90595 0.0
H351 H 0.83878 0.79736 0.96903 0.0
H352 H 0.75995 0.86883 0.87205 0.0
H353 H 0.74294 0.80447 0.01762 0.0
H354 H 0.79135 0.84046 0.73686 0.0
H355 H 0.81995 0.84262 0.79379 0.0
H356 H 0.79739 0.86913 0.79191 0.0
H357 H 0.77267 0.75814 0.92468 0.0
H358 H 0.76966 0.76776 0.02333 0.0
H359 H 0.80064 0.7683 0.97652 0.0
C360 C 0.19409 0.75699 0.24149 0.0
C361 C 0.16858 0.75173 0.22093 0.0
C362 C 0.20738 0.77792 0.20966 0.0
C363 C 0.19506 0.79359 0.15419 0.0
C364 C 0.16869 0.78942 0.13716 0.0
C365 C 0.15564 0.76859 0.17135 0.0
C366 C 0.23528 0.78198 0.23107 0.0
C367 C 0.15486 0.80555 0.07823 0.0
C368 C 0.23559 0.85133 0.09508 0.0
C369 C 0.25069 0.84029 0.03726 0.0
C370 C 0.21586 0.83704 0.13067 0.0
C371 C 0.21107 0.81137 0.10677 0.0
C372 C 0.22477 0.8012 0.04342 0.0
C373 C 0.24466 0.81565 0.01026 0.0
C374 C 0.20185 0.84858 0.19808 0.0
C375 C 0.21996 0.77417 0.01472 0.0
H376 H 0.20404 0.74399 0.28009 0.0
H377 H 0.13596 0.76437 0.15477 0.0
H378 H 0.24777 0.77629 0.18235 0.0
H379 H 0.23904 0.80261 0.2433 0.0
H380 H 0.24093 0.77043 0.28194 0.0
H381 H 0.13362 0.80328 0.08224 0.0
H382 H 0.15979 0.82623 0.08467 0.0
H383 H 0.16103 0.79948 0.02013 0.0
H384 H 0.24055 0.87028 0.11674 0.0
H385 H 0.25644 0.80715 0.96561 0.0
H386 H 0.21001 0.84063 0.25186 0.0
H387 H 0.18109 0.84356 0.19673 0.0
H388 H 0.20385 0.86989 0.19964 0.0
H389 H 0.22741 0.76008 0.05709 0.0
H390 H 0.22958 0.77052 0.95895 0.0
H391 H 0.19901 0.77061 0.00806 0.0
C392 C 0.08988 0.33315 0.64472 0.0
C393 C 0.10273 0.3171 0.59281 0.0
C394 C 0.09651 0.33323 0.72257 0.0
C395 C 0.11631 0.31668 0.74893 0.0
C396 C 0.12908 0.30015 0.69691 0.0
C397 C 0.1222 0.30067 0.61933 0.0
C398 C 0.08276 0.35144 0.77616 0.0
C399 C 0.14997 0.28193 0.72315 0.0
C400 C 0.14936 0.33302 0.93663 0.0
C401 C 0.1359 0.31731 0.9881 0.0
C402 C 0.14325 0.33297 0.85834 0.0
C403 C 0.1235 0.31652 0.83115 0.0
C404 C 0.11026 0.30018 0.88273 0.0
C405 C 0.11654 0.30089 0.96066 0.0
C406 C 0.15754 0.35087 0.80502 0.0
C407 C 0.08936 0.28211 0.85568 0.0
H408 H 0.07508 0.34612 0.62403 0.0
H409 H 0.13192 0.28803 0.57929 0.0
H410 H 0.07629 0.34118 0.82844 0.0
H411 H 0.09628 0.36678 0.79463 0.0
H412 H 0.06579 0.36066 0.74878 0.0
H413 H 0.15781 0.27015 0.67542 0.0
H414 H 0.166 0.29296 0.74936 0.0
H415 H 0.14231 0.26878 0.76779 0.0
H416 H 0.16412 0.34589 0.95803 0.0
H417 H 0.10636 0.28848 0.00038 0.0
H418 H 0.1438 0.36451 0.77811 0.0
H419 H 0.16669 0.33971 0.75819 0.0
H420 H 0.17268 0.36212 0.83506 0.0
H421 H 0.07382 0.29316 0.827 0.0
H422 H 0.0808 0.27083 0.90342 0.0
H423 H 0.09732 0.26849 0.81283 0.0
C424 C 0.69213 0.11348 0.18712 0.0
C425 C 0.69249 0.13845 0.21746 0.0
C426 C 0.69489 0.10931 0.10834 0.0
C427 C 0.69866 0.13062 0.05899 0.0
C428 C 0.69977 0.15586 0.08957 0.0
C429 C 0.69631 0.15951 0.16859 0.0
C430 C 0.69306 0.08218 0.07766 0.0
C431 C 0.70444 0.17894 0.03882 0.0
C432 C 0.72493 0.1126 0.86368 0.0
C433 C 0.70245 0.11259 0.81945 0.0
C434 C 0.72424 0.11975 0.9411 0.0
C435 C 0.70037 0.12631 0.97515 0.0
C436 C 0.67769 0.12674 0.93012 0.0
C437 C 0.6791 0.1202 0.85241 0.0
C438 C 0.74891 0.11971 0.98684 0.0
C439 C 0.65178 0.13302 0.96471 0.0
H440 H 0.68884 0.09723 0.2249 0.0
H441 H 0.6968 0.17877 0.19247 0.0
H442 H 0.67666 0.08069 0.03716 0.0
H443 H 0.71081 0.07715 0.04564 0.0
H444 H 0.6903 0.06783 0.12391 0.0
H445 H 0.70643 0.19705 0.07219 0.0
H446 H 0.72218 0.17603 0.00444 0.0
H447 H 0.68824 0.1812 0.99799 0.0
H448 H 0.74302 0.10707 0.83744 0.0
H449 H 0.66177 0.12003 0.81781 0.0
H450 H 0.74832 0.10405 0.03004 0.0
H451 H 0.75105 0.13815 0.01833 0.0
H452 H 0.76614 0.11684 0.95006 0.0
H453 H 0.64679 0.11835 0.00855 0.0
H454 H 0.6362 0.13351 0.92113 0.0
H455 H 0.65247 0.15196 0.994 0.0
C456 C 0.88428 0.66895 0.07021 0.0
C457 C 0.89006 0.69362 0.04234 0.0
C458 C 0.87826 0.66506 0.14751 0.0
C459 C 0.87797 0.68639 0.19785 0.0
C460 C 0.88405 0.71129 0.17035 0.0
C461 C 0.88997 0.71463 0.09275 0.0
C462 C 0.87288 0.6381 0.17581 0.0
C463 C 0.88457 0.73432 0.22312 0.0
C464 C 0.84194 0.68176 0.38596 0.0
C465 C 0.8622 0.67802 0.4376 0.0
C466 C 0.84678 0.68427 0.30732 0.0
C467 C 0.87242 0.68253 0.28014 0.0
C468 C 0.89283 0.67787 0.33199 0.0
C469 C 0.88748 0.67599 0.41024 0.0
C470 C 0.82458 0.6893 0.25353 0.0
C471 C 0.92052 0.67531 0.30656 0.0
H472 H 0.8848 0.65262 0.03164 0.0
H473 H 0.89414 0.73376 0.07137 0.0
H474 H 0.88766 0.63255 0.21869 0.0
H475 H 0.85388 0.63739 0.20481 0.0
H476 H 0.87303 0.62371 0.12875 0.0
H477 H 0.88871 0.75255 0.19212 0.0
H478 H 0.86579 0.73626 0.25297 0.0
H479 H 0.89956 0.73147 0.26762 0.0
H480 H 0.82244 0.68345 0.40746 0.0
H481 H 0.90313 0.67269 0.45013 0.0
H482 H 0.82403 0.67434 0.2082 0.0
H483 H 0.82733 0.70817 0.22469 0.0
H484 H 0.80573 0.68948 0.28363 0.0
H485 H 0.92275 0.6719 0.24428 0.0
H486 H 0.92982 0.65911 0.3375 0.0
H487 H 0.93106 0.6932 0.32175 0.0
C488 C 0.29916 0.87168 0.32806 0.0
C489 C 0.30311 0.89717 0.30442 0.0
C490 C 0.3002 0.86501 0.40592 0.0
C491 C 0.3059 0.88423 0.46093 0.0
C492 C 0.30975 0.91003 0.43716 0.0
C493 C 0.30804 0.91622 0.35919 0.0
C494 C 0.29534 0.83743 0.42926 0.0
C495 C 0.31629 0.93098 0.49382 0.0
C496 C 0.29117 0.87418 0.67196 0.0
C497 C 0.31524 0.86649 0.70026 0.0
C498 C 0.28764 0.87939 0.59379 0.0
C499 C 0.30881 0.87727 0.54307 0.0
C500 C 0.33311 0.86934 0.5713 0.0
C501 C 0.33597 0.86385 0.64947 0.0
C502 C 0.26136 0.8875 0.5657 0.0
C503 C 0.35629 0.86738 0.51934 0.0
H504 H 0.29493 0.85706 0.28563 0.0
H505 H 0.31126 0.93588 0.34058 0.0
H506 H 0.31297 0.82918 0.45543 0.0
H507 H 0.2799 0.83662 0.47318 0.0
H508 H 0.28962 0.82516 0.37998 0.0
H509 H 0.31855 0.95012 0.46606 0.0
H510 H 0.30102 0.93242 0.53798 0.0
H511 H 0.3345 0.9261 0.52376 0.0
H512 H 0.2751 0.87607 0.71112 0.0
H513 H 0.3547 0.85836 0.67138 0.0
H514 H 0.25534 0.87525 0.51681 0.0
H515 H 0.26212 0.90767 0.54481 0.0
H516 H 0.24649 0.88623 0.61131 0.0
H517 H 0.35224 0.85395 0.47145 0.0
H518 H 0.37373 0.86056 0.55011 0.0
H519 H 0.3605 0.88651 0.49383 0.0
C520 C 0.11586 0.72087 0.90271 0.0
C521 C 0.11055 0.69895 0.9467 0.0
C522 C 0.1225 0.71865 0.82526 0.0
C523 C 0.12334 0.69394 0.79114 0.0
C524 C 0.11798 0.67174 0.83544 0.0
C525 C 0.11188 0.67452 0.91311 0.0
C526 C 0.12827 0.74271 0.77973 0.0
C527 C 0.1182 0.64513 0.8005 0.0
C528 C 0.11276 0.6894 0.57747 0.0
C529 C 0.13784 0.68514 0.55058 0.0
C530 C 0.10785 0.6926 0.65564 0.0
C531 C 0.12853 0.69139 0.70815 0.0
C532 C 0.15396 0.68735 0.68146 0.0
C533 C 0.1583 0.68414 0.60276 0.0
C534 C 0.08043 0.6966 0.68196 0.0
C535 C 0.1765 0.6864 0.73599 0.0
H536 H 0.11523 0.73971 0.92935 0.0
H537 H 0.10766 0.65766 0.94755 0.0
H538 H 0.14737 0.741 0.75165 0.0
H539 H 0.11372 0.74508 0.73373 0.0
H540 H 0.12819 0.76031 0.81594 0.0
H541 H 0.11424 0.62982 0.84341 0.0
H542 H 0.10344 0.64394 0.75468 0.0
H543 H 0.13716 0.64125 0.77358 0.0
H544 H 0.09681 0.68967 0.53747 0.0
H545 H 0.17771 0.68109 0.58185 0.0
H546 H 0.07919 0.71242 0.72445 0.0
H547 H 0.07338 0.67877 0.7101 0.0
H548 H 0.06745 0.70125 0.63354 0.0
H549 H 0.17736 0.70446 0.76991 0.0
H550 H 0.19514 0.68381 0.70574 0.0
H551 H 0.17396 0.67029 0.77706 0.0
C552 C 0.30399 0.12499 0.10911 0.0
C553 C 0.30799 0.09945 0.13236 0.0
C554 C 0.30507 0.13188 0.03135 0.0
C555 C 0.31084 0.11286 0.97579 0.0
C556 C 0.31478 0.08701 -0.00086 0.0
C557 C 0.31305 0.08059 0.07705 0.0
C558 C 0.3001 0.15951 0.00866 0.0
C559 C 0.32138 0.06624 0.94206 0.0
C560 C 0.29551 0.1236 0.76505 0.0
C561 C 0.31941 0.13168 0.73629 0.0
C562 C 0.29225 0.11798 0.84317 0.0
C563 C 0.31353 0.12005 0.89352 0.0
C564 C 0.33768 0.12834 0.86482 0.0
C565 C 0.34026 0.13424 0.78672 0.0
C566 C 0.26612 0.10951 0.87157 0.0
C567 C 0.36099 0.13025 0.9162 0.0
H568 H 0.29968 0.13951 0.1518 0.0
H569 H 0.31635 0.0609 0.09516 0.0
H570 H 0.31761 0.16782 0.98187 0.0
H571 H 0.28447 0.16036 0.96541 0.0
H572 H 0.2946 0.17168 0.05836 0.0
H573 H 0.32356 0.04702 0.96939 0.0
H574 H 0.30616 0.06494 0.89775 0.0
H575 H 0.33963 0.07119 0.91242 0.0
H576 H 0.27934 0.12171 0.72627 0.0
H577 H 0.35887 0.14001 0.76454 0.0
H578 H 0.26009 0.12155 0.92091 0.0
H579 H 0.26712 0.08929 0.89192 0.0
H580 H 0.25113 0.11077 0.82632 0.0
H581 H 0.35701 0.1435 0.96457 0.0
H582 H 0.37831 0.13726 0.88516 0.0
H583 H 0.36536 0.11106 0.94108 0.0
C584 C 0.86941 0.29908 0.44478 0.0
C585 C 0.89487 0.30327 0.46827 0.0
C586 C 0.86264 0.3002 0.36701 0.0
C587 C 0.88172 0.30621 0.31181 0.0
C588 C 0.90751 0.3103 0.3353 0.0
C589 C 0.91379 0.30853 0.41325 0.0
C590 C 0.83509 0.29511 0.34396 0.0
C591 C 0.92834 0.31712 0.27834 0.0
C592 C 0.87153 0.29163 0.10075 0.0
C593 C 0.86373 0.3157 0.0726 0.0
C594 C 0.87683 0.28804 0.17886 0.0
C595 C 0.87462 0.30915 0.22977 0.0
C596 C 0.86645 0.33342 0.2018 0.0
C597 C 0.86095 0.33635 0.12365 0.0
C598 C 0.88517 0.26179 0.20666 0.0
C599 C 0.8643 0.35652 0.25401 0.0
H600 H 0.85487 0.29461 0.48728 0.0
H601 H 0.93343 0.31196 0.43164 0.0
H602 H 0.82665 0.3127 0.31806 0.0
H603 H 0.83437 0.27972 0.29991 0.0
H604 H 0.82293 0.28921 0.39333 0.0
H605 H 0.9475 0.31937 0.30587 0.0
H606 H 0.92979 0.302 0.23368 0.0
H607 H 0.92337 0.33542 0.24894 0.0
H608 H 0.8735 0.27559 0.0615 0.0
H609 H 0.85535 0.35508 0.10198 0.0
H610 H 0.87298 0.25558 0.2555 0.0
H611 H 0.90533 0.26271 0.22755 0.0
H612 H 0.88404 0.24697 0.1609 0.0
H613 H 0.85099 0.35224 0.30208 0.0
H614 H 0.85721 0.37392 0.22352 0.0
H615 H 0.88341 0.36092 0.27926 0.0
C616 C 0.66363 0.86243 0.33596 0.0
C617 C 0.68455 0.86457 0.28562 0.0
C618 C 0.66641 0.86796 0.4141 0.0
C619 C 0.6908 0.87541 0.44275 0.0
C620 C 0.71215 0.877 0.39251 0.0
C621 C 0.7087 0.87179 0.31432 0.0
C622 C 0.64306 0.86657 0.46556 0.0
C623 C 0.73854 0.88453 0.42112 0.0
C624 C 0.69205 0.91444 0.62634 0.0
C625 C 0.69646 0.89531 0.68134 0.0
C626 C 0.69036 0.90826 0.54836 0.0
C627 C 0.69367 0.88236 0.52486 0.0
C628 C 0.69881 0.86305 0.5801 0.0
C629 C 0.69987 0.86973 0.65791 0.0
C630 C 0.68446 0.92934 0.49137 0.0
C631 C 0.7031 0.83534 0.55704 0.0
H632 H 0.64486 0.85729 0.31367 0.0
H633 H 0.7249 0.87329 0.27545 0.0
H634 H 0.64668 0.85307 0.51363 0.0
H635 H 0.63924 0.88581 0.49085 0.0
H636 H 0.62554 0.86013 0.43446 0.0
H637 H 0.75347 0.88299 0.37577 0.0
H638 H 0.73817 0.90468 0.4422 0.0
H639 H 0.7442 0.87209 0.47 0.0
H640 H 0.68927 0.93418 0.64478 0.0
H641 H 0.70371 0.85503 0.70049 0.0
H642 H 0.66613 0.92499 0.46133 0.0
H643 H 0.69979 0.93033 0.44725 0.0
H644 H 0.68274 0.94855 0.51897 0.0
H645 H 0.68534 0.82749 0.53053 0.0
H646 H 0.70841 0.82297 0.60652 0.0
H647 H 0.71862 0.83417 0.51348 0.0
C648 C 0.05146 0.26677 0.10818 0.0
C649 C 0.05479 0.28519 0.16614 0.0
C650 C 0.03129 0.26895 0.05493 0.0
C651 C 0.01388 0.28988 0.06024 0.0
C652 C 0.01629 0.30769 0.12124 0.0
C653 C 0.03676 0.30519 0.17324 0.0
C654 C 0.02941 0.24962 0.99059 0.0
C655 C 0.99799 0.33014 0.12944 0.0
C656 C 0.98387 0.31517 0.87673 0.0
C657 C 0.95876 0.30527 0.88066 0.0
C658 C 0.00199 0.31001 0.93432 0.0
C659 C 0.99486 0.29463 0.99789 0.0
C660 C 0.96967 0.28425 0.0019 0.0
C661 C 0.95198 0.28955 0.94297 0.0
C662 C 0.02859 0.32162 0.92795 0.0
C663 C 0.96127 0.26792 0.069 0.0
H664 H 0.06534 0.25131 0.10202 0.0
H665 H 0.03908 0.31938 0.21824 0.0
H666 H 0.00982 0.24112 0.98888 0.0
H667 H 0.03262 0.25945 0.93493 0.0
H668 H 0.04371 0.23382 0.99637 0.0
H669 H 1.00099 0.34081 0.18385 0.0
H670 H 1.0008 0.3437 0.08102 0.0
H671 H 0.97774 0.32337 0.12724 0.0
H672 H 0.98937 0.32735 0.829 0.0
H673 H 0.93271 0.28166 0.94645 0.0
H674 H 0.04354 0.30664 0.93643 0.0
H675 H 0.03126 0.33626 0.97356 0.0
H676 H 0.0318 0.33102 0.87161 0.0
H677 H 0.97395 0.2508 0.07413 0.0
H678 H 0.941 0.26132 0.06358 0.0
H679 H 0.96318 0.27905 0.12293 0.0
C680 C 0.67859 0.98084 0.10194 0.0
C681 C 0.69358 0.95847 0.09552 0.0
C682 C 0.681 0.9973 0.16512 0.0
C683 C 0.69915 0.99149 0.22321 0.0
C684 C 0.71496 0.96938 0.216 0.0
C685 C 0.71192 0.95306 0.15234 0.0
C686 C 0.66274 0.01987 0.17128 0.0
C687 C 0.73437 0.96242 0.27694 0.0
C688 C 0.71391 0.04758 0.356 0.0
C689 C 0.69672 0.04294 0.41649 0.0
C690 C 0.71592 0.03029 0.29434 0.0
C691 C 0.70036 0.00786 0.29316 0.0
C692 C 0.68386 0.00251 0.35568 0.0
C693 C 0.68237 0.02001 0.41674 0.0
C694 C 0.73379 0.03657 0.22877 0.0
C695 C 0.66653 0.97913 0.3559 0.0
H696 H 0.66409 0.98505 0.05905 0.0
H697 H 0.72358 0.93581 0.14786 0.0
H698 H 0.64501 0.01347 0.20128 0.0
H699 H 0.67102 0.03613 0.20419 0.0
H700 H 0.65701 0.027 0.11374 0.0
H701 H 0.74656 0.94578 0.25999 0.0
H702 H 0.74702 0.97914 0.28932 0.0
H703 H 0.7242 0.95745 0.33085 0.0
H704 H 0.72525 0.0651 0.35563 0.0
H705 H 0.66902 0.01619 0.4631 0.0
H706 H 0.72274 0.03773 0.17451 0.0
H707 H 0.74815 0.02091 0.22194 0.0
H708 H 0.74415 0.05507 0.23743 0.0
H709 H 0.65153 0.9814 0.31117 0.0
H710 H 0.65681 0.97632 0.41195 0.0
H711 H 0.67766 0.96151 0.34192 0.0
C712 C 0.0232 0.68216 0.34216 0.0
C713 C 0.04517 0.69788 0.3418 0.0
C714 C 0.00527 0.68338 0.40211 0.0
C715 C 0.00905 0.70115 0.46253 0.0
C716 C 0.03073 0.71772 0.46124 0.0
C717 C 0.04866 0.71576 0.40111 0.0
C718 C 0.98311 0.66455 0.40281 0.0
C719 C 0.03522 0.73719 0.52399 0.0
C720 C 0.95013 0.71315 0.58702 0.0
C721 C 0.95458 0.69631 0.64847 0.0
C722 C 0.96824 0.7158 0.52766 0.0
C723 C 0.99116 0.70101 0.5293 0.0
C724 C 0.99603 0.68449 0.59226 0.0
C725 C 0.97779 0.68251 0.65126 0.0
C726 C 0.96234 0.73356 0.46151 0.0
C727 C 0.01957 0.66742 0.59563 0.0
H728 H 0.02054 0.66799 0.29727 0.0
H729 H 0.06559 0.72799 0.40102 0.0
H730 H 0.98717 0.64914 0.44517 0.0
H731 H 0.96498 0.67414 0.42052 0.0
H732 H 0.98015 0.65542 0.34597 0.0
H733 H 0.05454 0.7463 0.51991 0.0
H734 H 0.02036 0.7525 0.52026 0.0
H735 H 0.03327 0.72803 0.58111 0.0
H736 H 0.93226 0.72391 0.58458 0.0
H737 H 0.98129 0.66919 0.69794 0.0
H738 H 0.96003 0.72212 0.4083 0.0
H739 H 0.97861 0.74707 0.4522 0.0
H740 H 0.94447 0.7449 0.47098 0.0
H741 H 0.01509 0.64885 0.56712 0.0
H742 H 0.02507 0.66316 0.65579 0.0
H743 H 0.03634 0.67604 0.56591 0.0
C744 C 0.28975 0.95433 0.83067 0.0
C745 C 0.30769 0.96005 0.88831 0.0
C746 C 0.28764 0.96987 0.76501 0.0
C747 C 0.304 0.99153 0.75662 0.0
C748 C 0.32155 0.99785 0.81572 0.0
C749 C 0.323 0.98221 0.88109 0.0
C750 C 0.26873 0.96248 0.70317 0.0
C751 C 0.33992 0.02028 0.80788 0.0
C752 C 0.32407 0.01501 0.55978 0.0
C753 C 0.31024 0.03814 0.55315 0.0
C754 C 0.32147 0.99921 0.62452 0.0
C755 C 0.30439 0.00651 0.68384 0.0
C756 C 0.28944 0.02918 0.67595 0.0
C757 C 0.29253 0.04473 0.61064 0.0
C758 C 0.33817 0.97548 0.63139 0.0
C759 C 0.27104 0.03759 0.73803 0.0
H760 H 0.27775 0.93733 0.83594 0.0
H761 H 0.33704 0.98675 0.92497 0.0
H762 H 0.25664 0.9793 0.68741 0.0
H763 H 0.27934 0.9565 0.65099 0.0
H764 H 0.25596 0.94638 0.72103 0.0
H765 H 0.35109 0.02377 0.86112 0.0
H766 H 0.35374 0.01641 0.76081 0.0
H767 H 0.3293 0.03809 0.79262 0.0
H768 H 0.3378 0.00969 0.5158 0.0
H769 H 0.28157 0.06241 0.60574 0.0
H770 H 0.32627 0.95841 0.64581 0.0
H771 H 0.3522 0.9781 0.67865 0.0
H772 H 0.34907 0.97145 0.57798 0.0
H773 H 0.2576 0.02167 0.75235 0.0
H774 H 0.25965 0.05481 0.72116 0.0
H775 H 0.28196 0.04227 0.7908 0.0
C776 C 0.12437 0.44903 0.25015 0.0
C777 C 0.10181 0.43416 0.25316 0.0
C778 C 0.12333 0.47598 0.24524 0.0
C779 C 0.09912 0.48848 0.24294 0.0
C780 C 0.07624 0.4736 0.24395 0.0
C781 C 0.07785 0.4466 0.24901 0.0
C782 C 0.1482 0.49109 0.24386 0.0
C783 C 0.05007 0.48625 0.24146 0.0
C784 C 0.09921 0.55798 0.31114 0.0
C785 C 0.10051 0.57161 0.24182 0.0
C786 C 0.09792 0.53096 0.31218 0.0
C787 C 0.09795 0.51717 0.24223 0.0
C788 C 0.09856 0.53081 0.17202 0.0
C789 C 0.09987 0.55785 0.17266 0.0
C790 C 0.09741 0.51714 0.38829 0.0
C791 C 0.09851 0.51681 0.09625 0.0
H792 H 0.14296 0.43954 0.25174 0.0
H793 H 0.06034 0.43526 0.25174 0.0
H794 H 0.14891 0.50354 0.19224 0.0
H795 H 0.14918 0.50393 0.29456 0.0
H796 H 0.16543 0.47841 0.24394 0.0
H797 H 0.03418 0.47194 0.23855 0.0
H798 H 0.04733 0.49829 0.2933 0.0
H799 H 0.0487 0.49922 0.19113 0.0
H800 H 0.10008 0.56838 0.36486 0.0
H801 H 0.10056 0.56827 0.11888 0.0
H802 H 0.11529 0.50566 0.39519 0.0
H803 H 0.08097 0.50351 0.39047 0.0
H804 H 0.09583 0.53067 0.43733 0.0
H805 H 0.11636 0.5052 0.0907 0.0
H806 H 0.09736 0.53025 0.04683 0.0
H807 H 0.08201 0.50327 0.09343 0.0
C808 C 0.55596 0.11233 0.54059 0.0
C809 C 0.57279 0.09586 0.50068 0.0
C810 C 0.52913 0.10997 0.53381 0.0
C811 C 0.51863 0.09142 0.48337 0.0
C812 C 0.53531 0.07474 0.44276 0.0
C813 C 0.56208 0.07681 0.45302 0.0
C814 C 0.51201 0.12773 0.57973 0.0
C815 C 0.5249 0.05518 0.38672 0.0
C816 C 0.44771 0.07399 0.50384 0.0
C817 C 0.43595 0.09134 0.45273 0.0
C818 C 0.47456 0.07371 0.51435 0.0
C819 C 0.49026 0.09044 0.47056 0.0
C820 C 0.47875 0.10722 0.41669 0.0
C821 C 0.45183 0.10786 0.40964 0.0
C822 C 0.48605 0.05605 0.57399 0.0
C823 C 0.49484 0.12493 0.36737 0.0
H824 H 0.56361 0.12759 0.57614 0.0
H825 H 0.57459 0.06351 0.42303 0.0
H826 H 0.50187 0.14122 0.54076 0.0
H827 H 0.49708 0.11645 0.61053 0.0
H828 H 0.52304 0.13922 0.6222 0.0
H829 H 0.5404 0.04352 0.35988 0.0
H830 H 0.51126 0.04199 0.41587 0.0
H831 H 0.51402 0.06519 0.3408 0.0
H832 H 0.43598 0.06067 0.53644 0.0
H833 H 0.44335 0.12189 0.37135 0.0
H834 H 0.49625 0.06766 0.61791 0.0
H835 H 0.5005 0.04311 0.54742 0.0
H836 H 0.47124 0.04407 0.603 0.0
H837 H 0.50411 0.13982 0.40361 0.0
H838 H 0.48319 0.1348 0.32278 0.0
H839 H 0.51044 0.11392 0.3388 0.0
C840 C 0.91849 0.55755 0.76676 0.0
C841 C 0.8943 0.56921 0.75789 0.0
C842 C 0.9209 0.53061 0.77046 0.0
C843 C 0.89864 0.51498 0.76401 0.0
C844 C 0.8742 0.52668 0.75461 0.0
C845 C 0.87232 0.55364 0.75208 0.0
C846 C 0.94724 0.51886 0.78152 0.0
C847 C 0.85003 0.51071 0.74644 0.0
C848 C 0.90469 0.44532 0.69948 0.0
C849 C 0.901 0.43183 0.76835 0.0
C850 C 0.90446 0.47236 0.69747 0.0
C851 C 0.90079 0.48636 0.76615 0.0
C852 C 0.89796 0.47295 0.83626 0.0
C853 C 0.89794 0.44587 0.83648 0.0
C854 C 0.90744 0.48594 0.62147 0.0
C855 C 0.8942 0.48719 0.91081 0.0
H856 H 0.93549 0.56956 0.77184 0.0
H857 H 0.85363 0.56257 0.74414 0.0
H858 H 0.94737 0.50672 0.83385 0.0
H859 H 0.95193 0.50611 0.7325 0.0
H860 H 0.96257 0.53369 0.78676 0.0
H861 H 0.83253 0.52279 0.73937 0.0
H862 H 0.85176 0.49779 0.6961 0.0
H863 H 0.84746 0.4983 0.79761 0.0
H864 H 0.90753 0.4347 0.64672 0.0
H865 H 0.89471 0.43574 0.88988 0.0
H866 H 0.92365 0.49983 0.62403 0.0
H867 H 0.88974 0.49712 0.60862 0.0
H868 H 0.91097 0.47229 0.57363 0.0
H869 H 0.90965 0.50172 0.91859 0.0
H870 H 0.89421 0.47402 0.96099 0.0
H871 H 0.8756 0.4977 0.90961 0.0
C872 C 0.55437 0.90466 0.9205 0.0
C873 C 0.56863 0.90288 0.98869 0.0
C874 C 0.52732 0.9052 0.92141 0.0
C875 C 0.51412 0.90463 0.99229 0.0
C876 C 0.52831 0.90378 0.06141 0.0
C877 C 0.55532 0.90258 0.05879 0.0
C878 C 0.51287 0.90572 0.84639 0.0
C879 C 0.51495 0.90354 0.13824 0.0
C880 C 0.44377 0.92535 0.99546 0.0
C881 C 0.43116 0.90152 -0.00122 0.0
C882 C 0.47081 0.92672 0.99412 0.0
C883 C 0.48545 0.90367 0.9941 0.0
C884 C 0.47269 0.87955 0.99615 0.0
C885 C 0.4457 0.87879 -0.00065 0.0
C886 C 0.48372 0.95278 0.99374 0.0
C887 C 0.48753 0.85453 0.99445 0.0
H888 H 0.56433 0.90544 0.86603 0.0
H889 H 0.56591 0.90073 0.11192 0.0
H890 H 0.50065 0.88825 0.84148 0.0
H891 H 0.49986 0.92265 0.84431 0.0
H892 H 0.526 0.90649 0.79619 0.0
H893 H 0.52875 0.90505 0.18663 0.0
H894 H 0.50107 0.91975 0.14201 0.0
H895 H 0.50381 0.88544 0.14483 0.0
H896 H 0.43245 0.9429 0.99536 0.0
H897 H 0.43587 0.86036 0.00109 0.0
H898 H 0.49593 0.95483 0.94198 0.0
H899 H 0.49657 0.95457 0.04423 0.0
H900 H 0.46959 0.96885 0.99483 0.0
H901 H 0.50001 0.85387 0.94287 0.0
H902 H 0.47467 0.83743 0.99398 0.0
H903 H 0.50032 0.85325 0.04517 0.0
loop_
_geom_bond_atom_site_label_1
_geom_bond_atom_site_label_2
_geom_bond_distance
_geom_bond_site_symmetry_2
_ccdc_geom_bond_type
C0 C1 1.351 1_554 S
C0 N3 1.368 . S
C0 H5 0.931 . S
C1 C0 1.351 1_556 S
C1 N2 1.373 . S
C1 H29 0.930 . S
N2 C1 1.373 . S
N2 C4 1.340 1_556 S
N3 C0 1.368 . S
N3 C4 1.321 . S
N3 Co6 2.135 . S
C4 N2 1.340 1_554 S
C4 N3 1.321 . S
C4 H28 0.930 . S
H5 C0 0.931 . S
Co6 N3 2.135 . S
Co6 N9 2.121 . S
Co6 O14 2.055 . S
Co6 O17 2.039 . S
Co6 N20 2.140 . S
C7 O8 1.227 . S
C7 O17 1.265 . S
O8 C7 1.227 . S
N9 Co6 2.121 . S
N9 C11 1.375 . S
N9 C12 1.313 . S
C10 C11 1.338 . S
C10 N13 1.377 . S
C10 H30 0.930 . S
C11 N9 1.375 . S
C11 C10 1.338 . S
C11 H15 0.931 . S
C12 N9 1.313 . S
C12 N13 1.344 . S
C12 H16 0.930 . S
N13 C10 1.377 . S
N13 C12 1.344 . S
O14 Co6 2.055 . S
O14 C18 1.253 . S
H15 C11 0.931 . S
H16 C12 0.930 . S
O17 Co6 2.039 . S
O17 C7 1.265 . S
C18 O14 1.253 . S
C18 O19 1.227 . S
O19 C18 1.227 . S
N20 Co6 2.140 . S
N20 C23 1.346 . S
N20 C24 1.345 . S
C21 C22 1.387 . S
C21 C25 1.391 . S
C22 C21 1.387 . S
C22 C23 1.369 . S
C22 H31 0.929 . S
C23 N20 1.346 . S
C23 C22 1.369 . S
C23 H26 0.928 . S
C24 N20 1.345 . S
C24 C25 1.371 . S
C24 H27 0.931 . S
C25 C21 1.391 . S
C25 C24 1.371 . S
C25 H32 0.930 . S
H26 C23 0.928 . S
H27 C24 0.931 . S
H28 C4 0.930 . S
H29 C1 0.930 . S
H30 C10 0.930 . S
H31 C22 0.929 . S
H32 C25 0.930 . S
C33 C34 1.351 . S
C33 N36 1.368 . S
C33 H38 0.931 . S
C34 C33 1.351 . S
C34 N35 1.373 . S
C34 H62 0.930 . S
N35 C34 1.373 . S
N35 C37 1.340 . S
N36 C33 1.368 . S
N36 C37 1.321 . S
N36 Co39 2.135 . S
C37 N35 1.340 . S
C37 N36 1.321 . S
C37 H61 0.930 . S
H38 C33 0.931 . S
Co39 N36 2.135 . S
Co39 N42 2.121 . S
Co39 O47 2.055 . S
Co39 O50 2.039 . S
Co39 N53 2.140 . S
C40 O41 1.227 . S
C40 O50 1.265 . S
O41 C40 1.227 . S
N42 Co39 2.121 . S
N42 C44 1.375 . S
N42 C45 1.313 . S
C43 C44 1.338 . S
C43 N46 1.377 . S
C43 H63 0.930 . S
C44 N42 1.375 . S
C44 C43 1.338 . S
C44 H48 0.931 . S
C45 N42 1.313 . S
C45 N46 1.344 . S
C45 H49 0.930 . S
N46 C43 1.377 . S
N46 C45 1.344 . S
O47 Co39 2.055 . S
O47 C51 1.253 . S
H48 C44 0.931 . S
H49 C45 0.930 . S
O50 Co39 2.039 . S
O50 C40 1.265 . S
C51 O47 1.253 . S
C51 O52 1.227 . S
O52 C51 1.227 . S
N53 Co39 2.140 . S
N53 C56 1.346 . S
N53 C57 1.345 . S
C54 C55 1.387 . S
C54 C58 1.391 . S
C55 C54 1.387 . S
C55 C56 1.369 . S
C55 H64 0.929 . S
C56 N53 1.346 . S
C56 C55 1.369 . S
C56 H59 0.928 . S
C57 N53 1.345 . S
C57 C58 1.371 . S
C57 H60 0.931 . S
C58 C54 1.391 . S
C58 C57 1.371 . S
C58 H65 0.930 . S
H59 C56 0.928 . S
H60 C57 0.931 . S
H61 C37 0.930 . S
H62 C34 0.930 . S
H63 C43 0.930 . S
H64 C55 0.929 . S
H65 C58 0.930 . S
C66 C67 1.351 . S
C66 N69 1.368 . S
C66 H71 0.931 . S
C67 C66 1.351 . S
C67 N68 1.373 . S
C67 H95 0.930 . S
N68 C67 1.373 . S
N68 C70 1.340 . S
N69 C66 1.368 . S
N69 C70 1.321 . S
N69 Co72 2.135 . S
C70 N68 1.340 . S
C70 N69 1.321 . S
C70 H94 0.930 . S
H71 C66 0.931 . S
Co72 N69 2.135 . S
Co72 N75 2.121 . S
Co72 O80 2.055 . S
Co72 O83 2.039 . S
Co72 N86 2.140 . S
C73 O74 1.227 . S
C73 O83 1.265 . S
O74 C73 1.227 . S
N75 Co72 2.121 . S
N75 C77 1.375 . S
N75 C78 1.313 . S
C76 C77 1.338 . S
C76 N79 1.377 . S
C76 H96 0.930 . S
C77 N75 1.375 . S
C77 C76 1.338 . S
C77 H81 0.931 . S
C78 N75 1.313 . S
C78 N79 1.344 . S
C78 H82 0.930 . S
N79 C76 1.377 . S
N79 C78 1.344 . S
O80 Co72 2.055 . S
O80 C84 1.253 . S
H81 C77 0.931 . S
H82 C78 0.930 . S
O83 Co72 2.039 . S
O83 C73 1.265 . S
C84 O80 1.253 . S
C84 O85 1.227 . S
O85 C84 1.227 . S
N86 Co72 2.140 . S
N86 C89 1.346 . S
N86 C90 1.345 . S
C87 C88 1.387 . S
C87 C91 1.391 . S
C88 C87 1.387 . S
C88 C89 1.369 . S
C88 H97 0.929 . S
C89 N86 1.346 . S
C89 C88 1.369 . S
C89 H92 0.928 . S
C90 N86 1.345 . S
C90 C91 1.371 . S
C90 H93 0.931 . S
C91 C87 1.391 . S
C91 C90 1.371 . S
C91 H98 0.930 . S
H92 C89 0.928 . S
H93 C90 0.931 . S
H94 C70 0.930 . S
H95 C67 0.930 . S
H96 C76 0.930 . S
H97 C88 0.929 . S
H98 C91 0.930 . S
C99 C100 1.351 . S
C99 N102 1.368 . S
C99 H104 0.931 . S
C100 C99 1.351 . S
C100 N101 1.373 . S
C100 H128 0.930 . S
N101 C100 1.373 . S
N101 C103 1.340 . S
N102 C99 1.368 . S
N102 C103 1.321 . S
N102 Co105 2.135 . S
C103 N101 1.340 . S
C103 N102 1.321 . S
C103 H127 0.930 . S
H104 C99 0.931 . S
Co105 N102 2.135 . S
Co105 N108 2.121 1_556 S
Co105 O113 2.055 . S
Co105 O116 2.039 . S
Co105 N119 2.140 . S
C106 O107 1.227 . S
C106 O116 1.265 . S
O107 C106 1.227 . S
N108 Co105 2.121 1_554 S
N108 C110 1.375 . S
N108 C111 1.313 . S
C109 C110 1.338 . S
C109 N112 1.377 . S
C109 H129 0.930 . S
C110 N108 1.375 . S
C110 C109 1.338 . S
C110 H114 0.931 . S
C111 N108 1.313 . S
C111 N112 1.344 . S
C111 H115 0.930 . S
N112 C109 1.377 . S
N112 C111 1.344 . S
O113 Co105 2.055 . S
O113 C117 1.253 . S
H114 C110 0.931 . S
H115 C111 0.930 . S
O116 Co105 2.039 . S
O116 C106 1.265 . S
C117 O113 1.253 . S
C117 O118 1.227 1_556 S
O118 C117 1.227 1_554 S
N119 Co105 2.140 . S
N119 C122 1.346 . S
N119 C123 1.345 1_556 S
C120 C121 1.387 . S
C120 C124 1.391 1_556 S
C121 C120 1.387 . S
C121 C122 1.369 . S
C121 H130 0.929 . S
C122 N119 1.346 . S
C122 C121 1.369 . S
C122 H125 0.928 . S
C123 N119 1.345 1_554 S
C123 C124 1.371 . S
C123 H126 0.931 . S
C124 C120 1.391 1_554 S
C124 C123 1.371 . S
C124 H131 0.930 . S
H125 C122 0.928 . S
H126 C123 0.931 . S
H127 C103 0.930 . S
H128 C100 0.930 . S
H129 C109 0.930 . S
H130 C121 0.929 . S
H131 C124 0.930 . S
C132 C133 1.351 . S
C132 N135 1.368 . S
C132 H137 0.931 . S
C133 C132 1.351 . S
C133 N134 1.373 . S
C133 H161 0.930 . S
N134 C133 1.373 . S
N134 C136 1.340 . S
N135 C132 1.368 . S
N135 C136 1.321 . S
N135 Co138 2.135 . S
C136 N134 1.340 . S
C136 N135 1.321 . S
C136 H160 0.930 . S
H137 C132 0.931 . S
Co138 N135 2.135 . S
Co138 N141 2.121 . S
Co138 O146 2.055 . S
Co138 O149 2.039 . S
Co138 N152 2.140 . S
C139 O140 1.227 . S
C139 O149 1.265 . S
O140 C139 1.227 . S
N141 Co138 2.121 . S
N141 C143 1.375 . S
N141 C144 1.313 . S
C142 C143 1.338 . S
C142 N145 1.377 . S
C142 H162 0.930 . S
C143 N141 1.375 . S
C143 C142 1.338 . S
C143 H147 0.931 . S
C144 N141 1.313 . S
C144 N145 1.344 . S
C144 H148 0.930 . S
N145 C142 1.377 . S
N145 C144 1.344 . S
O146 Co138 2.055 . S
O146 C150 1.253 . S
H147 C143 0.931 . S
H148 C144 0.930 . S
O149 Co138 2.039 . S
O149 C139 1.265 . S
C150 O146 1.253 . S
C150 O151 1.227 . S
O151 C150 1.227 . S
N152 Co138 2.140 . S
N152 C155 1.346 . S
N152 C156 1.345 . S
C153 C154 1.387 . S
C153 C157 1.391 . S
C154 C153 1.387 . S
C154 C155 1.369 . S
C154 H163 0.929 . S
C155 N152 1.346 . S
C155 C154 1.369 . S
C155 H158 0.928 . S
C156 N152 1.345 . S
C156 C157 1.371 . S
C156 H159 0.931 . S
C157 C153 1.391 . S
C157 C156 1.371 . S
C157 H164 0.930 . S
H158 C155 0.928 . S
H159 C156 0.931 . S
H160 C136 0.930 . S
H161 C133 0.930 . S
H162 C142 0.930 . S
H163 C154 0.929 . S
H164 C157 0.930 . S
C165 C166 1.351 . S
C165 N168 1.368 . S
C165 H170 0.931 . S
C166 C165 1.351 . S
C166 N167 1.373 . S
C166 H194 0.930 . S
N167 C166 1.373 . S
N167 C169 1.340 . S
N168 C165 1.368 . S
N168 C169 1.321 . S
N168 Co171 2.135 . S
C169 N167 1.340 . S
C169 N168 1.321 . S
C169 H193 0.930 . S
H170 C165 0.931 . S
Co171 N168 2.135 . S
Co171 N174 2.121 . S
Co171 O179 2.055 . S
Co171 O182 2.039 . S
Co171 N185 2.140 . S
C172 O173 1.227 . S
C172 O182 1.265 . S
O173 C172 1.227 . S
N174 Co171 2.121 . S
N174 C176 1.375 . S
N174 C177 1.313 . S
C175 C176 1.338 . S
C175 N178 1.377 . S
C175 H195 0.930 . S
C176 N174 1.375 . S
C176 C175 1.338 . S
C176 H180 0.931 . S
C177 N174 1.313 . S
C177 N178 1.344 . S
C177 H181 0.930 . S
N178 C175 1.377 . S
N178 C177 1.344 . S
O179 Co171 2.055 . S
O179 C183 1.253 . S
H180 C176 0.931 . S
H181 C177 0.930 . S
O182 Co171 2.039 . S
O182 C172 1.265 . S
C183 O179 1.253 . S
C183 O184 1.227 . S
O184 C183 1.227 . S
N185 Co171 2.140 . S
N185 C188 1.346 . S
N185 C189 1.345 . S
C186 C187 1.387 . S
C186 C190 1.391 . S
C187 C186 1.387 . S
C187 C188 1.369 . S
C187 H196 0.929 . S
C188 N185 1.346 . S
C188 C187 1.369 . S
C188 H191 0.928 . S
C189 N185 1.345 . S
C189 C190 1.371 . S
C189 H192 0.931 . S
C190 C186 1.391 . S
C190 C189 1.371 . S
C190 H197 0.930 . S
H191 C188 0.928 . S
H192 C189 0.931 . S
H193 C169 0.930 . S
H194 C166 0.930 . S
H195 C175 0.930 . S
H196 C187 0.929 . S
H197 C190 0.930 . S
C198 C199 1.351 1_556 S
C198 N201 1.368 . S
C198 H203 0.931 . S
C199 C198 1.351 1_554 S
C199 N200 1.373 . S
C199 H227 0.930 . S
N200 C199 1.373 . S
N200 C202 1.340 1_554 S
N201 C198 1.368 . S
N201 C202 1.321 . S
N201 Co204 2.135 . S
C202 N200 1.340 1_556 S
C202 N201 1.321 . S
C202 H226 0.930 . S
H203 C198 0.931 . S
Co204 N201 2.135 . S
Co204 N207 2.121 . S
Co204 O212 2.055 . S
Co204 O215 2.039 . S
Co204 N218 2.140 . S
C205 O206 1.227 . S
C205 O215 1.265 . S
O206 C205 1.227 . S
N207 Co204 2.121 . S
N207 C209 1.375 . S
N207 C210 1.313 . S
C208 C209 1.338 . S
C208 N211 1.377 . S
C208 H228 0.930 . S
C209 N207 1.375 . S
C209 C208 1.338 . S
C209 H213 0.931 . S
C210 N207 1.313 . S
C210 N211 1.344 . S
C210 H214 0.930 . S
N211 C208 1.377 . S
N211 C210 1.344 . S
O212 Co204 2.055 . S
O212 C216 1.253 . S
H213 C209 0.931 . S
H214 C210 0.930 . S
O215 Co204 2.039 . S
O215 C205 1.265 . S
C216 O212 1.253 . S
C216 O217 1.227 . S
O217 C216 1.227 . S
N218 Co204 2.140 . S
N218 C221 1.346 . S
N218 C222 1.345 . S
C219 C220 1.387 . S
C219 C223 1.391 . S
C220 C219 1.387 . S
C220 C221 1.369 . S
C220 H229 0.929 . S
C221 N218 1.346 . S
C221 C220 1.369 . S
C221 H224 0.928 . S
C222 N218 1.345 . S
C222 C223 1.371 . S
C222 H225 0.931 . S
C223 C219 1.391 . S
C223 C222 1.371 . S
C223 H230 0.930 . S
H224 C221 0.928 . S
H225 C222 0.931 . S
H226 C202 0.930 . S
H227 C199 0.930 . S
H228 C208 0.930 . S
H229 C220 0.929 . S
H230 C223 0.930 . S
C231 C232 1.351 . S
C231 N234 1.368 . S
C231 H236 0.931 . S
C232 C231 1.351 . S
C232 N233 1.373 . S
C232 H260 0.930 . S
N233 C232 1.373 . S
N233 C235 1.340 . S
N234 C231 1.368 . S
N234 C235 1.321 . S
N234 Co237 2.135 . S
C235 N233 1.340 . S
C235 N234 1.321 . S
C235 H259 0.930 . S
H236 C231 0.931 . S
Co237 N234 2.135 . S
Co237 N240 2.121 1_554 S
Co237 O245 2.055 . S
Co237 O248 2.039 . S
Co237 N251 2.140 . S
C238 O239 1.227 . S
C238 O248 1.265 . S
O239 C238 1.227 . S
N240 Co237 2.121 1_556 S
N240 C242 1.375 . S
N240 C243 1.313 . S
C241 C242 1.338 . S
C241 N244 1.377 . S
C241 H261 0.930 . S
C242 N240 1.375 . S
C242 C241 1.338 . S
C242 H246 0.931 . S
C243 N240 1.313 . S
C243 N244 1.344 . S
C243 H247 0.930 . S
N244 C241 1.377 . S
N244 C243 1.344 . S
O245 Co237 2.055 . S
O245 C249 1.253 . S
H246 C242 0.931 . S
H247 C243 0.930 . S
O248 Co237 2.039 . S
O248 C238 1.265 . S
C249 O245 1.253 . S
C249 O250 1.227 1_554 S
O250 C249 1.227 1_556 S
N251 Co237 2.140 . S
N251 C254 1.346 . S
N251 C255 1.345 1_554 S
C252 C253 1.387 . S
C252 C256 1.391 1_554 S
C253 C252 1.387 . S
C253 C254 1.369 . S
C253 H262 0.929 . S
C254 N251 1.346 . S
C254 C253 1.369 . S
C254 H257 0.928 . S
C255 N251 1.345 1_556 S
C255 C256 1.371 . S
C255 H258 0.931 . S
C256 C252 1.391 1_556 S
C256 C255 1.371 . S
C256 H263 0.930 . S
H257 C254 0.928 . S
H258 C255 0.931 . S
H259 C235 0.930 . S
H260 C232 0.930 . S
H261 C241 0.930 . S
H262 C253 0.929 . S
H263 C256 0.930 . S
C264 C265 1.391 . S
C264 C266 1.394 . S
C264 H280 0.931 . S
C265 C264 1.391 . S
C265 C269 1.376 . S
C266 C264 1.394 . S
C266 C267 1.369 . S
C266 C270 1.531 . S
C267 C266 1.369 . S
C267 C268 1.410 . S
C267 C275 1.503 . S
C268 C267 1.410 . S
C268 C269 1.392 . S
C268 C271 1.511 . S
C269 C265 1.376 . S
C269 C268 1.392 . S
C269 H281 0.929 . S
C270 C266 1.531 . S
C270 H282 0.960 . S
C270 H283 0.962 . S
C270 H284 0.960 . S
C271 C268 1.511 . S
C271 H285 0.961 . S
C271 H286 0.961 . S
C271 H287 0.961 . S
C272 C273 1.370 . S
C272 C274 1.363 . S
C272 H288 0.931 . S
C273 C272 1.370 . S
C273 C277 1.408 . S
C274 C272 1.363 . S
C274 C275 1.370 . S
C274 C278 1.524 . S
C275 C267 1.503 . S
C275 C274 1.370 . S
C275 C276 1.403 . S
C276 C275 1.403 . S
C276 C277 1.404 . S
C276 C279 1.539 . S
C277 C273 1.408 . S
C277 C276 1.404 . S
C277 H289 0.930 . S
C278 C274 1.524 . S
C278 H290 0.956 . S
C278 H291 0.961 . S
C278 H292 0.961 . S
C279 C276 1.539 . S
C279 H293 0.958 . S
C279 H294 0.961 . S
C279 H295 0.960 . S
H280 C264 0.931 . S
H281 C269 0.929 . S
H282 C270 0.960 . S
H283 C270 0.962 . S
H284 C270 0.960 . S
H285 C271 0.961 . S
H286 C271 0.961 . S
H287 C271 0.961 . S
H288 C272 0.931 . S
H289 C277 0.930 . S
H290 C278 0.956 . S
H291 C278 0.961 . S
H292 C278 0.961 . S
H293 C279 0.958 . S
H294 C279 0.961 . S
H295 C279 0.960 . S
C296 C297 1.391 . S
C296 C298 1.394 . S
C296 H312 0.931 . S
C297 C296 1.391 . S
C297 C301 1.376 . S
C298 C296 1.394 . S
C298 C299 1.369 . S
C298 C302 1.531 . S
C299 C298 1.369 . S
C299 C300 1.410 . S
C299 C307 1.503 . S
C300 C299 1.410 . S
C300 C301 1.392 . S
C300 C303 1.511 . S
C301 C297 1.376 . S
C301 C300 1.392 . S
C301 H313 0.929 . S
C302 C298 1.531 . S
C302 H314 0.960 . S
C302 H315 0.962 . S
C302 H316 0.960 . S
C303 C300 1.511 . S
C303 H317 0.961 . S
C303 H318 0.961 . S
C303 H319 0.961 . S
C304 C305 1.370 . S
C304 C306 1.363 . S
C304 H320 0.931 . S
C305 C304 1.370 . S
C305 C309 1.408 . S
C306 C304 1.363 . S
C306 C307 1.370 . S
C306 C310 1.524 . S
C307 C299 1.503 . S
C307 C306 1.370 . S
C307 C308 1.403 . S
C308 C307 1.403 . S
C308 C309 1.404 . S
C308 C311 1.539 . S
C309 C305 1.408 . S
C309 C308 1.404 . S
C309 H321 0.930 . S
C310 C306 1.524 . S
C310 H322 0.956 . S
C310 H323 0.961 . S
C310 H324 0.961 . S
C311 C308 1.539 . S
C311 H325 0.958 . S
C311 H326 0.961 . S
C311 H327 0.960 . S
H312 C296 0.931 . S
H313 C301 0.929 . S
H314 C302 0.960 . S
H315 C302 0.962 . S
H316 C302 0.960 . S
H317 C303 0.961 . S
H318 C303 0.961 . S
H319 C303 0.961 . S
H320 C304 0.931 . S
H321 C309 0.930 . S
H322 C310 0.956 . S
H323 C310 0.961 . S
H324 C310 0.961 . S
H325 C311 0.958 . S
H326 C311 0.961 . S
H327 C311 0.960 . S
C328 C329 1.391 . S
C328 C330 1.394 . S
C328 H344 0.931 . S
C329 C328 1.391 . S
C329 C333 1.376 . S
C330 C328 1.394 . S
C330 C331 1.369 . S
C330 C334 1.531 . S
C331 C330 1.369 . S
C331 C332 1.410 . S
C331 C339 1.503 . S
C332 C331 1.410 . S
C332 C333 1.392 . S
C332 C335 1.511 . S
C333 C329 1.376 . S
C333 C332 1.392 . S
C333 H345 0.929 . S
C334 C330 1.531 . S
C334 H346 0.960 . S
C334 H347 0.962 . S
C334 H348 0.960 . S
C335 C332 1.511 . S
C335 H349 0.961 . S
C335 H350 0.961 . S
C335 H351 0.961 1_556 S
C336 C337 1.370 . S
C336 C338 1.363 . S
C336 H352 0.931 . S
C337 C336 1.370 . S
C337 C341 1.408 . S
C338 C336 1.363 . S
C338 C339 1.370 . S
C338 C342 1.524 . S
C339 C331 1.503 . S
C339 C338 1.370 . S
C339 C340 1.403 . S
C340 C339 1.403 . S
C340 C341 1.404 . S
C340 C343 1.539 . S
C341 C337 1.408 . S
C341 C340 1.404 . S
C341 H353 0.930 1_556 S
C342 C338 1.524 . S
C342 H354 0.956 . S
C342 H355 0.961 . S
C342 H356 0.961 . S
C343 C340 1.539 . S
C343 H357 0.958 . S
C343 H358 0.961 . S
C343 H359 0.960 . S
H344 C328 0.931 . S
H345 C333 0.929 . S
H346 C334 0.960 . S
H347 C334 0.962 . S
H348 C334 0.960 . S
H349 C335 0.961 . S
H350 C335 0.961 . S
H351 C335 0.961 1_554 S
H352 C336 0.931 . S
H353 C341 0.930 1_554 S
H354 C342 0.956 . S
H355 C342 0.961 . S
H356 C342 0.961 . S
H357 C343 0.958 . S
H358 C343 0.961 . S
H359 C343 0.960 . S
C360 C361 1.391 . S
C360 C362 1.394 . S
C360 H376 0.931 . S
C361 C360 1.391 . S
C361 C365 1.376 . S
C362 C360 1.394 . S
C362 C363 1.369 . S
C362 C366 1.531 . S
C363 C362 1.369 . S
C363 C364 1.410 . S
C363 C371 1.503 . S
C364 C363 1.410 . S
C364 C365 1.392 . S
C364 C367 1.511 . S
C365 C361 1.376 . S
C365 C364 1.392 . S
C365 H377 0.929 . S
C366 C362 1.531 . S
C366 H378 0.960 . S
C366 H379 0.962 . S
C366 H380 0.960 . S
C367 C364 1.511 . S
C367 H381 0.961 . S
C367 H382 0.961 . S
C367 H383 0.961 . S
C368 C369 1.370 . S
C368 C370 1.363 . S
C368 H384 0.931 . S
C369 C368 1.370 . S
C369 C373 1.408 1_554 S
C370 C368 1.363 . S
C370 C371 1.370 . S
C370 C374 1.524 . S
C371 C363 1.503 . S
C371 C370 1.370 . S
C371 C372 1.403 . S
C372 C371 1.403 . S
C372 C373 1.404 1_554 S
C372 C375 1.539 1_554 S
C373 C369 1.408 1_556 S
C373 C372 1.404 1_556 S
C373 H385 0.930 . S
C374 C370 1.524 . S
C374 H386 0.956 . S
C374 H387 0.961 . S
C374 H388 0.961 . S
C375 C372 1.539 1_556 S
C375 H389 0.958 . S
C375 H390 0.961 . S
C375 H391 0.963 . S
H376 C360 0.931 . S
H377 C365 0.929 . S
H378 C366 0.960 . S
H379 C366 0.962 . S
H380 C366 0.960 . S
H381 C367 0.961 . S
H382 C367 0.961 . S
H383 C367 0.961 . S
H384 C368 0.931 . S
H385 C373 0.930 . S
H386 C374 0.956 . S
H387 C374 0.961 . S
H388 C374 0.961 . S
H389 C375 0.958 . S
H390 C375 0.961 . S
H391 C375 0.963 . S
C392 C393 1.391 . S
C392 C394 1.394 . S
C392 H408 0.931 . S
C393 C392 1.391 . S
C393 C397 1.376 . S
C394 C392 1.394 . S
C394 C395 1.369 . S
C394 C398 1.531 . S
C395 C394 1.369 . S
C395 C396 1.410 . S
C395 C403 1.503 . S
C396 C395 1.410 . S
C396 C397 1.392 . S
C396 C399 1.511 . S
C397 C393 1.376 . S
C397 C396 1.392 . S
C397 H409 0.929 . S
C398 C394 1.531 . S
C398 H410 0.960 . S
C398 H411 0.962 . S
C398 H412 0.960 . S
C399 C396 1.511 . S
C399 H413 0.961 . S
C399 H414 0.961 . S
C399 H415 0.961 . S
C400 C401 1.370 . S
C400 C402 1.363 . S
C400 H416 0.931 . S
C401 C400 1.370 . S
C401 C405 1.408 . S
C402 C400 1.363 . S
C402 C403 1.370 . S
C402 C406 1.524 . S
C403 C395 1.503 . S
C403 C402 1.370 . S
C403 C404 1.403 . S
C404 C403 1.403 . S
C404 C405 1.404 . S
C404 C407 1.539 . S
C405 C401 1.408 . S
C405 C404 1.404 . S
C405 H417 0.930 . S
C406 C402 1.524 . S
C406 H418 0.956 . S
C406 H419 0.961 . S
C406 H420 0.961 . S
C407 C404 1.539 . S
C407 H421 0.958 . S
C407 H422 0.961 . S
C407 H423 0.960 . S
H408 C392 0.931 . S
H409 C397 0.929 . S
H410 C398 0.960 . S
H411 C398 0.962 . S
H412 C398 0.960 . S
H413 C399 0.961 . S
H414 C399 0.961 . S
H415 C399 0.961 . S
H416 C400 0.931 . S
H417 C405 0.930 . S
H418 C406 0.956 . S
H419 C406 0.961 . S
H420 C406 0.961 . S
H421 C407 0.958 . S
H422 C407 0.961 . S
H423 C407 0.960 . S
C424 C425 1.391 . S
C424 C426 1.394 . S
C424 H440 0.931 . S
C425 C424 1.391 . S
C425 C429 1.376 . S
C426 C424 1.394 . S
C426 C427 1.369 1_554 S
C426 C430 1.531 . S
C427 C426 1.369 1_556 S
C427 C428 1.410 1_556 S
C427 C435 1.503 . S
C428 C427 1.410 1_554 S
C428 C429 1.392 . S
C428 C431 1.511 1_554 S
C429 C425 1.376 . S
C429 C428 1.392 . S
C429 H441 0.929 . S
C430 C426 1.531 . S
C430 H442 0.960 1_554 S
C430 H443 0.962 . S
C430 H444 0.960 . S
C431 C428 1.511 1_556 S
C431 H445 0.961 . S
C431 H446 0.961 . S
C431 H447 0.961 . S
C432 C433 1.370 . S
C432 C434 1.363 . S
C432 H448 0.931 . S
C433 C432 1.370 . S
C433 C437 1.408 . S
C434 C432 1.363 . S
C434 C435 1.370 . S
C434 C438 1.524 . S
C435 C427 1.503 . S
C435 C434 1.370 . S
C435 C436 1.403 . S
C436 C435 1.403 . S
C436 C437 1.404 . S
C436 C439 1.539 . S
C437 C433 1.408 . S
C437 C436 1.404 . S
C437 H449 0.930 . S
C438 C434 1.524 . S
C438 H450 0.956 . S
C438 H451 0.961 . S
C438 H452 0.961 . S
C439 C436 1.539 . S
C439 H453 0.958 . S
C439 H454 0.961 . S
C439 H455 0.960 . S
H440 C424 0.931 . S
H441 C429 0.929 . S
H442 C430 0.960 1_556 S
H443 C430 0.962 . S
H444 C430 0.960 . S
H445 C431 0.961 . S
H446 C431 0.961 . S
H447 C431 0.961 . S
H448 C432 0.931 . S
H449 C437 0.930 . S
H450 C438 0.956 . S
H451 C438 0.961 . S
H452 C438 0.961 . S
H453 C439 0.958 . S
H454 C439 0.961 . S
H455 C439 0.960 . S
C456 C457 1.391 1_554 S
C456 C458 1.394 . S
C456 H472 0.931 1_554 S
C457 C456 1.391 1_556 S
C457 C461 1.376 1_556 S
C458 C456 1.394 . S
C458 C459 1.369 . S
C458 C462 1.531 . S
C459 C458 1.369 . S
C459 C460 1.410 . S
C459 C467 1.503 . S
C460 C459 1.410 . S
C460 C461 1.392 . S
C460 C463 1.511 . S
C461 C457 1.376 1_554 S
C461 C460 1.392 . S
C461 H473 0.929 . S
C462 C458 1.531 . S
C462 H474 0.960 . S
C462 H475 0.962 . S
C462 H476 0.960 . S
C463 C460 1.511 . S
C463 H477 0.961 . S
C463 H478 0.961 . S
C463 H479 0.961 . S
C464 C465 1.370 . S
C464 C466 1.363 . S
C464 H480 0.931 . S
C465 C464 1.370 . S
C465 C469 1.408 . S
C466 C464 1.363 . S
C466 C467 1.370 . S
C466 C470 1.524 . S
C467 C459 1.503 . S
C467 C466 1.370 . S
C467 C468 1.403 . S
C468 C467 1.403 . S
C468 C469 1.404 . S
C468 C471 1.539 . S
C469 C465 1.408 . S
C469 C468 1.404 . S
C469 H481 0.930 . S
C470 C466 1.524 . S
C470 H482 0.956 . S
C470 H483 0.961 . S
C470 H484 0.961 . S
C471 C468 1.539 . S
C471 H485 0.958 . S
C471 H486 0.961 . S
C471 H487 0.960 . S
H472 C456 0.931 1_556 S
H473 C461 0.929 . S
H474 C462 0.960 . S
H475 C462 0.962 . S
H476 C462 0.960 . S
H477 C463 0.961 . S
H478 C463 0.961 . S
H479 C463 0.961 . S
H480 C464 0.931 . S
H481 C469 0.930 . S
H482 C470 0.956 . S
H483 C470 0.961 . S
H484 C470 0.961 . S
H485 C471 0.958 . S
H486 C471 0.961 . S
H487 C471 0.960 . S
C488 C489 1.391 . S
C488 C490 1.394 . S
C488 H504 0.931 . S
C489 C488 1.391 . S
C489 C493 1.376 . S
C490 C488 1.394 . S
C490 C491 1.369 . S
C490 C494 1.531 . S
C491 C490 1.369 . S
C491 C492 1.410 . S
C491 C499 1.503 . S
C492 C491 1.410 . S
C492 C493 1.392 . S
C492 C495 1.511 . S
C493 C489 1.376 . S
C493 C492 1.392 . S
C493 H505 0.929 . S
C494 C490 1.531 . S
C494 H506 0.960 . S
C494 H507 0.962 . S
C494 H508 0.960 . S
C495 C492 1.511 . S
C495 H509 0.961 . S
C495 H510 0.961 . S
C495 H511 0.961 . S
C496 C497 1.370 . S
C496 C498 1.363 . S
C496 H512 0.931 . S
C497 C496 1.370 . S
C497 C501 1.408 . S
C498 C496 1.363 . S
C498 C499 1.370 . S
C498 C502 1.524 . S
C499 C491 1.503 . S
C499 C498 1.370 . S
C499 C500 1.403 . S
C500 C499 1.403 . S
C500 C501 1.404 . S
C500 C503 1.539 . S
C501 C497 1.408 . S
C501 C500 1.404 . S
C501 H513 0.930 . S
C502 C498 1.524 . S
C502 H514 0.956 . S
C502 H515 0.961 . S
C502 H516 0.961 . S
C503 C500 1.539 . S
C503 H517 0.958 . S
C503 H518 0.961 . S
C503 H519 0.960 . S
H504 C488 0.931 . S
H505 C493 0.929 . S
H506 C494 0.960 . S
H507 C494 0.962 . S
H508 C494 0.960 . S
H509 C495 0.961 . S
H510 C495 0.961 . S
H511 C495 0.961 . S
H512 C496 0.931 . S
H513 C501 0.930 . S
H514 C502 0.956 . S
H515 C502 0.961 . S
H516 C502 0.961 . S
H517 C503 0.958 . S
H518 C503 0.961 . S
H519 C503 0.960 . S
C520 C521 1.391 1_556 S
C520 C522 1.394 . S
C520 H536 0.931 . S
C521 C520 1.391 1_554 S
C521 C525 1.376 1_554 S
C522 C520 1.394 . S
C522 C523 1.369 . S
C522 C526 1.531 . S
C523 C522 1.369 . S
C523 C524 1.410 . S
C523 C531 1.503 . S
C524 C523 1.410 . S
C524 C525 1.392 . S
C524 C527 1.511 . S
C525 C521 1.376 1_556 S
C525 C524 1.392 . S
C525 H537 0.929 1_556 S
C526 C522 1.531 . S
C526 H538 0.960 . S
C526 H539 0.962 . S
C526 H540 0.960 . S
C527 C524 1.511 . S
C527 H541 0.961 . S
C527 H542 0.961 . S
C527 H543 0.961 . S
C528 C529 1.370 . S
C528 C530 1.363 . S
C528 H544 0.931 . S
C529 C528 1.370 . S
C529 C533 1.408 . S
C530 C528 1.363 . S
C530 C531 1.370 . S
C530 C534 1.524 . S
C531 C523 1.503 . S
C531 C530 1.370 . S
C531 C532 1.403 . S
C532 C531 1.403 . S
C532 C533 1.404 . S
C532 C535 1.539 . S
C533 C529 1.408 . S
C533 C532 1.404 . S
C533 H545 0.930 . S
C534 C530 1.524 . S
C534 H546 0.956 . S
C534 H547 0.961 . S
C534 H548 0.961 . S
C535 C532 1.539 . S
C535 H549 0.958 . S
C535 H550 0.961 . S
C535 H551 0.960 . S
H536 C520 0.931 . S
H537 C525 0.929 1_554 S
H538 C526 0.960 . S
H539 C526 0.962 . S
H540 C526 0.960 . S
H541 C527 0.961 . S
H542 C527 0.961 . S
H543 C527 0.961 . S
H544 C528 0.931 . S
H545 C533 0.930 . S
H546 C534 0.956 . S
H547 C534 0.961 . S
H548 C534 0.961 . S
H549 C535 0.958 . S
H550 C535 0.961 . S
H551 C535 0.960 . S
C552 C553 1.391 . S
C552 C554 1.394 . S
C552 H568 0.931 . S
C553 C552 1.391 . S
C553 C557 1.376 . S
C554 C552 1.394 . S
C554 C555 1.369 . S
C554 C558 1.531 . S
C555 C554 1.369 . S
C555 C556 1.410 . S
C555 C563 1.503 . S
C556 C555 1.410 . S
C556 C557 1.392 . S
C556 C559 1.511 . S
C557 C553 1.376 . S
C557 C556 1.392 . S
C557 H569 0.929 . S
C558 C554 1.531 . S
C558 H570 0.960 . S
C558 H571 0.962 . S
C558 H572 0.960 . S
C559 C556 1.511 . S
C559 H573 0.961 . S
C559 H574 0.961 . S
C559 H575 0.961 . S
C560 C561 1.370 . S
C560 C562 1.363 . S
C560 H576 0.931 . S
C561 C560 1.370 . S
C561 C565 1.408 . S
C562 C560 1.363 . S
C562 C563 1.370 1_556 S
C562 C566 1.524 1_556 S
C563 C555 1.503 . S
C563 C562 1.370 1_554 S
C563 C564 1.403 1_554 S
C564 C563 1.403 1_556 S
C564 C565 1.404 . S
C564 C567 1.539 1_556 S
C565 C561 1.408 . S
C565 C564 1.404 . S
C565 H577 0.930 . S
C566 C562 1.524 1_554 S
C566 H578 0.956 . S
C566 H579 0.961 . S
C566 H580 0.961 1_554 S
C567 C564 1.539 1_554 S
C567 H581 0.958 . S
C567 H582 0.961 1_554 S
C567 H583 0.960 . S
H568 C552 0.931 . S
H569 C557 0.929 . S
H570 C558 0.960 . S
H571 C558 0.962 . S
H572 C558 0.960 . S
H573 C559 0.961 . S
H574 C559 0.961 . S
H575 C559 0.961 . S
H576 C560 0.931 . S
H577 C565 0.930 . S
H578 C566 0.956 . S
H579 C566 0.961 . S
H580 C566 0.961 1_556 S
H581 C567 0.958 . S
H582 C567 0.961 1_556 S
H583 C567 0.960 . S
C584 C585 1.391 . S
C584 C586 1.394 . S
C584 H600 0.931 . S
C585 C584 1.391 . S
C585 C589 1.376 . S
C586 C584 1.394 . S
C586 C587 1.369 . S
C586 C590 1.531 . S
C587 C586 1.369 . S
C587 C588 1.410 . S
C587 C595 1.503 . S
C588 C587 1.410 . S
C588 C589 1.392 . S
C588 C591 1.511 . S
C589 C585 1.376 . S
C589 C588 1.392 . S
C589 H601 0.929 . S
C590 C586 1.531 . S
C590 H602 0.960 . S
C590 H603 0.962 . S
C590 H604 0.960 . S
C591 C588 1.511 . S
C591 H605 0.961 . S
C591 H606 0.961 . S
C591 H607 0.961 . S
C592 C593 1.370 . S
C592 C594 1.363 . S
C592 H608 0.931 . S
C593 C592 1.370 . S
C593 C597 1.408 . S
C594 C592 1.363 . S
C594 C595 1.370 . S
C594 C598 1.524 . S
C595 C587 1.503 . S
C595 C594 1.370 . S
C595 C596 1.403 . S
C596 C595 1.403 . S
C596 C597 1.404 . S
C596 C599 1.539 . S
C597 C593 1.408 . S
C597 C596 1.404 . S
C597 H609 0.930 . S
C598 C594 1.524 . S
C598 H610 0.956 . S
C598 H611 0.961 . S
C598 H612 0.961 . S
C599 C596 1.539 . S
C599 H613 0.958 . S
C599 H614 0.961 . S
C599 H615 0.960 . S
H600 C584 0.931 . S
H601 C589 0.929 . S
H602 C590 0.960 . S
H603 C590 0.962 . S
H604 C590 0.960 . S
H605 C591 0.961 . S
H606 C591 0.961 . S
H607 C591 0.961 . S
H608 C592 0.931 . S
H609 C597 0.930 . S
H610 C598 0.956 . S
H611 C598 0.961 . S
H612 C598 0.961 . S
H613 C599 0.958 . S
H614 C599 0.961 . S
H615 C599 0.960 . S
C616 C617 1.391 . S
C616 C618 1.394 . S
C616 H632 0.931 . S
C617 C616 1.391 . S
C617 C621 1.376 . S
C618 C616 1.394 . S
C618 C619 1.369 . S
C618 C622 1.531 . S
C619 C618 1.369 . S
C619 C620 1.410 . S
C619 C627 1.503 . S
C620 C619 1.410 . S
C620 C621 1.392 . S
C620 C623 1.511 . S
C621 C617 1.376 . S
C621 C620 1.392 . S
C621 H633 0.929 . S
C622 C618 1.531 . S
C622 H634 0.960 . S
C622 H635 0.962 . S
C622 H636 0.960 . S
C623 C620 1.511 . S
C623 H637 0.961 . S
C623 H638 0.961 . S
C623 H639 0.961 . S
C624 C625 1.370 . S
C624 C626 1.363 . S
C624 H640 0.931 . S
C625 C624 1.370 . S
C625 C629 1.408 . S
C626 C624 1.363 . S
C626 C627 1.370 . S
C626 C630 1.524 . S
C627 C619 1.503 . S
C627 C626 1.370 . S
C627 C628 1.403 . S
C628 C627 1.403 . S
C628 C629 1.404 . S
C628 C631 1.539 . S
C629 C625 1.408 . S
C629 C628 1.404 . S
C629 H641 0.930 . S
C630 C626 1.524 . S
C630 H642 0.956 . S
C630 H643 0.961 . S
C630 H644 0.961 . S
C631 C628 1.539 . S
C631 H645 0.958 . S
C631 H646 0.961 . S
C631 H647 0.960 . S
H632 C616 0.931 . S
H633 C621 0.929 . S
H634 C622 0.960 . S
H635 C622 0.962 . S
H636 C622 0.960 . S
H637 C623 0.961 . S
H638 C623 0.961 . S
H639 C623 0.961 . S
H640 C624 0.931 . S
H641 C629 0.930 . S
H642 C630 0.956 . S
H643 C630 0.961 . S
H644 C630 0.961 . S
H645 C631 0.958 . S
H646 C631 0.961 . S
H647 C631 0.960 . S
C648 C649 1.391 . S
C648 C650 1.389 1_554 S
C648 H664 0.931 . S
C649 C648 1.391 . S
C649 C653 1.376 . S
C650 C648 1.389 1_556 S
C650 C651 1.366 1_556 S
C650 C654 1.539 . S
C651 C650 1.366 1_554 S
C651 C652 1.410 . S
C651 C659 1.503 1_454 S
C652 C651 1.410 . S
C652 C653 1.392 . S
C652 C655 1.511 1_455 S
C653 C649 1.376 . S
C653 C652 1.392 . S
C653 H665 0.929 . S
C654 C650 1.539 . S
C654 H666 0.960 . S
C654 H667 0.962 . S
C654 H668 0.960 . S
C655 C652 1.511 1_655 S
C655 H669 0.961 . S
C655 H670 0.961 . S
C655 H671 0.961 . S
C656 C657 1.370 . S
C656 C658 1.363 . S
C656 H672 0.931 . S
C657 C656 1.370 . S
C657 C661 1.408 . S
C658 C656 1.363 . S
C658 C659 1.370 . S
C658 C662 1.502 1_655 S
C659 C651 1.503 1_656 S
C659 C658 1.370 . S
C659 C660 1.403 . S
C660 C659 1.403 . S
C660 C661 1.404 . S
C660 C663 1.539 1_556 S
C661 C657 1.408 . S
C661 C660 1.404 . S
C661 H673 0.930 . S
C662 C658 1.502 1_455 S
C662 H674 0.988 . S
C662 H675 0.966 . S
C662 H676 0.947 1_455 S
C663 C660 1.539 1_554 S
C663 H677 0.958 1_554 S
C663 H678 0.961 . S
C663 H679 0.960 . S
H664 C648 0.931 . S
H665 C653 0.929 . S
H666 C654 0.960 . S
H667 C654 0.962 . S
H668 C654 0.960 . S
H669 C655 0.961 . S
H670 C655 0.961 . S
H671 C655 0.961 . S
H672 C656 0.931 . S
H673 C661 0.930 . S
H674 C662 0.988 . S
H675 C662 0.966 . S
H676 C662 0.947 1_655 S
H677 C663 0.958 1_556 S
H678 C663 0.961 . S
H679 C663 0.960 . S
C680 C681 1.391 . S
C680 C682 1.394 . S
C680 H696 0.931 . S
C681 C680 1.391 . S
C681 C685 1.376 . S
C682 C680 1.394 . S
C682 C683 1.369 . S
C682 C686 1.531 . S
C683 C682 1.369 . S
C683 C684 1.410 . S
C683 C691 1.503 1_565 S
C684 C683 1.410 . S
C684 C685 1.392 . S
C684 C687 1.511 1_565 S
C685 C681 1.376 . S
C685 C684 1.392 . S
C685 H697 0.929 . S
C686 C682 1.531 . S
C686 H698 0.960 . S
C686 H699 0.962 . S
C686 H700 0.960 . S
C687 C684 1.511 1_545 S
C687 H701 0.961 . S
C687 H702 0.961 . S
C687 H703 0.961 1_545 S
C688 C689 1.370 . S
C688 C690 1.363 . S
C688 H704 0.931 . S
C689 C688 1.370 . S
C689 C693 1.408 . S
C690 C688 1.363 . S
C690 C691 1.370 . S
C690 C694 1.524 . S
C691 C683 1.503 1_545 S
C691 C690 1.370 . S
C691 C692 1.403 . S
C692 C691 1.403 . S
C692 C693 1.404 . S
C692 C695 1.539 1_545 S
C693 C689 1.408 . S
C693 C692 1.404 . S
C693 H705 0.930 . S
C694 C690 1.524 . S
C694 H706 0.956 . S
C694 H707 0.961 . S
C694 H708 0.961 . S
C695 C692 1.539 1_565 S
C695 H709 0.958 . S
C695 H710 0.961 . S
C695 H711 0.960 . S
H696 C680 0.931 . S
H697 C685 0.929 . S
H698 C686 0.960 . S
H699 C686 0.962 . S
H700 C686 0.960 . S
H701 C687 0.961 . S
H702 C687 0.961 . S
H703 C687 0.961 1_565 S
H704 C688 0.931 . S
H705 C693 0.930 . S
H706 C694 0.956 . S
H707 C694 0.961 . S
H708 C694 0.961 . S
H709 C695 0.958 . S
H710 C695 0.961 . S
H711 C695 0.960 . S
C712 C713 1.391 . S
C712 C714 1.394 . S
C712 H728 0.931 . S
C713 C712 1.391 . S
C713 C717 1.376 . S
C714 C712 1.394 . S
C714 C715 1.369 . S
C714 C718 1.531 1_455 S
C715 C714 1.369 . S
C715 C716 1.410 . S
C715 C723 1.503 1_455 S
C716 C715 1.410 . S
C716 C717 1.392 . S
C716 C719 1.511 . S
C717 C713 1.376 . S
C717 C716 1.392 . S
C717 H729 0.929 . S
C718 C714 1.531 1_655 S
C718 H730 0.960 . S
C718 H731 0.962 . S
C718 H732 0.960 . S
C719 C716 1.511 . S
C719 H733 0.961 . S
C719 H734 0.961 . S
C719 H735 0.961 . S
C720 C721 1.370 . S
C720 C722 1.363 . S
C720 H736 0.931 . S
C721 C720 1.370 . S
C721 C725 1.408 . S
C722 C720 1.363 . S
C722 C723 1.370 . S
C722 C726 1.524 . S
C723 C715 1.503 1_655 S
C723 C722 1.370 . S
C723 C724 1.403 . S
C724 C723 1.403 . S
C724 C725 1.404 . S
C724 C727 1.539 . S
C725 C721 1.408 . S
C725 C724 1.404 . S
C725 H737 0.930 . S
C726 C722 1.524 . S
C726 H738 0.956 . S
C726 H739 0.961 1_655 S
C726 H740 0.961 . S
C727 C724 1.539 . S
C727 H741 0.958 . S
C727 H742 0.961 . S
C727 H743 0.960 1_655 S
H728 C712 0.931 . S
H729 C717 0.929 . S
H730 C718 0.960 . S
H731 C718 0.962 . S
H732 C718 0.960 . S
H733 C719 0.961 . S
H734 C719 0.961 . S
H735 C719 0.961 . S
H736 C720 0.931 . S
H737 C725 0.930 . S
H738 C726 0.956 . S
H739 C726 0.961 1_455 S
H740 C726 0.961 . S
H741 C727 0.958 . S
H742 C727 0.961 . S
H743 C727 0.960 1_455 S
C744 C745 1.391 . S
C744 C746 1.394 . S
C744 H760 0.931 . S
C745 C744 1.391 . S
C745 C749 1.376 . S
C746 C744 1.394 . S
C746 C747 1.369 . S
C746 C750 1.531 . S
C747 C746 1.369 . S
C747 C748 1.410 . S
C747 C755 1.503 1_565 S
C748 C747 1.410 . S
C748 C749 1.392 . S
C748 C751 1.511 1_565 S
C749 C745 1.376 . S
C749 C748 1.392 . S
C749 H761 0.929 . S
C750 C746 1.531 . S
C750 H762 0.960 . S
C750 H763 0.962 . S
C750 H764 0.960 . S
C751 C748 1.511 1_545 S
C751 H765 0.961 . S
C751 H766 0.961 . S
C751 H767 0.961 . S
C752 C753 1.370 . S
C752 C754 1.363 . S
C752 H768 0.931 . S
C753 C752 1.370 . S
C753 C757 1.408 . S
C754 C752 1.363 . S
C754 C755 1.370 . S
C754 C758 1.524 . S
C755 C747 1.503 1_545 S
C755 C754 1.370 . S
C755 C756 1.403 . S
C756 C755 1.403 . S
C756 C757 1.404 . S
C756 C759 1.529 1_545 S
C757 C753 1.408 . S
C757 C756 1.404 . S
C757 H769 0.930 . S
C758 C754 1.524 . S
C758 H770 0.956 . S
C758 H771 0.961 . S
C758 H772 0.961 . S
C759 C756 1.529 1_565 S
C759 H773 0.970 . S
C759 H774 0.951 1_565 S
C759 H775 0.969 . S
H760 C744 0.931 . S
H761 C749 0.929 . S
H762 C750 0.960 . S
H763 C750 0.962 . S
H764 C750 0.960 . S
H765 C751 0.961 . S
H766 C751 0.961 . S
H767 C751 0.961 . S
H768 C752 0.931 . S
H769 C757 0.930 . S
H770 C758 0.956 . S
H771 C758 0.961 . S
H772 C758 0.961 . S
H773 C759 0.970 . S
H774 C759 0.951 1_545 S
H775 C759 0.969 . S
C776 C777 1.391 . S
C776 C778 1.394 . S
C776 H792 0.931 . S
C777 C776 1.391 . S
C777 C781 1.376 . S
C778 C776 1.394 . S
C778 C779 1.369 . S
C778 C782 1.531 . S
C779 C778 1.369 . S
C779 C780 1.410 . S
C779 C787 1.503 . S
C780 C779 1.410 . S
C780 C781 1.392 . S
C780 C783 1.511 . S
C781 C777 1.376 . S
C781 C780 1.392 . S
C781 H793 0.929 . S
C782 C778 1.531 . S
C782 H794 0.960 . S
C782 H795 0.962 . S
C782 H796 0.960 . S
C783 C780 1.511 . S
C783 H797 0.961 . S
C783 H798 0.961 . S
C783 H799 0.961 . S
C784 C785 1.370 . S
C784 C786 1.363 . S
C784 H800 0.931 . S
C785 C784 1.370 . S
C785 C789 1.408 . S
C786 C784 1.363 . S
C786 C787 1.370 . S
C786 C790 1.524 . S
C787 C779 1.503 . S
C787 C786 1.370 . S
C787 C788 1.403 . S
C788 C787 1.403 . S
C788 C789 1.404 . S
C788 C791 1.539 . S
C789 C785 1.408 . S
C789 C788 1.404 . S
C789 H801 0.930 . S
C790 C786 1.524 . S
C790 H802 0.956 . S
C790 H803 0.961 . S
C790 H804 0.961 . S
C791 C788 1.539 . S
C791 H805 0.958 . S
C791 H806 0.961 . S
C791 H807 0.960 . S
H792 C776 0.931 . S
H793 C781 0.929 . S
H794 C782 0.960 . S
H795 C782 0.962 . S
H796 C782 0.960 . S
H797 C783 0.961 . S
H798 C783 0.961 . S
H799 C783 0.961 . S
H800 C784 0.931 . S
H801 C789 0.930 . S
H802 C790 0.956 . S
H803 C790 0.961 . S
H804 C790 0.961 . S
H805 C791 0.958 . S
H806 C791 0.961 . S
H807 C791 0.960 . S
C808 C809 1.391 . S
C808 C810 1.394 . S
C808 H824 0.931 . S
C809 C808 1.391 . S
C809 C813 1.376 . S
C810 C808 1.394 . S
C810 C811 1.369 . S
C810 C814 1.531 . S
C811 C810 1.369 . S
C811 C812 1.410 . S
C811 C819 1.503 . S
C812 C811 1.410 . S
C812 C813 1.392 . S
C812 C815 1.511 . S
C813 C809 1.376 . S
C813 C812 1.392 . S
C813 H825 0.929 . S
C814 C810 1.531 . S
C814 H826 0.960 . S
C814 H827 0.962 . S
C814 H828 0.960 . S
C815 C812 1.511 . S
C815 H829 0.961 . S
C815 H830 0.961 . S
C815 H831 0.961 . S
C816 C817 1.370 . S
C816 C818 1.363 . S
C816 H832 0.931 . S
C817 C816 1.370 . S
C817 C821 1.408 . S
C818 C816 1.363 . S
C818 C819 1.370 . S
C818 C822 1.524 . S
C819 C811 1.503 . S
C819 C818 1.370 . S
C819 C820 1.403 . S
C820 C819 1.403 . S
C820 C821 1.404 . S
C820 C823 1.539 . S
C821 C817 1.408 . S
C821 C820 1.404 . S
C821 H833 0.930 . S
C822 C818 1.524 . S
C822 H834 0.956 . S
C822 H835 0.961 . S
C822 H836 0.961 . S
C823 C820 1.539 . S
C823 H837 0.958 . S
C823 H838 0.961 . S
C823 H839 0.960 . S
H824 C808 0.931 . S
H825 C813 0.929 . S
H826 C814 0.960 . S
H827 C814 0.962 . S
H828 C814 0.960 . S
H829 C815 0.961 . S
H830 C815 0.961 . S
H831 C815 0.961 . S
H832 C816 0.931 . S
H833 C821 0.930 . S
H834 C822 0.956 . S
H835 C822 0.961 . S
H836 C822 0.961 . S
H837 C823 0.958 . S
H838 C823 0.961 . S
H839 C823 0.960 . S
C840 C841 1.391 . S
C840 C842 1.394 . S
C840 H856 0.931 . S
C841 C840 1.391 . S
C841 C845 1.376 . S
C842 C840 1.394 . S
C842 C843 1.369 . S
C842 C846 1.531 . S
C843 C842 1.369 . S
C843 C844 1.410 . S
C843 C851 1.503 . S
C844 C843 1.410 . S
C844 C845 1.392 . S
C844 C847 1.511 . S
C845 C841 1.376 . S
C845 C844 1.392 . S
C845 H857 0.929 . S
C846 C842 1.531 . S
C846 H858 0.960 . S
C846 H859 0.962 . S
C846 H860 0.960 . S
C847 C844 1.511 . S
C847 H861 0.961 . S
C847 H862 0.961 . S
C847 H863 0.961 . S
C848 C849 1.370 . S
C848 C850 1.363 . S
C848 H864 0.931 . S
C849 C848 1.370 . S
C849 C853 1.408 . S
C850 C848 1.363 . S
C850 C851 1.370 . S
C850 C854 1.524 . S
C851 C843 1.503 . S
C851 C850 1.370 . S
C851 C852 1.403 . S
C852 C851 1.403 . S
C852 C853 1.404 . S
C852 C855 1.539 . S
C853 C849 1.408 . S
C853 C852 1.404 . S
C853 H865 0.930 . S
C854 C850 1.524 . S
C854 H866 0.956 . S
C854 H867 0.961 . S
C854 H868 0.961 . S
C855 C852 1.539 . S
C855 H869 0.958 . S
C855 H870 0.961 . S
C855 H871 0.960 . S
H856 C840 0.931 . S
H857 C845 0.929 . S
H858 C846 0.960 . S
H859 C846 0.962 . S
H860 C846 0.960 . S
H861 C847 0.961 . S
H862 C847 0.961 . S
H863 C847 0.961 . S
H864 C848 0.931 . S
H865 C853 0.930 . S
H866 C854 0.956 . S
H867 C854 0.961 . S
H868 C854 0.961 . S
H869 C855 0.958 . S
H870 C855 0.961 . S
H871 C855 0.960 . S
C872 C873 1.391 1_556 S
C872 C874 1.394 . S
C872 H888 0.931 . S
C873 C872 1.391 1_554 S
C873 C877 1.376 . S
C874 C872 1.394 . S
C874 C875 1.369 1_556 S
C874 C878 1.531 . S
C875 C874 1.369 1_554 S
C875 C876 1.410 . S
C875 C883 1.503 1_554 S
C876 C875 1.410 . S
C876 C877 1.392 . S
C876 C879 1.511 . S
C877 C873 1.376 . S
C877 C876 1.392 . S
C877 H889 0.929 . S
C878 C874 1.531 . S
C878 H890 0.960 . S
C878 H891 0.962 . S
C878 H892 0.960 . S
C879 C876 1.511 . S
C879 H893 0.961 . S
C879 H894 0.961 . S
C879 H895 0.961 . S
C880 C881 1.370 . S
C880 C882 1.364 . S
C880 H896 0.931 . S
C881 C880 1.370 . S
C881 C885 1.408 . S
C882 C880 1.364 . S
C882 C883 1.371 . S
C882 C886 1.523 1_556 S
C883 C875 1.503 1_556 S
C883 C882 1.371 . S
C883 C884 1.403 . S
C884 C883 1.403 . S
C884 C885 1.404 . S
C884 C887 1.539 . S
C885 C881 1.408 . S
C885 C884 1.404 . S
C885 H897 0.930 . S
C886 C882 1.523 1_554 S
C886 H898 0.956 1_554 S
C886 H899 0.961 . S
C886 H900 0.961 . S
C887 C884 1.539 . S
C887 H901 0.958 . S
C887 H902 0.961 . S
C887 H903 0.960 . S
H888 C872 0.931 . S
H889 C877 0.929 . S
H890 C878 0.960 . S
H891 C878 0.962 . S
H892 C878 0.960 . S
H893 C879 0.961 . S
H894 C879 0.961 . S
H895 C879 0.961 . S
H896 C880 0.931 . S
H897 C885 0.930 . S
H898 C886 0.956 1_556 S
H899 C886 0.961 . S
H900 C886 0.961 . S
H901 C887 0.958 . S
H902 C887 0.961 . S
H903 C887 0.960 . S
C265 C183 1.259 . S
C273 C18 1.230 . S
C297 C216 1.239 . S
C305 C51 1.235 . S
C329 C84 1.231 . S
C337 C249 1.243 1_556 S
C361 C150 1.214 . S
C369 C117 1.249 1_554 S
C393 N13 1.128 . S
C401 N2 1.102 . S
C425 N35 1.128 . S
C433 N46 1.103 . S
C457 N79 1.094 . S
C465 N68 1.116 . S
C489 N112 1.104 . S
C497 N101 1.113 . S
C521 N145 1.126 . S
C529 N134 1.103 . S
C553 N178 1.092 . S
C561 N167 1.118 . S
C585 N211 1.091 . S
C593 N200 1.118 . S
C617 N233 1.091 . S
C625 N244 1.118 . S
C649 C7 1.427 . S
C657 C205 1.402 . S
C681 C238 1.389 . S
C689 C40 1.415 . S
C713 C139 1.378 . S
C721 C73 1.393 . S
C745 C106 1.403 . S
C753 C172 1.412 . S
C777 C21 1.546 . S
C785 C153 1.542 . S
C809 C54 1.556 . S
C817 C186 1.547 . S
C841 C87 1.533 . S
C849 C219 1.550 . S
C873 C252 1.553 . S
C881 C120 1.553 . S
