# Generated by pormake.
# Topology uoc, (4)-cn, num edge types: 1
# Building blocks:
#     Node 0, Type 0, BuildingBlock: CEKHIL_clean_sbu_0, # of connection points: 4
#     Node 1, Type 0, BuildingBlock: CEKHIL_clean_sbu_0, # of connection points: 4
#     Node 2, Type 0, BuildingBlock: CEKHIL_clean_sbu_0, # of connection points: 4
#     Node 3, Type 0, BuildingBlock: CEKHIL_clean_sbu_0, # of connection points: 4
#     Node 4, Type 0, BuildingBlock: CEKHIL_clean_sbu_0, # of connection points: 4
#     Node 5, Type 0, BuildingBlock: CEKHIL_clean_sbu_0, # of connection points: 4
#     Node 6, Type 0, BuildingBlock: CEKHIL_clean_sbu_0, # of connection points: 4
#     Node 7, Type 0, BuildingBlock: CEKHIL_clean_sbu_0, # of connection points: 4
#     Edge 8, Type (0, 0), BuildingBlock: UVAHIK_clean_linker_0, # of connection points: 2
#     Edge 9, Type (0, 0), BuildingBlock: UVAHIK_clean_linker_0, # of connection points: 2
#     Edge 10, Type (0, 0), BuildingBlock: UVAHIK_clean_linker_0, # of connection points: 2
#     Edge 11, Type (0, 0), BuildingBlock: UVAHIK_clean_linker_0, # of connection points: 2
#     Edge 12, Type (0, 0), BuildingBlock: UVAHIK_clean_linker_0, # of connection points: 2
#     Edge 13, Type (0, 0), BuildingBlock: UVAHIK_clean_linker_0, # of connection points: 2
#     Edge 14, Type (0, 0), BuildingBlock: UVAHIK_clean_linker_0, # of connection points: 2
#     Edge 15, Type (0, 0), BuildingBlock: UVAHIK_clean_linker_0, # of connection points: 2
#     Edge 16, Type (0, 0), BuildingBlock: UVAHIK_clean_linker_0, # of connection points: 2
#     Edge 17, Type (0, 0), BuildingBlock: UVAHIK_clean_linker_0, # of connection points: 2
#     Edge 18, Type (0, 0), BuildingBlock: UVAHIK_clean_linker_0, # of connection points: 2
#     Edge 19, Type (0, 0), BuildingBlock: UVAHIK_clean_linker_0, # of connection points: 2
#     Edge 20, Type (0, 0), BuildingBlock: UVAHIK_clean_linker_0, # of connection points: 2
#     Edge 21, Type (0, 0), BuildingBlock: UVAHIK_clean_linker_0, # of connection points: 2
#     Edge 22, Type (0, 0), BuildingBlock: UVAHIK_clean_linker_0, # of connection points: 2
#     Edge 23, Type (0, 0), BuildingBlock: UVAHIK_clean_linker_0, # of connection points: 2
# Relax obj value: 0.097
# Max RMSD: 0.108
# Mean RMSD: 0.108
data_MOF--net-uoc--node1-CEKHIL_clean_sbu_0--edge1-UVAHIK_clean_linker_0
_symmetry_space_group_name_H-M    P1
_symmetry_Int_Tables_number       1
_symmetry_cell_setting            triclinic
loop_
_symmetry_equiv_pos_as_xyz
'x, y, z'
_cell_length_a     34.850859
_cell_length_b     34.84179
_cell_length_c     71.802501
_cell_angle_alpha  89.884894
_cell_angle_beta   90.026049
_cell_angle_gamma 92.515533
loop_
_atom_site_label
_atom_site_type_symbol
_atom_site_fract_x
_atom_site_fract_y
_atom_site_fract_z
_atom_type_partial_charge
Co0 Co 0.11689 0.26233 0.10609 0.0
O1 O 0.12279 0.31734 0.10665 0.0
O2 O 0.07104 0.28382 0.11628 0.0
C3 C 0.13817 0.25457 0.07686 0.0
O4 O 0.10037 0.20542 0.10689 0.0
Co5 Co 0.1891 0.21405 0.1022 0.0
O6 O 0.1508 0.17072 0.09897 0.0
C7 C 0.17321 0.25091 0.13793 0.0
C8 C 0.08848 0.31721 0.11364 0.0
C9 C 0.11531 0.17326 0.10288 0.0
O10 O 0.14009 0.25955 0.1317 0.0
O11 O 0.19866 0.23567 0.12781 0.0
O12 O 0.10291 0.26345 0.07989 0.0
O13 O 0.1603 0.25484 0.09133 0.0
Co14 Co 0.7635 0.61761 0.36446 0.0
O15 O 0.81846 0.62481 0.36467 0.0
O16 O 0.78667 0.57262 0.35439 0.0
C17 C 0.75341 0.63814 0.39363 0.0
O18 O 0.70703 0.59952 0.36282 0.0
Co19 Co 0.71261 0.68799 0.36792 0.0
O20 O 0.67032 0.64851 0.37065 0.0
C21 C 0.751 0.67342 0.33236 0.0
C22 C 0.81951 0.59075 0.35747 0.0
C23 C 0.67418 0.6133 0.36656 0.0
O24 O 0.76194 0.64132 0.33891 0.0
O25 O 0.73304 0.69761 0.34209 0.0
O26 O 0.76331 0.60318 0.39062 0.0
O27 O 0.75393 0.66054 0.37923 0.0
Co28 Co 0.37739 0.23205 0.60516 0.0
O29 O 0.3731 0.17686 0.60573 0.0
O30 O 0.42388 0.21191 0.61529 0.0
C31 C 0.35551 0.23937 0.57597 0.0
O32 O 0.39273 0.28927 0.60599 0.0
Co33 Co 0.30469 0.27955 0.60123 0.0
O34 O 0.34216 0.32338 0.59766 0.0
C35 C 0.32183 0.24394 0.6373 0.0
C36 C 0.40749 0.17805 0.6127 0.0
C37 C 0.37757 0.32126 0.60179 0.0
O38 O 0.35425 0.2339 0.63079 0.0
O39 O 0.29668 0.26029 0.6274 0.0
O40 O 0.39109 0.23148 0.57893 0.0
O41 O 0.33355 0.23868 0.5905 0.0
Co42 Co 0.73261 0.88052 0.86409 0.0
O43 O 0.67744 0.87647 0.8636 0.0
O44 O 0.71267 0.92691 0.8537 0.0
C45 C 0.73982 0.85925 0.8934 0.0
O46 O 0.78987 0.89558 0.86312 0.0
Co47 Co 0.7797 0.80765 0.86841 0.0
O48 O 0.82376 0.84498 0.87164 0.0
C49 C 0.74383 0.82398 0.83233 0.0
C50 C 0.67876 0.91071 0.85642 0.0
C51 C 0.82179 0.88034 0.86734 0.0
O52 O 0.73428 0.85675 0.83861 0.0
O53 O 0.75994 0.79893 0.84239 0.0
O54 O 0.73216 0.89483 0.89024 0.0
O55 O 0.73901 0.83697 0.879 0.0
Co56 Co 0.61604 0.762 0.60603 0.0
O57 O 0.62272 0.81702 0.60592 0.0
O58 O 0.57086 0.78464 0.61624 0.0
C59 C 0.63651 0.75254 0.57679 0.0
O60 O 0.59846 0.70537 0.60759 0.0
Co61 Co 0.68679 0.71173 0.60226 0.0
O62 O 0.64767 0.66911 0.59958 0.0
C63 C 0.67225 0.74965 0.63793 0.0
C64 C 0.58867 0.81768 0.61317 0.0
C65 C 0.61247 0.67266 0.60377 0.0
O66 O 0.63996 0.76036 0.63152 0.0
O67 O 0.69648 0.73201 0.62808 0.0
O68 O 0.60145 0.76201 0.5799 0.0
O69 O 0.65897 0.75304 0.59115 0.0
Co70 Co 0.26267 0.11873 0.86438 0.0
O71 O 0.31766 0.12547 0.86457 0.0
O72 O 0.28544 0.0735 0.85432 0.0
C73 C 0.25291 0.13945 0.89354 0.0
O74 O 0.20609 0.10109 0.86274 0.0
Co75 Co 0.21236 0.18949 0.86781 0.0
O76 O 0.16965 0.1504 0.87038 0.0
C77 C 0.25087 0.17474 0.83232 0.0
C78 C 0.31842 0.09139 0.85737 0.0
C79 C 0.17329 0.11514 0.86635 0.0
O80 O 0.26129 0.14242 0.83883 0.0
O81 O 0.2332 0.19913 0.84206 0.0
O82 O 0.2624 0.10435 0.89055 0.0
O83 O 0.25353 0.1618 0.87913 0.0
Co84 Co 0.8781 0.73266 0.10528 0.0
O85 O 0.87287 0.67749 0.10554 0.0
O86 O 0.92423 0.71148 0.11523 0.0
C87 C 0.85625 0.74111 0.07617 0.0
O88 O 0.89447 0.78961 0.10638 0.0
Co89 Co 0.80624 0.78148 0.10178 0.0
O90 O 0.84436 0.82489 0.0986 0.0
C91 C 0.82277 0.74433 0.13753 0.0
C92 C 0.90728 0.67794 0.11247 0.0
C93 C 0.87979 0.822 0.10252 0.0
O94 O 0.85513 0.73429 0.13096 0.0
O95 O 0.79778 0.76115 0.12773 0.0
O96 O 0.89166 0.73248 0.07903 0.0
O97 O 0.83435 0.74042 0.09072 0.0
Co98 Co 0.23356 0.37989 0.36397 0.0
O99 O 0.17843 0.37603 0.36301 0.0
O100 O 0.21412 0.42664 0.35369 0.0
C101 C 0.23969 0.35789 0.39323 0.0
O102 O 0.29086 0.39458 0.36355 0.0
Co103 Co 0.27974 0.30632 0.36826 0.0
O104 O 0.32416 0.34327 0.37167 0.0
C105 C 0.24427 0.32344 0.33223 0.0
C106 C 0.18008 0.41048 0.35608 0.0
C107 C 0.32256 0.37885 0.36769 0.0
O108 O 0.23623 0.35679 0.33836 0.0
O109 O 0.25861 0.29759 0.34248 0.0
O110 O 0.23221 0.39356 0.3902 0.0
O111 O 0.23921 0.33598 0.3787 0.0
C112 C 0.12513 0.24012 0.0434 0.0
C113 C 0.15145 0.24381 0.05816 0.0
C114 C 0.13738 0.23007 0.02564 0.0
C115 C 0.17318 0.22976 -0.01264 0.0
H116 H 0.24914 0.15264 0.98171 0.0
C117 C 0.23578 0.19154 0.91558 0.0
C118 C 0.24181 0.1526 0.91221 0.0
C119 C 0.22601 0.20388 0.93341 0.0
C120 C 0.22768 0.17402 0.98303 0.0
H121 H 0.21125 0.24001 0.06596 0.0
H122 H 0.2329 0.22315 0.0348 0.0
H123 H 0.22928 0.1713 0.01278 0.0
H124 H 0.24182 0.0959 0.92472 0.0
H125 H 0.22389 0.11717 0.95566 0.0
H126 H 0.17049 0.23145 0.95762 0.0
C127 C 0.20265 0.22741 0.03701 0.0
C128 C 0.21668 0.18511 0.00087 0.0
C129 C 0.19031 0.23726 0.05483 0.0
C130 C 0.23758 0.12617 0.92693 0.0
C131 C 0.22758 0.13842 0.9447 0.0
C132 C 0.18402 0.21853 0.96953 0.0
C133 C 0.1763 0.22373 0.02219 0.0
C134 C 0.1891 0.21293 0.00324 0.0
C135 C 0.22184 0.17745 0.94819 0.0
C136 C 0.21122 0.19033 0.96715 0.0
H137 H 0.09493 0.24476 0.04556 0.0
H138 H 0.11619 0.22678 0.01465 0.0
H139 H 0.15226 0.25169 -0.01132 0.0
H140 H 0.23899 0.21257 0.90449 0.0
H141 H 0.22225 0.23421 0.93565 0.0
C142 C 0.73905 0.71079 0.30318 0.0
C143 C 0.75902 0.68232 0.31254 0.0
C144 C 0.74581 0.71817 0.2843 0.0
C145 C 0.81757 0.70903 0.24748 0.0
H146 H 0.73099 0.71457 0.21377 0.0
C147 C 0.8379 0.71288 0.16792 0.0
C148 C 0.81451 0.73677 0.15747 0.0
C149 C 0.83076 0.70641 0.18682 0.0
C150 C 0.7555 0.71366 0.22302 0.0
H151 H 0.8023 0.63981 0.30948 0.0
H152 H 0.81432 0.65308 0.27659 0.0
H153 H 0.71965 0.70415 0.24696 0.0
H154 H 0.76517 0.77257 0.15876 0.0
H155 H 0.75323 0.76195 0.19181 0.0
H156 H 0.85349 0.71909 0.22369 0.0
C157 C 0.79338 0.66956 0.28387 0.0
C158 C 0.74896 0.70761 0.24201 0.0
C159 C 0.78631 0.66184 0.30267 0.0
C160 C 0.78364 0.75384 0.16636 0.0
C161 C 0.77668 0.7476 0.18531 0.0
C162 C 0.82412 0.71543 0.22852 0.0
C163 C 0.77303 0.69761 0.27447 0.0
C164 C 0.77994 0.70503 0.2544 0.0
C165 C 0.80023 0.7239 0.1958 0.0
C166 C 0.79317 0.71761 0.21602 0.0
H167 H 0.71777 0.72701 0.31035 0.0
H168 H 0.72995 0.74017 0.2774 0.0
H169 H 0.84197 0.70764 0.25677 0.0
H170 H 0.86174 0.69899 0.1615 0.0
H171 H 0.84903 0.68741 0.19437 0.0
C172 C 0.30254 0.25574 0.55419 0.0
C173 C 0.3416 0.24973 0.5573 0.0
C174 C 0.28959 0.26544 0.53643 0.0
C175 C 0.27428 0.30818 0.50047 0.0
H176 H 0.31969 0.26301 0.45684 0.0
C177 C 0.25356 0.36966 0.42688 0.0
C178 C 0.24946 0.34383 0.41196 0.0
C179 C 0.26302 0.35663 0.44462 0.0
C180 C 0.30636 0.27558 0.46886 0.0
H181 H 0.3978 0.24938 0.54436 0.0
H182 H 0.37543 0.26707 0.51354 0.0
H183 H 0.33867 0.24212 0.48773 0.0
H184 H 0.25168 0.28406 0.40388 0.0
H185 H 0.26752 0.26109 0.43497 0.0
H186 H 0.24138 0.34106 0.48159 0.0
C187 C 0.35459 0.26352 0.52466 0.0
C188 C 0.31763 0.26398 0.48659 0.0
C189 C 0.36747 0.25365 0.54236 0.0
C190 C 0.25481 0.30465 0.41512 0.0
C191 C 0.26408 0.29154 0.43291 0.0
C192 C 0.26287 0.31966 0.48274 0.0
C193 C 0.31549 0.26948 0.52145 0.0
C194 C 0.30205 0.28044 0.50261 0.0
C195 C 0.26837 0.31741 0.44786 0.0
C196 C 0.27908 0.30381 0.46672 0.0
H197 H 0.28194 0.25277 0.56544 0.0
H198 H 0.25922 0.26937 0.5344 0.0
H199 H 0.26192 0.32171 0.5125 0.0
H200 H 0.24979 0.40008 0.42484 0.0
H201 H 0.26676 0.37744 0.45572 0.0
C202 C 0.71286 0.83857 0.80179 0.0
C203 C 0.73653 0.81531 0.81242 0.0
C204 C 0.70662 0.83106 0.78291 0.0
C205 C 0.71408 0.75512 0.74713 0.0
H206 H 0.70799 0.8411 0.71301 0.0
C207 C 0.71005 0.73778 0.66696 0.0
C208 C 0.68138 0.75766 0.65771 0.0
C209 C 0.71778 0.74467 0.68579 0.0
C210 C 0.70941 0.81683 0.7224 0.0
H211 H 0.77219 0.76583 0.81151 0.0
H212 H 0.76199 0.75327 0.77849 0.0
H213 H 0.71969 0.85313 0.746 0.0
H214 H 0.63883 0.80085 0.66091 0.0
H215 H 0.65271 0.8131 0.6937 0.0
H216 H 0.70434 0.71891 0.72335 0.0
C217 C 0.74763 0.77689 0.78482 0.0
C218 C 0.71596 0.82368 0.74132 0.0
C219 C 0.75362 0.78421 0.80376 0.0
C220 C 0.66101 0.78494 0.66763 0.0
C221 C 0.66908 0.79215 0.68638 0.0
C222 C 0.7079 0.74829 0.72817 0.0
C223 C 0.72415 0.80032 0.77415 0.0
C224 C 0.71806 0.79291 0.75395 0.0
C225 C 0.69738 0.77193 0.69567 0.0
C226 C 0.70523 0.7791 0.71566 0.0
H227 H 0.69894 0.86258 0.80804 0.0
H228 H 0.68775 0.84924 0.77523 0.0
H229 H 0.71497 0.73075 0.75647 0.0
H230 H 0.72619 0.7165 0.65974 0.0
H231 H 0.73994 0.72889 0.69261 0.0
C232 C 0.23658 0.27699 0.30568 0.0
C233 C 0.23749 0.31501 0.31227 0.0
C234 C 0.23041 0.26922 0.2868 0.0
C235 C 0.2404 0.31188 0.24046 0.0
H236 H 0.16256 0.23492 0.22565 0.0
C237 C 0.21973 0.25845 0.16452 0.0
C238 C 0.18176 0.25804 0.15785 0.0
C239 C 0.22752 0.26498 0.18338 0.0
C240 C 0.18437 0.25647 0.22961 0.0
H241 H 0.23293 0.37469 0.30412 0.0
H242 H 0.2227 0.36102 0.27114 0.0
H243 H 0.17446 0.24709 0.25875 0.0
H244 H 0.1222 0.26391 0.16582 0.0
H245 H 0.1359 0.27473 0.19875 0.0
H246 H 0.25033 0.32122 0.2113 0.0
C247 C 0.22668 0.33732 0.28063 0.0
C248 C 0.19135 0.26323 0.24851 0.0
C249 C 0.23228 0.34507 0.29953 0.0
C250 C 0.15179 0.26414 0.17047 0.0
C251 C 0.15955 0.2701 0.18934 0.0
C252 C 0.23382 0.30472 0.22156 0.0
C253 C 0.22561 0.29934 0.2741 0.0
C254 C 0.21918 0.29124 0.25409 0.0
C255 C 0.19746 0.27062 0.19597 0.0
C256 C 0.2055 0.2772 0.21597 0.0
H257 H 0.24041 0.25318 0.31513 0.0
H258 H 0.22988 0.23969 0.28208 0.0
H259 H 0.2622 0.33345 0.24443 0.0
H260 H 0.24347 0.25395 0.15516 0.0
H261 H 0.257 0.2651 0.18818 0.0
C262 C 0.68829 0.73518 0.55462 0.0
C263 C 0.6494 0.74127 0.55811 0.0
C264 C 0.70037 0.72512 0.53679 0.0
C265 C 0.66991 0.72605 0.48727 0.0
H266 H 0.74794 0.65099 0.48167 0.0
C267 C 0.73776 0.62438 0.42693 0.0
C268 C 0.7416 0.65094 0.41225 0.0
C269 C 0.72703 0.63628 0.44466 0.0
C270 C 0.72589 0.67178 0.48297 0.0
H271 H 0.59255 0.74108 0.54581 0.0
H272 H 0.61339 0.72265 0.51488 0.0
H273 H 0.72769 0.66928 0.51271 0.0
H274 H 0.73721 0.71076 0.40453 0.0
H275 H 0.71917 0.73178 0.43562 0.0
H276 H 0.66713 0.72751 0.45752 0.0
C277 C 0.63478 0.72651 0.52573 0.0
C278 C 0.71465 0.68266 0.50079 0.0
C279 C 0.62278 0.73681 0.54351 0.0
C280 C 0.73437 0.68964 0.4156 0.0
C281 C 0.72384 0.70162 0.43338 0.0
C282 C 0.681 0.71501 0.46944 0.0
C283 C 0.67375 0.7207 0.52213 0.0
C284 C 0.6864 0.7098 0.50316 0.0
C285 C 0.72013 0.67507 0.44813 0.0
C286 C 0.70899 0.68759 0.46708 0.0
H287 H 0.70946 0.73856 0.56561 0.0
H288 H 0.73067 0.72134 0.53445 0.0
H289 H 0.64846 0.74745 0.48857 0.0
H290 H 0.7429 0.59429 0.42474 0.0
H291 H 0.72373 0.61493 0.45559 0.0
C292 C 0.28364 0.25507 0.66626 0.0
C293 C 0.31366 0.23679 0.65727 0.0
C294 C 0.27668 0.24898 0.68523 0.0
C295 C 0.29087 0.1802 0.72297 0.0
H296 H 0.27703 0.26708 0.75559 0.0
C297 C 0.28535 0.1621 0.80253 0.0
C298 C 0.25904 0.18357 0.8125 0.0
C299 C 0.29228 0.16945 0.78369 0.0
C300 C 0.2803 0.24245 0.74665 0.0
H301 H 0.35961 0.19739 0.66115 0.0
H302 H 0.34713 0.18658 0.69418 0.0
H303 H 0.28759 0.27785 0.72235 0.0
H304 H 0.21951 0.2298 0.81047 0.0
H305 H 0.23089 0.24201 0.77747 0.0
H306 H 0.28296 0.14466 0.74705 0.0
C307 C 0.32905 0.20561 0.68653 0.0
C308 C 0.28643 0.24867 0.72763 0.0
C309 C 0.33629 0.212 0.66763 0.0
C310 C 0.24011 0.21286 0.80323 0.0
C311 C 0.24678 0.21997 0.78431 0.0
C312 C 0.28439 0.17394 0.74193 0.0
C313 C 0.29929 0.22416 0.69553 0.0
C314 C 0.29198 0.21761 0.71563 0.0
C315 C 0.27279 0.1982 0.77428 0.0
C316 C 0.27924 0.20499 0.75405 0.0
H317 H 0.26573 0.27442 0.65871 0.0
H318 H 0.25334 0.2634 0.69181 0.0
H319 H 0.29454 0.1557 0.71398 0.0
H320 H 0.30076 0.13959 0.80929 0.0
H321 H 0.31312 0.15267 0.77652 0.0
C322 C 0.86827 0.75565 0.04259 0.0
C323 C 0.84245 0.75208 0.05756 0.0
C324 C 0.85547 0.76587 0.02493 0.0
C325 C 0.81819 0.76654 -0.01304 0.0
H326 H 0.74324 0.84487 0.98185 0.0
C327 C 0.75483 0.80644 0.91554 0.0
C328 C 0.74991 0.84561 0.91216 0.0
C329 C 0.76426 0.79369 0.93336 0.0
C330 C 0.76438 0.82312 0.98303 0.0
H331 H 0.78297 0.7563 0.06582 0.0
H332 H 0.76039 0.77355 0.03484 0.0
H333 H 0.76387 0.82572 0.01278 0.0
H334 H 0.75121 0.90224 0.92468 0.0
H335 H 0.76852 0.88021 0.95563 0.0
H336 H 0.81981 0.76495 0.95721 0.0
C337 C 0.79066 0.76901 0.03682 0.0
C338 C 0.77583 0.81178 0.00078 0.0
C339 C 0.80354 0.75895 0.05454 0.0
C340 C 0.75464 0.87181 0.9269 0.0
C341 C 0.76429 0.85913 0.94467 0.0
C342 C 0.80688 0.77801 0.96922 0.0
C343 C 0.8165 0.77256 0.0218 0.0
C344 C 0.80311 0.78357 0.00295 0.0
C345 C 0.76919 0.81992 0.94814 0.0
C346 C 0.78005 0.80664 0.96703 0.0
H347 H 0.89849 0.75075 0.04452 0.0
H348 H 0.87628 0.76904 0.01377 0.0
H349 H 0.83884 0.74432 -0.01187 0.0
H350 H 0.75118 0.78557 0.90444 0.0
H351 H 0.76732 0.76323 0.9356 0.0
C352 C 0.10748 0.10147 0.10148 0.0
C353 C 0.09075 0.13735 0.10307 0.0
C354 C 0.08476 0.06747 0.10167 0.0
C355 C 0.9884 0.02745 0.11515 0.0
H356 H 0.01527 0.94369 0.08282 0.0
C357 C 0.888 0.89381 0.10265 0.0
C358 C 0.9046 0.85771 0.10295 0.0
C359 C 0.911 0.92763 0.10305 0.0
C360 C 0.00766 0.96668 0.09206 0.0
H361 H 0.03675 0.16541 0.10602 0.0
H362 H 0.99696 0.106 0.10598 0.0
H363 H 0.05404 0.00365 0.08238 0.0
H364 H 0.95858 0.82902 0.10384 0.0
H365 H -0.00118 0.88833 0.10438 0.0
H366 H 0.94157 0.99052 0.12456 0.0
C367 C 0.02783 0.1042 0.10493 0.0
C368 C 0.02988 0.00106 0.09184 0.0
C369 C 0.05063 0.13831 0.10485 0.0
C370 C 0.94485 0.85631 0.10362 0.0
C371 C 0.9679 0.89025 0.10383 0.0
C372 C 0.96601 0.99315 0.11526 0.0
C373 C 0.04463 0.06833 0.10333 0.0
C374 C 0.02059 0.03189 0.10341 0.0
C375 C 0.95118 0.92626 0.10359 0.0
C376 C 0.97541 0.9624 0.10373 0.0
H377 H 0.1383 0.0995 0.10023 0.0
H378 H 0.09882 0.04042 0.10077 0.0
H379 H 0.98076 0.05027 0.12447 0.0
H380 H 0.85712 0.89606 0.10218 0.0
H381 H 0.89729 0.95493 0.10265 0.0
C382 C 0.10909 0.40964 0.35142 0.0
C383 C 0.14455 0.43045 0.35184 0.0
C384 C 0.07493 0.42847 0.34889 0.0
C385 C 0.03334 0.52068 0.35753 0.0
H386 H 0.94989 0.48068 0.32641 0.0
C387 C 0.89062 0.59681 0.35353 0.0
C388 C 0.85664 0.5736 0.35344 0.0
C389 C 0.92619 0.58073 0.35088 0.0
C390 C 0.97276 0.49203 0.33531 0.0
H391 H 0.17217 0.48719 0.34945 0.0
H392 H 0.11218 0.52031 0.34527 0.0
H393 H 0.0117 0.45023 0.3259 0.0
H394 H 0.83311 0.51544 0.35008 0.0
H395 H 0.89537 0.48701 0.34601 0.0
H396 H 0.99438 0.56148 0.36755 0.0
C397 C 0.11096 0.48937 0.34688 0.0
C398 C 0.00821 0.47468 0.33493 0.0
C399 C 0.14526 0.47042 0.34918 0.0
C400 C 0.85884 0.53404 0.35019 0.0
C401 C 0.89456 0.51782 0.34775 0.0
C402 C -0.00214 0.53778 0.35806 0.0
C403 C 0.07542 0.46859 0.34694 0.0
C404 C 0.03876 0.48867 0.34615 0.0
C405 C 0.92875 0.54093 0.34832 0.0
C406 C 0.96698 0.52354 0.34705 0.0
H407 H 0.10762 0.37876 0.35336 0.0
H408 H 0.04799 0.41173 0.34917 0.0
H409 H 0.05615 0.5317 0.36657 0.0
H410 H 0.88982 0.6275 0.35578 0.0
H411 H 0.95173 0.59958 0.35097 0.0
C412 C 0.38462 0.39312 0.60045 0.0
C413 C 0.4017 0.35744 0.60221 0.0
C414 C 0.40689 0.42739 0.60108 0.0
C415 C 0.50193 0.46801 0.61623 0.0
H416 H 0.47662 0.55236 0.58376 0.0
C417 C 0.60338 0.601 0.60452 0.0
C418 C 0.58719 0.6373 0.60447 0.0
C419 C 0.58003 0.56744 0.60495 0.0
C420 C 0.48375 0.52921 0.59306 0.0
H421 H 0.45588 0.32999 0.60586 0.0
H422 H 0.49491 0.38983 0.60656 0.0
H423 H 0.43811 0.49226 0.58262 0.0
H424 H 0.53357 0.66664 0.60488 0.0
H425 H 0.49265 0.60771 0.60546 0.0
H426 H 0.54809 0.50488 0.62636 0.0
C427 C 0.46409 0.39129 0.60506 0.0
C428 C 0.46169 0.49474 0.59244 0.0
C429 C 0.44173 0.35693 0.60454 0.0
C430 C 0.54698 0.63918 0.60492 0.0
C431 C 0.52355 0.60546 0.60515 0.0
C432 C 0.52415 0.50238 0.61675 0.0
C433 C 0.44692 0.42697 0.60336 0.0
C434 C 0.47052 0.46365 0.604 0.0
C435 C 0.53988 0.56925 0.60518 0.0
C436 C 0.51536 0.53331 0.60513 0.0
H437 H 0.35384 0.39474 0.59877 0.0
H438 H 0.39256 0.45426 0.60006 0.0
H439 H 0.50916 0.445 0.62559 0.0
H440 H 0.63423 0.59839 0.60424 0.0
H441 H 0.59345 0.53998 0.60476 0.0
C442 C 0.60764 0.90952 0.85214 0.0
C443 C 0.64307 0.93041 0.85221 0.0
C444 C 0.5734 0.92819 0.84954 0.0
C445 C 0.53188 0.02069 0.85742 0.0
H446 H 0.44805 0.97967 0.82682 0.0
C447 C 0.38944 0.09706 0.85311 0.0
C448 C 0.35538 0.07397 0.85329 0.0
C449 C 0.4249 0.08077 0.85048 0.0
C450 C 0.47102 0.9913 0.83557 0.0
H451 H 0.67055 0.98708 0.84911 0.0
H452 H 0.61044 0.01991 0.84483 0.0
H453 H 0.5098 0.94905 0.82647 0.0
H454 H 0.33158 0.01581 0.8504 0.0
H455 H 0.39368 0.987 0.84636 0.0
H456 H 0.49311 0.06194 0.86715 0.0
C457 C 0.6093 0.98904 0.84677 0.0
C458 C 0.50643 0.97386 0.83529 0.0
C459 C 0.64367 0.97025 0.84914 0.0
C460 C 0.35738 0.03431 0.8503 0.0
C461 C 0.393 0.01787 0.84788 0.0
C462 C 0.49644 0.03787 0.85786 0.0
C463 C 0.5738 0.96822 0.84717 0.0
C464 C 0.53713 0.98824 0.84631 0.0
C465 C 0.42728 0.04086 0.8482 0.0
C466 C 0.46543 0.0233 0.84703 0.0
H467 H 0.60627 0.87874 0.85439 0.0
H468 H 0.54649 0.91144 0.85008 0.0
H469 H 0.5548 0.03201 0.86631 0.0
H470 H 0.38878 0.12782 0.85515 0.0
H471 H 0.4505 0.09953 0.85036 0.0
C472 C 0.90506 0.60653 0.11598 0.0
C473 C 0.92633 0.64174 0.11645 0.0
C474 C 0.92317 0.57194 0.11854 0.0
C475 C 0.01597 0.52961 0.11206 0.0
H476 H 0.97218 0.44556 0.14179 0.0
C477 C 0.09288 0.38804 0.11852 0.0
C478 C 0.07023 0.35374 0.11771 0.0
C479 C 0.07592 0.42326 0.12077 0.0
C480 C 0.98459 0.4686 0.13328 0.0
H481 H 0.98311 0.6684 0.12042 0.0
H482 H 0.01491 0.60775 0.12469 0.0
H483 H 0.94152 0.50732 0.14146 0.0
H484 H 0.01211 0.32924 0.11917 0.0
H485 H 0.98216 0.39099 0.12256 0.0
H486 H 0.05819 0.49095 0.1033 0.0
C487 C 0.98419 0.60703 0.12232 0.0
C488 C 0.9671 0.50401 0.13316 0.0
C489 C 0.96598 0.64172 0.11996 0.0
C490 C 0.03027 0.35524 0.11979 0.0
C491 C 0.01317 0.39065 0.12182 0.0
C492 C 0.03322 0.4942 0.11203 0.0
C493 C 0.96301 0.57177 0.12144 0.0
C494 C 0.98256 0.53482 0.12249 0.0
C495 C 0.03579 0.42518 0.12201 0.0
C496 C 0.01774 0.46316 0.1226 0.0
H497 H 0.87442 0.60562 0.11336 0.0
H498 H 0.90615 0.54523 0.11762 0.0
H499 H 0.02815 0.5526 0.10343 0.0
H500 H 0.12383 0.38776 0.1172 0.0
H501 H 0.09436 0.44907 0.12135 0.0
C502 C 0.39446 0.38516 0.3693 0.0
C503 C 0.35899 0.40259 0.36744 0.0
C504 C 0.42892 0.40716 0.36875 0.0
C505 C 0.47032 0.50197 0.35356 0.0
H506 H 0.55412 0.47654 0.38629 0.0
C507 C 0.6026 0.60375 0.3657 0.0
C508 C 0.639 0.58778 0.36583 0.0
C509 C 0.56919 0.58021 0.36519 0.0
C510 C 0.53113 0.48369 0.37691 0.0
H511 H 0.33212 0.4571 0.36376 0.0
H512 H 0.39223 0.49558 0.3632 0.0
H513 H 0.49398 0.43803 0.38726 0.0
H514 H 0.66866 0.53434 0.36555 0.0
H515 H 0.60996 0.49306 0.36484 0.0
H516 H 0.50734 0.54814 0.34352 0.0
C517 C 0.39341 0.46473 0.3647 0.0
C518 C 0.49664 0.46163 0.37745 0.0
C519 C 0.35888 0.44267 0.36514 0.0
C520 C 0.64111 0.54758 0.36543 0.0
C521 C 0.60754 0.52394 0.36512 0.0
C522 C 0.5047 0.52417 0.35313 0.0
C523 C 0.42889 0.44723 0.36645 0.0
C524 C 0.46572 0.47057 0.36582 0.0
C525 C 0.57123 0.54007 0.36497 0.0
C526 C 0.53541 0.51538 0.36486 0.0
H527 H 0.39576 0.35435 0.37098 0.0
H528 H 0.45565 0.39259 0.36984 0.0
H529 H 0.44747 0.50925 0.34414 0.0
H530 H 0.59979 0.63458 0.36594 0.0
H531 H 0.54165 0.59348 0.3653 0.0
C532 C 0.40619 0.10687 0.61698 0.0
C533 C 0.42712 0.14228 0.61689 0.0
C534 C 0.42479 0.07259 0.61964 0.0
C535 C 0.51741 0.03088 0.61214 0.0
H536 H 0.47595 0.94738 0.64292 0.0
C537 C 0.59408 0.88873 0.61737 0.0
C538 C 0.57111 0.8546 0.61719 0.0
C539 C 0.57763 0.92417 0.61982 0.0
C540 C 0.48771 0.97025 0.63412 0.0
H541 H 0.48379 0.16968 0.62 0.0
H542 H 0.51648 0.10953 0.62441 0.0
H543 H 0.44521 0.00908 0.64289 0.0
H544 H 0.51297 0.83064 0.61995 0.0
H545 H 0.48389 0.89269 0.62367 0.0
H546 H 0.55894 0.99205 0.60276 0.0
C547 C 0.48564 0.10842 0.62242 0.0
C548 C 0.47019 0.00564 0.63418 0.0
C549 C 0.46694 0.14281 0.61998 0.0
C550 C 0.53139 0.8565 0.62005 0.0
C551 C 0.5148 0.8921 0.62229 0.0
C552 C 0.53468 0.99547 0.61193 0.0
C553 C 0.46478 0.07293 0.62207 0.0
C554 C 0.48475 0.03623 0.6231 0.0
C555 C 0.53768 0.92645 0.62192 0.0
C556 C 0.51996 0.96458 0.62283 0.0
H557 H 0.37543 0.10554 0.61471 0.0
H558 H 0.40801 0.04569 0.61913 0.0
H559 H 0.52888 0.0537 0.60321 0.0
H560 H 0.62488 0.88815 0.61543 0.0
H561 H 0.59631 0.94984 0.61992 0.0
C562 C 0.89367 0.88713 0.86853 0.0
C563 C 0.85805 0.90434 0.8668 0.0
C564 C 0.92799 0.90932 0.8679 0.0
C565 C 0.96897 0.00455 0.85301 0.0
H566 H 0.05278 0.97875 0.88565 0.0
C567 C 0.10165 0.10597 0.86538 0.0
C568 C 0.13796 0.08982 0.86553 0.0
C569 C 0.06813 0.08258 0.86479 0.0
C570 C 0.0298 0.98602 0.8763 0.0
H571 H 0.83078 0.95863 0.86318 0.0
H572 H 0.89071 0.99751 0.86249 0.0
H573 H 0.99271 0.94019 0.8865 0.0
H574 H 0.16735 0.03622 0.86514 0.0
H575 H 0.10849 0.99524 0.86427 0.0
H576 H 0.00596 0.0509 0.84312 0.0
C577 C 0.89208 0.96667 0.86397 0.0
C578 C 0.99534 0.96392 0.87676 0.0
C579 C 0.85766 0.94439 0.86447 0.0
C580 C 0.13988 0.0496 0.86503 0.0
C581 C 0.10621 0.02613 0.86462 0.0
C582 C 0.00333 0.0268 0.85265 0.0
C583 C 0.9277 0.94939 0.86567 0.0
C584 C 0.96443 0.97294 0.86514 0.0
C585 C 0.06998 0.04243 0.86448 0.0
C586 C 0.03407 0.01785 0.86434 0.0
H587 H 0.89518 0.85634 0.8702 0.0
H588 H 0.95481 0.89491 0.86893 0.0
H589 H 0.94611 0.01192 0.84361 0.0
H590 H 0.099 0.13682 0.8657 0.0
H591 H 0.04066 0.09598 0.86489 0.0
loop_
_geom_bond_atom_site_label_1
_geom_bond_atom_site_label_2
_geom_bond_distance
_geom_bond_site_symmetry_2
_ccdc_geom_bond_type
Co0 O1 2.216 . S
Co0 O2 2.091 . S
Co0 O4 2.004 . S
Co0 O10 2.021 . S
Co0 O12 2.137 . S
Co0 O13 2.244 . S
O1 Co0 2.216 . S
O1 C8 1.247 . S
O2 Co0 2.091 . S
O2 C8 1.261 . S
C3 O12 1.247 . S
C3 O13 1.272 . S
O4 Co0 2.004 . S
O4 C9 1.259 . S
Co5 O6 2.061 . S
Co5 O11 2.052 . S
Co5 O13 2.135 . S
O6 Co5 2.061 . S
O6 C9 1.235 . S
C7 O10 1.238 . S
C7 O11 1.241 . S
C8 O1 1.247 . S
C8 O2 1.261 . S
C9 O4 1.259 . S
C9 O6 1.235 . S
O10 Co0 2.021 . S
O10 C7 1.238 . S
O11 Co5 2.052 . S
O11 C7 1.241 . S
O12 Co0 2.137 . S
O12 C3 1.247 . S
O13 Co0 2.244 . S
O13 C3 1.272 . S
O13 Co5 2.135 . S
Co14 O15 2.216 . S
Co14 O16 2.091 . S
Co14 O18 2.004 . S
Co14 O24 2.021 . S
Co14 O26 2.137 . S
Co14 O27 2.244 . S
O15 Co14 2.216 . S
O15 C22 1.247 . S
O16 Co14 2.091 . S
O16 C22 1.261 . S
C17 O26 1.247 . S
C17 O27 1.272 . S
O18 Co14 2.004 . S
O18 C23 1.259 . S
Co19 O20 2.061 . S
Co19 O25 2.052 . S
Co19 O27 2.135 . S
O20 Co19 2.061 . S
O20 C23 1.235 . S
C21 O24 1.238 . S
C21 O25 1.241 . S
C22 O15 1.247 . S
C22 O16 1.261 . S
C23 O18 1.259 . S
C23 O20 1.235 . S
O24 Co14 2.021 . S
O24 C21 1.238 . S
O25 Co19 2.052 . S
O25 C21 1.241 . S
O26 Co14 2.137 . S
O26 C17 1.247 . S
O27 Co14 2.244 . S
O27 C17 1.272 . S
O27 Co19 2.135 . S
Co28 O29 2.216 . S
Co28 O30 2.091 . S
Co28 O32 2.004 . S
Co28 O38 2.021 . S
Co28 O40 2.137 . S
Co28 O41 2.244 . S
O29 Co28 2.216 . S
O29 C36 1.247 . S
O30 Co28 2.091 . S
O30 C36 1.261 . S
C31 O40 1.247 . S
C31 O41 1.272 . S
O32 Co28 2.004 . S
O32 C37 1.259 . S
Co33 O34 2.061 . S
Co33 O39 2.052 . S
Co33 O41 2.135 . S
O34 Co33 2.061 . S
O34 C37 1.235 . S
C35 O38 1.238 . S
C35 O39 1.241 . S
C36 O29 1.247 . S
C36 O30 1.261 . S
C37 O32 1.259 . S
C37 O34 1.235 . S
O38 Co28 2.021 . S
O38 C35 1.238 . S
O39 Co33 2.052 . S
O39 C35 1.241 . S
O40 Co28 2.137 . S
O40 C31 1.247 . S
O41 Co28 2.244 . S
O41 C31 1.272 . S
O41 Co33 2.135 . S
Co42 O43 2.216 . S
Co42 O44 2.091 . S
Co42 O46 2.004 . S
Co42 O52 2.021 . S
Co42 O54 2.137 . S
Co42 O55 2.244 . S
O43 Co42 2.216 . S
O43 C50 1.247 . S
O44 Co42 2.091 . S
O44 C50 1.261 . S
C45 O54 1.247 . S
C45 O55 1.272 . S
O46 Co42 2.004 . S
O46 C51 1.259 . S
Co47 O48 2.061 . S
Co47 O53 2.052 . S
Co47 O55 2.135 . S
O48 Co47 2.061 . S
O48 C51 1.235 . S
C49 O52 1.238 . S
C49 O53 1.241 . S
C50 O43 1.247 . S
C50 O44 1.261 . S
C51 O46 1.259 . S
C51 O48 1.235 . S
O52 Co42 2.021 . S
O52 C49 1.238 . S
O53 Co47 2.052 . S
O53 C49 1.241 . S
O54 Co42 2.137 . S
O54 C45 1.247 . S
O55 Co42 2.244 . S
O55 C45 1.272 . S
O55 Co47 2.135 . S
Co56 O57 2.216 . S
Co56 O58 2.091 . S
Co56 O60 2.004 . S
Co56 O66 2.021 . S
Co56 O68 2.137 . S
Co56 O69 2.244 . S
O57 Co56 2.216 . S
O57 C64 1.247 . S
O58 Co56 2.091 . S
O58 C64 1.261 . S
C59 O68 1.247 . S
C59 O69 1.272 . S
O60 Co56 2.004 . S
O60 C65 1.259 . S
Co61 O62 2.061 . S
Co61 O67 2.052 . S
Co61 O69 2.135 . S
O62 Co61 2.061 . S
O62 C65 1.235 . S
C63 O66 1.238 . S
C63 O67 1.241 . S
C64 O57 1.247 . S
C64 O58 1.261 . S
C65 O60 1.259 . S
C65 O62 1.235 . S
O66 Co56 2.021 . S
O66 C63 1.238 . S
O67 Co61 2.052 . S
O67 C63 1.241 . S
O68 Co56 2.137 . S
O68 C59 1.247 . S
O69 Co56 2.244 . S
O69 C59 1.272 . S
O69 Co61 2.135 . S
Co70 O71 2.216 . S
Co70 O72 2.091 . S
Co70 O74 2.004 . S
Co70 O80 2.021 . S
Co70 O82 2.137 . S
Co70 O83 2.244 . S
O71 Co70 2.216 . S
O71 C78 1.247 . S
O72 Co70 2.091 . S
O72 C78 1.261 . S
C73 O82 1.247 . S
C73 O83 1.272 . S
O74 Co70 2.004 . S
O74 C79 1.259 . S
Co75 O76 2.061 . S
Co75 O81 2.052 . S
Co75 O83 2.135 . S
O76 Co75 2.061 . S
O76 C79 1.235 . S
C77 O80 1.238 . S
C77 O81 1.241 . S
C78 O71 1.247 . S
C78 O72 1.261 . S
C79 O74 1.259 . S
C79 O76 1.235 . S
O80 Co70 2.021 . S
O80 C77 1.238 . S
O81 Co75 2.052 . S
O81 C77 1.241 . S
O82 Co70 2.137 . S
O82 C73 1.247 . S
O83 Co70 2.244 . S
O83 C73 1.272 . S
O83 Co75 2.135 . S
Co84 O85 2.216 . S
Co84 O86 2.091 . S
Co84 O88 2.004 . S
Co84 O94 2.021 . S
Co84 O96 2.137 . S
Co84 O97 2.244 . S
O85 Co84 2.216 . S
O85 C92 1.247 . S
O86 Co84 2.091 . S
O86 C92 1.261 . S
C87 O96 1.247 . S
C87 O97 1.272 . S
O88 Co84 2.004 . S
O88 C93 1.259 . S
Co89 O90 2.061 . S
Co89 O95 2.052 . S
Co89 O97 2.135 . S
O90 Co89 2.061 . S
O90 C93 1.235 . S
C91 O94 1.238 . S
C91 O95 1.241 . S
C92 O85 1.247 . S
C92 O86 1.261 . S
C93 O88 1.259 . S
C93 O90 1.235 . S
O94 Co84 2.021 . S
O94 C91 1.238 . S
O95 Co89 2.052 . S
O95 C91 1.241 . S
O96 Co84 2.137 . S
O96 C87 1.247 . S
O97 Co84 2.244 . S
O97 C87 1.272 . S
O97 Co89 2.135 . S
Co98 O99 2.216 . S
Co98 O100 2.091 . S
Co98 O102 2.004 . S
Co98 O108 2.021 . S
Co98 O110 2.137 . S
Co98 O111 2.244 . S
O99 Co98 2.216 . S
O99 C106 1.247 . S
O100 Co98 2.091 . S
O100 C106 1.261 . S
C101 O110 1.247 . S
C101 O111 1.272 . S
O102 Co98 2.004 . S
O102 C107 1.259 . S
Co103 O104 2.061 . S
Co103 O109 2.052 . S
Co103 O111 2.135 . S
O104 Co103 2.061 . S
O104 C107 1.235 . S
C105 O108 1.238 . S
C105 O109 1.241 . S
C106 O99 1.247 . S
C106 O100 1.261 . S
C107 O102 1.259 . S
C107 O104 1.235 . S
O108 Co98 2.021 . S
O108 C105 1.238 . S
O109 Co103 2.052 . S
O109 C105 1.241 . S
O110 Co98 2.137 . S
O110 C101 1.247 . S
O111 Co98 2.244 . S
O111 C101 1.272 . S
O111 Co103 2.135 . S
C112 C113 1.349 . S
C112 C114 1.327 . S
C112 H137 0.950 . S
C113 C112 1.349 . S
C113 C129 1.349 . S
C114 C112 1.327 . S
C114 C133 1.429 . S
C114 H138 0.950 . S
C115 C132 1.574 1_554 S
C115 C134 1.368 . S
C115 H139 0.949 . S
H116 C120 0.949 . S
C117 C118 1.349 . S
C117 C119 1.327 . S
C117 H140 0.950 . S
C118 C117 1.349 . S
C118 C130 1.349 . S
C119 C117 1.327 . S
C119 C135 1.429 . S
C119 H141 0.950 . S
C120 H116 0.949 . S
C120 C128 1.574 1_556 S
C120 C136 1.368 . S
H121 C129 0.950 . S
H122 C127 0.950 . S
H123 C128 0.949 . S
H124 C130 0.950 . S
H125 C131 0.950 . S
H126 C132 0.949 . S
C127 H122 0.950 . S
C127 C129 1.327 . S
C127 C133 1.429 . S
C128 C120 1.574 1_554 S
C128 H123 0.949 . S
C128 C134 1.368 . S
C129 C113 1.349 . S
C129 H121 0.950 . S
C129 C127 1.327 . S
C130 C118 1.349 . S
C130 H124 0.950 . S
C130 C131 1.327 . S
C131 H125 0.950 . S
C131 C130 1.327 . S
C131 C135 1.429 . S
C132 C115 1.574 1_556 S
C132 H126 0.949 . S
C132 C136 1.368 . S
C133 C114 1.429 . S
C133 C127 1.429 . S
C133 C134 1.523 . S
C134 C115 1.368 . S
C134 C128 1.368 . S
C134 C133 1.523 . S
C135 C119 1.429 . S
C135 C131 1.429 . S
C135 C136 1.523 . S
C136 C120 1.368 . S
C136 C132 1.368 . S
C136 C135 1.523 . S
H137 C112 0.950 . S
H138 C114 0.950 . S
H139 C115 0.949 . S
H140 C117 0.950 . S
H141 C119 0.950 . S
C142 C143 1.349 . S
C142 C144 1.327 . S
C142 H167 0.950 . S
C143 C142 1.349 . S
C143 C159 1.349 . S
C144 C142 1.327 . S
C144 C163 1.429 . S
C144 H168 0.950 . S
C145 C162 1.574 . S
C145 C164 1.368 . S
C145 H169 0.949 . S
H146 C150 0.949 . S
C147 C148 1.349 . S
C147 C149 1.327 . S
C147 H170 0.950 . S
C148 C147 1.349 . S
C148 C160 1.349 . S
C149 C147 1.327 . S
C149 C165 1.429 . S
C149 H171 0.950 . S
C150 H146 0.949 . S
C150 C158 1.574 . S
C150 C166 1.368 . S
H151 C159 0.950 . S
H152 C157 0.950 . S
H153 C158 0.949 . S
H154 C160 0.950 . S
H155 C161 0.950 . S
H156 C162 0.949 . S
C157 H152 0.950 . S
C157 C159 1.327 . S
C157 C163 1.429 . S
C158 C150 1.574 . S
C158 H153 0.949 . S
C158 C164 1.368 . S
C159 C143 1.349 . S
C159 H151 0.950 . S
C159 C157 1.327 . S
C160 C148 1.349 . S
C160 H154 0.950 . S
C160 C161 1.327 . S
C161 H155 0.950 . S
C161 C160 1.327 . S
C161 C165 1.429 . S
C162 C145 1.574 . S
C162 H156 0.949 . S
C162 C166 1.368 . S
C163 C144 1.429 . S
C163 C157 1.429 . S
C163 C164 1.523 . S
C164 C145 1.368 . S
C164 C158 1.368 . S
C164 C163 1.523 . S
C165 C149 1.429 . S
C165 C161 1.429 . S
C165 C166 1.523 . S
C166 C150 1.368 . S
C166 C162 1.368 . S
C166 C165 1.523 . S
H167 C142 0.950 . S
H168 C144 0.950 . S
H169 C145 0.949 . S
H170 C147 0.950 . S
H171 C149 0.950 . S
C172 C173 1.349 . S
C172 C174 1.327 . S
C172 H197 0.950 . S
C173 C172 1.349 . S
C173 C189 1.349 . S
C174 C172 1.327 . S
C174 C193 1.429 . S
C174 H198 0.950 . S
C175 C192 1.574 . S
C175 C194 1.368 . S
C175 H199 0.949 . S
H176 C180 0.949 . S
C177 C178 1.349 . S
C177 C179 1.327 . S
C177 H200 0.950 . S
C178 C177 1.349 . S
C178 C190 1.349 . S
C179 C177 1.327 . S
C179 C195 1.429 . S
C179 H201 0.950 . S
C180 H176 0.949 . S
C180 C188 1.574 . S
C180 C196 1.368 . S
H181 C189 0.950 . S
H182 C187 0.950 . S
H183 C188 0.949 . S
H184 C190 0.950 . S
H185 C191 0.950 . S
H186 C192 0.949 . S
C187 H182 0.950 . S
C187 C189 1.327 . S
C187 C193 1.429 . S
C188 C180 1.574 . S
C188 H183 0.949 . S
C188 C194 1.368 . S
C189 C173 1.349 . S
C189 H181 0.950 . S
C189 C187 1.327 . S
C190 C178 1.349 . S
C190 H184 0.950 . S
C190 C191 1.327 . S
C191 H185 0.950 . S
C191 C190 1.327 . S
C191 C195 1.429 . S
C192 C175 1.574 . S
C192 H186 0.949 . S
C192 C196 1.368 . S
C193 C174 1.429 . S
C193 C187 1.429 . S
C193 C194 1.523 . S
C194 C175 1.368 . S
C194 C188 1.368 . S
C194 C193 1.523 . S
C195 C179 1.429 . S
C195 C191 1.429 . S
C195 C196 1.523 . S
C196 C180 1.368 . S
C196 C192 1.368 . S
C196 C195 1.523 . S
H197 C172 0.950 . S
H198 C174 0.950 . S
H199 C175 0.949 . S
H200 C177 0.950 . S
H201 C179 0.950 . S
C202 C203 1.349 . S
C202 C204 1.327 . S
C202 H227 0.950 . S
C203 C202 1.349 . S
C203 C219 1.349 . S
C204 C202 1.327 . S
C204 C223 1.429 . S
C204 H228 0.950 . S
C205 C222 1.574 . S
C205 C224 1.368 . S
C205 H229 0.949 . S
H206 C210 0.949 . S
C207 C208 1.349 . S
C207 C209 1.327 . S
C207 H230 0.950 . S
C208 C207 1.349 . S
C208 C220 1.349 . S
C209 C207 1.327 . S
C209 C225 1.429 . S
C209 H231 0.950 . S
C210 H206 0.949 . S
C210 C218 1.574 . S
C210 C226 1.368 . S
H211 C219 0.950 . S
H212 C217 0.950 . S
H213 C218 0.949 . S
H214 C220 0.950 . S
H215 C221 0.950 . S
H216 C222 0.949 . S
C217 H212 0.950 . S
C217 C219 1.327 . S
C217 C223 1.429 . S
C218 C210 1.574 . S
C218 H213 0.949 . S
C218 C224 1.368 . S
C219 C203 1.349 . S
C219 H211 0.950 . S
C219 C217 1.327 . S
C220 C208 1.349 . S
C220 H214 0.950 . S
C220 C221 1.327 . S
C221 H215 0.950 . S
C221 C220 1.327 . S
C221 C225 1.429 . S
C222 C205 1.574 . S
C222 H216 0.949 . S
C222 C226 1.368 . S
C223 C204 1.429 . S
C223 C217 1.429 . S
C223 C224 1.523 . S
C224 C205 1.368 . S
C224 C218 1.368 . S
C224 C223 1.523 . S
C225 C209 1.429 . S
C225 C221 1.429 . S
C225 C226 1.523 . S
C226 C210 1.368 . S
C226 C222 1.368 . S
C226 C225 1.523 . S
H227 C202 0.950 . S
H228 C204 0.950 . S
H229 C205 0.949 . S
H230 C207 0.950 . S
H231 C209 0.950 . S
C232 C233 1.349 . S
C232 C234 1.327 . S
C232 H257 0.950 . S
C233 C232 1.349 . S
C233 C249 1.349 . S
C234 C232 1.327 . S
C234 C253 1.429 . S
C234 H258 0.950 . S
C235 C252 1.574 . S
C235 C254 1.368 . S
C235 H259 0.949 . S
H236 C240 0.949 . S
C237 C238 1.349 . S
C237 C239 1.327 . S
C237 H260 0.950 . S
C238 C237 1.349 . S
C238 C250 1.349 . S
C239 C237 1.327 . S
C239 C255 1.429 . S
C239 H261 0.950 . S
C240 H236 0.949 . S
C240 C248 1.574 . S
C240 C256 1.368 . S
H241 C249 0.950 . S
H242 C247 0.950 . S
H243 C248 0.949 . S
H244 C250 0.950 . S
H245 C251 0.950 . S
H246 C252 0.949 . S
C247 H242 0.950 . S
C247 C249 1.327 . S
C247 C253 1.429 . S
C248 C240 1.574 . S
C248 H243 0.949 . S
C248 C254 1.368 . S
C249 C233 1.349 . S
C249 H241 0.950 . S
C249 C247 1.327 . S
C250 C238 1.349 . S
C250 H244 0.950 . S
C250 C251 1.327 . S
C251 H245 0.950 . S
C251 C250 1.327 . S
C251 C255 1.429 . S
C252 C235 1.574 . S
C252 H246 0.949 . S
C252 C256 1.368 . S
C253 C234 1.429 . S
C253 C247 1.429 . S
C253 C254 1.523 . S
C254 C235 1.368 . S
C254 C248 1.368 . S
C254 C253 1.523 . S
C255 C239 1.429 . S
C255 C251 1.429 . S
C255 C256 1.523 . S
C256 C240 1.368 . S
C256 C252 1.368 . S
C256 C255 1.523 . S
H257 C232 0.950 . S
H258 C234 0.950 . S
H259 C235 0.949 . S
H260 C237 0.950 . S
H261 C239 0.950 . S
C262 C263 1.349 . S
C262 C264 1.327 . S
C262 H287 0.950 . S
C263 C262 1.349 . S
C263 C279 1.349 . S
C264 C262 1.327 . S
C264 C283 1.429 . S
C264 H288 0.950 . S
C265 C282 1.574 . S
C265 C284 1.368 . S
C265 H289 0.949 . S
H266 C270 0.949 . S
C267 C268 1.349 . S
C267 C269 1.327 . S
C267 H290 0.950 . S
C268 C267 1.349 . S
C268 C280 1.349 . S
C269 C267 1.327 . S
C269 C285 1.429 . S
C269 H291 0.950 . S
C270 H266 0.949 . S
C270 C278 1.574 . S
C270 C286 1.368 . S
H271 C279 0.950 . S
H272 C277 0.950 . S
H273 C278 0.949 . S
H274 C280 0.950 . S
H275 C281 0.950 . S
H276 C282 0.949 . S
C277 H272 0.950 . S
C277 C279 1.327 . S
C277 C283 1.429 . S
C278 C270 1.574 . S
C278 H273 0.949 . S
C278 C284 1.368 . S
C279 C263 1.349 . S
C279 H271 0.950 . S
C279 C277 1.327 . S
C280 C268 1.349 . S
C280 H274 0.950 . S
C280 C281 1.327 . S
C281 H275 0.950 . S
C281 C280 1.327 . S
C281 C285 1.429 . S
C282 C265 1.574 . S
C282 H276 0.949 . S
C282 C286 1.368 . S
C283 C264 1.429 . S
C283 C277 1.429 . S
C283 C284 1.523 . S
C284 C265 1.368 . S
C284 C278 1.368 . S
C284 C283 1.523 . S
C285 C269 1.429 . S
C285 C281 1.429 . S
C285 C286 1.523 . S
C286 C270 1.368 . S
C286 C282 1.368 . S
C286 C285 1.523 . S
H287 C262 0.950 . S
H288 C264 0.950 . S
H289 C265 0.949 . S
H290 C267 0.950 . S
H291 C269 0.950 . S
C292 C293 1.349 . S
C292 C294 1.327 . S
C292 H317 0.950 . S
C293 C292 1.349 . S
C293 C309 1.349 . S
C294 C292 1.327 . S
C294 C313 1.429 . S
C294 H318 0.950 . S
C295 C312 1.574 . S
C295 C314 1.368 . S
C295 H319 0.949 . S
H296 C300 0.949 . S
C297 C298 1.349 . S
C297 C299 1.327 . S
C297 H320 0.950 . S
C298 C297 1.349 . S
C298 C310 1.349 . S
C299 C297 1.327 . S
C299 C315 1.429 . S
C299 H321 0.950 . S
C300 H296 0.949 . S
C300 C308 1.574 . S
C300 C316 1.368 . S
H301 C309 0.950 . S
H302 C307 0.950 . S
H303 C308 0.949 . S
H304 C310 0.950 . S
H305 C311 0.950 . S
H306 C312 0.949 . S
C307 H302 0.950 . S
C307 C309 1.327 . S
C307 C313 1.429 . S
C308 C300 1.574 . S
C308 H303 0.949 . S
C308 C314 1.368 . S
C309 C293 1.349 . S
C309 H301 0.950 . S
C309 C307 1.327 . S
C310 C298 1.349 . S
C310 H304 0.950 . S
C310 C311 1.327 . S
C311 H305 0.950 . S
C311 C310 1.327 . S
C311 C315 1.429 . S
C312 C295 1.574 . S
C312 H306 0.949 . S
C312 C316 1.368 . S
C313 C294 1.429 . S
C313 C307 1.429 . S
C313 C314 1.523 . S
C314 C295 1.368 . S
C314 C308 1.368 . S
C314 C313 1.523 . S
C315 C299 1.429 . S
C315 C311 1.429 . S
C315 C316 1.523 . S
C316 C300 1.368 . S
C316 C312 1.368 . S
C316 C315 1.523 . S
H317 C292 0.950 . S
H318 C294 0.950 . S
H319 C295 0.949 . S
H320 C297 0.950 . S
H321 C299 0.950 . S
C322 C323 1.349 . S
C322 C324 1.327 . S
C322 H347 0.950 . S
C323 C322 1.349 . S
C323 C339 1.349 . S
C324 C322 1.327 . S
C324 C343 1.429 . S
C324 H348 0.950 . S
C325 C342 1.574 1_554 S
C325 C344 1.368 . S
C325 H349 0.949 . S
H326 C330 0.949 . S
C327 C328 1.349 . S
C327 C329 1.327 . S
C327 H350 0.950 . S
C328 C327 1.349 . S
C328 C340 1.349 . S
C329 C327 1.327 . S
C329 C345 1.429 . S
C329 H351 0.950 . S
C330 H326 0.949 . S
C330 C338 1.574 1_556 S
C330 C346 1.368 . S
H331 C339 0.950 . S
H332 C337 0.950 . S
H333 C338 0.949 . S
H334 C340 0.950 . S
H335 C341 0.950 . S
H336 C342 0.949 . S
C337 H332 0.950 . S
C337 C339 1.327 . S
C337 C343 1.429 . S
C338 C330 1.574 1_554 S
C338 H333 0.949 . S
C338 C344 1.368 . S
C339 C323 1.349 . S
C339 H331 0.950 . S
C339 C337 1.327 . S
C340 C328 1.349 . S
C340 H334 0.950 . S
C340 C341 1.327 . S
C341 H335 0.950 . S
C341 C340 1.327 . S
C341 C345 1.429 . S
C342 C325 1.574 1_556 S
C342 H336 0.949 . S
C342 C346 1.368 . S
C343 C324 1.429 . S
C343 C337 1.429 . S
C343 C344 1.523 . S
C344 C325 1.368 . S
C344 C338 1.368 . S
C344 C343 1.523 . S
C345 C329 1.429 . S
C345 C341 1.429 . S
C345 C346 1.523 . S
C346 C330 1.368 . S
C346 C342 1.368 . S
C346 C345 1.523 . S
H347 C322 0.950 . S
H348 C324 0.950 . S
H349 C325 0.949 . S
H350 C327 0.950 . S
H351 C329 0.950 . S
C352 C353 1.349 . S
C352 C354 1.327 . S
C352 H377 0.950 . S
C353 C352 1.349 . S
C353 C369 1.349 . S
C354 C352 1.327 . S
C354 C373 1.429 . S
C354 H378 0.950 . S
C355 C372 1.574 1_545 S
C355 C374 1.368 1_655 S
C355 H379 0.949 . S
H356 C360 0.949 . S
C357 C358 1.349 . S
C357 C359 1.327 . S
C357 H380 0.950 . S
C358 C357 1.349 . S
C358 C370 1.349 . S
C359 C357 1.327 . S
C359 C375 1.429 . S
C359 H381 0.950 . S
C360 H356 0.949 . S
C360 C368 1.574 1_565 S
C360 C376 1.368 1_455 S
H361 C369 0.950 . S
H362 C367 0.950 . S
H363 C368 0.949 . S
H364 C370 0.950 . S
H365 C371 0.950 . S
H366 C372 0.949 . S
C367 H362 0.950 . S
C367 C369 1.327 . S
C367 C373 1.429 . S
C368 C360 1.574 1_545 S
C368 H363 0.949 . S
C368 C374 1.368 . S
C369 C353 1.349 . S
C369 H361 0.950 . S
C369 C367 1.327 . S
C370 C358 1.349 . S
C370 H364 0.950 . S
C370 C371 1.327 . S
C371 H365 0.950 . S
C371 C370 1.327 . S
C371 C375 1.429 . S
C372 C355 1.574 1_565 S
C372 H366 0.949 . S
C372 C376 1.368 . S
C373 C354 1.429 . S
C373 C367 1.429 . S
C373 C374 1.523 . S
C374 C355 1.368 1_455 S
C374 C368 1.368 . S
C374 C373 1.523 . S
C375 C359 1.429 . S
C375 C371 1.429 . S
C375 C376 1.523 . S
C376 C360 1.368 1_655 S
C376 C372 1.368 . S
C376 C375 1.523 . S
H377 C352 0.950 . S
H378 C354 0.950 . S
H379 C355 0.949 . S
H380 C357 0.950 . S
H381 C359 0.950 . S
C382 C383 1.349 . S
C382 C384 1.327 . S
C382 H407 0.950 . S
C383 C382 1.349 . S
C383 C399 1.349 . S
C384 C382 1.327 . S
C384 C403 1.429 . S
C384 H408 0.950 . S
C385 C402 1.574 1_455 S
C385 C404 1.368 . S
C385 H409 0.949 . S
H386 C390 0.949 . S
C387 C388 1.349 . S
C387 C389 1.327 . S
C387 H410 0.950 . S
C388 C387 1.349 . S
C388 C400 1.349 . S
C389 C387 1.327 . S
C389 C405 1.429 . S
C389 H411 0.950 . S
C390 H386 0.949 . S
C390 C398 1.574 1_655 S
C390 C406 1.368 . S
H391 C399 0.950 . S
H392 C397 0.950 . S
H393 C398 0.949 . S
H394 C400 0.950 . S
H395 C401 0.950 . S
H396 C402 0.949 . S
C397 H392 0.950 . S
C397 C399 1.327 . S
C397 C403 1.429 . S
C398 C390 1.574 1_455 S
C398 H393 0.949 . S
C398 C404 1.368 . S
C399 C383 1.349 . S
C399 H391 0.950 . S
C399 C397 1.327 . S
C400 C388 1.349 . S
C400 H394 0.950 . S
C400 C401 1.327 . S
C401 H395 0.950 . S
C401 C400 1.327 . S
C401 C405 1.429 . S
C402 C385 1.574 1_655 S
C402 H396 0.949 . S
C402 C406 1.368 . S
C403 C384 1.429 . S
C403 C397 1.429 . S
C403 C404 1.523 . S
C404 C385 1.368 . S
C404 C398 1.368 . S
C404 C403 1.523 . S
C405 C389 1.429 . S
C405 C401 1.429 . S
C405 C406 1.523 . S
C406 C390 1.368 . S
C406 C402 1.368 . S
C406 C405 1.523 . S
H407 C382 0.950 . S
H408 C384 0.950 . S
H409 C385 0.949 . S
H410 C387 0.950 . S
H411 C389 0.950 . S
C412 C413 1.349 . S
C412 C414 1.327 . S
C412 H437 0.950 . S
C413 C412 1.349 . S
C413 C429 1.349 . S
C414 C412 1.327 . S
C414 C433 1.429 . S
C414 H438 0.950 . S
C415 C432 1.574 . S
C415 C434 1.368 . S
C415 H439 0.949 . S
H416 C420 0.949 . S
C417 C418 1.349 . S
C417 C419 1.327 . S
C417 H440 0.950 . S
C418 C417 1.349 . S
C418 C430 1.349 . S
C419 C417 1.327 . S
C419 C435 1.429 . S
C419 H441 0.950 . S
C420 H416 0.949 . S
C420 C428 1.574 . S
C420 C436 1.368 . S
H421 C429 0.950 . S
H422 C427 0.950 . S
H423 C428 0.949 . S
H424 C430 0.950 . S
H425 C431 0.950 . S
H426 C432 0.949 . S
C427 H422 0.950 . S
C427 C429 1.327 . S
C427 C433 1.429 . S
C428 C420 1.574 . S
C428 H423 0.949 . S
C428 C434 1.368 . S
C429 C413 1.349 . S
C429 H421 0.950 . S
C429 C427 1.327 . S
C430 C418 1.349 . S
C430 H424 0.950 . S
C430 C431 1.327 . S
C431 H425 0.950 . S
C431 C430 1.327 . S
C431 C435 1.429 . S
C432 C415 1.574 . S
C432 H426 0.949 . S
C432 C436 1.368 . S
C433 C414 1.429 . S
C433 C427 1.429 . S
C433 C434 1.523 . S
C434 C415 1.368 . S
C434 C428 1.368 . S
C434 C433 1.523 . S
C435 C419 1.429 . S
C435 C431 1.429 . S
C435 C436 1.523 . S
C436 C420 1.368 . S
C436 C432 1.368 . S
C436 C435 1.523 . S
H437 C412 0.950 . S
H438 C414 0.950 . S
H439 C415 0.949 . S
H440 C417 0.950 . S
H441 C419 0.950 . S
C442 C443 1.349 . S
C442 C444 1.327 . S
C442 H467 0.950 . S
C443 C442 1.349 . S
C443 C459 1.349 . S
C444 C442 1.327 . S
C444 C463 1.429 . S
C444 H468 0.950 . S
C445 C462 1.574 . S
C445 C464 1.368 1_545 S
C445 H469 0.949 . S
H446 C450 0.949 . S
C447 C448 1.349 . S
C447 C449 1.327 . S
C447 H470 0.950 . S
C448 C447 1.349 . S
C448 C460 1.349 . S
C449 C447 1.327 . S
C449 C465 1.429 . S
C449 H471 0.950 . S
C450 H446 0.949 . S
C450 C458 1.574 . S
C450 C466 1.368 1_565 S
H451 C459 0.950 . S
H452 C457 0.950 . S
H453 C458 0.949 . S
H454 C460 0.950 . S
H455 C461 0.950 . S
H456 C462 0.949 . S
C457 H452 0.950 . S
C457 C459 1.327 . S
C457 C463 1.429 . S
C458 C450 1.574 . S
C458 H453 0.949 . S
C458 C464 1.368 . S
C459 C443 1.349 . S
C459 H451 0.950 . S
C459 C457 1.327 . S
C460 C448 1.349 . S
C460 H454 0.950 . S
C460 C461 1.327 . S
C461 H455 0.950 . S
C461 C460 1.327 . S
C461 C465 1.429 . S
C462 C445 1.574 . S
C462 H456 0.949 . S
C462 C466 1.368 . S
C463 C444 1.429 . S
C463 C457 1.429 . S
C463 C464 1.523 . S
C464 C445 1.368 1_565 S
C464 C458 1.368 . S
C464 C463 1.523 . S
C465 C449 1.429 . S
C465 C461 1.429 . S
C465 C466 1.523 . S
C466 C450 1.368 1_545 S
C466 C462 1.368 . S
C466 C465 1.523 . S
H467 C442 0.950 . S
H468 C444 0.950 . S
H469 C445 0.949 . S
H470 C447 0.950 . S
H471 C449 0.950 . S
C472 C473 1.349 . S
C472 C474 1.327 . S
C472 H497 0.950 . S
C473 C472 1.349 . S
C473 C489 1.349 . S
C474 C472 1.327 . S
C474 C493 1.429 . S
C474 H498 0.950 . S
C475 C492 1.574 . S
C475 C494 1.368 1_455 S
C475 H499 0.949 . S
H476 C480 0.949 . S
C477 C478 1.349 . S
C477 C479 1.327 . S
C477 H500 0.950 . S
C478 C477 1.349 . S
C478 C490 1.349 . S
C479 C477 1.327 . S
C479 C495 1.429 . S
C479 H501 0.950 . S
C480 H476 0.949 . S
C480 C488 1.574 . S
C480 C496 1.368 1_655 S
H481 C489 0.950 . S
H482 C487 0.950 . S
H483 C488 0.949 . S
H484 C490 0.950 . S
H485 C491 0.950 . S
H486 C492 0.949 . S
C487 H482 0.950 . S
C487 C489 1.327 . S
C487 C493 1.429 . S
C488 C480 1.574 . S
C488 H483 0.949 . S
C488 C494 1.368 . S
C489 C473 1.349 . S
C489 H481 0.950 . S
C489 C487 1.327 . S
C490 C478 1.349 . S
C490 H484 0.950 . S
C490 C491 1.327 . S
C491 H485 0.950 . S
C491 C490 1.327 . S
C491 C495 1.429 . S
C492 C475 1.574 . S
C492 H486 0.949 . S
C492 C496 1.368 . S
C493 C474 1.429 . S
C493 C487 1.429 . S
C493 C494 1.523 . S
C494 C475 1.368 1_655 S
C494 C488 1.368 . S
C494 C493 1.523 . S
C495 C479 1.429 . S
C495 C491 1.429 . S
C495 C496 1.523 . S
C496 C480 1.368 1_455 S
C496 C492 1.368 . S
C496 C495 1.523 . S
H497 C472 0.950 . S
H498 C474 0.950 . S
H499 C475 0.949 . S
H500 C477 0.950 . S
H501 C479 0.950 . S
C502 C503 1.349 . S
C502 C504 1.327 . S
C502 H527 0.950 . S
C503 C502 1.349 . S
C503 C519 1.349 . S
C504 C502 1.327 . S
C504 C523 1.429 . S
C504 H528 0.950 . S
C505 C522 1.574 . S
C505 C524 1.368 . S
C505 H529 0.949 . S
H506 C510 0.949 . S
C507 C508 1.349 . S
C507 C509 1.327 . S
C507 H530 0.950 . S
C508 C507 1.349 . S
C508 C520 1.349 . S
C509 C507 1.327 . S
C509 C525 1.429 . S
C509 H531 0.950 . S
C510 H506 0.949 . S
C510 C518 1.574 . S
C510 C526 1.368 . S
H511 C519 0.950 . S
H512 C517 0.950 . S
H513 C518 0.949 . S
H514 C520 0.950 . S
H515 C521 0.950 . S
H516 C522 0.949 . S
C517 H512 0.950 . S
C517 C519 1.327 . S
C517 C523 1.429 . S
C518 C510 1.574 . S
C518 H513 0.949 . S
C518 C524 1.368 . S
C519 C503 1.349 . S
C519 H511 0.950 . S
C519 C517 1.327 . S
C520 C508 1.349 . S
C520 H514 0.950 . S
C520 C521 1.327 . S
C521 H515 0.950 . S
C521 C520 1.327 . S
C521 C525 1.429 . S
C522 C505 1.574 . S
C522 H516 0.949 . S
C522 C526 1.368 . S
C523 C504 1.429 . S
C523 C517 1.429 . S
C523 C524 1.523 . S
C524 C505 1.368 . S
C524 C518 1.368 . S
C524 C523 1.523 . S
C525 C509 1.429 . S
C525 C521 1.429 . S
C525 C526 1.523 . S
C526 C510 1.368 . S
C526 C522 1.368 . S
C526 C525 1.523 . S
H527 C502 0.950 . S
H528 C504 0.950 . S
H529 C505 0.949 . S
H530 C507 0.950 . S
H531 C509 0.950 . S
C532 C533 1.349 . S
C532 C534 1.327 . S
C532 H557 0.950 . S
C533 C532 1.349 . S
C533 C549 1.349 . S
C534 C532 1.327 . S
C534 C553 1.429 . S
C534 H558 0.950 . S
C535 C552 1.574 1_545 S
C535 C554 1.368 . S
C535 H559 0.949 . S
H536 C540 0.949 . S
C537 C538 1.349 . S
C537 C539 1.327 . S
C537 H560 0.950 . S
C538 C537 1.349 . S
C538 C550 1.349 . S
C539 C537 1.327 . S
C539 C555 1.429 . S
C539 H561 0.950 . S
C540 H536 0.949 . S
C540 C548 1.574 1_565 S
C540 C556 1.368 . S
H541 C549 0.950 . S
H542 C547 0.950 . S
H543 C548 0.949 . S
H544 C550 0.950 . S
H545 C551 0.950 . S
H546 C552 0.949 . S
C547 H542 0.950 . S
C547 C549 1.327 . S
C547 C553 1.429 . S
C548 C540 1.574 1_545 S
C548 H543 0.949 . S
C548 C554 1.368 . S
C549 C533 1.349 . S
C549 H541 0.950 . S
C549 C547 1.327 . S
C550 C538 1.349 . S
C550 H544 0.950 . S
C550 C551 1.327 . S
C551 H545 0.950 . S
C551 C550 1.327 . S
C551 C555 1.429 . S
C552 C535 1.574 1_565 S
C552 H546 0.949 . S
C552 C556 1.368 . S
C553 C534 1.429 . S
C553 C547 1.429 . S
C553 C554 1.523 . S
C554 C535 1.368 . S
C554 C548 1.368 . S
C554 C553 1.523 . S
C555 C539 1.429 . S
C555 C551 1.429 . S
C555 C556 1.523 . S
C556 C540 1.368 . S
C556 C552 1.368 . S
C556 C555 1.523 . S
H557 C532 0.950 . S
H558 C534 0.950 . S
H559 C535 0.949 . S
H560 C537 0.950 . S
H561 C539 0.950 . S
C562 C563 1.349 . S
C562 C564 1.327 . S
C562 H587 0.950 . S
C563 C562 1.349 . S
C563 C579 1.349 . S
C564 C562 1.327 . S
C564 C583 1.429 . S
C564 H588 0.950 . S
C565 C582 1.574 1_655 S
C565 C584 1.368 1_545 S
C565 H589 0.949 . S
H566 C570 0.949 . S
C567 C568 1.349 . S
C567 C569 1.327 . S
C567 H590 0.950 . S
C568 C567 1.349 . S
C568 C580 1.349 . S
C569 C567 1.327 . S
C569 C585 1.429 . S
C569 H591 0.950 . S
C570 H566 0.949 . S
C570 C578 1.574 1_455 S
C570 C586 1.368 1_565 S
H571 C579 0.950 . S
H572 C577 0.950 . S
H573 C578 0.949 . S
H574 C580 0.950 . S
H575 C581 0.950 . S
H576 C582 0.949 . S
C577 H572 0.950 . S
C577 C579 1.327 . S
C577 C583 1.429 . S
C578 C570 1.574 1_655 S
C578 H573 0.949 . S
C578 C584 1.368 . S
C579 C563 1.349 . S
C579 H571 0.950 . S
C579 C577 1.327 . S
C580 C568 1.349 . S
C580 H574 0.950 . S
C580 C581 1.327 . S
C581 H575 0.950 . S
C581 C580 1.327 . S
C581 C585 1.429 . S
C582 C565 1.574 1_455 S
C582 H576 0.949 . S
C582 C586 1.368 . S
C583 C564 1.429 . S
C583 C577 1.429 . S
C583 C584 1.523 . S
C584 C565 1.368 1_565 S
C584 C578 1.368 . S
C584 C583 1.523 . S
C585 C569 1.429 . S
C585 C581 1.429 . S
C585 C586 1.523 . S
C586 C570 1.368 1_545 S
C586 C582 1.368 . S
C586 C585 1.523 . S
H587 C562 0.950 . S
H588 C564 0.950 . S
H589 C565 0.949 . S
H590 C567 0.950 . S
H591 C569 0.950 . S
C113 C3 1.107 . S
C118 C73 1.107 . S
C143 C21 1.126 . S
C148 C91 1.126 . S
C173 C31 1.107 . S
C178 C101 1.107 . S
C203 C49 1.126 . S
C208 C63 1.126 . S
C233 C105 1.126 . S
C238 C7 1.126 . S
C263 C59 1.107 . S
C268 C17 1.107 . S
C293 C35 1.126 . S
C298 C77 1.126 . S
C323 C87 1.107 . S
C328 C45 1.107 . S
C353 C9 1.585 . S
C358 C93 1.585 . S
C383 C106 1.589 . S
C388 C22 1.589 . S
C413 C37 1.585 . S
C418 C65 1.585 . S
C443 C50 1.589 . S
C448 C78 1.589 . S
C473 C92 1.589 . S
C478 C8 1.589 . S
C503 C107 1.585 . S
C508 C23 1.585 . S
C533 C36 1.589 . S
C538 C64 1.589 . S
C563 C51 1.585 . S
C568 C79 1.585 . S
