# Generated by pormake.
# Topology wiz, (3)-cn, num edge types: 1
# Building blocks:
#     Node 0, Type 0, BuildingBlock: OLANEW_clean_sbu_2, # of connection points: 3
#     Node 1, Type 0, BuildingBlock: OLANEW_clean_sbu_2, # of connection points: 3
#     Node 2, Type 0, BuildingBlock: OLANEW_clean_sbu_2, # of connection points: 3
#     Node 3, Type 0, BuildingBlock: OLANEW_clean_sbu_2, # of connection points: 3
#     Node 4, Type 0, BuildingBlock: OLANEW_clean_sbu_2, # of connection points: 3
#     Node 5, Type 0, BuildingBlock: OLANEW_clean_sbu_2, # of connection points: 3
#     Node 6, Type 0, BuildingBlock: OLANEW_clean_sbu_2, # of connection points: 3
#     Node 7, Type 0, BuildingBlock: OLANEW_clean_sbu_2, # of connection points: 3
#     Node 8, Type 0, BuildingBlock: OLANEW_clean_sbu_2, # of connection points: 3
#     Node 9, Type 0, BuildingBlock: OLANEW_clean_sbu_2, # of connection points: 3
#     Node 10, Type 0, BuildingBlock: OLANEW_clean_sbu_2, # of connection points: 3
#     Node 11, Type 0, BuildingBlock: OLANEW_clean_sbu_2, # of connection points: 3
#     Edge 12, Type (0, 0), BuildingBlock: AJUNOK_clean_linker_0, # of connection points: 2
#     Edge 13, Type (0, 0), BuildingBlock: AJUNOK_clean_linker_0, # of connection points: 2
#     Edge 14, Type (0, 0), BuildingBlock: AJUNOK_clean_linker_0, # of connection points: 2
#     Edge 15, Type (0, 0), BuildingBlock: AJUNOK_clean_linker_0, # of connection points: 2
#     Edge 16, Type (0, 0), BuildingBlock: AJUNOK_clean_linker_0, # of connection points: 2
#     Edge 17, Type (0, 0), BuildingBlock: AJUNOK_clean_linker_0, # of connection points: 2
#     Edge 18, Type (0, 0), BuildingBlock: AJUNOK_clean_linker_0, # of connection points: 2
#     Edge 19, Type (0, 0), BuildingBlock: AJUNOK_clean_linker_0, # of connection points: 2
#     Edge 20, Type (0, 0), BuildingBlock: AJUNOK_clean_linker_0, # of connection points: 2
#     Edge 21, Type (0, 0), BuildingBlock: AJUNOK_clean_linker_0, # of connection points: 2
#     Edge 22, Type (0, 0), BuildingBlock: AJUNOK_clean_linker_0, # of connection points: 2
#     Edge 23, Type (0, 0), BuildingBlock: AJUNOK_clean_linker_0, # of connection points: 2
#     Edge 24, Type (0, 0), BuildingBlock: AJUNOK_clean_linker_0, # of connection points: 2
#     Edge 25, Type (0, 0), BuildingBlock: AJUNOK_clean_linker_0, # of connection points: 2
#     Edge 26, Type (0, 0), BuildingBlock: AJUNOK_clean_linker_0, # of connection points: 2
#     Edge 27, Type (0, 0), BuildingBlock: AJUNOK_clean_linker_0, # of connection points: 2
#     Edge 28, Type (0, 0), BuildingBlock: AJUNOK_clean_linker_0, # of connection points: 2
#     Edge 29, Type (0, 0), BuildingBlock: AJUNOK_clean_linker_0, # of connection points: 2
# Relax obj value: 0.000
# Max RMSD: 0.032
# Mean RMSD: 0.032
data_MOF--net-wiz--node1-OLANEW_clean_sbu_2--edge1-AJUNOK_clean_linker_0
_symmetry_space_group_name_H-M    P1
_symmetry_Int_Tables_number       1
_symmetry_cell_setting            triclinic
loop_
_symmetry_equiv_pos_as_xyz
'x, y, z'
_cell_length_a     27.273937
_cell_length_b     27.209107
_cell_length_c     56.520602
_cell_angle_alpha  90.257271
_cell_angle_beta   89.83004
_cell_angle_gamma 119.29748
loop_
_atom_site_label
_atom_site_type_symbol
_atom_site_fract_x
_atom_site_fract_y
_atom_site_fract_z
_atom_type_partial_charge
O0 O 0.18206 0.36305 0.05111 0.0
Cd1 Cd 0.20503 0.38305 0.09324 0.0
O2 O 0.21296 0.30228 0.04809 0.0
Cd3 Cd 0.25415 0.32648 0.08254 0.0
O4 O 0.33505 0.38062 0.09941 0.0
C5 C 0.35376 0.43353 0.09907 0.0
O6 O 0.32123 0.45244 0.09071 0.0
C7 C 0.1894 0.32788 0.03882 0.0
C8 C 0.12379 0.3052 0.12398 0.0
O9 O 0.12113 0.34841 0.11672 0.0
O10 O 0.16449 0.29854 0.11641 0.0
O11 O 0.82167 0.125 0.38807 0.0
Cd12 Cd 0.83106 0.15604 0.42939 0.0
O13 O 0.89005 0.20707 0.37633 0.0
Cd14 Cd 0.90798 0.25252 0.40996 0.0
O15 O 0.94931 0.33773 0.42475 0.0
C16 C 0.92133 0.36313 0.42836 0.0
O17 O 0.86661 0.33517 0.42528 0.0
C18 C 0.85299 0.15664 0.37161 0.0
C19 C 0.77373 0.06672 0.461 0.0
O20 O 0.74999 0.09308 0.45216 0.0
O21 O 0.82452 0.08253 0.45479 0.0
O22 O 0.78084 0.87216 0.71414 0.0
Cd23 Cd 0.81671 0.8977 0.75454 0.0
O24 O 0.72946 0.91217 0.72096 0.0
Cd25 Cd 0.67265 0.94512 0.71282 0.0
O26 O 0.60813 0.96947 0.70794 0.0
C27 C 0.56791 0.9532 0.72268 0.0
O28 O 0.56636 0.92188 0.7406 0.0
C29 C 0.74493 0.88561 0.70693 0.0
C30 C 0.77318 0.80533 0.78505 0.0
O31 O 0.74787 0.83395 0.78192 0.0
O32 O 0.81901 0.8204 0.77363 0.0
O33 O 0.72918 0.53069 0.04119 0.0
Cd34 Cd 0.71799 0.52539 0.08455 0.0
O35 O 0.73301 0.61274 0.03652 0.0
Cd36 Cd 0.70223 0.60817 0.07243 0.0
O37 O 0.62543 0.56389 0.09319 0.0
C38 C 0.59291 0.5848 0.09482 0.0
O39 O 0.60998 0.63541 0.08621 0.0
C40 C 0.73546 0.57086 0.0278 0.0
C41 C 0.81142 0.60228 0.11094 0.0
O42 O 0.80644 0.55496 0.10427 0.0
O43 O 0.77277 0.61342 0.1048 0.0
O44 O 0.12002 0.83311 0.36973 0.0
Cd45 Cd 0.11591 0.81638 0.41239 0.0
O46 O 0.06079 0.7441 0.36201 0.0
Cd47 Cd 0.04746 0.71076 0.39796 0.0
O48 O 0.00953 0.63182 0.41777 0.0
C49 C 0.03747 0.60625 0.42078 0.0
O50 O 0.09026 0.63111 0.41391 0.0
C51 C 0.09197 0.79421 0.35483 0.0
C52 C 0.15174 0.91524 0.4389 0.0
O53 O 0.18648 0.89896 0.43221 0.0
O54 O 0.1001 0.88477 0.43294 0.0
O55 O 0.2988 0.14887 0.69734 0.0
Cd56 Cd 0.31948 0.11874 0.73509 0.0
O57 O 0.26942 0.06694 0.67985 0.0
Cd58 Cd 0.29603 0.03259 0.7087 0.0
O59 O 0.35508 0.00578 0.72081 0.0
C60 C 0.39599 0.01808 0.70681 0.0
O61 O 0.399 0.04552 0.68729 0.0
C62 C 0.27824 0.11733 0.67927 0.0
C63 C 0.27674 0.1497 0.77401 0.0
O64 O 0.32583 0.18301 0.76578 0.0
O65 O 0.2479 0.10188 0.76374 0.0
O66 O 0.62275 0.82609 0.60208 0.0
Cd67 Cd 0.58855 0.79986 0.56136 0.0
O68 O 0.6903 0.80486 0.5973 0.0
Cd69 Cd 0.65331 0.75926 0.56443 0.0
O70 O 0.59209 0.68128 0.54707 0.0
C71 C 0.60448 0.64238 0.54389 0.0
O72 O 0.65539 0.65251 0.54937 0.0
C73 C 0.66567 0.82481 0.61008 0.0
C74 C 0.65062 0.88596 0.52893 0.0
O75 O 0.60642 0.88177 0.53887 0.0
O76 O 0.66542 0.84944 0.53437 0.0
O77 O 0.66937 0.52952 0.91755 0.0
Cd78 Cd 0.64932 0.5137 0.87517 0.0
O79 O 0.7606 0.57742 0.91163 0.0
Cd80 Cd 0.84509 0.60924 0.9257 0.0
O81 O 0.91057 0.58973 0.93585 0.0
C82 C 0.89528 0.54639 0.94869 0.0
O83 O 0.84299 0.51943 0.95618 0.0
C84 C 0.71907 0.55571 0.92573 0.0
C85 C 0.68922 0.61123 0.84798 0.0
O86 O 0.64027 0.58864 0.85745 0.0
O87 O 0.71965 0.5881 0.85178 0.0
O88 O 0.069 0.82319 0.24061 0.0
Cd89 Cd 0.08125 0.84517 0.19831 0.0
O90 O 0.15857 0.88252 0.2453 0.0
Cd91 Cd 0.2389 0.92397 0.26411 0.0
O92 O 0.32749 0.96491 0.27413 0.0
C93 C 0.35007 0.93494 0.27896 0.0
O94 O 0.3186 0.87981 0.27866 0.0
C95 C 0.11145 0.84725 0.25417 0.0
C96 C -0.00516 0.76406 0.17035 0.0
O97 O 0.03832 0.75969 0.17541 0.0
O98 O -0.00779 0.8066 0.17869 0.0
O99 O 0.26322 0.17975 0.56917 0.0
Cd100 Cd 0.27278 0.21058 0.52803 0.0
O101 O 0.29437 0.26381 0.58498 0.0
Cd102 Cd 0.31808 0.31228 0.55219 0.0
O103 O 0.37733 0.3957 0.5385 0.0
C104 C 0.42889 0.40894 0.53739 0.0
O105 O 0.44279 0.37019 0.54231 0.0
C106 C 0.27444 0.21102 0.5874 0.0
C107 C 0.23214 0.11725 0.49765 0.0
O108 O 0.28387 0.14366 0.50397 0.0
O109 O 0.19986 0.1355 0.5055 0.0
O110 O 0.16446 0.27455 0.92519 0.0
Cd111 Cd 0.13808 0.26729 0.8833 0.0
O112 O 0.10838 0.31039 0.92799 0.0
Cd113 Cd 0.06033 0.34474 0.94575 0.0
O114 O 0.01418 0.3886 0.95512 0.0
C115 C 0.03572 0.44068 0.95032 0.0
O116 O 0.08593 0.4666 0.94062 0.0
C117 C 0.14182 0.29673 0.93786 0.0
C118 C 0.18674 0.22489 0.85134 0.0
O119 O 0.21098 0.27753 0.85652 0.0
O120 O 0.14056 0.19218 0.86197 0.0
O121 O 0.87771 0.10026 0.26112 0.0
Cd122 Cd 0.86739 0.07307 0.21924 0.0
O123 O 0.78583 0.05605 0.26301 0.0
Cd124 Cd 0.70321 0.03054 0.27852 0.0
O125 O 0.6135 -0.00173 0.28453 0.0
C126 C 0.59328 0.0316 0.28468 0.0
O127 O 0.62773 0.08585 0.28216 0.0
C128 C 0.83311 0.08421 0.27323 0.0
C129 C 0.95345 0.14922 0.18971 0.0
O130 O 0.91003 0.15439 0.19407 0.0
O131 O 0.95649 0.10859 0.19968 0.0
C132 C 0.15699 0.26396 0.97701 0.0
C133 C 0.1533 0.30533 0.96354 0.0
C134 C 0.16745 0.27102 0.00143 0.0
C135 C 0.17453 0.3197 0.01331 0.0
H136 H 0.15137 0.22565 0.96863 0.0
H137 H 0.17008 0.23806 0.01107 0.0
S138 S 0.17539 0.44345 0.98541 0.0
N139 N 0.16293 0.39893 0.96334 0.0
N140 N 0.18042 0.41149 0.00929 0.0
C141 C 0.17159 0.36171 -9e-05 0.0
C142 C 0.16162 0.35475 0.97502 0.0
C143 C 0.87776 0.15506 0.30543 0.0
C144 C 0.83683 0.10079 0.29839 0.0
C145 C 0.88241 0.17242 0.32907 0.0
C146 C 0.84668 0.13598 0.34676 0.0
H147 H 0.90605 0.18474 0.29249 0.0
H148 H 0.91442 0.21498 0.33342 0.0
S149 S 0.73567 -0.01272 0.33763 0.0
N150 N 0.76243 0.00915 0.31101 0.0
N151 N 0.77036 0.04171 0.35548 0.0
C152 C 0.80616 0.08099 0.33996 0.0
C153 C 0.80142 0.06342 0.31579 0.0
C154 C 0.76033 0.87524 0.6641 0.0
C155 C 0.7237 0.87204 0.68235 0.0
C156 C 0.74148 0.86106 0.64072 0.0
C157 C 0.68527 0.84335 0.63463 0.0
H158 H 0.80403 0.88879 0.66793 0.0
H159 H 0.77121 0.86383 0.62731 0.0
S160 S 0.57108 0.8222 0.67626 0.0
N161 N 0.62748 0.84505 0.6931 0.0
N162 N 0.59245 0.82082 0.64903 0.0
C163 C 0.6481 0.83981 0.65273 0.0
C164 C 0.66718 0.85348 0.67662 0.0
C165 C 0.76426 0.61423 0.9876 0.0
C166 C 0.73786 0.56563 0.00177 0.0
C167 C 0.76023 0.61053 0.96282 0.0
C168 C 0.72826 0.55829 0.95148 0.0
H169 H 0.7872 0.65551 -0.00427 0.0
H170 H 0.78018 0.64895 0.95253 0.0
S171 S 0.65379 0.41834 0.98013 0.0
N172 N 0.68159 0.46326 0.00232 0.0
N173 N 0.67249 0.45691 0.95586 0.0
C174 C 0.70311 0.50935 0.96529 0.0
C175 C 0.70839 0.51286 -0.00957 0.0
C176 C 0.13802 0.87428 0.29659 0.0
C177 C 0.10604 0.83295 0.27965 0.0
C178 C 0.13307 0.86151 0.3208 0.0
C179 C 0.09588 0.80685 0.32906 0.0
H180 H 0.1663 0.91718 0.29118 0.0
H181 H 0.15865 0.8949 0.33311 0.0
S182 S 0.0023 0.68347 0.29163 0.0
N183 N 0.03578 0.73534 0.27265 0.0
N184 N 0.02607 0.71101 0.31799 0.0
C185 C 0.06335 0.76517 0.31219 0.0
C186 C 0.0684 0.77834 0.28757 0.0
C187 C 0.25469 0.12978 0.61388 0.0
C188 C 0.26844 0.18654 0.61143 0.0
C189 C 0.25539 0.1072 0.63603 0.0
C190 C 0.26989 0.14037 0.65674 0.0
H191 H 0.24517 0.10279 0.59848 0.0
H192 H 0.24642 0.06381 0.63669 0.0
S193 S 0.30215 0.28958 0.66051 0.0
N194 N 0.29167 0.27407 0.63206 0.0
N195 N 0.29306 0.23164 0.67363 0.0
C196 C 0.28058 0.19633 0.65476 0.0
C197 C 0.27985 0.21939 0.63216 0.0
C198 C 0.49425 0.5676 0.09709 0.0
C199 C 0.53289 0.54842 0.10129 0.0
C200 C 0.43621 0.53082 0.09807 0.0
C201 C 0.41434 0.4733 0.10329 0.0
H202 H 0.50869 0.61067 0.09167 0.0
H203 H 0.40848 0.54721 0.09339 0.0
S204 S 0.49748 0.40446 0.12062 0.0
N205 N 0.5451 0.47005 0.11452 0.0
N206 N 0.43596 0.40089 0.11635 0.0
C207 C 0.45241 0.45472 0.10973 0.0
C208 C 0.51166 0.49227 0.10873 0.0
C209 C 0.00979 0.45636 0.42791 0.0
C210 C 0.95117 0.42544 0.43127 0.0
C211 C 0.03786 0.51521 0.42606 0.0
C212 C 0.00856 0.54571 0.42751 0.0
H213 H 0.03403 0.43492 0.42544 0.0
H214 H 0.0825 0.53653 0.42227 0.0
S215 S 0.85649 0.48579 0.44085 0.0
N216 N 0.86604 0.43045 0.43936 0.0
N217 N 0.91877 0.54105 0.43592 0.0
C218 C 0.95074 0.51577 0.4329 0.0
C219 C 0.92208 0.45569 0.43476 0.0
C220 C 0.4837 0.01605 0.69569 0.0
C221 C 0.4392 0.00129 0.71179 0.0
C222 C 0.5249 0.00044 0.69945 0.0
C223 C 0.52353 0.96927 0.71948 0.0
H224 H 0.48689 0.03986 0.6799 0.0
H225 H 0.55801 0.01287 0.6864 0.0
S226 S 0.41629 0.92036 0.76733 0.0
N227 N 0.39647 0.95395 0.74876 0.0
N228 N 0.47392 0.92452 0.75585 0.0
C229 C 0.4794 0.95432 0.73585 0.0
C230 C 0.43731 0.97035 0.73201 0.0
C231 C 0.53016 0.48328 0.53765 0.0
C232 C 0.4734 0.46876 0.53475 0.0
C233 C 0.57257 0.53965 0.53924 0.0
C234 C 0.56013 0.58404 0.53801 0.0
H235 H 0.54195 0.45088 0.53976 0.0
H236 H 0.61514 0.54818 0.54251 0.0
S237 S 0.41946 0.56921 0.52653 0.0
N238 N 0.40791 0.50379 0.52779 0.0
N239 N 0.48763 0.60975 0.53078 0.0
C240 C 0.50413 0.57034 0.53336 0.0
C241 C 0.46081 0.51277 0.53173 0.0
C242 C 0.02013 0.52197 0.9415 0.0
C243 C 0.00225 0.47002 0.95287 0.0
C244 C -0.01367 0.54754 0.94113 0.0
C245 C 0.93328 0.52235 0.9522 0.0
H246 H 0.05968 0.54222 0.932 0.0
H247 H 0.00127 0.58646 0.93137 0.0
S248 S 0.87038 0.39025 0.98731 0.0
N249 N 0.93049 0.39708 0.97755 0.0
N250 N 0.86705 0.44517 0.97697 0.0
C251 C 0.91635 0.47208 0.96486 0.0
C252 C 0.95076 0.44591 0.96516 0.0
C253 C 0.43682 0.92679 0.2844 0.0
C254 C 0.41178 0.96121 0.28265 0.0
C255 C 0.49528 0.95001 0.28577 0.0
C256 C 0.53137 0.00872 0.28547 0.0
H257 H 0.41125 0.88131 0.28412 0.0
H258 H 0.51223 0.92141 0.2865 0.0
S259 S 0.48696 0.11779 0.28347 0.0
N260 N 0.42757 0.05736 0.2824 0.0
N261 N 0.53739 0.101 0.28498 0.0
C262 C 0.50684 0.0438 0.28472 0.0
C263 C 0.44716 0.02008 0.28331 0.0
C264 C -0.00534 0.23435 0.16358 0.0
C265 C -0.00194 0.18855 0.17329 0.0
C266 C 0.03539 0.27163 0.14771 0.0
C267 C 0.08126 0.26468 0.14078 0.0
H268 H 0.96017 0.24163 0.16821 0.0
H269 H 0.03063 0.30612 0.1408 0.0
S270 S 0.11011 0.15163 0.16112 0.0
N271 N 0.05147 0.13851 0.17484 0.0
N272 N 0.12781 0.20837 0.14504 0.0
C273 C 0.08532 0.2191 0.15038 0.0
C274 C 0.04386 0.18118 0.16662 0.0
C275 C 0.66154 0.96607 0.50359 0.0
C276 C 0.68311 0.93148 0.51157 0.0
C277 C 0.69092 0.00921 0.48717 0.0
C278 C 0.7434 0.02 0.47812 0.0
H279 H 0.62139 0.95974 0.50999 0.0
H280 H 0.67234 0.03454 0.48168 0.0
S281 S 0.81869 0.94162 0.49322 0.0
N282 N 0.7604 0.91095 0.50905 0.0
N283 N 0.81568 -0.00788 0.47833 0.0
C284 C 0.76558 -0.01423 0.48594 0.0
C285 C 0.73546 0.94155 0.50259 0.0
C286 C 0.78224 0.72931 0.80601 0.0
C287 C 0.75064 0.75646 0.80142 0.0
C288 C 0.76228 0.683 0.82126 0.0
C289 C 0.70975 0.66161 0.83255 0.0
H290 H 0.82288 0.74385 0.79776 0.0
H291 H 0.78831 0.66361 0.82404 0.0
S292 S 0.61039 0.71749 0.82667 0.0
N293 N 0.66401 0.7586 0.80958 0.0
N294 N 0.62648 0.67155 0.83818 0.0
C295 C 0.6777 0.68847 0.82824 0.0
C296 C 0.69813 0.73582 0.81271 0.0
C297 C 0.86074 0.69225 0.13397 0.0
C298 C 0.85941 0.64271 0.12572 0.0
C299 C 0.9045 0.73085 0.14837 0.0
C300 C 0.94908 0.72183 0.15513 0.0
H301 H 0.8275 0.70138 0.1294 0.0
H302 H 0.90324 0.76821 0.1542 0.0
S303 S 0.96603 0.59883 0.13823 0.0
N304 N 0.90691 0.58677 0.12535 0.0
N305 N -0.01074 0.65941 0.15236 0.0
C306 C 0.94854 0.67256 0.14695 0.0
C307 C 0.90374 0.63305 0.13229 0.0
C308 C 0.22766 -0.00145 0.46025 0.0
C309 C 0.17094 0.96731 0.45335 0.0
C310 C 0.24697 0.04707 0.47433 0.0
C311 C 0.21043 0.06658 0.48213 0.0
H312 H 0.25762 -0.01469 0.4549 0.0
H313 H 0.29094 0.06915 0.47924 0.0
S314 S 0.05797 0.00099 0.46854 0.0
N315 N 0.07845 0.96013 0.45509 0.0
N316 N 0.11467 0.05118 0.4815 0.0
C317 C 0.15365 0.03614 0.47515 0.0
C318 C 0.13393 -0.01338 0.4608 0.0
C319 C 0.28323 0.22222 0.80322 0.0
C320 C 0.2539 0.16663 0.7945 0.0
C321 C 0.26177 0.2402 0.82189 0.0
C322 C 0.21017 0.20332 0.83275 0.0
H323 H 0.32278 0.25258 0.79534 0.0
H324 H 0.28567 0.28372 0.82761 0.0
S325 S 0.11806 0.0524 0.81742 0.0
N326 N 0.17133 0.07409 0.7988 0.0
N327 N 0.13116 0.10774 0.83388 0.0
C328 C 0.181 0.14716 0.8246 0.0
C329 C 0.20277 0.12891 0.80549 0.0
loop_
_geom_bond_atom_site_label_1
_geom_bond_atom_site_label_2
_geom_bond_distance
_geom_bond_site_symmetry_2
_ccdc_geom_bond_type
O0 Cd1 2.300 . S
O0 C7 1.275 . S
Cd1 O0 2.300 . S
Cd1 O9 2.381 . S
Cd1 O10 2.378 . S
O2 Cd3 2.385 . S
O2 C7 1.255 . S
Cd3 O2 2.385 . S
Cd3 O4 2.317 . S
O4 Cd3 2.317 . S
O4 C5 1.232 . S
C5 O4 1.232 . S
C5 O6 1.218 . S
O6 C5 1.218 . S
C7 O0 1.275 . S
C7 O2 1.255 . S
C8 O9 1.258 . S
C8 O10 1.256 . S
O9 Cd1 2.381 . S
O9 C8 1.258 . S
O10 Cd1 2.378 . S
O10 C8 1.256 . S
O11 Cd12 2.300 . S
O11 C18 1.275 . S
Cd12 O11 2.300 . S
Cd12 O20 2.381 . S
Cd12 O21 2.378 . S
O13 Cd14 2.385 . S
O13 C18 1.255 . S
Cd14 O13 2.385 . S
Cd14 O15 2.317 . S
O15 Cd14 2.317 . S
O15 C16 1.232 . S
C16 O15 1.232 . S
C16 O17 1.218 . S
O17 C16 1.218 . S
C18 O11 1.275 . S
C18 O13 1.255 . S
C19 O20 1.258 . S
C19 O21 1.256 . S
O20 Cd12 2.381 . S
O20 C19 1.258 . S
O21 Cd12 2.378 . S
O21 C19 1.256 . S
O22 Cd23 2.300 . S
O22 C29 1.275 . S
Cd23 O22 2.300 . S
Cd23 O31 2.381 . S
Cd23 O32 2.378 . S
O24 Cd25 2.385 . S
O24 C29 1.255 . S
Cd25 O24 2.385 . S
Cd25 O26 2.317 . S
O26 Cd25 2.317 . S
O26 C27 1.232 . S
C27 O26 1.232 . S
C27 O28 1.218 . S
O28 C27 1.218 . S
C29 O22 1.275 . S
C29 O24 1.255 . S
C30 O31 1.258 . S
C30 O32 1.256 . S
O31 Cd23 2.381 . S
O31 C30 1.258 . S
O32 Cd23 2.378 . S
O32 C30 1.256 . S
O33 Cd34 2.300 . S
O33 C40 1.275 . S
Cd34 O33 2.300 . S
Cd34 O42 2.381 . S
Cd34 O43 2.378 . S
O35 Cd36 2.385 . S
O35 C40 1.255 . S
Cd36 O35 2.385 . S
Cd36 O37 2.317 . S
O37 Cd36 2.317 . S
O37 C38 1.232 . S
C38 O37 1.232 . S
C38 O39 1.218 . S
O39 C38 1.218 . S
C40 O33 1.275 . S
C40 O35 1.255 . S
C41 O42 1.258 . S
C41 O43 1.256 . S
O42 Cd34 2.381 . S
O42 C41 1.258 . S
O43 Cd34 2.378 . S
O43 C41 1.256 . S
O44 Cd45 2.300 . S
O44 C51 1.275 . S
Cd45 O44 2.300 . S
Cd45 O53 2.381 . S
Cd45 O54 2.378 . S
O46 Cd47 2.385 . S
O46 C51 1.255 . S
Cd47 O46 2.385 . S
Cd47 O48 2.317 . S
O48 Cd47 2.317 . S
O48 C49 1.232 . S
C49 O48 1.232 . S
C49 O50 1.218 . S
O50 C49 1.218 . S
C51 O44 1.275 . S
C51 O46 1.255 . S
C52 O53 1.258 . S
C52 O54 1.256 . S
O53 Cd45 2.381 . S
O53 C52 1.258 . S
O54 Cd45 2.378 . S
O54 C52 1.256 . S
O55 Cd56 2.300 . S
O55 C62 1.275 . S
Cd56 O55 2.300 . S
Cd56 O64 2.381 . S
Cd56 O65 2.378 . S
O57 Cd58 2.385 . S
O57 C62 1.255 . S
Cd58 O57 2.385 . S
Cd58 O59 2.317 . S
O59 Cd58 2.317 . S
O59 C60 1.232 . S
C60 O59 1.232 . S
C60 O61 1.218 . S
O61 C60 1.218 . S
C62 O55 1.275 . S
C62 O57 1.255 . S
C63 O64 1.258 . S
C63 O65 1.256 . S
O64 Cd56 2.381 . S
O64 C63 1.258 . S
O65 Cd56 2.378 . S
O65 C63 1.256 . S
O66 Cd67 2.300 . S
O66 C73 1.275 . S
Cd67 O66 2.300 . S
Cd67 O75 2.381 . S
Cd67 O76 2.378 . S
O68 Cd69 2.385 . S
O68 C73 1.255 . S
Cd69 O68 2.385 . S
Cd69 O70 2.317 . S
O70 Cd69 2.317 . S
O70 C71 1.232 . S
C71 O70 1.232 . S
C71 O72 1.218 . S
O72 C71 1.218 . S
C73 O66 1.275 . S
C73 O68 1.255 . S
C74 O75 1.258 . S
C74 O76 1.256 . S
O75 Cd67 2.381 . S
O75 C74 1.258 . S
O76 Cd67 2.378 . S
O76 C74 1.256 . S
O77 Cd78 2.300 . S
O77 C84 1.275 . S
Cd78 O77 2.300 . S
Cd78 O86 2.381 . S
Cd78 O87 2.378 . S
O79 Cd80 2.385 . S
O79 C84 1.255 . S
Cd80 O79 2.385 . S
Cd80 O81 2.317 . S
O81 Cd80 2.317 . S
O81 C82 1.232 . S
C82 O81 1.232 . S
C82 O83 1.218 . S
O83 C82 1.218 . S
C84 O77 1.275 . S
C84 O79 1.255 . S
C85 O86 1.258 . S
C85 O87 1.256 . S
O86 Cd78 2.381 . S
O86 C85 1.258 . S
O87 Cd78 2.378 . S
O87 C85 1.256 . S
O88 Cd89 2.300 . S
O88 C95 1.275 . S
Cd89 O88 2.300 . S
Cd89 O97 2.381 . S
Cd89 O98 2.378 . S
O90 Cd91 2.385 . S
O90 C95 1.255 . S
Cd91 O90 2.385 . S
Cd91 O92 2.317 . S
O92 Cd91 2.317 . S
O92 C93 1.232 . S
C93 O92 1.232 . S
C93 O94 1.218 . S
O94 C93 1.218 . S
C95 O88 1.275 . S
C95 O90 1.255 . S
C96 O97 1.258 . S
C96 O98 1.256 . S
O97 Cd89 2.381 . S
O97 C96 1.258 . S
O98 Cd89 2.378 . S
O98 C96 1.256 . S
O99 Cd100 2.300 . S
O99 C106 1.275 . S
Cd100 O99 2.300 . S
Cd100 O108 2.381 . S
Cd100 O109 2.378 . S
O101 Cd102 2.385 . S
O101 C106 1.255 . S
Cd102 O101 2.385 . S
Cd102 O103 2.317 . S
O103 Cd102 2.317 . S
O103 C104 1.232 . S
C104 O103 1.232 . S
C104 O105 1.218 . S
O105 C104 1.218 . S
C106 O99 1.275 . S
C106 O101 1.255 . S
C107 O108 1.258 . S
C107 O109 1.256 . S
O108 Cd100 2.381 . S
O108 C107 1.258 . S
O109 Cd100 2.378 . S
O109 C107 1.256 . S
O110 Cd111 2.300 . S
O110 C117 1.275 . S
Cd111 O110 2.300 . S
Cd111 O119 2.381 . S
Cd111 O120 2.378 . S
O112 Cd113 2.385 . S
O112 C117 1.255 . S
Cd113 O112 2.385 . S
Cd113 O114 2.317 . S
O114 Cd113 2.317 . S
O114 C115 1.232 . S
C115 O114 1.232 . S
C115 O116 1.218 . S
O116 C115 1.218 . S
C117 O110 1.275 . S
C117 O112 1.255 . S
C118 O119 1.258 . S
C118 O120 1.256 . S
O119 Cd111 2.381 . S
O119 C118 1.258 . S
O120 Cd111 2.378 . S
O120 C118 1.256 . S
O121 Cd122 2.300 . S
O121 C128 1.275 . S
Cd122 O121 2.300 . S
Cd122 O130 2.381 . S
Cd122 O131 2.378 . S
O123 Cd124 2.385 . S
O123 C128 1.255 . S
Cd124 O123 2.385 . S
Cd124 O125 2.317 . S
O125 Cd124 2.317 . S
O125 C126 1.232 . S
C126 O125 1.232 . S
C126 O127 1.218 . S
O127 C126 1.218 . S
C128 O121 1.275 . S
C128 O123 1.255 . S
C129 O130 1.258 . S
C129 O131 1.256 . S
O130 Cd122 2.381 . S
O130 C129 1.258 . S
O131 Cd122 2.378 . S
O131 C129 1.256 . S
C132 C133 1.369 . S
C132 C134 1.419 1_556 S
C132 H136 0.930 . S
C133 C132 1.369 . S
C133 C142 1.429 . S
C134 C132 1.419 1_554 S
C134 C135 1.363 . S
C134 H137 0.929 . S
C135 C134 1.363 . S
C135 C141 1.428 . S
H136 C132 0.930 . S
H137 C134 0.929 . S
S138 N139 1.613 1_554 S
S138 N140 1.610 . S
N139 S138 1.613 1_556 S
N139 C142 1.350 . S
N140 S138 1.610 . S
N140 C141 1.351 . S
C141 C135 1.428 . S
C141 N140 1.351 . S
C141 C142 1.434 1_554 S
C142 C133 1.429 . S
C142 N139 1.350 . S
C142 C141 1.434 1_556 S
C143 C144 1.369 . S
C143 C145 1.419 . S
C143 H147 0.930 . S
C144 C143 1.369 . S
C144 C153 1.429 . S
C145 C143 1.419 . S
C145 C146 1.363 . S
C145 H148 0.929 . S
C146 C145 1.363 . S
C146 C152 1.428 . S
H147 C143 0.930 . S
H148 C145 0.929 . S
S149 N150 1.613 . S
S149 N151 1.610 . S
N150 S149 1.613 . S
N150 C153 1.350 . S
N151 S149 1.610 . S
N151 C152 1.351 . S
C152 C146 1.428 . S
C152 N151 1.351 . S
C152 C153 1.434 . S
C153 C144 1.429 . S
C153 N150 1.350 . S
C153 C152 1.434 . S
C154 C155 1.369 . S
C154 C156 1.419 . S
C154 H158 0.930 . S
C155 C154 1.369 . S
C155 C164 1.429 . S
C156 C154 1.419 . S
C156 C157 1.363 . S
C156 H159 0.929 . S
C157 C156 1.363 . S
C157 C163 1.428 . S
H158 C154 0.930 . S
H159 C156 0.929 . S
S160 N161 1.613 . S
S160 N162 1.610 . S
N161 S160 1.613 . S
N161 C164 1.350 . S
N162 S160 1.610 . S
N162 C163 1.351 . S
C163 C157 1.428 . S
C163 N162 1.351 . S
C163 C164 1.434 . S
C164 C155 1.429 . S
C164 N161 1.350 . S
C164 C163 1.434 . S
C165 C166 1.369 . S
C165 C167 1.419 1_554 S
C165 H169 0.930 . S
C166 C165 1.369 . S
C166 C175 1.429 . S
C167 C165 1.419 1_556 S
C167 C168 1.363 . S
C167 H170 0.929 . S
C168 C167 1.363 . S
C168 C174 1.428 . S
H169 C165 0.930 . S
H170 C167 0.929 . S
S171 N172 1.613 1_556 S
S171 N173 1.610 . S
N172 S171 1.613 1_554 S
N172 C175 1.350 . S
N173 S171 1.610 . S
N173 C174 1.351 . S
C174 C168 1.428 . S
C174 N173 1.351 . S
C174 C175 1.434 1_556 S
C175 C166 1.429 . S
C175 N172 1.350 . S
C175 C174 1.434 1_554 S
C176 C177 1.369 . S
C176 C178 1.419 . S
C176 H180 0.930 . S
C177 C176 1.369 . S
C177 C186 1.429 . S
C178 C176 1.419 . S
C178 C179 1.363 . S
C178 H181 0.929 . S
C179 C178 1.363 . S
C179 C185 1.428 . S
H180 C176 0.930 . S
H181 C178 0.929 . S
S182 N183 1.613 . S
S182 N184 1.610 . S
N183 S182 1.613 . S
N183 C186 1.350 . S
N184 S182 1.610 . S
N184 C185 1.351 . S
C185 C179 1.428 . S
C185 N184 1.351 . S
C185 C186 1.434 . S
C186 C177 1.429 . S
C186 N183 1.350 . S
C186 C185 1.434 . S
C187 C188 1.369 . S
C187 C189 1.419 . S
C187 H191 0.930 . S
C188 C187 1.369 . S
C188 C197 1.429 . S
C189 C187 1.419 . S
C189 C190 1.363 . S
C189 H192 0.929 . S
C190 C189 1.363 . S
C190 C196 1.428 . S
H191 C187 0.930 . S
H192 C189 0.929 . S
S193 N194 1.613 . S
S193 N195 1.610 . S
N194 S193 1.613 . S
N194 C197 1.350 . S
N195 S193 1.610 . S
N195 C196 1.351 . S
C196 C190 1.428 . S
C196 N195 1.351 . S
C196 C197 1.434 . S
C197 C188 1.429 . S
C197 N194 1.350 . S
C197 C196 1.434 . S
C198 C199 1.369 . S
C198 C200 1.419 . S
C198 H202 0.930 . S
C199 C198 1.369 . S
C199 C208 1.429 . S
C200 C198 1.419 . S
C200 C201 1.363 . S
C200 H203 0.929 . S
C201 C200 1.363 . S
C201 C207 1.428 . S
H202 C198 0.930 . S
H203 C200 0.929 . S
S204 N205 1.613 . S
S204 N206 1.610 . S
N205 S204 1.613 . S
N205 C208 1.350 . S
N206 S204 1.610 . S
N206 C207 1.351 . S
C207 C201 1.428 . S
C207 N206 1.351 . S
C207 C208 1.434 . S
C208 C199 1.429 . S
C208 N205 1.350 . S
C208 C207 1.434 . S
C209 C210 1.352 1_455 S
C209 C211 1.426 . S
C209 H213 0.941 . S
C210 C209 1.352 1_655 S
C210 C219 1.429 . S
C211 C209 1.426 . S
C211 C212 1.363 . S
C211 H214 0.929 . S
C212 C211 1.363 . S
C212 C218 1.428 1_455 S
H213 C209 0.941 . S
H214 C211 0.929 . S
S215 N216 1.613 . S
S215 N217 1.610 . S
N216 S215 1.613 . S
N216 C219 1.350 . S
N217 S215 1.610 . S
N217 C218 1.351 . S
C218 C212 1.428 1_655 S
C218 N217 1.351 . S
C218 C219 1.434 . S
C219 C210 1.429 . S
C219 N216 1.350 . S
C219 C218 1.434 . S
C220 C221 1.369 . S
C220 C222 1.419 . S
C220 H224 0.930 . S
C221 C220 1.369 . S
C221 C230 1.429 1_545 S
C222 C220 1.419 . S
C222 C223 1.363 1_545 S
C222 H225 0.929 . S
C223 C222 1.363 1_565 S
C223 C229 1.428 . S
H224 C220 0.930 . S
H225 C222 0.929 . S
S226 N227 1.613 . S
S226 N228 1.610 . S
N227 S226 1.613 . S
N227 C230 1.350 . S
N228 S226 1.610 . S
N228 C229 1.351 . S
C229 C223 1.428 . S
C229 N228 1.351 . S
C229 C230 1.434 . S
C230 C221 1.429 1_565 S
C230 N227 1.350 . S
C230 C229 1.434 . S
C231 C232 1.369 . S
C231 C233 1.419 . S
C231 H235 0.930 . S
C232 C231 1.369 . S
C232 C241 1.429 . S
C233 C231 1.419 . S
C233 C234 1.363 . S
C233 H236 0.929 . S
C234 C233 1.363 . S
C234 C240 1.428 . S
H235 C231 0.930 . S
H236 C233 0.929 . S
S237 N238 1.613 . S
S237 N239 1.610 . S
N238 S237 1.613 . S
N238 C241 1.350 . S
N239 S237 1.610 . S
N239 C240 1.351 . S
C240 C234 1.428 . S
C240 N239 1.351 . S
C240 C241 1.434 . S
C241 C232 1.429 . S
C241 N238 1.350 . S
C241 C240 1.434 . S
C242 C243 1.369 . S
C242 C244 1.419 . S
C242 H246 0.930 . S
C243 C242 1.369 . S
C243 C252 1.429 1_455 S
C244 C242 1.419 . S
C244 C245 1.363 1_455 S
C244 H247 0.929 . S
C245 C244 1.363 1_655 S
C245 C251 1.428 . S
H246 C242 0.930 . S
H247 C244 0.929 . S
S248 N249 1.613 . S
S248 N250 1.610 . S
N249 S248 1.613 . S
N249 C252 1.350 . S
N250 S248 1.610 . S
N250 C251 1.351 . S
C251 C245 1.428 . S
C251 N250 1.351 . S
C251 C252 1.434 . S
C252 C243 1.429 1_655 S
C252 N249 1.350 . S
C252 C251 1.434 . S
C253 C254 1.369 . S
C253 C255 1.419 . S
C253 H257 0.930 . S
C254 C253 1.369 . S
C254 C263 1.429 1_565 S
C255 C253 1.419 . S
C255 C256 1.363 1_565 S
C255 H258 0.929 . S
C256 C255 1.363 1_545 S
C256 C262 1.428 . S
H257 C253 0.930 . S
H258 C255 0.929 . S
S259 N260 1.613 . S
S259 N261 1.610 . S
N260 S259 1.613 . S
N260 C263 1.350 . S
N261 S259 1.610 . S
N261 C262 1.351 . S
C262 C256 1.428 . S
C262 N261 1.351 . S
C262 C263 1.434 . S
C263 C254 1.429 1_545 S
C263 N260 1.350 . S
C263 C262 1.434 . S
C264 C265 1.369 . S
C264 C266 1.419 1_655 S
C264 H268 0.930 . S
C265 C264 1.369 . S
C265 C274 1.429 . S
C266 C264 1.419 1_455 S
C266 C267 1.363 . S
C266 H269 0.929 . S
C267 C266 1.363 . S
C267 C273 1.428 . S
H268 C264 0.930 . S
H269 C266 0.929 . S
S270 N271 1.613 . S
S270 N272 1.610 1_655 S
N271 S270 1.613 . S
N271 C274 1.350 . S
N272 S270 1.610 1_455 S
N272 C273 1.351 . S
C273 C267 1.428 . S
C273 N272 1.351 . S
C273 C274 1.434 1_455 S
C274 C265 1.429 . S
C274 N271 1.350 . S
C274 C273 1.434 1_655 S
C275 C276 1.369 . S
C275 C277 1.419 1_565 S
C275 H279 0.930 . S
C276 C275 1.369 . S
C276 C285 1.429 . S
C277 C275 1.419 1_545 S
C277 C278 1.363 . S
C277 H280 0.929 . S
C278 C277 1.363 . S
C278 C284 1.428 . S
H279 C275 0.930 . S
H280 C277 0.929 . S
S281 N282 1.613 1_545 S
S281 N283 1.610 . S
N282 S281 1.613 1_565 S
N282 C285 1.350 . S
N283 S281 1.610 . S
N283 C284 1.351 . S
C284 C278 1.428 . S
C284 N283 1.351 . S
C284 C285 1.434 1_545 S
C285 C276 1.429 . S
C285 N282 1.350 . S
C285 C284 1.434 1_565 S
C286 C287 1.369 . S
C286 C288 1.419 . S
C286 H290 0.930 . S
C287 C286 1.369 . S
C287 C296 1.429 . S
C288 C286 1.419 . S
C288 C289 1.363 . S
C288 H291 0.929 . S
C289 C288 1.363 . S
C289 C295 1.428 . S
H290 C286 0.930 . S
H291 C288 0.929 . S
S292 N293 1.613 . S
S292 N294 1.610 . S
N293 S292 1.613 . S
N293 C296 1.350 . S
N294 S292 1.610 . S
N294 C295 1.351 . S
C295 C289 1.428 . S
C295 N294 1.351 . S
C295 C296 1.434 . S
C296 C287 1.429 . S
C296 N293 1.350 . S
C296 C295 1.434 . S
C297 C298 1.369 . S
C297 C299 1.419 . S
C297 H301 0.930 . S
C298 C297 1.369 . S
C298 C307 1.429 1_655 S
C299 C297 1.419 . S
C299 C300 1.363 1_655 S
C299 H302 0.929 . S
C300 C299 1.363 1_455 S
C300 C306 1.428 . S
H301 C297 0.930 . S
H302 C299 0.929 . S
S303 N304 1.613 . S
S303 N305 1.610 . S
N304 S303 1.613 . S
N304 C307 1.350 . S
N305 S303 1.610 . S
N305 C306 1.351 . S
C306 C300 1.428 . S
C306 N305 1.351 . S
C306 C307 1.434 . S
C307 C298 1.429 1_455 S
C307 N304 1.350 . S
C307 C306 1.434 . S
C308 C309 1.369 . S
C308 C310 1.419 1_565 S
C308 H312 0.930 . S
C309 C308 1.369 . S
C309 C318 1.429 . S
C310 C308 1.419 1_545 S
C310 C311 1.363 . S
C310 H313 0.929 . S
C311 C310 1.363 . S
C311 C317 1.428 . S
H312 C308 0.930 . S
H313 C310 0.929 . S
S314 N315 1.601 1_545 S
S314 N316 1.613 . S
N315 S314 1.601 1_565 S
N315 C318 1.350 . S
N316 S314 1.613 . S
N316 C317 1.351 . S
C317 C311 1.428 . S
C317 N316 1.351 . S
C317 C318 1.434 1_545 S
C318 C309 1.429 . S
C318 N315 1.350 . S
C318 C317 1.434 1_565 S
C319 C320 1.369 . S
C319 C321 1.419 . S
C319 H323 0.930 . S
C320 C319 1.369 . S
C320 C329 1.429 . S
C321 C319 1.419 . S
C321 C322 1.363 . S
C321 H324 0.929 . S
C322 C321 1.363 . S
C322 C328 1.428 . S
H323 C319 0.930 . S
H324 C321 0.929 . S
S325 N326 1.613 . S
S325 N327 1.610 . S
N326 S325 1.613 . S
N326 C329 1.350 . S
N327 S325 1.610 . S
N327 C328 1.351 . S
C328 C322 1.428 . S
C328 N327 1.351 . S
C328 C329 1.434 . S
C329 C320 1.429 . S
C329 N326 1.350 . S
C329 C328 1.434 . S
C133 C117 1.466 . S
C135 C7 1.464 . S
C144 C128 1.464 . S
C146 C18 1.463 . S
C155 C29 1.468 . S
C157 C73 1.469 . S
C166 C40 1.470 . S
C168 C84 1.469 . S
C177 C95 1.467 . S
C179 C51 1.469 . S
C188 C106 1.467 . S
C190 C62 1.465 . S
C199 C38 1.273 . S
C201 C5 1.259 . S
C210 C16 1.272 . S
C212 C49 1.258 . S
C221 C60 1.253 . S
C223 C27 1.268 . S
C232 C104 1.268 . S
C234 C71 1.266 . S
C243 C115 1.254 . S
C245 C82 1.269 . S
C254 C93 1.257 . S
C256 C126 1.271 . S
C265 C129 1.497 . S
C267 C8 1.497 . S
C276 C74 1.497 . S
C278 C19 1.499 . S
C287 C30 1.501 . S
C289 C85 1.498 . S
C298 C41 1.499 . S
C300 C96 1.501 . S
C309 C52 1.497 . S
C311 C107 1.498 . S
C320 C63 1.498 . S
C322 C118 1.497 . S
