# Generated by pormake.
# Topology wnr, (7)-cn, num edge types: 1
# Building blocks:
#     Node 0, Type 0, BuildingBlock: HICVOG_clean_sbu_0, # of connection points: 7
#     Node 1, Type 0, BuildingBlock: HICVOG_clean_sbu_0, # of connection points: 7
#     Node 2, Type 0, BuildingBlock: HICVOG_clean_sbu_0, # of connection points: 7
#     Node 3, Type 0, BuildingBlock: HICVOG_clean_sbu_0, # of connection points: 7
#     Node 4, Type 0, BuildingBlock: HICVOG_clean_sbu_0, # of connection points: 7
#     Node 5, Type 0, BuildingBlock: HICVOG_clean_sbu_0, # of connection points: 7
#     Edge 6, Type (0, 0), BuildingBlock: TEMPAE_clean_linker_10, # of connection points: 2
#     Edge 7, Type (0, 0), BuildingBlock: TEMPAE_clean_linker_10, # of connection points: 2
#     Edge 8, Type (0, 0), BuildingBlock: TEMPAE_clean_linker_10, # of connection points: 2
#     Edge 9, Type (0, 0), BuildingBlock: TEMPAE_clean_linker_10, # of connection points: 2
#     Edge 10, Type (0, 0), BuildingBlock: TEMPAE_clean_linker_10, # of connection points: 2
#     Edge 11, Type (0, 0), BuildingBlock: TEMPAE_clean_linker_10, # of connection points: 2
#     Edge 12, Type (0, 0), BuildingBlock: TEMPAE_clean_linker_10, # of connection points: 2
#     Edge 13, Type (0, 0), BuildingBlock: TEMPAE_clean_linker_10, # of connection points: 2
#     Edge 14, Type (0, 0), BuildingBlock: TEMPAE_clean_linker_10, # of connection points: 2
#     Edge 15, Type (0, 0), BuildingBlock: TEMPAE_clean_linker_10, # of connection points: 2
#     Edge 16, Type (0, 0), BuildingBlock: TEMPAE_clean_linker_10, # of connection points: 2
#     Edge 17, Type (0, 0), BuildingBlock: TEMPAE_clean_linker_10, # of connection points: 2
#     Edge 18, Type (0, 0), BuildingBlock: TEMPAE_clean_linker_10, # of connection points: 2
#     Edge 19, Type (0, 0), BuildingBlock: TEMPAE_clean_linker_10, # of connection points: 2
#     Edge 20, Type (0, 0), BuildingBlock: TEMPAE_clean_linker_10, # of connection points: 2
#     Edge 21, Type (0, 0), BuildingBlock: TEMPAE_clean_linker_10, # of connection points: 2
#     Edge 22, Type (0, 0), BuildingBlock: TEMPAE_clean_linker_10, # of connection points: 2
#     Edge 23, Type (0, 0), BuildingBlock: TEMPAE_clean_linker_10, # of connection points: 2
#     Edge 24, Type (0, 0), BuildingBlock: TEMPAE_clean_linker_10, # of connection points: 2
#     Edge 25, Type (0, 0), BuildingBlock: TEMPAE_clean_linker_10, # of connection points: 2
#     Edge 26, Type (0, 0), BuildingBlock: TEMPAE_clean_linker_10, # of connection points: 2
# Relax obj value: 0.156
# Max RMSD: 0.226
# Mean RMSD: 0.226
data_MOF--net-wnr--node1-HICVOG_clean_sbu_0--edge1-TEMPAE_clean_linker_10
_symmetry_space_group_name_H-M    P1
_symmetry_Int_Tables_number       1
_symmetry_cell_setting            triclinic
loop_
_symmetry_equiv_pos_as_xyz
'x, y, z'
_cell_length_a     43.569859
_cell_length_b     43.567807
_cell_length_c     17.829733
_cell_angle_alpha  90.031152
_cell_angle_beta   90.061521
_cell_angle_gamma 120.00018
loop_
_atom_site_label
_atom_site_type_symbol
_atom_site_fract_x
_atom_site_fract_y
_atom_site_fract_z
_atom_type_partial_charge
Zn0 Zn 0.17313 0.39806 0.01539 0.0
C1 C 0.09902 0.41162 0.12251 0.0
N2 N 0.07699 0.38619 0.07518 0.0
C3 C 0.09941 0.38131 0.03208 0.0
N4 N 0.13362 0.40254 0.05222 0.0
N5 N 0.13328 0.42182 0.10942 0.0
C6 C 0.18389 0.43888 0.30036 0.0
O7 O 0.2008 0.42733 0.25843 0.0
O8 O 0.17011 0.39393 0.90214 0.0
Zn9 Zn 0.17176 0.463 0.15776 0.0
N10 N 0.17086 0.35606 0.05887 0.0
C11 C 0.14407 0.30873 0.14646 0.0
C12 C 0.14588 0.33825 0.11213 0.0
C13 C 0.19436 0.34551 0.03856 0.0
N14 N 0.16737 0.29817 0.12632 0.0
C15 C 0.19268 0.31554 0.07313 0.0
O16 O 0.22112 0.47864 0.11885 0.0
C17 C 0.23742 0.46852 0.07515 0.0
O18 O 0.22127 0.43976 0.03813 0.0
H19 H 0.12768 0.34707 0.12848 0.0
H20 H 0.21441 0.36082 0.99726 0.0
C21 C 0.1763 0.53082 0.18494 0.0
C22 C 0.17288 0.56013 0.16397 0.0
C23 C 0.14441 0.53041 0.05126 0.0
C24 C 0.14835 0.50174 0.07162 0.0
N25 N 0.16421 0.50245 0.1378 0.0
N26 N 0.157 0.55896 0.09737 0.0
H27 H 0.18954 0.53105 0.2365 0.0
C28 C 0.18372 0.4227 0.865 0.0
O29 O 0.19843 0.45294 0.90159 0.0
O30 O 0.16981 0.45514 0.26952 0.0
H31 H 0.1394 0.4793 0.03426 0.0
H32 H 0.12437 0.29434 0.18905 0.0
H33 H 0.13197 0.53027 0.99862 0.0
Zn34 Zn 0.63441 0.77969 0.67907 0.0
C35 C 0.62361 0.69574 0.7972 0.0
N36 N 0.64964 0.69926 0.75172 0.0
C37 C 0.65367 0.72535 0.70573 0.0
N38 N 0.63123 0.73732 0.72199 0.0
N39 N 0.61215 0.71851 0.78014 0.0
C40 C 0.60178 0.75461 0.96225 0.0
O41 O 0.62175 0.77985 0.91482 0.0
O42 O 0.6405 0.77944 0.56572 0.0
Zn43 Zn 0.57015 0.71551 0.82537 0.0
N44 N 0.67469 0.82081 0.72396 0.0
C45 C 0.72014 0.84348 0.8165 0.0
C46 C 0.69193 0.81492 0.78078 0.0
C47 C 0.68451 0.85441 0.7015 0.0
N48 N 0.73002 0.87688 0.79412 0.0
C49 C 0.71319 0.88356 0.73742 0.0
O50 O 0.55269 0.74679 0.77997 0.0
C51 C 0.56219 0.77168 0.73237 0.0
O52 O 0.59107 0.78387 0.69625 0.0
H53 H 0.68367 0.78827 0.79897 0.0
H54 H 0.66961 0.8581 0.65742 0.0
C55 C 0.50332 0.65181 0.85635 0.0
C56 C 0.47478 0.61811 0.83806 0.0
C57 C 0.50569 0.61702 0.72945 0.0
C58 C 0.53358 0.65061 0.74697 0.0
N59 N 0.5319 0.66739 0.80982 0.0
N60 N 0.47689 0.60175 0.77479 0.0
H61 H 0.50228 0.66606 0.90513 0.0
C62 C 0.62752 0.79355 0.52314 0.0
O63 O 0.61236 0.81005 0.55369 0.0
O64 O 0.5778 0.72494 0.93672 0.0
H65 H 0.55615 0.66352 0.70991 0.0
H66 H 0.73405 0.83919 0.86192 0.0
H67 H 0.5066 0.60342 0.67947 0.0
Zn68 Zn 0.31597 0.86153 0.49175 0.0
C69 C 0.30615 0.93407 0.36827 0.0
N70 N 0.3331 0.95657 0.41212 0.0
C71 C 0.33658 0.93456 0.4593 0.0
N72 N 0.313 0.90022 0.44516 0.0
N73 N 0.29352 0.89987 0.38767 0.0
C74 C 0.26609 0.85208 0.19934 0.0
O75 O 0.28189 0.83775 0.23623 0.0
O76 O 0.31043 0.86309 0.6036 0.0
Zn77 Zn 0.24996 0.86054 0.3491 0.0
N78 N 0.36293 0.86914 0.47102 0.0
C79 C 0.41094 0.88982 0.38506 0.0
C80 C 0.37849 0.88609 0.40608 0.0
C81 C 0.37867 0.85579 0.51631 0.0
N82 N 0.42633 0.87596 0.42927 0.0
C83 C 0.41122 0.85901 0.49464 0.0
O84 O 0.24361 0.81232 0.37013 0.0
C85 C 0.2561 0.79607 0.4071 0.0
O86 O 0.28225 0.81226 0.45169 0.0
H87 H 0.36543 0.89603 0.37008 0.0
H88 H 0.36534 0.8417 0.56686 0.0
C89 C 0.17583 0.83826 0.37187 0.0
C90 C 0.14731 0.83977 0.40569 0.0
C91 C 0.18871 0.88934 0.47768 0.0
C92 C 0.21664 0.8877 0.44408 0.0
N93 N 0.20979 0.86234 0.39181 0.0
N94 N 0.15495 0.8655 0.45784 0.0
H95 H 0.17138 0.81794 0.33141 0.0
C96 C 0.28024 0.84976 0.63477 0.0
O97 O 0.25157 0.83374 0.59304 0.0
O98 O 0.24989 0.86471 0.23609 0.0
H99 H 0.24358 0.90636 0.46023 0.0
H100 H 0.42355 0.90309 0.33336 0.0
H101 H 0.19376 0.90935 0.51945 0.0
Zn102 Zn 0.4682 0.16397 0.84073 0.0
C103 C 0.38561 0.09128 0.96342 0.0
N104 N 0.39 0.06881 0.91945 0.0
C105 C 0.41567 0.09085 0.87273 0.0
N106 N 0.4266 0.1252 0.88724 0.0
N107 N 0.40741 0.1255 0.94456 0.0
C108 C 0.42755 0.17322 0.13313 0.0
O109 O 0.45773 0.18766 0.09653 0.0
O110 O 0.461 0.1624 0.72889 0.0
Zn111 Zn 0.40317 0.16478 0.98312 0.0
N112 N 0.50768 0.1565 0.86128 0.0
C113 C 0.53512 0.13558 0.94655 0.0
C114 C 0.5063 0.13922 0.92575 0.0
C115 C 0.53684 0.17026 0.81626 0.0
N116 N 0.56443 0.14983 0.90261 0.0
C117 C 0.56626 0.16712 0.83771 0.0
O118 O 0.44497 0.21304 0.96221 0.0
C119 C 0.47367 0.22936 0.92525 0.0
O120 O 0.48369 0.21325 0.8807 0.0
H121 H 0.48325 0.12895 0.96154 0.0
H122 H 0.53757 0.18459 0.7661 0.0
C123 C 0.34932 0.1847 0.96449 0.0
C124 C 0.31919 0.18295 0.93059 0.0
C125 C 0.31506 0.13776 0.8492 0.0
C126 C 0.34488 0.13977 0.88257 0.0
N127 N 0.36133 0.16296 0.93977 0.0
N128 N 0.30296 0.15922 0.87392 0.0
H129 H 0.36289 0.20267 0.01048 0.0
C130 C 0.44386 0.17548 0.69775 0.0
O131 O 0.43099 0.19125 0.73949 0.0
O132 O 0.39877 0.16053 0.0961 0.0
H133 H 0.35488 0.123 0.86276 0.0
H134 H 0.53447 0.12204 0.99789 0.0
H135 H 0.30162 0.11934 0.80382 0.0
Zn136 Zn 0.86792 0.24381 0.64508 0.0
C137 C 0.94153 0.32851 0.5294 0.0
N138 N 0.9638 0.32611 0.57771 0.0
C139 C 0.94167 0.29999 0.62339 0.0
N140 N 0.90731 0.28698 0.60447 0.0
N141 N 0.90716 0.30518 0.54493 0.0
C142 C 0.86591 0.26768 0.36254 0.0
O143 O 0.87524 0.24984 0.40734 0.0
O144 O 0.8731 0.24135 0.75748 0.0
Zn145 Zn 0.86709 0.3067 0.49895 0.0
N146 N 0.86747 0.20333 0.59802 0.0
C147 C 0.89217 0.18179 0.50746 0.0
C148 C 0.89114 0.20987 0.5421 0.0
C149 C 0.8446 0.16955 0.62088 0.0
N150 N 0.86965 0.1482 0.53047 0.0
C151 C 0.84566 0.14096 0.58631 0.0
O152 O 0.81944 0.27815 0.55095 0.0
C153 C 0.804 0.25319 0.59842 0.0
O154 O 0.82026 0.23975 0.63193 0.0
H155 H 0.90924 0.23672 0.52457 0.0
H156 H 0.82655 0.16529 0.66651 0.0
C157 C 0.86383 0.36899 0.45361 0.0
C158 C 0.87434 0.40522 0.45613 0.0
C159 C 0.91305 0.41313 0.55727 0.0
C160 C 0.9021 0.37716 0.55559 0.0
N161 N 0.87848 0.35592 0.50267 0.0
N162 N 0.89902 0.42631 0.5076 0.0
H163 H 0.84459 0.3515 0.41281 0.0
C164 C 0.87199 0.26479 0.79805 0.0
O165 O 0.86935 0.29044 0.76555 0.0
O166 O 0.86121 0.29207 0.38938 0.0
H167 H 0.91274 0.36637 0.59579 0.0
H168 H 0.91089 0.18662 0.46291 0.0
H169 H 0.93237 0.43043 0.59808 0.0
Zn170 Zn 0.72052 0.56339 0.17402 0.0
C171 C 0.73072 0.64508 0.3013 0.0
N172 N 0.70404 0.64137 0.25752 0.0
C173 C 0.70024 0.61601 0.20948 0.0
N174 N 0.72339 0.60463 0.22304 0.0
N175 N 0.74279 0.62317 0.28117 0.0
C176 C 0.77064 0.60436 0.46943 0.0
O177 O 0.75294 0.57398 0.43388 0.0
O178 O 0.72695 0.57211 0.06301 0.0
Zn179 Zn 0.78581 0.62643 0.31893 0.0
N180 N 0.67307 0.52429 0.19204 0.0
C181 C 0.62417 0.49688 0.27581 0.0
C182 C 0.65712 0.52536 0.25669 0.0
C183 C 0.65727 0.49573 0.14526 0.0
N184 N 0.6087 0.46814 0.23013 0.0
C185 C 0.62422 0.4666 0.16508 0.0
O186 O 0.78932 0.58296 0.30066 0.0
C187 C 0.77764 0.5548 0.26197 0.0
O188 O 0.7534 0.54623 0.21293 0.0
H189 H 0.67021 0.54789 0.29393 0.0
H190 H 0.67089 0.49518 0.09499 0.0
C191 C 0.85989 0.67938 0.29767 0.0
C192 C 0.88828 0.70834 0.26093 0.0
C193 C 0.84733 0.7095 0.17434 0.0
C194 C 0.81949 0.68087 0.21063 0.0
N195 N 0.82616 0.66649 0.27176 0.0
N196 N 0.88086 0.72253 0.20029 0.0
H197 H 0.86429 0.6675 0.34677 0.0
C198 C 0.75739 0.58931 0.03312 0.0
O199 O 0.78573 0.60121 0.07569 0.0
O200 O 0.78763 0.63267 0.4314 0.0
H201 H 0.79272 0.67018 0.19003 0.0
H202 H 0.61123 0.49731 0.32722 0.0
H203 H 0.84238 0.72129 0.12581 0.0
C204 C 0.05932 0.32203 0.98051 0.0
C205 C 0.08613 0.35705 0.96783 0.0
C206 C 0.03477 0.30242 0.92407 0.0
C207 C 0.03716 0.3185 0.8538 0.0
C208 C 0.06668 0.35241 0.83826 0.0
C209 C 0.09068 0.37144 0.89595 0.0
C210 C 1.00405 0.26628 0.94278 0.0
C211 C 0.0702 0.37058 0.76402 0.0
C212 C 0.97758 0.27774 0.68447 0.0
C213 C 0.95523 0.29207 0.69149 0.0
C214 C 1.00266 0.28333 0.74036 0.0
C215 C 1.00564 0.30426 0.80366 0.0
C216 C 0.98109 0.3163 0.81357 0.0
C217 C 0.95634 0.31021 0.75699 0.0
C218 C 0.02797 0.26968 0.72808 0.0
C219 C 0.98307 0.33847 0.88068 0.0
H220 H 0.05543 0.31122 0.03675 0.0
H221 H 0.1104 0.39901 0.88712 0.0
H222 H 0.98085 0.26887 0.95895 0.0
H223 H 0.99627 0.24826 0.89365 0.0
H224 H 1.01049 0.25407 0.99048 0.0
H225 H 0.09582 0.39576 0.75895 0.0
H226 H 0.06787 0.35284 0.71705 0.0
H227 H 0.04845 0.37667 0.75788 0.0
H228 H 0.97746 0.2647 0.63254 0.0
H229 H 0.94035 0.32282 0.76058 0.0
H230 H 0.03388 0.26066 0.78156 0.0
H231 H 0.05332 0.29138 0.70564 0.0
H232 H 1.01723 0.24745 0.68718 0.0
H233 H 1.01011 0.36169 0.8867 0.0
H234 H 0.97713 0.32241 0.93251 0.0
H235 H 0.96422 0.3485 0.87644 0.0
C236 C 0.72783 0.65218 0.43716 0.0
C237 C 0.74129 0.66794 0.36766 0.0
C238 C 0.72337 0.67139 0.49503 0.0
C239 C 0.73214 0.70697 0.48205 0.0
C240 C 0.7498 0.72413 0.4152 0.0
C241 C 0.75381 0.7042 0.35811 0.0
C242 C 0.70558 0.65238 0.56669 0.0
C243 C 0.76135 0.76256 0.40152 0.0
C244 C 0.66215 0.72187 0.57077 0.0
C245 C 0.6773 0.73514 0.64087 0.0
C246 C 0.68115 0.71557 0.51539 0.0
C247 C 0.7162 0.72302 0.53083 0.0
C248 C 0.73293 0.7404 0.59838 0.0
C249 C 0.71302 0.74583 0.6532 0.0
C250 C 0.66198 0.69673 0.44445 0.0
C251 C 0.77037 0.74972 0.617 0.0
H252 H 0.71725 0.6239 0.44361 0.0
H253 H 0.76387 0.71617 0.30376 0.0
H254 H 0.72021 0.66864 0.61605 0.0
H255 H 0.67829 0.6482 0.56881 0.0
H256 H 0.70398 0.62618 0.57121 0.0
H257 H 0.77597 0.77241 0.34784 0.0
H258 H 0.73791 0.76616 0.40047 0.0
H259 H 0.77859 0.77902 0.44824 0.0
H260 H 0.63421 0.71266 0.56221 0.0
H261 H 0.72449 0.75552 0.7082 0.0
H262 H 0.6379 0.69883 0.43477 0.0
H263 H 0.65375 0.66822 0.449 0.0
H264 H 0.67951 0.70752 0.3949 0.0
H265 H 0.76967 0.72796 0.65054 0.0
H266 H 0.78358 0.77419 0.65164 0.0
H267 H 0.78649 0.75357 0.56605 0.0
C268 C 0.30906 0.94471 0.23268 0.0
C269 C 0.29593 0.94709 0.30253 0.0
C270 C 0.31451 0.96913 0.17578 0.0
C271 C 0.30676 0.99662 0.18981 0.0
C272 C 0.28943 0.99633 0.25706 0.0
C273 C 0.28467 0.97178 0.31329 0.0
C274 C 0.33238 0.96792 0.10418 0.0
C275 C 0.27925 0.02406 0.27289 0.0
C276 C 0.37736 0.08038 0.09887 0.0
C277 C 0.36212 0.07819 0.02869 0.0
C278 C 0.35812 0.05589 0.15543 0.0
C279 C 0.32288 0.02854 0.14076 0.0
C280 C 0.30614 0.02899 0.07307 0.0
C281 C 0.3262 0.0536 0.01721 0.0
C282 C 0.37696 0.05686 0.22733 0.0
C283 C 0.2683 1.00134 0.0561 0.0
H284 H 0.31877 0.92633 0.22534 0.0
H285 H 0.275 0.9739 0.368 0.0
H286 H 0.31797 0.9698 0.05473 0.0
H287 H 0.35976 0.99091 0.10241 0.0
H288 H 0.33378 0.94322 0.09936 0.0
H289 H 0.25838 0.01504 0.31665 0.0
H290 H 0.30281 0.04853 0.29339 0.0
H291 H 0.26966 0.03088 0.22132 0.0
H292 H 0.40544 0.09868 0.10675 0.0
H293 H 0.31463 0.05159 0.96224 0.0
H294 H 0.38132 0.03384 0.229 0.0
H295 H 0.36055 0.05485 0.27657 0.0
H296 H 0.40307 0.08152 0.23268 0.0
H297 H 0.2678 0.9779 0.03052 0.0
H298 H 0.25616 1.01152 0.01549 0.0
H299 H 0.25192 0.99257 0.10771 0.0
C300 C 0.18209 0.59131 0.28791 0.0
C301 C 0.18724 0.59277 0.21006 0.0
C302 C 0.19302 0.6225 0.32988 0.0
C303 C 0.21003 0.65582 0.2932 0.0
C304 C 0.2164 0.65735 0.21504 0.0
C305 C 0.20455 0.62583 0.17442 0.0
C306 C 0.18515 0.61972 0.41278 0.0
C307 C 0.23509 0.69229 0.17382 0.0
C308 C 0.20797 0.73722 0.36152 0.0
C309 C 0.24229 0.75804 0.39043 0.0
C310 C 0.19626 0.70282 0.33457 0.0
C311 C 0.21973 0.68918 0.33483 0.0
C312 C 0.25384 0.70941 0.3673 0.0
C313 C 0.26458 0.74348 0.39545 0.0
C314 C 0.15941 0.68187 0.30201 0.0
C315 C 0.27989 0.69614 0.36761 0.0
H316 H 0.1683 0.56575 0.31547 0.0
H317 H 0.20877 0.62704 0.11431 0.0
H318 H 0.2096 0.63722 0.44492 0.0
H319 H 0.16594 0.62882 0.42422 0.0
H320 H 0.17389 0.59217 0.4338 0.0
H321 H 0.24025 0.68904 0.11416 0.0
H322 H 0.21872 0.70525 0.17565 0.0
H323 H 0.26073 0.71043 0.20148 0.0
H324 H 0.19052 0.74822 0.35804 0.0
H325 H 0.29124 0.75951 0.41724 0.0
H326 H 0.14582 0.65436 0.32394 0.0
H327 H 0.16111 0.68028 0.24018 0.0
H328 H 0.14296 0.69413 0.31493 0.0
H329 H 0.26718 0.66855 0.38882 0.0
H330 H 0.30362 0.71304 0.40247 0.0
H331 H 0.28871 0.69591 0.30935 0.0
C332 C 0.29657 0.47873 0.03381 0.0
C333 C 0.27554 0.49254 0.05963 0.0
C334 C 0.33118 0.50115 0.00789 0.0
C335 C 0.34478 0.53825 0.00589 0.0
C336 C 0.32429 0.55245 0.03526 0.0
C337 C 0.29003 0.52942 0.06259 0.0
C338 C 0.35243 0.48494 0.97879 0.0
C339 C 0.33749 0.59174 0.03294 0.0
C340 C 0.44288 0.59806 0.96136 0.0
C341 C 0.44189 0.60056 0.88309 0.0
C342 C 0.41144 0.57832 0.00268 0.0
C343 C 0.37837 0.56142 0.9648 0.0
C344 C 0.37733 0.56515 0.88608 0.0
C345 C 0.40909 0.58424 0.8462 0.0
C346 C 0.41369 0.57436 0.08626 0.0
C347 C 0.34266 0.54829 0.84355 0.0
H348 H 0.28559 0.45025 0.03197 0.0
H349 H 0.2738 0.54024 0.08199 0.0
H350 H 0.35442 0.48738 0.91681 0.0
H351 H 0.37979 0.49922 0.00165 0.0
H352 H 0.34015 0.45643 0.99354 0.0
H353 H 0.32035 0.59895 0.06579 0.0
H354 H 0.36495 0.60696 0.0549 0.0
H355 H 0.33804 0.60005 0.97388 0.0
H356 H 0.46828 0.61033 0.98985 0.0
H357 H 0.40831 0.58636 0.7857 0.0
H358 H 0.40469 0.54625 0.09971 0.0
H359 H 0.39587 0.58155 0.11619 0.0
H360 H 0.44109 0.59108 0.10799 0.0
H361 H 0.32979 0.519 0.84702 0.0
H362 H 0.34628 0.55599 0.78343 0.0
H363 H 0.32427 0.556 0.86903 0.0
C364 C 0.55167 0.81946 0.68408 0.0
C365 C 0.53797 0.78521 0.71341 0.0
C366 C 0.52915 0.83138 0.65723 0.0
C367 C 0.49199 0.80821 0.65793 0.0
C368 C 0.47793 0.77404 0.69004 0.0
C369 C 0.50111 0.76309 0.71821 0.0
C370 C 0.54528 0.86829 0.62504 0.0
C371 C 0.43855 0.74828 0.69057 0.0
C372 C 0.43296 0.84781 0.61671 0.0
C373 C 0.42889 0.8434 0.53873 0.0
C374 C 0.45288 0.8359 0.65688 0.0
C375 C 0.46838 0.81858 0.61822 0.0
C376 C 0.46304 0.81286 0.53992 0.0
C377 C 0.44379 0.82574 0.50112 0.0
C378 C 0.45859 0.84318 0.73996 0.0
C379 C 0.47842 0.79387 0.49664 0.0
H380 H 0.58014 0.83678 0.68081 0.0
H381 H 0.49037 0.7365 0.74033 0.0
H382 H 0.54134 0.86668 0.56337 0.0
H383 H 0.53198 0.88225 0.64837 0.0
H384 H 0.57414 0.88436 0.63676 0.0
H385 H 0.43164 0.72414 0.72391 0.0
H386 H 0.42404 0.76103 0.7137 0.0
H387 H 0.42913 0.74012 0.63217 0.0
H388 H 0.42184 0.86186 0.64579 0.0
H389 H 0.44048 0.82211 0.44088 0.0
H390 H 0.48707 0.86195 0.75099 0.0
H391 H 0.45142 0.81843 0.77095 0.0
H392 H 0.44283 0.85474 0.76261 0.0
H393 H 0.50778 0.80989 0.49731 0.0
H394 H 0.46938 0.78899 0.43732 0.0
H395 H 0.47084 0.76807 0.52347 0.0
C396 C 0.59933 0.17924 0.71571 0.0
C397 C 0.59959 0.18308 0.79385 0.0
C398 C 0.63119 0.19133 0.67569 0.0
C399 C 0.66397 0.20822 0.71469 0.0
C400 C 0.66428 0.21345 0.79315 0.0
C401 C 0.63212 0.20042 0.83178 0.0
C402 C 0.62968 0.18464 0.59237 0.0
C403 C 0.69859 0.23196 0.83682 0.0
C404 C 0.7456 0.20618 0.64786 0.0
C405 C 0.76659 0.24049 0.61915 0.0
C406 C 0.71133 0.19471 0.67502 0.0
C407 C 0.69792 0.21837 0.6752 0.0
C408 C 0.7185 0.25266 0.64392 0.0
C409 C 0.75248 0.26319 0.61549 0.0
C410 C 0.69003 0.15767 0.70632 0.0
C411 C 0.70547 0.2789 0.64423 0.0
H412 H 0.57419 0.16546 0.68634 0.0
H413 H 0.63238 0.20363 0.89214 0.0
H414 H 0.64764 0.20951 0.56217 0.0
H415 H 0.63895 0.16558 0.58064 0.0
H416 H 0.60245 0.17367 0.56944 0.0
H417 H 0.69441 0.23661 0.89626 0.0
H418 H 0.71166 0.21569 0.83578 0.0
H419 H 0.71704 0.25783 0.81057 0.0
H420 H 0.75622 0.18838 0.65014 0.0
H421 H 0.76864 0.2898 0.59372 0.0
H422 H 0.66288 0.14413 0.68233 0.0
H423 H 0.68745 0.159 0.76797 0.0
H424 H 0.70254 0.14134 0.69455 0.0
H425 H 0.67828 0.26667 0.62076 0.0
H426 H 0.72304 0.30316 0.61158 0.0
H427 H 0.70423 0.28676 0.70286 0.0
C428 C 0.82167 0.40668 0.40472 0.0
C429 C 0.85848 0.42104 0.40733 0.0
C430 C 0.80681 0.42562 0.37173 0.0
C431 C 0.82936 0.45929 0.33935 0.0
C432 C 0.86636 0.47247 0.33675 0.0
C433 C 0.88051 0.45345 0.37188 0.0
C434 C 0.76733 0.41091 0.37715 0.0
C435 C 0.8913 0.50779 0.30127 0.0
C436 C 0.78969 0.50576 0.22702 0.0
C437 C 0.79073 0.53011 0.27995 0.0
C438 C 0.8022 0.48245 0.24515 0.0
C439 C 0.81513 0.48295 0.31841 0.0
C440 C 0.81548 0.50701 0.37232 0.0
C441 C 0.80373 0.5305 0.35218 0.0
C442 C 0.80214 0.45773 0.18578 0.0
C443 C 0.82831 0.50802 0.45157 0.0
H444 H 0.80465 0.38184 0.43307 0.0
H445 H 0.90901 0.4645 0.37383 0.0
H446 H 0.76191 0.42651 0.4189 0.0
H447 H 0.75639 0.41325 0.32264 0.0
H448 H 0.75309 0.38267 0.39473 0.0
H449 H 0.91827 0.51159 0.29334 0.0
H450 H 0.88095 0.51026 0.24607 0.0
H451 H 0.89346 0.52946 0.33764 0.0
H452 H 0.77968 0.50537 0.17113 0.0
H453 H 0.80416 0.54887 0.39379 0.0
H454 H 0.78669 0.42988 0.20522 0.0
H455 H 0.82965 0.4635 0.17569 0.0
H456 H 0.79076 0.4602 0.13186 0.0
H457 H 0.81365 0.48125 0.47708 0.0
H458 H 0.82492 0.52686 0.48782 0.0
H459 H 0.8568 0.51598 0.45103 0.0
C460 C 0.53458 0.28215 0.93751 0.0
C461 C 0.4977 0.26745 0.94163 0.0
C462 C 0.55768 0.31637 0.96526 0.0
C463 C 0.54354 0.33662 0.99633 0.0
C464 C 0.50639 0.32279 0.99568 0.0
C465 C 0.48393 0.28825 0.96922 0.0
C466 C 0.59702 0.32981 0.96604 0.0
C467 C 0.49021 0.34375 0.02667 0.0
C468 C 0.59074 0.40087 0.15603 0.0
C469 C 0.60646 0.43374 0.11962 0.0
C470 C 0.57145 0.36912 0.11594 0.0
C471 C 0.56693 0.37023 0.03749 0.0
C472 C 0.58323 0.40336 5e-05 0.0
C473 C 0.60316 0.43479 0.04154 0.0
C474 C 0.55522 0.3344 0.15798 0.0
C475 C 0.57845 0.40568 0.91682 0.0
H476 H 0.54539 0.26612 0.91674 0.0
H477 H 0.45545 0.27713 0.97198 0.0
H478 H 0.61189 0.3573 0.94428 0.0
H479 H 0.60588 0.33037 0.02466 0.0
H480 H 0.60409 0.31283 0.93219 0.0
H481 H 0.46153 0.33128 0.01317 0.0
H482 H 0.4933 0.34569 0.08856 0.0
H483 H 0.50407 0.37114 0.00408 0.0
H484 H 0.59347 0.4 0.21634 0.0
H485 H 0.61493 0.46022 0.01339 0.0
H486 H 0.5629 0.3162 0.13136 0.0
H487 H 0.52589 0.32132 0.1556 0.0
H488 H 0.56346 0.33799 0.21781 0.0
H489 H 0.5856 0.38808 0.88578 0.0
H490 H 0.59475 0.43314 0.89528 0.0
H491 H 0.55017 0.39643 0.90455 0.0
C492 C 0.95269 0.33775 0.39365 0.0
C493 C 0.9553 0.35239 0.46459 0.0
C494 C 0.97658 0.35737 0.33659 0.0
C495 C 1.00416 0.39245 0.35179 0.0
C496 C 1.00438 0.40863 0.42074 0.0
C497 C 0.98016 0.3882 0.47686 0.0
C498 C 0.97356 0.33858 0.26327 0.0
C499 C 0.03227 0.44636 0.43805 0.0
C500 C 0.08761 0.4067 0.25785 0.0
C501 C 0.08523 0.42054 0.18886 0.0
C502 C 0.06313 0.40057 0.31497 0.0
C503 C 0.0359 0.40882 0.30248 0.0
C504 C 0.03592 0.42647 0.23588 0.0
C505 C 0.06045 0.43176 0.17922 0.0
C506 C 0.06376 0.38113 0.38462 0.0
C507 C 1.00737 0.43558 0.22053 0.0
H508 H 0.93489 0.30979 0.38516 0.0
H509 H 0.98256 0.3994 0.53236 0.0
H510 H 0.99476 0.35434 0.22236 0.0
H511 H 0.97359 0.3135 0.27423 0.0
H512 H 0.94774 0.33134 0.23674 0.0
H513 H 0.02394 0.45747 0.48473 0.0
H514 H 0.05719 0.44718 0.45488 0.0
H515 H 0.03808 0.46347 0.38791 0.0
H516 H 0.10586 0.39677 0.26398 0.0
H517 H 0.05824 0.44177 0.125 0.0
H518 H 0.04009 0.35417 0.38523 0.0
H519 H 0.06273 0.39515 0.43562 0.0
H520 H 0.08777 0.37843 0.38759 0.0
H521 H 0.98273 0.41117 0.2035 0.0
H522 H 1.01506 0.45535 0.17472 0.0
H523 H 1.00138 0.44611 0.27173 0.0
C524 C 0.69379 0.62196 0.07438 0.0
C525 C 0.67758 0.60774 0.14312 0.0
C526 C 0.67536 0.6282 0.01749 0.0
C527 C 0.63979 0.61968 0.02993 0.0
C528 C 0.62223 0.60178 0.09633 0.0
C529 C 0.64159 0.5965 0.15285 0.0
C530 C 0.69525 0.64758 0.94769 0.0
C531 C 0.58415 0.59135 0.11102 0.0
C532 C 0.62614 0.68867 0.93333 0.0
C533 C 0.61379 0.67282 0.86335 0.0
C534 C 0.63091 0.67001 0.99189 0.0
C535 C 0.62373 0.63488 0.9791 0.0
C536 C 0.60756 0.61757 0.91111 0.0
C537 C 0.60307 0.63695 0.85353 0.0
C538 C 0.64779 0.68945 0.06395 0.0
C539 C 0.59848 0.57987 0.89618 0.0
H540 H 0.72196 0.63183 0.06815 0.0
H541 H 0.62933 0.58609 0.20683 0.0
H542 H 0.68021 0.63333 0.89682 0.0
H543 H 0.69824 0.67441 0.94661 0.0
H544 H 0.72208 0.65058 0.94486 0.0
H545 H 0.57197 0.56988 0.15347 0.0
H546 H 0.58302 0.61461 0.13283 0.0
H547 H 0.56816 0.58243 0.0588 0.0
H548 H 0.63603 0.7168 0.93965 0.0
H549 H 0.59406 0.62494 0.7987 0.0
H550 H 0.67553 0.69494 0.06696 0.0
H551 H 0.63345 0.67296 0.11314 0.0
H552 H 0.64809 0.71505 0.06807 0.0
H553 H 0.62292 0.57942 0.88095 0.0
H554 H 0.57926 0.56794 0.84925 0.0
H555 H 0.58724 0.56325 0.94698 0.0
C556 C 0.4112 0.08003 0.73701 0.0
C557 C 0.42454 0.0771 0.80624 0.0
C558 C 0.40527 0.05586 0.67918 0.0
C559 C 0.41302 0.02827 0.69137 0.0
C560 C 0.4301 0.02768 0.75841 0.0
C561 C 0.43526 0.05193 0.81568 0.0
C562 C 0.38679 0.05735 0.60864 0.0
C563 C 0.4396 0.99932 0.77283 0.0
C564 C 0.34339 0.94552 0.59499 0.0
C565 C 0.35941 0.94836 0.52556 0.0
C566 C 0.3619 0.96966 0.65272 0.0
C567 C 0.39728 0.99711 0.64024 0.0
C568 C 0.41469 0.99758 0.57297 0.0
C569 C 0.39531 0.97338 0.51579 0.0
C570 C 0.34221 0.96832 0.7235 0.0
C571 C 0.45257 0.02575 0.55827 0.0
H572 H 0.40163 0.09857 0.73097 0.0
H573 H 0.44497 0.04935 0.87 0.0
H574 H 0.40155 0.05695 0.55839 0.0
H575 H 0.35986 0.0337 0.60567 0.0
H576 H 0.3841 0.08137 0.60641 0.0
H577 H 0.45976 1.00726 0.818 0.0
H578 H 0.41554 0.9746 0.79052 0.0
H579 H 0.44983 0.99331 0.72123 0.0
H580 H 0.31527 0.92708 0.60131 0.0
H581 H 0.40741 0.97587 0.46134 0.0
H582 H 0.33905 0.99204 0.72654 0.0
H583 H 0.3575 0.9687 0.77357 0.0
H584 H 0.31545 0.94437 0.72599 0.0
H585 H 0.45337 0.05058 0.54088 0.0
H586 H 0.46454 0.01773 0.5128 0.0
H587 H 0.46895 0.0316 0.60968 0.0
C588 C 0.2235 0.28208 0.1074 0.0
C589 C 0.21715 0.30199 0.05405 0.0
C590 C 0.24331 0.26569 0.08964 0.0
C591 C 0.25727 0.26918 0.01654 0.0
C592 C 0.25233 0.29045 0.96321 0.0
C593 C 0.23224 0.30649 0.98242 0.0
C594 C 0.24791 0.2433 0.14829 0.0
C595 C 0.26685 0.29492 0.88467 0.0
C596 C 0.32539 0.23977 0.98365 0.0
C597 C 0.30406 0.20543 0.95473 0.0
C598 C 0.31071 0.26106 0.00335 0.0
C599 C 0.27386 0.24772 0.99409 0.0
C600 C 0.25229 0.21315 0.96494 0.0
C601 C 0.26763 0.19259 0.94551 0.0
C602 C 0.33462 0.29787 0.0337 0.0
C603 C 0.21285 0.19772 0.95464 0.0
H604 H 0.21234 0.27864 0.16314 0.0
H605 H 0.22721 0.32125 0.9401 0.0
H606 H 0.23326 0.21506 0.1309 0.0
H607 H 0.27626 0.25109 0.15363 0.0
H608 H 0.23801 0.24564 0.20418 0.0
H609 H 0.26432 0.31541 0.85265 0.0
H610 H 0.29519 0.30233 0.88624 0.0
H611 H 0.25231 0.26938 0.85404 0.0
H612 H 0.35368 0.2504 0.98946 0.0
H613 H 0.25085 0.16612 0.92344 0.0
H614 H 0.32575 0.30035 0.09055 0.0
H615 H 0.33296 0.31769 0.99746 0.0
H616 H 0.36274 0.30449 0.037 0.0
H617 H 0.2003 0.19667 0.00942 0.0
H618 H 0.19985 0.17056 0.93052 0.0
H619 H 0.20767 0.21491 0.91704 0.0
C620 C 0.74499 0.94815 0.76892 0.0
C621 C 0.72605 0.92119 0.7161 0.0
C622 C 0.7611 0.98409 0.74928 0.0
C623 C 0.7582 0.99359 0.67486 0.0
C624 C 0.7377 0.96669 0.62204 0.0
C625 C 0.72203 0.93082 0.64308 0.0
C626 C 0.78275 1.01185 0.8074 0.0
C627 C 0.73378 0.97573 0.5422 0.0
C628 C 0.78804 0.09078 0.63669 0.0
C629 C 0.82265 0.10345 0.61002 0.0
C630 C 0.76642 0.05494 0.65689 0.0
C631 C 0.77978 0.03133 0.65072 0.0
C632 C 0.81461 0.04401 0.6237 0.0
C633 C 0.83545 0.07973 0.60342 0.0
C634 C 0.72928 0.04231 0.68466 0.0
C635 C 0.83012 0.0199 0.617 0.0
H636 H 0.748 0.94119 0.82572 0.0
H637 H 0.70801 0.91053 0.60115 0.0
H638 H 0.81117 0.02536 0.79158 0.0
H639 H 0.77478 0.03235 0.80978 0.0
H640 H 0.77989 1.00031 0.86427 0.0
H641 H 0.71342 0.9523 0.51082 0.0
H642 H 0.72647 0.99674 0.54103 0.0
H643 H 0.75948 0.9862 0.51264 0.0
H644 H 0.77755 0.10862 0.64049 0.0
H645 H 0.86215 0.08924 0.58315 0.0
H646 H 0.72627 0.03181 0.74249 0.0
H647 H 0.70988 0.02028 0.64883 0.0
H648 H 0.72255 0.06377 0.68474 0.0
H649 H 0.83066 1.00899 0.67289 0.0
H650 H 0.85749 0.0338 0.59412 0.0
H651 H 0.81328 0.99714 0.57989 0.0
C652 C 0.94914 0.76063 0.27405 0.0
C653 C 0.92583 0.72437 0.28616 0.0
C654 C 0.98504 0.77671 0.29418 0.0
C655 C 0.99833 0.75606 0.32676 0.0
C656 C 0.97508 0.71938 0.33899 0.0
C657 C 0.93908 0.70396 0.31874 0.0
C658 C 1.00873 0.81597 0.28085 0.0
C659 C 0.98832 0.6964 0.37291 0.0
C660 C 0.09881 0.7983 0.31635 0.0
C661 C 0.10932 0.81473 0.38693 0.0
C662 C 0.0627 0.77759 0.29726 0.0
C663 C 0.0364 0.77342 0.34955 0.0
C664 C 0.04679 0.78879 0.42167 0.0
C665 C 0.08296 0.80913 0.4394 0.0
C666 C 0.05274 0.7615 0.21985 0.0
C667 C 1.01971 0.78511 0.47915 0.0
H668 H 0.93921 0.77668 0.24916 0.0
H669 H 0.92158 0.67579 0.32687 0.0
H670 H 1.02023 0.82965 0.33479 0.0
H671 H 0.03111 0.82063 0.24386 0.0
H672 H 0.99432 0.82825 0.25462 0.0
H673 H 0.96698 0.66831 0.37835 0.0
H674 H 1.00983 0.69749 0.33773 0.0
H675 H 0.99971 0.70655 0.42927 0.0
H676 H 0.11862 0.8027 0.27461 0.0
H677 H 0.09058 0.8213 0.49437 0.0
H678 H 0.04154 0.77523 0.18697 0.0
H679 H 0.032 0.73314 0.22339 0.0
H680 H 0.07585 0.76363 0.18894 0.0
H681 H 1.00587 0.79914 0.45923 0.0
H682 H 0.03191 0.79624 0.53456 0.0
H683 H 0.99935 0.75682 0.48657 0.0
C684 C 0.20279 0.42216 0.41884 0.0
C685 C 0.18146 0.43331 0.38266 0.0
C686 C 0.20181 0.41815 0.49711 0.0
C687 C 0.17852 0.42489 0.54019 0.0
C688 C 0.15608 0.43506 0.50374 0.0
C689 C 0.15809 0.4395 0.42552 0.0
C690 C 0.22649 0.40773 0.53394 0.0
C691 C 0.13035 0.44177 0.54749 0.0
C692 C 0.16008 0.39158 0.74188 0.0
C693 C 0.18248 0.42261 0.78194 0.0
C694 C 0.15807 0.39192 0.66315 0.0
C695 C 0.17955 0.42385 0.62365 0.0
C696 C 0.20256 0.45508 0.66388 0.0
C697 C 0.20353 0.45413 0.74241 0.0
C698 C 0.13266 0.35826 0.62237 0.0
C699 C 0.22627 0.48957 0.62394 0.0
H700 H 0.22093 0.41735 0.38618 0.0
H701 H 0.14128 0.44784 0.39794 0.0
H702 H 0.24531 0.42946 0.57118 0.0
H703 H 0.21123 0.38395 0.56951 0.0
H704 H 0.24194 0.40199 0.49235 0.0
H705 H 0.11215 0.41781 0.58014 0.0
H706 H 0.14494 0.46362 0.58822 0.0
H707 H 0.1143 0.44888 0.51058 0.0
H708 H 0.14356 0.36718 0.77212 0.0
H709 H 0.22109 0.47818 0.77288 0.0
H710 H 0.14703 0.35166 0.57986 0.0
H711 H 0.11261 0.36216 0.59204 0.0
H712 H 0.11866 0.33541 0.66109 0.0
H713 H 0.24373 0.48603 0.58389 0.0
H714 H 0.24313 0.51131 0.66341 0.0
H715 H 0.20995 0.49776 0.59096 0.0
C716 C 0.64674 0.7762 0.40502 0.0
C717 C 0.62675 0.78919 0.44041 0.0
C718 C 0.64489 0.77092 0.32685 0.0
C719 C 0.62199 0.77814 0.28332 0.0
C720 C 0.60201 0.79151 0.31874 0.0
C721 C 0.60481 0.79708 0.39657 0.0
C722 C 0.66689 0.75692 0.29137 0.0
C723 C 0.57718 0.79942 0.27454 0.0
C724 C 0.63431 0.79291 0.07258 0.0
C725 C 0.60786 0.7602 0.04431 0.0
C726 C 0.63985 0.7988 0.15017 0.0
C727 C 0.61835 0.77137 0.20085 0.0
C728 C 0.59224 0.738 0.17265 0.0
C729 C 0.5873 0.73281 0.0948 0.0
C730 C 0.66852 0.83447 0.17803 0.0
C731 C 0.56913 0.70793 0.22478 0.0
H732 H 0.66388 0.77018 0.43834 0.0
H733 H 0.58913 0.80698 0.42328 0.0
H734 H 0.67733 0.76926 0.23591 0.0
H735 H 0.68958 0.76174 0.32761 0.0
H736 H 0.65012 0.72791 0.28267 0.0
H737 H 0.56365 0.80989 0.31042 0.0
H738 H 0.59204 0.81912 0.23006 0.0
H739 H 0.55673 0.77495 0.24636 0.0
H740 H 0.65061 0.81412 0.03408 0.0
H741 H 0.56709 0.70729 0.07355 0.0
H742 H 0.68697 0.83106 0.21546 0.0
H743 H 0.65656 0.84727 0.21155 0.0
H744 H 0.68399 0.85251 0.13144 0.0
H745 H 0.5859 0.70195 0.26197 0.0
H746 H 0.55047 0.6834 0.19398 0.0
H747 H 0.55358 0.7158 0.26122 0.0
C748 C 0.3076 0.875 0.75972 0.0
C749 C 0.27753 0.85239 0.71713 0.0
C750 C 0.30554 0.87738 0.83792 0.0
C751 C 0.2728 0.85604 0.87465 0.0
C752 C 0.24227 0.8335 0.83187 0.0
C753 C 0.24495 0.83216 0.75358 0.0
C754 C 0.33845 0.90246 0.88134 0.0
C755 C 0.20693 0.81022 0.86904 0.0
C756 C 0.27653 0.83115 0.07701 0.0
C757 C 0.26739 0.85328 0.11638 0.0
C758 C 0.27814 0.83171 0.99847 0.0
C759 C 0.27096 0.8554 0.9581 0.0
C760 C 0.26184 0.87797 0.99749 0.0
C761 C 0.25996 0.8765 0.07627 0.0
C762 C 0.28742 0.80681 0.95865 0.0
C763 C 0.25476 0.90417 0.95679 0.0
H764 H 0.33282 0.89102 0.7319 0.0
H765 H 0.22159 0.81465 0.72111 0.0
H766 H 0.33381 0.92183 0.91245 0.0
H767 H 0.34467 0.88758 0.92337 0.0
H768 H 0.36185 0.91723 0.84438 0.0
H769 H 0.18549 0.79498 0.82772 0.0
H770 H 0.20897 0.79124 0.90736 0.0
H771 H 0.19938 0.8266 0.90356 0.0
H772 H 0.2821 0.81299 0.10762 0.0
H773 H 0.25324 0.89394 0.10646 0.0
H774 H 0.31195 0.82222 0.9253 0.0
H775 H 0.26594 0.78976 0.91896 0.0
H776 H 0.29155 0.78951 0.99823 0.0
H777 H 0.28022 0.92654 0.93655 0.0
H778 H 0.24191 0.91498 0.99373 0.0
H779 H 0.23759 0.89181 0.90707 0.0
C780 C 0.44608 0.15032 0.57284 0.0
C781 C 0.43846 0.1728 0.6154 0.0
C782 C 0.44162 0.14794 0.49464 0.0
C783 C 0.43002 0.16913 0.45786 0.0
C784 C 0.42182 0.1915 0.5006 0.0
C785 C 0.42587 0.19285 0.5789 0.0
C786 C 0.44964 0.123 0.45126 0.0
C787 C 0.40954 0.21461 0.46337 0.0
C788 C 0.45874 0.19425 0.25572 0.0
C789 C 0.42755 0.172 0.2161 0.0
C790 C 0.45971 0.19367 0.33427 0.0
C791 C 0.42887 0.16982 0.3744 0.0
C792 C 0.39726 0.14714 0.33477 0.0
C793 C 0.39692 0.14864 0.25598 0.0
C794 C 0.4938 0.21869 0.37435 0.0
C795 C 0.36401 0.12076 0.37521 0.0
H796 H 0.45544 0.13442 0.6007 0.0
H797 H 0.41988 0.21025 0.61135 0.0
H798 H 0.42568 0.10357 0.42 0.0
H799 H 0.47073 0.13799 0.40937 0.0
H800 H 0.45837 0.1083 0.48828 0.0
H801 H 0.40317 0.22971 0.50467 0.0
H802 H 0.43049 0.2337 0.42517 0.0
H803 H 0.38566 0.19812 0.42873 0.0
H804 H 0.48246 0.21253 0.22529 0.0
H805 H 0.37282 0.13111 0.22559 0.0
H806 H 0.50304 0.20338 0.40774 0.0
H807 H 0.48919 0.23561 0.41403 0.0
H808 H 0.51521 0.23613 0.33494 0.0
H809 H 0.36718 0.09837 0.3951 0.0
H810 H 0.34035 0.11 0.33818 0.0
H811 H 0.35915 0.13294 0.42512 0.0
C812 C 0.84161 0.26693 0.23539 0.0
C813 C 0.8659 0.26323 0.2804 0.0
C814 C 0.84259 0.26483 0.1569 0.0
C815 C 0.86959 0.26062 0.12253 0.0
C816 C 0.89429 0.25698 0.16793 0.0
C817 C 0.89156 0.25741 0.24646 0.0
C818 C 0.81497 0.26756 0.11075 0.0
C819 C 0.92458 0.25435 0.13366 0.0
C820 C 0.85757 0.23087 0.91835 0.0
C821 C 0.87348 0.26344 0.88072 0.0
C822 C 0.8562 0.22946 0.99717 0.0
C823 C 0.87259 0.26139 0.03913 0.0
C824 C 0.89027 0.2943 0.00111 0.0
C825 C 0.88952 0.29492 0.92242 0.0
C826 C 0.836 0.1939 0.03541 0.0
C827 C 0.90959 0.32892 0.04347 0.0
H828 H 0.82167 0.27126 0.26172 0.0
H829 H 0.91065 0.25501 0.28132 0.0
H830 H 0.82765 0.2925 0.07792 0.0
H831 H 0.80256 0.24528 0.07015 0.0
H832 H 0.79384 0.26725 0.1461 0.0
H833 H 0.94096 0.25073 0.17667 0.0
H834 H 0.91442 0.23192 0.09352 0.0
H835 H 0.94186 0.27887 0.10159 0.0
H836 H 0.8448 0.20649 0.88611 0.0
H837 H 0.90166 0.32011 0.89337 0.0
H838 H 0.8137 0.19264 0.06797 0.0
H839 H 0.8534 0.19039 0.07572 0.0
H840 H 0.82517 0.17154 0.99483 0.0
H841 H 0.89027 0.33379 0.07398 0.0
H842 H 0.92539 0.35174 0.00566 0.0
H843 H 0.92763 0.3277 0.08585 0.0
C844 C 0.76031 0.57387 0.59256 0.0
C845 C 0.77032 0.60509 0.55232 0.0
C846 C 0.75929 0.57349 0.6711 0.0
C847 C 0.76797 0.60502 0.71055 0.0
C848 C 0.77816 0.63672 0.6703 0.0
C849 C 0.77941 0.63643 0.5915 0.0
C850 C 0.74886 0.53926 0.71188 0.0
C851 C 0.78692 0.67073 0.71007 0.0
C852 C 0.73114 0.58945 0.90835 0.0
C853 C 0.7607 0.59549 0.95114 0.0
C854 C 0.73357 0.59415 0.83028 0.0
C855 C 0.76614 0.60434 0.79392 0.0
C856 C 0.79624 0.61114 0.83694 0.0
C857 C 0.79324 0.60692 0.91514 0.0
C858 C 0.70117 0.58767 0.78654 0.0
C859 C 0.83137 0.62185 0.80007 0.0
H860 H 0.75351 0.54962 0.56261 0.0
H861 H 0.78683 0.66057 0.56058 0.0
H862 H 0.77007 0.54315 0.75179 0.0
H863 H 0.72447 0.53115 0.74509 0.0
H864 H 0.74393 0.51734 0.67294 0.0
H865 H 0.80066 0.69407 0.67251 0.0
H866 H 0.76203 0.66907 0.73008 0.0
H867 H 0.80391 0.67503 0.75985 0.0
H868 H 0.70599 0.58099 0.93589 0.0
H869 H 0.8162 0.61169 0.94784 0.0
H870 H 0.69406 0.56622 0.74488 0.0
H871 H 0.70694 0.61193 0.75499 0.0
H872 H 0.67792 0.58014 0.82333 0.0
H873 H 0.82858 0.60025 0.76258 0.0
H874 H 0.85261 0.62764 0.84164 0.0
H875 H 0.83969 0.64569 0.76476 0.0
loop_
_geom_bond_atom_site_label_1
_geom_bond_atom_site_label_2
_geom_bond_distance
_geom_bond_site_symmetry_2
_ccdc_geom_bond_type
Zn0 N4 2.020 . S
Zn0 O8 2.019 1_554 S
Zn0 N10 2.119 . S
Zn0 O18 1.975 . S
C1 N2 1.334 . S
C1 N5 1.336 . S
N2 C1 1.334 . S
N2 C3 1.334 . S
C3 N2 1.334 . S
C3 N4 1.336 . S
N4 Zn0 2.020 . S
N4 C3 1.336 . S
N4 N5 1.354 . S
N5 C1 1.336 . S
N5 N4 1.354 . S
N5 Zn9 2.020 . S
C6 O7 1.244 . S
C6 O30 1.257 . S
O7 C6 1.244 . S
O8 Zn0 2.019 1_556 S
O8 C28 1.257 . S
Zn9 N5 2.020 . S
Zn9 O16 1.975 . S
Zn9 N25 2.119 . S
Zn9 O30 2.019 . S
N10 Zn0 2.119 . S
N10 C12 1.334 . S
N10 C13 1.328 . S
C11 C12 1.391 . S
C11 N14 1.329 . S
C11 H32 0.930 . S
C12 N10 1.334 . S
C12 C11 1.391 . S
C12 H19 0.930 . S
C13 N10 1.328 . S
C13 C15 1.392 . S
C13 H20 0.930 1_554 S
N14 C11 1.329 . S
N14 C15 1.331 . S
C15 C13 1.392 . S
C15 N14 1.331 . S
O16 Zn9 1.975 . S
O16 C17 1.252 . S
C17 O16 1.252 . S
C17 O18 1.252 . S
O18 Zn0 1.975 . S
O18 C17 1.252 . S
H19 C12 0.930 . S
H20 C13 0.930 1_556 S
C21 C22 1.392 . S
C21 N25 1.328 . S
C21 H27 0.930 . S
C22 C21 1.392 . S
C22 N26 1.331 . S
C23 C24 1.391 . S
C23 N26 1.329 . S
C23 H33 0.930 . S
C24 C23 1.391 . S
C24 N25 1.334 . S
C24 H31 0.930 . S
N25 Zn9 2.119 . S
N25 C21 1.328 . S
N25 C24 1.334 . S
N26 C22 1.331 . S
N26 C23 1.329 . S
H27 C21 0.930 . S
C28 O8 1.257 . S
C28 O29 1.244 . S
O29 C28 1.244 . S
O30 C6 1.257 . S
O30 Zn9 2.019 . S
H31 C24 0.930 . S
H32 C11 0.930 . S
H33 C23 0.930 . S
Zn34 N38 2.020 . S
Zn34 O42 2.019 . S
Zn34 N44 2.119 . S
Zn34 O52 1.975 . S
C35 N36 1.334 . S
C35 N39 1.336 . S
N36 C35 1.334 . S
N36 C37 1.334 . S
C37 N36 1.334 . S
C37 N38 1.336 . S
N38 Zn34 2.020 . S
N38 C37 1.336 . S
N38 N39 1.354 . S
N39 C35 1.336 . S
N39 N38 1.354 . S
N39 Zn43 2.020 . S
C40 O41 1.244 . S
C40 O64 1.257 . S
O41 C40 1.244 . S
O42 Zn34 2.019 . S
O42 C62 1.257 . S
Zn43 N39 2.020 . S
Zn43 O50 1.975 . S
Zn43 N59 2.119 . S
Zn43 O64 2.019 1_556 S
N44 Zn34 2.119 . S
N44 C46 1.334 . S
N44 C47 1.328 . S
C45 C46 1.391 . S
C45 N48 1.329 . S
C45 H66 0.930 . S
C46 N44 1.334 . S
C46 C45 1.391 . S
C46 H53 0.930 . S
C47 N44 1.328 . S
C47 C49 1.392 . S
C47 H54 0.930 . S
N48 C45 1.329 . S
N48 C49 1.331 . S
C49 C47 1.392 . S
C49 N48 1.331 . S
O50 Zn43 1.975 . S
O50 C51 1.252 . S
C51 O50 1.252 . S
C51 O52 1.252 . S
O52 Zn34 1.975 . S
O52 C51 1.252 . S
H53 C46 0.930 . S
H54 C47 0.930 . S
C55 C56 1.392 . S
C55 N59 1.328 . S
C55 H61 0.930 . S
C56 C55 1.392 . S
C56 N60 1.331 . S
C57 C58 1.391 . S
C57 N60 1.329 . S
C57 H67 0.930 . S
C58 C57 1.391 . S
C58 N59 1.334 . S
C58 H65 0.930 . S
N59 Zn43 2.119 . S
N59 C55 1.328 . S
N59 C58 1.334 . S
N60 C56 1.331 . S
N60 C57 1.329 . S
H61 C55 0.930 . S
C62 O42 1.257 . S
C62 O63 1.244 . S
O63 C62 1.244 . S
O64 C40 1.257 . S
O64 Zn43 2.019 1_554 S
H65 C58 0.930 . S
H66 C45 0.930 . S
H67 C57 0.930 . S
Zn68 N72 2.020 . S
Zn68 O76 2.019 . S
Zn68 N78 2.119 . S
Zn68 O86 1.975 . S
C69 N70 1.334 . S
C69 N73 1.336 . S
N70 C69 1.334 . S
N70 C71 1.334 . S
C71 N70 1.334 . S
C71 N72 1.336 . S
N72 Zn68 2.020 . S
N72 C71 1.336 . S
N72 N73 1.354 . S
N73 C69 1.336 . S
N73 N72 1.354 . S
N73 Zn77 2.020 . S
C74 O75 1.244 . S
C74 O98 1.257 . S
O75 C74 1.244 . S
O76 Zn68 2.019 . S
O76 C96 1.257 . S
Zn77 N73 2.020 . S
Zn77 O84 1.975 . S
Zn77 N93 2.119 . S
Zn77 O98 2.019 . S
N78 Zn68 2.119 . S
N78 C80 1.334 . S
N78 C81 1.328 . S
C79 C80 1.391 . S
C79 N82 1.329 . S
C79 H100 0.930 . S
C80 N78 1.334 . S
C80 C79 1.391 . S
C80 H87 0.930 . S
C81 N78 1.328 . S
C81 C83 1.392 . S
C81 H88 0.930 . S
N82 C79 1.329 . S
N82 C83 1.331 . S
C83 C81 1.392 . S
C83 N82 1.331 . S
O84 Zn77 1.975 . S
O84 C85 1.252 . S
C85 O84 1.252 . S
C85 O86 1.252 . S
O86 Zn68 1.975 . S
O86 C85 1.252 . S
H87 C80 0.930 . S
H88 C81 0.930 . S
C89 C90 1.392 . S
C89 N93 1.328 . S
C89 H95 0.930 . S
C90 C89 1.392 . S
C90 N94 1.331 . S
C91 C92 1.391 . S
C91 N94 1.329 . S
C91 H101 0.930 . S
C92 C91 1.391 . S
C92 N93 1.334 . S
C92 H99 0.930 . S
N93 Zn77 2.119 . S
N93 C89 1.328 . S
N93 C92 1.334 . S
N94 C90 1.331 . S
N94 C91 1.329 . S
H95 C89 0.930 . S
C96 O76 1.257 . S
C96 O97 1.244 . S
O97 C96 1.244 . S
O98 C74 1.257 . S
O98 Zn77 2.019 . S
H99 C92 0.930 . S
H100 C79 0.930 . S
H101 C91 0.930 . S
Zn102 N106 2.020 . S
Zn102 O110 2.019 . S
Zn102 N112 2.119 . S
Zn102 O120 1.975 . S
C103 N104 1.334 . S
C103 N107 1.336 . S
N104 C103 1.334 . S
N104 C105 1.334 . S
C105 N104 1.334 . S
C105 N106 1.336 . S
N106 Zn102 2.020 . S
N106 C105 1.336 . S
N106 N107 1.354 . S
N107 C103 1.336 . S
N107 N106 1.354 . S
N107 Zn111 2.020 . S
C108 O109 1.244 . S
C108 O132 1.257 . S
O109 C108 1.244 . S
O110 Zn102 2.019 . S
O110 C130 1.257 . S
Zn111 N107 2.020 . S
Zn111 O118 1.975 . S
Zn111 N127 2.119 . S
Zn111 O132 2.019 1_556 S
N112 Zn102 2.119 . S
N112 C114 1.334 . S
N112 C115 1.328 . S
C113 C114 1.391 . S
C113 N116 1.329 . S
C113 H134 0.930 . S
C114 N112 1.334 . S
C114 C113 1.391 . S
C114 H121 0.930 . S
C115 N112 1.328 . S
C115 C117 1.392 . S
C115 H122 0.930 . S
N116 C113 1.329 . S
N116 C117 1.331 . S
C117 C115 1.392 . S
C117 N116 1.331 . S
O118 Zn111 1.975 . S
O118 C119 1.252 . S
C119 O118 1.252 . S
C119 O120 1.252 . S
O120 Zn102 1.975 . S
O120 C119 1.252 . S
H121 C114 0.930 . S
H122 C115 0.930 . S
C123 C124 1.392 . S
C123 N127 1.328 . S
C123 H129 0.930 1_556 S
C124 C123 1.392 . S
C124 N128 1.331 . S
C125 C126 1.391 . S
C125 N128 1.329 . S
C125 H135 0.930 . S
C126 C125 1.391 . S
C126 N127 1.334 . S
C126 H133 0.930 . S
N127 Zn111 2.119 . S
N127 C123 1.328 . S
N127 C126 1.334 . S
N128 C124 1.331 . S
N128 C125 1.329 . S
H129 C123 0.930 1_554 S
C130 O110 1.257 . S
C130 O131 1.244 . S
O131 C130 1.244 . S
O132 C108 1.257 . S
O132 Zn111 2.019 1_554 S
H133 C126 0.930 . S
H134 C113 0.930 . S
H135 C125 0.930 . S
Zn136 N140 2.020 . S
Zn136 O144 2.019 . S
Zn136 N146 2.119 . S
Zn136 O154 1.975 . S
C137 N138 1.334 . S
C137 N141 1.336 . S
N138 C137 1.334 . S
N138 C139 1.334 . S
C139 N138 1.334 . S
C139 N140 1.336 . S
N140 Zn136 2.020 . S
N140 C139 1.336 . S
N140 N141 1.354 . S
N141 C137 1.336 . S
N141 N140 1.354 . S
N141 Zn145 2.020 . S
C142 O143 1.244 . S
C142 O166 1.257 . S
O143 C142 1.244 . S
O144 Zn136 2.019 . S
O144 C164 1.257 . S
Zn145 N141 2.020 . S
Zn145 O152 1.975 . S
Zn145 N161 2.119 . S
Zn145 O166 2.019 . S
N146 Zn136 2.119 . S
N146 C148 1.334 . S
N146 C149 1.328 . S
C147 C148 1.391 . S
C147 N150 1.329 . S
C147 H168 0.930 . S
C148 N146 1.334 . S
C148 C147 1.391 . S
C148 H155 0.930 . S
C149 N146 1.328 . S
C149 C151 1.392 . S
C149 H156 0.930 . S
N150 C147 1.329 . S
N150 C151 1.331 . S
C151 C149 1.392 . S
C151 N150 1.331 . S
O152 Zn145 1.975 . S
O152 C153 1.252 . S
C153 O152 1.252 . S
C153 O154 1.252 . S
O154 Zn136 1.975 . S
O154 C153 1.252 . S
H155 C148 0.930 . S
H156 C149 0.930 . S
C157 C158 1.392 . S
C157 N161 1.328 . S
C157 H163 0.930 . S
C158 C157 1.392 . S
C158 N162 1.331 . S
C159 C160 1.391 . S
C159 N162 1.329 . S
C159 H169 0.930 . S
C160 C159 1.391 . S
C160 N161 1.334 . S
C160 H167 0.930 . S
N161 Zn145 2.119 . S
N161 C157 1.328 . S
N161 C160 1.334 . S
N162 C158 1.331 . S
N162 C159 1.329 . S
H163 C157 0.930 . S
C164 O144 1.257 . S
C164 O165 1.244 . S
O165 C164 1.244 . S
O166 C142 1.257 . S
O166 Zn145 2.019 . S
H167 C160 0.930 . S
H168 C147 0.930 . S
H169 C159 0.930 . S
Zn170 N174 2.020 . S
Zn170 O178 2.019 1_554 S
Zn170 N180 2.119 . S
Zn170 O188 1.975 . S
C171 N172 1.334 . S
C171 N175 1.336 . S
N172 C171 1.334 . S
N172 C173 1.334 . S
C173 N172 1.334 . S
C173 N174 1.336 . S
N174 Zn170 2.020 . S
N174 C173 1.336 . S
N174 N175 1.354 . S
N175 C171 1.336 . S
N175 N174 1.354 . S
N175 Zn179 2.020 . S
C176 O177 1.244 . S
C176 O200 1.257 . S
O177 C176 1.244 . S
O178 Zn170 2.019 1_556 S
O178 C198 1.257 . S
Zn179 N175 2.020 . S
Zn179 O186 1.975 . S
Zn179 N195 2.119 . S
Zn179 O200 2.019 . S
N180 Zn170 2.119 . S
N180 C182 1.334 . S
N180 C183 1.328 . S
C181 C182 1.391 . S
C181 N184 1.329 . S
C181 H202 0.930 . S
C182 N180 1.334 . S
C182 C181 1.391 . S
C182 H189 0.930 . S
C183 N180 1.328 . S
C183 C185 1.392 . S
C183 H190 0.930 . S
N184 C181 1.329 . S
N184 C185 1.331 . S
C185 C183 1.392 . S
C185 N184 1.331 . S
O186 Zn179 1.975 . S
O186 C187 1.252 . S
C187 O186 1.252 . S
C187 O188 1.252 . S
O188 Zn170 1.975 . S
O188 C187 1.252 . S
H189 C182 0.930 . S
H190 C183 0.930 . S
C191 C192 1.392 . S
C191 N195 1.328 . S
C191 H197 0.930 . S
C192 C191 1.392 . S
C192 N196 1.331 . S
C193 C194 1.391 . S
C193 N196 1.329 . S
C193 H203 0.930 . S
C194 C193 1.391 . S
C194 N195 1.334 . S
C194 H201 0.930 . S
N195 Zn179 2.119 . S
N195 C191 1.328 . S
N195 C194 1.334 . S
N196 C192 1.331 . S
N196 C193 1.329 . S
H197 C191 0.930 . S
C198 O178 1.257 . S
C198 O199 1.244 . S
O199 C198 1.244 . S
O200 C176 1.257 . S
O200 Zn179 2.019 . S
H201 C194 0.930 . S
H202 C181 0.930 . S
H203 C193 0.930 . S
C204 C205 1.391 . S
C204 C206 1.394 . S
C204 H220 0.931 . S
C205 C204 1.391 . S
C205 C209 1.376 . S
C206 C204 1.394 . S
C206 C207 1.369 . S
C206 C210 1.531 . S
C207 C206 1.369 . S
C207 C208 1.410 . S
C207 C215 1.503 1_455 S
C208 C207 1.410 . S
C208 C209 1.392 . S
C208 C211 1.511 1_455 S
C209 C205 1.376 . S
C209 C208 1.392 . S
C209 H221 0.929 1_556 S
C210 C206 1.531 . S
C210 H222 0.960 . S
C210 H223 0.962 . S
C210 H224 0.960 . S
C211 C208 1.511 1_655 S
C211 H225 0.961 . S
C211 H226 0.961 . S
C211 H227 0.961 . S
C212 C213 1.370 . S
C212 C214 1.363 . S
C212 H228 0.931 . S
C213 C212 1.370 . S
C213 C217 1.408 . S
C214 C212 1.363 . S
C214 C215 1.370 . S
C214 C218 1.524 1_655 S
C215 C207 1.503 1_655 S
C215 C214 1.370 . S
C215 C216 1.403 . S
C216 C215 1.403 . S
C216 C217 1.404 . S
C216 C219 1.539 . S
C217 C213 1.408 . S
C217 C216 1.404 . S
C217 H229 0.930 . S
C218 C214 1.524 1_455 S
C218 H230 0.956 . S
C218 H231 0.961 . S
C218 H232 0.961 . S
C219 C216 1.539 . S
C219 H233 0.958 . S
C219 H234 0.961 . S
C219 H235 0.960 . S
H220 C204 0.931 . S
H221 C209 0.929 1_554 S
H222 C210 0.960 . S
H223 C210 0.962 . S
H224 C210 0.960 . S
H225 C211 0.961 . S
H226 C211 0.961 . S
H227 C211 0.961 . S
H228 C212 0.931 . S
H229 C217 0.930 . S
H230 C218 0.956 . S
H231 C218 0.961 . S
H232 C218 0.961 . S
H233 C219 0.958 . S
H234 C219 0.961 . S
H235 C219 0.960 . S
C236 C237 1.391 . S
C236 C238 1.394 . S
C236 H252 0.931 . S
C237 C236 1.391 . S
C237 C241 1.376 . S
C238 C236 1.394 . S
C238 C239 1.369 . S
C238 C242 1.531 . S
C239 C238 1.369 . S
C239 C240 1.410 . S
C239 C247 1.503 . S
C240 C239 1.410 . S
C240 C241 1.392 . S
C240 C243 1.511 . S
C241 C237 1.376 . S
C241 C240 1.392 . S
C241 H253 0.929 . S
C242 C238 1.531 . S
C242 H254 0.960 . S
C242 H255 0.962 . S
C242 H256 0.960 . S
C243 C240 1.511 . S
C243 H257 0.961 . S
C243 H258 0.961 . S
C243 H259 0.961 . S
C244 C245 1.370 . S
C244 C246 1.363 . S
C244 H260 0.931 . S
C245 C244 1.370 . S
C245 C249 1.408 . S
C246 C244 1.363 . S
C246 C247 1.370 . S
C246 C250 1.524 . S
C247 C239 1.503 . S
C247 C246 1.370 . S
C247 C248 1.403 . S
C248 C247 1.403 . S
C248 C249 1.404 . S
C248 C251 1.539 . S
C249 C245 1.408 . S
C249 C248 1.404 . S
C249 H261 0.930 . S
C250 C246 1.524 . S
C250 H262 0.956 . S
C250 H263 0.961 . S
C250 H264 0.961 . S
C251 C248 1.539 . S
C251 H265 0.958 . S
C251 H266 0.961 . S
C251 H267 0.960 . S
H252 C236 0.931 . S
H253 C241 0.929 . S
H254 C242 0.960 . S
H255 C242 0.962 . S
H256 C242 0.960 . S
H257 C243 0.961 . S
H258 C243 0.961 . S
H259 C243 0.961 . S
H260 C244 0.931 . S
H261 C249 0.930 . S
H262 C250 0.956 . S
H263 C250 0.961 . S
H264 C250 0.961 . S
H265 C251 0.958 . S
H266 C251 0.961 . S
H267 C251 0.960 . S
C268 C269 1.391 . S
C268 C270 1.394 . S
C268 H284 0.931 . S
C269 C268 1.391 . S
C269 C273 1.376 . S
C270 C268 1.394 . S
C270 C271 1.369 . S
C270 C274 1.531 . S
C271 C270 1.369 . S
C271 C272 1.410 . S
C271 C279 1.503 1_565 S
C272 C271 1.410 . S
C272 C273 1.392 . S
C272 C275 1.511 1_565 S
C273 C269 1.376 . S
C273 C272 1.392 . S
C273 H285 0.929 . S
C274 C270 1.531 . S
C274 H286 0.960 . S
C274 H287 0.962 . S
C274 H288 0.960 . S
C275 C272 1.511 1_545 S
C275 H289 0.961 . S
C275 H290 0.961 . S
C275 H291 0.961 . S
C276 C277 1.370 . S
C276 C278 1.363 . S
C276 H292 0.931 . S
C277 C276 1.370 . S
C277 C281 1.408 . S
C278 C276 1.363 . S
C278 C279 1.370 . S
C278 C282 1.524 . S
C279 C271 1.503 1_545 S
C279 C278 1.370 . S
C279 C280 1.403 . S
C280 C279 1.403 . S
C280 C281 1.404 . S
C280 C283 1.539 1_545 S
C281 C277 1.408 . S
C281 C280 1.404 . S
C281 H293 0.930 1_554 S
C282 C278 1.524 . S
C282 H294 0.956 . S
C282 H295 0.961 . S
C282 H296 0.961 . S
C283 C280 1.539 1_565 S
C283 H297 0.958 . S
C283 H298 0.961 . S
C283 H299 0.960 . S
H284 C268 0.931 . S
H285 C273 0.929 . S
H286 C274 0.960 . S
H287 C274 0.962 . S
H288 C274 0.960 . S
H289 C275 0.961 . S
H290 C275 0.961 . S
H291 C275 0.961 . S
H292 C276 0.931 . S
H293 C281 0.930 1_556 S
H294 C282 0.956 . S
H295 C282 0.961 . S
H296 C282 0.961 . S
H297 C283 0.958 . S
H298 C283 0.961 . S
H299 C283 0.960 . S
C300 C301 1.391 . S
C300 C302 1.394 . S
C300 H316 0.931 . S
C301 C300 1.391 . S
C301 C305 1.376 . S
C302 C300 1.394 . S
C302 C303 1.369 . S
C302 C306 1.531 . S
C303 C302 1.369 . S
C303 C304 1.410 . S
C303 C311 1.503 . S
C304 C303 1.410 . S
C304 C305 1.392 . S
C304 C307 1.511 . S
C305 C301 1.376 . S
C305 C304 1.392 . S
C305 H317 0.929 . S
C306 C302 1.531 . S
C306 H318 0.960 . S
C306 H319 0.962 . S
C306 H320 0.960 . S
C307 C304 1.511 . S
C307 H321 0.961 . S
C307 H322 0.961 . S
C307 H323 0.961 . S
C308 C309 1.370 . S
C308 C310 1.363 . S
C308 H324 0.931 . S
C309 C308 1.370 . S
C309 C313 1.408 . S
C310 C308 1.363 . S
C310 C311 1.370 . S
C310 C314 1.524 . S
C311 C303 1.503 . S
C311 C310 1.370 . S
C311 C312 1.403 . S
C312 C311 1.403 . S
C312 C313 1.404 . S
C312 C315 1.539 . S
C313 C309 1.408 . S
C313 C312 1.404 . S
C313 H325 0.930 . S
C314 C310 1.524 . S
C314 H326 0.956 . S
C314 H327 0.961 . S
C314 H328 0.961 . S
C315 C312 1.539 . S
C315 H329 0.958 . S
C315 H330 0.961 . S
C315 H331 0.960 . S
H316 C300 0.931 . S
H317 C305 0.929 . S
H318 C306 0.960 . S
H319 C306 0.962 . S
H320 C306 0.960 . S
H321 C307 0.961 . S
H322 C307 0.961 . S
H323 C307 0.961 . S
H324 C308 0.931 . S
H325 C313 0.930 . S
H326 C314 0.956 . S
H327 C314 0.961 . S
H328 C314 0.961 . S
H329 C315 0.958 . S
H330 C315 0.961 . S
H331 C315 0.960 . S
C332 C333 1.391 . S
C332 C334 1.394 . S
C332 H348 0.931 . S
C333 C332 1.391 . S
C333 C337 1.376 . S
C334 C332 1.394 . S
C334 C335 1.369 . S
C334 C338 1.531 1_554 S
C335 C334 1.369 . S
C335 C336 1.410 . S
C335 C343 1.503 . S
C336 C335 1.410 . S
C336 C337 1.392 . S
C336 C339 1.511 . S
C337 C333 1.376 . S
C337 C336 1.392 . S
C337 H349 0.929 . S
C338 C334 1.531 1_556 S
C338 H350 0.960 . S
C338 H351 0.962 1_556 S
C338 H352 0.960 . S
C339 C336 1.511 . S
C339 H353 0.961 . S
C339 H354 0.961 . S
C339 H355 0.961 . S
C340 C341 1.370 1_554 S
C340 C342 1.363 . S
C340 H356 0.931 . S
C341 C340 1.370 1_556 S
C341 C345 1.408 . S
C342 C340 1.363 . S
C342 C343 1.370 . S
C342 C346 1.524 . S
C343 C335 1.503 . S
C343 C342 1.370 . S
C343 C344 1.403 1_554 S
C344 C343 1.403 1_556 S
C344 C345 1.404 . S
C344 C347 1.539 . S
C345 C341 1.408 . S
C345 C344 1.404 . S
C345 H357 0.930 . S
C346 C342 1.524 . S
C346 H358 0.956 . S
C346 H359 0.961 . S
C346 H360 0.961 . S
C347 C344 1.539 . S
C347 H361 0.958 . S
C347 H362 0.961 . S
C347 H363 0.960 . S
H348 C332 0.931 . S
H349 C337 0.929 . S
H350 C338 0.960 . S
H351 C338 0.962 1_554 S
H352 C338 0.960 . S
H353 C339 0.961 . S
H354 C339 0.961 . S
H355 C339 0.961 . S
H356 C340 0.931 . S
H357 C345 0.930 . S
H358 C346 0.956 . S
H359 C346 0.961 . S
H360 C346 0.961 . S
H361 C347 0.958 . S
H362 C347 0.961 . S
H363 C347 0.960 . S
C364 C365 1.391 . S
C364 C366 1.394 . S
C364 H380 0.931 . S
C365 C364 1.391 . S
C365 C369 1.376 . S
C366 C364 1.394 . S
C366 C367 1.369 . S
C366 C370 1.531 . S
C367 C366 1.369 . S
C367 C368 1.410 . S
C367 C375 1.503 . S
C368 C367 1.410 . S
C368 C369 1.392 . S
C368 C371 1.511 . S
C369 C365 1.376 . S
C369 C368 1.392 . S
C369 H381 0.929 . S
C370 C366 1.531 . S
C370 H382 0.960 . S
C370 H383 0.962 . S
C370 H384 0.960 . S
C371 C368 1.511 . S
C371 H385 0.961 . S
C371 H386 0.961 . S
C371 H387 0.961 . S
C372 C373 1.370 . S
C372 C374 1.363 . S
C372 H388 0.931 . S
C373 C372 1.370 . S
C373 C377 1.408 . S
C374 C372 1.363 . S
C374 C375 1.370 . S
C374 C378 1.524 . S
C375 C367 1.503 . S
C375 C374 1.370 . S
C375 C376 1.403 . S
C376 C375 1.403 . S
C376 C377 1.404 . S
C376 C379 1.539 . S
C377 C373 1.408 . S
C377 C376 1.404 . S
C377 H389 0.930 . S
C378 C374 1.524 . S
C378 H390 0.956 . S
C378 H391 0.961 . S
C378 H392 0.961 . S
C379 C376 1.539 . S
C379 H393 0.958 . S
C379 H394 0.961 . S
C379 H395 0.960 . S
H380 C364 0.931 . S
H381 C369 0.929 . S
H382 C370 0.960 . S
H383 C370 0.962 . S
H384 C370 0.960 . S
H385 C371 0.961 . S
H386 C371 0.961 . S
H387 C371 0.961 . S
H388 C372 0.931 . S
H389 C377 0.930 . S
H390 C378 0.956 . S
H391 C378 0.961 . S
H392 C378 0.961 . S
H393 C379 0.958 . S
H394 C379 0.961 . S
H395 C379 0.960 . S
C396 C397 1.391 . S
C396 C398 1.394 . S
C396 H412 0.931 . S
C397 C396 1.391 . S
C397 C401 1.376 . S
C398 C396 1.394 . S
C398 C399 1.369 . S
C398 C402 1.531 . S
C399 C398 1.369 . S
C399 C400 1.410 . S
C399 C407 1.503 . S
C400 C399 1.410 . S
C400 C401 1.392 . S
C400 C403 1.511 . S
C401 C397 1.376 . S
C401 C400 1.392 . S
C401 H413 0.929 . S
C402 C398 1.531 . S
C402 H414 0.960 . S
C402 H415 0.962 . S
C402 H416 0.960 . S
C403 C400 1.511 . S
C403 H417 0.961 . S
C403 H418 0.961 . S
C403 H419 0.961 . S
C404 C405 1.370 . S
C404 C406 1.363 . S
C404 H420 0.931 . S
C405 C404 1.370 . S
C405 C409 1.408 . S
C406 C404 1.363 . S
C406 C407 1.370 . S
C406 C410 1.524 . S
C407 C399 1.503 . S
C407 C406 1.370 . S
C407 C408 1.403 . S
C408 C407 1.403 . S
C408 C409 1.404 . S
C408 C411 1.539 . S
C409 C405 1.408 . S
C409 C408 1.404 . S
C409 H421 0.930 . S
C410 C406 1.524 . S
C410 H422 0.956 . S
C410 H423 0.961 . S
C410 H424 0.961 . S
C411 C408 1.539 . S
C411 H425 0.958 . S
C411 H426 0.961 . S
C411 H427 0.960 . S
H412 C396 0.931 . S
H413 C401 0.929 . S
H414 C402 0.960 . S
H415 C402 0.962 . S
H416 C402 0.960 . S
H417 C403 0.961 . S
H418 C403 0.961 . S
H419 C403 0.961 . S
H420 C404 0.931 . S
H421 C409 0.930 . S
H422 C410 0.956 . S
H423 C410 0.961 . S
H424 C410 0.961 . S
H425 C411 0.958 . S
H426 C411 0.961 . S
H427 C411 0.960 . S
C428 C429 1.391 . S
C428 C430 1.394 . S
C428 H444 0.931 . S
C429 C428 1.391 . S
C429 C433 1.376 . S
C430 C428 1.394 . S
C430 C431 1.369 . S
C430 C434 1.531 . S
C431 C430 1.369 . S
C431 C432 1.410 . S
C431 C439 1.503 . S
C432 C431 1.410 . S
C432 C433 1.392 . S
C432 C435 1.511 . S
C433 C429 1.376 . S
C433 C432 1.392 . S
C433 H445 0.929 . S
C434 C430 1.531 . S
C434 H446 0.960 . S
C434 H447 0.962 . S
C434 H448 0.960 . S
C435 C432 1.511 . S
C435 H449 0.961 . S
C435 H450 0.961 . S
C435 H451 0.961 . S
C436 C437 1.370 . S
C436 C438 1.363 . S
C436 H452 0.931 . S
C437 C436 1.370 . S
C437 C441 1.408 . S
C438 C436 1.363 . S
C438 C439 1.370 . S
C438 C442 1.524 . S
C439 C431 1.503 . S
C439 C438 1.370 . S
C439 C440 1.403 . S
C440 C439 1.403 . S
C440 C441 1.404 . S
C440 C443 1.539 . S
C441 C437 1.408 . S
C441 C440 1.404 . S
C441 H453 0.930 . S
C442 C438 1.524 . S
C442 H454 0.956 . S
C442 H455 0.961 . S
C442 H456 0.961 . S
C443 C440 1.539 . S
C443 H457 0.958 . S
C443 H458 0.961 . S
C443 H459 0.960 . S
H444 C428 0.931 . S
H445 C433 0.929 . S
H446 C434 0.960 . S
H447 C434 0.962 . S
H448 C434 0.960 . S
H449 C435 0.961 . S
H450 C435 0.961 . S
H451 C435 0.961 . S
H452 C436 0.931 . S
H453 C441 0.930 . S
H454 C442 0.956 . S
H455 C442 0.961 . S
H456 C442 0.961 . S
H457 C443 0.958 . S
H458 C443 0.961 . S
H459 C443 0.960 . S
C460 C461 1.391 . S
C460 C462 1.394 . S
C460 H476 0.931 . S
C461 C460 1.391 . S
C461 C465 1.376 . S
C462 C460 1.394 . S
C462 C463 1.369 . S
C462 C466 1.531 . S
C463 C462 1.369 . S
C463 C464 1.410 . S
C463 C471 1.503 . S
C464 C463 1.410 . S
C464 C465 1.392 . S
C464 C467 1.511 . S
C465 C461 1.376 . S
C465 C464 1.392 . S
C465 H477 0.929 . S
C466 C462 1.531 . S
C466 H478 0.960 . S
C466 H479 0.962 . S
C466 H480 0.960 . S
C467 C464 1.511 . S
C467 H481 0.961 1_556 S
C467 H482 0.961 1_556 S
C467 H483 0.961 . S
C468 C469 1.370 . S
C468 C470 1.363 . S
C468 H484 0.931 . S
C469 C468 1.370 . S
C469 C473 1.408 1_554 S
C470 C468 1.363 . S
C470 C471 1.370 1_554 S
C470 C474 1.524 . S
C471 C463 1.503 . S
C471 C470 1.370 1_556 S
C471 C472 1.403 . S
C472 C471 1.403 . S
C472 C473 1.404 . S
C472 C475 1.539 . S
C473 C469 1.408 1_556 S
C473 C472 1.404 . S
C473 H485 0.930 . S
C474 C470 1.524 . S
C474 H486 0.956 . S
C474 H487 0.961 . S
C474 H488 0.961 . S
C475 C472 1.539 . S
C475 H489 0.958 . S
C475 H490 0.961 . S
C475 H491 0.960 . S
H476 C460 0.931 . S
H477 C465 0.929 . S
H478 C466 0.960 . S
H479 C466 0.962 . S
H480 C466 0.960 . S
H481 C467 0.961 1_554 S
H482 C467 0.961 1_554 S
H483 C467 0.961 . S
H484 C468 0.931 . S
H485 C473 0.930 . S
H486 C474 0.956 . S
H487 C474 0.961 . S
H488 C474 0.961 . S
H489 C475 0.958 . S
H490 C475 0.961 . S
H491 C475 0.960 . S
C492 C493 1.391 . S
C492 C494 1.394 . S
C492 H508 0.931 . S
C493 C492 1.391 . S
C493 C497 1.376 . S
C494 C492 1.394 . S
C494 C495 1.369 . S
C494 C498 1.531 . S
C495 C494 1.369 . S
C495 C496 1.410 . S
C495 C503 1.503 1_655 S
C496 C495 1.410 . S
C496 C497 1.392 . S
C496 C499 1.511 . S
C497 C493 1.376 . S
C497 C496 1.392 . S
C497 H509 0.929 . S
C498 C494 1.531 . S
C498 H510 0.964 . S
C498 H511 0.946 1_655 S
C498 H512 0.960 . S
C499 C496 1.511 . S
C499 H513 0.961 . S
C499 H514 0.961 . S
C499 H515 0.961 . S
C500 C501 1.370 . S
C500 C502 1.363 . S
C500 H516 0.931 . S
C501 C500 1.370 . S
C501 C505 1.408 . S
C502 C500 1.363 . S
C502 C503 1.370 . S
C502 C506 1.524 . S
C503 C495 1.503 1_455 S
C503 C502 1.370 . S
C503 C504 1.403 . S
C504 C503 1.403 . S
C504 C505 1.404 . S
C504 C507 1.539 1_455 S
C505 C501 1.408 . S
C505 C504 1.404 . S
C505 H517 0.930 . S
C506 C502 1.524 . S
C506 H518 0.956 . S
C506 H519 0.961 . S
C506 H520 0.961 . S
C507 C504 1.539 1_655 S
C507 H521 0.958 . S
C507 H522 0.961 . S
C507 H523 0.960 . S
H508 C492 0.931 . S
H509 C497 0.929 . S
H510 C498 0.964 . S
H511 C498 0.946 1_455 S
H512 C498 0.960 . S
H513 C499 0.961 . S
H514 C499 0.961 . S
H515 C499 0.961 . S
H516 C500 0.931 . S
H517 C505 0.930 . S
H518 C506 0.956 . S
H519 C506 0.961 . S
H520 C506 0.961 . S
H521 C507 0.958 . S
H522 C507 0.961 . S
H523 C507 0.960 . S
C524 C525 1.391 . S
C524 C526 1.394 1_554 S
C524 H540 0.931 . S
C525 C524 1.391 . S
C525 C529 1.376 . S
C526 C524 1.394 1_556 S
C526 C527 1.369 1_556 S
C526 C530 1.531 . S
C527 C526 1.369 1_554 S
C527 C528 1.410 . S
C527 C535 1.503 1_554 S
C528 C527 1.410 . S
C528 C529 1.392 . S
C528 C531 1.511 . S
C529 C525 1.376 . S
C529 C528 1.392 . S
C529 H541 0.929 . S
C530 C526 1.531 . S
C530 H542 0.960 . S
C530 H543 0.962 . S
C530 H544 0.960 . S
C531 C528 1.511 . S
C531 H545 0.961 . S
C531 H546 0.961 . S
C531 H547 0.961 . S
C532 C533 1.370 . S
C532 C534 1.363 1_556 S
C532 H548 0.931 1_556 S
C533 C532 1.370 . S
C533 C537 1.408 . S
C534 C532 1.363 1_554 S
C534 C535 1.370 1_554 S
C534 C538 1.524 . S
C535 C527 1.503 1_556 S
C535 C534 1.370 1_556 S
C535 C536 1.403 . S
C536 C535 1.403 . S
C536 C537 1.404 . S
C536 C539 1.539 . S
C537 C533 1.408 . S
C537 C536 1.404 . S
C537 H549 0.930 . S
C538 C534 1.524 . S
C538 H550 0.956 . S
C538 H551 0.961 . S
C538 H552 0.961 . S
C539 C536 1.539 . S
C539 H553 0.958 . S
C539 H554 0.961 . S
C539 H555 0.960 . S
H540 C524 0.931 . S
H541 C529 0.929 . S
H542 C530 0.960 . S
H543 C530 0.962 . S
H544 C530 0.960 . S
H545 C531 0.961 . S
H546 C531 0.961 . S
H547 C531 0.961 . S
H548 C532 0.931 1_554 S
H549 C537 0.930 . S
H550 C538 0.956 . S
H551 C538 0.961 . S
H552 C538 0.961 . S
H553 C539 0.958 . S
H554 C539 0.961 . S
H555 C539 0.960 . S
C556 C557 1.391 . S
C556 C558 1.394 . S
C556 H572 0.931 . S
C557 C556 1.391 . S
C557 C561 1.376 . S
C558 C556 1.394 . S
C558 C559 1.369 . S
C558 C562 1.531 . S
C559 C558 1.369 . S
C559 C560 1.410 . S
C559 C567 1.503 1_545 S
C560 C559 1.410 . S
C560 C561 1.392 . S
C560 C563 1.511 . S
C561 C557 1.376 . S
C561 C560 1.392 . S
C561 H573 0.929 . S
C562 C558 1.531 . S
C562 H574 0.960 . S
C562 H575 0.962 . S
C562 H576 0.960 . S
C563 C560 1.511 . S
C563 H577 0.961 . S
C563 H578 0.961 1_545 S
C563 H579 0.961 . S
C564 C565 1.370 . S
C564 C566 1.363 . S
C564 H580 0.931 . S
C565 C564 1.370 . S
C565 C569 1.408 . S
C566 C564 1.363 . S
C566 C567 1.370 . S
C566 C570 1.524 . S
C567 C559 1.503 1_565 S
C567 C566 1.370 . S
C567 C568 1.403 . S
C568 C567 1.403 . S
C568 C569 1.404 . S
C568 C571 1.539 1_565 S
C569 C565 1.408 . S
C569 C568 1.404 . S
C569 H581 0.930 . S
C570 C566 1.524 . S
C570 H582 0.956 . S
C570 H583 0.961 . S
C570 H584 0.961 . S
C571 C568 1.539 1_545 S
C571 H585 0.958 . S
C571 H586 0.961 1_545 S
C571 H587 0.960 . S
H572 C556 0.931 . S
H573 C561 0.929 . S
H574 C562 0.960 . S
H575 C562 0.962 . S
H576 C562 0.960 . S
H577 C563 0.961 . S
H578 C563 0.961 1_565 S
H579 C563 0.961 . S
H580 C564 0.931 . S
H581 C569 0.930 . S
H582 C570 0.956 . S
H583 C570 0.961 . S
H584 C570 0.961 . S
H585 C571 0.958 . S
H586 C571 0.961 1_565 S
H587 C571 0.960 . S
C588 C589 1.391 . S
C588 C590 1.394 . S
C588 H604 0.931 . S
C589 C588 1.391 . S
C589 C593 1.376 1_554 S
C590 C588 1.394 . S
C590 C591 1.369 . S
C590 C594 1.531 . S
C591 C590 1.369 . S
C591 C592 1.410 1_554 S
C591 C599 1.503 . S
C592 C591 1.410 1_556 S
C592 C593 1.392 . S
C592 C595 1.511 . S
C593 C589 1.376 1_556 S
C593 C592 1.392 . S
C593 H605 0.929 . S
C594 C590 1.531 . S
C594 H606 0.960 . S
C594 H607 0.962 . S
C594 H608 0.960 . S
C595 C592 1.511 . S
C595 H609 0.961 . S
C595 H610 0.961 . S
C595 H611 0.961 . S
C596 C597 1.370 . S
C596 C598 1.363 . S
C596 H612 0.931 . S
C597 C596 1.370 . S
C597 C601 1.408 1_556 S
C598 C596 1.363 . S
C598 C599 1.370 1_556 S
C598 C602 1.524 . S
C599 C591 1.503 . S
C599 C598 1.370 1_554 S
C599 C600 1.403 . S
C600 C599 1.403 . S
C600 C601 1.404 . S
C600 C603 1.539 . S
C601 C597 1.408 1_554 S
C601 C600 1.404 . S
C601 H613 0.930 . S
C602 C598 1.524 . S
C602 H614 0.956 . S
C602 H615 0.961 . S
C602 H616 0.961 . S
C603 C600 1.539 . S
C603 H617 0.958 . S
C603 H618 0.961 . S
C603 H619 0.960 . S
H604 C588 0.931 . S
H605 C593 0.929 . S
H606 C594 0.960 . S
H607 C594 0.962 . S
H608 C594 0.960 . S
H609 C595 0.961 . S
H610 C595 0.961 . S
H611 C595 0.961 . S
H612 C596 0.931 . S
H613 C601 0.930 . S
H614 C602 0.956 . S
H615 C602 0.961 . S
H616 C602 0.961 . S
H617 C603 0.958 . S
H618 C603 0.961 . S
H619 C603 0.960 . S
C620 C621 1.391 . S
C620 C622 1.394 . S
C620 H636 0.931 . S
C621 C620 1.391 . S
C621 C625 1.376 . S
C622 C620 1.394 . S
C622 C623 1.369 . S
C622 C626 1.531 . S
C623 C622 1.369 . S
C623 C624 1.410 . S
C623 C631 1.503 1_565 S
C624 C623 1.410 . S
C624 C625 1.392 . S
C624 C627 1.511 . S
C625 C621 1.376 . S
C625 C624 1.392 . S
C625 H637 0.929 . S
C626 C622 1.531 . S
C626 H638 0.960 1_565 S
C626 H639 0.962 . S
C626 H640 0.960 . S
C627 C624 1.511 . S
C627 H641 0.961 . S
C627 H642 0.961 1_565 S
C627 H643 0.961 . S
C628 C629 1.370 . S
C628 C630 1.363 . S
C628 H644 0.931 . S
C629 C628 1.370 . S
C629 C633 1.408 . S
C630 C628 1.363 . S
C630 C631 1.370 . S
C630 C634 1.524 . S
C631 C623 1.503 1_545 S
C631 C630 1.370 . S
C631 C632 1.403 . S
C632 C631 1.403 . S
C632 C633 1.404 . S
C632 C635 1.539 . S
C633 C629 1.408 . S
C633 C632 1.404 . S
C633 H645 0.930 . S
C634 C630 1.524 . S
C634 H646 0.956 . S
C634 H647 0.961 1_545 S
C634 H648 0.961 . S
C635 C632 1.539 . S
C635 H649 0.958 . S
C635 H650 0.961 . S
C635 H651 0.994 . S
H636 C620 0.931 . S
H637 C625 0.929 . S
H638 C626 0.960 1_545 S
H639 C626 0.962 . S
H640 C626 0.960 . S
H641 C627 0.961 . S
H642 C627 0.961 1_545 S
H643 C627 0.961 . S
H644 C628 0.931 . S
H645 C633 0.930 . S
H646 C634 0.956 . S
H647 C634 0.961 1_565 S
H648 C634 0.961 . S
H649 C635 0.958 . S
H650 C635 0.961 . S
H651 C635 0.994 . S
C652 C653 1.391 . S
C652 C654 1.394 . S
C652 H668 0.931 . S
C653 C652 1.391 . S
C653 C657 1.376 . S
C654 C652 1.394 . S
C654 C655 1.369 . S
C654 C658 1.531 . S
C655 C654 1.369 . S
C655 C656 1.410 . S
C655 C663 1.503 1_655 S
C656 C655 1.410 . S
C656 C657 1.392 . S
C656 C659 1.511 . S
C657 C653 1.376 . S
C657 C656 1.392 . S
C657 H669 0.929 . S
C658 C654 1.531 . S
C658 H670 0.960 1_655 S
C658 H671 0.962 . S
C658 H672 0.960 . S
C659 C656 1.511 . S
C659 H673 0.961 . S
C659 H674 0.961 1_655 S
C659 H675 0.961 . S
C660 C661 1.370 . S
C660 C662 1.363 . S
C660 H676 0.931 . S
C661 C660 1.370 . S
C661 C665 1.408 . S
C662 C660 1.363 . S
C662 C663 1.370 . S
C662 C666 1.524 . S
C663 C655 1.503 1_455 S
C663 C662 1.370 . S
C663 C664 1.403 . S
C664 C663 1.403 . S
C664 C665 1.404 . S
C664 C667 1.539 . S
C665 C661 1.408 . S
C665 C664 1.404 . S
C665 H677 0.930 . S
C666 C662 1.524 . S
C666 H678 0.956 . S
C666 H679 0.955 1_455 S
C666 H680 0.961 . S
C667 C664 1.539 . S
C667 H681 0.958 . S
C667 H682 0.961 . S
C667 H683 0.946 1_455 S
H668 C652 0.931 . S
H669 C657 0.929 . S
H670 C658 0.960 1_455 S
H671 C658 0.962 . S
H672 C658 0.960 . S
H673 C659 0.961 . S
H674 C659 0.961 1_455 S
H675 C659 0.961 . S
H676 C660 0.931 . S
H677 C665 0.930 . S
H678 C666 0.956 . S
H679 C666 0.955 1_655 S
H680 C666 0.961 . S
H681 C667 0.958 . S
H682 C667 0.961 . S
H683 C667 0.946 1_655 S
C684 C685 1.391 . S
C684 C686 1.394 . S
C684 H700 0.931 . S
C685 C684 1.391 . S
C685 C689 1.376 . S
C686 C684 1.394 . S
C686 C687 1.369 . S
C686 C690 1.531 . S
C687 C686 1.369 . S
C687 C688 1.410 . S
C687 C695 1.503 . S
C688 C687 1.410 . S
C688 C689 1.392 . S
C688 C691 1.511 . S
C689 C685 1.376 . S
C689 C688 1.392 . S
C689 H701 0.929 . S
C690 C686 1.531 . S
C690 H702 0.960 . S
C690 H703 0.962 . S
C690 H704 0.960 . S
C691 C688 1.511 . S
C691 H705 0.961 . S
C691 H706 0.961 . S
C691 H707 0.961 . S
C692 C693 1.370 . S
C692 C694 1.363 . S
C692 H708 0.931 . S
C693 C692 1.370 . S
C693 C697 1.408 . S
C694 C692 1.363 . S
C694 C695 1.370 . S
C694 C698 1.524 . S
C695 C687 1.503 . S
C695 C694 1.370 . S
C695 C696 1.403 . S
C696 C695 1.403 . S
C696 C697 1.404 . S
C696 C699 1.539 . S
C697 C693 1.408 . S
C697 C696 1.404 . S
C697 H709 0.930 . S
C698 C694 1.524 . S
C698 H710 0.956 . S
C698 H711 0.961 . S
C698 H712 0.961 . S
C699 C696 1.539 . S
C699 H713 0.958 . S
C699 H714 0.961 . S
C699 H715 0.960 . S
H700 C684 0.931 . S
H701 C689 0.929 . S
H702 C690 0.960 . S
H703 C690 0.962 . S
H704 C690 0.960 . S
H705 C691 0.961 . S
H706 C691 0.961 . S
H707 C691 0.961 . S
H708 C692 0.931 . S
H709 C697 0.930 . S
H710 C698 0.956 . S
H711 C698 0.961 . S
H712 C698 0.961 . S
H713 C699 0.958 . S
H714 C699 0.961 . S
H715 C699 0.960 . S
C716 C717 1.391 . S
C716 C718 1.394 . S
C716 H732 0.931 . S
C717 C716 1.391 . S
C717 C721 1.376 . S
C718 C716 1.394 . S
C718 C719 1.369 . S
C718 C722 1.531 . S
C719 C718 1.369 . S
C719 C720 1.410 . S
C719 C727 1.503 . S
C720 C719 1.410 . S
C720 C721 1.392 . S
C720 C723 1.511 . S
C721 C717 1.376 . S
C721 C720 1.392 . S
C721 H733 0.929 . S
C722 C718 1.531 . S
C722 H734 0.960 . S
C722 H735 0.962 . S
C722 H736 0.960 . S
C723 C720 1.511 . S
C723 H737 0.961 . S
C723 H738 0.961 . S
C723 H739 0.961 . S
C724 C725 1.370 . S
C724 C726 1.363 . S
C724 H740 0.931 . S
C725 C724 1.370 . S
C725 C729 1.408 . S
C726 C724 1.363 . S
C726 C727 1.370 . S
C726 C730 1.524 . S
C727 C719 1.503 . S
C727 C726 1.370 . S
C727 C728 1.403 . S
C728 C727 1.403 . S
C728 C729 1.404 . S
C728 C731 1.539 . S
C729 C725 1.408 . S
C729 C728 1.404 . S
C729 H741 0.930 . S
C730 C726 1.524 . S
C730 H742 0.956 . S
C730 H743 0.961 . S
C730 H744 0.961 . S
C731 C728 1.539 . S
C731 H745 0.958 . S
C731 H746 0.961 . S
C731 H747 0.960 . S
H732 C716 0.931 . S
H733 C721 0.929 . S
H734 C722 0.960 . S
H735 C722 0.962 . S
H736 C722 0.960 . S
H737 C723 0.961 . S
H738 C723 0.961 . S
H739 C723 0.961 . S
H740 C724 0.931 . S
H741 C729 0.930 . S
H742 C730 0.956 . S
H743 C730 0.961 . S
H744 C730 0.961 . S
H745 C731 0.958 . S
H746 C731 0.961 . S
H747 C731 0.960 . S
C748 C749 1.391 . S
C748 C750 1.394 . S
C748 H764 0.931 . S
C749 C748 1.391 . S
C749 C753 1.376 . S
C750 C748 1.394 . S
C750 C751 1.369 . S
C750 C754 1.531 . S
C751 C750 1.369 . S
C751 C752 1.410 . S
C751 C759 1.503 1_556 S
C752 C751 1.410 . S
C752 C753 1.392 . S
C752 C755 1.511 . S
C753 C749 1.376 . S
C753 C752 1.392 . S
C753 H765 0.929 . S
C754 C750 1.531 . S
C754 H766 0.960 . S
C754 H767 0.962 . S
C754 H768 0.960 . S
C755 C752 1.511 . S
C755 H769 0.961 . S
C755 H770 0.961 . S
C755 H771 0.961 . S
C756 C757 1.370 . S
C756 C758 1.363 . S
C756 H772 0.931 . S
C757 C756 1.370 . S
C757 C761 1.408 . S
C758 C756 1.363 . S
C758 C759 1.370 . S
C758 C762 1.524 . S
C759 C751 1.503 1_554 S
C759 C758 1.370 . S
C759 C760 1.403 . S
C760 C759 1.403 . S
C760 C761 1.404 . S
C760 C763 1.539 . S
C761 C757 1.408 . S
C761 C760 1.404 . S
C761 H773 0.930 . S
C762 C758 1.524 . S
C762 H774 0.956 1_554 S
C762 H775 0.961 1_554 S
C762 H776 0.961 . S
C763 C760 1.539 . S
C763 H777 0.958 . S
C763 H778 0.961 . S
C763 H779 0.960 1_554 S
H764 C748 0.931 . S
H765 C753 0.929 . S
H766 C754 0.960 . S
H767 C754 0.962 . S
H768 C754 0.960 . S
H769 C755 0.961 . S
H770 C755 0.961 . S
H771 C755 0.961 . S
H772 C756 0.931 . S
H773 C761 0.930 . S
H774 C762 0.956 1_556 S
H775 C762 0.961 1_556 S
H776 C762 0.961 . S
H777 C763 0.958 . S
H778 C763 0.961 . S
H779 C763 0.960 1_556 S
C780 C781 1.391 . S
C780 C782 1.394 . S
C780 H796 0.931 . S
C781 C780 1.391 . S
C781 C785 1.376 . S
C782 C780 1.394 . S
C782 C783 1.369 . S
C782 C786 1.531 . S
C783 C782 1.369 . S
C783 C784 1.410 . S
C783 C791 1.503 . S
C784 C783 1.410 . S
C784 C785 1.392 . S
C784 C787 1.511 . S
C785 C781 1.376 . S
C785 C784 1.392 . S
C785 H797 0.929 . S
C786 C782 1.531 . S
C786 H798 0.960 . S
C786 H799 0.962 . S
C786 H800 0.960 . S
C787 C784 1.511 . S
C787 H801 0.961 . S
C787 H802 0.961 . S
C787 H803 0.961 . S
C788 C789 1.370 . S
C788 C790 1.363 . S
C788 H804 0.931 . S
C789 C788 1.370 . S
C789 C793 1.408 . S
C790 C788 1.363 . S
C790 C791 1.370 . S
C790 C794 1.524 . S
C791 C783 1.503 . S
C791 C790 1.370 . S
C791 C792 1.403 . S
C792 C791 1.403 . S
C792 C793 1.404 . S
C792 C795 1.539 . S
C793 C789 1.408 . S
C793 C792 1.404 . S
C793 H805 0.930 . S
C794 C790 1.524 . S
C794 H806 0.956 . S
C794 H807 0.961 . S
C794 H808 0.961 . S
C795 C792 1.539 . S
C795 H809 0.958 . S
C795 H810 0.961 . S
C795 H811 0.960 . S
H796 C780 0.931 . S
H797 C785 0.929 . S
H798 C786 0.960 . S
H799 C786 0.962 . S
H800 C786 0.960 . S
H801 C787 0.961 . S
H802 C787 0.961 . S
H803 C787 0.961 . S
H804 C788 0.931 . S
H805 C793 0.930 . S
H806 C794 0.956 . S
H807 C794 0.961 . S
H808 C794 0.961 . S
H809 C795 0.958 . S
H810 C795 0.961 . S
H811 C795 0.960 . S
C812 C813 1.391 . S
C812 C814 1.394 . S
C812 H828 0.931 . S
C813 C812 1.391 . S
C813 C817 1.376 . S
C814 C812 1.394 . S
C814 C815 1.369 . S
C814 C818 1.531 . S
C815 C814 1.369 . S
C815 C816 1.410 . S
C815 C823 1.503 1_554 S
C816 C815 1.410 . S
C816 C817 1.392 . S
C816 C819 1.511 . S
C817 C813 1.376 . S
C817 C816 1.392 . S
C817 H829 0.929 . S
C818 C814 1.531 . S
C818 H830 0.960 . S
C818 H831 0.962 . S
C818 H832 0.960 . S
C819 C816 1.511 . S
C819 H833 0.961 . S
C819 H834 0.961 . S
C819 H835 0.961 . S
C820 C821 1.370 . S
C820 C822 1.363 . S
C820 H836 0.931 . S
C821 C820 1.370 . S
C821 C825 1.408 . S
C822 C820 1.363 . S
C822 C823 1.370 . S
C822 C826 1.524 . S
C823 C815 1.503 1_556 S
C823 C822 1.370 . S
C823 C824 1.403 . S
C824 C823 1.403 . S
C824 C825 1.404 . S
C824 C827 1.539 . S
C825 C821 1.408 . S
C825 C824 1.404 . S
C825 H837 0.930 . S
C826 C822 1.524 . S
C826 H838 0.956 1_556 S
C826 H839 0.961 1_556 S
C826 H840 0.961 . S
C827 C824 1.539 . S
C827 H841 0.958 . S
C827 H842 0.961 . S
C827 H843 0.960 1_556 S
H828 C812 0.931 . S
H829 C817 0.929 . S
H830 C818 0.960 . S
H831 C818 0.962 . S
H832 C818 0.960 . S
H833 C819 0.961 . S
H834 C819 0.961 . S
H835 C819 0.961 . S
H836 C820 0.931 . S
H837 C825 0.930 . S
H838 C826 0.956 1_554 S
H839 C826 0.961 1_554 S
H840 C826 0.961 . S
H841 C827 0.958 . S
H842 C827 0.961 . S
H843 C827 0.960 1_554 S
C844 C845 1.391 . S
C844 C846 1.394 . S
C844 H860 0.931 . S
C845 C844 1.391 . S
C845 C849 1.376 . S
C846 C844 1.394 . S
C846 C847 1.369 . S
C846 C850 1.531 . S
C847 C846 1.369 . S
C847 C848 1.410 . S
C847 C855 1.503 . S
C848 C847 1.410 . S
C848 C849 1.392 . S
C848 C851 1.511 . S
C849 C845 1.376 . S
C849 C848 1.392 . S
C849 H861 0.929 . S
C850 C846 1.531 . S
C850 H862 0.960 . S
C850 H863 0.962 . S
C850 H864 0.960 . S
C851 C848 1.511 . S
C851 H865 0.961 . S
C851 H866 0.961 . S
C851 H867 0.961 . S
C852 C853 1.370 . S
C852 C854 1.363 . S
C852 H868 0.931 . S
C853 C852 1.370 . S
C853 C857 1.408 . S
C854 C852 1.363 . S
C854 C855 1.370 . S
C854 C858 1.524 . S
C855 C847 1.503 . S
C855 C854 1.370 . S
C855 C856 1.403 . S
C856 C855 1.403 . S
C856 C857 1.404 . S
C856 C859 1.539 . S
C857 C853 1.408 . S
C857 C856 1.404 . S
C857 H869 0.930 . S
C858 C854 1.524 . S
C858 H870 0.956 . S
C858 H871 0.961 . S
C858 H872 0.961 . S
C859 C856 1.539 . S
C859 H873 0.958 . S
C859 H874 0.961 . S
C859 H875 0.960 . S
H860 C844 0.931 . S
H861 C849 0.929 . S
H862 C850 0.960 . S
H863 C850 0.962 . S
H864 C850 0.960 . S
H865 C851 0.961 . S
H866 C851 0.961 . S
H867 C851 0.961 . S
H868 C852 0.931 . S
H869 C857 0.930 . S
H870 C858 0.956 . S
H871 C858 0.961 . S
H872 C858 0.961 . S
H873 C859 0.958 . S
H874 C859 0.961 . S
H875 C859 0.960 . S
C205 C3 2.628 1_556 S
C213 C139 2.643 . S
C237 C171 2.636 . S
C245 C37 2.628 . S
C269 C69 2.649 . S
C277 C103 2.636 1_554 S
C301 C22 1.778 . S
C309 C85 1.826 . S
C333 C17 1.806 . S
C341 C56 1.775 . S
C365 C51 1.807 . S
C373 C83 1.776 . S
C397 C117 1.774 . S
C405 C153 1.825 . S
C429 C158 1.762 . S
C437 C187 1.822 . S
C461 C119 1.839 . S
C469 C185 1.797 . S
C493 C137 1.093 . S
C501 C1 1.018 . S
C525 C173 1.105 . S
C533 C35 1.033 . S
C557 C105 1.105 . S
C565 C71 1.031 . S
C589 C15 1.288 . S
C597 C124 1.318 . S
C621 C49 1.286 . S
C629 C151 1.319 . S
C653 C192 1.346 . S
C661 C90 1.282 . S
C685 C6 1.142 . S
C693 C28 1.163 . S
C717 C62 1.167 . S
C725 C40 1.156 . S
C749 C96 1.146 . S
C757 C74 1.157 . S
C781 C130 1.143 . S
C789 C108 1.158 . S
C813 C142 1.139 . S
C821 C164 1.160 . S
C845 C176 1.159 . S
C853 C198 1.163 . S
