# Generated by pormake.
# Topology wmi, (6)-cn, num edge types: 1
# Building blocks:
#     Node 0, Type 0, BuildingBlock: BETFAJ_clean_sbu_0, # of connection points: 6
#     Node 1, Type 0, BuildingBlock: BETFAJ_clean_sbu_0, # of connection points: 6
#     Node 2, Type 0, BuildingBlock: BETFAJ_clean_sbu_0, # of connection points: 6
#     Node 3, Type 0, BuildingBlock: BETFAJ_clean_sbu_0, # of connection points: 6
#     Node 4, Type 0, BuildingBlock: BETFAJ_clean_sbu_0, # of connection points: 6
#     Node 5, Type 0, BuildingBlock: BETFAJ_clean_sbu_0, # of connection points: 6
#     Node 6, Type 0, BuildingBlock: BETFAJ_clean_sbu_0, # of connection points: 6
#     Node 7, Type 0, BuildingBlock: BETFAJ_clean_sbu_0, # of connection points: 6
#     Node 8, Type 0, BuildingBlock: BETFAJ_clean_sbu_0, # of connection points: 6
#     Node 9, Type 0, BuildingBlock: BETFAJ_clean_sbu_0, # of connection points: 6
#     Node 10, Type 0, BuildingBlock: BETFAJ_clean_sbu_0, # of connection points: 6
#     Node 11, Type 0, BuildingBlock: BETFAJ_clean_sbu_0, # of connection points: 6
#     Node 12, Type 0, BuildingBlock: BETFAJ_clean_sbu_0, # of connection points: 6
#     Node 13, Type 0, BuildingBlock: BETFAJ_clean_sbu_0, # of connection points: 6
#     Node 14, Type 0, BuildingBlock: BETFAJ_clean_sbu_0, # of connection points: 6
#     Node 15, Type 0, BuildingBlock: BETFAJ_clean_sbu_0, # of connection points: 6
#     Node 16, Type 0, BuildingBlock: BETFAJ_clean_sbu_0, # of connection points: 6
#     Node 17, Type 0, BuildingBlock: BETFAJ_clean_sbu_0, # of connection points: 6
#     Edge 18, Type (0, 0), BuildingBlock: EZIPEK_clean_linker_0, # of connection points: 2
#     Edge 19, Type (0, 0), BuildingBlock: EZIPEK_clean_linker_0, # of connection points: 2
#     Edge 20, Type (0, 0), BuildingBlock: EZIPEK_clean_linker_0, # of connection points: 2
#     Edge 21, Type (0, 0), BuildingBlock: EZIPEK_clean_linker_0, # of connection points: 2
#     Edge 22, Type (0, 0), BuildingBlock: EZIPEK_clean_linker_0, # of connection points: 2
#     Edge 23, Type (0, 0), BuildingBlock: EZIPEK_clean_linker_0, # of connection points: 2
#     Edge 24, Type (0, 0), BuildingBlock: EZIPEK_clean_linker_0, # of connection points: 2
#     Edge 25, Type (0, 0), BuildingBlock: EZIPEK_clean_linker_0, # of connection points: 2
#     Edge 26, Type (0, 0), BuildingBlock: EZIPEK_clean_linker_0, # of connection points: 2
#     Edge 27, Type (0, 0), BuildingBlock: EZIPEK_clean_linker_0, # of connection points: 2
#     Edge 28, Type (0, 0), BuildingBlock: EZIPEK_clean_linker_0, # of connection points: 2
#     Edge 29, Type (0, 0), BuildingBlock: EZIPEK_clean_linker_0, # of connection points: 2
#     Edge 30, Type (0, 0), BuildingBlock: EZIPEK_clean_linker_0, # of connection points: 2
#     Edge 31, Type (0, 0), BuildingBlock: EZIPEK_clean_linker_0, # of connection points: 2
#     Edge 32, Type (0, 0), BuildingBlock: EZIPEK_clean_linker_0, # of connection points: 2
#     Edge 33, Type (0, 0), BuildingBlock: EZIPEK_clean_linker_0, # of connection points: 2
#     Edge 34, Type (0, 0), BuildingBlock: EZIPEK_clean_linker_0, # of connection points: 2
#     Edge 35, Type (0, 0), BuildingBlock: EZIPEK_clean_linker_0, # of connection points: 2
#     Edge 36, Type (0, 0), BuildingBlock: EZIPEK_clean_linker_0, # of connection points: 2
#     Edge 37, Type (0, 0), BuildingBlock: EZIPEK_clean_linker_0, # of connection points: 2
#     Edge 38, Type (0, 0), BuildingBlock: EZIPEK_clean_linker_0, # of connection points: 2
#     Edge 39, Type (0, 0), BuildingBlock: EZIPEK_clean_linker_0, # of connection points: 2
#     Edge 40, Type (0, 0), BuildingBlock: EZIPEK_clean_linker_0, # of connection points: 2
#     Edge 41, Type (0, 0), BuildingBlock: EZIPEK_clean_linker_0, # of connection points: 2
#     Edge 42, Type (0, 0), BuildingBlock: EZIPEK_clean_linker_0, # of connection points: 2
#     Edge 43, Type (0, 0), BuildingBlock: EZIPEK_clean_linker_0, # of connection points: 2
#     Edge 44, Type (0, 0), BuildingBlock: EZIPEK_clean_linker_0, # of connection points: 2
#     Edge 45, Type (0, 0), BuildingBlock: EZIPEK_clean_linker_0, # of connection points: 2
#     Edge 46, Type (0, 0), BuildingBlock: EZIPEK_clean_linker_0, # of connection points: 2
#     Edge 47, Type (0, 0), BuildingBlock: EZIPEK_clean_linker_0, # of connection points: 2
#     Edge 48, Type (0, 0), BuildingBlock: EZIPEK_clean_linker_0, # of connection points: 2
#     Edge 49, Type (0, 0), BuildingBlock: EZIPEK_clean_linker_0, # of connection points: 2
#     Edge 50, Type (0, 0), BuildingBlock: EZIPEK_clean_linker_0, # of connection points: 2
#     Edge 51, Type (0, 0), BuildingBlock: EZIPEK_clean_linker_0, # of connection points: 2
#     Edge 52, Type (0, 0), BuildingBlock: EZIPEK_clean_linker_0, # of connection points: 2
#     Edge 53, Type (0, 0), BuildingBlock: EZIPEK_clean_linker_0, # of connection points: 2
#     Edge 54, Type (0, 0), BuildingBlock: EZIPEK_clean_linker_0, # of connection points: 2
#     Edge 55, Type (0, 0), BuildingBlock: EZIPEK_clean_linker_0, # of connection points: 2
#     Edge 56, Type (0, 0), BuildingBlock: EZIPEK_clean_linker_0, # of connection points: 2
#     Edge 57, Type (0, 0), BuildingBlock: EZIPEK_clean_linker_0, # of connection points: 2
#     Edge 58, Type (0, 0), BuildingBlock: EZIPEK_clean_linker_0, # of connection points: 2
#     Edge 59, Type (0, 0), BuildingBlock: EZIPEK_clean_linker_0, # of connection points: 2
#     Edge 60, Type (0, 0), BuildingBlock: EZIPEK_clean_linker_0, # of connection points: 2
#     Edge 61, Type (0, 0), BuildingBlock: EZIPEK_clean_linker_0, # of connection points: 2
#     Edge 62, Type (0, 0), BuildingBlock: EZIPEK_clean_linker_0, # of connection points: 2
#     Edge 63, Type (0, 0), BuildingBlock: EZIPEK_clean_linker_0, # of connection points: 2
#     Edge 64, Type (0, 0), BuildingBlock: EZIPEK_clean_linker_0, # of connection points: 2
#     Edge 65, Type (0, 0), BuildingBlock: EZIPEK_clean_linker_0, # of connection points: 2
#     Edge 66, Type (0, 0), BuildingBlock: EZIPEK_clean_linker_0, # of connection points: 2
#     Edge 67, Type (0, 0), BuildingBlock: EZIPEK_clean_linker_0, # of connection points: 2
#     Edge 68, Type (0, 0), BuildingBlock: EZIPEK_clean_linker_0, # of connection points: 2
#     Edge 69, Type (0, 0), BuildingBlock: EZIPEK_clean_linker_0, # of connection points: 2
#     Edge 70, Type (0, 0), BuildingBlock: EZIPEK_clean_linker_0, # of connection points: 2
#     Edge 71, Type (0, 0), BuildingBlock: EZIPEK_clean_linker_0, # of connection points: 2
# Relax obj value: 0.112
# Max RMSD: 0.240
# Mean RMSD: 0.240
data_MOF--net-wmi--node1-BETFAJ_clean_sbu_0--edge1-EZIPEK_clean_linker_0
_symmetry_space_group_name_H-M    P1
_symmetry_Int_Tables_number       1
_symmetry_cell_setting            triclinic
loop_
_symmetry_equiv_pos_as_xyz
'x, y, z'
_cell_length_a     32.061996
_cell_length_b     32.050094
_cell_length_c     56.767702
_cell_angle_alpha  89.851067
_cell_angle_beta   89.966008
_cell_angle_gamma 119.84261
loop_
_atom_site_label
_atom_site_type_symbol
_atom_site_fract_x
_atom_site_fract_y
_atom_site_fract_z
_atom_type_partial_charge
Sm0 Sm 0.55445 0.06543 0.12247 0.0
Sm1 Sm 0.45217 1.00952 0.10247 0.0
C2 C 0.64499 0.12479 0.13508 0.0
C3 C 0.69088 0.16607 0.12677 0.0
C4 C 0.71276 0.16442 0.10554 0.0
C5 C 0.75858 0.20201 0.09939 0.0
C6 C 0.78307 0.24198 0.11424 0.0
C7 C 0.76055 0.24427 0.13504 0.0
C8 C 0.715 0.20661 0.14127 0.0
C9 C 0.47909 1.02242 0.1547 0.0
C10 C 0.50532 0.1271 0.1016 0.0
C11 C 0.35904 0.94752 0.10489 0.0
C12 C 0.33021 0.89469 0.10331 0.0
C13 C 0.29668 0.86926 0.12118 0.0
C14 C 0.27128 0.81903 0.12124 0.0
C15 C 0.27902 0.79343 0.10341 0.0
C16 C 0.31301 0.81862 0.08569 0.0
C17 C 0.33872 0.86899 0.08571 0.0
C18 C 0.51109 0.02863 0.06424 0.0
C19 C 0.51617 0.9556 0.11027 0.0
O20 O 0.63051 0.08303 0.12516 0.0
O21 O 0.60966 0.13266 0.13999 0.0
O22 O 0.48162 0.04586 0.13654 0.0
O23 O 0.51889 1.02162 0.15715 0.0
O24 O 0.54502 0.12602 0.10653 0.0
O25 O 0.46304 0.08677 0.10173 0.0
O26 O 0.38693 0.96302 0.12329 0.0
O27 O 0.37974 0.97202 0.08568 0.0
O28 O 0.52681 0.04191 0.08513 0.0
O29 O 0.46456 1.00649 0.06332 0.0
O30 O 0.47267 0.95066 0.1108 0.0
O31 O 0.555 0.99814 0.11104 0.0
H32 H 0.69503 0.13366 0.09397 0.0
H33 H 0.77535 0.19952 0.08329 0.0
H34 H 0.77884 0.27471 0.14678 0.0
H35 H 0.69908 0.20863 0.15777 0.0
H36 H 0.29041 0.88836 0.13522 0.0
H37 H 0.24498 0.80008 0.13496 0.0
H38 H 0.31915 0.79928 0.07174 0.0
H39 H 0.36528 0.88774 0.07207 0.0
Sm40 Sm 1.03397 0.51301 0.11954 0.0
Sm41 Sm 0.09091 0.47246 0.09774 0.0
C42 C 0.97241 0.54065 0.13433 0.0
C43 C 0.93353 0.55008 0.12687 0.0
C44 C 0.93286 0.56834 0.10439 0.0
C45 C 0.89734 0.58013 0.09857 0.0
C46 C 0.86184 0.57365 0.1151 0.0
C47 C 0.86225 0.55476 0.13739 0.0
C48 C 0.89772 0.54315 0.14321 0.0
C49 C 0.07987 0.4796 0.1508 0.0
C50 C 0.97507 0.40407 0.10056 0.0
C51 C 0.15911 0.44987 0.09136 0.0
C52 C 0.21173 0.47613 0.09484 0.0
C53 C 0.23254 0.50657 0.11437 0.0
C54 C 0.28231 0.53001 0.11788 0.0
C55 C 0.312 0.52362 0.10186 0.0
C56 C 0.29145 0.49434 0.08205 0.0
C57 C 0.24165 0.47074 0.07858 0.0
C58 C 0.04817 0.49682 0.06325 0.0
C59 C 0.14186 0.59036 0.10772 0.0
O60 O 1.01593 0.57027 0.12692 0.0
O61 O 0.96301 0.49605 0.13501 0.0
O62 O 0.05688 0.46101 0.13251 0.0
O63 O 0.0766 0.51779 0.15451 0.0
O64 O 0.97465 0.44484 0.10198 0.0
O65 O 1.01605 0.40337 0.1006 0.0
O66 O 0.13289 0.43906 0.11044 0.0
O67 O 0.14261 0.46495 0.07426 0.0
O68 O 0.06596 0.52175 0.08191 0.0
O69 O 0.05071 0.45759 0.06357 0.0
O70 O 0.14837 0.55284 0.10544 0.0
O71 O 0.09884 0.58463 0.11083 0.0
H72 H 0.9601 0.57408 0.09147 0.0
H73 H 0.89769 0.59461 0.08127 0.0
H74 H 0.83529 0.54945 0.15041 0.0
H75 H 0.89763 0.52939 0.16067 0.0
H76 H 0.21032 0.51175 0.12709 0.0
H77 H 0.29759 0.55238 0.13329 0.0
H78 H 0.31389 0.48897 0.06955 0.0
H79 H 0.2264 0.44777 0.06335 0.0
Sm80 Sm 0.58735 0.55102 0.11951 0.0
Sm81 Sm 0.62874 0.65137 0.1025 0.0
C82 C 0.55228 0.45872 0.13077 0.0
C83 C 0.54892 0.41213 0.12499 0.0
C84 C 0.55135 0.399 0.10164 0.0
C85 C 0.54298 0.35263 0.09653 0.0
C86 C 0.53193 0.31866 0.11464 0.0
C87 C 0.5304 0.33209 0.138 0.0
C88 C 0.53872 0.37839 0.1431 0.0
C89 C 0.61278 0.62262 0.15397 0.0
C90 C 0.7004 0.60539 0.10439 0.0
C91 C 0.66255 0.74479 0.09873 0.0
C92 C 0.63549 0.77095 0.0982 0.0
C93 C 0.59113 0.7518 0.11007 0.0
C94 C 0.56632 0.7772 0.11106 0.0
C95 C 0.58531 0.8222 0.10012 0.0
C96 C 0.62891 0.84098 0.08763 0.0
C97 C 0.65388 0.81542 0.08666 0.0
C98 C 0.58386 0.58744 0.0661 0.0
C99 C 0.51388 0.58769 0.11152 0.0
O100 O 0.53118 0.47442 0.11645 0.0
O101 O 0.59243 0.49327 0.13947 0.0
O102 O 0.63616 0.62268 0.13649 0.0
O103 O 0.57265 0.58215 0.15453 0.0
O104 O 0.66184 0.56382 0.1093 0.0
O105 O 0.69817 0.64529 0.10111 0.0
O106 O 0.65995 0.72332 0.11875 0.0
O107 O 0.65799 0.71799 0.08045 0.0
O108 O 0.60938 0.58245 0.08189 0.0
O109 O 0.57938 0.62447 0.07074 0.0
O110 O 0.55174 0.63036 0.11547 0.0
O111 O 0.51952 0.55057 0.10766 0.0
H112 H 0.55894 0.42428 0.08735 0.0
H113 H 0.54486 0.34311 0.07842 0.0
H114 H 0.52241 0.30662 0.15223 0.0
H115 H 0.53628 0.38759 0.1612 0.0
H116 H 0.57622 0.71781 0.11928 0.0
H117 H 0.53305 0.76246 0.12097 0.0
H118 H 0.64426 0.87602 0.07931 0.0
H119 H 0.68795 0.83082 0.07742 0.0
Sm120 Sm 0.08242 0.54206 0.91109 0.0
Sm121 Sm 1.02736 0.44179 0.92886 0.0
C122 C 0.14001 0.63373 0.89883 0.0
C123 C 0.1806 0.68163 0.90487 0.0
C124 C 0.20548 0.69108 0.92635 0.0
C125 C 0.24266 0.73791 0.93153 0.0
C126 C 0.25491 0.77583 0.91543 0.0
C127 C 0.22957 0.76603 0.89412 0.0
C128 C 0.19302 0.71944 0.88888 0.0
C129 C 1.04041 0.46919 0.87664 0.0
C130 C 0.14276 0.49127 0.92655 0.0
C131 C 0.96245 0.3495 0.93241 0.0
C132 C 0.90961 0.32159 0.92972 0.0
C133 C 0.88747 0.32148 0.90826 0.0
C134 C 0.83758 0.29401 0.90582 0.0
C135 C 0.80906 0.26647 0.92478 0.0
C136 C 0.8308 0.26744 0.94637 0.0
C137 C 0.88074 0.29473 0.9488 0.0
C138 C 0.06631 0.50388 0.96577 0.0
C139 C 0.9732 0.50684 0.92095 0.0
O140 O 0.10024 0.61847 0.91074 0.0
O141 O 0.14884 0.59927 0.8934 0.0
O142 O 0.06311 0.47038 0.89472 0.0
O143 O 1.03933 0.50906 0.87584 0.0
O144 O 0.14178 0.53179 0.92775 0.0
O145 O 0.10265 0.44953 0.92399 0.0
O146 O 0.98753 0.369 0.91331 0.0
O147 O 0.97891 0.3778 0.9507 0.0
O148 O 0.04833 0.51227 0.94756 0.0
O149 O 0.06556 0.46308 0.96399 0.0
O150 O 0.96795 0.4631 0.92189 0.0
O151 O 1.01559 0.54522 0.91946 0.0
H152 H 0.19618 0.66242 0.93902 0.0
H153 H 0.26197 0.74457 0.948 0.0
H154 H 0.23857 0.79449 0.88136 0.0
H155 H 0.17415 0.71296 0.87227 0.0
H156 H 0.90861 0.34212 0.89324 0.0
H157 H 0.82126 0.29344 0.88903 0.0
H158 H 0.80918 0.24617 0.96113 0.0
H159 H 0.89689 0.29444 0.96551 0.0
Sm160 Sm 0.56681 0.57617 0.9109 0.0
Sm161 Sm 0.66595 0.61603 0.92951 0.0
C162 C 0.47508 0.54056 0.89918 0.0
C163 C 0.42764 0.53489 0.90464 0.0
C164 C 0.42097 0.56184 0.9222 0.0
C165 C 0.37457 0.55368 0.92723 0.0
C166 C 0.33455 0.51831 0.91487 0.0
C167 C 0.34149 0.49122 0.89756 0.0
C168 C 0.38761 0.49948 0.8925 0.0
C169 C 0.63959 0.60077 0.8774 0.0
C170 C 0.62105 0.68872 0.92706 0.0
C171 C 0.75988 0.65122 0.93225 0.0
C172 C 0.78775 0.626 0.93275 0.0
C173 C 0.76585 0.57765 0.92569 0.0
C174 C 0.79227 0.55396 0.92416 0.0
C175 C 0.84136 0.57842 0.92948 0.0
C176 C 0.86336 0.62655 0.93702 0.0
C177 C 0.83666 0.65026 0.93862 0.0
C178 C 0.59943 0.5728 0.96524 0.0
C179 C 0.60045 0.49997 0.9228 0.0
O180 O 0.49051 0.51883 0.91322 0.0
O181 O 0.50939 0.58211 0.89146 0.0
O182 O 0.63943 0.62376 0.89495 0.0
O183 O 0.59842 0.56149 0.87616 0.0
O184 O 0.58073 0.65147 0.91963 0.0
O185 O 0.65935 0.68503 0.93262 0.0
O186 O 0.73718 0.64647 0.91244 0.0
O187 O 0.73338 0.64628 0.95078 0.0
O188 O 0.59618 0.59837 0.94885 0.0
O189 O 0.63614 0.56701 0.96142 0.0
O190 O 0.64443 0.53692 0.92072 0.0
O191 O 0.56372 0.50716 0.92238 0.0
H192 H 0.45146 0.58902 0.93191 0.0
H193 H 0.36988 0.57519 0.94052 0.0
H194 H 0.31117 0.46409 0.88773 0.0
H195 H 0.39204 0.47805 0.87905 0.0
H196 H 0.7285 0.55843 0.92082 0.0
H197 H 0.77465 0.51681 0.91845 0.0
H198 H 0.90126 0.64582 0.94137 0.0
H199 H 0.8543 0.68758 0.94401 0.0
Sm200 Sm 0.52882 1.021 0.91307 0.0
Sm201 Sm 0.49592 0.07759 0.93726 0.0
C202 C 0.54994 0.95514 0.89754 0.0
C203 C 0.56935 0.9238 0.90483 0.0
C204 C 0.57037 0.91181 0.92858 0.0
C205 C 0.58411 0.87786 0.93468 0.0
C206 C 0.59635 0.85488 0.9171 0.0
C207 C 0.59671 0.86816 0.89346 0.0
C208 C 0.58348 0.90236 0.88741 0.0
C209 C 0.49711 0.06758 0.88156 0.0
C210 C 0.41882 0.96649 0.93037 0.0
C211 C 0.48636 0.14869 0.956 0.0
C212 C 0.50681 0.20057 0.9511 0.0
C213 C 0.53633 0.22263 0.93139 0.0
C214 C 0.55262 0.27089 0.92615 0.0
C215 C 0.54486 0.29978 0.94206 0.0
C216 C 0.51983 0.27875 0.96317 0.0
C217 C 0.49964 0.22934 0.96725 0.0
C218 C 0.52145 0.02947 0.96927 0.0
C219 C 0.60724 0.12577 0.92165 0.0
O220 O 0.57961 1.00138 0.89594 0.0
O221 O 0.50834 0.94503 0.90632 0.0
O222 O 0.47728 0.04713 0.90057 0.0
O223 O 0.5344 0.06278 0.87802 0.0
O224 O 0.4582 0.96355 0.92958 0.0
O225 O 0.42179 1.00916 0.93103 0.0
O226 O 0.51713 0.13635 0.96312 0.0
O227 O 0.45553 0.11787 0.94104 0.0
O228 O 0.54513 0.05023 0.95081 0.0
O229 O 0.48092 0.02915 0.96925 0.0
O230 O 0.56929 0.13118 0.91949 0.0
O231 O 0.60045 0.08245 0.9251 0.0
H232 H 0.55941 0.92776 0.94231 0.0
H233 H 0.58362 0.86826 0.95303 0.0
H234 H 0.60606 0.85108 0.8796 0.0
H235 H 0.58284 0.91099 0.869 0.0
H236 H 0.54719 0.20303 0.91995 0.0
H237 H 0.57215 0.28586 0.90988 0.0
H238 H 0.51434 0.30031 0.97613 0.0
H239 H 0.47892 0.21372 0.98316 0.0
Sm240 Sm 0.22503 0.39979 0.45352 0.0
Sm241 Sm 0.12063 0.34364 0.43624 0.0
C242 C 0.31812 0.45657 0.46198 0.0
C243 C 0.3631 0.50058 0.45518 0.0
C244 C 0.38156 0.50726 0.43211 0.0
C245 C 0.42772 0.54515 0.42695 0.0
C246 C 0.45605 0.57712 0.44469 0.0
C247 C 0.43704 0.57156 0.46751 0.0
C248 C 0.39099 0.53354 0.47271 0.0
C249 C 0.15418 0.3555 0.4874 0.0
C250 C 0.17185 0.46142 0.43948 0.0
C251 C 1.02873 0.28118 0.4431 0.0
C252 C 0.99847 0.22921 0.43983 0.0
C253 C 0.9591 0.20349 0.4549 0.0
C254 C 0.93389 0.15329 0.45458 0.0
C255 C 0.94789 0.12832 0.43921 0.0
C256 C 0.9872 0.15395 0.42405 0.0
C257 C 1.01262 0.20422 0.42446 0.0
C258 C 0.17191 0.36262 0.39615 0.0
C259 C 0.18736 0.29001 0.44052 0.0
O260 O 0.30087 0.42049 0.44725 0.0
O261 O 0.28467 0.46081 0.47315 0.0
O262 O 0.15415 0.37899 0.46977 0.0
O263 O 0.19498 0.35637 0.48877 0.0
O264 O 0.21237 0.46194 0.44421 0.0
O265 O 0.13068 0.42065 0.43616 0.0
O266 O 0.06185 0.29253 0.45906 0.0
O267 O 0.04435 0.30856 0.42424 0.0
O268 O 0.19249 0.37663 0.41633 0.0
O269 O 0.12536 0.34146 0.39706 0.0
O270 O 0.14475 0.28559 0.436 0.0
O271 O 0.22356 0.33011 0.44814 0.0
H272 H 0.36102 0.48235 0.41823 0.0
H273 H 0.44181 0.54894 0.40924 0.0
H274 H 0.45839 0.59592 0.48142 0.0
H275 H 0.37782 0.52891 0.49066 0.0
H276 H 0.94865 0.22225 0.46734 0.0
H277 H 0.90352 0.13389 0.46633 0.0
H278 H 0.99825 0.13501 0.41205 0.0
H279 H 0.04384 0.22354 0.4132 0.0
Sm280 Sm 0.70588 0.85128 0.45128 0.0
Sm281 Sm 0.76509 0.80905 0.43492 0.0
C282 C 0.64839 0.88637 0.46177 0.0
C283 C 0.60508 0.8893 0.45585 0.0
C284 C 0.58824 0.88423 0.43261 0.0
C285 C 0.55028 0.89252 0.4272 0.0
C286 C 0.52868 0.90597 0.44495 0.0
C287 C 0.5449 0.91001 0.46823 0.0
C288 C 0.58283 0.9018 0.47361 0.0
C289 C 0.7505 0.82573 0.48654 0.0
C290 C 0.64813 0.73809 0.43585 0.0
C291 C 0.82393 0.77421 0.43302 0.0
C292 C 0.8771 0.80047 0.43445 0.0
C293 C 0.90062 0.83123 0.45361 0.0
C294 C 0.95069 0.85612 0.45506 0.0
C295 C 0.97828 0.85113 0.43735 0.0
C296 C 0.95524 0.82172 0.41785 0.0
C297 C 0.90492 0.79653 0.41641 0.0
C298 C 0.74432 0.85175 0.39801 0.0
C299 C 0.81671 0.9245 0.44185 0.0
O300 O 0.68489 0.90709 0.44728 0.0
O301 O 0.6431 0.84652 0.47094 0.0
O302 O 0.72865 0.80282 0.46871 0.0
O303 O 0.74955 0.86569 0.48678 0.0
O304 O 0.64495 0.77626 0.44169 0.0
O305 O 0.69007 0.74053 0.4319 0.0
O306 O 0.80149 0.77415 0.45228 0.0
O307 O 0.8049 0.78097 0.414 0.0
O308 O 0.71461 0.82712 0.41421 0.0
O309 O 0.78589 0.85584 0.40224 0.0
O310 O 0.8222 0.88683 0.4457 0.0
O311 O 0.77352 0.91859 0.43901 0.0
H312 H 0.60503 0.87485 0.41861 0.0
H313 H 0.53807 0.889 0.40915 0.0
H314 H 0.52862 0.92016 0.48216 0.0
H315 H 0.59556 0.9063 0.49161 0.0
H316 H 0.88044 0.83586 0.46768 0.0
H317 H 0.96793 0.87842 0.47029 0.0
H318 H 0.97616 0.81732 0.4041 0.0
H319 H 0.88774 0.77366 0.40135 0.0
Sm320 Sm 0.25539 0.88498 0.45328 0.0
Sm321 Sm 0.29529 0.98212 0.43496 0.0
C322 C 0.22084 0.79396 0.46647 0.0
C323 C 0.21532 0.74677 0.46012 0.0
C324 C 0.19708 0.72547 0.43808 0.0
C325 C 0.1876 0.67863 0.43345 0.0
C326 C 0.19616 0.65246 0.45077 0.0
C327 C 0.21503 0.67394 0.47261 0.0
C328 C 0.22448 0.72069 0.47724 0.0
C329 C 0.28332 0.95796 0.48707 0.0
C330 C 0.36591 0.93482 0.43418 0.0
C331 C 0.33102 0.07566 0.43088 0.0
C332 C 0.30636 0.10437 0.43055 0.0
C333 C 0.29544 0.11932 0.45187 0.0
C334 C 0.2701 0.14427 0.45186 0.0
C335 C 0.25538 0.15497 0.43058 0.0
C336 C 0.26566 0.13983 0.40926 0.0
C337 C 0.29104 0.11478 0.40923 0.0
C338 C 0.24899 0.91711 0.39911 0.0
C339 C 0.18132 0.91994 0.44463 0.0
O340 O 0.19665 0.80924 0.45415 0.0
O341 O 0.26334 0.82852 0.47272 0.0
O342 O 0.30578 0.95696 0.46939 0.0
O343 O 0.24263 0.91821 0.48794 0.0
O344 O 0.3282 0.89518 0.44198 0.0
O345 O 0.36327 0.9743 0.43067 0.0
O346 O 0.32882 0.0544 0.45089 0.0
O347 O 0.32507 0.04826 0.41266 0.0
O348 O 0.2749 0.91254 0.41485 0.0
O349 O 0.24426 0.9541 0.40374 0.0
O350 O 0.21902 0.96285 0.44833 0.0
O351 O 0.18756 0.88326 0.44072 0.0
H352 H 0.18949 0.74466 0.42456 0.0
H353 H 0.17341 0.66268 0.41643 0.0
H354 H 0.22226 0.65439 0.48609 0.0
H355 H 0.23817 0.7362 0.4944 0.0
H356 H 0.30651 0.11184 0.46865 0.0
H357 H 0.26299 0.15629 0.46843 0.0
H358 H 0.25509 0.14851 0.39266 0.0
H359 H 0.29871 0.10368 0.39254 0.0
Sm360 Sm 0.74745 0.87113 0.24374 0.0
Sm361 Sm 0.68856 0.77093 0.26166 0.0
C362 C 0.8045 0.96337 0.23272 0.0
C363 C 0.84824 1.00993 0.23755 0.0
C364 C 0.86865 1.02255 0.26015 0.0
C365 C 0.90733 0.06899 0.26445 0.0
C366 C 0.92572 0.10355 0.24628 0.0
C367 C 0.90535 0.09056 0.22371 0.0
C368 C 0.86718 0.04422 0.2194 0.0
C369 C 0.69972 0.7989 0.20978 0.0
C370 C 0.80576 0.81631 0.25959 0.0
C371 C 0.62984 0.67755 0.26501 0.0
C372 C 0.57678 0.65132 0.26419 0.0
C373 C 0.55274 0.66683 0.24879 0.0
C374 C 0.5027 0.64184 0.24738 0.0
C375 C 0.47574 0.60113 0.26145 0.0
C376 C 0.49936 0.58624 0.27736 0.0
C377 C 0.54969 0.61128 0.27874 0.0
C378 C 0.71136 0.83618 0.29767 0.0
C379 C 0.63731 0.83564 0.25437 0.0
O380 O 0.76951 0.948 0.24809 0.0
O381 O 0.80869 0.92864 0.22298 0.0
O382 O 0.72301 0.7989 0.2273 0.0
O383 O 0.70112 0.84004 0.20894 0.0
O384 O 0.80873 0.85716 0.2529 0.0
O385 O 0.76393 0.77729 0.26432 0.0
O386 O 0.65102 0.6989 0.24533 0.0
O387 O 0.64975 0.70432 0.28358 0.0
O388 O 0.74027 0.83998 0.28129 0.0
O389 O 0.66917 0.7995 0.29382 0.0
O390 O 0.63099 0.79193 0.25148 0.0
O391 O 0.68088 0.87262 0.25586 0.0
H392 H 0.85433 0.99679 0.27449 0.0
H393 H 0.92273 0.07809 0.28193 0.0
H394 H 0.91909 0.11641 0.2094 0.0
H395 H 0.85175 0.03543 0.2019 0.0
H396 H 0.57264 0.69786 0.23748 0.0
H397 H 0.48502 0.65357 0.23492 0.0
H398 H 0.4789 0.55462 0.28824 0.0
H399 H 0.56744 0.59904 0.29087 0.0
Sm400 Sm 0.23071 0.9043 0.24495 0.0
Sm401 Sm 0.33096 0.94595 0.26151 0.0
C402 C 0.13845 0.86926 0.23439 0.0
C403 C 0.09211 0.86562 0.24097 0.0
C404 C 0.07509 0.85676 0.26433 0.0
C405 C 1.02835 0.84714 0.2695 0.0
C406 C 0.99807 0.84652 0.25145 0.0
C407 C 1.01558 0.85662 0.22824 0.0
C408 C 0.06213 0.86598 0.22306 0.0
C409 C 0.3017 0.93166 0.21006 0.0
C410 C 0.28454 1.01678 0.2608 0.0
C411 C 0.42478 0.98238 0.26308 0.0
C412 C 0.45412 0.95849 0.26307 0.0
C413 C 0.47945 0.95996 0.24253 0.0
C414 C 0.50405 0.9343 0.24126 0.0
C415 C 0.50394 0.90689 0.26055 0.0
C416 C 0.47849 0.90498 0.28104 0.0
C417 C 0.4537 0.93053 0.2823 0.0
C418 C 0.26708 0.90071 0.29822 0.0
C419 C 0.26864 0.83141 0.25267 0.0
O420 O 0.15453 0.8473 0.24792 0.0
O421 O 0.17265 0.90986 0.22577 0.0
O422 O 0.30176 0.95422 0.22785 0.0
O423 O 0.2616 0.89122 0.20948 0.0
O424 O 0.24326 0.97848 0.25535 0.0
O425 O 0.32426 1.01453 0.26427 0.0
O426 O 0.40126 0.97731 0.24353 0.0
O427 O 0.3993 0.97821 0.28196 0.0
O428 O 0.26214 0.92616 0.28237 0.0
O429 O 0.30469 0.89696 0.2937 0.0
O430 O 0.31138 0.86938 0.24892 0.0
O431 O 0.23127 0.8367 0.25645 0.0
H432 H 0.09742 0.85608 0.27847 0.0
H433 H 1.01554 0.83956 0.28752 0.0
H434 H 0.99283 0.85638 0.21408 0.0
H435 H 0.07429 0.87222 0.20491 0.0
H436 H 0.47982 0.98065 0.22731 0.0
H437 H 0.52382 0.93643 0.2254 0.0
H438 H 0.47852 0.88431 0.29617 0.0
H439 H 0.43404 0.92807 0.29825 0.0
Sm440 Sm 0.20298 0.35762 0.24494 0.0
Sm441 Sm 0.15594 0.41113 0.26313 0.0
C442 C 0.23786 0.30029 0.23361 0.0
C443 C 0.2405 0.25721 0.24062 0.0
C444 C 0.2523 0.25094 0.26374 0.0
C445 C 0.26053 0.21293 0.26911 0.0
C446 C 0.25674 0.18049 0.25152 0.0
C447 C 0.24346 0.18589 0.22864 0.0
C448 C 0.23551 0.22397 0.22324 0.0
C449 C 0.17392 0.40151 0.21125 0.0
C450 C 0.09037 0.29616 0.25834 0.0
C451 C 0.12862 0.47589 0.26914 0.0
C452 C 0.15415 0.52863 0.26658 0.0
C453 C 0.19249 0.5518 0.25054 0.0
C454 C 0.21632 0.60177 0.24794 0.0
C455 C 0.20241 0.62929 0.2615 0.0
C456 C 0.16482 0.60637 0.27788 0.0
C457 C 0.14082 0.55629 0.28041 0.0
C458 C 0.18035 0.37031 0.29913 0.0
C459 C 0.2739 0.46805 0.25338 0.0
O460 O 0.26056 0.33863 0.24666 0.0
O461 O 0.19716 0.2943 0.2255 0.0
O462 O 0.1509 0.3776 0.22876 0.0
O463 O 0.21398 0.40102 0.20976 0.0
O464 O 0.13196 0.29737 0.26039 0.0
O465 O 0.08884 0.33657 0.25622 0.0
O466 O 0.12124 0.45144 0.24968 0.0
O467 O 0.14269 0.45905 0.2865 0.0
O468 O 0.20661 0.39052 0.28121 0.0
O469 O 0.13979 0.37005 0.29759 0.0
O470 O 0.23432 0.47131 0.25335 0.0
O471 O 0.27141 0.42605 0.2535 0.0
H472 H 0.25637 0.27605 0.2775 0.0
H473 H 0.27063 0.20926 0.28688 0.0
H474 H 0.24029 0.16119 0.21484 0.0
H475 H 0.22674 0.22824 0.20529 0.0
H476 H 0.20365 0.53123 0.23984 0.0
H477 H 0.24504 0.61891 0.23511 0.0
H478 H 0.15348 0.6272 0.28834 0.0
H479 H 0.11159 0.53911 0.29297 0.0
Sm480 Sm 0.88749 0.73295 0.78715 0.0
Sm481 Sm 0.78361 0.67644 0.76914 0.0
C482 C 0.97911 0.78871 0.79924 0.0
C483 C 1.0264 0.82926 0.79258 0.0
C484 C 1.03394 0.85494 0.77142 0.0
C485 C 0.08011 0.89254 0.76561 0.0
C486 C 0.1191 0.90442 0.7808 0.0
C487 C 0.11122 0.87843 0.80184 0.0
C488 C 0.0653 0.84131 0.80768 0.0
C489 C 0.81467 0.68895 0.82061 0.0
C490 C 0.83565 0.7945 0.77156 0.0
C491 C 0.69084 0.61384 0.77321 0.0
C492 C 0.66189 0.56098 0.77135 0.0
C493 C 0.63199 0.53472 0.79028 0.0
C494 C 0.60621 0.4845 0.78977 0.0
C495 C 0.60987 0.45966 0.7703 0.0
C496 C 0.64047 0.48567 0.75153 0.0
C497 C 0.6665 0.53604 0.75208 0.0
C498 C 0.83822 0.69793 0.72944 0.0
C499 C 0.8497 0.62385 0.77389 0.0
O500 O 0.96332 0.74912 0.78715 0.0
O501 O 0.94511 0.79793 0.80512 0.0
O502 O 0.81572 0.71256 0.80285 0.0
O503 O 0.85455 0.68805 0.82192 0.0
O504 O 0.87651 0.79483 0.77504 0.0
O505 O 0.7939 0.75366 0.76954 0.0
O506 O 0.72042 0.62898 0.79098 0.0
O507 O 0.70966 0.63901 0.75394 0.0
O508 O 0.85664 0.71091 0.74997 0.0
O509 O 0.79166 0.67469 0.72981 0.0
O510 O 0.80585 0.61798 0.77497 0.0
O511 O 0.88806 0.66653 0.77467 0.0
H512 H 1.00427 0.84597 0.75952 0.0
H513 H 0.08542 0.91254 0.74941 0.0
H514 H 0.14066 0.88736 0.8139 0.0
H515 H 0.06015 0.82185 0.82405 0.0
H516 H 0.62875 0.55316 0.80555 0.0
H517 H 0.58271 0.46498 0.80437 0.0
H518 H 0.64356 0.46699 0.73634 0.0
H519 H 0.69019 0.55536 0.73751 0.0
Sm520 Sm 0.36534 0.17593 0.78283 0.0
Sm521 Sm 0.42442 0.13815 0.76461 0.0
C522 C 0.29925 0.19868 0.79589 0.0
C523 C 0.26799 0.21811 0.78825 0.0
C524 C 0.23314 0.19571 0.77051 0.0
C525 C 0.19905 0.21008 0.76622 0.0
C526 C 0.19929 0.2471 0.77951 0.0
C527 C 0.23544 0.27098 0.79642 0.0
C528 C 0.26932 0.25648 0.8008 0.0
C529 C 0.40332 0.14058 0.81732 0.0
C530 C 0.31004 0.06704 0.76551 0.0
C531 C 0.4931 0.11552 0.76038 0.0
C532 C 0.54591 0.14263 0.76156 0.0
C533 C 0.56971 0.18543 0.77462 0.0
C534 C 0.61964 0.20917 0.77714 0.0
C535 C 0.64637 0.19054 0.76652 0.0
C536 C 0.62284 0.14856 0.75293 0.0
C537 C 0.57281 0.1247 0.75049 0.0
C538 C 0.38527 0.16185 0.72799 0.0
C539 C 0.47168 0.25602 0.77257 0.0
O540 O 0.34541 0.22822 0.79779 0.0
O541 O 0.2892 0.15636 0.78822 0.0
O542 O 0.38408 0.12164 0.79825 0.0
O543 O 0.40468 0.18151 0.81836 0.0
O544 O 0.30937 0.1076 0.76439 0.0
O545 O 0.35123 0.06751 0.76822 0.0
O546 O 0.47089 0.11253 0.78014 0.0
O547 O 0.47327 0.12396 0.74225 0.0
O548 O 0.4014 0.18714 0.74654 0.0
O549 O 0.38835 0.12298 0.72906 0.0
O550 O 0.4797 0.21922 0.77278 0.0
O551 O 0.42758 0.24839 0.77276 0.0
H552 H 0.23103 0.16591 0.76057 0.0
H553 H 0.17131 0.19105 0.75319 0.0
H554 H 0.23604 0.29939 0.80697 0.0
H555 H 0.29542 0.274 0.8147 0.0
H556 H 0.54963 0.19983 0.78338 0.0
H557 H 0.63733 0.2414 0.78777 0.0
H558 H 0.64309 0.13366 0.74477 0.0
H559 H 0.55504 0.09173 0.74039 0.0
Sm560 Sm 0.92046 0.22054 0.78706 0.0
Sm561 Sm 0.96293 0.32054 0.76978 0.0
C562 C 0.88584 0.12841 0.79835 0.0
C563 C 0.88193 0.08173 0.79197 0.0
C564 C 0.86644 0.0613 0.7695 0.0
C565 C 0.85735 1.01454 0.76486 0.0
C566 C 0.86354 0.9874 0.78257 0.0
C567 C 0.87989 1.0081 0.80483 0.0
C568 C 0.88895 0.05478 0.80948 0.0
C569 C 0.94527 0.29199 0.82155 0.0
C570 C 1.03338 0.27354 0.77196 0.0
C571 C 0.9973 0.41401 0.76531 0.0
C572 C 0.97064 0.44038 0.76333 0.0
C573 C 0.92374 0.4198 0.77254 0.0
C574 C 0.89918 0.44545 0.7727 0.0
C575 C 0.92102 0.4922 0.76359 0.0
C576 C 0.96729 0.51254 0.75365 0.0
C577 C 0.99201 0.48668 0.75351 0.0
C578 C 0.91713 0.25585 0.73364 0.0
C579 C 0.84768 0.25749 0.77799 0.0
O580 O 0.86329 0.14422 0.78509 0.0
O581 O 0.9267 0.16291 0.80648 0.0
O582 O 0.96933 0.2923 0.80426 0.0
O583 O 0.90529 0.25147 0.82196 0.0
O584 O 0.99416 0.23213 0.77621 0.0
O585 O 1.03217 0.31408 0.76933 0.0
O586 O 0.99233 0.39267 0.78562 0.0
O587 O 0.99434 0.38689 0.74744 0.0
O588 O 0.94282 0.25119 0.74941 0.0
O589 O 0.91344 0.29339 0.73804 0.0
O590 O 0.88565 0.30006 0.78186 0.0
O591 O 0.85281 0.2199 0.7748 0.0
H592 H 0.86043 0.08103 0.75567 0.0
H593 H 0.84501 0.99928 0.74753 0.0
H594 H 0.88517 0.98787 0.81868 0.0
H595 H 0.90037 0.06946 0.82699 0.0
H596 H 0.90659 0.38451 0.78045 0.0
H597 H 0.86383 0.4295 0.78071 0.0
H598 H 0.98483 0.54896 0.74682 0.0
H599 H 1.02814 0.50328 0.7464 0.0
Sm600 Sm 0.41346 0.20676 0.57665 0.0
Sm601 Sm 0.3608 0.10632 0.59462 0.0
C602 C 0.46757 0.30005 0.56696 0.0
C603 C 0.51275 0.34579 0.57055 0.0
C604 C 0.54108 0.35461 0.59084 0.0
C605 C 0.58062 0.40058 0.59489 0.0
C606 C 0.59192 0.43831 0.57884 0.0
C607 C 0.56384 0.42907 0.55849 0.0
C608 C 0.52477 0.38323 0.55437 0.0
C609 C 0.37046 0.13433 0.54285 0.0
C610 C 0.47585 0.15428 0.58971 0.0
C611 C 0.29678 1.01425 0.59933 0.0
C612 C 0.24375 0.98727 0.59927 0.0
C613 C 0.21956 0.95183 0.58212 0.0
C614 C 0.16941 0.92686 0.58125 0.0
C615 C 0.14269 0.93704 0.59748 0.0
C616 C 0.16667 0.97312 0.61434 0.0
C617 C 0.21688 0.99795 0.61531 0.0
C618 C 0.39996 0.17056 0.63078 0.0
C619 C 0.30209 0.16697 0.58603 0.0
O620 O 0.43833 0.28293 0.58491 0.0
O621 O 0.4677 0.26655 0.55391 0.0
O622 O 0.39504 0.13553 0.56019 0.0
O623 O 0.36836 0.17375 0.54205 0.0
O624 O 0.47579 0.19547 0.58877 0.0
O625 O 0.43514 0.11263 0.59003 0.0
O626 O 0.31705 0.03363 0.57919 0.0
O627 O 0.3179 0.04242 0.61731 0.0
O628 O 0.37991 0.17663 0.61279 0.0
O629 O 0.4009 0.13061 0.62924 0.0
O630 O 0.29905 0.12426 0.58768 0.0
O631 O 0.34389 0.20614 0.58379 0.0
H632 H 0.53211 0.32631 0.60368 0.0
H633 H 0.60205 0.40692 0.61061 0.0
H634 H 0.57208 0.45752 0.54584 0.0
H635 H 0.50309 0.37731 0.53876 0.0
H636 H 0.2395 0.94348 0.56938 0.0
H637 H 0.15136 0.89917 0.56808 0.0
H638 H 0.14649 0.98137 0.62697 0.0
H639 H 0.23453 1.02539 0.6286 0.0
Sm640 Sm 0.90148 0.24058 0.57851 0.0
Sm641 Sm 1.00074 0.28314 0.59818 0.0
C642 C 0.81091 0.20753 0.56501 0.0
C643 C 0.76436 0.20405 0.57131 0.0
C644 C 0.74338 0.1882 0.59371 0.0
C645 C 0.6967 0.17953 0.59826 0.0
C646 C 0.6703 0.18679 0.58057 0.0
C647 C 0.69177 0.20393 0.55844 0.0
C648 C 0.73829 0.21237 0.55385 0.0
C649 C 0.97891 0.27219 0.54593 0.0
C650 C 0.95075 0.35171 0.59536 0.0
C651 C 0.09403 0.31652 0.60255 0.0
C652 C 0.12009 0.28923 0.60193 0.0
C653 C 0.1024 0.24756 0.58796 0.0
C654 C 0.12777 0.22282 0.58595 0.0
C655 C 0.17132 0.23911 0.59788 0.0
C656 C 0.18869 0.27998 0.61232 0.0
C657 C 0.16316 0.30491 0.61434 0.0
C658 C 0.93334 0.23814 0.63323 0.0
C659 C 0.93702 0.16734 0.5894 0.0
O660 O 0.82515 0.18296 0.57779 0.0
O661 O 0.84639 0.24918 0.55817 0.0
O662 O 0.97446 0.29126 0.56392 0.0
O663 O 0.93886 0.23174 0.54397 0.0
O664 O 0.91041 0.31232 0.59017 0.0
O665 O 0.99167 0.35153 0.59916 0.0
O666 O 0.0736 0.3166 0.58268 0.0
O667 O 0.06632 0.30979 0.62081 0.0
O668 O 0.92953 0.26301 0.61668 0.0
O669 O 0.97114 0.23412 0.62989 0.0
O670 O 0.98029 0.20531 0.58638 0.0
O671 O 0.89953 0.17298 0.5916 0.0
H672 H 0.76252 0.18136 0.60752 0.0
H673 H 0.68081 0.16633 0.61545 0.0
H674 H 0.67206 0.20975 0.54454 0.0
H675 H 0.75344 0.22418 0.53641 0.0
H676 H 0.06952 0.23473 0.57801 0.0
H677 H 0.11405 0.19162 0.5746 0.0
H678 H 0.22253 0.2932 0.62151 0.0
H679 H 0.17749 0.33687 0.62517 0.0
Sm680 Sm 0.86816 0.69344 0.57731 0.0
Sm681 Sm 0.82086 0.7446 0.59605 0.0
C682 C 0.90379 0.63718 0.56497 0.0
C683 C 0.90668 0.59395 0.57127 0.0
C684 C 0.89768 0.57495 0.59415 0.0
C685 C 0.90311 0.53513 0.59969 0.0
C686 C 0.91495 0.51119 0.58214 0.0
C687 C 0.92957 0.5351 0.56006 0.0
C688 C 0.92402 0.57455 0.55452 0.0
C689 C 0.83834 0.73822 0.54403 0.0
C690 C 0.75594 0.63006 0.59141 0.0
C691 C 0.79353 0.80975 0.59896 0.0
C692 C 0.82005 0.86279 0.59719 0.0
C693 C 0.80951 0.88531 0.5787 0.0
C694 C 0.83483 0.93536 0.57632 0.0
C695 C 0.87102 0.96368 0.59244 0.0
C696 C 0.8826 0.94131 0.61055 0.0
C697 C 0.85742 0.89123 0.61289 0.0
C698 C 0.84406 0.70401 0.63246 0.0
C699 C 0.94106 0.80143 0.58947 0.0
O700 O 0.92542 0.67402 0.579 0.0
O701 O 0.86321 0.63154 0.55679 0.0
O702 O 0.81531 0.71234 0.56107 0.0
O703 O 0.88047 0.74185 0.54348 0.0
O704 O 0.79771 0.63145 0.59218 0.0
O705 O 0.75378 0.67013 0.59011 0.0
O706 O 0.79154 0.78725 0.57951 0.0
O707 O 0.8008 0.79 0.61757 0.0
O708 O 0.87077 0.72367 0.6145 0.0
O709 O 0.80311 0.70302 0.6303 0.0
O710 O 0.90218 0.80524 0.59296 0.0
O711 O 0.93801 0.76014 0.58506 0.0
H712 H 0.88751 0.59155 0.6079 0.0
H713 H 0.89939 0.52531 0.61799 0.0
H714 H 0.94583 0.5238 0.54669 0.0
H715 H 0.93431 0.5906 0.53713 0.0
H716 H 0.78144 0.86412 0.56614 0.0
H717 H 0.82525 0.9521 0.56234 0.0
H718 H 0.91018 0.96276 0.62327 0.0
H719 H 0.86696 0.87494 0.62709 0.0
C720 C 0.50624 0.87926 0.09165 0.0
C721 C 0.52346 0.91322 0.11035 0.0
C722 C 0.57745 0.8841 0.12335 0.0
C723 C 0.56212 0.85179 0.10409 0.0
N724 N 0.50578 0.81081 0.07281 0.0
N725 N 0.56269 0.93691 0.14803 0.0
C726 C 0.52427 0.84672 0.08921 0.0
C727 C 0.55515 0.9121 0.12745 0.0
N728 N 0.47455 0.87958 0.07565 0.0
N729 N 0.61429 0.88896 0.13738 0.0
H730 H 0.5458 0.95672 0.15181 0.0
H731 H 0.58143 0.93394 0.1623 0.0
H732 H 0.63022 0.86758 0.13571 0.0
H733 H 0.63125 0.91616 0.14979 0.0
H734 H 0.46472 0.85978 0.06014 0.0
H735 H 0.45969 0.90187 0.0771 0.0
H736 H 0.47519 0.80174 0.06289 0.0
H737 H 0.5194 0.78764 0.0701 0.0
C738 C 0.20575 0.72075 0.08835 0.0
C739 C 0.24793 0.74036 0.10224 0.0
C740 C 0.22409 0.66014 0.11818 0.0
C741 C 0.18202 0.64041 0.104 0.0
N742 N 0.13976 0.65006 0.07101 0.0
N743 N 0.30259 0.72893 0.12681 0.0
C744 C 0.17508 0.67019 0.08767 0.0
C745 C 0.25885 0.71 0.11599 0.0
N746 N 0.19378 0.75061 0.07656 0.0
N747 N 0.22969 0.63203 0.13457 0.0
H748 H 0.32833 0.76538 0.12579 0.0
H749 H 0.31494 0.70819 0.13516 0.0
H750 H 0.20604 0.59526 0.13622 0.0
H751 H 0.25624 0.64548 0.14747 0.0
H752 H 0.16036 0.73883 0.06878 0.0
H753 H 0.21582 0.78789 0.07598 0.0
H754 H 0.13667 0.66927 0.05695 0.0
H755 H 0.1162 0.61324 0.06977 0.0
C756 C 0.38005 0.52173 0.12267 0.0
C757 C 0.36432 0.54488 0.10658 0.0
C758 C 0.44815 0.60225 0.09595 0.0
C759 C 0.46386 0.57929 0.1123 0.0
N760 N 0.44571 0.52643 0.14572 0.0
N761 N 0.38248 0.61272 0.08163 0.0
C762 C 0.42999 0.54191 0.12707 0.0
C763 C 0.39817 0.58703 0.09442 0.0
N764 N 0.3474 0.47925 0.13303 0.0
N765 N 0.48042 0.63673 0.08101 0.0
H766 H 0.34613 0.60213 0.07996 0.0
H767 H 0.40539 0.64639 0.07434 0.0
H768 H 0.51735 0.65041 0.08214 0.0
H769 H 0.47047 0.6501 0.06666 0.0
H770 H 0.35712 0.45769 0.14263 0.0
H771 H 0.31037 0.46347 0.13057 0.0
H772 H 0.42293 0.50277 0.15855 0.0
H773 H 0.48201 0.54125 0.14977 0.0
C774 C 0.90842 0.51866 0.90329 0.0
C775 C 0.93193 0.51506 0.92367 0.0
C776 C 0.88729 0.5427 0.94796 0.0
C777 C 0.86976 0.5535 0.92733 0.0
N778 N 0.86789 0.55709 0.88487 0.0
N779 N 0.95159 0.5342 0.96476 0.0
C780 C 0.88104 0.5425 0.90479 0.0
C781 C 0.92322 0.52953 0.94591 0.0
N782 N 0.91303 0.5 0.8825 0.0
N783 N 0.86963 0.54497 0.96954 0.0
H784 H 0.98048 0.52815 0.96357 0.0
H785 H 0.94976 0.54905 0.98077 0.0
H786 H 0.84303 0.55438 0.9717 0.0
H787 H 0.87791 0.53288 0.98495 0.0
H788 H 0.89394 0.49812 0.86732 0.0
H789 H 0.9328 0.48231 0.88116 0.0
H790 H 0.87952 0.55472 0.86805 0.0
H791 H 0.84845 0.57523 0.88524 0.0
C792 C 0.60861 0.38393 0.92838 0.0
C793 C 0.5611 0.35134 0.93645 0.0
C794 C 0.54783 0.41899 0.94117 0.0
C795 C 0.59052 0.44998 0.92844 0.0
N796 N 0.65777 0.45619 0.90584 0.0
N797 N 0.48072 0.33869 0.94234 0.0
C798 C 0.62006 0.43097 0.92078 0.0
C799 C 0.52907 0.36901 0.94015 0.0
N800 N 0.6435 0.37136 0.92897 0.0
N801 N 0.52682 0.43689 0.95578 0.0
H802 H 0.46464 0.30168 0.93969 0.0
H803 H 0.45656 0.35145 0.94388 0.0
H804 H 0.54404 0.47305 0.96035 0.0
H805 H 0.49686 0.41481 0.96613 0.0
H806 H 0.67938 0.39553 0.92494 0.0
H807 H 0.63791 0.33902 0.93616 0.0
H808 H 0.67709 0.44135 0.89829 0.0
H809 H 0.66663 0.48966 0.89904 0.0
C810 C 0.69071 0.1586 0.9063 0.0
C811 C 0.65732 0.16652 0.91919 0.0
C812 C 0.7232 0.24608 0.93061 0.0
C813 C 0.75675 0.23361 0.92157 0.0
N814 N 0.77271 0.17508 0.90324 0.0
N815 N 0.6429 0.21722 0.94571 0.0
C816 C 0.74061 0.18911 0.91 0.0
C817 C 0.67362 0.21046 0.93166 0.0
N818 N 0.67475 0.12283 0.88987 0.0
N819 N 0.73872 0.29198 0.9381 0.0
H820 H 0.60673 0.19197 0.94771 0.0
H821 H 0.65418 0.24637 0.95705 0.0
H822 H 0.7749 0.31863 0.93784 0.0
H823 H 0.71543 0.30465 0.94245 0.0
H824 H 0.69771 0.11802 0.87862 0.0
H825 H 0.63849 0.1018 0.88551 0.0
H826 H 0.76216 0.14052 0.89724 0.0
H827 H 0.80977 0.19645 0.9055 0.0
C828 C 0.18644 0.16995 0.43818 0.0
C829 C 0.23449 0.18713 0.43059 0.0
C830 C 0.2439 0.2663 0.42315 0.0
C831 C 0.19892 0.25174 0.43443 0.0
N832 N 0.12856 0.18983 0.45445 0.0
N833 N 0.31193 0.25387 0.41967 0.0
C834 C 0.17005 0.20337 0.44217 0.0
C835 C 0.26398 0.23583 0.42401 0.0
N836 N 0.15649 0.1217 0.44137 0.0
N837 N 0.26733 0.30904 0.41116 0.0
H838 H 0.3286 0.23304 0.42021 0.0
H839 H 0.33615 0.29051 0.41771 0.0
H840 H 0.25393 0.33257 0.40941 0.0
H841 H 0.29751 0.31871 0.40068 0.0
H842 H 0.11977 0.10637 0.44458 0.0
H843 H 0.16767 0.09653 0.43877 0.0
H844 H 0.10918 0.15669 0.4629 0.0
H845 H 0.11499 0.21277 0.45766 0.0
C846 C 0.92774 0.04691 0.45484 0.0
C847 C 0.9195 0.07516 0.43823 0.0
C848 C 0.85682 1.00232 0.41973 0.0
C849 C 0.85848 0.97425 0.43875 0.0
N850 N 0.89763 0.96974 0.47423 0.0
N851 N 0.87352 0.08055 0.40595 0.0
C852 C 0.89506 0.99636 0.4561 0.0
C853 C 0.88346 0.05309 0.42089 0.0
N854 N 0.96713 0.06844 0.46917 0.0
N855 N 0.83131 0.98024 0.39995 0.0
H856 H 0.89296 0.11806 0.4058 0.0
H857 H 0.84357 0.06618 0.39495 0.0
H858 H 0.81468 0.94326 0.39782 0.0
H859 H 0.83199 0.99861 0.38466 0.0
H860 H 0.97814 0.04951 0.48002 0.0
H861 H 0.99121 0.1054 0.46885 0.0
H862 H 0.91844 0.98464 0.48923 0.0
H863 H 0.8779 0.93244 0.4746 0.0
C864 C 0.11393 0.93342 0.4305 0.0
C865 C 0.131 0.9103 0.44598 0.0
C866 C 0.04814 0.84895 0.4555 0.0
C867 C 1.03095 0.87261 0.44062 0.0
N868 N 0.04638 0.94237 0.41783 0.0
N869 N 0.11467 0.85505 0.4782 0.0
C870 C 0.06357 0.91658 0.42937 0.0
C871 C 0.09808 0.87088 0.46005 0.0
N872 N 0.14525 0.96958 0.41598 0.0
N873 N 1.01694 0.80456 0.46463 0.0
H874 H 0.151 0.87139 0.48253 0.0
H875 H 0.09226 0.82945 0.49047 0.0
H876 H 0.97988 0.78721 0.46193 0.0
H877 H 1.02817 0.78312 0.47323 0.0
H878 H 0.1343 0.98364 0.40231 0.0
H879 H 0.18234 0.98385 0.41663 0.0
H880 H 0.06836 0.97709 0.41143 0.0
H881 H 1.00971 0.93049 0.41633 0.0
C882 C 0.52152 0.84249 0.24644 0.0
C883 C 0.53452 0.88419 0.26014 0.0
C884 C 0.60344 0.88044 0.27537 0.0
C885 C 0.59648 0.84498 0.25841 0.0
N886 N 0.54784 0.79239 0.22697 0.0
N887 N 0.59311 0.94811 0.28454 0.0
C888 C 0.55486 0.82547 0.24384 0.0
C889 C 0.57696 0.90467 0.27373 0.0
N890 N 0.47705 0.81871 0.2363 0.0
N891 N 0.63391 0.88951 0.29384 0.0
H892 H 0.57522 0.96775 0.28357 0.0
H893 H 0.62678 0.96675 0.29252 0.0
H894 H 0.65004 0.86886 0.29694 0.0
H895 H 0.63755 0.91242 0.30767 0.0
H896 H 0.46344 0.78532 0.2282 0.0
H897 H 0.45209 0.83046 0.23781 0.0
H898 H 0.52172 0.78187 0.21392 0.0
H899 H 0.5695 0.77701 0.22519 0.0
C900 C 0.28122 0.76494 0.26883 0.0
C901 C 0.26036 0.78153 0.25176 0.0
C902 C 0.20389 0.69838 0.24014 0.0
C903 C 0.22452 0.68177 0.2572 0.0
N904 N 0.28832 0.69804 0.28446 0.0
N905 N 0.21121 0.76543 0.21718 0.0
C906 C 0.26511 0.71477 0.27045 0.0
C907 C 0.22457 0.74855 0.23617 0.0
N908 N 0.31447 0.79665 0.28429 0.0
N909 N 0.16346 0.66618 0.22826 0.0
H910 H 0.22648 0.80197 0.2135 0.0
H911 H 0.18886 0.74357 0.20381 0.0
H912 H 0.14819 0.629 0.22997 0.0
H913 H 0.14309 0.67616 0.21788 0.0
H914 H 0.32614 0.78623 0.29911 0.0
H915 H 0.32904 0.83372 0.28295 0.0
H916 H 0.32101 0.72025 0.29269 0.0
H917 H 0.27667 0.66148 0.28645 0.0
C918 C 0.39077 0.57907 0.27187 0.0
C919 C 0.42306 0.57159 0.2578 0.0
C920 C 0.35548 0.50978 0.23544 0.0
C921 C 0.32297 0.51103 0.25203 0.0
N922 N 0.30883 0.54904 0.28533 0.0
N923 N 0.43691 0.52848 0.22681 0.0
C924 C 0.34026 0.54688 0.26983 0.0
C925 C 0.40563 0.53685 0.2396 0.0
N926 N 0.40848 0.61735 0.28691 0.0
N927 N 0.33811 0.48334 0.21534 0.0
H928 H 0.47414 0.54824 0.22891 0.0
H929 H 0.4259 0.49965 0.2153 0.0
H930 H 0.30155 0.46453 0.21146 0.0
H931 H 0.35979 0.48434 0.20143 0.0
H932 H 0.38708 0.62801 0.29591 0.0
H933 H 0.44524 0.64079 0.28915 0.0
H934 H 0.31931 0.56907 0.30078 0.0
H935 H 0.27178 0.53001 0.28296 0.0
C936 C 0.88668 0.57865 0.79137 0.0
C937 C 0.85803 0.58228 0.77329 0.0
C938 C 0.86344 0.51984 0.75074 0.0
C939 C 0.89765 0.52169 0.76719 0.0
N940 N 0.94275 0.55251 0.80314 0.0
N941 N 0.81853 0.55686 0.73569 0.0
C942 C 0.90922 0.55072 0.78762 0.0
C943 C 0.84547 0.55237 0.75311 0.0
N944 N 0.89141 0.60127 0.8124 0.0
N945 N 0.84814 0.48686 0.73294 0.0
H946 H 0.80361 0.57915 0.73713 0.0
H947 H 0.81302 0.54067 0.71925 0.0
H948 H 0.86184 0.46375 0.73029 0.0
H949 H 0.81972 0.47999 0.72177 0.0
H950 H 0.90761 0.59642 0.82722 0.0
H951 H 0.87511 0.62175 0.81575 0.0
H952 H 0.95738 0.57739 0.81673 0.0
H953 H 0.95839 0.53083 0.80171 0.0
C954 C 0.53649 0.3875 0.75464 0.0
C955 C 0.5782 0.40661 0.76885 0.0
C956 C 0.55208 0.3262 0.78514 0.0
C957 C 0.51156 0.30662 0.7699 0.0
N958 N 0.47323 0.31753 0.7355 0.0
N959 N 0.63146 0.39343 0.79367 0.0
C960 C 0.50629 0.33695 0.75321 0.0
C961 C 0.58791 0.37562 0.78279 0.0
N962 N 0.52434 0.41762 0.74326 0.0
N963 N 0.55497 0.29879 0.80286 0.0
H964 H 0.65818 0.4295 0.79239 0.0
H965 H 0.64261 0.37174 0.80208 0.0
H966 H 0.5289 0.26306 0.80582 0.0
H967 H 0.58107 0.3127 0.81597 0.0
H968 H 0.49121 0.40563 0.7351 0.0
H969 H 0.54544 0.455 0.74366 0.0
H970 H 0.47158 0.33767 0.72147 0.0
H971 H 0.45077 0.2807 0.73334 0.0
C972 C 0.73204 0.25045 0.75624 0.0
C973 C 0.69868 0.21299 0.7711 0.0
C974 C 0.76474 0.21734 0.79461 0.0
C975 C 0.79809 0.24998 0.77797 0.0
N976 N 0.81481 0.29954 0.74334 0.0
N977 N 0.68194 0.15909 0.80399 0.0
C978 C 0.78218 0.26771 0.75908 0.0
C979 C 0.71467 0.19624 0.7903 0.0
N980 N 0.71562 0.26963 0.73956 0.0
N981 N 0.78124 0.20758 0.81489 0.0
H982 H 0.64485 0.14394 0.80202 0.0
H983 H 0.69124 0.14116 0.81638 0.0
H984 H 0.81773 0.22351 0.81872 0.0
H985 H 0.75927 0.18781 0.8289 0.0
H986 H 0.73778 0.3001 0.72964 0.0
H987 H 0.67912 0.25677 0.73659 0.0
H988 H 0.80563 0.30849 0.72729 0.0
H989 H 0.85171 0.3166 0.74617 0.0
C990 C 0.23238 0.23039 0.57411 0.0
C991 C 0.20041 0.21538 0.59357 0.0
C992 C 0.22537 0.15689 0.60489 0.0
C993 C 0.25896 0.17349 0.58593 0.0
N994 N 0.28204 0.21329 0.54825 0.0
N995 N 0.15855 0.1582 0.62457 0.0
C996 C 0.25841 0.20625 0.5692 0.0
C997 C 0.19442 0.17661 0.60805 0.0
N998 N 0.23908 0.2688 0.56071 0.0
N999 N 0.22397 0.12349 0.62029 0.0
H1000 H 0.13627 0.17269 0.62774 0.0
H1001 H 0.14861 0.12682 0.63408 0.0
H1002 H 0.24043 0.10331 0.61679 0.0
H1003 H 0.20655 0.11568 0.63652 0.0
H1004 H 0.26617 0.28522 0.54813 0.0
H1005 H 0.21977 0.28672 0.56328 0.0
H1006 H 0.27947 0.23305 0.5343 0.0
H1007 H 0.30007 0.19488 0.54386 0.0
C1008 C 0.87628 0.03796 0.60922 0.0
C1009 C 0.89224 1.01674 0.59228 0.0
C1010 C 0.94295 0.09592 0.5739 0.0
C1011 C 0.92887 0.11741 0.5918 0.0
N1012 N 0.89431 0.10979 0.63047 0.0
N1013 N 0.94686 1.0256 0.561 0.0
C1014 C 0.89924 0.08862 0.61066 0.0
C1015 C 0.92763 0.04581 0.57539 0.0
N1016 N 0.83787 1.00982 0.62345 0.0
N1017 N 0.96873 0.12248 0.55491 0.0
H1018 H 0.93583 0.98899 0.56149 0.0
H1019 H 0.97617 0.04557 0.54996 0.0
H1020 H 0.9816 0.15925 0.55345 0.0
H1021 H 0.97488 0.10757 0.53995 0.0
H1022 H 0.82128 1.02373 0.63413 0.0
H1023 H 0.81954 0.97232 0.623 0.0
H1024 H 0.87666 0.09072 0.64561 0.0
H1025 H 0.91314 0.14675 0.63281 0.0
C1026 C 0.06528 0.87291 0.61521 0.0
C1027 C 0.08946 0.90786 0.59735 0.0
C1028 C 1.01538 0.87452 0.57439 0.0
C1029 C 0.99002 0.84251 0.59317 0.0
N1030 N 0.98929 0.816 0.63307 0.0
N1031 N 0.08526 0.9495 0.56281 0.0
C1032 C 1.01449 0.84367 0.61421 0.0
C1033 C 0.06359 0.91138 0.57797 0.0
N1034 N 0.09096 0.86534 0.63225 0.0
N1035 N 0.99529 0.86722 0.55253 0.0
H1036 H 0.12071 0.97712 0.56497 0.0
H1037 H 0.06659 0.95593 0.54958 0.0
H1038 H 0.96235 0.83728 0.54854 0.0
H1039 H 1.01392 0.88722 0.53777 0.0
H1040 H 0.07568 0.83642 0.64394 0.0
H1041 H 0.12831 0.8854 0.63348 0.0
H1042 H 1.00442 0.81886 0.64963 0.0
H1043 H 0.95225 0.79298 0.63268 0.0
C1044 C 0.55225 0.08018 0.02899 0.0
C1045 C 0.53979 0.03814 0.04226 0.0
C1046 C 0.53627 0.99515 1.00598 0.0
C1047 C 0.5447 0.03596 0.99271 0.0
N1048 N 0.5829 0.12235 0.99196 0.0
N1049 N 0.54079 0.96409 0.0444 0.0
C1050 C 0.56076 0.08041 1.00441 0.0
C1051 C 0.53911 0.99845 0.031 0.0
N1052 N 0.55205 0.11831 0.03942 0.0
N1053 N 0.52321 0.95286 0.99474 0.0
H1054 H 0.54528 0.96816 0.0626 0.0
H1055 H 0.54336 0.93547 0.03735 0.0
H1056 H 0.52257 0.9505 0.97639 0.0
H1057 H 0.51153 0.92037 1.00359 0.0
H1058 H 0.55558 0.14795 0.03008 0.0
H1059 H 0.54508 0.1183 0.05732 0.0
H1060 H 0.59776 0.1561 0.99983 0.0
H1061 H 0.59108 0.12309 0.97414 0.0
C1062 C 0.10095 0.54781 1.00325 0.0
C1063 C 0.05969 0.51781 0.98983 0.0
C1064 C 1.0106 0.49839 0.02571 0.0
C1065 C 0.05264 0.51832 0.03952 0.0
N1066 N 0.13966 0.55938 0.04104 0.0
N1067 N 0.97472 0.45884 0.9891 0.0
C1068 C 0.09848 0.54358 0.02826 0.0
C1069 C 1.01405 0.49222 1.00117 0.0
N1070 N 0.14288 0.57867 0.99203 0.0
N1071 N 0.96722 0.48338 0.03634 0.0
H1072 H 0.97536 0.4527 0.97113 0.0
H1073 H 0.94222 0.43528 0.99728 0.0
H1074 H 0.96447 0.48769 0.05441 0.0
H1075 H 0.93536 0.47141 0.02694 0.0
H1076 H 0.17336 0.60427 1.00088 0.0
H1077 H 0.1453 0.58163 0.97369 0.0
H1078 H 0.17349 0.57267 0.0334 0.0
H1079 H 0.13982 0.55626 0.05927 0.0
C1080 C 0.5478 0.54688 1.00225 0.0
C1081 C 0.59098 0.57946 0.99048 0.0
C1082 C 0.63083 0.61081 0.02844 0.0
C1083 C 0.58761 0.57891 0.04054 0.0
N1084 N 0.5033 0.52025 0.03928 0.0
N1085 N 0.66768 0.65229 0.99213 0.0
C1086 C 0.54552 0.54788 0.02749 0.0
C1087 C 0.63071 0.61423 1.00356 0.0
N1088 N 0.50907 0.51557 0.9892 0.0
N1089 N 0.67245 0.63819 0.04062 0.0
H1090 H 0.66786 0.65722 0.974 0.0
H1091 H 0.69524 0.68181 1.00072 0.0
H1092 H 0.67438 0.63964 0.05885 0.0
H1093 H 0.70611 0.65671 0.03259 0.0
H1094 H 0.47789 0.48714 0.99627 0.0
H1095 H 0.50869 0.51812 0.97088 0.0
H1096 H 0.47016 0.50002 0.03111 0.0
H1097 H 0.50123 0.51878 0.05765 0.0
C1098 C 0.20463 0.41452 0.36055 0.0
C1099 C 0.19547 0.3721 0.37274 0.0
C1100 C 0.19469 0.33388 0.33496 0.0
C1101 C 0.20062 0.37525 0.3231 0.0
N1102 N 0.22707 0.45978 0.32406 0.0
N1103 N 0.1867 0.29299 0.37225 0.0
C1104 C 0.2119 0.41747 0.33584 0.0
C1105 C 0.19332 0.33268 0.36012 0.0
N1106 N 0.2003 0.4495 0.37209 0.0
N1107 N 0.18739 0.29499 0.32196 0.0
H1108 H 0.18116 0.28962 0.39038 0.0
H1109 H 0.18825 0.26424 0.36475 0.0
H1110 H 0.19013 0.29647 0.30361 0.0
H1111 H 0.17856 0.26159 0.32898 0.0
H1112 H 0.20087 0.47874 0.36373 0.0
H1113 H 0.19137 0.44669 0.38987 0.0
H1114 H 0.23981 0.4928 0.33243 0.0
H1115 H 0.23126 0.46228 0.30584 0.0
C1116 C 0.73022 0.88493 0.36034 0.0
C1117 C 0.73043 0.84652 0.37273 0.0
C1118 C 0.7273 0.80668 0.33539 0.0
C1119 C 0.72607 0.84446 0.32286 0.0
N1120 N 0.73488 0.92328 0.32244 0.0
N1121 N 0.72019 0.76666 0.37251 0.0
C1122 C 0.72978 0.8847 0.3351 0.0
C1123 C 0.72645 0.80627 0.36034 0.0
N1124 N 0.72857 0.92044 0.37285 0.0
N1125 N 0.73129 0.77194 0.32332 0.0
H1126 H 0.72051 0.76502 0.39077 0.0
H1127 H 0.71041 0.7337 0.36471 0.0
H1128 H 0.73185 0.77063 0.30506 0.0
H1129 H 0.73864 0.74697 0.33121 0.0
H1130 H 0.72511 0.94815 0.36529 0.0
H1131 H 0.72718 0.92007 0.39123 0.0
H1132 H 0.74095 0.95544 0.32987 0.0
H1133 H 0.73666 0.92423 0.30406 0.0
C1134 C 0.29377 0.94584 0.33611 0.0
C1135 C 0.25824 0.90539 0.32364 0.0
C1136 C 0.21589 0.87056 0.36112 0.0
C1137 C 0.25396 0.90901 0.37361 0.0
N1138 N 0.3336 0.97879 0.373 0.0
N1139 N 0.18758 0.827 0.32408 0.0
C1140 C 0.29415 0.94521 0.36107 0.0
C1141 C 0.21978 0.86704 0.33611 0.0
N1142 N 0.32692 0.98571 0.3241 0.0
N1143 N 0.17577 0.83806 0.37312 0.0
H1144 H 0.1885 0.8245 0.30578 0.0
H1145 H 0.1616 0.7956 0.33223 0.0
H1146 H 0.17296 0.83876 0.39142 0.0
H1147 H 0.14454 0.8121 0.36495 0.0
H1148 H 0.34954 1.01851 0.33216 0.0
H1149 H 0.32906 0.98775 0.30583 0.0
H1150 H 0.36634 1.00194 0.36492 0.0
H1151 H 0.33535 0.98085 0.39123 0.0
C1152 C 0.86085 0.74984 0.69373 0.0
C1153 C 0.86345 0.71306 0.70643 0.0
C1154 C 0.86959 0.67763 0.66913 0.0
C1155 C 0.8644 0.7131 0.6567 0.0
N1156 N 0.87473 0.79291 0.65692 0.0
N1157 N 0.88509 0.65145 0.70685 0.0
C1158 C 0.86758 0.753 0.66901 0.0
C1159 C 0.87343 0.68043 0.69425 0.0
N1160 N 0.8468 0.77853 0.70486 0.0
N1161 N 0.86827 0.64022 0.65708 0.0
H1162 H 0.88866 0.6542 0.72514 0.0
H1163 H 0.89538 0.62846 0.69919 0.0
H1164 H 0.867 0.63869 0.6387 0.0
H1165 H 0.86669 0.61032 0.66522 0.0
H1166 H 0.83892 0.80229 0.69601 0.0
H1167 H 0.83907 0.77553 0.72281 0.0
H1168 H 0.88128 0.82459 0.66519 0.0
H1169 H 0.87917 0.79586 0.63869 0.0
C1170 C 0.34821 0.15857 0.66624 0.0
C1171 C 0.39358 0.18478 0.65476 0.0
C1172 C 0.4335 0.20976 0.6929 0.0
C1173 C 0.38814 0.18256 0.70433 0.0
N1174 N 0.30226 0.14488 0.70228 0.0
N1175 N 0.47614 0.2471 0.65656 0.0
C1176 C 0.34545 0.16239 0.69102 0.0
C1177 C 0.43504 0.21494 0.66797 0.0
N1178 N 0.30862 0.12655 0.65392 0.0
N1179 N 0.47515 0.22686 0.70545 0.0
H1180 H 0.47748 0.251 0.63825 0.0
H1181 H 0.5068 0.27276 0.66528 0.0
H1182 H 0.47584 0.22331 0.72365 0.0
H1183 H 0.50899 0.24195 0.69762 0.0
H1184 H 0.27613 0.10227 0.66186 0.0
H1185 H 0.30936 0.12163 0.63587 0.0
H1186 H 0.26982 0.13277 0.69341 0.0
H1187 H 0.29993 0.14725 0.72053 0.0
C1188 C 0.88382 0.20804 0.6706 0.0
C1189 C 0.92404 0.24453 0.65828 0.0
C1190 C 0.96224 0.28218 0.69572 0.0
C1191 C 0.92124 0.24714 0.70822 0.0
N1192 N 0.84043 0.18015 0.70782 0.0
N1193 N 0.99597 0.32243 0.6588 0.0
C1194 C 0.88119 0.21095 0.69571 0.0
C1195 C 0.96147 0.28339 0.6708 0.0
N1196 N 0.84859 0.17054 0.65827 0.0
N1197 N 1.0025 0.31433 0.70768 0.0
H1198 H 0.99699 0.32496 0.64053 0.0
H1199 H 1.02075 0.35442 0.66686 0.0
H1200 H 1.00447 0.31645 0.72595 0.0
H1201 H 1.03554 0.33631 0.69958 0.0
H1202 H 0.82076 0.13993 0.66611 0.0
H1203 H 0.84834 0.16953 0.63989 0.0
H1204 H 0.80815 0.15607 0.69978 0.0
H1205 H 0.83842 0.18027 0.72617 0.0
C1206 C 0.36461 0.99979 0.18617 0.0
C1207 C 0.34354 0.95089 0.19326 0.0
C1208 C 0.41153 0.94742 0.17468 0.0
C1209 C 0.43485 0.99781 0.16995 0.0
N1210 N 0.43728 0.07344 0.17587 0.0
N1211 N 0.34906 0.87864 0.19582 0.0
C1212 C 0.4123 1.02431 0.177 0.0
C1213 C 0.36744 0.92472 0.18783 0.0
N1214 N 0.3382 1.02255 0.18741 0.0
N1215 N 0.43004 0.92058 0.16566 0.0
H1216 H 0.3155 0.8595 0.20381 0.0
H1217 H 0.3681 0.86015 0.19554 0.0
H1218 H 0.46247 0.93552 0.15656 0.0
H1219 H 0.41162 0.88312 0.16571 0.0
H1220 H 0.34972 0.05663 0.18036 0.0
H1221 H 0.30254 1.00533 0.19315 0.0
H1222 H 0.42465 0.09496 0.18306 0.0
H1223 H 0.47286 0.09297 0.17011 0.0
C1224 C 0.14998 0.49171 0.17788 0.0
C1225 C 0.10739 0.46042 0.16489 0.0
C1226 C 0.10966 0.39103 0.18276 0.0
C1227 C 0.15387 0.42196 0.19384 0.0
N1228 N 0.22163 0.50181 0.19772 0.0
N1229 N 0.061 0.37884 0.14899 0.0
C1230 C 0.17579 0.4723 0.19003 0.0
C1231 C 0.09119 0.40975 0.16561 0.0
N1232 N 0.16648 0.54002 0.1788 0.0
N1233 N 0.08541 0.34292 0.18785 0.0
H1234 H 0.05205 0.38953 0.13365 0.0
H1235 H 0.05163 0.34273 0.1481 0.0
H1236 H 0.09987 0.32585 0.19775 0.0
H1237 H 0.04957 0.32042 0.18314 0.0
H1238 H 0.1925 0.56272 0.19076 0.0
H1239 H 0.15328 0.55765 0.16852 0.0
H1240 H 0.24169 0.5381 0.19323 0.0
H1241 H 0.24119 0.48913 0.20689 0.0
C1242 C 0.62932 0.73733 0.18447 0.0
C1243 C 0.67731 0.75697 0.19291 0.0
C1244 C 0.67869 0.68485 0.17888 0.0
C1245 C 0.63097 0.66497 0.17037 0.0
N1246 N 0.55785 0.66856 0.16808 0.0
N1247 N 0.75189 0.75593 0.19084 0.0
C1248 C 0.6054 0.69022 0.17399 0.0
C1249 C 0.70303 0.73236 0.18811 0.0
N1250 N 0.6074 0.76448 0.18546 0.0
N1251 N 0.70016 0.65714 0.17919 0.0
H1252 H 0.77169 0.79194 0.19583 0.0
H1253 H 0.77348 0.74197 0.18537 0.0
H1254 H 0.68294 0.62158 0.17336 0.0
H1255 H 0.73276 0.66739 0.18754 0.0
H1256 H 0.57447 0.75491 0.17772 0.0
H1257 H 0.62397 0.79906 0.19236 0.0
H1258 H 0.53546 0.68247 0.17194 0.0
H1259 H 0.53927 0.63418 0.16097 0.0
C1260 C 1.03479 0.39319 0.86002 0.0
C1261 C 1.01604 0.42537 0.86068 0.0
C1262 C 0.94448 0.36461 0.83891 0.0
C1263 C 0.96339 0.33292 0.83874 0.0
N1264 N 1.01933 0.31156 0.85473 0.0
N1265 N 0.95949 0.44611 0.84358 0.0
C1266 C 1.00646 0.34576 0.85096 0.0
C1267 C 0.9725 0.41233 0.84822 0.0
N1268 N 0.08169 0.40945 0.86596 0.0
N1269 N 0.89882 0.34835 0.83093 0.0
H1270 H 0.98054 0.48216 0.84792 0.0
H1271 H 0.93097 0.44007 0.83267 0.0
H1272 H 0.87701 0.31303 0.82535 0.0
H1273 H 0.88063 0.36755 0.83242 0.0
H1274 H 0.09876 0.38927 0.86395 0.0
H1275 H 0.10566 0.44541 0.86962 0.0
H1276 H 0.04755 0.31664 0.86566 0.0
H1277 H 0.99807 0.27608 0.84912 0.0
C1278 C 0.70481 0.66985 0.85486 0.0
C1279 C 0.6813 0.62002 0.86054 0.0
C1280 C 0.74636 0.61421 0.84017 0.0
C1281 C 0.77196 0.66504 0.83678 0.0
N1282 N 0.77978 0.74204 0.84568 0.0
N1283 N 0.68141 0.54488 0.85985 0.0
C1284 C 0.7523 0.69299 0.84553 0.0
C1285 C 0.70244 0.59215 0.85344 0.0
N1286 N 0.68079 0.69486 0.85738 0.0
N1287 N 0.76255 0.58662 0.82971 0.0
H1288 H 0.64809 0.52669 0.86816 0.0
H1289 H 0.69806 0.52426 0.85801 0.0
H1290 H 0.79486 0.60125 0.82053 0.0
H1291 H 0.74253 0.54927 0.8287 0.0
H1292 H 0.69434 0.73008 0.85147 0.0
H1293 H 0.64498 0.67868 0.86281 0.0
H1294 H 0.76928 0.76425 0.85404 0.0
H1295 H 0.81522 0.76033 0.83962 0.0
C1296 C 0.42442 0.07631 0.82996 0.0
C1297 C 0.42324 0.11943 0.83508 0.0
C1298 C 0.46698 0.12528 0.87167 0.0
C1299 C 0.47542 0.08774 0.86442 0.0
N1300 N 0.46709 0.03191 0.83391 0.0
N1301 N 0.44205 0.18324 0.86315 0.0
C1302 C 0.45639 0.06521 0.84251 0.0
C1303 C 0.44432 0.14348 0.85651 0.0
N1304 N 0.39139 0.04293 0.81503 0.0
N1305 N 0.47864 0.1425 0.89386 0.0
H1306 H 0.41545 0.19046 0.85753 0.0
H1307 H 0.46573 0.20813 0.87528 0.0
H1308 H 0.49887 0.1334 0.90468 0.0
H1309 H 0.4652 0.16266 0.90181 0.0
H1310 H 0.38917 1.00994 0.81163 0.0
H1311 H 0.36096 0.04403 0.80966 0.0
H1312 H 0.45823 1.0184 0.81684 0.0
H1313 H 0.48825 1.02096 0.84299 0.0
C1314 C 1.03799 0.26345 0.5178 0.0
C1315 C 1.02526 0.2933 0.5313 0.0
C1316 C 0.09922 0.3643 0.51579 0.0
C1317 C 0.11373 0.33416 0.50483 0.0
N1318 N 0.10232 0.25463 0.50015 0.0
N1319 N 0.05684 0.37503 0.54746 0.0
C1320 C 0.08514 0.28366 0.50768 0.0
C1321 C 0.05944 0.3444 0.53157 0.0
N1322 N 1.0053 0.21632 0.51357 0.0
N1323 N 0.12398 0.4128 0.51157 0.0
H1324 H 1.03153 0.36598 0.56048 0.0
H1325 H 0.08458 0.41027 0.54987 0.0
H1326 H 0.15676 0.43031 0.50265 0.0
H1327 H 0.11033 0.43535 0.51586 0.0
H1328 H 1.01167 0.1953 0.50173 0.0
H1329 H 0.97012 0.19893 0.5196 0.0
H1330 H 0.08527 0.21791 0.50385 0.0
H1331 H 0.13592 0.26809 0.4922 0.0
C1332 C 0.74907 0.75544 0.50708 0.0
C1333 C 0.77174 0.80622 0.50419 0.0
C1334 C 0.83813 0.81372 0.52916 0.0
C1335 C 0.81906 0.76292 0.52845 0.0
N1336 N 0.75916 0.68624 0.51316 0.0
N1337 N 0.83855 0.88451 0.51372 0.0
C1338 C 0.77537 0.73414 0.51633 0.0
C1339 C 0.81644 0.83565 0.51563 0.0
N1340 N 0.70112 0.72746 0.50247 0.0
N1341 N 0.87513 0.84086 0.54401 0.0
H1342 H 0.82231 0.90253 0.50635 0.0
H1343 H 0.87403 0.90743 0.51873 0.0
H1344 H 0.89079 0.82575 0.55425 0.0
H1345 H 0.88712 0.8768 0.54787 0.0
H1346 H 0.68173 0.69089 0.50651 0.0
H1347 H 0.67949 0.74187 0.49761 0.0
H1348 H 0.72989 0.66447 0.50247 0.0
H1349 H 0.77804 0.66957 0.51913 0.0
C1350 C 0.27432 1.02203 0.50995 0.0
C1351 C 0.30238 1.00077 0.50318 0.0
C1352 C 0.3749 0.0726 0.51765 0.0
C1353 C 0.34666 0.09165 0.52672 0.0
N1354 N 0.26783 0.08114 0.53392 0.0
N1355 N 0.37775 1.00136 0.50651 0.0
C1356 C 0.29589 0.06555 0.52345 0.0
C1357 C 0.3522 1.02488 0.50875 0.0
N1358 N 0.22763 1.00207 0.50278 0.0
N1359 N 0.42378 0.10089 0.51671 0.0
H1360 H 0.36203 0.96544 0.5014 0.0
H1361 H 0.413 1.0156 0.51242 0.0
H1362 H 0.44171 0.13658 0.52236 0.0
H1363 H 0.44595 0.09062 0.5081 0.0
H1364 H 0.20757 1.01938 0.50436 0.0
H1365 H 0.20959 0.96952 0.49389 0.0
H1366 H 0.23051 0.06048 0.53503 0.0
H1367 H 0.28204 0.11365 0.54281 0.0
C1368 C 0.47643 0.22966 0.10739 0.0
C1369 C 0.52382 0.26956 0.10912 0.0
C1370 C 0.55656 0.21802 0.0974 0.0
C1371 C 0.50981 0.17642 0.09884 0.0
N1372 N 0.42492 0.14779 0.09401 0.0
N1373 N 0.60937 0.30055 0.10903 0.0
C1374 C 0.46936 0.18346 0.10077 0.0
C1375 C 0.56391 0.26341 0.10491 0.0
N1376 N 0.43816 0.2358 0.11254 0.0
N1377 N 0.59345 0.21522 0.08689 0.0
H1378 H 0.61657 0.33463 0.11434 0.0
H1379 H 0.63953 0.29628 0.10932 0.0
H1380 H 0.58868 0.18448 0.0784 0.0
H1381 H 0.62699 0.24509 0.08346 0.0
H1382 H 0.40317 0.20752 0.11471 0.0
H1383 H 0.44185 0.26933 0.11628 0.0
H1384 H 0.39433 0.15121 0.09386 0.0
H1385 H 0.41979 0.11751 0.08486 0.0
C1386 C 0.87106 0.28651 0.12414 0.0
C1387 C 0.8334 0.28037 0.1089 0.0
C1388 C 0.89204 0.34846 0.08495 0.0
C1389 C 0.92791 0.35869 0.10216 0.0
N1390 N 0.94655 0.34413 0.14152 0.0
N1391 N 0.80669 0.31029 0.0766 0.0
C1392 C 0.91632 0.32929 0.12261 0.0
C1393 C 0.84351 0.3125 0.08966 0.0
N1394 N 0.86372 0.25151 0.14011 0.0
N1395 N 0.90452 0.3727 0.064 0.0
H1396 H 0.77071 0.28496 0.0797 0.0
H1397 H 0.8115 0.33611 0.06406 0.0
H1398 H 0.93999 0.39818 0.05993 0.0
H1399 H 0.88082 0.36416 0.04993 0.0
H1400 H 0.89141 0.25243 0.15011 0.0
H1401 H 0.83115 0.21933 0.14158 0.0
H1402 H 0.93777 0.32596 0.15761 0.0
H1403 H 0.97745 0.37773 0.14217 0.0
C1404 C 0.78446 0.63332 0.11972 0.0
C1405 C 0.74713 0.60575 0.10341 0.0
C1406 C 0.78628 0.5586 0.09371 0.0
C1407 C 0.82436 0.58707 0.10944 0.0
N1408 N 0.86563 0.65879 0.13295 0.0
N1409 N 0.71937 0.55129 0.07055 0.0
C1410 C 0.82534 0.62686 0.12097 0.0
C1411 C 0.75041 0.57136 0.08899 0.0
N1412 N 0.77966 0.66341 0.13511 0.0
N1413 N 0.78283 0.51783 0.08425 0.0
H1414 H 0.69346 0.56078 0.06637 0.0
H1415 H 0.72253 0.52926 0.05806 0.0
H1416 H 0.80809 0.50699 0.08735 0.0
H1417 H 0.7529 0.49267 0.07491 0.0
H1418 H 0.80266 0.67961 0.14931 0.0
H1419 H 0.7507 0.66959 0.13486 0.0
H1420 H 0.87047 0.69107 0.13974 0.0
H1421 H 0.89617 0.65521 0.13418 0.0
C1422 C 0.26651 0.52977 0.90142 0.0
C1423 C 0.28552 0.51157 0.91857 0.0
C1424 C 0.21058 0.47969 0.94155 0.0
C1425 C 0.19056 0.49502 0.92354 0.0
N1426 N 0.19614 0.52728 0.88443 0.0
N1427 N 0.2744 0.46402 0.95342 0.0
C1428 C 0.21762 0.51793 0.90293 0.0
C1429 C 0.25719 0.48507 0.93825 0.0
N1430 N 0.29578 0.55987 0.88409 0.0
N1431 N 0.18575 0.46157 0.96211 0.0
H1432 H 0.30857 0.46793 0.95173 0.0
H1433 H 0.25381 0.4401 0.96668 0.0
H1434 H 0.15128 0.45633 0.96481 0.0
H1435 H 0.20035 0.45473 0.977 0.0
H1436 H 0.28565 0.5787 0.87266 0.0
H1437 H 0.33189 0.56958 0.88236 0.0
H1438 H 0.21191 0.53815 0.86786 0.0
H1439 H 0.16078 0.52032 0.88491 0.0
C1440 C 0.65161 0.81961 0.91752 0.0
C1441 C 0.60626 0.81503 0.92303 0.0
C1442 C 0.57979 0.73426 0.93868 0.0
C1443 C 0.62117 0.73528 0.92904 0.0
N1444 N 0.69428 0.77826 0.90606 0.0
N1445 N 0.52362 0.76336 0.93499 0.0
C1446 C 0.65696 0.77799 0.91784 0.0
C1447 C 0.56942 0.77122 0.93276 0.0
N1448 N 0.68969 0.86377 0.91213 0.0
N1449 N 0.55043 0.69798 0.95367 0.0
H1450 H 0.51364 0.78847 0.92998 0.0
H1451 H 0.49454 0.72997 0.93955 0.0
H1452 H 0.55809 0.6714 0.95916 0.0
H1453 H 0.52182 0.6975 0.96264 0.0
H1454 H 0.72465 0.87 0.91014 0.0
H1455 H 0.68713 0.89498 0.91204 0.0
H1456 H 0.718 0.80678 0.89538 0.0
H1457 H 0.6993 0.74863 0.90515 0.0
C1458 C 0.33432 0.90163 0.94206 0.0
C1459 C 0.37291 0.92112 0.92569 0.0
C1460 C 0.33658 0.84418 0.90468 0.0
C1461 C 0.29603 0.82545 0.91984 0.0
N1462 N 0.252 0.83957 0.95029 0.0
N1463 N 0.40259 0.91544 0.88743 0.0
C1464 C 0.29359 0.85514 0.9378 0.0
C1465 C 0.37142 0.89371 0.90576 0.0
N1466 N 0.33726 0.9266 0.96203 0.0
N1467 N 0.34298 0.81431 0.88983 0.0
H1468 H 0.42722 0.95225 0.88704 0.0
H1469 H 0.40024 0.89814 0.87156 0.0
H1470 H 0.31915 0.77736 0.88903 0.0
H1471 H 0.37446 0.82536 0.88019 0.0
H1472 H 0.31282 0.91209 0.97589 0.0
H1473 H 0.36606 0.9609 0.96537 0.0
H1474 H 0.24634 0.86138 0.9619 0.0
H1475 H 0.2216 0.80602 0.9476 0.0
C1476 C 0.22156 0.59683 0.43321 0.0
C1477 C 0.18702 0.60301 0.44587 0.0
C1478 C 0.14109 0.51619 0.45403 0.0
C1479 C 0.17379 0.50914 0.43982 0.0
N1480 N 0.24156 0.54325 0.41281 0.0
N1481 N 0.10962 0.56856 0.46476 0.0
C1482 C 0.21283 0.54961 0.42846 0.0
C1483 C 0.14532 0.56259 0.45504 0.0
N1484 N 0.26403 0.63625 0.42666 0.0
N1485 N 0.10841 0.4799 0.4681 0.0
H1486 H 0.112 0.60212 0.46625 0.0
H1487 H 0.07607 0.53996 0.46945 0.0
H1488 H 0.10479 0.44584 0.46894 0.0
H1489 H 0.08791 0.48486 0.48084 0.0
H1490 H 0.2934 0.63421 0.42025 0.0
H1491 H 0.27159 0.67151 0.42938 0.0
H1492 H 0.26572 0.57027 0.40158 0.0
H1493 H 0.23924 0.51032 0.40965 0.0
C1494 C 0.59282 0.65129 0.44792 0.0
C1495 C 0.60198 0.69181 0.43386 0.0
C1496 C 0.51561 0.65614 0.42602 0.0
C1497 C 0.50646 0.61535 0.43969 0.0
N1498 N 0.5368 0.56843 0.45864 0.0
N1499 N 0.57422 0.7256 0.40397 0.0
C1500 C 0.5453 0.61112 0.44901 0.0
C1501 C 0.56392 0.69178 0.4211 0.0
N1502 N 0.62855 0.652 0.46132 0.0
N1503 N 0.47829 0.66208 0.41869 0.0
H1504 H 0.60945 0.75115 0.39944 0.0
H1505 H 0.54842 0.72506 0.39263 0.0
H1506 H 0.44236 0.63696 0.42206 0.0
H1507 H 0.48309 0.69374 0.41101 0.0
H1508 H 0.6224 0.62642 0.47424 0.0
H1509 H 0.66411 0.67967 0.4607 0.0
H1510 H 0.56405 0.56145 0.46351 0.0
H1511 H 0.50249 0.53832 0.45975 0.0
C1512 C 0.44288 0.87699 0.43361 0.0
C1513 C 0.48893 0.91579 0.43915 0.0
C1514 C 0.45835 0.97252 0.43445 0.0
C1515 C 0.41143 0.93271 0.4302 0.0
N1516 N 0.36697 0.85245 0.41446 0.0
N1517 N 0.54366 1.0011 0.44106 0.0
C1518 C 0.40628 0.88661 0.42626 0.0
C1519 C 0.49761 0.96387 0.43844 0.0
N1520 N 0.43324 0.83063 0.43635 0.0
N1521 N 0.46576 1.01833 0.43434 0.0
H1522 H 0.5729 0.99586 0.4438 0.0
H1523 H 0.55397 0.03727 0.43942 0.0
H1524 H 0.44209 1.0276 0.42668 0.0
H1525 H 0.49655 0.04809 0.44071 0.0
H1526 H 0.39863 0.8011 0.4352 0.0
H1527 H 0.45891 0.82181 0.4419 0.0
H1528 H 0.36291 0.81934 0.40952 0.0
H1529 H 0.34163 0.85987 0.40695 0.0
C1530 C 0.89029 0.85509 0.27404 0.0
C1531 C 0.85207 0.81636 0.26181 0.0
C1532 C 0.9086 0.79099 0.24795 0.0
C1533 C 0.94763 0.83452 0.25659 0.0
N1534 N 0.9758 0.91136 0.27544 0.0
N1535 N 0.8257 0.74938 0.23501 0.0
C1536 C 0.93855 0.86735 0.26919 0.0
C1537 C 0.86121 0.78429 0.24845 0.0
N1538 N 0.88025 0.87986 0.29053 0.0
N1539 N 0.91679 0.75581 0.2395 0.0
H1540 H 0.79051 0.7429 0.23476 0.0
H1541 H 0.83199 0.72907 0.2227 0.0
H1542 H 0.95097 0.75943 0.23899 0.0
H1543 H 0.8893 0.72148 0.23514 0.0
H1544 H 0.90628 0.90581 0.30145 0.0
H1545 H 0.8451 0.87067 0.29501 0.0
H1546 H 0.97081 0.93874 0.28222 0.0
H1547 H 1.0117 0.92214 0.27193 0.0
C1548 C 0.31536 0.10252 0.24727 0.0
C1549 C 0.28493 0.06331 0.26221 0.0
C1550 C 0.23667 0.10158 0.27079 0.0
C1551 C 0.26816 0.14161 0.25668 0.0
N1552 N 0.34418 0.18573 0.23646 0.0
N1553 N 0.22545 0.03213 0.2931 0.0
C1554 C 0.30976 0.14387 0.24656 0.0
C1555 C 0.24844 0.0651 0.27558 0.0
N1556 N 0.34742 0.09929 0.23257 0.0
N1557 N 0.19429 0.09703 0.27863 0.0
H1558 H 0.23435 1.00586 0.29748 0.0
H1559 H 0.20145 0.03405 0.30483 0.0
H1560 H 0.18402 0.12266 0.27529 0.0
H1561 H 0.16749 0.06593 0.28667 0.0
H1562 H 0.36603 0.12425 0.21929 0.0
H1563 H 0.35285 0.06987 0.23222 0.0
H1564 H 0.37747 0.19104 0.23092 0.0
H1565 H 0.34137 0.21676 0.23571 0.0
C1566 C 0.96312 0.18675 0.26471 0.0
C1567 C 0.96757 0.1529 0.25027 0.0
C1568 C 0.04783 0.21601 0.23818 0.0
C1569 C 0.04635 0.24809 0.25498 0.0
N1570 N 1.00426 0.26157 0.28662 0.0
N1571 N 1.01873 0.13327 0.22725 0.0
C1572 C 1.00434 0.2329 0.26888 0.0
C1573 C 1.01133 0.16696 0.23822 0.0
N1574 N 0.91927 0.17553 0.27377 0.0
N1575 N 0.08278 0.23284 0.22124 0.0
H1576 H 0.99336 0.09666 0.22732 0.0
H1577 H 0.0519 0.14103 0.22025 0.0
H1578 H 0.10838 0.26909 0.21954 0.0
H1579 H 0.08277 0.21192 0.20721 0.0
H1580 H 0.91272 0.20044 0.2823 0.0
H1581 H 0.88837 0.14241 0.27097 0.0
H1582 H 0.97652 0.25031 0.29889 0.0
H1583 H 1.03374 0.29521 0.2903 0.0
C1584 C 0.80696 0.85079 0.7866 0.0
C1585 C 0.83808 0.84252 0.77177 0.0
C1586 C 0.88678 0.93 0.76468 0.0
C1587 C 0.8535 0.9374 0.77783 0.0
N1588 N 0.77678 0.90418 0.79736 0.0
N1589 N 0.90302 0.87472 0.7432 0.0
C1590 C 0.81187 0.8975 0.78744 0.0
C1591 C 0.87649 0.88228 0.75972 0.0
N1592 N 0.77526 0.81545 0.8014 0.0
N1593 N 0.92954 0.96862 0.75783 0.0
H1594 H 0.89836 0.84101 0.73932 0.0
H1595 H 0.92711 0.9015 0.73185 0.0
H1596 H 0.93844 1.00417 0.76094 0.0
H1597 H 0.95792 0.96547 0.75088 0.0
H1598 H 0.75601 0.82145 0.81446 0.0
H1599 H 0.7715 0.78136 0.80254 0.0
H1600 H 0.74332 0.87586 0.80239 0.0
H1601 H 0.77942 0.9379 0.79856 0.0
C1602 C 0.2439 0.98421 0.75345 0.0
C1603 C 0.2632 1.02271 0.76974 0.0
C1604 C 0.18613 0.98671 0.79072 0.0
C1605 C 0.16789 0.94599 0.77583 0.0
N1606 N 0.1817 0.9021 0.74525 0.0
N1607 N 0.25674 0.05362 0.80753 0.0
C1608 C 0.19741 0.9436 0.75776 0.0
C1609 C 0.23547 1.02187 0.78945 0.0
N1610 N 0.26926 0.98708 0.73359 0.0
N1611 N 0.15597 0.99264 0.80563 0.0
H1612 H 0.29331 0.0788 0.8078 0.0
H1613 H 0.2393 0.0515 0.82335 0.0
H1614 H 0.11921 0.96815 0.80674 0.0
H1615 H 0.16647 1.02418 0.81506 0.0
H1616 H 0.255 0.96271 0.71975 0.0
H1617 H 0.30366 1.01584 0.73027 0.0
H1618 H 0.20341 0.89639 0.73357 0.0
H1619 H 0.14796 0.87185 0.74787 0.0
C1620 C 0.12467 0.24284 0.79617 0.0
C1621 C 0.15878 0.25735 0.77761 0.0
C1622 C 0.11229 0.28597 0.75498 0.0
C1623 C 0.07993 0.27394 0.7742 0.0
N1624 N 0.06331 0.25343 0.81537 0.0
N1625 N 0.19014 0.30027 0.7411 0.0
C1626 C 0.08869 0.25625 0.7955 0.0
C1627 C 0.15415 0.28129 0.75751 0.0
N1628 N 0.12514 0.21425 0.81398 0.0
N1629 N 0.10206 0.29986 0.73404 0.0
H1630 H 0.22096 0.29719 0.7424 0.0
H1631 H 0.19131 0.32224 0.72728 0.0
H1632 H 0.07226 0.30429 0.73182 0.0
H1633 H 0.12115 0.3039 0.71855 0.0
H1634 H 0.0978 0.19816 0.82648 0.0
H1635 H 0.15027 0.20268 0.81502 0.0
H1636 H 0.07141 0.24544 0.83197 0.0
H1637 H 1.03753 0.26419 0.81574 0.0
C1638 C 0.53426 0.12934 0.57345 0.0
C1639 C 0.52348 0.15624 0.58986 0.0
C1640 C 0.60916 0.20331 0.60022 0.0
C1641 C 0.61947 0.17483 0.5848 0.0
N1642 N 0.59 0.10292 0.56145 0.0
N1643 N 0.54879 0.20847 0.62368 0.0
C1644 C 0.58137 0.13531 0.57293 0.0
C1645 C 0.56044 0.19008 0.60473 0.0
N1646 N 0.50078 0.10025 0.55735 0.0
N1647 N 0.64583 0.24416 0.60983 0.0
H1648 H 0.51326 0.19744 0.62825 0.0
H1649 H 0.57372 0.23014 0.63631 0.0
H1650 H 0.68199 0.25539 0.60681 0.0
H1651 H 0.64032 0.26907 0.61907 0.0
H1652 H 0.50876 0.08463 0.54326 0.0
H1653 H 0.46601 0.09476 0.55667 0.0
H1654 H 0.56275 0.07069 0.5546 0.0
H1655 H 0.62391 0.10594 0.56079 0.0
C1656 C 0.94159 0.40963 0.56985 0.0
C1657 C 0.94875 0.39691 0.59287 0.0
C1658 C 0.91502 0.44484 0.60907 0.0
C1659 C 0.91665 0.46465 0.58634 0.0
N1660 N 0.89573 0.43538 0.54665 0.0
N1661 N 0.94401 0.40418 0.63479 0.0
C1662 C 0.92024 0.43881 0.5669 0.0
C1663 C 0.9367 0.41572 0.61261 0.0
N1664 N 0.95392 0.39279 0.55056 0.0
N1665 N 0.88341 0.44359 0.62549 0.0
H1666 H 0.95888 0.38216 0.63784 0.0
H1667 H 0.93924 0.41995 0.64983 0.0
H1668 H 0.85573 0.45013 0.62077 0.0
H1669 H 0.87812 0.42674 0.64182 0.0
H1670 H 0.95502 0.40589 0.53359 0.0
H1671 H 0.96604 0.36823 0.55169 0.0
H1672 H 0.89297 0.41325 0.53261 0.0
H1673 H 0.87252 0.44933 0.54538 0.0
C1674 C 0.63273 0.51754 0.60085 0.0
C1675 C 0.63385 0.48746 0.58275 0.0
C1676 C 0.71011 0.55422 0.56837 0.0
C1677 C 0.71207 0.58234 0.58808 0.0
N1678 N 0.67791 0.58924 0.62465 0.0
N1679 N 0.67806 0.47454 0.55195 0.0
C1680 C 0.674 0.56368 0.60475 0.0
C1681 C 0.67384 0.5051 0.56727 0.0
N1682 N 0.59172 0.50275 0.61375 0.0
N1683 N 0.74179 0.57499 0.55013 0.0
H1684 H 0.65271 0.43802 0.55086 0.0
H1685 H 0.70892 0.48433 0.54201 0.0
H1686 H 0.76804 0.61127 0.54986 0.0
H1687 H 0.7388 0.55762 0.53421 0.0
H1688 H 0.58688 0.52496 0.62546 0.0
H1689 H 0.56086 0.46941 0.61136 0.0
H1690 H 0.6539 0.57536 0.63872 0.0
H1691 H 0.70728 0.62324 0.62788 0.0
loop_
_geom_bond_atom_site_label_1
_geom_bond_atom_site_label_2
_geom_bond_distance
_geom_bond_site_symmetry_2
_ccdc_geom_bond_type
Sm0 C2 2.846 . S
Sm0 O20 2.543 . S
Sm0 O21 2.450 . S
Sm0 O22 2.681 1_545 S
Sm0 O23 2.464 . S
Sm0 O24 2.396 . S
Sm0 O28 2.386 . S
Sm0 O31 2.408 1_545 S
Sm1 C11 2.846 . S
Sm1 O22 2.386 . S
Sm1 O25 2.408 1_565 S
Sm1 O26 2.543 . S
Sm1 O27 2.450 . S
Sm1 O28 2.681 1_565 S
Sm1 O29 2.464 . S
Sm1 O30 2.396 . S
C2 Sm0 2.846 . S
C2 C3 1.506 . S
C2 O20 1.261 . S
C2 O21 1.242 . S
C3 C2 1.506 . S
C3 C4 1.358 . S
C3 C8 1.382 . S
C4 C3 1.358 . S
C4 C5 1.385 . S
C4 H32 0.930 . S
C5 C4 1.385 . S
C5 C6 1.395 . S
C5 H33 0.929 . S
C6 C5 1.395 . S
C6 C7 1.335 . S
C7 C6 1.335 . S
C7 C8 1.398 . S
C7 H34 0.930 . S
C8 C3 1.382 . S
C8 C7 1.398 . S
C8 H35 0.929 . S
C9 O22 1.271 1_545 S
C9 O23 1.251 . S
C10 O24 1.252 . S
C10 O25 1.272 . S
C11 Sm1 2.846 . S
C11 C12 1.506 . S
C11 O26 1.261 . S
C11 O27 1.242 . S
C12 C11 1.506 . S
C12 C13 1.358 . S
C12 C17 1.382 . S
C13 C12 1.358 . S
C13 C14 1.385 . S
C13 H36 0.930 . S
C14 C13 1.385 . S
C14 C15 1.395 . S
C14 H37 0.929 . S
C15 C14 1.395 . S
C15 C16 1.335 . S
C16 C15 1.335 . S
C16 C17 1.398 . S
C16 H38 0.930 . S
C17 C12 1.382 . S
C17 C16 1.398 . S
C17 H39 0.929 . S
C18 O28 1.271 . S
C18 O29 1.251 1_545 S
C19 O30 1.252 . S
C19 O31 1.272 . S
O20 Sm0 2.543 . S
O20 C2 1.261 . S
O21 Sm0 2.450 . S
O21 C2 1.242 . S
O22 Sm0 2.681 1_565 S
O22 Sm1 2.386 . S
O22 C9 1.271 1_565 S
O23 Sm0 2.464 . S
O23 C9 1.251 . S
O24 Sm0 2.396 . S
O24 C10 1.252 . S
O25 Sm1 2.408 1_545 S
O25 C10 1.272 . S
O26 Sm1 2.543 . S
O26 C11 1.261 . S
O27 Sm1 2.450 . S
O27 C11 1.242 . S
O28 Sm0 2.386 . S
O28 Sm1 2.681 1_545 S
O28 C18 1.271 . S
O29 Sm1 2.464 . S
O29 C18 1.251 1_565 S
O30 Sm1 2.396 . S
O30 C19 1.252 . S
O31 Sm0 2.408 1_565 S
O31 C19 1.272 . S
H32 C4 0.930 . S
H33 C5 0.929 . S
H34 C7 0.930 . S
H35 C8 0.929 . S
H36 C13 0.930 . S
H37 C14 0.929 . S
H38 C16 0.930 . S
H39 C17 0.929 . S
Sm40 C42 2.846 . S
Sm40 O60 2.543 . S
Sm40 O61 2.450 . S
Sm40 O62 2.681 1_655 S
Sm40 O63 2.464 1_655 S
Sm40 O64 2.396 . S
Sm40 O68 2.386 1_655 S
Sm40 O71 2.408 1_655 S
Sm41 C51 2.846 . S
Sm41 O62 2.386 . S
Sm41 O65 2.408 1_455 S
Sm41 O66 2.543 . S
Sm41 O67 2.450 . S
Sm41 O68 2.681 . S
Sm41 O69 2.464 . S
Sm41 O70 2.396 . S
C42 Sm40 2.846 . S
C42 C43 1.506 . S
C42 O60 1.261 . S
C42 O61 1.242 . S
C43 C42 1.506 . S
C43 C44 1.358 . S
C43 C48 1.382 . S
C44 C43 1.358 . S
C44 C45 1.385 . S
C44 H72 0.930 . S
C45 C44 1.385 . S
C45 C46 1.395 . S
C45 H73 0.929 . S
C46 C45 1.395 . S
C46 C47 1.335 . S
C47 C46 1.335 . S
C47 C48 1.398 . S
C47 H74 0.930 . S
C48 C43 1.382 . S
C48 C47 1.398 . S
C48 H75 0.929 . S
C49 O62 1.271 . S
C49 O63 1.251 . S
C50 O64 1.252 . S
C50 O65 1.272 . S
C51 Sm41 2.846 . S
C51 C52 1.506 . S
C51 O66 1.261 . S
C51 O67 1.242 . S
C52 C51 1.506 . S
C52 C53 1.358 . S
C52 C57 1.382 . S
C53 C52 1.358 . S
C53 C54 1.385 . S
C53 H76 0.930 . S
C54 C53 1.385 . S
C54 C55 1.395 . S
C54 H77 0.929 . S
C55 C54 1.395 . S
C55 C56 1.335 . S
C56 C55 1.335 . S
C56 C57 1.398 . S
C56 H78 0.930 . S
C57 C52 1.382 . S
C57 C56 1.398 . S
C57 H79 0.929 . S
C58 O68 1.271 . S
C58 O69 1.251 . S
C59 O70 1.252 . S
C59 O71 1.272 . S
O60 Sm40 2.543 . S
O60 C42 1.261 . S
O61 Sm40 2.450 . S
O61 C42 1.242 . S
O62 Sm40 2.681 1_455 S
O62 Sm41 2.386 . S
O62 C49 1.271 . S
O63 Sm40 2.464 1_455 S
O63 C49 1.251 . S
O64 Sm40 2.396 . S
O64 C50 1.252 . S
O65 Sm41 2.408 1_655 S
O65 C50 1.272 . S
O66 Sm41 2.543 . S
O66 C51 1.261 . S
O67 Sm41 2.450 . S
O67 C51 1.242 . S
O68 Sm40 2.386 1_455 S
O68 Sm41 2.681 . S
O68 C58 1.271 . S
O69 Sm41 2.464 . S
O69 C58 1.251 . S
O70 Sm41 2.396 . S
O70 C59 1.252 . S
O71 Sm40 2.408 1_455 S
O71 C59 1.272 . S
H72 C44 0.930 . S
H73 C45 0.929 . S
H74 C47 0.930 . S
H75 C48 0.929 . S
H76 C53 0.930 . S
H77 C54 0.929 . S
H78 C56 0.930 . S
H79 C57 0.929 . S
Sm80 C82 2.846 . S
Sm80 O100 2.543 . S
Sm80 O101 2.450 . S
Sm80 O102 2.681 . S
Sm80 O103 2.464 . S
Sm80 O104 2.396 . S
Sm80 O108 2.386 . S
Sm80 O111 2.408 . S
Sm81 C91 2.846 . S
Sm81 O102 2.386 . S
Sm81 O105 2.408 . S
Sm81 O106 2.543 . S
Sm81 O107 2.450 . S
Sm81 O108 2.681 . S
Sm81 O109 2.464 . S
Sm81 O110 2.396 . S
C82 Sm80 2.846 . S
C82 C83 1.506 . S
C82 O100 1.261 . S
C82 O101 1.242 . S
C83 C82 1.506 . S
C83 C84 1.358 . S
C83 C88 1.382 . S
C84 C83 1.358 . S
C84 C85 1.385 . S
C84 H112 0.930 . S
C85 C84 1.385 . S
C85 C86 1.395 . S
C85 H113 0.929 . S
C86 C85 1.395 . S
C86 C87 1.335 . S
C87 C86 1.335 . S
C87 C88 1.398 . S
C87 H114 0.930 . S
C88 C83 1.382 . S
C88 C87 1.398 . S
C88 H115 0.929 . S
C89 O102 1.271 . S
C89 O103 1.251 . S
C90 O104 1.252 . S
C90 O105 1.272 . S
C91 Sm81 2.846 . S
C91 C92 1.506 . S
C91 O106 1.261 . S
C91 O107 1.242 . S
C92 C91 1.506 . S
C92 C93 1.358 . S
C92 C97 1.382 . S
C93 C92 1.358 . S
C93 C94 1.385 . S
C93 H116 0.930 . S
C94 C93 1.385 . S
C94 C95 1.395 . S
C94 H117 0.929 . S
C95 C94 1.395 . S
C95 C96 1.335 . S
C96 C95 1.335 . S
C96 C97 1.398 . S
C96 H118 0.930 . S
C97 C92 1.382 . S
C97 C96 1.398 . S
C97 H119 0.929 . S
C98 O108 1.271 . S
C98 O109 1.251 . S
C99 O110 1.252 . S
C99 O111 1.272 . S
O100 Sm80 2.543 . S
O100 C82 1.261 . S
O101 Sm80 2.450 . S
O101 C82 1.242 . S
O102 Sm80 2.681 . S
O102 Sm81 2.386 . S
O102 C89 1.271 . S
O103 Sm80 2.464 . S
O103 C89 1.251 . S
O104 Sm80 2.396 . S
O104 C90 1.252 . S
O105 Sm81 2.408 . S
O105 C90 1.272 . S
O106 Sm81 2.543 . S
O106 C91 1.261 . S
O107 Sm81 2.450 . S
O107 C91 1.242 . S
O108 Sm80 2.386 . S
O108 Sm81 2.681 . S
O108 C98 1.271 . S
O109 Sm81 2.464 . S
O109 C98 1.251 . S
O110 Sm81 2.396 . S
O110 C99 1.252 . S
O111 Sm80 2.408 . S
O111 C99 1.272 . S
H112 C84 0.930 . S
H113 C85 0.929 . S
H114 C87 0.930 . S
H115 C88 0.929 . S
H116 C93 0.930 . S
H117 C94 0.929 . S
H118 C96 0.930 . S
H119 C97 0.929 . S
Sm120 C122 2.846 . S
Sm120 O140 2.543 . S
Sm120 O141 2.450 . S
Sm120 O142 2.681 1_455 S
Sm120 O143 2.464 . S
Sm120 O144 2.396 . S
Sm120 O148 2.386 . S
Sm120 O151 2.408 1_455 S
Sm121 C131 2.846 . S
Sm121 O142 2.386 . S
Sm121 O145 2.408 1_655 S
Sm121 O146 2.543 . S
Sm121 O147 2.450 . S
Sm121 O148 2.681 1_655 S
Sm121 O149 2.464 . S
Sm121 O150 2.396 . S
C122 Sm120 2.846 . S
C122 C123 1.506 . S
C122 O140 1.261 . S
C122 O141 1.242 . S
C123 C122 1.506 . S
C123 C124 1.358 . S
C123 C128 1.382 . S
C124 C123 1.358 . S
C124 C125 1.385 . S
C124 H152 0.930 . S
C125 C124 1.385 . S
C125 C126 1.395 . S
C125 H153 0.929 . S
C126 C125 1.395 . S
C126 C127 1.335 . S
C127 C126 1.335 . S
C127 C128 1.398 . S
C127 H154 0.930 . S
C128 C123 1.382 . S
C128 C127 1.398 . S
C128 H155 0.929 . S
C129 O142 1.271 1_455 S
C129 O143 1.251 . S
C130 O144 1.252 . S
C130 O145 1.272 . S
C131 Sm121 2.846 . S
C131 C132 1.506 . S
C131 O146 1.261 . S
C131 O147 1.242 . S
C132 C131 1.506 . S
C132 C133 1.358 . S
C132 C137 1.382 . S
C133 C132 1.358 . S
C133 C134 1.385 . S
C133 H156 0.930 . S
C134 C133 1.385 . S
C134 C135 1.395 . S
C134 H157 0.929 . S
C135 C134 1.395 . S
C135 C136 1.335 . S
C136 C135 1.335 . S
C136 C137 1.398 . S
C136 H158 0.930 . S
C137 C132 1.382 . S
C137 C136 1.398 . S
C137 H159 0.929 . S
C138 O148 1.271 . S
C138 O149 1.251 1_455 S
C139 O150 1.252 . S
C139 O151 1.272 . S
O140 Sm120 2.543 . S
O140 C122 1.261 . S
O141 Sm120 2.450 . S
O141 C122 1.242 . S
O142 Sm120 2.681 1_655 S
O142 Sm121 2.386 . S
O142 C129 1.271 1_655 S
O143 Sm120 2.464 . S
O143 C129 1.251 . S
O144 Sm120 2.396 . S
O144 C130 1.252 . S
O145 Sm121 2.408 1_455 S
O145 C130 1.272 . S
O146 Sm121 2.543 . S
O146 C131 1.261 . S
O147 Sm121 2.450 . S
O147 C131 1.242 . S
O148 Sm120 2.386 . S
O148 Sm121 2.681 1_455 S
O148 C138 1.271 . S
O149 Sm121 2.464 . S
O149 C138 1.251 1_655 S
O150 Sm121 2.396 . S
O150 C139 1.252 . S
O151 Sm120 2.408 1_655 S
O151 C139 1.272 . S
H152 C124 0.930 . S
H153 C125 0.929 . S
H154 C127 0.930 . S
H155 C128 0.929 . S
H156 C133 0.930 . S
H157 C134 0.929 . S
H158 C136 0.930 . S
H159 C137 0.929 . S
Sm160 C162 2.846 . S
Sm160 O180 2.543 . S
Sm160 O181 2.450 . S
Sm160 O182 2.681 . S
Sm160 O183 2.464 . S
Sm160 O184 2.396 . S
Sm160 O188 2.386 . S
Sm160 O191 2.408 . S
Sm161 C171 2.846 . S
Sm161 O182 2.386 . S
Sm161 O185 2.408 . S
Sm161 O186 2.543 . S
Sm161 O187 2.450 . S
Sm161 O188 2.681 . S
Sm161 O189 2.464 . S
Sm161 O190 2.396 . S
C162 Sm160 2.846 . S
C162 C163 1.506 . S
C162 O180 1.261 . S
C162 O181 1.242 . S
C163 C162 1.506 . S
C163 C164 1.358 . S
C163 C168 1.382 . S
C164 C163 1.358 . S
C164 C165 1.385 . S
C164 H192 0.930 . S
C165 C164 1.385 . S
C165 C166 1.395 . S
C165 H193 0.929 . S
C166 C165 1.395 . S
C166 C167 1.335 . S
C167 C166 1.335 . S
C167 C168 1.398 . S
C167 H194 0.930 . S
C168 C163 1.382 . S
C168 C167 1.398 . S
C168 H195 0.929 . S
C169 O182 1.271 . S
C169 O183 1.251 . S
C170 O184 1.252 . S
C170 O185 1.272 . S
C171 Sm161 2.846 . S
C171 C172 1.506 . S
C171 O186 1.261 . S
C171 O187 1.242 . S
C172 C171 1.506 . S
C172 C173 1.358 . S
C172 C177 1.382 . S
C173 C172 1.358 . S
C173 C174 1.385 . S
C173 H196 0.930 . S
C174 C173 1.385 . S
C174 C175 1.395 . S
C174 H197 0.929 . S
C175 C174 1.395 . S
C175 C176 1.335 . S
C176 C175 1.335 . S
C176 C177 1.398 . S
C176 H198 0.930 . S
C177 C172 1.382 . S
C177 C176 1.398 . S
C177 H199 0.929 . S
C178 O188 1.271 . S
C178 O189 1.251 . S
C179 O190 1.252 . S
C179 O191 1.272 . S
O180 Sm160 2.543 . S
O180 C162 1.261 . S
O181 Sm160 2.450 . S
O181 C162 1.242 . S
O182 Sm160 2.681 . S
O182 Sm161 2.386 . S
O182 C169 1.271 . S
O183 Sm160 2.464 . S
O183 C169 1.251 . S
O184 Sm160 2.396 . S
O184 C170 1.252 . S
O185 Sm161 2.408 . S
O185 C170 1.272 . S
O186 Sm161 2.543 . S
O186 C171 1.261 . S
O187 Sm161 2.450 . S
O187 C171 1.242 . S
O188 Sm160 2.386 . S
O188 Sm161 2.681 . S
O188 C178 1.271 . S
O189 Sm161 2.464 . S
O189 C178 1.251 . S
O190 Sm161 2.396 . S
O190 C179 1.252 . S
O191 Sm160 2.408 . S
O191 C179 1.272 . S
H192 C164 0.930 . S
H193 C165 0.929 . S
H194 C167 0.930 . S
H195 C168 0.929 . S
H196 C173 0.930 . S
H197 C174 0.929 . S
H198 C176 0.930 . S
H199 C177 0.929 . S
Sm200 C202 2.846 . S
Sm200 O220 2.543 . S
Sm200 O221 2.450 . S
Sm200 O222 2.681 1_565 S
Sm200 O223 2.464 1_565 S
Sm200 O224 2.396 . S
Sm200 O228 2.386 1_565 S
Sm200 O231 2.408 1_565 S
Sm201 C211 2.846 . S
Sm201 O222 2.386 . S
Sm201 O225 2.408 1_545 S
Sm201 O226 2.543 . S
Sm201 O227 2.450 . S
Sm201 O228 2.681 . S
Sm201 O229 2.464 . S
Sm201 O230 2.396 . S
C202 Sm200 2.846 . S
C202 C203 1.506 . S
C202 O220 1.261 . S
C202 O221 1.242 . S
C203 C202 1.506 . S
C203 C204 1.358 . S
C203 C208 1.382 . S
C204 C203 1.358 . S
C204 C205 1.385 . S
C204 H232 0.930 . S
C205 C204 1.385 . S
C205 C206 1.395 . S
C205 H233 0.929 . S
C206 C205 1.395 . S
C206 C207 1.335 . S
C207 C206 1.335 . S
C207 C208 1.398 . S
C207 H234 0.930 . S
C208 C203 1.382 . S
C208 C207 1.398 . S
C208 H235 0.929 . S
C209 O222 1.271 . S
C209 O223 1.251 . S
C210 O224 1.252 . S
C210 O225 1.272 . S
C211 Sm201 2.846 . S
C211 C212 1.506 . S
C211 O226 1.261 . S
C211 O227 1.242 . S
C212 C211 1.506 . S
C212 C213 1.358 . S
C212 C217 1.382 . S
C213 C212 1.358 . S
C213 C214 1.385 . S
C213 H236 0.930 . S
C214 C213 1.385 . S
C214 C215 1.395 . S
C214 H237 0.929 . S
C215 C214 1.395 . S
C215 C216 1.335 . S
C216 C215 1.335 . S
C216 C217 1.398 . S
C216 H238 0.930 . S
C217 C212 1.382 . S
C217 C216 1.398 . S
C217 H239 0.929 . S
C218 O228 1.271 . S
C218 O229 1.251 . S
C219 O230 1.252 . S
C219 O231 1.272 . S
O220 Sm200 2.543 . S
O220 C202 1.261 . S
O221 Sm200 2.450 . S
O221 C202 1.242 . S
O222 Sm200 2.681 1_545 S
O222 Sm201 2.386 . S
O222 C209 1.271 . S
O223 Sm200 2.464 1_545 S
O223 C209 1.251 . S
O224 Sm200 2.396 . S
O224 C210 1.252 . S
O225 Sm201 2.408 1_565 S
O225 C210 1.272 . S
O226 Sm201 2.543 . S
O226 C211 1.261 . S
O227 Sm201 2.450 . S
O227 C211 1.242 . S
O228 Sm200 2.386 1_545 S
O228 Sm201 2.681 . S
O228 C218 1.271 . S
O229 Sm201 2.464 . S
O229 C218 1.251 . S
O230 Sm201 2.396 . S
O230 C219 1.252 . S
O231 Sm200 2.408 1_545 S
O231 C219 1.272 . S
H232 C204 0.930 . S
H233 C205 0.929 . S
H234 C207 0.930 . S
H235 C208 0.929 . S
H236 C213 0.930 . S
H237 C214 0.929 . S
H238 C216 0.930 . S
H239 C217 0.929 . S
Sm240 C242 2.846 . S
Sm240 O260 2.543 . S
Sm240 O261 2.450 . S
Sm240 O262 2.681 . S
Sm240 O263 2.464 . S
Sm240 O264 2.396 . S
Sm240 O268 2.386 . S
Sm240 O271 2.408 . S
Sm241 C251 2.846 . S
Sm241 O262 2.386 . S
Sm241 O265 2.408 . S
Sm241 O266 2.543 . S
Sm241 O267 2.450 . S
Sm241 O268 2.681 . S
Sm241 O269 2.464 . S
Sm241 O270 2.396 . S
C242 Sm240 2.846 . S
C242 C243 1.506 . S
C242 O260 1.261 . S
C242 O261 1.242 . S
C243 C242 1.506 . S
C243 C244 1.358 . S
C243 C248 1.382 . S
C244 C243 1.358 . S
C244 C245 1.385 . S
C244 H272 0.930 . S
C245 C244 1.385 . S
C245 C246 1.395 . S
C245 H273 0.929 . S
C246 C245 1.395 . S
C246 C247 1.335 . S
C247 C246 1.335 . S
C247 C248 1.398 . S
C247 H274 0.930 . S
C248 C243 1.382 . S
C248 C247 1.398 . S
C248 H275 0.929 . S
C249 O262 1.271 . S
C249 O263 1.251 . S
C250 O264 1.252 . S
C250 O265 1.272 . S
C251 Sm241 2.846 . S
C251 C252 1.506 1_455 S
C251 O266 1.261 . S
C251 O267 1.242 . S
C252 C251 1.506 1_655 S
C252 C253 1.358 . S
C252 C257 1.382 . S
C253 C252 1.358 . S
C253 C254 1.385 . S
C253 H276 0.930 . S
C254 C253 1.385 . S
C254 C255 1.395 . S
C254 H277 0.929 . S
C255 C254 1.395 . S
C255 C256 1.335 . S
C256 C255 1.335 . S
C256 C257 1.398 . S
C256 H278 0.930 . S
C257 C252 1.382 . S
C257 C256 1.398 . S
C257 H279 0.929 . S
C258 O268 1.271 . S
C258 O269 1.251 . S
C259 O270 1.252 . S
C259 O271 1.272 . S
O260 Sm240 2.543 . S
O260 C242 1.261 . S
O261 Sm240 2.450 . S
O261 C242 1.242 . S
O262 Sm240 2.681 . S
O262 Sm241 2.386 . S
O262 C249 1.271 . S
O263 Sm240 2.464 . S
O263 C249 1.251 . S
O264 Sm240 2.396 . S
O264 C250 1.252 . S
O265 Sm241 2.408 . S
O265 C250 1.272 . S
O266 Sm241 2.543 . S
O266 C251 1.261 . S
O267 Sm241 2.450 . S
O267 C251 1.242 . S
O268 Sm240 2.386 . S
O268 Sm241 2.681 . S
O268 C258 1.271 . S
O269 Sm241 2.464 . S
O269 C258 1.251 . S
O270 Sm241 2.396 . S
O270 C259 1.252 . S
O271 Sm240 2.408 . S
O271 C259 1.272 . S
H272 C244 0.930 . S
H273 C245 0.929 . S
H274 C247 0.930 . S
H275 C248 0.929 . S
H276 C253 0.930 . S
H277 C254 0.929 . S
H278 C256 0.930 . S
H279 C257 0.929 . S
Sm280 C282 2.846 . S
Sm280 O300 2.543 . S
Sm280 O301 2.450 . S
Sm280 O302 2.681 . S
Sm280 O303 2.464 . S
Sm280 O304 2.396 . S
Sm280 O308 2.386 . S
Sm280 O311 2.408 . S
Sm281 C291 2.846 . S
Sm281 O302 2.386 . S
Sm281 O305 2.408 . S
Sm281 O306 2.543 . S
Sm281 O307 2.450 . S
Sm281 O308 2.681 . S
Sm281 O309 2.464 . S
Sm281 O310 2.396 . S
C282 Sm280 2.846 . S
C282 C283 1.506 . S
C282 O300 1.261 . S
C282 O301 1.242 . S
C283 C282 1.506 . S
C283 C284 1.358 . S
C283 C288 1.382 . S
C284 C283 1.358 . S
C284 C285 1.385 . S
C284 H312 0.930 . S
C285 C284 1.385 . S
C285 C286 1.395 . S
C285 H313 0.929 . S
C286 C285 1.395 . S
C286 C287 1.335 . S
C287 C286 1.335 . S
C287 C288 1.398 . S
C287 H314 0.930 . S
C288 C283 1.382 . S
C288 C287 1.398 . S
C288 H315 0.929 . S
C289 O302 1.271 . S
C289 O303 1.251 . S
C290 O304 1.252 . S
C290 O305 1.272 . S
C291 Sm281 2.846 . S
C291 C292 1.506 . S
C291 O306 1.261 . S
C291 O307 1.242 . S
C292 C291 1.506 . S
C292 C293 1.358 . S
C292 C297 1.382 . S
C293 C292 1.358 . S
C293 C294 1.385 . S
C293 H316 0.930 . S
C294 C293 1.385 . S
C294 C295 1.395 . S
C294 H317 0.929 . S
C295 C294 1.395 . S
C295 C296 1.335 . S
C296 C295 1.335 . S
C296 C297 1.398 . S
C296 H318 0.930 . S
C297 C292 1.382 . S
C297 C296 1.398 . S
C297 H319 0.929 . S
C298 O308 1.271 . S
C298 O309 1.251 . S
C299 O310 1.252 . S
C299 O311 1.272 . S
O300 Sm280 2.543 . S
O300 C282 1.261 . S
O301 Sm280 2.450 . S
O301 C282 1.242 . S
O302 Sm280 2.681 . S
O302 Sm281 2.386 . S
O302 C289 1.271 . S
O303 Sm280 2.464 . S
O303 C289 1.251 . S
O304 Sm280 2.396 . S
O304 C290 1.252 . S
O305 Sm281 2.408 . S
O305 C290 1.272 . S
O306 Sm281 2.543 . S
O306 C291 1.261 . S
O307 Sm281 2.450 . S
O307 C291 1.242 . S
O308 Sm280 2.386 . S
O308 Sm281 2.681 . S
O308 C298 1.271 . S
O309 Sm281 2.464 . S
O309 C298 1.251 . S
O310 Sm281 2.396 . S
O310 C299 1.252 . S
O311 Sm280 2.408 . S
O311 C299 1.272 . S
H312 C284 0.930 . S
H313 C285 0.929 . S
H314 C287 0.930 . S
H315 C288 0.929 . S
H316 C293 0.930 . S
H317 C294 0.929 . S
H318 C296 0.930 . S
H319 C297 0.929 . S
Sm320 C322 2.846 . S
Sm320 O340 2.543 . S
Sm320 O341 2.450 . S
Sm320 O342 2.681 . S
Sm320 O343 2.464 . S
Sm320 O344 2.396 . S
Sm320 O348 2.386 . S
Sm320 O351 2.408 . S
Sm321 C331 2.846 1_565 S
Sm321 O342 2.386 . S
Sm321 O345 2.408 . S
Sm321 O346 2.543 1_565 S
Sm321 O347 2.450 1_565 S
Sm321 O348 2.681 . S
Sm321 O349 2.464 . S
Sm321 O350 2.396 . S
C322 Sm320 2.846 . S
C322 C323 1.506 . S
C322 O340 1.261 . S
C322 O341 1.242 . S
C323 C322 1.506 . S
C323 C324 1.358 . S
C323 C328 1.382 . S
C324 C323 1.358 . S
C324 C325 1.385 . S
C324 H352 0.930 . S
C325 C324 1.385 . S
C325 C326 1.395 . S
C325 H353 0.929 . S
C326 C325 1.395 . S
C326 C327 1.335 . S
C327 C326 1.335 . S
C327 C328 1.398 . S
C327 H354 0.930 . S
C328 C323 1.382 . S
C328 C327 1.398 . S
C328 H355 0.929 . S
C329 O342 1.271 . S
C329 O343 1.251 . S
C330 O344 1.252 . S
C330 O345 1.272 . S
C331 Sm321 2.846 1_545 S
C331 C332 1.506 . S
C331 O346 1.261 . S
C331 O347 1.242 . S
C332 C331 1.506 . S
C332 C333 1.358 . S
C332 C337 1.382 . S
C333 C332 1.358 . S
C333 C334 1.385 . S
C333 H356 0.930 . S
C334 C333 1.385 . S
C334 C335 1.395 . S
C334 H357 0.929 . S
C335 C334 1.395 . S
C335 C336 1.335 . S
C336 C335 1.335 . S
C336 C337 1.398 . S
C336 H358 0.930 . S
C337 C332 1.382 . S
C337 C336 1.398 . S
C337 H359 0.929 . S
C338 O348 1.271 . S
C338 O349 1.251 . S
C339 O350 1.252 . S
C339 O351 1.272 . S
O340 Sm320 2.543 . S
O340 C322 1.261 . S
O341 Sm320 2.450 . S
O341 C322 1.242 . S
O342 Sm320 2.681 . S
O342 Sm321 2.386 . S
O342 C329 1.271 . S
O343 Sm320 2.464 . S
O343 C329 1.251 . S
O344 Sm320 2.396 . S
O344 C330 1.252 . S
O345 Sm321 2.408 . S
O345 C330 1.272 . S
O346 Sm321 2.543 1_545 S
O346 C331 1.261 . S
O347 Sm321 2.450 1_545 S
O347 C331 1.242 . S
O348 Sm320 2.386 . S
O348 Sm321 2.681 . S
O348 C338 1.271 . S
O349 Sm321 2.464 . S
O349 C338 1.251 . S
O350 Sm321 2.396 . S
O350 C339 1.252 . S
O351 Sm320 2.408 . S
O351 C339 1.272 . S
H352 C324 0.930 . S
H353 C325 0.929 . S
H354 C327 0.930 . S
H355 C328 0.929 . S
H356 C333 0.930 . S
H357 C334 0.929 . S
H358 C336 0.930 . S
H359 C337 0.929 . S
Sm360 C362 2.846 . S
Sm360 O380 2.543 . S
Sm360 O381 2.450 . S
Sm360 O382 2.681 . S
Sm360 O383 2.464 . S
Sm360 O384 2.396 . S
Sm360 O388 2.386 . S
Sm360 O391 2.408 . S
Sm361 C371 2.846 . S
Sm361 O382 2.386 . S
Sm361 O385 2.408 . S
Sm361 O386 2.543 . S
Sm361 O387 2.450 . S
Sm361 O388 2.681 . S
Sm361 O389 2.464 . S
Sm361 O390 2.396 . S
C362 Sm360 2.846 . S
C362 C363 1.506 . S
C362 O380 1.261 . S
C362 O381 1.242 . S
C363 C362 1.506 . S
C363 C364 1.358 1_565 S
C363 C368 1.382 1_565 S
C364 C363 1.358 1_545 S
C364 C365 1.385 . S
C364 H392 0.930 1_545 S
C365 C364 1.385 . S
C365 C366 1.395 . S
C365 H393 0.929 . S
C366 C365 1.395 . S
C366 C367 1.335 . S
C367 C366 1.335 . S
C367 C368 1.398 . S
C367 H394 0.930 . S
C368 C363 1.382 1_545 S
C368 C367 1.398 . S
C368 H395 0.929 . S
C369 O382 1.271 . S
C369 O383 1.251 . S
C370 O384 1.252 . S
C370 O385 1.272 . S
C371 Sm361 2.846 . S
C371 C372 1.506 . S
C371 O386 1.261 . S
C371 O387 1.242 . S
C372 C371 1.506 . S
C372 C373 1.358 . S
C372 C377 1.382 . S
C373 C372 1.358 . S
C373 C374 1.385 . S
C373 H396 0.930 . S
C374 C373 1.385 . S
C374 C375 1.395 . S
C374 H397 0.929 . S
C375 C374 1.395 . S
C375 C376 1.335 . S
C376 C375 1.335 . S
C376 C377 1.398 . S
C376 H398 0.930 . S
C377 C372 1.382 . S
C377 C376 1.398 . S
C377 H399 0.929 . S
C378 O388 1.271 . S
C378 O389 1.251 . S
C379 O390 1.252 . S
C379 O391 1.272 . S
O380 Sm360 2.543 . S
O380 C362 1.261 . S
O381 Sm360 2.450 . S
O381 C362 1.242 . S
O382 Sm360 2.681 . S
O382 Sm361 2.386 . S
O382 C369 1.271 . S
O383 Sm360 2.464 . S
O383 C369 1.251 . S
O384 Sm360 2.396 . S
O384 C370 1.252 . S
O385 Sm361 2.408 . S
O385 C370 1.272 . S
O386 Sm361 2.543 . S
O386 C371 1.261 . S
O387 Sm361 2.450 . S
O387 C371 1.242 . S
O388 Sm360 2.386 . S
O388 Sm361 2.681 . S
O388 C378 1.271 . S
O389 Sm361 2.464 . S
O389 C378 1.251 . S
O390 Sm361 2.396 . S
O390 C379 1.252 . S
O391 Sm360 2.408 . S
O391 C379 1.272 . S
H392 C364 0.930 1_565 S
H393 C365 0.929 . S
H394 C367 0.930 . S
H395 C368 0.929 . S
H396 C373 0.930 . S
H397 C374 0.929 . S
H398 C376 0.930 . S
H399 C377 0.929 . S
Sm400 C402 2.846 . S
Sm400 O420 2.543 . S
Sm400 O421 2.450 . S
Sm400 O422 2.681 . S
Sm400 O423 2.464 . S
Sm400 O424 2.396 . S
Sm400 O428 2.386 . S
Sm400 O431 2.408 . S
Sm401 C411 2.846 . S
Sm401 O422 2.386 . S
Sm401 O425 2.408 . S
Sm401 O426 2.543 . S
Sm401 O427 2.450 . S
Sm401 O428 2.681 . S
Sm401 O429 2.464 . S
Sm401 O430 2.396 . S
C402 Sm400 2.846 . S
C402 C403 1.506 . S
C402 O420 1.261 . S
C402 O421 1.242 . S
C403 C402 1.506 . S
C403 C404 1.358 . S
C403 C408 1.382 . S
C404 C403 1.358 . S
C404 C405 1.385 1_455 S
C404 H432 0.930 . S
C405 C404 1.385 1_655 S
C405 C406 1.395 . S
C405 H433 0.929 . S
C406 C405 1.395 . S
C406 C407 1.335 . S
C407 C406 1.335 . S
C407 C408 1.398 1_655 S
C407 H434 0.930 . S
C408 C403 1.382 . S
C408 C407 1.398 1_455 S
C408 H435 0.929 . S
C409 O422 1.271 . S
C409 O423 1.251 . S
C410 O424 1.252 . S
C410 O425 1.272 . S
C411 Sm401 2.846 . S
C411 C412 1.506 . S
C411 O426 1.261 . S
C411 O427 1.242 . S
C412 C411 1.506 . S
C412 C413 1.358 . S
C412 C417 1.382 . S
C413 C412 1.358 . S
C413 C414 1.385 . S
C413 H436 0.930 . S
C414 C413 1.385 . S
C414 C415 1.395 . S
C414 H437 0.929 . S
C415 C414 1.395 . S
C415 C416 1.335 . S
C416 C415 1.335 . S
C416 C417 1.398 . S
C416 H438 0.930 . S
C417 C412 1.382 . S
C417 C416 1.398 . S
C417 H439 0.929 . S
C418 O428 1.271 . S
C418 O429 1.251 . S
C419 O430 1.252 . S
C419 O431 1.272 . S
O420 Sm400 2.543 . S
O420 C402 1.261 . S
O421 Sm400 2.450 . S
O421 C402 1.242 . S
O422 Sm400 2.681 . S
O422 Sm401 2.386 . S
O422 C409 1.271 . S
O423 Sm400 2.464 . S
O423 C409 1.251 . S
O424 Sm400 2.396 . S
O424 C410 1.252 . S
O425 Sm401 2.408 . S
O425 C410 1.272 . S
O426 Sm401 2.543 . S
O426 C411 1.261 . S
O427 Sm401 2.450 . S
O427 C411 1.242 . S
O428 Sm400 2.386 . S
O428 Sm401 2.681 . S
O428 C418 1.271 . S
O429 Sm401 2.464 . S
O429 C418 1.251 . S
O430 Sm401 2.396 . S
O430 C419 1.252 . S
O431 Sm400 2.408 . S
O431 C419 1.272 . S
H432 C404 0.930 . S
H433 C405 0.929 . S
H434 C407 0.930 . S
H435 C408 0.929 . S
H436 C413 0.930 . S
H437 C414 0.929 . S
H438 C416 0.930 . S
H439 C417 0.929 . S
Sm440 C442 2.846 . S
Sm440 O460 2.543 . S
Sm440 O461 2.450 . S
Sm440 O462 2.681 . S
Sm440 O463 2.464 . S
Sm440 O464 2.396 . S
Sm440 O468 2.386 . S
Sm440 O471 2.408 . S
Sm441 C451 2.846 . S
Sm441 O462 2.386 . S
Sm441 O465 2.408 . S
Sm441 O466 2.543 . S
Sm441 O467 2.450 . S
Sm441 O468 2.681 . S
Sm441 O469 2.464 . S
Sm441 O470 2.396 . S
C442 Sm440 2.846 . S
C442 C443 1.506 . S
C442 O460 1.261 . S
C442 O461 1.242 . S
C443 C442 1.506 . S
C443 C444 1.358 . S
C443 C448 1.382 . S
C444 C443 1.358 . S
C444 C445 1.385 . S
C444 H472 0.930 . S
C445 C444 1.385 . S
C445 C446 1.395 . S
C445 H473 0.929 . S
C446 C445 1.395 . S
C446 C447 1.335 . S
C447 C446 1.335 . S
C447 C448 1.398 . S
C447 H474 0.930 . S
C448 C443 1.382 . S
C448 C447 1.398 . S
C448 H475 0.929 . S
C449 O462 1.271 . S
C449 O463 1.251 . S
C450 O464 1.252 . S
C450 O465 1.272 . S
C451 Sm441 2.846 . S
C451 C452 1.506 . S
C451 O466 1.261 . S
C451 O467 1.242 . S
C452 C451 1.506 . S
C452 C453 1.358 . S
C452 C457 1.382 . S
C453 C452 1.358 . S
C453 C454 1.385 . S
C453 H476 0.930 . S
C454 C453 1.385 . S
C454 C455 1.395 . S
C454 H477 0.929 . S
C455 C454 1.395 . S
C455 C456 1.335 . S
C456 C455 1.335 . S
C456 C457 1.398 . S
C456 H478 0.930 . S
C457 C452 1.382 . S
C457 C456 1.398 . S
C457 H479 0.929 . S
C458 O468 1.271 . S
C458 O469 1.251 . S
C459 O470 1.252 . S
C459 O471 1.272 . S
O460 Sm440 2.543 . S
O460 C442 1.261 . S
O461 Sm440 2.450 . S
O461 C442 1.242 . S
O462 Sm440 2.681 . S
O462 Sm441 2.386 . S
O462 C449 1.271 . S
O463 Sm440 2.464 . S
O463 C449 1.251 . S
O464 Sm440 2.396 . S
O464 C450 1.252 . S
O465 Sm441 2.408 . S
O465 C450 1.272 . S
O466 Sm441 2.543 . S
O466 C451 1.261 . S
O467 Sm441 2.450 . S
O467 C451 1.242 . S
O468 Sm440 2.386 . S
O468 Sm441 2.681 . S
O468 C458 1.271 . S
O469 Sm441 2.464 . S
O469 C458 1.251 . S
O470 Sm441 2.396 . S
O470 C459 1.252 . S
O471 Sm440 2.408 . S
O471 C459 1.272 . S
H472 C444 0.930 . S
H473 C445 0.929 . S
H474 C447 0.930 . S
H475 C448 0.929 . S
H476 C453 0.930 . S
H477 C454 0.929 . S
H478 C456 0.930 . S
H479 C457 0.929 . S
Sm480 C482 2.846 . S
Sm480 O500 2.543 . S
Sm480 O501 2.450 . S
Sm480 O502 2.681 . S
Sm480 O503 2.464 . S
Sm480 O504 2.396 . S
Sm480 O508 2.386 . S
Sm480 O511 2.408 . S
Sm481 C491 2.846 . S
Sm481 O502 2.386 . S
Sm481 O505 2.408 . S
Sm481 O506 2.543 . S
Sm481 O507 2.450 . S
Sm481 O508 2.681 . S
Sm481 O509 2.464 . S
Sm481 O510 2.396 . S
C482 Sm480 2.846 . S
C482 C483 1.506 . S
C482 O500 1.261 . S
C482 O501 1.242 . S
C483 C482 1.506 . S
C483 C484 1.358 1_655 S
C483 C488 1.382 1_655 S
C484 C483 1.358 1_455 S
C484 C485 1.385 . S
C484 H512 0.930 1_455 S
C485 C484 1.385 . S
C485 C486 1.395 . S
C485 H513 0.929 . S
C486 C485 1.395 . S
C486 C487 1.335 . S
C487 C486 1.335 . S
C487 C488 1.398 . S
C487 H514 0.930 . S
C488 C483 1.382 1_455 S
C488 C487 1.398 . S
C488 H515 0.929 . S
C489 O502 1.271 . S
C489 O503 1.251 . S
C490 O504 1.252 . S
C490 O505 1.272 . S
C491 Sm481 2.846 . S
C491 C492 1.506 . S
C491 O506 1.261 . S
C491 O507 1.242 . S
C492 C491 1.506 . S
C492 C493 1.358 . S
C492 C497 1.382 . S
C493 C492 1.358 . S
C493 C494 1.385 . S
C493 H516 0.930 . S
C494 C493 1.385 . S
C494 C495 1.395 . S
C494 H517 0.929 . S
C495 C494 1.395 . S
C495 C496 1.335 . S
C496 C495 1.335 . S
C496 C497 1.398 . S
C496 H518 0.930 . S
C497 C492 1.382 . S
C497 C496 1.398 . S
C497 H519 0.929 . S
C498 O508 1.271 . S
C498 O509 1.251 . S
C499 O510 1.252 . S
C499 O511 1.272 . S
O500 Sm480 2.543 . S
O500 C482 1.261 . S
O501 Sm480 2.450 . S
O501 C482 1.242 . S
O502 Sm480 2.681 . S
O502 Sm481 2.386 . S
O502 C489 1.271 . S
O503 Sm480 2.464 . S
O503 C489 1.251 . S
O504 Sm480 2.396 . S
O504 C490 1.252 . S
O505 Sm481 2.408 . S
O505 C490 1.272 . S
O506 Sm481 2.543 . S
O506 C491 1.261 . S
O507 Sm481 2.450 . S
O507 C491 1.242 . S
O508 Sm480 2.386 . S
O508 Sm481 2.681 . S
O508 C498 1.271 . S
O509 Sm481 2.464 . S
O509 C498 1.251 . S
O510 Sm481 2.396 . S
O510 C499 1.252 . S
O511 Sm480 2.408 . S
O511 C499 1.272 . S
H512 C484 0.930 1_655 S
H513 C485 0.929 . S
H514 C487 0.930 . S
H515 C488 0.929 . S
H516 C493 0.930 . S
H517 C494 0.929 . S
H518 C496 0.930 . S
H519 C497 0.929 . S
Sm520 C522 2.846 . S
Sm520 O540 2.543 . S
Sm520 O541 2.450 . S
Sm520 O542 2.681 . S
Sm520 O543 2.464 . S
Sm520 O544 2.396 . S
Sm520 O548 2.386 . S
Sm520 O551 2.408 . S
Sm521 C531 2.846 . S
Sm521 O542 2.386 . S
Sm521 O545 2.408 . S
Sm521 O546 2.543 . S
Sm521 O547 2.450 . S
Sm521 O548 2.681 . S
Sm521 O549 2.464 . S
Sm521 O550 2.396 . S
C522 Sm520 2.846 . S
C522 C523 1.506 . S
C522 O540 1.261 . S
C522 O541 1.242 . S
C523 C522 1.506 . S
C523 C524 1.358 . S
C523 C528 1.382 . S
C524 C523 1.358 . S
C524 C525 1.385 . S
C524 H552 0.930 . S
C525 C524 1.385 . S
C525 C526 1.395 . S
C525 H553 0.929 . S
C526 C525 1.395 . S
C526 C527 1.335 . S
C527 C526 1.335 . S
C527 C528 1.398 . S
C527 H554 0.930 . S
C528 C523 1.382 . S
C528 C527 1.398 . S
C528 H555 0.929 . S
C529 O542 1.271 . S
C529 O543 1.251 . S
C530 O544 1.252 . S
C530 O545 1.272 . S
C531 Sm521 2.846 . S
C531 C532 1.506 . S
C531 O546 1.261 . S
C531 O547 1.242 . S
C532 C531 1.506 . S
C532 C533 1.358 . S
C532 C537 1.382 . S
C533 C532 1.358 . S
C533 C534 1.385 . S
C533 H556 0.930 . S
C534 C533 1.385 . S
C534 C535 1.395 . S
C534 H557 0.929 . S
C535 C534 1.395 . S
C535 C536 1.335 . S
C536 C535 1.335 . S
C536 C537 1.398 . S
C536 H558 0.930 . S
C537 C532 1.382 . S
C537 C536 1.398 . S
C537 H559 0.929 . S
C538 O548 1.271 . S
C538 O549 1.251 . S
C539 O550 1.252 . S
C539 O551 1.272 . S
O540 Sm520 2.543 . S
O540 C522 1.261 . S
O541 Sm520 2.450 . S
O541 C522 1.242 . S
O542 Sm520 2.681 . S
O542 Sm521 2.386 . S
O542 C529 1.271 . S
O543 Sm520 2.464 . S
O543 C529 1.251 . S
O544 Sm520 2.396 . S
O544 C530 1.252 . S
O545 Sm521 2.408 . S
O545 C530 1.272 . S
O546 Sm521 2.543 . S
O546 C531 1.261 . S
O547 Sm521 2.450 . S
O547 C531 1.242 . S
O548 Sm520 2.386 . S
O548 Sm521 2.681 . S
O548 C538 1.271 . S
O549 Sm521 2.464 . S
O549 C538 1.251 . S
O550 Sm521 2.396 . S
O550 C539 1.252 . S
O551 Sm520 2.408 . S
O551 C539 1.272 . S
H552 C524 0.930 . S
H553 C525 0.929 . S
H554 C527 0.930 . S
H555 C528 0.929 . S
H556 C533 0.930 . S
H557 C534 0.929 . S
H558 C536 0.930 . S
H559 C537 0.929 . S
Sm560 C562 2.846 . S
Sm560 O580 2.543 . S
Sm560 O581 2.450 . S
Sm560 O582 2.681 . S
Sm560 O583 2.464 . S
Sm560 O584 2.396 . S
Sm560 O588 2.386 . S
Sm560 O591 2.408 . S
Sm561 C571 2.846 . S
Sm561 O582 2.386 . S
Sm561 O585 2.408 . S
Sm561 O586 2.543 . S
Sm561 O587 2.450 . S
Sm561 O588 2.681 . S
Sm561 O589 2.464 . S
Sm561 O590 2.396 . S
C562 Sm560 2.846 . S
C562 C563 1.506 . S
C562 O580 1.261 . S
C562 O581 1.242 . S
C563 C562 1.506 . S
C563 C564 1.358 . S
C563 C568 1.382 . S
C564 C563 1.358 . S
C564 C565 1.385 1_545 S
C564 H592 0.930 . S
C565 C564 1.385 1_565 S
C565 C566 1.395 . S
C565 H593 0.929 . S
C566 C565 1.395 . S
C566 C567 1.335 . S
C567 C566 1.335 . S
C567 C568 1.398 1_565 S
C567 H594 0.930 . S
C568 C563 1.382 . S
C568 C567 1.398 1_545 S
C568 H595 0.929 . S
C569 O582 1.271 . S
C569 O583 1.251 . S
C570 O584 1.252 . S
C570 O585 1.272 . S
C571 Sm561 2.846 . S
C571 C572 1.506 . S
C571 O586 1.261 . S
C571 O587 1.242 . S
C572 C571 1.506 . S
C572 C573 1.358 . S
C572 C577 1.382 . S
C573 C572 1.358 . S
C573 C574 1.385 . S
C573 H596 0.930 . S
C574 C573 1.385 . S
C574 C575 1.395 . S
C574 H597 0.929 . S
C575 C574 1.395 . S
C575 C576 1.335 . S
C576 C575 1.335 . S
C576 C577 1.398 . S
C576 H598 0.930 . S
C577 C572 1.382 . S
C577 C576 1.398 . S
C577 H599 0.929 . S
C578 O588 1.271 . S
C578 O589 1.251 . S
C579 O590 1.252 . S
C579 O591 1.272 . S
O580 Sm560 2.543 . S
O580 C562 1.261 . S
O581 Sm560 2.450 . S
O581 C562 1.242 . S
O582 Sm560 2.681 . S
O582 Sm561 2.386 . S
O582 C569 1.271 . S
O583 Sm560 2.464 . S
O583 C569 1.251 . S
O584 Sm560 2.396 . S
O584 C570 1.252 . S
O585 Sm561 2.408 . S
O585 C570 1.272 . S
O586 Sm561 2.543 . S
O586 C571 1.261 . S
O587 Sm561 2.450 . S
O587 C571 1.242 . S
O588 Sm560 2.386 . S
O588 Sm561 2.681 . S
O588 C578 1.271 . S
O589 Sm561 2.464 . S
O589 C578 1.251 . S
O590 Sm561 2.396 . S
O590 C579 1.252 . S
O591 Sm560 2.408 . S
O591 C579 1.272 . S
H592 C564 0.930 . S
H593 C565 0.929 . S
H594 C567 0.930 . S
H595 C568 0.929 . S
H596 C573 0.930 . S
H597 C574 0.929 . S
H598 C576 0.930 . S
H599 C577 0.929 . S
Sm600 C602 2.846 . S
Sm600 O620 2.543 . S
Sm600 O621 2.450 . S
Sm600 O622 2.681 . S
Sm600 O623 2.464 . S
Sm600 O624 2.396 . S
Sm600 O628 2.386 . S
Sm600 O631 2.408 . S
Sm601 C611 2.846 . S
Sm601 O622 2.386 . S
Sm601 O625 2.408 . S
Sm601 O626 2.543 . S
Sm601 O627 2.450 . S
Sm601 O628 2.681 . S
Sm601 O629 2.464 . S
Sm601 O630 2.396 . S
C602 Sm600 2.846 . S
C602 C603 1.506 . S
C602 O620 1.261 . S
C602 O621 1.242 . S
C603 C602 1.506 . S
C603 C604 1.358 . S
C603 C608 1.382 . S
C604 C603 1.358 . S
C604 C605 1.385 . S
C604 H632 0.930 . S
C605 C604 1.385 . S
C605 C606 1.395 . S
C605 H633 0.929 . S
C606 C605 1.395 . S
C606 C607 1.335 . S
C607 C606 1.335 . S
C607 C608 1.398 . S
C607 H634 0.930 . S
C608 C603 1.382 . S
C608 C607 1.398 . S
C608 H635 0.929 . S
C609 O622 1.271 . S
C609 O623 1.251 . S
C610 O624 1.252 . S
C610 O625 1.272 . S
C611 Sm601 2.846 . S
C611 C612 1.506 1_545 S
C611 O626 1.261 . S
C611 O627 1.242 . S
C612 C611 1.506 1_565 S
C612 C613 1.358 . S
C612 C617 1.382 . S
C613 C612 1.358 . S
C613 C614 1.385 . S
C613 H636 0.930 . S
C614 C613 1.385 . S
C614 C615 1.395 . S
C614 H637 0.929 . S
C615 C614 1.395 . S
C615 C616 1.335 . S
C616 C615 1.335 . S
C616 C617 1.398 . S
C616 H638 0.930 . S
C617 C612 1.382 . S
C617 C616 1.398 . S
C617 H639 0.929 . S
C618 O628 1.271 . S
C618 O629 1.251 . S
C619 O630 1.252 . S
C619 O631 1.272 . S
O620 Sm600 2.543 . S
O620 C602 1.261 . S
O621 Sm600 2.450 . S
O621 C602 1.242 . S
O622 Sm600 2.681 . S
O622 Sm601 2.386 . S
O622 C609 1.271 . S
O623 Sm600 2.464 . S
O623 C609 1.251 . S
O624 Sm600 2.396 . S
O624 C610 1.252 . S
O625 Sm601 2.408 . S
O625 C610 1.272 . S
O626 Sm601 2.543 . S
O626 C611 1.261 . S
O627 Sm601 2.450 . S
O627 C611 1.242 . S
O628 Sm600 2.386 . S
O628 Sm601 2.681 . S
O628 C618 1.271 . S
O629 Sm601 2.464 . S
O629 C618 1.251 . S
O630 Sm601 2.396 . S
O630 C619 1.252 . S
O631 Sm600 2.408 . S
O631 C619 1.272 . S
H632 C604 0.930 . S
H633 C605 0.929 . S
H634 C607 0.930 . S
H635 C608 0.929 . S
H636 C613 0.930 . S
H637 C614 0.929 . S
H638 C616 0.930 . S
H639 C617 0.929 . S
Sm640 C642 2.846 . S
Sm640 O660 2.543 . S
Sm640 O661 2.450 . S
Sm640 O662 2.681 . S
Sm640 O663 2.464 . S
Sm640 O664 2.396 . S
Sm640 O668 2.386 . S
Sm640 O671 2.408 . S
Sm641 C651 2.846 1_655 S
Sm641 O662 2.386 . S
Sm641 O665 2.408 . S
Sm641 O666 2.543 1_655 S
Sm641 O667 2.450 1_655 S
Sm641 O668 2.681 . S
Sm641 O669 2.464 . S
Sm641 O670 2.396 . S
C642 Sm640 2.846 . S
C642 C643 1.506 . S
C642 O660 1.261 . S
C642 O661 1.242 . S
C643 C642 1.506 . S
C643 C644 1.358 . S
C643 C648 1.382 . S
C644 C643 1.358 . S
C644 C645 1.385 . S
C644 H672 0.930 . S
C645 C644 1.385 . S
C645 C646 1.395 . S
C645 H673 0.929 . S
C646 C645 1.395 . S
C646 C647 1.335 . S
C647 C646 1.335 . S
C647 C648 1.398 . S
C647 H674 0.930 . S
C648 C643 1.382 . S
C648 C647 1.398 . S
C648 H675 0.929 . S
C649 O662 1.271 . S
C649 O663 1.251 . S
C650 O664 1.252 . S
C650 O665 1.272 . S
C651 Sm641 2.846 1_455 S
C651 C652 1.506 . S
C651 O666 1.261 . S
C651 O667 1.242 . S
C652 C651 1.506 . S
C652 C653 1.358 . S
C652 C657 1.382 . S
C653 C652 1.358 . S
C653 C654 1.385 . S
C653 H676 0.930 . S
C654 C653 1.385 . S
C654 C655 1.395 . S
C654 H677 0.929 . S
C655 C654 1.395 . S
C655 C656 1.335 . S
C656 C655 1.335 . S
C656 C657 1.398 . S
C656 H678 0.930 . S
C657 C652 1.382 . S
C657 C656 1.398 . S
C657 H679 0.929 . S
C658 O668 1.271 . S
C658 O669 1.251 . S
C659 O670 1.252 . S
C659 O671 1.272 . S
O660 Sm640 2.543 . S
O660 C642 1.261 . S
O661 Sm640 2.450 . S
O661 C642 1.242 . S
O662 Sm640 2.681 . S
O662 Sm641 2.386 . S
O662 C649 1.271 . S
O663 Sm640 2.464 . S
O663 C649 1.251 . S
O664 Sm640 2.396 . S
O664 C650 1.252 . S
O665 Sm641 2.408 . S
O665 C650 1.272 . S
O666 Sm641 2.543 1_455 S
O666 C651 1.261 . S
O667 Sm641 2.450 1_455 S
O667 C651 1.242 . S
O668 Sm640 2.386 . S
O668 Sm641 2.681 . S
O668 C658 1.271 . S
O669 Sm641 2.464 . S
O669 C658 1.251 . S
O670 Sm641 2.396 . S
O670 C659 1.252 . S
O671 Sm640 2.408 . S
O671 C659 1.272 . S
H672 C644 0.930 . S
H673 C645 0.929 . S
H674 C647 0.930 . S
H675 C648 0.929 . S
H676 C653 0.930 . S
H677 C654 0.929 . S
H678 C656 0.930 . S
H679 C657 0.929 . S
Sm680 C682 2.846 . S
Sm680 O700 2.543 . S
Sm680 O701 2.450 . S
Sm680 O702 2.681 . S
Sm680 O703 2.464 . S
Sm680 O704 2.396 . S
Sm680 O708 2.386 . S
Sm680 O711 2.408 . S
Sm681 C691 2.846 . S
Sm681 O702 2.386 . S
Sm681 O705 2.408 . S
Sm681 O706 2.543 . S
Sm681 O707 2.450 . S
Sm681 O708 2.681 . S
Sm681 O709 2.464 . S
Sm681 O710 2.396 . S
C682 Sm680 2.846 . S
C682 C683 1.506 . S
C682 O700 1.261 . S
C682 O701 1.242 . S
C683 C682 1.506 . S
C683 C684 1.358 . S
C683 C688 1.382 . S
C684 C683 1.358 . S
C684 C685 1.385 . S
C684 H712 0.930 . S
C685 C684 1.385 . S
C685 C686 1.395 . S
C685 H713 0.929 . S
C686 C685 1.395 . S
C686 C687 1.335 . S
C687 C686 1.335 . S
C687 C688 1.398 . S
C687 H714 0.930 . S
C688 C683 1.382 . S
C688 C687 1.398 . S
C688 H715 0.929 . S
C689 O702 1.271 . S
C689 O703 1.251 . S
C690 O704 1.252 . S
C690 O705 1.272 . S
C691 Sm681 2.846 . S
C691 C692 1.506 . S
C691 O706 1.261 . S
C691 O707 1.242 . S
C692 C691 1.506 . S
C692 C693 1.358 . S
C692 C697 1.382 . S
C693 C692 1.358 . S
C693 C694 1.385 . S
C693 H716 0.930 . S
C694 C693 1.385 . S
C694 C695 1.395 . S
C694 H717 0.929 . S
C695 C694 1.395 . S
C695 C696 1.335 . S
C696 C695 1.335 . S
C696 C697 1.398 . S
C696 H718 0.930 . S
C697 C692 1.382 . S
C697 C696 1.398 . S
C697 H719 0.929 . S
C698 O708 1.271 . S
C698 O709 1.251 . S
C699 O710 1.252 . S
C699 O711 1.272 . S
O700 Sm680 2.543 . S
O700 C682 1.261 . S
O701 Sm680 2.450 . S
O701 C682 1.242 . S
O702 Sm680 2.681 . S
O702 Sm681 2.386 . S
O702 C689 1.271 . S
O703 Sm680 2.464 . S
O703 C689 1.251 . S
O704 Sm680 2.396 . S
O704 C690 1.252 . S
O705 Sm681 2.408 . S
O705 C690 1.272 . S
O706 Sm681 2.543 . S
O706 C691 1.261 . S
O707 Sm681 2.450 . S
O707 C691 1.242 . S
O708 Sm680 2.386 . S
O708 Sm681 2.681 . S
O708 C698 1.271 . S
O709 Sm681 2.464 . S
O709 C698 1.251 . S
O710 Sm681 2.396 . S
O710 C699 1.252 . S
O711 Sm680 2.408 . S
O711 C699 1.272 . S
H712 C684 0.930 . S
H713 C685 0.929 . S
H714 C687 0.930 . S
H715 C688 0.929 . S
H716 C693 0.930 . S
H717 C694 0.929 . S
H718 C696 0.930 . S
H719 C697 0.929 . S
C720 C721 1.363 . S
C720 C726 1.379 . S
C720 N728 1.356 . S
C721 C720 1.363 . S
C721 C727 1.363 . S
C722 C723 1.363 . S
C722 C727 1.379 . S
C722 N729 1.356 . S
C723 C722 1.363 . S
C723 C726 1.363 . S
N724 C726 1.356 . S
N724 H736 0.984 . S
N724 H737 0.985 . S
N725 C727 1.356 . S
N725 H730 0.984 . S
N725 H731 0.985 . S
C726 C720 1.379 . S
C726 C723 1.363 . S
C726 N724 1.356 . S
C727 C721 1.363 . S
C727 C722 1.379 . S
C727 N725 1.356 . S
N728 C720 1.356 . S
N728 H734 0.984 . S
N728 H735 0.984 . S
N729 C722 1.356 . S
N729 H732 0.984 . S
N729 H733 0.985 . S
H730 N725 0.984 . S
H731 N725 0.985 . S
H732 N729 0.984 . S
H733 N729 0.985 . S
H734 N728 0.984 . S
H735 N728 0.984 . S
H736 N724 0.984 . S
H737 N724 0.985 . S
C738 C739 1.363 . S
C738 C744 1.379 . S
C738 N746 1.356 . S
C739 C738 1.363 . S
C739 C745 1.363 . S
C740 C741 1.363 . S
C740 C745 1.379 . S
C740 N747 1.356 . S
C741 C740 1.363 . S
C741 C744 1.363 . S
N742 C744 1.356 . S
N742 H754 0.984 . S
N742 H755 0.985 . S
N743 C745 1.356 . S
N743 H748 0.984 . S
N743 H749 0.985 . S
C744 C738 1.379 . S
C744 C741 1.363 . S
C744 N742 1.356 . S
C745 C739 1.363 . S
C745 C740 1.379 . S
C745 N743 1.356 . S
N746 C738 1.356 . S
N746 H752 0.984 . S
N746 H753 0.984 . S
N747 C740 1.356 . S
N747 H750 0.984 . S
N747 H751 0.985 . S
H748 N743 0.984 . S
H749 N743 0.985 . S
H750 N747 0.984 . S
H751 N747 0.985 . S
H752 N746 0.984 . S
H753 N746 0.984 . S
H754 N742 0.984 . S
H755 N742 0.985 . S
C756 C757 1.363 . S
C756 C762 1.379 . S
C756 N764 1.356 . S
C757 C756 1.363 . S
C757 C763 1.363 . S
C758 C759 1.363 . S
C758 C763 1.379 . S
C758 N765 1.356 . S
C759 C758 1.363 . S
C759 C762 1.363 . S
N760 C762 1.356 . S
N760 H772 0.984 . S
N760 H773 0.985 . S
N761 C763 1.356 . S
N761 H766 0.984 . S
N761 H767 0.985 . S
C762 C756 1.379 . S
C762 C759 1.363 . S
C762 N760 1.356 . S
C763 C757 1.363 . S
C763 C758 1.379 . S
C763 N761 1.356 . S
N764 C756 1.356 . S
N764 H770 0.984 . S
N764 H771 0.984 . S
N765 C758 1.356 . S
N765 H768 0.984 . S
N765 H769 0.985 . S
H766 N761 0.984 . S
H767 N761 0.985 . S
H768 N765 0.984 . S
H769 N765 0.985 . S
H770 N764 0.984 . S
H771 N764 0.984 . S
H772 N760 0.984 . S
H773 N760 0.985 . S
C774 C775 1.363 . S
C774 C780 1.379 . S
C774 N782 1.356 . S
C775 C774 1.363 . S
C775 C781 1.363 . S
C776 C777 1.363 . S
C776 C781 1.379 . S
C776 N783 1.356 . S
C777 C776 1.363 . S
C777 C780 1.363 . S
N778 C780 1.356 . S
N778 H790 0.984 . S
N778 H791 0.985 . S
N779 C781 1.356 . S
N779 H784 0.984 . S
N779 H785 0.985 . S
C780 C774 1.379 . S
C780 C777 1.363 . S
C780 N778 1.356 . S
C781 C775 1.363 . S
C781 C776 1.379 . S
C781 N779 1.356 . S
N782 C774 1.356 . S
N782 H788 0.984 . S
N782 H789 0.984 . S
N783 C776 1.356 . S
N783 H786 0.984 . S
N783 H787 0.985 . S
H784 N779 0.984 . S
H785 N779 0.985 . S
H786 N783 0.984 . S
H787 N783 0.985 . S
H788 N782 0.984 . S
H789 N782 0.984 . S
H790 N778 0.984 . S
H791 N778 0.985 . S
C792 C793 1.363 . S
C792 C798 1.379 . S
C792 N800 1.356 . S
C793 C792 1.363 . S
C793 C799 1.363 . S
C794 C795 1.363 . S
C794 C799 1.379 . S
C794 N801 1.356 . S
C795 C794 1.363 . S
C795 C798 1.363 . S
N796 C798 1.356 . S
N796 H808 0.984 . S
N796 H809 0.985 . S
N797 C799 1.356 . S
N797 H802 0.984 . S
N797 H803 0.985 . S
C798 C792 1.379 . S
C798 C795 1.363 . S
C798 N796 1.356 . S
C799 C793 1.363 . S
C799 C794 1.379 . S
C799 N797 1.356 . S
N800 C792 1.356 . S
N800 H806 0.984 . S
N800 H807 0.984 . S
N801 C794 1.356 . S
N801 H804 0.984 . S
N801 H805 0.985 . S
H802 N797 0.984 . S
H803 N797 0.985 . S
H804 N801 0.984 . S
H805 N801 0.985 . S
H806 N800 0.984 . S
H807 N800 0.984 . S
H808 N796 0.984 . S
H809 N796 0.985 . S
C810 C811 1.363 . S
C810 C816 1.379 . S
C810 N818 1.356 . S
C811 C810 1.363 . S
C811 C817 1.363 . S
C812 C813 1.363 . S
C812 C817 1.379 . S
C812 N819 1.356 . S
C813 C812 1.363 . S
C813 C816 1.363 . S
N814 C816 1.356 . S
N814 H826 0.984 . S
N814 H827 0.985 . S
N815 C817 1.356 . S
N815 H820 0.984 . S
N815 H821 0.985 . S
C816 C810 1.379 . S
C816 C813 1.363 . S
C816 N814 1.356 . S
C817 C811 1.363 . S
C817 C812 1.379 . S
C817 N815 1.356 . S
N818 C810 1.356 . S
N818 H824 0.984 . S
N818 H825 0.984 . S
N819 C812 1.356 . S
N819 H822 0.984 . S
N819 H823 0.985 . S
H820 N815 0.984 . S
H821 N815 0.985 . S
H822 N819 0.984 . S
H823 N819 0.985 . S
H824 N818 0.984 . S
H825 N818 0.984 . S
H826 N814 0.984 . S
H827 N814 0.985 . S
C828 C829 1.363 . S
C828 C834 1.379 . S
C828 N836 1.356 . S
C829 C828 1.363 . S
C829 C835 1.363 . S
C830 C831 1.363 . S
C830 C835 1.379 . S
C830 N837 1.356 . S
C831 C830 1.363 . S
C831 C834 1.363 . S
N832 C834 1.356 . S
N832 H844 0.984 . S
N832 H845 0.985 . S
N833 C835 1.356 . S
N833 H838 0.984 . S
N833 H839 0.985 . S
C834 C828 1.379 . S
C834 C831 1.363 . S
C834 N832 1.356 . S
C835 C829 1.363 . S
C835 C830 1.379 . S
C835 N833 1.356 . S
N836 C828 1.356 . S
N836 H842 0.984 . S
N836 H843 0.984 . S
N837 C830 1.356 . S
N837 H840 0.984 . S
N837 H841 0.985 . S
H838 N833 0.984 . S
H839 N833 0.985 . S
H840 N837 0.984 . S
H841 N837 0.985 . S
H842 N836 0.984 . S
H843 N836 0.984 . S
H844 N832 0.984 . S
H845 N832 0.985 . S
C846 C847 1.363 . S
C846 C852 1.379 1_545 S
C846 N854 1.356 . S
C847 C846 1.363 . S
C847 C853 1.363 . S
C848 C849 1.363 . S
C848 C853 1.379 1_565 S
C848 N855 1.356 . S
C849 C848 1.363 . S
C849 C852 1.363 . S
N850 C852 1.356 . S
N850 H862 0.984 . S
N850 H863 0.985 . S
N851 C853 1.356 . S
N851 H856 0.984 . S
N851 H857 0.985 . S
C852 C846 1.379 1_565 S
C852 C849 1.363 . S
C852 N850 1.356 . S
C853 C847 1.363 . S
C853 C848 1.379 1_545 S
C853 N851 1.356 . S
N854 C846 1.356 . S
N854 H860 0.984 . S
N854 H861 0.984 . S
N855 C848 1.356 . S
N855 H858 0.984 . S
N855 H859 0.985 . S
H856 N851 0.984 . S
H857 N851 0.985 . S
H858 N855 0.984 . S
H859 N855 0.985 . S
H860 N854 0.984 . S
H861 N854 0.984 . S
H862 N850 0.984 . S
H863 N850 0.985 . S
C864 C865 1.363 . S
C864 C870 1.379 . S
C864 N872 1.356 . S
C865 C864 1.363 . S
C865 C871 1.363 . S
C866 C867 1.363 1_455 S
C866 C871 1.379 . S
C866 N873 1.356 1_455 S
C867 C866 1.363 1_655 S
C867 C870 1.363 1_655 S
N868 C870 1.356 . S
N868 H880 0.984 . S
N868 H881 0.985 1_455 S
N869 C871 1.356 . S
N869 H874 0.984 . S
N869 H875 0.985 . S
C870 C864 1.379 . S
C870 C867 1.363 1_455 S
C870 N868 1.356 . S
C871 C865 1.363 . S
C871 C866 1.379 . S
C871 N869 1.356 . S
N872 C864 1.356 . S
N872 H878 0.984 . S
N872 H879 0.984 . S
N873 C866 1.356 1_655 S
N873 H876 0.984 . S
N873 H877 0.985 . S
H874 N869 0.984 . S
H875 N869 0.985 . S
H876 N873 0.984 . S
H877 N873 0.985 . S
H878 N872 0.984 . S
H879 N872 0.984 . S
H880 N868 0.984 . S
H881 N868 0.985 1_655 S
C882 C883 1.363 . S
C882 C888 1.379 . S
C882 N890 1.356 . S
C883 C882 1.363 . S
C883 C889 1.363 . S
C884 C885 1.363 . S
C884 C889 1.379 . S
C884 N891 1.356 . S
C885 C884 1.363 . S
C885 C888 1.363 . S
N886 C888 1.356 . S
N886 H898 0.984 . S
N886 H899 0.985 . S
N887 C889 1.356 . S
N887 H892 0.984 . S
N887 H893 0.985 . S
C888 C882 1.379 . S
C888 C885 1.363 . S
C888 N886 1.356 . S
C889 C883 1.363 . S
C889 C884 1.379 . S
C889 N887 1.356 . S
N890 C882 1.356 . S
N890 H896 0.984 . S
N890 H897 0.984 . S
N891 C884 1.356 . S
N891 H894 0.984 . S
N891 H895 0.985 . S
H892 N887 0.984 . S
H893 N887 0.985 . S
H894 N891 0.984 . S
H895 N891 0.985 . S
H896 N890 0.984 . S
H897 N890 0.984 . S
H898 N886 0.984 . S
H899 N886 0.985 . S
C900 C901 1.363 . S
C900 C906 1.379 . S
C900 N908 1.356 . S
C901 C900 1.363 . S
C901 C907 1.363 . S
C902 C903 1.363 . S
C902 C907 1.379 . S
C902 N909 1.356 . S
C903 C902 1.363 . S
C903 C906 1.363 . S
N904 C906 1.356 . S
N904 H916 0.984 . S
N904 H917 0.985 . S
N905 C907 1.356 . S
N905 H910 0.984 . S
N905 H911 0.985 . S
C906 C900 1.379 . S
C906 C903 1.363 . S
C906 N904 1.356 . S
C907 C901 1.363 . S
C907 C902 1.379 . S
C907 N905 1.356 . S
N908 C900 1.356 . S
N908 H914 0.984 . S
N908 H915 0.984 . S
N909 C902 1.356 . S
N909 H912 0.984 . S
N909 H913 0.985 . S
H910 N905 0.984 . S
H911 N905 0.985 . S
H912 N909 0.984 . S
H913 N909 0.985 . S
H914 N908 0.984 . S
H915 N908 0.984 . S
H916 N904 0.984 . S
H917 N904 0.985 . S
C918 C919 1.363 . S
C918 C924 1.379 . S
C918 N926 1.356 . S
C919 C918 1.363 . S
C919 C925 1.363 . S
C920 C921 1.363 . S
C920 C925 1.379 . S
C920 N927 1.356 . S
C921 C920 1.363 . S
C921 C924 1.363 . S
N922 C924 1.356 . S
N922 H934 0.984 . S
N922 H935 0.985 . S
N923 C925 1.356 . S
N923 H928 0.984 . S
N923 H929 0.985 . S
C924 C918 1.379 . S
C924 C921 1.363 . S
C924 N922 1.356 . S
C925 C919 1.363 . S
C925 C920 1.379 . S
C925 N923 1.356 . S
N926 C918 1.356 . S
N926 H932 0.984 . S
N926 H933 0.984 . S
N927 C920 1.356 . S
N927 H930 0.984 . S
N927 H931 0.985 . S
H928 N923 0.984 . S
H929 N923 0.985 . S
H930 N927 0.984 . S
H931 N927 0.985 . S
H932 N926 0.984 . S
H933 N926 0.984 . S
H934 N922 0.984 . S
H935 N922 0.985 . S
C936 C937 1.363 . S
C936 C942 1.379 . S
C936 N944 1.356 . S
C937 C936 1.363 . S
C937 C943 1.363 . S
C938 C939 1.363 . S
C938 C943 1.379 . S
C938 N945 1.356 . S
C939 C938 1.363 . S
C939 C942 1.363 . S
N940 C942 1.356 . S
N940 H952 0.984 . S
N940 H953 0.985 . S
N941 C943 1.356 . S
N941 H946 0.984 . S
N941 H947 0.985 . S
C942 C936 1.379 . S
C942 C939 1.363 . S
C942 N940 1.356 . S
C943 C937 1.363 . S
C943 C938 1.379 . S
C943 N941 1.356 . S
N944 C936 1.356 . S
N944 H950 0.984 . S
N944 H951 0.984 . S
N945 C938 1.356 . S
N945 H948 0.984 . S
N945 H949 0.985 . S
H946 N941 0.984 . S
H947 N941 0.985 . S
H948 N945 0.984 . S
H949 N945 0.985 . S
H950 N944 0.984 . S
H951 N944 0.984 . S
H952 N940 0.984 . S
H953 N940 0.985 . S
C954 C955 1.363 . S
C954 C960 1.379 . S
C954 N962 1.356 . S
C955 C954 1.363 . S
C955 C961 1.363 . S
C956 C957 1.363 . S
C956 C961 1.379 . S
C956 N963 1.356 . S
C957 C956 1.363 . S
C957 C960 1.363 . S
N958 C960 1.356 . S
N958 H970 0.984 . S
N958 H971 0.985 . S
N959 C961 1.356 . S
N959 H964 0.984 . S
N959 H965 0.985 . S
C960 C954 1.379 . S
C960 C957 1.363 . S
C960 N958 1.356 . S
C961 C955 1.363 . S
C961 C956 1.379 . S
C961 N959 1.356 . S
N962 C954 1.356 . S
N962 H968 0.984 . S
N962 H969 0.984 . S
N963 C956 1.356 . S
N963 H966 0.984 . S
N963 H967 0.985 . S
H964 N959 0.984 . S
H965 N959 0.985 . S
H966 N963 0.984 . S
H967 N963 0.985 . S
H968 N962 0.984 . S
H969 N962 0.984 . S
H970 N958 0.984 . S
H971 N958 0.985 . S
C972 C973 1.363 . S
C972 C978 1.379 . S
C972 N980 1.356 . S
C973 C972 1.363 . S
C973 C979 1.363 . S
C974 C975 1.363 . S
C974 C979 1.379 . S
C974 N981 1.356 . S
C975 C974 1.363 . S
C975 C978 1.363 . S
N976 C978 1.356 . S
N976 H988 0.984 . S
N976 H989 0.985 . S
N977 C979 1.356 . S
N977 H982 0.984 . S
N977 H983 0.985 . S
C978 C972 1.379 . S
C978 C975 1.363 . S
C978 N976 1.356 . S
C979 C973 1.363 . S
C979 C974 1.379 . S
C979 N977 1.356 . S
N980 C972 1.356 . S
N980 H986 0.984 . S
N980 H987 0.984 . S
N981 C974 1.356 . S
N981 H984 0.984 . S
N981 H985 0.985 . S
H982 N977 0.984 . S
H983 N977 0.985 . S
H984 N981 0.984 . S
H985 N981 0.985 . S
H986 N980 0.984 . S
H987 N980 0.984 . S
H988 N976 0.984 . S
H989 N976 0.985 . S
C990 C991 1.363 . S
C990 C996 1.379 . S
C990 N998 1.356 . S
C991 C990 1.363 . S
C991 C997 1.363 . S
C992 C993 1.363 . S
C992 C997 1.379 . S
C992 N999 1.356 . S
C993 C992 1.363 . S
C993 C996 1.363 . S
N994 C996 1.356 . S
N994 H1006 0.984 . S
N994 H1007 0.985 . S
N995 C997 1.356 . S
N995 H1000 0.984 . S
N995 H1001 0.985 . S
C996 C990 1.379 . S
C996 C993 1.363 . S
C996 N994 1.356 . S
C997 C991 1.363 . S
C997 C992 1.379 . S
C997 N995 1.356 . S
N998 C990 1.356 . S
N998 H1004 0.984 . S
N998 H1005 0.984 . S
N999 C992 1.356 . S
N999 H1002 0.984 . S
N999 H1003 0.985 . S
H1000 N995 0.984 . S
H1001 N995 0.985 . S
H1002 N999 0.984 . S
H1003 N999 0.985 . S
H1004 N998 0.984 . S
H1005 N998 0.984 . S
H1006 N994 0.984 . S
H1007 N994 0.985 . S
C1008 C1009 1.363 1_545 S
C1008 C1014 1.379 . S
C1008 N1016 1.356 . S
C1009 C1008 1.363 1_565 S
C1009 C1015 1.363 1_565 S
C1010 C1011 1.363 . S
C1010 C1015 1.379 . S
C1010 N1017 1.356 . S
C1011 C1010 1.363 . S
C1011 C1014 1.363 . S
N1012 C1014 1.356 . S
N1012 H1024 0.984 . S
N1012 H1025 0.985 . S
N1013 C1015 1.356 1_565 S
N1013 H1018 0.984 . S
N1013 H1019 0.985 . S
C1014 C1008 1.379 . S
C1014 C1011 1.363 . S
C1014 N1012 1.356 . S
C1015 C1009 1.363 1_545 S
C1015 C1010 1.379 . S
C1015 N1013 1.356 1_545 S
N1016 C1008 1.356 . S
N1016 H1022 0.984 . S
N1016 H1023 0.984 1_545 S
N1017 C1010 1.356 . S
N1017 H1020 0.984 . S
N1017 H1021 0.985 . S
H1018 N1013 0.984 . S
H1019 N1013 0.985 . S
H1020 N1017 0.984 . S
H1021 N1017 0.985 . S
H1022 N1016 0.984 . S
H1023 N1016 0.984 1_565 S
H1024 N1012 0.984 . S
H1025 N1012 0.985 . S
C1026 C1027 1.363 . S
C1026 C1032 1.379 1_455 S
C1026 N1034 1.356 . S
C1027 C1026 1.363 . S
C1027 C1033 1.363 . S
C1028 C1029 1.363 . S
C1028 C1033 1.379 1_655 S
C1028 N1035 1.356 . S
C1029 C1028 1.363 . S
C1029 C1032 1.363 . S
N1030 C1032 1.356 . S
N1030 H1042 0.984 . S
N1030 H1043 0.985 . S
N1031 C1033 1.356 . S
N1031 H1036 0.984 . S
N1031 H1037 0.985 . S
C1032 C1026 1.379 1_655 S
C1032 C1029 1.363 . S
C1032 N1030 1.356 . S
C1033 C1027 1.363 . S
C1033 C1028 1.379 1_455 S
C1033 N1031 1.356 . S
N1034 C1026 1.356 . S
N1034 H1040 0.984 . S
N1034 H1041 0.984 . S
N1035 C1028 1.356 . S
N1035 H1038 0.984 . S
N1035 H1039 0.985 . S
H1036 N1031 0.984 . S
H1037 N1031 0.985 . S
H1038 N1035 0.984 . S
H1039 N1035 0.985 . S
H1040 N1034 0.984 . S
H1041 N1034 0.984 . S
H1042 N1030 0.984 . S
H1043 N1030 0.985 . S
C1044 C1045 1.363 . S
C1044 C1050 1.379 1_554 S
C1044 N1052 1.356 . S
C1045 C1044 1.363 . S
C1045 C1051 1.363 1_545 S
C1046 C1047 1.363 1_565 S
C1046 C1051 1.379 1_556 S
C1046 N1053 1.356 . S
C1047 C1046 1.363 1_545 S
C1047 C1050 1.363 . S
N1048 C1050 1.356 . S
N1048 H1060 0.984 . S
N1048 H1061 0.985 . S
N1049 C1051 1.356 . S
N1049 H1054 0.984 . S
N1049 H1055 0.985 . S
C1050 C1044 1.379 1_556 S
C1050 C1047 1.363 . S
C1050 N1048 1.356 . S
C1051 C1045 1.363 1_565 S
C1051 C1046 1.379 1_554 S
C1051 N1049 1.356 . S
N1052 C1044 1.356 . S
N1052 H1058 0.984 . S
N1052 H1059 0.984 . S
N1053 C1046 1.356 . S
N1053 H1056 0.984 . S
N1053 H1057 0.985 . S
H1054 N1049 0.984 . S
H1055 N1049 0.985 . S
H1056 N1053 0.984 . S
H1057 N1053 0.985 . S
H1058 N1052 0.984 . S
H1059 N1052 0.984 . S
H1060 N1048 0.984 . S
H1061 N1048 0.985 . S
C1062 C1063 1.363 . S
C1062 C1068 1.379 1_556 S
C1062 N1070 1.356 . S
C1063 C1062 1.363 . S
C1063 C1069 1.363 1_455 S
C1064 C1065 1.363 1_655 S
C1064 C1069 1.379 1_554 S
C1064 N1071 1.356 . S
C1065 C1064 1.363 1_455 S
C1065 C1068 1.363 . S
N1066 C1068 1.356 . S
N1066 H1078 0.984 . S
N1066 H1079 0.985 . S
N1067 C1069 1.356 . S
N1067 H1072 0.984 . S
N1067 H1073 0.985 . S
C1068 C1062 1.379 1_554 S
C1068 C1065 1.363 . S
C1068 N1066 1.356 . S
C1069 C1063 1.363 1_655 S
C1069 C1064 1.379 1_556 S
C1069 N1067 1.356 . S
N1070 C1062 1.356 . S
N1070 H1076 0.984 . S
N1070 H1077 0.984 . S
N1071 C1064 1.356 . S
N1071 H1074 0.984 . S
N1071 H1075 0.985 . S
H1072 N1067 0.984 . S
H1073 N1067 0.985 . S
H1074 N1071 0.984 . S
H1075 N1071 0.985 . S
H1076 N1070 0.984 . S
H1077 N1070 0.984 . S
H1078 N1066 0.984 . S
H1079 N1066 0.985 . S
C1080 C1081 1.363 . S
C1080 C1086 1.379 1_556 S
C1080 N1088 1.356 . S
C1081 C1080 1.363 . S
C1081 C1087 1.363 . S
C1082 C1083 1.363 . S
C1082 C1087 1.379 1_554 S
C1082 N1089 1.356 . S
C1083 C1082 1.363 . S
C1083 C1086 1.363 . S
N1084 C1086 1.356 . S
N1084 H1096 0.984 . S
N1084 H1097 0.985 . S
N1085 C1087 1.356 . S
N1085 H1090 0.984 . S
N1085 H1091 0.985 . S
C1086 C1080 1.379 1_554 S
C1086 C1083 1.363 . S
C1086 N1084 1.356 . S
C1087 C1081 1.363 . S
C1087 C1082 1.379 1_556 S
C1087 N1085 1.356 . S
N1088 C1080 1.356 . S
N1088 H1094 0.984 . S
N1088 H1095 0.984 . S
N1089 C1082 1.356 . S
N1089 H1092 0.984 . S
N1089 H1093 0.985 . S
H1090 N1085 0.984 . S
H1091 N1085 0.985 . S
H1092 N1089 0.984 . S
H1093 N1089 0.985 . S
H1094 N1088 0.984 . S
H1095 N1088 0.984 . S
H1096 N1084 0.984 . S
H1097 N1084 0.985 . S
C1098 C1099 1.363 . S
C1098 C1104 1.379 . S
C1098 N1106 1.356 . S
C1099 C1098 1.363 . S
C1099 C1105 1.363 . S
C1100 C1101 1.363 . S
C1100 C1105 1.379 . S
C1100 N1107 1.356 . S
C1101 C1100 1.363 . S
C1101 C1104 1.363 . S
N1102 C1104 1.356 . S
N1102 H1114 0.984 . S
N1102 H1115 0.985 . S
N1103 C1105 1.356 . S
N1103 H1108 0.984 . S
N1103 H1109 0.985 . S
C1104 C1098 1.379 . S
C1104 C1101 1.363 . S
C1104 N1102 1.356 . S
C1105 C1099 1.363 . S
C1105 C1100 1.379 . S
C1105 N1103 1.356 . S
N1106 C1098 1.356 . S
N1106 H1112 0.984 . S
N1106 H1113 0.984 . S
N1107 C1100 1.356 . S
N1107 H1110 0.984 . S
N1107 H1111 0.985 . S
H1108 N1103 0.984 . S
H1109 N1103 0.985 . S
H1110 N1107 0.984 . S
H1111 N1107 0.985 . S
H1112 N1106 0.984 . S
H1113 N1106 0.984 . S
H1114 N1102 0.984 . S
H1115 N1102 0.985 . S
C1116 C1117 1.363 . S
C1116 C1122 1.379 . S
C1116 N1124 1.356 . S
C1117 C1116 1.363 . S
C1117 C1123 1.363 . S
C1118 C1119 1.363 . S
C1118 C1123 1.379 . S
C1118 N1125 1.356 . S
C1119 C1118 1.363 . S
C1119 C1122 1.363 . S
N1120 C1122 1.356 . S
N1120 H1132 0.984 . S
N1120 H1133 0.985 . S
N1121 C1123 1.356 . S
N1121 H1126 0.984 . S
N1121 H1127 0.985 . S
C1122 C1116 1.379 . S
C1122 C1119 1.363 . S
C1122 N1120 1.356 . S
C1123 C1117 1.363 . S
C1123 C1118 1.379 . S
C1123 N1121 1.356 . S
N1124 C1116 1.356 . S
N1124 H1130 0.984 . S
N1124 H1131 0.984 . S
N1125 C1118 1.356 . S
N1125 H1128 0.984 . S
N1125 H1129 0.985 . S
H1126 N1121 0.984 . S
H1127 N1121 0.985 . S
H1128 N1125 0.984 . S
H1129 N1125 0.985 . S
H1130 N1124 0.984 . S
H1131 N1124 0.984 . S
H1132 N1120 0.984 . S
H1133 N1120 0.985 . S
C1134 C1135 1.363 . S
C1134 C1140 1.379 . S
C1134 N1142 1.356 . S
C1135 C1134 1.363 . S
C1135 C1141 1.363 . S
C1136 C1137 1.363 . S
C1136 C1141 1.379 . S
C1136 N1143 1.356 . S
C1137 C1136 1.363 . S
C1137 C1140 1.363 . S
N1138 C1140 1.356 . S
N1138 H1150 0.984 . S
N1138 H1151 0.985 . S
N1139 C1141 1.356 . S
N1139 H1144 0.984 . S
N1139 H1145 0.985 . S
C1140 C1134 1.379 . S
C1140 C1137 1.363 . S
C1140 N1138 1.356 . S
C1141 C1135 1.363 . S
C1141 C1136 1.379 . S
C1141 N1139 1.356 . S
N1142 C1134 1.356 . S
N1142 H1148 0.984 . S
N1142 H1149 0.984 . S
N1143 C1136 1.356 . S
N1143 H1146 0.984 . S
N1143 H1147 0.985 . S
H1144 N1139 0.984 . S
H1145 N1139 0.985 . S
H1146 N1143 0.984 . S
H1147 N1143 0.985 . S
H1148 N1142 0.984 . S
H1149 N1142 0.984 . S
H1150 N1138 0.984 . S
H1151 N1138 0.985 . S
C1152 C1153 1.363 . S
C1152 C1158 1.379 . S
C1152 N1160 1.356 . S
C1153 C1152 1.363 . S
C1153 C1159 1.363 . S
C1154 C1155 1.363 . S
C1154 C1159 1.379 . S
C1154 N1161 1.356 . S
C1155 C1154 1.363 . S
C1155 C1158 1.363 . S
N1156 C1158 1.356 . S
N1156 H1168 0.984 . S
N1156 H1169 0.985 . S
N1157 C1159 1.356 . S
N1157 H1162 0.984 . S
N1157 H1163 0.985 . S
C1158 C1152 1.379 . S
C1158 C1155 1.363 . S
C1158 N1156 1.356 . S
C1159 C1153 1.363 . S
C1159 C1154 1.379 . S
C1159 N1157 1.356 . S
N1160 C1152 1.356 . S
N1160 H1166 0.984 . S
N1160 H1167 0.984 . S
N1161 C1154 1.356 . S
N1161 H1164 0.984 . S
N1161 H1165 0.985 . S
H1162 N1157 0.984 . S
H1163 N1157 0.985 . S
H1164 N1161 0.984 . S
H1165 N1161 0.985 . S
H1166 N1160 0.984 . S
H1167 N1160 0.984 . S
H1168 N1156 0.984 . S
H1169 N1156 0.985 . S
C1170 C1171 1.363 . S
C1170 C1176 1.379 . S
C1170 N1178 1.356 . S
C1171 C1170 1.363 . S
C1171 C1177 1.363 . S
C1172 C1173 1.363 . S
C1172 C1177 1.379 . S
C1172 N1179 1.356 . S
C1173 C1172 1.363 . S
C1173 C1176 1.363 . S
N1174 C1176 1.356 . S
N1174 H1186 0.984 . S
N1174 H1187 0.985 . S
N1175 C1177 1.356 . S
N1175 H1180 0.984 . S
N1175 H1181 0.985 . S
C1176 C1170 1.379 . S
C1176 C1173 1.363 . S
C1176 N1174 1.356 . S
C1177 C1171 1.363 . S
C1177 C1172 1.379 . S
C1177 N1175 1.356 . S
N1178 C1170 1.356 . S
N1178 H1184 0.984 . S
N1178 H1185 0.984 . S
N1179 C1172 1.356 . S
N1179 H1182 0.984 . S
N1179 H1183 0.985 . S
H1180 N1175 0.984 . S
H1181 N1175 0.985 . S
H1182 N1179 0.984 . S
H1183 N1179 0.985 . S
H1184 N1178 0.984 . S
H1185 N1178 0.984 . S
H1186 N1174 0.984 . S
H1187 N1174 0.985 . S
C1188 C1189 1.363 . S
C1188 C1194 1.379 . S
C1188 N1196 1.356 . S
C1189 C1188 1.363 . S
C1189 C1195 1.363 . S
C1190 C1191 1.363 . S
C1190 C1195 1.379 . S
C1190 N1197 1.356 . S
C1191 C1190 1.363 . S
C1191 C1194 1.363 . S
N1192 C1194 1.356 . S
N1192 H1204 0.984 . S
N1192 H1205 0.985 . S
N1193 C1195 1.356 . S
N1193 H1198 0.984 . S
N1193 H1199 0.985 . S
C1194 C1188 1.379 . S
C1194 C1191 1.363 . S
C1194 N1192 1.356 . S
C1195 C1189 1.363 . S
C1195 C1190 1.379 . S
C1195 N1193 1.356 . S
N1196 C1188 1.356 . S
N1196 H1202 0.984 . S
N1196 H1203 0.984 . S
N1197 C1190 1.356 . S
N1197 H1200 0.984 . S
N1197 H1201 0.985 . S
H1198 N1193 0.984 . S
H1199 N1193 0.985 . S
H1200 N1197 0.984 . S
H1201 N1197 0.985 . S
H1202 N1196 0.984 . S
H1203 N1196 0.984 . S
H1204 N1192 0.984 . S
H1205 N1192 0.985 . S
C1206 C1207 1.363 . S
C1206 C1212 1.379 . S
C1206 N1214 1.356 . S
C1207 C1206 1.363 . S
C1207 C1213 1.363 . S
C1208 C1209 1.363 . S
C1208 C1213 1.379 . S
C1208 N1215 1.356 . S
C1209 C1208 1.363 . S
C1209 C1212 1.363 . S
N1210 C1212 1.356 1_545 S
N1210 H1222 0.984 . S
N1210 H1223 0.985 . S
N1211 C1213 1.356 . S
N1211 H1216 0.984 . S
N1211 H1217 0.985 . S
C1212 C1206 1.379 . S
C1212 C1209 1.363 . S
C1212 N1210 1.356 1_565 S
C1213 C1207 1.363 . S
C1213 C1208 1.379 . S
C1213 N1211 1.356 . S
N1214 C1206 1.356 . S
N1214 H1220 0.984 1_565 S
N1214 H1221 0.984 . S
N1215 C1208 1.356 . S
N1215 H1218 0.984 . S
N1215 H1219 0.985 . S
H1216 N1211 0.984 . S
H1217 N1211 0.985 . S
H1218 N1215 0.984 . S
H1219 N1215 0.985 . S
H1220 N1214 0.984 1_545 S
H1221 N1214 0.984 . S
H1222 N1210 0.984 . S
H1223 N1210 0.985 . S
C1224 C1225 1.363 . S
C1224 C1230 1.379 . S
C1224 N1232 1.356 . S
C1225 C1224 1.363 . S
C1225 C1231 1.363 . S
C1226 C1227 1.363 . S
C1226 C1231 1.379 . S
C1226 N1233 1.356 . S
C1227 C1226 1.363 . S
C1227 C1230 1.363 . S
N1228 C1230 1.356 . S
N1228 H1240 0.984 . S
N1228 H1241 0.985 . S
N1229 C1231 1.356 . S
N1229 H1234 0.984 . S
N1229 H1235 0.985 . S
C1230 C1224 1.379 . S
C1230 C1227 1.363 . S
C1230 N1228 1.356 . S
C1231 C1225 1.363 . S
C1231 C1226 1.379 . S
C1231 N1229 1.356 . S
N1232 C1224 1.356 . S
N1232 H1238 0.984 . S
N1232 H1239 0.984 . S
N1233 C1226 1.356 . S
N1233 H1236 0.984 . S
N1233 H1237 0.985 . S
H1234 N1229 0.984 . S
H1235 N1229 0.985 . S
H1236 N1233 0.984 . S
H1237 N1233 0.985 . S
H1238 N1232 0.984 . S
H1239 N1232 0.984 . S
H1240 N1228 0.984 . S
H1241 N1228 0.985 . S
C1242 C1243 1.363 . S
C1242 C1248 1.379 . S
C1242 N1250 1.356 . S
C1243 C1242 1.363 . S
C1243 C1249 1.363 . S
C1244 C1245 1.363 . S
C1244 C1249 1.379 . S
C1244 N1251 1.356 . S
C1245 C1244 1.363 . S
C1245 C1248 1.363 . S
N1246 C1248 1.356 . S
N1246 H1258 0.984 . S
N1246 H1259 0.985 . S
N1247 C1249 1.356 . S
N1247 H1252 0.984 . S
N1247 H1253 0.985 . S
C1248 C1242 1.379 . S
C1248 C1245 1.363 . S
C1248 N1246 1.356 . S
C1249 C1243 1.363 . S
C1249 C1244 1.379 . S
C1249 N1247 1.356 . S
N1250 C1242 1.356 . S
N1250 H1256 0.984 . S
N1250 H1257 0.984 . S
N1251 C1244 1.356 . S
N1251 H1254 0.984 . S
N1251 H1255 0.985 . S
H1252 N1247 0.984 . S
H1253 N1247 0.985 . S
H1254 N1251 0.984 . S
H1255 N1251 0.985 . S
H1256 N1250 0.984 . S
H1257 N1250 0.984 . S
H1258 N1246 0.984 . S
H1259 N1246 0.985 . S
C1260 C1261 1.363 . S
C1260 C1266 1.379 . S
C1260 N1268 1.356 . S
C1261 C1260 1.363 . S
C1261 C1267 1.363 . S
C1262 C1263 1.363 . S
C1262 C1267 1.379 . S
C1262 N1269 1.356 . S
C1263 C1262 1.363 . S
C1263 C1266 1.363 . S
N1264 C1266 1.356 . S
N1264 H1276 0.984 . S
N1264 H1277 0.985 . S
N1265 C1267 1.356 . S
N1265 H1270 0.984 . S
N1265 H1271 0.985 . S
C1266 C1260 1.379 . S
C1266 C1263 1.363 . S
C1266 N1264 1.356 . S
C1267 C1261 1.363 . S
C1267 C1262 1.379 . S
C1267 N1265 1.356 . S
N1268 C1260 1.356 . S
N1268 H1274 0.984 . S
N1268 H1275 0.981 . S
N1269 C1262 1.356 . S
N1269 H1272 0.984 . S
N1269 H1273 0.985 . S
H1270 N1265 0.984 . S
H1271 N1265 0.985 . S
H1272 N1269 0.984 . S
H1273 N1269 0.985 . S
H1274 N1268 0.984 . S
H1275 N1268 0.981 . S
H1276 N1264 0.984 . S
H1277 N1264 0.985 . S
C1278 C1279 1.363 . S
C1278 C1284 1.379 . S
C1278 N1286 1.356 . S
C1279 C1278 1.363 . S
C1279 C1285 1.363 . S
C1280 C1281 1.363 . S
C1280 C1285 1.379 . S
C1280 N1287 1.356 . S
C1281 C1280 1.363 . S
C1281 C1284 1.363 . S
N1282 C1284 1.356 . S
N1282 H1294 0.984 . S
N1282 H1295 0.985 . S
N1283 C1285 1.356 . S
N1283 H1288 0.984 . S
N1283 H1289 0.985 . S
C1284 C1278 1.379 . S
C1284 C1281 1.363 . S
C1284 N1282 1.356 . S
C1285 C1279 1.363 . S
C1285 C1280 1.379 . S
C1285 N1283 1.356 . S
N1286 C1278 1.356 . S
N1286 H1292 0.984 . S
N1286 H1293 0.984 . S
N1287 C1280 1.356 . S
N1287 H1290 0.984 . S
N1287 H1291 0.985 . S
H1288 N1283 0.984 . S
H1289 N1283 0.985 . S
H1290 N1287 0.984 . S
H1291 N1287 0.985 . S
H1292 N1286 0.984 . S
H1293 N1286 0.984 . S
H1294 N1282 0.984 . S
H1295 N1282 0.985 . S
C1296 C1297 1.363 . S
C1296 C1302 1.379 . S
C1296 N1304 1.356 . S
C1297 C1296 1.363 . S
C1297 C1303 1.363 . S
C1298 C1299 1.363 . S
C1298 C1303 1.379 . S
C1298 N1305 1.356 . S
C1299 C1298 1.363 . S
C1299 C1302 1.363 . S
N1300 C1302 1.356 . S
N1300 H1312 0.984 . S
N1300 H1313 0.985 . S
N1301 C1303 1.356 . S
N1301 H1306 0.984 . S
N1301 H1307 0.985 . S
C1302 C1296 1.379 . S
C1302 C1299 1.363 . S
C1302 N1300 1.356 . S
C1303 C1297 1.363 . S
C1303 C1298 1.379 . S
C1303 N1301 1.356 . S
N1304 C1296 1.356 . S
N1304 H1310 0.984 . S
N1304 H1311 0.984 . S
N1305 C1298 1.356 . S
N1305 H1308 0.984 . S
N1305 H1309 0.985 . S
H1306 N1301 0.984 . S
H1307 N1301 0.985 . S
H1308 N1305 0.984 . S
H1309 N1305 0.985 . S
H1310 N1304 0.984 . S
H1311 N1304 0.984 . S
H1312 N1300 0.984 . S
H1313 N1300 0.985 . S
C1314 C1315 1.363 . S
C1314 C1320 1.379 1_655 S
C1314 N1322 1.356 . S
C1315 C1314 1.363 . S
C1315 C1321 1.363 1_655 S
C1316 C1317 1.363 . S
C1316 C1321 1.379 . S
C1316 N1323 1.356 . S
C1317 C1316 1.363 . S
C1317 C1320 1.363 . S
N1318 C1320 1.356 . S
N1318 H1330 0.984 . S
N1318 H1331 0.985 . S
N1319 C1321 1.356 1_655 S
N1319 H1324 0.984 . S
N1319 H1325 0.985 . S
C1320 C1314 1.379 1_455 S
C1320 C1317 1.363 . S
C1320 N1318 1.356 . S
C1321 C1315 1.363 1_455 S
C1321 C1316 1.379 . S
C1321 N1319 1.356 1_455 S
N1322 C1314 1.356 . S
N1322 H1328 0.984 . S
N1322 H1329 0.984 . S
N1323 C1316 1.356 . S
N1323 H1326 0.984 . S
N1323 H1327 0.985 . S
H1324 N1319 0.984 . S
H1325 N1319 0.985 . S
H1326 N1323 0.984 . S
H1327 N1323 0.985 . S
H1328 N1322 0.984 . S
H1329 N1322 0.984 . S
H1330 N1318 0.984 . S
H1331 N1318 0.985 . S
C1332 C1333 1.363 . S
C1332 C1338 1.379 . S
C1332 N1340 1.356 . S
C1333 C1332 1.363 . S
C1333 C1339 1.363 . S
C1334 C1335 1.363 . S
C1334 C1339 1.379 . S
C1334 N1341 1.356 . S
C1335 C1334 1.363 . S
C1335 C1338 1.363 . S
N1336 C1338 1.356 . S
N1336 H1348 0.984 . S
N1336 H1349 0.985 . S
N1337 C1339 1.356 . S
N1337 H1342 0.984 . S
N1337 H1343 0.985 . S
C1338 C1332 1.379 . S
C1338 C1335 1.363 . S
C1338 N1336 1.356 . S
C1339 C1333 1.363 . S
C1339 C1334 1.379 . S
C1339 N1337 1.356 . S
N1340 C1332 1.356 . S
N1340 H1346 0.984 . S
N1340 H1347 0.984 . S
N1341 C1334 1.356 . S
N1341 H1344 0.984 . S
N1341 H1345 0.985 . S
H1342 N1337 0.984 . S
H1343 N1337 0.985 . S
H1344 N1341 0.984 . S
H1345 N1341 0.985 . S
H1346 N1340 0.984 . S
H1347 N1340 0.984 . S
H1348 N1336 0.984 . S
H1349 N1336 0.985 . S
C1350 C1351 1.363 . S
C1350 C1356 1.379 1_565 S
C1350 N1358 1.356 . S
C1351 C1350 1.363 . S
C1351 C1357 1.363 . S
C1352 C1353 1.363 . S
C1352 C1357 1.379 1_545 S
C1352 N1359 1.356 . S
C1353 C1352 1.363 . S
C1353 C1356 1.363 . S
N1354 C1356 1.356 . S
N1354 H1366 0.984 . S
N1354 H1367 0.985 . S
N1355 C1357 1.356 . S
N1355 H1360 0.984 . S
N1355 H1361 0.985 . S
C1356 C1350 1.379 1_545 S
C1356 C1353 1.363 . S
C1356 N1354 1.356 . S
C1357 C1351 1.363 . S
C1357 C1352 1.379 1_565 S
C1357 N1355 1.356 . S
N1358 C1350 1.356 . S
N1358 H1364 0.984 . S
N1358 H1365 0.984 . S
N1359 C1352 1.356 . S
N1359 H1362 0.984 . S
N1359 H1363 0.985 . S
H1360 N1355 0.984 . S
H1361 N1355 0.985 . S
H1362 N1359 0.984 . S
H1363 N1359 0.985 . S
H1364 N1358 0.984 . S
H1365 N1358 0.984 . S
H1366 N1354 0.984 . S
H1367 N1354 0.985 . S
C1368 C1369 1.363 . S
C1368 C1374 1.379 . S
C1368 N1376 1.356 . S
C1369 C1368 1.363 . S
C1369 C1375 1.363 . S
C1370 C1371 1.363 . S
C1370 C1375 1.379 . S
C1370 N1377 1.356 . S
C1371 C1370 1.363 . S
C1371 C1374 1.363 . S
N1372 C1374 1.356 . S
N1372 H1384 0.984 . S
N1372 H1385 0.985 . S
N1373 C1375 1.356 . S
N1373 H1378 0.984 . S
N1373 H1379 0.985 . S
C1374 C1368 1.379 . S
C1374 C1371 1.363 . S
C1374 N1372 1.356 . S
C1375 C1369 1.363 . S
C1375 C1370 1.379 . S
C1375 N1373 1.356 . S
N1376 C1368 1.356 . S
N1376 H1382 0.984 . S
N1376 H1383 0.984 . S
N1377 C1370 1.356 . S
N1377 H1380 0.984 . S
N1377 H1381 0.985 . S
H1378 N1373 0.984 . S
H1379 N1373 0.985 . S
H1380 N1377 0.984 . S
H1381 N1377 0.985 . S
H1382 N1376 0.984 . S
H1383 N1376 0.984 . S
H1384 N1372 0.984 . S
H1385 N1372 0.985 . S
C1386 C1387 1.363 . S
C1386 C1392 1.379 . S
C1386 N1394 1.356 . S
C1387 C1386 1.363 . S
C1387 C1393 1.363 . S
C1388 C1389 1.363 . S
C1388 C1393 1.379 . S
C1388 N1395 1.356 . S
C1389 C1388 1.363 . S
C1389 C1392 1.363 . S
N1390 C1392 1.356 . S
N1390 H1402 0.984 . S
N1390 H1403 0.985 . S
N1391 C1393 1.356 . S
N1391 H1396 0.984 . S
N1391 H1397 0.985 . S
C1392 C1386 1.379 . S
C1392 C1389 1.363 . S
C1392 N1390 1.356 . S
C1393 C1387 1.363 . S
C1393 C1388 1.379 . S
C1393 N1391 1.356 . S
N1394 C1386 1.356 . S
N1394 H1400 0.984 . S
N1394 H1401 0.984 . S
N1395 C1388 1.356 . S
N1395 H1398 0.984 . S
N1395 H1399 0.985 . S
H1396 N1391 0.984 . S
H1397 N1391 0.985 . S
H1398 N1395 0.984 . S
H1399 N1395 0.985 . S
H1400 N1394 0.984 . S
H1401 N1394 0.984 . S
H1402 N1390 0.984 . S
H1403 N1390 0.985 . S
C1404 C1405 1.363 . S
C1404 C1410 1.379 . S
C1404 N1412 1.356 . S
C1405 C1404 1.363 . S
C1405 C1411 1.363 . S
C1406 C1407 1.363 . S
C1406 C1411 1.379 . S
C1406 N1413 1.356 . S
C1407 C1406 1.363 . S
C1407 C1410 1.363 . S
N1408 C1410 1.356 . S
N1408 H1420 0.984 . S
N1408 H1421 0.985 . S
N1409 C1411 1.356 . S
N1409 H1414 0.984 . S
N1409 H1415 0.985 . S
C1410 C1404 1.379 . S
C1410 C1407 1.363 . S
C1410 N1408 1.356 . S
C1411 C1405 1.363 . S
C1411 C1406 1.379 . S
C1411 N1409 1.356 . S
N1412 C1404 1.356 . S
N1412 H1418 0.984 . S
N1412 H1419 0.984 . S
N1413 C1406 1.356 . S
N1413 H1416 0.984 . S
N1413 H1417 0.985 . S
H1414 N1409 0.984 . S
H1415 N1409 0.985 . S
H1416 N1413 0.984 . S
H1417 N1413 0.985 . S
H1418 N1412 0.984 . S
H1419 N1412 0.984 . S
H1420 N1408 0.984 . S
H1421 N1408 0.985 . S
C1422 C1423 1.363 . S
C1422 C1428 1.379 . S
C1422 N1430 1.356 . S
C1423 C1422 1.363 . S
C1423 C1429 1.363 . S
C1424 C1425 1.363 . S
C1424 C1429 1.379 . S
C1424 N1431 1.356 . S
C1425 C1424 1.363 . S
C1425 C1428 1.363 . S
N1426 C1428 1.356 . S
N1426 H1438 0.984 . S
N1426 H1439 0.985 . S
N1427 C1429 1.356 . S
N1427 H1432 0.984 . S
N1427 H1433 0.985 . S
C1428 C1422 1.379 . S
C1428 C1425 1.363 . S
C1428 N1426 1.356 . S
C1429 C1423 1.363 . S
C1429 C1424 1.379 . S
C1429 N1427 1.356 . S
N1430 C1422 1.356 . S
N1430 H1436 0.984 . S
N1430 H1437 0.984 . S
N1431 C1424 1.356 . S
N1431 H1434 0.984 . S
N1431 H1435 0.985 . S
H1432 N1427 0.984 . S
H1433 N1427 0.985 . S
H1434 N1431 0.984 . S
H1435 N1431 0.985 . S
H1436 N1430 0.984 . S
H1437 N1430 0.984 . S
H1438 N1426 0.984 . S
H1439 N1426 0.985 . S
C1440 C1441 1.363 . S
C1440 C1446 1.379 . S
C1440 N1448 1.356 . S
C1441 C1440 1.363 . S
C1441 C1447 1.363 . S
C1442 C1443 1.363 . S
C1442 C1447 1.379 . S
C1442 N1449 1.356 . S
C1443 C1442 1.363 . S
C1443 C1446 1.363 . S
N1444 C1446 1.356 . S
N1444 H1456 0.984 . S
N1444 H1457 0.985 . S
N1445 C1447 1.356 . S
N1445 H1450 0.984 . S
N1445 H1451 0.985 . S
C1446 C1440 1.379 . S
C1446 C1443 1.363 . S
C1446 N1444 1.356 . S
C1447 C1441 1.363 . S
C1447 C1442 1.379 . S
C1447 N1445 1.356 . S
N1448 C1440 1.356 . S
N1448 H1454 0.984 . S
N1448 H1455 0.984 . S
N1449 C1442 1.356 . S
N1449 H1452 0.984 . S
N1449 H1453 0.985 . S
H1450 N1445 0.984 . S
H1451 N1445 0.985 . S
H1452 N1449 0.984 . S
H1453 N1449 0.985 . S
H1454 N1448 0.984 . S
H1455 N1448 0.984 . S
H1456 N1444 0.984 . S
H1457 N1444 0.985 . S
C1458 C1459 1.363 . S
C1458 C1464 1.379 . S
C1458 N1466 1.356 . S
C1459 C1458 1.363 . S
C1459 C1465 1.363 . S
C1460 C1461 1.363 . S
C1460 C1465 1.379 . S
C1460 N1467 1.356 . S
C1461 C1460 1.363 . S
C1461 C1464 1.363 . S
N1462 C1464 1.356 . S
N1462 H1474 0.984 . S
N1462 H1475 0.985 . S
N1463 C1465 1.356 . S
N1463 H1468 0.984 . S
N1463 H1469 0.985 . S
C1464 C1458 1.379 . S
C1464 C1461 1.363 . S
C1464 N1462 1.356 . S
C1465 C1459 1.363 . S
C1465 C1460 1.379 . S
C1465 N1463 1.356 . S
N1466 C1458 1.356 . S
N1466 H1472 0.984 . S
N1466 H1473 0.984 . S
N1467 C1460 1.356 . S
N1467 H1470 0.984 . S
N1467 H1471 0.985 . S
H1468 N1463 0.984 . S
H1469 N1463 0.985 . S
H1470 N1467 0.984 . S
H1471 N1467 0.985 . S
H1472 N1466 0.984 . S
H1473 N1466 0.984 . S
H1474 N1462 0.984 . S
H1475 N1462 0.985 . S
C1476 C1477 1.363 . S
C1476 C1482 1.379 . S
C1476 N1484 1.356 . S
C1477 C1476 1.363 . S
C1477 C1483 1.363 . S
C1478 C1479 1.363 . S
C1478 C1483 1.379 . S
C1478 N1485 1.356 . S
C1479 C1478 1.363 . S
C1479 C1482 1.363 . S
N1480 C1482 1.356 . S
N1480 H1492 0.984 . S
N1480 H1493 0.985 . S
N1481 C1483 1.356 . S
N1481 H1486 0.984 . S
N1481 H1487 0.985 . S
C1482 C1476 1.379 . S
C1482 C1479 1.363 . S
C1482 N1480 1.356 . S
C1483 C1477 1.363 . S
C1483 C1478 1.379 . S
C1483 N1481 1.356 . S
N1484 C1476 1.356 . S
N1484 H1490 0.984 . S
N1484 H1491 0.984 . S
N1485 C1478 1.356 . S
N1485 H1488 0.984 . S
N1485 H1489 0.985 . S
H1486 N1481 0.984 . S
H1487 N1481 0.985 . S
H1488 N1485 0.984 . S
H1489 N1485 0.985 . S
H1490 N1484 0.984 . S
H1491 N1484 0.984 . S
H1492 N1480 0.984 . S
H1493 N1480 0.985 . S
C1494 C1495 1.363 . S
C1494 C1500 1.379 . S
C1494 N1502 1.356 . S
C1495 C1494 1.363 . S
C1495 C1501 1.363 . S
C1496 C1497 1.363 . S
C1496 C1501 1.379 . S
C1496 N1503 1.356 . S
C1497 C1496 1.363 . S
C1497 C1500 1.363 . S
N1498 C1500 1.356 . S
N1498 H1510 0.984 . S
N1498 H1511 0.985 . S
N1499 C1501 1.356 . S
N1499 H1504 0.984 . S
N1499 H1505 0.985 . S
C1500 C1494 1.379 . S
C1500 C1497 1.363 . S
C1500 N1498 1.356 . S
C1501 C1495 1.363 . S
C1501 C1496 1.379 . S
C1501 N1499 1.356 . S
N1502 C1494 1.356 . S
N1502 H1508 0.984 . S
N1502 H1509 0.984 . S
N1503 C1496 1.356 . S
N1503 H1506 0.984 . S
N1503 H1507 0.985 . S
H1504 N1499 0.984 . S
H1505 N1499 0.985 . S
H1506 N1503 0.984 . S
H1507 N1503 0.985 . S
H1508 N1502 0.984 . S
H1509 N1502 0.984 . S
H1510 N1498 0.984 . S
H1511 N1498 0.985 . S
C1512 C1513 1.363 . S
C1512 C1518 1.379 . S
C1512 N1520 1.356 . S
C1513 C1512 1.363 . S
C1513 C1519 1.363 . S
C1514 C1515 1.363 . S
C1514 C1519 1.379 . S
C1514 N1521 1.356 . S
C1515 C1514 1.363 . S
C1515 C1518 1.363 . S
N1516 C1518 1.356 . S
N1516 H1528 0.984 . S
N1516 H1529 0.985 . S
N1517 C1519 1.356 . S
N1517 H1522 0.984 . S
N1517 H1523 0.985 . S
C1518 C1512 1.379 . S
C1518 C1515 1.363 . S
C1518 N1516 1.356 . S
C1519 C1513 1.363 . S
C1519 C1514 1.379 . S
C1519 N1517 1.356 . S
N1520 C1512 1.356 . S
N1520 H1526 0.984 . S
N1520 H1527 0.984 . S
N1521 C1514 1.356 . S
N1521 H1524 0.984 . S
N1521 H1525 0.985 . S
H1522 N1517 0.984 . S
H1523 N1517 0.985 . S
H1524 N1521 0.984 . S
H1525 N1521 0.985 . S
H1526 N1520 0.984 . S
H1527 N1520 0.984 . S
H1528 N1516 0.984 . S
H1529 N1516 0.985 . S
C1530 C1531 1.363 . S
C1530 C1536 1.379 . S
C1530 N1538 1.356 . S
C1531 C1530 1.363 . S
C1531 C1537 1.363 . S
C1532 C1533 1.363 . S
C1532 C1537 1.379 . S
C1532 N1539 1.356 . S
C1533 C1532 1.363 . S
C1533 C1536 1.363 . S
N1534 C1536 1.356 . S
N1534 H1546 0.984 . S
N1534 H1547 0.985 . S
N1535 C1537 1.356 . S
N1535 H1540 0.984 . S
N1535 H1541 0.985 . S
C1536 C1530 1.379 . S
C1536 C1533 1.363 . S
C1536 N1534 1.356 . S
C1537 C1531 1.363 . S
C1537 C1532 1.379 . S
C1537 N1535 1.356 . S
N1538 C1530 1.356 . S
N1538 H1544 0.984 . S
N1538 H1545 0.984 . S
N1539 C1532 1.356 . S
N1539 H1542 0.984 . S
N1539 H1543 0.985 . S
H1540 N1535 0.984 . S
H1541 N1535 0.985 . S
H1542 N1539 0.984 . S
H1543 N1539 0.985 . S
H1544 N1538 0.984 . S
H1545 N1538 0.984 . S
H1546 N1534 0.984 . S
H1547 N1534 0.985 . S
C1548 C1549 1.363 1_545 S
C1548 C1554 1.379 . S
C1548 N1556 1.356 . S
C1549 C1548 1.363 1_565 S
C1549 C1555 1.363 . S
C1550 C1551 1.363 . S
C1550 C1555 1.379 1_545 S
C1550 N1557 1.356 . S
C1551 C1550 1.363 . S
C1551 C1554 1.363 . S
N1552 C1554 1.356 . S
N1552 H1564 0.984 . S
N1552 H1565 0.985 . S
N1553 C1555 1.356 . S
N1553 H1558 0.984 . S
N1553 H1559 0.985 . S
C1554 C1548 1.379 . S
C1554 C1551 1.363 . S
C1554 N1552 1.356 . S
C1555 C1549 1.363 . S
C1555 C1550 1.379 1_565 S
C1555 N1553 1.356 . S
N1556 C1548 1.356 . S
N1556 H1562 0.984 . S
N1556 H1563 0.984 . S
N1557 C1550 1.356 . S
N1557 H1560 0.984 . S
N1557 H1561 0.985 1_545 S
H1558 N1553 0.984 . S
H1559 N1553 0.985 . S
H1560 N1557 0.984 . S
H1561 N1557 0.985 1_565 S
H1562 N1556 0.984 . S
H1563 N1556 0.984 . S
H1564 N1552 0.984 . S
H1565 N1552 0.985 . S
C1566 C1567 1.363 . S
C1566 C1572 1.379 . S
C1566 N1574 1.356 . S
C1567 C1566 1.363 . S
C1567 C1573 1.363 1_655 S
C1568 C1569 1.363 . S
C1568 C1573 1.379 . S
C1568 N1575 1.356 . S
C1569 C1568 1.363 . S
C1569 C1572 1.363 1_455 S
N1570 C1572 1.356 . S
N1570 H1582 0.984 . S
N1570 H1583 0.985 1_655 S
N1571 C1573 1.356 . S
N1571 H1576 0.984 . S
N1571 H1577 0.985 . S
C1572 C1566 1.379 . S
C1572 C1569 1.363 1_655 S
C1572 N1570 1.356 . S
C1573 C1567 1.363 1_455 S
C1573 C1568 1.379 . S
C1573 N1571 1.356 . S
N1574 C1566 1.356 . S
N1574 H1580 0.984 . S
N1574 H1581 0.984 . S
N1575 C1568 1.356 . S
N1575 H1578 0.984 . S
N1575 H1579 0.985 . S
H1576 N1571 0.984 . S
H1577 N1571 0.985 . S
H1578 N1575 0.984 . S
H1579 N1575 0.985 . S
H1580 N1574 0.984 . S
H1581 N1574 0.984 . S
H1582 N1570 0.984 . S
H1583 N1570 0.985 1_455 S
C1584 C1585 1.363 . S
C1584 C1590 1.379 . S
C1584 N1592 1.356 . S
C1585 C1584 1.363 . S
C1585 C1591 1.363 . S
C1586 C1587 1.363 . S
C1586 C1591 1.379 . S
C1586 N1593 1.356 . S
C1587 C1586 1.363 . S
C1587 C1590 1.363 . S
N1588 C1590 1.356 . S
N1588 H1600 0.984 . S
N1588 H1601 0.985 . S
N1589 C1591 1.356 . S
N1589 H1594 0.984 . S
N1589 H1595 0.985 . S
C1590 C1584 1.379 . S
C1590 C1587 1.363 . S
C1590 N1588 1.356 . S
C1591 C1585 1.363 . S
C1591 C1586 1.379 . S
C1591 N1589 1.356 . S
N1592 C1584 1.356 . S
N1592 H1598 0.984 . S
N1592 H1599 0.984 . S
N1593 C1586 1.356 . S
N1593 H1596 0.984 . S
N1593 H1597 0.985 . S
H1594 N1589 0.984 . S
H1595 N1589 0.985 . S
H1596 N1593 0.984 . S
H1597 N1593 0.985 . S
H1598 N1592 0.984 . S
H1599 N1592 0.984 . S
H1600 N1588 0.984 . S
H1601 N1588 0.985 . S
C1602 C1603 1.363 1_565 S
C1602 C1608 1.379 . S
C1602 N1610 1.356 . S
C1603 C1602 1.363 1_545 S
C1603 C1609 1.363 . S
C1604 C1605 1.363 1_545 S
C1604 C1609 1.379 . S
C1604 N1611 1.356 . S
C1605 C1604 1.363 1_565 S
C1605 C1608 1.363 . S
N1606 C1608 1.356 . S
N1606 H1618 0.984 . S
N1606 H1619 0.985 . S
N1607 C1609 1.356 . S
N1607 H1612 0.984 . S
N1607 H1613 0.985 . S
C1608 C1602 1.379 . S
C1608 C1605 1.363 . S
C1608 N1606 1.356 . S
C1609 C1603 1.363 . S
C1609 C1604 1.379 . S
C1609 N1607 1.356 . S
N1610 C1602 1.356 . S
N1610 H1616 0.984 . S
N1610 H1617 0.984 1_565 S
N1611 C1604 1.356 . S
N1611 H1614 0.984 . S
N1611 H1615 0.985 . S
H1612 N1607 0.984 . S
H1613 N1607 0.985 . S
H1614 N1611 0.984 . S
H1615 N1611 0.985 . S
H1616 N1610 0.984 . S
H1617 N1610 0.984 1_545 S
H1618 N1606 0.984 . S
H1619 N1606 0.985 . S
C1620 C1621 1.363 . S
C1620 C1626 1.379 1_455 S
C1620 N1628 1.356 . S
C1621 C1620 1.363 . S
C1621 C1627 1.363 . S
C1622 C1623 1.363 1_455 S
C1622 C1627 1.379 . S
C1622 N1629 1.356 . S
C1623 C1622 1.363 1_655 S
C1623 C1626 1.363 . S
N1624 C1626 1.356 . S
N1624 H1636 0.984 . S
N1624 H1637 0.985 . S
N1625 C1627 1.356 . S
N1625 H1630 0.984 . S
N1625 H1631 0.985 . S
C1626 C1620 1.379 1_655 S
C1626 C1623 1.363 . S
C1626 N1624 1.356 . S
C1627 C1621 1.363 . S
C1627 C1622 1.379 . S
C1627 N1625 1.356 . S
N1628 C1620 1.356 . S
N1628 H1634 0.984 1_455 S
N1628 H1635 0.984 . S
N1629 C1622 1.356 . S
N1629 H1632 0.984 . S
N1629 H1633 0.985 . S
H1630 N1625 0.984 . S
H1631 N1625 0.985 . S
H1632 N1629 0.984 . S
H1633 N1629 0.985 . S
H1634 N1628 0.984 1_655 S
H1635 N1628 0.984 . S
H1636 N1624 0.984 . S
H1637 N1624 0.985 . S
C1638 C1639 1.363 . S
C1638 C1644 1.379 . S
C1638 N1646 1.356 . S
C1639 C1638 1.363 . S
C1639 C1645 1.363 . S
C1640 C1641 1.363 . S
C1640 C1645 1.379 . S
C1640 N1647 1.356 . S
C1641 C1640 1.363 . S
C1641 C1644 1.363 . S
N1642 C1644 1.356 . S
N1642 H1654 0.984 . S
N1642 H1655 0.985 . S
N1643 C1645 1.356 . S
N1643 H1648 0.984 . S
N1643 H1649 0.985 . S
C1644 C1638 1.379 . S
C1644 C1641 1.363 . S
C1644 N1642 1.356 . S
C1645 C1639 1.363 . S
C1645 C1640 1.379 . S
C1645 N1643 1.356 . S
N1646 C1638 1.356 . S
N1646 H1652 0.984 . S
N1646 H1653 0.984 . S
N1647 C1640 1.356 . S
N1647 H1650 0.984 . S
N1647 H1651 0.985 . S
H1648 N1643 0.984 . S
H1649 N1643 0.985 . S
H1650 N1647 0.984 . S
H1651 N1647 0.985 . S
H1652 N1646 0.984 . S
H1653 N1646 0.984 . S
H1654 N1642 0.984 . S
H1655 N1642 0.985 . S
C1656 C1657 1.363 . S
C1656 C1662 1.379 . S
C1656 N1664 1.356 . S
C1657 C1656 1.363 . S
C1657 C1663 1.363 . S
C1658 C1659 1.363 . S
C1658 C1663 1.379 . S
C1658 N1665 1.356 . S
C1659 C1658 1.363 . S
C1659 C1662 1.363 . S
N1660 C1662 1.356 . S
N1660 H1672 0.984 . S
N1660 H1673 0.985 . S
N1661 C1663 1.356 . S
N1661 H1666 0.984 . S
N1661 H1667 0.985 . S
C1662 C1656 1.379 . S
C1662 C1659 1.363 . S
C1662 N1660 1.356 . S
C1663 C1657 1.363 . S
C1663 C1658 1.379 . S
C1663 N1661 1.356 . S
N1664 C1656 1.356 . S
N1664 H1670 0.984 . S
N1664 H1671 0.984 . S
N1665 C1658 1.356 . S
N1665 H1668 0.984 . S
N1665 H1669 0.985 . S
H1666 N1661 0.984 . S
H1667 N1661 0.985 . S
H1668 N1665 0.984 . S
H1669 N1665 0.985 . S
H1670 N1664 0.984 . S
H1671 N1664 0.984 . S
H1672 N1660 0.984 . S
H1673 N1660 0.985 . S
C1674 C1675 1.363 . S
C1674 C1680 1.379 . S
C1674 N1682 1.356 . S
C1675 C1674 1.363 . S
C1675 C1681 1.363 . S
C1676 C1677 1.363 . S
C1676 C1681 1.379 . S
C1676 N1683 1.356 . S
C1677 C1676 1.363 . S
C1677 C1680 1.363 . S
N1678 C1680 1.356 . S
N1678 H1690 0.984 . S
N1678 H1691 0.985 . S
N1679 C1681 1.356 . S
N1679 H1684 0.984 . S
N1679 H1685 0.985 . S
C1680 C1674 1.379 . S
C1680 C1677 1.363 . S
C1680 N1678 1.356 . S
C1681 C1675 1.363 . S
C1681 C1676 1.379 . S
C1681 N1679 1.356 . S
N1682 C1674 1.356 . S
N1682 H1688 0.984 . S
N1682 H1689 0.984 . S
N1683 C1676 1.356 . S
N1683 H1686 0.984 . S
N1683 H1687 0.985 . S
H1684 N1679 0.984 . S
H1685 N1679 0.985 . S
H1686 N1683 0.984 . S
H1687 N1683 0.985 . S
H1688 N1682 0.984 . S
H1689 N1682 0.984 . S
H1690 N1678 0.984 . S
H1691 N1678 0.985 . S
C721 C19 1.328 . S
C723 C95 1.392 . S
C739 C15 1.392 . S
C741 C59 1.328 . S
C757 C55 1.392 . S
C759 C99 1.328 . S
C775 C139 1.328 . S
C777 C175 1.392 . S
C793 C215 1.392 . S
C795 C179 1.328 . S
C811 C219 1.328 . S
C813 C135 1.392 . S
C829 C335 1.392 . S
C831 C259 1.328 . S
C847 C255 1.392 . S
C849 C299 1.328 . S
C865 C339 1.328 . S
C867 C295 1.392 . S
C883 C415 1.391 . S
C885 C379 1.328 . S
C901 C419 1.328 . S
C903 C455 1.392 . S
C919 C375 1.392 . S
C921 C459 1.328 . S
C937 C499 1.328 . S
C939 C575 1.392 . S
C955 C495 1.392 . S
C957 C539 1.328 . S
C973 C535 1.392 . S
C975 C579 1.328 . S
C991 C655 1.392 . S
C993 C619 1.328 . S
C1009 C695 1.392 . S
C1011 C659 1.328 . S
C1027 C615 1.392 . S
C1029 C699 1.328 . S
C1045 C18 1.660 . S
C1047 C218 1.660 . S
C1063 C138 1.660 . S
C1065 C58 1.660 . S
C1081 C178 1.660 . S
C1083 C98 1.660 . S
C1099 C258 1.660 . S
C1101 C458 1.660 . S
C1117 C298 1.660 . S
C1119 C378 1.660 . S
C1135 C418 1.660 . S
C1137 C338 1.660 . S
C1153 C498 1.660 . S
C1155 C698 1.660 . S
C1171 C618 1.660 . S
C1173 C538 1.660 . S
C1189 C658 1.660 . S
C1191 C578 1.660 . S
C1207 C409 2.538 . S
C1209 C9 2.538 1_565 S
C1225 C49 2.538 . S
C1227 C449 2.538 . S
C1243 C369 2.538 . S
C1245 C89 2.538 . S
C1261 C129 2.538 1_655 S
C1263 C569 2.538 . S
C1279 C169 2.538 . S
C1281 C489 2.538 . S
C1297 C529 2.538 . S
C1299 C209 2.538 . S
C1315 C649 2.538 . S
C1317 C249 2.538 . S
C1333 C289 2.538 . S
C1335 C689 2.538 . S
C1351 C329 2.538 . S
C1353 C609 2.538 . S
C1369 C86 1.878 . S
C1371 C10 1.905 . S
C1387 C6 1.878 . S
C1389 C50 1.905 . S
C1405 C90 1.905 . S
C1407 C46 1.878 . S
C1423 C166 1.878 . S
C1425 C130 1.905 . S
C1441 C206 1.878 . S
C1443 C170 1.905 . S
C1459 C210 1.905 . S
C1461 C126 1.878 . S
C1477 C326 1.878 . S
C1479 C250 1.905 . S
C1495 C290 1.905 . S
C1497 C246 1.878 . S
C1513 C286 1.878 . S
C1515 C330 1.905 . S
C1531 C370 1.905 . S
C1533 C406 1.878 . S
C1549 C410 1.905 . S
C1551 C446 1.878 . S
C1567 C366 1.878 . S
C1569 C450 1.905 . S
C1585 C490 1.905 . S
C1587 C566 1.878 . S
C1603 C530 1.905 . S
C1605 C486 1.878 . S
C1621 C526 1.878 . S
C1623 C570 1.905 . S
C1639 C610 1.905 . S
C1641 C646 1.878 . S
C1657 C650 1.905 . S
C1659 C686 1.878 . S
C1675 C606 1.878 . S
C1677 C690 1.905 . S
