# Generated by pormake.
# Topology umj, (4)-cn, num edge types: 1
# Building blocks:
#     Node 0, Type 0, BuildingBlock: QUQFOY_clean_sbu_1, # of connection points: 4
#     Node 1, Type 0, BuildingBlock: QUQFOY_clean_sbu_1, # of connection points: 4
#     Node 2, Type 0, BuildingBlock: QUQFOY_clean_sbu_1, # of connection points: 4
#     Node 3, Type 0, BuildingBlock: QUQFOY_clean_sbu_1, # of connection points: 4
#     Node 4, Type 0, BuildingBlock: QUQFOY_clean_sbu_1, # of connection points: 4
#     Node 5, Type 0, BuildingBlock: QUQFOY_clean_sbu_1, # of connection points: 4
#     Node 6, Type 0, BuildingBlock: QUQFOY_clean_sbu_1, # of connection points: 4
#     Node 7, Type 0, BuildingBlock: QUQFOY_clean_sbu_1, # of connection points: 4
#     Node 8, Type 0, BuildingBlock: QUQFOY_clean_sbu_1, # of connection points: 4
#     Node 9, Type 0, BuildingBlock: QUQFOY_clean_sbu_1, # of connection points: 4
#     Node 10, Type 0, BuildingBlock: QUQFOY_clean_sbu_1, # of connection points: 4
#     Node 11, Type 0, BuildingBlock: QUQFOY_clean_sbu_1, # of connection points: 4
#     Edge 12, Type (0, 0), BuildingBlock: XUDNAN_clean_linker_2, # of connection points: 2
#     Edge 13, Type (0, 0), BuildingBlock: XUDNAN_clean_linker_2, # of connection points: 2
#     Edge 14, Type (0, 0), BuildingBlock: XUDNAN_clean_linker_2, # of connection points: 2
#     Edge 15, Type (0, 0), BuildingBlock: XUDNAN_clean_linker_2, # of connection points: 2
#     Edge 16, Type (0, 0), BuildingBlock: XUDNAN_clean_linker_2, # of connection points: 2
#     Edge 17, Type (0, 0), BuildingBlock: XUDNAN_clean_linker_2, # of connection points: 2
#     Edge 18, Type (0, 0), BuildingBlock: XUDNAN_clean_linker_2, # of connection points: 2
#     Edge 19, Type (0, 0), BuildingBlock: XUDNAN_clean_linker_2, # of connection points: 2
#     Edge 20, Type (0, 0), BuildingBlock: XUDNAN_clean_linker_2, # of connection points: 2
#     Edge 21, Type (0, 0), BuildingBlock: XUDNAN_clean_linker_2, # of connection points: 2
#     Edge 22, Type (0, 0), BuildingBlock: XUDNAN_clean_linker_2, # of connection points: 2
#     Edge 23, Type (0, 0), BuildingBlock: XUDNAN_clean_linker_2, # of connection points: 2
#     Edge 24, Type (0, 0), BuildingBlock: XUDNAN_clean_linker_2, # of connection points: 2
#     Edge 25, Type (0, 0), BuildingBlock: XUDNAN_clean_linker_2, # of connection points: 2
#     Edge 26, Type (0, 0), BuildingBlock: XUDNAN_clean_linker_2, # of connection points: 2
#     Edge 27, Type (0, 0), BuildingBlock: XUDNAN_clean_linker_2, # of connection points: 2
#     Edge 28, Type (0, 0), BuildingBlock: XUDNAN_clean_linker_2, # of connection points: 2
#     Edge 29, Type (0, 0), BuildingBlock: XUDNAN_clean_linker_2, # of connection points: 2
#     Edge 30, Type (0, 0), BuildingBlock: XUDNAN_clean_linker_2, # of connection points: 2
#     Edge 31, Type (0, 0), BuildingBlock: XUDNAN_clean_linker_2, # of connection points: 2
#     Edge 32, Type (0, 0), BuildingBlock: XUDNAN_clean_linker_2, # of connection points: 2
#     Edge 33, Type (0, 0), BuildingBlock: XUDNAN_clean_linker_2, # of connection points: 2
#     Edge 34, Type (0, 0), BuildingBlock: XUDNAN_clean_linker_2, # of connection points: 2
#     Edge 35, Type (0, 0), BuildingBlock: XUDNAN_clean_linker_2, # of connection points: 2
# Relax obj value: 0.075
# Max RMSD: 0.416
# Mean RMSD: 0.259
data_MOF--net-umj--node1-QUQFOY_clean_sbu_1--edge1-XUDNAN_clean_linker_2
_symmetry_space_group_name_H-M    P1
_symmetry_Int_Tables_number       1
_symmetry_cell_setting            triclinic
loop_
_symmetry_equiv_pos_as_xyz
'x, y, z'
_cell_length_a     29.620253
_cell_length_b     29.526688
_cell_length_c     83.96714
_cell_angle_alpha  94.81628
_cell_angle_beta   88.533275
_cell_angle_gamma 119.71441
loop_
_atom_site_label
_atom_site_type_symbol
_atom_site_fract_x
_atom_site_fract_y
_atom_site_fract_z
_atom_type_partial_charge
O0 O 0.01332 0.2259 0.12147 0.0
Cd1 Cd 0.01738 0.22744 0.09743 0.0
Cd2 Cd 0.11641 0.26962 0.09891 0.0
O3 O 0.09488 0.29027 0.12183 0.0
O4 O 0.96994 0.24828 0.08648 0.0
O5 O 0.04927 0.30521 0.09513 0.0
C6 C 1.00693 0.29648 0.08842 0.0
C7 C 0.14568 0.31428 0.07544 0.0
C8 C 0.0524 0.26282 0.12917 0.0
C9 C 0.07031 0.16128 0.08908 0.0
O10 O 0.10978 0.19793 0.09667 0.0
O11 O 0.0317 0.16774 0.08599 0.0
O12 O 0.17793 0.32459 0.08711 0.0
O13 O 0.09794 0.27938 0.07706 0.0
O14 O 0.70308 0.96969 0.44355 0.0
Cd15 Cd 0.71084 0.98575 0.42051 0.0
Cd16 Cd 0.7855 0.07629 0.42835 0.0
O17 O 0.74198 0.05489 0.45001 0.0
O18 O 0.64141 0.95863 0.40848 0.0
O19 O 0.68581 0.03829 0.42034 0.0
C20 C 0.64503 1.00373 0.41238 0.0
C21 C 0.78912 0.11956 0.40529 0.0
C22 C 0.71554 1.00772 0.45403 0.0
C23 C 0.82522 0.01266 0.41582 0.0
O24 O 0.83647 0.05013 0.42642 0.0
O25 O 0.77865 0.98636 0.40993 0.0
O26 O 0.81032 0.14614 0.41871 0.0
O27 O 0.76417 0.06948 0.40521 0.0
O28 O 0.72419 0.7442 0.77857 0.0
Cd29 Cd 0.71831 0.73683 0.75433 0.0
Cd30 Cd 0.7005 0.81487 0.75748 0.0
O31 O 0.67456 0.78065 0.77959 0.0
O32 O 0.68014 0.65992 0.74526 0.0
O33 O 0.64294 0.70858 0.74903 0.0
C34 C 0.6385 0.66374 0.74475 0.0
C35 C 0.65804 0.81876 0.7346 0.0
C36 C 0.69622 0.7591 0.78656 0.0
C37 C 0.80469 0.84545 0.74779 0.0
O38 O 0.77861 0.86132 0.7564 0.0
O39 O 0.78441 0.7966 0.74318 0.0
O40 O 0.66212 0.8473 0.74765 0.0
O41 O 0.67554 0.78676 0.73488 0.0
O42 O 0.98949 0.70301 0.11063 0.0
Cd43 Cd 0.01284 0.70625 0.08747 0.0
Cd44 Cd 0.91546 0.69301 0.08268 0.0
O45 O 0.90498 0.66685 0.10586 0.0
O46 O 0.05815 0.67158 0.08497 0.0
O47 O 0.97789 0.63557 0.07561 0.0
C48 C 0.01809 0.63114 0.07816 0.0
C49 C 0.87391 0.6512 0.05788 0.0
C50 C 0.94315 0.68154 0.11564 0.0
C51 C 1.00638 0.7999 0.079 0.0
O52 O 0.95849 0.77248 0.08214 0.0
O53 O 0.03564 0.77919 0.07825 0.0
O54 O 0.85171 0.66827 0.06828 0.0
O55 O 0.91685 0.6544 0.06211 0.0
O56 O 0.23133 0.99538 0.44478 0.0
Cd57 Cd 0.24267 1.00939 0.4213 0.0
Cd58 Cd 0.17806 0.90333 0.41631 0.0
O59 O 0.20458 0.91076 0.44017 0.0
O60 O 0.31766 0.06521 0.41717 0.0
O61 O 0.28733 0.98047 0.41266 0.0
C62 C 0.32632 0.02703 0.41295 0.0
C63 C 0.18786 0.85985 0.39272 0.0
C64 C 0.22015 0.95177 0.44991 0.0
C65 C 0.1332 0.97062 0.40942 0.0
O66 O 0.12427 0.92622 0.41323 0.0
O67 O 0.17968 1.00936 0.40985 0.0
O68 O 0.15302 0.83372 0.40294 0.0
O69 O 0.21833 0.9088 0.39641 0.0
O70 O 0.22432 0.26857 0.77978 0.0
Cd71 Cd 0.22945 0.265 0.75584 0.0
Cd72 Cd 0.26192 0.19867 0.7576 0.0
O73 O 0.28038 0.23993 0.78094 0.0
O74 O 0.25249 0.33466 0.74634 0.0
O75 O 0.30707 0.30822 0.75249 0.0
C76 C 0.29993 0.34385 0.74722 0.0
C77 C 0.30681 0.20831 0.73332 0.0
C78 C 0.2552 0.26086 0.78787 0.0
C79 C 0.156 0.14715 0.7474 0.0
O80 O 0.18789 0.13975 0.75505 0.0
O81 O 0.16767 0.19364 0.74439 0.0
O82 O 0.31302 0.18381 0.7444 0.0
O83 O 0.27685 0.22775 0.73618 0.0
O84 O 0.73059 1.00397 0.57635 0.0
Cd85 Cd 0.72895 0.01356 0.60046 0.0
Cd86 Cd 0.69266 0.91273 0.6004 0.0
O87 O 0.67026 0.92095 0.57727 0.0
O88 O 0.70663 0.06668 0.60858 0.0
O89 O 0.65297 0.9817 0.60535 0.0
C90 C 0.65971 0.02772 0.60912 0.0
C91 C 0.6478 0.88172 0.62423 0.0
C92 C 0.69644 0.96108 0.56927 0.0
C93 C 0.80091 0.97395 0.60967 0.0
O94 O 0.76779 0.93073 0.60253 0.0
O95 O 0.79058 0.01123 0.6123 0.0
O96 O 0.6462 0.84905 0.61266 0.0
O97 O 0.67239 0.93062 0.62195 0.0
O98 O 0.72101 0.74893 0.91155 0.0
Cd99 Cd 0.7331 0.73932 0.93412 0.0
Cd100 Cd 0.80536 0.72086 0.92492 0.0
O101 O 0.75792 0.70183 0.9037 0.0
O102 O 0.66635 0.69848 0.94678 0.0
O103 O 0.70597 0.66118 0.93339 0.0
C104 C 0.6678 0.65626 0.94214 0.0
C105 C 0.80828 0.67794 0.94734 0.0
C106 C 0.73131 0.72363 0.90048 0.0
C107 C 0.84977 0.82429 0.93833 0.0
O108 O 0.85874 0.79723 0.92749 0.0
O109 O 0.80412 0.80531 0.94438 0.0
O110 O 0.82679 0.67131 0.93375 0.0
O111 O 0.78707 0.70681 0.94797 0.0
O112 O 0.94159 0.71975 0.2431 0.0
Cd113 Cd 0.95921 0.72949 0.26682 0.0
Cd114 Cd 0.05409 0.79329 0.25932 0.0
O115 O 0.02362 0.74481 0.23771 0.0
O116 O 0.91661 0.66465 0.279 0.0
O117 O 0.99431 0.68683 0.26955 0.0
C118 C 0.95446 0.65476 0.27713 0.0
C119 C 0.10086 0.79168 0.28147 0.0
C120 C 0.97608 0.72405 0.23305 0.0
C121 C 1.00411 0.8478 0.27282 0.0
O122 O 0.03687 0.8517 0.26218 0.0
O123 O 0.97454 0.80341 0.2784 0.0
O124 O 0.12491 0.81097 0.26851 0.0
O125 O 0.05147 0.77298 0.28155 0.0
O126 O 0.22548 0.96888 0.5765 0.0
Cd127 Cd 0.23566 0.98751 0.60022 0.0
Cd128 Cd 0.25122 0.07859 0.59578 0.0
O129 O 0.27077 0.05341 0.57322 0.0
O130 O 0.27675 0.95924 0.61116 0.0
O131 O 0.31278 0.03817 0.60258 0.0
C132 C 0.31823 1.00352 0.60925 0.0
C133 C 0.29523 0.12609 0.61998 0.0
C134 C 0.24979 1.00555 0.5674 0.0
C135 C 0.14967 0.01673 0.6065 0.0
O136 O 0.17469 0.05313 0.59736 0.0
O137 O 0.17031 0.99051 0.61114 0.0
O138 O 0.29785 0.15041 0.60754 0.0
O139 O 0.26962 0.07588 0.61847 0.0
O140 O 0.25528 0.24895 0.91019 0.0
Cd141 Cd 0.26728 0.24715 0.93387 0.0
Cd142 Cd 0.20257 0.28421 0.93852 0.0
O143 O 0.22983 0.3074 0.91537 0.0
O144 O 0.34279 0.26826 0.93851 0.0
O145 O 0.31085 0.3214 0.94299 0.0
C146 C 0.35062 0.3148 0.9428 0.0
C147 C 0.20764 0.33191 0.963 0.0
C148 C 0.24459 0.2823 0.90537 0.0
C149 C 0.15858 0.17323 0.94407 0.0
O150 O 0.1483 0.20731 0.9397 0.0
O151 O 0.20577 0.18308 0.94475 0.0
O152 O 0.17641 0.32715 0.95167 0.0
O153 O 0.23846 0.31348 0.95989 0.0
O154 O 0.01836 0.27679 0.25358 0.0
Cd155 Cd 1.00678 0.27855 0.27729 0.0
Cd156 Cd 0.91639 0.19686 0.27111 0.0
O157 O 0.93333 0.23438 0.24921 0.0
O158 O 0.03839 0.35328 0.28786 0.0
O159 O 0.95615 0.30548 0.28005 0.0
C160 C 0.9931 0.34917 0.28624 0.0
C161 C 0.87363 0.19838 0.29533 0.0
C162 C 0.97981 0.26073 0.24408 0.0
C163 C 0.98771 0.16947 0.28235 0.0
O164 O 0.95084 0.15322 0.2722 0.0
O165 O 1.01034 0.21717 0.28838 0.0
O166 O 0.84704 0.16814 0.283 0.0
O167 O 0.92269 0.22774 0.29372 0.0
H168 H 0.92771 0.20163 0.21623 0.0
H169 H 0.05979 0.34922 0.23394 0.0
H170 H 0.09003 0.3679 0.20644 0.0
H171 H 0.99545 0.16874 0.18703 0.0
H172 H 0.94414 0.13986 0.17207 0.0
H173 H 0.92849 0.1402 0.19292 0.0
H174 H 0.87691 0.18743 0.18783 0.0
H175 H 0.89189 0.18668 0.1669 0.0
H176 H 0.9082 0.24769 0.17818 0.0
H177 H 0.11172 0.367 0.17754 0.0
H178 H 0.11993 0.3486 0.14867 0.0
H179 H 0.97415 0.20214 0.14914 0.0
C180 C 0.96202 0.23853 0.21422 0.0
C181 C 0.99117 0.27415 0.22724 0.0
C182 C 0.03676 0.32139 0.22417 0.0
C183 C 0.05433 0.33242 0.20857 0.0
C184 C 0.02595 0.29587 0.19604 0.0
C185 C 0.98045 0.25011 0.19861 0.0
C186 C 0.95932 0.21624 0.18301 0.0
C187 C 0.95672 0.16313 0.18381 0.0
C188 C 0.90591 0.20911 0.17873 0.0
C189 C 1.00053 0.24967 0.17145 0.0
C190 C 0.03851 0.2955 0.17922 0.0
C191 C 0.08184 0.33153 0.17125 0.0
C192 C 0.08633 0.32064 0.15486 0.0
C193 C 0.04768 0.27413 0.14656 0.0
C194 C 1.00419 0.23837 0.15506 0.0
H195 H 0.7607 0.06886 0.48224 0.0
H196 H 0.63531 0.91764 0.46375 0.0
H197 H 0.61397 0.89063 0.49114 0.0
H198 H 0.80342 0.02132 0.51212 0.0
H199 H 0.8187 0.07502 0.52692 0.0
H200 H 0.82122 0.08507 0.50599 0.0
H201 H 0.75664 0.12006 0.51013 0.0
H202 H 0.75427 0.11052 0.53112 0.0
H203 H 0.69504 0.08062 0.5193 0.0
H204 H 0.61016 0.87678 0.52044 0.0
H205 H 0.62297 0.87914 0.54959 0.0
H206 H 0.75063 0.03872 0.54918 0.0
C207 C 0.728 0.0306 0.484 0.0
C208 C 0.6996 0.99553 0.47079 0.0
C209 C 0.65775 0.94529 0.47363 0.0
C210 C 0.6452 0.92949 0.48918 0.0
C211 C 0.67475 0.96427 0.5019 0.0
C212 C 0.71506 0.01394 0.49953 0.0
C213 C 0.74231 0.04256 0.51527 0.0
C214 C 0.79981 0.05681 0.51505 0.0
C215 C 0.73671 0.09133 0.51918 0.0
C216 C 0.71159 1.00096 0.52673 0.0
C217 C 0.67262 0.95617 0.51881 0.0
C218 C 0.64029 0.91188 0.52681 0.0
C219 C 0.64792 0.91347 0.54337 0.0
C220 C 0.68764 0.95903 0.55177 0.0
C221 C 0.71963 1.00326 0.54322 0.0
H222 H 0.74908 0.72822 0.80529 0.0
H223 H 0.63007 0.77353 0.80733 0.0
H224 H 0.62173 0.7623 0.83634 0.0
H225 H 0.69353 0.63069 0.8345 0.0
H226 H 0.75598 0.64817 0.84294 0.0
H227 H 0.75035 0.65659 0.82221 0.0
H228 H 0.82035 0.75445 0.82672 0.0
H229 H 0.82635 0.74631 0.84743 0.0
H230 H 0.81148 0.79548 0.84216 0.0
H231 H 0.6289 0.74959 0.86517 0.0
H232 H 0.65338 0.74079 0.89203 0.0
H233 H 0.76885 0.7044 0.87153 0.0
C234 C 0.72079 0.73529 0.81176 0.0
C235 C 0.68993 0.75153 0.80395 0.0
C236 C 0.65402 0.761 0.81299 0.0
C237 C 0.64892 0.75452 0.82947 0.0
C238 C 0.68004 0.73862 0.83675 0.0
C239 C 0.71542 0.7293 0.8282 0.0
C240 C 0.7461 0.71514 0.83904 0.0
C241 C 0.73586 0.65932 0.83439 0.0
C242 C 0.80452 0.75524 0.83882 0.0
C243 C 0.72291 0.71856 0.85511 0.0
C244 C 0.68456 0.73171 0.85345 0.0
C245 C 0.65866 0.73905 0.86658 0.0
C246 C 0.67297 0.73397 0.88183 0.0
C247 C 0.71304 0.72176 0.88396 0.0
C248 C 0.73763 0.71301 0.87032 0.0
H249 H 0.01834 0.71277 0.13882 0.0
H250 H 0.85109 0.64022 0.13227 0.0
H251 H 0.84102 0.63795 0.16165 0.0
H252 H 0.01727 0.6425 0.17267 0.0
H253 H 0.07275 0.69887 0.18226 0.0
H254 H 0.06604 0.69101 0.16078 0.0
H255 H 0.07338 0.78219 0.16087 0.0
H256 H 0.08002 0.79032 0.18232 0.0
H257 H 0.0294 0.79596 0.17277 0.0
H258 H 0.85035 0.64848 0.19194 0.0
H259 H 0.8773 0.67148 0.22033 0.0
H260 H 0.03904 0.73816 0.20686 0.0
C261 C 0.97935 0.69572 0.14346 0.0
C262 C 0.93538 0.67644 0.13314 0.0
C263 C 0.88531 0.655 0.13987 0.0
C264 C 0.87928 0.65355 0.15655 0.0
C265 C 0.92365 0.67356 0.16633 0.0
C266 C 0.97271 0.69413 0.15999 0.0
C267 C 0.01443 0.71542 0.17302 0.0
C268 C 0.04438 0.68513 0.17213 0.0
C269 C 0.05147 0.77447 0.17219 0.0
C270 C 0.98136 0.70446 0.18779 0.0
C271 C 0.92907 0.67992 0.18367 0.0
C272 C 0.89114 0.66736 0.19525 0.0
C273 C 0.90697 0.68071 0.21139 0.0
C274 C 0.96042 0.70664 0.21593 0.0
C275 C 0.99792 0.71801 0.20387 0.0
H276 H 0.26724 0.06537 0.54177 0.0
H277 H 0.2344 0.91192 0.55379 0.0
H278 H 0.22668 0.88237 0.52519 0.0
H279 H 0.177 0.02026 0.50962 0.0
H280 H 0.21692 0.07228 0.49721 0.0
H281 H 0.22468 0.08342 0.51862 0.0
H282 H 0.32257 0.11258 0.51623 0.0
H283 H 0.31518 0.10192 0.49478 0.0
H284 H 0.34186 0.06972 0.50541 0.0
H285 H 0.21612 0.86687 0.49522 0.0
H286 H 0.20679 0.86846 0.46608 0.0
H287 H 0.2462 0.03141 0.47346 0.0
C288 C 0.25957 0.02597 0.53837 0.0
C289 C 0.25162 0.99112 0.55008 0.0
C290 C 0.24062 0.93946 0.54508 0.0
C291 C 0.23617 0.92219 0.52883 0.0
C292 C 0.24285 0.95694 0.51759 0.0
C293 C 0.25467 1.00787 0.52211 0.0
C294 C 0.25754 0.03642 0.50759 0.0
C295 C 0.21659 0.05412 0.50831 0.0
C296 C 0.31257 0.08291 0.50591 0.0
C297 C 0.24484 0.99342 0.49432 0.0
C298 C 0.23666 0.94792 0.50031 0.0
C299 C 0.22289 0.90247 0.49036 0.0
C300 C 0.21751 0.90366 0.47382 0.0
C301 C 0.22585 0.94996 0.46738 0.0
C302 C 0.23979 0.99532 0.47789 0.0
H303 H 0.27944 0.21904 0.81252 0.0
H304 H 0.24174 0.3385 0.80261 0.0
H305 H 0.23991 0.36044 0.83146 0.0
H306 H 0.19566 0.17337 0.84505 0.0
H307 H 0.23817 0.16142 0.85682 0.0
H308 H 0.24235 0.15848 0.83537 0.0
H309 H 0.3403 0.22757 0.83756 0.0
H310 H 0.3365 0.23043 0.85905 0.0
H311 H 0.3607 0.28939 0.84892 0.0
H312 H 0.23501 0.36518 0.86134 0.0
H313 H 0.22951 0.35312 0.89026 0.0
H314 H 0.26954 0.23043 0.88111 0.0
C315 C 0.27209 0.25063 0.81646 0.0
C316 C 0.26099 0.27718 0.80527 0.0
C317 C 0.25033 0.31752 0.81092 0.0
C318 C 0.24928 0.33042 0.82731 0.0
C319 C 0.25892 0.30267 0.83805 0.0
C320 C 0.27043 0.26381 0.83289 0.0
C321 C 0.27617 0.23802 0.84701 0.0
C322 C 0.23567 0.17935 0.84599 0.0
C323 C 0.33173 0.2469 0.84821 0.0
C324 C 0.26524 0.26786 0.86078 0.0
C325 C 0.25572 0.30521 0.85535 0.0
C326 C 0.2429 0.33637 0.86577 0.0
C327 C 0.23972 0.32917 0.88219 0.0
C328 C 0.24918 0.291 0.88805 0.0
C329 C 0.26236 0.26025 0.87711 0.0
H330 H 0.22633 0.32554 0.05633 0.0
H331 H 0.09676 0.35475 0.0599 0.0
H332 H 0.10947 0.37881 0.03202 0.0
H333 H 0.30578 0.42672 0.0269 0.0
H334 H 0.32456 0.38301 0.01639 0.0
H335 H 0.31371 0.38062 0.03761 0.0
H336 H 0.24677 0.28173 0.03318 0.0
H337 H 0.25714 0.28386 0.01203 0.0
H338 H 0.19246 0.26027 0.0196 0.0
H339 H 0.12568 0.38422 1.0027 0.0
H340 H 0.14318 0.36902 0.97438 0.0
H341 H 0.26137 0.33476 0.98943 0.0
C342 C 0.20246 0.33953 0.05142 0.0
C343 C 0.16144 0.33965 0.06031 0.0
C344 C 0.129 0.35541 0.05332 0.0
C345 C 0.13599 0.36919 0.0375 0.0
C346 C 0.17545 0.36671 0.02875 0.0
C347 C 0.20842 0.35256 0.03549 0.0
C348 C 0.2426 0.34556 0.0229 0.0
C349 C 0.30008 0.38643 0.02615 0.0
C350 C 0.2342 0.28954 0.02187 0.0
C351 C 0.22215 0.35566 1.008 0.0
C352 C 0.18418 0.36886 1.01165 0.0
C353 C 0.15619 0.37508 0.99971 0.0
C354 C 0.16637 0.36637 0.98364 0.0
C355 C 0.20394 0.35116 0.97963 0.0
C356 C 0.23306 0.34729 0.99204 0.0
H357 H 0.75288 0.06958 0.37567 0.0
H358 H 0.84234 0.22445 0.4001 0.0
H359 H 0.86187 0.26272 0.37395 0.0
H360 H 0.8382 0.08796 0.34507 0.0
H361 H 0.78949 0.04972 0.32974 0.0
H362 H 0.7755 0.03576 0.35028 0.0
H363 H 0.69466 0.04736 0.3485 0.0
H364 H 0.70846 0.06143 0.32789 0.0
H365 H 0.70193 0.10724 0.342 0.0
H366 H 0.8818 0.2824 0.34527 0.0
H367 H 0.90225 0.28232 0.31663 0.0
H368 H 0.79914 0.11464 0.31057 0.0
C369 C 0.77548 0.11174 0.37561 0.0
C370 C 0.79579 0.14411 0.39001 0.0
C371 C 0.82599 0.19892 0.38928 0.0
C372 C 0.83716 0.22096 0.37447 0.0
C373 C 0.81757 0.18769 0.36049 0.0
C374 C 0.78712 0.13422 0.36096 0.0
C375 C 0.77515 0.10649 0.34426 0.0
C376 C 0.79584 0.06773 0.34223 0.0
C377 C 0.71656 0.07901 0.34044 0.0
C378 C 0.80517 0.15253 0.33425 0.0
C379 C 0.82873 0.19909 0.34387 0.0
C380 C 0.86257 0.24639 0.33762 0.0
C381 C 0.87384 0.24596 0.32131 0.0
C382 C 0.85128 0.19867 0.3113 0.0
C383 C 0.81538 0.15157 0.3178 0.0
H384 H 0.6542 0.76881 0.70534 0.0
H385 H 0.61993 0.88439 0.72903 0.0
H386 H 0.59884 0.90231 0.70277 0.0
H387 H 0.72032 0.84052 0.67414 0.0
H388 H 0.69759 0.78609 0.65917 0.0
H389 H 0.7007 0.77583 0.67981 0.0
H390 H 0.60299 0.70565 0.6786 0.0
H391 H 0.59956 0.71575 0.65788 0.0
H392 H 0.55585 0.72214 0.67203 0.0
H393 H 0.59439 0.91681 0.67393 0.0
H394 H 0.60885 0.92835 0.64512 0.0
H395 H 0.64551 0.80293 0.64003 0.0
C396 C 0.64082 0.79688 0.70509 0.0
C397 C 0.63831 0.82494 0.7193 0.0
C398 C 0.62171 0.86209 0.71836 0.0
C399 C 0.60953 0.8724 0.70348 0.0
C400 C 0.61381 0.84499 0.68967 0.0
C401 C 0.62881 0.80775 0.69037 0.0
C402 C 0.63586 0.78775 0.67377 0.0
C403 C 0.69194 0.7982 0.6716 0.0
C404 C 0.59619 0.72935 0.67037 0.0
C405 C 0.62446 0.821 0.66357 0.0
C406 C 0.61101 0.85318 0.67297 0.0
C407 C 0.60374 0.89101 0.66645 0.0
C408 C 0.61201 0.89726 0.65006 0.0
C409 C 0.62735 0.86586 0.64031 0.0
C410 C 0.63207 0.8262 0.64709 0.0
H411 H 0.80744 0.67164 0.04159 0.0
H412 H 0.90192 0.59695 0.03574 0.0
H413 H 0.8867 0.58559 1.00656 0.0
H414 H 0.71326 0.5934 1.00749 0.0
H415 H 0.71037 0.64985 1.00221 0.0
H416 H 0.72093 0.64353 0.02277 0.0
H417 H 0.80488 0.73406 0.02394 0.0
H418 H 0.79489 0.74044 1.00341 0.0
H419 H 0.85511 0.74545 1.00962 0.0
H420 H 0.87215 0.59442 0.97762 0.0
H421 H 0.85699 0.62056 0.95185 0.0
H422 H 0.77167 0.68853 0.97671 0.0
C423 C 0.82318 0.65103 0.03423 0.0
C424 C 0.85539 0.63469 0.041 0.0
C425 C 0.87675 0.60945 0.03086 0.0
C426 C 0.86832 0.60279 0.01424 0.0
C427 C 0.83814 0.62127 1.00786 0.0
C428 C 0.81533 0.64429 0.01757 0.0
C429 C 0.78889 0.66537 1.00767 0.0
C430 C 0.72985 0.63629 1.01018 0.0
C431 C 0.81237 0.72484 1.01138 0.0
C432 C 0.80197 0.65234 0.99095 0.0
C433 C 0.82986 0.62635 0.99123 0.0
C434 C 0.84945 0.61388 0.97724 0.0
C435 C 0.84074 0.6289 0.96264 0.0
C436 C 0.81297 0.65636 0.96219 0.0
C437 C 0.79266 0.66714 0.97655 0.0
H438 H 0.05583 0.74496 0.30853 0.0
H439 H 0.20623 0.84426 0.28836 0.0
H440 H 0.24788 0.85803 0.31488 0.0
H441 H 0.07354 0.82162 0.34258 0.0
H442 H 0.03893 0.76958 0.35549 0.0
H443 H 0.02308 0.75837 0.33452 0.0
H444 H 0.0399 0.67991 0.33239 0.0
H445 H 0.05579 0.69085 0.35347 0.0
H446 H 0.10143 0.6892 0.33913 0.0
H447 H 0.27031 0.87371 0.34422 0.0
H448 H 0.27167 0.89191 0.37347 0.0
H449 H 0.10642 0.78227 0.37463 0.0
C450 C 0.09777 0.76841 0.30954 0.0
C451 C 0.12787 0.79346 0.29634 0.0
C452 C 0.18248 0.8243 0.29825 0.0
C453 C 0.20641 0.83221 0.31328 0.0
C454 C 0.17523 0.80846 0.3262 0.0
C455 C 0.12205 0.77676 0.3244 0.0
C456 C 0.09625 0.76099 0.34038 0.0
C457 C 0.05561 0.77874 0.34341 0.0
C458 C 0.07191 0.70171 0.3414 0.0
C459 C 0.14281 0.79117 0.35162 0.0
C460 C 0.1882 0.81734 0.34318 0.0
C461 C 0.23529 0.85239 0.35092 0.0
C462 C 0.23568 0.86247 0.36756 0.0
C463 C 0.18928 0.83781 0.37634 0.0
C464 C 0.14273 0.80026 0.3683 0.0
H465 H 0.29875 0.0817 0.64677 0.0
H466 H 0.33863 0.23129 0.62951 0.0
H467 H 0.36175 0.27252 0.65721 0.0
H468 H 0.235 0.09279 0.67991 0.0
H469 H 0.25605 0.06058 0.69275 0.0
H470 H 0.25251 0.0455 0.67149 0.0
H471 H 0.34936 0.06953 0.67156 0.0
H472 H 0.3532 0.08471 0.69291 0.0
H473 H 0.398 0.13291 0.68013 0.0
H474 H 0.36558 0.29357 0.68697 0.0
H475 H 0.34949 0.2928 0.71599 0.0
H476 H 0.30868 0.12986 0.71399 0.0
C477 C 0.31373 0.12349 0.6487 0.0
C478 C 0.3171 0.15337 0.63592 0.0
C479 C 0.33619 0.20772 0.63906 0.0
C480 C 0.34945 0.23143 0.65476 0.0
C481 C 0.34401 0.20037 0.66716 0.0
C482 C 0.32701 0.14759 0.66425 0.0
C483 C 0.31903 0.12154 0.67971 0.0
C484 C 0.2623 0.07754 0.68103 0.0
C485 C 0.35718 0.10096 0.68116 0.0
C486 C 0.33191 0.16737 0.69187 0.0
C487 C 0.34704 0.21271 0.68438 0.0
C488 C 0.35518 0.25872 0.69296 0.0
C489 C 0.34604 0.25796 0.70944 0.0
C490 C 0.32918 0.21164 0.71724 0.0
C491 C 0.32362 0.16628 0.70842 0.0
H492 H 0.08325 0.59754 0.08907 0.0
H493 H 0.94363 0.54598 0.06049 0.0
H494 H 0.92797 0.4556 0.05865 0.0
H495 H 0.12148 0.5048 0.06826 0.0
H496 H 0.14453 0.49486 0.08658 0.0
H497 H 0.1481 0.55661 0.08411 0.0
H498 H 0.0962 0.54768 0.11009 0.0
H499 H 0.09196 0.48573 0.11252 0.0
H500 H 0.03354 0.49022 0.11185 0.0
H501 H 0.92159 0.36855 0.06247 0.0
H502 H 0.92919 0.29333 0.07016 0.0
H503 H 0.07359 0.40108 0.09563 0.0
C504 C 0.05027 0.56753 0.08203 0.0
C505 C 0.01488 0.57919 0.07486 0.0
C506 C 0.9715 0.53832 0.06606 0.0
C507 C 0.96215 0.48666 0.06495 0.0
C508 C 0.99669 0.4761 0.07259 0.0
C509 C 0.04034 0.51549 0.08077 0.0
C510 C 0.06983 0.49307 0.08857 0.0
C511 C 0.12421 0.51356 0.08145 0.0
C512 C 0.07304 0.50488 0.10684 0.0
C513 C 0.03522 0.43505 0.08388 0.0
C514 C 0.99331 0.42601 0.07461 0.0
C515 C 0.9547 0.37525 0.06954 0.0
C516 C 0.95917 0.33269 0.07401 0.0
C517 C 1.002 0.34109 0.08343 0.0
C518 C 0.04053 0.39315 0.0883 0.0
H519 H 0.53968 0.93602 0.40687 0.0
H520 H 0.65696 0.10042 0.41048 0.0
H521 H 0.58873 0.12443 0.40846 0.0
H522 H 0.44911 0.94643 0.3791 0.0
H523 H 0.39228 0.89937 0.38894 0.0
H524 H 0.45067 0.8946 0.38856 0.0
H525 H 0.45053 0.89655 0.41947 0.0
H526 H 0.39239 0.90153 0.41993 0.0
H527 H 0.4494 0.95006 0.43115 0.0
H528 H 0.50722 0.13142 0.40911 0.0
H529 H 0.41871 0.1199 0.4118 0.0
H530 H 0.35413 0.95142 0.40753 0.0
C531 C 0.55101 0.97694 0.40675 0.0
C532 C 0.60378 0.01629 0.40872 0.0
C533 C 0.61685 0.06952 0.40895 0.0
C534 C 0.57833 0.08363 0.40778 0.0
C535 C 0.52658 0.04412 0.40633 0.0
C536 C 0.5128 0.9918 0.40568 0.0
C537 C 0.45408 0.9573 0.40529 0.0
C538 C 0.43544 0.92236 0.38953 0.0
C539 C 0.43554 0.92444 0.41982 0.0
C540 C 0.43722 0.99836 0.40621 0.0
C541 C 0.47957 0.04822 0.40668 0.0
C542 C 0.4737 0.0925 0.4085 0.0
C543 C 0.42327 0.08564 0.41003 0.0
C544 C 0.37931 0.03488 0.40975 0.0
C545 C 0.38674 0.99085 0.40758 0.0
H546 H 0.40308 0.37262 0.74943 0.0
H547 H 0.30042 0.42929 0.73609 0.0
H548 H 0.37713 0.51471 0.73125 0.0
H549 H 0.49411 0.48809 0.77097 0.0
H550 H 0.5501 0.48265 0.76481 0.0
H551 H 0.48753 0.42466 0.76556 0.0
H552 H 0.49503 0.39781 0.73586 0.0
H553 H 0.55774 0.45586 0.73501 0.0
H554 H 0.50687 0.44283 0.72097 0.0
H555 H 0.46473 0.59612 0.73017 0.0
H556 H 0.55557 0.66761 0.73337 0.0
H557 H 0.60209 0.55833 0.74733 0.0
C558 C 0.39657 0.40265 0.74524 0.0
C559 C 0.34549 0.39404 0.74307 0.0
C560 C 0.33898 0.43474 0.73776 0.0
C561 C 0.3824 0.48338 0.73496 0.0
C562 C 0.43214 0.49071 0.73744 0.0
C563 C 0.43942 0.45137 0.74242 0.0
C564 C 0.49676 0.47021 0.74518 0.0
C565 C 0.50775 0.46617 0.76267 0.0
C566 C 0.51518 0.43987 0.73356 0.0
C567 C 0.52074 0.52682 0.74136 0.0
C568 C 0.48273 0.53761 0.73676 0.0
C569 C 0.49477 0.58787 0.73355 0.0
C570 C 0.54659 0.62828 0.73542 0.0
C571 C 0.58614 0.61856 0.74045 0.0
C572 C 0.57303 0.5668 0.74312 0.0
H573 H 0.35652 0.93524 0.60989 0.0
H574 H 0.40031 0.09897 0.61808 0.0
H575 H 0.49202 0.12255 0.62163 0.0
H576 H 0.45563 0.93927 0.63772 0.0
H577 H 0.46702 0.895 0.62438 0.0
H578 H 0.40384 0.89003 0.62482 0.0
H579 H 0.40778 0.89914 0.59432 0.0
H580 H 0.47097 0.90445 0.59381 0.0
H581 H 0.46201 0.95507 0.58639 0.0
H582 H 0.58045 0.1298 0.62122 0.0
H583 H 0.658 0.11929 0.61723 0.0
H584 H 0.55738 0.95125 0.6092 0.0
C585 C 0.38524 0.97578 0.61295 0.0
C586 C 0.37121 0.01521 0.61386 0.0
C587 C 0.41016 0.06808 0.61738 0.0
C588 C 0.46241 0.08189 0.61945 0.0
C589 C 0.4754 0.04243 0.61797 0.0
C590 C 0.43792 0.99036 0.61491 0.0
C591 C 0.46289 0.95619 0.61255 0.0
C592 C 0.44636 0.91786 0.62565 0.0
C593 C 0.45015 0.92702 0.59577 0.0
C594 C 0.52004 0.99724 0.61433 0.0
C595 C 0.52649 0.0467 0.61762 0.0
C596 C 0.57586 0.09112 0.61887 0.0
C597 C 0.61975 0.08484 0.61657 0.0
C598 C 0.61402 0.03454 0.61298 0.0
C599 C 0.56333 0.99029 0.61209 0.0
H600 H 0.37796 0.41845 0.94777 0.0
H601 H 0.44359 0.31531 0.94446 0.0
H602 H 0.53199 0.39247 0.94692 0.0
H603 H 0.46917 0.51157 0.92386 0.0
H604 H 0.47161 0.56752 0.9351 0.0
H605 H 0.41372 0.50455 0.93512 0.0
H606 H 0.41803 0.51043 0.96604 0.0
H607 H 0.47599 0.5736 0.96613 0.0
H608 H 0.47646 0.52183 0.97595 0.0
H609 H 0.61304 0.48057 0.94705 0.0
H610 H 0.68057 0.57224 0.94451 0.0
H611 H 0.56306 0.61932 0.94774 0.0
C612 C 0.41083 0.41192 0.94793 0.0
C613 C 0.40365 0.36054 0.94607 0.0
C614 C 0.44792 0.35406 0.946 0.0
C615 C 0.49833 0.39775 0.94741 0.0
C616 C 0.50397 0.44779 0.94891 0.0
C617 C 0.46138 0.4551 0.94924 0.0
C618 C 0.47807 0.51293 0.94978 0.0
C619 C 0.45689 0.52482 0.93509 0.0
C620 C 0.46113 0.53074 0.96541 0.0
C621 C 0.53678 0.53711 0.94931 0.0
C622 C 0.55081 0.49876 0.94897 0.0
C623 C 0.60247 0.51087 0.94752 0.0
C624 C 0.64059 0.56314 0.94605 0.0
C625 C 0.62723 0.6031 0.94606 0.0
C626 C 0.57463 0.5899 0.94805 0.0
H627 H 0.03346 0.63204 0.27719 0.0
H628 H 0.87156 0.57061 0.28972 0.0
H629 H 0.8677 0.48909 0.29685 0.0
H630 H 0.02081 0.51709 0.25845 0.0
H631 H 0.08224 0.52683 0.26547 0.0
H632 H 0.07392 0.58235 0.26333 0.0
H633 H 0.10148 0.61458 0.293 0.0
H634 H 0.10989 0.559 0.29525 0.0
H635 H 0.06746 0.57142 0.3084 0.0
H636 H 0.8784 0.41064 0.29913 0.0
H637 H 0.90253 0.34157 0.29677 0.0
H638 H 0.0587 0.45454 0.28371 0.0
C639 C 0.99735 0.60184 0.2817 0.0
C640 C 0.9527 0.60773 0.2829 0.0
C641 C 0.90626 0.56712 0.28877 0.0
C642 C 0.90379 0.52072 0.29287 0.0
C643 C 0.94828 0.51584 0.29123 0.0
C644 C 0.99433 0.55552 0.28591 0.0
C645 C 0.03559 0.53927 0.28419 0.0
C646 C 0.0542 0.5415 0.26683 0.0
C647 C 0.08131 0.57307 0.29591 0.0
C648 C 1.00503 0.48338 0.28878 0.0
C649 C 0.95487 0.47089 0.29296 0.0
C650 C 0.91784 0.42033 0.29624 0.0
C651 C 0.93195 0.38134 0.29488 0.0
C652 C 0.98279 0.39294 0.29039 0.0
C653 C 0.02011 0.44495 0.28767 0.0
H654 H 0.98618 0.06105 0.08353 0.0
H655 H 0.15478 0.1485 0.08441 0.0
H656 H 0.15724 0.06628 0.07952 0.0
H657 H 0.97488 0.9587 0.10478 0.0
H658 H 0.91911 0.90748 0.09369 0.0
H659 H 0.93023 0.97339 0.0953 0.0
H660 H 0.92824 0.97201 0.06443 0.0
H661 H 0.91696 0.90592 0.06273 0.0
H662 H 0.9712 0.95603 0.05279 0.0
H663 H 0.14174 0.9734 0.0767 0.0
H664 H 0.10877 0.8781 0.07668 0.0
H665 H 0.95077 0.8512 0.07793 0.0
C666 C 0.02354 0.06292 0.08229 0.0
C667 C 0.07026 0.11146 0.08425 0.0
C668 C 0.11838 0.11194 0.08294 0.0
C669 C 0.12025 0.06535 0.08011 0.0
C670 C 0.07364 0.0181 0.07862 0.0
C671 C 0.02614 0.01651 0.07961 0.0
C672 C 0.98189 0.96035 0.07874 0.0
C673 C 0.94965 0.94936 0.09404 0.0
C674 C 0.94755 0.94785 0.06378 0.0
C675 C 0.01195 0.93088 0.07744 0.0
C676 C 0.06481 0.96476 0.0772 0.0
C677 C 0.10031 0.94645 0.07672 0.0
C678 C 0.08128 0.89219 0.07668 0.0
C679 C 0.0272 0.85678 0.07726 0.0
C680 C 0.99239 0.87685 0.0774 0.0
H681 H 0.92865 0.06907 0.42423 0.0
H682 H 0.81717 0.92966 0.39575 0.0
H683 H 0.88712 0.90904 0.38862 0.0
H684 H 0.04044 0.10244 0.39812 0.0
H685 H 0.08576 0.12459 0.41473 0.0
H686 H 0.028 0.13035 0.41648 0.0
H687 H 1.00197 0.0781 0.4416 0.0
H688 H 0.05963 0.07237 0.43998 0.0
H689 H 0.99671 0.0144 0.44043 0.0
H690 H 0.96757 0.89944 0.38689 0.0
H691 H 0.05096 0.90127 0.39056 0.0
H692 H 0.11101 0.04879 0.4194 0.0
C693 C 0.91879 0.03443 0.41632 0.0
C694 C 0.86709 1.00092 0.41055 0.0
C695 C 0.8563 0.95601 0.40029 0.0
C696 C 0.89588 0.94408 0.39616 0.0
C697 C 0.94622 0.97774 0.40224 0.0
C698 C 0.95776 0.02218 0.41203 0.0
C699 C 0.01425 0.05068 0.41765 0.0
C700 C 0.04386 0.10525 0.41136 0.0
C701 C 0.01835 0.05405 0.436 0.0
C702 C 0.03267 0.01467 0.40983 0.0
C703 C 0.99284 0.97296 0.40091 0.0
C704 C 0.99916 0.93239 0.39359 0.0
C705 C 0.04673 0.93382 0.39572 0.0
C706 C 0.08781 0.9757 0.40498 0.0
C707 C 0.08095 0.0172 0.41183 0.0
H708 H 0.05666 0.13053 0.75204 0.0
H709 H 0.14311 0.05704 0.73208 0.0
H710 H 0.06133 0.9729 0.72749 0.0
H711 H 0.97295 0.02693 0.77386 0.0
H712 H 0.91609 0.03304 0.77114 0.0
H713 H 0.9798 0.08942 0.77033 0.0
H714 H 0.95851 0.10441 0.74218 0.0
H715 H 0.89441 0.04825 0.74296 0.0
H716 H 0.93617 0.05194 0.72654 0.0
H717 H 0.97077 0.89419 0.72761 0.0
H718 H 0.87957 0.82817 0.73273 0.0
H719 H 0.85267 0.95217 0.75356 0.0
C720 C 0.05795 0.09715 0.74614 0.0
C721 C 0.10602 0.1005 0.74205 0.0
C722 C 0.10653 0.05542 0.73503 0.0
C723 C 0.06027 1.00744 0.7324 0.0
C724 C 0.01355 1.00481 0.73699 0.0
C725 C 0.01199 0.04853 0.74367 0.0
C726 C 0.95746 0.03396 0.74903 0.0
C727 C 0.95656 0.04658 0.76716 0.0
C728 C 0.93533 0.06126 0.73961 0.0
C729 C 0.92904 0.97531 0.74464 0.0
C730 C 0.96181 0.95925 0.73752 0.0
C731 C 0.94462 0.90645 0.73303 0.0
C732 C 0.89271 0.86914 0.73599 0.0
C733 C 0.85866 0.88465 0.74354 0.0
C734 C 0.87738 0.93869 0.74772 0.0
H735 H 0.90011 0.05326 0.6046 0.0
H736 H 0.81387 0.90368 0.62479 0.0
H737 H 0.8955 0.90236 0.62891 0.0
H738 H 0.98157 0.02131 0.58219 0.0
H739 H 0.03895 0.08495 0.58465 0.0
H740 H 0.97562 0.07914 0.58593 0.0
H741 H 0.99912 0.12898 0.61406 0.0
H742 H 0.06286 0.13541 0.6128 0.0
H743 H 0.02207 0.10589 0.62945 0.0
H744 H 0.98551 0.91262 0.62816 0.0
H745 H 0.07584 0.9334 0.62219 0.0
H746 H 0.10274 0.07443 0.60152 0.0
C747 C 0.89887 0.02136 0.61045 0.0
C748 C 0.85092 0.97912 0.61472 0.0
C749 C 0.85039 0.93679 0.62168 0.0
C750 C 0.89656 0.93569 0.62406 0.0
C751 C 0.94316 0.97705 0.61927 0.0
C752 C 0.94471 0.01923 0.61266 0.0
C753 C 0.99893 0.0558 0.60698 0.0
C754 C 0.99872 0.06054 0.58887 0.0
C755 C 0.02211 0.10972 0.61639 0.0
C756 C 0.02711 0.02701 0.61107 0.0
C757 C 0.99457 0.98207 0.61837 0.0
C758 C 1.01152 0.94807 0.62261 0.0
C759 C 0.06291 0.96013 0.61917 0.0
C760 C 0.09661 1.00549 0.61139 0.0
C761 C 0.07823 0.03945 0.60751 0.0
H762 H 0.95151 0.87034 0.92902 0.0
H763 H 0.84618 0.89994 0.9592 0.0
H764 H 0.91747 0.99031 0.96621 0.0
H765 H 0.069 0.94924 0.95425 0.0
H766 H 0.11066 0.97173 0.93729 0.0
H767 H 0.05272 0.90838 0.93574 0.0
H768 H 0.02112 0.93395 0.91132 0.0
H769 H 0.07894 0.99718 0.91275 0.0
H770 H 0.01586 0.99243 0.91313 0.0
H771 H 0.99786 0.07993 0.96769 0.0
H772 H 0.08026 0.16109 0.96371 0.0
H773 H 0.13468 0.07269 0.93333 0.0
C774 C 0.94336 0.89546 0.93728 0.0
C775 C 0.89291 0.87773 0.94357 0.0
C776 C 0.8843 0.9123 0.95426 0.0
C777 C 0.92467 0.96373 0.95832 0.0
C778 C 0.97365 0.97995 0.95174 0.0
C779 C 0.98318 0.94666 0.94151 0.0
C780 C 0.03842 0.97431 0.9354 0.0
C781 C 0.06953 0.94942 0.94101 0.0
C782 C 0.03856 0.97448 0.91707 0.0
C783 C 0.05837 0.02893 0.94347 0.0
C784 C 0.0204 0.03121 0.95291 0.0
C785 C 0.02808 0.07827 0.96058 0.0
C786 C 0.07506 0.12417 0.95827 0.0
C787 C 0.11427 0.12296 0.94852 0.0
C788 C 0.10614 0.07447 0.94128 0.0
H789 H 0.04148 0.93792 0.25796 0.0
H790 H 0.96036 0.86567 0.30045 0.0
H791 H 0.95819 0.94674 0.30961 0.0
H792 H 0.11929 0.07096 0.27592 0.0
H793 H 0.11229 0.09959 0.25868 0.0
H794 H 0.11115 0.0378 0.25629 0.0
H795 H 0.02148 0.99476 0.24172 0.0
H796 H 0.02284 0.05652 0.24382 0.0
H797 H 0.96864 0.99953 0.25129 0.0
H798 H 0.96205 0.03599 0.31333 0.0
H799 H 0.9621 0.11859 0.30963 0.0
H800 H 0.03842 0.12941 0.26437 0.0
C801 C 0.02375 0.93917 0.26931 0.0
C802 C 1.00149 0.8955 0.27856 0.0
C803 C 0.97774 0.89862 0.29316 0.0
C804 C 0.9767 0.94467 0.29851 0.0
C805 C 0.99937 0.98715 0.28908 0.0
C806 C 0.02191 0.98435 0.27469 0.0
C807 C 0.03985 0.03328 0.26604 0.0
C808 C 0.09917 0.0621 0.26413 0.0
C809 C 1.01149 0.02023 0.24977 0.0
C810 C 0.02333 0.0641 0.27767 0.0
C811 C 1.00087 0.03745 0.29105 0.0
C812 C 0.98028 0.0574 0.30302 0.0
C813 C 0.98099 0.10462 0.30094 0.0
C814 C 1.00187 0.13103 0.28699 0.0
C815 C 0.02405 0.1109 0.27541 0.0
loop_
_geom_bond_atom_site_label_1
_geom_bond_atom_site_label_2
_geom_bond_distance
_geom_bond_site_symmetry_2
_ccdc_geom_bond_type
O0 Cd1 2.223 . S
O0 C8 1.315 . S
Cd1 O0 2.223 . S
Cd1 O4 2.297 . S
Cd1 O5 2.439 . S
Cd1 O11 2.240 . S
Cd2 O3 2.240 . S
Cd2 O10 2.223 . S
Cd2 O12 2.297 . S
Cd2 O13 2.439 . S
O3 Cd2 2.240 . S
O3 C8 1.279 . S
O4 Cd1 2.297 . S
O4 C6 1.247 . S
O5 Cd1 2.439 . S
O5 C6 1.208 . S
C6 O4 1.247 . S
C6 O5 1.208 . S
C7 O12 1.247 . S
C7 O13 1.208 . S
C8 O0 1.315 . S
C8 O3 1.279 . S
C9 O10 1.315 . S
C9 O11 1.279 . S
O10 Cd2 2.223 . S
O10 C9 1.315 . S
O11 Cd1 2.240 . S
O11 C9 1.279 . S
O12 Cd2 2.297 . S
O12 C7 1.247 . S
O13 Cd2 2.439 . S
O13 C7 1.208 . S
O14 Cd15 2.223 . S
O14 C22 1.315 . S
Cd15 O14 2.223 . S
Cd15 O18 2.297 . S
Cd15 O19 2.439 . S
Cd15 O25 2.240 . S
Cd16 O17 2.240 . S
Cd16 O24 2.223 . S
Cd16 O26 2.297 . S
Cd16 O27 2.439 . S
O17 Cd16 2.240 . S
O17 C22 1.279 . S
O18 Cd15 2.297 . S
O18 C20 1.247 . S
O19 Cd15 2.439 . S
O19 C20 1.208 . S
C20 O18 1.247 . S
C20 O19 1.208 . S
C21 O26 1.247 . S
C21 O27 1.208 . S
C22 O14 1.315 . S
C22 O17 1.279 . S
C23 O24 1.315 . S
C23 O25 1.279 . S
O24 Cd16 2.223 . S
O24 C23 1.315 . S
O25 Cd15 2.240 . S
O25 C23 1.279 . S
O26 Cd16 2.297 . S
O26 C21 1.247 . S
O27 Cd16 2.439 . S
O27 C21 1.208 . S
O28 Cd29 2.223 . S
O28 C36 1.315 . S
Cd29 O28 2.223 . S
Cd29 O32 2.297 . S
Cd29 O33 2.439 . S
Cd29 O39 2.240 . S
Cd30 O31 2.240 . S
Cd30 O38 2.223 . S
Cd30 O40 2.297 . S
Cd30 O41 2.439 . S
O31 Cd30 2.240 . S
O31 C36 1.279 . S
O32 Cd29 2.297 . S
O32 C34 1.247 . S
O33 Cd29 2.439 . S
O33 C34 1.208 . S
C34 O32 1.247 . S
C34 O33 1.208 . S
C35 O40 1.247 . S
C35 O41 1.208 . S
C36 O28 1.315 . S
C36 O31 1.279 . S
C37 O38 1.315 . S
C37 O39 1.279 . S
O38 Cd30 2.223 . S
O38 C37 1.315 . S
O39 Cd29 2.240 . S
O39 C37 1.279 . S
O40 Cd30 2.297 . S
O40 C35 1.247 . S
O41 Cd30 2.439 . S
O41 C35 1.208 . S
O42 Cd43 2.223 . S
O42 C50 1.315 1_455 S
Cd43 O42 2.223 . S
Cd43 O46 2.297 . S
Cd43 O47 2.439 . S
Cd43 O53 2.240 . S
Cd44 O45 2.240 . S
Cd44 O52 2.223 . S
Cd44 O54 2.297 . S
Cd44 O55 2.439 . S
O45 Cd44 2.240 . S
O45 C50 1.279 . S
O46 Cd43 2.297 . S
O46 C48 1.247 . S
O47 Cd43 2.439 . S
O47 C48 1.208 . S
C48 O46 1.247 . S
C48 O47 1.208 . S
C49 O54 1.247 . S
C49 O55 1.208 . S
C50 O42 1.315 1_655 S
C50 O45 1.279 . S
C51 O52 1.315 1_455 S
C51 O53 1.279 . S
O52 Cd44 2.223 . S
O52 C51 1.315 1_655 S
O53 Cd43 2.240 . S
O53 C51 1.279 . S
O54 Cd44 2.297 . S
O54 C49 1.247 . S
O55 Cd44 2.439 . S
O55 C49 1.208 . S
O56 Cd57 2.223 . S
O56 C64 1.315 1_545 S
Cd57 O56 2.223 . S
Cd57 O60 2.297 . S
Cd57 O61 2.439 . S
Cd57 O67 2.240 . S
Cd58 O59 2.240 . S
Cd58 O66 2.223 . S
Cd58 O68 2.297 . S
Cd58 O69 2.439 . S
O59 Cd58 2.240 . S
O59 C64 1.279 . S
O60 Cd57 2.297 . S
O60 C62 1.247 . S
O61 Cd57 2.439 . S
O61 C62 1.208 . S
C62 O60 1.247 . S
C62 O61 1.208 . S
C63 O68 1.247 . S
C63 O69 1.208 . S
C64 O56 1.315 1_565 S
C64 O59 1.279 . S
C65 O66 1.315 1_545 S
C65 O67 1.279 . S
O66 Cd58 2.223 . S
O66 C65 1.315 1_565 S
O67 Cd57 2.240 . S
O67 C65 1.279 . S
O68 Cd58 2.297 . S
O68 C63 1.247 . S
O69 Cd58 2.439 . S
O69 C63 1.208 . S
O70 Cd71 2.223 . S
O70 C78 1.315 . S
Cd71 O70 2.223 . S
Cd71 O74 2.297 . S
Cd71 O75 2.439 . S
Cd71 O81 2.240 . S
Cd72 O73 2.240 . S
Cd72 O80 2.223 . S
Cd72 O82 2.297 . S
Cd72 O83 2.439 . S
O73 Cd72 2.240 . S
O73 C78 1.279 . S
O74 Cd71 2.297 . S
O74 C76 1.247 . S
O75 Cd71 2.439 . S
O75 C76 1.208 . S
C76 O74 1.247 . S
C76 O75 1.208 . S
C77 O82 1.247 . S
C77 O83 1.208 . S
C78 O70 1.315 . S
C78 O73 1.279 . S
C79 O80 1.315 . S
C79 O81 1.279 . S
O80 Cd72 2.223 . S
O80 C79 1.315 . S
O81 Cd71 2.240 . S
O81 C79 1.279 . S
O82 Cd72 2.297 . S
O82 C77 1.247 . S
O83 Cd72 2.439 . S
O83 C77 1.208 . S
O84 Cd85 2.223 . S
O84 C92 1.315 . S
Cd85 O84 2.223 . S
Cd85 O88 2.297 . S
Cd85 O89 2.439 . S
Cd85 O95 2.240 . S
Cd86 O87 2.240 . S
Cd86 O94 2.223 . S
Cd86 O96 2.297 . S
Cd86 O97 2.439 . S
O87 Cd86 2.240 . S
O87 C92 1.279 . S
O88 Cd85 2.297 . S
O88 C90 1.247 . S
O89 Cd85 2.439 . S
O89 C90 1.208 . S
C90 O88 1.247 . S
C90 O89 1.208 . S
C91 O96 1.247 . S
C91 O97 1.208 . S
C92 O84 1.315 . S
C92 O87 1.279 . S
C93 O94 1.315 . S
C93 O95 1.279 . S
O94 Cd86 2.223 . S
O94 C93 1.315 . S
O95 Cd85 2.240 . S
O95 C93 1.279 . S
O96 Cd86 2.297 . S
O96 C91 1.247 . S
O97 Cd86 2.439 . S
O97 C91 1.208 . S
O98 Cd99 2.223 . S
O98 C106 1.315 . S
Cd99 O98 2.223 . S
Cd99 O102 2.297 . S
Cd99 O103 2.439 . S
Cd99 O109 2.240 . S
Cd100 O101 2.240 . S
Cd100 O108 2.223 . S
Cd100 O110 2.297 . S
Cd100 O111 2.439 . S
O101 Cd100 2.240 . S
O101 C106 1.279 . S
O102 Cd99 2.297 . S
O102 C104 1.247 . S
O103 Cd99 2.439 . S
O103 C104 1.208 . S
C104 O102 1.247 . S
C104 O103 1.208 . S
C105 O110 1.247 . S
C105 O111 1.208 . S
C106 O98 1.315 . S
C106 O101 1.279 . S
C107 O108 1.315 . S
C107 O109 1.279 . S
O108 Cd100 2.223 . S
O108 C107 1.315 . S
O109 Cd99 2.240 . S
O109 C107 1.279 . S
O110 Cd100 2.297 . S
O110 C105 1.247 . S
O111 Cd100 2.439 . S
O111 C105 1.208 . S
O112 Cd113 2.223 . S
O112 C120 1.315 1_655 S
Cd113 O112 2.223 . S
Cd113 O116 2.297 . S
Cd113 O117 2.439 . S
Cd113 O123 2.240 . S
Cd114 O115 2.240 . S
Cd114 O122 2.223 . S
Cd114 O124 2.297 . S
Cd114 O125 2.439 . S
O115 Cd114 2.240 . S
O115 C120 1.279 . S
O116 Cd113 2.297 . S
O116 C118 1.247 . S
O117 Cd113 2.439 . S
O117 C118 1.208 . S
C118 O116 1.247 . S
C118 O117 1.208 . S
C119 O124 1.247 . S
C119 O125 1.208 . S
C120 O112 1.315 1_455 S
C120 O115 1.279 . S
C121 O122 1.315 1_655 S
C121 O123 1.279 . S
O122 Cd114 2.223 . S
O122 C121 1.315 1_455 S
O123 Cd113 2.240 . S
O123 C121 1.279 . S
O124 Cd114 2.297 . S
O124 C119 1.247 . S
O125 Cd114 2.439 . S
O125 C119 1.208 . S
O126 Cd127 2.223 . S
O126 C134 1.315 1_565 S
Cd127 O126 2.223 . S
Cd127 O130 2.297 . S
Cd127 O131 2.439 . S
Cd127 O137 2.240 . S
Cd128 O129 2.240 . S
Cd128 O136 2.223 . S
Cd128 O138 2.297 . S
Cd128 O139 2.439 . S
O129 Cd128 2.240 . S
O129 C134 1.279 . S
O130 Cd127 2.297 . S
O130 C132 1.247 . S
O131 Cd127 2.439 . S
O131 C132 1.208 . S
C132 O130 1.247 . S
C132 O131 1.208 . S
C133 O138 1.247 . S
C133 O139 1.208 . S
C134 O126 1.315 1_545 S
C134 O129 1.279 . S
C135 O136 1.315 1_565 S
C135 O137 1.279 . S
O136 Cd128 2.223 . S
O136 C135 1.315 1_545 S
O137 Cd127 2.240 . S
O137 C135 1.279 . S
O138 Cd128 2.297 . S
O138 C133 1.247 . S
O139 Cd128 2.439 . S
O139 C133 1.208 . S
O140 Cd141 2.223 . S
O140 C148 1.315 . S
Cd141 O140 2.223 . S
Cd141 O144 2.297 . S
Cd141 O145 2.439 . S
Cd141 O151 2.240 . S
Cd142 O143 2.240 . S
Cd142 O150 2.223 . S
Cd142 O152 2.297 . S
Cd142 O153 2.439 . S
O143 Cd142 2.240 . S
O143 C148 1.279 . S
O144 Cd141 2.297 . S
O144 C146 1.247 . S
O145 Cd141 2.439 . S
O145 C146 1.208 . S
C146 O144 1.247 . S
C146 O145 1.208 . S
C147 O152 1.247 . S
C147 O153 1.208 . S
C148 O140 1.315 . S
C148 O143 1.279 . S
C149 O150 1.315 . S
C149 O151 1.279 . S
O150 Cd142 2.223 . S
O150 C149 1.315 . S
O151 Cd141 2.240 . S
O151 C149 1.279 . S
O152 Cd142 2.297 . S
O152 C147 1.247 . S
O153 Cd142 2.439 . S
O153 C147 1.208 . S
O154 Cd155 2.223 . S
O154 C162 1.315 . S
Cd155 O154 2.223 . S
Cd155 O158 2.297 . S
Cd155 O159 2.439 . S
Cd155 O165 2.240 . S
Cd156 O157 2.240 . S
Cd156 O164 2.223 . S
Cd156 O166 2.297 . S
Cd156 O167 2.439 . S
O157 Cd156 2.240 . S
O157 C162 1.279 . S
O158 Cd155 2.297 . S
O158 C160 1.247 . S
O159 Cd155 2.439 . S
O159 C160 1.208 . S
C160 O158 1.247 . S
C160 O159 1.208 . S
C161 O166 1.247 . S
C161 O167 1.208 . S
C162 O154 1.315 . S
C162 O157 1.279 . S
C163 O164 1.315 . S
C163 O165 1.279 . S
O164 Cd156 2.223 . S
O164 C163 1.315 . S
O165 Cd155 2.240 . S
O165 C163 1.279 . S
O166 Cd156 2.297 . S
O166 C161 1.247 . S
O167 Cd156 2.439 . S
O167 C161 1.208 . S
H168 C180 0.930 . S
H169 C182 0.930 . S
H170 C183 0.930 1_455 S
H171 C187 0.959 . S
H172 C187 0.959 . S
H173 C187 0.961 . S
H174 C188 0.960 1_655 S
H175 C188 0.961 . S
H176 C188 0.959 . S
H177 C191 0.929 . S
H178 C192 0.931 . S
H179 C194 0.930 . S
C180 H168 0.930 . S
C180 C181 1.399 . S
C180 C185 1.399 . S
C181 C180 1.399 . S
C181 C182 1.376 . S
C182 H169 0.930 . S
C182 C181 1.376 . S
C182 C183 1.388 . S
C183 H170 0.930 1_655 S
C183 C182 1.388 . S
C183 C184 1.390 . S
C184 C183 1.390 . S
C184 C185 1.394 . S
C184 C190 1.465 1_655 S
C185 C180 1.399 . S
C185 C184 1.394 . S
C185 C186 1.516 . S
C186 C185 1.516 . S
C186 C187 1.502 . S
C186 C188 1.561 1_655 S
C186 C189 1.526 1_655 S
C187 H171 0.959 . S
C187 H172 0.959 . S
C187 H173 0.961 . S
C187 C186 1.502 . S
C188 H174 0.960 1_455 S
C188 H175 0.961 . S
C188 H176 0.959 . S
C188 C186 1.561 1_455 S
C189 C186 1.526 1_455 S
C189 C190 1.396 . S
C189 C194 1.390 . S
C190 C184 1.465 1_455 S
C190 C189 1.396 . S
C190 C191 1.399 . S
C191 H177 0.929 . S
C191 C190 1.399 . S
C191 C192 1.385 . S
C192 H178 0.931 . S
C192 C191 1.385 . S
C192 C193 1.389 . S
C193 C192 1.389 . S
C193 C194 1.387 . S
C194 H179 0.930 . S
C194 C189 1.390 . S
C194 C193 1.387 . S
H195 C207 0.930 . S
H196 C209 0.930 . S
H197 C210 0.930 . S
H198 C214 0.959 . S
H199 C214 0.959 . S
H200 C214 0.961 . S
H201 C215 0.960 . S
H202 C215 0.961 . S
H203 C215 0.959 . S
H204 C218 0.929 . S
H205 C219 0.931 . S
H206 C221 0.930 . S
C207 H195 0.930 . S
C207 C208 1.399 . S
C207 C212 1.399 . S
C208 C207 1.399 . S
C208 C209 1.376 . S
C209 H196 0.930 . S
C209 C208 1.376 . S
C209 C210 1.388 1_545 S
C210 H197 0.930 . S
C210 C209 1.388 1_565 S
C210 C211 1.390 . S
C211 C210 1.390 . S
C211 C212 1.394 1_565 S
C211 C217 1.465 . S
C212 C207 1.399 . S
C212 C211 1.394 1_545 S
C212 C213 1.516 . S
C213 C212 1.516 . S
C213 C214 1.502 . S
C213 C215 1.561 . S
C213 C216 1.526 1_545 S
C214 H198 0.959 . S
C214 H199 0.959 . S
C214 H200 0.961 . S
C214 C213 1.502 . S
C215 H201 0.960 . S
C215 H202 0.961 . S
C215 H203 0.959 . S
C215 C213 1.561 . S
C216 C213 1.526 1_565 S
C216 C217 1.396 . S
C216 C221 1.390 . S
C217 C211 1.465 . S
C217 C216 1.396 . S
C217 C218 1.399 . S
C218 H204 0.929 . S
C218 C217 1.399 . S
C218 C219 1.385 . S
C219 H205 0.931 . S
C219 C218 1.385 . S
C219 C220 1.389 . S
C220 C219 1.389 . S
C220 C221 1.387 . S
C221 H206 0.930 . S
C221 C216 1.390 . S
C221 C220 1.387 . S
H222 C234 0.930 . S
H223 C236 0.930 . S
H224 C237 0.930 . S
H225 C241 0.959 . S
H226 C241 0.959 . S
H227 C241 0.961 . S
H228 C242 0.960 . S
H229 C242 0.961 . S
H230 C242 0.959 . S
H231 C245 0.929 . S
H232 C246 0.931 . S
H233 C248 0.930 . S
C234 H222 0.930 . S
C234 C235 1.399 . S
C234 C239 1.399 . S
C235 C234 1.399 . S
C235 C236 1.376 . S
C236 H223 0.930 . S
C236 C235 1.376 . S
C236 C237 1.388 . S
C237 H224 0.930 . S
C237 C236 1.388 . S
C237 C238 1.390 . S
C238 C237 1.390 . S
C238 C239 1.394 . S
C238 C244 1.465 . S
C239 C234 1.399 . S
C239 C238 1.394 . S
C239 C240 1.516 . S
C240 C239 1.516 . S
C240 C241 1.502 . S
C240 C242 1.561 . S
C240 C243 1.526 . S
C241 H225 0.959 . S
C241 H226 0.959 . S
C241 H227 0.961 . S
C241 C240 1.502 . S
C242 H228 0.960 . S
C242 H229 0.961 . S
C242 H230 0.959 . S
C242 C240 1.561 . S
C243 C240 1.526 . S
C243 C244 1.396 . S
C243 C248 1.390 . S
C244 C238 1.465 . S
C244 C243 1.396 . S
C244 C245 1.399 . S
C245 H231 0.929 . S
C245 C244 1.399 . S
C245 C246 1.385 . S
C246 H232 0.931 . S
C246 C245 1.385 . S
C246 C247 1.389 . S
C247 C246 1.389 . S
C247 C248 1.387 . S
C248 H233 0.930 . S
C248 C243 1.390 . S
C248 C247 1.387 . S
H249 C261 0.930 . S
H250 C263 0.930 . S
H251 C264 0.930 . S
H252 C268 0.959 . S
H253 C268 0.959 . S
H254 C268 0.961 . S
H255 C269 0.960 . S
H256 C269 0.961 . S
H257 C269 0.959 . S
H258 C272 0.929 . S
H259 C273 0.931 . S
H260 C275 0.930 . S
C261 H249 0.930 . S
C261 C262 1.399 . S
C261 C266 1.399 . S
C262 C261 1.399 . S
C262 C263 1.376 1_655 S
C263 H250 0.930 . S
C263 C262 1.376 1_455 S
C263 C264 1.388 . S
C264 H251 0.930 . S
C264 C263 1.388 . S
C264 C265 1.390 . S
C265 C264 1.390 . S
C265 C266 1.394 1_455 S
C265 C271 1.465 . S
C266 C261 1.399 . S
C266 C265 1.394 1_655 S
C266 C267 1.516 . S
C267 C266 1.516 . S
C267 C268 1.502 . S
C267 C269 1.561 . S
C267 C270 1.526 . S
C268 H252 0.959 . S
C268 H253 0.959 . S
C268 H254 0.961 . S
C268 C267 1.502 . S
C269 H255 0.960 . S
C269 H256 0.961 . S
C269 H257 0.959 . S
C269 C267 1.561 . S
C270 C267 1.526 . S
C270 C271 1.396 1_655 S
C270 C275 1.390 . S
C271 C265 1.465 . S
C271 C270 1.396 1_455 S
C271 C272 1.399 . S
C272 H258 0.929 . S
C272 C271 1.399 . S
C272 C273 1.385 . S
C273 H259 0.931 . S
C273 C272 1.385 . S
C273 C274 1.389 . S
C274 C273 1.389 . S
C274 C275 1.387 1_455 S
C275 H260 0.930 . S
C275 C270 1.390 . S
C275 C274 1.387 1_655 S
H276 C288 0.930 . S
H277 C290 0.930 . S
H278 C291 0.930 . S
H279 C295 0.959 . S
H280 C295 0.959 . S
H281 C295 0.961 . S
H282 C296 0.960 . S
H283 C296 0.961 . S
H284 C296 0.959 . S
H285 C299 0.929 . S
H286 C300 0.931 . S
H287 C302 0.930 1_545 S
C288 H276 0.930 . S
C288 C289 1.399 . S
C288 C293 1.399 . S
C289 C288 1.399 . S
C289 C290 1.376 1_545 S
C290 H277 0.930 . S
C290 C289 1.376 1_565 S
C290 C291 1.388 . S
C291 H278 0.930 . S
C291 C290 1.388 . S
C291 C292 1.390 . S
C292 C291 1.390 . S
C292 C293 1.394 1_565 S
C292 C298 1.465 . S
C293 C288 1.399 . S
C293 C292 1.394 1_545 S
C293 C294 1.516 . S
C294 C293 1.516 . S
C294 C295 1.502 . S
C294 C296 1.561 1_545 S
C294 C297 1.526 1_545 S
C295 H279 0.959 . S
C295 H280 0.959 . S
C295 H281 0.961 . S
C295 C294 1.502 . S
C296 H282 0.960 . S
C296 H283 0.961 . S
C296 H284 0.959 . S
C296 C294 1.561 1_565 S
C297 C294 1.526 1_565 S
C297 C298 1.396 . S
C297 C302 1.390 . S
C298 C292 1.465 . S
C298 C297 1.396 . S
C298 C299 1.399 . S
C299 H285 0.929 . S
C299 C298 1.399 . S
C299 C300 1.385 . S
C300 H286 0.931 . S
C300 C299 1.385 . S
C300 C301 1.389 . S
C301 C300 1.389 . S
C301 C302 1.387 . S
C302 H287 0.930 1_565 S
C302 C297 1.390 . S
C302 C301 1.387 . S
H303 C315 0.930 . S
H304 C317 0.930 . S
H305 C318 0.930 . S
H306 C322 0.959 . S
H307 C322 0.959 . S
H308 C322 0.961 . S
H309 C323 0.960 . S
H310 C323 0.961 . S
H311 C323 0.959 . S
H312 C326 0.929 . S
H313 C327 0.931 . S
H314 C329 0.930 . S
C315 H303 0.930 . S
C315 C316 1.399 . S
C315 C320 1.399 . S
C316 C315 1.399 . S
C316 C317 1.376 . S
C317 H304 0.930 . S
C317 C316 1.376 . S
C317 C318 1.388 . S
C318 H305 0.930 . S
C318 C317 1.388 . S
C318 C319 1.390 . S
C319 C318 1.390 . S
C319 C320 1.394 . S
C319 C325 1.465 . S
C320 C315 1.399 . S
C320 C319 1.394 . S
C320 C321 1.516 . S
C321 C320 1.516 . S
C321 C322 1.502 . S
C321 C323 1.561 . S
C321 C324 1.526 . S
C322 H306 0.959 . S
C322 H307 0.959 . S
C322 H308 0.961 . S
C322 C321 1.502 . S
C323 H309 0.960 . S
C323 H310 0.961 . S
C323 H311 0.959 . S
C323 C321 1.561 . S
C324 C321 1.526 . S
C324 C325 1.396 . S
C324 C329 1.390 . S
C325 C319 1.465 . S
C325 C324 1.396 . S
C325 C326 1.399 . S
C326 H312 0.929 . S
C326 C325 1.399 . S
C326 C327 1.385 . S
C327 H313 0.931 . S
C327 C326 1.385 . S
C327 C328 1.389 . S
C328 C327 1.389 . S
C328 C329 1.387 . S
C329 H314 0.930 . S
C329 C324 1.390 . S
C329 C328 1.387 . S
H330 C342 0.930 . S
H331 C344 0.930 . S
H332 C345 0.930 . S
H333 C349 0.959 . S
H334 C349 0.959 . S
H335 C349 0.961 . S
H336 C350 0.960 . S
H337 C350 0.961 . S
H338 C350 0.959 . S
H339 C353 0.929 . S
H340 C354 0.931 . S
H341 C356 0.930 . S
C342 H330 0.930 . S
C342 C343 1.399 . S
C342 C347 1.399 . S
C343 C342 1.399 . S
C343 C344 1.376 . S
C344 H331 0.930 . S
C344 C343 1.376 . S
C344 C345 1.388 . S
C345 H332 0.930 . S
C345 C344 1.388 . S
C345 C346 1.390 . S
C346 C345 1.390 . S
C346 C347 1.394 . S
C346 C352 1.423 1_554 S
C347 C342 1.399 . S
C347 C346 1.394 . S
C347 C348 1.516 . S
C348 C347 1.516 . S
C348 C349 1.502 . S
C348 C350 1.561 . S
C348 C351 1.526 1_554 S
C349 H333 0.959 . S
C349 H334 0.959 . S
C349 H335 0.961 . S
C349 C348 1.502 . S
C350 H336 0.960 . S
C350 H337 0.961 . S
C350 H338 0.959 . S
C350 C348 1.561 . S
C351 C348 1.526 1_556 S
C351 C352 1.402 . S
C351 C356 1.390 . S
C352 C346 1.423 1_556 S
C352 C351 1.402 . S
C352 C353 1.433 . S
C353 H339 0.929 . S
C353 C352 1.433 . S
C353 C354 1.385 . S
C354 H340 0.931 . S
C354 C353 1.385 . S
C354 C355 1.389 . S
C355 C354 1.389 . S
C355 C356 1.387 . S
C356 H341 0.930 . S
C356 C351 1.390 . S
C356 C355 1.387 . S
H357 C369 0.930 . S
H358 C371 0.930 . S
H359 C372 0.930 . S
H360 C376 0.959 . S
H361 C376 0.959 . S
H362 C376 0.961 . S
H363 C377 0.960 . S
H364 C377 0.961 . S
H365 C377 0.959 . S
H366 C380 0.929 . S
H367 C381 0.931 . S
H368 C383 0.930 . S
C369 H357 0.930 . S
C369 C370 1.399 . S
C369 C374 1.399 . S
C370 C369 1.399 . S
C370 C371 1.376 . S
C371 H358 0.930 . S
C371 C370 1.376 . S
C371 C372 1.388 . S
C372 H359 0.930 . S
C372 C371 1.388 . S
C372 C373 1.390 . S
C373 C372 1.390 . S
C373 C374 1.394 . S
C373 C379 1.465 . S
C374 C369 1.399 . S
C374 C373 1.394 . S
C374 C375 1.516 . S
C375 C374 1.516 . S
C375 C376 1.502 . S
C375 C377 1.561 . S
C375 C378 1.526 . S
C376 H360 0.959 . S
C376 H361 0.959 . S
C376 H362 0.961 . S
C376 C375 1.502 . S
C377 H363 0.960 . S
C377 H364 0.961 . S
C377 H365 0.959 . S
C377 C375 1.561 . S
C378 C375 1.526 . S
C378 C379 1.396 . S
C378 C383 1.390 . S
C379 C373 1.465 . S
C379 C378 1.396 . S
C379 C380 1.399 . S
C380 H366 0.929 . S
C380 C379 1.399 . S
C380 C381 1.385 . S
C381 H367 0.931 . S
C381 C380 1.385 . S
C381 C382 1.389 . S
C382 C381 1.389 . S
C382 C383 1.387 . S
C383 H368 0.930 . S
C383 C378 1.390 . S
C383 C382 1.387 . S
H384 C396 0.930 . S
H385 C398 0.930 . S
H386 C399 0.930 . S
H387 C403 0.959 . S
H388 C403 0.959 . S
H389 C403 0.961 . S
H390 C404 0.960 . S
H391 C404 0.961 . S
H392 C404 0.959 . S
H393 C407 0.929 . S
H394 C408 0.931 . S
H395 C410 0.930 . S
C396 H384 0.930 . S
C396 C397 1.399 . S
C396 C401 1.399 . S
C397 C396 1.399 . S
C397 C398 1.376 . S
C398 H385 0.930 . S
C398 C397 1.376 . S
C398 C399 1.388 . S
C399 H386 0.930 . S
C399 C398 1.388 . S
C399 C400 1.390 . S
C400 C399 1.390 . S
C400 C401 1.394 . S
C400 C406 1.465 . S
C401 C396 1.399 . S
C401 C400 1.394 . S
C401 C402 1.516 . S
C402 C401 1.516 . S
C402 C403 1.502 . S
C402 C404 1.561 . S
C402 C405 1.526 . S
C403 H387 0.959 . S
C403 H388 0.959 . S
C403 H389 0.961 . S
C403 C402 1.502 . S
C404 H390 0.960 . S
C404 H391 0.961 . S
C404 H392 0.959 . S
C404 C402 1.561 . S
C405 C402 1.526 . S
C405 C406 1.396 . S
C405 C410 1.390 . S
C406 C400 1.465 . S
C406 C405 1.396 . S
C406 C407 1.399 . S
C407 H393 0.929 . S
C407 C406 1.399 . S
C407 C408 1.385 . S
C408 H394 0.931 . S
C408 C407 1.385 . S
C408 C409 1.389 . S
C409 C408 1.389 . S
C409 C410 1.387 . S
C410 H395 0.930 . S
C410 C405 1.390 . S
C410 C409 1.387 . S
H411 C423 0.930 . S
H412 C425 0.930 . S
H413 C426 0.930 . S
H414 C430 0.959 . S
H415 C430 0.959 . S
H416 C430 0.961 . S
H417 C431 0.960 . S
H418 C431 0.961 . S
H419 C431 0.959 . S
H420 C434 0.929 . S
H421 C435 0.931 . S
H422 C437 0.930 . S
C423 H411 0.930 . S
C423 C424 1.399 . S
C423 C428 1.399 1_554 S
C424 C423 1.399 . S
C424 C425 1.376 . S
C425 H412 0.930 . S
C425 C424 1.376 . S
C425 C426 1.388 . S
C426 H413 0.930 . S
C426 C425 1.388 . S
C426 C427 1.390 1_554 S
C427 C426 1.390 1_556 S
C427 C428 1.394 . S
C427 C433 1.465 . S
C428 C423 1.399 1_556 S
C428 C427 1.394 . S
C428 C429 1.516 . S
C429 C428 1.516 . S
C429 C430 1.502 . S
C429 C431 1.561 1_655 S
C429 C432 1.526 . S
C430 H414 0.959 . S
C430 H415 0.959 . S
C430 H416 0.961 . S
C430 C429 1.502 . S
C431 H417 0.960 . S
C431 H418 0.961 . S
C431 H419 0.959 . S
C431 C429 1.561 1_455 S
C432 C429 1.526 . S
C432 C433 1.396 . S
C432 C437 1.390 . S
C433 C427 1.465 . S
C433 C432 1.396 . S
C433 C434 1.399 . S
C434 H420 0.929 . S
C434 C433 1.399 . S
C434 C435 1.385 . S
C435 H421 0.931 . S
C435 C434 1.385 . S
C435 C436 1.389 . S
C436 C435 1.389 . S
C436 C437 1.387 . S
C437 H422 0.930 . S
C437 C432 1.390 . S
C437 C436 1.387 . S
H438 C450 0.930 . S
H439 C452 0.930 . S
H440 C453 0.930 . S
H441 C457 0.959 1_455 S
H442 C457 0.959 . S
H443 C457 0.961 . S
H444 C458 0.960 . S
H445 C458 0.961 . S
H446 C458 0.959 . S
H447 C461 0.929 . S
H448 C462 0.931 . S
H449 C464 0.930 . S
C450 H438 0.930 . S
C450 C451 1.399 . S
C450 C455 1.399 . S
C451 C450 1.399 . S
C451 C452 1.376 . S
C452 H439 0.930 . S
C452 C451 1.376 . S
C452 C453 1.388 . S
C453 H440 0.930 . S
C453 C452 1.388 . S
C453 C454 1.390 . S
C454 C453 1.390 . S
C454 C455 1.394 . S
C454 C460 1.465 . S
C455 C450 1.399 . S
C455 C454 1.394 . S
C455 C456 1.516 . S
C456 C455 1.516 . S
C456 C457 1.502 1_455 S
C456 C458 1.561 . S
C456 C459 1.526 . S
C457 H441 0.959 1_655 S
C457 H442 0.959 . S
C457 H443 0.961 . S
C457 C456 1.502 1_655 S
C458 H444 0.960 . S
C458 H445 0.961 . S
C458 H446 0.959 . S
C458 C456 1.561 . S
C459 C456 1.526 . S
C459 C460 1.396 . S
C459 C464 1.390 . S
C460 C454 1.465 . S
C460 C459 1.396 . S
C460 C461 1.399 . S
C461 H447 0.929 . S
C461 C460 1.399 . S
C461 C462 1.385 . S
C462 H448 0.931 . S
C462 C461 1.385 . S
C462 C463 1.389 . S
C463 C462 1.389 . S
C463 C464 1.387 . S
C464 H449 0.930 . S
C464 C459 1.390 . S
C464 C463 1.387 . S
H465 C477 0.930 . S
H466 C479 0.930 . S
H467 C480 0.930 . S
H468 C484 0.959 . S
H469 C484 0.959 . S
H470 C484 0.961 . S
H471 C485 0.960 . S
H472 C485 0.961 . S
H473 C485 0.959 . S
H474 C488 0.929 . S
H475 C489 0.931 . S
H476 C491 0.930 . S
C477 H465 0.930 . S
C477 C478 1.399 . S
C477 C482 1.399 . S
C478 C477 1.399 . S
C478 C479 1.376 . S
C479 H466 0.930 . S
C479 C478 1.376 . S
C479 C480 1.388 . S
C480 H467 0.930 . S
C480 C479 1.388 . S
C480 C481 1.390 . S
C481 C480 1.390 . S
C481 C482 1.394 . S
C481 C487 1.465 . S
C482 C477 1.399 . S
C482 C481 1.394 . S
C482 C483 1.516 . S
C483 C482 1.516 . S
C483 C484 1.502 . S
C483 C485 1.561 . S
C483 C486 1.526 . S
C484 H468 0.959 . S
C484 H469 0.959 . S
C484 H470 0.961 . S
C484 C483 1.502 . S
C485 H471 0.960 . S
C485 H472 0.961 . S
C485 H473 0.959 . S
C485 C483 1.561 . S
C486 C483 1.526 . S
C486 C487 1.396 . S
C486 C491 1.390 . S
C487 C481 1.465 . S
C487 C486 1.396 . S
C487 C488 1.399 . S
C488 H474 0.929 . S
C488 C487 1.399 . S
C488 C489 1.385 . S
C489 H475 0.931 . S
C489 C488 1.385 . S
C489 C490 1.389 . S
C490 C489 1.389 . S
C490 C491 1.387 . S
C491 H476 0.930 . S
C491 C486 1.390 . S
C491 C490 1.387 . S
H492 C504 0.930 . S
H493 C506 0.930 . S
H494 C507 0.930 . S
H495 C511 0.959 . S
H496 C511 0.959 . S
H497 C511 0.961 . S
H498 C512 0.960 . S
H499 C512 0.961 . S
H500 C512 0.959 . S
H501 C515 0.929 . S
H502 C516 0.931 . S
H503 C518 0.930 . S
C504 H492 0.930 . S
C504 C505 1.399 . S
C504 C509 1.399 . S
C505 C504 1.399 . S
C505 C506 1.376 . S
C506 H493 0.930 . S
C506 C505 1.376 . S
C506 C507 1.388 . S
C507 H494 0.930 . S
C507 C506 1.388 . S
C507 C508 1.390 . S
C508 C507 1.390 . S
C508 C509 1.394 . S
C508 C514 1.465 . S
C509 C504 1.399 . S
C509 C508 1.394 . S
C509 C510 1.516 . S
C510 C509 1.516 . S
C510 C511 1.502 . S
C510 C512 1.561 . S
C510 C513 1.526 . S
C511 H495 0.959 . S
C511 H496 0.959 . S
C511 H497 0.961 . S
C511 C510 1.502 . S
C512 H498 0.960 . S
C512 H499 0.961 . S
C512 H500 0.959 . S
C512 C510 1.561 . S
C513 C510 1.526 . S
C513 C514 1.396 . S
C513 C518 1.390 . S
C514 C508 1.465 . S
C514 C513 1.396 . S
C514 C515 1.399 . S
C515 H501 0.929 . S
C515 C514 1.399 . S
C515 C516 1.385 . S
C516 H502 0.931 . S
C516 C515 1.385 . S
C516 C517 1.389 . S
C517 C516 1.389 . S
C517 C518 1.387 . S
C518 H503 0.930 . S
C518 C513 1.390 . S
C518 C517 1.387 . S
H519 C531 0.930 1_565 S
H520 C533 0.930 . S
H521 C534 0.930 . S
H522 C538 0.959 . S
H523 C538 0.959 . S
H524 C538 0.961 . S
H525 C539 0.960 . S
H526 C539 0.961 . S
H527 C539 0.959 . S
H528 C542 0.929 . S
H529 C543 0.931 . S
H530 C545 0.930 1_565 S
C531 H519 0.930 1_545 S
C531 C532 1.399 . S
C531 C536 1.399 . S
C532 C531 1.399 . S
C532 C533 1.376 . S
C533 H520 0.930 . S
C533 C532 1.376 . S
C533 C534 1.388 . S
C534 H521 0.930 . S
C534 C533 1.388 . S
C534 C535 1.390 . S
C535 C534 1.390 . S
C535 C536 1.394 . S
C535 C541 1.465 . S
C536 C531 1.399 . S
C536 C535 1.394 . S
C536 C537 1.516 1_545 S
C537 C536 1.516 1_565 S
C537 C538 1.502 . S
C537 C539 1.561 . S
C537 C540 1.526 1_565 S
C538 H522 0.959 . S
C538 H523 0.959 . S
C538 H524 0.961 . S
C538 C537 1.502 . S
C539 H525 0.960 . S
C539 H526 0.961 . S
C539 H527 0.959 . S
C539 C537 1.561 . S
C540 C537 1.526 1_545 S
C540 C541 1.396 . S
C540 C545 1.390 . S
C541 C535 1.465 . S
C541 C540 1.396 . S
C541 C542 1.399 . S
C542 H528 0.929 . S
C542 C541 1.399 . S
C542 C543 1.385 . S
C543 H529 0.931 . S
C543 C542 1.385 . S
C543 C544 1.389 . S
C544 C543 1.389 . S
C544 C545 1.387 . S
C545 H530 0.930 1_545 S
C545 C540 1.390 . S
C545 C544 1.387 . S
H546 C558 0.930 . S
H547 C560 0.930 . S
H548 C561 0.930 . S
H549 C565 0.959 . S
H550 C565 0.959 . S
H551 C565 0.961 . S
H552 C566 0.960 . S
H553 C566 0.961 . S
H554 C566 0.959 . S
H555 C569 0.929 . S
H556 C570 0.931 . S
H557 C572 0.930 . S
C558 H546 0.930 . S
C558 C559 1.399 . S
C558 C563 1.399 . S
C559 C558 1.399 . S
C559 C560 1.376 . S
C560 H547 0.930 . S
C560 C559 1.376 . S
C560 C561 1.388 . S
C561 H548 0.930 . S
C561 C560 1.388 . S
C561 C562 1.390 . S
C562 C561 1.390 . S
C562 C563 1.394 . S
C562 C568 1.465 . S
C563 C558 1.399 . S
C563 C562 1.394 . S
C563 C564 1.516 . S
C564 C563 1.516 . S
C564 C565 1.502 . S
C564 C566 1.561 . S
C564 C567 1.526 . S
C565 H549 0.959 . S
C565 H550 0.959 . S
C565 H551 0.961 . S
C565 C564 1.502 . S
C566 H552 0.960 . S
C566 H553 0.961 . S
C566 H554 0.959 . S
C566 C564 1.561 . S
C567 C564 1.526 . S
C567 C568 1.396 . S
C567 C572 1.390 . S
C568 C562 1.465 . S
C568 C567 1.396 . S
C568 C569 1.399 . S
C569 H555 0.929 . S
C569 C568 1.399 . S
C569 C570 1.385 . S
C570 H556 0.931 . S
C570 C569 1.385 . S
C570 C571 1.389 . S
C571 C570 1.389 . S
C571 C572 1.387 . S
C572 H557 0.930 . S
C572 C567 1.390 . S
C572 C571 1.387 . S
H573 C585 0.930 . S
H574 C587 0.930 . S
H575 C588 0.930 . S
H576 C592 0.959 . S
H577 C592 0.959 . S
H578 C592 0.961 . S
H579 C593 0.960 . S
H580 C593 0.961 . S
H581 C593 0.959 1_545 S
H582 C596 0.929 . S
H583 C597 0.931 . S
H584 C599 0.930 . S
C585 H573 0.930 . S
C585 C586 1.399 . S
C585 C590 1.399 . S
C586 C585 1.399 . S
C586 C587 1.376 . S
C587 H574 0.930 . S
C587 C586 1.376 . S
C587 C588 1.388 . S
C588 H575 0.930 . S
C588 C587 1.388 . S
C588 C589 1.390 . S
C589 C588 1.390 . S
C589 C590 1.394 . S
C589 C595 1.465 . S
C590 C585 1.399 . S
C590 C589 1.394 . S
C590 C591 1.516 . S
C591 C590 1.516 . S
C591 C592 1.502 . S
C591 C593 1.561 . S
C591 C594 1.526 . S
C592 H576 0.959 . S
C592 H577 0.959 . S
C592 H578 0.961 . S
C592 C591 1.502 . S
C593 H579 0.960 . S
C593 H580 0.961 . S
C593 H581 0.959 1_565 S
C593 C591 1.561 . S
C594 C591 1.526 . S
C594 C595 1.396 . S
C594 C599 1.390 . S
C595 C589 1.465 . S
C595 C594 1.396 . S
C595 C596 1.399 . S
C596 H582 0.929 . S
C596 C595 1.399 . S
C596 C597 1.385 . S
C597 H583 0.931 . S
C597 C596 1.385 . S
C597 C598 1.389 . S
C598 C597 1.389 . S
C598 C599 1.387 . S
C599 H584 0.930 . S
C599 C594 1.390 . S
C599 C598 1.387 . S
H600 C612 0.930 . S
H601 C614 0.930 . S
H602 C615 0.930 . S
H603 C619 0.959 . S
H604 C619 0.959 . S
H605 C619 0.961 . S
H606 C620 0.960 . S
H607 C620 0.961 . S
H608 C620 0.959 . S
H609 C623 0.929 . S
H610 C624 0.931 . S
H611 C626 0.930 . S
C612 H600 0.930 . S
C612 C613 1.399 . S
C612 C617 1.399 . S
C613 C612 1.399 . S
C613 C614 1.376 . S
C614 H601 0.930 . S
C614 C613 1.376 . S
C614 C615 1.388 . S
C615 H602 0.930 . S
C615 C614 1.388 . S
C615 C616 1.390 . S
C616 C615 1.390 . S
C616 C617 1.394 . S
C616 C622 1.465 . S
C617 C612 1.399 . S
C617 C616 1.394 . S
C617 C618 1.516 . S
C618 C617 1.516 . S
C618 C619 1.502 . S
C618 C620 1.561 . S
C618 C621 1.526 . S
C619 H603 0.959 . S
C619 H604 0.959 . S
C619 H605 0.961 . S
C619 C618 1.502 . S
C620 H606 0.960 . S
C620 H607 0.961 . S
C620 H608 0.959 . S
C620 C618 1.561 . S
C621 C618 1.526 . S
C621 C622 1.396 . S
C621 C626 1.390 . S
C622 C616 1.465 . S
C622 C621 1.396 . S
C622 C623 1.399 . S
C623 H609 0.929 . S
C623 C622 1.399 . S
C623 C624 1.385 . S
C624 H610 0.931 . S
C624 C623 1.385 . S
C624 C625 1.389 . S
C625 C624 1.389 . S
C625 C626 1.387 . S
C626 H611 0.930 . S
C626 C621 1.390 . S
C626 C625 1.387 . S
H627 C639 0.930 . S
H628 C641 0.930 . S
H629 C642 0.930 . S
H630 C646 0.959 1_455 S
H631 C646 0.959 1_455 S
H632 C646 0.961 1_455 S
H633 C647 0.960 . S
H634 C647 0.961 . S
H635 C647 0.959 . S
H636 C650 0.929 . S
H637 C651 0.931 . S
H638 C653 0.930 . S
C639 H627 0.930 . S
C639 C640 1.399 . S
C639 C644 1.399 . S
C640 C639 1.399 . S
C640 C641 1.376 . S
C641 H628 0.930 . S
C641 C640 1.376 . S
C641 C642 1.388 . S
C642 H629 0.930 . S
C642 C641 1.388 . S
C642 C643 1.390 . S
C643 C642 1.390 . S
C643 C644 1.394 . S
C643 C649 1.465 . S
C644 C639 1.399 . S
C644 C643 1.394 . S
C644 C645 1.516 . S
C645 C644 1.516 . S
C645 C646 1.502 . S
C645 C647 1.561 . S
C645 C648 1.526 . S
C646 H630 0.959 1_655 S
C646 H631 0.959 1_655 S
C646 H632 0.961 1_655 S
C646 C645 1.502 . S
C647 H633 0.960 . S
C647 H634 0.961 . S
C647 H635 0.959 . S
C647 C645 1.561 . S
C648 C645 1.526 . S
C648 C649 1.396 . S
C648 C653 1.390 . S
C649 C643 1.465 . S
C649 C648 1.396 . S
C649 C650 1.399 . S
C650 H636 0.929 . S
C650 C649 1.399 . S
C650 C651 1.385 . S
C651 H637 0.931 . S
C651 C650 1.385 . S
C651 C652 1.389 . S
C652 C651 1.389 . S
C652 C653 1.387 . S
C653 H638 0.930 . S
C653 C648 1.390 . S
C653 C652 1.387 . S
H654 C666 0.930 . S
H655 C668 0.930 . S
H656 C669 0.930 . S
H657 C673 0.959 1_655 S
H658 C673 0.959 1_655 S
H659 C673 0.961 . S
H660 C674 0.960 . S
H661 C674 0.961 1_565 S
H662 C674 0.959 . S
H663 C677 0.929 . S
H664 C678 0.931 . S
H665 C680 0.930 . S
C666 H654 0.930 . S
C666 C667 1.399 . S
C666 C671 1.399 . S
C667 C666 1.399 . S
C667 C668 1.376 . S
C668 H655 0.930 . S
C668 C667 1.376 . S
C668 C669 1.388 . S
C669 H656 0.930 . S
C669 C668 1.388 . S
C669 C670 1.390 . S
C670 C669 1.390 . S
C670 C671 1.394 . S
C670 C676 1.465 1_545 S
C671 C666 1.399 . S
C671 C670 1.394 . S
C671 C672 1.516 1_545 S
C672 C671 1.516 1_565 S
C672 C673 1.502 . S
C672 C674 1.561 1_565 S
C672 C675 1.526 . S
C673 H657 0.959 1_455 S
C673 H658 0.959 1_455 S
C673 H659 0.961 . S
C673 C672 1.502 . S
C674 H660 0.960 . S
C674 H661 0.961 1_545 S
C674 H662 0.959 . S
C674 C672 1.561 1_545 S
C675 C672 1.526 . S
C675 C676 1.396 . S
C675 C680 1.390 . S
C676 C670 1.465 1_565 S
C676 C675 1.396 . S
C676 C677 1.399 . S
C677 H663 0.929 . S
C677 C676 1.399 . S
C677 C678 1.385 . S
C678 H664 0.931 . S
C678 C677 1.385 . S
C678 C679 1.389 . S
C679 C678 1.389 . S
C679 C680 1.387 . S
C680 H665 0.930 . S
C680 C675 1.390 . S
C680 C679 1.387 . S
H681 C693 0.930 . S
H682 C695 0.930 . S
H683 C696 0.930 . S
H684 C700 0.959 . S
H685 C700 0.959 . S
H686 C700 0.961 1_655 S
H687 C701 0.960 . S
H688 C701 0.961 . S
H689 C701 0.959 1_565 S
H690 C704 0.929 . S
H691 C705 0.931 . S
H692 C707 0.930 . S
C693 H681 0.930 . S
C693 C694 1.399 . S
C693 C698 1.399 . S
C694 C693 1.399 . S
C694 C695 1.376 . S
C695 H682 0.930 . S
C695 C694 1.376 . S
C695 C696 1.388 . S
C696 H683 0.930 . S
C696 C695 1.388 . S
C696 C697 1.390 . S
C697 C696 1.390 . S
C697 C698 1.394 . S
C697 C703 1.489 . S
C698 C693 1.399 . S
C698 C697 1.394 . S
C698 C699 1.516 . S
C699 C698 1.516 . S
C699 C700 1.502 1_655 S
C699 C701 1.561 . S
C699 C702 1.526 1_655 S
C700 H684 0.959 . S
C700 H685 0.959 . S
C700 H686 0.961 1_455 S
C700 C699 1.502 1_455 S
C701 H687 0.960 . S
C701 H688 0.961 . S
C701 H689 0.959 1_545 S
C701 C699 1.561 . S
C702 C699 1.526 1_455 S
C702 C703 1.387 1_455 S
C702 C707 1.390 . S
C703 C697 1.489 . S
C703 C702 1.387 1_655 S
C703 C704 1.384 1_655 S
C704 H690 0.929 . S
C704 C703 1.384 1_455 S
C704 C705 1.385 . S
C705 H691 0.931 . S
C705 C704 1.385 . S
C705 C706 1.389 . S
C706 C705 1.389 . S
C706 C707 1.387 . S
C707 H692 0.930 . S
C707 C702 1.390 . S
C707 C706 1.387 . S
H708 C720 0.930 . S
H709 C722 0.930 . S
H710 C723 0.940 . S
H711 C727 0.959 . S
H712 C727 0.959 . S
H713 C727 0.961 . S
H714 C728 0.960 . S
H715 C728 0.961 . S
H716 C728 0.959 . S
H717 C731 0.929 . S
H718 C732 0.931 . S
H719 C734 0.930 . S
C720 H708 0.930 . S
C720 C721 1.399 1_655 S
C720 C725 1.399 . S
C721 C720 1.399 1_455 S
C721 C722 1.376 . S
C722 H709 0.930 . S
C722 C721 1.376 . S
C722 C723 1.397 . S
C723 H710 0.940 . S
C723 C722 1.397 . S
C723 C724 1.371 1_455 S
C724 C723 1.371 1_655 S
C724 C725 1.394 . S
C724 C730 1.465 1_545 S
C725 C720 1.399 . S
C725 C724 1.394 . S
C725 C726 1.516 . S
C726 C725 1.516 . S
C726 C727 1.502 . S
C726 C728 1.561 . S
C726 C729 1.526 1_545 S
C727 H711 0.959 . S
C727 H712 0.959 . S
C727 H713 0.961 . S
C727 C726 1.502 . S
C728 H714 0.960 . S
C728 H715 0.961 . S
C728 H716 0.959 . S
C728 C726 1.561 . S
C729 C726 1.526 1_565 S
C729 C730 1.396 . S
C729 C734 1.390 . S
C730 C724 1.465 1_565 S
C730 C729 1.396 . S
C730 C731 1.399 . S
C731 H717 0.929 . S
C731 C730 1.399 . S
C731 C732 1.385 . S
C732 H718 0.931 . S
C732 C731 1.385 . S
C732 C733 1.389 . S
C733 C732 1.389 . S
C733 C734 1.387 . S
C734 H719 0.930 . S
C734 C729 1.390 . S
C734 C733 1.387 . S
H735 C747 0.930 . S
H736 C749 0.930 . S
H737 C750 0.930 . S
H738 C754 0.959 . S
H739 C754 0.959 . S
H740 C754 0.961 . S
H741 C755 0.960 . S
H742 C755 0.961 . S
H743 C755 0.959 . S
H744 C758 0.929 . S
H745 C759 0.931 . S
H746 C761 0.930 . S
C747 H735 0.930 . S
C747 C748 1.399 . S
C747 C752 1.399 . S
C748 C747 1.399 . S
C748 C749 1.376 . S
C749 H736 0.930 . S
C749 C748 1.376 . S
C749 C750 1.388 . S
C750 H737 0.930 . S
C750 C749 1.388 . S
C750 C751 1.390 . S
C751 C750 1.390 . S
C751 C752 1.394 . S
C751 C757 1.465 . S
C752 C747 1.399 . S
C752 C751 1.394 . S
C752 C753 1.516 . S
C753 C752 1.516 . S
C753 C754 1.502 1_565 S
C753 C755 1.561 . S
C753 C756 1.526 . S
C754 H738 0.959 . S
C754 H739 0.959 . S
C754 H740 0.961 . S
C754 C753 1.502 1_545 S
C755 H741 0.960 . S
C755 H742 0.961 . S
C755 H743 0.959 . S
C755 C753 1.561 . S
C756 C753 1.526 . S
C756 C757 1.396 . S
C756 C761 1.390 1_655 S
C757 C751 1.465 . S
C757 C756 1.396 . S
C757 C758 1.399 . S
C758 H744 0.929 . S
C758 C757 1.399 . S
C758 C759 1.385 1_655 S
C759 H745 0.931 . S
C759 C758 1.385 1_455 S
C759 C760 1.389 . S
C760 C759 1.389 . S
C760 C761 1.387 . S
C761 H746 0.930 . S
C761 C756 1.390 1_455 S
C761 C760 1.387 . S
H762 C774 0.930 1_455 S
H763 C776 0.930 . S
H764 C777 0.930 . S
H765 C781 0.959 . S
H766 C781 0.959 . S
H767 C781 0.961 . S
H768 C782 0.960 . S
H769 C782 0.961 . S
H770 C782 0.959 . S
H771 C785 0.929 . S
H772 C786 0.931 . S
H773 C788 0.943 . S
C774 H762 0.930 1_655 S
C774 C775 1.399 . S
C774 C779 1.399 1_655 S
C775 C774 1.399 . S
C775 C776 1.376 . S
C776 H763 0.930 . S
C776 C775 1.376 . S
C776 C777 1.388 . S
C777 H764 0.930 . S
C777 C776 1.388 . S
C777 C778 1.390 1_655 S
C778 C777 1.390 1_455 S
C778 C779 1.394 . S
C778 C784 1.465 . S
C779 C774 1.399 1_455 S
C779 C778 1.394 . S
C779 C780 1.516 . S
C780 C779 1.516 . S
C780 C781 1.502 . S
C780 C782 1.561 . S
C780 C783 1.526 . S
C781 H765 0.959 . S
C781 H766 0.959 . S
C781 H767 0.961 . S
C781 C780 1.502 . S
C782 H768 0.960 . S
C782 H769 0.961 . S
C782 H770 0.959 . S
C782 C780 1.561 . S
C783 C780 1.526 . S
C783 C784 1.396 . S
C783 C788 1.390 1_565 S
C784 C778 1.465 . S
C784 C783 1.396 . S
C784 C785 1.399 1_565 S
C785 H771 0.929 . S
C785 C784 1.399 1_545 S
C785 C786 1.385 . S
C786 H772 0.931 . S
C786 C785 1.385 . S
C786 C787 1.389 . S
C787 C786 1.389 . S
C787 C788 1.387 . S
C788 H773 0.943 . S
C788 C783 1.390 1_545 S
C788 C787 1.387 . S
H789 C801 0.930 . S
H790 C803 0.930 . S
H791 C804 0.930 . S
H792 C808 0.959 1_445 S
H793 C808 0.959 1_545 S
H794 C808 0.961 . S
H795 C809 0.960 . S
H796 C809 0.961 . S
H797 C809 0.959 . S
H798 C812 0.929 . S
H799 C813 0.931 . S
H800 C815 0.930 . S
C801 H789 0.930 . S
C801 C802 1.399 . S
C801 C806 1.399 . S
C802 C801 1.399 . S
C802 C803 1.376 . S
C803 H790 0.930 . S
C803 C802 1.376 . S
C803 C804 1.388 . S
C804 H791 0.930 . S
C804 C803 1.388 . S
C804 C805 1.390 . S
C805 C804 1.390 . S
C805 C806 1.394 . S
C805 C811 1.465 . S
C806 C801 1.399 . S
C806 C805 1.394 . S
C806 C807 1.516 . S
C807 C806 1.516 . S
C807 C808 1.502 . S
C807 C809 1.561 . S
C807 C810 1.511 1_565 S
C808 H792 0.959 1_665 S
C808 H793 0.959 1_565 S
C808 H794 0.961 . S
C808 C807 1.502 . S
C809 H795 0.960 . S
C809 H796 0.961 . S
C809 H797 0.959 . S
C809 C807 1.561 . S
C810 C807 1.511 1_545 S
C810 C811 1.390 1_545 S
C810 C815 1.408 . S
C811 C805 1.465 . S
C811 C810 1.390 1_565 S
C811 C812 1.399 1_565 S
C812 H798 0.929 . S
C812 C811 1.399 1_545 S
C812 C813 1.385 . S
C813 H799 0.931 . S
C813 C812 1.385 . S
C813 C814 1.389 . S
C814 C813 1.389 . S
C814 C815 1.387 . S
C815 H800 0.930 . S
C815 C810 1.408 . S
C815 C814 1.387 . S
C181 C162 1.650 . S
C193 C8 1.776 . S
C208 C22 1.786 . S
C220 C92 1.885 . S
C235 C36 2.076 . S
C247 C106 2.057 . S
C262 C50 0.969 . S
C274 C120 1.114 . S
C289 C134 0.946 . S
C301 C64 1.018 . S
C316 C78 1.097 . S
C328 C148 1.084 . S
C343 C7 1.651 . S
C355 C147 1.688 . S
C370 C21 2.244 . S
C382 C161 2.203 . S
C397 C35 2.396 . S
C409 C91 2.372 . S
C424 C49 1.952 . S
C436 C105 1.911 . S
C451 C119 1.348 . S
C463 C63 1.349 . S
C478 C133 1.319 . S
C490 C77 1.322 . S
C505 C48 1.456 . S
C517 C6 1.447 . S
C532 C20 1.430 . S
C544 C62 1.422 . S
C559 C76 1.463 . S
C571 C34 1.465 . S
C586 C132 1.471 . S
C598 C90 1.469 . S
C613 C146 1.453 . S
C625 C104 1.461 . S
C640 C118 1.398 . S
C652 C160 1.404 . S
C667 C9 1.254 . S
C679 C51 1.321 . S
C694 C23 1.294 . S
C706 C65 1.236 . S
C721 C79 1.225 . S
C733 C37 1.311 . S
C748 C93 1.216 . S
C760 C135 1.287 . S
C775 C107 1.358 . S
C787 C149 1.259 . S
C802 C121 1.257 . S
C814 C163 1.231 . S
