# Generated by pormake.
# Topology snz, (6)-cn, num edge types: 1
# Building blocks:
#     Node 0, Type 0, BuildingBlock: VOLQOD_clean_sbu_1, # of connection points: 6
#     Node 1, Type 0, BuildingBlock: VOLQOD_clean_sbu_1, # of connection points: 6
#     Node 2, Type 0, BuildingBlock: VOLQOD_clean_sbu_1, # of connection points: 6
#     Node 3, Type 0, BuildingBlock: VOLQOD_clean_sbu_1, # of connection points: 6
#     Node 4, Type 0, BuildingBlock: VOLQOD_clean_sbu_1, # of connection points: 6
#     Node 5, Type 0, BuildingBlock: VOLQOD_clean_sbu_1, # of connection points: 6
#     Node 6, Type 0, BuildingBlock: VOLQOD_clean_sbu_1, # of connection points: 6
#     Node 7, Type 0, BuildingBlock: VOLQOD_clean_sbu_1, # of connection points: 6
#     Node 8, Type 0, BuildingBlock: VOLQOD_clean_sbu_1, # of connection points: 6
#     Edge 9, Type (0, 0), BuildingBlock: AJUNOK_clean_linker_0, # of connection points: 2
#     Edge 10, Type (0, 0), BuildingBlock: AJUNOK_clean_linker_0, # of connection points: 2
#     Edge 11, Type (0, 0), BuildingBlock: AJUNOK_clean_linker_0, # of connection points: 2
#     Edge 12, Type (0, 0), BuildingBlock: AJUNOK_clean_linker_0, # of connection points: 2
#     Edge 13, Type (0, 0), BuildingBlock: AJUNOK_clean_linker_0, # of connection points: 2
#     Edge 14, Type (0, 0), BuildingBlock: AJUNOK_clean_linker_0, # of connection points: 2
#     Edge 15, Type (0, 0), BuildingBlock: AJUNOK_clean_linker_0, # of connection points: 2
#     Edge 16, Type (0, 0), BuildingBlock: AJUNOK_clean_linker_0, # of connection points: 2
#     Edge 17, Type (0, 0), BuildingBlock: AJUNOK_clean_linker_0, # of connection points: 2
#     Edge 18, Type (0, 0), BuildingBlock: AJUNOK_clean_linker_0, # of connection points: 2
#     Edge 19, Type (0, 0), BuildingBlock: AJUNOK_clean_linker_0, # of connection points: 2
#     Edge 20, Type (0, 0), BuildingBlock: AJUNOK_clean_linker_0, # of connection points: 2
#     Edge 21, Type (0, 0), BuildingBlock: AJUNOK_clean_linker_0, # of connection points: 2
#     Edge 22, Type (0, 0), BuildingBlock: AJUNOK_clean_linker_0, # of connection points: 2
#     Edge 23, Type (0, 0), BuildingBlock: AJUNOK_clean_linker_0, # of connection points: 2
#     Edge 24, Type (0, 0), BuildingBlock: AJUNOK_clean_linker_0, # of connection points: 2
#     Edge 25, Type (0, 0), BuildingBlock: AJUNOK_clean_linker_0, # of connection points: 2
#     Edge 26, Type (0, 0), BuildingBlock: AJUNOK_clean_linker_0, # of connection points: 2
#     Edge 27, Type (0, 0), BuildingBlock: AJUNOK_clean_linker_0, # of connection points: 2
#     Edge 28, Type (0, 0), BuildingBlock: AJUNOK_clean_linker_0, # of connection points: 2
#     Edge 29, Type (0, 0), BuildingBlock: AJUNOK_clean_linker_0, # of connection points: 2
#     Edge 30, Type (0, 0), BuildingBlock: AJUNOK_clean_linker_0, # of connection points: 2
#     Edge 31, Type (0, 0), BuildingBlock: AJUNOK_clean_linker_0, # of connection points: 2
#     Edge 32, Type (0, 0), BuildingBlock: AJUNOK_clean_linker_0, # of connection points: 2
#     Edge 33, Type (0, 0), BuildingBlock: AJUNOK_clean_linker_0, # of connection points: 2
#     Edge 34, Type (0, 0), BuildingBlock: AJUNOK_clean_linker_0, # of connection points: 2
#     Edge 35, Type (0, 0), BuildingBlock: AJUNOK_clean_linker_0, # of connection points: 2
# Relax obj value: 0.409
# Max RMSD: 0.302
# Mean RMSD: 0.293
data_MOF--net-snz--node1-VOLQOD_clean_sbu_1--edge1-AJUNOK_clean_linker_0
_symmetry_space_group_name_H-M    P1
_symmetry_Int_Tables_number       1
_symmetry_cell_setting            triclinic
loop_
_symmetry_equiv_pos_as_xyz
'x, y, z'
_cell_length_a     40.740823
_cell_length_b     40.993126
_cell_length_c     12.376466
_cell_angle_alpha  90.367096
_cell_angle_beta   89.761553
_cell_angle_gamma 120.74654
loop_
_atom_site_label
_atom_site_type_symbol
_atom_site_fract_x
_atom_site_fract_y
_atom_site_fract_z
_atom_type_partial_charge
O0 O 0.05019 0.52453 -0.00379 0.0
Zn1 Zn 0.01134 0.53929 0.94918 0.0
O2 O 0.96258 0.50707 0.02196 0.0
Zn3 Zn 0.92639 0.47761 0.91569 0.0
Zn4 Zn 0.96241 0.46914 0.10484 0.0
Zn5 Zn 0.94522 0.53606 0.0962 0.0
O6 O 0.90125 0.50445 0.8608 0.0
O7 O 0.91061 0.54431 -0.0035 0.0
O8 O -0.00028 0.53454 0.78615 0.0
O9 O 0.95649 0.47376 0.79891 0.0
O10 O 0.88876 0.42422 0.95195 0.0
O11 O 0.93238 0.41744 0.03605 0.0
O12 O 0.94409 0.47137 0.2494 0.0
O13 O 0.03479 0.59329 0.00625 0.0
O14 O 0.92785 0.51569 0.24732 0.0
O15 O -0.00959 0.58664 0.1234 0.0
C16 C 0.04732 0.50399 0.07705 0.0
C17 C 0.89742 0.53064 0.90283 0.0
C18 C 0.90155 0.4033 -0.01811 0.0
C19 C 0.9768 0.50264 0.74144 0.0
C20 C 0.93217 0.49091 0.29707 0.0
C21 C 0.02352 0.60633 0.08251 0.0
O22 O 0.01565 0.48283 0.12409 0.0
O23 O 0.51172 0.57473 0.04013 0.0
Zn24 Zn 0.49338 0.51999 -0.00064 0.0
O25 O 0.51814 0.50034 0.08695 0.0
Zn26 Zn 0.54133 0.47531 0.01718 0.0
Zn27 Zn 0.56017 0.54047 0.1564 0.0
Zn28 Zn 0.48208 0.46255 0.17488 0.0
O29 O 0.51386 0.41909 0.03336 0.0
O30 O 0.46011 0.41363 0.0913 0.0
O31 O 0.50457 0.51329 0.84411 0.0
O32 O 0.53634 0.48241 0.86519 0.0
O33 O 0.59748 0.5 0.04326 0.0
O34 O 0.60524 0.55696 0.0566 0.0
O35 O 0.56344 0.52169 0.30051 0.0
O36 O 0.43691 0.49464 0.03907 0.0
O37 O 0.50811 0.46635 0.31292 0.0
O38 O 0.44049 0.47331 0.20059 0.0
C39 C 0.53022 0.59272 0.12431 0.0
C40 C 0.47769 0.40035 0.039 0.0
C41 C 0.6168 0.53519 0.02226 0.0
C42 C 0.52197 0.49708 0.80634 0.0
C43 C 0.53978 0.49211 0.35284 0.0
C44 C 0.42359 0.4833 0.13398 0.0
O45 O 0.54906 0.58179 0.17951 0.0
O46 O 0.41426 0.97572 0.02248 0.0
Zn47 Zn 0.46924 0.00075 -0.02871 0.0
O48 O 0.50026 0.04894 0.04699 0.0
Zn49 Zn 0.52925 0.08656 0.94349 0.0
Zn50 Zn 0.46908 0.06323 0.12292 0.0
Zn51 Zn 0.53852 0.04976 0.13105 0.0
O52 O 0.58337 0.1241 -0.02057 0.0
O53 O 0.59049 0.08091 0.06417 0.0
O54 O 0.47434 0.01275 0.8097 0.0
O55 O 0.53451 0.05847 0.82419 0.0
O56 O 0.50006 0.11015 0.89105 0.0
O57 O 0.45884 0.09649 0.02641 0.0
O58 O 0.48948 0.08158 0.27265 0.0
O59 O 0.48542 0.96317 0.01695 0.0
O60 O 0.53575 0.06777 0.27549 0.0
O61 O 0.52611 -0.00293 0.14837 0.0
C62 C 0.40006 0.98485 0.10078 0.0
C63 C 0.60459 0.11173 0.01124 0.0
C64 C 0.47214 0.11108 0.934 0.0
C65 C 0.50603 0.03689 0.76618 0.0
C66 C 0.51534 0.07886 0.32244 0.0
C67 C 0.50595 0.9659 0.09816 0.0
O68 O 0.41893 0.0168 0.1481 0.0
O69 O 0.70008 0.9039 0.35759 0.0
Zn70 Zn 0.66489 0.85346 0.28498 0.0
O71 O 0.6124 0.83237 0.34008 0.0
Zn72 Zn 0.59793 0.78995 0.43056 0.0
Zn73 Zn 0.60811 0.87104 0.41423 0.0
Zn74 Zn 0.57449 0.81279 0.23055 0.0
O75 O 0.55397 0.74042 0.37866 0.0
O76 O 0.55042 0.75667 0.21137 0.0
O77 O 0.68642 0.81986 0.32377 0.0
O78 O 0.64026 0.78066 0.43382 0.0
O79 O 0.59542 0.80338 0.58106 0.0
O80 O 0.59894 0.85918 0.5697 0.0
O81 O 0.56905 0.88009 0.3458 0.0
O82 O 0.66474 0.86124 0.1237 0.0
O83 O 0.53696 0.83032 0.23719 0.0
O84 O 0.60205 0.83574 0.10017 0.0
C85 C 0.69268 0.92669 0.40719 0.0
C86 C 0.54296 0.73124 0.28136 0.0
C87 C 0.59833 0.83283 0.62466 0.0
C88 C 0.67276 0.79271 0.39147 0.0
C89 C 0.54195 0.86088 0.2794 0.0
C90 C 0.63598 0.85369 0.06519 0.0
O91 O 0.65853 0.91883 0.42292 0.0
O92 O 0.06209 0.85364 0.33085 0.0
Zn93 Zn 0.11799 0.88216 0.28495 0.0
O94 O 0.14509 0.85626 0.33653 0.0
Zn95 Zn 0.1893 0.89065 0.41961 0.0
Zn96 Zn 0.11125 0.81245 0.42049 0.0
Zn97 Zn 0.16434 0.83854 0.22374 0.0
O98 O 0.23939 0.90317 0.35323 0.0
O99 O 0.22089 0.8631 0.21575 0.0
O100 O 0.1417 0.93545 0.34875 0.0
O101 O 0.1905 0.93881 0.4379 0.0
O102 O 0.18404 0.8742 0.57035 0.0
O103 O 0.12663 0.82227 0.57334 0.0
O104 O 0.10329 0.76308 0.36004 0.0
O105 O 0.121 0.88529 0.12201 0.0
O106 O 0.13935 0.7826 0.21345 0.0
O107 O 0.15163 0.85387 0.0925 0.0
C108 C 0.04425 0.82428 0.3899 0.0
C109 C 0.24725 0.8898 0.27063 0.0
C110 C 0.1555 0.84873 0.62182 0.0
C111 C 0.1707 0.95317 0.41016 0.0
C112 C 0.11546 0.75593 0.2733 0.0
C113 C 0.13589 0.87165 0.05926 0.0
O114 O 0.06031 0.80698 0.4257 0.0
O115 O 0.17552 0.31282 0.31879 0.0
Zn116 Zn 0.14751 0.33937 0.27304 0.0
O117 O 0.17229 0.39167 0.33016 0.0
Zn118 Zn 0.1348 0.39869 0.40375 0.0
Zn119 Zn 0.21355 0.40155 0.42343 0.0
Zn120 Zn 0.19488 0.42987 0.22131 0.0
O121 O 0.12899 0.43978 0.33632 0.0
O122 O 0.17803 0.46787 0.22295 0.0
O123 O 0.09536 0.30714 0.33982 0.0
O124 O 0.08455 0.35034 0.41239 0.0
O125 O 0.1475 0.40738 0.55865 0.0
O126 O 0.20431 0.41248 0.57107 0.0
O127 O 0.26543 0.43866 0.36544 0.0
O128 O 0.14242 0.3403 0.11087 0.0
O129 O 0.25173 0.45364 0.2074 0.0
O130 O 0.17346 0.40312 0.08863 0.0
C131 C 0.19922 0.322 0.39617 0.0
C132 C 0.14885 0.46564 0.26789 0.0
C133 C 0.17496 0.41031 0.61439 0.0
C134 C 0.07399 0.3159 0.39208 0.0
C135 C 0.27601 0.45512 0.27445 0.0
C136 C 0.15382 0.36964 0.05236 0.0
O137 O 0.21386 0.35423 0.44176 0.0
O138 O 0.41524 0.27169 0.65951 0.0
Zn139 Zn 0.38473 0.22368 0.57032 0.0
O140 O 0.33102 0.20274 0.60876 0.0
Zn141 Zn 0.31307 0.16056 0.70308 0.0
Zn142 Zn 0.32895 0.24312 0.68023 0.0
Zn143 Zn 0.29763 0.1875 0.48998 0.0
O144 O 0.26339 0.11482 0.65431 0.0
O145 O 0.26132 0.13194 0.48611 0.0
O146 O 0.40304 0.18877 0.62127 0.0
O147 O 0.35158 0.14503 0.70775 0.0
O148 O 0.31504 0.17747 0.85521 0.0
O149 O 0.33504 0.23875 0.83801 0.0
O150 O 0.2833 0.24661 0.63855 0.0
O151 O 0.39083 0.23234 0.40695 0.0
O152 O 0.26736 0.21283 0.4874 0.0
O153 O 0.3291 0.20328 0.36094 0.0
C154 C 0.40651 0.29697 0.67686 0.0
C155 C 0.24862 0.10707 0.56004 0.0
C156 C 0.32885 0.21059 0.8956 0.0
C157 C 0.38594 0.15856 0.67745 0.0
C158 C 0.26332 0.23449 0.55272 0.0
C159 C 0.36429 0.22106 0.33653 0.0
O160 O 0.37506 0.29186 0.64137 0.0
O161 O 0.75763 0.16904 0.71179 0.0
Zn162 Zn 0.81025 0.19072 0.6431 0.0
O163 O 0.83666 0.16472 0.69883 0.0
Zn164 Zn 0.88022 0.19898 0.78205 0.0
Zn165 Zn 0.80234 0.12181 0.78292 0.0
Zn166 Zn 0.85546 0.14478 0.59011 0.0
O167 O 0.92977 0.21525 0.70645 0.0
O168 O 0.91224 0.17543 0.56803 0.0
O169 O 0.83622 0.24552 0.69551 0.0
O170 O 0.879 0.24562 0.80519 0.0
O171 O 0.8755 0.1813 0.9323 0.0
O172 O 0.82175 0.12533 0.93085 0.0
O173 O 0.78635 0.07278 0.70684 0.0
O174 O 0.80776 0.18661 0.47844 0.0
O175 O 0.83266 0.08824 0.58808 0.0
O176 O 0.83617 0.15267 0.45816 0.0
C177 C 0.74197 0.1439 0.78495 0.0
C178 C 0.93785 0.20406 0.61949 0.0
C179 C 0.84887 0.15298 -0.0184 0.0
C180 C 0.86167 0.26149 0.76838 0.0
C181 C 0.80159 0.06347 0.63207 0.0
C182 C 0.81896 0.16835 0.42 0.0
O183 O 0.75634 0.12432 0.81431 0.0
O184 O 0.81428 0.58713 0.56564 0.0
Zn185 Zn 0.77582 0.60099 0.51388 0.0
O186 O 0.79227 0.65346 0.55358 0.0
Zn187 Zn 0.74872 0.64964 0.62341 0.0
Zn188 Zn 0.83384 0.67394 0.65097 0.0
Zn189 Zn 0.80497 0.68746 0.43722 0.0
O190 O 0.74146 0.69265 0.58942 0.0
O191 O 0.77723 0.71611 0.44303 0.0
O192 O 0.72869 0.56774 0.60455 0.0
O193 O 0.7032 0.60227 0.57346 0.0
O194 O 0.7525 0.64237 0.78039 0.0
O195 O 0.81531 0.66968 0.80237 0.0
O196 O 0.87752 0.72469 0.60343 0.0
O197 O 0.76664 0.59508 0.35092 0.0
O198 O 0.86118 0.72499 0.43271 0.0
O199 O 0.78814 0.65573 0.30718 0.0
C200 C 0.84353 0.60593 0.62574 0.0
C201 C 0.75328 0.71555 0.51037 0.0
C202 C 0.7814 0.6517 0.8396 0.0
C203 C 0.70131 0.57376 0.61897 0.0
C204 C 0.88565 0.73879 0.50861 0.0
C205 C 0.77336 0.6209 0.28196 0.0
O206 O 0.85374 0.63927 0.65759 0.0
C207 C 0.96883 0.53126 0.57283 0.0
C208 C 0.96556 0.49969 0.62706 0.0
C209 C 0.9538 0.5275 0.46865 0.0
C210 C 0.93508 0.49206 0.4155 0.0
H211 H 0.98291 0.55898 0.6111 0.0
H212 H 0.9589 0.55289 0.42722 0.0
S213 S 0.91696 0.4003 0.52483 0.0
N214 N 0.94083 0.43154 0.6211 0.0
N215 N 0.91213 0.42463 0.42685 0.0
C216 C 0.93022 0.46011 0.47079 0.0
C217 C 0.94577 0.46391 0.57577 0.0
C218 C 0.54525 0.529 0.63146 0.0
C219 C 0.52714 0.49544 0.69111 0.0
C220 C 0.55334 0.5281 0.52239 0.0
C221 C 0.54276 0.49346 0.47013 0.0
H222 H 0.55325 0.55598 0.66932 0.0
H223 H 0.56564 0.55438 0.47739 0.0
S224 S 0.49742 0.39839 0.59537 0.0
N225 N 0.50152 0.42729 0.69484 0.0
N226 N 0.51551 0.42539 0.48747 0.0
C227 C 0.52605 0.45998 0.53053 0.0
C228 C 0.51842 0.46101 0.64184 0.0
C229 C 0.47599 0.04226 0.59729 0.0
C230 C 0.50855 0.04761 0.65201 0.0
C231 C 0.47895 0.05668 0.49315 0.0
C232 C 0.51453 0.07674 0.44057 0.0
H233 H 0.44811 0.02701 0.63513 0.0
H234 H 0.45292 0.04999 0.45121 0.0
S235 S 0.60865 0.10084 0.55183 0.0
N236 N 0.57775 0.07605 0.64777 0.0
N237 N 0.58306 0.10342 0.45288 0.0
C238 C 0.54741 0.08376 0.49636 0.0
C239 C 0.54446 0.06891 0.60152 0.0
C240 C 0.60357 0.86498 0.79933 0.0
C241 C 0.61175 0.8415 0.73625 0.0
C242 C 0.61699 0.87412 0.90505 0.0
C243 C 0.63923 0.86034 0.94986 0.0
H244 H 0.58544 0.87499 0.76845 0.0
H245 H 0.60721 0.88928 0.95514 0.0
S246 S 0.67543 0.80499 0.8107 0.0
N247 N 0.64882 0.81005 0.7198 0.0
N248 N 0.67341 0.82706 0.92031 0.0
C249 C 0.65083 0.84022 0.88453 0.0
C250 C 0.63692 0.83052 0.77723 0.0
C251 C 0.11454 0.8351 0.78418 0.0
C252 C 0.15078 0.85647 0.73533 0.0
C253 C 0.10742 0.84449 0.88654 0.0
C254 C 0.13625 0.87539 0.94352 0.0
H255 H 0.09143 0.81062 0.74388 0.0
H256 H 0.08027 0.82555 0.92504 0.0
S257 S 0.23507 0.94181 0.8525 0.0
N258 N 0.21528 0.91144 0.75147 0.0
N259 N 0.20136 0.92844 0.94506 0.0
C260 C 0.17181 0.89817 0.89441 0.0
C261 C 0.17936 0.88865 0.79049 0.0
C262 C 0.18327 0.37795 0.77053 0.0
C263 C 0.16714 0.39838 0.72739 0.0
C264 C 0.17366 0.36246 0.8737 0.0
C265 C 0.14794 0.36721 0.93704 0.0
H266 H 0.20369 0.37396 0.7247 0.0
H267 H 0.1889 0.34962 0.90742 0.0
S268 S 0.09544 0.41529 0.86025 0.0
N269 N 0.12183 0.41975 0.75336 0.0
N270 N 0.10462 0.3913 0.94976 0.0
C271 C 0.12989 0.38549 0.89321 0.0
C272 C 0.13947 0.40115 0.78793 0.0
C273 C 0.36363 0.19434 0.16109 0.0
C274 C 0.3721 0.22674 0.22139 0.0
C275 C 0.3498 0.18961 0.05577 0.0
C276 C 0.3442 0.21731 0.00665 0.0
H277 H 0.36405 0.17082 0.19922 0.0
H278 H 0.34233 0.16339 0.01411 0.0
S279 S 0.3685 0.3103 0.1264 0.0
N280 N 0.37827 0.28878 0.22259 0.0
N281 N 0.35343 0.28081 0.0222 0.0
C282 C 0.35613 0.25155 0.06292 0.0
C283 C 0.36997 0.2561 0.17083 0.0
C284 C 0.79987 0.13216 0.25273 0.0
C285 C 0.81756 0.16795 0.30297 0.0
C286 C 0.81164 0.12724 0.15105 0.0
C287 C 0.84169 0.15798 0.09581 0.0
H288 H 0.77864 0.10727 0.29593 0.0
H289 H 0.79723 0.09899 0.11601 0.0
S290 S 0.89567 0.25819 0.19267 0.0
N291 N 0.86513 0.23478 0.29076 0.0
N292 N 0.88745 0.22631 0.09814 0.0
C293 C 0.85869 0.19436 0.14426 0.0
C294 C 0.8463 0.19921 0.24767 0.0
C295 C 0.73973 0.62045 0.11867 0.0
C296 C 0.766 0.61252 0.16725 0.0
C297 C 0.74399 0.63189 0.0108 0.0
C298 C 0.77517 0.63649 0.94968 0.0
H299 H 0.71789 0.6212 0.16709 0.0
H300 H 0.72423 0.63944 -0.02262 0.0
S301 S 0.84646 0.61079 0.03351 0.0
N302 N 0.82009 0.60381 0.14241 0.0
N303 N 0.82833 0.6252 0.93887 0.0
C304 C 0.79918 0.62474 -0.00581 0.0
C305 C 0.79443 0.6126 0.10341 0.0
C306 C 0.13247 0.49196 0.11001 0.0
C307 C 0.13255 0.48746 0.22299 0.0
C308 C 0.10691 0.50084 0.06149 0.0
C309 C 0.08104 0.50555 0.12506 0.0
H310 H 0.14962 0.48511 0.05808 0.0
H311 H 0.1052 0.5008 -0.02585 0.0
S312 S 0.07625 0.50554 0.42462 0.0
N313 N 0.1092 0.49463 0.39699 0.0
N314 N 0.06169 0.51193 0.30655 0.0
C315 C 0.08402 0.50542 0.2383 0.0
C316 C 0.1097 0.49621 0.28725 0.0
C317 C 0.5266 0.65111 0.09333 0.0
C318 C 0.52756 0.62521 0.16485 0.0
C319 C 0.52811 0.68409 0.13222 0.0
C320 C 0.53026 0.69203 0.24406 0.0
H321 H 0.52669 0.64691 0.00684 0.0
H322 H 0.52989 0.70447 0.07374 0.0
S323 S 0.52467 0.6282 0.4644 0.0
N324 N 0.52458 0.60625 0.3521 0.0
N325 N 0.52687 0.66771 0.42548 0.0
C326 C 0.52744 0.66429 0.31621 0.0
C327 C 0.52638 0.63106 0.27654 0.0
C328 C 0.35286 0.96119 0.25092 0.0
C329 C 0.36164 0.95759 0.14298 0.0
C330 C 0.31637 0.93758 0.2932 0.0
C331 C 0.28699 0.90944 0.22926 0.0
H332 H 0.37426 0.98283 0.30332 0.0
H333 H 0.31095 0.94231 0.37593 0.0
S334 S 0.29568 0.88731 0.94227 0.0
N335 N 0.33862 0.92277 -0.02602 0.0
N336 N 0.26964 0.8783 0.05275 0.0
C337 C 0.29575 0.90448 0.12206 0.0
C338 C 0.33315 0.92859 0.07912 0.0
C339 C 0.46902 0.15461 0.79931 0.0
C340 C 0.45032 0.12266 0.86637 0.0
C341 C 0.44815 0.16489 0.73212 0.0
C342 C 0.40794 0.14303 0.72823 0.0
H343 H 0.49988 0.17227 0.80093 0.0
H344 H 0.46357 0.19092 0.68638 0.0
S345 S 0.34646 0.05234 0.87313 0.0
N346 N 0.39016 0.06663 0.9153 0.0
N347 N 0.35089 0.08493 0.78704 0.0
C348 C 0.38931 0.10939 0.78939 0.0
C349 C 0.41049 0.09952 0.8592 0.0
C350 C 0.89118 0.30869 0.91725 0.0
C351 C 0.86931 0.29718 0.82165 0.0
C352 C 0.89914 0.34169 -0.02778 0.0
C353 C 0.88586 0.36501 0.93397 0.0
H354 H 0.90272 0.29224 0.95044 0.0
H355 H 0.91692 0.34953 0.04367 0.0
S356 S 0.82545 0.34689 0.69076 0.0
N357 N 0.83273 0.31081 0.69394 0.0
N358 N 0.84814 0.37355 0.79667 0.0
C359 C 0.86275 0.35333 0.84056 0.0
C360 C 0.85446 0.31937 0.78435 0.0
C361 C 0.64909 0.56831 0.73734 0.0
C362 C 0.67814 0.55988 0.7195 0.0
C363 C 0.63088 0.56189 0.83755 0.0
C364 C 0.64053 0.5463 0.92395 0.0
H365 H 0.64076 0.58069 0.67383 0.0
H366 H 0.60833 0.56836 0.84655 0.0
S367 S 0.71434 0.5192 0.92226 0.0
N368 N 0.71593 0.53536 0.79925 0.0
N369 N 0.68033 0.52217 -0.01348 0.0
C370 C 0.66882 0.53699 0.90761 0.0
C371 C 0.68791 0.54398 0.80571 0.0
C372 C 0.83992 0.54682 0.69338 0.0
C373 C 0.86086 0.58656 0.68142 0.0
C374 C 0.85149 0.52875 0.76687 0.0
C375 C 0.88379 0.54989 0.83237 0.0
H376 H 0.81359 0.52966 0.64919 0.0
H377 H 0.83466 0.49814 0.77411 0.0
S378 S 0.95184 0.65354 0.82028 0.0
N379 N 0.91833 0.64575 0.73191 0.0
N380 N 0.93904 0.61169 0.87215 0.0
C381 C 0.90592 0.58925 0.8178 0.0
C382 C 0.89477 0.60757 0.74154 0.0
C383 C 0.47042 0.34786 0.91831 0.0
C384 C 0.45703 0.3716 0.95394 0.0
C385 C 0.45493 0.32476 0.82636 0.0
C386 C 0.42598 0.32513 0.76518 0.0
H387 H 0.49326 0.34738 0.96139 0.0
H388 H 0.46559 0.30629 0.80377 0.0
S389 S 0.38387 0.38552 0.81884 0.0
N390 N 0.41471 0.39581 0.91769 0.0
N391 N 0.38628 0.35332 0.74428 0.0
C392 C 0.4131 0.34961 0.79876 0.0
C393 C 0.42836 0.3725 0.8933 0.0
C394 C 0.68287 0.14838 0.80075 0.0
C395 C 0.70893 0.13974 0.84707 0.0
C396 C 0.65032 0.14209 0.85802 0.0
C397 C 0.64298 0.12719 0.9636 0.0
H398 H 0.68678 0.15854 0.71842 0.0
H399 H 0.62973 0.14684 0.81683 0.0
S400 S 0.70605 0.10673 0.12824 0.0
N401 N 0.72789 0.12056 0.01043 0.0
N402 N 0.6667 0.10857 0.11658 0.0
C403 C 0.6702 0.12107 0.01327 0.0
C404 C 0.70317 0.12735 0.95536 0.0
C405 C 0.50929 0.9307 0.25475 0.0
C406 C 0.50565 0.93249 0.14219 0.0
C407 C 0.51719 0.90445 0.30027 0.0
C408 C 0.52161 0.87888 0.23497 0.0
H409 H 0.50808 0.95119 0.30789 0.0
H410 H 0.52239 0.90587 0.38647 0.0
S411 S 0.51 0.86878 0.93686 0.0
N412 N 0.50296 0.90404 0.9674 0.0
N413 N 0.51792 0.85424 0.0528 0.0
C414 C 0.51454 0.87796 0.12313 0.0
C415 C 0.50652 0.90495 0.07664 0.0
C416 C 0.06255 0.68855 0.28048 0.0
C417 C 0.09644 0.71647 0.2313 0.0
C418 C 0.03964 0.65319 0.23163 0.0
C419 C 0.04964 0.64396 0.13167 0.0
H420 H 0.05261 0.69444 0.35527 0.0
H421 H 0.01348 0.63313 0.27259 0.0
S422 S 0.13782 0.70538 -0.02501 0.0
N423 N 0.14071 0.73137 0.08098 0.0
N424 N 0.09742 0.66458 -0.01063 0.0
C425 C 0.08448 0.67077 0.08418 0.0
C426 C 0.10793 0.70703 0.13397 0.0
C427 C 0.35996 0.47633 0.09425 0.0
C428 C 0.38805 0.48167 0.16949 0.0
C429 C 0.32449 0.47053 0.12863 0.0
C430 C 0.31598 0.46999 0.23942 0.0
H431 H 0.36466 0.4748 0.00862 0.0
H432 H 0.3029 0.46427 0.06807 0.0
S433 S 0.38269 0.49014 0.46735 0.0
N434 N 0.40705 0.49157 0.35879 0.0
N435 N 0.34052 0.48057 0.42296 0.0
C436 C 0.34496 0.47826 0.31474 0.0
C437 C 0.38093 0.48409 0.27991 0.0
C438 C 0.74741 0.76346 0.40037 0.0
C439 C 0.73541 0.73849 0.48901 0.0
C440 C 0.72757 0.78157 0.37001 0.0
C441 C 0.69483 0.7751 0.42667 0.0
H442 H 0.77176 0.76837 0.35214 0.0
H443 H 0.7374 0.79996 0.30014 0.0
S444 S 0.65308 0.71435 0.66997 0.0
N445 N 0.68998 0.71016 0.63711 0.0
N446 N 0.6526 0.74358 0.5801 0.0
C447 C 0.68335 0.75122 0.51794 0.0
C448 C 0.70368 0.73314 0.54924 0.0
C449 C 0.21751 0.03785 0.59556 0.0
C450 C 0.22058 0.06726 0.53063 0.0
C451 C 0.19893 0.00047 0.55784 0.0
C452 C 0.18228 0.99096 0.4544 0.0
H453 H 0.23179 0.04393 0.67308 0.0
H454 H 0.1992 0.97907 0.60824 0.0
S455 S 0.17594 0.05602 0.26107 0.0
N456 N 0.20058 0.08348 0.36383 0.0
N457 N 0.16543 0.01271 0.29355 0.0
C458 C 0.18177 0.01925 0.39288 0.0
C459 C 0.20103 0.05758 0.43085 0.0
C460 C -0.00249 0.26714 0.60505 0.0
C461 C 0.97505 0.22971 0.56618 0.0
C462 C 0.02874 0.29463 0.5466 0.0
C463 C 0.03946 0.28592 0.44728 0.0
H464 H -0.00981 0.27594 0.67962 0.0
H465 H 0.04477 0.32301 0.58037 0.0
S466 S -0.00767 0.1917 0.31256 0.0
N467 N 0.96696 0.18496 0.42344 0.0
N468 N 0.0266 0.23679 0.31486 0.0
C469 C 0.01844 0.24835 0.40911 0.0
C470 C 0.98607 0.22023 0.46814 0.0
C471 C 0.24095 0.28001 0.58186 0.0
C472 C 0.23986 0.25076 0.51946 0.0
C473 C 0.2264 0.30179 0.5421 0.0
C474 C 0.20997 0.29518 0.43844 0.0
H475 H 0.25486 0.28756 0.66001 0.0
H476 H 0.22913 0.32479 0.59237 0.0
S477 S 0.19438 0.21804 0.24955 0.0
N478 N 0.21663 0.21314 0.35378 0.0
N479 N 0.18934 0.25457 0.27918 0.0
C480 C 0.20587 0.26418 0.37843 0.0
C481 C 0.22078 0.24183 0.41895 0.0
C482 C 0.71561 0.96781 0.56951 0.0
C483 C 0.72326 0.95982 0.46498 0.0
C484 C 0.74266 -0.00032 0.62677 0.0
C485 C 0.7784 0.02542 0.58122 0.0
H486 H 0.68814 0.94948 0.60724 0.0
H487 H 0.73459 0.00505 0.70545 0.0
S488 S 0.8137 0.01499 0.31304 0.0
N489 N 0.77002 0.97778 0.32137 0.0
N490 N 0.82106 0.03875 0.4274 0.0
C491 C 0.78729 0.0165 0.47879 0.0
C492 C 0.75965 0.98348 0.42097 0.0
C493 C 0.95467 0.774 0.55668 0.0
C494 C 0.92582 0.76764 0.4828 0.0
C495 C -0.0069 0.79435 0.52697 0.0
C496 C 0.00436 0.8097 0.42288 0.0
H497 H 0.9476 0.76128 0.63617 0.0
H498 H 0.01414 0.7968 0.58488 0.0
S499 S 0.94095 0.80667 0.20479 0.0
N500 N 0.91163 0.78237 0.30452 0.0
N501 N 0.98443 0.82113 0.24974 0.0
C502 C 0.97635 0.80654 0.35112 0.0
C503 C 0.93692 0.78534 0.38084 0.0
loop_
_geom_bond_atom_site_label_1
_geom_bond_atom_site_label_2
_geom_bond_distance
_geom_bond_site_symmetry_2
_ccdc_geom_bond_type
O0 Zn1 1.953 . S
O0 C16 1.225 1_556 S
Zn1 O0 1.953 . S
Zn1 O2 1.949 1_556 S
Zn1 O8 1.919 . S
Zn1 O13 1.924 . S
O2 Zn1 1.949 1_554 S
O2 Zn3 1.923 1_454 S
O2 Zn4 1.950 . S
O2 Zn5 1.945 . S
Zn3 O2 1.923 1_656 S
Zn3 O6 1.933 . S
Zn3 O9 1.941 . S
Zn3 O10 1.965 . S
Zn4 O2 1.950 . S
Zn4 O11 1.938 1_455 S
Zn4 O12 1.906 1_455 S
Zn4 O22 1.953 . S
Zn5 O2 1.945 . S
Zn5 O7 1.932 1_455 S
Zn5 O14 1.977 1_455 S
Zn5 O15 1.910 . S
O6 Zn3 1.933 . S
O6 C17 1.226 . S
O7 Zn5 1.932 1_655 S
O7 C17 1.307 1_554 S
O8 Zn1 1.919 . S
O8 C19 1.253 . S
O9 Zn3 1.941 . S
O9 C19 1.283 1_655 S
O10 Zn3 1.965 . S
O10 C18 1.303 . S
O11 Zn4 1.938 1_655 S
O11 C18 1.247 1_554 S
O12 Zn4 1.906 1_655 S
O12 C20 1.304 . S
O13 Zn1 1.924 . S
O13 C21 1.311 1_556 S
O14 Zn5 1.977 1_655 S
O14 C20 1.272 . S
O15 Zn5 1.910 . S
O15 C21 1.231 . S
C16 O0 1.225 1_554 S
C16 O22 1.298 . S
C17 O6 1.226 . S
C17 O7 1.307 1_556 S
C18 O10 1.303 . S
C18 O11 1.247 1_556 S
C19 O8 1.253 . S
C19 O9 1.283 1_455 S
C20 O12 1.304 . S
C20 O14 1.272 . S
C21 O13 1.311 1_554 S
C21 O15 1.231 . S
O22 Zn4 1.953 . S
O22 C16 1.298 . S
O23 Zn24 1.953 . S
O23 C39 1.225 1_556 S
Zn24 O23 1.953 . S
Zn24 O25 1.949 1_556 S
Zn24 O31 1.919 . S
Zn24 O36 1.924 . S
O25 Zn24 1.949 1_554 S
O25 Zn26 1.923 1_554 S
O25 Zn27 1.950 . S
O25 Zn28 1.945 . S
Zn26 O25 1.923 1_556 S
Zn26 O29 1.933 . S
Zn26 O32 1.941 . S
Zn26 O33 1.965 . S
Zn27 O25 1.950 . S
Zn27 O34 1.938 . S
Zn27 O35 1.906 . S
Zn27 O45 1.953 . S
Zn28 O25 1.945 . S
Zn28 O30 1.932 . S
Zn28 O37 1.977 . S
Zn28 O38 1.910 . S
O29 Zn26 1.933 . S
O29 C40 1.226 . S
O30 Zn28 1.932 . S
O30 C40 1.307 1_554 S
O31 Zn24 1.919 . S
O31 C42 1.253 . S
O32 Zn26 1.941 . S
O32 C42 1.283 . S
O33 Zn26 1.965 . S
O33 C41 1.303 . S
O34 Zn27 1.938 . S
O34 C41 1.247 1_554 S
O35 Zn27 1.906 . S
O35 C43 1.304 . S
O36 Zn24 1.924 . S
O36 C44 1.311 1_556 S
O37 Zn28 1.977 . S
O37 C43 1.272 . S
O38 Zn28 1.910 . S
O38 C44 1.231 . S
C39 O23 1.225 1_554 S
C39 O45 1.298 . S
C40 O29 1.226 . S
C40 O30 1.307 1_556 S
C41 O33 1.303 . S
C41 O34 1.247 1_556 S
C42 O31 1.253 . S
C42 O32 1.283 . S
C43 O35 1.304 . S
C43 O37 1.272 . S
C44 O36 1.311 1_554 S
C44 O38 1.231 . S
O45 Zn27 1.953 . S
O45 C39 1.298 . S
O46 Zn47 1.953 . S
O46 C62 1.225 1_556 S
Zn47 O46 1.953 . S
Zn47 O48 1.949 1_566 S
Zn47 O54 1.919 . S
Zn47 O59 1.924 . S
O48 Zn47 1.949 1_544 S
O48 Zn49 1.923 1_554 S
O48 Zn50 1.950 . S
O48 Zn51 1.945 . S
Zn49 O48 1.923 1_556 S
Zn49 O52 1.933 . S
Zn49 O55 1.941 . S
Zn49 O56 1.965 . S
Zn50 O48 1.950 . S
Zn50 O57 1.938 . S
Zn50 O58 1.906 . S
Zn50 O68 1.953 1_545 S
Zn51 O48 1.945 . S
Zn51 O53 1.932 . S
Zn51 O60 1.977 . S
Zn51 O61 1.910 1_545 S
O52 Zn49 1.933 . S
O52 C63 1.226 . S
O53 Zn51 1.932 . S
O53 C63 1.307 1_554 S
O54 Zn47 1.919 . S
O54 C65 1.253 1_565 S
O55 Zn49 1.941 . S
O55 C65 1.283 . S
O56 Zn49 1.965 . S
O56 C64 1.303 . S
O57 Zn50 1.938 . S
O57 C64 1.247 1_554 S
O58 Zn50 1.906 . S
O58 C66 1.304 . S
O59 Zn47 1.924 . S
O59 C67 1.311 1_556 S
O60 Zn51 1.977 . S
O60 C66 1.272 . S
O61 Zn51 1.910 1_565 S
O61 C67 1.231 . S
C62 O46 1.225 1_554 S
C62 O68 1.298 . S
C63 O52 1.226 . S
C63 O53 1.307 1_556 S
C64 O56 1.303 . S
C64 O57 1.247 1_556 S
C65 O54 1.253 1_545 S
C65 O55 1.283 . S
C66 O58 1.304 . S
C66 O60 1.272 . S
C67 O59 1.311 1_554 S
C67 O61 1.231 . S
O68 Zn50 1.953 1_565 S
O68 C62 1.298 . S
O69 Zn70 1.953 . S
O69 C85 1.225 . S
Zn70 O69 1.953 . S
Zn70 O71 1.949 . S
Zn70 O77 1.919 . S
Zn70 O82 1.924 . S
O71 Zn70 1.949 . S
O71 Zn72 1.923 . S
O71 Zn73 1.950 . S
O71 Zn74 1.945 . S
Zn72 O71 1.923 . S
Zn72 O75 1.933 . S
Zn72 O78 1.941 . S
Zn72 O79 1.965 . S
Zn73 O71 1.950 . S
Zn73 O80 1.938 . S
Zn73 O81 1.906 . S
Zn73 O91 1.953 . S
Zn74 O71 1.945 . S
Zn74 O76 1.932 . S
Zn74 O83 1.977 . S
Zn74 O84 1.910 . S
O75 Zn72 1.933 . S
O75 C86 1.226 . S
O76 Zn74 1.932 . S
O76 C86 1.307 . S
O77 Zn70 1.919 . S
O77 C88 1.253 . S
O78 Zn72 1.941 . S
O78 C88 1.283 . S
O79 Zn72 1.965 . S
O79 C87 1.303 . S
O80 Zn73 1.938 . S
O80 C87 1.247 . S
O81 Zn73 1.906 . S
O81 C89 1.304 . S
O82 Zn70 1.924 . S
O82 C90 1.311 . S
O83 Zn74 1.977 . S
O83 C89 1.272 . S
O84 Zn74 1.910 . S
O84 C90 1.231 . S
C85 O69 1.225 . S
C85 O91 1.298 . S
C86 O75 1.226 . S
C86 O76 1.307 . S
C87 O79 1.303 . S
C87 O80 1.247 . S
C88 O77 1.253 . S
C88 O78 1.283 . S
C89 O81 1.304 . S
C89 O83 1.272 . S
C90 O82 1.311 . S
C90 O84 1.231 . S
O91 Zn73 1.953 . S
O91 C85 1.298 . S
O92 Zn93 1.953 . S
O92 C108 1.225 . S
Zn93 O92 1.953 . S
Zn93 O94 1.949 . S
Zn93 O100 1.919 . S
Zn93 O105 1.924 . S
O94 Zn93 1.949 . S
O94 Zn95 1.923 . S
O94 Zn96 1.950 . S
O94 Zn97 1.945 . S
Zn95 O94 1.923 . S
Zn95 O98 1.933 . S
Zn95 O101 1.941 . S
Zn95 O102 1.965 . S
Zn96 O94 1.950 . S
Zn96 O103 1.938 . S
Zn96 O104 1.906 . S
Zn96 O114 1.953 . S
Zn97 O94 1.945 . S
Zn97 O99 1.932 . S
Zn97 O106 1.977 . S
Zn97 O107 1.910 . S
O98 Zn95 1.933 . S
O98 C109 1.226 . S
O99 Zn97 1.932 . S
O99 C109 1.307 . S
O100 Zn93 1.919 . S
O100 C111 1.253 . S
O101 Zn95 1.941 . S
O101 C111 1.283 . S
O102 Zn95 1.965 . S
O102 C110 1.303 . S
O103 Zn96 1.938 . S
O103 C110 1.247 . S
O104 Zn96 1.906 . S
O104 C112 1.304 . S
O105 Zn93 1.924 . S
O105 C113 1.311 . S
O106 Zn97 1.977 . S
O106 C112 1.272 . S
O107 Zn97 1.910 . S
O107 C113 1.231 . S
C108 O92 1.225 . S
C108 O114 1.298 . S
C109 O98 1.226 . S
C109 O99 1.307 . S
C110 O102 1.303 . S
C110 O103 1.247 . S
C111 O100 1.253 . S
C111 O101 1.283 . S
C112 O104 1.304 . S
C112 O106 1.272 . S
C113 O105 1.311 . S
C113 O107 1.231 . S
O114 Zn96 1.953 . S
O114 C108 1.298 . S
O115 Zn116 1.953 . S
O115 C131 1.225 . S
Zn116 O115 1.953 . S
Zn116 O117 1.949 . S
Zn116 O123 1.919 . S
Zn116 O128 1.924 . S
O117 Zn116 1.949 . S
O117 Zn118 1.923 . S
O117 Zn119 1.950 . S
O117 Zn120 1.945 . S
Zn118 O117 1.923 . S
Zn118 O121 1.933 . S
Zn118 O124 1.941 . S
Zn118 O125 1.965 . S
Zn119 O117 1.950 . S
Zn119 O126 1.938 . S
Zn119 O127 1.906 . S
Zn119 O137 1.953 . S
Zn120 O117 1.945 . S
Zn120 O122 1.932 . S
Zn120 O129 1.977 . S
Zn120 O130 1.910 . S
O121 Zn118 1.933 . S
O121 C132 1.226 . S
O122 Zn120 1.932 . S
O122 C132 1.307 . S
O123 Zn116 1.919 . S
O123 C134 1.253 . S
O124 Zn118 1.941 . S
O124 C134 1.283 . S
O125 Zn118 1.965 . S
O125 C133 1.303 . S
O126 Zn119 1.938 . S
O126 C133 1.247 . S
O127 Zn119 1.906 . S
O127 C135 1.304 . S
O128 Zn116 1.924 . S
O128 C136 1.311 . S
O129 Zn120 1.977 . S
O129 C135 1.272 . S
O130 Zn120 1.910 . S
O130 C136 1.231 . S
C131 O115 1.225 . S
C131 O137 1.298 . S
C132 O121 1.226 . S
C132 O122 1.307 . S
C133 O125 1.303 . S
C133 O126 1.247 . S
C134 O123 1.253 . S
C134 O124 1.283 . S
C135 O127 1.304 . S
C135 O129 1.272 . S
C136 O128 1.311 . S
C136 O130 1.231 . S
O137 Zn119 1.953 . S
O137 C131 1.298 . S
O138 Zn139 1.953 . S
O138 C154 1.225 . S
Zn139 O138 1.953 . S
Zn139 O140 1.949 . S
Zn139 O146 1.919 . S
Zn139 O151 1.924 . S
O140 Zn139 1.949 . S
O140 Zn141 1.923 . S
O140 Zn142 1.950 . S
O140 Zn143 1.945 . S
Zn141 O140 1.923 . S
Zn141 O144 1.933 . S
Zn141 O147 1.941 . S
Zn141 O148 1.965 . S
Zn142 O140 1.950 . S
Zn142 O149 1.938 . S
Zn142 O150 1.906 . S
Zn142 O160 1.953 . S
Zn143 O140 1.945 . S
Zn143 O145 1.932 . S
Zn143 O152 1.977 . S
Zn143 O153 1.910 . S
O144 Zn141 1.933 . S
O144 C155 1.226 . S
O145 Zn143 1.932 . S
O145 C155 1.307 . S
O146 Zn139 1.919 . S
O146 C157 1.253 . S
O147 Zn141 1.941 . S
O147 C157 1.283 . S
O148 Zn141 1.965 . S
O148 C156 1.303 1_556 S
O149 Zn142 1.938 . S
O149 C156 1.247 1_556 S
O150 Zn142 1.906 . S
O150 C158 1.304 . S
O151 Zn139 1.924 . S
O151 C159 1.311 . S
O152 Zn143 1.977 . S
O152 C158 1.272 . S
O153 Zn143 1.910 . S
O153 C159 1.231 . S
C154 O138 1.225 . S
C154 O160 1.298 . S
C155 O144 1.226 . S
C155 O145 1.307 . S
C156 O148 1.303 1_554 S
C156 O149 1.247 1_554 S
C157 O146 1.253 . S
C157 O147 1.283 . S
C158 O150 1.304 . S
C158 O152 1.272 . S
C159 O151 1.311 . S
C159 O153 1.231 . S
O160 Zn142 1.953 . S
O160 C154 1.298 . S
O161 Zn162 1.953 . S
O161 C177 1.225 . S
Zn162 O161 1.953 . S
Zn162 O163 1.949 . S
Zn162 O169 1.919 . S
Zn162 O174 1.924 . S
O163 Zn162 1.949 . S
O163 Zn164 1.923 . S
O163 Zn165 1.950 . S
O163 Zn166 1.945 . S
Zn164 O163 1.923 . S
Zn164 O167 1.933 . S
Zn164 O170 1.941 . S
Zn164 O171 1.965 . S
Zn165 O163 1.950 . S
Zn165 O172 1.938 . S
Zn165 O173 1.906 . S
Zn165 O183 1.953 . S
Zn166 O163 1.945 . S
Zn166 O168 1.932 . S
Zn166 O175 1.977 . S
Zn166 O176 1.910 . S
O167 Zn164 1.933 . S
O167 C178 1.226 . S
O168 Zn166 1.932 . S
O168 C178 1.307 . S
O169 Zn162 1.919 . S
O169 C180 1.253 . S
O170 Zn164 1.941 . S
O170 C180 1.283 . S
O171 Zn164 1.965 . S
O171 C179 1.303 1_556 S
O172 Zn165 1.938 . S
O172 C179 1.247 1_556 S
O173 Zn165 1.906 . S
O173 C181 1.304 . S
O174 Zn162 1.924 . S
O174 C182 1.311 . S
O175 Zn166 1.977 . S
O175 C181 1.272 . S
O176 Zn166 1.910 . S
O176 C182 1.231 . S
C177 O161 1.225 . S
C177 O183 1.298 . S
C178 O167 1.226 . S
C178 O168 1.307 . S
C179 O171 1.303 1_554 S
C179 O172 1.247 1_554 S
C180 O169 1.253 . S
C180 O170 1.283 . S
C181 O173 1.304 . S
C181 O175 1.272 . S
C182 O174 1.311 . S
C182 O176 1.231 . S
O183 Zn165 1.953 . S
O183 C177 1.298 . S
O184 Zn185 1.953 . S
O184 C200 1.225 . S
Zn185 O184 1.953 . S
Zn185 O186 1.949 . S
Zn185 O192 1.919 . S
Zn185 O197 1.924 . S
O186 Zn185 1.949 . S
O186 Zn187 1.923 . S
O186 Zn188 1.950 . S
O186 Zn189 1.945 . S
Zn187 O186 1.923 . S
Zn187 O190 1.933 . S
Zn187 O193 1.941 . S
Zn187 O194 1.965 . S
Zn188 O186 1.950 . S
Zn188 O195 1.938 . S
Zn188 O196 1.906 . S
Zn188 O206 1.953 . S
Zn189 O186 1.945 . S
Zn189 O191 1.932 . S
Zn189 O198 1.977 . S
Zn189 O199 1.910 . S
O190 Zn187 1.933 . S
O190 C201 1.226 . S
O191 Zn189 1.932 . S
O191 C201 1.307 . S
O192 Zn185 1.919 . S
O192 C203 1.253 . S
O193 Zn187 1.941 . S
O193 C203 1.283 . S
O194 Zn187 1.965 . S
O194 C202 1.303 1_556 S
O195 Zn188 1.938 . S
O195 C202 1.247 1_556 S
O196 Zn188 1.906 . S
O196 C204 1.304 . S
O197 Zn185 1.924 . S
O197 C205 1.311 . S
O198 Zn189 1.977 . S
O198 C204 1.272 . S
O199 Zn189 1.910 . S
O199 C205 1.231 . S
C200 O184 1.225 . S
C200 O206 1.298 . S
C201 O190 1.226 . S
C201 O191 1.307 . S
C202 O194 1.303 1_554 S
C202 O195 1.247 1_554 S
C203 O192 1.253 . S
C203 O193 1.283 . S
C204 O196 1.304 . S
C204 O198 1.272 . S
C205 O197 1.311 . S
C205 O199 1.231 . S
O206 Zn188 1.953 . S
O206 C200 1.298 . S
C207 C208 1.369 . S
C207 C209 1.419 . S
C207 H211 0.930 . S
C208 C207 1.369 . S
C208 C217 1.429 1_455 S
C209 C207 1.419 . S
C209 C210 1.363 1_455 S
C209 H212 0.929 . S
C210 C209 1.363 1_655 S
C210 C216 1.428 . S
H211 C207 0.930 . S
H212 C209 0.929 . S
S213 N214 1.613 . S
S213 N215 1.610 . S
N214 S213 1.613 . S
N214 C217 1.350 . S
N215 S213 1.610 . S
N215 C216 1.351 . S
C216 C210 1.428 . S
C216 N215 1.351 . S
C216 C217 1.434 . S
C217 C208 1.429 1_655 S
C217 N214 1.350 . S
C217 C216 1.434 . S
C218 C219 1.369 . S
C218 C220 1.419 . S
C218 H222 0.930 . S
C219 C218 1.369 . S
C219 C228 1.429 . S
C220 C218 1.419 . S
C220 C221 1.363 . S
C220 H223 0.929 . S
C221 C220 1.363 . S
C221 C227 1.428 . S
H222 C218 0.930 . S
H223 C220 0.929 . S
S224 N225 1.613 . S
S224 N226 1.610 . S
N225 S224 1.613 . S
N225 C228 1.350 . S
N226 S224 1.610 . S
N226 C227 1.351 . S
C227 C221 1.428 . S
C227 N226 1.351 . S
C227 C228 1.434 . S
C228 C219 1.429 . S
C228 N225 1.350 . S
C228 C227 1.434 . S
C229 C230 1.369 . S
C229 C231 1.419 . S
C229 H233 0.930 1_545 S
C230 C229 1.369 . S
C230 C239 1.429 . S
C231 C229 1.419 . S
C231 C232 1.363 . S
C231 H234 0.929 . S
C232 C231 1.363 . S
C232 C238 1.428 . S
H233 C229 0.930 1_565 S
H234 C231 0.929 . S
S235 N236 1.613 . S
S235 N237 1.610 . S
N236 S235 1.613 . S
N236 C239 1.350 . S
N237 S235 1.610 . S
N237 C238 1.351 . S
C238 C232 1.428 . S
C238 N237 1.351 . S
C238 C239 1.434 . S
C239 C230 1.429 . S
C239 N236 1.350 . S
C239 C238 1.434 . S
C240 C241 1.369 . S
C240 C242 1.419 . S
C240 H244 0.930 . S
C241 C240 1.369 . S
C241 C250 1.429 . S
C242 C240 1.419 . S
C242 C243 1.363 . S
C242 H245 0.929 . S
C243 C242 1.363 . S
C243 C249 1.428 . S
H244 C240 0.930 . S
H245 C242 0.929 . S
S246 N247 1.613 1_554 S
S246 N248 1.610 . S
N247 S246 1.613 1_556 S
N247 C250 1.350 . S
N248 S246 1.610 . S
N248 C249 1.351 1_554 S
C249 C243 1.428 . S
C249 N248 1.351 1_556 S
C249 C250 1.434 . S
C250 C241 1.429 . S
C250 N247 1.350 . S
C250 C249 1.434 . S
C251 C252 1.369 . S
C251 C253 1.419 . S
C251 H255 0.930 . S
C252 C251 1.369 . S
C252 C261 1.429 . S
C253 C251 1.419 . S
C253 C254 1.363 . S
C253 H256 0.929 1_556 S
C254 C253 1.363 . S
C254 C260 1.428 . S
H255 C251 0.930 . S
H256 C253 0.929 1_554 S
S257 N258 1.613 . S
S257 N259 1.610 . S
N258 S257 1.613 . S
N258 C261 1.350 . S
N259 S257 1.610 . S
N259 C260 1.351 . S
C260 C254 1.428 . S
C260 N259 1.351 . S
C260 C261 1.434 . S
C261 C252 1.429 . S
C261 N258 1.350 . S
C261 C260 1.434 . S
C262 C263 1.369 . S
C262 C264 1.419 . S
C262 H266 0.930 . S
C263 C262 1.369 . S
C263 C272 1.429 . S
C264 C262 1.419 . S
C264 C265 1.363 . S
C264 H267 0.929 . S
C265 C264 1.363 . S
C265 C271 1.428 . S
H266 C262 0.930 . S
H267 C264 0.929 . S
S268 N269 1.613 . S
S268 N270 1.610 1_556 S
N269 S268 1.613 . S
N269 C272 1.350 . S
N270 S268 1.610 1_554 S
N270 C271 1.351 1_554 S
C271 C265 1.428 . S
C271 N270 1.351 1_556 S
C271 C272 1.434 . S
C272 C263 1.429 . S
C272 N269 1.350 . S
C272 C271 1.434 . S
C273 C274 1.369 . S
C273 C275 1.419 . S
C273 H277 0.930 . S
C274 C273 1.369 . S
C274 C283 1.429 . S
C275 C273 1.419 . S
C275 C276 1.363 . S
C275 H278 0.929 . S
C276 C275 1.363 . S
C276 C282 1.428 . S
H277 C273 0.930 . S
H278 C275 0.929 . S
S279 N280 1.613 . S
S279 N281 1.610 . S
N280 S279 1.613 . S
N280 C283 1.350 . S
N281 S279 1.610 . S
N281 C282 1.351 . S
C282 C276 1.428 . S
C282 N281 1.351 . S
C282 C283 1.434 . S
C283 C274 1.429 . S
C283 N280 1.350 . S
C283 C282 1.434 . S
C284 C285 1.369 . S
C284 C286 1.419 . S
C284 H288 0.930 . S
C285 C284 1.369 . S
C285 C294 1.429 . S
C286 C284 1.419 . S
C286 C287 1.363 . S
C286 H289 0.929 . S
C287 C286 1.363 . S
C287 C293 1.428 . S
H288 C284 0.930 . S
H289 C286 0.929 . S
S290 N291 1.613 . S
S290 N292 1.610 . S
N291 S290 1.613 . S
N291 C294 1.350 . S
N292 S290 1.610 . S
N292 C293 1.351 . S
C293 C287 1.428 . S
C293 N292 1.351 . S
C293 C294 1.434 . S
C294 C285 1.429 . S
C294 N291 1.350 . S
C294 C293 1.434 . S
C295 C296 1.369 . S
C295 C297 1.419 . S
C295 H299 0.930 . S
C296 C295 1.369 . S
C296 C305 1.429 . S
C297 C295 1.419 . S
C297 C298 1.363 . S
C297 H300 0.929 . S
C298 C297 1.363 . S
C298 C304 1.428 . S
H299 C295 0.930 . S
H300 C297 0.929 . S
S301 N302 1.613 . S
S301 N303 1.610 . S
N302 S301 1.613 . S
N302 C305 1.350 . S
N303 S301 1.610 . S
N303 C304 1.351 . S
C304 C298 1.428 . S
C304 N303 1.351 . S
C304 C305 1.434 . S
C305 C296 1.429 . S
C305 N302 1.350 . S
C305 C304 1.434 . S
C306 C307 1.369 . S
C306 C308 1.419 . S
C306 H310 0.930 . S
C307 C306 1.369 . S
C307 C316 1.429 . S
C308 C306 1.419 . S
C308 C309 1.363 . S
C308 H311 0.929 . S
C309 C308 1.363 . S
C309 C315 1.428 . S
H310 C306 0.930 . S
H311 C308 0.929 . S
S312 N313 1.613 . S
S312 N314 1.610 . S
N313 S312 1.613 . S
N313 C316 1.350 . S
N314 S312 1.610 . S
N314 C315 1.351 . S
C315 C309 1.428 . S
C315 N314 1.351 . S
C315 C316 1.434 . S
C316 C307 1.429 . S
C316 N313 1.350 . S
C316 C315 1.434 . S
C317 C318 1.369 . S
C317 C319 1.419 . S
C317 H321 0.930 . S
C318 C317 1.369 . S
C318 C327 1.429 . S
C319 C317 1.419 . S
C319 C320 1.363 . S
C319 H322 0.929 . S
C320 C319 1.363 . S
C320 C326 1.428 . S
H321 C317 0.930 . S
H322 C319 0.929 . S
S323 N324 1.613 . S
S323 N325 1.610 . S
N324 S323 1.613 . S
N324 C327 1.350 . S
N325 S323 1.610 . S
N325 C326 1.351 . S
C326 C320 1.428 . S
C326 N325 1.351 . S
C326 C327 1.434 . S
C327 C318 1.429 . S
C327 N324 1.350 . S
C327 C326 1.434 . S
C328 C329 1.369 . S
C328 C330 1.419 . S
C328 H332 0.930 . S
C329 C328 1.369 . S
C329 C338 1.429 . S
C330 C328 1.419 . S
C330 C331 1.363 . S
C330 H333 0.929 . S
C331 C330 1.363 . S
C331 C337 1.428 . S
H332 C328 0.930 . S
H333 C330 0.929 . S
S334 N335 1.613 . S
S334 N336 1.610 1_556 S
N335 S334 1.613 . S
N335 C338 1.350 1_556 S
N336 S334 1.610 1_554 S
N336 C337 1.351 . S
C337 C331 1.428 . S
C337 N336 1.351 . S
C337 C338 1.434 . S
C338 C329 1.429 . S
C338 N335 1.350 1_554 S
C338 C337 1.434 . S
C339 C340 1.369 . S
C339 C341 1.419 . S
C339 H343 0.930 . S
C340 C339 1.369 . S
C340 C349 1.429 . S
C341 C339 1.419 . S
C341 C342 1.363 . S
C341 H344 0.929 . S
C342 C341 1.363 . S
C342 C348 1.428 . S
H343 C339 0.930 . S
H344 C341 0.929 . S
S345 N346 1.613 . S
S345 N347 1.610 . S
N346 S345 1.613 . S
N346 C349 1.350 . S
N347 S345 1.610 . S
N347 C348 1.351 . S
C348 C342 1.428 . S
C348 N347 1.351 . S
C348 C349 1.434 . S
C349 C340 1.429 . S
C349 N346 1.350 . S
C349 C348 1.434 . S
C350 C351 1.369 . S
C350 C352 1.419 . S
C350 H354 0.930 . S
C351 C350 1.369 . S
C351 C360 1.429 . S
C352 C350 1.419 . S
C352 C353 1.363 . S
C352 H355 0.929 1_556 S
C353 C352 1.363 . S
C353 C359 1.428 . S
H354 C350 0.930 . S
H355 C352 0.929 1_554 S
S356 N357 1.613 . S
S356 N358 1.610 . S
N357 S356 1.613 . S
N357 C360 1.350 . S
N358 S356 1.610 . S
N358 C359 1.351 . S
C359 C353 1.428 . S
C359 N358 1.351 . S
C359 C360 1.434 . S
C360 C351 1.429 . S
C360 N357 1.350 . S
C360 C359 1.434 . S
C361 C362 1.369 . S
C361 C363 1.419 . S
C361 H365 0.930 . S
C362 C361 1.369 . S
C362 C371 1.429 . S
C363 C361 1.419 . S
C363 C364 1.363 . S
C363 H366 0.929 . S
C364 C363 1.363 . S
C364 C370 1.428 . S
H365 C361 0.930 . S
H366 C363 0.929 . S
S367 N368 1.613 1_554 S
S367 N369 1.610 . S
N368 S367 1.613 1_556 S
N368 C371 1.350 . S
N369 S367 1.610 . S
N369 C370 1.351 1_554 S
C370 C364 1.428 . S
C370 N369 1.351 1_556 S
C370 C371 1.434 . S
C371 C362 1.429 . S
C371 N368 1.350 . S
C371 C370 1.434 . S
C372 C373 1.369 . S
C372 C374 1.419 . S
C372 H376 0.930 . S
C373 C372 1.369 . S
C373 C382 1.429 . S
C374 C372 1.419 . S
C374 C375 1.363 . S
C374 H377 0.929 1_556 S
C375 C374 1.363 . S
C375 C381 1.428 . S
H376 C372 0.930 . S
H377 C374 0.929 1_554 S
S378 N379 1.613 . S
S378 N380 1.610 . S
N379 S378 1.613 . S
N379 C382 1.350 . S
N380 S378 1.610 . S
N380 C381 1.351 . S
C381 C375 1.428 . S
C381 N380 1.351 . S
C381 C382 1.434 . S
C382 C373 1.429 . S
C382 N379 1.350 . S
C382 C381 1.434 . S
C383 C384 1.369 . S
C383 C385 1.419 . S
C383 H387 0.930 1_556 S
C384 C383 1.369 . S
C384 C393 1.429 . S
C385 C383 1.419 . S
C385 C386 1.363 . S
C385 H388 0.929 . S
C386 C385 1.363 . S
C386 C392 1.428 . S
H387 C383 0.930 1_554 S
H388 C385 0.929 . S
S389 N390 1.613 . S
S389 N391 1.610 . S
N390 S389 1.613 . S
N390 C393 1.350 . S
N391 S389 1.610 . S
N391 C392 1.351 . S
C392 C386 1.428 . S
C392 N391 1.351 . S
C392 C393 1.434 . S
C393 C384 1.429 . S
C393 N390 1.350 . S
C393 C392 1.434 . S
C394 C395 1.369 . S
C394 C396 1.419 . S
C394 H398 0.930 . S
C395 C394 1.369 . S
C395 C404 1.429 . S
C396 C394 1.419 . S
C396 C397 1.363 . S
C396 H399 0.929 . S
C397 C396 1.363 . S
C397 C403 1.428 . S
H398 C394 0.930 . S
H399 C396 0.929 . S
S400 N401 1.613 . S
S400 N402 1.610 . S
N401 S400 1.613 . S
N401 C404 1.350 . S
N402 S400 1.610 . S
N402 C403 1.351 . S
C403 C397 1.428 . S
C403 N402 1.351 . S
C403 C404 1.434 . S
C404 C395 1.429 . S
C404 N401 1.350 . S
C404 C403 1.434 . S
C405 C406 1.369 . S
C405 C407 1.419 . S
C405 H409 0.930 . S
C406 C405 1.369 . S
C406 C415 1.429 . S
C407 C405 1.419 . S
C407 C408 1.363 . S
C407 H410 0.929 . S
C408 C407 1.363 . S
C408 C414 1.428 . S
H409 C405 0.930 . S
H410 C407 0.929 . S
S411 N412 1.613 . S
S411 N413 1.610 1_556 S
N412 S411 1.613 . S
N412 C415 1.350 1_556 S
N413 S411 1.610 1_554 S
N413 C414 1.351 . S
C414 C408 1.428 . S
C414 N413 1.351 . S
C414 C415 1.434 . S
C415 C406 1.429 . S
C415 N412 1.350 1_554 S
C415 C414 1.434 . S
C416 C417 1.369 . S
C416 C418 1.419 . S
C416 H420 0.930 . S
C417 C416 1.369 . S
C417 C426 1.429 . S
C418 C416 1.419 . S
C418 C419 1.363 . S
C418 H421 0.929 . S
C419 C418 1.363 . S
C419 C425 1.428 . S
H420 C416 0.930 . S
H421 C418 0.929 . S
S422 N423 1.613 . S
S422 N424 1.610 . S
N423 S422 1.613 . S
N423 C426 1.350 . S
N424 S422 1.610 . S
N424 C425 1.351 . S
C425 C419 1.428 . S
C425 N424 1.351 . S
C425 C426 1.434 . S
C426 C417 1.429 . S
C426 N423 1.350 . S
C426 C425 1.434 . S
C427 C428 1.369 . S
C427 C429 1.419 . S
C427 H431 0.930 . S
C428 C427 1.369 . S
C428 C437 1.429 . S
C429 C427 1.419 . S
C429 C430 1.363 . S
C429 H432 0.929 . S
C430 C429 1.363 . S
C430 C436 1.428 . S
H431 C427 0.930 . S
H432 C429 0.929 . S
S433 N434 1.613 . S
S433 N435 1.610 . S
N434 S433 1.613 . S
N434 C437 1.350 . S
N435 S433 1.610 . S
N435 C436 1.351 . S
C436 C430 1.428 . S
C436 N435 1.351 . S
C436 C437 1.434 . S
C437 C428 1.429 . S
C437 N434 1.350 . S
C437 C436 1.434 . S
C438 C439 1.369 . S
C438 C440 1.419 . S
C438 H442 0.930 . S
C439 C438 1.369 . S
C439 C448 1.429 . S
C440 C438 1.419 . S
C440 C441 1.363 . S
C440 H443 0.929 . S
C441 C440 1.363 . S
C441 C447 1.428 . S
H442 C438 0.930 . S
H443 C440 0.929 . S
S444 N445 1.613 . S
S444 N446 1.610 . S
N445 S444 1.613 . S
N445 C448 1.350 . S
N446 S444 1.610 . S
N446 C447 1.351 . S
C447 C441 1.428 . S
C447 N446 1.351 . S
C447 C448 1.434 . S
C448 C439 1.429 . S
C448 N445 1.350 . S
C448 C447 1.434 . S
C449 C450 1.369 . S
C449 C451 1.419 . S
C449 H453 0.930 . S
C450 C449 1.369 . S
C450 C459 1.429 . S
C451 C449 1.419 . S
C451 C452 1.363 1_545 S
C451 H454 0.929 . S
C452 C451 1.363 1_565 S
C452 C458 1.428 . S
H453 C449 0.930 . S
H454 C451 0.929 . S
S455 N456 1.613 1_565 S
S455 N457 1.610 . S
N456 S455 1.613 1_545 S
N456 C459 1.350 . S
N457 S455 1.610 . S
N457 C458 1.351 . S
C458 C452 1.428 . S
C458 N457 1.351 . S
C458 C459 1.434 1_565 S
C459 C450 1.429 . S
C459 N456 1.350 . S
C459 C458 1.434 1_545 S
C460 C461 1.354 1_455 S
C460 C462 1.432 . S
C460 H464 0.932 . S
C461 C460 1.354 1_655 S
C461 C470 1.429 . S
C462 C460 1.432 . S
C462 C463 1.363 . S
C462 H465 0.929 . S
C463 C462 1.363 . S
C463 C469 1.428 1_455 S
H464 C460 0.932 . S
H465 C462 0.929 . S
S466 N467 1.613 . S
S466 N468 1.610 . S
N467 S466 1.613 . S
N467 C470 1.350 . S
N468 S466 1.610 . S
N468 C469 1.351 . S
C469 C463 1.428 1_655 S
C469 N468 1.351 . S
C469 C470 1.434 . S
C470 C461 1.429 . S
C470 N467 1.350 . S
C470 C469 1.434 . S
C471 C472 1.369 . S
C471 C473 1.419 . S
C471 H475 0.930 . S
C472 C471 1.369 . S
C472 C481 1.429 . S
C473 C471 1.419 . S
C473 C474 1.363 . S
C473 H476 0.929 . S
C474 C473 1.363 . S
C474 C480 1.428 . S
H475 C471 0.930 . S
H476 C473 0.929 . S
S477 N478 1.613 . S
S477 N479 1.610 . S
N478 S477 1.613 . S
N478 C481 1.350 . S
N479 S477 1.610 . S
N479 C480 1.351 . S
C480 C474 1.428 . S
C480 N479 1.351 . S
C480 C481 1.434 . S
C481 C472 1.429 . S
C481 N478 1.350 . S
C481 C480 1.434 . S
C482 C483 1.369 . S
C482 C484 1.419 . S
C482 H486 0.930 1_545 S
C483 C482 1.369 . S
C483 C492 1.429 . S
C484 C482 1.419 . S
C484 C485 1.363 . S
C484 H487 0.929 . S
C485 C484 1.363 . S
C485 C491 1.428 . S
H486 C482 0.930 1_565 S
H487 C484 0.929 . S
S488 N489 1.613 . S
S488 N490 1.610 . S
N489 S488 1.613 . S
N489 C492 1.350 . S
N490 S488 1.610 . S
N490 C491 1.351 . S
C491 C485 1.428 . S
C491 N490 1.351 . S
C491 C492 1.434 . S
C492 C483 1.429 . S
C492 N489 1.350 . S
C492 C491 1.434 . S
C493 C494 1.369 . S
C493 C495 1.419 1_655 S
C493 H497 0.930 . S
C494 C493 1.369 . S
C494 C503 1.429 . S
C495 C493 1.419 1_455 S
C495 C496 1.363 . S
C495 H498 0.929 . S
C496 C495 1.363 . S
C496 C502 1.428 1_455 S
H497 C493 0.930 . S
H498 C495 0.929 . S
S499 N500 1.613 . S
S499 N501 1.610 . S
N500 S499 1.613 . S
N500 C503 1.350 . S
N501 S499 1.610 . S
N501 C502 1.351 . S
C502 C496 1.428 1_655 S
C502 N501 1.351 . S
C502 C503 1.434 . S
C503 C494 1.429 . S
C503 N500 1.350 . S
C503 C502 1.434 . S
C208 C19 1.290 . S
C210 C20 1.144 . S
C219 C42 1.293 . S
C221 C43 1.143 . S
C230 C65 1.292 . S
C232 C66 1.144 . S
C241 C87 1.395 . S
C243 C90 1.206 1_556 S
C252 C110 1.390 . S
C254 C113 1.215 1_556 S
C263 C133 1.395 . S
C265 C136 1.206 1_556 S
C274 C159 1.186 . S
C276 C156 1.343 . S
C285 C182 1.186 . S
C287 C179 1.342 . S
C296 C205 1.176 . S
C298 C202 1.345 . S
C307 C132 1.531 . S
C309 C16 1.508 . S
C318 C39 1.514 . S
C320 C86 1.530 . S
C329 C62 1.514 . S
C331 C109 1.528 . S
C340 C64 1.321 . S
C342 C157 1.280 . S
C351 C180 1.285 . S
C353 C18 1.318 . S
C362 C203 1.274 . S
C364 C41 1.318 . S
C373 C200 1.178 . S
C375 C17 1.192 . S
C384 C40 1.192 . S
C386 C154 1.175 . S
C395 C177 1.173 . S
C397 C63 1.194 . S
C406 C67 1.337 . S
C408 C89 1.349 . S
C417 C112 1.350 . S
C419 C21 1.339 . S
C428 C44 1.341 . S
C430 C135 1.357 . S
C439 C201 1.390 . S
C441 C88 1.352 . S
C450 C155 1.397 . S
C452 C111 1.343 . S
C461 C178 1.391 . S
C463 C134 1.352 . S
C472 C158 1.191 . S
C474 C131 1.292 . S
C483 C85 1.293 1_545 S
C485 C181 1.194 . S
C494 C204 1.186 . S
C496 C108 1.292 . S
