# Generated by pormake.
# Topology umj, (4)-cn, num edge types: 1
# Building blocks:
#     Node 0, Type 0, BuildingBlock: MUDLON_clean_sbu_0, # of connection points: 4
#     Node 1, Type 0, BuildingBlock: MUDLON_clean_sbu_0, # of connection points: 4
#     Node 2, Type 0, BuildingBlock: MUDLON_clean_sbu_0, # of connection points: 4
#     Node 3, Type 0, BuildingBlock: MUDLON_clean_sbu_0, # of connection points: 4
#     Node 4, Type 0, BuildingBlock: MUDLON_clean_sbu_0, # of connection points: 4
#     Node 5, Type 0, BuildingBlock: MUDLON_clean_sbu_0, # of connection points: 4
#     Node 6, Type 0, BuildingBlock: MUDLON_clean_sbu_0, # of connection points: 4
#     Node 7, Type 0, BuildingBlock: MUDLON_clean_sbu_0, # of connection points: 4
#     Node 8, Type 0, BuildingBlock: MUDLON_clean_sbu_0, # of connection points: 4
#     Node 9, Type 0, BuildingBlock: MUDLON_clean_sbu_0, # of connection points: 4
#     Node 10, Type 0, BuildingBlock: MUDLON_clean_sbu_0, # of connection points: 4
#     Node 11, Type 0, BuildingBlock: MUDLON_clean_sbu_0, # of connection points: 4
#     Edge 12, Type (0, 0), BuildingBlock: KIFKEQ_clean_linker_1, # of connection points: 2
#     Edge 13, Type (0, 0), BuildingBlock: KIFKEQ_clean_linker_1, # of connection points: 2
#     Edge 14, Type (0, 0), BuildingBlock: KIFKEQ_clean_linker_1, # of connection points: 2
#     Edge 15, Type (0, 0), BuildingBlock: KIFKEQ_clean_linker_1, # of connection points: 2
#     Edge 16, Type (0, 0), BuildingBlock: KIFKEQ_clean_linker_1, # of connection points: 2
#     Edge 17, Type (0, 0), BuildingBlock: KIFKEQ_clean_linker_1, # of connection points: 2
#     Edge 18, Type (0, 0), BuildingBlock: KIFKEQ_clean_linker_1, # of connection points: 2
#     Edge 19, Type (0, 0), BuildingBlock: KIFKEQ_clean_linker_1, # of connection points: 2
#     Edge 20, Type (0, 0), BuildingBlock: KIFKEQ_clean_linker_1, # of connection points: 2
#     Edge 21, Type (0, 0), BuildingBlock: KIFKEQ_clean_linker_1, # of connection points: 2
#     Edge 22, Type (0, 0), BuildingBlock: KIFKEQ_clean_linker_1, # of connection points: 2
#     Edge 23, Type (0, 0), BuildingBlock: KIFKEQ_clean_linker_1, # of connection points: 2
#     Edge 24, Type (0, 0), BuildingBlock: KIFKEQ_clean_linker_1, # of connection points: 2
#     Edge 25, Type (0, 0), BuildingBlock: KIFKEQ_clean_linker_1, # of connection points: 2
#     Edge 26, Type (0, 0), BuildingBlock: KIFKEQ_clean_linker_1, # of connection points: 2
#     Edge 27, Type (0, 0), BuildingBlock: KIFKEQ_clean_linker_1, # of connection points: 2
#     Edge 28, Type (0, 0), BuildingBlock: KIFKEQ_clean_linker_1, # of connection points: 2
#     Edge 29, Type (0, 0), BuildingBlock: KIFKEQ_clean_linker_1, # of connection points: 2
#     Edge 30, Type (0, 0), BuildingBlock: KIFKEQ_clean_linker_1, # of connection points: 2
#     Edge 31, Type (0, 0), BuildingBlock: KIFKEQ_clean_linker_1, # of connection points: 2
#     Edge 32, Type (0, 0), BuildingBlock: KIFKEQ_clean_linker_1, # of connection points: 2
#     Edge 33, Type (0, 0), BuildingBlock: KIFKEQ_clean_linker_1, # of connection points: 2
#     Edge 34, Type (0, 0), BuildingBlock: KIFKEQ_clean_linker_1, # of connection points: 2
#     Edge 35, Type (0, 0), BuildingBlock: KIFKEQ_clean_linker_1, # of connection points: 2
# Relax obj value: 0.017
# Max RMSD: 0.120
# Mean RMSD: 0.120
data_MOF--net-umj--node1-MUDLON_clean_sbu_0--edge1-KIFKEQ_clean_linker_1
_symmetry_space_group_name_H-M    P1
_symmetry_Int_Tables_number       1
_symmetry_cell_setting            triclinic
loop_
_symmetry_equiv_pos_as_xyz
'x, y, z'
_cell_length_a     31.042233
_cell_length_b     31.046763
_cell_length_c     89.284849
_cell_angle_alpha  89.917738
_cell_angle_beta   90.026125
_cell_angle_gamma 120.02539
loop_
_atom_site_label
_atom_site_type_symbol
_atom_site_fract_x
_atom_site_fract_y
_atom_site_fract_z
_atom_type_partial_charge
Mg0 Mg 0.04947 0.27354 0.09872 0.0
C1 C 0.02372 0.266 0.12965 0.0
O2 O 0.98297 0.25129 0.12176 0.0
C3 C 0.08503 0.29943 0.06914 0.0
O4 O 0.03634 0.27904 0.06917 0.0
C5 C 0.04512 0.36222 0.09788 0.0
O6 O 0.09013 0.37286 0.10191 0.0
O7 O 0.01294 0.3169 0.09536 0.0
O8 O 0.06448 0.28029 0.12266 0.0
O9 O 0.01385 0.19415 0.09451 0.0
C10 C 0.04576 0.18059 0.097 0.0
O11 O 0.09051 0.21446 0.10139 0.0
O12 O 0.10697 0.30441 0.08162 0.0
Mg13 Mg 0.77865 0.04858 0.43289 0.0
C14 C 0.75922 0.02251 0.46379 0.0
O15 O 0.73159 0.98232 0.45584 0.0
C16 C 0.78924 0.08397 0.40331 0.0
O17 O 0.76105 0.03527 0.40341 0.0
C18 C 0.68563 0.04465 0.43191 0.0
O19 O 0.7199 0.08952 0.43606 0.0
O20 O 0.69882 0.01252 0.42938 0.0
O21 O 0.78702 0.06309 0.45687 0.0
O22 O 0.82204 0.01257 0.42865 0.0
C23 C 0.86763 0.04451 0.43096 0.0
O24 O 0.87876 0.08949 0.43516 0.0
O25 O 0.80583 0.10612 0.41578 0.0
Mg26 Mg 0.73284 0.78803 0.76422 0.0
C27 C 0.74524 0.76856 0.79479 0.0
O28 O 0.76094 0.74465 0.78629 0.0
C29 C 0.66791 0.80192 0.74088 0.0
O30 O 0.63228 0.75831 0.74543 0.0
C31 C 0.64643 0.69024 0.76667 0.0
O32 O 0.63862 0.71956 0.77546 0.0
O33 O 0.68773 0.70865 0.7597 0.0
O34 O 0.72866 0.79411 0.78842 0.0
O35 O 0.8127 0.82932 0.76017 0.0
C36 C 0.82822 0.87443 0.76383 0.0
O37 O 0.79573 0.88592 0.76912 0.0
O38 O 0.70816 0.82435 0.74834 0.0
Mg39 Mg 0.96574 0.7316 0.09797 0.0
C40 C 0.99147 0.74046 0.12888 0.0
O41 O 0.03221 0.75533 0.12097 0.0
C42 C 0.92971 0.70297 0.06841 0.0
O43 O 0.97801 0.72053 0.06847 0.0
C44 C 0.97038 0.64297 0.09788 0.0
O45 O 0.92555 0.63248 0.10205 0.0
O46 O 1.0023 0.68812 0.09499 0.0
O47 O 0.95057 0.72551 0.12191 0.0
O48 O 1.00148 0.81101 0.09368 0.0
C49 C 0.96891 0.82409 0.09547 0.0
O50 O 0.92351 0.78973 0.09916 0.0
O51 O 0.90839 0.70074 0.08082 0.0
Mg52 Mg 0.23653 0.96385 0.43183 0.0
C53 C 0.2541 0.98937 0.46271 0.0
O54 O 0.27816 0.03041 0.45479 0.0
C55 C 0.22629 0.9294 0.40213 0.0
O56 O 0.25336 0.97821 0.40226 0.0
C57 C 0.32981 0.96901 0.43106 0.0
O58 O 0.29555 0.92397 0.43512 0.0
O59 O 0.31646 1.00099 0.42845 0.0
O60 O 0.22892 0.94834 0.45575 0.0
O61 O 0.19235 0.9992 0.42786 0.0
C62 C 0.14677 0.9668 0.42996 0.0
O63 O 0.13583 0.92155 0.4338 0.0
O64 O 0.21035 0.90689 0.4146 0.0
Mg65 Mg 0.28004 0.24109 0.76425 0.0
C66 C 0.27391 0.26142 0.79508 0.0
O67 O 0.25771 0.286 0.78708 0.0
C68 C 0.30375 0.22761 0.73474 0.0
O69 O 0.28254 0.25514 0.7344 0.0
C70 C 0.36865 0.33467 0.76047 0.0
O71 O 0.38143 0.30082 0.76296 0.0
O72 O 0.32248 0.32087 0.76013 0.0
O73 O 0.28861 0.23515 0.78821 0.0
O74 O 0.20028 0.19656 0.76043 0.0
C75 C 0.18688 0.15074 0.76205 0.0
O76 O 0.22109 0.13924 0.76549 0.0
O77 O 0.31004 0.21272 0.74743 0.0
Mg78 Mg 0.73743 0.94863 0.60685 0.0
C79 C 0.75166 0.98072 0.57631 0.0
O80 O 0.76825 0.0204 0.58482 0.0
C81 C 0.67111 0.86961 0.63001 0.0
O82 O 0.63575 0.87763 0.62523 0.0
C83 C 0.65158 0.96075 0.60405 0.0
O84 O 0.64386 0.92361 0.59528 0.0
O85 O 0.69264 0.98338 0.61116 0.0
O86 O 0.73383 0.9384 0.58266 0.0
O87 O 0.81717 0.9867 0.61108 0.0
C88 C 0.83246 0.9568 0.6076 0.0
O89 O 0.79985 0.91276 0.60237 0.0
O90 O 0.71179 0.88754 0.62276 0.0
Mg91 Mg 0.78351 0.73892 0.93814 0.0
C92 C 0.75917 0.74065 0.90735 0.0
O93 O 0.73364 0.7556 0.91538 0.0
C94 C 0.79813 0.71913 0.96785 0.0
O95 O 0.77234 0.74221 0.96768 0.0
C96 C 0.69069 0.65057 0.94061 0.0
O97 O 0.7246 0.63945 0.93648 0.0
O98 O 0.70414 0.6962 0.94266 0.0
O99 O 0.78707 0.7278 0.91418 0.0
O100 O 0.82808 0.81919 0.94099 0.0
C101 C 0.86923 0.83497 0.9341 0.0
O102 O 0.8767 0.80287 0.92662 0.0
O103 O 0.81202 0.7103 0.95536 0.0
Mg104 Mg 0.05103 0.77587 0.27257 0.0
C105 C 0.02397 0.75936 0.24175 0.0
O106 O 0.98333 0.7345 0.2498 0.0
C107 C 0.088 0.78401 0.30199 0.0
O108 O 0.03953 0.75412 0.30209 0.0
C109 C 0.04623 0.68251 0.27275 0.0
O110 O 0.09093 0.71676 0.26842 0.0
O111 O 0.01447 0.69584 0.27572 0.0
O112 O 0.06526 0.78454 0.24859 0.0
O113 O 0.01549 0.81953 0.27709 0.0
C114 C 0.04753 0.86514 0.27485 0.0
O115 O 0.09243 0.87624 0.27055 0.0
O116 O 0.10911 0.80239 0.28949 0.0
Mg117 Mg 0.28416 0.04245 0.60667 0.0
C118 C 0.2779 0.01735 0.57564 0.0
O119 O 0.26417 0.97651 0.58341 0.0
C120 C 0.30956 0.07976 0.6362 0.0
O121 O 0.29026 0.03122 0.63653 0.0
C122 C 0.37346 0.03823 0.60996 0.0
O123 O 0.38598 0.08486 0.6076 0.0
O124 O 0.32735 0.00567 0.61038 0.0
O125 O 0.29127 0.05768 0.58275 0.0
O126 O 0.20448 0.00663 0.61075 0.0
C127 C 0.19095 0.03895 0.60912 0.0
O128 O 0.22501 0.08464 0.60559 0.0
O129 O 0.31402 0.10064 0.62355 0.0
Mg130 Mg 0.24162 0.28282 0.93894 0.0
C131 C 0.26417 0.28111 0.90799 0.0
O132 O 0.28938 0.26517 0.91578 0.0
C133 C 0.22892 0.30418 0.96877 0.0
O134 O 0.25744 0.28406 0.9686 0.0
C135 C 0.33452 0.37136 0.94099 0.0
O136 O 0.30044 0.3824 0.93696 0.0
O137 O 0.32118 0.32578 0.94312 0.0
O138 O 0.23716 0.29453 0.91505 0.0
O139 O 0.19741 0.20243 0.94158 0.0
C140 C 0.15597 0.18703 0.9349 0.0
O141 O 0.14814 0.21959 0.9278 0.0
O142 O 0.21284 0.31056 0.95631 0.0
Mg143 Mg 0.96682 0.2337 0.27345 0.0
C144 C 0.99297 0.24982 0.24257 0.0
O145 O 0.03382 0.27463 0.25052 0.0
C146 C 0.93102 0.22553 0.303 0.0
O147 O 0.97964 0.25444 0.30297 0.0
C148 C 0.97151 0.32692 0.27375 0.0
O149 O 0.92648 0.29244 0.26978 0.0
O150 O 1.0036 0.31377 0.27644 0.0
O151 O 0.95182 0.22483 0.24951 0.0
O152 O 1.0023 0.18986 0.27783 0.0
C153 C 0.96986 0.14419 0.27593 0.0
O154 O 0.92458 0.13312 0.27208 0.0
O155 O 0.90932 0.2077 0.29054 0.0
H156 H 0.92043 0.19334 0.22199 0.0
H157 H 0.07373 0.31051 0.22568 0.0
H158 H 0.92869 0.196 0.19471 0.0
H159 H 0.08153 0.3143 0.19863 0.0
H160 H 0.09471 0.27673 0.15013 0.0
H161 H 0.08643 0.27061 0.1774 0.0
H162 H 0.93733 0.24712 0.17371 0.0
H163 H 0.94505 0.25163 0.14664 0.0
C164 C 0.9557 0.21985 0.21699 0.0
C165 C 0.99636 0.25159 0.22601 0.0
C166 C 0.96048 0.22157 0.20135 0.0
C167 C 1.00591 0.25532 0.19442 0.0
C168 C 0.04632 0.28718 0.20352 0.0
C169 C 0.04165 0.28523 0.21908 0.0
C170 C 0.06028 0.27035 0.15518 0.0
C171 C 0.02058 0.26458 0.14621 0.0
C172 C 0.0555 0.26697 0.17081 0.0
C173 C 0.01104 0.25813 0.1778 0.0
C174 C 0.97168 0.2529 0.16876 0.0
C175 C 0.97633 0.25592 0.1532 0.0
H176 H 0.69208 0.94551 0.48078 0.0
H177 H 0.82433 0.0901 0.48422 0.0
H178 H 0.6911 0.93559 0.50774 0.0
H179 H 0.8243 0.07953 0.51139 0.0
H180 H 0.77775 0.06532 0.56055 0.0
H181 H 0.78009 0.07628 0.5336 0.0
H182 H 0.73368 0.92094 0.52754 0.0
H183 H 0.72979 0.9096 0.5547 0.0
C184 C 0.72118 0.97521 0.48731 0.0
C185 C 0.75837 0.01864 0.48034 0.0
C186 C 0.72082 0.96927 0.5028 0.0
C187 C 0.75786 0.00645 0.51179 0.0
C188 C 0.79487 0.05026 0.50484 0.0
C189 C 0.79502 0.05637 0.48927 0.0
C190 C 0.76805 0.03339 0.5535 0.0
C191 C 0.75343 0.98647 0.5598 0.0
C192 C 0.76978 0.03984 0.538 0.0
C193 C 0.7572 0.99961 0.52833 0.0
C194 C 0.74294 0.95266 0.53463 0.0
C195 C 0.74091 0.94612 0.5502 0.0
H196 H 0.76839 0.70792 0.81058 0.0
H197 H 0.72638 0.82017 0.81635 0.0
H198 H 0.77164 0.70015 0.83755 0.0
H199 H 0.73112 0.81348 0.84352 0.0
H200 H 0.69167 0.75101 0.89073 0.0
H201 H 0.68851 0.75782 0.86373 0.0
H202 H 0.81853 0.74193 0.85936 0.0
H203 H 0.82077 0.73362 0.88656 0.0
C204 C 0.76014 0.73127 0.81762 0.0
C205 C 0.74702 0.76467 0.8113 0.0
C206 C 0.76238 0.72702 0.83312 0.0
C207 C 0.75182 0.75623 0.84276 0.0
C208 C 0.73884 0.78985 0.83644 0.0
C209 C 0.73631 0.79391 0.82087 0.0
C210 C 0.71955 0.74875 0.88403 0.0
C211 C 0.75655 0.7418 0.89081 0.0
C212 C 0.71795 0.75312 0.86851 0.0
C213 C 0.75351 0.75096 0.85932 0.0
C214 C 0.79022 0.7433 0.86608 0.0
C215 C 0.79162 0.7386 0.88167 0.0
H216 H 0.07056 0.75599 0.14585 0.0
H217 H 0.92047 0.72963 0.14937 0.0
H218 H 0.07862 0.76125 0.1729 0.0
H219 H 0.92907 0.73653 0.17662 0.0
H220 H 0.94298 0.6981 0.22505 0.0
H221 H 0.93469 0.69374 0.19801 0.0
H222 H 0.08715 0.81264 0.19373 0.0
H223 H 0.09591 0.81585 0.22099 0.0
C224 C 0.03926 0.7516 0.15241 0.0
C225 C 0.99479 0.74236 0.14544 0.0
C226 C 0.0441 0.75505 0.16796 0.0
C227 C 1.00471 0.7497 0.177 0.0
C228 C 0.96004 0.74029 0.17003 0.0
C229 C 0.95506 0.73646 0.15441 0.0
C230 C 0.97486 0.72339 0.21838 0.0
C231 C 0.02021 0.75733 0.2252 0.0
C232 C 0.96991 0.72112 0.20282 0.0
C233 C 0.01008 0.75296 0.19362 0.0
C234 C 0.05555 0.78707 0.20045 0.0
C235 C 0.06061 0.7891 0.21607 0.0
H236 H 0.28627 0.08838 0.55554 0.0
H237 H 0.26422 0.93973 0.55826 0.0
H238 H 0.27842 0.08074 0.52828 0.0
H239 H 0.25794 0.93264 0.53119 0.0
H240 H 0.19993 0.91603 0.48339 0.0
H241 H 0.2047 0.92359 0.51069 0.0
H242 H 0.32109 0.07719 0.50657 0.0
H243 H 0.31521 0.07006 0.47951 0.0
C244 C 0.28023 0.05433 0.55032 0.0
C245 C 0.2758 0.01471 0.55907 0.0
C246 C 0.27584 0.0499 0.5347 0.0
C247 C 0.26729 0.0059 0.5275 0.0
C248 C 0.26347 0.96663 0.53631 0.0
C249 C 0.26751 0.97093 0.55187 0.0
C250 C 0.22647 0.95132 0.48835 0.0
C251 C 0.25706 0.99238 0.47927 0.0
C252 C 0.2294 0.9557 0.50399 0.0
C253 C 0.26324 1.00114 0.51087 0.0
C254 C 0.29395 0.04195 0.50172 0.0
C255 C 0.29079 0.03767 0.48615 0.0
H256 H 0.29125 0.20628 0.81586 0.0
H257 H 0.25591 0.32385 0.81177 0.0
H258 H 0.28773 0.21088 0.84314 0.0
H259 H 0.25385 0.32947 0.83883 0.0
H260 H 0.20406 0.29251 0.88763 0.0
H261 H 0.20579 0.28638 0.86035 0.0
H262 H 0.33181 0.2635 0.86379 0.0
H263 H 0.32912 0.26817 0.89088 0.0
C264 C 0.28314 0.23331 0.82077 0.0
C265 C 0.27379 0.26457 0.81164 0.0
C266 C 0.28127 0.23614 0.8364 0.0
C267 C 0.27033 0.27051 0.84322 0.0
C268 C 0.26143 0.30194 0.83402 0.0
C269 C 0.26301 0.29893 0.81846 0.0
C270 C 0.23221 0.28642 0.88252 0.0
C271 C 0.26633 0.28073 0.89142 0.0
C272 C 0.23333 0.28298 0.86689 0.0
C273 C 0.26882 0.27413 0.85984 0.0
C274 C 0.30333 0.26928 0.8688 0.0
C275 C 0.30201 0.27239 0.88437 0.0
H276 H 0.0446 0.28887 0.0415 0.0
H277 H 0.18537 0.33938 0.06384 0.0
H278 H 0.08455 0.30066 1.01743 0.0
H279 H 0.22625 0.35322 0.03945 0.0
H280 H 0.25766 0.29146 0.99634 0.0
H281 H 0.22831 0.30105 0.02048 0.0
H282 H 0.13938 0.35447 0.99878 0.0
H283 H 0.16765 0.3429 0.97432 0.0
C284 C 0.0844 0.30337 0.04128 0.0
C285 C 0.1117 0.31249 0.05463 0.0
C286 C 0.10749 0.3107 0.02739 0.0
C287 C 0.15866 0.32772 0.02642 0.0
C288 C 0.18656 0.33926 0.03978 0.0
C289 C 0.16327 0.33156 0.05376 0.0
C290 C 0.23213 0.30566 0.99665 0.0
C291 C 0.21438 0.3157 0.98336 0.0
C292 C 0.21569 0.31173 1.01058 0.0
C293 C 0.18127 0.32837 1.01165 0.0
C294 C 0.1653 0.34078 0.99837 0.0
C295 C 0.1816 0.33437 0.98435 0.0
H296 H 0.84854 0.18442 0.39785 0.0
H297 H 0.76104 0.04285 0.37571 0.0
H298 H 0.87588 0.22497 0.3734 0.0
H299 H 0.78956 0.08245 0.35162 0.0
H300 H 0.83096 0.16343 0.30829 0.0
H301 H 0.7902 0.13586 0.33267 0.0
H302 H 0.93121 0.2283 0.35469 0.0
H303 H 0.97096 0.25704 0.33061 0.0
C304 C 0.83494 0.16206 0.3878 0.0
C305 C 0.80313 0.11039 0.38875 0.0
C306 C 0.85071 0.18517 0.37379 0.0
C307 C 0.83522 0.15697 0.36048 0.0
C308 C 0.80176 0.10564 0.36152 0.0
C309 C 0.7858 0.08275 0.37544 0.0
C310 C 0.85291 0.17835 0.31837 0.0
C311 C 0.90426 0.21188 0.31749 0.0
C312 C 0.8297 0.16244 0.33235 0.0
C313 C 0.85747 0.17947 0.34571 0.0
C314 C 0.90835 0.21478 0.34473 0.0
C315 C 0.93134 0.23089 0.33083 0.0
H316 H 0.74633 0.84055 0.72196 0.0
H317 H 0.5899 0.79261 0.72399 0.0
H318 H 0.74614 0.85176 0.69526 0.0
H319 H 0.59017 0.80864 0.69719 0.0
H320 H 0.59216 0.80044 0.64652 0.0
H321 H 0.59088 0.78402 0.67333 0.0
H322 H 0.74664 0.89713 0.67604 0.0
H323 H 0.74837 0.90918 0.64933 0.0
C324 C 0.71214 0.83416 0.71671 0.0
C325 C 0.66826 0.81636 0.72509 0.0
C326 C 0.71195 0.84079 0.70127 0.0
C327 C 0.6682 0.83161 0.69376 0.0
C328 C 0.62448 0.81521 0.70233 0.0
C329 C 0.62435 0.80679 0.71778 0.0
C330 C 0.62622 0.82063 0.65291 0.0
C331 C 0.67053 0.85523 0.64581 0.0
C332 C 0.62547 0.81197 0.66836 0.0
C333 C 0.66867 0.83914 0.67715 0.0
C334 C 0.71282 0.87399 0.66986 0.0
C335 C 0.7139 0.8812 0.65442 0.0
H336 H 0.96813 0.70474 0.04097 0.0
H337 H 0.8319 0.67527 0.06287 0.0
H338 H 0.93058 0.69852 1.01675 0.0
H339 H 0.79318 0.66691 0.03837 0.0
H340 H 0.77669 0.73978 0.99543 0.0
H341 H 0.80177 0.72449 0.01954 0.0
H342 H 0.87228 0.65131 0.99786 0.0
H343 H 0.84838 0.66846 0.97339 0.0
C344 C 0.92969 0.69594 0.04062 0.0
C345 C 0.90326 0.69139 0.05388 0.0
C346 C 0.90792 0.69182 0.02665 0.0
C347 C 0.85894 0.68266 0.02554 0.0
C348 C 0.83137 0.67499 0.03881 0.0
C349 C 0.85337 0.67946 0.05286 0.0
C350 C 0.79728 0.7201 0.99573 0.0
C351 C 0.81108 0.70587 0.98244 0.0
C352 C 0.81119 0.71077 1.00965 0.0
C353 C 0.83904 0.68658 1.01072 0.0
C354 C 0.85137 0.67063 0.99744 0.0
C355 C 0.83763 0.68031 0.98342 0.0
H356 H 0.04962 0.74974 0.32961 0.0
H357 H 0.18716 0.85067 0.30715 0.0
H358 H 0.08892 0.78006 0.35365 0.0
H359 H 0.22761 0.87992 0.33149 0.0
H360 H 0.25119 0.9712 0.3745 0.0
H361 H 0.22418 0.93109 0.35044 0.0
H362 H 0.1462 0.78766 0.37231 0.0
H363 H 0.17193 0.82857 0.39672 0.0
C364 C 0.08868 0.77786 0.3298 0.0
C365 C 0.11506 0.79843 0.31643 0.0
C366 C 0.11144 0.79491 0.34367 0.0
C367 C 0.16142 0.83277 0.34459 0.0
C368 C 0.18874 0.85136 0.3312 0.0
C369 C 0.16572 0.83446 0.31724 0.0
C370 C 0.22859 0.93102 0.37425 0.0
C371 C 0.21312 0.90311 0.38758 0.0
C372 C 0.21353 0.90788 0.36035 0.0
C373 C 0.18286 0.85605 0.35934 0.0
C374 C 0.16919 0.82778 0.37267 0.0
C375 C 0.18402 0.85111 0.38666 0.0
H376 H 0.34579 0.17985 0.64066 0.0
H377 H 0.30057 0.04195 0.66418 0.0
H378 H 0.3572 0.22216 0.66466 0.0
H379 H 0.30992 0.08325 0.68789 0.0
H380 H 0.34683 0.16965 0.73033 0.0
H381 H 0.36129 0.14089 0.70635 0.0
H382 H 0.30244 0.2225 0.68306 0.0
H383 H 0.28996 0.25237 0.70672 0.0
C384 C 0.33866 0.1587 0.65092 0.0
C385 C 0.32166 0.10747 0.65049 0.0
C386 C 0.34495 0.1828 0.66468 0.0
C387 C 0.33404 0.15604 0.67825 0.0
C388 C 0.31934 0.10533 0.67775 0.0
C389 C 0.31342 0.08145 0.66407 0.0
C390 C 0.3377 0.18189 0.72006 0.0
C391 C 0.31673 0.21279 0.72045 0.0
C392 C 0.34579 0.16532 0.70631 0.0
C393 C 0.33276 0.17912 0.69273 0.0
C394 C 0.31369 0.21164 0.69321 0.0
C395 C 0.30597 0.22837 0.70686 0.0
H396 H 0.05628 0.64772 0.08769 0.0
H397 H 0.91005 0.54583 0.1052 0.0
H398 H 0.07366 0.57922 0.08593 0.0
H399 H 0.92774 0.47825 0.10383 0.0
H400 H 0.95789 0.35673 0.08869 0.0
H401 H 0.94033 0.42514 0.08698 0.0
H402 H 0.08895 0.52756 0.10266 0.0
H403 H 0.10677 0.46007 0.10397 0.0
C404 C 0.02797 0.61084 0.09119 0.0
C405 C 0.98193 0.60231 0.09663 0.0
C406 C 0.03789 0.57161 0.09022 0.0
C407 C 1.00201 0.52316 0.09473 0.0
C408 C 0.95588 0.51478 0.10001 0.0
C409 C 0.94595 0.55379 0.10093 0.0
C410 C 0.98677 0.39392 0.09169 0.0
C411 C 0.03358 0.40287 0.09652 0.0
C412 C 0.97674 0.4331 0.09076 0.0
C413 C 0.01329 0.48191 0.09468 0.0
C414 C 0.06022 0.49072 0.09931 0.0
C415 C 0.07024 0.45176 0.10019 0.0
H416 H 0.64892 0.10566 0.4383 0.0
H417 H 0.60453 0.9582 0.422 0.0
H418 H 0.56361 0.08782 0.43667 0.0
H419 H 0.51865 0.94067 0.41996 0.0
H420 H 0.36654 0.90823 0.43776 0.0
H421 H 0.45195 0.92636 0.43655 0.0
H422 H 0.49739 0.07376 0.41984 0.0
H423 H 0.41128 0.05591 0.42146 0.0
C424 C 0.62097 0.06946 0.43423 0.0
C425 C 0.63349 0.03317 0.43037 0.0
C426 C 0.572 0.05943 0.43316 0.0
C427 C 0.5342 0.01288 0.42816 0.0
C428 C 0.54681 0.97675 0.42404 0.0
C429 C 0.59598 0.98677 0.42516 0.0
C430 C 0.3946 0.94455 0.43377 0.0
C431 C 0.38211 0.9808 0.42978 0.0
C432 C 0.44365 0.95474 0.43295 0.0
C433 C 0.4816 1.00142 0.42806 0.0
C434 C 0.46908 0.03756 0.42383 0.0
C435 C 0.41979 0.02737 0.42471 0.0
H436 H 0.46816 0.3707 0.75825 0.0
H437 H 0.35869 0.41784 0.75926 0.0
H438 H 0.53454 0.45684 0.75818 0.0
H439 H 0.42571 0.50479 0.75886 0.0
H440 H 0.55603 0.64393 0.78027 0.0
H441 H 0.48833 0.55951 0.77673 0.0
H442 H 0.57599 0.5342 0.74409 0.0
H443 H 0.64474 0.61923 0.74784 0.0
C444 C 0.45819 0.39952 0.75827 0.0
C445 C 0.40806 0.38739 0.75893 0.0
C446 C 0.4964 0.44901 0.7581 0.0
C447 C 0.48553 0.48775 0.75858 0.0
C448 C 0.43532 0.47572 0.75868 0.0
C449 C 0.39692 0.42599 0.75883 0.0
C450 C 0.56107 0.62054 0.7723 0.0
C451 C 0.60599 0.63831 0.76438 0.0
C452 C 0.52189 0.57217 0.77016 0.0
C453 C 0.5265 0.54016 0.76005 0.0
C454 C 0.57137 0.55788 0.75205 0.0
C455 C 0.61075 0.60653 0.75418 0.0
H456 H 0.47302 0.10205 0.61194 0.0
H457 H 0.36386 0.94526 0.61117 0.0
H458 H 0.53958 0.08256 0.612 0.0
H459 H 0.43104 0.92561 0.61155 0.0
H460 H 0.56146 0.91674 0.59031 0.0
H461 H 0.49379 0.93357 0.59367 0.0
H462 H 0.58106 0.04685 0.62626 0.0
H463 H 0.64978 0.03042 0.62271 0.0
C464 C 0.46315 0.06328 0.61196 0.0
C465 C 0.41305 0.02514 0.61139 0.0
C466 C 0.50147 0.05216 0.61213 0.0
C467 C 0.49073 1.00258 0.61172 0.0
C468 C 0.44055 0.96427 0.61167 0.0
C469 C 0.40206 0.97544 0.61153 0.0
C470 C 0.56643 0.94527 0.59822 0.0
C471 C 0.61122 0.97243 0.6062 0.0
C472 C 0.52727 0.95453 0.60026 0.0
C473 C 0.53177 0.99124 0.61032 0.0
C474 C 0.57654 0.01847 0.61835 0.0
C475 C 0.61589 0.00911 0.61633 0.0
H476 H 0.37174 0.46921 0.93463 0.0
H477 H 0.41529 0.36551 0.95103 0.0
H478 H 0.45715 0.53632 0.93618 0.0
H479 H 0.50136 0.4336 0.95305 0.0
H480 H 0.65356 0.5524 0.93488 0.0
H481 H 0.56816 0.48536 0.93658 0.0
H482 H 0.52384 0.58881 0.95257 0.0
H483 H 0.60991 0.65682 0.9504 0.0
C484 C 0.39953 0.46076 0.93873 0.0
C485 C 0.38673 0.41185 0.94261 0.0
C486 C 0.44859 0.49953 0.93976 0.0
C487 C 0.48625 0.49055 0.94477 0.0
C488 C 0.47335 0.44173 0.94896 0.0
C489 C 0.42406 0.40272 0.94785 0.0
C490 C 0.62575 0.56103 0.93882 0.0
C491 C 0.63853 0.61012 0.9424 0.0
C492 C 0.57669 0.52231 0.93994 0.0
C493 C 0.539 0.53151 0.94474 0.0
C494 C 0.55188 0.5805 0.94864 0.0
C495 C 0.60117 0.61947 0.94745 0.0
H496 H 0.96043 0.60143 0.2831 0.0
H497 H 0.10649 0.64563 0.26552 0.0
H498 H 0.94309 0.51557 0.28504 0.0
H499 H 0.08884 0.56037 0.26708 0.0
H500 H 0.05884 0.40896 0.28273 0.0
H501 H 0.07642 0.49499 0.28415 0.0
H502 H 0.92773 0.44834 0.26844 0.0
H503 H 0.9099 0.36298 0.2674 0.0
C504 C 0.98871 0.59284 0.27963 0.0
C505 C 0.03469 0.6303 0.27411 0.0
C506 C 0.97881 0.54369 0.2807 0.0
C507 C 0.01466 0.53109 0.27623 0.0
C508 C 0.06073 0.5688 0.27087 0.0
C509 C 0.07063 0.61773 0.26984 0.0
C510 C 0.02995 0.41718 0.27966 0.0
C511 C 0.98312 0.37918 0.2749 0.0
C512 C 0.03999 0.46642 0.28042 0.0
C513 C 1.00342 0.47857 0.27642 0.0
C514 C 0.95648 0.44032 0.27185 0.0
C515 C 0.94645 0.39131 0.27113 0.0
H516 H 0.96035 0.10051 0.086 0.0
H517 H 0.1052 0.14262 0.10416 0.0
H518 H 0.9426 0.01462 0.08366 0.0
H519 H 0.08706 0.05731 0.10228 0.0
H520 H 0.05731 0.9062 0.08707 0.0
H521 H 0.07551 0.99242 0.08556 0.0
H522 H 0.92514 0.94586 0.09954 0.0
H523 H 0.90671 0.86034 0.10057 0.0
C524 C 0.98829 0.09145 0.08952 0.0
C525 C 0.03406 0.12838 0.09531 0.0
C526 C 0.97814 0.04225 0.08823 0.0
C527 C 0.01345 0.02895 0.09278 0.0
C528 C 0.05934 0.06618 0.09841 0.0
C529 C 0.06953 0.11518 0.09961 0.0
C530 C 0.02816 0.91448 0.08971 0.0
C531 C 0.9807 0.87642 0.094 0.0
C532 C 0.03857 0.96387 0.08891 0.0
C533 C 1.00178 0.9762 0.09245 0.0
C534 C 0.95416 0.93784 0.09648 0.0
C535 C 0.94375 0.88867 0.09721 0.0
H536 H 0.96554 0.10467 0.4374 0.0
H537 H 0.86152 0.95786 0.42084 0.0
H538 H 0.03248 0.08615 0.43574 0.0
H539 H 0.92941 0.93965 0.41872 0.0
H540 H 0.04867 0.90553 0.43598 0.0
H541 H 0.98159 0.924 0.43482 0.0
H542 H 0.08474 0.0725 0.41914 0.0
H543 H 0.15273 0.05431 0.42075 0.0
C544 C 0.95697 0.06847 0.43324 0.0
C545 C 0.90801 0.03258 0.42933 0.0
C546 C 0.99564 0.05804 0.43216 0.0
C547 C 0.98656 0.01148 0.42706 0.0
C548 C 0.93766 0.97574 0.42288 0.0
C549 C 0.89875 0.98615 0.42404 0.0
C550 C 0.05721 0.94215 0.43222 0.0
C551 C 0.10623 0.9786 0.42855 0.0
C552 C 0.01847 0.95258 0.43143 0.0
C553 C 0.02756 0.99969 0.42687 0.0
C554 C 0.07649 0.03597 0.42289 0.0
C555 C 0.11546 0.02557 0.42376 0.0
H556 H 0.15 0.05155 0.76617 0.0
H557 H 0.10483 0.15845 0.75472 0.0
H558 H 0.06403 0.98498 0.76526 0.0
H559 H 0.01827 0.09112 0.75338 0.0
H560 H 0.86896 0.9709 0.77238 0.0
H561 H 0.95471 0.03699 0.77048 0.0
H562 H 0.9934 0.93553 0.74951 0.0
H563 H 0.90685 0.86832 0.75179 0.0
C564 C 0.12173 0.06086 0.7633 0.0
C565 C 0.13432 0.11051 0.76064 0.0
C566 C 0.07232 0.02243 0.76265 0.0
C567 C 0.03406 0.03251 0.75926 0.0
C568 C 0.04674 0.08208 0.75623 0.0
C569 C 0.09634 0.12069 0.75694 0.0
C570 C 0.89557 0.96245 0.76732 0.0
C571 C 0.88097 0.91412 0.76228 0.0
C572 C 0.94485 1.00069 0.7661 0.0
C573 C 0.98108 0.99186 0.75976 0.0
C574 C 0.96652 0.94356 0.75459 0.0
C575 C 0.91694 0.90504 0.75585 0.0
H576 H 0.8728 0.90043 0.59936 0.0
H577 H 0.91127 0.04172 0.61948 0.0
H578 H 0.9585 0.91996 0.60125 0.0
H579 H 0.99774 0.06092 0.62177 0.0
H580 H 0.15391 0.10105 0.60494 0.0
H581 H 0.06799 0.08159 0.60598 0.0
H582 H 0.02252 0.92999 0.61821 0.0
H583 H 0.10908 0.94928 0.61673 0.0
C584 C 0.89952 0.93563 0.60433 0.0
C585 C 0.88512 0.96965 0.60921 0.0
C586 C 0.94878 0.9466 0.60554 0.0
C587 C 0.98516 0.99187 0.61174 0.0
C588 C 0.97076 0.02585 0.6168 0.0
C589 C 0.92122 0.01487 0.61553 0.0
C590 C 0.12572 0.06352 0.60792 0.0
C591 C 0.1384 0.02656 0.61064 0.0
C592 C 0.07633 0.05251 0.60865 0.0
C593 C 0.03815 1.00424 0.61216 0.0
C594 C 0.05091 0.96745 0.61525 0.0
C595 C 0.10052 0.97847 0.61447 0.0
H596 H 0.88972 0.90461 0.95613 0.0
H597 H 0.94013 0.88337 0.91315 0.0
H598 H 0.96149 0.98983 0.95712 0.0
H599 H 0.01054 0.96792 0.91405 0.0
H600 H 0.0851 0.14004 0.91389 0.0
H601 H 0.01487 0.05536 0.9144 0.0
H602 H 0.06426 0.03037 0.95704 0.0
H603 H 0.13587 0.11577 0.95643 0.0
C604 C 0.91573 0.91831 0.94687 0.0
C605 C 0.90933 0.88754 0.93454 0.0
C606 C 0.95692 0.96667 0.94751 0.0
C607 C 0.9915 0.9851 0.93569 0.0
C608 C 0.98441 0.95455 0.9233 0.0
C609 C 0.94407 0.90622 0.92279 0.0
C610 C 0.08127 0.11649 0.92335 0.0
C611 C 0.11606 0.13437 0.93509 0.0
C612 C 0.04104 0.06808 0.92363 0.0
C613 C 0.0341 0.03662 0.93579 0.0
C614 C 0.06873 0.05423 0.9476 0.0
C615 C 0.10983 0.1027 0.94717 0.0
H616 H 0.96121 0.85913 0.28529 0.0
H617 H 0.10766 0.96307 0.26838 0.0
H618 H 0.94311 0.92704 0.28755 0.0
H619 H 0.08922 0.03003 0.27017 0.0
H620 H 0.05763 0.15045 0.285 0.0
H621 H 0.07593 0.08254 0.2867 0.0
H622 H 0.92694 0.97892 0.27156 0.0
H623 H 0.90837 0.04589 0.27034 0.0
C624 C 0.98945 0.89635 0.28205 0.0
C625 C 0.03574 0.90557 0.27661 0.0
C626 C 0.9791 0.93528 0.28329 0.0
C627 C 0.01474 0.98416 0.27904 0.0
C628 C 0.06119 0.99322 0.2738 0.0
C629 C 0.07157 0.95453 0.27265 0.0
C630 C 0.0288 0.11309 0.28214 0.0
C631 C 0.98169 0.1037 0.27748 0.0
C632 C 0.03926 0.07416 0.28305 0.0
C633 C 1.00289 0.02512 0.27925 0.0
C634 C 0.95561 0.01588 0.27483 0.0
C635 C 0.94513 0.05457 0.274 0.0
loop_
_geom_bond_atom_site_label_1
_geom_bond_atom_site_label_2
_geom_bond_distance
_geom_bond_site_symmetry_2
_ccdc_geom_bond_type
Mg0 O7 2.141 . S
Mg0 O8 2.048 . S
Mg0 O9 2.048 . S
Mg0 O12 2.141 . S
C1 O2 1.313 . S
C1 O8 1.195 . S
O2 C1 1.313 . S
C3 O4 1.245 . S
C3 O12 1.289 . S
O4 C3 1.245 . S
C5 O6 1.245 . S
C5 O7 1.289 . S
O6 C5 1.245 . S
O7 Mg0 2.141 . S
O7 C5 1.289 . S
O8 Mg0 2.048 . S
O8 C1 1.195 . S
O9 Mg0 2.048 . S
O9 C10 1.195 . S
C10 O9 1.195 . S
C10 O11 1.313 . S
O11 C10 1.313 . S
O12 Mg0 2.141 . S
O12 C3 1.289 . S
Mg13 O20 2.141 . S
Mg13 O21 2.048 . S
Mg13 O22 2.048 . S
Mg13 O25 2.141 . S
C14 O15 1.313 . S
C14 O21 1.195 . S
O15 C14 1.313 . S
C16 O17 1.245 . S
C16 O25 1.289 . S
O17 C16 1.245 . S
C18 O19 1.245 . S
C18 O20 1.289 . S
O19 C18 1.245 . S
O20 Mg13 2.141 . S
O20 C18 1.289 . S
O21 Mg13 2.048 . S
O21 C14 1.195 . S
O22 Mg13 2.048 . S
O22 C23 1.195 . S
C23 O22 1.195 . S
C23 O24 1.313 . S
O24 C23 1.313 . S
O25 Mg13 2.141 . S
O25 C16 1.289 . S
Mg26 O33 2.141 . S
Mg26 O34 2.048 . S
Mg26 O35 2.048 . S
Mg26 O38 2.141 . S
C27 O28 1.313 . S
C27 O34 1.195 . S
O28 C27 1.313 . S
C29 O30 1.245 . S
C29 O38 1.289 . S
O30 C29 1.245 . S
C31 O32 1.245 . S
C31 O33 1.289 . S
O32 C31 1.245 . S
O33 Mg26 2.141 . S
O33 C31 1.289 . S
O34 Mg26 2.048 . S
O34 C27 1.195 . S
O35 Mg26 2.048 . S
O35 C36 1.195 . S
C36 O35 1.195 . S
C36 O37 1.313 . S
O37 C36 1.313 . S
O38 Mg26 2.141 . S
O38 C29 1.289 . S
Mg39 O46 2.141 . S
Mg39 O47 2.048 . S
Mg39 O48 2.048 . S
Mg39 O51 2.141 . S
C40 O41 1.313 . S
C40 O47 1.195 . S
O41 C40 1.313 . S
C42 O43 1.245 . S
C42 O51 1.289 . S
O43 C42 1.245 . S
C44 O45 1.245 . S
C44 O46 1.289 . S
O45 C44 1.245 . S
O46 Mg39 2.141 . S
O46 C44 1.289 . S
O47 Mg39 2.048 . S
O47 C40 1.195 . S
O48 Mg39 2.048 . S
O48 C49 1.195 . S
C49 O48 1.195 . S
C49 O50 1.313 . S
O50 C49 1.313 . S
O51 Mg39 2.141 . S
O51 C42 1.289 . S
Mg52 O59 2.141 . S
Mg52 O60 2.048 . S
Mg52 O61 2.048 . S
Mg52 O64 2.141 . S
C53 O54 1.313 . S
C53 O60 1.195 . S
O54 C53 1.313 . S
C55 O56 1.245 . S
C55 O64 1.289 . S
O56 C55 1.245 . S
C57 O58 1.245 . S
C57 O59 1.289 . S
O58 C57 1.245 . S
O59 Mg52 2.141 . S
O59 C57 1.289 . S
O60 Mg52 2.048 . S
O60 C53 1.195 . S
O61 Mg52 2.048 . S
O61 C62 1.195 . S
C62 O61 1.195 . S
C62 O63 1.313 . S
O63 C62 1.313 . S
O64 Mg52 2.141 . S
O64 C55 1.289 . S
Mg65 O72 2.141 . S
Mg65 O73 2.048 . S
Mg65 O74 2.048 . S
Mg65 O77 2.141 . S
C66 O67 1.313 . S
C66 O73 1.195 . S
O67 C66 1.313 . S
C68 O69 1.245 . S
C68 O77 1.289 . S
O69 C68 1.245 . S
C70 O71 1.245 . S
C70 O72 1.289 . S
O71 C70 1.245 . S
O72 Mg65 2.141 . S
O72 C70 1.289 . S
O73 Mg65 2.048 . S
O73 C66 1.195 . S
O74 Mg65 2.048 . S
O74 C75 1.195 . S
C75 O74 1.195 . S
C75 O76 1.313 . S
O76 C75 1.313 . S
O77 Mg65 2.141 . S
O77 C68 1.289 . S
Mg78 O85 2.141 . S
Mg78 O86 2.048 . S
Mg78 O87 2.048 . S
Mg78 O90 2.141 . S
C79 O80 1.313 . S
C79 O86 1.195 . S
O80 C79 1.313 . S
C81 O82 1.245 . S
C81 O90 1.289 . S
O82 C81 1.245 . S
C83 O84 1.245 . S
C83 O85 1.289 . S
O84 C83 1.245 . S
O85 Mg78 2.141 . S
O85 C83 1.289 . S
O86 Mg78 2.048 . S
O86 C79 1.195 . S
O87 Mg78 2.048 . S
O87 C88 1.195 . S
C88 O87 1.195 . S
C88 O89 1.313 . S
O89 C88 1.313 . S
O90 Mg78 2.141 . S
O90 C81 1.289 . S
Mg91 O98 2.141 . S
Mg91 O99 2.048 . S
Mg91 O100 2.048 . S
Mg91 O103 2.141 . S
C92 O93 1.313 . S
C92 O99 1.195 . S
O93 C92 1.313 . S
C94 O95 1.245 . S
C94 O103 1.289 . S
O95 C94 1.245 . S
C96 O97 1.245 . S
C96 O98 1.289 . S
O97 C96 1.245 . S
O98 Mg91 2.141 . S
O98 C96 1.289 . S
O99 Mg91 2.048 . S
O99 C92 1.195 . S
O100 Mg91 2.048 . S
O100 C101 1.195 . S
C101 O100 1.195 . S
C101 O102 1.313 . S
O102 C101 1.313 . S
O103 Mg91 2.141 . S
O103 C94 1.289 . S
Mg104 O111 2.141 . S
Mg104 O112 2.048 . S
Mg104 O113 2.048 . S
Mg104 O116 2.141 . S
C105 O106 1.313 . S
C105 O112 1.195 . S
O106 C105 1.313 . S
C107 O108 1.245 . S
C107 O116 1.289 . S
O108 C107 1.245 . S
C109 O110 1.245 . S
C109 O111 1.289 . S
O110 C109 1.245 . S
O111 Mg104 2.141 . S
O111 C109 1.289 . S
O112 Mg104 2.048 . S
O112 C105 1.195 . S
O113 Mg104 2.048 . S
O113 C114 1.195 . S
C114 O113 1.195 . S
C114 O115 1.313 . S
O115 C114 1.313 . S
O116 Mg104 2.141 . S
O116 C107 1.289 . S
Mg117 O124 2.141 . S
Mg117 O125 2.048 . S
Mg117 O126 2.048 . S
Mg117 O129 2.141 . S
C118 O119 1.313 . S
C118 O125 1.195 . S
O119 C118 1.313 . S
C120 O121 1.245 . S
C120 O129 1.289 . S
O121 C120 1.245 . S
C122 O123 1.245 . S
C122 O124 1.289 . S
O123 C122 1.245 . S
O124 Mg117 2.141 . S
O124 C122 1.289 . S
O125 Mg117 2.048 . S
O125 C118 1.195 . S
O126 Mg117 2.048 . S
O126 C127 1.195 . S
C127 O126 1.195 . S
C127 O128 1.313 . S
O128 C127 1.313 . S
O129 Mg117 2.141 . S
O129 C120 1.289 . S
Mg130 O137 2.141 . S
Mg130 O138 2.048 . S
Mg130 O139 2.048 . S
Mg130 O142 2.141 . S
C131 O132 1.313 . S
C131 O138 1.195 . S
O132 C131 1.313 . S
C133 O134 1.245 . S
C133 O142 1.289 . S
O134 C133 1.245 . S
C135 O136 1.245 . S
C135 O137 1.289 . S
O136 C135 1.245 . S
O137 Mg130 2.141 . S
O137 C135 1.289 . S
O138 Mg130 2.048 . S
O138 C131 1.195 . S
O139 Mg130 2.048 . S
O139 C140 1.195 . S
C140 O139 1.195 . S
C140 O141 1.313 . S
O141 C140 1.313 . S
O142 Mg130 2.141 . S
O142 C133 1.289 . S
Mg143 O150 2.141 . S
Mg143 O151 2.048 . S
Mg143 O152 2.048 . S
Mg143 O155 2.141 . S
C144 O145 1.313 . S
C144 O151 1.195 . S
O145 C144 1.313 . S
C146 O147 1.245 . S
C146 O155 1.289 . S
O147 C146 1.245 . S
C148 O149 1.245 . S
C148 O150 1.289 . S
O149 C148 1.245 . S
O150 Mg143 2.141 . S
O150 C148 1.289 . S
O151 Mg143 2.048 . S
O151 C144 1.195 . S
O152 Mg143 2.048 . S
O152 C153 1.195 . S
C153 O152 1.195 . S
C153 O154 1.313 . S
O154 C153 1.313 . S
O155 Mg143 2.141 . S
O155 C146 1.289 . S
H156 C164 0.950 . S
H157 C169 0.950 . S
H158 C166 0.950 . S
H159 C168 0.950 . S
H160 C170 0.950 . S
H161 C172 0.950 . S
H162 C174 0.950 . S
H163 C175 0.950 . S
C164 H156 0.950 . S
C164 C165 1.386 1_455 S
C164 C166 1.391 . S
C165 C164 1.386 1_655 S
C165 C169 1.393 . S
C166 H158 0.950 . S
C166 C164 1.391 . S
C166 C167 1.400 1_455 S
C167 C166 1.400 1_655 S
C167 C168 1.398 . S
C167 C173 1.491 1_655 S
C168 H159 0.950 . S
C168 C167 1.398 . S
C168 C169 1.391 . S
C169 H157 0.950 . S
C169 C165 1.393 . S
C169 C168 1.391 . S
C170 H160 0.950 . S
C170 C171 1.386 1_655 S
C170 C172 1.391 . S
C171 C170 1.386 1_455 S
C171 C175 1.393 . S
C172 H161 0.950 . S
C172 C170 1.391 . S
C172 C173 1.400 1_655 S
C173 C167 1.491 1_455 S
C173 C172 1.400 1_455 S
C173 C174 1.398 . S
C174 H162 0.950 . S
C174 C173 1.398 . S
C174 C175 1.391 . S
C175 H163 0.950 . S
C175 C171 1.393 . S
C175 C174 1.391 . S
H176 C184 0.950 . S
H177 C189 0.950 . S
H178 C186 0.950 . S
H179 C188 0.950 . S
H180 C190 0.950 . S
H181 C192 0.950 . S
H182 C194 0.950 . S
H183 C195 0.950 . S
C184 H176 0.950 . S
C184 C185 1.386 . S
C184 C186 1.391 . S
C185 C184 1.386 . S
C185 C189 1.393 1_545 S
C186 H178 0.950 . S
C186 C184 1.391 . S
C186 C187 1.400 . S
C187 C186 1.400 . S
C187 C188 1.398 1_545 S
C187 C193 1.491 1_545 S
C188 H179 0.950 . S
C188 C187 1.398 1_565 S
C188 C189 1.391 . S
C189 H177 0.950 . S
C189 C185 1.393 1_565 S
C189 C188 1.391 . S
C190 H180 0.950 . S
C190 C191 1.386 . S
C190 C192 1.391 . S
C191 C190 1.386 . S
C191 C195 1.393 1_565 S
C192 H181 0.950 . S
C192 C190 1.391 . S
C192 C193 1.400 . S
C193 C187 1.491 1_565 S
C193 C192 1.400 . S
C193 C194 1.398 1_565 S
C194 H182 0.950 . S
C194 C193 1.398 1_545 S
C194 C195 1.391 . S
C195 H183 0.950 . S
C195 C191 1.393 1_545 S
C195 C194 1.391 . S
H196 C204 0.950 . S
H197 C209 0.950 . S
H198 C206 0.950 . S
H199 C208 0.950 . S
H200 C210 0.950 . S
H201 C212 0.950 . S
H202 C214 0.950 . S
H203 C215 0.950 . S
C204 H196 0.950 . S
C204 C205 1.386 . S
C204 C206 1.391 . S
C205 C204 1.386 . S
C205 C209 1.393 . S
C206 H198 0.950 . S
C206 C204 1.391 . S
C206 C207 1.400 . S
C207 C206 1.400 . S
C207 C208 1.398 . S
C207 C213 1.491 . S
C208 H199 0.950 . S
C208 C207 1.398 . S
C208 C209 1.391 . S
C209 H197 0.950 . S
C209 C205 1.393 . S
C209 C208 1.391 . S
C210 H200 0.950 . S
C210 C211 1.386 . S
C210 C212 1.391 . S
C211 C210 1.386 . S
C211 C215 1.393 . S
C212 H201 0.950 . S
C212 C210 1.391 . S
C212 C213 1.400 . S
C213 C207 1.491 . S
C213 C212 1.400 . S
C213 C214 1.398 . S
C214 H202 0.950 . S
C214 C213 1.398 . S
C214 C215 1.391 . S
C215 H203 0.950 . S
C215 C211 1.393 . S
C215 C214 1.391 . S
H216 C224 0.950 . S
H217 C229 0.950 . S
H218 C226 0.950 . S
H219 C228 0.950 . S
H220 C230 0.950 . S
H221 C232 0.950 . S
H222 C234 0.950 . S
H223 C235 0.950 . S
C224 H216 0.950 . S
C224 C225 1.386 . S
C224 C226 1.391 . S
C225 C224 1.386 . S
C225 C229 1.393 1_655 S
C226 H218 0.950 . S
C226 C224 1.391 . S
C226 C227 1.400 . S
C227 C226 1.400 . S
C227 C228 1.398 1_655 S
C227 C233 1.491 1_655 S
C228 H219 0.950 . S
C228 C227 1.398 1_455 S
C228 C229 1.391 . S
C229 H217 0.950 . S
C229 C225 1.393 1_455 S
C229 C228 1.391 . S
C230 H220 0.950 . S
C230 C231 1.386 . S
C230 C232 1.391 . S
C231 C230 1.386 . S
C231 C235 1.393 1_455 S
C232 H221 0.950 . S
C232 C230 1.391 . S
C232 C233 1.400 . S
C233 C227 1.491 1_455 S
C233 C232 1.400 . S
C233 C234 1.398 1_455 S
C234 H222 0.950 . S
C234 C233 1.398 1_655 S
C234 C235 1.391 . S
C235 H223 0.950 . S
C235 C231 1.393 1_655 S
C235 C234 1.391 . S
H236 C244 0.950 . S
H237 C249 0.950 . S
H238 C246 0.950 . S
H239 C248 0.950 . S
H240 C250 0.950 . S
H241 C252 0.950 . S
H242 C254 0.950 . S
H243 C255 0.950 . S
C244 H236 0.950 . S
C244 C245 1.386 . S
C244 C246 1.391 1_545 S
C245 C244 1.386 . S
C245 C249 1.393 . S
C246 H238 0.950 . S
C246 C244 1.391 1_565 S
C246 C247 1.400 1_565 S
C247 C246 1.400 1_545 S
C247 C248 1.398 . S
C247 C253 1.491 1_545 S
C248 H239 0.950 . S
C248 C247 1.398 . S
C248 C249 1.391 . S
C249 H237 0.950 . S
C249 C245 1.393 . S
C249 C248 1.391 . S
C250 H240 0.950 . S
C250 C251 1.386 . S
C250 C252 1.391 1_565 S
C251 C250 1.386 . S
C251 C255 1.393 . S
C252 H241 0.950 . S
C252 C250 1.391 1_545 S
C252 C253 1.400 1_545 S
C253 C247 1.491 1_565 S
C253 C252 1.400 1_565 S
C253 C254 1.398 . S
C254 H242 0.950 . S
C254 C253 1.398 . S
C254 C255 1.391 . S
C255 H243 0.950 . S
C255 C251 1.393 . S
C255 C254 1.391 . S
H256 C264 0.950 . S
H257 C269 0.950 . S
H258 C266 0.950 . S
H259 C268 0.950 . S
H260 C270 0.950 . S
H261 C272 0.950 . S
H262 C274 0.950 . S
H263 C275 0.950 . S
C264 H256 0.950 . S
C264 C265 1.386 . S
C264 C266 1.391 . S
C265 C264 1.386 . S
C265 C269 1.393 . S
C266 H258 0.950 . S
C266 C264 1.391 . S
C266 C267 1.400 . S
C267 C266 1.400 . S
C267 C268 1.398 . S
C267 C273 1.491 . S
C268 H259 0.950 . S
C268 C267 1.398 . S
C268 C269 1.391 . S
C269 H257 0.950 . S
C269 C265 1.393 . S
C269 C268 1.391 . S
C270 H260 0.950 . S
C270 C271 1.386 . S
C270 C272 1.391 . S
C271 C270 1.386 . S
C271 C275 1.393 . S
C272 H261 0.950 . S
C272 C270 1.391 . S
C272 C273 1.400 . S
C273 C267 1.491 . S
C273 C272 1.400 . S
C273 C274 1.398 . S
C274 H262 0.950 . S
C274 C273 1.398 . S
C274 C275 1.391 . S
C275 H263 0.950 . S
C275 C271 1.393 . S
C275 C274 1.391 . S
H276 C284 0.950 . S
H277 C289 0.950 . S
H278 C286 0.950 . S
H279 C288 0.950 . S
H280 C290 0.950 . S
H281 C292 0.950 . S
H282 C294 0.950 . S
H283 C295 0.950 . S
C284 H276 0.950 . S
C284 C285 1.386 . S
C284 C286 1.391 . S
C285 C284 1.386 . S
C285 C289 1.393 . S
C286 H278 0.950 . S
C286 C284 1.391 . S
C286 C287 1.400 . S
C287 C286 1.400 . S
C287 C288 1.398 . S
C287 C293 1.491 1_554 S
C288 H279 0.950 . S
C288 C287 1.398 . S
C288 C289 1.391 . S
C289 H277 0.950 . S
C289 C285 1.393 . S
C289 C288 1.391 . S
C290 H280 0.950 . S
C290 C291 1.386 . S
C290 C292 1.391 . S
C291 C290 1.386 . S
C291 C295 1.393 . S
C292 H281 0.950 . S
C292 C290 1.391 . S
C292 C293 1.400 . S
C293 C287 1.491 1_556 S
C293 C292 1.400 . S
C293 C294 1.398 . S
C294 H282 0.950 . S
C294 C293 1.398 . S
C294 C295 1.391 . S
C295 H283 0.950 . S
C295 C291 1.393 . S
C295 C294 1.391 . S
H296 C304 0.950 . S
H297 C309 0.950 . S
H298 C306 0.950 . S
H299 C308 0.950 . S
H300 C310 0.950 . S
H301 C312 0.950 . S
H302 C314 0.950 . S
H303 C315 0.950 . S
C304 H296 0.950 . S
C304 C305 1.386 . S
C304 C306 1.391 . S
C305 C304 1.386 . S
C305 C309 1.393 . S
C306 H298 0.950 . S
C306 C304 1.391 . S
C306 C307 1.400 . S
C307 C306 1.400 . S
C307 C308 1.398 . S
C307 C313 1.491 . S
C308 H299 0.950 . S
C308 C307 1.398 . S
C308 C309 1.391 . S
C309 H297 0.950 . S
C309 C305 1.393 . S
C309 C308 1.391 . S
C310 H300 0.950 . S
C310 C311 1.386 . S
C310 C312 1.391 . S
C311 C310 1.386 . S
C311 C315 1.393 . S
C312 H301 0.950 . S
C312 C310 1.391 . S
C312 C313 1.400 . S
C313 C307 1.491 . S
C313 C312 1.400 . S
C313 C314 1.398 . S
C314 H302 0.950 . S
C314 C313 1.398 . S
C314 C315 1.391 . S
C315 H303 0.950 . S
C315 C311 1.393 . S
C315 C314 1.391 . S
H316 C324 0.950 . S
H317 C329 0.950 . S
H318 C326 0.950 . S
H319 C328 0.950 . S
H320 C330 0.950 . S
H321 C332 0.950 . S
H322 C334 0.950 . S
H323 C335 0.950 . S
C324 H316 0.950 . S
C324 C325 1.386 . S
C324 C326 1.391 . S
C325 C324 1.386 . S
C325 C329 1.393 . S
C326 H318 0.950 . S
C326 C324 1.391 . S
C326 C327 1.400 . S
C327 C326 1.400 . S
C327 C328 1.398 . S
C327 C333 1.491 . S
C328 H319 0.950 . S
C328 C327 1.398 . S
C328 C329 1.391 . S
C329 H317 0.950 . S
C329 C325 1.393 . S
C329 C328 1.391 . S
C330 H320 0.950 . S
C330 C331 1.386 . S
C330 C332 1.391 . S
C331 C330 1.386 . S
C331 C335 1.393 . S
C332 H321 0.950 . S
C332 C330 1.391 . S
C332 C333 1.400 . S
C333 C327 1.491 . S
C333 C332 1.400 . S
C333 C334 1.398 . S
C334 H322 0.950 . S
C334 C333 1.398 . S
C334 C335 1.391 . S
C335 H323 0.950 . S
C335 C331 1.393 . S
C335 C334 1.391 . S
H336 C344 0.950 . S
H337 C349 0.950 . S
H338 C346 0.950 . S
H339 C348 0.950 . S
H340 C350 0.950 . S
H341 C352 0.950 . S
H342 C354 0.950 . S
H343 C355 0.950 . S
C344 H336 0.950 . S
C344 C345 1.386 . S
C344 C346 1.391 . S
C345 C344 1.386 . S
C345 C349 1.393 . S
C346 H338 0.950 . S
C346 C344 1.391 . S
C346 C347 1.400 . S
C347 C346 1.400 . S
C347 C348 1.398 . S
C347 C353 1.491 1_554 S
C348 H339 0.950 . S
C348 C347 1.398 . S
C348 C349 1.391 . S
C349 H337 0.950 . S
C349 C345 1.393 . S
C349 C348 1.391 . S
C350 H340 0.950 . S
C350 C351 1.386 . S
C350 C352 1.391 . S
C351 C350 1.386 . S
C351 C355 1.393 . S
C352 H341 0.950 . S
C352 C350 1.391 . S
C352 C353 1.400 . S
C353 C347 1.491 1_556 S
C353 C352 1.400 . S
C353 C354 1.398 . S
C354 H342 0.950 . S
C354 C353 1.398 . S
C354 C355 1.391 . S
C355 H343 0.950 . S
C355 C351 1.393 . S
C355 C354 1.391 . S
H356 C364 0.950 . S
H357 C369 0.950 . S
H358 C366 0.950 . S
H359 C368 0.950 . S
H360 C370 0.950 . S
H361 C372 0.950 . S
H362 C374 0.950 . S
H363 C375 0.950 . S
C364 H356 0.950 . S
C364 C365 1.386 . S
C364 C366 1.391 . S
C365 C364 1.386 . S
C365 C369 1.393 . S
C366 H358 0.950 . S
C366 C364 1.391 . S
C366 C367 1.400 . S
C367 C366 1.400 . S
C367 C368 1.398 . S
C367 C373 1.491 . S
C368 H359 0.950 . S
C368 C367 1.398 . S
C368 C369 1.391 . S
C369 H357 0.950 . S
C369 C365 1.393 . S
C369 C368 1.391 . S
C370 H360 0.950 . S
C370 C371 1.386 . S
C370 C372 1.391 . S
C371 C370 1.386 . S
C371 C375 1.393 . S
C372 H361 0.950 . S
C372 C370 1.391 . S
C372 C373 1.400 . S
C373 C367 1.491 . S
C373 C372 1.400 . S
C373 C374 1.398 . S
C374 H362 0.950 . S
C374 C373 1.398 . S
C374 C375 1.391 . S
C375 H363 0.950 . S
C375 C371 1.393 . S
C375 C374 1.391 . S
H376 C384 0.950 . S
H377 C389 0.950 . S
H378 C386 0.950 . S
H379 C388 0.950 . S
H380 C390 0.950 . S
H381 C392 0.950 . S
H382 C394 0.950 . S
H383 C395 0.950 . S
C384 H376 0.950 . S
C384 C385 1.386 . S
C384 C386 1.391 . S
C385 C384 1.386 . S
C385 C389 1.393 . S
C386 H378 0.950 . S
C386 C384 1.391 . S
C386 C387 1.400 . S
C387 C386 1.400 . S
C387 C388 1.398 . S
C387 C393 1.491 . S
C388 H379 0.950 . S
C388 C387 1.398 . S
C388 C389 1.391 . S
C389 H377 0.950 . S
C389 C385 1.393 . S
C389 C388 1.391 . S
C390 H380 0.950 . S
C390 C391 1.386 . S
C390 C392 1.391 . S
C391 C390 1.386 . S
C391 C395 1.393 . S
C392 H381 0.950 . S
C392 C390 1.391 . S
C392 C393 1.400 . S
C393 C387 1.491 . S
C393 C392 1.400 . S
C393 C394 1.398 . S
C394 H382 0.950 . S
C394 C393 1.398 . S
C394 C395 1.391 . S
C395 H383 0.950 . S
C395 C391 1.393 . S
C395 C394 1.391 . S
H396 C404 0.950 . S
H397 C409 0.950 . S
H398 C406 0.950 . S
H399 C408 0.950 . S
H400 C410 0.950 . S
H401 C412 0.950 . S
H402 C414 0.950 . S
H403 C415 0.950 . S
C404 H396 0.950 . S
C404 C405 1.386 . S
C404 C406 1.391 1_655 S
C405 C404 1.386 . S
C405 C409 1.393 . S
C406 H398 0.950 . S
C406 C404 1.391 1_455 S
C406 C407 1.400 1_455 S
C407 C406 1.400 1_655 S
C407 C408 1.398 . S
C407 C413 1.491 1_655 S
C408 H399 0.950 . S
C408 C407 1.398 . S
C408 C409 1.391 . S
C409 H397 0.950 . S
C409 C405 1.393 . S
C409 C408 1.391 . S
C410 H400 0.950 . S
C410 C411 1.386 . S
C410 C412 1.391 1_455 S
C411 C410 1.386 . S
C411 C415 1.393 . S
C412 H401 0.950 . S
C412 C410 1.391 1_655 S
C412 C413 1.400 1_655 S
C413 C407 1.491 1_455 S
C413 C412 1.400 1_455 S
C413 C414 1.398 . S
C414 H402 0.950 . S
C414 C413 1.398 . S
C414 C415 1.391 . S
C415 H403 0.950 . S
C415 C411 1.393 . S
C415 C414 1.391 . S
H416 C424 0.950 . S
H417 C429 0.950 1_565 S
H418 C426 0.950 . S
H419 C428 0.950 . S
H420 C430 0.950 . S
H421 C432 0.950 . S
H422 C434 0.950 . S
H423 C435 0.950 1_545 S
C424 H416 0.950 . S
C424 C425 1.386 . S
C424 C426 1.391 . S
C425 C424 1.386 . S
C425 C429 1.393 . S
C426 H418 0.950 . S
C426 C424 1.391 . S
C426 C427 1.400 . S
C427 C426 1.400 . S
C427 C428 1.398 1_545 S
C427 C433 1.491 1_545 S
C428 H419 0.950 . S
C428 C427 1.398 1_565 S
C428 C429 1.391 1_565 S
C429 H417 0.950 1_545 S
C429 C425 1.393 . S
C429 C428 1.391 1_545 S
C430 H420 0.950 . S
C430 C431 1.386 . S
C430 C432 1.391 . S
C431 C430 1.386 . S
C431 C435 1.393 . S
C432 H421 0.950 . S
C432 C430 1.391 . S
C432 C433 1.400 . S
C433 C427 1.491 1_565 S
C433 C432 1.400 . S
C433 C434 1.398 1_565 S
C434 H422 0.950 . S
C434 C433 1.398 1_545 S
C434 C435 1.391 1_545 S
C435 H423 0.950 1_565 S
C435 C431 1.393 . S
C435 C434 1.391 1_565 S
H436 C444 0.950 . S
H437 C449 0.950 . S
H438 C446 0.950 . S
H439 C448 0.950 . S
H440 C450 0.950 . S
H441 C452 0.950 . S
H442 C454 0.950 . S
H443 C455 0.950 . S
C444 H436 0.950 . S
C444 C445 1.386 . S
C444 C446 1.391 . S
C445 C444 1.386 . S
C445 C449 1.393 . S
C446 H438 0.950 . S
C446 C444 1.391 . S
C446 C447 1.400 . S
C447 C446 1.400 . S
C447 C448 1.398 . S
C447 C453 1.491 . S
C448 H439 0.950 . S
C448 C447 1.398 . S
C448 C449 1.391 . S
C449 H437 0.950 . S
C449 C445 1.393 . S
C449 C448 1.391 . S
C450 H440 0.950 . S
C450 C451 1.386 . S
C450 C452 1.391 . S
C451 C450 1.386 . S
C451 C455 1.393 . S
C452 H441 0.950 . S
C452 C450 1.391 . S
C452 C453 1.400 . S
C453 C447 1.491 . S
C453 C452 1.400 . S
C453 C454 1.398 . S
C454 H442 0.950 . S
C454 C453 1.398 . S
C454 C455 1.391 . S
C455 H443 0.950 . S
C455 C451 1.393 . S
C455 C454 1.391 . S
H456 C464 0.950 . S
H457 C469 0.950 1_565 S
H458 C466 0.950 . S
H459 C468 0.950 . S
H460 C470 0.950 . S
H461 C472 0.950 . S
H462 C474 0.950 . S
H463 C475 0.950 1_545 S
C464 H456 0.950 . S
C464 C465 1.386 . S
C464 C466 1.391 . S
C465 C464 1.386 . S
C465 C469 1.393 . S
C466 H458 0.950 . S
C466 C464 1.391 . S
C466 C467 1.400 . S
C467 C466 1.400 . S
C467 C468 1.398 1_545 S
C467 C473 1.491 1_545 S
C468 H459 0.950 . S
C468 C467 1.398 1_565 S
C468 C469 1.391 1_565 S
C469 H457 0.950 1_545 S
C469 C465 1.393 . S
C469 C468 1.391 1_545 S
C470 H460 0.950 . S
C470 C471 1.386 . S
C470 C472 1.391 . S
C471 C470 1.386 . S
C471 C475 1.393 . S
C472 H461 0.950 . S
C472 C470 1.391 . S
C472 C473 1.400 . S
C473 C467 1.491 1_565 S
C473 C472 1.400 . S
C473 C474 1.398 1_565 S
C474 H462 0.950 . S
C474 C473 1.398 1_545 S
C474 C475 1.391 1_545 S
C475 H463 0.950 1_565 S
C475 C471 1.393 . S
C475 C474 1.391 1_565 S
H476 C484 0.950 . S
H477 C489 0.950 . S
H478 C486 0.950 . S
H479 C488 0.950 . S
H480 C490 0.950 . S
H481 C492 0.950 . S
H482 C494 0.950 . S
H483 C495 0.950 . S
C484 H476 0.950 . S
C484 C485 1.386 . S
C484 C486 1.391 . S
C485 C484 1.386 . S
C485 C489 1.393 . S
C486 H478 0.950 . S
C486 C484 1.391 . S
C486 C487 1.400 . S
C487 C486 1.400 . S
C487 C488 1.398 . S
C487 C493 1.491 . S
C488 H479 0.950 . S
C488 C487 1.398 . S
C488 C489 1.391 . S
C489 H477 0.950 . S
C489 C485 1.393 . S
C489 C488 1.391 . S
C490 H480 0.950 . S
C490 C491 1.386 . S
C490 C492 1.391 . S
C491 C490 1.386 . S
C491 C495 1.393 . S
C492 H481 0.950 . S
C492 C490 1.391 . S
C492 C493 1.400 . S
C493 C487 1.491 . S
C493 C492 1.400 . S
C493 C494 1.398 . S
C494 H482 0.950 . S
C494 C493 1.398 . S
C494 C495 1.391 . S
C495 H483 0.950 . S
C495 C491 1.393 . S
C495 C494 1.391 . S
H496 C504 0.950 1_655 S
H497 C509 0.950 . S
H498 C506 0.950 . S
H499 C508 0.950 . S
H500 C510 0.950 1_455 S
H501 C512 0.950 . S
H502 C514 0.950 . S
H503 C515 0.950 . S
C504 H496 0.950 1_455 S
C504 C505 1.386 . S
C504 C506 1.391 1_455 S
C505 C504 1.386 . S
C505 C509 1.393 . S
C506 H498 0.950 . S
C506 C504 1.391 1_655 S
C506 C507 1.400 1_655 S
C507 C506 1.400 1_455 S
C507 C508 1.398 . S
C507 C513 1.491 1_455 S
C508 H499 0.950 . S
C508 C507 1.398 . S
C508 C509 1.391 . S
C509 H497 0.950 . S
C509 C505 1.393 . S
C509 C508 1.391 . S
C510 H500 0.950 1_655 S
C510 C511 1.386 . S
C510 C512 1.391 1_655 S
C511 C510 1.386 . S
C511 C515 1.393 . S
C512 H501 0.950 . S
C512 C510 1.391 1_455 S
C512 C513 1.400 1_455 S
C513 C507 1.491 1_655 S
C513 C512 1.400 1_655 S
C513 C514 1.398 . S
C514 H502 0.950 . S
C514 C513 1.398 . S
C514 C515 1.391 . S
C515 H503 0.950 . S
C515 C511 1.393 . S
C515 C514 1.391 . S
H516 C524 0.950 1_655 S
H517 C529 0.950 . S
H518 C526 0.950 . S
H519 C528 0.950 . S
H520 C530 0.950 1_455 S
H521 C532 0.950 . S
H522 C534 0.950 . S
H523 C535 0.950 . S
C524 H516 0.950 1_455 S
C524 C525 1.386 . S
C524 C526 1.391 1_455 S
C525 C524 1.386 . S
C525 C529 1.393 . S
C526 H518 0.950 . S
C526 C524 1.391 1_655 S
C526 C527 1.400 1_655 S
C527 C526 1.400 1_455 S
C527 C528 1.398 . S
C527 C533 1.491 1_445 S
C528 H519 0.950 . S
C528 C527 1.398 . S
C528 C529 1.391 . S
C529 H517 0.950 . S
C529 C525 1.393 . S
C529 C528 1.391 . S
C530 H520 0.950 1_655 S
C530 C531 1.386 . S
C530 C532 1.391 1_655 S
C531 C530 1.386 . S
C531 C535 1.393 . S
C532 H521 0.950 . S
C532 C530 1.391 1_455 S
C532 C533 1.400 1_455 S
C533 C527 1.491 1_665 S
C533 C532 1.400 1_655 S
C533 C534 1.398 . S
C534 H522 0.950 . S
C534 C533 1.398 . S
C534 C535 1.391 . S
C535 H523 0.950 . S
C535 C531 1.393 . S
C535 C534 1.391 . S
H536 C544 0.950 . S
H537 C549 0.950 . S
H538 C546 0.950 1_455 S
H539 C548 0.950 . S
H540 C550 0.950 . S
H541 C552 0.950 1_655 S
H542 C554 0.950 . S
H543 C555 0.950 . S
C544 H536 0.950 . S
C544 C545 1.386 . S
C544 C546 1.391 . S
C545 C544 1.386 . S
C545 C549 1.393 . S
C546 H538 0.950 1_655 S
C546 C544 1.391 . S
C546 C547 1.400 . S
C547 C546 1.400 . S
C547 C548 1.398 1_545 S
C547 C553 1.491 1_645 S
C548 H539 0.950 . S
C548 C547 1.398 1_565 S
C548 C549 1.391 1_565 S
C549 H537 0.950 . S
C549 C545 1.393 . S
C549 C548 1.391 1_545 S
C550 H540 0.950 . S
C550 C551 1.386 . S
C550 C552 1.391 . S
C551 C550 1.386 . S
C551 C555 1.393 . S
C552 H541 0.950 1_455 S
C552 C550 1.391 . S
C552 C553 1.400 . S
C553 C547 1.491 1_465 S
C553 C552 1.400 . S
C553 C554 1.398 1_565 S
C554 H542 0.950 . S
C554 C553 1.398 1_545 S
C554 C555 1.391 1_545 S
C555 H543 0.950 . S
C555 C551 1.393 . S
C555 C554 1.391 1_565 S
H556 C564 0.950 . S
H557 C569 0.950 . S
H558 C566 0.950 1_565 S
H559 C568 0.950 . S
H560 C570 0.950 . S
H561 C572 0.950 1_545 S
H562 C574 0.950 . S
H563 C575 0.950 . S
C564 H556 0.950 . S
C564 C565 1.386 . S
C564 C566 1.391 . S
C565 C564 1.386 . S
C565 C569 1.393 . S
C566 H558 0.950 1_545 S
C566 C564 1.391 . S
C566 C567 1.400 . S
C567 C566 1.400 . S
C567 C568 1.398 . S
C567 C573 1.491 1_445 S
C568 H559 0.950 . S
C568 C567 1.398 . S
C568 C569 1.391 . S
C569 H557 0.950 . S
C569 C565 1.393 . S
C569 C568 1.391 . S
C570 H560 0.950 . S
C570 C571 1.386 . S
C570 C572 1.391 . S
C571 C570 1.386 . S
C571 C575 1.393 . S
C572 H561 0.950 1_565 S
C572 C570 1.391 . S
C572 C573 1.400 . S
C573 C567 1.491 1_665 S
C573 C572 1.400 . S
C573 C574 1.398 . S
C574 H562 0.950 . S
C574 C573 1.398 . S
C574 C575 1.391 . S
C575 H563 0.950 . S
C575 C571 1.393 . S
C575 C574 1.391 . S
H576 C584 0.950 . S
H577 C589 0.950 . S
H578 C586 0.950 . S
H579 C588 0.950 . S
H580 C590 0.950 . S
H581 C592 0.950 . S
H582 C594 0.950 . S
H583 C595 0.950 . S
C584 H576 0.950 . S
C584 C585 1.386 . S
C584 C586 1.391 . S
C585 C584 1.386 . S
C585 C589 1.393 . S
C586 H578 0.950 . S
C586 C584 1.391 . S
C586 C587 1.400 . S
C587 C586 1.400 . S
C587 C588 1.398 1_565 S
C587 C593 1.491 1_665 S
C588 H579 0.950 . S
C588 C587 1.398 1_545 S
C588 C589 1.391 1_545 S
C589 H577 0.950 . S
C589 C585 1.393 . S
C589 C588 1.391 1_565 S
C590 H580 0.950 . S
C590 C591 1.386 . S
C590 C592 1.391 . S
C591 C590 1.386 . S
C591 C595 1.393 . S
C592 H581 0.950 . S
C592 C590 1.391 . S
C592 C593 1.400 . S
C593 C587 1.491 1_445 S
C593 C592 1.400 . S
C593 C594 1.398 1_545 S
C594 H582 0.950 . S
C594 C593 1.398 1_565 S
C594 C595 1.391 1_565 S
C595 H583 0.950 . S
C595 C591 1.393 . S
C595 C594 1.391 1_545 S
H596 C604 0.950 . S
H597 C609 0.950 . S
H598 C606 0.950 . S
H599 C608 0.959 . S
H600 C610 0.950 . S
H601 C612 0.950 . S
H602 C614 0.956 . S
H603 C615 0.950 . S
C604 H596 0.950 . S
C604 C605 1.386 . S
C604 C606 1.391 . S
C605 C604 1.386 . S
C605 C609 1.393 . S
C606 H598 0.950 . S
C606 C604 1.391 . S
C606 C607 1.400 . S
C607 C606 1.400 . S
C607 C608 1.398 . S
C607 C613 1.491 1_665 S
C608 H599 0.959 . S
C608 C607 1.398 . S
C608 C609 1.391 . S
C609 H597 0.950 . S
C609 C605 1.393 . S
C609 C608 1.391 . S
C610 H600 0.950 . S
C610 C611 1.386 . S
C610 C612 1.391 . S
C611 C610 1.386 . S
C611 C615 1.393 . S
C612 H601 0.950 . S
C612 C610 1.391 . S
C612 C613 1.400 . S
C613 C607 1.491 1_445 S
C613 C612 1.400 . S
C613 C614 1.398 . S
C614 H602 0.956 . S
C614 C613 1.398 . S
C614 C615 1.391 . S
C615 H603 0.950 . S
C615 C611 1.393 . S
C615 C614 1.391 . S
H616 C624 0.950 1_655 S
H617 C629 0.950 . S
H618 C626 0.950 . S
H619 C628 0.948 . S
H620 C630 0.950 1_455 S
H621 C632 0.950 . S
H622 C634 0.949 . S
H623 C635 0.950 . S
C624 H616 0.950 1_455 S
C624 C625 1.386 . S
C624 C626 1.391 1_455 S
C625 C624 1.386 . S
C625 C629 1.393 . S
C626 H618 0.950 . S
C626 C624 1.391 1_655 S
C626 C627 1.400 1_655 S
C627 C626 1.400 1_455 S
C627 C628 1.398 1_565 S
C627 C633 1.491 1_465 S
C628 H619 0.948 . S
C628 C627 1.398 1_545 S
C628 C629 1.393 1_545 S
C629 H617 0.950 . S
C629 C625 1.393 . S
C629 C628 1.393 1_565 S
C630 H620 0.950 1_655 S
C630 C631 1.386 . S
C630 C632 1.391 1_655 S
C631 C630 1.386 . S
C631 C635 1.393 . S
C632 H621 0.950 . S
C632 C630 1.391 1_455 S
C632 C633 1.400 1_455 S
C633 C627 1.491 1_645 S
C633 C632 1.400 1_655 S
C633 C634 1.398 1_545 S
C634 H622 0.949 . S
C634 C633 1.398 1_565 S
C634 C635 1.392 1_565 S
C635 H623 0.950 . S
C635 C631 1.393 . S
C635 C634 1.392 1_545 S
C165 C144 1.505 . S
C171 C1 1.509 . S
C185 C14 1.509 . S
C191 C79 1.504 . S
C205 C27 1.507 . S
C211 C92 1.502 . S
C225 C40 1.511 . S
C231 C105 1.508 . S
C245 C118 1.501 . S
C251 C53 1.502 . S
C265 C66 1.507 . S
C271 C131 1.511 . S
C285 C3 1.516 . S
C291 C133 1.512 . S
C305 C16 1.507 . S
C311 C146 1.511 . S
C325 C29 1.518 . S
C331 C81 1.519 . S
C345 C42 1.513 . S
C351 C94 1.510 . S
C365 C107 1.512 . S
C371 C55 1.509 . S
C385 C120 1.515 . S
C391 C68 1.518 . S
C405 C44 1.783 . S
C411 C5 1.784 . S
C425 C18 1.779 . S
C431 C57 1.778 . S
C445 C70 1.778 . S
C451 C31 1.777 . S
C465 C122 1.778 . S
C471 C83 1.777 . S
C485 C135 1.783 . S
C491 C96 1.781 . S
C505 C109 1.780 . S
C511 C148 1.781 . S
C525 C10 1.670 . S
C531 C49 1.668 . S
C545 C23 1.660 . S
C551 C62 1.662 . S
C565 C75 1.661 . S
C571 C36 1.664 . S
C585 C88 1.660 . S
C591 C127 1.662 . S
C605 C101 1.671 . S
C611 C140 1.670 . S
C625 C114 1.669 . S
C631 C153 1.667 . S
