# Generated by pormake.
# Topology snk, (6)-cn, num edge types: 1
# Building blocks:
#     Node 0, Type 0, BuildingBlock: BETDAH_clean_sbu_0, # of connection points: 6
#     Node 1, Type 0, BuildingBlock: BETDAH_clean_sbu_0, # of connection points: 6
#     Node 2, Type 0, BuildingBlock: BETDAH_clean_sbu_0, # of connection points: 6
#     Node 3, Type 0, BuildingBlock: BETDAH_clean_sbu_0, # of connection points: 6
#     Node 4, Type 0, BuildingBlock: BETDAH_clean_sbu_0, # of connection points: 6
#     Node 5, Type 0, BuildingBlock: BETDAH_clean_sbu_0, # of connection points: 6
#     Node 6, Type 0, BuildingBlock: BETDAH_clean_sbu_0, # of connection points: 6
#     Node 7, Type 0, BuildingBlock: BETDAH_clean_sbu_0, # of connection points: 6
#     Edge 8, Type (0, 0), BuildingBlock: EZIPEK_clean_linker_0, # of connection points: 2
#     Edge 9, Type (0, 0), BuildingBlock: EZIPEK_clean_linker_0, # of connection points: 2
#     Edge 10, Type (0, 0), BuildingBlock: EZIPEK_clean_linker_0, # of connection points: 2
#     Edge 11, Type (0, 0), BuildingBlock: EZIPEK_clean_linker_0, # of connection points: 2
#     Edge 12, Type (0, 0), BuildingBlock: EZIPEK_clean_linker_0, # of connection points: 2
#     Edge 13, Type (0, 0), BuildingBlock: EZIPEK_clean_linker_0, # of connection points: 2
#     Edge 14, Type (0, 0), BuildingBlock: EZIPEK_clean_linker_0, # of connection points: 2
#     Edge 15, Type (0, 0), BuildingBlock: EZIPEK_clean_linker_0, # of connection points: 2
#     Edge 16, Type (0, 0), BuildingBlock: EZIPEK_clean_linker_0, # of connection points: 2
#     Edge 17, Type (0, 0), BuildingBlock: EZIPEK_clean_linker_0, # of connection points: 2
#     Edge 18, Type (0, 0), BuildingBlock: EZIPEK_clean_linker_0, # of connection points: 2
#     Edge 19, Type (0, 0), BuildingBlock: EZIPEK_clean_linker_0, # of connection points: 2
#     Edge 20, Type (0, 0), BuildingBlock: EZIPEK_clean_linker_0, # of connection points: 2
#     Edge 21, Type (0, 0), BuildingBlock: EZIPEK_clean_linker_0, # of connection points: 2
#     Edge 22, Type (0, 0), BuildingBlock: EZIPEK_clean_linker_0, # of connection points: 2
#     Edge 23, Type (0, 0), BuildingBlock: EZIPEK_clean_linker_0, # of connection points: 2
#     Edge 24, Type (0, 0), BuildingBlock: EZIPEK_clean_linker_0, # of connection points: 2
#     Edge 25, Type (0, 0), BuildingBlock: EZIPEK_clean_linker_0, # of connection points: 2
#     Edge 26, Type (0, 0), BuildingBlock: EZIPEK_clean_linker_0, # of connection points: 2
#     Edge 27, Type (0, 0), BuildingBlock: EZIPEK_clean_linker_0, # of connection points: 2
#     Edge 28, Type (0, 0), BuildingBlock: EZIPEK_clean_linker_0, # of connection points: 2
#     Edge 29, Type (0, 0), BuildingBlock: EZIPEK_clean_linker_0, # of connection points: 2
#     Edge 30, Type (0, 0), BuildingBlock: EZIPEK_clean_linker_0, # of connection points: 2
#     Edge 31, Type (0, 0), BuildingBlock: EZIPEK_clean_linker_0, # of connection points: 2
# Relax obj value: 0.115
# Max RMSD: 0.188
# Mean RMSD: 0.148
data_MOF--net-snk--node1-BETDAH_clean_sbu_0--edge1-EZIPEK_clean_linker_0
_symmetry_space_group_name_H-M    P1
_symmetry_Int_Tables_number       1
_symmetry_cell_setting            triclinic
loop_
_symmetry_equiv_pos_as_xyz
'x, y, z'
_cell_length_a     26.375715
_cell_length_b     26.406996
_cell_length_c     21.010079
_cell_angle_alpha  82.425961
_cell_angle_beta   97.671868
_cell_angle_gamma 89.24858
loop_
_atom_site_label
_atom_site_type_symbol
_atom_site_fract_x
_atom_site_fract_y
_atom_site_fract_z
_atom_type_partial_charge
Ho0 Ho 0.9832 0.99415 0.49161 0.0
Ho1 Ho 0.01995 0.04144 0.61744 0.0
C2 C 0.07267 0.07537 0.49052 0.0
C3 C 0.9375 0.96983 0.38382 0.0
C4 C 0.95173 0.96862 0.31852 0.0
C5 C 0.91598 0.98595 0.2641 0.0
C6 C 0.92984 0.98918 0.20177 0.0
C7 C 0.97961 0.97494 0.19304 0.0
C8 C 0.0152 0.95668 0.24725 0.0
C9 C 1.00144 0.95375 0.30969 0.0
C10 C 0.07118 0.95316 0.56289 0.0
C11 C 0.93599 0.95173 0.62162 0.0
C12 C 0.0507 0.05946 0.73397 0.0
C13 C 0.04391 0.03751 0.8005 0.0
C14 C 0.08476 0.03712 0.85075 0.0
C15 C 0.07728 0.02227 0.9152 0.0
C16 C 0.02866 0.0081 0.93021 0.0
C17 C 0.98836 0.0063 0.87978 0.0
C18 C 0.99595 0.02064 0.81536 0.0
C19 C 0.95006 0.09863 0.52967 0.0
O20 O 0.03248 0.0578 0.45641 0.0
O21 O 0.0805 0.06761 0.5548 0.0
O22 O 0.96048 0.9362 0.43059 0.0
O23 O 0.93401 0.01548 0.40101 0.0
O24 O 0.06166 0.95609 0.50019 0.0
O25 O 0.03203 0.96857 0.58327 0.0
O26 O 0.96565 0.98275 0.65356 0.0
O27 O 0.93429 0.95037 0.55856 0.0
O28 O 0.00984 0.08119 0.69801 0.0
O29 O 0.07812 0.03247 0.7021 0.0
O30 O 0.98794 0.11682 0.56452 0.0
O31 O 0.95139 0.05071 0.5442 0.0
H32 H 0.87765 0.9981 0.26995 0.0
H33 H 0.90207 0.00368 0.16039 0.0
H34 H 0.05389 0.94594 0.24125 0.0
H35 H 0.0299 0.94091 0.351 0.0
H36 H 0.12202 0.04988 0.84032 0.0
H37 H 0.10884 0.02371 0.95356 0.0
H38 H 0.95065 0.99531 0.89047 0.0
H39 H 0.96386 0.02021 0.77745 0.0
Ho40 Ho 0.24105 0.72083 0.82624 0.0
Ho41 Ho 0.28558 0.76745 0.70215 0.0
C42 C 0.32265 0.81161 0.8342 0.0
C43 C 0.22611 0.68163 0.94138 0.0
C44 C 0.23827 0.6947 1.00751 0.0
C45 C 0.28435 0.71788 0.02748 0.0
C46 C 0.29448 0.73065 0.09038 0.0
C47 C 0.25858 0.72058 0.13372 0.0
C48 C 0.21268 0.69746 0.1138 0.0
C49 C 0.20264 0.68453 0.0511 0.0
C50 C 0.18558 0.79791 0.74826 0.0
C51 C 0.20595 0.67191 0.69901 0.0
C52 C 0.29821 0.8108 0.58786 0.0
C53 C 0.29384 0.79677 0.52203 0.0
C54 C 0.2636 0.75612 0.50448 0.0
C55 C 0.25965 0.7437 0.44137 0.0
C56 C 0.28609 0.7716 0.39532 0.0
C57 C 0.31685 0.81175 0.41317 0.0
C58 C 0.32063 0.82429 0.47617 0.0
C59 C 0.34383 0.69262 0.77942 0.0
O60 O 0.30363 0.7706 0.86461 0.0
O61 O 0.31324 0.82374 0.77029 0.0
O62 O 0.19269 0.71197 0.90228 0.0
O63 O 0.26475 0.66847 0.91338 0.0
O64 O 0.1653 0.75983 0.78038 0.0
O65 O 0.23332 0.7945 0.76253 0.0
O66 O 0.22664 0.71135 0.66653 0.0
O67 O 0.21349 0.66254 0.76291 0.0
O68 O 0.3353 0.78766 0.62945 0.0
O69 O 0.25539 0.81414 0.61247 0.0
O70 O 0.36182 0.73013 0.74383 0.0
O71 O 0.29568 0.69497 0.76684 0.0
H72 H 0.31235 0.72627 0.99455 0.0
H73 H 0.33001 0.74866 0.10513 0.0
H74 H 0.18462 0.68959 0.14678 0.0
H75 H 0.16689 0.66682 0.03647 0.0
H76 H 0.24291 0.73422 0.53936 0.0
H77 H 0.23581 0.71256 0.42829 0.0
H78 H 0.33754 0.83355 0.37816 0.0
H79 H 0.34432 0.85559 0.48906 0.0
Ho80 Ho 0.52368 0.95861 0.09777 0.0
Ho81 Ho 0.48344 0.01837 0.96546 0.0
C82 C 0.43252 0.04684 0.08501 0.0
C83 C 0.55725 0.93138 0.21962 0.0
C84 C 0.54439 0.94189 0.28362 0.0
C85 C 0.55329 0.98971 0.30526 0.0
C86 C 0.54272 0.99824 0.3667 0.0
C87 C 0.52302 0.95927 0.4077 0.0
C88 C 0.51397 0.91162 0.38633 0.0
C89 C 0.52474 0.90296 0.32502 0.0
C90 C 0.45496 0.91009 1.02146 0.0
C91 C 0.57595 0.93252 0.97879 0.0
C92 C 0.45027 0.04456 0.84344 0.0
C93 C 0.46044 0.02914 0.78101 0.0
C94 C 0.47695 0.97907 0.7762 0.0
C95 C 0.48694 0.96579 0.71645 0.0
C96 C 0.48087 0.00243 0.66074 0.0
C97 C 0.46442 0.05238 0.66574 0.0
C98 C 0.45426 0.06557 0.7253 0.0
C99 C 0.55735 0.06559 0.03723 0.0
O100 O 0.46933 0.01795 0.12209 0.0
O101 O 0.42604 0.04987 1.02102 0.0
O102 O 0.52475 0.90499 0.18575 0.0
O103 O 0.57591 0.96874 0.18337 0.0
O104 O 0.49227 0.88686 0.06169 0.0
O105 O 0.45348 0.95691 0.02819 0.0
O106 O 0.53599 0.95697 0.94221 0.0
O107 O 0.58414 0.93346 0.04208 0.0
O108 O 0.48734 0.06734 0.87506 0.0
O109 O 0.42777 0.01151 0.88164 0.0
O110 O 0.51705 0.08838 1.00238 0.0
O111 O 0.5559 0.0184 0.03241 0.0
H112 H 0.5687 0.02053 0.27499 0.0
H113 H 0.55001 0.03525 0.38237 0.0
H114 H 0.49885 0.88105 0.41732 0.0
H115 H 0.51797 0.86562 0.31008 0.0
H116 H 0.48217 0.9503 0.81852 0.0
H117 H 0.49957 0.92705 0.71365 0.0
H118 H 0.4595 0.08119 0.62343 0.0
H119 H 0.44167 0.10438 0.72793 0.0
Ho120 Ho 0.21574 0.25751 0.20824 0.0
Ho121 Ho 0.29028 0.2312 0.33915 0.0
C122 C 0.31052 0.17105 0.22204 0.0
C123 C 0.18359 0.28638 0.08667 0.0
C124 C 0.19931 0.27767 1.02336 0.0
C125 C 0.21388 0.31911 0.98111 0.0
C126 C 0.22725 0.31191 0.92042 0.0
C127 C 0.22586 0.26316 0.9004 0.0
C128 C 0.21158 0.22163 0.9426 0.0
C129 C 0.19861 0.22873 1.00347 0.0
C130 C 0.17769 0.19437 0.29975 0.0
C131 C 0.19858 0.3183 0.32769 0.0
C132 C 0.31859 0.20245 0.46167 0.0
C133 C 0.30297 0.2133 0.52431 0.0
C134 C 0.25929 0.19146 0.54743 0.0
C135 C 0.24629 0.2003 0.60772 0.0
C136 C 0.27668 0.231 0.64631 0.0
C137 C 0.32008 0.25301 0.62334 0.0
C138 C 0.33318 0.24411 0.56316 0.0
C139 C 0.32492 0.29845 0.24834 0.0
O140 O 0.27108 0.19737 0.18645 0.0
O141 O 0.32446 0.17488 0.28421 0.0
O142 O 0.16547 0.24747 0.12107 0.0
O143 O 0.21369 0.31377 0.12246 0.0
O144 O 0.14943 0.22244 0.25224 0.0
O145 O 0.22412 0.19602 0.2897 0.0
O146 O 0.23915 0.29306 0.36133 0.0
O147 O 0.18266 0.31331 0.266 0.0
O148 O 0.34033 0.23918 0.42779 0.0
O149 O 0.28676 0.17717 0.42512 0.0
O150 O 0.35474 0.26908 0.29317 0.0
O151 O 0.27913 0.29513 0.25975 0.0
H152 H 0.21465 0.35723 0.99494 0.0
H153 H 0.23826 0.34446 0.88875 0.0
H154 H 0.21034 0.18369 0.92826 0.0
H155 H 0.18769 0.19585 0.03466 0.0
H156 H 0.23517 0.1673 0.51919 0.0
H157 H 0.21266 0.18292 0.6245 0.0
H158 H 0.34412 0.2767 0.65238 0.0
H159 H 0.36731 0.26103 0.54724 0.0
Ho160 Ho 0.73967 0.2324 0.31816 0.0
Ho161 Ho 0.78933 0.2681 0.19313 0.0
C162 C 0.81917 0.32322 0.31919 0.0
C163 C 0.71475 0.18766 0.42608 0.0
C164 C 0.7164 0.20215 0.49163 0.0
C165 C 0.74396 0.24458 0.50892 0.0
C166 C 0.74769 0.25659 0.57225 0.0
C167 C 0.72373 0.22648 0.61904 0.0
C168 C 0.69519 0.18475 0.60134 0.0
C169 C 0.69166 0.17261 0.53802 0.0
C170 C 0.69758 0.31763 0.24236 0.0
C171 C 0.70285 0.18083 0.18904 0.0
C172 C 0.81066 0.29899 0.07803 0.0
C173 C 0.791 0.29375 1.01038 0.0
C174 C 0.74341 0.2722 0.99379 0.0
C175 C 0.72816 0.26274 0.93001 0.0
C176 C 0.76044 0.27461 0.88241 0.0
C177 C 0.80732 0.2973 0.89882 0.0
C178 C 0.82245 0.30682 0.96234 0.0
C179 C 0.84784 0.20452 0.28718 0.0
O180 O 0.8019 0.28315 0.35368 0.0
O181 O 0.81051 0.33062 0.25487 0.0
O182 O 0.68181 0.21341 0.38081 0.0
O183 O 0.75942 0.18107 0.4071 0.0
O184 O 0.69892 0.3098 0.30491 0.0
O185 O 0.7148 0.2783 0.22413 0.0
O186 O 0.73434 0.21024 0.15763 0.0
O187 O 0.69901 0.18121 0.25129 0.0
O188 O 0.83003 0.25695 0.11344 0.0
O189 O 0.78265 0.32615 0.10906 0.0
O190 O 0.86547 0.24088 0.24953 0.0
O191 O 0.80028 0.20275 0.27029 0.0
H192 H 0.76324 0.26791 0.47372 0.0
H193 H 0.7699 0.28887 0.58506 0.0
H194 H 0.67651 0.1611 0.63687 0.0
H195 H 0.67024 0.13976 0.52551 0.0
H196 H 0.71876 0.26158 0.03034 0.0
H197 H 0.69194 0.24498 0.91816 0.0
H198 H 0.83272 0.3065 0.86274 0.0
H199 H 0.85942 0.32315 0.97438 0.0
Ho200 Ho 0.72422 0.7675 0.70652 0.0
Ho201 Ho 0.78362 0.72222 0.8412 0.0
C202 C 0.8104 0.6743 0.71758 0.0
C203 C 0.70413 0.80685 0.58566 0.0
C204 C 0.71604 0.79325 0.52275 0.0
C205 C 0.72782 0.83183 0.4747 0.0
C206 C 0.73812 0.81992 0.41445 0.0
C207 C 0.73657 0.76918 0.40102 0.0
C208 C 0.72522 0.73045 0.44915 0.0
C209 C 0.71525 0.74231 0.50955 0.0
C210 C 0.6753 0.69494 0.77499 0.0
C211 C 0.69773 0.8157 0.83189 0.0
C212 C 0.80065 0.68161 0.96183 0.0
C213 C 0.79312 0.69589 1.02586 0.0
C214 C 0.79808 0.65812 0.0802 0.0
C215 C 0.78929 0.67026 0.14089 0.0
C216 C 0.77531 0.72046 0.14835 0.0
C217 C 0.77048 0.75836 0.09398 0.0
C218 C 0.77937 0.74619 0.03325 0.0
C219 C 0.83043 0.79898 0.77541 0.0
O220 O 0.78277 0.71249 0.68151 0.0
O221 O 0.81252 0.66603 0.78159 0.0
O222 O 0.67324 0.77702 0.6159 0.0
O223 O 0.74253 0.82061 0.6252 0.0
O224 O 0.65215 0.72923 0.73027 0.0
O225 O 0.72303 0.69642 0.77299 0.0
O226 O 0.73459 0.78521 0.86616 0.0
O227 O 0.6873 0.8178 0.76782 0.0
O228 O 0.8351 0.70627 0.93148 0.0
O229 O 0.75887 0.67506 0.92295 0.0
O230 O 0.85416 0.75957 0.81144 0.0
O231 O 0.78282 0.79551 0.7775 0.0
H232 H 0.7288 0.8713 0.4837 0.0
H233 H 0.74689 0.85033 0.37805 0.0
H234 H 0.72405 0.69106 0.43988 0.0
H235 H 0.70662 0.7117 0.54575 0.0
H236 H 0.80847 0.61906 0.07559 0.0
H237 H 0.79317 0.64043 0.18206 0.0
H238 H 0.75963 0.79728 0.09856 0.0
H239 H 0.77522 0.77597 0.99209 0.0
Ho240 Ho 0.47619 0.4881 0.96543 0.0
Ho241 Ho 0.52442 0.53003 0.09182 0.0
C242 C 0.56771 0.56876 0.95872 0.0
C243 C 0.43668 0.4782 0.84851 0.0
C244 C 0.45522 0.48718 0.78481 0.0
C245 C 0.42435 0.51505 0.73228 0.0
C246 C 0.44294 0.5281 0.67317 0.0
C247 C 0.49414 0.51609 0.66537 0.0
C248 C 0.52225 0.48254 0.71665 0.0
C249 C 0.50385 0.46981 0.77599 0.0
C250 C 0.55423 0.43166 0.04063 0.0
C251 C 0.42953 0.45027 0.09348 0.0
C252 C 0.56978 0.53961 0.20656 0.0
C253 C 0.55848 0.5377 0.27361 0.0
C254 C 0.52003 0.507 0.29707 0.0
C255 C 0.51093 0.50581 0.36152 0.0
C256 C 0.54005 0.53542 0.40292 0.0
C257 C 0.57811 0.56625 0.37916 0.0
C258 C 0.58727 0.56731 0.31506 0.0
C259 C 0.44546 0.58754 1.02078 0.0
O260 O 0.52726 0.54924 0.9279 0.0
O261 O 0.5793 0.56069 1.02284 0.0
O262 O 0.45804 0.44005 0.89007 0.0
O263 O 0.43041 0.5193 0.87543 0.0
O264 O 0.51742 0.41219 1.00509 0.0
O265 O 0.55002 0.47948 0.0287 0.0
O266 O 0.47046 0.46861 0.12616 0.0
O267 O 0.41829 0.46154 0.02988 0.0
O268 O 0.54915 0.57809 0.16523 0.0
O269 O 0.56866 0.49651 0.18199 0.0
O270 O 0.4834 0.6056 0.05586 0.0
O271 O 0.45031 0.53949 0.02951 0.0
H272 H 0.38575 0.52712 0.73706 0.0
H273 H 0.41619 0.54729 0.63373 0.0
H274 H 0.55821 0.46456 0.71225 0.0
H275 H 0.52788 0.44632 0.81495 0.0
H276 H 0.49724 0.484 0.26573 0.0
H277 H 0.48128 0.48196 0.37908 0.0
H278 H 0.60081 0.58942 0.4104 0.0
H279 H 0.61701 0.59126 0.29783 0.0
Ho280 Ho 0.02344 0.46527 0.58379 0.0
Ho281 Ho 0.98585 0.53217 0.45074 0.0
C282 C 0.93298 0.55356 0.57523 0.0
C283 C 0.05803 0.44269 0.70575 0.0
C284 C 0.04296 0.45242 0.76906 0.0
C285 C 0.07204 0.48541 0.80585 0.0
C286 C 0.05955 0.49465 0.86612 0.0
C287 C 0.01782 0.47091 0.89127 0.0
C288 C 0.98852 0.43799 0.85476 0.0
C289 C 1.00093 0.4288 0.79422 0.0
C290 C 0.95429 0.42268 0.50164 0.0
C291 C 0.07865 0.44488 0.46487 0.0
C292 C 0.95219 0.55976 0.32924 0.0
C293 C 0.95977 0.54384 0.26585 0.0
C294 C 0.95762 0.49242 0.25483 0.0
C295 C 0.96535 0.47877 0.19436 0.0
C296 C 0.97597 0.51619 0.1441 0.0
C297 C 0.97815 0.56746 0.15526 0.0
C298 C 0.96992 0.58112 0.21535 0.0
C299 C 0.05718 0.57439 0.5295 0.0
O300 O 0.9614 0.51505 0.60872 0.0
O301 O 0.93323 0.56665 0.5118 0.0
O302 O 0.03077 0.41145 0.67236 0.0
O303 O 0.07178 0.4827 0.66897 0.0
O304 O 0.98901 0.39626 0.54339 0.0
O305 O 0.95515 0.46913 0.5105 0.0
O306 O 0.03981 0.47118 0.42758 0.0
O307 O 0.08554 0.44371 0.5286 0.0
O308 O 0.99149 0.58007 0.36017 0.0
O309 O 0.92779 0.52896 0.36808 0.0
O310 O 0.02338 0.60093 0.48701 0.0
O311 O 0.05445 0.5277 0.52251 0.0
H312 H 0.10475 0.50402 0.78806 0.0
H313 H 0.08267 0.52016 0.89341 0.0
H314 H 0.95618 0.41924 0.87331 0.0
H315 H 0.97774 0.40311 0.76738 0.0
H316 H 0.95016 0.4628 0.29291 0.0
H317 H 0.96349 0.43899 0.18689 0.0
H318 H 0.98627 0.59695 0.11733 0.0
H319 H 0.97176 0.62098 0.22254 0.0
C320 C 0.14616 0.08303 0.42457 0.0
C321 C 0.10845 0.10678 0.45387 0.0
C322 C 0.1174 0.18737 0.38484 0.0
C323 C 0.15659 0.16458 0.35582 0.0
N324 N 0.2128 0.09119 0.35521 0.0
N325 N 0.07088 0.18426 0.47706 0.0
C326 C 0.17289 0.11278 0.37853 0.0
C327 C 0.09815 0.15978 0.43868 0.0
N328 N 0.15498 0.03144 0.43896 0.0
N329 N 0.0975 0.23523 0.36105 0.0
H330 H 0.05846 0.16532 0.51855 0.0
H331 H 0.06604 0.22384 0.4725 0.0
H332 H 0.11271 0.26041 0.327 0.0
H333 H 0.06415 0.24989 0.37417 0.0
H334 H 0.17629 0.01002 0.41318 0.0
H335 H 0.1389 0.00952 0.47561 0.0
H336 H 0.23084 0.05659 0.37638 0.0
H337 H 0.22989 0.10834 0.31642 0.0
C338 C 0.08851 0.86143 0.60809 0.0
C339 C 0.10468 0.91258 0.60301 0.0
C340 C 0.17102 0.88957 0.69606 0.0
C341 C 0.15761 0.83743 0.69806 0.0
N342 N 0.11139 0.77304 0.64438 0.0
N343 N 0.16765 0.97342 0.6325 0.0
C344 C 0.1185 0.82317 0.65086 0.0
C345 C 0.14809 0.92598 0.64386 0.0
N346 N 0.0434 0.84939 0.57399 0.0
N347 N 0.20317 0.90508 0.74589 0.0
H348 H 0.15197 0.0005 0.59409 0.0
H349 H 0.20219 0.9839 0.65672 0.0
H350 H 0.21867 0.88038 0.78683 0.0
H351 H 0.21011 0.94332 0.75006 0.0
H352 H 0.02651 0.81415 0.58281 0.0
H353 H 0.02049 0.87565 0.54062 0.0
H354 H 0.08764 0.76064 0.60612 0.0
H355 H 0.13351 0.74407 0.67323 0.0
C356 C 0.40727 0.84788 0.87109 0.0
C357 C 0.35426 0.84468 0.87504 0.0
C358 C 0.36629 0.88868 0.97227 0.0
C359 C 0.4202 0.88565 0.97274 0.0
N360 N 0.49138 0.84831 0.93136 0.0
N361 N 0.28265 0.8598 0.93117 0.0
C362 C 0.44058 0.86144 0.92459 0.0
C363 C 0.33354 0.86472 0.92606 0.0
N364 N 0.42635 0.83751 0.8167 0.0
N365 N 0.34636 0.91332 1.01703 0.0
H366 H 0.25683 0.84613 0.89584 0.0
H367 H 0.26627 0.86705 0.97161 0.0
H368 H 0.36891 0.92617 0.05595 0.0
H369 H 0.30761 0.92274 1.01439 0.0
H370 H 0.46391 0.84484 0.80881 0.0
H371 H 0.40383 0.82612 0.77684 0.0
H372 H 0.50726 0.82658 0.9006 0.0
H373 H 0.51648 0.85289 0.97233 0.0
C374 C 0.42369 0.11891 0.15046 0.0
C375 C 0.40034 0.07973 0.11753 0.0
C376 C 0.3195 0.09687 0.15894 0.0
C377 C 0.342 0.13821 0.18827 0.0
N378 N 0.41193 0.19598 0.19781 0.0
N379 N 0.32406 0.03618 0.08219 0.0
C380 C 0.39322 0.15105 0.18053 0.0
C381 C 0.34753 0.07032 0.11906 0.0
N382 N 0.47517 0.12589 0.15281 0.0
N383 N 0.27197 0.08175 0.17121 0.0
H384 H 0.34358 0.01518 0.05398 0.0
H385 H 0.28467 0.03148 0.07553 0.0
H386 H 0.25065 0.09998 0.20044 0.0
H387 H 0.25538 0.04872 0.15713 0.0
H388 H 0.49546 0.14875 0.18351 0.0
H389 H 0.49848 0.10664 0.12699 0.0
H390 H 0.4465 0.21065 0.18617 0.0
H391 H 0.39054 0.22143 0.21782 0.0
C392 C 0.85403 0.91516 0.65448 0.0
C393 C 0.90818 0.91321 0.66069 0.0
C394 C 0.91107 0.84607 0.75398 0.0
C395 C 0.8568 0.84395 0.74342 0.0
N396 N 0.7799 0.89596 0.70811 0.0
N397 N 0.98853 0.87171 0.71033 0.0
C398 C 0.82879 0.8837 0.7001 0.0
C399 C 0.93676 0.87733 0.70891 0.0
N400 N 0.82649 0.94697 0.60502 0.0
N401 N 0.93785 0.8232 0.81095 0.0
H402 H 0.00906 0.89399 0.67862 0.0
H403 H 0.01038 0.84178 0.73877 0.0
H404 H 0.92005 0.80807 0.85029 0.0
H405 H 0.97704 0.82688 0.82358 0.0
H406 H 0.78694 0.9454 0.59331 0.0
H407 H 0.84354 0.97205 0.57227 0.0
H408 H 0.75844 0.92676 0.68111 0.0
H409 H 0.7642 0.88102 0.74904 0.0
C410 C 0.9298 0.17917 0.45123 0.0
C411 C 0.91711 0.12863 0.4734 0.0
C412 C 0.85944 0.1268 0.37192 0.0
C413 C 0.87658 0.17546 0.34739 0.0
N414 N 0.94377 0.23719 0.35808 0.0
N415 N 0.8529 0.06508 0.46651 0.0
C416 C 0.91621 0.19874 0.38517 0.0
C417 C 0.87701 0.10527 0.43705 0.0
N418 N 0.95131 0.2102 0.49384 0.0
N419 N 0.82957 0.09934 0.33144 0.0
H420 H 0.86101 0.05273 0.51606 0.0
H421 H 0.82049 0.04889 0.44448 0.0
H422 H 0.81983 0.11183 0.28207 0.0
H423 H 0.81991 0.06167 0.34458 0.0
H424 H 0.95742 0.24882 0.48017 0.0
H425 H 0.95491 0.19997 0.54389 0.0
H426 H 0.97474 0.25265 0.38427 0.0
H427 H 0.9422 0.24763 0.30847 0.0
C428 C 0.66971 0.09614 0.16093 0.0
C429 C 0.66687 0.1503 0.14992 0.0
C430 C 0.60334 0.14735 0.05381 0.0
C431 C 0.60149 0.09341 0.06906 0.0
N432 N 0.65347 0.01817 0.11432 0.0
N433 N 0.62597 0.22801 0.0907 0.0
C434 C 0.64012 0.06785 0.11671 0.0
C435 C 0.63245 0.17602 0.09752 0.0
N436 N 0.70082 0.07153 0.21343 0.0
N437 N 0.58222 0.17072 0.99402 0.0
H438 H 0.64676 0.25081 0.12098 0.0
H439 H 0.5967 0.24811 0.05874 0.0
H440 H 0.56817 0.15024 0.95664 0.0
H441 H 0.58617 0.2093 0.9779 0.0
H442 H 0.69954 0.03246 0.22869 0.0
H443 H 0.72531 0.09065 0.24469 0.0
H444 H 0.6835 0.99816 0.14494 0.0
H445 H 0.64079 0.99989 0.07467 0.0
C446 C 0.65271 0.89903 0.84768 0.0
C447 C 0.66695 0.84663 0.86962 0.0
C448 C 0.62727 0.85235 0.96927 0.0
C449 C 0.61174 0.90386 0.94579 0.0
N450 N 0.62382 0.98035 0.87419 0.0
N451 N 0.65961 0.77134 0.94794 0.0
C452 C 0.62805 0.92817 0.88792 0.0
C453 C 0.65292 0.82308 0.93014 0.0
N454 N 0.66189 0.92147 0.78808 0.0
N455 N 0.61754 0.83077 0.02913 0.0
H456 H 0.67441 0.74643 0.92036 0.0
H457 H 0.64563 0.75101 0.98738 0.0
H458 H 0.59238 0.84636 0.05586 0.0
H459 H 0.6368 0.79816 0.0547 0.0
H460 H 0.6449 0.95615 0.76546 0.0
H461 H 0.68398 0.90488 0.75875 0.0
H462 H 0.64004 0.00153 0.83711 0.0
H463 H 0.60932 0.00345 0.90458 0.0
C464 C 0.63294 0.57755 0.88093 0.0
C465 C 0.60032 0.60072 0.91809 0.0
C466 C 0.61125 0.68413 0.85583 0.0
C467 C 0.64917 0.66226 0.82395 0.0
N468 N 0.69819 0.58737 0.80971 0.0
N469 N 0.56505 0.67683 0.9488 0.0
C470 C 0.66112 0.60884 0.83826 0.0
C471 C 0.59168 0.65424 0.90797 0.0
N472 N 0.63492 0.52553 0.88368 0.0
N473 N 0.59311 0.73329 0.83667 0.0
H474 H 0.55034 0.65616 0.98759 0.0
H475 H 0.56158 0.71623 0.94815 0.0
H476 H 0.60854 0.75953 0.804 0.0
H477 H 0.56075 0.7481 0.85201 0.0
H478 H 0.65296 0.50645 0.85217 0.0
H479 H 0.61473 0.5014 0.91392 0.0
H480 H 0.71337 0.5505 0.82509 0.0
H481 H 0.7155 0.60676 0.77233 0.0
C482 C 0.60869 0.33239 0.18448 0.0
C483 C 0.65841 0.35086 0.19929 0.0
C484 C 0.64123 0.41952 0.10846 0.0
C485 C 0.59004 0.40319 0.09532 0.0
N486 N 0.52228 0.35095 0.13334 0.0
N487 N 0.71743 0.41876 0.18734 0.0
C488 C 0.57295 0.36148 0.13673 0.0
C489 C 0.67312 0.39674 0.16518 0.0
N490 N 0.59577 0.28628 0.21498 0.0
N491 N 0.66067 0.45452 0.065 0.0
H492 H 0.74054 0.4034 0.22991 0.0
H493 H 0.72804 0.45478 0.16791 0.0
H494 H 0.63998 0.47003 1.021 0.0
H495 H 0.6991 0.46392 0.0692 0.0
H496 H 0.56289 0.26738 0.19946 0.0
H497 H 0.61956 0.26499 0.25303 0.0
H498 H 0.50721 0.32524 0.16739 0.0
H499 H 0.49433 0.37158 0.1008 0.0
C500 C 0.86448 0.40648 0.45007 0.0
C501 C 0.91835 0.40119 0.45114 0.0
C502 C 0.90372 0.36213 0.35034 0.0
C503 C 0.85092 0.35918 0.35566 0.0
N504 N 0.77984 0.37962 0.40961 0.0
N505 N 0.98868 0.3647 0.4075 0.0
C506 C 0.83095 0.38207 0.40507 0.0
C507 C 0.93777 0.37659 0.40262 0.0
N508 N 0.84523 0.434 0.49267 0.0
N509 N 0.92183 0.35112 0.2956 0.0
H510 H 0.01446 0.37189 0.44649 0.0
H511 H 1.00438 0.3426 0.37702 0.0
H512 H 0.89868 0.34006 0.2561 0.0
H513 H 0.9592 0.35809 0.28662 0.0
H514 H 0.80671 0.4446 0.48922 0.0
H515 H 0.86803 0.44867 0.52995 0.0
H516 H 0.76352 0.38874 0.44928 0.0
H517 H 0.75376 0.36669 0.37402 0.0
C518 C 0.89441 0.63358 0.7025 0.0
C519 C 0.84091 0.64058 0.68376 0.0
C520 C 0.84739 0.59275 0.59142 0.0
C521 C 0.9007 0.58313 0.61261 0.0
N522 N 0.97143 0.58479 0.70017 0.0
N523 N 0.76464 0.61769 0.6186 0.0
C524 C 0.92295 0.60012 0.67189 0.0
C525 C 0.81691 0.61786 0.63019 0.0
N526 N 0.91926 0.66172 0.74657 0.0
N527 N 0.82528 0.57673 0.53522 0.0
H528 H 0.74117 0.63364 0.64744 0.0
H529 H 0.74437 0.59756 0.58462 0.0
H530 H 0.84385 0.55261 0.50972 0.0
H531 H 0.78888 0.58897 0.51238 0.0
H532 H 0.95901 0.66312 0.7557 0.0
H533 H 0.90072 0.68789 0.76913 0.0
H534 H 0.98501 0.58892 0.74809 0.0
H535 H 0.99793 0.56626 0.67824 0.0
C536 C 0.36057 0.38647 0.22985 0.0
C537 C 0.34432 0.341 0.20519 0.0
C538 C 0.38164 0.36786 0.10576 0.0
C539 C 0.39655 0.41445 0.12924 0.0
N540 N 0.38701 0.47371 0.20538 0.0
N541 N 0.3268 0.2957 0.1129 0.0
C542 C 0.38219 0.42542 0.18901 0.0
C543 C 0.35075 0.33418 0.14097 0.0
N544 N 0.35602 0.39222 0.29256 0.0
N545 N 0.39928 0.35357 0.05216 0.0
H546 H 0.30368 0.27092 0.13722 0.0
H547 H 0.32491 0.2922 0.06382 0.0
H548 H 0.4226 0.37545 1.02402 0.0
H549 H 0.39512 0.31703 0.03892 0.0
H550 H 0.37282 0.42157 0.31573 0.0
H551 H 0.33796 0.36581 0.32277 0.0
H552 H 0.37309 0.48525 0.24547 0.0
H553 H 0.39994 0.50388 0.17506 0.0
C554 C 0.37109 0.59499 0.93073 0.0
C555 C 0.41195 0.61812 0.9659 0.0
C556 C 0.41337 0.68563 0.8756 0.0
C557 C 0.37256 0.66304 0.83904 0.0
N558 N 0.32096 0.58944 0.82635 0.0
N559 N 0.44879 0.69912 0.9834 0.0
C560 C 0.35334 0.6159 0.86534 0.0
C561 C 0.4261 0.66768 0.94214 0.0
N562 N 0.347 0.55544 0.96158 0.0
N563 N 0.44282 0.72157 0.84692 0.0
H564 H 0.45231 0.6899 0.03361 0.0
H565 H 0.45622 0.73718 0.96821 0.0
H566 H 0.44203 0.72967 0.79704 0.0
H567 H 0.4742 0.73684 0.87258 0.0
H568 H 0.3143 0.53904 0.94068 0.0
H569 H 0.35606 0.54351 1.01121 0.0
H570 H 0.30908 0.55276 0.84064 0.0
H571 H 0.31057 0.60178 0.77702 0.0
C572 C 0.11694 0.64229 0.66834 0.0
C573 C 0.16979 0.63992 0.66199 0.0
C574 C 0.14982 0.58769 0.5735 0.0
C575 C 0.09656 0.59695 0.5743 0.0
N576 N 0.03142 0.64692 0.6114 0.0
N577 N 0.23716 0.61192 0.6067 0.0
C578 C 0.08069 0.62831 0.61828 0.0
C579 C 0.18644 0.6129 0.61403 0.0
N580 N 0.10061 0.65775 0.72197 0.0
N581 N 0.16555 0.55596 0.53309 0.0
H582 H 0.26523 0.62664 0.63846 0.0
H583 H 0.2512 0.59863 0.56774 0.0
H584 H 0.1406 0.54095 0.49816 0.0
H585 H 0.20326 0.54276 0.53589 0.0
H586 H 0.06272 0.65488 0.73091 0.0
H587 H 0.12497 0.66906 0.76025 0.0
H588 H 0.02028 0.67524 0.63738 0.0
H589 H 1.00234 0.63724 0.57706 0.0
C590 C 0.1563 0.33164 0.42587 0.0
C591 C 0.16918 0.35154 0.36356 0.0
C592 C 0.13207 0.43539 0.37569 0.0
C593 C 0.11347 0.41361 0.43344 0.0
N594 N 0.10324 0.33813 0.50958 0.0
N595 N 0.16871 0.42293 0.27874 0.0
C596 C 0.12504 0.36129 0.45805 0.0
C597 C 0.15644 0.40346 0.33813 0.0
N598 N 0.1732 0.28385 0.45497 0.0
N599 N 0.12945 0.48731 0.35896 0.0
H600 H 0.19221 0.40364 0.25319 0.0
H601 H 0.15393 0.45769 0.2534 0.0
H602 H 0.11473 0.51218 0.38705 0.0
H603 H 0.14664 0.5064 0.32127 0.0
H604 H 0.17367 0.27183 0.50429 0.0
H605 H 0.18817 0.25607 0.43144 0.0
H606 H 0.10414 0.29875 0.52333 0.0
H607 H 0.07976 0.35668 0.53564 0.0
C608 C 0.01802 0.04034 0.03516 0.0
C609 C 0.01881 0.99866 0.99885 0.0
C610 C 0.9925 0.9412 0.08953 0.0
C611 C 0.99513 0.98221 0.1271 0.0
N612 N 0.01945 0.06822 0.14076 0.0
N613 N 0.01526 0.90802 0.99433 0.0
C614 C 0.01078 0.03099 0.10144 0.0
C615 C 0.00845 0.9486 0.0269 0.0
N616 N 0.02166 0.08923 1.00549 0.0
N617 N 0.9735 0.89564 0.1131 0.0
H618 H 0.02708 0.91208 0.94853 0.0
H619 H 0.01335 0.87006 1.01464 0.0
H620 H 0.96274 0.88851 0.15939 0.0
H621 H 0.96505 0.86617 0.08538 0.0
H622 H 0.01561 0.12148 0.02749 0.0
H623 H 0.02625 0.09802 0.95678 0.0
H624 H 0.03655 0.10252 0.12693 0.0
H625 H 0.0136 0.06318 0.1893 0.0
C626 C 0.30595 0.71506 0.31402 0.0
C627 C 0.28075 0.75936 0.32781 0.0
C628 C 0.2476 0.78179 0.21265 0.0
C629 C 0.26838 0.7349 0.20006 0.0
N630 N 0.31253 0.65391 0.23861 0.0
N631 N 0.22193 0.83147 0.29274 0.0
C632 C 0.29635 0.70069 0.25071 0.0
C633 C 0.25016 0.79197 0.27773 0.0
N634 N 0.34019 0.68762 0.36096 0.0
N635 N 0.22623 0.81695 0.1622 0.0
H636 H 0.22272 0.84019 0.33985 0.0
H637 H 0.19457 0.8531 0.25951 0.0
H638 H 0.22303 0.81046 0.11392 0.0
H639 H 0.21553 0.85408 0.16754 0.0
H640 H 0.36387 0.65824 0.35209 0.0
H641 H 0.34807 0.69692 0.40795 0.0
H642 H 0.32781 0.6249 0.27479 0.0
H643 H 0.30744 0.64264 0.19247 0.0
C644 C 0.54294 0.98089 0.58566 0.0
C645 C 0.49164 0.98886 0.59683 0.0
C646 C 0.46112 0.97978 0.48314 0.0
C647 C 0.51202 0.96841 0.47326 0.0
N648 N 0.60025 0.94904 0.51762 0.0
N649 N 0.40122 0.9865 0.56007 0.0
C650 C 0.55262 0.96623 0.52536 0.0
C651 C 0.4505 0.98561 0.54659 0.0
N652 N 0.58253 0.98938 0.63169 0.0
N653 N 0.42311 0.98654 0.43145 0.0
H654 H 0.39198 0.99041 0.60597 0.0
H655 H 0.3698 0.97887 0.52753 0.0
H656 H 0.42922 0.98188 0.38449 0.0
H657 H 0.38648 0.00062 0.43402 0.0
H658 H 0.6207 0.98959 0.62388 0.0
H659 H 0.57705 0.00044 0.67619 0.0
H660 H 0.63005 0.94108 0.55567 0.0
H661 H 0.60889 0.93858 0.474 0.0
C662 C 0.28466 0.22775 0.8302 0.0
C663 C 0.23911 0.25547 0.83509 0.0
C664 C 0.22076 0.27127 0.71601 0.0
C665 C 0.2636 0.23942 0.7114 0.0
N666 N 0.33132 0.18008 0.76435 0.0
N667 N 0.15916 0.29636 0.78298 0.0
C668 C 0.29419 0.21563 0.76863 0.0
C669 C 0.20586 0.27529 0.77801 0.0
N670 N 0.31976 0.21449 0.88411 0.0
N671 N 0.19524 0.29896 0.66126 0.0
H672 H 0.14664 0.29965 0.82733 0.0
H673 H 0.13101 0.30651 0.74343 0.0
H674 H 0.20515 0.29723 0.61516 0.0
H675 H 0.1672 0.32695 0.66199 0.0
H676 H 0.35606 0.19911 0.88255 0.0
H677 H 0.31448 0.22311 0.92987 0.0
H678 H 0.35108 0.15734 0.80451 0.0
H679 H 0.33935 0.16998 0.72031 0.0
C680 C 0.76851 0.21468 0.80093 0.0
C681 C 0.74717 0.2605 0.81607 0.0
C682 C 0.70468 0.28037 0.70399 0.0
C683 C 0.73049 0.23743 0.68738 0.0
N684 N 0.79262 0.16758 0.71753 0.0
N685 N 0.69904 0.33981 0.7819 0.0
C686 C 0.76376 0.20543 0.73527 0.0
C687 C 0.71619 0.29411 0.76758 0.0
N688 N 0.79267 0.1796 0.84959 0.0
N689 N 0.66826 0.30718 0.65937 0.0
H690 H 0.70555 0.35042 0.82834 0.0
H691 H 0.68133 0.36865 0.74716 0.0
H692 H 0.65898 0.2982 0.61241 0.0
H693 H 0.64436 0.33562 0.67017 0.0
H694 H 0.80405 0.14305 0.84268 0.0
H695 H 0.7975 0.18534 0.89819 0.0
H696 H 0.8218 0.14681 0.74882 0.0
H697 H 0.79047 0.15958 0.66996 0.0
C698 C 0.70555 0.75856 0.28461 0.0
C699 C 0.74653 0.75666 0.33625 0.0
C700 C 0.80691 0.73511 0.26336 0.0
C701 C 0.76541 0.73314 0.21315 0.0
N702 N 0.67439 0.73453 0.17902 0.0
N703 N 0.83508 0.73651 0.37803 0.0
C704 C 0.71446 0.74269 0.22458 0.0
C705 C 0.79691 0.74293 0.32653 0.0
N706 N 0.6582 0.7763 0.29263 0.0
N707 N 0.85606 0.73136 0.24998 0.0
H708 H 0.82963 0.74351 0.42441 0.0
H709 H 0.87113 0.72074 0.37609 0.0
H710 H 0.86491 0.72572 0.20445 0.0
H711 H 0.88806 0.73794 0.28222 0.0
H712 H 0.62828 0.78443 0.25478 0.0
H713 H 0.64974 0.78654 0.33642 0.0
H714 H 0.63628 0.73546 0.18693 0.0
H715 H 0.67933 0.7225 0.13484 0.0
C716 C 0.48703 0.56947 0.55262 0.0
C717 C 0.51495 0.53387 0.60184 0.0
C718 C 0.56665 0.50872 0.52214 0.0
C719 C 0.53115 0.53493 0.47142 0.0
N720 N 0.45828 0.59329 0.43812 0.0
N721 N 0.60436 0.51085 0.63236 0.0
C722 C 0.49163 0.56646 0.48653 0.0
C723 C 0.56178 0.51431 0.58726 0.0
N724 N 0.46278 0.61068 0.56945 0.0
N725 N 0.60491 0.47823 0.5086 0.0
H726 H 0.60447 0.52626 0.67569 0.0
H727 H 0.64059 0.50086 0.62242 0.0
H728 H 0.61003 0.4731 0.46145 0.0
H729 H 0.62876 0.45503 0.54481 0.0
H730 H 0.44577 0.64069 0.53588 0.0
H731 H 0.46608 0.61786 0.61752 0.0
H732 H 0.42556 0.61228 0.44691 0.0
H733 H 0.46148 0.59373 0.3891 0.0
C734 C 0.9625 0.51191 0.96107 0.0
C735 C 1.00546 0.48029 0.95634 0.0
C736 C 0.0304 0.47377 0.07435 0.0
C737 C 0.98528 0.50206 0.07971 0.0
N738 N 0.90337 0.53963 0.02964 0.0
N739 N 0.07489 0.42314 1.00943 0.0
C740 C 0.94984 0.51868 1.0234 0.0
C741 C 0.03779 0.45881 1.01336 0.0
N742 N 0.93485 0.53706 0.90603 0.0
N743 N 0.06736 0.46308 0.12684 0.0
H744 H 0.08143 0.41122 0.96574 0.0
H745 H 0.09608 0.40205 0.04988 0.0
H746 H 0.06383 0.47381 0.17211 0.0
H747 H 0.10341 0.44757 0.12425 0.0
H748 H 0.9068 0.5651 0.90642 0.0
H749 H 0.94281 0.53308 0.85959 0.0
H750 H 0.8739 0.54777 0.99122 0.0
H751 H 0.89246 0.54458 0.0744 0.0
loop_
_geom_bond_atom_site_label_1
_geom_bond_atom_site_label_2
_geom_bond_distance
_geom_bond_site_symmetry_2
_ccdc_geom_bond_type
Ho0 C3 2.811 1_655 S
Ho0 O20 2.322 1_665 S
Ho0 O22 2.378 1_655 S
Ho0 O23 2.524 1_565 S
Ho0 O24 2.381 1_655 S
Ho0 O25 2.669 1_655 S
Ho0 O27 2.346 . S
Ho0 O31 2.305 1_565 S
Ho1 C12 2.811 1_455 S
Ho1 O21 2.346 . S
Ho1 O25 2.305 1_545 S
Ho1 O26 2.322 1_445 S
Ho1 O28 2.378 1_455 S
Ho1 O29 2.524 1_545 S
Ho1 O30 2.381 1_455 S
Ho1 O31 2.669 1_455 S
C2 O20 1.259 . S
C2 O21 1.268 . S
C3 Ho0 2.811 1_455 S
C3 C4 1.488 . S
C3 O22 1.215 . S
C3 O23 1.289 1_465 S
C4 C3 1.488 . S
C4 C5 1.348 1_565 S
C4 C9 1.413 . S
C5 C4 1.348 1_545 S
C5 C6 1.442 . S
C5 H32 0.930 1_455 S
C6 C5 1.442 . S
C6 C7 1.381 1_545 S
C6 H33 0.931 . S
C7 C6 1.381 1_565 S
C7 C8 1.321 . S
C8 C7 1.321 . S
C8 C9 1.403 . S
C8 H34 0.934 . S
C9 C4 1.413 . S
C9 C8 1.403 . S
C9 H35 0.930 . S
C10 O24 1.275 . S
C10 O25 1.256 . S
C11 O26 1.259 . S
C11 O27 1.268 . S
C12 Ho1 2.811 1_655 S
C12 C13 1.488 . S
C12 O28 1.215 . S
C12 O29 1.289 1_645 S
C13 C12 1.488 . S
C13 C14 1.348 1_545 S
C13 C18 1.413 . S
C14 C13 1.348 1_565 S
C14 C15 1.442 . S
C14 H36 0.930 1_655 S
C15 C14 1.442 . S
C15 C16 1.381 1_565 S
C15 H37 0.931 . S
C16 C15 1.381 1_545 S
C16 C17 1.321 . S
C17 C16 1.321 . S
C17 C18 1.403 . S
C17 H38 0.934 . S
C18 C13 1.413 . S
C18 C17 1.403 . S
C18 H39 0.930 . S
C19 O30 1.275 . S
C19 O31 1.256 . S
O20 Ho0 2.322 1_445 S
O20 C2 1.259 . S
O21 Ho1 2.346 . S
O21 C2 1.268 . S
O22 Ho0 2.378 1_455 S
O22 C3 1.215 . S
O23 Ho0 2.524 1_545 S
O23 C3 1.289 1_645 S
O24 Ho0 2.381 1_455 S
O24 C10 1.275 . S
O25 Ho0 2.669 1_455 S
O25 Ho1 2.305 1_565 S
O25 C10 1.256 . S
O26 Ho1 2.322 1_665 S
O26 C11 1.259 . S
O27 Ho0 2.346 . S
O27 C11 1.268 . S
O28 Ho1 2.378 1_655 S
O28 C12 1.215 . S
O29 Ho1 2.524 1_565 S
O29 C12 1.289 1_465 S
O30 Ho1 2.381 1_655 S
O30 C19 1.275 . S
O31 Ho0 2.305 1_545 S
O31 Ho1 2.669 1_655 S
O31 C19 1.256 . S
H32 C5 0.930 1_655 S
H33 C6 0.931 . S
H34 C8 0.934 . S
H35 C9 0.930 . S
H36 C14 0.930 1_455 S
H37 C15 0.931 . S
H38 C17 0.934 . S
H39 C18 0.930 . S
Ho40 C43 2.811 . S
Ho40 O60 2.322 . S
Ho40 O62 2.378 . S
Ho40 O63 2.524 . S
Ho40 O64 2.381 . S
Ho40 O65 2.669 . S
Ho40 O67 2.346 . S
Ho40 O71 2.305 . S
Ho41 C52 2.811 . S
Ho41 O61 2.346 . S
Ho41 O65 2.305 . S
Ho41 O66 2.322 . S
Ho41 O68 2.378 . S
Ho41 O69 2.524 . S
Ho41 O70 2.381 . S
Ho41 O71 2.669 . S
C42 O60 1.259 . S
C42 O61 1.268 . S
C43 Ho40 2.811 . S
C43 C44 1.488 1_556 S
C43 O62 1.215 . S
C43 O63 1.289 . S
C44 C43 1.488 1_554 S
C44 C45 1.348 . S
C44 C49 1.413 . S
C45 C44 1.348 . S
C45 C46 1.442 . S
C45 H72 0.930 . S
C46 C45 1.442 . S
C46 C47 1.381 . S
C46 H73 0.931 . S
C47 C46 1.381 . S
C47 C48 1.321 . S
C48 C47 1.321 . S
C48 C49 1.403 . S
C48 H74 0.934 . S
C49 C44 1.413 . S
C49 C48 1.403 . S
C49 H75 0.930 1_554 S
C50 O64 1.275 . S
C50 O65 1.256 . S
C51 O66 1.259 . S
C51 O67 1.268 . S
C52 Ho41 2.811 . S
C52 C53 1.488 . S
C52 O68 1.215 . S
C52 O69 1.289 . S
C53 C52 1.488 . S
C53 C54 1.348 . S
C53 C58 1.413 . S
C54 C53 1.348 . S
C54 C55 1.442 . S
C54 H76 0.930 . S
C55 C54 1.442 . S
C55 C56 1.381 . S
C55 H77 0.931 . S
C56 C55 1.381 . S
C56 C57 1.321 . S
C57 C56 1.321 . S
C57 C58 1.403 . S
C57 H78 0.934 . S
C58 C53 1.413 . S
C58 C57 1.403 . S
C58 H79 0.930 . S
C59 O70 1.275 . S
C59 O71 1.256 . S
O60 Ho40 2.322 . S
O60 C42 1.259 . S
O61 Ho41 2.346 . S
O61 C42 1.268 . S
O62 Ho40 2.378 . S
O62 C43 1.215 . S
O63 Ho40 2.524 . S
O63 C43 1.289 . S
O64 Ho40 2.381 . S
O64 C50 1.275 . S
O65 Ho40 2.669 . S
O65 Ho41 2.305 . S
O65 C50 1.256 . S
O66 Ho41 2.322 . S
O66 C51 1.259 . S
O67 Ho40 2.346 . S
O67 C51 1.268 . S
O68 Ho41 2.378 . S
O68 C52 1.215 . S
O69 Ho41 2.524 . S
O69 C52 1.289 . S
O70 Ho41 2.381 . S
O70 C59 1.275 . S
O71 Ho40 2.305 . S
O71 Ho41 2.669 . S
O71 C59 1.256 . S
H72 C45 0.930 . S
H73 C46 0.931 . S
H74 C48 0.934 . S
H75 C49 0.930 1_556 S
H76 C54 0.930 . S
H77 C55 0.931 . S
H78 C57 0.934 . S
H79 C58 0.930 . S
Ho80 C83 2.811 . S
Ho80 O100 2.322 1_565 S
Ho80 O102 2.378 . S
Ho80 O103 2.524 . S
Ho80 O104 2.381 . S
Ho80 O105 2.669 1_554 S
Ho80 O107 2.346 . S
Ho80 O111 2.305 1_565 S
Ho81 C92 2.811 . S
Ho81 O101 2.346 . S
Ho81 O105 2.305 1_545 S
Ho81 O106 2.322 1_545 S
Ho81 O108 2.378 . S
Ho81 O109 2.524 . S
Ho81 O110 2.381 . S
Ho81 O111 2.669 1_556 S
C82 O100 1.259 . S
C82 O101 1.268 1_554 S
C83 Ho80 2.811 . S
C83 C84 1.488 . S
C83 O102 1.215 . S
C83 O103 1.289 . S
C84 C83 1.488 . S
C84 C85 1.348 . S
C84 C89 1.413 . S
C85 C84 1.348 . S
C85 C86 1.442 . S
C85 H112 0.930 1_565 S
C86 C85 1.442 . S
C86 C87 1.381 . S
C86 H113 0.931 1_565 S
C87 C86 1.381 . S
C87 C88 1.321 . S
C88 C87 1.321 . S
C88 C89 1.403 . S
C88 H114 0.934 . S
C89 C84 1.413 . S
C89 C88 1.403 . S
C89 H115 0.930 . S
C90 O104 1.275 1_556 S
C90 O105 1.256 . S
C91 O106 1.259 . S
C91 O107 1.268 1_556 S
C92 Ho81 2.811 . S
C92 C93 1.488 . S
C92 O108 1.215 . S
C92 O109 1.289 . S
C93 C92 1.488 . S
C93 C94 1.348 . S
C93 C98 1.413 . S
C94 C93 1.348 . S
C94 C95 1.442 . S
C94 H116 0.930 1_545 S
C95 C94 1.442 . S
C95 C96 1.381 . S
C95 H117 0.931 1_545 S
C96 C95 1.381 . S
C96 C97 1.321 . S
C97 C96 1.321 . S
C97 C98 1.403 . S
C97 H118 0.934 . S
C98 C93 1.413 . S
C98 C97 1.403 . S
C98 H119 0.930 . S
C99 O110 1.275 1_554 S
C99 O111 1.256 . S
O100 Ho80 2.322 1_545 S
O100 C82 1.259 . S
O101 Ho81 2.346 . S
O101 C82 1.268 1_556 S
O102 Ho80 2.378 . S
O102 C83 1.215 . S
O103 Ho80 2.524 . S
O103 C83 1.289 . S
O104 Ho80 2.381 . S
O104 C90 1.275 1_554 S
O105 Ho80 2.669 1_556 S
O105 Ho81 2.305 1_565 S
O105 C90 1.256 . S
O106 Ho81 2.322 1_565 S
O106 C91 1.259 . S
O107 Ho80 2.346 . S
O107 C91 1.268 1_554 S
O108 Ho81 2.378 . S
O108 C92 1.215 . S
O109 Ho81 2.524 . S
O109 C92 1.289 . S
O110 Ho81 2.381 . S
O110 C99 1.275 1_556 S
O111 Ho80 2.305 1_545 S
O111 Ho81 2.669 1_554 S
O111 C99 1.256 . S
H112 C85 0.930 1_545 S
H113 C86 0.931 1_545 S
H114 C88 0.934 . S
H115 C89 0.930 . S
H116 C94 0.930 1_565 S
H117 C95 0.931 1_565 S
H118 C97 0.934 . S
H119 C98 0.930 . S
Ho120 C123 2.811 . S
Ho120 O140 2.322 . S
Ho120 O142 2.378 . S
Ho120 O143 2.524 . S
Ho120 O144 2.381 . S
Ho120 O145 2.669 . S
Ho120 O147 2.346 . S
Ho120 O151 2.305 . S
Ho121 C132 2.811 . S
Ho121 O141 2.346 . S
Ho121 O145 2.305 . S
Ho121 O146 2.322 . S
Ho121 O148 2.378 . S
Ho121 O149 2.524 . S
Ho121 O150 2.381 . S
Ho121 O151 2.669 . S
C122 O140 1.259 . S
C122 O141 1.268 . S
C123 Ho120 2.811 . S
C123 C124 1.488 1_554 S
C123 O142 1.215 . S
C123 O143 1.289 . S
C124 C123 1.488 1_556 S
C124 C125 1.348 . S
C124 C129 1.413 . S
C125 C124 1.348 . S
C125 C126 1.442 . S
C125 H152 0.930 . S
C126 C125 1.442 . S
C126 C127 1.381 . S
C126 H153 0.931 . S
C127 C126 1.381 . S
C127 C128 1.321 . S
C128 C127 1.321 . S
C128 C129 1.403 . S
C128 H154 0.934 . S
C129 C124 1.413 . S
C129 C128 1.403 . S
C129 H155 0.930 . S
C130 O144 1.275 . S
C130 O145 1.256 . S
C131 O146 1.259 . S
C131 O147 1.268 . S
C132 Ho121 2.811 . S
C132 C133 1.488 . S
C132 O148 1.215 . S
C132 O149 1.289 . S
C133 C132 1.488 . S
C133 C134 1.348 . S
C133 C138 1.413 . S
C134 C133 1.348 . S
C134 C135 1.442 . S
C134 H156 0.930 . S
C135 C134 1.442 . S
C135 C136 1.381 . S
C135 H157 0.931 . S
C136 C135 1.381 . S
C136 C137 1.321 . S
C137 C136 1.321 . S
C137 C138 1.403 . S
C137 H158 0.934 . S
C138 C133 1.413 . S
C138 C137 1.403 . S
C138 H159 0.930 . S
C139 O150 1.275 . S
C139 O151 1.256 . S
O140 Ho120 2.322 . S
O140 C122 1.259 . S
O141 Ho121 2.346 . S
O141 C122 1.268 . S
O142 Ho120 2.378 . S
O142 C123 1.215 . S
O143 Ho120 2.524 . S
O143 C123 1.289 . S
O144 Ho120 2.381 . S
O144 C130 1.275 . S
O145 Ho120 2.669 . S
O145 Ho121 2.305 . S
O145 C130 1.256 . S
O146 Ho121 2.322 . S
O146 C131 1.259 . S
O147 Ho120 2.346 . S
O147 C131 1.268 . S
O148 Ho121 2.378 . S
O148 C132 1.215 . S
O149 Ho121 2.524 . S
O149 C132 1.289 . S
O150 Ho121 2.381 . S
O150 C139 1.275 . S
O151 Ho120 2.305 . S
O151 Ho121 2.669 . S
O151 C139 1.256 . S
H152 C125 0.930 . S
H153 C126 0.931 . S
H154 C128 0.934 . S
H155 C129 0.930 . S
H156 C134 0.930 . S
H157 C135 0.931 . S
H158 C137 0.934 . S
H159 C138 0.930 . S
Ho160 C163 2.811 . S
Ho160 O180 2.322 . S
Ho160 O182 2.378 . S
Ho160 O183 2.524 . S
Ho160 O184 2.381 . S
Ho160 O185 2.669 . S
Ho160 O187 2.346 . S
Ho160 O191 2.305 . S
Ho161 C172 2.811 . S
Ho161 O181 2.346 . S
Ho161 O185 2.305 . S
Ho161 O186 2.322 . S
Ho161 O188 2.378 . S
Ho161 O189 2.524 . S
Ho161 O190 2.381 . S
Ho161 O191 2.669 . S
C162 O180 1.259 . S
C162 O181 1.268 . S
C163 Ho160 2.811 . S
C163 C164 1.488 . S
C163 O182 1.215 . S
C163 O183 1.289 . S
C164 C163 1.488 . S
C164 C165 1.348 . S
C164 C169 1.413 . S
C165 C164 1.348 . S
C165 C166 1.442 . S
C165 H192 0.930 . S
C166 C165 1.442 . S
C166 C167 1.381 . S
C166 H193 0.931 . S
C167 C166 1.381 . S
C167 C168 1.321 . S
C168 C167 1.321 . S
C168 C169 1.403 . S
C168 H194 0.934 . S
C169 C164 1.413 . S
C169 C168 1.403 . S
C169 H195 0.930 . S
C170 O184 1.275 . S
C170 O185 1.256 . S
C171 O186 1.259 . S
C171 O187 1.268 . S
C172 Ho161 2.811 . S
C172 C173 1.488 1_554 S
C172 O188 1.215 . S
C172 O189 1.289 . S
C173 C172 1.488 1_556 S
C173 C174 1.348 . S
C173 C178 1.413 . S
C174 C173 1.348 . S
C174 C175 1.442 . S
C174 H196 0.930 . S
C175 C174 1.442 . S
C175 C176 1.381 . S
C175 H197 0.931 . S
C176 C175 1.381 . S
C176 C177 1.321 . S
C177 C176 1.321 . S
C177 C178 1.403 . S
C177 H198 0.934 . S
C178 C173 1.413 . S
C178 C177 1.403 . S
C178 H199 0.930 1_556 S
C179 O190 1.275 . S
C179 O191 1.256 . S
O180 Ho160 2.322 . S
O180 C162 1.259 . S
O181 Ho161 2.346 . S
O181 C162 1.268 . S
O182 Ho160 2.378 . S
O182 C163 1.215 . S
O183 Ho160 2.524 . S
O183 C163 1.289 . S
O184 Ho160 2.381 . S
O184 C170 1.275 . S
O185 Ho160 2.669 . S
O185 Ho161 2.305 . S
O185 C170 1.256 . S
O186 Ho161 2.322 . S
O186 C171 1.259 . S
O187 Ho160 2.346 . S
O187 C171 1.268 . S
O188 Ho161 2.378 . S
O188 C172 1.215 . S
O189 Ho161 2.524 . S
O189 C172 1.289 . S
O190 Ho161 2.381 . S
O190 C179 1.275 . S
O191 Ho160 2.305 . S
O191 Ho161 2.669 . S
O191 C179 1.256 . S
H192 C165 0.930 . S
H193 C166 0.931 . S
H194 C168 0.934 . S
H195 C169 0.930 . S
H196 C174 0.930 . S
H197 C175 0.931 . S
H198 C177 0.934 . S
H199 C178 0.930 1_554 S
Ho200 C203 2.811 . S
Ho200 O220 2.322 . S
Ho200 O222 2.378 . S
Ho200 O223 2.524 . S
Ho200 O224 2.381 . S
Ho200 O225 2.669 . S
Ho200 O227 2.346 . S
Ho200 O231 2.305 . S
Ho201 C212 2.811 . S
Ho201 O221 2.346 . S
Ho201 O225 2.305 . S
Ho201 O226 2.322 . S
Ho201 O228 2.378 . S
Ho201 O229 2.524 . S
Ho201 O230 2.381 . S
Ho201 O231 2.669 . S
C202 O220 1.259 . S
C202 O221 1.268 . S
C203 Ho200 2.811 . S
C203 C204 1.488 . S
C203 O222 1.215 . S
C203 O223 1.289 . S
C204 C203 1.488 . S
C204 C205 1.348 . S
C204 C209 1.413 . S
C205 C204 1.348 . S
C205 C206 1.442 . S
C205 H232 0.930 . S
C206 C205 1.442 . S
C206 C207 1.381 . S
C206 H233 0.931 . S
C207 C206 1.381 . S
C207 C208 1.321 . S
C208 C207 1.321 . S
C208 C209 1.403 . S
C208 H234 0.934 . S
C209 C204 1.413 . S
C209 C208 1.403 . S
C209 H235 0.930 . S
C210 O224 1.275 . S
C210 O225 1.256 . S
C211 O226 1.259 . S
C211 O227 1.268 . S
C212 Ho201 2.811 . S
C212 C213 1.488 1_556 S
C212 O228 1.215 . S
C212 O229 1.289 . S
C213 C212 1.488 1_554 S
C213 C214 1.348 . S
C213 C218 1.413 . S
C214 C213 1.348 . S
C214 C215 1.442 . S
C214 H236 0.930 . S
C215 C214 1.442 . S
C215 C216 1.381 . S
C215 H237 0.931 . S
C216 C215 1.381 . S
C216 C217 1.321 . S
C217 C216 1.321 . S
C217 C218 1.403 . S
C217 H238 0.934 . S
C218 C213 1.413 . S
C218 C217 1.403 . S
C218 H239 0.930 . S
C219 O230 1.275 . S
C219 O231 1.256 . S
O220 Ho200 2.322 . S
O220 C202 1.259 . S
O221 Ho201 2.346 . S
O221 C202 1.268 . S
O222 Ho200 2.378 . S
O222 C203 1.215 . S
O223 Ho200 2.524 . S
O223 C203 1.289 . S
O224 Ho200 2.381 . S
O224 C210 1.275 . S
O225 Ho200 2.669 . S
O225 Ho201 2.305 . S
O225 C210 1.256 . S
O226 Ho201 2.322 . S
O226 C211 1.259 . S
O227 Ho200 2.346 . S
O227 C211 1.268 . S
O228 Ho201 2.378 . S
O228 C212 1.215 . S
O229 Ho201 2.524 . S
O229 C212 1.289 . S
O230 Ho201 2.381 . S
O230 C219 1.275 . S
O231 Ho200 2.305 . S
O231 Ho201 2.669 . S
O231 C219 1.256 . S
H232 C205 0.930 . S
H233 C206 0.931 . S
H234 C208 0.934 . S
H235 C209 0.930 . S
H236 C214 0.930 . S
H237 C215 0.931 . S
H238 C217 0.934 . S
H239 C218 0.930 . S
Ho240 C243 2.811 . S
Ho240 O260 2.322 . S
Ho240 O262 2.378 . S
Ho240 O263 2.524 . S
Ho240 O264 2.381 . S
Ho240 O265 2.669 1_556 S
Ho240 O267 2.346 1_556 S
Ho240 O271 2.305 . S
Ho241 C252 2.811 . S
Ho241 O261 2.346 1_554 S
Ho241 O265 2.305 . S
Ho241 O266 2.322 . S
Ho241 O268 2.378 . S
Ho241 O269 2.524 . S
Ho241 O270 2.381 . S
Ho241 O271 2.669 1_554 S
C242 O260 1.259 . S
C242 O261 1.268 . S
C243 Ho240 2.811 . S
C243 C244 1.488 . S
C243 O262 1.215 . S
C243 O263 1.289 . S
C244 C243 1.488 . S
C244 C245 1.348 . S
C244 C249 1.413 . S
C245 C244 1.348 . S
C245 C246 1.442 . S
C245 H272 0.930 . S
C246 C245 1.442 . S
C246 C247 1.381 . S
C246 H273 0.931 . S
C247 C246 1.381 . S
C247 C248 1.321 . S
C248 C247 1.321 . S
C248 C249 1.403 . S
C248 H274 0.934 . S
C249 C244 1.413 . S
C249 C248 1.403 . S
C249 H275 0.930 . S
C250 O264 1.275 1_554 S
C250 O265 1.256 . S
C251 O266 1.259 . S
C251 O267 1.268 . S
C252 Ho241 2.811 . S
C252 C253 1.488 . S
C252 O268 1.215 . S
C252 O269 1.289 . S
C253 C252 1.488 . S
C253 C254 1.348 . S
C253 C258 1.413 . S
C254 C253 1.348 . S
C254 C255 1.442 . S
C254 H276 0.930 . S
C255 C254 1.442 . S
C255 C256 1.381 . S
C255 H277 0.931 . S
C256 C255 1.381 . S
C256 C257 1.321 . S
C257 C256 1.321 . S
C257 C258 1.403 . S
C257 H278 0.934 . S
C258 C253 1.413 . S
C258 C257 1.403 . S
C258 H279 0.930 . S
C259 O270 1.275 1_556 S
C259 O271 1.256 . S
O260 Ho240 2.322 . S
O260 C242 1.259 . S
O261 Ho241 2.346 1_556 S
O261 C242 1.268 . S
O262 Ho240 2.378 . S
O262 C243 1.215 . S
O263 Ho240 2.524 . S
O263 C243 1.289 . S
O264 Ho240 2.381 . S
O264 C250 1.275 1_556 S
O265 Ho240 2.669 1_554 S
O265 Ho241 2.305 . S
O265 C250 1.256 . S
O266 Ho241 2.322 . S
O266 C251 1.259 . S
O267 Ho240 2.346 1_554 S
O267 C251 1.268 . S
O268 Ho241 2.378 . S
O268 C252 1.215 . S
O269 Ho241 2.524 . S
O269 C252 1.289 . S
O270 Ho241 2.381 . S
O270 C259 1.275 1_554 S
O271 Ho240 2.305 . S
O271 Ho241 2.669 1_556 S
O271 C259 1.256 . S
H272 C245 0.930 . S
H273 C246 0.931 . S
H274 C248 0.934 . S
H275 C249 0.930 . S
H276 C254 0.930 . S
H277 C255 0.931 . S
H278 C257 0.934 . S
H279 C258 0.930 . S
Ho280 C283 2.811 1_455 S
Ho280 O300 2.322 1_455 S
Ho280 O302 2.378 1_455 S
Ho280 O303 2.524 . S
Ho280 O304 2.381 1_455 S
Ho280 O305 2.669 1_455 S
Ho280 O307 2.346 . S
Ho280 O311 2.305 . S
Ho281 C292 2.811 1_655 S
Ho281 O301 2.346 . S
Ho281 O305 2.305 . S
Ho281 O306 2.322 1_655 S
Ho281 O308 2.378 1_655 S
Ho281 O309 2.524 . S
Ho281 O310 2.381 1_655 S
Ho281 O311 2.669 1_655 S
C282 O300 1.259 . S
C282 O301 1.268 . S
C283 Ho280 2.811 1_655 S
C283 C284 1.488 . S
C283 O302 1.215 . S
C283 O303 1.289 1_655 S
C284 C283 1.488 . S
C284 C285 1.348 . S
C284 C289 1.413 . S
C285 C284 1.348 . S
C285 C286 1.442 . S
C285 H312 0.930 1_655 S
C286 C285 1.442 . S
C286 C287 1.381 . S
C286 H313 0.931 . S
C287 C286 1.381 . S
C287 C288 1.321 . S
C288 C287 1.321 . S
C288 C289 1.403 . S
C288 H314 0.934 . S
C289 C284 1.413 . S
C289 C288 1.403 . S
C289 H315 0.930 . S
C290 O304 1.275 . S
C290 O305 1.256 . S
C291 O306 1.259 . S
C291 O307 1.268 . S
C292 Ho281 2.811 1_455 S
C292 C293 1.488 . S
C292 O308 1.215 . S
C292 O309 1.289 1_455 S
C293 C292 1.488 . S
C293 C294 1.348 . S
C293 C298 1.413 . S
C294 C293 1.348 . S
C294 C295 1.442 . S
C294 H316 0.930 1_455 S
C295 C294 1.442 . S
C295 C296 1.381 . S
C295 H317 0.931 . S
C296 C295 1.381 . S
C296 C297 1.321 . S
C297 C296 1.321 . S
C297 C298 1.403 . S
C297 H318 0.934 . S
C298 C293 1.413 . S
C298 C297 1.403 . S
C298 H319 0.930 . S
C299 O310 1.275 . S
C299 O311 1.256 . S
O300 Ho280 2.322 1_655 S
O300 C282 1.259 . S
O301 Ho281 2.346 . S
O301 C282 1.268 . S
O302 Ho280 2.378 1_655 S
O302 C283 1.215 . S
O303 Ho280 2.524 . S
O303 C283 1.289 1_455 S
O304 Ho280 2.381 1_655 S
O304 C290 1.275 . S
O305 Ho280 2.669 1_655 S
O305 Ho281 2.305 . S
O305 C290 1.256 . S
O306 Ho281 2.322 1_455 S
O306 C291 1.259 . S
O307 Ho280 2.346 . S
O307 C291 1.268 . S
O308 Ho281 2.378 1_455 S
O308 C292 1.215 . S
O309 Ho281 2.524 . S
O309 C292 1.289 1_655 S
O310 Ho281 2.381 1_455 S
O310 C299 1.275 . S
O311 Ho280 2.305 . S
O311 Ho281 2.669 1_455 S
O311 C299 1.256 . S
H312 C285 0.930 1_455 S
H313 C286 0.931 . S
H314 C288 0.934 . S
H315 C289 0.930 . S
H316 C294 0.930 1_655 S
H317 C295 0.931 . S
H318 C297 0.934 . S
H319 C298 0.930 . S
C320 C321 1.363 . S
C320 C326 1.379 . S
C320 N328 1.356 . S
C321 C320 1.363 . S
C321 C327 1.363 . S
C322 C323 1.363 . S
C322 C327 1.379 . S
C322 N329 1.356 . S
C323 C322 1.363 . S
C323 C326 1.363 . S
N324 C326 1.356 . S
N324 H336 0.984 . S
N324 H337 0.985 . S
N325 C327 1.356 . S
N325 H330 0.984 . S
N325 H331 0.985 . S
C326 C320 1.379 . S
C326 C323 1.363 . S
C326 N324 1.356 . S
C327 C321 1.363 . S
C327 C322 1.379 . S
C327 N325 1.356 . S
N328 C320 1.356 . S
N328 H334 0.984 1_545 S
N328 H335 0.984 . S
N329 C322 1.356 . S
N329 H332 0.984 . S
N329 H333 0.985 . S
H330 N325 0.984 . S
H331 N325 0.985 . S
H332 N329 0.984 . S
H333 N329 0.985 . S
H334 N328 0.984 1_565 S
H335 N328 0.984 . S
H336 N324 0.984 . S
H337 N324 0.985 . S
C338 C339 1.363 . S
C338 C344 1.379 . S
C338 N346 1.356 . S
C339 C338 1.363 . S
C339 C345 1.363 . S
C340 C341 1.363 . S
C340 C345 1.379 . S
C340 N347 1.356 . S
C341 C340 1.363 . S
C341 C344 1.363 . S
N342 C344 1.356 . S
N342 H354 0.984 . S
N342 H355 0.985 . S
N343 C345 1.356 . S
N343 H348 0.984 . S
N343 H349 0.985 1_565 S
C344 C338 1.379 . S
C344 C341 1.363 . S
C344 N342 1.356 . S
C345 C339 1.363 . S
C345 C340 1.379 . S
C345 N343 1.356 . S
N346 C338 1.356 . S
N346 H352 0.984 . S
N346 H353 0.984 . S
N347 C340 1.356 . S
N347 H350 0.984 . S
N347 H351 0.985 . S
H348 N343 0.984 . S
H349 N343 0.985 1_545 S
H350 N347 0.984 . S
H351 N347 0.985 . S
H352 N346 0.984 . S
H353 N346 0.984 . S
H354 N342 0.984 . S
H355 N342 0.985 . S
C356 C357 1.363 . S
C356 C362 1.379 . S
C356 N364 1.356 . S
C357 C356 1.363 . S
C357 C363 1.363 . S
C358 C359 1.363 . S
C358 C363 1.379 . S
C358 N365 1.356 1_556 S
C359 C358 1.363 . S
C359 C362 1.363 . S
N360 C362 1.356 . S
N360 H372 0.984 . S
N360 H373 0.985 . S
N361 C363 1.356 . S
N361 H366 0.984 . S
N361 H367 0.985 . S
C362 C356 1.379 . S
C362 C359 1.363 . S
C362 N360 1.356 . S
C363 C357 1.363 . S
C363 C358 1.379 . S
C363 N361 1.356 . S
N364 C356 1.356 . S
N364 H370 0.984 . S
N364 H371 0.984 . S
N365 C358 1.356 1_554 S
N365 H368 0.984 . S
N365 H369 0.985 . S
H366 N361 0.984 . S
H367 N361 0.985 . S
H368 N365 0.984 . S
H369 N365 0.985 . S
H370 N364 0.984 . S
H371 N364 0.984 . S
H372 N360 0.984 . S
H373 N360 0.985 . S
C374 C375 1.363 . S
C374 C380 1.379 . S
C374 N382 1.356 . S
C375 C374 1.363 . S
C375 C381 1.363 . S
C376 C377 1.363 . S
C376 C381 1.379 . S
C376 N383 1.356 . S
C377 C376 1.363 . S
C377 C380 1.363 . S
N378 C380 1.356 . S
N378 H390 0.984 . S
N378 H391 0.985 . S
N379 C381 1.356 . S
N379 H384 0.984 . S
N379 H385 0.985 . S
C380 C374 1.379 . S
C380 C377 1.363 . S
C380 N378 1.356 . S
C381 C375 1.363 . S
C381 C376 1.379 . S
C381 N379 1.356 . S
N382 C374 1.356 . S
N382 H388 0.984 . S
N382 H389 0.984 . S
N383 C376 1.356 . S
N383 H386 0.984 . S
N383 H387 0.985 . S
H384 N379 0.984 . S
H385 N379 0.985 . S
H386 N383 0.984 . S
H387 N383 0.985 . S
H388 N382 0.984 . S
H389 N382 0.984 . S
H390 N378 0.984 . S
H391 N378 0.985 . S
C392 C393 1.363 . S
C392 C398 1.379 . S
C392 N400 1.356 . S
C393 C392 1.363 . S
C393 C399 1.363 . S
C394 C395 1.363 . S
C394 C399 1.379 . S
C394 N401 1.356 . S
C395 C394 1.363 . S
C395 C398 1.363 . S
N396 C398 1.356 . S
N396 H408 0.984 . S
N396 H409 0.985 . S
N397 C399 1.356 . S
N397 H402 0.984 . S
N397 H403 0.985 . S
C398 C392 1.379 . S
C398 C395 1.363 . S
C398 N396 1.356 . S
C399 C393 1.363 . S
C399 C394 1.379 . S
C399 N397 1.356 . S
N400 C392 1.356 . S
N400 H406 0.984 . S
N400 H407 0.984 . S
N401 C394 1.356 . S
N401 H404 0.984 . S
N401 H405 0.985 . S
H402 N397 0.984 . S
H403 N397 0.985 . S
H404 N401 0.984 . S
H405 N401 0.985 . S
H406 N400 0.984 . S
H407 N400 0.984 . S
H408 N396 0.984 . S
H409 N396 0.985 . S
C410 C411 1.363 . S
C410 C416 1.379 . S
C410 N418 1.356 . S
C411 C410 1.363 . S
C411 C417 1.363 . S
C412 C413 1.363 . S
C412 C417 1.379 . S
C412 N419 1.356 . S
C413 C412 1.363 . S
C413 C416 1.363 . S
N414 C416 1.356 . S
N414 H426 0.984 . S
N414 H427 0.985 . S
N415 C417 1.356 . S
N415 H420 0.984 . S
N415 H421 0.985 . S
C416 C410 1.379 . S
C416 C413 1.363 . S
C416 N414 1.356 . S
C417 C411 1.363 . S
C417 C412 1.379 . S
C417 N415 1.356 . S
N418 C410 1.356 . S
N418 H424 0.984 . S
N418 H425 0.984 . S
N419 C412 1.356 . S
N419 H422 0.984 . S
N419 H423 0.985 . S
H420 N415 0.984 . S
H421 N415 0.985 . S
H422 N419 0.984 . S
H423 N419 0.985 . S
H424 N418 0.984 . S
H425 N418 0.984 . S
H426 N414 0.984 . S
H427 N414 0.985 . S
C428 C429 1.363 . S
C428 C434 1.379 . S
C428 N436 1.356 . S
C429 C428 1.363 . S
C429 C435 1.363 . S
C430 C431 1.363 . S
C430 C435 1.379 . S
C430 N437 1.356 . S
C431 C430 1.363 . S
C431 C434 1.363 . S
N432 C434 1.356 . S
N432 H444 0.984 1_545 S
N432 H445 0.985 . S
N433 C435 1.356 . S
N433 H438 0.984 . S
N433 H439 0.985 . S
C434 C428 1.379 . S
C434 C431 1.363 . S
C434 N432 1.356 . S
C435 C429 1.363 . S
C435 C430 1.379 . S
C435 N433 1.356 . S
N436 C428 1.356 . S
N436 H442 0.984 . S
N436 H443 0.984 . S
N437 C430 1.356 . S
N437 H440 0.984 1_554 S
N437 H441 0.985 1_554 S
H438 N433 0.984 . S
H439 N433 0.985 . S
H440 N437 0.984 1_556 S
H441 N437 0.985 1_556 S
H442 N436 0.984 . S
H443 N436 0.984 . S
H444 N432 0.984 1_565 S
H445 N432 0.985 . S
C446 C447 1.363 . S
C446 C452 1.379 . S
C446 N454 1.356 . S
C447 C446 1.363 . S
C447 C453 1.363 . S
C448 C449 1.363 . S
C448 C453 1.379 . S
C448 N455 1.356 . S
C449 C448 1.363 . S
C449 C452 1.363 . S
N450 C452 1.356 . S
N450 H462 0.984 . S
N450 H463 0.985 . S
N451 C453 1.356 . S
N451 H456 0.984 . S
N451 H457 0.985 . S
C452 C446 1.379 . S
C452 C449 1.363 . S
C452 N450 1.356 . S
C453 C447 1.363 . S
C453 C448 1.379 . S
C453 N451 1.356 . S
N454 C446 1.356 . S
N454 H460 0.984 . S
N454 H461 0.984 . S
N455 C448 1.356 . S
N455 H458 0.984 1_556 S
N455 H459 0.985 1_556 S
H456 N451 0.984 . S
H457 N451 0.985 . S
H458 N455 0.984 1_554 S
H459 N455 0.985 1_554 S
H460 N454 0.984 . S
H461 N454 0.984 . S
H462 N450 0.984 . S
H463 N450 0.985 . S
C464 C465 1.363 . S
C464 C470 1.379 . S
C464 N472 1.356 . S
C465 C464 1.363 . S
C465 C471 1.363 . S
C466 C467 1.363 . S
C466 C471 1.379 . S
C466 N473 1.356 . S
C467 C466 1.363 . S
C467 C470 1.363 . S
N468 C470 1.356 . S
N468 H480 0.984 . S
N468 H481 0.985 . S
N469 C471 1.356 . S
N469 H474 0.984 . S
N469 H475 0.985 . S
C470 C464 1.379 . S
C470 C467 1.363 . S
C470 N468 1.356 . S
C471 C465 1.363 . S
C471 C466 1.379 . S
C471 N469 1.356 . S
N472 C464 1.356 . S
N472 H478 0.984 . S
N472 H479 0.984 . S
N473 C466 1.356 . S
N473 H476 0.984 . S
N473 H477 0.985 . S
H474 N469 0.984 . S
H475 N469 0.985 . S
H476 N473 0.984 . S
H477 N473 0.985 . S
H478 N472 0.984 . S
H479 N472 0.984 . S
H480 N468 0.984 . S
H481 N468 0.985 . S
C482 C483 1.363 . S
C482 C488 1.379 . S
C482 N490 1.356 . S
C483 C482 1.363 . S
C483 C489 1.363 . S
C484 C485 1.363 . S
C484 C489 1.379 . S
C484 N491 1.356 . S
C485 C484 1.363 . S
C485 C488 1.363 . S
N486 C488 1.356 . S
N486 H498 0.984 . S
N486 H499 0.985 . S
N487 C489 1.356 . S
N487 H492 0.984 . S
N487 H493 0.985 . S
C488 C482 1.379 . S
C488 C485 1.363 . S
C488 N486 1.356 . S
C489 C483 1.363 . S
C489 C484 1.379 . S
C489 N487 1.356 . S
N490 C482 1.356 . S
N490 H496 0.984 . S
N490 H497 0.984 . S
N491 C484 1.356 . S
N491 H494 0.984 1_554 S
N491 H495 0.985 1_554 S
H492 N487 0.984 . S
H493 N487 0.985 . S
H494 N491 0.984 1_556 S
H495 N491 0.985 1_556 S
H496 N490 0.984 . S
H497 N490 0.984 . S
H498 N486 0.984 . S
H499 N486 0.985 . S
C500 C501 1.363 . S
C500 C506 1.379 . S
C500 N508 1.356 . S
C501 C500 1.363 . S
C501 C507 1.363 . S
C502 C503 1.363 . S
C502 C507 1.379 . S
C502 N509 1.356 . S
C503 C502 1.363 . S
C503 C506 1.363 . S
N504 C506 1.356 . S
N504 H516 0.984 . S
N504 H517 0.985 . S
N505 C507 1.356 . S
N505 H510 0.984 . S
N505 H511 0.985 . S
C506 C500 1.379 . S
C506 C503 1.363 . S
C506 N504 1.356 . S
C507 C501 1.363 . S
C507 C502 1.379 . S
C507 N505 1.356 . S
N508 C500 1.356 . S
N508 H514 0.984 . S
N508 H515 0.984 . S
N509 C502 1.356 . S
N509 H512 0.984 . S
N509 H513 0.985 . S
H510 N505 0.984 . S
H511 N505 0.985 . S
H512 N509 0.984 . S
H513 N509 0.985 . S
H514 N508 0.984 . S
H515 N508 0.984 . S
H516 N504 0.984 . S
H517 N504 0.985 . S
C518 C519 1.363 . S
C518 C524 1.379 . S
C518 N526 1.356 . S
C519 C518 1.363 . S
C519 C525 1.363 . S
C520 C521 1.363 . S
C520 C525 1.379 . S
C520 N527 1.356 . S
C521 C520 1.363 . S
C521 C524 1.363 . S
N522 C524 1.356 . S
N522 H534 0.984 . S
N522 H535 0.985 . S
N523 C525 1.356 . S
N523 H528 0.984 . S
N523 H529 0.985 . S
C524 C518 1.379 . S
C524 C521 1.363 . S
C524 N522 1.356 . S
C525 C519 1.363 . S
C525 C520 1.379 . S
C525 N523 1.356 . S
N526 C518 1.356 . S
N526 H532 0.984 . S
N526 H533 0.984 . S
N527 C520 1.356 . S
N527 H530 0.984 . S
N527 H531 0.985 . S
H528 N523 0.984 . S
H529 N523 0.985 . S
H530 N527 0.984 . S
H531 N527 0.985 . S
H532 N526 0.984 . S
H533 N526 0.984 . S
H534 N522 0.984 . S
H535 N522 0.985 . S
C536 C537 1.363 . S
C536 C542 1.379 . S
C536 N544 1.356 . S
C537 C536 1.363 . S
C537 C543 1.363 . S
C538 C539 1.363 . S
C538 C543 1.379 . S
C538 N545 1.356 . S
C539 C538 1.363 . S
C539 C542 1.363 . S
N540 C542 1.356 . S
N540 H552 0.984 . S
N540 H553 0.985 . S
N541 C543 1.356 . S
N541 H546 0.984 . S
N541 H547 0.985 . S
C542 C536 1.379 . S
C542 C539 1.363 . S
C542 N540 1.356 . S
C543 C537 1.363 . S
C543 C538 1.379 . S
C543 N541 1.356 . S
N544 C536 1.356 . S
N544 H550 0.984 . S
N544 H551 0.984 . S
N545 C538 1.356 . S
N545 H548 0.984 . S
N545 H549 0.985 . S
H546 N541 0.984 . S
H547 N541 0.985 . S
H548 N545 0.984 . S
H549 N545 0.985 . S
H550 N544 0.984 . S
H551 N544 0.984 . S
H552 N540 0.984 . S
H553 N540 0.985 . S
C554 C555 1.363 . S
C554 C560 1.379 . S
C554 N562 1.356 . S
C555 C554 1.363 . S
C555 C561 1.363 . S
C556 C557 1.363 . S
C556 C561 1.379 . S
C556 N563 1.356 . S
C557 C556 1.363 . S
C557 C560 1.363 . S
N558 C560 1.356 . S
N558 H570 0.984 . S
N558 H571 0.985 . S
N559 C561 1.356 . S
N559 H564 0.984 . S
N559 H565 0.985 . S
C560 C554 1.379 . S
C560 C557 1.363 . S
C560 N558 1.356 . S
C561 C555 1.363 . S
C561 C556 1.379 . S
C561 N559 1.356 . S
N562 C554 1.356 . S
N562 H568 0.984 1_556 S
N562 H569 0.984 1_556 S
N563 C556 1.356 . S
N563 H566 0.984 . S
N563 H567 0.985 . S
H564 N559 0.984 . S
H565 N559 0.985 . S
H566 N563 0.984 . S
H567 N563 0.985 . S
H568 N562 0.984 1_554 S
H569 N562 0.984 1_554 S
H570 N558 0.984 . S
H571 N558 0.985 . S
C572 C573 1.363 . S
C572 C578 1.379 . S
C572 N580 1.356 . S
C573 C572 1.363 . S
C573 C579 1.363 . S
C574 C575 1.363 . S
C574 C579 1.379 . S
C574 N581 1.356 . S
C575 C574 1.363 . S
C575 C578 1.363 . S
N576 C578 1.356 . S
N576 H588 0.984 . S
N576 H589 0.985 . S
N577 C579 1.356 . S
N577 H582 0.984 . S
N577 H583 0.985 . S
C578 C572 1.379 . S
C578 C575 1.363 . S
C578 N576 1.356 . S
C579 C573 1.363 . S
C579 C574 1.379 . S
C579 N577 1.356 . S
N580 C572 1.356 . S
N580 H586 0.984 . S
N580 H587 0.984 . S
N581 C574 1.356 . S
N581 H584 0.984 . S
N581 H585 0.985 . S
H582 N577 0.984 . S
H583 N577 0.985 . S
H584 N581 0.984 . S
H585 N581 0.985 . S
H586 N580 0.984 . S
H587 N580 0.984 . S
H588 N576 0.984 . S
H589 N576 0.985 . S
C590 C591 1.363 . S
C590 C596 1.379 . S
C590 N598 1.356 . S
C591 C590 1.363 . S
C591 C597 1.363 . S
C592 C593 1.363 . S
C592 C597 1.379 . S
C592 N599 1.356 . S
C593 C592 1.363 . S
C593 C596 1.363 . S
N594 C596 1.356 . S
N594 H606 0.984 . S
N594 H607 0.985 . S
N595 C597 1.356 . S
N595 H600 0.984 . S
N595 H601 0.985 . S
C596 C590 1.379 . S
C596 C593 1.363 . S
C596 N594 1.356 . S
C597 C591 1.363 . S
C597 C592 1.379 . S
C597 N595 1.356 . S
N598 C590 1.356 . S
N598 H604 0.984 . S
N598 H605 0.984 . S
N599 C592 1.356 . S
N599 H602 0.984 . S
N599 H603 0.985 . S
H600 N595 0.984 . S
H601 N595 0.985 . S
H602 N599 0.984 . S
H603 N599 0.985 . S
H604 N598 0.984 . S
H605 N598 0.984 . S
H606 N594 0.984 . S
H607 N594 0.985 . S
C608 C609 1.363 1_455 S
C608 C614 1.379 1_556 S
C608 N616 1.356 . S
C609 C608 1.363 1_655 S
C609 C615 1.363 1_545 S
C610 C611 1.363 1_655 S
C610 C615 1.379 1_554 S
C610 N617 1.356 . S
C611 C610 1.363 1_455 S
C611 C614 1.363 1_565 S
N612 C614 1.356 . S
N612 H624 0.984 . S
N612 H625 0.985 . S
N613 C615 1.356 . S
N613 H618 0.984 . S
N613 H619 0.985 . S
C614 C608 1.379 1_554 S
C614 C611 1.363 1_545 S
C614 N612 1.356 . S
C615 C609 1.363 1_565 S
C615 C610 1.379 1_556 S
C615 N613 1.356 . S
N616 C608 1.356 . S
N616 H622 0.984 . S
N616 H623 0.984 1_455 S
N617 C610 1.356 . S
N617 H620 0.984 1_655 S
N617 H621 0.985 . S
H618 N613 0.984 . S
H619 N613 0.985 . S
H620 N617 0.984 1_455 S
H621 N617 0.985 . S
H622 N616 0.984 . S
H623 N616 0.984 1_655 S
H624 N612 0.984 . S
H625 N612 0.985 . S
C626 C627 1.363 . S
C626 C632 1.379 . S
C626 N634 1.356 . S
C627 C626 1.363 . S
C627 C633 1.363 . S
C628 C629 1.363 . S
C628 C633 1.379 . S
C628 N635 1.356 . S
C629 C628 1.363 . S
C629 C632 1.363 . S
N630 C632 1.356 . S
N630 H642 0.984 . S
N630 H643 0.985 . S
N631 C633 1.356 . S
N631 H636 0.984 . S
N631 H637 0.985 . S
C632 C626 1.379 . S
C632 C629 1.363 . S
C632 N630 1.356 . S
C633 C627 1.363 . S
C633 C628 1.379 . S
C633 N631 1.356 . S
N634 C626 1.356 . S
N634 H640 0.984 . S
N634 H641 0.984 . S
N635 C628 1.356 . S
N635 H638 0.984 . S
N635 H639 0.985 . S
H636 N631 0.984 . S
H637 N631 0.985 . S
H638 N635 0.984 . S
H639 N635 0.985 . S
H640 N634 0.984 . S
H641 N634 0.984 . S
H642 N630 0.984 . S
H643 N630 0.985 . S
C644 C645 1.363 1_565 S
C644 C650 1.379 . S
C644 N652 1.356 . S
C645 C644 1.363 1_545 S
C645 C651 1.363 . S
C646 C647 1.363 1_545 S
C646 C651 1.379 . S
C646 N653 1.356 . S
C647 C646 1.363 1_565 S
C647 C650 1.363 . S
N648 C650 1.356 . S
N648 H660 0.984 . S
N648 H661 0.985 . S
N649 C651 1.356 . S
N649 H654 0.984 . S
N649 H655 0.985 . S
C650 C644 1.379 . S
C650 C647 1.363 . S
C650 N648 1.356 . S
C651 C645 1.363 . S
C651 C646 1.379 . S
C651 N649 1.356 . S
N652 C644 1.356 . S
N652 H658 0.984 . S
N652 H659 0.984 . S
N653 C646 1.356 . S
N653 H656 0.984 . S
N653 H657 0.985 . S
H654 N649 0.984 . S
H655 N649 0.985 . S
H656 N653 0.984 . S
H657 N653 0.985 . S
H658 N652 0.984 . S
H659 N652 0.984 . S
H660 N648 0.984 . S
H661 N648 0.985 . S
C662 C663 1.363 . S
C662 C668 1.379 . S
C662 N670 1.356 . S
C663 C662 1.363 . S
C663 C669 1.363 . S
C664 C665 1.363 . S
C664 C669 1.379 . S
C664 N671 1.356 . S
C665 C664 1.363 . S
C665 C668 1.363 . S
N666 C668 1.356 . S
N666 H678 0.984 . S
N666 H679 0.985 . S
N667 C669 1.356 . S
N667 H672 0.984 . S
N667 H673 0.985 . S
C668 C662 1.379 . S
C668 C665 1.363 . S
C668 N666 1.356 . S
C669 C663 1.363 . S
C669 C664 1.379 . S
C669 N667 1.356 . S
N670 C662 1.356 . S
N670 H676 0.984 . S
N670 H677 0.984 . S
N671 C664 1.356 . S
N671 H674 0.984 . S
N671 H675 0.985 . S
H672 N667 0.984 . S
H673 N667 0.985 . S
H674 N671 0.984 . S
H675 N671 0.985 . S
H676 N670 0.984 . S
H677 N670 0.984 . S
H678 N666 0.984 . S
H679 N666 0.985 . S
C680 C681 1.363 . S
C680 C686 1.379 . S
C680 N688 1.356 . S
C681 C680 1.363 . S
C681 C687 1.363 . S
C682 C683 1.363 . S
C682 C687 1.379 . S
C682 N689 1.356 . S
C683 C682 1.363 . S
C683 C686 1.363 . S
N684 C686 1.356 . S
N684 H696 0.984 . S
N684 H697 0.985 . S
N685 C687 1.356 . S
N685 H690 0.984 . S
N685 H691 0.985 . S
C686 C680 1.379 . S
C686 C683 1.363 . S
C686 N684 1.356 . S
C687 C681 1.363 . S
C687 C682 1.379 . S
C687 N685 1.356 . S
N688 C680 1.356 . S
N688 H694 0.984 . S
N688 H695 0.984 . S
N689 C682 1.356 . S
N689 H692 0.984 . S
N689 H693 0.985 . S
H690 N685 0.984 . S
H691 N685 0.985 . S
H692 N689 0.984 . S
H693 N689 0.985 . S
H694 N688 0.984 . S
H695 N688 0.984 . S
H696 N684 0.984 . S
H697 N684 0.985 . S
C698 C699 1.363 . S
C698 C704 1.379 . S
C698 N706 1.356 . S
C699 C698 1.363 . S
C699 C705 1.363 . S
C700 C701 1.363 . S
C700 C705 1.379 . S
C700 N707 1.356 . S
C701 C700 1.363 . S
C701 C704 1.363 . S
N702 C704 1.356 . S
N702 H714 0.984 . S
N702 H715 0.985 . S
N703 C705 1.356 . S
N703 H708 0.984 . S
N703 H709 0.985 . S
C704 C698 1.379 . S
C704 C701 1.363 . S
C704 N702 1.356 . S
C705 C699 1.363 . S
C705 C700 1.379 . S
C705 N703 1.356 . S
N706 C698 1.356 . S
N706 H712 0.984 . S
N706 H713 0.984 . S
N707 C700 1.356 . S
N707 H710 0.984 . S
N707 H711 0.985 . S
H708 N703 0.984 . S
H709 N703 0.985 . S
H710 N707 0.984 . S
H711 N707 0.985 . S
H712 N706 0.984 . S
H713 N706 0.984 . S
H714 N702 0.984 . S
H715 N702 0.985 . S
C716 C717 1.363 . S
C716 C722 1.379 . S
C716 N724 1.356 . S
C717 C716 1.363 . S
C717 C723 1.363 . S
C718 C719 1.363 . S
C718 C723 1.379 . S
C718 N725 1.356 . S
C719 C718 1.363 . S
C719 C722 1.363 . S
N720 C722 1.356 . S
N720 H732 0.984 . S
N720 H733 0.985 . S
N721 C723 1.356 . S
N721 H726 0.984 . S
N721 H727 0.985 . S
C722 C716 1.379 . S
C722 C719 1.363 . S
C722 N720 1.356 . S
C723 C717 1.363 . S
C723 C718 1.379 . S
C723 N721 1.356 . S
N724 C716 1.356 . S
N724 H730 0.984 . S
N724 H731 0.984 . S
N725 C718 1.356 . S
N725 H728 0.984 . S
N725 H729 0.985 . S
H726 N721 0.984 . S
H727 N721 0.985 . S
H728 N725 0.984 . S
H729 N725 0.985 . S
H730 N724 0.984 . S
H731 N724 0.984 . S
H732 N720 0.984 . S
H733 N720 0.985 . S
C734 C735 1.363 . S
C734 C740 1.379 1_556 S
C734 N742 1.356 . S
C735 C734 1.363 . S
C735 C741 1.363 1_655 S
C736 C737 1.363 . S
C736 C741 1.379 1_554 S
C736 N743 1.356 . S
C737 C736 1.363 . S
C737 C740 1.363 1_455 S
N738 C740 1.356 . S
N738 H750 0.984 . S
N738 H751 0.985 . S
N739 C741 1.356 . S
N739 H744 0.984 . S
N739 H745 0.985 . S
C740 C734 1.379 1_554 S
C740 C737 1.363 1_655 S
C740 N738 1.356 . S
C741 C735 1.363 1_455 S
C741 C736 1.379 1_556 S
C741 N739 1.356 . S
N742 C734 1.356 . S
N742 H748 0.984 . S
N742 H749 0.984 . S
N743 C736 1.356 . S
N743 H746 0.984 . S
N743 H747 0.985 . S
H744 N739 0.984 . S
H745 N739 0.985 . S
H746 N743 0.984 . S
H747 N743 0.985 . S
H748 N742 0.984 . S
H749 N742 0.984 . S
H750 N738 0.984 . S
H751 N738 0.985 . S
C321 C2 1.565 . S
C323 C130 1.549 . S
C339 C10 1.042 . S
C341 C50 1.042 . S
C357 C42 1.565 . S
C359 C90 1.553 . S
C375 C82 1.979 . S
C377 C122 1.977 . S
C393 C11 1.565 . S
C395 C219 1.554 . S
C411 C19 1.042 . S
C413 C179 1.041 . S
C429 C171 1.565 . S
C431 C99 1.549 . S
C447 C211 1.979 . S
C449 C91 1.982 . S
C465 C242 1.565 . S
C467 C210 1.552 . S
C483 C170 1.042 . S
C485 C250 1.041 . S
C501 C290 1.551 . S
C503 C162 1.566 . S
C519 C202 1.979 . S
C521 C282 1.981 . S
C537 C139 1.551 . S
C539 C251 1.565 . S
C555 C259 1.042 . S
C557 C59 1.042 . S
C573 C51 1.565 . S
C575 C299 1.550 . S
C591 C131 1.979 . S
C593 C291 1.978 . S
C609 C16 1.519 . S
C611 C7 1.519 . S
C627 C56 1.519 . S
C629 C47 1.519 . S
C645 C96 1.909 . S
C647 C87 1.909 . S
C663 C127 1.909 . S
C665 C136 1.909 . S
C681 C176 1.519 . S
C683 C167 1.519 . S
C699 C207 1.909 . S
C701 C216 1.909 . S
C717 C247 1.519 . S
C719 C256 1.519 . S
C735 C287 1.909 . S
C737 C296 1.909 . S
