# Generated by pormake.
# Topology lcy-e, (6)-cn, num edge types: 1
# Building blocks:
#     Node 0, Type 0, BuildingBlock: MIFKUJ_clean_sbu_0, # of connection points: 6
#     Node 1, Type 0, BuildingBlock: MIFKUJ_clean_sbu_0, # of connection points: 6
#     Node 2, Type 0, BuildingBlock: MIFKUJ_clean_sbu_0, # of connection points: 6
#     Node 3, Type 0, BuildingBlock: MIFKUJ_clean_sbu_0, # of connection points: 6
#     Node 4, Type 0, BuildingBlock: MIFKUJ_clean_sbu_0, # of connection points: 6
#     Node 5, Type 0, BuildingBlock: MIFKUJ_clean_sbu_0, # of connection points: 6
#     Node 6, Type 0, BuildingBlock: MIFKUJ_clean_sbu_0, # of connection points: 6
#     Node 7, Type 0, BuildingBlock: MIFKUJ_clean_sbu_0, # of connection points: 6
#     Node 8, Type 0, BuildingBlock: MIFKUJ_clean_sbu_0, # of connection points: 6
#     Node 9, Type 0, BuildingBlock: MIFKUJ_clean_sbu_0, # of connection points: 6
#     Node 10, Type 0, BuildingBlock: MIFKUJ_clean_sbu_0, # of connection points: 6
#     Node 11, Type 0, BuildingBlock: MIFKUJ_clean_sbu_0, # of connection points: 6
#     Edge 12, Type (0, 0), BuildingBlock: TEMPAE_clean_linker_10, # of connection points: 2
#     Edge 13, Type (0, 0), BuildingBlock: TEMPAE_clean_linker_10, # of connection points: 2
#     Edge 14, Type (0, 0), BuildingBlock: TEMPAE_clean_linker_10, # of connection points: 2
#     Edge 15, Type (0, 0), BuildingBlock: TEMPAE_clean_linker_10, # of connection points: 2
#     Edge 16, Type (0, 0), BuildingBlock: TEMPAE_clean_linker_10, # of connection points: 2
#     Edge 17, Type (0, 0), BuildingBlock: TEMPAE_clean_linker_10, # of connection points: 2
#     Edge 18, Type (0, 0), BuildingBlock: TEMPAE_clean_linker_10, # of connection points: 2
#     Edge 19, Type (0, 0), BuildingBlock: TEMPAE_clean_linker_10, # of connection points: 2
#     Edge 20, Type (0, 0), BuildingBlock: TEMPAE_clean_linker_10, # of connection points: 2
#     Edge 21, Type (0, 0), BuildingBlock: TEMPAE_clean_linker_10, # of connection points: 2
#     Edge 22, Type (0, 0), BuildingBlock: TEMPAE_clean_linker_10, # of connection points: 2
#     Edge 23, Type (0, 0), BuildingBlock: TEMPAE_clean_linker_10, # of connection points: 2
#     Edge 24, Type (0, 0), BuildingBlock: TEMPAE_clean_linker_10, # of connection points: 2
#     Edge 25, Type (0, 0), BuildingBlock: TEMPAE_clean_linker_10, # of connection points: 2
#     Edge 26, Type (0, 0), BuildingBlock: TEMPAE_clean_linker_10, # of connection points: 2
#     Edge 27, Type (0, 0), BuildingBlock: TEMPAE_clean_linker_10, # of connection points: 2
#     Edge 28, Type (0, 0), BuildingBlock: TEMPAE_clean_linker_10, # of connection points: 2
#     Edge 29, Type (0, 0), BuildingBlock: TEMPAE_clean_linker_10, # of connection points: 2
#     Edge 30, Type (0, 0), BuildingBlock: TEMPAE_clean_linker_10, # of connection points: 2
#     Edge 31, Type (0, 0), BuildingBlock: TEMPAE_clean_linker_10, # of connection points: 2
#     Edge 32, Type (0, 0), BuildingBlock: TEMPAE_clean_linker_10, # of connection points: 2
#     Edge 33, Type (0, 0), BuildingBlock: TEMPAE_clean_linker_10, # of connection points: 2
#     Edge 34, Type (0, 0), BuildingBlock: TEMPAE_clean_linker_10, # of connection points: 2
#     Edge 35, Type (0, 0), BuildingBlock: TEMPAE_clean_linker_10, # of connection points: 2
#     Edge 36, Type (0, 0), BuildingBlock: TEMPAE_clean_linker_10, # of connection points: 2
#     Edge 37, Type (0, 0), BuildingBlock: TEMPAE_clean_linker_10, # of connection points: 2
#     Edge 38, Type (0, 0), BuildingBlock: TEMPAE_clean_linker_10, # of connection points: 2
#     Edge 39, Type (0, 0), BuildingBlock: TEMPAE_clean_linker_10, # of connection points: 2
#     Edge 40, Type (0, 0), BuildingBlock: TEMPAE_clean_linker_10, # of connection points: 2
#     Edge 41, Type (0, 0), BuildingBlock: TEMPAE_clean_linker_10, # of connection points: 2
#     Edge 42, Type (0, 0), BuildingBlock: TEMPAE_clean_linker_10, # of connection points: 2
#     Edge 43, Type (0, 0), BuildingBlock: TEMPAE_clean_linker_10, # of connection points: 2
#     Edge 44, Type (0, 0), BuildingBlock: TEMPAE_clean_linker_10, # of connection points: 2
#     Edge 45, Type (0, 0), BuildingBlock: TEMPAE_clean_linker_10, # of connection points: 2
#     Edge 46, Type (0, 0), BuildingBlock: TEMPAE_clean_linker_10, # of connection points: 2
#     Edge 47, Type (0, 0), BuildingBlock: TEMPAE_clean_linker_10, # of connection points: 2
# Relax obj value: 0.176
# Max RMSD: 0.282
# Mean RMSD: 0.239
data_MOF--net-lcy-e--node1-MIFKUJ_clean_sbu_0--edge1-TEMPAE_clean_linker_10
_symmetry_space_group_name_H-M    P1
_symmetry_Int_Tables_number       1
_symmetry_cell_setting            triclinic
loop_
_symmetry_equiv_pos_as_xyz
'x, y, z'
_cell_length_a     37.2024
_cell_length_b     40.240183
_cell_length_c     40.290504
_cell_angle_alpha  87.212711
_cell_angle_beta   88.649302
_cell_angle_gamma 88.418931
loop_
_atom_site_label
_atom_site_type_symbol
_atom_site_fract_x
_atom_site_fract_y
_atom_site_fract_z
_atom_type_partial_charge
Zn0 Zn 0.10296 0.24076 0.43318 0.0
Zn1 Zn 0.10355 0.1738 0.47483 0.0
C2 C 0.11935 0.291 0.47483 0.0
O3 O 0.08799 0.30054 0.46283 0.0
C4 C 0.07184 0.13618 0.42461 0.0
O5 O 0.10148 0.11805 0.42864 0.0
O6 O 0.09808 0.27419 0.39451 0.0
O7 O 0.13028 0.20244 0.41146 0.0
O8 O 0.15321 0.17842 0.45633 0.0
C9 C 0.12889 0.28279 0.3833 0.0
O10 O 0.15764 0.27008 0.39803 0.0
O11 O 0.13381 0.26384 0.4655 0.0
C12 C 0.07514 0.12396 0.51873 0.0
O13 O 0.04539 0.14076 0.51126 0.0
O14 O 0.10482 0.13383 0.50616 0.0
O15 O 0.0835 0.21084 0.50079 0.0
O16 O 0.05513 0.23519 0.45846 0.0
O17 O 0.06795 0.16288 0.44011 0.0
C18 C 0.15537 0.18532 0.42541 0.0
C19 C 0.0574 0.22869 0.48965 0.0
Zn20 Zn 0.9972 0.87136 0.67893 0.0
Zn21 Zn 0.05424 0.88196 0.73143 0.0
C22 C 0.93492 0.89488 0.70852 0.0
O23 O 0.92686 0.86459 0.70102 0.0
C24 C 0.10582 0.84133 0.69782 0.0
O25 O 0.12673 0.86589 0.70428 0.0
O26 O 0.9683 0.86121 0.63866 0.0
O27 O 0.04228 0.89323 0.66006 0.0
O28 O 0.05343 0.92327 0.70252 0.0
C29 C 0.95769 0.88798 0.62328 0.0
O30 O 0.96817 0.91663 0.63342 0.0
O31 O 0.96595 0.90568 0.70077 0.0
C32 C 0.08736 0.86578 0.79364 0.0
O33 O 0.06064 0.84506 0.79613 0.0
O34 O 0.08962 0.88572 0.76822 0.0
O35 O 0.00701 0.87052 0.75183 0.0
O36 O 0.99748 0.83338 0.71479 0.0
O37 O 0.0727 0.84333 0.70598 0.0
C38 C 0.05304 0.92009 0.67137 0.0
C39 C 0.99251 0.84389 0.74399 0.0
Zn40 Zn 0.35783 0.74534 0.93253 0.0
Zn41 Zn 0.36766 0.8291 0.96987 0.0
C42 C 0.34552 0.6759 0.94889 0.0
O43 O 0.36776 0.67159 0.92361 0.0
C44 C 0.40479 0.86491 0.91876 0.0
O45 O 0.37518 0.88327 0.92136 0.0
O46 O 0.3703 0.7306 0.88588 0.0
O47 O 0.31863 0.78118 0.92673 0.0
O48 O 0.3194 0.83058 0.94876 0.0
C49 C 0.34234 0.72238 0.87087 0.0
O50 O 0.31102 0.7248 0.88642 0.0
O51 O 0.33683 0.70517 0.95733 0.0
C52 C 0.40045 0.87599 0.00972 0.0
O53 O 0.42895 0.85864 0.00012 0.0
O54 O 0.36965 0.86781 0.00024 0.0
O55 O 0.37883 0.78805 0.99826 0.0
O56 O 0.40092 0.75548 0.95967 0.0
O57 O 0.40694 0.83742 0.93563 0.0
C58 C 0.30418 0.80965 0.93152 0.0
C59 C 0.3959 0.76177 0.99013 0.0
Zn60 Zn 0.43434 0.11558 0.2491 0.0
Zn61 Zn 0.48499 0.1161 0.18276 0.0
C62 C 0.47754 0.17327 0.2703 0.0
O63 O 0.46595 0.19159 0.24468 0.0
C64 C 0.4475 0.07924 0.13752 0.0
O65 O 0.45378 0.10681 0.11974 0.0
O66 O 0.39171 0.10873 0.28058 0.0
O67 O 0.41181 0.14266 0.21036 0.0
O68 O 0.45729 0.15867 0.178 0.0
C69 C 0.37859 0.13673 0.28906 0.0
O70 O 0.39371 0.16401 0.27704 0.0
O71 O 0.4672 0.14356 0.27495 0.0
C72 C 0.54724 0.09445 0.1487 0.0
O73 O 0.54278 0.06894 0.16988 0.0
O74 O 0.52562 0.11933 0.14996 0.0
O75 O 0.50776 0.10604 0.2263 0.0
O76 O 0.46481 0.07299 0.24428 0.0
O77 O 0.4566 0.07741 0.16783 0.0
C78 C 0.42492 0.16228 0.18783 0.0
C79 C 0.49786 0.08053 0.24339 0.0
Zn80 Zn 0.62381 0.30756 0.51034 0.0
Zn81 Zn 0.63638 0.27132 0.59511 0.0
C82 C 0.61665 0.27377 0.45014 0.0
O83 O 0.65066 0.28146 0.44655 0.0
C84 C 0.67156 0.33074 0.61252 0.0
O85 O 0.63852 0.3399 0.6208 0.0
O86 O 0.63556 0.35175 0.4871 0.0
O87 O 0.58585 0.31788 0.54573 0.0
O88 O 0.58872 0.29467 0.59664 0.0
C89 C 0.60675 0.36722 0.47832 0.0
O90 O 0.57585 0.35297 0.48485 0.0
O91 O 0.59927 0.28215 0.4761 0.0
C92 C 0.61308 0.22961 0.65262 0.0
O93 O 0.58052 0.23451 0.64111 0.0
O94 O 0.63965 0.24239 0.6368 0.0
O95 O 0.64302 0.24125 0.55727 0.0
O96 O 0.66742 0.27904 0.52329 0.0
O97 O 0.67686 0.30335 0.59842 0.0
C98 C 0.57295 0.31344 0.57507 0.0
C99 C 0.6604 0.24879 0.53064 0.0
Zn100 Zn 0.94963 0.37077 0.7459 0.0
Zn101 Zn 0.96199 0.39294 0.83616 0.0
C102 C 0.94064 0.33872 0.68302 0.0
O103 O 0.90627 0.33912 0.69134 0.0
C104 C 0.90249 0.42674 0.86512 0.0
O105 O 0.90304 0.39891 0.8836 0.0
O106 O 0.90482 0.39804 0.73468 0.0
O107 O 0.93865 0.33251 0.77835 0.0
O108 O 0.94374 0.34696 0.83057 0.0
C109 C 0.87507 0.39076 0.74902 0.0
O110 O 0.87559 0.37196 0.7766 0.0
O111 O 0.9631 0.34993 0.70271 0.0
C112 C 0.99322 0.41774 0.89332 0.0
O113 O 0.98736 0.44581 0.87601 0.0
O114 O 0.98426 0.39061 0.88131 0.0
O115 O 0.00305 0.40784 0.80643 0.0
O116 O 0.99381 0.39617 0.75418 0.0
O117 O 0.92315 0.42877 0.83952 0.0
C118 C 0.9363 0.32578 0.8095 0.0
C119 C 0.0128 0.40854 0.77601 0.0
Zn120 Zn 0.87244 0.70048 0.00707 0.0
Zn121 Zn 0.87451 0.74015 0.08724 0.0
C122 C 0.87252 0.73169 0.94236 0.0
O123 O 0.83868 0.72319 0.94491 0.0
C124 C 0.82509 0.6819 0.09136 0.0
O125 O 0.84736 0.66462 0.07272 0.0
O126 O 0.85528 0.65699 0.99038 0.0
O127 O 0.91324 0.68851 0.03811 0.0
O128 O 0.91979 0.71293 0.08573 0.0
C129 C 0.88181 0.63952 0.97974 0.0
O130 O 0.91427 0.65138 0.98111 0.0
O131 O 0.89314 0.72465 0.96658 0.0
C132 C 0.88464 0.79929 0.12713 0.0
O133 O 0.89743 0.81435 0.09987 0.0
O134 O 0.87525 0.76919 0.12653 0.0
O135 O 0.8656 0.76898 0.04645 0.0
O136 O 0.83332 0.73134 0.02402 0.0
O137 O 0.8323 0.7115 0.09798 0.0
C138 C 0.93045 0.69234 0.06449 0.0
C139 C 0.84344 0.76121 0.02483 0.0
Zn140 Zn 0.53436 0.62599 0.24391 0.0
Zn141 Zn 0.50216 0.6212 0.32861 0.0
C142 C 0.49678 0.62504 0.18291 0.0
O143 O 0.51578 0.59721 0.18085 0.0
C144 C 0.55986 0.58535 0.35915 0.0
O145 O 0.55866 0.61223 0.37645 0.0
O146 O 0.58011 0.61275 0.21954 0.0
O147 O 0.54749 0.66514 0.2712 0.0
O148 O 0.52551 0.66501 0.32294 0.0
C149 C 0.5889 0.63341 0.19606 0.0
O150 O 0.56869 0.66033 0.19068 0.0
O151 O 0.49943 0.64219 0.20841 0.0
C152 C 0.45901 0.59174 0.37858 0.0
O153 O 0.46317 0.56771 0.35775 0.0
O154 O 0.47352 0.61947 0.37138 0.0
O155 O 0.46767 0.61187 0.29324 0.0
O156 O 0.51162 0.58632 0.26709 0.0
O157 O 0.53927 0.5841 0.33453 0.0
C158 C 0.54354 0.67864 0.29908 0.0
C159 C 0.47815 0.59166 0.27169 0.0
Zn160 Zn 0.24207 0.43048 0.12777 0.0
Zn161 Zn 0.17925 0.47993 0.13357 0.0
C162 C 0.29962 0.46905 0.14443 0.0
O163 O 0.30921 0.46001 0.11455 0.0
C164 C 0.12699 0.44153 0.1036 0.0
O165 O 0.10893 0.44927 0.1307 0.0
O166 O 0.27361 0.38966 0.12121 0.0
O167 O 0.19843 0.41171 0.15297 0.0
O168 O 0.18315 0.45714 0.17826 0.0
C169 C 0.28501 0.37654 0.14848 0.0
O170 O 0.27599 0.39066 0.17632 0.0
O171 O 0.27025 0.45874 0.15746 0.0
C172 C 0.13528 0.53058 0.10781 0.0
O173 O 0.15196 0.51975 0.08119 0.0
O174 O 0.14209 0.51662 0.13599 0.0
O175 O 0.2225 0.50171 0.11388 0.0
O176 O 0.23832 0.45876 0.08449 0.0
O177 O 0.15968 0.4497 0.10036 0.0
C178 C 0.18464 0.42567 0.17806 0.0
C179 C 0.23672 0.49011 0.08781 0.0
Zn180 Zn 0.69794 0.01655 0.88467 0.0
Zn181 Zn 0.74839 0.07692 0.89304 0.0
C182 C 0.73582 0.95471 0.89255 0.0
O183 O 0.72938 0.95476 0.86063 0.0
C184 C 0.69035 0.11695 0.86512 0.0
O185 O 0.69639 0.13529 0.89042 0.0
O186 O 0.65262 0.99483 0.87106 0.0
O187 O 0.68028 0.0497 0.91859 0.0
O188 O 0.72941 0.06969 0.93869 0.0
C189 C 0.63479 0.98366 0.89635 0.0
O190 O 0.64762 0.98732 0.92603 0.0
O191 O 0.72508 0.97943 0.90903 0.0
C192 C 0.81455 0.11412 0.88509 0.0
O193 O 0.8303 0.08466 0.88289 0.0
O194 O 0.78081 0.11617 0.89065 0.0
O195 O 0.77536 0.03819 0.87597 0.0
O196 O 0.72992 0.02817 0.84444 0.0
O197 O 0.70841 0.09 0.8621 0.0
C198 C 0.69651 0.06272 0.94198 0.0
C199 C 0.76351 0.02648 0.84985 0.0
Zn200 Zn 0.77946 0.99283 0.38505 0.0
Zn201 Zn 0.74211 0.91402 0.37997 0.0
C202 C 0.74157 0.05461 0.39624 0.0
O203 O 0.74046 0.05539 0.36365 0.0
C204 C 0.80538 0.90339 0.33761 0.0
O205 O 0.81931 0.89057 0.36518 0.0
O206 O 0.82661 0.01263 0.36849 0.0
O207 O 0.79413 0.95508 0.4179 0.0
O208 O 0.77054 0.90525 0.4208 0.0
C209 C 0.8449 0.01924 0.39359 0.0
O210 O 0.83096 0.01294 0.42343 0.0
O211 O 0.75627 0.02954 0.41152 0.0
C212 C 0.68771 0.87764 0.35093 0.0
O213 O 0.68454 0.90601 0.33355 0.0
O214 O 0.71098 0.87473 0.37361 0.0
O215 O 0.70861 0.95375 0.38208 0.0
O216 O 0.7431 0.98505 0.34912 0.0
O217 O 0.77396 0.91662 0.33867 0.0
C218 C 0.79218 0.9259 0.43132 0.0
C219 C 0.7119 0.97632 0.35921 0.0
Zn220 Zn 0.29607 0.49308 0.63775 0.0
Zn221 Zn 0.25787 0.56414 0.63428 0.0
C222 C 0.24749 0.44487 0.62025 0.0
O223 O 0.25589 0.43461 0.65061 0.0
C224 C 0.3116 0.6013 0.66356 0.0
O225 O 0.3074 0.61882 0.63547 0.0
O226 O 0.33507 0.45794 0.64577 0.0
O227 O 0.32385 0.52909 0.61187 0.0
O228 O 0.27877 0.55741 0.58928 0.0
C229 C 0.34484 0.44321 0.61966 0.0
O230 O 0.32861 0.45111 0.59165 0.0
O231 O 0.26086 0.47172 0.60808 0.0
C232 C 0.21632 0.61604 0.65959 0.0
O233 O 0.22301 0.5975 0.68661 0.0
O234 O 0.22781 0.60614 0.63172 0.0
O235 O 0.22564 0.52931 0.6529 0.0
O236 O 0.26777 0.50117 0.6806 0.0
O237 O 0.2955 0.57386 0.6677 0.0
C238 C 0.3111 0.54688 0.58781 0.0
C239 C 0.23498 0.51055 0.67758 0.0
C240 C 0.17387 0.30785 0.50477 0.0
C241 C 0.13721 0.31228 0.49809 0.0
C242 C 0.19115 0.32942 0.52532 0.0
C243 C 0.1712 0.35583 0.53965 0.0
C244 C 0.13397 0.3598 0.5337 0.0
C245 C 0.11747 0.33806 0.51294 0.0
C246 C 0.23087 0.32427 0.53128 0.0
C247 C 0.11161 0.38731 0.54889 0.0
C248 C 0.20987 0.39506 0.61447 0.0
C249 C 0.22586 0.42355 0.59984 0.0
C250 C 0.19164 0.37302 0.59526 0.0
C251 C 0.18937 0.37957 0.56054 0.0
C252 C 0.20469 0.4087 0.54572 0.0
C253 C 0.22273 0.43038 0.56556 0.0
C254 C 0.17539 0.34241 0.61205 0.0
C255 C 0.20255 0.41667 0.5088 0.0
H256 H 0.18923 0.28797 0.49339 0.0
H257 H 0.08899 0.3414 0.50823 0.0
H258 H 0.24555 0.34654 0.52181 0.0
H259 H 0.23569 0.32116 0.55833 0.0
H260 H 0.24235 0.30214 0.51895 0.0
H261 H 0.08276 0.38638 0.54256 0.0
H262 H 0.11373 0.38562 0.57634 0.0
H263 H 0.12196 0.41185 0.54006 0.0
H264 H 0.21196 0.38968 0.64099 0.0
H265 H 0.23503 0.45231 0.55406 0.0
H266 H 0.18841 0.31972 0.6021 0.0
H267 H 0.14633 0.34167 0.60665 0.0
H268 H 0.1785 0.34149 0.63944 0.0
H269 H 0.21621 0.39655 0.49499 0.0
H270 H 0.21517 0.44065 0.50122 0.0
H271 H 0.17404 0.41794 0.50126 0.0
C272 C 0.82294 0.99909 0.8386 0.0
C273 C 0.78833 0.00823 0.82781 0.0
C274 C 0.84667 0.98076 0.81873 0.0
C275 C 0.83563 0.97174 0.78716 0.0
C276 C 0.80087 0.9811 0.77592 0.0
C277 C 0.77746 0.99914 0.79653 0.0
C278 C 0.88339 0.9707 0.83169 0.0
C279 C 0.78841 0.9719 0.74226 0.0
C280 C 0.90977 0.94949 0.72563 0.0
C281 C 0.90921 0.91472 0.72795 0.0
C282 C 0.88529 0.96848 0.74426 0.0
C283 C 0.86044 0.9521 0.76613 0.0
C284 C 0.8601 0.91693 0.76881 0.0
C285 C 0.88427 0.89863 0.7493 0.0
C286 C 0.88616 0.00598 0.74075 0.0
C287 C 0.83471 0.89866 0.79268 0.0
H288 H 0.83139 0.00579 0.8629 0.0
H289 H 0.75072 0.00618 0.78813 0.0
H290 H 0.88666 0.94318 0.83293 0.0
H291 H 0.90465 0.9806 0.81447 0.0
H292 H 0.88779 0.97985 0.85681 0.0
H293 H 0.7609 0.98185 0.73689 0.0
H294 H 0.80721 0.98158 0.72253 0.0
H295 H 0.78855 0.94442 0.74093 0.0
H296 H 0.92907 0.96182 0.70898 0.0
H297 H 0.88423 0.87166 0.75138 0.0
H298 H 0.89279 0.01617 0.76489 0.0
H299 H 0.85926 0.01632 0.73385 0.0
H300 H 0.90624 0.01478 0.72168 0.0
H301 H 0.83962 0.90555 0.81849 0.0
H302 H 0.83786 0.8712 0.79157 0.0
H303 H 0.80646 0.90603 0.78711 0.0
C304 C 0.33364 0.64361 0.00194 0.0
C305 C 0.33107 0.64675 0.96736 0.0
C306 C 0.3208 0.61536 0.0197 0.0
C307 C 0.30343 0.59065 0.0025 0.0
C308 C 0.30071 0.5939 0.9675 0.0
C309 C 0.31536 0.62165 0.95023 0.0
C310 C 0.32552 0.61207 0.05686 0.0
C311 C 0.28103 0.56888 0.94847 0.0
C312 C 0.28582 0.50705 0.0474 0.0
C313 C 0.25234 0.51363 0.06265 0.0
C314 C 0.303 0.53188 0.02755 0.0
C315 C 0.28527 0.56316 0.02156 0.0
C316 C 0.25046 0.56899 0.03526 0.0
C317 C 0.23497 0.54455 0.05643 0.0
C318 C 0.34078 0.52529 0.01457 0.0
C319 C 0.22992 0.60145 0.02847 0.0
H320 H 0.34627 0.66297 0.01498 0.0
H321 H 0.31346 0.62433 0.92341 0.0
H322 H 0.29889 0.61268 0.06981 0.0
H323 H 0.33884 0.58779 0.06379 0.0
H324 H 0.34178 0.6323 0.06603 0.0
H325 H 0.28244 0.57443 0.9212 0.0
H326 H 0.29233 0.54345 0.95379 0.0
H327 H 0.25233 0.56881 0.95664 0.0
H328 H 0.29942 0.48325 0.05243 0.0
H329 H 0.20932 0.54991 0.06847 0.0
H330 H 0.35949 0.5418 0.02658 0.0
H331 H 0.34269 0.53116 0.98743 0.0
H332 H 0.3499 0.49905 0.0196 0.0
H333 H 0.24304 0.62175 0.04091 0.0
H334 H 0.20153 0.60033 0.03758 0.0
H335 H 0.23013 0.6081 0.00141 0.0
C336 C 0.52892 0.02875 0.26627 0.0
C337 C 0.52429 0.06339 0.2653 0.0
C338 C 0.5584 0.01322 0.2826 0.0
C339 C 0.58292 0.03287 0.29902 0.0
C340 C 0.57697 0.06771 0.29962 0.0
C341 C 0.54814 0.08256 0.28222 0.0
C342 C 0.56434 0.97609 0.28085 0.0
C343 C 0.60167 0.08949 0.31776 0.0
C344 C 0.64651 0.99155 0.36184 0.0
C345 C 0.67918 0.99107 0.34371 0.0
C346 C 0.61492 0.00499 0.34762 0.0
C347 C 0.61584 0.01747 0.31419 0.0
C348 C 0.64867 0.01662 0.29561 0.0
C349 C 0.68009 0.00383 0.31076 0.0
C350 C 0.58074 0.00637 0.36853 0.0
C351 C 0.6506 0.02924 0.25971 0.0
H352 H 0.51076 0.01407 0.25269 0.0
H353 H 0.54464 0.10941 0.2812 0.0
H354 H 0.58963 0.97089 0.26664 0.0
H355 H 0.56747 0.96437 0.30614 0.0
H356 H 0.54187 0.96416 0.26866 0.0
H357 H 0.59213 0.11592 0.3172 0.0
H358 H 0.60388 0.08032 0.34407 0.0
H359 H 0.62908 0.08836 0.30637 0.0
H360 H 0.64576 0.98188 0.38743 0.0
H361 H 0.70523 0.00322 0.29661 0.0
H362 H 0.55925 0.99287 0.35667 0.0
H363 H 0.57118 0.0326 0.37028 0.0
H364 H 0.5845 0.99536 0.39408 0.0
H365 H 0.63042 0.01675 0.24514 0.0
H366 H 0.67765 0.02497 0.24817 0.0
H367 H 0.64404 0.05632 0.25793 0.0
C368 C 0.64956 0.19375 0.50746 0.0
C369 C 0.67026 0.22235 0.50759 0.0
C370 C 0.65935 0.1674 0.4873 0.0
C371 C 0.69107 0.16935 0.4673 0.0
C372 C 0.71156 0.19857 0.46661 0.0
C373 C 0.70069 0.22492 0.48657 0.0
C374 C 0.63624 0.13708 0.48809 0.0
C375 C 0.74566 0.20149 0.44575 0.0
C376 C 0.73748 0.08711 0.44765 0.0
C377 C 0.72779 0.08349 0.41463 0.0
C378 C 0.72602 0.11512 0.46487 0.0
C379 C 0.7039 0.13994 0.44886 0.0
C380 C 0.69355 0.13621 0.41569 0.0
C381 C 0.70584 0.10814 0.39888 0.0
C382 C 0.73772 0.11823 0.50021 0.0
C383 C 0.66948 0.16183 0.39798 0.0
H384 H 0.62566 0.19191 0.52328 0.0
H385 H 0.71669 0.24703 0.4866 0.0
H386 H 0.62913 0.13121 0.46247 0.0
H387 H 0.65147 0.11524 0.4989 0.0
H388 H 0.61102 0.14054 0.50298 0.0
H389 H 0.75758 0.22643 0.44672 0.0
H390 H 0.76575 0.1824 0.45466 0.0
H391 H 0.74026 0.19668 0.41948 0.0
H392 H 0.75459 0.06828 0.45991 0.0
H393 H 0.69811 0.10544 0.3734 0.0
H394 H 0.7138 0.11922 0.51714 0.0
H395 H 0.75215 0.14178 0.50231 0.0
H396 H 0.75561 0.09715 0.50881 0.0
H397 H 0.64394 0.16526 0.41233 0.0
H398 H 0.66305 0.15473 0.37253 0.0
H399 H 0.68271 0.18624 0.39617 0.0
C400 C 0.0612 0.4198 0.73317 0.0
C401 C 0.04784 0.42293 0.76576 0.0
C402 C 0.09418 0.43327 0.72286 0.0
C403 C 0.11427 0.45053 0.74561 0.0
C404 C 0.1014 0.45324 0.77872 0.0
C405 C 0.06832 0.43936 0.78844 0.0
C406 C 0.10708 0.42972 0.68731 0.0
C407 C 0.12212 0.47149 0.80362 0.0
C408 C 0.21061 0.4661 0.71701 0.0
C409 C 0.20654 0.49726 0.70026 0.0
C410 C 0.18112 0.45108 0.73358 0.0
C411 C 0.14715 0.46793 0.73363 0.0
C412 C 0.14374 0.50044 0.71887 0.0
C413 C 0.17342 0.51463 0.70227 0.0
C414 C 0.18577 0.41637 0.74907 0.0
C415 C 0.10814 0.51945 0.7187 0.0
H416 H 0.04582 0.40688 0.71552 0.0
H417 H 0.05833 0.44177 0.81373 0.0
H418 H 0.10802 0.45463 0.67428 0.0
H419 H 0.13477 0.41877 0.68667 0.0
H420 H 0.08938 0.41384 0.67335 0.0
H421 H 0.10988 0.46917 0.82901 0.0
H422 H 0.15032 0.46182 0.80452 0.0
H423 H 0.12303 0.49829 0.79582 0.0
H424 H 0.23621 0.45266 0.7156 0.0
H425 H 0.17032 0.53898 0.68976 0.0
H426 H 0.1725 0.3985 0.73352 0.0
H427 H 0.17274 0.41459 0.77412 0.0
H428 H 0.21457 0.40871 0.75123 0.0
H429 H 0.08924 0.50724 0.70254 0.0
H430 H 0.11093 0.54571 0.70937 0.0
H431 H 0.09588 0.51925 0.74407 0.0
C432 C 0.75089 0.92069 0.94389 0.0
C433 C 0.7538 0.92557 0.9093 0.0
C434 C 0.76644 0.89248 0.96013 0.0
C435 C 0.78584 0.86883 0.94135 0.0
C436 C 0.78943 0.87384 0.90643 0.0
C437 C 0.77308 0.9021 0.89074 0.0
C438 C 0.76188 0.88788 0.99743 0.0
C439 C 0.81039 0.84934 0.88573 0.0
C440 C 0.85045 0.81543 0.99324 0.0
C441 C 0.83031 0.78693 0.0004 0.0
C442 C 0.83719 0.84149 0.97228 0.0
C443 C 0.80268 0.8392 0.95871 0.0
C444 C 0.78293 0.80982 0.96459 0.0
C445 C 0.79715 0.78385 0.98523 0.0
C446 C 0.85946 0.87205 0.96582 0.0
C447 C 0.74599 0.80656 0.95059 0.0
H448 H 0.73586 0.93866 0.95829 0.0
H449 H 0.77559 0.9059 0.86397 0.0
H450 H 0.74892 0.86385 0.00396 0.0
H451 H 0.78858 0.88698 0.00917 0.0
H452 H 0.74531 0.90822 0.00825 0.0
H453 H 0.81279 0.85804 0.8592 0.0
H454 H 0.83777 0.84493 0.89562 0.0
H455 H 0.79696 0.82503 0.88714 0.0
H456 H 0.87644 0.81761 0.00445 0.0
H457 H 0.78164 0.76174 0.99061 0.0
H458 H 0.84635 0.89347 0.97807 0.0
H459 H 0.8612 0.87867 0.93878 0.0
H460 H 0.88715 0.86847 0.97533 0.0
H461 H 0.72698 0.8245 0.96227 0.0
H462 H 0.73553 0.7811 0.95506 0.0
H463 H 0.74648 0.81274 0.92346 0.0
C464 C 0.46042 0.54666 0.2355 0.0
C465 C 0.45186 0.5766 0.25052 0.0
C466 C 0.43485 0.53091 0.21714 0.0
C467 C 0.40023 0.5459 0.21317 0.0
C468 C 0.39199 0.57688 0.22707 0.0
C469 C 0.41781 0.59169 0.24595 0.0
C470 C 0.44453 0.49774 0.20286 0.0
C471 C 0.35576 0.59411 0.22244 0.0
C472 C 0.34545 0.5129 0.14439 0.0
C473 C 0.32314 0.49058 0.1623 0.0
C474 C 0.36968 0.53221 0.16075 0.0
C475 C 0.37224 0.52831 0.19571 0.0
C476 C 0.34918 0.50631 0.21395 0.0
C477 C 0.32452 0.48797 0.197 0.0
C478 C 0.39301 0.55622 0.14058 0.0
C479 C 0.35142 0.50127 0.25124 0.0
H480 H 0.48677 0.53499 0.23898 0.0
H481 H 0.41132 0.61514 0.25713 0.0
H482 H 0.42648 0.47841 0.21382 0.0
H483 H 0.44057 0.49905 0.17563 0.0
H484 H 0.47282 0.48974 0.2077 0.0
H485 H 0.35438 0.619 0.23324 0.0
H486 H 0.34978 0.59715 0.19559 0.0
H487 H 0.3344 0.57864 0.23438 0.0
H488 H 0.34398 0.51525 0.11752 0.0
H489 H 0.30729 0.47064 0.21079 0.0
H490 H 0.42161 0.54785 0.14205 0.0
H491 H 0.39087 0.58131 0.15083 0.0
H492 H 0.38554 0.55833 0.114 0.0
H493 H 0.37852 0.49117 0.25785 0.0
H494 H 0.33095 0.48389 0.26178 0.0
H495 H 0.34766 0.52544 0.26315 0.0
C496 C 0.50932 0.22106 0.29307 0.0
C497 C 0.5013 0.18718 0.29483 0.0
C498 C 0.5301 0.23466 0.31744 0.0
C499 C 0.54341 0.2138 0.34397 0.0
C500 C 0.53647 0.17938 0.34523 0.0
C501 C 0.51526 0.16656 0.32083 0.0
C502 C 0.5369 0.27153 0.31536 0.0
C503 C 0.55068 0.15623 0.37284 0.0
C504 C 0.61787 0.24558 0.39606 0.0
C505 C 0.59831 0.25713 0.42358 0.0
C506 C 0.60044 0.23114 0.37001 0.0
C507 C 0.5626 0.2283 0.37154 0.0
C508 C 0.5428 0.23944 0.3995 0.0
C509 C 0.56091 0.25363 0.42521 0.0
C510 C 0.62241 0.21931 0.34067 0.0
C511 C 0.5024 0.23672 0.40208 0.0
H512 H 0.49868 0.23715 0.27308 0.0
H513 H 0.50923 0.14033 0.32246 0.0
H514 H 0.52385 0.2834 0.33699 0.0
H515 H 0.56616 0.27589 0.31641 0.0
H516 H 0.52638 0.28399 0.29223 0.0
H517 H 0.5445 0.12981 0.3692 0.0
H518 H 0.58025 0.15833 0.37444 0.0
H519 H 0.53871 0.16341 0.39702 0.0
H520 H 0.64682 0.248 0.39473 0.0
H521 H 0.54559 0.26246 0.4464 0.0
H522 H 0.6143 0.23368 0.31774 0.0
H523 H 0.6172 0.19276 0.33687 0.0
H524 H 0.65173 0.22209 0.34387 0.0
H525 H 0.48977 0.25079 0.38084 0.0
H526 H 0.49103 0.24646 0.42555 0.0
H527 H 0.49487 0.21034 0.40079 0.0
C528 C 0.01504 0.27494 0.50641 0.0
C529 C 0.03239 0.24419 0.51378 0.0
C530 C 0.99621 0.29199 0.53138 0.0
C531 C 0.99432 0.27758 0.56417 0.0
C532 C 0.00982 0.24556 0.57107 0.0
C533 C 0.02879 0.22939 0.54587 0.0
C534 C 0.98018 0.32615 0.52311 0.0
C535 C 0.00806 0.22906 0.60555 0.0
C536 C 0.98913 0.32942 0.64019 0.0
C537 C 0.95336 0.32528 0.65109 0.0
C538 C 0.00222 0.31555 0.61086 0.0
C539 C 0.97909 0.29674 0.59212 0.0
C540 C 0.9426 0.29352 0.60227 0.0
C541 C 0.93012 0.30794 0.63161 0.0
C542 C 0.04123 0.31995 0.60065 0.0
C543 C 0.91714 0.27371 0.58292 0.0
H544 H 0.0177 0.28645 0.48162 0.0
H545 H 0.04176 0.20539 0.55158 0.0
H546 H 0.95254 0.32857 0.53381 0.0
H547 H 0.99663 0.34515 0.53422 0.0
H548 H 0.9793 0.33173 0.49586 0.0
H549 H 0.01873 0.20299 0.60609 0.0
H550 H 0.02398 0.2433 0.62267 0.0
H551 H 0.9799 0.22904 0.61525 0.0
H552 H 0.00717 0.34318 0.65482 0.0
H553 H 0.90237 0.30485 0.63972 0.0
H554 H 0.0435 0.32893 0.57423 0.0
H555 H 0.05592 0.2956 0.603 0.0
H556 H 0.05473 0.33779 0.61613 0.0
H557 H 0.91859 0.28149 0.55613 0.0
H558 H 0.88884 0.27658 0.59199 0.0
H559 H 0.92514 0.24694 0.58514 0.0
C560 C 0.96293 0.79294 0.76887 0.0
C561 C 0.96812 0.82726 0.76855 0.0
C562 C 0.9435 0.77692 0.79511 0.0
C563 C 0.92881 0.79586 0.82119 0.0
C564 C 0.93184 0.83085 0.81957 0.0
C565 C 0.95161 0.84606 0.79337 0.0
C566 C 0.94041 0.73959 0.79587 0.0
C567 C 0.9159 0.8521 0.8464 0.0
C568 C 0.86351 0.75777 0.88534 0.0
C569 C 0.8866 0.74844 0.91143 0.0
C570 C 0.87679 0.77301 0.8556 0.0
C571 C 0.91401 0.779 0.85196 0.0
C572 C 0.93736 0.7699 0.87833 0.0
C573 C 0.92338 0.75474 0.90772 0.0
C574 C 0.85108 0.78259 0.82809 0.0
C575 C 0.97716 0.77641 0.87561 0.0
H576 H 0.97548 0.77843 0.74958 0.0
H577 H 0.95484 0.87279 0.79275 0.0
H578 H 0.95711 0.72817 0.81608 0.0
H579 H 0.9122 0.73247 0.80127 0.0
H580 H 0.9495 0.72901 0.77203 0.0
H581 H 0.9182 0.87914 0.84 0.0
H582 H 0.8871 0.84664 0.85075 0.0
H583 H 0.92986 0.84619 0.87009 0.0
H584 H 0.835 0.75316 0.8881 0.0
H585 H 0.94138 0.74769 0.92778 0.0
H586 H 0.85887 0.76916 0.8055 0.0
H587 H 0.85252 0.80959 0.82141 0.0
H588 H 0.8228 0.7768 0.83512 0.0
H589 H 0.98925 0.76393 0.8539 0.0
H590 H 0.99171 0.76744 0.89822 0.0
H591 H 0.98141 0.8035 0.8715 0.0
C592 C 0.50258 0.64952 0.1257 0.0
C593 C 0.4804 0.6403 0.15292 0.0
C594 C 0.48849 0.66718 0.09788 0.0
C595 C 0.45111 0.67479 0.09694 0.0
C596 C 0.42832 0.66381 0.12379 0.0
C597 C 0.44342 0.64724 0.15187 0.0
C598 C 0.5139 0.67918 0.07035 0.0
C599 C 0.38824 0.67063 0.12364 0.0
C600 C 0.42083 0.75236 0.04675 0.0
C601 C 0.41106 0.73933 0.01671 0.0
C602 C 0.43408 0.73161 0.07288 0.0
C603 C 0.43663 0.69679 0.06931 0.0
C604 C 0.42632 0.68338 0.03919 0.0
C605 C 0.4143 0.70491 0.01296 0.0
C606 C 0.44555 0.74703 0.10426 0.0
C607 C 0.42737 0.64629 0.03495 0.0
H608 H 0.53128 0.64417 0.12684 0.0
H609 H 0.42639 0.63984 0.17303 0.0
H610 H 0.50514 0.67079 0.04609 0.0
H611 H 0.51347 0.7068 0.0687 0.0
H612 H 0.54202 0.67013 0.07438 0.0
H613 H 0.37375 0.65257 0.14047 0.0
H614 H 0.3824 0.69595 0.13242 0.0
H615 H 0.37751 0.6696 0.09827 0.0
H616 H 0.41851 0.77899 0.04969 0.0
H617 H 0.40648 0.69475 0.98987 0.0
H618 H 0.47383 0.73954 0.10967 0.0
H619 H 0.42862 0.73785 0.12562 0.0
H620 H 0.44333 0.77464 0.10249 0.0
H621 H 0.45533 0.63631 0.03724 0.0
H622 H 0.41708 0.63974 0.01051 0.0
H623 H 0.41098 0.63372 0.05496 0.0
C624 C 0.10405 0.31445 0.33328 0.0
C625 C 0.13319 0.30554 0.35361 0.0
C626 C 0.10893 0.33454 0.30406 0.0
C627 C 0.14367 0.34609 0.29527 0.0
C628 C 0.17296 0.33771 0.3161 0.0
C629 C 0.16737 0.3175 0.34491 0.0
C630 C 0.07716 0.3429 0.28229 0.0
C631 C 0.21038 0.34974 0.30775 0.0
C632 C 0.17178 0.37049 0.20657 0.0
C633 C 0.17108 0.40534 0.20708 0.0
C634 C 0.16125 0.35089 0.23469 0.0
C635 C 0.14998 0.3665 0.26405 0.0
C636 C 0.14804 0.40165 0.26437 0.0
C637 C 0.15853 0.42066 0.23584 0.0
C638 C 0.16354 0.31344 0.23336 0.0
C639 C 0.13639 0.41918 0.29528 0.0
H640 H 0.0776 0.3052 0.33983 0.0
H641 H 0.19002 0.3109 0.36057 0.0
H642 H 0.07379 0.37028 0.27843 0.0
H643 H 0.08201 0.33262 0.25747 0.0
H644 H 0.05173 0.3328 0.2931 0.0
H645 H 0.23002 0.34174 0.32709 0.0
H646 H 0.21993 0.34002 0.2837 0.0
H647 H 0.21003 0.3773 0.30489 0.0
H648 H 0.18123 0.35844 0.1844 0.0
H649 H 0.15778 0.44757 0.23643 0.0
H650 H 0.13791 0.30242 0.24244 0.0
H651 H 0.18504 0.30336 0.24994 0.0
H652 H 0.16956 0.30524 0.20784 0.0
H653 H 0.11045 0.40949 0.30519 0.0
H654 H 0.13336 0.44655 0.29062 0.0
H655 H 0.15662 0.41422 0.31484 0.0
C656 C 0.90467 0.91316 0.59478 0.0
C657 C 0.93147 0.88803 0.59643 0.0
C658 C 0.88085 0.91594 0.56835 0.0
C659 C 0.88461 0.89363 0.54234 0.0
C660 C 0.91117 0.86766 0.54422 0.0
C661 C 0.93405 0.86486 0.57163 0.0
C662 C 0.85235 0.94344 0.56782 0.0
C663 C 0.9165 0.84388 0.51659 0.0
C664 C 0.80624 0.892 0.48348 0.0
C665 C 0.8164 0.91594 0.45885 0.0
C666 C 0.82859 0.88374 0.51048 0.0
C667 C 0.8622 0.8992 0.51234 0.0
C668 C 0.87316 0.92236 0.48674 0.0
C669 C 0.84995 0.9307 0.46053 0.0
C670 C 0.81557 0.8596 0.5377 0.0
C671 C 0.90904 0.93898 0.4874 0.0
H672 H 0.90245 0.93088 0.61423 0.0
H673 H 0.95495 0.84556 0.57289 0.0
H674 H 0.85828 0.9619 0.54722 0.0
H675 H 0.8256 0.93321 0.56329 0.0
H676 H 0.8508 0.95659 0.59145 0.0
H677 H 0.93658 0.82374 0.52283 0.0
H678 H 0.89068 0.83247 0.51096 0.0
H679 H 0.9258 0.85775 0.49364 0.0
H680 H 0.78029 0.88056 0.48222 0.0
H681 H 0.8582 0.94877 0.4412 0.0
H682 H 0.81138 0.8728 0.56109 0.0
H683 H 0.83611 0.83956 0.54256 0.0
H684 H 0.78993 0.84809 0.5315 0.0
H685 H 0.90928 0.95573 0.50846 0.0
H686 H 0.91494 0.95391 0.46408 0.0
H687 H 0.93096 0.92003 0.49131 0.0
C688 C 0.32556 0.60113 0.72415 0.0
C689 C 0.32734 0.6169 0.69234 0.0
C690 C 0.33364 0.61827 0.75249 0.0
C691 C 0.34376 0.65197 0.74896 0.0
C692 C 0.3482 0.6672 0.71677 0.0
C693 C 0.33998 0.64947 0.68885 0.0
C694 C 0.32881 0.60102 0.78636 0.0
C695 C 0.35905 0.703 0.71185 0.0
C696 C 0.31292 0.70524 0.81983 0.0
C697 C 0.34439 0.70726 0.83805 0.0
C698 C 0.31273 0.68813 0.79037 0.0
C699 C 0.34482 0.67236 0.77882 0.0
C700 C 0.37703 0.6752 0.79646 0.0
C701 C 0.37647 0.69277 0.82589 0.0
C702 C 0.27785 0.68617 0.77212 0.0
C703 C 0.41173 0.65879 0.78486 0.0
H704 H 0.31602 0.57593 0.72714 0.0
H705 H 0.34171 0.66185 0.66439 0.0
H706 H 0.35225 0.60511 0.80203 0.0
H707 H 0.30466 0.6117 0.79906 0.0
H708 H 0.32534 0.57381 0.78481 0.0
H709 H 0.36658 0.70956 0.68555 0.0
H710 H 0.33625 0.71959 0.7193 0.0
H711 H 0.38203 0.70806 0.72775 0.0
H712 H 0.28808 0.71666 0.82891 0.0
H713 H 0.40084 0.69414 0.83993 0.0
H714 H 0.26964 0.65988 0.7719 0.0
H715 H 0.28151 0.69532 0.74587 0.0
H716 H 0.25565 0.70098 0.78366 0.0
H717 H 0.40917 0.63135 0.78668 0.0
H718 H 0.43495 0.66546 0.79981 0.0
H719 H 0.41744 0.66599 0.75837 0.0
C720 C 0.59578 0.0638 0.11809 0.0
C721 C 0.57412 0.09257 0.12131 0.0
C722 C 0.61835 0.06009 0.09012 0.0
C723 C 0.61918 0.08579 0.06489 0.0
C724 C 0.59872 0.11555 0.06874 0.0
C725 C 0.57641 0.1186 0.09697 0.0
C726 C 0.63998 0.02805 0.08683 0.0
C727 C 0.59906 0.14351 0.04234 0.0
C728 C 0.69381 0.08414 0.99927 0.0
C729 C 0.67666 0.06956 0.97318 0.0
C730 C 0.67541 0.08973 0.02934 0.0
C731 C 0.63912 0.08046 0.03329 0.0
C732 C 0.6216 0.06592 0.00701 0.0
C733 C 0.64057 0.06071 0.97725 0.0
C734 C 0.69482 0.10531 0.05693 0.0
C735 C 0.58285 0.05568 0.01039 0.0
H736 H 0.59429 0.04367 0.13691 0.0
H737 H 0.55989 0.141 0.09939 0.0
H738 H 0.6295 0.01413 0.06618 0.0
H739 H 0.66852 0.03339 0.08066 0.0
H740 H 0.63883 0.01183 0.10992 0.0
H741 H 0.58413 0.16609 0.05046 0.0
H742 H 0.6271 0.15025 0.03562 0.0
H743 H 0.58659 0.13521 0.01951 0.0
H744 H 0.7217 0.09104 0.99632 0.0
H745 H 0.62709 0.04943 0.95723 0.0
H746 H 0.69523 0.08808 0.07928 0.0
H747 H 0.68033 0.12843 0.06407 0.0
H748 H 0.72296 0.11144 0.04972 0.0
H749 H 0.57968 0.03719 0.03152 0.0
H750 H 0.57325 0.04464 0.98756 0.0
H751 H 0.5653 0.07757 0.01584 0.0
C752 C 0.65403 0.20638 0.69652 0.0
C753 C 0.61906 0.2106 0.68446 0.0
C754 C 0.66047 0.18955 0.72708 0.0
C755 C 0.63122 0.17647 0.74615 0.0
C756 C 0.59587 0.1802 0.73405 0.0
C757 C 0.59017 0.1973 0.70328 0.0
C758 C 0.69864 0.18605 0.7391 0.0
C759 C 0.56413 0.16645 0.75372 0.0
C760 C 0.66308 0.1109 0.80978 0.0
C761 C 0.66803 0.13016 0.83734 0.0
C762 C 0.64828 0.12507 0.78053 0.0
C763 C 0.63827 0.15928 0.77888 0.0
C764 C 0.64033 0.17809 0.80754 0.0
C765 C 0.65515 0.16326 0.83651 0.0
C766 C 0.64615 0.10408 0.75061 0.0
C767 C 0.6297 0.21459 0.80681 0.0
H768 H 0.67654 0.21652 0.68217 0.0
H769 H 0.56307 0.20044 0.69412 0.0
H770 H 0.70078 0.19809 0.76315 0.0
H771 H 0.70619 0.15935 0.74341 0.0
H772 H 0.71835 0.19745 0.72112 0.0
H773 H 0.53849 0.17051 0.74034 0.0
H774 H 0.56838 0.13937 0.75924 0.0
H775 H 0.56156 0.17845 0.7779 0.0
H776 H 0.67249 0.08514 0.81038 0.0
H777 H 0.65855 0.17822 0.85782 0.0
H778 H 0.66781 0.1111 0.73241 0.0
H779 H 0.62011 0.10853 0.73809 0.0
H780 H 0.64937 0.07708 0.75738 0.0
H781 H 0.65009 0.22899 0.7921 0.0
H782 H 0.6278 0.22432 0.83215 0.0
H783 H 0.60349 0.21907 0.7946 0.0
C784 C 0.12562 0.42773 0.0438 0.0
C785 C 0.10774 0.43006 0.07468 0.0
C786 C 0.10655 0.42249 0.01496 0.0
C787 C 0.06875 0.41937 0.0171 0.0
C788 C 0.05084 0.41971 0.04846 0.0
C789 C 0.07056 0.42506 0.0769 0.0
C790 C 0.12664 0.42216 0.98196 0.0
C791 C 0.01059 0.41622 0.05177 0.0
C792 C 0.01746 0.44805 0.94019 0.0
C793 C 0.01099 0.41781 0.92579 0.0
C794 C 0.03563 0.4488 0.97022 0.0
C795 C 0.04774 0.41856 0.98622 0.0
C796 C 0.04064 0.3879 0.97221 0.0
C797 C 0.02227 0.38788 0.94216 0.0
C798 C 0.0424 0.48202 0.98452 0.0
C799 C 0.053 0.3552 0.98867 0.0
H800 H 0.15435 0.43146 0.04183 0.0
H801 H 0.05654 0.42667 0.10068 0.0
H802 H 0.11956 0.40004 0.96833 0.0
H803 H 0.11867 0.44454 0.96639 0.0
H804 H 0.15627 0.42198 0.98487 0.0
H805 H 0.00132 0.41343 0.07814 0.0
H806 H 0.99696 0.43858 0.04015 0.0
H807 H 0.00196 0.39438 0.03849 0.0
H808 H 0.00854 0.47127 0.92787 0.0
H809 H 0.01729 0.36441 0.93121 0.0
H810 H 0.07178 0.48577 0.98564 0.0
H811 H 0.03135 0.48255 0.01031 0.0
H812 H 0.03013 0.50315 0.9696 0.0
H813 H 0.0828 0.35407 0.98953 0.0
H814 H 0.04396 0.33348 0.97537 0.0
H815 H 0.04265 0.35313 0.01471 0.0
C816 C 0.85716 0.88131 0.30366 0.0
C817 C 0.82286 0.89663 0.30508 0.0
C818 C 0.87132 0.86926 0.2738 0.0
C819 C 0.85052 0.87234 0.24478 0.0
C820 C 0.81701 0.88988 0.24554 0.0
C821 C 0.80367 0.90197 0.27564 0.0
C822 C 0.90745 0.85123 0.2739 0.0
C823 C 0.79393 0.89367 0.21518 0.0
C824 C 0.88969 0.85042 0.16009 0.0
C825 C 0.87809 0.81772 0.1578 0.0
C826 C 0.88171 0.8684 0.18857 0.0
C827 C 0.86132 0.85344 0.21511 0.0
C828 C 0.85003 0.8203 0.21308 0.0
C829 C 0.85871 0.80284 0.18461 0.0
C830 C 0.89457 0.90353 0.19007 0.0
C831 C 0.82802 0.80345 0.24072 0.0
H832 H 0.87238 0.87741 0.3262 0.0
H833 H 0.77722 0.91395 0.27641 0.0
H834 H 0.9035 0.82411 0.27249 0.0
H835 H 0.92402 0.85937 0.25189 0.0
H836 H 0.92254 0.8554 0.29673 0.0
H837 H 0.7708 0.9113 0.21873 0.0
H838 H 0.81007 0.90251 0.19318 0.0
H839 H 0.78331 0.86908 0.20965 0.0
H840 H 0.90477 0.86207 0.13955 0.0
H841 H 0.84955 0.77764 0.18312 0.0
H842 H 0.90982 0.90617 0.21309 0.0
H843 H 0.87114 0.92114 0.19095 0.0
H844 H 0.91199 0.91085 0.1683 0.0
H845 H 0.84274 0.80311 0.26436 0.0
H846 H 0.82167 0.77745 0.2354 0.0
H847 H 0.80237 0.81763 0.24455 0.0
C848 C 0.37029 0.54508 0.55699 0.0
C849 C 0.33395 0.55536 0.55822 0.0
C850 C 0.39184 0.55195 0.52857 0.0
C851 C 0.3766 0.56932 0.5007 0.0
C852 C 0.34011 0.58015 0.50193 0.0
C853 C 0.31925 0.57313 0.53071 0.0
C854 C 0.43074 0.54016 0.52818 0.0
C855 C 0.32287 0.59851 0.47256 0.0
C856 C 0.43724 0.60998 0.43427 0.0
C857 C 0.43815 0.58618 0.40995 0.0
C858 C 0.41766 0.60467 0.46418 0.0
C859 C 0.39837 0.575 0.46968 0.0
C860 C 0.39925 0.55088 0.44525 0.0
C861 C 0.41924 0.55672 0.41573 0.0
C862 C 0.41754 0.63079 0.48986 0.0
C863 C 0.37882 0.51902 0.45015 0.0
H864 H 0.38188 0.53138 0.57815 0.0
H865 H 0.2912 0.58115 0.53143 0.0
H866 H 0.4353 0.52185 0.50871 0.0
H867 H 0.44848 0.56138 0.5219 0.0
H868 H 0.43889 0.52833 0.55244 0.0
H869 H 0.29445 0.60608 0.47789 0.0
H870 H 0.33815 0.62109 0.46525 0.0
H871 H 0.32362 0.58245 0.45092 0.0
H872 H 0.45196 0.63273 0.43004 0.0
H873 H 0.4198 0.5382 0.39705 0.0
H874 H 0.42738 0.61965 0.5138 0.0
H875 H 0.38967 0.64028 0.49443 0.0
H876 H 0.43461 0.65214 0.48208 0.0
H877 H 0.38785 0.50496 0.47295 0.0
H878 H 0.38247 0.50273 0.42878 0.0
H879 H 0.34969 0.52485 0.45362 0.0
C880 C 0.21621 0.15741 0.42155 0.0
C881 C 0.18684 0.17339 0.40568 0.0
C882 C 0.24713 0.14781 0.40342 0.0
C883 C 0.24863 0.15413 0.36856 0.0
C884 C 0.21855 0.16907 0.35224 0.0
C885 C 0.18808 0.17866 0.371 0.0
C886 C 0.27879 0.13226 0.42176 0.0
C887 C 0.21905 0.17607 0.31506 0.0
C888 C 0.33887 0.16977 0.32617 0.0
C889 C 0.34647 0.13957 0.31117 0.0
C890 C 0.30753 0.17445 0.34546 0.0
C891 C 0.28286 0.14837 0.34963 0.0
C892 C 0.29061 0.11753 0.33511 0.0
C893 C 0.32255 0.11339 0.31616 0.0
C894 C 0.30056 0.20758 0.36088 0.0
C895 C 0.26473 0.0893 0.33886 0.0
H896 H 0.21547 0.15314 0.44832 0.0
H897 H 0.16543 0.19079 0.3585 0.0
H898 H 0.28816 0.10907 0.41009 0.0
H899 H 0.3015 0.14962 0.42022 0.0
H900 H 0.27222 0.12634 0.4484 0.0
H901 H 0.19234 0.18479 0.30582 0.0
H902 H 0.23888 0.19549 0.30828 0.0
H903 H 0.22758 0.15337 0.30209 0.0
H904 H 0.3574 0.19003 0.32267 0.0
H905 H 0.32826 0.09005 0.30449 0.0
H906 H 0.29596 0.20383 0.3881 0.0
H907 H 0.27587 0.21972 0.3505 0.0
H908 H 0.32322 0.22476 0.35641 0.0
H909 H 0.25878 0.08327 0.36555 0.0
H910 H 0.27538 0.06646 0.32722 0.0
H911 H 0.23889 0.09693 0.32717 0.0
C912 C 0.04137 0.08363 0.55581 0.0
C913 C 0.07398 0.0936 0.54084 0.0
C914 C 0.03977 0.05479 0.57669 0.0
C915 C 0.07153 0.03543 0.5826 0.0
C916 C 0.1045 0.04525 0.56747 0.0
C917 C 0.10536 0.0743 0.5468 0.0
C918 C 0.00412 0.04509 0.5925 0.0
C919 C 0.13884 0.02508 0.57312 0.0
C920 C 0.07075 0.97915 0.66074 0.0
C921 C 0.06155 0.94863 0.6483 0.0
C922 C 0.07504 0.00744 0.63948 0.0
C923 C 0.07014 0.00509 0.60497 0.0
C924 C 0.06218 0.97411 0.59207 0.0
C925 C 0.05795 0.94623 0.61392 0.0
C926 C 0.08352 0.04011 0.6541 0.0
C927 C 0.05692 0.97067 0.55536 0.0
H928 H 0.01702 0.0984 0.55131 0.0
H929 H 0.13064 0.08179 0.53521 0.0
H930 H 0.99711 0.01989 0.58518 0.0
H931 H 0.00607 0.04404 0.61997 0.0
H932 H 0.98192 0.06282 0.58528 0.0
H933 H 0.16219 0.03594 0.5592 0.0
H934 H 0.14492 0.02347 0.59998 0.0
H935 H 0.13553 0.99929 0.56535 0.0
H936 H 0.07364 0.98123 0.68726 0.0
H937 H 0.05086 0.92274 0.60408 0.0
H938 H 0.06076 0.05814 0.65004 0.0
H939 H 0.1076 0.05095 0.64144 0.0
H940 H 0.08847 0.03734 0.68119 0.0
H941 H 0.03288 0.98559 0.5473 0.0
H942 H 0.05325 0.94442 0.54909 0.0
H943 H 0.08036 0.98052 0.54088 0.0
C944 C 0.11274 0.84254 0.84705 0.0
C945 C 0.11668 0.8628 0.81793 0.0
C946 C 0.14168 0.83607 0.86834 0.0
C947 C 0.17547 0.84998 0.86016 0.0
C948 C 0.17917 0.87171 0.83163 0.0
C949 C 0.14967 0.87798 0.81092 0.0
C950 C 0.13654 0.81307 0.89872 0.0
C951 C 0.21481 0.8869 0.82197 0.0
C952 C 0.24968 0.84735 0.92382 0.0
C953 C 0.27016 0.81931 0.91464 0.0
C954 C 0.21842 0.85744 0.90668 0.0
C955 C 0.20769 0.83927 0.87953 0.0
C956 C 0.22811 0.81085 0.87033 0.0
C957 C 0.25895 0.80121 0.88803 0.0
C958 C 0.1971 0.88769 0.91739 0.0
C959 C 0.2178 0.7909 0.84134 0.0
H960 H 0.08724 0.83093 0.8528 0.0
H961 H 0.15296 0.89367 0.78847 0.0
H962 H 0.15187 0.7894 0.89528 0.0
H963 H 0.14716 0.82432 0.92097 0.0
H964 H 0.10782 0.80725 0.90355 0.0
H965 H 0.21246 0.90552 0.80079 0.0
H966 H 0.22605 0.89913 0.84337 0.0
H967 H 0.23433 0.86702 0.81481 0.0
H968 H 0.25812 0.8615 0.94435 0.0
H969 H 0.27481 0.77989 0.88035 0.0
H970 H 0.16875 0.88109 0.92294 0.0
H971 H 0.1968 0.90709 0.89687 0.0
H972 H 0.20831 0.89841 0.9397 0.0
H973 H 0.19018 0.78159 0.84536 0.0
H974 H 0.23644 0.76929 0.83757 0.0
H975 H 0.21776 0.80703 0.8182 0.0
C976 C 0.42667 0.05201 0.08715 0.0
C977 C 0.4347 0.04964 0.12108 0.0
C978 C 0.41854 0.02371 0.07001 0.0
C979 C 0.41828 0.99217 0.08715 0.0
C980 C 0.42492 0.98975 0.12169 0.0
C981 C 0.43307 0.01851 0.13825 0.0
C982 C 0.41164 0.02743 0.0332 0.0
C983 C 0.42475 0.95659 0.14088 0.0
C984 C 0.37465 0.92148 0.04451 0.0
C985 C 0.40467 0.9052 0.0303 0.0
C986 C 0.37866 0.94945 0.06362 0.0
C987 C 0.41346 0.96159 0.06839 0.0
C988 C 0.44382 0.94518 0.05417 0.0
C989 C 0.43907 0.91716 0.03546 0.0
C990 C 0.34564 0.96622 0.07842 0.0
C991 C 0.48138 0.9575 0.05829 0.0
H992 H 0.42772 0.07592 0.07363 0.0
H993 H 0.43922 0.0164 0.16444 0.0
H994 H 0.43334 0.01428 0.01925 0.0
H995 H 0.38594 0.01583 0.02751 0.0
H996 H 0.4105 0.0539 0.02398 0.0
H997 H 0.42754 0.95922 0.16802 0.0
H998 H 0.39945 0.94361 0.13666 0.0
H999 H 0.44729 0.94052 0.1319 0.0
H1000 H 0.34798 0.91237 0.04071 0.0
H1001 H 0.46244 0.90491 0.02445 0.0
H1002 H 0.34297 0.99218 0.06801 0.0
H1003 H 0.34833 0.96748 0.10569 0.0
H1004 H 0.32063 0.95302 0.07346 0.0
H1005 H 0.48336 0.98328 0.04747 0.0
H1006 H 0.5022 0.94162 0.0461 0.0
H1007 H 0.48743 0.95817 0.08508 0.0
C1008 C 0.84177 0.40939 0.69768 0.0
C1009 C 0.84159 0.39391 0.72969 0.0
C1010 C 0.81322 0.40552 0.67608 0.0
C1011 C 0.7841 0.38541 0.68665 0.0
C1012 C 0.78248 0.37195 0.71977 0.0
C1013 C 0.81108 0.37663 0.74097 0.0
C1014 C 0.81549 0.42105 0.64127 0.0
C1015 C 0.75191 0.35033 0.7321 0.0
C1016 C 0.69659 0.37854 0.64124 0.0
C1017 C 0.70227 0.34823 0.62583 0.0
C1018 C 0.72388 0.39232 0.65933 0.0
C1019 C 0.75741 0.37512 0.66244 0.0
C1020 C 0.76406 0.34569 0.64509 0.0
C1021 C 0.7365 0.33275 0.6268 0.0
C1022 C 0.71608 0.42423 0.67668 0.0
C1023 C 0.79949 0.32656 0.64772 0.0
H1024 H 0.86508 0.42305 0.68879 0.0
H1025 H 0.81049 0.36477 0.7657 0.0
H1026 H 0.82327 0.40161 0.62365 0.0
H1027 H 0.78901 0.43184 0.63365 0.0
H1028 H 0.83576 0.44084 0.63898 0.0
H1029 H 0.7532 0.34396 0.75919 0.0
H1030 H 0.72566 0.36301 0.72693 0.0
H1031 H 0.75283 0.32685 0.7187 0.0
H1032 H 0.67034 0.39089 0.64031 0.0
H1033 H 0.74122 0.30941 0.61487 0.0
H1034 H 0.73901 0.44123 0.67332 0.0
H1035 H 0.71236 0.41857 0.70374 0.0
H1036 H 0.69137 0.43733 0.66737 0.0
H1037 H 0.82223 0.34327 0.64187 0.0
H1038 H 0.80136 0.30559 0.63076 0.0
H1039 H 0.80275 0.31636 0.6736 0.0
C1040 C 0.87111 0.4565 0.91108 0.0
C1041 C 0.88637 0.45748 0.87884 0.0
C1042 C 0.8636 0.48587 0.92768 0.0
C1043 C 0.87131 0.51699 0.91158 0.0
C1044 C 0.8835 0.51825 0.87798 0.0
C1045 C 0.89094 0.48848 0.86201 0.0
C1046 C 0.85047 0.48335 0.96343 0.0
C1047 C 0.8916 0.55093 0.85973 0.0
C1048 C 0.84462 0.59867 0.95108 0.0
C1049 C 0.87723 0.60702 0.96489 0.0
C1050 C 0.84187 0.5691 0.93406 0.0
C1051 C 0.87234 0.54739 0.93121 0.0
C1052 C 0.90483 0.55517 0.94634 0.0
C1053 C 0.90689 0.5849 0.96279 0.0
C1054 C 0.80683 0.56164 0.91823 0.0
C1055 C 0.93784 0.53247 0.94449 0.0
H1056 H 0.86713 0.43271 0.92426 0.0
H1057 H 0.90237 0.48956 0.83699 0.0
H1058 H 0.87306 0.48809 0.97992 0.0
H1059 H 0.82901 0.50236 0.96806 0.0
H1060 H 0.83998 0.45834 0.97046 0.0
H1061 H 0.89555 0.54814 0.83258 0.0
H1062 H 0.86955 0.5695 0.8638 0.0
H1063 H 0.91652 0.56097 0.86954 0.0
H1064 H 0.82166 0.61576 0.95257 0.0
H1065 H 0.93206 0.59101 0.97377 0.0
H1066 H 0.79849 0.53606 0.92574 0.0
H1067 H 0.81044 0.56282 0.89079 0.0
H1068 H 0.78488 0.5795 0.92503 0.0
H1069 H 0.93135 0.50701 0.95417 0.0
H1070 H 0.96048 0.54143 0.95887 0.0
H1071 H 0.94696 0.53062 0.91821 0.0
C1072 C 0.77838 0.63777 0.09446 0.0
C1073 C 0.79178 0.66736 0.10571 0.0
C1074 C 0.74573 0.62519 0.10736 0.0
C1075 C 0.72639 0.64263 0.13206 0.0
C1076 C 0.74052 0.67186 0.14422 0.0
C1077 C 0.7729 0.68385 0.13086 0.0
C1078 C 0.73139 0.59398 0.09385 0.0
C1079 C 0.72091 0.69116 0.17072 0.0
C1080 C 0.62611 0.64618 0.14542 0.0
C1081 C 0.62249 0.62918 0.17644 0.0
C1082 C 0.65952 0.6478 0.12881 0.0
C1083 C 0.69008 0.6324 0.14388 0.0
C1084 C 0.68595 0.61267 0.17375 0.0
C1085 C 0.652 0.61116 0.18969 0.0
C1086 C 0.66259 0.66865 0.09673 0.0
C1087 C 0.71787 0.59574 0.19048 0.0
H1088 H 0.79293 0.62488 0.07509 0.0
H1089 H 0.78327 0.7065 0.14004 0.0
H1090 H 0.72282 0.57645 0.11445 0.0
H1091 H 0.70733 0.60041 0.07885 0.0
H1092 H 0.75162 0.58114 0.0779 0.0
H1093 H 0.7366 0.71234 0.17872 0.0
H1094 H 0.69483 0.70111 0.16115 0.0
H1095 H 0.71497 0.67455 0.19284 0.0
H1096 H 0.6031 0.65956 0.13477 0.0
H1097 H 0.64918 0.59777 0.21358 0.0
H1098 H 0.68009 0.65591 0.07837 0.0
H1099 H 0.67508 0.69261 0.10163 0.0
H1100 H 0.63592 0.67417 0.08559 0.0
H1101 H 0.73617 0.58408 0.172 0.0
H1102 H 0.70948 0.5764 0.2095 0.0
H1103 H 0.73334 0.61456 0.20294 0.0
C1104 C 0.63772 0.41226 0.44389 0.0
C1105 C 0.60697 0.40043 0.46091 0.0
C1106 C 0.63661 0.44295 0.42553 0.0
C1107 C 0.60413 0.4622 0.42461 0.0
C1108 C 0.57341 0.4507 0.44261 0.0
C1109 C 0.57519 0.41996 0.46035 0.0
C1110 C 0.6698 0.4544 0.40652 0.0
C1111 C 0.53835 0.47063 0.44277 0.0
C1112 C 0.59545 0.55456 0.40325 0.0
C1113 C 0.57874 0.55476 0.37237 0.0
C1114 C 0.60671 0.52457 0.41953 0.0
C1115 C 0.60131 0.49412 0.40447 0.0
C1116 C 0.5875 0.49442 0.37199 0.0
C1117 C 0.5763 0.52476 0.35633 0.0
C1118 C 0.62143 0.52539 0.45408 0.0
C1119 C 0.58174 0.46252 0.35486 0.0
H1120 H 0.66231 0.39717 0.4442 0.0
H1121 H 0.55143 0.41115 0.47378 0.0
H1122 H 0.66466 0.45539 0.37947 0.0
H1123 H 0.67639 0.47993 0.41315 0.0
H1124 H 0.69349 0.43761 0.41142 0.0
H1125 H 0.51736 0.45865 0.45897 0.0
H1126 H 0.5427 0.4959 0.45151 0.0
H1127 H 0.52805 0.47365 0.41714 0.0
H1128 H 0.59783 0.57764 0.41572 0.0
H1129 H 0.56382 0.52469 0.33229 0.0
H1130 H 0.64494 0.50804 0.45705 0.0
H1131 H 0.60046 0.51719 0.47251 0.0
H1132 H 0.62957 0.55076 0.45995 0.0
H1133 H 0.60556 0.44548 0.35747 0.0
H1134 H 0.57631 0.46712 0.32801 0.0
H1135 H 0.55841 0.44964 0.36674 0.0
C1136 C 0.32677 0.33661 0.17809 0.0
C1137 C 0.30693 0.34533 0.14968 0.0
C1138 C 0.34612 0.30631 0.181 0.0
C1139 C 0.3452 0.28389 0.15506 0.0
C1140 C 0.32564 0.2927 0.12606 0.0
C1141 C 0.30691 0.32353 0.12358 0.0
C1142 C 0.36715 0.29811 0.21212 0.0
C1143 C 0.32373 0.26921 0.09811 0.0
C1144 C 0.41976 0.21772 0.15713 0.0
C1145 C 0.40327 0.19162 0.17559 0.0
C1146 C 0.4007 0.24744 0.1489 0.0
C1147 C 0.36417 0.25098 0.15904 0.0
C1148 C 0.34683 0.22406 0.17604 0.0
C1149 C 0.36664 0.19476 0.18429 0.0
C1150 C 0.42024 0.27571 0.13106 0.0
C1151 C 0.30778 0.22675 0.18694 0.0
H1152 H 0.32711 0.3535 0.19823 0.0
H1153 H 0.29143 0.33012 0.10165 0.0
H1154 H 0.35602 0.27582 0.22554 0.0
H1155 H 0.39563 0.29208 0.20552 0.0
H1156 H 0.36641 0.31893 0.22928 0.0
H1157 H 0.30847 0.28026 0.07673 0.0
H1158 H 0.35121 0.26209 0.08927 0.0
H1159 H 0.31056 0.246 0.10727 0.0
H1160 H 0.44805 0.21554 0.15028 0.0
H1161 H 0.3536 0.17464 0.19833 0.0
H1162 H 0.4231 0.29619 0.14821 0.0
H1163 H 0.4046 0.28589 0.1096 0.0
H1164 H 0.44747 0.2679 0.122 0.0
H1165 H 0.30467 0.24473 0.20689 0.0
H1166 H 0.29728 0.20246 0.19653 0.0
H1167 H 0.29105 0.23629 0.16594 0.0
C1168 C 0.92235 0.28382 0.85568 0.0
C1169 C 0.92249 0.29307 0.82162 0.0
C1170 C 0.90713 0.25395 0.86775 0.0
C1171 C 0.89148 0.23294 0.84525 0.0
C1172 C 0.89231 0.24169 0.81079 0.0
C1173 C 0.9079 0.27159 0.79938 0.0
C1174 C 0.90695 0.24531 0.90464 0.0
C1175 C 0.87575 0.21997 0.78604 0.0
C1176 C 0.87205 0.14287 0.87032 0.0
C1177 C 0.83501 0.14474 0.87763 0.0
C1178 C 0.89105 0.17152 0.86051 0.0
C1179 C 0.8725 0.20268 0.85783 0.0
C1180 C 0.83533 0.20485 0.866 0.0
C1181 C 0.81707 0.17589 0.8759 0.0
C1182 C 0.93074 0.16832 0.85221 0.0
C1183 C 0.81459 0.23766 0.86339 0.0
H1184 H 0.93371 0.30014 0.87307 0.0
H1185 H 0.90781 0.2785 0.77304 0.0
H1186 H 0.87885 0.24524 0.9145 0.0
H1187 H 0.91865 0.21993 0.90953 0.0
H1188 H 0.9223 0.26318 0.91856 0.0
H1189 H 0.8801 0.22954 0.75997 0.0
H1190 H 0.88723 0.19427 0.78863 0.0
H1191 H 0.84637 0.21852 0.79112 0.0
H1192 H 0.88614 0.11892 0.87167 0.0
H1193 H 0.78845 0.17761 0.8815 0.0
H1194 H 0.94596 0.18577 0.86669 0.0
H1195 H 0.93559 0.17517 0.82551 0.0
H1196 H 0.94162 0.14265 0.85743 0.0
H1197 H 0.82734 0.25616 0.87856 0.0
H1198 H 0.78607 0.23528 0.87176 0.0
H1199 H 0.8152 0.24765 0.83723 0.0
C1200 C 0.07873 0.55909 0.12677 0.0
C1201 C 0.10794 0.55748 0.10433 0.0
C1202 C 0.05072 0.58266 0.12157 0.0
C1203 C 0.05263 0.60549 0.09374 0.0
C1204 C 0.08301 0.60497 0.07197 0.0
C1205 C 0.11014 0.58063 0.07731 0.0
C1206 C 0.01837 0.58212 0.14492 0.0
C1207 C 0.08633 0.6294 0.04246 0.0
C1208 C 0.96564 0.63967 0.05736 0.0
C1209 C 0.96239 0.67087 0.07132 0.0
C1210 C 0.99482 0.6181 0.06465 0.0
C1211 C 0.0217 0.62826 0.08597 0.0
C1212 C 0.01892 0.65995 0.09973 0.0
C1213 C 0.989 0.6808 0.09252 0.0
C1214 C 0.99658 0.58425 0.04989 0.0
C1215 C 0.04757 0.6718 0.12196 0.0
H1216 H 0.07701 0.54103 0.14757 0.0
H1217 H 0.133 0.57956 0.06015 0.0
H1218 H 0.01294 0.60717 0.15453 0.0
H1219 H 0.99426 0.57541 0.13125 0.0
H1220 H 0.02195 0.56399 0.16635 0.0
H1221 H 0.11326 0.62783 0.03004 0.0
H1222 H 0.0657 0.62439 0.02403 0.0
H1223 H 0.08138 0.6552 0.05031 0.0
H1224 H 0.94483 0.6317 0.04136 0.0
H1225 H 0.98657 0.70498 0.10323 0.0
H1226 H 0.99758 0.56447 0.07005 0.0
H1227 H 0.0215 0.58151 0.03449 0.0
H1228 H 0.97315 0.58005 0.03415 0.0
H1229 H 0.0498 0.65489 0.14443 0.0
H1230 H 0.04183 0.69749 0.12993 0.0
H1231 H 0.07409 0.67118 0.10879 0.0
C1232 C 0.63559 0.85435 0.32259 0.0
C1233 C 0.66526 0.8493 0.34328 0.0
C1234 C 0.61443 0.82769 0.31447 0.0
C1235 C 0.62343 0.79514 0.32702 0.0
C1236 C 0.65338 0.78987 0.34788 0.0
C1237 C 0.6738 0.81705 0.35594 0.0
C1238 C 0.58243 0.83436 0.29252 0.0
C1239 C 0.664 0.75546 0.36151 0.0
C1240 C 0.55323 0.72827 0.33261 0.0
C1241 C 0.56214 0.70994 0.30467 0.0
C1242 C 0.57236 0.75654 0.33968 0.0
C1243 C 0.60143 0.76654 0.31855 0.0
C1244 C 0.61013 0.74859 0.28995 0.0
C1245 C 0.59023 0.72062 0.28322 0.0
C1246 C 0.56192 0.77533 0.37015 0.0
C1247 C 0.64113 0.75834 0.26696 0.0
H1248 H 0.62873 0.87924 0.31282 0.0
H1249 H 0.6968 0.81294 0.37179 0.0
H1250 H 0.58572 0.8202 0.26966 0.0
H1251 H 0.55758 0.8257 0.30562 0.0
H1252 H 0.57874 0.8612 0.28521 0.0
H1253 H 0.68829 0.75552 0.37702 0.0
H1254 H 0.64156 0.74479 0.3768 0.0
H1255 H 0.66943 0.73875 0.34075 0.0
H1256 H 0.53143 0.72033 0.34921 0.0
H1257 H 0.59743 0.70655 0.26167 0.0
H1258 H 0.55696 0.80206 0.3632 0.0
H1259 H 0.58432 0.77381 0.38791 0.0
H1260 H 0.53745 0.76542 0.38301 0.0
H1261 H 0.6376 0.78463 0.25776 0.0
H1262 H 0.64376 0.74238 0.24525 0.0
H1263 H 0.66663 0.75641 0.28076 0.0
C1264 C 0.52893 0.36091 0.56753 0.0
C1265 C 0.5391 0.33098 0.58442 0.0
C1266 C 0.49715 0.37816 0.57634 0.0
C1267 C 0.47465 0.36476 0.60221 0.0
C1268 C 0.48474 0.33452 0.61933 0.0
C1269 C 0.51711 0.31816 0.61047 0.0
C1270 C 0.48762 0.41065 0.55785 0.0
C1271 C 0.46101 0.31913 0.64649 0.0
C1272 C 0.40574 0.42471 0.6391 0.0
C1273 C 0.3761 0.41998 0.61923 0.0
C1274 C 0.43787 0.40613 0.63459 0.0
C1275 C 0.43986 0.38187 0.61022 0.0
C1276 C 0.40917 0.37565 0.59163 0.0
C1277 C 0.37779 0.3951 0.59608 0.0
C1278 C 0.47024 0.41382 0.65449 0.0
C1279 C 0.40993 0.34946 0.56599 0.0
H1280 H 0.54611 0.37113 0.54769 0.0
H1281 H 0.52486 0.29495 0.6235 0.0
H1282 H 0.46219 0.40826 0.54444 0.0
H1283 H 0.48314 0.43061 0.57567 0.0
H1284 H 0.50893 0.41846 0.53954 0.0
H1285 H 0.4731 0.29584 0.65783 0.0
H1286 H 0.45582 0.33696 0.6663 0.0
H1287 H 0.43458 0.31339 0.63623 0.0
H1288 H 0.4045 0.44418 0.6568 0.0
H1289 H 0.35472 0.39132 0.58087 0.0
H1290 H 0.49115 0.42498 0.63766 0.0
H1291 H 0.48212 0.39065 0.66616 0.0
H1292 H 0.46349 0.43142 0.67425 0.0
H1293 H 0.42786 0.35724 0.5448 0.0
H1294 H 0.38279 0.3453 0.55629 0.0
H1295 H 0.42093 0.32551 0.57675 0.0
C1296 C 0.1908 0.669 0.63345 0.0
C1297 C 0.19838 0.64906 0.6621 0.0
C1298 C 0.17526 0.701 0.63582 0.0
C1299 C 0.16728 0.71324 0.66756 0.0
C1300 C 0.17466 0.69314 0.69653 0.0
C1301 C 0.19005 0.66127 0.69343 0.0
C1302 C 0.16775 0.72182 0.60444 0.0
C1303 C 0.16668 0.70543 0.73085 0.0
C1304 C 0.15867 0.80551 0.68167 0.0
C1305 C 0.12132 0.80988 0.68559 0.0
C1306 C 0.174 0.77441 0.67435 0.0
C1307 C 0.15137 0.74717 0.6708 0.0
C1308 C 0.11358 0.75184 0.67303 0.0
C1309 C 0.09898 0.78317 0.6804 0.0
C1310 C 0.21445 0.77034 0.67205 0.0
C1311 C 0.08861 0.72336 0.66929 0.0
H1312 H 0.19724 0.65971 0.60916 0.0
H1313 H 0.196 0.64609 0.7157 0.0
H1314 H 0.13883 0.72925 0.60372 0.0
H1315 H 0.18321 0.74503 0.60414 0.0
H1316 H 0.17497 0.70841 0.58166 0.0
H1317 H 0.17374 0.68653 0.75083 0.0
H1318 H 0.18201 0.72818 0.73452 0.0
H1319 H 0.13769 0.71224 0.73352 0.0
H1320 H 0.1761 0.82605 0.68552 0.0
H1321 H 0.07006 0.78641 0.68317 0.0
H1322 H 0.22271 0.758 0.64894 0.0
H1323 H 0.22405 0.75414 0.69328 0.0
H1324 H 0.22807 0.79454 0.6724 0.0
H1325 H 0.09533 0.71045 0.64615 0.0
H1326 H 0.05992 0.73177 0.66874 0.0
H1327 H 0.09205 0.70486 0.69039 0.0
C1328 C 0.47074 0.86205 0.9051 0.0
C1329 C 0.43766 0.87958 0.90343 0.0
C1330 C 0.50315 0.87817 0.89771 0.0
C1331 C 0.50238 0.9126 0.88856 0.0
C1332 C 0.46896 0.92963 0.88389 0.0
C1333 C 0.43697 0.91287 0.89128 0.0
C1334 C 0.53823 0.85899 0.90257 0.0
C1335 C 0.46694 0.9663 0.87405 0.0
C1336 C 0.57825 0.96135 0.92156 0.0
C1337 C 0.60038 0.96663 0.89325 0.0
C1338 C 0.54615 0.94423 0.92009 0.0
C1339 C 0.53592 0.93176 0.88954 0.0
C1340 C 0.55784 0.93732 0.86068 0.0
C1341 C 0.58984 0.95488 0.86284 0.0
C1342 C 0.52334 0.93924 0.95143 0.0
C1343 C 0.54779 0.92425 0.82777 0.0
H1344 H 0.47154 0.83621 0.91409 0.0
H1345 H 0.41153 0.92656 0.88954 0.0
H1346 H 0.55753 0.86497 0.88187 0.0
H1347 H 0.5505 0.86623 0.9259 0.0
H1348 H 0.53439 0.83167 0.90426 0.0
H1349 H 0.43958 0.97445 0.86604 0.0
H1350 H 0.47398 0.98079 0.89561 0.0
H1351 H 0.4865 0.97245 0.85362 0.0
H1352 H 0.58602 0.97063 0.9451 0.0
H1353 H 0.60691 0.95884 0.8409 0.0
H1354 H 0.52088 0.91226 0.95786 0.0
H1355 H 0.49578 0.94968 0.9474 0.0
H1356 H 0.53472 0.95121 0.97297 0.0
H1357 H 0.54725 0.89667 0.82979 0.0
H1358 H 0.56693 0.93183 0.80739 0.0
H1359 H 0.52038 0.93336 0.82103 0.0
C1360 C 0.90226 0.03413 0.41859 0.0
C1361 C 0.88062 0.0346 0.39052 0.0
C1362 C 0.93464 0.05101 0.41814 0.0
C1363 C 0.94592 0.06894 0.38881 0.0
C1364 C 0.92502 0.06844 0.35986 0.0
C1365 C 0.89251 0.05119 0.36103 0.0
C1366 C 0.95616 0.05053 0.44955 0.0
C1367 C 0.93638 0.08701 0.32808 0.0
C1368 C 0.00665 0.13815 0.41039 0.0
C1369 C 0.04065 0.12231 0.40822 0.0
C1370 C 0.97559 0.12205 0.40138 0.0
C1371 C 0.97861 0.08942 0.38972 0.0
C1372 C 0.01311 0.07461 0.38455 0.0
C1373 C 0.04374 0.09119 0.39395 0.0
C1374 C 0.93934 0.13884 0.40718 0.0
C1375 C 0.01758 0.04008 0.37172 0.0
H1376 H 0.89356 0.02093 0.44136 0.0
H1377 H 0.87591 0.05159 0.33926 0.0
H1378 H 0.98416 0.04165 0.44448 0.0
H1379 H 0.95748 0.07612 0.45845 0.0
H1380 H 0.94437 0.03425 0.4698 0.0
H1381 H 0.91965 0.08094 0.30683 0.0
H1382 H 0.93393 0.11419 0.33142 0.0
H1383 H 0.965 0.08118 0.32186 0.0
H1384 H 0.00396 0.16233 0.42106 0.0
H1385 H 0.06993 0.07891 0.39175 0.0
H1386 H 0.92583 0.12662 0.4292 0.0
H1387 H 0.92184 0.13628 0.3856 0.0
H1388 H 0.94168 0.16571 0.41168 0.0
H1389 H 0.0104 0.02147 0.39184 0.0
H1390 H 0.04569 0.0347 0.36326 0.0
H1391 H -0.00067 0.03683 0.35081 0.0
loop_
_geom_bond_atom_site_label_1
_geom_bond_atom_site_label_2
_geom_bond_distance
_geom_bond_site_symmetry_2
_ccdc_geom_bond_type
Zn0 O6 1.969 . S
Zn0 O7 1.965 . S
Zn0 O11 2.024 . S
Zn0 O16 1.969 . S
Zn1 O8 1.969 . S
Zn1 O14 1.969 . S
Zn1 O15 1.965 . S
Zn1 O17 2.024 . S
C2 O3 1.229 . S
C2 O11 1.058 . S
O3 C2 1.229 . S
C4 O5 1.229 . S
C4 O17 1.058 . S
O5 C4 1.229 . S
O6 Zn0 1.969 . S
O6 C9 1.267 . S
O7 Zn0 1.965 . S
O7 C18 1.260 . S
O8 Zn1 1.969 . S
O8 C18 1.258 . S
C9 O6 1.267 . S
C9 O10 1.228 . S
O10 C9 1.228 . S
O11 Zn0 2.024 . S
O11 C2 1.058 . S
C12 O13 1.228 . S
C12 O14 1.267 . S
O13 C12 1.228 . S
O14 Zn1 1.969 . S
O14 C12 1.267 . S
O15 Zn1 1.965 . S
O15 C19 1.260 . S
O16 Zn0 1.969 . S
O16 C19 1.258 . S
O17 Zn1 2.024 . S
O17 C4 1.058 . S
C18 O7 1.260 . S
C18 O8 1.258 . S
C19 O15 1.260 . S
C19 O16 1.258 . S
Zn20 O26 1.969 . S
Zn20 O27 1.965 1_655 S
Zn20 O31 2.024 . S
Zn20 O36 1.969 . S
Zn21 O28 1.969 . S
Zn21 O34 1.969 . S
Zn21 O35 1.965 . S
Zn21 O37 2.024 . S
C22 O23 1.229 . S
C22 O31 1.058 . S
O23 C22 1.229 . S
C24 O25 1.229 . S
C24 O37 1.058 . S
O25 C24 1.229 . S
O26 Zn20 1.969 . S
O26 C29 1.267 . S
O27 Zn20 1.965 1_455 S
O27 C38 1.260 . S
O28 Zn21 1.969 . S
O28 C38 1.258 . S
C29 O26 1.267 . S
C29 O30 1.228 . S
O30 C29 1.228 . S
O31 Zn20 2.024 . S
O31 C22 1.058 . S
C32 O33 1.228 . S
C32 O34 1.267 . S
O33 C32 1.228 . S
O34 Zn21 1.969 . S
O34 C32 1.267 . S
O35 Zn21 1.965 . S
O35 C39 1.260 . S
O36 Zn20 1.969 . S
O36 C39 1.258 1_655 S
O37 Zn21 2.024 . S
O37 C24 1.058 . S
C38 O27 1.260 . S
C38 O28 1.258 . S
C39 O35 1.260 . S
C39 O36 1.258 1_455 S
Zn40 O46 1.969 . S
Zn40 O47 1.965 . S
Zn40 O51 2.024 . S
Zn40 O56 1.969 . S
Zn41 O48 1.969 . S
Zn41 O54 1.969 . S
Zn41 O55 1.965 . S
Zn41 O57 2.024 . S
C42 O43 1.229 . S
C42 O51 1.058 . S
O43 C42 1.229 . S
C44 O45 1.229 . S
C44 O57 1.058 . S
O45 C44 1.229 . S
O46 Zn40 1.969 . S
O46 C49 1.267 . S
O47 Zn40 1.965 . S
O47 C58 1.260 . S
O48 Zn41 1.969 . S
O48 C58 1.258 . S
C49 O46 1.267 . S
C49 O50 1.228 . S
O50 C49 1.228 . S
O51 Zn40 2.024 . S
O51 C42 1.058 . S
C52 O53 1.228 . S
C52 O54 1.267 1_554 S
O53 C52 1.228 . S
O54 Zn41 1.969 . S
O54 C52 1.267 1_556 S
O55 Zn41 1.965 . S
O55 C59 1.260 . S
O56 Zn40 1.969 . S
O56 C59 1.258 . S
O57 Zn41 2.024 . S
O57 C44 1.058 . S
C58 O47 1.260 . S
C58 O48 1.258 . S
C59 O55 1.260 . S
C59 O56 1.258 . S
Zn60 O66 1.969 . S
Zn60 O67 1.965 . S
Zn60 O71 2.024 . S
Zn60 O76 1.969 . S
Zn61 O68 1.969 . S
Zn61 O74 1.969 . S
Zn61 O75 1.965 . S
Zn61 O77 2.024 . S
C62 O63 1.229 . S
C62 O71 1.058 . S
O63 C62 1.229 . S
C64 O65 1.229 . S
C64 O77 1.058 . S
O65 C64 1.229 . S
O66 Zn60 1.969 . S
O66 C69 1.267 . S
O67 Zn60 1.965 . S
O67 C78 1.260 . S
O68 Zn61 1.969 . S
O68 C78 1.258 . S
C69 O66 1.267 . S
C69 O70 1.228 . S
O70 C69 1.228 . S
O71 Zn60 2.024 . S
O71 C62 1.058 . S
C72 O73 1.228 . S
C72 O74 1.267 . S
O73 C72 1.228 . S
O74 Zn61 1.969 . S
O74 C72 1.267 . S
O75 Zn61 1.965 . S
O75 C79 1.260 . S
O76 Zn60 1.969 . S
O76 C79 1.258 . S
O77 Zn61 2.024 . S
O77 C64 1.058 . S
C78 O67 1.260 . S
C78 O68 1.258 . S
C79 O75 1.260 . S
C79 O76 1.258 . S
Zn80 O86 1.969 . S
Zn80 O87 1.965 . S
Zn80 O91 2.024 . S
Zn80 O96 1.969 . S
Zn81 O88 1.969 . S
Zn81 O94 1.969 . S
Zn81 O95 1.965 . S
Zn81 O97 2.024 . S
C82 O83 1.229 . S
C82 O91 1.058 . S
O83 C82 1.229 . S
C84 O85 1.229 . S
C84 O97 1.058 . S
O85 C84 1.229 . S
O86 Zn80 1.969 . S
O86 C89 1.267 . S
O87 Zn80 1.965 . S
O87 C98 1.260 . S
O88 Zn81 1.969 . S
O88 C98 1.258 . S
C89 O86 1.267 . S
C89 O90 1.228 . S
O90 C89 1.228 . S
O91 Zn80 2.024 . S
O91 C82 1.058 . S
C92 O93 1.228 . S
C92 O94 1.267 . S
O93 C92 1.228 . S
O94 Zn81 1.969 . S
O94 C92 1.267 . S
O95 Zn81 1.965 . S
O95 C99 1.260 . S
O96 Zn80 1.969 . S
O96 C99 1.258 . S
O97 Zn81 2.024 . S
O97 C84 1.058 . S
C98 O87 1.260 . S
C98 O88 1.258 . S
C99 O95 1.260 . S
C99 O96 1.258 . S
Zn100 O106 1.969 . S
Zn100 O107 1.965 . S
Zn100 O111 2.024 . S
Zn100 O116 1.969 . S
Zn101 O108 1.969 . S
Zn101 O114 1.969 1_655 S
Zn101 O115 1.965 1_655 S
Zn101 O117 2.024 . S
C102 O103 1.229 . S
C102 O111 1.058 . S
O103 C102 1.229 . S
C104 O105 1.229 . S
C104 O117 1.058 . S
O105 C104 1.229 . S
O106 Zn100 1.969 . S
O106 C109 1.267 . S
O107 Zn100 1.965 . S
O107 C118 1.260 . S
O108 Zn101 1.969 . S
O108 C118 1.258 . S
C109 O106 1.267 . S
C109 O110 1.228 . S
O110 C109 1.228 . S
O111 Zn100 2.024 . S
O111 C102 1.058 . S
C112 O113 1.228 . S
C112 O114 1.267 . S
O113 C112 1.228 . S
O114 Zn101 1.969 1_455 S
O114 C112 1.267 . S
O115 Zn101 1.965 1_455 S
O115 C119 1.260 . S
O116 Zn100 1.969 . S
O116 C119 1.258 1_655 S
O117 Zn101 2.024 . S
O117 C104 1.058 . S
C118 O107 1.260 . S
C118 O108 1.258 . S
C119 O115 1.260 . S
C119 O116 1.258 1_455 S
Zn120 O126 1.969 . S
Zn120 O127 1.965 1_556 S
Zn120 O131 2.024 . S
Zn120 O136 1.969 . S
Zn121 O128 1.969 . S
Zn121 O134 1.969 . S
Zn121 O135 1.965 . S
Zn121 O137 2.024 . S
C122 O123 1.229 . S
C122 O131 1.058 . S
O123 C122 1.229 . S
C124 O125 1.229 . S
C124 O137 1.058 . S
O125 C124 1.229 . S
O126 Zn120 1.969 . S
O126 C129 1.267 . S
O127 Zn120 1.965 1_554 S
O127 C138 1.260 . S
O128 Zn121 1.969 . S
O128 C138 1.258 . S
C129 O126 1.267 . S
C129 O130 1.228 . S
O130 C129 1.228 . S
O131 Zn120 2.024 . S
O131 C122 1.058 . S
C132 O133 1.228 . S
C132 O134 1.267 . S
O133 C132 1.228 . S
O134 Zn121 1.969 . S
O134 C132 1.267 . S
O135 Zn121 1.965 . S
O135 C139 1.260 . S
O136 Zn120 1.969 . S
O136 C139 1.258 1_556 S
O137 Zn121 2.024 . S
O137 C124 1.058 . S
C138 O127 1.260 . S
C138 O128 1.258 . S
C139 O135 1.260 . S
C139 O136 1.258 1_554 S
Zn140 O146 1.969 . S
Zn140 O147 1.965 . S
Zn140 O151 2.024 . S
Zn140 O156 1.969 . S
Zn141 O148 1.969 . S
Zn141 O154 1.969 . S
Zn141 O155 1.965 . S
Zn141 O157 2.024 . S
C142 O143 1.229 . S
C142 O151 1.058 . S
O143 C142 1.229 . S
C144 O145 1.229 . S
C144 O157 1.058 . S
O145 C144 1.229 . S
O146 Zn140 1.969 . S
O146 C149 1.267 . S
O147 Zn140 1.965 . S
O147 C158 1.260 . S
O148 Zn141 1.969 . S
O148 C158 1.258 . S
C149 O146 1.267 . S
C149 O150 1.228 . S
O150 C149 1.228 . S
O151 Zn140 2.024 . S
O151 C142 1.058 . S
C152 O153 1.228 . S
C152 O154 1.267 . S
O153 C152 1.228 . S
O154 Zn141 1.969 . S
O154 C152 1.267 . S
O155 Zn141 1.965 . S
O155 C159 1.260 . S
O156 Zn140 1.969 . S
O156 C159 1.258 . S
O157 Zn141 2.024 . S
O157 C144 1.058 . S
C158 O147 1.260 . S
C158 O148 1.258 . S
C159 O155 1.260 . S
C159 O156 1.258 . S
Zn160 O166 1.969 . S
Zn160 O167 1.965 . S
Zn160 O171 2.024 . S
Zn160 O176 1.969 . S
Zn161 O168 1.969 . S
Zn161 O174 1.969 . S
Zn161 O175 1.965 . S
Zn161 O177 2.024 . S
C162 O163 1.229 . S
C162 O171 1.058 . S
O163 C162 1.229 . S
C164 O165 1.229 . S
C164 O177 1.058 . S
O165 C164 1.229 . S
O166 Zn160 1.969 . S
O166 C169 1.267 . S
O167 Zn160 1.965 . S
O167 C178 1.260 . S
O168 Zn161 1.969 . S
O168 C178 1.258 . S
C169 O166 1.267 . S
C169 O170 1.228 . S
O170 C169 1.228 . S
O171 Zn160 2.024 . S
O171 C162 1.058 . S
C172 O173 1.228 . S
C172 O174 1.267 . S
O173 C172 1.228 . S
O174 Zn161 1.969 . S
O174 C172 1.267 . S
O175 Zn161 1.965 . S
O175 C179 1.260 . S
O176 Zn160 1.969 . S
O176 C179 1.258 . S
O177 Zn161 2.024 . S
O177 C164 1.058 . S
C178 O167 1.260 . S
C178 O168 1.258 . S
C179 O175 1.260 . S
C179 O176 1.258 . S
Zn180 O186 1.969 1_545 S
Zn180 O187 1.965 . S
Zn180 O191 2.023 1_545 S
Zn180 O196 1.969 . S
Zn181 O188 1.969 . S
Zn181 O194 1.969 . S
Zn181 O195 1.965 . S
Zn181 O197 2.024 . S
C182 O183 1.229 . S
C182 O191 1.066 . S
O183 C182 1.229 . S
C184 O185 1.229 . S
C184 O197 1.058 . S
O185 C184 1.229 . S
O186 Zn180 1.969 1_565 S
O186 C189 1.267 . S
O187 Zn180 1.965 . S
O187 C198 1.260 . S
O188 Zn181 1.969 . S
O188 C198 1.258 . S
C189 O186 1.267 . S
C189 O190 1.228 . S
O190 C189 1.228 . S
O191 Zn180 2.023 1_565 S
O191 C182 1.066 . S
C192 O193 1.228 . S
C192 O194 1.267 . S
O193 C192 1.228 . S
O194 Zn181 1.969 . S
O194 C192 1.267 . S
O195 Zn181 1.965 . S
O195 C199 1.260 . S
O196 Zn180 1.969 . S
O196 C199 1.258 . S
O197 Zn181 2.024 . S
O197 C184 1.058 . S
C198 O187 1.260 . S
C198 O188 1.258 . S
C199 O195 1.260 . S
C199 O196 1.258 . S
Zn200 O206 1.979 . S
Zn200 O207 1.950 1_545 S
Zn200 O211 2.025 . S
Zn200 O216 1.969 . S
Zn201 O208 1.969 . S
Zn201 O214 1.969 . S
Zn201 O215 1.965 . S
Zn201 O217 2.024 . S
C202 O203 1.229 . S
C202 O211 1.058 . S
O203 C202 1.229 . S
C204 O205 1.229 . S
C204 O217 1.058 . S
O205 C204 1.229 . S
O206 Zn200 1.979 . S
O206 C209 1.267 . S
O207 Zn200 1.950 1_565 S
O207 C218 1.260 . S
O208 Zn201 1.969 . S
O208 C218 1.258 . S
C209 O206 1.267 . S
C209 O210 1.228 . S
O210 C209 1.228 . S
O211 Zn200 2.025 . S
O211 C202 1.058 . S
C212 O213 1.228 . S
C212 O214 1.267 . S
O213 C212 1.228 . S
O214 Zn201 1.969 . S
O214 C212 1.267 . S
O215 Zn201 1.965 . S
O215 C219 1.260 . S
O216 Zn200 1.969 . S
O216 C219 1.258 1_545 S
O217 Zn201 2.024 . S
O217 C204 1.058 . S
C218 O207 1.260 . S
C218 O208 1.258 . S
C219 O215 1.260 . S
C219 O216 1.258 1_565 S
Zn220 O226 1.969 . S
Zn220 O227 1.965 . S
Zn220 O231 2.024 . S
Zn220 O236 1.969 . S
Zn221 O228 1.969 . S
Zn221 O234 1.969 . S
Zn221 O235 1.965 . S
Zn221 O237 2.024 . S
C222 O223 1.229 . S
C222 O231 1.058 . S
O223 C222 1.229 . S
C224 O225 1.229 . S
C224 O237 1.058 . S
O225 C224 1.229 . S
O226 Zn220 1.969 . S
O226 C229 1.267 . S
O227 Zn220 1.965 . S
O227 C238 1.260 . S
O228 Zn221 1.969 . S
O228 C238 1.258 . S
C229 O226 1.267 . S
C229 O230 1.228 . S
O230 C229 1.228 . S
O231 Zn220 2.024 . S
O231 C222 1.058 . S
C232 O233 1.228 . S
C232 O234 1.267 . S
O233 C232 1.228 . S
O234 Zn221 1.969 . S
O234 C232 1.267 . S
O235 Zn221 1.965 . S
O235 C239 1.260 . S
O236 Zn220 1.969 . S
O236 C239 1.258 . S
O237 Zn221 2.024 . S
O237 C224 1.058 . S
C238 O227 1.260 . S
C238 O228 1.258 . S
C239 O235 1.260 . S
C239 O236 1.258 . S
C240 C241 1.391 . S
C240 C242 1.394 . S
C240 H256 0.931 . S
C241 C240 1.391 . S
C241 C245 1.376 . S
C242 C240 1.394 . S
C242 C243 1.369 . S
C242 C246 1.531 . S
C243 C242 1.369 . S
C243 C244 1.410 . S
C243 C251 1.503 . S
C244 C243 1.410 . S
C244 C245 1.392 . S
C244 C247 1.511 . S
C245 C241 1.376 . S
C245 C244 1.392 . S
C245 H257 0.929 . S
C246 C242 1.531 . S
C246 H258 0.960 . S
C246 H259 0.962 . S
C246 H260 0.960 . S
C247 C244 1.511 . S
C247 H261 0.961 . S
C247 H262 0.961 . S
C247 H263 0.961 . S
C248 C249 1.370 . S
C248 C250 1.363 . S
C248 H264 0.931 . S
C249 C248 1.370 . S
C249 C253 1.408 . S
C250 C248 1.363 . S
C250 C251 1.370 . S
C250 C254 1.524 . S
C251 C243 1.503 . S
C251 C250 1.370 . S
C251 C252 1.403 . S
C252 C251 1.403 . S
C252 C253 1.404 . S
C252 C255 1.539 . S
C253 C249 1.408 . S
C253 C252 1.404 . S
C253 H265 0.930 . S
C254 C250 1.524 . S
C254 H266 0.956 . S
C254 H267 0.961 . S
C254 H268 0.961 . S
C255 C252 1.539 . S
C255 H269 0.958 . S
C255 H270 0.961 . S
C255 H271 0.960 . S
H256 C240 0.931 . S
H257 C245 0.929 . S
H258 C246 0.960 . S
H259 C246 0.962 . S
H260 C246 0.960 . S
H261 C247 0.961 . S
H262 C247 0.961 . S
H263 C247 0.961 . S
H264 C248 0.931 . S
H265 C253 0.930 . S
H266 C254 0.956 . S
H267 C254 0.961 . S
H268 C254 0.961 . S
H269 C255 0.958 . S
H270 C255 0.961 . S
H271 C255 0.960 . S
C272 C273 1.391 . S
C272 C274 1.394 . S
C272 H288 0.931 . S
C273 C272 1.391 . S
C273 C277 1.376 . S
C274 C272 1.394 . S
C274 C275 1.369 1_545 S
C274 C278 1.531 . S
C275 C274 1.369 1_565 S
C275 C276 1.410 . S
C275 C283 1.503 . S
C276 C275 1.410 . S
C276 C277 1.392 1_565 S
C276 C279 1.511 . S
C277 C273 1.376 . S
C277 C276 1.392 1_545 S
C277 H289 0.929 . S
C278 C274 1.531 . S
C278 H290 0.960 1_545 S
C278 H291 0.962 . S
C278 H292 0.961 . S
C279 C276 1.511 . S
C279 H293 0.961 . S
C279 H294 0.961 . S
C279 H295 0.961 . S
C280 C281 1.370 . S
C280 C282 1.357 1_565 S
C280 H296 0.931 1_565 S
C281 C280 1.370 . S
C281 C285 1.408 . S
C282 C280 1.357 1_545 S
C282 C283 1.357 1_545 S
C282 C286 1.545 . S
C283 C275 1.503 . S
C283 C282 1.357 1_565 S
C283 C284 1.403 . S
C284 C283 1.403 . S
C284 C285 1.404 . S
C284 C287 1.539 . S
C285 C281 1.408 . S
C285 C284 1.404 . S
C285 H297 0.930 . S
C286 C282 1.545 . S
C286 H298 0.956 . S
C286 H299 0.961 . S
C286 H300 0.961 . S
C287 C284 1.539 . S
C287 H301 0.958 . S
C287 H302 0.961 . S
C287 H303 0.960 . S
H288 C272 0.931 . S
H289 C277 0.929 . S
H290 C278 0.960 1_565 S
H291 C278 0.962 . S
H292 C278 0.961 . S
H293 C279 0.961 . S
H294 C279 0.961 . S
H295 C279 0.961 . S
H296 C280 0.931 1_545 S
H297 C285 0.930 . S
H298 C286 0.956 . S
H299 C286 0.961 . S
H300 C286 0.961 . S
H301 C287 0.958 . S
H302 C287 0.961 . S
H303 C287 0.960 . S
C304 C305 1.398 . S
C304 C306 1.394 . S
C304 H320 0.931 . S
C305 C304 1.398 . S
C305 C309 1.372 1_554 S
C306 C304 1.394 . S
C306 C307 1.369 . S
C306 C310 1.531 . S
C307 C306 1.369 . S
C307 C308 1.410 1_554 S
C307 C315 1.503 . S
C308 C307 1.410 1_556 S
C308 C309 1.392 . S
C308 C311 1.511 . S
C309 C305 1.372 1_556 S
C309 C308 1.392 . S
C309 H321 0.929 . S
C310 C306 1.531 . S
C310 H322 0.960 . S
C310 H323 0.962 . S
C310 H324 0.960 . S
C311 C308 1.511 . S
C311 H325 0.961 . S
C311 H326 0.961 . S
C311 H327 0.961 . S
C312 C313 1.370 . S
C312 C314 1.363 . S
C312 H328 0.931 . S
C313 C312 1.370 . S
C313 C317 1.408 . S
C314 C312 1.363 . S
C314 C315 1.370 . S
C314 C318 1.524 . S
C315 C307 1.503 . S
C315 C314 1.370 . S
C315 C316 1.403 . S
C316 C315 1.403 . S
C316 C317 1.404 . S
C316 C319 1.539 . S
C317 C313 1.408 . S
C317 C316 1.404 . S
C317 H329 0.930 . S
C318 C314 1.524 . S
C318 H330 0.956 . S
C318 H331 0.961 . S
C318 H332 0.961 . S
C319 C316 1.539 . S
C319 H333 0.958 . S
C319 H334 0.961 . S
C319 H335 0.960 . S
H320 C304 0.931 . S
H321 C309 0.929 . S
H322 C310 0.960 . S
H323 C310 0.962 . S
H324 C310 0.960 . S
H325 C311 0.961 . S
H326 C311 0.961 . S
H327 C311 0.961 . S
H328 C312 0.931 . S
H329 C317 0.930 . S
H330 C318 0.956 . S
H331 C318 0.961 . S
H332 C318 0.961 . S
H333 C319 0.958 . S
H334 C319 0.961 . S
H335 C319 0.960 . S
C336 C337 1.391 . S
C336 C338 1.394 . S
C336 H352 0.931 . S
C337 C336 1.391 . S
C337 C341 1.376 . S
C338 C336 1.394 . S
C338 C339 1.369 . S
C338 C342 1.531 . S
C339 C338 1.369 . S
C339 C340 1.410 . S
C339 C347 1.503 . S
C340 C339 1.410 . S
C340 C341 1.392 . S
C340 C343 1.511 . S
C341 C337 1.376 . S
C341 C340 1.392 . S
C341 H353 0.929 . S
C342 C338 1.531 . S
C342 H354 0.960 1_545 S
C342 H355 0.962 . S
C342 H356 0.960 1_545 S
C343 C340 1.511 . S
C343 H357 0.961 . S
C343 H358 0.961 . S
C343 H359 0.961 . S
C344 C345 1.370 1_545 S
C344 C346 1.363 . S
C344 H360 0.931 . S
C345 C344 1.370 1_565 S
C345 C349 1.408 . S
C346 C344 1.363 . S
C346 C347 1.370 . S
C346 C350 1.524 . S
C347 C339 1.503 . S
C347 C346 1.370 . S
C347 C348 1.403 1_545 S
C348 C347 1.403 1_565 S
C348 C349 1.404 . S
C348 C351 1.539 . S
C349 C345 1.408 . S
C349 C348 1.404 . S
C349 H361 0.930 . S
C350 C346 1.524 . S
C350 H362 0.956 . S
C350 H363 0.961 . S
C350 H364 0.961 . S
C351 C348 1.539 . S
C351 H365 0.958 . S
C351 H366 0.961 . S
C351 H367 0.960 . S
H352 C336 0.931 . S
H353 C341 0.929 . S
H354 C342 0.960 1_565 S
H355 C342 0.962 . S
H356 C342 0.960 1_565 S
H357 C343 0.961 . S
H358 C343 0.961 . S
H359 C343 0.961 . S
H360 C344 0.931 . S
H361 C349 0.930 . S
H362 C350 0.956 . S
H363 C350 0.961 . S
H364 C350 0.961 . S
H365 C351 0.958 . S
H366 C351 0.961 . S
H367 C351 0.960 . S
C368 C369 1.391 . S
C368 C370 1.394 . S
C368 H384 0.931 . S
C369 C368 1.391 . S
C369 C373 1.376 . S
C370 C368 1.394 . S
C370 C371 1.369 . S
C370 C374 1.531 . S
C371 C370 1.369 . S
C371 C372 1.410 . S
C371 C379 1.503 . S
C372 C371 1.410 . S
C372 C373 1.392 . S
C372 C375 1.511 . S
C373 C369 1.376 . S
C373 C372 1.392 . S
C373 H385 0.929 . S
C374 C370 1.531 . S
C374 H386 0.960 . S
C374 H387 0.962 . S
C374 H388 0.960 . S
C375 C372 1.511 . S
C375 H389 0.961 . S
C375 H390 0.961 . S
C375 H391 0.961 . S
C376 C377 1.370 . S
C376 C378 1.363 . S
C376 H392 0.931 . S
C377 C376 1.370 . S
C377 C381 1.408 . S
C378 C376 1.363 . S
C378 C379 1.370 . S
C378 C382 1.524 . S
C379 C371 1.503 . S
C379 C378 1.370 . S
C379 C380 1.403 . S
C380 C379 1.403 . S
C380 C381 1.404 . S
C380 C383 1.539 . S
C381 C377 1.408 . S
C381 C380 1.404 . S
C381 H393 0.930 . S
C382 C378 1.524 . S
C382 H394 0.956 . S
C382 H395 0.961 . S
C382 H396 0.961 . S
C383 C380 1.539 . S
C383 H397 0.958 . S
C383 H398 0.961 . S
C383 H399 0.960 . S
H384 C368 0.931 . S
H385 C373 0.929 . S
H386 C374 0.960 . S
H387 C374 0.962 . S
H388 C374 0.960 . S
H389 C375 0.961 . S
H390 C375 0.961 . S
H391 C375 0.961 . S
H392 C376 0.931 . S
H393 C381 0.930 . S
H394 C382 0.956 . S
H395 C382 0.961 . S
H396 C382 0.961 . S
H397 C383 0.958 . S
H398 C383 0.961 . S
H399 C383 0.960 . S
C400 C401 1.391 . S
C400 C402 1.394 . S
C400 H416 0.931 . S
C401 C400 1.391 . S
C401 C405 1.376 . S
C402 C400 1.394 . S
C402 C403 1.369 . S
C402 C406 1.531 . S
C403 C402 1.369 . S
C403 C404 1.410 . S
C403 C411 1.503 . S
C404 C403 1.410 . S
C404 C405 1.392 . S
C404 C407 1.511 . S
C405 C401 1.376 . S
C405 C404 1.392 . S
C405 H417 0.929 . S
C406 C402 1.531 . S
C406 H418 0.960 . S
C406 H419 0.962 . S
C406 H420 0.960 . S
C407 C404 1.511 . S
C407 H421 0.961 . S
C407 H422 0.961 . S
C407 H423 0.961 . S
C408 C409 1.370 . S
C408 C410 1.363 . S
C408 H424 0.931 . S
C409 C408 1.370 . S
C409 C413 1.408 . S
C410 C408 1.363 . S
C410 C411 1.370 . S
C410 C414 1.524 . S
C411 C403 1.503 . S
C411 C410 1.370 . S
C411 C412 1.403 . S
C412 C411 1.403 . S
C412 C413 1.404 . S
C412 C415 1.539 . S
C413 C409 1.408 . S
C413 C412 1.404 . S
C413 H425 0.930 . S
C414 C410 1.524 . S
C414 H426 0.956 . S
C414 H427 0.961 . S
C414 H428 0.961 . S
C415 C412 1.539 . S
C415 H429 0.958 . S
C415 H430 0.961 . S
C415 H431 0.960 . S
H416 C400 0.931 . S
H417 C405 0.929 . S
H418 C406 0.960 . S
H419 C406 0.962 . S
H420 C406 0.960 . S
H421 C407 0.961 . S
H422 C407 0.961 . S
H423 C407 0.961 . S
H424 C408 0.931 . S
H425 C413 0.930 . S
H426 C414 0.956 . S
H427 C414 0.961 . S
H428 C414 0.961 . S
H429 C415 0.958 . S
H430 C415 0.961 . S
H431 C415 0.960 . S
C432 C433 1.391 . S
C432 C434 1.394 . S
C432 H448 0.931 1_556 S
C433 C432 1.391 . S
C433 C437 1.376 . S
C434 C432 1.394 . S
C434 C435 1.369 . S
C434 C438 1.531 1_556 S
C435 C434 1.369 . S
C435 C436 1.410 . S
C435 C443 1.503 . S
C436 C435 1.410 . S
C436 C437 1.392 . S
C436 C439 1.511 . S
C437 C433 1.376 . S
C437 C436 1.392 . S
C437 H449 0.929 . S
C438 C434 1.531 1_554 S
C438 H450 0.960 . S
C438 H451 0.962 . S
C438 H452 0.960 . S
C439 C436 1.511 . S
C439 H453 0.961 . S
C439 H454 0.961 . S
C439 H455 0.961 . S
C440 C441 1.370 1_554 S
C440 C442 1.363 . S
C440 H456 0.931 . S
C441 C440 1.370 1_556 S
C441 C445 1.408 . S
C442 C440 1.363 . S
C442 C443 1.370 1_554 S
C442 C446 1.524 . S
C443 C435 1.503 . S
C443 C442 1.370 1_556 S
C443 C444 1.403 . S
C444 C443 1.403 . S
C444 C445 1.404 . S
C444 C447 1.539 . S
C445 C441 1.408 . S
C445 C444 1.404 . S
C445 H457 0.930 . S
C446 C442 1.524 . S
C446 H458 0.956 . S
C446 H459 0.961 . S
C446 H460 0.961 . S
C447 C444 1.539 . S
C447 H461 0.958 . S
C447 H462 0.961 . S
C447 H463 0.960 . S
H448 C432 0.931 1_554 S
H449 C437 0.929 . S
H450 C438 0.960 . S
H451 C438 0.962 . S
H452 C438 0.960 . S
H453 C439 0.961 . S
H454 C439 0.961 . S
H455 C439 0.961 . S
H456 C440 0.931 . S
H457 C445 0.930 . S
H458 C446 0.956 . S
H459 C446 0.961 . S
H460 C446 0.961 . S
H461 C447 0.958 . S
H462 C447 0.961 . S
H463 C447 0.960 . S
C464 C465 1.391 . S
C464 C466 1.394 . S
C464 H480 0.931 . S
C465 C464 1.391 . S
C465 C469 1.376 . S
C466 C464 1.394 . S
C466 C467 1.369 . S
C466 C470 1.531 . S
C467 C466 1.369 . S
C467 C468 1.410 . S
C467 C475 1.503 . S
C468 C467 1.410 . S
C468 C469 1.392 . S
C468 C471 1.511 . S
C469 C465 1.376 . S
C469 C468 1.392 . S
C469 H481 0.929 . S
C470 C466 1.531 . S
C470 H482 0.960 . S
C470 H483 0.962 . S
C470 H484 0.960 . S
C471 C468 1.511 . S
C471 H485 0.961 . S
C471 H486 0.961 . S
C471 H487 0.961 . S
C472 C473 1.370 . S
C472 C474 1.363 . S
C472 H488 0.931 . S
C473 C472 1.370 . S
C473 C477 1.408 . S
C474 C472 1.363 . S
C474 C475 1.370 . S
C474 C478 1.524 . S
C475 C467 1.503 . S
C475 C474 1.370 . S
C475 C476 1.403 . S
C476 C475 1.403 . S
C476 C477 1.404 . S
C476 C479 1.539 . S
C477 C473 1.408 . S
C477 C476 1.404 . S
C477 H489 0.930 . S
C478 C474 1.524 . S
C478 H490 0.956 . S
C478 H491 0.961 . S
C478 H492 0.961 . S
C479 C476 1.539 . S
C479 H493 0.958 . S
C479 H494 0.961 . S
C479 H495 0.960 . S
H480 C464 0.931 . S
H481 C469 0.929 . S
H482 C470 0.960 . S
H483 C470 0.962 . S
H484 C470 0.960 . S
H485 C471 0.961 . S
H486 C471 0.961 . S
H487 C471 0.961 . S
H488 C472 0.931 . S
H489 C477 0.930 . S
H490 C478 0.956 . S
H491 C478 0.961 . S
H492 C478 0.961 . S
H493 C479 0.958 . S
H494 C479 0.961 . S
H495 C479 0.960 . S
C496 C497 1.391 . S
C496 C498 1.394 . S
C496 H512 0.931 . S
C497 C496 1.391 . S
C497 C501 1.376 . S
C498 C496 1.394 . S
C498 C499 1.369 . S
C498 C502 1.531 . S
C499 C498 1.369 . S
C499 C500 1.410 . S
C499 C507 1.503 . S
C500 C499 1.410 . S
C500 C501 1.392 . S
C500 C503 1.511 . S
C501 C497 1.376 . S
C501 C500 1.392 . S
C501 H513 0.929 . S
C502 C498 1.531 . S
C502 H514 0.960 . S
C502 H515 0.962 . S
C502 H516 0.960 . S
C503 C500 1.511 . S
C503 H517 0.961 . S
C503 H518 0.961 . S
C503 H519 0.961 . S
C504 C505 1.370 . S
C504 C506 1.363 . S
C504 H520 0.931 . S
C505 C504 1.370 . S
C505 C509 1.408 . S
C506 C504 1.363 . S
C506 C507 1.370 . S
C506 C510 1.524 . S
C507 C499 1.503 . S
C507 C506 1.370 . S
C507 C508 1.403 . S
C508 C507 1.403 . S
C508 C509 1.404 . S
C508 C511 1.539 . S
C509 C505 1.408 . S
C509 C508 1.404 . S
C509 H521 0.930 . S
C510 C506 1.524 . S
C510 H522 0.956 . S
C510 H523 0.961 . S
C510 H524 0.961 . S
C511 C508 1.539 . S
C511 H525 0.958 . S
C511 H526 0.961 . S
C511 H527 0.960 . S
H512 C496 0.931 . S
H513 C501 0.929 . S
H514 C502 0.960 . S
H515 C502 0.962 . S
H516 C502 0.960 . S
H517 C503 0.961 . S
H518 C503 0.961 . S
H519 C503 0.961 . S
H520 C504 0.931 . S
H521 C509 0.930 . S
H522 C510 0.956 . S
H523 C510 0.961 . S
H524 C510 0.961 . S
H525 C511 0.958 . S
H526 C511 0.961 . S
H527 C511 0.960 . S
C528 C529 1.391 . S
C528 C530 1.394 . S
C528 H544 0.931 . S
C529 C528 1.391 . S
C529 C533 1.376 . S
C530 C528 1.394 . S
C530 C531 1.369 . S
C530 C534 1.531 . S
C531 C530 1.369 . S
C531 C532 1.410 . S
C531 C539 1.503 . S
C532 C531 1.410 . S
C532 C533 1.392 . S
C532 C535 1.511 1_455 S
C533 C529 1.376 . S
C533 C532 1.392 . S
C533 H545 0.929 . S
C534 C530 1.531 . S
C534 H546 0.960 . S
C534 H547 0.962 . S
C534 H548 0.960 . S
C535 C532 1.511 1_655 S
C535 H549 0.961 . S
C535 H550 0.967 . S
C535 H551 0.961 . S
C536 C537 1.370 . S
C536 C538 1.363 . S
C536 H552 0.931 . S
C537 C536 1.370 . S
C537 C541 1.408 1_455 S
C538 C536 1.363 . S
C538 C539 1.370 . S
C538 C542 1.524 . S
C539 C531 1.503 . S
C539 C538 1.370 . S
C539 C540 1.404 1_455 S
C540 C539 1.404 1_655 S
C540 C541 1.403 . S
C540 C543 1.538 . S
C541 C537 1.408 1_655 S
C541 C540 1.403 . S
C541 H553 0.930 . S
C542 C538 1.524 . S
C542 H554 0.956 . S
C542 H555 0.961 . S
C542 H556 0.961 . S
C543 C540 1.538 . S
C543 H557 0.958 . S
C543 H558 0.961 . S
C543 H559 0.960 . S
H544 C528 0.931 . S
H545 C533 0.929 . S
H546 C534 0.960 . S
H547 C534 0.962 . S
H548 C534 0.960 . S
H549 C535 0.961 . S
H550 C535 0.967 . S
H551 C535 0.961 . S
H552 C536 0.931 . S
H553 C541 0.930 . S
H554 C542 0.956 . S
H555 C542 0.961 . S
H556 C542 0.961 . S
H557 C543 0.958 . S
H558 C543 0.961 . S
H559 C543 0.960 . S
C560 C561 1.391 . S
C560 C562 1.394 . S
C560 H576 0.931 . S
C561 C560 1.391 . S
C561 C565 1.376 1_655 S
C562 C560 1.394 . S
C562 C563 1.369 . S
C562 C566 1.531 . S
C563 C562 1.369 . S
C563 C564 1.410 1_655 S
C563 C571 1.503 . S
C564 C563 1.410 1_455 S
C564 C565 1.392 . S
C564 C567 1.511 . S
C565 C561 1.376 1_455 S
C565 C564 1.392 . S
C565 H577 0.929 . S
C566 C562 1.531 . S
C566 H578 0.960 . S
C566 H579 0.962 . S
C566 H580 0.960 . S
C567 C564 1.511 . S
C567 H581 0.961 . S
C567 H582 0.961 . S
C567 H583 0.961 . S
C568 C569 1.370 . S
C568 C570 1.363 . S
C568 H584 0.931 . S
C569 C568 1.370 . S
C569 C573 1.408 . S
C570 C568 1.363 . S
C570 C571 1.370 . S
C570 C574 1.524 . S
C571 C563 1.503 . S
C571 C570 1.370 . S
C571 C572 1.403 . S
C572 C571 1.403 . S
C572 C573 1.404 . S
C572 C575 1.539 1_655 S
C573 C569 1.408 . S
C573 C572 1.404 . S
C573 H585 0.930 . S
C574 C570 1.524 . S
C574 H586 0.956 . S
C574 H587 0.961 . S
C574 H588 0.961 . S
C575 C572 1.539 1_455 S
C575 H589 0.958 . S
C575 H590 0.961 . S
C575 H591 0.960 . S
H576 C560 0.931 . S
H577 C565 0.929 . S
H578 C566 0.960 . S
H579 C566 0.962 . S
H580 C566 0.960 . S
H581 C567 0.961 . S
H582 C567 0.961 . S
H583 C567 0.961 . S
H584 C568 0.931 . S
H585 C573 0.930 . S
H586 C574 0.956 . S
H587 C574 0.961 . S
H588 C574 0.961 . S
H589 C575 0.958 . S
H590 C575 0.961 . S
H591 C575 0.960 . S
C592 C593 1.391 . S
C592 C594 1.394 . S
C592 H608 0.931 . S
C593 C592 1.391 . S
C593 C597 1.376 . S
C594 C592 1.394 . S
C594 C595 1.369 . S
C594 C598 1.531 . S
C595 C594 1.369 . S
C595 C596 1.410 . S
C595 C603 1.503 . S
C596 C595 1.410 . S
C596 C597 1.392 . S
C596 C599 1.511 . S
C597 C593 1.376 . S
C597 C596 1.392 . S
C597 H609 0.929 . S
C598 C594 1.531 . S
C598 H610 0.960 . S
C598 H611 0.962 . S
C598 H612 0.960 . S
C599 C596 1.511 . S
C599 H613 0.961 . S
C599 H614 0.961 . S
C599 H615 0.961 . S
C600 C601 1.370 . S
C600 C602 1.363 . S
C600 H616 0.931 . S
C601 C600 1.370 . S
C601 C605 1.408 . S
C602 C600 1.363 . S
C602 C603 1.370 . S
C602 C606 1.524 . S
C603 C595 1.503 . S
C603 C602 1.370 . S
C603 C604 1.403 . S
C604 C603 1.403 . S
C604 C605 1.404 . S
C604 C607 1.539 . S
C605 C601 1.408 . S
C605 C604 1.404 . S
C605 H617 0.930 . S
C606 C602 1.524 . S
C606 H618 0.956 . S
C606 H619 0.961 . S
C606 H620 0.961 . S
C607 C604 1.539 . S
C607 H621 0.958 . S
C607 H622 0.961 . S
C607 H623 0.960 . S
H608 C592 0.931 . S
H609 C597 0.929 . S
H610 C598 0.960 . S
H611 C598 0.962 . S
H612 C598 0.960 . S
H613 C599 0.961 . S
H614 C599 0.961 . S
H615 C599 0.961 . S
H616 C600 0.931 . S
H617 C605 0.930 . S
H618 C606 0.956 . S
H619 C606 0.961 . S
H620 C606 0.961 . S
H621 C607 0.958 . S
H622 C607 0.961 . S
H623 C607 0.960 . S
C624 C625 1.391 . S
C624 C626 1.394 . S
C624 H640 0.931 . S
C625 C624 1.391 . S
C625 C629 1.376 . S
C626 C624 1.394 . S
C626 C627 1.369 . S
C626 C630 1.531 . S
C627 C626 1.369 . S
C627 C628 1.410 . S
C627 C635 1.503 . S
C628 C627 1.410 . S
C628 C629 1.392 . S
C628 C631 1.511 . S
C629 C625 1.376 . S
C629 C628 1.392 . S
C629 H641 0.929 . S
C630 C626 1.531 . S
C630 H642 0.960 . S
C630 H643 0.962 . S
C630 H644 0.960 . S
C631 C628 1.511 . S
C631 H645 0.961 . S
C631 H646 0.961 . S
C631 H647 0.961 . S
C632 C633 1.370 . S
C632 C634 1.363 . S
C632 H648 0.931 . S
C633 C632 1.370 . S
C633 C637 1.408 . S
C634 C632 1.363 . S
C634 C635 1.370 . S
C634 C638 1.524 . S
C635 C627 1.503 . S
C635 C634 1.370 . S
C635 C636 1.403 . S
C636 C635 1.403 . S
C636 C637 1.404 . S
C636 C639 1.539 . S
C637 C633 1.408 . S
C637 C636 1.404 . S
C637 H649 0.930 . S
C638 C634 1.524 . S
C638 H650 0.956 . S
C638 H651 0.961 . S
C638 H652 0.961 . S
C639 C636 1.539 . S
C639 H653 0.958 . S
C639 H654 0.961 . S
C639 H655 0.960 . S
H640 C624 0.931 . S
H641 C629 0.929 . S
H642 C630 0.960 . S
H643 C630 0.962 . S
H644 C630 0.960 . S
H645 C631 0.961 . S
H646 C631 0.961 . S
H647 C631 0.961 . S
H648 C632 0.931 . S
H649 C637 0.930 . S
H650 C638 0.956 . S
H651 C638 0.961 . S
H652 C638 0.961 . S
H653 C639 0.958 . S
H654 C639 0.961 . S
H655 C639 0.960 . S
C656 C657 1.391 . S
C656 C658 1.394 . S
C656 H672 0.931 . S
C657 C656 1.391 . S
C657 C661 1.376 . S
C658 C656 1.394 . S
C658 C659 1.369 . S
C658 C662 1.531 . S
C659 C658 1.369 . S
C659 C660 1.410 . S
C659 C667 1.503 . S
C660 C659 1.410 . S
C660 C661 1.392 . S
C660 C663 1.511 . S
C661 C657 1.376 . S
C661 C660 1.392 . S
C661 H673 0.929 . S
C662 C658 1.531 . S
C662 H674 0.960 . S
C662 H675 0.962 . S
C662 H676 0.960 . S
C663 C660 1.511 . S
C663 H677 0.961 . S
C663 H678 0.961 . S
C663 H679 0.961 . S
C664 C665 1.370 . S
C664 C666 1.363 . S
C664 H680 0.931 . S
C665 C664 1.370 . S
C665 C669 1.408 . S
C666 C664 1.363 . S
C666 C667 1.370 . S
C666 C670 1.524 . S
C667 C659 1.503 . S
C667 C666 1.370 . S
C667 C668 1.403 . S
C668 C667 1.403 . S
C668 C669 1.404 . S
C668 C671 1.539 . S
C669 C665 1.408 . S
C669 C668 1.404 . S
C669 H681 0.930 . S
C670 C666 1.524 . S
C670 H682 0.956 . S
C670 H683 0.961 . S
C670 H684 0.961 . S
C671 C668 1.539 . S
C671 H685 0.958 . S
C671 H686 0.961 . S
C671 H687 0.960 . S
H672 C656 0.931 . S
H673 C661 0.929 . S
H674 C662 0.960 . S
H675 C662 0.962 . S
H676 C662 0.960 . S
H677 C663 0.961 . S
H678 C663 0.961 . S
H679 C663 0.961 . S
H680 C664 0.931 . S
H681 C669 0.930 . S
H682 C670 0.956 . S
H683 C670 0.961 . S
H684 C670 0.961 . S
H685 C671 0.958 . S
H686 C671 0.961 . S
H687 C671 0.960 . S
C688 C689 1.391 . S
C688 C690 1.394 . S
C688 H704 0.931 . S
C689 C688 1.391 . S
C689 C693 1.376 . S
C690 C688 1.394 . S
C690 C691 1.369 . S
C690 C694 1.531 . S
C691 C690 1.369 . S
C691 C692 1.410 . S
C691 C699 1.503 . S
C692 C691 1.410 . S
C692 C693 1.392 . S
C692 C695 1.511 . S
C693 C689 1.376 . S
C693 C692 1.392 . S
C693 H705 0.929 . S
C694 C690 1.531 . S
C694 H706 0.960 . S
C694 H707 0.962 . S
C694 H708 0.960 . S
C695 C692 1.511 . S
C695 H709 0.961 . S
C695 H710 0.961 . S
C695 H711 0.961 . S
C696 C697 1.370 . S
C696 C698 1.363 . S
C696 H712 0.931 . S
C697 C696 1.370 . S
C697 C701 1.408 . S
C698 C696 1.363 . S
C698 C699 1.370 . S
C698 C702 1.524 . S
C699 C691 1.503 . S
C699 C698 1.370 . S
C699 C700 1.403 . S
C700 C699 1.403 . S
C700 C701 1.404 . S
C700 C703 1.539 . S
C701 C697 1.408 . S
C701 C700 1.404 . S
C701 H713 0.930 . S
C702 C698 1.524 . S
C702 H714 0.956 . S
C702 H715 0.961 . S
C702 H716 0.961 . S
C703 C700 1.539 . S
C703 H717 0.958 . S
C703 H718 0.961 . S
C703 H719 0.960 . S
H704 C688 0.931 . S
H705 C693 0.929 . S
H706 C694 0.960 . S
H707 C694 0.962 . S
H708 C694 0.960 . S
H709 C695 0.961 . S
H710 C695 0.961 . S
H711 C695 0.961 . S
H712 C696 0.931 . S
H713 C701 0.930 . S
H714 C702 0.956 . S
H715 C702 0.961 . S
H716 C702 0.961 . S
H717 C703 0.958 . S
H718 C703 0.961 . S
H719 C703 0.960 . S
C720 C721 1.391 . S
C720 C722 1.394 . S
C720 H736 0.931 . S
C721 C720 1.391 . S
C721 C725 1.376 . S
C722 C720 1.394 . S
C722 C723 1.369 . S
C722 C726 1.531 . S
C723 C722 1.369 . S
C723 C724 1.410 . S
C723 C731 1.503 . S
C724 C723 1.410 . S
C724 C725 1.392 . S
C724 C727 1.511 . S
C725 C721 1.376 . S
C725 C724 1.392 . S
C725 H737 0.929 . S
C726 C722 1.531 . S
C726 H738 0.960 . S
C726 H739 0.962 . S
C726 H740 0.960 . S
C727 C724 1.511 . S
C727 H741 0.961 . S
C727 H742 0.961 1_554 S
C727 H743 0.956 1_554 S
C728 C729 1.370 . S
C728 C730 1.363 . S
C728 H744 0.931 . S
C729 C728 1.370 . S
C729 C733 1.408 . S
C730 C728 1.363 . S
C730 C731 1.370 1_556 S
C730 C734 1.524 1_556 S
C731 C723 1.503 . S
C731 C730 1.370 1_554 S
C731 C732 1.403 1_554 S
C732 C731 1.403 1_556 S
C732 C733 1.404 . S
C732 C735 1.539 1_556 S
C733 C729 1.408 . S
C733 C732 1.404 . S
C733 H745 0.930 . S
C734 C730 1.524 1_554 S
C734 H746 0.956 . S
C734 H747 0.961 . S
C734 H748 0.961 1_554 S
C735 C732 1.539 1_554 S
C735 H749 0.958 . S
C735 H750 0.961 1_554 S
C735 H751 0.960 . S
H736 C720 0.931 . S
H737 C725 0.929 . S
H738 C726 0.960 . S
H739 C726 0.962 . S
H740 C726 0.960 . S
H741 C727 0.961 . S
H742 C727 0.961 1_556 S
H743 C727 0.956 1_556 S
H744 C728 0.931 . S
H745 C733 0.930 . S
H746 C734 0.956 . S
H747 C734 0.961 . S
H748 C734 0.961 1_556 S
H749 C735 0.958 . S
H750 C735 0.961 1_556 S
H751 C735 0.960 . S
C752 C753 1.391 . S
C752 C754 1.394 . S
C752 H768 0.931 . S
C753 C752 1.391 . S
C753 C757 1.376 . S
C754 C752 1.394 . S
C754 C755 1.369 . S
C754 C758 1.531 . S
C755 C754 1.369 . S
C755 C756 1.410 . S
C755 C763 1.503 . S
C756 C755 1.410 . S
C756 C757 1.392 . S
C756 C759 1.511 . S
C757 C753 1.376 . S
C757 C756 1.392 . S
C757 H769 0.929 . S
C758 C754 1.531 . S
C758 H770 0.960 . S
C758 H771 0.962 . S
C758 H772 0.960 . S
C759 C756 1.511 . S
C759 H773 0.961 . S
C759 H774 0.961 . S
C759 H775 0.961 . S
C760 C761 1.370 . S
C760 C762 1.363 . S
C760 H776 0.931 . S
C761 C760 1.370 . S
C761 C765 1.408 . S
C762 C760 1.363 . S
C762 C763 1.370 . S
C762 C766 1.524 . S
C763 C755 1.503 . S
C763 C762 1.370 . S
C763 C764 1.403 . S
C764 C763 1.403 . S
C764 C765 1.404 . S
C764 C767 1.539 . S
C765 C761 1.408 . S
C765 C764 1.404 . S
C765 H777 0.930 . S
C766 C762 1.524 . S
C766 H778 0.956 . S
C766 H779 0.961 . S
C766 H780 0.961 . S
C767 C764 1.539 . S
C767 H781 0.958 . S
C767 H782 0.961 . S
C767 H783 0.960 . S
H768 C752 0.931 . S
H769 C757 0.929 . S
H770 C758 0.960 . S
H771 C758 0.962 . S
H772 C758 0.960 . S
H773 C759 0.961 . S
H774 C759 0.961 . S
H775 C759 0.961 . S
H776 C760 0.931 . S
H777 C765 0.930 . S
H778 C766 0.956 . S
H779 C766 0.961 . S
H780 C766 0.961 . S
H781 C767 0.958 . S
H782 C767 0.961 . S
H783 C767 0.960 . S
C784 C785 1.391 . S
C784 C786 1.394 1_554 S
C784 H800 0.931 . S
C785 C784 1.391 . S
C785 C789 1.376 . S
C786 C784 1.394 1_556 S
C786 C787 1.369 . S
C786 C790 1.531 . S
C787 C786 1.369 . S
C787 C788 1.410 1_556 S
C787 C795 1.503 . S
C788 C787 1.410 1_554 S
C788 C789 1.392 . S
C788 C791 1.511 1_554 S
C789 C785 1.376 . S
C789 C788 1.392 . S
C789 H801 0.929 . S
C790 C786 1.531 . S
C790 H802 0.960 . S
C790 H803 0.962 . S
C790 H804 0.960 . S
C791 C788 1.511 1_556 S
C791 H805 0.951 1_556 S
C791 H806 0.961 . S
C791 H807 0.967 . S
C792 C793 1.370 . S
C792 C794 1.363 . S
C792 H808 0.931 . S
C793 C792 1.370 . S
C793 C797 1.408 . S
C794 C792 1.363 . S
C794 C795 1.370 . S
C794 C798 1.524 . S
C795 C787 1.503 . S
C795 C794 1.370 . S
C795 C796 1.403 . S
C796 C795 1.403 . S
C796 C797 1.404 . S
C796 C799 1.539 . S
C797 C793 1.408 . S
C797 C796 1.404 . S
C797 H809 0.930 . S
C798 C794 1.524 . S
C798 H810 0.956 . S
C798 H811 0.961 . S
C798 H812 0.961 . S
C799 C796 1.539 . S
C799 H813 0.958 . S
C799 H814 0.961 . S
C799 H815 0.960 . S
H800 C784 0.931 . S
H801 C789 0.929 . S
H802 C790 0.960 . S
H803 C790 0.962 . S
H804 C790 0.960 . S
H805 C791 0.951 1_554 S
H806 C791 0.961 . S
H807 C791 0.967 . S
H808 C792 0.931 . S
H809 C797 0.930 . S
H810 C798 0.956 . S
H811 C798 0.961 . S
H812 C798 0.961 . S
H813 C799 0.958 . S
H814 C799 0.961 . S
H815 C799 0.960 . S
C816 C817 1.391 . S
C816 C818 1.394 . S
C816 H832 0.931 . S
C817 C816 1.391 . S
C817 C821 1.376 . S
C818 C816 1.394 . S
C818 C819 1.369 . S
C818 C822 1.531 . S
C819 C818 1.369 . S
C819 C820 1.410 . S
C819 C827 1.503 . S
C820 C819 1.410 . S
C820 C821 1.392 . S
C820 C823 1.511 . S
C821 C817 1.376 . S
C821 C820 1.392 . S
C821 H833 0.929 . S
C822 C818 1.531 . S
C822 H834 0.960 . S
C822 H835 0.962 . S
C822 H836 0.960 . S
C823 C820 1.511 . S
C823 H837 0.961 . S
C823 H838 0.961 . S
C823 H839 0.961 . S
C824 C825 1.370 . S
C824 C826 1.363 . S
C824 H840 0.931 . S
C825 C824 1.370 . S
C825 C829 1.408 . S
C826 C824 1.363 . S
C826 C827 1.370 . S
C826 C830 1.524 . S
C827 C819 1.503 . S
C827 C826 1.370 . S
C827 C828 1.403 . S
C828 C827 1.403 . S
C828 C829 1.404 . S
C828 C831 1.539 . S
C829 C825 1.408 . S
C829 C828 1.404 . S
C829 H841 0.930 . S
C830 C826 1.524 . S
C830 H842 0.956 . S
C830 H843 0.961 . S
C830 H844 0.961 . S
C831 C828 1.539 . S
C831 H845 0.958 . S
C831 H846 0.961 . S
C831 H847 0.960 . S
H832 C816 0.931 . S
H833 C821 0.929 . S
H834 C822 0.960 . S
H835 C822 0.962 . S
H836 C822 0.960 . S
H837 C823 0.961 . S
H838 C823 0.961 . S
H839 C823 0.961 . S
H840 C824 0.931 . S
H841 C829 0.930 . S
H842 C830 0.956 . S
H843 C830 0.961 . S
H844 C830 0.961 . S
H845 C831 0.958 . S
H846 C831 0.961 . S
H847 C831 0.960 . S
C848 C849 1.391 . S
C848 C850 1.394 . S
C848 H864 0.931 . S
C849 C848 1.391 . S
C849 C853 1.376 . S
C850 C848 1.394 . S
C850 C851 1.369 . S
C850 C854 1.531 . S
C851 C850 1.369 . S
C851 C852 1.410 . S
C851 C859 1.503 . S
C852 C851 1.410 . S
C852 C853 1.392 . S
C852 C855 1.511 . S
C853 C849 1.376 . S
C853 C852 1.392 . S
C853 H865 0.929 . S
C854 C850 1.531 . S
C854 H866 0.960 . S
C854 H867 0.962 . S
C854 H868 0.960 . S
C855 C852 1.511 . S
C855 H869 0.961 . S
C855 H870 0.961 . S
C855 H871 0.961 . S
C856 C857 1.370 . S
C856 C858 1.363 . S
C856 H872 0.931 . S
C857 C856 1.370 . S
C857 C861 1.408 . S
C858 C856 1.363 . S
C858 C859 1.370 . S
C858 C862 1.524 . S
C859 C851 1.503 . S
C859 C858 1.370 . S
C859 C860 1.403 . S
C860 C859 1.403 . S
C860 C861 1.404 . S
C860 C863 1.539 . S
C861 C857 1.408 . S
C861 C860 1.404 . S
C861 H873 0.930 . S
C862 C858 1.524 . S
C862 H874 0.956 . S
C862 H875 0.961 . S
C862 H876 0.961 . S
C863 C860 1.539 . S
C863 H877 0.958 . S
C863 H878 0.961 . S
C863 H879 0.960 . S
H864 C848 0.931 . S
H865 C853 0.929 . S
H866 C854 0.960 . S
H867 C854 0.962 . S
H868 C854 0.960 . S
H869 C855 0.961 . S
H870 C855 0.961 . S
H871 C855 0.961 . S
H872 C856 0.931 . S
H873 C861 0.930 . S
H874 C862 0.956 . S
H875 C862 0.961 . S
H876 C862 0.961 . S
H877 C863 0.958 . S
H878 C863 0.961 . S
H879 C863 0.960 . S
C880 C881 1.391 . S
C880 C882 1.394 . S
C880 H896 0.931 . S
C881 C880 1.391 . S
C881 C885 1.376 . S
C882 C880 1.394 . S
C882 C883 1.369 . S
C882 C886 1.531 . S
C883 C882 1.369 . S
C883 C884 1.410 . S
C883 C891 1.503 . S
C884 C883 1.410 . S
C884 C885 1.392 . S
C884 C887 1.511 . S
C885 C881 1.376 . S
C885 C884 1.392 . S
C885 H897 0.929 . S
C886 C882 1.531 . S
C886 H898 0.960 . S
C886 H899 0.962 . S
C886 H900 0.960 . S
C887 C884 1.511 . S
C887 H901 0.961 . S
C887 H902 0.961 . S
C887 H903 0.961 . S
C888 C889 1.370 . S
C888 C890 1.363 . S
C888 H904 0.931 . S
C889 C888 1.370 . S
C889 C893 1.408 . S
C890 C888 1.363 . S
C890 C891 1.370 . S
C890 C894 1.524 . S
C891 C883 1.503 . S
C891 C890 1.370 . S
C891 C892 1.403 . S
C892 C891 1.403 . S
C892 C893 1.404 . S
C892 C895 1.539 . S
C893 C889 1.408 . S
C893 C892 1.404 . S
C893 H905 0.930 . S
C894 C890 1.524 . S
C894 H906 0.956 . S
C894 H907 0.961 . S
C894 H908 0.961 . S
C895 C892 1.539 . S
C895 H909 0.958 . S
C895 H910 0.961 . S
C895 H911 0.960 . S
H896 C880 0.931 . S
H897 C885 0.929 . S
H898 C886 0.960 . S
H899 C886 0.962 . S
H900 C886 0.960 . S
H901 C887 0.961 . S
H902 C887 0.961 . S
H903 C887 0.961 . S
H904 C888 0.931 . S
H905 C893 0.930 . S
H906 C894 0.956 . S
H907 C894 0.961 . S
H908 C894 0.961 . S
H909 C895 0.958 . S
H910 C895 0.961 . S
H911 C895 0.960 . S
C912 C913 1.391 . S
C912 C914 1.394 . S
C912 H928 0.931 . S
C913 C912 1.391 . S
C913 C917 1.376 . S
C914 C912 1.394 . S
C914 C915 1.369 . S
C914 C918 1.531 . S
C915 C914 1.369 . S
C915 C916 1.410 . S
C915 C923 1.503 1_545 S
C916 C915 1.410 . S
C916 C917 1.392 . S
C916 C919 1.511 . S
C917 C913 1.376 . S
C917 C916 1.392 . S
C917 H929 0.929 . S
C918 C914 1.531 . S
C918 H930 0.960 1_545 S
C918 H931 0.962 . S
C918 H932 0.960 . S
C919 C916 1.511 . S
C919 H933 0.961 . S
C919 H934 0.961 . S
C919 H935 0.961 . S
C920 C921 1.370 . S
C920 C922 1.363 . S
C920 H936 0.931 . S
C921 C920 1.370 . S
C921 C925 1.408 . S
C922 C920 1.363 . S
C922 C923 1.370 . S
C922 C926 1.524 1_565 S
C923 C915 1.503 1_565 S
C923 C922 1.370 . S
C923 C924 1.403 . S
C924 C923 1.403 . S
C924 C925 1.404 . S
C924 C927 1.539 . S
C925 C921 1.408 . S
C925 C924 1.404 . S
C925 H937 0.930 . S
C926 C922 1.524 1_545 S
C926 H938 0.956 . S
C926 H939 0.961 . S
C926 H940 0.961 . S
C927 C924 1.539 . S
C927 H941 0.958 . S
C927 H942 0.961 . S
C927 H943 0.960 . S
H928 C912 0.931 . S
H929 C917 0.929 . S
H930 C918 0.960 1_565 S
H931 C918 0.962 . S
H932 C918 0.960 . S
H933 C919 0.961 . S
H934 C919 0.961 . S
H935 C919 0.961 . S
H936 C920 0.931 . S
H937 C925 0.930 . S
H938 C926 0.956 . S
H939 C926 0.961 . S
H940 C926 0.961 . S
H941 C927 0.958 . S
H942 C927 0.961 . S
H943 C927 0.960 . S
C944 C945 1.391 . S
C944 C946 1.394 . S
C944 H960 0.931 . S
C945 C944 1.391 . S
C945 C949 1.376 . S
C946 C944 1.394 . S
C946 C947 1.369 . S
C946 C950 1.531 . S
C947 C946 1.369 . S
C947 C948 1.410 . S
C947 C955 1.503 . S
C948 C947 1.410 . S
C948 C949 1.392 . S
C948 C951 1.511 . S
C949 C945 1.376 . S
C949 C948 1.392 . S
C949 H961 0.929 . S
C950 C946 1.531 . S
C950 H962 0.960 . S
C950 H963 0.962 . S
C950 H964 0.960 . S
C951 C948 1.511 . S
C951 H965 0.961 . S
C951 H966 0.961 . S
C951 H967 0.961 . S
C952 C953 1.370 . S
C952 C954 1.363 . S
C952 H968 0.931 . S
C953 C952 1.370 . S
C953 C957 1.408 . S
C954 C952 1.363 . S
C954 C955 1.370 . S
C954 C958 1.524 . S
C955 C947 1.503 . S
C955 C954 1.370 . S
C955 C956 1.403 . S
C956 C955 1.403 . S
C956 C957 1.404 . S
C956 C959 1.539 . S
C957 C953 1.408 . S
C957 C956 1.404 . S
C957 H969 0.930 . S
C958 C954 1.524 . S
C958 H970 0.956 . S
C958 H971 0.961 . S
C958 H972 0.961 . S
C959 C956 1.539 . S
C959 H973 0.958 . S
C959 H974 0.961 . S
C959 H975 0.960 . S
H960 C944 0.931 . S
H961 C949 0.929 . S
H962 C950 0.960 . S
H963 C950 0.962 . S
H964 C950 0.960 . S
H965 C951 0.961 . S
H966 C951 0.961 . S
H967 C951 0.961 . S
H968 C952 0.931 . S
H969 C957 0.930 . S
H970 C958 0.956 . S
H971 C958 0.961 . S
H972 C958 0.961 . S
H973 C959 0.958 . S
H974 C959 0.961 . S
H975 C959 0.960 . S
C976 C977 1.391 . S
C976 C978 1.394 . S
C976 H992 0.931 . S
C977 C976 1.391 . S
C977 C981 1.376 . S
C978 C976 1.394 . S
C978 C979 1.369 1_545 S
C978 C982 1.531 1_545 S
C979 C978 1.369 1_565 S
C979 C980 1.418 . S
C979 C987 1.503 . S
C980 C979 1.418 . S
C980 C981 1.372 1_565 S
C980 C983 1.523 . S
C981 C977 1.376 . S
C981 C980 1.372 1_545 S
C981 H993 0.929 . S
C982 C978 1.531 1_565 S
C982 H994 0.960 . S
C982 H995 0.962 . S
C982 H996 0.960 . S
C983 C980 1.523 . S
C983 H997 0.961 . S
C983 H998 0.961 . S
C983 H999 0.961 . S
C984 C985 1.370 . S
C984 C986 1.363 . S
C984 H1000 0.931 . S
C985 C984 1.370 . S
C985 C989 1.408 . S
C986 C984 1.363 . S
C986 C987 1.370 . S
C986 C990 1.524 . S
C987 C979 1.503 . S
C987 C986 1.370 . S
C987 C988 1.403 . S
C988 C987 1.403 . S
C988 C989 1.404 . S
C988 C991 1.539 . S
C989 C985 1.408 . S
C989 C988 1.404 . S
C989 H1001 0.930 . S
C990 C986 1.524 . S
C990 H1002 0.956 1_565 S
C990 H1003 0.961 1_565 S
C990 H1004 0.961 . S
C991 C988 1.539 . S
C991 H1005 0.958 . S
C991 H1006 0.961 . S
C991 H1007 0.960 . S
H992 C976 0.931 . S
H993 C981 0.929 . S
H994 C982 0.960 . S
H995 C982 0.962 . S
H996 C982 0.960 . S
H997 C983 0.961 . S
H998 C983 0.961 . S
H999 C983 0.961 . S
H1000 C984 0.931 . S
H1001 C989 0.930 . S
H1002 C990 0.956 1_545 S
H1003 C990 0.961 1_545 S
H1004 C990 0.961 . S
H1005 C991 0.958 . S
H1006 C991 0.961 . S
H1007 C991 0.960 . S
C1008 C1009 1.391 . S
C1008 C1010 1.394 . S
C1008 H1024 0.931 . S
C1009 C1008 1.391 . S
C1009 C1013 1.376 . S
C1010 C1008 1.394 . S
C1010 C1011 1.369 . S
C1010 C1014 1.531 . S
C1011 C1010 1.369 . S
C1011 C1012 1.410 . S
C1011 C1019 1.503 . S
C1012 C1011 1.410 . S
C1012 C1013 1.392 . S
C1012 C1015 1.511 . S
C1013 C1009 1.376 . S
C1013 C1012 1.392 . S
C1013 H1025 0.929 . S
C1014 C1010 1.531 . S
C1014 H1026 0.960 . S
C1014 H1027 0.962 . S
C1014 H1028 0.960 . S
C1015 C1012 1.511 . S
C1015 H1029 0.961 . S
C1015 H1030 0.961 . S
C1015 H1031 0.961 . S
C1016 C1017 1.370 . S
C1016 C1018 1.363 . S
C1016 H1032 0.931 . S
C1017 C1016 1.370 . S
C1017 C1021 1.408 . S
C1018 C1016 1.363 . S
C1018 C1019 1.370 . S
C1018 C1022 1.524 . S
C1019 C1011 1.503 . S
C1019 C1018 1.370 . S
C1019 C1020 1.403 . S
C1020 C1019 1.403 . S
C1020 C1021 1.404 . S
C1020 C1023 1.539 . S
C1021 C1017 1.408 . S
C1021 C1020 1.404 . S
C1021 H1033 0.930 . S
C1022 C1018 1.524 . S
C1022 H1034 0.956 . S
C1022 H1035 0.961 . S
C1022 H1036 0.961 . S
C1023 C1020 1.539 . S
C1023 H1037 0.958 . S
C1023 H1038 0.961 . S
C1023 H1039 0.960 . S
H1024 C1008 0.931 . S
H1025 C1013 0.929 . S
H1026 C1014 0.960 . S
H1027 C1014 0.962 . S
H1028 C1014 0.960 . S
H1029 C1015 0.961 . S
H1030 C1015 0.961 . S
H1031 C1015 0.961 . S
H1032 C1016 0.931 . S
H1033 C1021 0.930 . S
H1034 C1022 0.956 . S
H1035 C1022 0.961 . S
H1036 C1022 0.961 . S
H1037 C1023 0.958 . S
H1038 C1023 0.961 . S
H1039 C1023 0.960 . S
C1040 C1041 1.391 . S
C1040 C1042 1.394 . S
C1040 H1056 0.931 . S
C1041 C1040 1.391 . S
C1041 C1045 1.376 . S
C1042 C1040 1.394 . S
C1042 C1043 1.369 . S
C1042 C1046 1.531 . S
C1043 C1042 1.369 . S
C1043 C1044 1.410 . S
C1043 C1051 1.503 . S
C1044 C1043 1.410 . S
C1044 C1045 1.392 . S
C1044 C1047 1.511 . S
C1045 C1041 1.376 . S
C1045 C1044 1.392 . S
C1045 H1057 0.929 . S
C1046 C1042 1.531 . S
C1046 H1058 0.960 . S
C1046 H1059 0.962 . S
C1046 H1060 0.960 . S
C1047 C1044 1.511 . S
C1047 H1061 0.961 . S
C1047 H1062 0.961 . S
C1047 H1063 0.961 . S
C1048 C1049 1.370 . S
C1048 C1050 1.363 . S
C1048 H1064 0.931 . S
C1049 C1048 1.370 . S
C1049 C1053 1.408 . S
C1050 C1048 1.363 . S
C1050 C1051 1.370 . S
C1050 C1054 1.524 . S
C1051 C1043 1.503 . S
C1051 C1050 1.370 . S
C1051 C1052 1.403 . S
C1052 C1051 1.403 . S
C1052 C1053 1.404 . S
C1052 C1055 1.539 . S
C1053 C1049 1.408 . S
C1053 C1052 1.404 . S
C1053 H1065 0.930 . S
C1054 C1050 1.524 . S
C1054 H1066 0.956 . S
C1054 H1067 0.961 . S
C1054 H1068 0.961 . S
C1055 C1052 1.539 . S
C1055 H1069 0.958 . S
C1055 H1070 0.961 . S
C1055 H1071 0.960 . S
H1056 C1040 0.931 . S
H1057 C1045 0.929 . S
H1058 C1046 0.960 . S
H1059 C1046 0.962 . S
H1060 C1046 0.960 . S
H1061 C1047 0.961 . S
H1062 C1047 0.961 . S
H1063 C1047 0.961 . S
H1064 C1048 0.931 . S
H1065 C1053 0.930 . S
H1066 C1054 0.956 . S
H1067 C1054 0.961 . S
H1068 C1054 0.961 . S
H1069 C1055 0.958 . S
H1070 C1055 0.961 . S
H1071 C1055 0.960 . S
C1072 C1073 1.391 . S
C1072 C1074 1.394 . S
C1072 H1088 0.931 . S
C1073 C1072 1.391 . S
C1073 C1077 1.376 . S
C1074 C1072 1.394 . S
C1074 C1075 1.369 . S
C1074 C1078 1.531 . S
C1075 C1074 1.369 . S
C1075 C1076 1.410 . S
C1075 C1083 1.503 . S
C1076 C1075 1.410 . S
C1076 C1077 1.392 . S
C1076 C1079 1.511 . S
C1077 C1073 1.376 . S
C1077 C1076 1.392 . S
C1077 H1089 0.929 . S
C1078 C1074 1.531 . S
C1078 H1090 0.960 . S
C1078 H1091 0.962 . S
C1078 H1092 0.960 . S
C1079 C1076 1.511 . S
C1079 H1093 0.961 . S
C1079 H1094 0.961 . S
C1079 H1095 0.961 . S
C1080 C1081 1.370 . S
C1080 C1082 1.363 . S
C1080 H1096 0.931 . S
C1081 C1080 1.370 . S
C1081 C1085 1.408 . S
C1082 C1080 1.363 . S
C1082 C1083 1.370 . S
C1082 C1086 1.524 . S
C1083 C1075 1.503 . S
C1083 C1082 1.370 . S
C1083 C1084 1.403 . S
C1084 C1083 1.403 . S
C1084 C1085 1.404 . S
C1084 C1087 1.539 . S
C1085 C1081 1.408 . S
C1085 C1084 1.404 . S
C1085 H1097 0.930 . S
C1086 C1082 1.524 . S
C1086 H1098 0.956 . S
C1086 H1099 0.961 . S
C1086 H1100 0.961 . S
C1087 C1084 1.539 . S
C1087 H1101 0.958 . S
C1087 H1102 0.961 . S
C1087 H1103 0.960 . S
H1088 C1072 0.931 . S
H1089 C1077 0.929 . S
H1090 C1078 0.960 . S
H1091 C1078 0.962 . S
H1092 C1078 0.960 . S
H1093 C1079 0.961 . S
H1094 C1079 0.961 . S
H1095 C1079 0.961 . S
H1096 C1080 0.931 . S
H1097 C1085 0.930 . S
H1098 C1086 0.956 . S
H1099 C1086 0.961 . S
H1100 C1086 0.961 . S
H1101 C1087 0.958 . S
H1102 C1087 0.961 . S
H1103 C1087 0.960 . S
C1104 C1105 1.391 . S
C1104 C1106 1.394 . S
C1104 H1120 0.931 . S
C1105 C1104 1.391 . S
C1105 C1109 1.376 . S
C1106 C1104 1.394 . S
C1106 C1107 1.369 . S
C1106 C1110 1.531 . S
C1107 C1106 1.369 . S
C1107 C1108 1.410 . S
C1107 C1115 1.503 . S
C1108 C1107 1.410 . S
C1108 C1109 1.392 . S
C1108 C1111 1.511 . S
C1109 C1105 1.376 . S
C1109 C1108 1.392 . S
C1109 H1121 0.929 . S
C1110 C1106 1.531 . S
C1110 H1122 0.960 . S
C1110 H1123 0.962 . S
C1110 H1124 0.960 . S
C1111 C1108 1.511 . S
C1111 H1125 0.961 . S
C1111 H1126 0.961 . S
C1111 H1127 0.961 . S
C1112 C1113 1.370 . S
C1112 C1114 1.363 . S
C1112 H1128 0.931 . S
C1113 C1112 1.370 . S
C1113 C1117 1.408 . S
C1114 C1112 1.363 . S
C1114 C1115 1.370 . S
C1114 C1118 1.524 . S
C1115 C1107 1.503 . S
C1115 C1114 1.370 . S
C1115 C1116 1.403 . S
C1116 C1115 1.403 . S
C1116 C1117 1.404 . S
C1116 C1119 1.539 . S
C1117 C1113 1.408 . S
C1117 C1116 1.404 . S
C1117 H1129 0.930 . S
C1118 C1114 1.524 . S
C1118 H1130 0.956 . S
C1118 H1131 0.961 . S
C1118 H1132 0.961 . S
C1119 C1116 1.539 . S
C1119 H1133 0.958 . S
C1119 H1134 0.961 . S
C1119 H1135 0.960 . S
H1120 C1104 0.931 . S
H1121 C1109 0.929 . S
H1122 C1110 0.960 . S
H1123 C1110 0.962 . S
H1124 C1110 0.960 . S
H1125 C1111 0.961 . S
H1126 C1111 0.961 . S
H1127 C1111 0.961 . S
H1128 C1112 0.931 . S
H1129 C1117 0.930 . S
H1130 C1118 0.956 . S
H1131 C1118 0.961 . S
H1132 C1118 0.961 . S
H1133 C1119 0.958 . S
H1134 C1119 0.961 . S
H1135 C1119 0.960 . S
C1136 C1137 1.391 . S
C1136 C1138 1.394 . S
C1136 H1152 0.931 . S
C1137 C1136 1.391 . S
C1137 C1141 1.376 . S
C1138 C1136 1.394 . S
C1138 C1139 1.369 . S
C1138 C1142 1.531 . S
C1139 C1138 1.369 . S
C1139 C1140 1.410 . S
C1139 C1147 1.503 . S
C1140 C1139 1.410 . S
C1140 C1141 1.392 . S
C1140 C1143 1.511 . S
C1141 C1137 1.376 . S
C1141 C1140 1.392 . S
C1141 H1153 0.929 . S
C1142 C1138 1.531 . S
C1142 H1154 0.960 . S
C1142 H1155 0.962 . S
C1142 H1156 0.960 . S
C1143 C1140 1.511 . S
C1143 H1157 0.961 . S
C1143 H1158 0.961 . S
C1143 H1159 0.961 . S
C1144 C1145 1.370 . S
C1144 C1146 1.363 . S
C1144 H1160 0.931 . S
C1145 C1144 1.370 . S
C1145 C1149 1.408 . S
C1146 C1144 1.363 . S
C1146 C1147 1.370 . S
C1146 C1150 1.524 . S
C1147 C1139 1.503 . S
C1147 C1146 1.370 . S
C1147 C1148 1.403 . S
C1148 C1147 1.403 . S
C1148 C1149 1.404 . S
C1148 C1151 1.539 . S
C1149 C1145 1.408 . S
C1149 C1148 1.404 . S
C1149 H1161 0.930 . S
C1150 C1146 1.524 . S
C1150 H1162 0.956 . S
C1150 H1163 0.961 . S
C1150 H1164 0.961 . S
C1151 C1148 1.539 . S
C1151 H1165 0.958 . S
C1151 H1166 0.961 . S
C1151 H1167 0.960 . S
H1152 C1136 0.931 . S
H1153 C1141 0.929 . S
H1154 C1142 0.960 . S
H1155 C1142 0.962 . S
H1156 C1142 0.960 . S
H1157 C1143 0.961 . S
H1158 C1143 0.961 . S
H1159 C1143 0.961 . S
H1160 C1144 0.931 . S
H1161 C1149 0.930 . S
H1162 C1150 0.956 . S
H1163 C1150 0.961 . S
H1164 C1150 0.961 . S
H1165 C1151 0.958 . S
H1166 C1151 0.961 . S
H1167 C1151 0.960 . S
C1168 C1169 1.391 . S
C1168 C1170 1.394 . S
C1168 H1184 0.931 . S
C1169 C1168 1.391 . S
C1169 C1173 1.376 . S
C1170 C1168 1.394 . S
C1170 C1171 1.369 . S
C1170 C1174 1.531 . S
C1171 C1170 1.369 . S
C1171 C1172 1.410 . S
C1171 C1179 1.503 . S
C1172 C1171 1.410 . S
C1172 C1173 1.392 . S
C1172 C1175 1.511 . S
C1173 C1169 1.376 . S
C1173 C1172 1.392 . S
C1173 H1185 0.929 . S
C1174 C1170 1.531 . S
C1174 H1186 0.960 . S
C1174 H1187 0.962 . S
C1174 H1188 0.960 . S
C1175 C1172 1.511 . S
C1175 H1189 0.961 . S
C1175 H1190 0.961 . S
C1175 H1191 0.961 . S
C1176 C1177 1.370 . S
C1176 C1178 1.363 . S
C1176 H1192 0.931 . S
C1177 C1176 1.370 . S
C1177 C1181 1.408 . S
C1178 C1176 1.363 . S
C1178 C1179 1.370 . S
C1178 C1182 1.524 . S
C1179 C1171 1.503 . S
C1179 C1178 1.370 . S
C1179 C1180 1.403 . S
C1180 C1179 1.403 . S
C1180 C1181 1.404 . S
C1180 C1183 1.539 . S
C1181 C1177 1.408 . S
C1181 C1180 1.404 . S
C1181 H1193 0.930 . S
C1182 C1178 1.524 . S
C1182 H1194 0.956 . S
C1182 H1195 0.961 . S
C1182 H1196 0.961 . S
C1183 C1180 1.539 . S
C1183 H1197 0.958 . S
C1183 H1198 0.961 . S
C1183 H1199 0.960 . S
H1184 C1168 0.931 . S
H1185 C1173 0.929 . S
H1186 C1174 0.960 . S
H1187 C1174 0.962 . S
H1188 C1174 0.960 . S
H1189 C1175 0.961 . S
H1190 C1175 0.961 . S
H1191 C1175 0.961 . S
H1192 C1176 0.931 . S
H1193 C1181 0.930 . S
H1194 C1182 0.956 . S
H1195 C1182 0.961 . S
H1196 C1182 0.961 . S
H1197 C1183 0.958 . S
H1198 C1183 0.961 . S
H1199 C1183 0.960 . S
C1200 C1201 1.391 . S
C1200 C1202 1.394 . S
C1200 H1216 0.931 . S
C1201 C1200 1.391 . S
C1201 C1205 1.376 . S
C1202 C1200 1.394 . S
C1202 C1203 1.369 . S
C1202 C1206 1.531 . S
C1203 C1202 1.369 . S
C1203 C1204 1.410 . S
C1203 C1211 1.503 1_455 S
C1204 C1203 1.410 . S
C1204 C1205 1.392 . S
C1204 C1207 1.511 . S
C1205 C1201 1.376 . S
C1205 C1204 1.392 . S
C1205 H1217 0.929 . S
C1206 C1202 1.531 . S
C1206 H1218 0.960 . S
C1206 H1219 0.962 . S
C1206 H1220 0.960 . S
C1207 C1204 1.511 . S
C1207 H1221 0.961 . S
C1207 H1222 0.961 1_455 S
C1207 H1223 0.961 . S
C1208 C1209 1.370 . S
C1208 C1210 1.363 . S
C1208 H1224 0.931 . S
C1209 C1208 1.370 . S
C1209 C1213 1.408 . S
C1210 C1208 1.363 . S
C1210 C1211 1.370 . S
C1210 C1214 1.524 . S
C1211 C1203 1.503 1_655 S
C1211 C1210 1.370 . S
C1211 C1212 1.403 . S
C1212 C1211 1.403 . S
C1212 C1213 1.404 . S
C1212 C1215 1.539 1_655 S
C1213 C1209 1.408 . S
C1213 C1212 1.404 . S
C1213 H1225 0.930 . S
C1214 C1210 1.524 . S
C1214 H1226 0.956 . S
C1214 H1227 0.961 . S
C1214 H1228 0.961 . S
C1215 C1212 1.539 1_455 S
C1215 H1229 0.958 . S
C1215 H1230 0.961 . S
C1215 H1231 0.960 . S
H1216 C1200 0.931 . S
H1217 C1205 0.929 . S
H1218 C1206 0.960 . S
H1219 C1206 0.962 . S
H1220 C1206 0.960 . S
H1221 C1207 0.961 . S
H1222 C1207 0.961 1_655 S
H1223 C1207 0.961 . S
H1224 C1208 0.931 . S
H1225 C1213 0.930 . S
H1226 C1214 0.956 . S
H1227 C1214 0.961 . S
H1228 C1214 0.961 . S
H1229 C1215 0.958 . S
H1230 C1215 0.961 . S
H1231 C1215 0.960 . S
C1232 C1233 1.391 . S
C1232 C1234 1.394 . S
C1232 H1248 0.931 . S
C1233 C1232 1.391 . S
C1233 C1237 1.376 . S
C1234 C1232 1.394 . S
C1234 C1235 1.369 . S
C1234 C1238 1.531 . S
C1235 C1234 1.369 . S
C1235 C1236 1.410 . S
C1235 C1243 1.503 . S
C1236 C1235 1.410 . S
C1236 C1237 1.392 . S
C1236 C1239 1.511 . S
C1237 C1233 1.376 . S
C1237 C1236 1.392 . S
C1237 H1249 0.929 . S
C1238 C1234 1.531 . S
C1238 H1250 0.960 . S
C1238 H1251 0.962 . S
C1238 H1252 0.960 . S
C1239 C1236 1.511 . S
C1239 H1253 0.961 . S
C1239 H1254 0.961 . S
C1239 H1255 0.961 . S
C1240 C1241 1.370 . S
C1240 C1242 1.363 . S
C1240 H1256 0.931 . S
C1241 C1240 1.370 . S
C1241 C1245 1.408 . S
C1242 C1240 1.363 . S
C1242 C1243 1.370 . S
C1242 C1246 1.524 . S
C1243 C1235 1.503 . S
C1243 C1242 1.370 . S
C1243 C1244 1.403 . S
C1244 C1243 1.403 . S
C1244 C1245 1.404 . S
C1244 C1247 1.539 . S
C1245 C1241 1.408 . S
C1245 C1244 1.404 . S
C1245 H1257 0.930 . S
C1246 C1242 1.524 . S
C1246 H1258 0.956 . S
C1246 H1259 0.961 . S
C1246 H1260 0.961 . S
C1247 C1244 1.539 . S
C1247 H1261 0.958 . S
C1247 H1262 0.961 . S
C1247 H1263 0.960 . S
H1248 C1232 0.931 . S
H1249 C1237 0.929 . S
H1250 C1238 0.960 . S
H1251 C1238 0.962 . S
H1252 C1238 0.960 . S
H1253 C1239 0.961 . S
H1254 C1239 0.961 . S
H1255 C1239 0.961 . S
H1256 C1240 0.931 . S
H1257 C1245 0.930 . S
H1258 C1246 0.956 . S
H1259 C1246 0.961 . S
H1260 C1246 0.961 . S
H1261 C1247 0.958 . S
H1262 C1247 0.961 . S
H1263 C1247 0.960 . S
C1264 C1265 1.391 . S
C1264 C1266 1.394 . S
C1264 H1280 0.931 . S
C1265 C1264 1.391 . S
C1265 C1269 1.376 . S
C1266 C1264 1.394 . S
C1266 C1267 1.369 . S
C1266 C1270 1.531 . S
C1267 C1266 1.369 . S
C1267 C1268 1.410 . S
C1267 C1275 1.503 . S
C1268 C1267 1.410 . S
C1268 C1269 1.392 . S
C1268 C1271 1.511 . S
C1269 C1265 1.376 . S
C1269 C1268 1.392 . S
C1269 H1281 0.929 . S
C1270 C1266 1.531 . S
C1270 H1282 0.960 . S
C1270 H1283 0.962 . S
C1270 H1284 0.960 . S
C1271 C1268 1.511 . S
C1271 H1285 0.961 . S
C1271 H1286 0.961 . S
C1271 H1287 0.961 . S
C1272 C1273 1.370 . S
C1272 C1274 1.363 . S
C1272 H1288 0.931 . S
C1273 C1272 1.370 . S
C1273 C1277 1.408 . S
C1274 C1272 1.363 . S
C1274 C1275 1.370 . S
C1274 C1278 1.524 . S
C1275 C1267 1.503 . S
C1275 C1274 1.370 . S
C1275 C1276 1.403 . S
C1276 C1275 1.403 . S
C1276 C1277 1.404 . S
C1276 C1279 1.539 . S
C1277 C1273 1.408 . S
C1277 C1276 1.404 . S
C1277 H1289 0.930 . S
C1278 C1274 1.524 . S
C1278 H1290 0.956 . S
C1278 H1291 0.961 . S
C1278 H1292 0.961 . S
C1279 C1276 1.539 . S
C1279 H1293 0.958 . S
C1279 H1294 0.961 . S
C1279 H1295 0.960 . S
H1280 C1264 0.931 . S
H1281 C1269 0.929 . S
H1282 C1270 0.960 . S
H1283 C1270 0.962 . S
H1284 C1270 0.960 . S
H1285 C1271 0.961 . S
H1286 C1271 0.961 . S
H1287 C1271 0.961 . S
H1288 C1272 0.931 . S
H1289 C1277 0.930 . S
H1290 C1278 0.956 . S
H1291 C1278 0.961 . S
H1292 C1278 0.961 . S
H1293 C1279 0.958 . S
H1294 C1279 0.961 . S
H1295 C1279 0.960 . S
C1296 C1297 1.391 . S
C1296 C1298 1.394 . S
C1296 H1312 0.931 . S
C1297 C1296 1.391 . S
C1297 C1301 1.376 . S
C1298 C1296 1.394 . S
C1298 C1299 1.369 . S
C1298 C1302 1.531 . S
C1299 C1298 1.369 . S
C1299 C1300 1.410 . S
C1299 C1307 1.503 . S
C1300 C1299 1.410 . S
C1300 C1301 1.392 . S
C1300 C1303 1.511 . S
C1301 C1297 1.376 . S
C1301 C1300 1.392 . S
C1301 H1313 0.929 . S
C1302 C1298 1.531 . S
C1302 H1314 0.960 . S
C1302 H1315 0.962 . S
C1302 H1316 0.960 . S
C1303 C1300 1.511 . S
C1303 H1317 0.961 . S
C1303 H1318 0.961 . S
C1303 H1319 0.961 . S
C1304 C1305 1.370 . S
C1304 C1306 1.363 . S
C1304 H1320 0.931 . S
C1305 C1304 1.370 . S
C1305 C1309 1.408 . S
C1306 C1304 1.363 . S
C1306 C1307 1.370 . S
C1306 C1310 1.524 . S
C1307 C1299 1.503 . S
C1307 C1306 1.370 . S
C1307 C1308 1.403 . S
C1308 C1307 1.403 . S
C1308 C1309 1.404 . S
C1308 C1311 1.539 . S
C1309 C1305 1.408 . S
C1309 C1308 1.404 . S
C1309 H1321 0.930 . S
C1310 C1306 1.524 . S
C1310 H1322 0.956 . S
C1310 H1323 0.961 . S
C1310 H1324 0.961 . S
C1311 C1308 1.539 . S
C1311 H1325 0.958 . S
C1311 H1326 0.961 . S
C1311 H1327 0.960 . S
H1312 C1296 0.931 . S
H1313 C1301 0.929 . S
H1314 C1302 0.960 . S
H1315 C1302 0.962 . S
H1316 C1302 0.960 . S
H1317 C1303 0.961 . S
H1318 C1303 0.961 . S
H1319 C1303 0.961 . S
H1320 C1304 0.931 . S
H1321 C1309 0.930 . S
H1322 C1310 0.956 . S
H1323 C1310 0.961 . S
H1324 C1310 0.961 . S
H1325 C1311 0.958 . S
H1326 C1311 0.961 . S
H1327 C1311 0.960 . S
C1328 C1329 1.391 . S
C1328 C1330 1.394 . S
C1328 H1344 0.931 . S
C1329 C1328 1.391 . S
C1329 C1333 1.376 . S
C1330 C1328 1.394 . S
C1330 C1331 1.369 . S
C1330 C1334 1.531 . S
C1331 C1330 1.369 . S
C1331 C1332 1.410 . S
C1331 C1339 1.503 . S
C1332 C1331 1.410 . S
C1332 C1333 1.392 . S
C1332 C1335 1.511 . S
C1333 C1329 1.376 . S
C1333 C1332 1.392 . S
C1333 H1345 0.929 . S
C1334 C1330 1.531 . S
C1334 H1346 0.960 . S
C1334 H1347 0.962 . S
C1334 H1348 0.960 . S
C1335 C1332 1.511 . S
C1335 H1349 0.961 . S
C1335 H1350 0.961 . S
C1335 H1351 0.961 . S
C1336 C1337 1.370 . S
C1336 C1338 1.363 . S
C1336 H1352 0.931 . S
C1337 C1336 1.370 . S
C1337 C1341 1.408 . S
C1338 C1336 1.363 . S
C1338 C1339 1.370 . S
C1338 C1342 1.524 . S
C1339 C1331 1.503 . S
C1339 C1338 1.370 . S
C1339 C1340 1.403 . S
C1340 C1339 1.403 . S
C1340 C1341 1.404 . S
C1340 C1343 1.539 . S
C1341 C1337 1.408 . S
C1341 C1340 1.404 . S
C1341 H1353 0.930 . S
C1342 C1338 1.524 . S
C1342 H1354 0.956 . S
C1342 H1355 0.961 . S
C1342 H1356 0.961 . S
C1343 C1340 1.539 . S
C1343 H1357 0.958 . S
C1343 H1358 0.961 . S
C1343 H1359 0.960 . S
H1344 C1328 0.931 . S
H1345 C1333 0.929 . S
H1346 C1334 0.960 . S
H1347 C1334 0.962 . S
H1348 C1334 0.960 . S
H1349 C1335 0.961 . S
H1350 C1335 0.961 . S
H1351 C1335 0.961 . S
H1352 C1336 0.931 . S
H1353 C1341 0.930 . S
H1354 C1342 0.956 . S
H1355 C1342 0.961 . S
H1356 C1342 0.961 . S
H1357 C1343 0.958 . S
H1358 C1343 0.961 . S
H1359 C1343 0.960 . S
C1360 C1361 1.391 . S
C1360 C1362 1.394 . S
C1360 H1376 0.931 . S
C1361 C1360 1.391 . S
C1361 C1365 1.376 . S
C1362 C1360 1.394 . S
C1362 C1363 1.369 . S
C1362 C1366 1.531 . S
C1363 C1362 1.369 . S
C1363 C1364 1.410 . S
C1363 C1371 1.503 . S
C1364 C1363 1.410 . S
C1364 C1365 1.392 . S
C1364 C1367 1.511 . S
C1365 C1361 1.376 . S
C1365 C1364 1.392 . S
C1365 H1377 0.929 . S
C1366 C1362 1.531 . S
C1366 H1378 0.960 . S
C1366 H1379 0.962 . S
C1366 H1380 0.960 . S
C1367 C1364 1.511 . S
C1367 H1381 0.961 . S
C1367 H1382 0.961 . S
C1367 H1383 0.961 . S
C1368 C1369 1.370 1_655 S
C1368 C1370 1.363 . S
C1368 H1384 0.931 . S
C1369 C1368 1.370 1_455 S
C1369 C1373 1.408 . S
C1370 C1368 1.363 . S
C1370 C1371 1.370 . S
C1370 C1374 1.524 . S
C1371 C1363 1.503 . S
C1371 C1370 1.370 . S
C1371 C1372 1.403 . S
C1372 C1371 1.403 . S
C1372 C1373 1.404 1_655 S
C1372 C1375 1.539 . S
C1373 C1369 1.408 . S
C1373 C1372 1.404 1_455 S
C1373 H1385 0.930 . S
C1374 C1370 1.524 . S
C1374 H1386 0.956 . S
C1374 H1387 0.961 . S
C1374 H1388 0.961 . S
C1375 C1372 1.539 . S
C1375 H1389 0.958 . S
C1375 H1390 0.961 1_655 S
C1375 H1391 0.960 . S
H1376 C1360 0.931 . S
H1377 C1365 0.929 . S
H1378 C1366 0.960 . S
H1379 C1366 0.962 . S
H1380 C1366 0.960 . S
H1381 C1367 0.961 . S
H1382 C1367 0.961 . S
H1383 C1367 0.961 . S
H1384 C1368 0.931 . S
H1385 C1373 0.930 . S
H1386 C1374 0.956 . S
H1387 C1374 0.961 . S
H1388 C1374 0.961 . S
H1389 C1375 0.958 . S
H1390 C1375 0.961 1_455 S
H1391 C1375 0.960 . S
C241 C2 0.908 . S
C249 C222 1.022 . S
C273 C199 1.309 . S
C281 C22 1.240 . S
C305 C42 1.482 1_554 S
C313 C179 1.575 . S
C337 C79 1.923 . S
C345 C219 1.933 . S
C369 C99 1.530 . S
C377 C202 1.410 . S
C401 C119 1.850 . S
C409 C239 1.813 . S
C433 C182 1.337 . S
C441 C139 1.556 1_556 S
C465 C159 1.333 . S
C473 C162 1.214 . S
C497 C62 1.075 . S
C505 C82 0.979 . S
C529 C19 1.535 . S
C537 C102 1.388 1_455 S
C561 C39 1.568 1_655 S
C569 C122 1.427 . S
C593 C142 1.389 . S
C601 C59 1.538 1_554 S
C625 C9 1.681 . S
C633 C178 1.748 . S
C657 C29 1.691 . S
C665 C218 1.759 . S
C689 C224 1.338 . S
C697 C49 1.315 . S
C721 C72 1.363 . S
C729 C198 1.480 . S
C753 C92 1.035 . S
C761 C184 1.049 . S
C785 C164 1.348 . S
C793 C112 1.278 . S
C817 C204 1.647 . S
C825 C132 1.599 . S
C849 C238 1.530 . S
C857 C152 1.413 . S
C881 C18 1.566 . S
C889 C69 1.533 . S
C913 C12 1.592 . S
C921 C38 1.665 . S
C945 C32 1.646 . S
C953 C58 1.737 . S
C977 C64 1.609 . S
C985 C52 1.580 . S
C1009 C109 1.055 . S
C1017 C84 1.088 . S
C1041 C104 1.348 . S
C1049 C129 1.331 . S
C1073 C124 0.862 . S
C1081 C149 0.878 . S
C1105 C89 1.080 . S
C1113 C144 1.104 . S
C1137 C169 1.507 . S
C1145 C78 1.585 . S
C1169 C118 1.631 . S
C1177 C192 1.548 . S
C1201 C172 1.463 . S
C1209 C138 1.551 . S
C1233 C212 1.537 . S
C1241 C158 1.695 . S
C1265 C98 1.148 . S
C1273 C229 1.101 . S
C1297 C232 1.198 . S
C1305 C24 1.179 . S
C1329 C44 1.070 . S
C1337 C189 1.081 . S
C1361 C209 1.412 . S
C1369 C4 1.399 . S
