# Generated by pormake.
# Topology yfw, (5)-cn, num edge types: 1
# Building blocks:
#     Node 0, Type 0, BuildingBlock: BEQFEK_clean_sbu_0, # of connection points: 5
#     Node 1, Type 0, BuildingBlock: BEQFEK_clean_sbu_0, # of connection points: 5
#     Node 2, Type 0, BuildingBlock: BEQFEK_clean_sbu_0, # of connection points: 5
#     Node 3, Type 0, BuildingBlock: BEQFEK_clean_sbu_0, # of connection points: 5
#     Node 4, Type 0, BuildingBlock: BEQFEK_clean_sbu_0, # of connection points: 5
#     Node 5, Type 0, BuildingBlock: BEQFEK_clean_sbu_0, # of connection points: 5
#     Node 6, Type 0, BuildingBlock: BEQFEK_clean_sbu_0, # of connection points: 5
#     Node 7, Type 0, BuildingBlock: BEQFEK_clean_sbu_0, # of connection points: 5
#     Node 8, Type 0, BuildingBlock: BEQFEK_clean_sbu_0, # of connection points: 5
#     Node 9, Type 0, BuildingBlock: BEQFEK_clean_sbu_0, # of connection points: 5
#     Node 10, Type 0, BuildingBlock: BEQFEK_clean_sbu_0, # of connection points: 5
#     Node 11, Type 0, BuildingBlock: BEQFEK_clean_sbu_0, # of connection points: 5
#     Node 12, Type 0, BuildingBlock: BEQFEK_clean_sbu_0, # of connection points: 5
#     Node 13, Type 0, BuildingBlock: BEQFEK_clean_sbu_0, # of connection points: 5
#     Node 14, Type 0, BuildingBlock: BEQFEK_clean_sbu_0, # of connection points: 5
#     Node 15, Type 0, BuildingBlock: BEQFEK_clean_sbu_0, # of connection points: 5
#     Edge 16, Type (0, 0), BuildingBlock: OJICUG_clean_linker_0, # of connection points: 2
#     Edge 17, Type (0, 0), BuildingBlock: OJICUG_clean_linker_0, # of connection points: 2
#     Edge 18, Type (0, 0), BuildingBlock: OJICUG_clean_linker_0, # of connection points: 2
#     Edge 19, Type (0, 0), BuildingBlock: OJICUG_clean_linker_0, # of connection points: 2
#     Edge 20, Type (0, 0), BuildingBlock: OJICUG_clean_linker_0, # of connection points: 2
#     Edge 21, Type (0, 0), BuildingBlock: OJICUG_clean_linker_0, # of connection points: 2
#     Edge 22, Type (0, 0), BuildingBlock: OJICUG_clean_linker_0, # of connection points: 2
#     Edge 23, Type (0, 0), BuildingBlock: OJICUG_clean_linker_0, # of connection points: 2
#     Edge 24, Type (0, 0), BuildingBlock: OJICUG_clean_linker_0, # of connection points: 2
#     Edge 25, Type (0, 0), BuildingBlock: OJICUG_clean_linker_0, # of connection points: 2
#     Edge 26, Type (0, 0), BuildingBlock: OJICUG_clean_linker_0, # of connection points: 2
#     Edge 27, Type (0, 0), BuildingBlock: OJICUG_clean_linker_0, # of connection points: 2
#     Edge 28, Type (0, 0), BuildingBlock: OJICUG_clean_linker_0, # of connection points: 2
#     Edge 29, Type (0, 0), BuildingBlock: OJICUG_clean_linker_0, # of connection points: 2
#     Edge 30, Type (0, 0), BuildingBlock: OJICUG_clean_linker_0, # of connection points: 2
#     Edge 31, Type (0, 0), BuildingBlock: OJICUG_clean_linker_0, # of connection points: 2
#     Edge 32, Type (0, 0), BuildingBlock: OJICUG_clean_linker_0, # of connection points: 2
#     Edge 33, Type (0, 0), BuildingBlock: OJICUG_clean_linker_0, # of connection points: 2
#     Edge 34, Type (0, 0), BuildingBlock: OJICUG_clean_linker_0, # of connection points: 2
#     Edge 35, Type (0, 0), BuildingBlock: OJICUG_clean_linker_0, # of connection points: 2
#     Edge 36, Type (0, 0), BuildingBlock: OJICUG_clean_linker_0, # of connection points: 2
#     Edge 37, Type (0, 0), BuildingBlock: OJICUG_clean_linker_0, # of connection points: 2
#     Edge 38, Type (0, 0), BuildingBlock: OJICUG_clean_linker_0, # of connection points: 2
#     Edge 39, Type (0, 0), BuildingBlock: OJICUG_clean_linker_0, # of connection points: 2
#     Edge 40, Type (0, 0), BuildingBlock: OJICUG_clean_linker_0, # of connection points: 2
#     Edge 41, Type (0, 0), BuildingBlock: OJICUG_clean_linker_0, # of connection points: 2
#     Edge 42, Type (0, 0), BuildingBlock: OJICUG_clean_linker_0, # of connection points: 2
#     Edge 43, Type (0, 0), BuildingBlock: OJICUG_clean_linker_0, # of connection points: 2
#     Edge 44, Type (0, 0), BuildingBlock: OJICUG_clean_linker_0, # of connection points: 2
#     Edge 45, Type (0, 0), BuildingBlock: OJICUG_clean_linker_0, # of connection points: 2
#     Edge 46, Type (0, 0), BuildingBlock: OJICUG_clean_linker_0, # of connection points: 2
#     Edge 47, Type (0, 0), BuildingBlock: OJICUG_clean_linker_0, # of connection points: 2
#     Edge 48, Type (0, 0), BuildingBlock: OJICUG_clean_linker_0, # of connection points: 2
#     Edge 49, Type (0, 0), BuildingBlock: OJICUG_clean_linker_0, # of connection points: 2
#     Edge 50, Type (0, 0), BuildingBlock: OJICUG_clean_linker_0, # of connection points: 2
#     Edge 51, Type (0, 0), BuildingBlock: OJICUG_clean_linker_0, # of connection points: 2
#     Edge 52, Type (0, 0), BuildingBlock: OJICUG_clean_linker_0, # of connection points: 2
#     Edge 53, Type (0, 0), BuildingBlock: OJICUG_clean_linker_0, # of connection points: 2
#     Edge 54, Type (0, 0), BuildingBlock: OJICUG_clean_linker_0, # of connection points: 2
#     Edge 55, Type (0, 0), BuildingBlock: OJICUG_clean_linker_0, # of connection points: 2
# Relax obj value: 0.067
# Max RMSD: 0.118
# Mean RMSD: 0.118
data_MOF--net-yfw--node1-BEQFEK_clean_sbu_0--edge1-OJICUG_clean_linker_0
_symmetry_space_group_name_H-M    P1
_symmetry_Int_Tables_number       1
_symmetry_cell_setting            triclinic
loop_
_symmetry_equiv_pos_as_xyz
'x, y, z'
_cell_length_a     42.782607
_cell_length_b     42.866321
_cell_length_c     21.045865
_cell_angle_alpha  90.058144
_cell_angle_beta   89.983131
_cell_angle_gamma 90.033975
loop_
_atom_site_label
_atom_site_type_symbol
_atom_site_fract_x
_atom_site_fract_y
_atom_site_fract_z
_atom_type_partial_charge
Co0 Co 0.1198 0.05195 0.0234 0.0
Co1 Co 0.18966 0.07688 0.02186 0.0
C2 C 0.13802 0.11751 0.06593 0.0
O3 O 0.11854 0.09535 0.05695 0.0
O4 O 0.1668 0.11477 0.051 0.0
C5 C 0.05505 0.04026 0.97702 0.0
O6 O 0.05956 0.06156 0.93316 0.0
C7 C 0.24804 0.10689 0.97411 0.0
C8 C 0.28201 0.07038 0.00073 0.0
C9 C 0.27907 0.09773 0.96621 0.0
N10 N 0.23332 0.0851 0.00934 0.0
N11 N 0.25408 0.06397 0.02667 0.0
C12 C 0.23177 0.13384 0.94339 0.0
H13 H 0.20606 0.13032 0.94403 0.0
H14 H 0.24005 0.13701 0.89383 0.0
H15 H 0.23731 0.15543 0.97026 0.0
C16 C 0.13734 0.03274 0.89296 0.0
N17 N 0.14336 0.04802 0.94761 0.0
N18 N 0.17219 0.05896 0.94589 0.0
C19 C 0.18498 0.05147 0.88905 0.0
C20 C 0.1632 0.035 0.85389 0.0
C21 C 0.10972 0.01195 0.88191 0.0
H22 H 0.10124 0.00216 0.92742 0.0
H23 H 0.09084 0.02551 0.85882 0.0
H24 H 0.11588 0.99235 0.84975 0.0
O25 O 0.13967 0.0268 0.08833 0.0
O26 O 0.18775 0.04615 0.09343 0.0
H27 H 0.23448 0.04981 0.9032 0.0
H28 H 0.2231 0.04998 0.82081 0.0
C29 C 0.21752 0.05931 0.86856 0.0
H30 H 0.21997 0.08491 0.86611 0.0
H31 H 0.24869 0.04395 0.05263 0.0
O32 O 0.0766 0.03422 0.01672 0.0
C33 C 0.16668 0.0275 0.11318 0.0
Co34 Co 0.94835 0.61993 0.27078 0.0
Co35 Co 0.92588 0.69038 0.27154 0.0
C36 C 0.88274 0.63874 0.30922 0.0
O37 O 0.90392 0.61838 0.29868 0.0
O38 O 0.88757 0.66769 0.29904 0.0
C39 C 0.96076 0.55515 0.22517 0.0
O40 O 0.93902 0.55885 0.18177 0.0
C41 C 0.89594 0.74813 0.22304 0.0
C42 C 0.9315 0.78271 0.25212 0.0
C43 C 0.90464 0.77925 0.216 0.0
N44 N 0.91751 0.73384 0.2595 0.0
N45 N 0.93806 0.75492 0.27828 0.0
C46 C 0.86986 0.73137 0.19012 0.0
H47 H 0.87411 0.70582 0.19009 0.0
H48 H 0.86715 0.73993 0.14067 0.0
H49 H 0.84772 0.73605 0.21585 0.0
C50 C 0.96945 0.63804 0.1418 0.0
N51 N 0.95415 0.64411 0.19641 0.0
N52 N 0.94432 0.67328 0.19568 0.0
C53 C 0.95271 0.68634 0.13966 0.0
C54 C 0.96848 0.66431 0.10386 0.0
C55 C 0.98876 0.60955 0.12949 0.0
H56 H 0.99891 0.60075 0.1744 0.0
H57 H 0.97389 0.5913 0.1076 0.0
H58 H 0.00814 0.61468 0.09602 0.0
O59 O 0.97227 0.63898 0.33922 0.0
O60 O 0.95609 0.68811 0.3436 0.0
H61 H 0.95525 0.73547 0.1574 0.0
H62 H 0.95716 0.72538 0.07442 0.0
C63 C 0.94631 0.71933 0.12055 0.0
H64 H 0.92085 0.72252 0.11521 0.0
H65 H 0.95783 0.74987 0.30539 0.0
O66 O 0.9666 0.57707 0.26411 0.0
C67 C 0.97306 0.66593 0.36419 0.0
Co68 Co 0.38408 0.4466 0.51989 0.0
Co69 Co 0.31319 0.42466 0.52205 0.0
C70 C 0.36508 0.38127 0.55816 0.0
O71 O 0.38564 0.40221 0.5472 0.0
O72 O 0.33605 0.38638 0.5488 0.0
C73 C 0.4493 0.45926 0.47481 0.0
O74 O 0.44593 0.43756 0.43123 0.0
C75 C 0.25511 0.39491 0.47355 0.0
C76 C 0.22035 0.4294 0.50655 0.0
C77 C 0.22373 0.40321 0.4685 0.0
N78 N 0.26957 0.41606 0.51082 0.0
N79 N 0.2484 0.43596 0.53189 0.0
C80 C 0.27185 0.3696 0.43831 0.0
H81 H 0.29741 0.37414 0.43764 0.0
H82 H 0.26284 0.36755 0.38904 0.0
H83 H 0.26762 0.34706 0.46272 0.0
C84 C 0.36535 0.46775 0.39131 0.0
N85 N 0.35942 0.45259 0.44606 0.0
N86 N 0.33 0.44329 0.44618 0.0
C87 C 0.31657 0.45209 0.39077 0.0
C88 C 0.33868 0.46738 0.35429 0.0
C89 C 0.39433 0.4862 0.3779 0.0
H90 H 0.40351 0.49657 0.42232 0.0
H91 H 0.41217 0.47069 0.35653 0.0
H92 H 0.38959 0.50533 0.34371 0.0
O93 O 0.36533 0.47023 0.58915 0.0
O94 O 0.31592 0.45465 0.59431 0.0
H95 H 0.26766 0.4549 0.41174 0.0
H96 H 0.27659 0.45867 0.3285 0.0
C97 C 0.28314 0.44665 0.37308 0.0
H98 H 0.27942 0.42144 0.36532 0.0
H99 H 0.25349 0.45531 0.56016 0.0
O100 O 0.42708 0.46498 0.51321 0.0
C101 C 0.33848 0.47127 0.6147 0.0
Co102 Co 0.55637 0.88375 0.76788 0.0
Co103 Co 0.57813 0.81296 0.77041 0.0
C104 C 0.62153 0.86476 0.80754 0.0
O105 O 0.60065 0.88531 0.79625 0.0
O106 O 0.6164 0.83581 0.79783 0.0
C107 C 0.54376 0.94905 0.72372 0.0
O108 O 0.56581 0.94613 0.68069 0.0
C109 C 0.60784 0.75504 0.72187 0.0
C110 C 0.57324 0.72033 0.7547 0.0
C111 C 0.59944 0.72373 0.71658 0.0
N112 N 0.58671 0.76943 0.75929 0.0
N113 N 0.56675 0.7483 0.78027 0.0
C114 C 0.63317 0.7718 0.68666 0.0
H115 H 0.62859 0.79729 0.68604 0.0
H116 H 0.63523 0.7628 0.63737 0.0
H117 H 0.65576 0.76765 0.71109 0.0
C118 C 0.53592 0.86509 0.63869 0.0
N119 N 0.55073 0.85914 0.69385 0.0
N120 N 0.55978 0.8297 0.69432 0.0
C121 C 0.55105 0.81625 0.63886 0.0
C122 C 0.53617 0.83838 0.6019 0.0
C123 C 0.51794 0.89422 0.62457 0.0
H124 H 0.50711 0.90341 0.66852 0.0
H125 H 0.53398 0.91191 0.60432 0.0
H126 H 0.49917 0.88978 0.5893 0.0
O127 O 0.53242 0.86503 0.83664 0.0
O128 O 0.54787 0.8157 0.8421 0.0
H129 H 0.54773 0.76756 0.66067 0.0
H130 H 0.54373 0.77612 0.57737 0.0
C131 C 0.55603 0.78274 0.62165 0.0
H132 H 0.5812 0.77872 0.61349 0.0
H133 H 0.54739 0.75336 0.8086 0.0
O134 O 0.53789 0.9266 0.76129 0.0
C135 C 0.53121 0.83825 0.8622 0.0
Co136 Co 0.88406 0.0518 0.52521 0.0
Co137 Co 0.81441 0.07719 0.52209 0.0
C138 C 0.86594 0.1176 0.56701 0.0
O139 O 0.88526 0.09526 0.55862 0.0
O140 O 0.83722 0.11507 0.55141 0.0
C141 C 0.94869 0.03996 0.47894 0.0
O142 O 0.944 0.06104 0.43471 0.0
C143 C 0.75601 0.10709 0.47388 0.0
C144 C 0.72226 0.07004 0.4988 0.0
C145 C 0.7251 0.09766 0.46516 0.0
N146 N 0.77078 0.08519 0.50873 0.0
N147 N 0.75013 0.06372 0.52503 0.0
C148 C 0.77216 0.13444 0.44429 0.0
H149 H 0.7979 0.13125 0.4455 0.0
H150 H 0.76416 0.1378 0.39461 0.0
H151 H 0.76618 0.15578 0.47156 0.0
C152 C 0.86695 0.03227 0.39479 0.0
N153 N 0.86085 0.04783 0.44907 0.0
N154 N 0.83222 0.05918 0.44651 0.0
C155 C 0.81972 0.05183 0.38935 0.0
C156 C 0.84142 0.03487 0.35498 0.0
C157 C 0.89418 0.01087 0.38488 0.0
H158 H 0.90238 0.00139 0.43086 0.0
H159 H 0.91337 0.02381 0.36131 0.0
H160 H 0.88768 0.99107 0.35352 0.0
O161 O 0.86382 0.02672 0.58973 0.0
O162 O 0.81592 0.04655 0.59394 0.0
H163 H 0.77004 0.05064 0.40085 0.0
H164 H 0.7825 0.05187 0.3191 0.0
C165 C 0.78758 0.06043 0.36769 0.0
H166 H 0.78553 0.08608 0.36675 0.0
H167 H 0.75558 0.04357 0.55049 0.0
O168 O 0.92726 0.03407 0.51905 0.0
C169 C 0.8367 0.02771 0.61409 0.0
Co170 Co 0.94809 0.38475 0.76676 0.0
Co171 Co 0.92716 0.31371 0.76849 0.0
C172 C 0.88323 0.36413 0.8084 0.0
O173 O 0.90386 0.3849 0.79645 0.0
O174 O 0.88856 0.3352 0.79866 0.0
C175 C 0.95987 0.44975 0.72024 0.0
O176 O 0.93911 0.44558 0.67508 0.0
C177 C 0.89826 0.25309 0.72819 0.0
C178 C 0.93911 0.22245 0.74246 0.0
C179 C 0.90912 0.22273 0.71739 0.0
N180 N 0.92142 0.26977 0.75553 0.0
N181 N 0.94539 0.251 0.76524 0.0
C182 C 0.86672 0.26635 0.71357 0.0
H183 H 0.86225 0.28733 0.74302 0.0
H184 H 0.86561 0.27335 0.66292 0.0
H185 H 0.84827 0.24872 0.72274 0.0
C186 C 0.96813 0.36674 0.63681 0.0
N187 N 0.95361 0.36065 0.69226 0.0
N188 N 0.94336 0.33163 0.69155 0.0
C189 C 0.95011 0.31889 0.63434 0.0
C190 C 0.96583 0.34075 0.5981 0.0
C191 C 0.98801 0.39483 0.62426 0.0
H192 H 0.99773 0.40407 0.66924 0.0
H193 H 0.97373 0.41298 0.60061 0.0
H194 H 0.00768 0.38894 0.59202 0.0
O195 O 0.97309 0.36661 0.83403 0.0
O196 O 0.95848 0.31706 0.83887 0.0
H197 H 0.95498 0.26943 0.64189 0.0
H198 H 0.94616 0.28271 0.56268 0.0
C199 C 0.94146 0.28662 0.61388 0.0
H200 H 0.91625 0.2829 0.62215 0.0
H201 H 0.9667 0.25813 0.78439 0.0
O202 O 0.96527 0.42805 0.75985 0.0
C203 C 0.97502 0.33975 0.85888 0.0
Co204 Co 0.62041 0.44703 0.02112 0.0
Co205 Co 0.69122 0.42494 0.02214 0.0
C206 C 0.63949 0.3816 0.05898 0.0
O207 O 0.61899 0.40263 0.04845 0.0
O208 O 0.6685 0.3866 0.04913 0.0
C209 C 0.55527 0.45941 0.97607 0.0
O210 O 0.5589 0.43789 0.93224 0.0
C211 C 0.74943 0.39536 0.9736 0.0
C212 C 0.78395 0.43049 0.00499 0.0
C213 C 0.78073 0.40396 0.96786 0.0
N214 N 0.73487 0.41665 0.01035 0.0
N215 N 0.75591 0.43695 0.03045 0.0
C216 C 0.73284 0.36957 0.93948 0.0
H217 H 0.70723 0.37378 0.93916 0.0
H218 H 0.74167 0.36727 0.89011 0.0
H219 H 0.73744 0.34728 0.96451 0.0
C220 C 0.63877 0.46835 0.89247 0.0
N221 N 0.64482 0.45306 0.947 0.0
N222 N 0.67415 0.4435 0.94646 0.0
C223 C 0.68734 0.45213 0.8907 0.0
C224 C 0.66522 0.46771 0.85479 0.0
C225 C 0.61001 0.48725 0.87995 0.0
H226 H 0.601 0.49733 0.92479 0.0
H227 H 0.59195 0.47215 0.85806 0.0
H228 H 0.61497 0.50661 0.84644 0.0
O229 O 0.63931 0.47076 0.08999 0.0
O230 O 0.68865 0.45494 0.09451 0.0
H231 H 0.73645 0.45481 0.90956 0.0
H232 H 0.72678 0.45746 0.82646 0.0
C233 C 0.72054 0.44615 0.872 0.0
H234 H 0.72395 0.42081 0.86567 0.0
H235 H 0.75071 0.45647 0.05815 0.0
O236 O 0.57735 0.46518 0.01478 0.0
C237 C 0.66625 0.47168 0.11516 0.0
Co238 Co 0.55696 0.11954 0.27062 0.0
Co239 Co 0.57848 0.1904 0.27305 0.0
C240 C 0.62242 0.13876 0.30817 0.0
O241 O 0.60156 0.11813 0.29705 0.0
O242 O 0.61703 0.16773 0.29949 0.0
C243 C 0.54454 0.05445 0.22542 0.0
O244 O 0.56635 0.0579 0.18206 0.0
C245 C 0.60799 0.24824 0.22398 0.0
C246 C 0.57351 0.28301 0.25699 0.0
C247 C 0.59962 0.27954 0.21864 0.0
N248 N 0.58694 0.23392 0.26168 0.0
N249 N 0.56705 0.25509 0.28274 0.0
C250 C 0.6332 0.23139 0.18855 0.0
H251 H 0.62856 0.20591 0.18808 0.0
H252 H 0.63513 0.24028 0.13919 0.0
H253 H 0.65587 0.23557 0.2127 0.0
C254 C 0.53534 0.13818 0.1423 0.0
N255 N 0.55058 0.14417 0.197 0.0
N256 N 0.55969 0.1736 0.19722 0.0
C257 C 0.55066 0.18698 0.14195 0.0
C258 C 0.53544 0.16483 0.10542 0.0
C259 C 0.51712 0.1091 0.12877 0.0
H260 H 0.50675 0.09987 0.17312 0.0
H261 H 0.53285 0.09141 0.10755 0.0
H262 H 0.49797 0.11364 0.09443 0.0
O263 O 0.53346 0.1381 0.34035 0.0
O264 O 0.54858 0.18757 0.34547 0.0
H265 H 0.54762 0.23575 0.16334 0.0
H266 H 0.54344 0.22694 0.08014 0.0
C267 C 0.55578 0.22041 0.12439 0.0
H268 H 0.58096 0.22431 0.11608 0.0
H269 H 0.54775 0.25007 0.31128 0.0
O270 O 0.53867 0.0766 0.26384 0.0
C271 C 0.53221 0.16489 0.36597 0.0
Co272 Co 0.62029 0.55597 0.51965 0.0
Co273 Co 0.69128 0.57743 0.52318 0.0
C274 C 0.63921 0.62118 0.55793 0.0
O275 O 0.61855 0.6004 0.54647 0.0
O276 O 0.66825 0.61578 0.54944 0.0
C277 C 0.55495 0.54334 0.47495 0.0
O278 O 0.55795 0.56547 0.43226 0.0
C279 C 0.74904 0.60711 0.47396 0.0
C280 C 0.78424 0.57364 0.50914 0.0
C281 C 0.78055 0.59921 0.46957 0.0
N282 N 0.73483 0.58632 0.51235 0.0
N283 N 0.75624 0.56705 0.53469 0.0
C284 C 0.73193 0.63157 0.4371 0.0
H285 H 0.70648 0.62649 0.4363 0.0
H286 H 0.74109 0.63312 0.38786 0.0
H287 H 0.73558 0.65452 0.46036 0.0
C288 C 0.63938 0.53492 0.39106 0.0
N289 N 0.64524 0.54985 0.44617 0.0
N290 N 0.67483 0.55859 0.44717 0.0
C291 C 0.68852 0.54943 0.39222 0.0
C292 C 0.66635 0.53469 0.35491 0.0
C293 C 0.60996 0.51744 0.3763 0.0
H294 H 0.60054 0.50655 0.41997 0.0
H295 H 0.5925 0.53378 0.35632 0.0
H296 H 0.61419 0.4988 0.34067 0.0
O297 O 0.63881 0.53257 0.58951 0.0
O298 O 0.68838 0.54755 0.59533 0.0
H299 H 0.73708 0.54625 0.41619 0.0
H300 H 0.72919 0.54048 0.33305 0.0
C301 C 0.72229 0.55377 0.37592 0.0
H302 H 0.72663 0.57866 0.36568 0.0
H303 H 0.75137 0.54804 0.56401 0.0
O304 O 0.5774 0.5374 0.51261 0.0
C305 C 0.66556 0.53125 0.61547 0.0
Co306 Co 0.44716 0.11946 0.77078 0.0
Co307 Co 0.42562 0.19028 0.77311 0.0
C308 C 0.38172 0.13862 0.80856 0.0
O309 O 0.40259 0.11802 0.79745 0.0
O310 O 0.38707 0.16759 0.7997 0.0
C311 C 0.45953 0.0544 0.72551 0.0
O312 O 0.43775 0.05786 0.68215 0.0
C313 C 0.39618 0.2481 0.72391 0.0
C314 C 0.43073 0.28287 0.75674 0.0
C315 C 0.40462 0.27938 0.71841 0.0
N316 N 0.41719 0.2338 0.76168 0.0
N317 N 0.43712 0.25498 0.78264 0.0
C318 C 0.37094 0.23123 0.68857 0.0
H319 H 0.37553 0.20574 0.68821 0.0
H320 H 0.36903 0.24007 0.63918 0.0
H321 H 0.34828 0.23545 0.71273 0.0
C322 C 0.46876 0.13807 0.64239 0.0
N323 N 0.45351 0.14406 0.69709 0.0
N324 N 0.44438 0.17347 0.69726 0.0
C325 C 0.45343 0.18684 0.64196 0.0
C326 C 0.46866 0.1647 0.60547 0.0
C327 C 0.48704 0.10903 0.62893 0.0
H328 H 0.49738 0.09983 0.67332 0.0
H329 H 0.47135 0.0913 0.60765 0.0
H330 H 0.50622 0.11362 0.59466 0.0
O331 O 0.47072 0.13807 0.84038 0.0
O332 O 0.45554 0.18751 0.84546 0.0
H333 H 0.45649 0.23562 0.66325 0.0
H334 H 0.46065 0.22678 0.58006 0.0
C335 C 0.44832 0.22026 0.62435 0.0
H336 H 0.42314 0.22413 0.61606 0.0
H337 H 0.45641 0.24997 0.81118 0.0
O338 O 0.46541 0.07652 0.76399 0.0
C339 C 0.47194 0.16488 0.86595 0.0
Co340 Co 0.88263 0.94544 0.01713 0.0
Co341 Co 0.8115 0.92518 0.02503 0.0
C342 C 0.86394 0.88089 0.05686 0.0
O343 O 0.88478 0.90117 0.0435 0.0
O344 O 0.83488 0.88688 0.0506 0.0
C345 C 0.94816 0.95791 0.97258 0.0
O346 O 0.94585 0.93508 0.9312 0.0
C347 C 0.7543 0.89542 0.97518 0.0
C348 C 0.71835 0.92693 0.01467 0.0
C349 C 0.72259 0.90251 0.97228 0.0
N350 N 0.76809 0.91557 0.01557 0.0
N351 N 0.74628 0.93364 0.04047 0.0
C352 C 0.77195 0.87262 0.93498 0.0
H353 H 0.79719 0.87861 0.93395 0.0
H354 H 0.76243 0.87202 0.88594 0.0
H355 H 0.7693 0.84897 0.95569 0.0
C356 C 0.86242 0.96545 0.88863 0.0
N357 N 0.85691 0.95145 0.94481 0.0
N358 N 0.82703 0.94393 0.94827 0.0
C359 C 0.81268 0.95347 0.89435 0.0
C360 C 0.83479 0.9667 0.85472 0.0
C361 C 0.89257 0.98073 0.87035 0.0
H362 H 0.90907 0.9627 0.85311 0.0
H363 H 0.88913 0.99804 0.8318 0.0
H364 H 0.90279 0.99283 0.91193 0.0
O365 O 0.86487 0.96874 0.08825 0.0
O366 O 0.81499 0.95522 0.09662 0.0
H367 H 0.771 0.96716 0.84265 0.0
H368 H 0.7724 0.92743 0.86664 0.0
C369 C 0.77832 0.95144 0.88158 0.0
H370 H 0.76502 0.95762 0.92487 0.0
H371 H 0.75079 0.95203 0.07165 0.0
O372 O 0.92529 0.96425 0.00893 0.0
C373 C 0.83851 0.97085 0.11564 0.0
Co374 Co 0.05662 0.38453 0.26661 0.0
Co375 Co 0.07721 0.31342 0.26856 0.0
C376 C 0.12131 0.36388 0.30835 0.0
O377 O 0.10081 0.38472 0.29624 0.0
O378 O 0.11583 0.33496 0.29875 0.0
C379 C 0.04486 0.44978 0.2212 0.0
O380 O 0.06593 0.44607 0.17643 0.0
C381 C 0.1061 0.25295 0.22773 0.0
C382 C 0.06552 0.22206 0.24333 0.0
C383 C 0.09533 0.2225 0.21731 0.0
N384 N 0.08304 0.26949 0.25572 0.0
N385 N 0.05926 0.25057 0.26624 0.0
C386 C 0.13743 0.26646 0.21205 0.0
H387 H 0.1418 0.28774 0.24066 0.0
H388 H 0.13828 0.27302 0.16114 0.0
H389 H 0.15611 0.24912 0.22156 0.0
C390 C 0.03673 0.36661 0.13653 0.0
N391 N 0.05108 0.36044 0.19209 0.0
N392 N 0.06099 0.3313 0.19158 0.0
C393 C 0.05407 0.31853 0.13449 0.0
C394 C 0.03868 0.34051 0.09804 0.0
C395 C 0.0174 0.39501 0.12361 0.0
H396 H 0.00739 0.40423 0.16834 0.0
H397 H 0.0322 0.41305 0.10085 0.0
H398 H 0.99794 0.38953 0.09054 0.0
O399 O 0.03163 0.36638 0.33393 0.0
O400 O 0.04587 0.31675 0.33891 0.0
H401 H 0.04876 0.26915 0.14345 0.0
H402 H 0.05688 0.28189 0.06354 0.0
C403 C 0.06215 0.28606 0.11442 0.0
H404 H 0.0874 0.28216 0.12162 0.0
H405 H 0.03804 0.25758 0.28602 0.0
O406 O 0.03934 0.42777 0.26003 0.0
C407 C 0.0295 0.33955 0.35886 0.0
Co408 Co 0.38403 0.55555 0.01994 0.0
Co409 Co 0.31311 0.57713 0.02245 0.0
C410 C 0.36505 0.62082 0.05802 0.0
O411 O 0.38567 0.59998 0.04686 0.0
O412 O 0.33602 0.6155 0.0491 0.0
C413 C 0.44938 0.54306 0.97562 0.0
O414 O 0.44631 0.56506 0.9327 0.0
C415 C 0.25544 0.60684 0.97301 0.0
C416 C 0.22029 0.57274 0.0061 0.0
C417 C 0.22403 0.59867 0.96755 0.0
N418 N 0.26957 0.58584 0.01099 0.0
N419 N 0.24818 0.56619 0.03211 0.0
C420 C 0.27256 0.63175 0.93737 0.0
H421 H 0.29805 0.6269 0.93694 0.0
H422 H 0.26365 0.63364 0.88801 0.0
H423 H 0.2686 0.65447 0.96135 0.0
C424 C 0.36537 0.53442 0.89118 0.0
N425 N 0.35937 0.54943 0.94613 0.0
N426 N 0.32985 0.5584 0.94656 0.0
C427 C 0.31639 0.54939 0.89128 0.0
C428 C 0.3386 0.53443 0.85446 0.0
C429 C 0.39464 0.51658 0.87717 0.0
H430 H 0.40386 0.5059 0.9212 0.0
H431 H 0.41232 0.53262 0.85684 0.0
H432 H 0.3903 0.49775 0.84201 0.0
O433 O 0.36527 0.53205 0.08938 0.0
O434 O 0.31575 0.54721 0.09465 0.0
H435 H 0.26761 0.54626 0.91338 0.0
H436 H 0.27616 0.54161 0.83019 0.0
C437 C 0.28281 0.55423 0.87406 0.0
H438 H 0.27878 0.57929 0.86516 0.0
H439 H 0.25303 0.54697 0.06084 0.0
O440 O 0.42695 0.53712 0.01336 0.0
C441 C 0.33843 0.5308 0.11499 0.0
Co442 Co 0.448 0.8836 0.26839 0.0
Co443 Co 0.42612 0.8128 0.27028 0.0
C444 C 0.38272 0.86442 0.30769 0.0
O445 O 0.40367 0.88496 0.29665 0.0
O446 O 0.38779 0.83547 0.29781 0.0
C447 C 0.46049 0.94886 0.22407 0.0
O448 O 0.43862 0.94569 0.18076 0.0
C449 C 0.3965 0.7547 0.22198 0.0
C450 C 0.43161 0.72026 0.25351 0.0
C451 C 0.40512 0.72348 0.21619 0.0
N452 N 0.41777 0.76923 0.25888 0.0
N453 N 0.43804 0.74825 0.27909 0.0
C454 C 0.37077 0.77128 0.1877 0.0
H455 H 0.37509 0.79682 0.18727 0.0
H456 H 0.36849 0.76241 0.13836 0.0
H457 H 0.34838 0.76679 0.21271 0.0
C458 C 0.46862 0.86517 0.1392 0.0
N459 N 0.45371 0.85913 0.19423 0.0
N460 N 0.44443 0.82975 0.19427 0.0
C461 C 0.453 0.81646 0.13856 0.0
C462 C 0.46812 0.8386 0.10197 0.0
C463 C 0.48697 0.89416 0.12565 0.0
H464 H 0.49756 0.90327 0.16992 0.0
H465 H 0.47127 0.91197 0.10486 0.0
H466 H 0.50596 0.88954 0.09094 0.0
O467 O 0.47198 0.86484 0.33695 0.0
O468 O 0.45636 0.81553 0.34206 0.0
H469 H 0.45614 0.7676 0.15877 0.0
H470 H 0.45921 0.77673 0.07553 0.0
C471 C 0.44752 0.78312 0.12062 0.0
H472 H 0.42222 0.77936 0.11369 0.0
H473 H 0.45756 0.75345 0.30688 0.0
O474 O 0.46633 0.92653 0.26195 0.0
C475 C 0.47309 0.83801 0.3623 0.0
Co476 Co 0.12118 0.94547 0.51758 0.0
Co477 Co 0.19227 0.925 0.52394 0.0
C478 C 0.14007 0.88092 0.5578 0.0
O479 O 0.11926 0.9013 0.54498 0.0
O480 O 0.16911 0.8867 0.55036 0.0
C481 C 0.05554 0.95768 0.47371 0.0
O482 O 0.05791 0.935 0.43201 0.0
C483 C 0.24972 0.89527 0.47468 0.0
C484 C 0.28533 0.92783 0.51198 0.0
C485 C 0.28133 0.9028 0.47101 0.0
N486 N 0.23574 0.91577 0.51407 0.0
N487 N 0.25737 0.93448 0.53769 0.0
C488 C 0.23231 0.87161 0.43611 0.0
H489 H 0.20697 0.87717 0.43509 0.0
H490 H 0.24169 0.87047 0.38699 0.0
H491 H 0.23539 0.84832 0.45818 0.0
C492 C 0.14079 0.96527 0.38853 0.0
N493 N 0.14652 0.95124 0.44458 0.0
N494 N 0.17633 0.94341 0.4472 0.0
C495 C 0.19038 0.95261 0.39269 0.0
C496 C 0.16817 0.96611 0.35371 0.0
C497 C 0.1108 0.9811 0.37132 0.0
H498 H 0.10087 0.99295 0.41349 0.0
H499 H 0.09399 0.96346 0.35358 0.0
H500 H 0.11437 0.99872 0.33339 0.0
O501 O 0.13921 0.96917 0.58773 0.0
O502 O 0.18898 0.95522 0.59536 0.0
H503 H 0.23839 0.95673 0.42073 0.0
H504 H 0.23173 0.96453 0.33793 0.0
C505 C 0.22456 0.94982 0.37859 0.0
H506 H 0.22995 0.92542 0.3657 0.0
H507 H 0.25269 0.95321 0.56792 0.0
O508 O 0.07842 0.96404 0.51 0.0
C509 C 0.16571 0.97114 0.61457 0.0
Co510 Co 0.05698 0.62 0.76798 0.0
Co511 Co 0.07856 0.69069 0.77264 0.0
C512 C 0.12219 0.6385 0.80711 0.0
O513 O 0.10139 0.61794 0.79511 0.0
O514 O 0.11683 0.66751 0.79897 0.0
C515 C 0.04425 0.555 0.72248 0.0
O516 O 0.06671 0.55789 0.68036 0.0
C517 C 0.10865 0.74806 0.72383 0.0
C518 C 0.07536 0.78344 0.75912 0.0
C519 C 0.10092 0.77952 0.71944 0.0
N520 N 0.08776 0.73406 0.76235 0.0
N521 N 0.06861 0.75557 0.78481 0.0
C522 C 0.13296 0.7308 0.68666 0.0
H523 H 0.12762 0.70546 0.68563 0.0
H524 H 0.13459 0.74003 0.63751 0.0
H525 H 0.15601 0.73418 0.70984 0.0
C526 C 0.03629 0.63933 0.63943 0.0
N527 N 0.05108 0.64505 0.69475 0.0
N528 N 0.05982 0.67458 0.69625 0.0
C529 C 0.05074 0.68839 0.64144 0.0
C530 C 0.03613 0.66635 0.60367 0.0
C531 C 0.01883 0.61 0.62411 0.0
H532 H 0.00764 0.6006 0.66747 0.0
H533 H 0.03531 0.59257 0.60443 0.0
H534 H 1.00038 0.61425 0.58808 0.0
O535 O 0.03345 0.63834 0.83799 0.0
O536 O 0.04845 0.68779 0.84449 0.0
H537 H 0.04752 0.73675 0.66651 0.0
H538 H 0.04138 0.72921 0.58335 0.0
C539 C 0.05493 0.72218 0.62578 0.0
H540 H 0.0798 0.72665 0.61509 0.0
H541 H 0.04954 0.75084 0.81418 0.0
O542 O 0.0382 0.57738 0.76019 0.0
C543 C 0.03208 0.66497 0.86429 0.0
C544 C 0.99012 0.98794 0.91642 0.0
C545 C 0.97588 0.97846 0.97337 0.0
H546 H 0.02583 0.01599 0.8729 0.0
C547 C 0.98735 0.99008 0.03129 0.0
H548 H 0.98145 0.97958 0.87113 0.0
C549 C 0.01306 0.01026 0.03238 0.0
C550 C 0.02702 0.02013 0.97546 0.0
H551 H 0.97667 0.98321 0.07582 0.0
H552 H 0.02188 0.01839 0.07773 0.0
C553 C 0.01519 0.00901 0.9174 0.0
C554 C 0.9917 0.51499 0.16576 0.0
C555 C 0.98156 0.52765 0.22383 0.0
H556 H 0.0207 0.48095 0.11943 0.0
C557 C 0.99306 0.51508 0.2808 0.0
H558 H 0.98349 0.52456 0.12117 0.0
C559 C 0.01378 0.48984 0.27982 0.0
C560 C 0.0243 0.47746 0.22182 0.0
H561 H 0.98573 0.52455 0.32617 0.0
H562 H 0.02181 0.48016 0.32446 0.0
C563 C 0.01326 0.49038 0.16476 0.0
C564 C 0.51428 0.5123 0.41706 0.0
C565 C 0.52738 0.52254 0.47464 0.0
H566 H 0.47984 0.48324 0.37202 0.0
C567 C 0.51507 0.51128 0.5321 0.0
H568 H 0.52363 0.52035 0.37212 0.0
C569 C 0.48968 0.49067 0.53206 0.0
C570 C 0.47691 0.48 0.47453 0.0
H571 H 0.52488 0.51871 0.5771 0.0
H572 H 0.48023 0.48279 0.57704 0.0
C573 C 0.48955 0.49082 0.41699 0.0
C574 C 0.51179 0.98872 0.7816 0.0
C575 C 0.52293 0.97655 0.7239 0.0
H576 H 0.48335 0.02339 0.82719 0.0
C577 C 0.51251 0.98968 0.66655 0.0
H578 H 0.51936 0.97888 0.82642 0.0
C579 C 0.49098 0.01433 0.66697 0.0
C580 C 0.48028 0.02684 0.72475 0.0
H581 H 0.52046 0.98043 0.62143 0.0
H582 H 0.48326 0.02408 0.62217 0.0
C583 C 0.49113 0.01403 0.78203 0.0
C584 C 0.01635 0.9897 0.53275 0.0
C585 C 0.02778 0.97816 0.47474 0.0
H586 H 0.98187 0.01793 0.57946 0.0
C587 C 0.01352 0.98772 0.41788 0.0
H588 H 0.02705 0.98277 0.57721 0.0
C589 C 0.98847 0.00877 0.41906 0.0
C590 C 0.97669 0.01982 0.47722 0.0
H591 H 0.02217 0.97943 0.37252 0.0
H592 H 0.97783 0.01581 0.37463 0.0
C593 C 0.99065 0.00986 0.53404 0.0
C594 C 0.99214 0.48962 0.66309 0.0
C595 C 0.9804 0.47747 0.72031 0.0
H596 H 0.02255 0.52316 0.61906 0.0
C597 C 0.99024 0.49063 0.77808 0.0
H598 H 0.98523 0.47958 0.61796 0.0
C599 C 0.01101 0.51585 0.77865 0.0
C600 C 0.02323 0.52763 0.72157 0.0
H601 H 0.98167 0.48153 0.82284 0.0
H602 H 0.01783 0.52591 0.82382 0.0
C603 C 0.01376 0.51421 0.66375 0.0
C604 C 0.51464 0.49058 0.0331 0.0
C605 C 0.52758 0.48001 0.97565 0.0
H606 H 0.47928 0.51846 0.07794 0.0
C607 C 0.51505 0.49084 0.91804 0.0
H608 H 0.52401 0.4827 0.07813 0.0
C609 C 0.49026 0.51222 0.91797 0.0
C610 C 0.47701 0.52236 0.97548 0.0
H611 H 0.52489 0.48334 0.87312 0.0
H612 H 0.48101 0.52027 0.87297 0.0
C613 C 0.48921 0.5111 0.033 0.0
C614 C 0.49179 0.98944 0.16673 0.0
C615 C 0.48124 0.97644 0.22414 0.0
H616 H 0.5211 0.02379 0.12221 0.0
C617 C 0.49221 0.98882 0.28179 0.0
H618 H 0.48398 0.98004 0.12165 0.0
C619 C 0.51282 0.01418 0.28212 0.0
C620 C 0.5238 0.02686 0.22479 0.0
H621 H 0.48454 0.97908 0.32666 0.0
H622 H 0.52047 0.02369 0.32724 0.0
C623 C 0.51328 0.01415 0.16706 0.0
C624 C 0.15309 0.96756 0.24028 0.0
C625 C 0.17204 0.97891 0.28935 0.0
H626 H 0.13708 0.9738 0.14508 0.0
C627 C 0.19212 0.00418 0.27787 0.0
H628 H 0.13746 0.94806 0.2484 0.0
C629 C 0.19228 0.01874 0.21843 0.0
C630 C 0.17188 0.00851 0.17044 0.0
H631 H 0.20648 0.01362 0.31567 0.0
H632 H 0.20681 0.03916 0.2115 0.0
C633 C 0.15297 0.98224 0.18133 0.0
C634 C 0.0326 0.64982 0.49124 0.0
C635 C 0.02283 0.67002 0.53963 0.0
H636 H 0.02473 0.63312 0.39702 0.0
C637 C 0.9986 0.69131 0.5279 0.0
H638 H 0.05128 0.63325 0.49952 0.0
C639 C 0.98359 0.69159 0.46887 0.0
C640 C 0.99229 0.67013 0.42157 0.0
H641 H 0.99034 0.70665 0.5652 0.0
H642 H 0.96405 0.70726 0.46166 0.0
C643 C 0.01744 0.64981 0.43276 0.0
C644 C 0.35592 0.51482 0.68419 0.0
C645 C 0.33479 0.49039 0.67238 0.0
H646 H 0.37318 0.54814 0.75138 0.0
C647 C 0.31279 0.48236 0.71919 0.0
H648 H 0.37305 0.52161 0.64886 0.0
C649 C 0.31322 0.49736 0.77822 0.0
C650 C 0.33521 0.52091 0.79051 0.0
H651 H 0.29648 0.46339 0.71153 0.0
H652 H 0.29731 0.48966 0.81507 0.0
C653 C 0.35607 0.52997 0.74271 0.0
C654 C 0.50467 0.8129 0.02522 0.0
C655 C 0.48154 0.83525 0.03796 0.0
H656 H 0.5383 0.7958 0.95818 0.0
C657 C 0.47284 0.85642 0.99058 0.0
H658 H 0.51207 0.79672 0.06175 0.0
C659 C 0.48794 0.85619 0.93202 0.0
C660 C 0.51199 0.83469 0.91978 0.0
H661 H 0.45499 0.8738 -0.00038 0.0
H662 H 0.48145 0.87354 0.89703 0.0
C663 C 0.51963 0.81241 0.96616 0.0
C664 C 0.81124 0.01968 0.71972 0.0
C665 C 0.83106 0.00882 0.67129 0.0
H666 H 0.79752 0.01513 0.81738 0.0
C667 C 0.84919 0.98199 0.68179 0.0
H668 H 0.79735 0.04054 0.71306 0.0
C669 C 0.84895 0.96738 0.7408 0.0
C670 C 0.8307 0.97938 0.79034 0.0
H671 H 0.8646 0.97308 0.64518 0.0
H672 H 0.86405 0.94746 0.74863 0.0
C673 C 0.81131 0.00519 0.77924 0.0
C674 C 0.98931 0.31256 0.96028 0.0
C675 C 0.99488 0.33632 0.91571 0.0
H676 H 0.99872 0.29555 0.05428 0.0
C677 C 0.01737 0.35931 0.92935 0.0
H678 H 0.97201 0.29465 0.95118 0.0
C679 C 0.03256 0.3597 0.98778 0.0
C680 C 0.02565 0.33711 0.03364 0.0
H681 H 0.02241 0.37778 0.89575 0.0
H682 H 0.04902 0.37827 -0.00204 0.0
C683 C 0.00453 0.31306 0.01912 0.0
C684 C 0.64947 0.53078 0.24274 0.0
C685 C 0.6699 0.52127 0.29092 0.0
H686 H 0.63273 0.52277 0.1486 0.0
C687 C 0.69145 0.4973 0.27896 0.0
H688 H 0.6327 0.54927 0.25118 0.0
C689 C 0.69184 0.48233 0.21989 0.0
C690 C 0.67021 0.4908 0.17275 0.0
H691 H 0.70699 0.48924 0.3161 0.0
H692 H 0.70775 0.46302 0.21249 0.0
C693 C 0.64956 0.51566 0.18421 0.0
C694 C 0.52075 0.19063 0.47026 0.0
C695 C 0.51305 0.16842 0.42368 0.0
H696 H 0.51308 0.20634 0.56587 0.0
C697 C 0.48886 0.14702 0.43563 0.0
H698 H 0.53952 0.20716 0.46248 0.0
C699 C 0.47361 0.14688 0.49404 0.0
C700 C 0.48231 0.16801 0.54161 0.0
H701 H 0.48232 0.12973 0.40048 0.0
H702 H 0.45561 0.12961 0.5028 0.0
C703 C 0.50564 0.19022 0.5292 0.0
C704 C 0.69126 0.50394 0.7779 0.0
C705 C 0.66843 0.48131 0.79093 0.0
H706 H 0.70873 0.5373 0.71083 0.0
C707 C 0.64666 0.47329 0.74402 0.0
H708 H 0.70792 0.51082 0.81404 0.0
C709 C 0.64683 0.48854 0.68569 0.0
C710 C 0.66886 0.51207 0.67314 0.0
H711 H 0.62891 0.45582 0.75324 0.0
H712 H 0.62907 0.48251 0.65109 0.0
C713 C 0.69167 0.51907 0.71905 0.0
C714 C 0.53056 0.14702 -0.00603 0.0
C715 C 0.52183 0.16813 0.04155 0.0
H716 H 0.52188 0.12984 0.90042 0.0
C717 C 0.49849 0.1903 0.02913 0.0
H718 H 0.54857 0.12978 0.00273 0.0
C719 C 0.48339 0.19067 0.97019 0.0
C720 C 0.49111 0.16846 0.92362 0.0
H721 H 0.49103 0.20641 0.0658 0.0
H722 H 0.4646 0.20716 0.96242 0.0
C723 C 0.51533 0.14713 0.93557 0.0
C724 C 0.8135 1.00064 0.27699 0.0
C725 C 0.83819 0.02104 0.29129 0.0
H726 H 0.79384 0.96893 0.20904 0.0
C727 C 0.86136 0.02672 0.24579 0.0
H728 H 0.79566 0.99561 0.31204 0.0
C729 C 0.86052 0.01144 0.18746 0.0
C730 C 0.83648 0.99011 0.17358 0.0
H731 H 0.88053 0.04248 0.25598 0.0
H732 H 0.87925 0.01573 0.15391 0.0
C733 C 0.81251 0.98541 0.21824 0.0
C734 C 0.0147 0.31232 0.45999 0.0
C735 C 0.00959 0.3363 0.41571 0.0
H736 H 0.00493 0.29519 0.55377 0.0
C737 C 0.98754 0.35965 0.42965 0.0
H738 H 0.03165 0.29412 0.45064 0.0
C739 C 0.97236 0.36015 0.4881 0.0
C740 C 0.97883 0.33731 0.53368 0.0
H741 H 0.98283 0.37829 0.39628 0.0
H742 H 0.95625 0.37897 0.4985 0.0
C743 C 0.99947 0.31291 0.51884 0.0
C744 C 0.35642 0.48759 0.18458 0.0
C745 C 0.33488 0.51161 0.17256 0.0
H746 H 0.37399 0.45454 0.25177 0.0
C747 C 0.31251 0.51911 0.219 0.0
H748 H 0.37384 0.48119 0.14954 0.0
C749 C 0.31292 0.50402 0.27789 0.0
C750 C 0.33531 0.48091 0.2904 0.0
H751 H 0.29585 0.53774 0.21118 0.0
H752 H 0.29667 0.51132 0.31447 0.0
C753 C 0.35658 0.47237 0.24294 0.0
C754 C 0.51675 0.85545 0.43159 0.0
C755 C 0.4923 0.83431 0.4198 0.0
H756 H 0.55002 0.8728 0.49883 0.0
C757 C 0.48426 0.81238 0.4666 0.0
H758 H 0.52354 0.87253 0.39626 0.0
C759 C 0.49922 0.81288 0.52564 0.0
C760 C 0.52276 0.83489 0.53793 0.0
H761 H 0.46527 0.79608 0.45895 0.0
H762 H 0.4915 0.79703 0.5625 0.0
C763 C 0.53186 0.85568 0.49012 0.0
C764 C 0.14473 0.01258 0.68555 0.0
C765 C 0.16813 0.99049 0.67229 0.0
H766 H 0.12523 0.04414 0.75369 0.0
C767 C 0.19163 0.98501 0.71757 0.0
H768 H 0.12639 0.01745 0.65149 0.0
C769 C 0.1907 1.00018 0.77638 0.0
C770 C 0.16657 0.02132 0.79009 0.0
H771 H 0.20978 0.96792 0.70884 0.0
H772 H 0.20808 0.99451 0.81196 0.0
C773 C 0.14397 0.02782 0.74393 0.0
C774 C 0.00446 0.69055 0.02671 0.0
C775 C 0.98208 0.6675 0.03995 0.0
H776 H 0.03763 0.7083 0.95943 0.0
C777 C 0.97432 0.64558 -0.00679 0.0
H778 H 0.01113 0.70735 0.06273 0.0
C779 C 0.98955 0.64584 0.9348 0.0
C780 C 0.01285 0.66812 0.92203 0.0
H781 H 0.95704 0.62766 0.0026 0.0
H782 H 0.98372 0.62798 0.90031 0.0
C783 C 0.01958 0.69104 0.96781 0.0
C784 C 0.09427 0.16645 0.18553 0.0
C785 C 0.10853 0.19594 0.1799 0.0
H786 H 0.09181 0.1193 0.15343 0.0
C787 C 0.13273 0.19948 0.13492 0.0
H788 H 0.07561 0.16248 0.21935 0.0
C789 C 0.1425 0.17413 0.09753 0.0
C790 C 0.1276 0.14504 0.10279 0.0
H791 H 0.14376 0.2217 0.12678 0.0
H792 H 0.1613 0.17743 0.06368 0.0
C793 C 0.10341 0.14156 0.14722 0.0
C794 C 0.83255 0.65086 0.36719 0.0
C795 C 0.8537 0.6288 0.34228 0.0
H796 H 0.79302 0.65904 0.42794 0.0
C797 C 0.84889 0.59709 0.356 0.0
H798 H 0.83564 0.67552 0.35792 0.0
C799 C 0.82468 0.5878 0.39611 0.0
C800 C 0.80439 0.60987 0.42324 0.0
H801 H 0.86454 0.57938 0.33761 0.0
H802 H 0.82216 0.56319 0.40665 0.0
C803 C 0.80809 0.64146 0.40734 0.0
C804 C 0.40673 0.34696 0.60343 0.0
C805 C 0.37491 0.35222 0.59101 0.0
H806 H 0.44076 0.31996 0.65308 0.0
C807 C 0.35271 0.33157 0.61717 0.0
H808 H 0.42453 0.36221 0.58404 0.0
C809 C 0.36213 0.30721 0.65735 0.0
C810 C 0.39388 0.30307 0.672 0.0
H811 H 0.32797 0.33502 0.60894 0.0
H812 H 0.34448 0.29256 0.67898 0.0
C813 C 0.41604 0.32283 0.64354 0.0
C814 C 0.65479 0.90597 0.85771 0.0
C815 C 0.65039 0.87445 0.8415 0.0
H816 H 0.68086 0.93922 0.91162 0.0
C817 C 0.67168 0.8522 0.86508 0.0
H818 H 0.63902 0.92381 0.84046 0.0
C819 C 0.69584 0.86116 0.90634 0.0
C820 C 0.69906 0.89248 0.92482 0.0
H821 H 0.66894 0.82769 0.85385 0.0
H822 H 0.71108 0.84343 0.92577 0.0
C823 C 0.67867 0.9148 0.89905 0.0
C824 C 0.90976 0.16657 0.68652 0.0
C825 C 0.89575 0.19612 0.68041 0.0
H826 H 0.91193 0.11931 0.655 0.0
C827 C 0.87167 0.1997 0.63523 0.0
H828 H 0.92834 0.16261 0.72051 0.0
C829 C 0.86177 0.17432 0.59806 0.0
C830 C 0.87643 0.14514 0.60378 0.0
H831 H 0.86088 0.22201 0.62672 0.0
H832 H 0.84309 0.17766 0.564 0.0
C833 C 0.9005 0.14163 0.64845 0.0
C834 C 0.84849 0.40561 0.85289 0.0
C835 C 0.85418 0.37379 0.84176 0.0
H836 H 0.82096 0.43975 0.90102 0.0
C837 C 0.83382 0.35165 0.86896 0.0
H838 H 0.86347 0.42338 0.83261 0.0
C839 C 0.80924 0.36116 0.90876 0.0
C840 C 0.80465 0.39296 0.922 0.0
H841 H 0.8376 0.32692 0.86168 0.0
H842 H 0.79477 0.34361 0.93113 0.0
C843 C 0.82417 0.41502 0.8926 0.0
C844 C 0.64222 0.3074 0.15778 0.0
C845 C 0.61046 0.30329 0.17241 0.0
H846 H 0.67648 0.33524 0.10955 0.0
C847 C 0.58835 0.32313 0.14409 0.0
H848 H 0.65982 0.29269 0.17932 0.0
C849 C 0.59774 0.34731 0.10413 0.0
C850 C 0.62959 0.35253 0.09173 0.0
H851 H 0.56362 0.32028 0.15361 0.0
H852 H 0.57999 0.36261 0.08483 0.0
C853 C 0.65172 0.33181 0.11776 0.0
C854 C 0.67154 0.15092 0.36974 0.0
C855 C 0.65176 0.12896 0.34013 0.0
H856 H 0.70999 0.15845 0.4336 0.0
C857 C 0.65816 0.09707 0.34816 0.0
H858 H 0.66718 0.17569 0.36493 0.0
C859 C 0.68253 0.08734 0.38735 0.0
C860 C 0.70136 0.10914 0.41943 0.0
H861 H 0.64362 0.07947 0.32593 0.0
H862 H 0.68626 0.06252 0.39341 0.0
C863 C 0.69611 0.14108 0.40912 0.0
C864 C 0.64209 0.69558 0.65641 0.0
C865 C 0.61029 0.69991 0.67045 0.0
H866 H 0.67633 0.66742 0.60893 0.0
C867 C 0.58816 0.68019 0.64173 0.0
H868 H 0.6597 0.71022 0.67824 0.0
C869 C 0.59754 0.65589 0.60202 0.0
C870 C 0.62939 0.65041 0.59029 0.0
H871 H 0.56341 0.68322 0.6508 0.0
H872 H 0.57974 0.64067 0.58243 0.0
C873 C 0.65157 0.67103 0.61666 0.0
C874 C 0.33245 0.15078 0.86971 0.0
C875 C 0.35241 0.12879 0.84074 0.0
H876 H 0.29386 0.15842 0.93319 0.0
C877 C 0.34622 0.09692 0.84963 0.0
H878 H 0.33665 0.17556 0.86424 0.0
C879 C 0.32188 0.08724 0.88901 0.0
C880 C 0.30285 0.1091 0.9204 0.0
H881 H 0.3609 0.07928 0.82794 0.0
H882 H 0.31831 0.06244 0.89573 0.0
C883 C 0.3079 0.14101 0.90926 0.0
C884 C 0.90569 0.84554 0.0981 0.0
C885 C 0.87374 0.85168 0.08909 0.0
H886 H 0.94018 0.81795 0.14501 0.0
C887 C 0.85168 0.83187 0.11823 0.0
H888 H 0.92338 0.8601 0.07629 0.0
C889 C 0.86143 0.80754 0.15814 0.0
C890 C 0.89339 0.80266 0.16959 0.0
H891 H 0.82686 0.836 0.11259 0.0
H892 H 0.84399 0.79356 0.18216 0.0
C893 C 0.91534 0.82147 0.138 0.0
C894 C 0.18029 0.41452 0.3935 0.0
C895 C 0.19985 0.39237 0.4224 0.0
H896 H 0.14099 0.42306 0.33371 0.0
C897 C 0.19534 0.36063 0.40848 0.0
H898 H 0.18345 0.43921 0.40246 0.0
C899 C 0.17078 0.35124 0.36853 0.0
C900 C 0.15037 0.37346 0.34181 0.0
H901 H 0.20987 0.34303 0.43043 0.0
H902 H 0.16704 0.32654 0.36072 0.0
C903 C 0.15601 0.40523 0.35358 0.0
C904 C 0.36231 0.69511 0.15687 0.0
C905 C 0.39415 0.6996 0.17027 0.0
H906 H 0.32796 0.6668 0.10998 0.0
C907 C 0.41623 0.68001 0.14106 0.0
H908 H 0.34473 0.70962 0.1791 0.0
C909 C 0.40677 0.65568 0.1015 0.0
C910 C 0.37489 0.65004 0.09036 0.0
H911 H 0.441 0.68316 0.14961 0.0
H912 H 0.42453 0.64057 0.0815 0.0
C913 C 0.35275 0.67053 0.11723 0.0
C914 C 0.30848 0.86102 0.40687 0.0
C915 C 0.30494 0.8925 0.42393 0.0
H916 H 0.33573 0.82731 0.35583 0.0
C917 C 0.3251 0.91476 0.3971 0.0
H918 H 0.29344 0.84333 0.42715 0.0
C919 C 0.34908 0.90576 0.35616 0.0
C920 C 0.35379 0.87413 0.34135 0.0
H921 H 0.32265 0.93929 0.40854 0.0
H922 H 0.36465 0.92359 0.33806 0.0
C923 C 0.33273 0.8519 0.36595 0.0
C924 C 0.1526 0.83133 0.61701 0.0
C925 C 0.13035 0.85187 0.59079 0.0
H926 H 0.16091 0.79243 0.67909 0.0
C927 C 0.09853 0.84656 0.60344 0.0
H928 H 0.17733 0.83479 0.60851 0.0
C929 C 0.0893 0.82258 0.644 0.0
C930 C 0.11154 0.80299 0.67254 0.0
H931 H 0.08068 0.86172 0.58402 0.0
H932 H 0.06461 0.8197 0.65386 0.0
C933 C 0.14325 0.80706 0.65749 0.0
C934 C 0.19635 0.6412 0.90655 0.0
C935 C 0.20043 0.60948 0.92095 0.0
H936 H 0.16855 0.67541 0.85835 0.0
C937 C 0.18068 0.58743 0.89212 0.0
H938 H 0.21103 0.65875 0.92844 0.0
C939 C 0.15656 0.59682 0.85193 0.0
C940 C 0.1513 0.62861 0.83985 0.0
H941 H 0.18352 0.56274 0.90147 0.0
H942 H 0.1413 0.5791 0.83228 0.0
C943 C 0.17199 0.6507 0.86635 0.0
loop_
_geom_bond_atom_site_label_1
_geom_bond_atom_site_label_2
_geom_bond_distance
_geom_bond_site_symmetry_2
_ccdc_geom_bond_type
Co0 O3 1.970 . S
Co0 N17 1.989 1_554 S
Co0 O25 1.967 . S
Co0 O32 1.920 . S
Co1 O4 1.966 . S
Co1 N10 2.022 . S
Co1 N18 1.993 1_554 S
Co1 O26 1.941 . S
C2 O3 1.258 . S
C2 O4 1.263 . S
O3 Co0 1.970 . S
O3 C2 1.258 . S
O4 Co1 1.966 . S
O4 C2 1.263 . S
C5 O6 1.235 1_554 S
C5 O32 1.289 . S
O6 C5 1.235 1_556 S
C7 C9 1.400 . S
C7 N10 1.351 1_556 S
C7 C12 1.501 . S
C8 C9 1.387 . S
C8 N11 1.341 . S
C9 C7 1.400 . S
C9 C8 1.387 . S
N10 Co1 2.022 . S
N10 C7 1.351 1_554 S
N10 N11 1.365 1_554 S
N11 C8 1.341 . S
N11 N10 1.365 1_556 S
N11 H31 0.862 1_556 S
C12 C7 1.501 . S
C12 H13 0.961 1_556 S
C12 H14 0.961 . S
C12 H15 0.960 1_556 S
H13 C12 0.961 1_554 S
H14 C12 0.961 . S
H15 C12 0.960 1_554 S
C16 N17 1.342 . S
C16 C20 1.401 . S
C16 C21 1.499 1_545 S
N17 Co0 1.989 1_556 S
N17 C16 1.342 . S
N17 N18 1.388 . S
N18 Co1 1.993 1_556 S
N18 N17 1.388 . S
N18 C19 1.346 . S
C19 N18 1.346 . S
C19 C20 1.396 . S
C19 C29 1.510 . S
C20 C16 1.401 . S
C20 C19 1.396 . S
C21 C16 1.499 1_565 S
C21 H22 0.959 1_565 S
C21 H23 0.960 1_565 S
C21 H24 0.961 . S
H22 C21 0.959 1_545 S
H23 C21 0.960 1_545 S
H24 C21 0.961 . S
O25 Co0 1.967 . S
O25 C33 1.258 . S
O26 Co1 1.941 . S
O26 C33 1.266 . S
H27 C29 0.959 . S
H28 C29 0.961 . S
C29 C19 1.510 . S
C29 H27 0.959 . S
C29 H28 0.961 . S
C29 H30 0.960 . S
H30 C29 0.960 . S
H31 N11 0.862 1_554 S
O32 Co0 1.920 . S
O32 C5 1.289 . S
C33 O25 1.258 . S
C33 O26 1.266 . S
Co34 O37 1.970 . S
Co34 N51 1.989 . S
Co34 O59 1.967 . S
Co34 O66 1.920 . S
Co35 O38 1.966 . S
Co35 N44 2.022 . S
Co35 N52 1.993 . S
Co35 O60 1.941 . S
C36 O37 1.258 . S
C36 O38 1.263 . S
O37 Co34 1.970 . S
O37 C36 1.258 . S
O38 Co35 1.966 . S
O38 C36 1.263 . S
C39 O40 1.235 . S
C39 O66 1.289 . S
O40 C39 1.235 . S
C41 C43 1.400 . S
C41 N44 1.351 . S
C41 C46 1.501 . S
C42 C43 1.387 . S
C42 N45 1.341 . S
C43 C41 1.400 . S
C43 C42 1.387 . S
N44 Co35 2.022 . S
N44 C41 1.351 . S
N44 N45 1.365 . S
N45 C42 1.341 . S
N45 N44 1.365 . S
N45 H65 0.862 . S
C46 C41 1.501 . S
C46 H47 0.961 . S
C46 H48 0.961 . S
C46 H49 0.960 . S
H47 C46 0.961 . S
H48 C46 0.961 . S
H49 C46 0.960 . S
C50 N51 1.342 . S
C50 C54 1.401 . S
C50 C55 1.499 1_655 S
N51 Co34 1.989 . S
N51 C50 1.342 . S
N51 N52 1.388 . S
N52 Co35 1.993 . S
N52 N51 1.388 . S
N52 C53 1.346 . S
C53 N52 1.346 . S
C53 C54 1.396 . S
C53 C63 1.510 . S
C54 C50 1.401 . S
C54 C53 1.396 . S
C55 C50 1.499 1_455 S
C55 H56 0.959 1_455 S
C55 H57 0.960 1_455 S
C55 H58 0.961 . S
H56 C55 0.959 1_655 S
H57 C55 0.960 1_655 S
H58 C55 0.961 . S
O59 Co34 1.967 . S
O59 C67 1.258 . S
O60 Co35 1.941 . S
O60 C67 1.266 . S
H61 C63 0.959 . S
H62 C63 0.961 . S
C63 C53 1.510 . S
C63 H61 0.959 . S
C63 H62 0.961 . S
C63 H64 0.960 . S
H64 C63 0.960 . S
H65 N45 0.862 . S
O66 Co34 1.920 . S
O66 C39 1.289 . S
C67 O59 1.258 . S
C67 O60 1.266 . S
Co68 O71 1.970 . S
Co68 N85 1.989 . S
Co68 O93 1.967 . S
Co68 O100 1.920 . S
Co69 O72 1.966 . S
Co69 N78 2.022 . S
Co69 N86 1.993 . S
Co69 O94 1.941 . S
C70 O71 1.258 . S
C70 O72 1.263 . S
O71 Co68 1.970 . S
O71 C70 1.258 . S
O72 Co69 1.966 . S
O72 C70 1.263 . S
C73 O74 1.235 . S
C73 O100 1.289 . S
O74 C73 1.235 . S
C75 C77 1.400 . S
C75 N78 1.351 . S
C75 C80 1.501 . S
C76 C77 1.387 . S
C76 N79 1.341 . S
C77 C75 1.400 . S
C77 C76 1.387 . S
N78 Co69 2.022 . S
N78 C75 1.351 . S
N78 N79 1.365 . S
N79 C76 1.341 . S
N79 N78 1.365 . S
N79 H99 0.862 . S
C80 C75 1.501 . S
C80 H81 0.961 . S
C80 H82 0.961 . S
C80 H83 0.960 . S
H81 C80 0.961 . S
H82 C80 0.961 . S
H83 C80 0.960 . S
C84 N85 1.342 . S
C84 C88 1.401 . S
C84 C89 1.499 . S
N85 Co68 1.989 . S
N85 C84 1.342 . S
N85 N86 1.388 . S
N86 Co69 1.993 . S
N86 N85 1.388 . S
N86 C87 1.346 . S
C87 N86 1.346 . S
C87 C88 1.396 . S
C87 C97 1.510 . S
C88 C84 1.401 . S
C88 C87 1.396 . S
C89 C84 1.499 . S
C89 H90 0.959 . S
C89 H91 0.960 . S
C89 H92 0.961 . S
H90 C89 0.959 . S
H91 C89 0.960 . S
H92 C89 0.961 . S
O93 Co68 1.967 . S
O93 C101 1.258 . S
O94 Co69 1.941 . S
O94 C101 1.266 . S
H95 C97 0.959 . S
H96 C97 0.961 . S
C97 C87 1.510 . S
C97 H95 0.959 . S
C97 H96 0.961 . S
C97 H98 0.960 . S
H98 C97 0.960 . S
H99 N79 0.862 . S
O100 Co68 1.920 . S
O100 C73 1.289 . S
C101 O93 1.258 . S
C101 O94 1.266 . S
Co102 O105 1.970 . S
Co102 N119 1.989 . S
Co102 O127 1.967 . S
Co102 O134 1.920 . S
Co103 O106 1.966 . S
Co103 N112 2.022 . S
Co103 N120 1.993 . S
Co103 O128 1.941 . S
C104 O105 1.258 . S
C104 O106 1.263 . S
O105 Co102 1.970 . S
O105 C104 1.258 . S
O106 Co103 1.966 . S
O106 C104 1.263 . S
C107 O108 1.235 . S
C107 O134 1.289 . S
O108 C107 1.235 . S
C109 C111 1.400 . S
C109 N112 1.351 . S
C109 C114 1.501 . S
C110 C111 1.387 . S
C110 N113 1.341 . S
C111 C109 1.400 . S
C111 C110 1.387 . S
N112 Co103 2.022 . S
N112 C109 1.351 . S
N112 N113 1.365 . S
N113 C110 1.341 . S
N113 N112 1.365 . S
N113 H133 0.862 . S
C114 C109 1.501 . S
C114 H115 0.961 . S
C114 H116 0.961 . S
C114 H117 0.960 . S
H115 C114 0.961 . S
H116 C114 0.961 . S
H117 C114 0.960 . S
C118 N119 1.342 . S
C118 C122 1.401 . S
C118 C123 1.499 . S
N119 Co102 1.989 . S
N119 C118 1.342 . S
N119 N120 1.388 . S
N120 Co103 1.993 . S
N120 N119 1.388 . S
N120 C121 1.346 . S
C121 N120 1.346 . S
C121 C122 1.396 . S
C121 C131 1.510 . S
C122 C118 1.401 . S
C122 C121 1.396 . S
C123 C118 1.499 . S
C123 H124 0.959 . S
C123 H125 0.960 . S
C123 H126 0.961 . S
H124 C123 0.959 . S
H125 C123 0.960 . S
H126 C123 0.961 . S
O127 Co102 1.967 . S
O127 C135 1.258 . S
O128 Co103 1.941 . S
O128 C135 1.266 . S
H129 C131 0.959 . S
H130 C131 0.961 . S
C131 C121 1.510 . S
C131 H129 0.959 . S
C131 H130 0.961 . S
C131 H132 0.960 . S
H132 C131 0.960 . S
H133 N113 0.862 . S
O134 Co102 1.920 . S
O134 C107 1.289 . S
C135 O127 1.258 . S
C135 O128 1.266 . S
Co136 O139 1.970 . S
Co136 N153 1.989 . S
Co136 O161 1.967 . S
Co136 O168 1.920 . S
Co137 O140 1.966 . S
Co137 N146 2.022 . S
Co137 N154 1.993 . S
Co137 O162 1.941 . S
C138 O139 1.258 . S
C138 O140 1.263 . S
O139 Co136 1.970 . S
O139 C138 1.258 . S
O140 Co137 1.966 . S
O140 C138 1.263 . S
C141 O142 1.235 . S
C141 O168 1.289 . S
O142 C141 1.235 . S
C143 C145 1.400 . S
C143 N146 1.351 . S
C143 C148 1.501 . S
C144 C145 1.387 . S
C144 N147 1.341 . S
C145 C143 1.400 . S
C145 C144 1.387 . S
N146 Co137 2.022 . S
N146 C143 1.351 . S
N146 N147 1.365 . S
N147 C144 1.341 . S
N147 N146 1.365 . S
N147 H167 0.862 . S
C148 C143 1.501 . S
C148 H149 0.961 . S
C148 H150 0.961 . S
C148 H151 0.960 . S
H149 C148 0.961 . S
H150 C148 0.961 . S
H151 C148 0.960 . S
C152 N153 1.342 . S
C152 C156 1.401 . S
C152 C157 1.499 1_545 S
N153 Co136 1.989 . S
N153 C152 1.342 . S
N153 N154 1.388 . S
N154 Co137 1.993 . S
N154 N153 1.388 . S
N154 C155 1.346 . S
C155 N154 1.346 . S
C155 C156 1.396 . S
C155 C165 1.510 . S
C156 C152 1.401 . S
C156 C155 1.396 . S
C157 C152 1.499 1_565 S
C157 H158 0.959 1_565 S
C157 H159 0.960 1_565 S
C157 H160 0.961 . S
H158 C157 0.959 1_545 S
H159 C157 0.960 1_545 S
H160 C157 0.961 . S
O161 Co136 1.967 . S
O161 C169 1.258 . S
O162 Co137 1.941 . S
O162 C169 1.266 . S
H163 C165 0.959 . S
H164 C165 0.961 . S
C165 C155 1.510 . S
C165 H163 0.959 . S
C165 H164 0.961 . S
C165 H166 0.960 . S
H166 C165 0.960 . S
H167 N147 0.862 . S
O168 Co136 1.920 . S
O168 C141 1.289 . S
C169 O161 1.258 . S
C169 O162 1.266 . S
Co170 O173 1.970 . S
Co170 N187 1.989 . S
Co170 O195 1.967 . S
Co170 O202 1.920 . S
Co171 O174 1.966 . S
Co171 N180 2.022 . S
Co171 N188 1.993 . S
Co171 O196 1.941 . S
C172 O173 1.258 . S
C172 O174 1.263 . S
O173 Co170 1.970 . S
O173 C172 1.258 . S
O174 Co171 1.966 . S
O174 C172 1.263 . S
C175 O176 1.235 . S
C175 O202 1.289 . S
O176 C175 1.235 . S
C177 C179 1.400 . S
C177 N180 1.351 . S
C177 C182 1.501 . S
C178 C179 1.387 . S
C178 N181 1.341 . S
C179 C177 1.400 . S
C179 C178 1.387 . S
N180 Co171 2.022 . S
N180 C177 1.351 . S
N180 N181 1.365 . S
N181 C178 1.341 . S
N181 N180 1.365 . S
N181 H201 0.862 . S
C182 C177 1.501 . S
C182 H183 0.961 . S
C182 H184 0.961 . S
C182 H185 0.960 . S
H183 C182 0.961 . S
H184 C182 0.961 . S
H185 C182 0.960 . S
C186 N187 1.342 . S
C186 C190 1.401 . S
C186 C191 1.499 1_655 S
N187 Co170 1.989 . S
N187 C186 1.342 . S
N187 N188 1.388 . S
N188 Co171 1.993 . S
N188 N187 1.388 . S
N188 C189 1.346 . S
C189 N188 1.346 . S
C189 C190 1.396 . S
C189 C199 1.510 . S
C190 C186 1.401 . S
C190 C189 1.396 . S
C191 C186 1.499 1_455 S
C191 H192 0.959 1_455 S
C191 H193 0.960 1_455 S
C191 H194 0.961 . S
H192 C191 0.959 1_655 S
H193 C191 0.960 1_655 S
H194 C191 0.961 . S
O195 Co170 1.967 . S
O195 C203 1.258 . S
O196 Co171 1.941 . S
O196 C203 1.266 . S
H197 C199 0.959 . S
H198 C199 0.961 . S
C199 C189 1.510 . S
C199 H197 0.959 . S
C199 H198 0.961 . S
C199 H200 0.960 . S
H200 C199 0.960 . S
H201 N181 0.862 . S
O202 Co170 1.920 . S
O202 C175 1.289 . S
C203 O195 1.258 . S
C203 O196 1.266 . S
Co204 O207 1.970 . S
Co204 N221 1.989 1_554 S
Co204 O229 1.967 . S
Co204 O236 1.920 . S
Co205 O208 1.966 . S
Co205 N214 2.022 . S
Co205 N222 1.993 1_554 S
Co205 O230 1.941 . S
C206 O207 1.258 . S
C206 O208 1.263 . S
O207 Co204 1.970 . S
O207 C206 1.258 . S
O208 Co205 1.966 . S
O208 C206 1.263 . S
C209 O210 1.235 1_554 S
C209 O236 1.289 . S
O210 C209 1.235 1_556 S
C211 C213 1.400 . S
C211 N214 1.351 1_556 S
C211 C216 1.501 . S
C212 C213 1.387 . S
C212 N215 1.341 . S
C213 C211 1.400 . S
C213 C212 1.387 . S
N214 Co205 2.022 . S
N214 C211 1.351 1_554 S
N214 N215 1.365 1_554 S
N215 C212 1.341 . S
N215 N214 1.365 1_556 S
N215 H235 0.862 1_556 S
C216 C211 1.501 . S
C216 H217 0.961 1_556 S
C216 H218 0.961 . S
C216 H219 0.960 1_556 S
H217 C216 0.961 1_554 S
H218 C216 0.961 . S
H219 C216 0.960 1_554 S
C220 N221 1.342 . S
C220 C224 1.401 . S
C220 C225 1.499 . S
N221 Co204 1.989 1_556 S
N221 C220 1.342 . S
N221 N222 1.388 . S
N222 Co205 1.993 1_556 S
N222 N221 1.388 . S
N222 C223 1.346 . S
C223 N222 1.346 . S
C223 C224 1.396 . S
C223 C233 1.510 . S
C224 C220 1.401 . S
C224 C223 1.396 . S
C225 C220 1.499 . S
C225 H226 0.959 . S
C225 H227 0.960 . S
C225 H228 0.961 . S
H226 C225 0.959 . S
H227 C225 0.960 . S
H228 C225 0.961 . S
O229 Co204 1.967 . S
O229 C237 1.258 . S
O230 Co205 1.941 . S
O230 C237 1.266 . S
H231 C233 0.959 . S
H232 C233 0.961 . S
C233 C223 1.510 . S
C233 H231 0.959 . S
C233 H232 0.961 . S
C233 H234 0.960 . S
H234 C233 0.960 . S
H235 N215 0.862 1_554 S
O236 Co204 1.920 . S
O236 C209 1.289 . S
C237 O229 1.258 . S
C237 O230 1.266 . S
Co238 O241 1.970 . S
Co238 N255 1.989 . S
Co238 O263 1.967 . S
Co238 O270 1.920 . S
Co239 O242 1.966 . S
Co239 N248 2.022 . S
Co239 N256 1.993 . S
Co239 O264 1.941 . S
C240 O241 1.258 . S
C240 O242 1.263 . S
O241 Co238 1.970 . S
O241 C240 1.258 . S
O242 Co239 1.966 . S
O242 C240 1.263 . S
C243 O244 1.235 . S
C243 O270 1.289 . S
O244 C243 1.235 . S
C245 C247 1.400 . S
C245 N248 1.351 . S
C245 C250 1.501 . S
C246 C247 1.387 . S
C246 N249 1.341 . S
C247 C245 1.400 . S
C247 C246 1.387 . S
N248 Co239 2.022 . S
N248 C245 1.351 . S
N248 N249 1.365 . S
N249 C246 1.341 . S
N249 N248 1.365 . S
N249 H269 0.862 . S
C250 C245 1.501 . S
C250 H251 0.961 . S
C250 H252 0.961 . S
C250 H253 0.960 . S
H251 C250 0.961 . S
H252 C250 0.961 . S
H253 C250 0.960 . S
C254 N255 1.342 . S
C254 C258 1.401 . S
C254 C259 1.499 . S
N255 Co238 1.989 . S
N255 C254 1.342 . S
N255 N256 1.388 . S
N256 Co239 1.993 . S
N256 N255 1.388 . S
N256 C257 1.346 . S
C257 N256 1.346 . S
C257 C258 1.396 . S
C257 C267 1.510 . S
C258 C254 1.401 . S
C258 C257 1.396 . S
C259 C254 1.499 . S
C259 H260 0.959 . S
C259 H261 0.960 . S
C259 H262 0.961 . S
H260 C259 0.959 . S
H261 C259 0.960 . S
H262 C259 0.961 . S
O263 Co238 1.967 . S
O263 C271 1.258 . S
O264 Co239 1.941 . S
O264 C271 1.266 . S
H265 C267 0.959 . S
H266 C267 0.961 . S
C267 C257 1.510 . S
C267 H265 0.959 . S
C267 H266 0.961 . S
C267 H268 0.960 . S
H268 C267 0.960 . S
H269 N249 0.862 . S
O270 Co238 1.920 . S
O270 C243 1.289 . S
C271 O263 1.258 . S
C271 O264 1.266 . S
Co272 O275 1.970 . S
Co272 N289 1.989 . S
Co272 O297 1.967 . S
Co272 O304 1.920 . S
Co273 O276 1.966 . S
Co273 N282 2.022 . S
Co273 N290 1.993 . S
Co273 O298 1.941 . S
C274 O275 1.258 . S
C274 O276 1.263 . S
O275 Co272 1.970 . S
O275 C274 1.258 . S
O276 Co273 1.966 . S
O276 C274 1.263 . S
C277 O278 1.235 . S
C277 O304 1.289 . S
O278 C277 1.235 . S
C279 C281 1.400 . S
C279 N282 1.351 . S
C279 C284 1.501 . S
C280 C281 1.387 . S
C280 N283 1.341 . S
C281 C279 1.400 . S
C281 C280 1.387 . S
N282 Co273 2.022 . S
N282 C279 1.351 . S
N282 N283 1.365 . S
N283 C280 1.341 . S
N283 N282 1.365 . S
N283 H303 0.862 . S
C284 C279 1.501 . S
C284 H285 0.961 . S
C284 H286 0.961 . S
C284 H287 0.960 . S
H285 C284 0.961 . S
H286 C284 0.961 . S
H287 C284 0.960 . S
C288 N289 1.342 . S
C288 C292 1.401 . S
C288 C293 1.499 . S
N289 Co272 1.989 . S
N289 C288 1.342 . S
N289 N290 1.388 . S
N290 Co273 1.993 . S
N290 N289 1.388 . S
N290 C291 1.346 . S
C291 N290 1.346 . S
C291 C292 1.396 . S
C291 C301 1.510 . S
C292 C288 1.401 . S
C292 C291 1.396 . S
C293 C288 1.499 . S
C293 H294 0.959 . S
C293 H295 0.960 . S
C293 H296 0.961 . S
H294 C293 0.959 . S
H295 C293 0.960 . S
H296 C293 0.961 . S
O297 Co272 1.967 . S
O297 C305 1.258 . S
O298 Co273 1.941 . S
O298 C305 1.266 . S
H299 C301 0.959 . S
H300 C301 0.961 . S
C301 C291 1.510 . S
C301 H299 0.959 . S
C301 H300 0.961 . S
C301 H302 0.960 . S
H302 C301 0.960 . S
H303 N283 0.862 . S
O304 Co272 1.920 . S
O304 C277 1.289 . S
C305 O297 1.258 . S
C305 O298 1.266 . S
Co306 O309 1.970 . S
Co306 N323 1.989 . S
Co306 O331 1.967 . S
Co306 O338 1.920 . S
Co307 O310 1.966 . S
Co307 N316 2.022 . S
Co307 N324 1.993 . S
Co307 O332 1.941 . S
C308 O309 1.258 . S
C308 O310 1.263 . S
O309 Co306 1.970 . S
O309 C308 1.258 . S
O310 Co307 1.966 . S
O310 C308 1.263 . S
C311 O312 1.235 . S
C311 O338 1.289 . S
O312 C311 1.235 . S
C313 C315 1.400 . S
C313 N316 1.351 . S
C313 C318 1.501 . S
C314 C315 1.387 . S
C314 N317 1.341 . S
C315 C313 1.400 . S
C315 C314 1.387 . S
N316 Co307 2.022 . S
N316 C313 1.351 . S
N316 N317 1.365 . S
N317 C314 1.341 . S
N317 N316 1.365 . S
N317 H337 0.862 . S
C318 C313 1.501 . S
C318 H319 0.961 . S
C318 H320 0.961 . S
C318 H321 0.960 . S
H319 C318 0.961 . S
H320 C318 0.961 . S
H321 C318 0.960 . S
C322 N323 1.342 . S
C322 C326 1.401 . S
C322 C327 1.499 . S
N323 Co306 1.989 . S
N323 C322 1.342 . S
N323 N324 1.388 . S
N324 Co307 1.993 . S
N324 N323 1.388 . S
N324 C325 1.346 . S
C325 N324 1.346 . S
C325 C326 1.396 . S
C325 C335 1.510 . S
C326 C322 1.401 . S
C326 C325 1.396 . S
C327 C322 1.499 . S
C327 H328 0.959 . S
C327 H329 0.960 . S
C327 H330 0.961 . S
H328 C327 0.959 . S
H329 C327 0.960 . S
H330 C327 0.961 . S
O331 Co306 1.967 . S
O331 C339 1.258 . S
O332 Co307 1.941 . S
O332 C339 1.266 . S
H333 C335 0.959 . S
H334 C335 0.961 . S
C335 C325 1.510 . S
C335 H333 0.959 . S
C335 H334 0.961 . S
C335 H336 0.960 . S
H336 C335 0.960 . S
H337 N317 0.862 . S
O338 Co306 1.920 . S
O338 C311 1.289 . S
C339 O331 1.258 . S
C339 O332 1.266 . S
Co340 O343 1.970 . S
Co340 N357 1.989 1_554 S
Co340 O365 1.967 . S
Co340 O372 1.920 . S
Co341 O344 1.966 . S
Co341 N350 2.022 . S
Co341 N358 1.993 1_554 S
Co341 O366 1.941 . S
C342 O343 1.258 . S
C342 O344 1.263 . S
O343 Co340 1.970 . S
O343 C342 1.258 . S
O344 Co341 1.966 . S
O344 C342 1.263 . S
C345 O346 1.235 1_554 S
C345 O372 1.289 . S
O346 C345 1.235 1_556 S
C347 C349 1.400 . S
C347 N350 1.351 1_556 S
C347 C352 1.501 . S
C348 C349 1.387 . S
C348 N351 1.341 . S
C349 C347 1.400 . S
C349 C348 1.387 . S
N350 Co341 2.022 . S
N350 C347 1.351 1_554 S
N350 N351 1.365 1_554 S
N351 C348 1.341 . S
N351 N350 1.365 1_556 S
N351 H371 0.862 1_556 S
C352 C347 1.501 . S
C352 H353 0.961 1_556 S
C352 H354 0.961 . S
C352 H355 0.960 1_556 S
H353 C352 0.961 1_554 S
H354 C352 0.961 . S
H355 C352 0.960 1_554 S
C356 N357 1.342 . S
C356 C360 1.401 . S
C356 C361 1.499 1_565 S
N357 Co340 1.989 1_556 S
N357 C356 1.342 . S
N357 N358 1.388 . S
N358 Co341 1.993 1_556 S
N358 N357 1.388 . S
N358 C359 1.346 . S
C359 N358 1.346 . S
C359 C360 1.396 . S
C359 C369 1.510 . S
C360 C356 1.401 . S
C360 C359 1.396 . S
C361 C356 1.499 1_545 S
C361 H362 0.959 1_545 S
C361 H363 0.960 1_545 S
C361 H364 0.961 . S
H362 C361 0.959 1_565 S
H363 C361 0.960 1_565 S
H364 C361 0.961 . S
O365 Co340 1.967 . S
O365 C373 1.258 . S
O366 Co341 1.941 . S
O366 C373 1.266 . S
H367 C369 0.959 . S
H368 C369 0.961 . S
C369 C359 1.510 . S
C369 H367 0.959 . S
C369 H368 0.961 . S
C369 H370 0.960 . S
H370 C369 0.960 . S
H371 N351 0.862 1_554 S
O372 Co340 1.920 . S
O372 C345 1.289 . S
C373 O365 1.258 . S
C373 O366 1.266 . S
Co374 O377 1.970 . S
Co374 N391 1.989 . S
Co374 O399 1.967 . S
Co374 O406 1.920 . S
Co375 O378 1.966 . S
Co375 N384 2.022 . S
Co375 N392 1.993 . S
Co375 O400 1.941 . S
C376 O377 1.258 . S
C376 O378 1.263 . S
O377 Co374 1.970 . S
O377 C376 1.258 . S
O378 Co375 1.966 . S
O378 C376 1.263 . S
C379 O380 1.235 . S
C379 O406 1.289 . S
O380 C379 1.235 . S
C381 C383 1.400 . S
C381 N384 1.351 . S
C381 C386 1.501 . S
C382 C383 1.387 . S
C382 N385 1.341 . S
C383 C381 1.400 . S
C383 C382 1.387 . S
N384 Co375 2.022 . S
N384 C381 1.351 . S
N384 N385 1.365 . S
N385 C382 1.341 . S
N385 N384 1.365 . S
N385 H405 0.862 . S
C386 C381 1.501 . S
C386 H387 0.961 . S
C386 H388 0.961 . S
C386 H389 0.960 . S
H387 C386 0.961 . S
H388 C386 0.961 . S
H389 C386 0.960 . S
C390 N391 1.342 . S
C390 C394 1.401 . S
C390 C395 1.499 1_455 S
N391 Co374 1.989 . S
N391 C390 1.342 . S
N391 N392 1.388 . S
N392 Co375 1.993 . S
N392 N391 1.388 . S
N392 C393 1.346 . S
C393 N392 1.346 . S
C393 C394 1.396 . S
C393 C403 1.510 . S
C394 C390 1.401 . S
C394 C393 1.396 . S
C395 C390 1.499 1_655 S
C395 H396 0.959 1_655 S
C395 H397 0.960 1_655 S
C395 H398 0.961 . S
H396 C395 0.959 1_455 S
H397 C395 0.960 1_455 S
H398 C395 0.961 . S
O399 Co374 1.967 . S
O399 C407 1.258 . S
O400 Co375 1.941 . S
O400 C407 1.266 . S
H401 C403 0.959 . S
H402 C403 0.961 . S
C403 C393 1.510 . S
C403 H401 0.959 . S
C403 H402 0.961 . S
C403 H404 0.960 . S
H404 C403 0.960 . S
H405 N385 0.862 . S
O406 Co374 1.920 . S
O406 C379 1.289 . S
C407 O399 1.258 . S
C407 O400 1.266 . S
Co408 O411 1.970 . S
Co408 N425 1.989 1_554 S
Co408 O433 1.967 . S
Co408 O440 1.920 . S
Co409 O412 1.966 . S
Co409 N418 2.022 . S
Co409 N426 1.993 1_554 S
Co409 O434 1.941 . S
C410 O411 1.258 . S
C410 O412 1.263 . S
O411 Co408 1.970 . S
O411 C410 1.258 . S
O412 Co409 1.966 . S
O412 C410 1.263 . S
C413 O414 1.235 1_554 S
C413 O440 1.289 . S
O414 C413 1.235 1_556 S
C415 C417 1.400 . S
C415 N418 1.351 1_556 S
C415 C420 1.501 . S
C416 C417 1.387 . S
C416 N419 1.341 . S
C417 C415 1.400 . S
C417 C416 1.387 . S
N418 Co409 2.022 . S
N418 C415 1.351 1_554 S
N418 N419 1.365 1_554 S
N419 C416 1.341 . S
N419 N418 1.365 1_556 S
N419 H439 0.862 1_556 S
C420 C415 1.501 . S
C420 H421 0.961 1_556 S
C420 H422 0.961 . S
C420 H423 0.960 1_556 S
H421 C420 0.961 1_554 S
H422 C420 0.961 . S
H423 C420 0.960 1_554 S
C424 N425 1.342 . S
C424 C428 1.401 . S
C424 C429 1.499 . S
N425 Co408 1.989 1_556 S
N425 C424 1.342 . S
N425 N426 1.388 . S
N426 Co409 1.993 1_556 S
N426 N425 1.388 . S
N426 C427 1.346 . S
C427 N426 1.346 . S
C427 C428 1.396 . S
C427 C437 1.510 . S
C428 C424 1.401 . S
C428 C427 1.396 . S
C429 C424 1.499 . S
C429 H430 0.959 . S
C429 H431 0.960 . S
C429 H432 0.961 . S
H430 C429 0.959 . S
H431 C429 0.960 . S
H432 C429 0.961 . S
O433 Co408 1.967 . S
O433 C441 1.258 . S
O434 Co409 1.941 . S
O434 C441 1.266 . S
H435 C437 0.959 . S
H436 C437 0.961 . S
C437 C427 1.510 . S
C437 H435 0.959 . S
C437 H436 0.961 . S
C437 H438 0.960 . S
H438 C437 0.960 . S
H439 N419 0.862 1_554 S
O440 Co408 1.920 . S
O440 C413 1.289 . S
C441 O433 1.258 . S
C441 O434 1.266 . S
Co442 O445 1.970 . S
Co442 N459 1.989 . S
Co442 O467 1.967 . S
Co442 O474 1.920 . S
Co443 O446 1.966 . S
Co443 N452 2.022 . S
Co443 N460 1.993 . S
Co443 O468 1.941 . S
C444 O445 1.258 . S
C444 O446 1.263 . S
O445 Co442 1.970 . S
O445 C444 1.258 . S
O446 Co443 1.966 . S
O446 C444 1.263 . S
C447 O448 1.235 . S
C447 O474 1.289 . S
O448 C447 1.235 . S
C449 C451 1.400 . S
C449 N452 1.351 . S
C449 C454 1.501 . S
C450 C451 1.387 . S
C450 N453 1.341 . S
C451 C449 1.400 . S
C451 C450 1.387 . S
N452 Co443 2.022 . S
N452 C449 1.351 . S
N452 N453 1.365 . S
N453 C450 1.341 . S
N453 N452 1.365 . S
N453 H473 0.862 . S
C454 C449 1.501 . S
C454 H455 0.961 . S
C454 H456 0.961 . S
C454 H457 0.960 . S
H455 C454 0.961 . S
H456 C454 0.961 . S
H457 C454 0.960 . S
C458 N459 1.342 . S
C458 C462 1.401 . S
C458 C463 1.499 . S
N459 Co442 1.989 . S
N459 C458 1.342 . S
N459 N460 1.388 . S
N460 Co443 1.993 . S
N460 N459 1.388 . S
N460 C461 1.346 . S
C461 N460 1.346 . S
C461 C462 1.396 . S
C461 C471 1.510 . S
C462 C458 1.401 . S
C462 C461 1.396 . S
C463 C458 1.499 . S
C463 H464 0.959 . S
C463 H465 0.960 . S
C463 H466 0.961 . S
H464 C463 0.959 . S
H465 C463 0.960 . S
H466 C463 0.961 . S
O467 Co442 1.967 . S
O467 C475 1.258 . S
O468 Co443 1.941 . S
O468 C475 1.266 . S
H469 C471 0.959 . S
H470 C471 0.961 . S
C471 C461 1.510 . S
C471 H469 0.959 . S
C471 H470 0.961 . S
C471 H472 0.960 . S
H472 C471 0.960 . S
H473 N453 0.862 . S
O474 Co442 1.920 . S
O474 C447 1.289 . S
C475 O467 1.258 . S
C475 O468 1.266 . S
Co476 O479 1.970 . S
Co476 N493 1.989 . S
Co476 O501 1.967 . S
Co476 O508 1.920 . S
Co477 O480 1.966 . S
Co477 N486 2.022 . S
Co477 N494 1.993 . S
Co477 O502 1.941 . S
C478 O479 1.258 . S
C478 O480 1.263 . S
O479 Co476 1.970 . S
O479 C478 1.258 . S
O480 Co477 1.966 . S
O480 C478 1.263 . S
C481 O482 1.235 . S
C481 O508 1.289 . S
O482 C481 1.235 . S
C483 C485 1.400 . S
C483 N486 1.351 . S
C483 C488 1.501 . S
C484 C485 1.387 . S
C484 N487 1.341 . S
C485 C483 1.400 . S
C485 C484 1.387 . S
N486 Co477 2.022 . S
N486 C483 1.351 . S
N486 N487 1.365 . S
N487 C484 1.341 . S
N487 N486 1.365 . S
N487 H507 0.862 . S
C488 C483 1.501 . S
C488 H489 0.961 . S
C488 H490 0.961 . S
C488 H491 0.960 . S
H489 C488 0.961 . S
H490 C488 0.961 . S
H491 C488 0.960 . S
C492 N493 1.342 . S
C492 C496 1.401 . S
C492 C497 1.499 1_565 S
N493 Co476 1.989 . S
N493 C492 1.342 . S
N493 N494 1.388 . S
N494 Co477 1.993 . S
N494 N493 1.388 . S
N494 C495 1.346 . S
C495 N494 1.346 . S
C495 C496 1.396 . S
C495 C505 1.510 . S
C496 C492 1.401 . S
C496 C495 1.396 . S
C497 C492 1.499 1_545 S
C497 H498 0.959 1_545 S
C497 H499 0.960 1_545 S
C497 H500 0.961 . S
H498 C497 0.959 1_565 S
H499 C497 0.960 1_565 S
H500 C497 0.961 . S
O501 Co476 1.967 . S
O501 C509 1.258 . S
O502 Co477 1.941 . S
O502 C509 1.266 . S
H503 C505 0.959 . S
H504 C505 0.961 . S
C505 C495 1.510 . S
C505 H503 0.959 . S
C505 H504 0.961 . S
C505 H506 0.960 . S
H506 C505 0.960 . S
H507 N487 0.862 . S
O508 Co476 1.920 . S
O508 C481 1.289 . S
C509 O501 1.258 . S
C509 O502 1.266 . S
Co510 O513 1.970 . S
Co510 N527 1.989 . S
Co510 O535 1.967 . S
Co510 O542 1.920 . S
Co511 O514 1.966 . S
Co511 N520 2.022 . S
Co511 N528 1.993 . S
Co511 O536 1.941 . S
C512 O513 1.258 . S
C512 O514 1.263 . S
O513 Co510 1.970 . S
O513 C512 1.258 . S
O514 Co511 1.966 . S
O514 C512 1.263 . S
C515 O516 1.235 . S
C515 O542 1.289 . S
O516 C515 1.235 . S
C517 C519 1.400 . S
C517 N520 1.351 . S
C517 C522 1.501 . S
C518 C519 1.387 . S
C518 N521 1.341 . S
C519 C517 1.400 . S
C519 C518 1.387 . S
N520 Co511 2.022 . S
N520 C517 1.351 . S
N520 N521 1.365 . S
N521 C518 1.341 . S
N521 N520 1.365 . S
N521 H541 0.862 . S
C522 C517 1.501 . S
C522 H523 0.961 . S
C522 H524 0.961 . S
C522 H525 0.960 . S
H523 C522 0.961 . S
H524 C522 0.961 . S
H525 C522 0.960 . S
C526 N527 1.342 . S
C526 C530 1.401 . S
C526 C531 1.499 1_455 S
N527 Co510 1.989 . S
N527 C526 1.342 . S
N527 N528 1.388 . S
N528 Co511 1.993 . S
N528 N527 1.388 . S
N528 C529 1.346 . S
C529 N528 1.346 . S
C529 C530 1.396 . S
C529 C539 1.510 . S
C530 C526 1.401 . S
C530 C529 1.396 . S
C531 C526 1.499 1_655 S
C531 H532 0.959 1_655 S
C531 H533 0.960 1_655 S
C531 H534 0.961 . S
H532 C531 0.959 1_455 S
H533 C531 0.960 1_455 S
H534 C531 0.961 . S
O535 Co510 1.967 . S
O535 C543 1.258 . S
O536 Co511 1.941 . S
O536 C543 1.266 . S
H537 C539 0.959 . S
H538 C539 0.961 . S
C539 C529 1.510 . S
C539 H537 0.959 . S
C539 H538 0.961 . S
C539 H540 0.960 . S
H540 C539 0.960 . S
H541 N521 0.862 . S
O542 Co510 1.920 . S
O542 C515 1.289 . S
C543 O535 1.258 . S
C543 O536 1.266 . S
C544 C545 1.387 1_556 S
C544 H548 0.950 . S
C544 C553 1.390 1_665 S
C545 C544 1.387 1_554 S
C545 C547 1.387 . S
H546 C553 0.950 . S
C547 C545 1.387 . S
C547 C549 1.390 1_665 S
C547 H551 0.950 . S
H548 C544 0.950 . S
C549 C547 1.390 1_445 S
C549 C550 1.387 . S
C549 H552 0.950 . S
C550 C549 1.387 . S
C550 C553 1.387 1_554 S
H551 C547 0.950 . S
H552 C549 0.950 . S
C553 C544 1.390 1_445 S
C553 H546 0.950 . S
C553 C550 1.387 1_556 S
C554 C555 1.387 . S
C554 H558 0.950 . S
C554 C563 1.390 1_655 S
C555 C554 1.387 . S
C555 C557 1.387 . S
H556 C563 0.950 . S
C557 C555 1.387 . S
C557 C559 1.390 1_655 S
C557 H561 0.950 . S
H558 C554 0.950 . S
C559 C557 1.390 1_455 S
C559 C560 1.387 . S
C559 H562 0.950 . S
C560 C559 1.387 . S
C560 C563 1.387 . S
H561 C557 0.950 . S
H562 C559 0.950 . S
C563 C554 1.390 1_455 S
C563 H556 0.950 . S
C563 C560 1.387 . S
C564 C565 1.387 . S
C564 H568 0.950 . S
C564 C573 1.390 . S
C565 C564 1.387 . S
C565 C567 1.387 . S
H566 C573 0.950 . S
C567 C565 1.387 . S
C567 C569 1.390 . S
C567 H571 0.950 . S
H568 C564 0.950 . S
C569 C567 1.390 . S
C569 C570 1.387 . S
C569 H572 0.950 . S
C570 C569 1.387 . S
C570 C573 1.387 . S
H571 C567 0.950 . S
H572 C569 0.950 . S
C573 C564 1.390 . S
C573 H566 0.950 . S
C573 C570 1.387 . S
C574 C575 1.387 . S
C574 H578 0.950 . S
C574 C583 1.390 1_565 S
C575 C574 1.387 . S
C575 C577 1.387 . S
H576 C583 0.950 . S
C577 C575 1.387 . S
C577 C579 1.390 1_565 S
C577 H581 0.950 . S
H578 C574 0.950 . S
C579 C577 1.390 1_545 S
C579 C580 1.387 . S
C579 H582 0.950 . S
C580 C579 1.387 . S
C580 C583 1.387 . S
H581 C577 0.950 . S
H582 C579 0.950 . S
C583 C574 1.390 1_545 S
C583 H576 0.950 . S
C583 C580 1.387 . S
C584 C585 1.387 . S
C584 H588 0.950 . S
C584 C593 1.390 1_465 S
C585 C584 1.387 . S
C585 C587 1.387 . S
H586 C593 0.950 . S
C587 C585 1.387 . S
C587 C589 1.390 1_465 S
C587 H591 0.950 . S
H588 C584 0.950 . S
C589 C587 1.390 1_645 S
C589 C590 1.387 . S
C589 H592 0.950 . S
C590 C589 1.387 . S
C590 C593 1.387 . S
H591 C587 0.950 . S
H592 C589 0.950 . S
C593 C584 1.390 1_645 S
C593 H586 0.950 . S
C593 C590 1.387 . S
C594 C595 1.387 . S
C594 H598 0.950 . S
C594 C603 1.390 1_655 S
C595 C594 1.387 . S
C595 C597 1.387 . S
H596 C603 0.950 . S
C597 C595 1.387 . S
C597 C599 1.390 1_655 S
C597 H601 0.950 . S
H598 C594 0.950 . S
C599 C597 1.390 1_455 S
C599 C600 1.387 . S
C599 H602 0.950 . S
C600 C599 1.387 . S
C600 C603 1.387 . S
H601 C597 0.950 . S
H602 C599 0.950 . S
C603 C594 1.390 1_455 S
C603 H596 0.950 . S
C603 C600 1.387 . S
C604 C605 1.387 . S
C604 H608 0.950 . S
C604 C613 1.390 . S
C605 C604 1.387 . S
C605 C607 1.387 1_554 S
H606 C613 0.950 . S
C607 C605 1.387 1_556 S
C607 C609 1.390 . S
C607 H611 0.950 . S
H608 C604 0.950 . S
C609 C607 1.390 . S
C609 C610 1.387 1_556 S
C609 H612 0.950 . S
C610 C609 1.387 1_554 S
C610 C613 1.387 . S
H611 C607 0.950 . S
H612 C609 0.950 . S
C613 C604 1.390 . S
C613 H606 0.950 . S
C613 C610 1.387 . S
C614 C615 1.387 . S
C614 H618 0.950 . S
C614 C623 1.390 1_565 S
C615 C614 1.387 . S
C615 C617 1.387 . S
H616 C623 0.950 . S
C617 C615 1.387 . S
C617 C619 1.390 1_565 S
C617 H621 0.950 . S
H618 C614 0.950 . S
C619 C617 1.390 1_545 S
C619 C620 1.387 . S
C619 H622 0.950 . S
C620 C619 1.387 . S
C620 C623 1.387 . S
H621 C617 0.950 . S
H622 C619 0.950 . S
C623 C614 1.390 1_545 S
C623 H616 0.950 . S
C623 C620 1.387 . S
C624 C625 1.387 . S
C624 H628 0.950 . S
C624 C633 1.390 . S
C625 C624 1.387 . S
C625 C627 1.387 1_565 S
H626 C633 0.950 . S
C627 C625 1.387 1_545 S
C627 C629 1.390 . S
C627 H631 0.950 . S
H628 C624 0.950 . S
C629 C627 1.390 . S
C629 C630 1.387 . S
C629 H632 0.950 . S
C630 C629 1.387 . S
C630 C633 1.387 1_545 S
H631 C627 0.950 . S
H632 C629 0.950 . S
C633 C624 1.390 . S
C633 H626 0.950 . S
C633 C630 1.387 1_565 S
C634 C635 1.387 . S
C634 H638 0.950 . S
C634 C643 1.390 . S
C635 C634 1.387 . S
C635 C637 1.387 1_455 S
H636 C643 0.950 . S
C637 C635 1.387 1_655 S
C637 C639 1.390 . S
C637 H641 0.950 . S
H638 C634 0.950 . S
C639 C637 1.390 . S
C639 C640 1.387 . S
C639 H642 0.950 . S
C640 C639 1.387 . S
C640 C643 1.387 1_655 S
H641 C637 0.950 . S
H642 C639 0.950 . S
C643 C634 1.390 . S
C643 H636 0.950 . S
C643 C640 1.387 1_455 S
C644 C645 1.387 . S
C644 H648 0.950 . S
C644 C653 1.390 . S
C645 C644 1.387 . S
C645 C647 1.387 . S
H646 C653 0.950 . S
C647 C645 1.387 . S
C647 C649 1.390 . S
C647 H651 0.950 . S
H648 C644 0.950 . S
C649 C647 1.390 . S
C649 C650 1.387 . S
C649 H652 0.950 . S
C650 C649 1.387 . S
C650 C653 1.387 . S
H651 C647 0.950 . S
H652 C649 0.950 . S
C653 C644 1.390 . S
C653 H646 0.950 . S
C653 C650 1.387 . S
C654 C655 1.387 . S
C654 H658 0.950 . S
C654 C663 1.390 1_554 S
C655 C654 1.387 . S
C655 C657 1.387 . S
H656 C663 0.950 . S
C657 C655 1.387 . S
C657 C659 1.390 1_554 S
C657 H661 0.950 . S
H658 C654 0.950 . S
C659 C657 1.390 1_556 S
C659 C660 1.387 . S
C659 H662 0.950 . S
C660 C659 1.387 . S
C660 C663 1.387 . S
H661 C657 0.950 . S
H662 C659 0.950 . S
C663 C654 1.390 1_556 S
C663 H656 0.950 . S
C663 C660 1.387 . S
C664 C665 1.387 . S
C664 H668 0.950 . S
C664 C673 1.390 . S
C665 C664 1.387 . S
C665 C667 1.387 1_545 S
H666 C673 0.950 . S
C667 C665 1.387 1_565 S
C667 C669 1.390 . S
C667 H671 0.950 . S
H668 C664 0.950 . S
C669 C667 1.390 . S
C669 C670 1.387 . S
C669 H672 0.950 . S
C670 C669 1.387 . S
C670 C673 1.387 1_565 S
H671 C667 0.950 . S
H672 C669 0.950 . S
C673 C664 1.390 . S
C673 H666 0.950 . S
C673 C670 1.387 1_545 S
C674 C675 1.387 . S
C674 H678 0.950 . S
C674 C683 1.390 1_556 S
C675 C674 1.387 . S
C675 C677 1.387 . S
H676 C683 0.950 . S
C677 C675 1.387 . S
C677 C679 1.390 1_656 S
C677 H681 0.950 1_655 S
H678 C674 0.950 . S
C679 C677 1.390 1_454 S
C679 C680 1.387 . S
C679 H682 0.950 . S
C680 C679 1.387 . S
C680 C683 1.387 1_455 S
H681 C677 0.950 1_455 S
H682 C679 0.950 . S
C683 C674 1.390 1_554 S
C683 H676 0.950 . S
C683 C680 1.387 1_655 S
C684 C685 1.387 . S
C684 H688 0.950 . S
C684 C693 1.390 . S
C685 C684 1.387 . S
C685 C687 1.387 . S
H686 C693 0.950 . S
C687 C685 1.387 . S
C687 C689 1.390 . S
C687 H691 0.950 . S
H688 C684 0.950 . S
C689 C687 1.390 . S
C689 C690 1.387 . S
C689 H692 0.950 . S
C690 C689 1.387 . S
C690 C693 1.387 . S
H691 C687 0.950 . S
H692 C689 0.950 . S
C693 C684 1.390 . S
C693 H686 0.950 . S
C693 C690 1.387 . S
C694 C695 1.387 . S
C694 H698 0.950 . S
C694 C703 1.390 . S
C695 C694 1.387 . S
C695 C697 1.387 . S
H696 C703 0.950 . S
C697 C695 1.387 . S
C697 C699 1.390 . S
C697 H701 0.950 . S
H698 C694 0.950 . S
C699 C697 1.390 . S
C699 C700 1.387 . S
C699 H702 0.950 . S
C700 C699 1.387 . S
C700 C703 1.387 . S
H701 C697 0.950 . S
H702 C699 0.950 . S
C703 C694 1.390 . S
C703 H696 0.950 . S
C703 C700 1.387 . S
C704 C705 1.387 . S
C704 H708 0.950 . S
C704 C713 1.390 . S
C705 C704 1.387 . S
C705 C707 1.387 . S
H706 C713 0.950 . S
C707 C705 1.387 . S
C707 C709 1.390 . S
C707 H711 0.950 . S
H708 C704 0.950 . S
C709 C707 1.390 . S
C709 C710 1.387 . S
C709 H712 0.950 . S
C710 C709 1.387 . S
C710 C713 1.387 . S
H711 C707 0.950 . S
H712 C709 0.950 . S
C713 C704 1.390 . S
C713 H706 0.950 . S
C713 C710 1.387 . S
C714 C715 1.387 . S
C714 H718 0.950 . S
C714 C723 1.390 1_554 S
C715 C714 1.387 . S
C715 C717 1.387 . S
H716 C723 0.950 . S
C717 C715 1.387 . S
C717 C719 1.390 1_554 S
C717 H721 0.950 . S
H718 C714 0.950 . S
C719 C717 1.390 1_556 S
C719 C720 1.387 . S
C719 H722 0.950 . S
C720 C719 1.387 . S
C720 C723 1.387 . S
H721 C717 0.950 . S
H722 C719 0.950 . S
C723 C714 1.390 1_556 S
C723 H716 0.950 . S
C723 C720 1.387 . S
C724 C725 1.387 1_565 S
C724 H728 0.946 1_565 S
C724 C733 1.390 . S
C725 C724 1.387 1_545 S
C725 C727 1.387 1_545 S
H726 C733 0.950 . S
C727 C725 1.387 1_565 S
C727 C729 1.390 . S
C727 H731 0.952 . S
H728 C724 0.946 1_545 S
C729 C727 1.390 . S
C729 C730 1.387 . S
C729 H732 0.950 . S
C730 C729 1.387 . S
C730 C733 1.387 . S
H731 C727 0.952 . S
H732 C729 0.950 . S
C733 C724 1.390 . S
C733 H726 0.950 . S
C733 C730 1.387 . S
C734 C735 1.387 . S
C734 H738 0.950 . S
C734 C743 1.390 . S
C735 C734 1.387 . S
C735 C737 1.387 . S
H736 C743 0.950 . S
C737 C735 1.387 . S
C737 C739 1.390 . S
C737 H741 0.950 . S
H738 C734 0.950 . S
C739 C737 1.390 . S
C739 C740 1.387 1_455 S
C739 H742 0.950 1_455 S
C740 C739 1.387 1_655 S
C740 C743 1.387 1_655 S
H741 C737 0.950 . S
H742 C739 0.950 1_655 S
C743 C734 1.390 . S
C743 H736 0.950 . S
C743 C740 1.387 1_455 S
C744 C745 1.387 . S
C744 H748 0.950 . S
C744 C753 1.390 . S
C745 C744 1.387 . S
C745 C747 1.387 . S
H746 C753 0.950 . S
C747 C745 1.387 . S
C747 C749 1.390 . S
C747 H751 0.950 . S
H748 C744 0.950 . S
C749 C747 1.390 . S
C749 C750 1.387 . S
C749 H752 0.950 . S
C750 C749 1.387 . S
C750 C753 1.387 . S
H751 C747 0.950 . S
H752 C749 0.950 . S
C753 C744 1.390 . S
C753 H746 0.950 . S
C753 C750 1.387 . S
C754 C755 1.387 . S
C754 H758 0.950 . S
C754 C763 1.390 . S
C755 C754 1.387 . S
C755 C757 1.387 . S
H756 C763 0.950 . S
C757 C755 1.387 . S
C757 C759 1.390 . S
C757 H761 0.950 . S
H758 C754 0.950 . S
C759 C757 1.390 . S
C759 C760 1.387 . S
C759 H762 0.950 . S
C760 C759 1.387 . S
C760 C763 1.387 . S
H761 C757 0.950 . S
H762 C759 0.950 . S
C763 C754 1.390 . S
C763 H756 0.950 . S
C763 C760 1.387 . S
C764 C765 1.387 . S
C764 H768 0.950 . S
C764 C773 1.390 1_565 S
C765 C764 1.387 . S
C765 C767 1.387 . S
H766 C773 0.950 . S
C767 C765 1.387 . S
C767 C769 1.390 . S
C767 H771 0.950 . S
H768 C764 0.950 . S
C769 C767 1.390 . S
C769 C770 1.387 1_565 S
C769 H772 0.950 . S
C770 C769 1.387 1_545 S
C770 C773 1.387 . S
H771 C767 0.950 . S
H772 C769 0.950 . S
C773 C764 1.390 1_545 S
C773 H766 0.950 . S
C773 C770 1.387 . S
C774 C775 1.387 1_455 S
C774 H778 0.950 1_455 S
C774 C783 1.390 1_554 S
C775 C774 1.387 1_655 S
C775 C777 1.387 1_655 S
H776 C783 0.950 . S
C777 C775 1.387 1_455 S
C777 C779 1.390 1_554 S
C777 H781 0.950 . S
H778 C774 0.950 1_655 S
C779 C777 1.390 1_556 S
C779 C780 1.387 . S
C779 H782 0.950 . S
C780 C779 1.387 . S
C780 C783 1.387 . S
H781 C777 0.950 . S
H782 C779 0.950 . S
C783 C774 1.390 1_556 S
C783 H776 0.950 . S
C783 C780 1.387 . S
C784 C785 1.387 . S
C784 H788 0.950 . S
C784 C793 1.390 . S
C785 C784 1.387 . S
C785 C787 1.387 . S
H786 C793 0.950 . S
C787 C785 1.387 . S
C787 C789 1.390 . S
C787 H791 0.950 . S
H788 C784 0.950 . S
C789 C787 1.390 . S
C789 C790 1.387 . S
C789 H792 0.950 . S
C790 C789 1.387 . S
C790 C793 1.387 . S
H791 C787 0.950 . S
H792 C789 0.950 . S
C793 C784 1.390 . S
C793 H786 0.950 . S
C793 C790 1.387 . S
C794 C795 1.387 . S
C794 H798 0.950 . S
C794 C803 1.390 . S
C795 C794 1.387 . S
C795 C797 1.387 . S
H796 C803 0.950 . S
C797 C795 1.387 . S
C797 C799 1.390 . S
C797 H801 0.950 . S
H798 C794 0.950 . S
C799 C797 1.390 . S
C799 C800 1.387 . S
C799 H802 0.950 . S
C800 C799 1.387 . S
C800 C803 1.387 . S
H801 C797 0.950 . S
H802 C799 0.950 . S
C803 C794 1.390 . S
C803 H796 0.950 . S
C803 C800 1.387 . S
C804 C805 1.387 . S
C804 H808 0.950 . S
C804 C813 1.390 . S
C805 C804 1.387 . S
C805 C807 1.387 . S
H806 C813 0.950 . S
C807 C805 1.387 . S
C807 C809 1.390 . S
C807 H811 0.950 . S
H808 C804 0.950 . S
C809 C807 1.390 . S
C809 C810 1.387 . S
C809 H812 0.950 . S
C810 C809 1.387 . S
C810 C813 1.387 . S
H811 C807 0.950 . S
H812 C809 0.950 . S
C813 C804 1.390 . S
C813 H806 0.950 . S
C813 C810 1.387 . S
C814 C815 1.387 . S
C814 H818 0.950 . S
C814 C823 1.390 . S
C815 C814 1.387 . S
C815 C817 1.387 . S
H816 C823 0.950 . S
C817 C815 1.387 . S
C817 C819 1.390 . S
C817 H821 0.950 . S
H818 C814 0.950 . S
C819 C817 1.390 . S
C819 C820 1.387 . S
C819 H822 0.950 . S
C820 C819 1.387 . S
C820 C823 1.387 . S
H821 C817 0.950 . S
H822 C819 0.950 . S
C823 C814 1.390 . S
C823 H816 0.950 . S
C823 C820 1.387 . S
C824 C825 1.387 . S
C824 H828 0.950 . S
C824 C833 1.390 . S
C825 C824 1.387 . S
C825 C827 1.387 . S
H826 C833 0.950 . S
C827 C825 1.387 . S
C827 C829 1.390 . S
C827 H831 0.950 . S
H828 C824 0.950 . S
C829 C827 1.390 . S
C829 C830 1.387 . S
C829 H832 0.950 . S
C830 C829 1.387 . S
C830 C833 1.387 . S
H831 C827 0.950 . S
H832 C829 0.950 . S
C833 C824 1.390 . S
C833 H826 0.950 . S
C833 C830 1.387 . S
C834 C835 1.387 . S
C834 H838 0.950 . S
C834 C843 1.390 . S
C835 C834 1.387 . S
C835 C837 1.387 . S
H836 C843 0.950 . S
C837 C835 1.387 . S
C837 C839 1.390 . S
C837 H841 0.950 . S
H838 C834 0.950 . S
C839 C837 1.390 . S
C839 C840 1.387 . S
C839 H842 0.950 . S
C840 C839 1.387 . S
C840 C843 1.387 . S
H841 C837 0.950 . S
H842 C839 0.950 . S
C843 C834 1.390 . S
C843 H836 0.950 . S
C843 C840 1.387 . S
C844 C845 1.387 . S
C844 H848 0.950 . S
C844 C853 1.390 . S
C845 C844 1.387 . S
C845 C847 1.387 . S
H846 C853 0.950 . S
C847 C845 1.387 . S
C847 C849 1.390 . S
C847 H851 0.950 . S
H848 C844 0.950 . S
C849 C847 1.390 . S
C849 C850 1.387 . S
C849 H852 0.950 . S
C850 C849 1.387 . S
C850 C853 1.387 . S
H851 C847 0.950 . S
H852 C849 0.950 . S
C853 C844 1.390 . S
C853 H846 0.950 . S
C853 C850 1.387 . S
C854 C855 1.387 . S
C854 H858 0.950 . S
C854 C863 1.390 . S
C855 C854 1.387 . S
C855 C857 1.387 . S
H856 C863 0.950 . S
C857 C855 1.387 . S
C857 C859 1.390 . S
C857 H861 0.950 . S
H858 C854 0.950 . S
C859 C857 1.390 . S
C859 C860 1.387 . S
C859 H862 0.950 . S
C860 C859 1.387 . S
C860 C863 1.387 . S
H861 C857 0.950 . S
H862 C859 0.950 . S
C863 C854 1.390 . S
C863 H856 0.950 . S
C863 C860 1.387 . S
C864 C865 1.387 . S
C864 H868 0.950 . S
C864 C873 1.390 . S
C865 C864 1.387 . S
C865 C867 1.387 . S
H866 C873 0.950 . S
C867 C865 1.387 . S
C867 C869 1.390 . S
C867 H871 0.950 . S
H868 C864 0.950 . S
C869 C867 1.390 . S
C869 C870 1.387 . S
C869 H872 0.950 . S
C870 C869 1.387 . S
C870 C873 1.387 . S
H871 C867 0.950 . S
H872 C869 0.950 . S
C873 C864 1.390 . S
C873 H866 0.950 . S
C873 C870 1.387 . S
C874 C875 1.387 . S
C874 H878 0.950 . S
C874 C883 1.390 . S
C875 C874 1.387 . S
C875 C877 1.387 . S
H876 C883 0.950 . S
C877 C875 1.387 . S
C877 C879 1.390 . S
C877 H881 0.950 . S
H878 C874 0.950 . S
C879 C877 1.390 . S
C879 C880 1.387 . S
C879 H882 0.950 . S
C880 C879 1.387 . S
C880 C883 1.387 . S
H881 C877 0.950 . S
H882 C879 0.950 . S
C883 C874 1.390 . S
C883 H876 0.950 . S
C883 C880 1.387 . S
C884 C885 1.387 . S
C884 H888 0.950 . S
C884 C893 1.390 . S
C885 C884 1.387 . S
C885 C887 1.387 . S
H886 C893 0.950 . S
C887 C885 1.387 . S
C887 C889 1.390 . S
C887 H891 0.950 . S
H888 C884 0.950 . S
C889 C887 1.390 . S
C889 C890 1.387 . S
C889 H892 0.950 . S
C890 C889 1.387 . S
C890 C893 1.387 . S
H891 C887 0.950 . S
H892 C889 0.950 . S
C893 C884 1.390 . S
C893 H886 0.950 . S
C893 C890 1.387 . S
C894 C895 1.387 . S
C894 H898 0.950 . S
C894 C903 1.390 . S
C895 C894 1.387 . S
C895 C897 1.387 . S
H896 C903 0.950 . S
C897 C895 1.387 . S
C897 C899 1.390 . S
C897 H901 0.950 . S
H898 C894 0.950 . S
C899 C897 1.390 . S
C899 C900 1.387 . S
C899 H902 0.950 . S
C900 C899 1.387 . S
C900 C903 1.387 . S
H901 C897 0.950 . S
H902 C899 0.950 . S
C903 C894 1.390 . S
C903 H896 0.950 . S
C903 C900 1.387 . S
C904 C905 1.387 . S
C904 H908 0.950 . S
C904 C913 1.390 . S
C905 C904 1.387 . S
C905 C907 1.387 . S
H906 C913 0.950 . S
C907 C905 1.387 . S
C907 C909 1.390 . S
C907 H911 0.950 . S
H908 C904 0.950 . S
C909 C907 1.390 . S
C909 C910 1.387 . S
C909 H912 0.950 . S
C910 C909 1.387 . S
C910 C913 1.387 . S
H911 C907 0.950 . S
H912 C909 0.950 . S
C913 C904 1.390 . S
C913 H906 0.950 . S
C913 C910 1.387 . S
C914 C915 1.387 . S
C914 H918 0.950 . S
C914 C923 1.390 . S
C915 C914 1.387 . S
C915 C917 1.387 . S
H916 C923 0.950 . S
C917 C915 1.387 . S
C917 C919 1.390 . S
C917 H921 0.950 . S
H918 C914 0.950 . S
C919 C917 1.390 . S
C919 C920 1.387 . S
C919 H922 0.950 . S
C920 C919 1.387 . S
C920 C923 1.387 . S
H921 C917 0.950 . S
H922 C919 0.950 . S
C923 C914 1.390 . S
C923 H916 0.950 . S
C923 C920 1.387 . S
C924 C925 1.387 . S
C924 H928 0.950 . S
C924 C933 1.390 . S
C925 C924 1.387 . S
C925 C927 1.387 . S
H926 C933 0.950 . S
C927 C925 1.387 . S
C927 C929 1.390 . S
C927 H931 0.950 . S
H928 C924 0.950 . S
C929 C927 1.390 . S
C929 C930 1.387 . S
C929 H932 0.950 . S
C930 C929 1.387 . S
C930 C933 1.387 . S
H931 C927 0.950 . S
H932 C929 0.950 . S
C933 C924 1.390 . S
C933 H926 0.950 . S
C933 C930 1.387 . S
C934 C935 1.387 . S
C934 H938 0.950 . S
C934 C943 1.390 . S
C935 C934 1.387 . S
C935 C937 1.387 . S
H936 C943 0.950 . S
C937 C935 1.387 . S
C937 C939 1.390 . S
C937 H941 0.950 . S
H938 C934 0.950 . S
C939 C937 1.390 . S
C939 C940 1.387 . S
C939 H942 0.950 . S
C940 C939 1.387 . S
C940 C943 1.387 . S
H941 C937 0.950 . S
H942 C939 0.950 . S
C943 C934 1.390 . S
C943 H936 0.950 . S
C943 C940 1.387 . S
C545 C345 1.683 . S
C550 C5 1.683 . S
C555 C39 1.683 . S
C560 C379 1.683 . S
C565 C277 1.683 . S
C570 C73 1.683 . S
C575 C107 1.683 . S
C580 C311 1.683 . S
C585 C481 1.683 . S
C590 C141 1.683 . S
C595 C175 1.683 . S
C600 C515 1.683 . S
C605 C209 1.683 . S
C610 C413 1.683 . S
C615 C447 1.683 . S
C620 C243 1.683 . S
C625 C496 1.208 . S
C630 C33 1.207 . S
C635 C530 1.208 . S
C640 C67 1.207 . S
C645 C101 1.207 . S
C650 C428 1.208 . S
C655 C462 1.209 . S
C660 C135 1.208 . S
C665 C169 1.207 . S
C670 C360 1.209 . S
C675 C203 1.206 . S
C680 C394 1.207 . S
C685 C292 1.208 . S
C690 C237 1.209 . S
C695 C271 1.207 . S
C700 C326 1.207 . S
C705 C224 1.209 . S
C710 C305 1.208 . S
C715 C258 1.207 . S
C720 C339 1.207 . S
C725 C156 1.209 . S
C730 C373 1.209 . S
C735 C407 1.209 . S
C740 C190 1.209 . S
C745 C441 1.209 . S
C750 C88 1.209 . S
C755 C475 1.209 . S
C760 C122 1.209 . S
C765 C509 1.209 . S
C770 C20 1.209 . S
C775 C54 1.207 . S
C780 C543 1.207 . S
C785 C383 1.553 . S
C790 C2 1.614 . S
C795 C36 1.614 . S
C800 C281 1.552 . S
C805 C70 1.615 . S
C810 C315 1.550 . S
C815 C104 1.615 . S
C820 C349 1.550 . S
C825 C179 1.550 . S
C830 C138 1.615 . S
C835 C172 1.614 . S
C840 C213 1.552 . S
C845 C247 1.550 . S
C850 C206 1.615 . S
C855 C240 1.615 . S
C860 C145 1.550 . S
C865 C111 1.551 . S
C870 C274 1.614 . S
C875 C308 1.614 . S
C880 C9 1.552 . S
C885 C342 1.615 . S
C890 C43 1.550 . S
C895 C77 1.550 . S
C900 C376 1.615 . S
C905 C451 1.550 . S
C910 C410 1.615 . S
C915 C485 1.550 . S
C920 C444 1.615 . S
C925 C478 1.615 . S
C930 C519 1.551 . S
C935 C417 1.550 . S
C940 C512 1.615 . S
