# Generated by pormake.
# Topology uoz, (4)-cn, num edge types: 1
# Building blocks:
#     Node 0, Type 0, BuildingBlock: CEKHIL_clean_sbu_0, # of connection points: 4
#     Node 1, Type 0, BuildingBlock: CEKHIL_clean_sbu_0, # of connection points: 4
#     Node 2, Type 0, BuildingBlock: CEKHIL_clean_sbu_0, # of connection points: 4
#     Node 3, Type 0, BuildingBlock: CEKHIL_clean_sbu_0, # of connection points: 4
#     Node 4, Type 0, BuildingBlock: CEKHIL_clean_sbu_0, # of connection points: 4
#     Node 5, Type 0, BuildingBlock: CEKHIL_clean_sbu_0, # of connection points: 4
#     Node 6, Type 0, BuildingBlock: CEKHIL_clean_sbu_0, # of connection points: 4
#     Node 7, Type 0, BuildingBlock: CEKHIL_clean_sbu_0, # of connection points: 4
#     Node 8, Type 0, BuildingBlock: CEKHIL_clean_sbu_0, # of connection points: 4
#     Node 9, Type 0, BuildingBlock: CEKHIL_clean_sbu_0, # of connection points: 4
#     Node 10, Type 0, BuildingBlock: CEKHIL_clean_sbu_0, # of connection points: 4
#     Node 11, Type 0, BuildingBlock: CEKHIL_clean_sbu_0, # of connection points: 4
#     Node 12, Type 0, BuildingBlock: CEKHIL_clean_sbu_0, # of connection points: 4
#     Node 13, Type 0, BuildingBlock: CEKHIL_clean_sbu_0, # of connection points: 4
#     Node 14, Type 0, BuildingBlock: CEKHIL_clean_sbu_0, # of connection points: 4
#     Node 15, Type 0, BuildingBlock: CEKHIL_clean_sbu_0, # of connection points: 4
#     Edge 16, Type (0, 0), BuildingBlock: EZIPEK_clean_linker_0, # of connection points: 2
#     Edge 17, Type (0, 0), BuildingBlock: EZIPEK_clean_linker_0, # of connection points: 2
#     Edge 18, Type (0, 0), BuildingBlock: EZIPEK_clean_linker_0, # of connection points: 2
#     Edge 19, Type (0, 0), BuildingBlock: EZIPEK_clean_linker_0, # of connection points: 2
#     Edge 20, Type (0, 0), BuildingBlock: EZIPEK_clean_linker_0, # of connection points: 2
#     Edge 21, Type (0, 0), BuildingBlock: EZIPEK_clean_linker_0, # of connection points: 2
#     Edge 22, Type (0, 0), BuildingBlock: EZIPEK_clean_linker_0, # of connection points: 2
#     Edge 23, Type (0, 0), BuildingBlock: EZIPEK_clean_linker_0, # of connection points: 2
#     Edge 24, Type (0, 0), BuildingBlock: EZIPEK_clean_linker_0, # of connection points: 2
#     Edge 25, Type (0, 0), BuildingBlock: EZIPEK_clean_linker_0, # of connection points: 2
#     Edge 26, Type (0, 0), BuildingBlock: EZIPEK_clean_linker_0, # of connection points: 2
#     Edge 27, Type (0, 0), BuildingBlock: EZIPEK_clean_linker_0, # of connection points: 2
#     Edge 28, Type (0, 0), BuildingBlock: EZIPEK_clean_linker_0, # of connection points: 2
#     Edge 29, Type (0, 0), BuildingBlock: EZIPEK_clean_linker_0, # of connection points: 2
#     Edge 30, Type (0, 0), BuildingBlock: EZIPEK_clean_linker_0, # of connection points: 2
#     Edge 31, Type (0, 0), BuildingBlock: EZIPEK_clean_linker_0, # of connection points: 2
#     Edge 32, Type (0, 0), BuildingBlock: EZIPEK_clean_linker_0, # of connection points: 2
#     Edge 33, Type (0, 0), BuildingBlock: EZIPEK_clean_linker_0, # of connection points: 2
#     Edge 34, Type (0, 0), BuildingBlock: EZIPEK_clean_linker_0, # of connection points: 2
#     Edge 35, Type (0, 0), BuildingBlock: EZIPEK_clean_linker_0, # of connection points: 2
#     Edge 36, Type (0, 0), BuildingBlock: EZIPEK_clean_linker_0, # of connection points: 2
#     Edge 37, Type (0, 0), BuildingBlock: EZIPEK_clean_linker_0, # of connection points: 2
#     Edge 38, Type (0, 0), BuildingBlock: EZIPEK_clean_linker_0, # of connection points: 2
#     Edge 39, Type (0, 0), BuildingBlock: EZIPEK_clean_linker_0, # of connection points: 2
#     Edge 40, Type (0, 0), BuildingBlock: EZIPEK_clean_linker_0, # of connection points: 2
#     Edge 41, Type (0, 0), BuildingBlock: EZIPEK_clean_linker_0, # of connection points: 2
#     Edge 42, Type (0, 0), BuildingBlock: EZIPEK_clean_linker_0, # of connection points: 2
#     Edge 43, Type (0, 0), BuildingBlock: EZIPEK_clean_linker_0, # of connection points: 2
#     Edge 44, Type (0, 0), BuildingBlock: EZIPEK_clean_linker_0, # of connection points: 2
#     Edge 45, Type (0, 0), BuildingBlock: EZIPEK_clean_linker_0, # of connection points: 2
#     Edge 46, Type (0, 0), BuildingBlock: EZIPEK_clean_linker_0, # of connection points: 2
#     Edge 47, Type (0, 0), BuildingBlock: EZIPEK_clean_linker_0, # of connection points: 2
# Relax obj value: 0.180
# Max RMSD: 0.171
# Mean RMSD: 0.171
data_MOF--net-uoz--node1-CEKHIL_clean_sbu_0--edge1-EZIPEK_clean_linker_0
_symmetry_space_group_name_H-M    P1
_symmetry_Int_Tables_number       1
_symmetry_cell_setting            triclinic
loop_
_symmetry_equiv_pos_as_xyz
'x, y, z'
_cell_length_a     43.903237
_cell_length_b     43.828862
_cell_length_c     14.859897
_cell_angle_alpha  89.785253
_cell_angle_beta   89.652845
_cell_angle_gamma 89.875157
loop_
_atom_site_label
_atom_site_type_symbol
_atom_site_fract_x
_atom_site_fract_y
_atom_site_fract_z
_atom_type_partial_charge
Co0 Co 0.03279 0.58952 0.29011 0.0
O1 O 0.01239 0.55388 0.34361 0.0
O2 O 0.05263 0.57576 0.40159 0.0
C3 C 0.99024 0.6177 0.2581 0.0
O4 O 0.06039 0.6259 0.25595 0.0
Co5 Co 0.02106 0.61146 0.0911 0.0
O6 O 0.04319 0.64833 0.1295 0.0
C7 C 0.06602 0.56201 0.12982 0.0
C8 C 0.03249 0.55407 0.40739 0.0
C9 C 0.06153 0.64724 0.1955 0.0
O10 O 0.06022 0.56266 0.21505 0.0
O11 O 0.05144 0.57812 0.07224 0.0
O12 O 1.00127 0.61746 0.33927 0.0
O13 O 1.00312 0.59907 0.20341 0.0
Co14 Co 0.70728 0.72755 0.54502 0.0
O15 O 0.74255 0.70762 0.6007 0.0
O16 O 0.72644 0.7532 0.63696 0.0
C17 C 0.67664 0.68567 0.54503 0.0
O18 O 0.67149 0.75596 0.50649 0.0
Co19 Co 0.67774 0.70528 0.36386 0.0
O20 O 0.65371 0.74292 0.37029 0.0
C21 C 0.73272 0.74445 0.36295 0.0
C22 C 0.74669 0.73184 0.64915 0.0
C23 C 0.65381 0.76057 0.43788 0.0
O24 O 0.73434 0.74566 0.44933 0.0
O25 O 0.7117 0.73084 0.3199 0.0
O26 O 0.67893 0.70206 0.61779 0.0
O27 O 0.69362 0.69387 0.4794 0.0
Co28 Co 0.5368 0.41264 0.83726 0.0
O29 O 0.55696 0.44843 0.89003 0.0
O30 O 0.52238 0.42151 0.96048 0.0
C31 C 0.57921 0.38945 0.77703 0.0
O32 O 0.51042 0.37495 0.80775 0.0
Co33 Co 0.53858 0.39868 0.62927 0.0
O34 O 0.51803 0.3605 0.66356 0.0
C35 C 0.49567 0.44501 0.70244 0.0
C36 C 0.54051 0.44496 0.96238 0.0
C37 C 0.50572 0.35684 0.74055 0.0
O38 O 0.50421 0.4396 0.78402 0.0
O39 O 0.50781 0.43224 0.63358 0.0
O40 O 0.5726 0.38624 0.86217 0.0
O41 O 0.56203 0.40827 0.73455 0.0
Co42 Co 0.87951 0.27368 0.08513 0.0
O43 O 0.84582 0.29802 0.13607 0.0
O44 O 0.8624 0.25548 0.19615 0.0
C45 C 0.91111 0.31379 0.05129 0.0
O46 O 0.91324 0.24166 0.0555 0.0
Co47 Co 0.90437 0.28161 0.88591 0.0
O48 O 0.93311 0.24894 0.91627 0.0
C49 C 0.84363 0.25532 0.92515 0.0
C50 C 0.84261 0.27759 0.19894 0.0
C51 C 0.93175 0.23443 0.99038 0.0
O52 O 0.84937 0.25117 1.00914 0.0
O53 O 0.86132 0.2692 0.87013 0.0
O54 O 0.91024 0.30272 0.13292 0.0
O55 O 0.89248 0.3016 0.9964 0.0
Co56 Co 0.03035 0.4287 0.82387 0.0
O57 O 0.01032 0.46355 0.76555 0.0
O58 O 0.0501 0.43996 0.70899 0.0
C59 C 0.98793 0.40152 0.86434 0.0
O60 O 0.05713 0.39223 0.86383 0.0
Co61 Co 0.01827 0.41451 0.03003 0.0
O62 O 0.0492 0.3824 1.01163 0.0
C63 C 0.06389 0.46096 0.97498 0.0
C64 C 0.03042 0.4621 0.70125 0.0
C65 C 0.06301 0.37735 0.9375 0.0
O66 O 0.0587 0.45671 0.89073 0.0
O67 O 0.04841 0.44816 0.03777 0.0
O68 O 0.99833 0.4003 0.78214 0.0
O69 O 1.00078 0.4216 0.91377 0.0
Co70 Co 0.88143 0.74378 0.02799 0.0
O71 O 0.85104 0.7191 0.96545 0.0
O72 O 0.86886 0.76253 0.91341 0.0
C73 C 0.91258 0.7045 0.07157 0.0
O74 O 0.91236 0.77587 0.0717 0.0
Co75 Co 0.89542 0.73499 0.23478 0.0
O76 O 0.92696 0.76609 0.21458 0.0
C77 C 0.83843 0.7644 0.17284 0.0
C78 C 0.84968 0.74017 0.90391 0.0
C79 C 0.92834 0.78181 0.14253 0.0
O80 O 0.84796 0.76632 0.09128 0.0
O81 O 0.85279 0.75072 0.23588 0.0
O82 O 0.91485 0.71581 0.99047 0.0
O83 O 0.89085 0.71553 0.11935 0.0
Co84 Co 0.55033 0.56962 0.38143 0.0
O85 O 0.56869 0.5336 0.3234 0.0
O86 O 0.52702 0.55572 0.27616 0.0
C87 C 0.59373 0.59739 0.39991 0.0
O88 O 0.52446 0.6074 0.4189 0.0
Co89 Co 0.56848 0.59208 0.57442 0.0
O90 O 0.53579 0.62215 0.55984 0.0
C91 C 0.52002 0.5461 0.55227 0.0
C92 C 0.54694 0.53402 0.26447 0.0
C93 C 0.52032 0.62493 0.48826 0.0
O94 O 0.52602 0.54279 0.46744 0.0
O95 O 0.53189 0.56693 0.59971 0.0
O96 O 0.58024 0.59701 0.32206 0.0
O97 O 0.58278 0.57898 0.4587 0.0
Co98 Co 0.7006 0.2756 0.56722 0.0
O99 O 0.73375 0.30032 0.51466 0.0
O100 O 0.72064 0.25525 0.46477 0.0
C101 C 0.66601 0.31448 0.58422 0.0
O102 O 0.66867 0.24246 0.60056 0.0
Co103 Co 0.6699 0.28774 0.75708 0.0
O104 O 0.64286 0.25359 0.72831 0.0
C105 C 0.73178 0.26047 0.7401 0.0
C106 C 0.73905 0.27835 0.45804 0.0
C107 C 0.64812 0.23645 0.66117 0.0
O108 O 0.73018 0.25707 0.65424 0.0
O109 O 0.71145 0.27352 0.78855 0.0
O110 O 0.6691 0.30103 0.50647 0.0
O111 O 0.68419 0.30517 0.64527 0.0
Co112 Co 0.37314 0.22587 0.57534 0.0
O113 O 0.33752 0.20851 0.51487 0.0
O114 O 0.36038 0.25049 0.47077 0.0
C115 C 0.40144 0.18223 0.59299 0.0
O116 O 0.40964 0.25094 0.62056 0.0
Co117 Co 0.38947 0.20395 0.77221 0.0
O118 O 0.41811 0.23874 0.76621 0.0
C119 C 0.3463 0.25523 0.74381 0.0
C120 C 0.3384 0.23111 0.45826 0.0
C121 C 0.42318 0.25519 0.69685 0.0
O122 O 0.34669 0.25146 0.65772 0.0
O123 O 0.35939 0.23684 0.79831 0.0
O124 O 0.40119 0.1965 0.51607 0.0
O125 O 0.38183 0.19209 0.65038 0.0
Co126 Co 0.20664 0.77871 0.08963 0.0
O127 O 0.24056 0.80105 0.03341 0.0
O128 O 0.22722 0.75472 0.99603 0.0
C129 C 0.1732 0.81854 0.09294 0.0
O130 O 0.17338 0.74774 0.12803 0.0
Co131 Co 0.17388 0.79721 0.27098 0.0
O132 O 0.14373 0.76607 0.2397 0.0
C133 C 0.2328 0.76324 0.27031 0.0
C134 C 0.24606 0.77727 0.9838 0.0
C135 C 0.15018 0.74565 0.18205 0.0
O136 O 0.23459 0.76185 0.1839 0.0
O137 O 0.21094 0.77579 0.31388 0.0
O138 O 0.17655 0.80276 1.01922 0.0
O139 O 0.19055 0.81083 0.15784 0.0
Co140 Co 0.2128 0.24939 0.04824 0.0
O141 O 0.24599 0.22464 0.09896 0.0
O142 O 0.22591 0.26409 0.16697 0.0
C143 C 0.1838 0.20982 0.99652 0.0
O144 O 0.17839 0.28051 1.02131 0.0
Co145 Co 0.19416 0.2475 0.84349 0.0
O146 O 0.16048 0.27452 0.88028 0.0
C147 C 0.24849 0.28248 0.90276 0.0
C148 C 0.24646 0.24263 0.16828 0.0
C149 C 0.1598 0.28741 0.95685 0.0
O150 O 0.24318 0.27699 0.98669 0.0
O151 O 0.23294 0.27085 0.83892 0.0
O152 O 0.18232 0.21767 0.08104 0.0
O153 O 0.20366 0.22424 0.94966 0.0
Co154 Co 0.38212 0.76378 0.60385 0.0
O155 O 0.35158 0.79011 0.66176 0.0
O156 O 0.36835 0.74723 0.72029 0.0
C157 C 0.41421 0.80165 0.55492 0.0
O158 O 0.41309 0.73024 0.56909 0.0
Co159 Co 0.39912 0.76708 0.39771 0.0
O160 O 0.4288 0.73463 0.42471 0.0
C161 C 0.33947 0.74386 0.4599 0.0
C162 C 0.34944 0.77002 0.72611 0.0
C163 C 0.42943 0.72147 0.50112 0.0
O164 O 0.34863 0.74121 0.54149 0.0
O165 O 0.35513 0.75612 0.39668 0.0
O166 O 0.41557 0.79197 0.638 0.0
O167 O 0.393 0.78981 0.50783 0.0
Co168 Co 0.53543 0.08153 0.81528 0.0
O169 O 0.51665 0.04648 0.87666 0.0
O170 O 0.55267 0.07396 0.93611 0.0
C171 C 0.49179 0.10444 0.76474 0.0
O172 O 0.56021 0.11927 0.77121 0.0
Co173 Co 0.52789 0.08893 0.60597 0.0
O174 O 0.55657 0.12292 0.61992 0.0
C175 C 0.57337 0.0458 0.67806 0.0
C176 C 0.53458 0.05055 0.9446 0.0
C177 C 0.56705 0.13217 0.69461 0.0
O178 O 0.56689 0.05369 0.7594 0.0
O179 O 0.559 0.05585 0.60941 0.0
O180 O 0.50073 0.10828 0.84724 0.0
O181 O 0.50717 0.08448 0.72014 0.0
Co182 Co 0.04882 0.92494 0.32854 0.0
O183 O 0.07037 0.95651 0.39616 0.0
O184 O 0.02963 0.93312 0.44682 0.0
C185 C 0.08995 0.89804 0.27722 0.0
O186 O 0.02103 0.89101 0.27667 0.0
Co187 Co 0.05936 0.92009 0.11774 0.0
O188 O 0.02881 0.88761 0.12624 0.0
C189 C 0.02284 0.96997 0.1957 0.0
C190 C 0.04991 0.95437 0.45917 0.0
C191 C 0.01559 0.879 0.1984 0.0
O192 O 0.02236 0.95737 0.27377 0.0
O193 O 0.03843 0.96002 0.12904 0.0
O194 O 0.07989 0.8937 0.35902 0.0
O195 O 0.07747 0.92043 0.23558 0.0
Co196 Co 0.53322 0.91919 0.34842 0.0
O197 O 0.5118 0.95555 0.30143 0.0
O198 O 0.55378 0.93714 0.24292 0.0
C199 C 0.49101 0.88923 0.37049 0.0
O200 O 0.56282 0.88291 0.37019 0.0
Co201 Co 0.52225 0.88676 0.53411 0.0
O202 O 0.54926 0.85439 0.49031 0.0
C203 C 0.56239 0.94109 0.52057 0.0
C204 C 0.53271 0.95795 0.23927 0.0
C205 C 0.56633 0.85954 0.42275 0.0
O206 O 0.55674 0.94527 0.43599 0.0
O207 O 0.55334 0.91785 0.56496 0.0
O208 O 0.50319 0.89176 0.29048 0.0
O209 O 0.50345 0.90556 0.43113 0.0
Co210 Co 0.0617 0.09514 0.82802 0.0
O211 O 0.08116 0.06008 0.76883 0.0
O212 O 0.03496 0.07523 0.73972 0.0
C213 C 0.10301 0.12666 0.82232 0.0
O214 O 0.03357 0.13067 0.87151 0.0
Co215 Co 0.08726 0.12462 1.00587 0.0
O216 O 0.04983 0.14911 1.00402 0.0
C217 C 0.04547 0.07159 1.01285 0.0
C218 C 0.05639 0.05532 0.72379 0.0
C219 C 0.03049 0.14853 0.94072 0.0
O220 O 0.04519 0.06818 0.92674 0.0
O221 O 0.05896 0.09332 0.05308 0.0
O222 O 0.0856 0.12404 0.75189 0.0
O223 O 0.09626 0.1092 0.88821 0.0
C224 C 0.11927 0.70448 0.10437 0.0
C225 C 0.13086 0.71761 0.1841 0.0
C226 C 0.0971 0.6845 0.27414 0.0
C227 C 0.08706 0.66989 0.19462 0.0
N228 N 0.0986 0.65889 0.03826 0.0
N229 N 0.13849 0.71158 0.3443 0.0
C230 C 0.10119 0.67771 0.11089 0.0
C231 C 0.12215 0.70497 0.26891 0.0
N232 N 0.12419 0.71798 1.02261 0.0
N233 N 0.08219 0.68017 0.35407 0.0
H234 H 0.15827 0.72473 0.34246 0.0
H235 H 0.13459 0.70091 0.40612 0.0
H236 H 0.06318 0.66623 0.36134 0.0
H237 H 0.087 0.69288 0.41139 0.0
H238 H 0.11344 0.71068 0.96416 0.0
H239 H 0.13644 0.73812 1.01425 0.0
H240 H 0.11055 0.66248 0.97831 0.0
H241 H 0.08785 0.63773 0.04173 0.0
C242 C 0.58726 0.81095 0.36349 0.0
C243 C 0.59236 0.83817 0.41051 0.0
C244 C 0.64079 0.81692 0.46541 0.0
C245 C 0.63234 0.78745 0.43352 0.0
N246 N 0.59211 0.75648 0.36815 0.0
N247 N 0.62325 0.86698 0.51287 0.0
C248 C 0.60408 0.78448 0.38666 0.0
C249 C 0.61893 0.84113 0.46366 0.0
N250 N 0.56647 0.81044 0.29579 0.0
N251 N 0.66995 0.82257 0.4921 0.0
H252 H 0.60868 0.88578 0.50868 0.0
H253 H 0.64031 0.86898 0.56097 0.0
H254 H 0.68741 0.80653 0.48802 0.0
H255 H 0.67767 0.84432 0.50827 0.0
H256 H 0.56327 0.79156 0.25448 0.0
H257 H 0.55569 0.83034 0.27403 0.0
H258 H 0.57036 0.75365 0.34165 0.0
H259 H 0.60195 0.73611 0.38894 0.0
C260 C 0.45525 0.33651 0.69113 0.0
C261 C 0.48164 0.33307 0.74515 0.0
C262 C 0.47115 0.27857 0.76076 0.0
C263 C 0.44394 0.28193 0.70946 0.0
N264 N 0.40565 0.31681 0.65271 0.0
N265 N 0.50819 0.30345 0.85592 0.0
C266 C 0.43469 0.31167 0.68184 0.0
C267 C 0.48753 0.30491 0.78785 0.0
N268 N 0.44969 0.36368 0.64873 0.0
N269 N 0.48212 0.25023 0.78113 0.0
H270 H 0.51858 0.32293 0.88126 0.0
H271 H 0.51182 0.28389 0.89454 0.0
H272 H 0.47136 0.23027 0.76137 0.0
H273 H 0.50341 0.24658 0.80982 0.0
H274 H 0.43322 0.36632 0.59912 0.0
H275 H 0.46256 0.38324 0.6603 0.0
H276 H 0.39691 0.33857 0.64063 0.0
H277 H 0.38904 0.29996 0.65037 0.0
C278 C 0.94866 0.18185 0.94381 0.0
C279 C 0.95319 0.20815 0.99768 0.0
C280 C 0.00767 0.19775 0.99883 0.0
C281 C 1.00346 0.16961 0.95213 0.0
N282 N 0.96708 0.13173 0.90209 0.0
N283 N 0.98527 0.2338 0.10289 0.0
C284 C 0.97311 0.16066 0.93056 0.0
C285 C 0.98212 0.21355 0.03421 0.0
N286 N 0.92101 0.17724 0.90458 0.0
N287 N 0.03589 0.21055 1.00531 0.0
H288 H 0.9664 0.24399 0.13356 0.0
H289 H 0.00586 0.23721 0.13596 0.0
H290 H 0.05496 0.20147 0.97333 0.0
H291 H 0.03945 0.23215 0.03241 0.0
H292 H 0.91732 0.16059 0.85598 0.0
H293 H 0.90221 0.1912 0.91775 0.0
H294 H 0.94502 0.12346 0.89421 0.0
H295 H 0.98365 0.11494 0.89517 0.0
C296 C 0.08443 0.32692 0.99118 0.0
C297 C 0.08843 0.35449 0.94109 0.0
C298 C 0.14162 0.33961 0.91144 0.0
C299 C 0.1378 0.31316 0.96596 0.0
N300 N 0.10876 0.28783 0.08146 0.0
N301 N 0.12423 0.39079 0.87767 0.0
C302 C 0.11021 0.30877 1.01343 0.0
C303 C 0.11797 0.36192 0.90754 0.0
N304 N 0.05591 0.31735 1.01508 0.0
N305 N 0.168 0.34354 0.86358 0.0
H306 H 0.10841 0.40851 0.87859 0.0
H307 H 0.14612 0.39811 0.86117 0.0
H308 H 0.1868 0.32913 0.87063 0.0
H309 H 0.17061 0.3602 0.81392 0.0
H310 H 0.05163 0.29598 0.04343 0.0
H311 H 0.03624 0.32928 0.99817 0.0
H312 H 0.08976 0.28522 0.12308 0.0
H313 H 0.12797 0.27601 0.10344 0.0
C314 C 0.96268 0.8568 0.22294 0.0
C315 C 0.99267 0.85404 0.1871 0.0
C316 C 0.97597 0.80964 0.09869 0.0
C317 C 0.94804 0.80934 0.14598 0.0
N318 N 0.91461 0.83198 0.25674 0.0
N319 N 0.02889 0.82379 0.10109 0.0
C320 C 0.94142 0.83269 0.20953 0.0
C321 C 0.99956 0.82933 0.12769 0.0
N322 N 0.9537 0.88315 0.26444 0.0
N323 N 0.97995 0.79148 1.02505 0.0
H324 H 0.04724 0.83701 0.12104 0.0
H325 H 0.03544 0.80421 0.06643 0.0
H326 H 0.96269 0.77776 0.99976 0.0
H327 H 0.99895 0.79285 0.98285 0.0
H328 H 0.93123 0.88757 0.28328 0.0
H329 H 0.96783 0.902 0.27198 0.0
H330 H 0.9102 0.84588 0.31203 0.0
H331 H 0.89728 0.81643 0.2431 0.0
C332 C 0.47784 0.69763 0.55519 0.0
C333 C 0.45004 0.69462 0.50906 0.0
C334 C 0.46632 0.64384 0.45666 0.0
C335 C 0.49624 0.64938 0.48929 0.0
N336 N 0.53131 0.6858 0.55471 0.0
N337 N 0.41808 0.66559 0.40963 0.0
C338 C 0.50219 0.67746 0.53458 0.0
C339 C 0.44445 0.66799 0.45741 0.0
N340 N 0.4811 0.71956 0.61944 0.0
N341 N 0.45792 0.61518 0.43082 0.0
H342 H 0.4005 0.68159 0.41412 0.0
H343 H 0.41443 0.64856 0.36217 0.0
H344 H 0.47224 0.59629 0.43498 0.0
H345 H 0.43559 0.60942 0.41486 0.0
H346 H 0.50011 0.7209 0.66093 0.0
H347 H 0.4634 0.73404 0.63869 0.0
H348 H 0.53691 0.70737 0.57874 0.0
H349 H 0.55025 0.6727 0.53825 0.0
C350 C 0.60549 0.20429 0.60312 0.0
C351 C 0.63091 0.20718 0.65983 0.0
C352 C 0.61676 0.1589 0.73482 0.0
C353 C 0.58842 0.15892 0.68861 0.0
N354 N 0.55402 0.18621 0.58878 0.0
N355 N 0.66023 0.18826 0.78497 0.0
C356 C 0.58233 0.18289 0.62539 0.0
C357 C 0.6363 0.18482 0.72756 0.0
N358 N 0.6036 0.22166 0.52692 0.0
N359 N 0.62615 0.13351 0.78068 0.0
H360 H 0.67641 0.20551 0.77743 0.0
H361 H 0.66307 0.17494 0.84256 0.0
H362 H 0.61369 0.11334 0.7836 0.0
H363 H 0.64788 0.13126 0.80775 0.0
H364 H 0.58678 0.21865 0.47857 0.0
H365 H 0.62101 0.23633 0.50675 0.0
H366 H 0.5477 0.20517 0.55066 0.0
H367 H 0.53581 0.17192 0.60368 0.0
C368 C 0.94058 0.389 0.95405 0.0
C369 C 0.96688 0.37858 0.90645 0.0
C370 C 0.96037 0.3279 0.97581 0.0
C371 C 0.93282 0.33748 1.01709 0.0
N372 N 0.89467 0.37623 0.03861 0.0
N373 N 0.99867 0.33623 0.86035 0.0
C374 C 0.92243 0.36786 1.00448 0.0
C375 C 0.97574 0.34742 0.91341 0.0
N376 N 0.93286 0.41923 0.95085 0.0
N377 N 0.97235 0.30028 0.99901 0.0
H378 H 0.01145 0.34959 0.81633 0.0
H379 H 1.00364 0.31307 0.85495 0.0
H380 H 0.96224 0.28683 0.04851 0.0
H381 H 0.99346 0.29226 0.97717 0.0
H382 H 0.91655 0.42913 0.99273 0.0
H383 H 0.94369 0.43485 0.90836 0.0
H384 H 0.88377 0.39664 1.02269 0.0
H385 H 0.88173 0.36192 0.08003 0.0
C386 C 0.47498 0.15517 0.70067 0.0
C387 C 0.46835 0.12413 0.72009 0.0
C388 C 0.4185 0.13019 0.64628 0.0
C389 C 0.42605 0.16067 0.62219 0.0
N390 N 0.465 0.19897 0.60501 0.0
N391 N 0.43569 0.08058 0.6997 0.0
C392 C 0.45545 0.17212 0.64245 0.0
C393 C 0.44073 0.11114 0.68878 0.0
N394 N 0.4996 0.16875 0.73932 0.0
N395 N 0.38983 0.11959 0.62975 0.0
H396 H 0.45045 0.06632 0.73515 0.0
H397 H 0.41782 0.069 0.6694 0.0
H398 H 0.37375 0.13216 0.59369 0.0
H399 H 0.38149 0.09905 0.65513 0.0
H400 H 0.50479 0.19176 0.73218 0.0
H401 H 0.51409 0.15756 0.78369 0.0
H402 H 0.48722 0.20701 0.61002 0.0
H403 H 0.45168 0.21174 0.56101 0.0
C404 C 0.64417 0.61035 0.46802 0.0
C405 C 0.61633 0.62065 0.42967 0.0
C406 C 0.62443 0.67112 0.49753 0.0
C407 C 0.65346 0.66178 0.52781 0.0
N408 N 0.69238 0.6233 0.53769 0.0
N409 N 0.58274 0.66263 0.39436 0.0
C410 C 0.66362 0.6315 0.51226 0.0
C411 C 0.60728 0.6516 0.44031 0.0
N412 N 0.65199 0.5802 0.46218 0.0
N413 N 0.61311 0.69862 0.52489 0.0
H414 H 0.56945 0.64926 0.35235 0.0
H415 H 0.57696 0.68567 0.39222 0.0
H416 H 0.62505 0.71302 0.56774 0.0
H417 H 0.59095 0.70582 0.51254 0.0
H418 H 0.66975 0.57032 0.49818 0.0
H419 H 0.63986 0.5646 0.4235 0.0
H420 H 0.70295 0.60305 0.51846 0.0
H421 H 0.70626 0.63758 0.57567 0.0
C422 C 0.15701 0.87142 0.13095 0.0
C423 C 0.1485 0.8409 0.11266 0.0
C424 C 0.10393 0.84641 0.21211 0.0
C425 C 0.11162 0.87744 0.22823 0.0
N426 N 0.14405 0.9206 0.19537 0.0
N427 N 0.10969 0.80268 0.11319 0.0
C428 C 0.1376 0.89033 0.18447 0.0
C429 C 0.12055 0.82953 0.14609 0.0
N430 N 0.18448 0.88181 0.09992 0.0
N431 N 0.08118 0.83272 0.26052 0.0
H432 H 0.12107 0.79083 0.06229 0.0
H433 H 0.08844 0.79375 0.1299 0.0
H434 H 0.06752 0.84421 0.30675 0.0
H435 H 0.07709 0.80933 0.25878 0.0
H436 H 0.19432 0.90226 0.11991 0.0
H437 H 0.19805 0.86912 0.05582 0.0
H438 H 0.16007 0.93231 0.15669 0.0
H439 H 0.13261 0.93447 0.24142 0.0
C440 C 0.9411 0.63051 0.17995 0.0
C441 C 0.96818 0.64082 0.22218 0.0
C442 C 0.96174 0.69088 0.14885 0.0
C443 C 0.93363 0.68136 0.11186 0.0
N444 N 0.89439 0.64325 0.10111 0.0
N445 N 1.00025 0.68313 0.2629 0.0
C446 C 0.92269 0.65147 0.1302 0.0
C447 C 0.97721 0.67176 0.21178 0.0
N448 N 0.93313 0.60044 0.18672 0.0
N449 N 0.97407 0.71799 0.12203 0.0
H450 H 0.01159 0.67014 0.31089 0.0
H451 H 0.00606 0.70614 0.26438 0.0
H452 H 0.96367 0.73177 0.07406 0.0
H453 H 0.99583 0.72517 0.13958 0.0
H454 H 0.94454 0.58503 0.22837 0.0
H455 H 0.91608 0.59045 0.14846 0.0
H456 H 0.88335 0.62338 0.1215 0.0
H457 H 0.88116 0.65717 0.05965 0.0
C458 C 0.11599 0.18024 0.8627 0.0
C459 C 0.12616 0.15075 0.83854 0.0
C460 C 0.17494 0.16053 0.91455 0.0
C461 C 0.16281 0.18802 0.9507 0.0
N462 N 0.12076 0.2229 0.96519 0.0
N463 N 0.16541 0.11251 0.83831 0.0
C464 C 0.13305 0.19763 0.92591 0.0
C465 C 0.15591 0.14106 0.86264 0.0
N466 N 0.08991 0.19145 0.82538 0.0
N467 N 0.20473 0.15306 0.92986 0.0
H468 H 0.15282 0.09879 0.79499 0.0
H469 H 0.18499 0.10207 0.86289 0.0
H470 H 0.2187 0.16548 0.97278 0.0
H471 H 0.2161 0.13542 0.89698 0.0
H472 H 0.08257 0.21391 0.83285 0.0
H473 H 0.07722 0.17903 0.77918 0.0
H474 H 0.0989 0.23103 0.95312 0.0
H475 H 0.13188 0.23434 1.01642 0.0
C476 C 0.64821 0.36655 0.6316 0.0
C477 C 0.64094 0.33583 0.61076 0.0
C478 C 0.59587 0.33912 0.70895 0.0
C479 C 0.60201 0.37036 0.72654 0.0
N480 N 0.63181 0.41524 0.69319 0.0
N481 N 0.60353 0.29617 0.60872 0.0
C482 C 0.62742 0.38456 0.68369 0.0
C483 C 0.61328 0.32326 0.64271 0.0
N484 N 0.67555 0.37818 0.60378 0.0
N485 N 0.57403 0.3242 0.75746 0.0
H486 H 0.61544 0.28515 0.55744 0.0
H487 H 0.58234 0.28667 0.62352 0.0
H488 H 0.56197 0.33475 0.80899 0.0
H489 H 0.57028 0.30079 0.75333 0.0
H490 H 0.68419 0.39894 0.62574 0.0
H491 H 0.69026 0.36621 0.56111 0.0
H492 H 0.64768 0.42759 0.65565 0.0
H493 H 0.61844 0.42875 0.73556 0.0
C494 C 0.42426 0.85532 0.5014 0.0
C495 C 0.43483 0.8249 0.51289 0.0
C496 C 0.47554 0.83484 0.4019 0.0
C497 C 0.46774 0.8662 0.39984 0.0
N498 N 0.43469 0.90687 0.44887 0.0
N499 N 0.47358 0.78726 0.48523 0.0
C500 C 0.44197 0.87653 0.44986 0.0
C501 C 0.46138 0.81514 0.4662 0.0
N502 N 0.39699 0.86382 0.53858 0.0
N503 N 0.49592 0.82365 0.34083 0.0
H504 H 0.46429 0.77315 0.53461 0.0
H505 H 0.49443 0.77972 0.45978 0.0
H506 H 0.50472 0.83714 0.28916 0.0
H507 H 0.50089 0.80052 0.3342 0.0
H508 H 0.38609 0.88435 0.52407 0.0
H509 H 0.38436 0.84952 0.58085 0.0
H510 H 0.41888 0.91677 0.49239 0.0
H511 H 0.44544 0.92245 0.40599 0.0
C512 C 0.093 0.53872 0.99816 0.0
C513 C 0.08745 0.53883 0.09236 0.0
C514 C 0.09467 0.48411 0.09673 0.0
C515 C 0.08651 0.48397 1.00455 0.0
N516 N 0.09611 0.50807 0.86171 0.0
N517 N 0.10177 0.51482 0.2315 0.0
C518 C 0.09209 0.51037 0.95244 0.0
C519 C 0.09494 0.51245 0.14245 0.0
N520 N 0.09843 0.56563 0.9546 0.0
N521 N 0.10065 0.45709 0.13902 0.0
H522 H 0.10498 0.53599 0.26172 0.0
H523 H 0.10612 0.49625 0.27358 0.0
H524 H 0.10146 0.43668 0.10294 0.0
H525 H 0.10583 0.45496 0.20685 0.0
H526 H 0.10207 0.5677 0.88575 0.0
H527 H 0.10094 0.58589 0.9905 0.0
H528 H 0.09858 0.5267 0.81848 0.0
H529 H 0.09875 0.48697 0.83046 0.0
C530 C 0.79866 0.79001 0.26393 0.0
C531 C 0.80632 0.77039 0.19178 0.0
C532 C 0.76798 0.73456 0.23718 0.0
C533 C 0.75856 0.75438 0.30734 0.0
N534 N 0.76037 0.80454 0.37442 0.0
N535 N 0.78912 0.73205 0.08841 0.0
C536 C 0.77234 0.78346 0.3168 0.0
C537 C 0.78713 0.74599 0.16993 0.0
N538 N 0.81732 0.81387 0.28357 0.0
N539 N 0.7609 0.70417 0.23846 0.0
H540 H 0.80313 0.74038 0.03759 0.0
H541 H 0.7742 0.71483 0.06883 0.0
H542 H 0.75009 0.69357 0.29288 0.0
H543 H 0.76947 0.68884 0.19109 0.0
H544 H 0.81491 0.82714 0.3412 0.0
H545 H 0.83595 0.81937 0.24255 0.0
H546 H 0.76842 0.82684 0.37845 0.0
H547 H 0.74078 0.80046 0.41258 0.0
C548 C 0.47847 0.50599 0.5539 0.0
C549 C 0.50022 0.52388 0.6013 0.0
C550 C 0.48397 0.49727 0.73754 0.0
C551 C 0.47653 0.47229 0.68458 0.0
N552 N 0.45412 0.45611 0.54668 0.0
N553 N 0.5257 0.53148 0.74781 0.0
C554 C 0.46849 0.47823 0.59434 0.0
C555 C 0.50292 0.51922 0.6971 0.0
N556 N 0.46735 0.51546 0.47296 0.0
N557 N 0.47782 0.4969 0.82731 0.0
H558 H 0.54532 0.54144 0.7218 0.0
H559 H 0.52776 0.52682 0.81641 0.0
H560 H 0.46491 0.4793 0.85576 0.0
H561 H 0.48297 0.51523 0.86914 0.0
H562 H 0.45052 0.50369 0.43833 0.0
H563 H 0.47237 0.53688 0.44597 0.0
H564 H 0.4505 0.45735 0.47755 0.0
H565 H 0.44692 0.43598 0.57818 0.0
C566 C 0.80085 0.22632 0.85552 0.0
C567 C 0.81222 0.25336 0.89469 0.0
C568 C 0.77447 0.28397 0.81741 0.0
C569 C 0.76121 0.25696 0.78392 0.0
N570 N 0.7586 0.2021 0.77864 0.0
N571 N 0.80543 0.30647 0.93236 0.0
C572 C 0.77342 0.22787 0.80511 0.0
C573 C 0.79729 0.28165 0.88257 0.0
N574 N 0.81669 0.19966 0.8645 0.0
N575 N 0.76604 0.31188 0.78406 0.0
H576 H 0.82264 0.30568 0.98023 0.0
H577 H 0.79316 0.32686 0.93229 0.0
H578 H 0.75009 0.31454 0.73278 0.0
H579 H 0.7772 0.33207 0.80017 0.0
H580 H 0.81132 0.1798 0.82987 0.0
H581 H 0.83616 0.19799 0.90426 0.0
H582 H 0.76486 0.18024 0.79932 0.0
H583 H 0.7389 0.20282 0.73975 0.0
C584 C 0.30327 0.29486 0.92575 0.0
C585 C 0.27664 0.29867 0.87457 0.0
C586 C 0.30641 0.29728 0.73593 0.0
C587 C 0.32849 0.28074 0.78517 0.0
N588 N 0.35724 0.28196 0.92302 0.0
N589 N 0.25576 0.32032 0.74018 0.0
C590 C 0.33016 0.2857 0.87967 0.0
C591 C 0.27957 0.3064 0.78233 0.0
N592 N 0.30231 0.29971 1.01628 0.0
N593 N 0.31149 0.30459 0.64784 0.0
H594 H 0.23663 0.32745 0.77668 0.0
H595 H 0.25497 0.32496 0.67156 0.0
H596 H 0.33267 0.30133 0.6173 0.0
H597 H 0.29605 0.31637 0.60775 0.0
H598 H 0.32066 0.2964 0.05922 0.0
H599 H 0.28297 0.30884 0.04735 0.0
H600 H 0.36002 0.28389 0.99218 0.0
H601 H 0.37756 0.27879 0.88732 0.0
C602 C 0.28879 0.76517 0.45774 0.0
C603 C 0.30721 0.73961 0.43966 0.0
C604 C 0.27263 0.725 0.31888 0.0
C605 C 0.25906 0.75436 0.32493 0.0
N606 N 0.26101 0.80554 0.38642 0.0
N607 N 0.31715 0.69423 0.35437 0.0
C608 C 0.26887 0.77535 0.39094 0.0
C609 C 0.29901 0.71889 0.37113 0.0
N610 N 0.29148 0.78069 0.53643 0.0
N611 N 0.26027 0.70315 0.26514 0.0
H612 H 0.33574 0.68894 0.39515 0.0
H613 H 0.31439 0.68002 0.29896 0.0
H614 H 0.24071 0.70694 0.22714 0.0
H615 H 0.26797 0.68066 0.26407 0.0
H616 H 0.27705 0.79861 0.55443 0.0
H617 H 0.3054 0.77283 0.5876 0.0
H618 H 0.26993 0.82187 0.42978 0.0
H619 H 0.24885 0.81495 0.33293 0.0
C620 C 0.56982 0.96978 0.66701 0.0
C621 C 0.5774 0.96542 0.57368 0.0
C622 C 0.60437 0.01408 0.57492 0.0
C623 C 0.59299 0.01881 0.66291 0.0
N624 N 0.58629 0.99379 0.80477 0.0
N625 N 0.61331 0.97774 0.45454 0.0
C626 C 0.58454 0.9933 0.71343 0.0
C627 C 0.59874 0.98562 0.53242 0.0
N628 N 0.54605 0.95524 0.70866 0.0
N629 N 0.61799 0.03772 0.53074 0.0
H630 H 0.61094 0.95622 0.42566 0.0
H631 H 0.6301 0.99119 0.42459 0.0
H632 H 0.62218 0.05833 0.56355 0.0
H633 H 0.62389 0.03713 0.46276 0.0
H634 H 0.53994 0.95971 0.77528 0.0
H635 H 0.52935 0.94303 0.6751 0.0
H636 H 0.58046 0.975 0.84461 0.0
H637 H 0.59677 0.01191 0.83776 0.0
C638 C 1.00387 0.03428 0.05626 0.0
C639 C 0.03268 0.04795 0.07235 0.0
C640 C 0.03477 0.0221 0.21652 0.0
C641 C 0.01268 1.00155 0.18679 0.0
N642 N 0.97227 0.98976 0.08575 0.0
N643 N 0.0792 0.04749 0.16122 0.0
C644 C 0.99527 0.0088 0.11005 0.0
C645 C 0.04907 0.04036 0.15168 0.0
N646 N 0.98501 0.04545 0.99133 0.0
N647 N 0.04511 0.02079 0.30247 0.0
H648 H 0.09247 0.05659 0.1093 0.0
H649 H 0.09201 0.04026 0.21626 0.0
H650 H 0.0354 0.00596 0.34898 0.0
H651 H 0.06076 0.03635 0.32798 0.0
H652 H 0.96296 0.03743 0.98178 0.0
H653 H 0.99044 0.06455 0.95257 0.0
H654 H 0.96071 0.99155 1.02491 0.0
H655 H 0.9659 0.97138 0.12673 0.0
C656 C 0.03202 0.51742 0.64524 0.0
C657 C 0.03154 0.48558 0.62541 0.0
C658 C 0.03497 0.49874 0.46293 0.0
C659 C 0.03249 0.53046 0.48266 0.0
N660 N 0.02335 0.56941 0.59354 0.0
N661 N 0.02743 0.44636 0.51288 0.0
C662 C 0.02966 0.53959 0.57416 0.0
C663 C 0.03176 0.47639 0.53347 0.0
N664 N 0.03605 0.52672 0.73204 0.0
N665 N 0.04152 0.48985 0.3769 0.0
H666 H 0.02445 0.42948 0.56174 0.0
H667 H 0.02393 0.43857 0.44767 0.0
H668 H 0.04407 0.50526 0.32378 0.0
H669 H 0.04716 0.46752 0.3596 0.0
H670 H 0.0402 0.5493 0.74974 0.0
H671 H 0.03825 0.51159 0.78587 0.0
H672 H 0.01745 0.57697 0.65767 0.0
H673 H 0.02122 0.58623 0.54413 0.0
C674 C 0.79799 0.75805 0.84643 0.0
C675 C 0.82479 0.74026 0.8335 0.0
C676 C 0.80275 0.72184 0.69095 0.0
C677 C 0.77382 0.7352 0.71239 0.0
N678 N 0.74342 0.76064 0.82618 0.0
N679 N 0.85096 0.70206 0.74641 0.0
C680 C 0.77135 0.75202 0.79419 0.0
C681 C 0.8265 0.72102 0.75697 0.0
N682 N 0.79778 0.78098 0.90836 0.0
N683 N 0.80855 0.71176 0.60566 0.0
H684 H 0.86932 0.70187 0.7907 0.0
H685 H 0.85189 0.68512 0.6974 0.0
H686 H 0.79335 0.71463 0.55274 0.0
H687 H 0.82996 0.70425 0.58461 0.0
H688 H 0.77985 0.79648 0.9145 0.0
H689 H 0.81668 0.78627 0.94738 0.0
H690 H 0.74029 0.77041 0.88942 0.0
H691 H 0.72306 0.75458 0.79548 0.0
C692 C 0.57149 0.50343 0.13539 0.0
C693 C 0.54517 0.51098 0.18754 0.0
C694 C 0.51509 0.47743 0.08714 0.0
C695 C 0.54202 0.46714 0.04184 0.0
N696 N 0.59702 0.46583 0.04202 0.0
N697 N 0.49293 0.49869 0.2234 0.0
C698 C 0.57053 0.47892 0.07143 0.0
C699 C 0.51727 0.49616 0.16617 0.0
N700 N 0.59731 0.52052 0.14342 0.0
N701 N 0.48713 0.47071 0.05285 0.0
H702 H 0.49372 0.51096 0.28327 0.0
H703 H 0.47312 0.48587 0.21647 0.0
H704 H 0.4841 0.45813 0.99437 0.0
H705 H 0.46702 0.48041 0.07714 0.0
H706 H 0.61606 0.5181 0.10069 0.0
H707 H 0.59878 0.53938 0.18569 0.0
H708 H 0.61827 0.47145 0.06799 0.0
H709 H 0.59758 0.44689 0.99984 0.0
C710 C 0.78554 0.27509 0.23521 0.0
C711 C 0.81613 0.27822 0.26579 0.0
C712 C 0.79634 0.27979 0.42282 0.0
C713 C 0.76567 0.27892 0.39166 0.0
N714 N 0.73127 0.2806 0.26629 0.0
N715 N 0.85011 0.28798 0.38865 0.0
C716 C 0.7604 0.27784 0.29725 0.0
C717 C 0.82131 0.28173 0.35971 0.0
N718 N 0.78044 0.26817 0.14698 0.0
N719 N 0.8018 0.27745 0.51306 0.0
H720 H 0.86877 0.28932 0.34504 0.0
H721 H 0.85516 0.29428 0.45436 0.0
H722 H 0.78445 0.27599 0.5611 0.0
H723 H 0.82342 0.2744 0.54009 0.0
H724 H 0.75921 0.26208 0.12196 0.0
H725 H 0.79792 0.2659 0.09977 0.0
H726 H 0.72592 0.28354 0.19864 0.0
H727 H 0.71245 0.28267 0.30901 0.0
C728 C 0.28456 0.24339 0.40424 0.0
C729 C 0.31505 0.23459 0.38386 0.0
C730 C 0.30146 0.23376 0.22221 0.0
C731 C 0.27012 0.23961 0.24303 0.0
N732 N 0.2315 0.24378 0.35887 0.0
N733 N 0.35092 0.21598 0.27405 0.0
C734 C 0.26164 0.2429 0.3355 0.0
C735 C 0.32296 0.22822 0.29299 0.0
N736 N 0.27751 0.25286 0.48936 0.0
N737 N 0.31134 0.2351 0.13491 0.0
H738 H 0.36735 0.21212 0.32324 0.0
H739 H 0.3568 0.20726 0.21118 0.0
H740 H 0.2972 0.24036 0.0811 0.0
H741 H 0.33428 0.23434 0.11656 0.0
H742 H 0.25681 0.26308 0.50635 0.0
H743 H 0.29331 0.2529 0.54144 0.0
H744 H 0.22379 0.2431 0.42523 0.0
H745 H 0.21401 0.2418 0.31223 0.0
C746 C 0.29668 0.75405 0.78094 0.0
C747 C 0.32386 0.77095 0.79517 0.0
C748 C 0.3019 0.7885 0.93984 0.0
C749 C 0.27296 0.77552 0.91841 0.0
N750 N 0.24209 0.75221 0.80338 0.0
N751 N 0.3506 0.80768 0.88474 0.0
C752 C 0.2702 0.75994 0.83482 0.0
C753 C 0.3258 0.7894 0.8733 0.0
N754 N 0.29607 0.73184 0.71686 0.0
N755 N 0.30754 0.79815 1.02544 0.0
H756 H 0.36892 0.80797 0.83963 0.0
H757 H 0.35187 0.82409 0.93514 0.0
H758 H 0.292 0.79567 0.07816 0.0
H759 H 0.32897 0.80515 0.04673 0.0
H760 H 0.27779 0.71692 0.70946 0.0
H761 H 0.31496 0.72631 0.67744 0.0
H762 H 0.2387 0.74342 0.73913 0.0
H763 H 0.2219 0.75808 0.83624 0.0
C764 C 0.50598 0.9912 0.11985 0.0
C765 C 0.53287 0.98316 0.16776 0.0
C766 C 0.56167 0.01872 0.06819 0.0
C767 C 0.53428 0.02886 0.02587 0.0
N768 N 0.47932 0.03001 0.03401 0.0
N769 N 0.58489 0.99642 0.20111 0.0
C770 C 0.50616 0.01659 0.05839 0.0
C771 C 0.56028 0.99902 0.14576 0.0
N772 N 0.48038 0.9738 0.12916 0.0
N773 N 0.58934 0.02648 0.03253 0.0
H774 H 0.58454 0.98359 0.26033 0.0
H775 H 0.60436 0.00978 0.19382 0.0
H776 H 0.59195 0.04005 0.97548 0.0
H777 H 0.60972 0.01686 0.05445 0.0
H778 H 0.46123 0.9767 0.08889 0.0
H779 H 0.47937 0.95442 0.16987 0.0
H780 H 0.45839 0.02388 0.06209 0.0
H781 H 0.4783 0.04971 0.9946 0.0
C782 C 0.03206 0.02857 0.58624 0.0
C783 C 0.05278 0.02799 0.66012 0.0
C784 C 0.07117 0.97775 0.60373 0.0
C785 C 0.0486 0.97739 0.53562 0.0
N786 N 1.00102 0.99874 0.48477 0.0
N787 N 0.08389 0.99495 0.75347 0.0
C788 C 0.02679 1.00144 0.53492 0.0
C789 C 0.07012 1.00057 0.67292 0.0
N790 N 0.0189 0.05534 0.55948 0.0
N791 N 0.09347 0.956 0.60377 0.0
H792 H 0.08072 0.00868 0.80981 0.0
H793 H 0.09477 0.97439 0.76828 0.0
H794 H 0.09397 0.93803 0.5579 0.0
H795 H 0.11237 0.95707 0.64574 0.0
H796 H 0.00579 0.05711 0.50143 0.0
H797 H 0.0243 0.0764 0.58709 0.0
H798 H 0.98316 0.01444 0.48834 0.0
H799 H 0.99643 0.97956 0.44592 0.0
loop_
_geom_bond_atom_site_label_1
_geom_bond_atom_site_label_2
_geom_bond_distance
_geom_bond_site_symmetry_2
_ccdc_geom_bond_type
Co0 O1 2.216 . S
Co0 O2 2.091 . S
Co0 O4 2.004 . S
Co0 O10 2.021 . S
Co0 O12 2.137 . S
Co0 O13 2.244 . S
O1 Co0 2.216 . S
O1 C8 1.247 . S
O2 Co0 2.091 . S
O2 C8 1.261 . S
C3 O12 1.247 1_655 S
C3 O13 1.272 1_655 S
O4 Co0 2.004 . S
O4 C9 1.259 . S
Co5 O6 2.061 . S
Co5 O11 2.052 . S
Co5 O13 2.135 . S
O6 Co5 2.061 . S
O6 C9 1.235 . S
C7 O10 1.238 . S
C7 O11 1.241 . S
C8 O1 1.247 . S
C8 O2 1.261 . S
C9 O4 1.259 . S
C9 O6 1.235 . S
O10 Co0 2.021 . S
O10 C7 1.238 . S
O11 Co5 2.052 . S
O11 C7 1.241 . S
O12 Co0 2.137 . S
O12 C3 1.247 1_455 S
O13 Co0 2.244 . S
O13 C3 1.272 1_455 S
O13 Co5 2.135 . S
Co14 O15 2.216 . S
Co14 O16 2.091 . S
Co14 O18 2.004 . S
Co14 O24 2.021 . S
Co14 O26 2.137 . S
Co14 O27 2.244 . S
O15 Co14 2.216 . S
O15 C22 1.247 . S
O16 Co14 2.091 . S
O16 C22 1.261 . S
C17 O26 1.247 . S
C17 O27 1.272 . S
O18 Co14 2.004 . S
O18 C23 1.259 . S
Co19 O20 2.061 . S
Co19 O25 2.052 . S
Co19 O27 2.135 . S
O20 Co19 2.061 . S
O20 C23 1.235 . S
C21 O24 1.238 . S
C21 O25 1.241 . S
C22 O15 1.247 . S
C22 O16 1.261 . S
C23 O18 1.259 . S
C23 O20 1.235 . S
O24 Co14 2.021 . S
O24 C21 1.238 . S
O25 Co19 2.052 . S
O25 C21 1.241 . S
O26 Co14 2.137 . S
O26 C17 1.247 . S
O27 Co14 2.244 . S
O27 C17 1.272 . S
O27 Co19 2.135 . S
Co28 O29 2.216 . S
Co28 O30 2.091 . S
Co28 O32 2.004 . S
Co28 O38 2.021 . S
Co28 O40 2.137 . S
Co28 O41 2.244 . S
O29 Co28 2.216 . S
O29 C36 1.247 . S
O30 Co28 2.091 . S
O30 C36 1.261 . S
C31 O40 1.247 . S
C31 O41 1.272 . S
O32 Co28 2.004 . S
O32 C37 1.259 . S
Co33 O34 2.061 . S
Co33 O39 2.052 . S
Co33 O41 2.135 . S
O34 Co33 2.061 . S
O34 C37 1.235 . S
C35 O38 1.238 . S
C35 O39 1.241 . S
C36 O29 1.247 . S
C36 O30 1.261 . S
C37 O32 1.259 . S
C37 O34 1.235 . S
O38 Co28 2.021 . S
O38 C35 1.238 . S
O39 Co33 2.052 . S
O39 C35 1.241 . S
O40 Co28 2.137 . S
O40 C31 1.247 . S
O41 Co28 2.244 . S
O41 C31 1.272 . S
O41 Co33 2.135 . S
Co42 O43 2.216 . S
Co42 O44 2.091 . S
Co42 O46 2.004 . S
Co42 O52 2.021 1_554 S
Co42 O54 2.137 . S
Co42 O55 2.244 1_554 S
O43 Co42 2.216 . S
O43 C50 1.247 . S
O44 Co42 2.091 . S
O44 C50 1.261 . S
C45 O54 1.247 . S
C45 O55 1.272 1_554 S
O46 Co42 2.004 . S
O46 C51 1.259 1_554 S
Co47 O48 2.061 . S
Co47 O53 2.052 . S
Co47 O55 2.135 . S
O48 Co47 2.061 . S
O48 C51 1.235 . S
C49 O52 1.238 . S
C49 O53 1.241 . S
C50 O43 1.247 . S
C50 O44 1.261 . S
C51 O46 1.259 1_556 S
C51 O48 1.235 . S
O52 Co42 2.021 1_556 S
O52 C49 1.238 . S
O53 Co47 2.052 . S
O53 C49 1.241 . S
O54 Co42 2.137 . S
O54 C45 1.247 . S
O55 Co42 2.244 1_556 S
O55 C45 1.272 1_556 S
O55 Co47 2.135 . S
Co56 O57 2.216 . S
Co56 O58 2.091 . S
Co56 O60 2.004 . S
Co56 O66 2.021 . S
Co56 O68 2.137 . S
Co56 O69 2.244 . S
O57 Co56 2.216 . S
O57 C64 1.247 . S
O58 Co56 2.091 . S
O58 C64 1.261 . S
C59 O68 1.247 1_655 S
C59 O69 1.272 1_655 S
O60 Co56 2.004 . S
O60 C65 1.259 . S
Co61 O62 2.061 1_554 S
Co61 O67 2.052 . S
Co61 O69 2.135 1_554 S
O62 Co61 2.061 1_556 S
O62 C65 1.235 . S
C63 O66 1.238 . S
C63 O67 1.241 1_556 S
C64 O57 1.247 . S
C64 O58 1.261 . S
C65 O60 1.259 . S
C65 O62 1.235 . S
O66 Co56 2.021 . S
O66 C63 1.238 . S
O67 Co61 2.052 . S
O67 C63 1.241 1_554 S
O68 Co56 2.137 . S
O68 C59 1.247 1_455 S
O69 Co56 2.244 . S
O69 C59 1.272 1_455 S
O69 Co61 2.135 1_556 S
Co70 O71 2.216 . S
Co70 O72 2.091 1_554 S
Co70 O74 2.004 . S
Co70 O80 2.021 . S
Co70 O82 2.137 . S
Co70 O83 2.244 . S
O71 Co70 2.216 . S
O71 C78 1.247 1_554 S
O72 Co70 2.091 1_556 S
O72 C78 1.261 . S
C73 O82 1.247 . S
C73 O83 1.272 . S
O74 Co70 2.004 . S
O74 C79 1.259 . S
Co75 O76 2.061 . S
Co75 O81 2.052 . S
Co75 O83 2.135 . S
O76 Co75 2.061 . S
O76 C79 1.235 . S
C77 O80 1.238 . S
C77 O81 1.241 . S
C78 O71 1.247 1_556 S
C78 O72 1.261 . S
C79 O74 1.259 . S
C79 O76 1.235 . S
O80 Co70 2.021 . S
O80 C77 1.238 . S
O81 Co75 2.052 . S
O81 C77 1.241 . S
O82 Co70 2.137 . S
O82 C73 1.247 . S
O83 Co70 2.244 . S
O83 C73 1.272 . S
O83 Co75 2.135 . S
Co84 O85 2.216 . S
Co84 O86 2.091 . S
Co84 O88 2.004 . S
Co84 O94 2.021 . S
Co84 O96 2.137 . S
Co84 O97 2.244 . S
O85 Co84 2.216 . S
O85 C92 1.247 . S
O86 Co84 2.091 . S
O86 C92 1.261 . S
C87 O96 1.247 . S
C87 O97 1.272 . S
O88 Co84 2.004 . S
O88 C93 1.259 . S
Co89 O90 2.061 . S
Co89 O95 2.052 . S
Co89 O97 2.135 . S
O90 Co89 2.061 . S
O90 C93 1.235 . S
C91 O94 1.238 . S
C91 O95 1.241 . S
C92 O85 1.247 . S
C92 O86 1.261 . S
C93 O88 1.259 . S
C93 O90 1.235 . S
O94 Co84 2.021 . S
O94 C91 1.238 . S
O95 Co89 2.052 . S
O95 C91 1.241 . S
O96 Co84 2.137 . S
O96 C87 1.247 . S
O97 Co84 2.244 . S
O97 C87 1.272 . S
O97 Co89 2.135 . S
Co98 O99 2.216 . S
Co98 O100 2.091 . S
Co98 O102 2.004 . S
Co98 O108 2.021 . S
Co98 O110 2.137 . S
Co98 O111 2.244 . S
O99 Co98 2.216 . S
O99 C106 1.247 . S
O100 Co98 2.091 . S
O100 C106 1.261 . S
C101 O110 1.247 . S
C101 O111 1.272 . S
O102 Co98 2.004 . S
O102 C107 1.259 . S
Co103 O104 2.061 . S
Co103 O109 2.052 . S
Co103 O111 2.135 . S
O104 Co103 2.061 . S
O104 C107 1.235 . S
C105 O108 1.238 . S
C105 O109 1.241 . S
C106 O99 1.247 . S
C106 O100 1.261 . S
C107 O102 1.259 . S
C107 O104 1.235 . S
O108 Co98 2.021 . S
O108 C105 1.238 . S
O109 Co103 2.052 . S
O109 C105 1.241 . S
O110 Co98 2.137 . S
O110 C101 1.247 . S
O111 Co98 2.244 . S
O111 C101 1.272 . S
O111 Co103 2.135 . S
Co112 O113 2.216 . S
Co112 O114 2.091 . S
Co112 O116 2.004 . S
Co112 O122 2.021 . S
Co112 O124 2.137 . S
Co112 O125 2.244 . S
O113 Co112 2.216 . S
O113 C120 1.247 . S
O114 Co112 2.091 . S
O114 C120 1.261 . S
C115 O124 1.247 . S
C115 O125 1.272 . S
O116 Co112 2.004 . S
O116 C121 1.259 . S
Co117 O118 2.061 . S
Co117 O123 2.052 . S
Co117 O125 2.135 . S
O118 Co117 2.061 . S
O118 C121 1.235 . S
C119 O122 1.238 . S
C119 O123 1.241 . S
C120 O113 1.247 . S
C120 O114 1.261 . S
C121 O116 1.259 . S
C121 O118 1.235 . S
O122 Co112 2.021 . S
O122 C119 1.238 . S
O123 Co117 2.052 . S
O123 C119 1.241 . S
O124 Co112 2.137 . S
O124 C115 1.247 . S
O125 Co112 2.244 . S
O125 C115 1.272 . S
O125 Co117 2.135 . S
Co126 O127 2.216 . S
Co126 O128 2.091 1_554 S
Co126 O130 2.004 . S
Co126 O136 2.021 . S
Co126 O138 2.137 . S
Co126 O139 2.244 . S
O127 Co126 2.216 . S
O127 C134 1.247 1_554 S
O128 Co126 2.091 1_556 S
O128 C134 1.261 . S
C129 O138 1.247 . S
C129 O139 1.272 . S
O130 Co126 2.004 . S
O130 C135 1.259 . S
Co131 O132 2.061 . S
Co131 O137 2.052 . S
Co131 O139 2.135 . S
O132 Co131 2.061 . S
O132 C135 1.235 . S
C133 O136 1.238 . S
C133 O137 1.241 . S
C134 O127 1.247 1_556 S
C134 O128 1.261 . S
C135 O130 1.259 . S
C135 O132 1.235 . S
O136 Co126 2.021 . S
O136 C133 1.238 . S
O137 Co131 2.052 . S
O137 C133 1.241 . S
O138 Co126 2.137 . S
O138 C129 1.247 . S
O139 Co126 2.244 . S
O139 C129 1.272 . S
O139 Co131 2.135 . S
Co140 O141 2.216 . S
Co140 O142 2.091 . S
Co140 O144 2.004 . S
Co140 O150 2.021 1_554 S
Co140 O152 2.137 . S
Co140 O153 2.244 1_554 S
O141 Co140 2.216 . S
O141 C148 1.247 . S
O142 Co140 2.091 . S
O142 C148 1.261 . S
C143 O152 1.247 . S
C143 O153 1.272 1_554 S
O144 Co140 2.004 . S
O144 C149 1.259 1_554 S
Co145 O146 2.061 . S
Co145 O151 2.052 . S
Co145 O153 2.135 . S
O146 Co145 2.061 . S
O146 C149 1.235 . S
C147 O150 1.238 . S
C147 O151 1.241 . S
C148 O141 1.247 . S
C148 O142 1.261 . S
C149 O144 1.259 1_556 S
C149 O146 1.235 . S
O150 Co140 2.021 1_556 S
O150 C147 1.238 . S
O151 Co145 2.052 . S
O151 C147 1.241 . S
O152 Co140 2.137 . S
O152 C143 1.247 . S
O153 Co140 2.244 1_556 S
O153 C143 1.272 1_556 S
O153 Co145 2.135 . S
Co154 O155 2.216 . S
Co154 O156 2.091 . S
Co154 O158 2.004 . S
Co154 O164 2.021 . S
Co154 O166 2.137 . S
Co154 O167 2.244 . S
O155 Co154 2.216 . S
O155 C162 1.247 . S
O156 Co154 2.091 . S
O156 C162 1.261 . S
C157 O166 1.247 . S
C157 O167 1.272 . S
O158 Co154 2.004 . S
O158 C163 1.259 . S
Co159 O160 2.061 . S
Co159 O165 2.052 . S
Co159 O167 2.135 . S
O160 Co159 2.061 . S
O160 C163 1.235 . S
C161 O164 1.238 . S
C161 O165 1.241 . S
C162 O155 1.247 . S
C162 O156 1.261 . S
C163 O158 1.259 . S
C163 O160 1.235 . S
O164 Co154 2.021 . S
O164 C161 1.238 . S
O165 Co159 2.052 . S
O165 C161 1.241 . S
O166 Co154 2.137 . S
O166 C157 1.247 . S
O167 Co154 2.244 . S
O167 C157 1.272 . S
O167 Co159 2.135 . S
Co168 O169 2.216 . S
Co168 O170 2.091 . S
Co168 O172 2.004 . S
Co168 O178 2.021 . S
Co168 O180 2.137 . S
Co168 O181 2.244 . S
O169 Co168 2.216 . S
O169 C176 1.247 . S
O170 Co168 2.091 . S
O170 C176 1.261 . S
C171 O180 1.247 . S
C171 O181 1.272 . S
O172 Co168 2.004 . S
O172 C177 1.259 . S
Co173 O174 2.061 . S
Co173 O179 2.052 . S
Co173 O181 2.135 . S
O174 Co173 2.061 . S
O174 C177 1.235 . S
C175 O178 1.238 . S
C175 O179 1.241 . S
C176 O169 1.247 . S
C176 O170 1.261 . S
C177 O172 1.259 . S
C177 O174 1.235 . S
O178 Co168 2.021 . S
O178 C175 1.238 . S
O179 Co173 2.052 . S
O179 C175 1.241 . S
O180 Co168 2.137 . S
O180 C171 1.247 . S
O181 Co168 2.244 . S
O181 C171 1.272 . S
O181 Co173 2.135 . S
Co182 O183 2.216 . S
Co182 O184 2.091 . S
Co182 O186 2.004 . S
Co182 O192 2.021 . S
Co182 O194 2.137 . S
Co182 O195 2.244 . S
O183 Co182 2.216 . S
O183 C190 1.247 . S
O184 Co182 2.091 . S
O184 C190 1.261 . S
C185 O194 1.247 . S
C185 O195 1.272 . S
O186 Co182 2.004 . S
O186 C191 1.252 1_455 S
Co187 O188 2.061 . S
Co187 O193 2.052 . S
Co187 O195 2.135 . S
O188 Co187 2.061 . S
O188 C191 1.219 1_455 S
C189 O192 1.238 . S
C189 O193 1.241 . S
C190 O183 1.247 . S
C190 O184 1.261 . S
C191 O186 1.252 1_655 S
C191 O188 1.219 1_655 S
O192 Co182 2.021 . S
O192 C189 1.238 . S
O193 Co187 2.052 . S
O193 C189 1.241 . S
O194 Co182 2.137 . S
O194 C185 1.247 . S
O195 Co182 2.244 . S
O195 C185 1.272 . S
O195 Co187 2.135 . S
Co196 O197 2.216 . S
Co196 O198 2.091 . S
Co196 O200 2.004 . S
Co196 O206 2.021 . S
Co196 O208 2.137 . S
Co196 O209 2.244 . S
O197 Co196 2.216 . S
O197 C204 1.247 . S
O198 Co196 2.091 . S
O198 C204 1.261 . S
C199 O208 1.247 . S
C199 O209 1.272 . S
O200 Co196 2.004 . S
O200 C205 1.259 . S
Co201 O202 2.061 . S
Co201 O207 2.052 . S
Co201 O209 2.135 . S
O202 Co201 2.061 . S
O202 C205 1.235 . S
C203 O206 1.238 . S
C203 O207 1.241 . S
C204 O197 1.247 . S
C204 O198 1.261 . S
C205 O200 1.259 . S
C205 O202 1.235 . S
O206 Co196 2.021 . S
O206 C203 1.238 . S
O207 Co201 2.052 . S
O207 C203 1.241 . S
O208 Co196 2.137 . S
O208 C199 1.247 . S
O209 Co196 2.244 . S
O209 C199 1.272 . S
O209 Co201 2.135 . S
Co210 O211 2.216 . S
Co210 O212 2.091 . S
Co210 O214 2.004 . S
Co210 O220 2.021 . S
Co210 O222 2.137 . S
Co210 O223 2.244 . S
O211 Co210 2.216 . S
O211 C218 1.247 . S
O212 Co210 2.091 . S
O212 C218 1.261 . S
C213 O222 1.247 . S
C213 O223 1.272 . S
O214 Co210 2.004 . S
O214 C219 1.252 1_455 S
Co215 O216 2.061 1_554 S
Co215 O221 2.052 . S
Co215 O223 2.135 1_554 S
O216 Co215 2.061 1_556 S
O216 C219 1.219 1_455 S
C217 O220 1.238 . S
C217 O221 1.241 1_556 S
C218 O211 1.247 . S
C218 O212 1.261 . S
C219 O214 1.252 1_655 S
C219 O216 1.219 1_655 S
O220 Co210 2.021 . S
O220 C217 1.238 . S
O221 Co215 2.052 . S
O221 C217 1.241 1_554 S
O222 Co210 2.137 . S
O222 C213 1.247 . S
O223 Co210 2.244 . S
O223 C213 1.272 . S
O223 Co215 2.135 1_556 S
C224 C225 1.363 . S
C224 C230 1.379 . S
C224 N232 1.356 . S
C225 C224 1.363 . S
C225 C231 1.363 . S
C226 C227 1.363 . S
C226 C231 1.379 . S
C226 N233 1.356 . S
C227 C226 1.363 . S
C227 C230 1.363 . S
N228 C230 1.356 . S
N228 H240 0.984 1_554 S
N228 H241 0.985 . S
N229 C231 1.356 . S
N229 H234 0.984 . S
N229 H235 0.985 . S
C230 C224 1.379 . S
C230 C227 1.363 . S
C230 N228 1.356 . S
C231 C225 1.363 . S
C231 C226 1.379 . S
C231 N229 1.356 . S
N232 C224 1.356 . S
N232 H238 0.984 1_554 S
N232 H239 0.984 . S
N233 C226 1.356 . S
N233 H236 0.984 . S
N233 H237 0.985 . S
H234 N229 0.984 . S
H235 N229 0.985 . S
H236 N233 0.984 . S
H237 N233 0.985 . S
H238 N232 0.984 1_556 S
H239 N232 0.984 . S
H240 N228 0.984 1_556 S
H241 N228 0.985 . S
C242 C243 1.363 . S
C242 C248 1.379 . S
C242 N250 1.356 . S
C243 C242 1.363 . S
C243 C249 1.363 . S
C244 C245 1.363 . S
C244 C249 1.379 . S
C244 N251 1.356 . S
C245 C244 1.363 . S
C245 C248 1.363 . S
N246 C248 1.356 . S
N246 H258 0.984 . S
N246 H259 0.985 . S
N247 C249 1.356 . S
N247 H252 0.984 . S
N247 H253 0.985 . S
C248 C242 1.379 . S
C248 C245 1.363 . S
C248 N246 1.356 . S
C249 C243 1.363 . S
C249 C244 1.379 . S
C249 N247 1.356 . S
N250 C242 1.356 . S
N250 H256 0.984 . S
N250 H257 0.984 . S
N251 C244 1.356 . S
N251 H254 0.984 . S
N251 H255 0.985 . S
H252 N247 0.984 . S
H253 N247 0.985 . S
H254 N251 0.984 . S
H255 N251 0.985 . S
H256 N250 0.984 . S
H257 N250 0.984 . S
H258 N246 0.984 . S
H259 N246 0.985 . S
C260 C261 1.363 . S
C260 C266 1.379 . S
C260 N268 1.356 . S
C261 C260 1.363 . S
C261 C267 1.363 . S
C262 C263 1.363 . S
C262 C267 1.379 . S
C262 N269 1.356 . S
C263 C262 1.363 . S
C263 C266 1.363 . S
N264 C266 1.356 . S
N264 H276 0.984 . S
N264 H277 0.985 . S
N265 C267 1.356 . S
N265 H270 0.984 . S
N265 H271 0.985 . S
C266 C260 1.379 . S
C266 C263 1.363 . S
C266 N264 1.356 . S
C267 C261 1.363 . S
C267 C262 1.379 . S
C267 N265 1.356 . S
N268 C260 1.356 . S
N268 H274 0.984 . S
N268 H275 0.984 . S
N269 C262 1.356 . S
N269 H272 0.984 . S
N269 H273 0.985 . S
H270 N265 0.984 . S
H271 N265 0.985 . S
H272 N269 0.984 . S
H273 N269 0.985 . S
H274 N268 0.984 . S
H275 N268 0.984 . S
H276 N264 0.984 . S
H277 N264 0.985 . S
C278 C279 1.363 . S
C278 C284 1.379 . S
C278 N286 1.356 . S
C279 C278 1.363 . S
C279 C285 1.363 . S
C280 C281 1.363 . S
C280 C285 1.379 . S
C280 N287 1.361 1_556 S
C281 C280 1.363 . S
C281 C284 1.363 . S
N282 C284 1.356 . S
N282 H294 0.984 . S
N282 H295 0.985 . S
N283 C285 1.356 1_554 S
N283 H288 0.984 . S
N283 H289 0.985 . S
C284 C278 1.379 . S
C284 C281 1.363 . S
C284 N282 1.356 . S
C285 C279 1.363 . S
C285 C280 1.379 . S
C285 N283 1.356 1_556 S
N286 C278 1.356 . S
N286 H292 0.984 . S
N286 H293 0.984 . S
N287 C280 1.361 1_554 S
N287 H290 0.986 1_655 S
N287 H291 0.983 1_655 S
H288 N283 0.984 . S
H289 N283 0.985 . S
H290 N287 0.986 1_455 S
H291 N287 0.983 1_455 S
H292 N286 0.984 . S
H293 N286 0.984 . S
H294 N282 0.984 . S
H295 N282 0.985 . S
C296 C297 1.363 . S
C296 C302 1.379 . S
C296 N304 1.356 . S
C297 C296 1.363 . S
C297 C303 1.363 . S
C298 C299 1.363 . S
C298 C303 1.379 . S
C298 N305 1.356 . S
C299 C298 1.363 . S
C299 C302 1.363 . S
N300 C302 1.356 . S
N300 H312 0.984 . S
N300 H313 0.985 . S
N301 C303 1.356 . S
N301 H306 0.984 . S
N301 H307 0.985 . S
C302 C296 1.379 . S
C302 C299 1.363 . S
C302 N300 1.356 . S
C303 C297 1.363 . S
C303 C298 1.379 . S
C303 N301 1.356 . S
N304 C296 1.356 . S
N304 H310 0.984 . S
N304 H311 0.984 . S
N305 C298 1.356 . S
N305 H308 0.984 . S
N305 H309 0.985 . S
H306 N301 0.984 . S
H307 N301 0.985 . S
H308 N305 0.984 . S
H309 N305 0.985 . S
H310 N304 0.984 . S
H311 N304 0.984 . S
H312 N300 0.984 . S
H313 N300 0.985 . S
C314 C315 1.363 . S
C314 C320 1.379 . S
C314 N322 1.356 . S
C315 C314 1.363 . S
C315 C321 1.363 . S
C316 C317 1.363 . S
C316 C321 1.379 . S
C316 N323 1.356 . S
C317 C316 1.363 . S
C317 C320 1.363 . S
N318 C320 1.356 . S
N318 H330 0.984 . S
N318 H331 0.985 . S
N319 C321 1.385 . S
N319 H324 0.967 1_655 S
N319 H325 0.975 1_655 S
C320 C314 1.379 . S
C320 C317 1.363 . S
C320 N318 1.356 . S
C321 C315 1.363 . S
C321 C316 1.379 . S
C321 N319 1.385 . S
N322 C314 1.356 . S
N322 H328 0.984 . S
N322 H329 0.984 . S
N323 C316 1.356 . S
N323 H326 0.984 . S
N323 H327 0.985 . S
H324 N319 0.967 1_455 S
H325 N319 0.975 1_455 S
H326 N323 0.984 . S
H327 N323 0.985 . S
H328 N322 0.984 . S
H329 N322 0.984 . S
H330 N318 0.984 . S
H331 N318 0.985 . S
C332 C333 1.363 . S
C332 C338 1.379 . S
C332 N340 1.356 . S
C333 C332 1.363 . S
C333 C339 1.363 . S
C334 C335 1.363 . S
C334 C339 1.379 . S
C334 N341 1.356 . S
C335 C334 1.363 . S
C335 C338 1.363 . S
N336 C338 1.356 . S
N336 H348 0.984 . S
N336 H349 0.985 . S
N337 C339 1.356 . S
N337 H342 0.984 . S
N337 H343 0.985 . S
C338 C332 1.379 . S
C338 C335 1.363 . S
C338 N336 1.356 . S
C339 C333 1.363 . S
C339 C334 1.379 . S
C339 N337 1.356 . S
N340 C332 1.356 . S
N340 H346 0.984 . S
N340 H347 0.984 . S
N341 C334 1.356 . S
N341 H344 0.984 . S
N341 H345 0.985 . S
H342 N337 0.984 . S
H343 N337 0.985 . S
H344 N341 0.984 . S
H345 N341 0.985 . S
H346 N340 0.984 . S
H347 N340 0.984 . S
H348 N336 0.984 . S
H349 N336 0.985 . S
C350 C351 1.363 . S
C350 C356 1.379 . S
C350 N358 1.356 . S
C351 C350 1.363 . S
C351 C357 1.363 . S
C352 C353 1.363 . S
C352 C357 1.379 . S
C352 N359 1.356 . S
C353 C352 1.363 . S
C353 C356 1.363 . S
N354 C356 1.356 . S
N354 H366 0.984 . S
N354 H367 0.985 . S
N355 C357 1.356 . S
N355 H360 0.984 . S
N355 H361 0.985 . S
C356 C350 1.379 . S
C356 C353 1.363 . S
C356 N354 1.356 . S
C357 C351 1.363 . S
C357 C352 1.379 . S
C357 N355 1.356 . S
N358 C350 1.356 . S
N358 H364 0.984 . S
N358 H365 0.984 . S
N359 C352 1.356 . S
N359 H362 0.984 . S
N359 H363 0.985 . S
H360 N355 0.984 . S
H361 N355 0.985 . S
H362 N359 0.984 . S
H363 N359 0.985 . S
H364 N358 0.984 . S
H365 N358 0.984 . S
H366 N354 0.984 . S
H367 N354 0.985 . S
C368 C369 1.363 . S
C368 C374 1.379 1_556 S
C368 N376 1.356 . S
C369 C368 1.363 . S
C369 C375 1.363 . S
C370 C371 1.363 . S
C370 C375 1.379 . S
C370 N377 1.356 . S
C371 C370 1.363 . S
C371 C374 1.363 1_556 S
N372 C374 1.356 . S
N372 H384 0.984 . S
N372 H385 0.985 . S
N373 C375 1.356 . S
N373 H378 0.984 . S
N373 H379 0.985 . S
C374 C368 1.379 1_554 S
C374 C371 1.363 1_554 S
C374 N372 1.356 . S
C375 C369 1.363 . S
C375 C370 1.379 . S
C375 N373 1.356 . S
N376 C368 1.356 . S
N376 H382 0.984 1_556 S
N376 H383 0.984 . S
N377 C370 1.356 . S
N377 H380 0.984 . S
N377 H381 0.985 . S
H378 N373 0.984 . S
H379 N373 0.985 . S
H380 N377 0.984 . S
H381 N377 0.985 . S
H382 N376 0.984 1_554 S
H383 N376 0.984 . S
H384 N372 0.984 . S
H385 N372 0.985 . S
C386 C387 1.363 . S
C386 C392 1.379 . S
C386 N394 1.356 . S
C387 C386 1.363 . S
C387 C393 1.363 . S
C388 C389 1.363 . S
C388 C393 1.379 . S
C388 N395 1.356 . S
C389 C388 1.363 . S
C389 C392 1.363 . S
N390 C392 1.356 . S
N390 H402 0.984 . S
N390 H403 0.985 . S
N391 C393 1.356 . S
N391 H396 0.984 . S
N391 H397 0.985 . S
C392 C386 1.379 . S
C392 C389 1.363 . S
C392 N390 1.356 . S
C393 C387 1.363 . S
C393 C388 1.379 . S
C393 N391 1.356 . S
N394 C386 1.356 . S
N394 H400 0.984 . S
N394 H401 0.984 . S
N395 C388 1.356 . S
N395 H398 0.984 . S
N395 H399 0.985 . S
H396 N391 0.984 . S
H397 N391 0.985 . S
H398 N395 0.984 . S
H399 N395 0.985 . S
H400 N394 0.984 . S
H401 N394 0.984 . S
H402 N390 0.984 . S
H403 N390 0.985 . S
C404 C405 1.363 . S
C404 C410 1.379 . S
C404 N412 1.356 . S
C405 C404 1.363 . S
C405 C411 1.363 . S
C406 C407 1.363 . S
C406 C411 1.379 . S
C406 N413 1.356 . S
C407 C406 1.363 . S
C407 C410 1.363 . S
N408 C410 1.356 . S
N408 H420 0.984 . S
N408 H421 0.985 . S
N409 C411 1.356 . S
N409 H414 0.984 . S
N409 H415 0.985 . S
C410 C404 1.379 . S
C410 C407 1.363 . S
C410 N408 1.356 . S
C411 C405 1.363 . S
C411 C406 1.379 . S
C411 N409 1.356 . S
N412 C404 1.356 . S
N412 H418 0.984 . S
N412 H419 0.984 . S
N413 C406 1.356 . S
N413 H416 0.984 . S
N413 H417 0.985 . S
H414 N409 0.984 . S
H415 N409 0.985 . S
H416 N413 0.984 . S
H417 N413 0.985 . S
H418 N412 0.984 . S
H419 N412 0.984 . S
H420 N408 0.984 . S
H421 N408 0.985 . S
C422 C423 1.363 . S
C422 C428 1.379 . S
C422 N430 1.356 . S
C423 C422 1.363 . S
C423 C429 1.363 . S
C424 C425 1.363 . S
C424 C429 1.379 . S
C424 N431 1.356 . S
C425 C424 1.363 . S
C425 C428 1.363 . S
N426 C428 1.356 . S
N426 H438 0.984 . S
N426 H439 0.985 . S
N427 C429 1.356 . S
N427 H432 0.984 . S
N427 H433 0.985 . S
C428 C422 1.379 . S
C428 C425 1.363 . S
C428 N426 1.356 . S
C429 C423 1.363 . S
C429 C424 1.379 . S
C429 N427 1.356 . S
N430 C422 1.356 . S
N430 H436 0.984 . S
N430 H437 0.984 . S
N431 C424 1.356 . S
N431 H434 0.984 . S
N431 H435 0.985 . S
H432 N427 0.984 . S
H433 N427 0.985 . S
H434 N431 0.984 . S
H435 N431 0.985 . S
H436 N430 0.984 . S
H437 N430 0.984 . S
H438 N426 0.984 . S
H439 N426 0.985 . S
C440 C441 1.363 . S
C440 C446 1.379 . S
C440 N448 1.356 . S
C441 C440 1.363 . S
C441 C447 1.363 . S
C442 C443 1.363 . S
C442 C447 1.379 . S
C442 N449 1.356 . S
C443 C442 1.363 . S
C443 C446 1.363 . S
N444 C446 1.356 . S
N444 H456 0.984 1_554 S
N444 H457 0.985 1_554 S
N445 C447 1.356 . S
N445 H450 0.984 . S
N445 H451 0.985 . S
C446 C440 1.379 . S
C446 C443 1.363 . S
C446 N444 1.356 . S
C447 C441 1.363 . S
C447 C442 1.379 . S
C447 N445 1.356 . S
N448 C440 1.356 . S
N448 H454 0.984 . S
N448 H455 0.984 . S
N449 C442 1.356 . S
N449 H452 0.984 . S
N449 H453 0.985 . S
H450 N445 0.984 . S
H451 N445 0.985 . S
H452 N449 0.984 . S
H453 N449 0.985 . S
H454 N448 0.984 . S
H455 N448 0.984 . S
H456 N444 0.984 1_556 S
H457 N444 0.985 1_556 S
C458 C459 1.363 . S
C458 C464 1.379 . S
C458 N466 1.356 . S
C459 C458 1.363 . S
C459 C465 1.363 . S
C460 C461 1.363 . S
C460 C465 1.379 . S
C460 N467 1.356 1_556 S
C461 C460 1.363 . S
C461 C464 1.363 . S
N462 C464 1.356 . S
N462 H474 0.984 . S
N462 H475 0.985 . S
N463 C465 1.356 . S
N463 H468 0.984 . S
N463 H469 0.985 . S
C464 C458 1.379 . S
C464 C461 1.363 . S
C464 N462 1.356 . S
C465 C459 1.363 . S
C465 C460 1.379 . S
C465 N463 1.356 . S
N466 C458 1.356 . S
N466 H472 0.984 . S
N466 H473 0.984 . S
N467 C460 1.356 1_554 S
N467 H470 0.984 . S
N467 H471 0.985 . S
H468 N463 0.984 . S
H469 N463 0.985 . S
H470 N467 0.984 . S
H471 N467 0.985 . S
H472 N466 0.984 . S
H473 N466 0.984 . S
H474 N462 0.984 . S
H475 N462 0.985 . S
C476 C477 1.363 . S
C476 C482 1.379 . S
C476 N484 1.356 . S
C477 C476 1.363 . S
C477 C483 1.363 . S
C478 C479 1.363 . S
C478 C483 1.379 . S
C478 N485 1.356 . S
C479 C478 1.363 . S
C479 C482 1.363 . S
N480 C482 1.356 . S
N480 H492 0.984 . S
N480 H493 0.985 . S
N481 C483 1.356 . S
N481 H486 0.984 . S
N481 H487 0.985 . S
C482 C476 1.379 . S
C482 C479 1.363 . S
C482 N480 1.356 . S
C483 C477 1.363 . S
C483 C478 1.379 . S
C483 N481 1.356 . S
N484 C476 1.356 . S
N484 H490 0.984 . S
N484 H491 0.984 . S
N485 C478 1.356 . S
N485 H488 0.984 . S
N485 H489 0.985 . S
H486 N481 0.984 . S
H487 N481 0.985 . S
H488 N485 0.984 . S
H489 N485 0.985 . S
H490 N484 0.984 . S
H491 N484 0.984 . S
H492 N480 0.984 . S
H493 N480 0.985 . S
C494 C495 1.363 . S
C494 C500 1.379 . S
C494 N502 1.356 . S
C495 C494 1.363 . S
C495 C501 1.363 . S
C496 C497 1.363 . S
C496 C501 1.379 . S
C496 N503 1.356 . S
C497 C496 1.363 . S
C497 C500 1.363 . S
N498 C500 1.356 . S
N498 H510 0.984 . S
N498 H511 0.985 . S
N499 C501 1.356 . S
N499 H504 0.984 . S
N499 H505 0.985 . S
C500 C494 1.379 . S
C500 C497 1.363 . S
C500 N498 1.356 . S
C501 C495 1.363 . S
C501 C496 1.379 . S
C501 N499 1.356 . S
N502 C494 1.356 . S
N502 H508 0.984 . S
N502 H509 0.984 . S
N503 C496 1.356 . S
N503 H506 0.984 . S
N503 H507 0.985 . S
H504 N499 0.984 . S
H505 N499 0.985 . S
H506 N503 0.984 . S
H507 N503 0.985 . S
H508 N502 0.984 . S
H509 N502 0.984 . S
H510 N498 0.984 . S
H511 N498 0.985 . S
C512 C513 1.363 . S
C512 C518 1.379 1_554 S
C512 N520 1.356 . S
C513 C512 1.363 . S
C513 C519 1.363 . S
C514 C515 1.363 1_554 S
C514 C519 1.379 . S
C514 N521 1.356 . S
C515 C514 1.363 1_556 S
C515 C518 1.363 . S
N516 C518 1.356 . S
N516 H528 0.984 1_455 S
N516 H529 0.985 . S
N517 C519 1.356 . S
N517 H522 0.984 . S
N517 H523 0.985 . S
C518 C512 1.379 1_556 S
C518 C515 1.363 . S
C518 N516 1.356 . S
C519 C513 1.363 . S
C519 C514 1.379 . S
C519 N517 1.356 . S
N520 C512 1.356 . S
N520 H526 0.984 1_455 S
N520 H527 0.984 . S
N521 C514 1.356 . S
N521 H524 0.984 1_554 S
N521 H525 0.985 . S
H522 N517 0.984 . S
H523 N517 0.985 . S
H524 N521 0.984 1_556 S
H525 N521 0.985 . S
H526 N520 0.984 1_655 S
H527 N520 0.984 . S
H528 N516 0.984 1_655 S
H529 N516 0.985 . S
C530 C531 1.363 . S
C530 C536 1.379 . S
C530 N538 1.356 . S
C531 C530 1.363 . S
C531 C537 1.363 . S
C532 C533 1.363 . S
C532 C537 1.379 . S
C532 N539 1.356 . S
C533 C532 1.363 . S
C533 C536 1.363 . S
N534 C536 1.356 . S
N534 H546 0.984 . S
N534 H547 0.985 . S
N535 C537 1.356 . S
N535 H540 0.984 . S
N535 H541 0.985 . S
C536 C530 1.379 . S
C536 C533 1.363 . S
C536 N534 1.356 . S
C537 C531 1.363 . S
C537 C532 1.379 . S
C537 N535 1.356 . S
N538 C530 1.356 . S
N538 H544 0.984 . S
N538 H545 0.984 . S
N539 C532 1.356 . S
N539 H542 0.984 . S
N539 H543 0.985 . S
H540 N535 0.984 . S
H541 N535 0.985 . S
H542 N539 0.984 . S
H543 N539 0.985 . S
H544 N538 0.984 . S
H545 N538 0.984 . S
H546 N534 0.984 . S
H547 N534 0.985 . S
C548 C549 1.363 . S
C548 C554 1.379 . S
C548 N556 1.356 . S
C549 C548 1.363 . S
C549 C555 1.363 . S
C550 C551 1.363 . S
C550 C555 1.379 . S
C550 N557 1.356 . S
C551 C550 1.363 . S
C551 C554 1.363 . S
N552 C554 1.356 . S
N552 H564 0.984 . S
N552 H565 0.985 . S
N553 C555 1.356 . S
N553 H558 0.984 . S
N553 H559 0.985 . S
C554 C548 1.379 . S
C554 C551 1.363 . S
C554 N552 1.356 . S
C555 C549 1.363 . S
C555 C550 1.379 . S
C555 N553 1.356 . S
N556 C548 1.356 . S
N556 H562 0.984 . S
N556 H563 0.984 . S
N557 C550 1.356 . S
N557 H560 0.984 . S
N557 H561 0.985 . S
H558 N553 0.984 . S
H559 N553 0.985 . S
H560 N557 0.984 . S
H561 N557 0.985 . S
H562 N556 0.984 . S
H563 N556 0.984 . S
H564 N552 0.984 . S
H565 N552 0.985 . S
C566 C567 1.363 . S
C566 C572 1.379 . S
C566 N574 1.356 . S
C567 C566 1.363 . S
C567 C573 1.363 . S
C568 C569 1.363 . S
C568 C573 1.379 . S
C568 N575 1.356 . S
C569 C568 1.363 . S
C569 C572 1.363 . S
N570 C572 1.356 . S
N570 H582 0.984 . S
N570 H583 0.985 . S
N571 C573 1.356 . S
N571 H576 0.984 . S
N571 H577 0.985 . S
C572 C566 1.379 . S
C572 C569 1.363 . S
C572 N570 1.356 . S
C573 C567 1.363 . S
C573 C568 1.379 . S
C573 N571 1.356 . S
N574 C566 1.356 . S
N574 H580 0.984 . S
N574 H581 0.984 . S
N575 C568 1.356 . S
N575 H578 0.984 . S
N575 H579 0.985 . S
H576 N571 0.984 . S
H577 N571 0.985 . S
H578 N575 0.984 . S
H579 N575 0.985 . S
H580 N574 0.984 . S
H581 N574 0.984 . S
H582 N570 0.984 . S
H583 N570 0.985 . S
C584 C585 1.363 . S
C584 C590 1.379 . S
C584 N592 1.356 . S
C585 C584 1.363 . S
C585 C591 1.363 . S
C586 C587 1.363 . S
C586 C591 1.379 . S
C586 N593 1.356 . S
C587 C586 1.363 . S
C587 C590 1.363 . S
N588 C590 1.356 . S
N588 H600 0.984 . S
N588 H601 0.985 . S
N589 C591 1.356 . S
N589 H594 0.984 . S
N589 H595 0.985 . S
C590 C584 1.379 . S
C590 C587 1.363 . S
C590 N588 1.356 . S
C591 C585 1.363 . S
C591 C586 1.379 . S
C591 N589 1.356 . S
N592 C584 1.356 . S
N592 H598 0.984 . S
N592 H599 0.984 . S
N593 C586 1.356 . S
N593 H596 0.984 . S
N593 H597 0.985 . S
H594 N589 0.984 . S
H595 N589 0.985 . S
H596 N593 0.984 . S
H597 N593 0.985 . S
H598 N592 0.984 . S
H599 N592 0.984 . S
H600 N588 0.984 . S
H601 N588 0.985 . S
C602 C603 1.363 . S
C602 C608 1.379 . S
C602 N610 1.356 . S
C603 C602 1.363 . S
C603 C609 1.363 . S
C604 C605 1.363 . S
C604 C609 1.379 . S
C604 N611 1.356 . S
C605 C604 1.363 . S
C605 C608 1.363 . S
N606 C608 1.356 . S
N606 H618 0.984 . S
N606 H619 0.985 . S
N607 C609 1.356 . S
N607 H612 0.984 . S
N607 H613 0.985 . S
C608 C602 1.379 . S
C608 C605 1.363 . S
C608 N606 1.356 . S
C609 C603 1.363 . S
C609 C604 1.379 . S
C609 N607 1.356 . S
N610 C602 1.356 . S
N610 H616 0.984 . S
N610 H617 0.984 . S
N611 C604 1.356 . S
N611 H614 0.984 . S
N611 H615 0.985 . S
H612 N607 0.984 . S
H613 N607 0.985 . S
H614 N611 0.984 . S
H615 N611 0.985 . S
H616 N610 0.984 . S
H617 N610 0.984 . S
H618 N606 0.984 . S
H619 N606 0.985 . S
C620 C621 1.363 . S
C620 C626 1.394 . S
C620 N628 1.356 . S
C621 C620 1.363 . S
C621 C627 1.347 1_565 S
C622 C623 1.363 . S
C622 C627 1.394 . S
C622 N629 1.356 . S
C623 C622 1.363 . S
C623 C626 1.347 1_545 S
N624 C626 1.352 1_545 S
N624 H636 0.984 1_545 S
N624 H637 0.985 . S
N625 C627 1.352 1_565 S
N625 H630 0.984 . S
N625 H631 0.985 1_565 S
C626 C620 1.394 . S
C626 C623 1.347 1_565 S
C626 N624 1.352 1_565 S
C627 C621 1.347 1_545 S
C627 C622 1.394 . S
C627 N625 1.352 1_545 S
N628 C620 1.356 . S
N628 H634 0.984 . S
N628 H635 0.984 . S
N629 C622 1.356 . S
N629 H632 0.984 . S
N629 H633 0.985 . S
H630 N625 0.984 . S
H631 N625 0.985 1_545 S
H632 N629 0.984 . S
H633 N629 0.985 . S
H634 N628 0.984 . S
H635 N628 0.984 . S
H636 N624 0.984 1_565 S
H637 N624 0.985 . S
C638 C639 1.338 1_565 S
C638 C644 1.402 1_556 S
C638 N646 1.350 1_465 S
C639 C638 1.338 1_545 S
C639 C645 1.363 1_556 S
C640 C641 1.338 1_545 S
C640 C645 1.402 . S
C640 N647 1.349 1_545 S
C641 C640 1.338 1_565 S
C641 C644 1.363 . S
N642 C644 1.356 1_655 S
N642 H654 0.984 . S
N642 H655 0.980 1_655 S
N643 C645 1.356 . S
N643 H648 0.984 1_554 S
N643 H649 0.985 . S
C644 C638 1.402 1_554 S
C644 C641 1.363 . S
C644 N642 1.356 1_455 S
C645 C639 1.363 1_554 S
C645 C640 1.402 . S
C645 N643 1.356 . S
N646 C638 1.350 1_645 S
N646 H652 0.984 1_545 S
N646 H653 0.980 1_655 S
N647 C640 1.349 1_565 S
N647 H650 0.984 . S
N647 H651 0.985 1_565 S
H648 N643 0.984 1_556 S
H649 N643 0.985 . S
H650 N647 0.984 . S
H651 N647 0.985 1_545 S
H652 N646 0.984 1_565 S
H653 N646 0.980 1_455 S
H654 N642 0.984 . S
H655 N642 0.980 1_455 S
C656 C657 1.363 . S
C656 C662 1.379 . S
C656 N664 1.356 1_455 S
C657 C656 1.363 . S
C657 C663 1.363 . S
C658 C659 1.363 . S
C658 C663 1.379 . S
C658 N665 1.356 . S
C659 C658 1.363 . S
C659 C662 1.363 . S
N660 C662 1.356 1_655 S
N660 H672 0.984 . S
N660 H673 0.985 . S
N661 C663 1.356 . S
N661 H666 0.984 . S
N661 H667 0.985 . S
C662 C656 1.379 . S
C662 C659 1.363 . S
C662 N660 1.356 1_455 S
C663 C657 1.363 . S
C663 C658 1.379 . S
C663 N661 1.356 . S
N664 C656 1.356 1_655 S
N664 H670 0.984 . S
N664 H671 0.984 . S
N665 C658 1.356 . S
N665 H668 0.984 . S
N665 H669 0.985 . S
H666 N661 0.984 . S
H667 N661 0.985 . S
H668 N665 0.984 . S
H669 N665 0.985 . S
H670 N664 0.984 . S
H671 N664 0.984 . S
H672 N660 0.984 . S
H673 N660 0.985 . S
C674 C675 1.363 . S
C674 C680 1.379 . S
C674 N682 1.356 . S
C675 C674 1.363 . S
C675 C681 1.363 . S
C676 C677 1.363 . S
C676 C681 1.379 . S
C676 N683 1.356 . S
C677 C676 1.363 . S
C677 C680 1.363 . S
N678 C680 1.356 . S
N678 H690 0.984 . S
N678 H691 0.985 . S
N679 C681 1.356 . S
N679 H684 0.984 . S
N679 H685 0.985 . S
C680 C674 1.379 . S
C680 C677 1.363 . S
C680 N678 1.356 . S
C681 C675 1.363 . S
C681 C676 1.379 . S
C681 N679 1.356 . S
N682 C674 1.356 . S
N682 H688 0.984 . S
N682 H689 0.984 . S
N683 C676 1.356 . S
N683 H686 0.984 . S
N683 H687 0.985 . S
H684 N679 0.984 . S
H685 N679 0.985 . S
H686 N683 0.984 . S
H687 N683 0.985 . S
H688 N682 0.984 . S
H689 N682 0.984 . S
H690 N678 0.984 . S
H691 N678 0.985 . S
C692 C693 1.363 . S
C692 C698 1.379 . S
C692 N700 1.356 . S
C693 C692 1.363 . S
C693 C699 1.363 . S
C694 C695 1.363 1_554 S
C694 C699 1.379 . S
C694 N701 1.356 . S
C695 C694 1.363 1_556 S
C695 C698 1.363 1_556 S
N696 C698 1.356 1_556 S
N696 H708 0.984 . S
N696 H709 0.985 . S
N697 C699 1.356 . S
N697 H702 0.984 . S
N697 H703 0.985 . S
C698 C692 1.379 . S
C698 C695 1.363 1_554 S
C698 N696 1.356 1_554 S
C699 C693 1.363 . S
C699 C694 1.379 . S
C699 N697 1.356 . S
N700 C692 1.356 . S
N700 H706 0.984 . S
N700 H707 0.984 . S
N701 C694 1.356 . S
N701 H704 0.984 1_554 S
N701 H705 0.985 . S
H702 N697 0.984 . S
H703 N697 0.985 . S
H704 N701 0.984 1_556 S
H705 N701 0.985 . S
H706 N700 0.984 . S
H707 N700 0.984 . S
H708 N696 0.984 . S
H709 N696 0.985 . S
C710 C711 1.363 . S
C710 C716 1.379 . S
C710 N718 1.356 . S
C711 C710 1.363 . S
C711 C717 1.363 . S
C712 C713 1.363 . S
C712 C717 1.379 . S
C712 N719 1.356 . S
C713 C712 1.363 . S
C713 C716 1.363 . S
N714 C716 1.356 . S
N714 H726 0.984 . S
N714 H727 0.985 . S
N715 C717 1.356 . S
N715 H720 0.984 . S
N715 H721 0.985 . S
C716 C710 1.379 . S
C716 C713 1.363 . S
C716 N714 1.356 . S
C717 C711 1.363 . S
C717 C712 1.379 . S
C717 N715 1.356 . S
N718 C710 1.356 . S
N718 H724 0.984 . S
N718 H725 0.984 . S
N719 C712 1.356 . S
N719 H722 0.984 . S
N719 H723 0.985 . S
H720 N715 0.984 . S
H721 N715 0.985 . S
H722 N719 0.984 . S
H723 N719 0.985 . S
H724 N718 0.984 . S
H725 N718 0.984 . S
H726 N714 0.984 . S
H727 N714 0.985 . S
C728 C729 1.363 . S
C728 C734 1.379 . S
C728 N736 1.356 . S
C729 C728 1.363 . S
C729 C735 1.363 . S
C730 C731 1.363 . S
C730 C735 1.379 . S
C730 N737 1.356 . S
C731 C730 1.363 . S
C731 C734 1.363 . S
N732 C734 1.356 . S
N732 H744 0.984 . S
N732 H745 0.985 . S
N733 C735 1.356 . S
N733 H738 0.984 . S
N733 H739 0.985 . S
C734 C728 1.379 . S
C734 C731 1.363 . S
C734 N732 1.356 . S
C735 C729 1.363 . S
C735 C730 1.379 . S
C735 N733 1.356 . S
N736 C728 1.356 . S
N736 H742 0.984 . S
N736 H743 0.984 . S
N737 C730 1.356 . S
N737 H740 0.984 . S
N737 H741 0.985 . S
H738 N733 0.984 . S
H739 N733 0.985 . S
H740 N737 0.984 . S
H741 N737 0.985 . S
H742 N736 0.984 . S
H743 N736 0.984 . S
H744 N732 0.984 . S
H745 N732 0.985 . S
C746 C747 1.363 . S
C746 C752 1.379 . S
C746 N754 1.356 . S
C747 C746 1.363 . S
C747 C753 1.363 . S
C748 C749 1.363 . S
C748 C753 1.379 . S
C748 N755 1.356 . S
C749 C748 1.363 . S
C749 C752 1.363 . S
N750 C752 1.356 . S
N750 H762 0.984 . S
N750 H763 0.985 . S
N751 C753 1.356 . S
N751 H756 0.984 . S
N751 H757 0.985 . S
C752 C746 1.379 . S
C752 C749 1.363 . S
C752 N750 1.356 . S
C753 C747 1.363 . S
C753 C748 1.379 . S
C753 N751 1.356 . S
N754 C746 1.356 . S
N754 H760 0.984 . S
N754 H761 0.984 . S
N755 C748 1.356 . S
N755 H758 0.984 . S
N755 H759 0.985 . S
H756 N751 0.984 . S
H757 N751 0.985 . S
H758 N755 0.984 . S
H759 N755 0.985 . S
H760 N754 0.984 . S
H761 N754 0.984 . S
H762 N750 0.984 . S
H763 N750 0.985 . S
C764 C765 1.363 . S
C764 C770 1.379 1_565 S
C764 N772 1.356 . S
C765 C764 1.363 . S
C765 C771 1.363 . S
C766 C767 1.363 1_554 S
C766 C771 1.379 1_545 S
C766 N773 1.356 1_554 S
C767 C766 1.363 1_556 S
C767 C770 1.363 1_556 S
N768 C770 1.356 1_556 S
N768 H780 0.984 . S
N768 H781 0.985 . S
N769 C771 1.356 . S
N769 H774 0.984 . S
N769 H775 0.985 . S
C770 C764 1.379 1_545 S
C770 C767 1.363 1_554 S
C770 N768 1.356 1_554 S
C771 C765 1.363 . S
C771 C766 1.379 1_565 S
C771 N769 1.356 . S
N772 C764 1.356 . S
N772 H778 0.984 . S
N772 H779 0.984 . S
N773 C766 1.356 1_556 S
N773 H776 0.984 . S
N773 H777 0.985 1_556 S
H774 N769 0.984 . S
H775 N769 0.985 . S
H776 N773 0.984 . S
H777 N773 0.985 1_554 S
H778 N772 0.984 . S
H779 N772 0.984 . S
H780 N768 0.984 . S
H781 N768 0.985 . S
C782 C783 1.363 . S
C782 C788 1.379 . S
C782 N790 1.356 . S
C783 C782 1.363 . S
C783 C789 1.363 1_545 S
C784 C785 1.363 . S
C784 C789 1.379 . S
C784 N791 1.356 . S
C785 C784 1.363 . S
C785 C788 1.363 1_565 S
N786 C788 1.356 . S
N786 H798 0.984 . S
N786 H799 0.985 1_545 S
N787 C789 1.356 . S
N787 H792 0.984 1_565 S
N787 H793 0.985 . S
C788 C782 1.379 . S
C788 C785 1.363 1_545 S
C788 N786 1.356 . S
C789 C783 1.363 1_565 S
C789 C784 1.379 . S
C789 N787 1.356 . S
N790 C782 1.356 . S
N790 H796 0.984 . S
N790 H797 0.984 . S
N791 C784 1.356 . S
N791 H794 0.984 . S
N791 H795 0.985 . S
H792 N787 0.984 1_545 S
H793 N787 0.985 . S
H794 N791 0.984 . S
H795 N791 0.985 . S
H796 N790 0.984 . S
H797 N790 0.984 . S
H798 N786 0.984 . S
H799 N786 0.985 1_565 S
C225 C135 1.495 . S
C227 C9 1.495 . S
C243 C205 1.495 . S
C245 C23 1.495 . S
C261 C37 1.495 . S
C263 C121 1.495 . S
C279 C51 1.495 . S
C281 C219 1.518 . S
C297 C65 1.495 . S
C299 C149 1.495 . S
C315 C191 1.518 . S
C317 C79 1.495 . S
C333 C163 1.495 . S
C335 C93 1.495 . S
C351 C107 1.495 . S
C353 C177 1.495 . S
C369 C59 1.619 . S
C371 C45 1.619 1_556 S
C387 C171 1.619 . S
C389 C115 1.619 . S
C405 C87 1.619 . S
C407 C17 1.619 . S
C423 C129 1.619 . S
C425 C185 1.619 . S
C441 C3 1.619 . S
C443 C73 1.619 . S
C459 C213 1.619 . S
C461 C143 1.619 1_556 S
C477 C101 1.619 . S
C479 C31 1.619 . S
C495 C157 1.619 . S
C497 C199 1.619 . S
C513 C7 0.860 . S
C515 C63 0.860 . S
C531 C77 0.860 . S
C533 C21 0.860 . S
C549 C91 0.860 . S
C551 C35 0.860 . S
C567 C49 0.860 . S
C569 C105 0.860 . S
C585 C147 0.860 . S
C587 C119 0.860 . S
C603 C161 0.860 . S
C605 C133 0.860 . S
C621 C203 0.860 . S
C623 C175 0.860 . S
C639 C217 0.860 . S
C641 C189 0.860 . S
C657 C64 1.701 . S
C659 C8 1.701 . S
C675 C78 1.701 . S
C677 C22 1.701 . S
C693 C92 1.701 . S
C695 C36 1.701 . S
C711 C50 1.701 . S
C713 C106 1.701 . S
C729 C120 1.701 . S
C731 C148 1.701 . S
C747 C162 1.701 . S
C749 C134 1.701 . S
C765 C204 1.701 . S
C767 C176 1.701 . S
C783 C218 1.701 . S
C785 C190 1.701 . S
