# Generated by pormake.
# Topology afi, (4)-cn, num edge types: 1
# Building blocks:
#     Node 0, Type 0, BuildingBlock: ICAMEG_clean_sbu_1, # of connection points: 4
#     Node 1, Type 0, BuildingBlock: ICAMEG_clean_sbu_1, # of connection points: 4
#     Node 2, Type 0, BuildingBlock: ICAMEG_clean_sbu_1, # of connection points: 4
#     Node 3, Type 0, BuildingBlock: ICAMEG_clean_sbu_1, # of connection points: 4
#     Node 4, Type 0, BuildingBlock: ICAMEG_clean_sbu_1, # of connection points: 4
#     Node 5, Type 0, BuildingBlock: ICAMEG_clean_sbu_1, # of connection points: 4
#     Node 6, Type 0, BuildingBlock: ICAMEG_clean_sbu_1, # of connection points: 4
#     Node 7, Type 0, BuildingBlock: ICAMEG_clean_sbu_1, # of connection points: 4
#     Node 8, Type 0, BuildingBlock: ICAMEG_clean_sbu_1, # of connection points: 4
#     Node 9, Type 0, BuildingBlock: ICAMEG_clean_sbu_1, # of connection points: 4
#     Node 10, Type 0, BuildingBlock: ICAMEG_clean_sbu_1, # of connection points: 4
#     Node 11, Type 0, BuildingBlock: ICAMEG_clean_sbu_1, # of connection points: 4
#     Node 12, Type 0, BuildingBlock: ICAMEG_clean_sbu_1, # of connection points: 4
#     Node 13, Type 0, BuildingBlock: ICAMEG_clean_sbu_1, # of connection points: 4
#     Node 14, Type 0, BuildingBlock: ICAMEG_clean_sbu_1, # of connection points: 4
#     Node 15, Type 0, BuildingBlock: ICAMEG_clean_sbu_1, # of connection points: 4
#     Node 16, Type 0, BuildingBlock: ICAMEG_clean_sbu_1, # of connection points: 4
#     Node 17, Type 0, BuildingBlock: ICAMEG_clean_sbu_1, # of connection points: 4
#     Node 18, Type 0, BuildingBlock: ICAMEG_clean_sbu_1, # of connection points: 4
#     Node 19, Type 0, BuildingBlock: ICAMEG_clean_sbu_1, # of connection points: 4
#     Node 20, Type 0, BuildingBlock: ICAMEG_clean_sbu_1, # of connection points: 4
#     Node 21, Type 0, BuildingBlock: ICAMEG_clean_sbu_1, # of connection points: 4
#     Node 22, Type 0, BuildingBlock: ICAMEG_clean_sbu_1, # of connection points: 4
#     Node 23, Type 0, BuildingBlock: ICAMEG_clean_sbu_1, # of connection points: 4
#     Edge 24, Type (0, 0), BuildingBlock: OJICUG_clean_linker_0, # of connection points: 2
#     Edge 25, Type (0, 0), BuildingBlock: OJICUG_clean_linker_0, # of connection points: 2
#     Edge 26, Type (0, 0), BuildingBlock: OJICUG_clean_linker_0, # of connection points: 2
#     Edge 27, Type (0, 0), BuildingBlock: OJICUG_clean_linker_0, # of connection points: 2
#     Edge 28, Type (0, 0), BuildingBlock: OJICUG_clean_linker_0, # of connection points: 2
#     Edge 29, Type (0, 0), BuildingBlock: OJICUG_clean_linker_0, # of connection points: 2
#     Edge 30, Type (0, 0), BuildingBlock: OJICUG_clean_linker_0, # of connection points: 2
#     Edge 31, Type (0, 0), BuildingBlock: OJICUG_clean_linker_0, # of connection points: 2
#     Edge 32, Type (0, 0), BuildingBlock: OJICUG_clean_linker_0, # of connection points: 2
#     Edge 33, Type (0, 0), BuildingBlock: OJICUG_clean_linker_0, # of connection points: 2
#     Edge 34, Type (0, 0), BuildingBlock: OJICUG_clean_linker_0, # of connection points: 2
#     Edge 35, Type (0, 0), BuildingBlock: OJICUG_clean_linker_0, # of connection points: 2
#     Edge 36, Type (0, 0), BuildingBlock: OJICUG_clean_linker_0, # of connection points: 2
#     Edge 37, Type (0, 0), BuildingBlock: OJICUG_clean_linker_0, # of connection points: 2
#     Edge 38, Type (0, 0), BuildingBlock: OJICUG_clean_linker_0, # of connection points: 2
#     Edge 39, Type (0, 0), BuildingBlock: OJICUG_clean_linker_0, # of connection points: 2
#     Edge 40, Type (0, 0), BuildingBlock: OJICUG_clean_linker_0, # of connection points: 2
#     Edge 41, Type (0, 0), BuildingBlock: OJICUG_clean_linker_0, # of connection points: 2
#     Edge 42, Type (0, 0), BuildingBlock: OJICUG_clean_linker_0, # of connection points: 2
#     Edge 43, Type (0, 0), BuildingBlock: OJICUG_clean_linker_0, # of connection points: 2
#     Edge 44, Type (0, 0), BuildingBlock: OJICUG_clean_linker_0, # of connection points: 2
#     Edge 45, Type (0, 0), BuildingBlock: OJICUG_clean_linker_0, # of connection points: 2
#     Edge 46, Type (0, 0), BuildingBlock: OJICUG_clean_linker_0, # of connection points: 2
#     Edge 47, Type (0, 0), BuildingBlock: OJICUG_clean_linker_0, # of connection points: 2
#     Edge 48, Type (0, 0), BuildingBlock: OJICUG_clean_linker_0, # of connection points: 2
#     Edge 49, Type (0, 0), BuildingBlock: OJICUG_clean_linker_0, # of connection points: 2
#     Edge 50, Type (0, 0), BuildingBlock: OJICUG_clean_linker_0, # of connection points: 2
#     Edge 51, Type (0, 0), BuildingBlock: OJICUG_clean_linker_0, # of connection points: 2
#     Edge 52, Type (0, 0), BuildingBlock: OJICUG_clean_linker_0, # of connection points: 2
#     Edge 53, Type (0, 0), BuildingBlock: OJICUG_clean_linker_0, # of connection points: 2
#     Edge 54, Type (0, 0), BuildingBlock: OJICUG_clean_linker_0, # of connection points: 2
#     Edge 55, Type (0, 0), BuildingBlock: OJICUG_clean_linker_0, # of connection points: 2
#     Edge 56, Type (0, 0), BuildingBlock: OJICUG_clean_linker_0, # of connection points: 2
#     Edge 57, Type (0, 0), BuildingBlock: OJICUG_clean_linker_0, # of connection points: 2
#     Edge 58, Type (0, 0), BuildingBlock: OJICUG_clean_linker_0, # of connection points: 2
#     Edge 59, Type (0, 0), BuildingBlock: OJICUG_clean_linker_0, # of connection points: 2
#     Edge 60, Type (0, 0), BuildingBlock: OJICUG_clean_linker_0, # of connection points: 2
#     Edge 61, Type (0, 0), BuildingBlock: OJICUG_clean_linker_0, # of connection points: 2
#     Edge 62, Type (0, 0), BuildingBlock: OJICUG_clean_linker_0, # of connection points: 2
#     Edge 63, Type (0, 0), BuildingBlock: OJICUG_clean_linker_0, # of connection points: 2
#     Edge 64, Type (0, 0), BuildingBlock: OJICUG_clean_linker_0, # of connection points: 2
#     Edge 65, Type (0, 0), BuildingBlock: OJICUG_clean_linker_0, # of connection points: 2
#     Edge 66, Type (0, 0), BuildingBlock: OJICUG_clean_linker_0, # of connection points: 2
#     Edge 67, Type (0, 0), BuildingBlock: OJICUG_clean_linker_0, # of connection points: 2
#     Edge 68, Type (0, 0), BuildingBlock: OJICUG_clean_linker_0, # of connection points: 2
#     Edge 69, Type (0, 0), BuildingBlock: OJICUG_clean_linker_0, # of connection points: 2
#     Edge 70, Type (0, 0), BuildingBlock: OJICUG_clean_linker_0, # of connection points: 2
#     Edge 71, Type (0, 0), BuildingBlock: OJICUG_clean_linker_0, # of connection points: 2
# Relax obj value: 0.121
# Max RMSD: 0.171
# Mean RMSD: 0.171
data_MOF--net-afi--node1-ICAMEG_clean_sbu_1--edge1-OJICUG_clean_linker_0
_symmetry_space_group_name_H-M    P1
_symmetry_Int_Tables_number       1
_symmetry_cell_setting            triclinic
loop_
_symmetry_equiv_pos_as_xyz
'x, y, z'
_cell_length_a     52.35471
_cell_length_b     52.341388
_cell_length_c     33.129425
_cell_angle_alpha  89.915581
_cell_angle_beta   90.106479
_cell_angle_gamma 120.03692
loop_
_atom_site_label
_atom_site_type_symbol
_atom_site_fract_x
_atom_site_fract_y
_atom_site_fract_z
_atom_type_partial_charge
Co0 Co 0.47687 0.10233 0.16322 0.0
Co1 Co 0.4544 0.12356 0.24933 0.0
O2 O 0.46033 0.12484 0.1898 0.0
C3 C 0.43237 0.10005 0.10033 0.0
O4 O 0.42426 0.11542 0.12275 0.0
C5 C 0.47893 0.18861 0.22918 0.0
O6 O 0.48671 0.18584 0.19257 0.0
O7 O 0.49635 0.13511 0.25908 0.0
O8 O 0.50493 0.11155 0.20891 0.0
H9 H 0.46277 0.09494 0.39162 0.0
H10 H 0.47694 0.15345 0.12151 0.0
O11 O 0.45036 0.09237 0.11409 0.0
H12 H 0.57991 0.17531 0.11741 0.0
H13 H 0.51853 0.07031 0.04955 0.0
H14 H 0.49282 0.05902 0.19387 0.0
H15 H 0.54165 0.13006 0.15016 0.0
H16 H 0.49582 0.09726 0.07948 0.0
O17 O 0.46586 0.16636 0.25236 0.0
H18 H 0.46937 0.09682 0.31783 0.0
H19 H 0.42667 0.14725 0.30569 0.0
H20 H 0.51442 0.03086 0.16463 0.0
H21 H 0.51426 0.19848 0.08772 0.0
H22 H 0.52746 0.03642 0.09187 0.0
H23 H 0.56631 0.20982 0.08546 0.0
O24 O 0.44683 0.06493 0.19043 0.0
H25 H 0.37259 0.13233 0.18347 0.0
H26 H 0.39652 0.07618 0.2811 0.0
H27 H 0.34448 0.06125 0.26843 0.0
H28 H 0.33222 0.08948 0.21942 0.0
H29 H 0.42432 0.14629 0.19676 0.0
H30 H 0.41975 0.14607 0.37937 0.0
H31 H 0.43779 0.11971 0.42289 0.0
O32 O 0.44298 0.08108 0.25131 0.0
C33 C 0.5123 0.1265 0.24137 0.0
C34 C 0.45481 0.1065 0.37299 0.0
C35 C 0.43068 0.13521 0.36611 0.0
N36 N 0.44847 0.12212 0.30738 0.0
C37 C 0.4585 0.10765 0.33117 0.0
C38 C 0.43475 0.13587 0.32439 0.0
C39 C 0.4408 0.12041 0.39051 0.0
C40 C 0.4992 0.15762 0.12002 0.0
N41 N 0.50667 0.13847 0.13705 0.0
C42 C 0.52043 0.18346 0.10112 0.0
C43 C 0.54963 0.18986 0.09997 0.0
C44 C 0.55727 0.17053 0.11788 0.0
C45 C 0.53544 0.14491 0.13648 0.0
C46 C 0.51242 0.06729 0.08102 0.0
C47 C 0.49813 0.06137 0.16208 0.0
C48 C 0.49967 0.08259 0.09823 0.0
N49 N 0.49311 0.07987 0.13849 0.0
C50 C 0.51039 0.04535 0.14571 0.0
C51 C 0.51767 0.04846 0.1049 0.0
C52 C 0.43894 0.06038 0.22746 0.0
C53 C 0.37764 0.11992 0.20501 0.0
C54 C 0.39139 0.0885 0.25958 0.0
C55 C 0.36187 0.07999 0.25262 0.0
C56 C 0.35501 0.09585 0.22514 0.0
N57 N 0.41348 0.11224 0.23986 0.0
C58 C 0.40692 0.1278 0.21277 0.0
Co59 Co 0.3799 0.47333 0.1659 0.0
Co60 Co 0.33561 0.45482 0.2502 0.0
O61 O 0.34117 0.45814 0.19129 0.0
C62 C 0.36998 0.42943 0.10194 0.0
O63 O 0.39061 0.42591 0.11926 0.0
C64 C 0.30243 0.48684 0.26075 0.0
O65 O 0.32475 0.50666 0.28199 0.0
O66 O 0.36633 0.49717 0.25693 0.0
O67 O 0.39955 0.50265 0.20989 0.0
H68 H 0.36869 0.47033 0.39509 0.0
H69 H 0.33026 0.47041 0.11899 0.0
O70 O 0.36077 0.44501 0.11947 0.0
H71 H 0.40857 0.57496 0.11466 0.0
H72 H 0.45422 0.5111 0.05226 0.0
H73 H 0.43848 0.48814 0.19731 0.0
H74 H 0.41639 0.53832 0.151 0.0
H75 H 0.40461 0.49112 0.08184 0.0
O76 O 0.30365 0.46541 0.24429 0.0
H77 H 0.37543 0.47349 0.32126 0.0
H78 H 0.28267 0.42909 0.30388 0.0
H79 H 0.48827 0.50837 0.16891 0.0
H80 H 0.32168 0.50627 0.08172 0.0
H81 H 0.49642 0.51984 0.09567 0.0
H82 H 0.361 0.55898 0.0794 0.0
O83 O 0.38597 0.44384 0.19668 0.0
H84 H 0.2466 0.36962 0.18641 0.0
H85 H 0.32459 0.39873 0.28917 0.0
H86 H 0.28784 0.34608 0.28006 0.0
H87 H 0.2484 0.33124 0.2285 0.0
H88 H 0.284 0.42202 0.19621 0.0
H89 H 0.27485 0.42554 0.37752 0.0
H90 H 0.31807 0.44622 0.42369 0.0
O91 O 0.3669 0.44375 0.2574 0.0
C92 C 0.39156 0.51172 0.24027 0.0
C93 C 0.34967 0.46127 0.3753 0.0
C94 C 0.29702 0.43614 0.36544 0.0
N95 N 0.32952 0.45164 0.30825 0.0
C96 C 0.35338 0.46303 0.33346 0.0
C97 C 0.30159 0.4383 0.32376 0.0
C98 C 0.32127 0.44774 0.39132 0.0
C99 C 0.34754 0.49327 0.11792 0.0
N100 N 0.37385 0.50219 0.13696 0.0
C101 C 0.34253 0.51349 0.09686 0.0
C102 C 0.36459 0.54307 0.09561 0.0
C103 C 0.39127 0.55205 0.11539 0.0
C104 C 0.39552 0.53121 0.13608 0.0
C105 C 0.45086 0.50597 0.08401 0.0
C106 C 0.44172 0.49299 0.1654 0.0
C107 C 0.42283 0.49462 0.10098 0.0
N108 N 0.41854 0.48829 0.14129 0.0
C109 C 0.47003 0.50442 0.14947 0.0
C110 C 0.47457 0.5109 0.10845 0.0
C111 C 0.3828 0.43783 0.23445 0.0
C112 C 0.26363 0.37582 0.20905 0.0
C113 C 0.30761 0.39245 0.26649 0.0
C114 C 0.2868 0.3626 0.26157 0.0
C115 C 0.26467 0.35429 0.23265 0.0
N116 N 0.30634 0.41345 0.24338 0.0
C117 C 0.28481 0.40546 0.21482 0.0
Co118 Co 0.90239 0.36921 0.15474 0.0
Co119 Co 0.88346 0.33532 0.24711 0.0
O120 O 0.88171 0.33281 0.18742 0.0
C121 C 0.9047 0.32332 0.09816 0.0
O122 O 0.88817 0.30018 0.12071 0.0
C123 C 0.81787 0.29416 0.23833 0.0
O124 O 0.81604 0.31119 0.21069 0.0
O125 O 0.86692 0.36237 0.24605 0.0
O126 O 0.89447 0.39208 0.19609 0.0
H127 H 0.90602 0.38886 0.37978 0.0
H128 H 0.85012 0.31366 0.12406 0.0
O129 O 0.91183 0.34925 0.10988 0.0
H130 H 0.82564 0.39183 0.10095 0.0
H131 H 0.92676 0.43035 0.02815 0.0
H132 H 0.94632 0.43152 0.17395 0.0
H133 H 0.87271 0.40343 0.13267 0.0
H134 H 0.90312 0.38433 0.06749 0.0
O135 O 0.84279 0.30013 0.25274 0.0
H136 H 0.90403 0.38463 0.30565 0.0
H137 H 0.86626 0.29164 0.31449 0.0
H138 H 0.97154 0.47795 0.13521 0.0
H139 H 0.80319 0.3012 0.09153 0.0
H140 H 0.96166 0.47761 0.06176 0.0
H141 H 0.79055 0.34042 0.07962 0.0
O142 O 0.94057 0.37921 0.18208 0.0
H143 H 0.88803 0.24544 0.20594 0.0
H144 H 0.9349 0.33616 0.28806 0.0
H145 H 0.95637 0.30363 0.28739 0.0
H146 H 0.93285 0.25784 0.2462 0.0
H147 H 0.86745 0.27879 0.20721 0.0
H148 H 0.86768 0.29487 0.38876 0.0
H149 H 0.88775 0.34375 0.42191 0.0
O150 O 0.92433 0.37007 0.24573 0.0
C151 C 0.87732 0.38641 0.22612 0.0
C152 C 0.89725 0.36743 0.36571 0.0
C153 C 0.87571 0.31468 0.37074 0.0
N154 N 0.88508 0.33792 0.30566 0.0
C155 C 0.89608 0.36489 0.3237 0.0
C156 C 0.87489 0.31299 0.32864 0.0
C157 C 0.88698 0.34212 0.38932 0.0
C158 C 0.84542 0.33107 0.11818 0.0
N159 N 0.86499 0.3595 0.12903 0.0
C160 C 0.81848 0.32378 0.1001 0.0
C161 C 0.81135 0.34575 0.09357 0.0
C162 C 0.83101 0.37457 0.10552 0.0
C163 C 0.85772 0.38101 0.12354 0.0
C164 C 0.93164 0.43078 0.05997 0.0
C165 C 0.94224 0.43112 0.1419 0.0
C166 C 0.91822 0.40476 0.08249 0.0
N167 N 0.92311 0.40523 0.12313 0.0
C168 C 0.95654 0.45751 0.12014 0.0
C169 C 0.95103 0.4573 0.07893 0.0
C170 C 0.94524 0.38142 0.22017 0.0
C171 C 0.89845 0.2653 0.22406 0.0
C172 C 0.92462 0.31637 0.26988 0.0
C173 C 0.93683 0.29798 0.26973 0.0
C174 C 0.92361 0.27229 0.24663 0.0
N175 N 0.8999 0.30933 0.24771 0.0
C176 C 0.88686 0.28421 0.22496 0.0
Co177 Co 0.53474 0.90462 0.15907 0.0
Co178 Co 0.55587 0.88264 0.24527 0.0
O179 O 0.55164 0.88246 0.18564 0.0
C180 C 0.58018 0.90876 0.09656 0.0
O181 O 0.588 0.8926 0.11781 0.0
C182 C 0.5273 0.81649 0.2351 0.0
O183 O 0.50543 0.81514 0.21392 0.0
O184 O 0.51271 0.86766 0.25215 0.0
O185 O 0.50519 0.89328 0.20355 0.0
H186 H 0.54011 0.90464 0.38785 0.0
H187 H 0.53635 0.85316 0.12161 0.0
O188 O 0.56241 0.91635 0.11123 0.0
H189 H 0.43432 0.83221 0.10364 0.0
H190 H 0.50005 0.94262 0.04337 0.0
H191 H 0.5154 0.94509 0.19042 0.0
H192 H 0.47088 0.87739 0.13832 0.0
H193 H 0.51919 0.91271 0.07435 0.0
O194 O 0.54897 0.84126 0.24573 0.0
H195 H 0.53555 0.9044 0.31378 0.0
H196 H 0.58599 0.86174 0.3022 0.0
H197 H 0.49555 0.97476 0.16066 0.0
H198 H 0.50069 0.80807 0.08636 0.0
H199 H 0.48792 0.97381 0.08655 0.0
H200 H 0.44914 0.79721 0.07702 0.0
O201 O 0.56375 0.9417 0.18809 0.0
H202 H 0.64396 0.88413 0.18307 0.0
H203 H 0.6109 0.93232 0.28108 0.0
H204 H 0.66414 0.95197 0.2708 0.0
H205 H 0.68099 0.92779 0.22157 0.0
H206 H 0.59086 0.86536 0.19406 0.0
H207 H 0.59108 0.86144 0.37611 0.0
H208 H 0.56806 0.88302 0.41953 0.0
O209 O 0.56361 0.92387 0.24936 0.0
C210 C 0.49672 0.87635 0.23432 0.0
C211 C 0.55014 0.89504 0.36929 0.0
C212 C 0.57874 0.87082 0.3627 0.0
N213 N 0.56013 0.88276 0.3036 0.0
C214 C 0.54751 0.89475 0.32731 0.0
C215 C 0.57568 0.87096 0.32082 0.0
C216 C 0.56584 0.88294 0.38703 0.0
C217 C 0.51434 0.84922 0.11708 0.0
N218 N 0.50627 0.86874 0.13099 0.0
C219 C 0.49404 0.82334 0.09734 0.0
C220 C 0.46511 0.81721 0.0922 0.0
C221 C 0.4568 0.83684 0.10708 0.0
C222 C 0.47771 0.86249 0.12665 0.0
C223 C 0.5033 0.94324 0.07565 0.0
C224 C 0.51188 0.94429 0.15819 0.0
C225 C 0.51433 0.92649 0.09339 0.0
N226 N 0.51842 0.92708 0.13425 0.0
C227 C 0.50075 0.96126 0.14149 0.0
C228 C 0.49648 0.96072 0.09992 0.0
C229 C 0.56957 0.9453 0.22582 0.0
C230 C 0.63689 0.89484 0.20464 0.0
C231 C 0.61803 0.92177 0.25941 0.0
C232 C 0.64822 0.93295 0.25383 0.0
C233 C 0.65766 0.91935 0.22622 0.0
N234 N 0.59779 0.89769 0.23816 0.0
C235 C 0.60688 0.88427 0.21104 0.0
Co236 Co 0.63167 0.53 0.15586 0.0
Co237 Co 0.67475 0.54857 0.24237 0.0
O238 O 0.66993 0.54533 0.18327 0.0
C239 C 0.64122 0.57559 0.09493 0.0
O240 O 0.6201 0.57786 0.11293 0.0
C241 C 0.70612 0.51512 0.2572 0.0
O242 O 0.68316 0.49608 0.27817 0.0
O243 O 0.64275 0.50661 0.24937 0.0
O244 O 0.61169 0.49881 0.19784 0.0
H245 H 0.63932 0.53538 0.38589 0.0
H246 H 0.68385 0.53666 0.11181 0.0
O247 O 0.65107 0.56011 0.11132 0.0
H248 H 0.60819 0.43172 0.09716 0.0
H249 H 0.56122 0.49352 0.03779 0.0
H250 H 0.57155 0.51205 0.18419 0.0
H251 H 0.59739 0.46584 0.1347 0.0
H252 H 0.60992 0.51459 0.07029 0.0
O253 O 0.70571 0.53639 0.23876 0.0
H254 H 0.63386 0.5319 0.31185 0.0
H255 H 0.72676 0.57321 0.29806 0.0
H256 H 0.52246 0.49094 0.15268 0.0
H257 H 0.69546 0.50347 0.07327 0.0
H258 H 0.51703 0.48171 0.07881 0.0
H259 H 0.65749 0.45056 0.06581 0.0
O260 O 0.62332 0.55781 0.18741 0.0
H261 H 0.76642 0.63112 0.17981 0.0
H262 H 0.68752 0.60574 0.27966 0.0
H263 H 0.72591 0.65779 0.27028 0.0
H264 H 0.76582 0.67076 0.22019 0.0
H265 H 0.72738 0.57935 0.18981 0.0
H266 H 0.73328 0.57707 0.37194 0.0
H267 H 0.68934 0.55808 0.41643 0.0
O268 O 0.64487 0.56139 0.24742 0.0
C269 C 0.61855 0.49082 0.2305 0.0
C270 C 0.65863 0.54363 0.36685 0.0
C271 C 0.71136 0.56701 0.35902 0.0
N272 N 0.67991 0.55198 0.30062 0.0
C273 C 0.65566 0.54163 0.3249 0.0
C274 C 0.70752 0.56466 0.3172 0.0
C275 C 0.6867 0.55637 0.38396 0.0
C276 C 0.66719 0.51367 0.10866 0.0
N277 N 0.64001 0.50316 0.12577 0.0
C278 C 0.67391 0.49498 0.08683 0.0
C279 C 0.65261 0.46529 0.08269 0.0
C280 C 0.62497 0.4547 0.10032 0.0
C281 C 0.61905 0.47405 0.1219 0.0
C282 C 0.56332 0.49777 0.0698 0.0
C283 C 0.56944 0.50823 0.15199 0.0
C284 C 0.59086 0.50969 0.08845 0.0
N285 N 0.59365 0.51466 0.12915 0.0
C286 C 0.54156 0.4963 0.13432 0.0
C287 C 0.53853 0.49107 0.09291 0.0
C288 C 0.62813 0.56606 0.22434 0.0
C289 C 0.7492 0.62574 0.20181 0.0
C290 C 0.70469 0.6112 0.25762 0.0
C291 C 0.72644 0.64071 0.25254 0.0
C292 C 0.74883 0.64797 0.22444 0.0
N293 N 0.7053 0.58949 0.23546 0.0
C294 C 0.72709 0.59646 0.2077 0.0
Co295 Co 0.09689 0.6348 0.15348 0.0
Co296 Co 0.12692 0.66927 0.24291 0.0
O297 O 0.12473 0.67118 0.18312 0.0
C298 C 0.10213 0.68434 0.098 0.0
O299 O 0.12134 0.70564 0.12124 0.0
C300 C 0.19004 0.71543 0.21897 0.0
O301 O 0.18444 0.71113 0.18018 0.0
O302 O 0.13874 0.63888 0.23655 0.0
O303 O 0.10288 0.60972 0.19389 0.0
H304 H 0.1083 0.61515 0.37472 0.0
H305 H 0.15204 0.68302 0.11482 0.0
O306 O 0.08975 0.65751 0.10972 0.0
H307 H 0.15294 0.59112 0.08737 0.0
H308 H 0.04383 0.57141 0.03253 0.0
H309 H 0.0492 0.57638 0.18095 0.0
H310 H 0.11278 0.59015 0.12694 0.0
H311 H 0.08292 0.61576 0.06664 0.0
O312 O 0.16991 0.70074 0.24473 0.0
H313 H 0.10542 0.61963 0.30101 0.0
H314 H 0.15387 0.71315 0.31004 0.0
H315 H 0.01116 0.53119 0.14794 0.0
H316 H 0.19227 0.68494 0.0747 0.0
H317 H 0.00819 0.52853 0.0731 0.0
H318 H 0.19297 0.63874 0.0605 0.0
O319 O 0.06368 0.6325 0.18584 0.0
H320 H 0.12996 0.76424 0.20768 0.0
H321 H 0.08331 0.67554 0.29386 0.0
H322 H 0.06768 0.71264 0.29976 0.0
H323 H 0.09115 0.75746 0.2566 0.0
H324 H 0.14468 0.72644 0.20247 0.0
H325 H 0.15741 0.70964 0.38385 0.0
H326 H 0.13442 0.66039 0.4167 0.0
O327 O 0.08408 0.63778 0.24656 0.0
C328 C 0.12386 0.61448 0.2179 0.0
C329 C 0.11832 0.63675 0.36078 0.0
C330 C 0.14591 0.68978 0.36589 0.0
N331 N 0.12924 0.66661 0.30119 0.0
C332 C 0.11671 0.63943 0.31904 0.0
C333 C 0.14387 0.69161 0.32406 0.0
C334 C 0.133 0.66213 0.38431 0.0
C335 C 0.15161 0.66273 0.1083 0.0
N336 N 0.12926 0.63642 0.12226 0.0
C337 C 0.17474 0.66399 0.08576 0.0
C338 C 0.17518 0.63809 0.0779 0.0
C339 C 0.15273 0.61139 0.09293 0.0
C340 C 0.12996 0.611 0.11531 0.0
C341 C 0.04527 0.57223 0.06509 0.0
C342 C 0.04853 0.57533 0.14838 0.0
C343 C 0.06709 0.59742 0.08464 0.0
N344 N 0.0684 0.59883 0.12587 0.0
C345 C 0.02677 0.54965 0.12984 0.0
C346 C 0.02512 0.54818 0.08789 0.0
C347 C 0.06147 0.62931 0.22408 0.0
C348 C 0.11969 0.74489 0.22683 0.0
C349 C 0.09365 0.69496 0.27493 0.0
C350 C 0.08471 0.71591 0.27845 0.0
C351 C 0.09789 0.74105 0.25423 0.0
N352 N 0.11525 0.69898 0.2482 0.0
C353 C 0.12807 0.72346 0.22415 0.0
Co354 Co 0.90773 0.52481 0.36651 0.0
Co355 Co 0.88082 0.54657 0.28586 0.0
O356 O 0.88367 0.54094 0.34441 0.0
C357 C 0.91575 0.57166 0.42929 0.0
O358 O 0.90597 0.58523 0.40605 0.0
C359 C 0.81574 0.51424 0.27342 0.0
O360 O 0.81913 0.49589 0.25014 0.0
O361 O 0.86972 0.50475 0.2749 0.0
O362 O 0.8963 0.49653 0.3208 0.0
H363 H 0.89879 0.53772 0.13892 0.0
H364 H 0.85913 0.52531 0.41233 0.0
O365 O 0.91919 0.55081 0.41564 0.0
H366 H 0.83816 0.42251 0.41896 0.0
H367 H 0.94922 0.48734 0.47441 0.0
H368 H 0.94799 0.50729 0.32914 0.0
H369 H 0.8818 0.46025 0.38255 0.0
H370 H 0.91953 0.50836 0.44878 0.0
O371 O 0.83785 0.53478 0.29223 0.0
H372 H 0.90231 0.53139 0.21211 0.0
H373 H 0.85348 0.57441 0.23617 0.0
H374 H 0.97646 0.48449 0.35322 0.0
H375 H 0.81538 0.48832 0.44928 0.0
H376 H 0.97771 0.47485 0.4264 0.0
H377 H 0.80463 0.43646 0.45289 0.0
O378 O 0.94313 0.55535 0.33628 0.0
H379 H 0.87421 0.62737 0.35817 0.0
H380 H 0.92555 0.60488 0.2515 0.0
H381 H 0.94031 0.65669 0.26566 0.0
H382 H 0.91448 0.66821 0.31922 0.0
H383 H 0.86043 0.57586 0.3434 0.0
H384 H 0.84928 0.5811 0.16326 0.0
H385 H 0.87207 0.56271 0.11405 0.0
O386 O 0.92338 0.55897 0.27782 0.0
C387 C 0.8794 0.4889 0.29022 0.0
C388 C 0.88869 0.54576 0.16004 0.0
C389 C 0.8609 0.57009 0.1737 0.0
N390 N 0.8779 0.55226 0.22841 0.0
C391 C 0.89057 0.54218 0.20152 0.0
C392 C 0.86326 0.56615 0.21496 0.0
C393 C 0.8737 0.55978 0.14611 0.0
C394 C 0.85475 0.50287 0.41376 0.0
N395 N 0.87331 0.49513 0.39556 0.0
C396 C 0.82987 0.48197 0.43474 0.0
C397 C 0.82384 0.45289 0.43674 0.0
C398 C 0.84264 0.44505 0.41774 0.0
C399 C 0.86734 0.46655 0.3971 0.0
C400 C 0.94904 0.49162 0.44246 0.0
C401 C 0.948 0.50281 0.36099 0.0
C402 C 0.93246 0.50384 0.42779 0.0
N403 N 0.93186 0.50906 0.38742 0.0
C404 C 0.96443 0.49012 0.37449 0.0
C405 C 0.96499 0.48459 0.41553 0.0
C406 C 0.94555 0.56403 0.29961 0.0
C407 C 0.88559 0.62263 0.3347 0.0
C408 C 0.91436 0.60969 0.27509 0.0
C409 C 0.92273 0.63909 0.28285 0.0
C410 C 0.90821 0.64554 0.31287 0.0
N411 N 0.89209 0.58733 0.29657 0.0
C412 C 0.87781 0.5935 0.3261 0.0
Co413 Co 0.37481 0.89971 0.3624 0.0
Co414 Co 0.34145 0.88016 0.26977 0.0
O415 O 0.33847 0.87854 0.32959 0.0
C416 C 0.32889 0.90044 0.42102 0.0
O417 O 0.30546 0.88315 0.39941 0.0
C418 C 0.29809 0.81482 0.28075 0.0
O419 O 0.31325 0.81293 0.31108 0.0
O420 O 0.36845 0.86349 0.27174 0.0
O421 O 0.39797 0.8921 0.32113 0.0
H422 H 0.39602 0.90251 0.138 0.0
H423 H 0.31957 0.84623 0.39131 0.0
O424 O 0.35476 0.90883 0.40766 0.0
H425 H 0.39932 0.82473 0.41839 0.0
H426 H 0.43693 0.92522 0.48817 0.0
H427 H 0.43668 0.94413 0.34246 0.0
H428 H 0.41015 0.87152 0.38666 0.0
H429 H 0.39059 0.90132 0.44968 0.0
O430 O 0.30614 0.83953 0.26385 0.0
H431 H 0.39121 0.90071 0.21206 0.0
H432 H 0.29828 0.86264 0.20162 0.0
H433 H 0.48342 0.96955 0.38034 0.0
H434 H 0.30784 0.79959 0.42402 0.0
H435 H 0.48385 0.96018 0.45382 0.0
H436 H 0.34785 0.78842 0.43789 0.0
O437 O 0.38391 0.93758 0.33475 0.0
H438 H 0.25157 0.88523 0.30923 0.0
H439 H 0.34241 0.93125 0.22749 0.0
H440 H 0.30991 0.95274 0.227 0.0
H441 H 0.26405 0.92964 0.26799 0.0
H442 H 0.2849 0.86462 0.30914 0.0
H443 H 0.30209 0.86383 0.12742 0.0
H444 H 0.35124 0.88397 0.09511 0.0
O445 O 0.37629 0.92112 0.27121 0.0
C446 C 0.39249 0.8744 0.2918 0.0
C447 C 0.37447 0.89371 0.15171 0.0
C448 C 0.32176 0.87198 0.14578 0.0
N449 N 0.3445 0.88161 0.21126 0.0
C450 C 0.3716 0.89265 0.19367 0.0
C451 C 0.31974 0.87127 0.18785 0.0
C452 C 0.34935 0.88329 0.12767 0.0
C453 C 0.33732 0.84224 0.39817 0.0
N454 N 0.36576 0.86251 0.38833 0.0
C455 C 0.33045 0.81543 0.41629 0.0
C456 C 0.35286 0.80911 0.4239 0.0
C457 C 0.38171 0.82946 0.41297 0.0
C458 C 0.38771 0.85601 0.39489 0.0
C459 C 0.43704 0.93011 0.45644 0.0
C460 C 0.43657 0.94026 0.37453 0.0
C461 C 0.41082 0.91651 0.43437 0.0
N462 N 0.4109 0.92111 0.3937 0.0
C463 C 0.46314 0.95473 0.39583 0.0
C464 C 0.46336 0.94946 0.43704 0.0
C465 C 0.38634 0.94217 0.29663 0.0
C466 C 0.27146 0.89547 0.2912 0.0
C467 C 0.3226 0.92117 0.2456 0.0
C468 C 0.30422 0.93338 0.24509 0.0
C469 C 0.27849 0.9204 0.26808 0.0
N470 N 0.31552 0.89667 0.26831 0.0
C471 C 0.29037 0.88387 0.29097 0.0
Co472 Co 0.47697 0.37114 0.36978 0.0
Co473 Co 0.46018 0.33583 0.27811 0.0
O474 O 0.46102 0.33438 0.33787 0.0
C475 C 0.43005 0.32521 0.42763 0.0
O476 O 0.42303 0.3024 0.40422 0.0
C477 C 0.48457 0.29492 0.28957 0.0
O478 O 0.50141 0.31091 0.31952 0.0
O479 O 0.50358 0.3638 0.27671 0.0
O480 O 0.50697 0.39372 0.32715 0.0
H481 H 0.48573 0.38699 0.14342 0.0
H482 H 0.47476 0.31621 0.40116 0.0
O483 O 0.44849 0.35133 0.41594 0.0
H484 H 0.57755 0.39528 0.42054 0.0
H485 H 0.51683 0.43446 0.49397 0.0
H486 H 0.4943 0.43291 0.3492 0.0
H487 H 0.54119 0.40611 0.39005 0.0
H488 H 0.49314 0.38766 0.45639 0.0
O489 O 0.46683 0.30147 0.27255 0.0
H490 H 0.48576 0.38416 0.21766 0.0
H491 H 0.43333 0.2907 0.21254 0.0
H492 H 0.51646 0.48001 0.38635 0.0
H493 H 0.51008 0.30454 0.4327 0.0
H494 H 0.5281 0.48104 0.45928 0.0
H495 H 0.56205 0.34419 0.44263 0.0
O496 O 0.44798 0.3805 0.34326 0.0
H497 H 0.36821 0.245 0.32418 0.0
H498 H 0.40774 0.33444 0.23968 0.0
H499 H 0.35398 0.30072 0.243 0.0
H500 H 0.33388 0.25557 0.2854 0.0
H501 H 0.42188 0.27952 0.32025 0.0
H502 H 0.43292 0.29254 0.13821 0.0
H503 H 0.45916 0.34095 0.10314 0.0
O504 O 0.45298 0.36977 0.27949 0.0
C505 C 0.51753 0.38807 0.29603 0.0
C506 C 0.47416 0.36576 0.15834 0.0
C507 C 0.44455 0.31276 0.15543 0.0
N508 N 0.45948 0.33732 0.21953 0.0
C509 C 0.47406 0.36402 0.20041 0.0
C510 C 0.44493 0.31187 0.19755 0.0
C511 C 0.45927 0.33993 0.13576 0.0
C512 C 0.49691 0.33383 0.4062 0.0
N513 N 0.50537 0.36207 0.39475 0.0
C514 C 0.51704 0.32698 0.42371 0.0
C515 C 0.54621 0.34919 0.42913 0.0
C516 C 0.55491 0.37782 0.41673 0.0
C517 C 0.53416 0.38382 0.39931 0.0
C518 C 0.5113 0.43425 0.46247 0.0
C519 C 0.49877 0.43308 0.38109 0.0
C520 C 0.49801 0.4078 0.44092 0.0
N521 N 0.49257 0.40755 0.40048 0.0
C522 C 0.5114 0.45984 0.40195 0.0
C523 C 0.51787 0.4604 0.44286 0.0
C524 C 0.4444 0.38185 0.30525 0.0
C525 C 0.3767 0.26457 0.30554 0.0
C526 C 0.39918 0.31493 0.25837 0.0
C527 C 0.36871 0.29586 0.26003 0.0
C528 C 0.35745 0.27053 0.28381 0.0
N529 N 0.41792 0.3089 0.27973 0.0
C530 C 0.40705 0.28414 0.30314 0.0
Co531 Co 0.10207 0.48209 0.35166 0.0
Co532 Co 0.12752 0.45749 0.27478 0.0
O533 O 0.12624 0.46559 0.33243 0.0
C534 C 0.09254 0.4375 0.41912 0.0
O535 O 0.08964 0.41621 0.39524 0.0
C536 C 0.19247 0.48762 0.26242 0.0
O537 O 0.18987 0.50583 0.23775 0.0
O538 O 0.14018 0.49937 0.26181 0.0
O539 O 0.10839 0.50476 0.3008 0.0
H540 H 0.10875 0.46322 0.12716 0.0
H541 H 0.15288 0.48869 0.39966 0.0
O542 O 0.09586 0.46158 0.40482 0.0
H543 H 0.17143 0.58997 0.37974 0.0
H544 H 0.06521 0.52737 0.45402 0.0
H545 H 0.05668 0.49256 0.31377 0.0
H546 H 0.12689 0.54747 0.3514 0.0
H547 H 0.09491 0.50578 0.4306 0.0
O548 O 0.16997 0.4677 0.28123 0.0
H549 H 0.10659 0.47213 0.19982 0.0
H550 H 0.15252 0.42657 0.22739 0.0
H551 H 0.02784 0.51548 0.33536 0.0
H552 H 0.19761 0.53057 0.42884 0.0
H553 H 0.0317 0.53281 0.40608 0.0
H554 H 0.20712 0.58165 0.41897 0.0
O555 O 0.06638 0.44796 0.32747 0.0
H556 H 0.13 0.37681 0.35391 0.0
H557 H 0.08112 0.39901 0.24304 0.0
H558 H 0.06414 0.34718 0.26078 0.0
H559 H 0.08871 0.3358 0.31648 0.0
H560 H 0.14607 0.42836 0.33545 0.0
H561 H 0.15537 0.41732 0.15502 0.0
H562 H 0.1333 0.43565 0.10434 0.0
O563 O 0.08503 0.44654 0.26707 0.0
C564 C 0.12746 0.51347 0.27282 0.0
C565 C 0.11842 0.4551 0.14895 0.0
C566 C 0.1446 0.42936 0.16458 0.0
N567 N 0.12937 0.44985 0.21783 0.0
C568 C 0.11724 0.46006 0.19014 0.0
C569 C 0.14298 0.43471 0.20551 0.0
C570 C 0.13221 0.43964 0.13616 0.0
C571 C 0.15682 0.51084 0.39532 0.0
N572 N 0.13718 0.51557 0.37404 0.0
C573 C 0.1822 0.53448 0.41187 0.0
C574 C 0.18753 0.56313 0.40632 0.0
C575 C 0.16752 0.56781 0.38433 0.0
C576 C 0.14235 0.54364 0.36828 0.0
C577 C 0.06322 0.51979 0.42317 0.0
C578 C 0.05875 0.50024 0.34451 0.0
C579 C 0.0798 0.50727 0.40981 0.0
N580 N 0.07765 0.4979 0.37077 0.0
C581 C 0.04217 0.51304 0.35665 0.0
C582 C 0.04443 0.52284 0.39628 0.0
C583 C 0.06316 0.44039 0.29023 0.0
C584 C 0.11918 0.38149 0.32949 0.0
C585 C 0.09184 0.39426 0.26745 0.0
C586 C 0.08218 0.36485 0.27728 0.0
C587 C 0.09598 0.35848 0.30852 0.0
N588 N 0.11468 0.4167 0.28806 0.0
C589 C 0.12825 0.41063 0.31881 0.0
Co590 Co 0.63278 0.09926 0.36959 0.0
Co591 Co 0.66946 0.12669 0.28017 0.0
O592 O 0.66993 0.12534 0.3402 0.0
C593 C 0.68006 0.10227 0.4283 0.0
O594 O 0.70254 0.12053 0.40588 0.0
C595 C 0.71637 0.18975 0.30336 0.0
O596 O 0.71234 0.18455 0.34226 0.0
O597 O 0.63917 0.13896 0.28257 0.0
O598 O 0.60911 0.10583 0.3277 0.0
H599 H 0.61911 0.10615 0.14507 0.0
H600 H 0.68258 0.15372 0.4071 0.0
O601 O 0.6537 0.09131 0.41513 0.0
H602 H 0.59397 0.16165 0.42971 0.0
H603 H 0.56647 0.05362 0.4905 0.0
H604 H 0.57383 0.05248 0.34235 0.0
H605 H 0.59046 0.11906 0.39352 0.0
H606 H 0.61257 0.0889 0.45606 0.0
O607 O 0.70121 0.16953 0.27794 0.0
H608 H 0.62147 0.10441 0.21925 0.0
H609 H 0.71517 0.15243 0.21513 0.0
H610 H 0.52705 0.01797 0.37549 0.0
H611 H 0.68704 0.19631 0.44404 0.0
H612 H 0.52313 0.01818 0.45021 0.0
H613 H 0.64251 0.20062 0.45569 0.0
O614 O 0.6289 0.06455 0.33893 0.0
H615 H 0.76265 0.12861 0.32334 0.0
H616 H 0.67638 0.08207 0.23275 0.0
H617 H 0.71299 0.06565 0.23088 0.0
H618 H 0.75662 0.08908 0.27625 0.0
H619 H 0.72535 0.14407 0.32456 0.0
H620 H 0.71377 0.15486 0.14091 0.0
H621 H 0.6655 0.13151 0.10536 0.0
O622 O 0.63784 0.0841 0.27706 0.0
C623 C 0.61441 0.12514 0.30062 0.0
C624 C 0.64029 0.11633 0.1602 0.0
C625 C 0.69341 0.1437 0.15787 0.0
N626 N 0.66841 0.1281 0.22159 0.0
C627 C 0.64177 0.11537 0.20223 0.0
C628 C 0.69405 0.1423 0.19994 0.0
C629 C 0.66632 0.13058 0.13794 0.0
C630 C 0.66298 0.15487 0.41252 0.0
N631 N 0.63617 0.1332 0.39885 0.0
C632 C 0.66569 0.17933 0.43326 0.0
C633 C 0.64073 0.18178 0.4397 0.0
C634 C 0.61352 0.15994 0.42514 0.0
C635 C 0.61169 0.13581 0.40456 0.0
C636 C 0.56787 0.05344 0.45797 0.0
C637 C 0.57231 0.05308 0.37482 0.0
C638 C 0.59403 0.07315 0.43827 0.0
N639 N 0.59603 0.07278 0.39714 0.0
C640 C 0.54573 0.03332 0.39346 0.0
C641 C 0.54356 0.03348 0.43534 0.0
C642 C 0.62753 0.06185 0.30053 0.0
C643 C 0.74385 0.11838 0.3032 0.0
C644 C 0.69528 0.09242 0.25261 0.0
C645 C 0.71596 0.08302 0.25138 0.0
C646 C 0.74043 0.09617 0.27683 0.0
N647 N 0.69893 0.11446 0.27827 0.0
C648 C 0.72271 0.12721 0.30358 0.0
Co649 Co 0.54139 0.63338 0.36413 0.0
Co650 Co 0.54908 0.66944 0.27467 0.0
O651 O 0.551 0.67017 0.33475 0.0
C652 C 0.58486 0.68165 0.42216 0.0
O653 O 0.58761 0.70372 0.4 0.0
C654 C 0.53137 0.7151 0.2978 0.0
O655 O 0.53213 0.71055 0.33664 0.0
O656 O 0.50675 0.63862 0.2777 0.0
O657 O 0.51111 0.60903 0.32245 0.0
H658 H 0.51932 0.61842 0.14013 0.0
H659 H 0.53431 0.6817 0.40171 0.0
O660 O 0.57035 0.65519 0.40911 0.0
H661 H 0.44058 0.59022 0.42713 0.0
H662 H 0.52881 0.56863 0.48437 0.0
H663 H 0.53034 0.57506 0.33606 0.0
H664 H 0.48028 0.58894 0.3894 0.0
H665 H 0.53449 0.61327 0.45074 0.0
O666 O 0.53727 0.70067 0.27223 0.0
H667 H 0.52368 0.62115 0.21428 0.0
H668 H 0.56819 0.71482 0.20917 0.0
H669 H 0.52232 0.52941 0.36857 0.0
H670 H 0.4955 0.68396 0.4401 0.0
H671 H 0.5217 0.52601 0.4434 0.0
H672 H 0.44809 0.63796 0.45324 0.0
O673 O 0.57286 0.63108 0.33342 0.0
H674 H 0.63941 0.7639 0.31652 0.0
H675 H 0.60091 0.67713 0.22718 0.0
H676 H 0.65373 0.71456 0.22484 0.0
H677 H 0.67331 0.75843 0.26958 0.0
H678 H 0.58685 0.7258 0.31819 0.0
H679 H 0.5641 0.71305 0.13497 0.0
H680 H 0.53964 0.66461 0.09993 0.0
O681 O 0.56076 0.63825 0.27164 0.0
C682 C 0.49641 0.61396 0.29595 0.0
C683 C 0.53012 0.63968 0.15503 0.0
C684 C 0.55522 0.69278 0.15214 0.0
N685 N 0.54639 0.66811 0.21611 0.0
C686 C 0.53272 0.64137 0.19704 0.0
C687 C 0.55741 0.69363 0.1942 0.0
C688 C 0.5415 0.66559 0.1325 0.0
C689 C 0.5142 0.66151 0.40771 0.0
N690 N 0.51022 0.63515 0.39406 0.0
C691 C 0.49205 0.66296 0.42929 0.0
C692 C 0.46544 0.63717 0.43656 0.0
C693 C 0.46123 0.61041 0.42195 0.0
C694 C 0.48389 0.60984 0.40053 0.0
C695 C 0.52845 0.5697 0.45184 0.0
C696 C 0.52939 0.57363 0.3686 0.0
C697 C 0.53213 0.59509 0.43256 0.0
N698 N 0.53286 0.59695 0.39135 0.0
C699 C 0.52503 0.54771 0.38687 0.0
C700 C 0.5247 0.54583 0.4288 0.0
C701 C 0.57355 0.62889 0.29519 0.0
C702 C 0.63111 0.74499 0.29667 0.0
C703 C 0.6092 0.69613 0.24678 0.0
C704 C 0.63916 0.71728 0.24528 0.0
C705 C 0.65013 0.74188 0.27038 0.0
N706 N 0.59059 0.69946 0.27236 0.0
C707 C 0.60127 0.72339 0.29732 0.0
Co708 Co 0.53579 0.90534 0.85781 0.0
Co709 Co 0.56081 0.88661 0.77244 0.0
O710 O 0.5542 0.88465 0.83162 0.0
C711 C 0.58041 0.90939 0.92199 0.0
O712 O 0.58987 0.89489 0.90015 0.0
C713 C 0.53096 0.82081 0.78302 0.0
O714 O 0.51055 0.82077 0.80603 0.0
O715 O 0.51829 0.87274 0.76164 0.0
O716 O 0.5083 0.89561 0.8113 0.0
H717 H 0.55166 0.91321 0.62931 0.0
H718 H 0.53774 0.8546 0.89694 0.0
O719 O 0.56168 0.91581 0.90755 0.0
H720 H 0.43336 0.8282 0.90034 0.0
H721 H 0.49192 0.93437 0.97211 0.0
H722 H 0.51637 0.94606 0.82721 0.0
H723 H 0.47068 0.87505 0.86988 0.0
H724 H 0.51614 0.90908 0.94158 0.0
O725 O 0.55266 0.84493 0.77066 0.0
H726 H 0.544 0.91093 0.7029 0.0
H727 H 0.59222 0.86616 0.71753 0.0
H728 H 0.49158 0.97114 0.85641 0.0
H729 H 0.50129 0.80786 0.92818 0.0
H730 H 0.47929 0.96553 0.92947 0.0
H731 H 0.44857 0.79428 0.93012 0.0
O732 O 0.5652 0.94353 0.83159 0.0
H733 H 0.64508 0.88352 0.8402 0.0
H734 H 0.61768 0.93688 0.74241 0.0
H735 H 0.67024 0.95507 0.75681 0.0
H736 H 0.68423 0.92827 0.80594 0.0
H737 H 0.59273 0.86625 0.82515 0.0
H738 H 0.6003 0.8678 0.6441 0.0
H739 H 0.58001 0.89151 0.59941 0.0
O740 O 0.56943 0.9282 0.77022 0.0
C741 C 0.50167 0.88083 0.77872 0.0
C742 C 0.5606 0.9028 0.64844 0.0
C743 C 0.58789 0.87731 0.65674 0.0
N744 N 0.56754 0.88841 0.71457 0.0
C745 C 0.5563 0.90143 0.69015 0.0
C746 C 0.58316 0.87639 0.69833 0.0
C747 C 0.5765 0.89062 0.63169 0.0
C748 C 0.51513 0.84941 0.89836 0.0
N749 N 0.50675 0.86827 0.88269 0.0
C750 C 0.49443 0.82263 0.91579 0.0
C751 C 0.46485 0.81498 0.91677 0.0
C752 C 0.45631 0.834 0.9001 0.0
C753 C 0.47763 0.86058 0.88294 0.0
C754 C 0.49735 0.93717 0.94035 0.0
C755 C 0.51105 0.9434 0.859 0.0
C756 C 0.5112 0.92301 0.92288 0.0
N757 N 0.51761 0.92599 0.88255 0.0
C758 C 0.49712 0.9578 0.87542 0.0
C759 C 0.49022 0.95461 0.91638 0.0
C760 C 0.57299 0.9485 0.79451 0.0
C761 C 0.63926 0.89536 0.81869 0.0
C762 C 0.62357 0.92519 0.76402 0.0
C763 C 0.65338 0.93554 0.77194 0.0
C764 C 0.66122 0.92049 0.79949 0.0
N765 N 0.60217 0.9005 0.78294 0.0
C766 C 0.60968 0.88564 0.80999 0.0
Co767 Co 0.63032 0.5343 0.85705 0.0
Co768 Co 0.67446 0.55289 0.77282 0.0
O769 O 0.66909 0.54967 0.83173 0.0
C770 C 0.64018 0.57789 0.92143 0.0
O771 O 0.61956 0.58149 0.90423 0.0
C772 C 0.70885 0.52209 0.76219 0.0
O773 O 0.68674 0.50194 0.74097 0.0
O774 O 0.64428 0.51027 0.76654 0.0
O775 O 0.61072 0.5051 0.8128 0.0
H776 H 0.64084 0.53628 0.62815 0.0
H777 H 0.67998 0.537 0.90365 0.0
O778 O 0.6494 0.56239 0.90369 0.0
H779 H 0.60156 0.43248 0.90764 0.0
H780 H 0.55577 0.49587 0.9704 0.0
H781 H 0.5718 0.5195 0.82555 0.0
H782 H 0.59376 0.46927 0.87168 0.0
H783 H 0.60549 0.51621 0.94103 0.0
O784 O 0.70704 0.54317 0.77869 0.0
H785 H 0.63437 0.53324 0.70204 0.0
H786 H 0.72722 0.5793 0.71877 0.0
H787 H 0.52189 0.49878 0.8537 0.0
H788 H 0.68855 0.50099 0.94053 0.0
H789 H 0.5136 0.48699 0.92685 0.0
H790 H 0.64917 0.4483 0.94267 0.0
O791 O 0.62436 0.56399 0.82663 0.0
H792 H 0.76273 0.63932 0.83593 0.0
H793 H 0.68435 0.60847 0.73338 0.0
H794 H 0.72039 0.66136 0.7421 0.0
H795 H 0.76002 0.67708 0.79355 0.0
H796 H 0.72602 0.58665 0.82653 0.0
H797 H 0.73477 0.58276 0.64508 0.0
H798 H 0.69137 0.56118 0.5992 0.0
O799 O 0.64261 0.56325 0.76564 0.0
C800 C 0.61896 0.49573 0.783 0.0
C801 C 0.65993 0.54573 0.64781 0.0
C802 C 0.71264 0.57181 0.65731 0.0
N803 N 0.68034 0.55593 0.71472 0.0
C804 C 0.65638 0.54404 0.68968 0.0
C805 C 0.70823 0.5697 0.69902 0.0
C806 C 0.68829 0.55971 0.63159 0.0
C807 C 0.66267 0.51414 0.90464 0.0
N808 N 0.63635 0.50532 0.8857 0.0
C809 C 0.66769 0.49383 0.92547 0.0
C810 C 0.64559 0.46427 0.92663 0.0
C811 C 0.61889 0.45538 0.90698 0.0
C812 C 0.61465 0.47631 0.88651 0.0
C813 C 0.5592 0.50114 0.9387 0.0
C814 C 0.56849 0.5145 0.85742 0.0
C815 C 0.58729 0.51271 0.92185 0.0
N816 N 0.59165 0.5192 0.88158 0.0
C817 C 0.54012 0.5028 0.87321 0.0
C818 C 0.53549 0.49613 0.91418 0.0
C819 C 0.62721 0.56973 0.7888 0.0
C820 C 0.74561 0.63274 0.81334 0.0
C821 C 0.70142 0.61513 0.75601 0.0
C822 C 0.72182 0.64511 0.76072 0.0
C823 C 0.74406 0.65392 0.78958 0.0
N824 N 0.70318 0.59446 0.77929 0.0
C825 C 0.72482 0.60294 0.8078 0.0
Co826 Co 0.11073 0.64198 0.86839 0.0
Co827 Co 0.12981 0.67573 0.77596 0.0
O828 O 0.13166 0.67832 0.83563 0.0
C829 C 0.10928 0.68824 0.92527 0.0
O830 O 0.12596 0.71134 0.90275 0.0
C831 C 0.19559 0.71576 0.78382 0.0
O832 O 0.19718 0.69819 0.81078 0.0
O833 O 0.14588 0.6483 0.77704 0.0
O834 O 0.11812 0.61876 0.82696 0.0
H835 H 0.10656 0.62188 0.64349 0.0
H836 H 0.16352 0.69722 0.89875 0.0
O837 O 0.10179 0.66224 0.9134 0.0
H838 H 0.18696 0.61825 0.92117 0.0
H839 H 0.08646 0.58101 0.99507 0.0
H840 H 0.06615 0.57982 0.84951 0.0
H841 H 0.13985 0.60715 0.89003 0.0
H842 H 0.11024 0.62695 0.95558 0.0
O843 O 0.1707 0.71057 0.77021 0.0
H844 H 0.10868 0.62626 0.71761 0.0
H845 H 0.1473 0.71933 0.70844 0.0
H846 H 0.0408 0.53348 0.88841 0.0
H847 H 0.21051 0.70919 0.93069 0.0
H848 H 0.05107 0.53383 0.96175 0.0
H849 H 0.22262 0.66956 0.94224 0.0
O850 O 0.07258 0.63241 0.84125 0.0
H851 H 0.12663 0.76638 0.81692 0.0
H852 H 0.07865 0.67554 0.73512 0.0
H853 H 0.05782 0.70861 0.73574 0.0
H854 H 0.0819 0.75447 0.77677 0.0
H855 H 0.14658 0.73249 0.8157 0.0
H856 H 0.14577 0.71596 0.63417 0.0
H857 H 0.1252 0.66695 0.6012 0.0
O858 O 0.08872 0.64131 0.77752 0.0
C859 C 0.1353 0.62427 0.797 0.0
C860 C 0.11554 0.64336 0.65749 0.0
C861 C 0.13757 0.69616 0.65227 0.0
N862 N 0.12806 0.67302 0.71743 0.0
C863 C 0.11679 0.64599 0.69948 0.0
C864 C 0.13845 0.69793 0.69436 0.0
C865 C 0.12602 0.66866 0.63378 0.0
C866 C 0.168 0.67965 0.9045 0.0
N867 N 0.14812 0.65127 0.8938 0.0
C868 C 0.19496 0.68665 0.92223 0.0
C869 C 0.2018 0.66445 0.92856 0.0
C870 C 0.18181 0.63568 0.91676 0.0
C871 C 0.15509 0.62953 0.89909 0.0
C872 C 0.08141 0.58058 0.96332 0.0
C873 C 0.07038 0.58022 0.88151 0.0
C874 C 0.0949 0.60655 0.94071 0.0
N875 N 0.08981 0.60606 0.90013 0.0
C876 C 0.05601 0.55389 0.90337 0.0
C877 C 0.06173 0.5541 0.94451 0.0
C878 C 0.06783 0.63023 0.80317 0.0
C879 C 0.11597 0.7465 0.79887 0.0
C880 C 0.08917 0.69536 0.75323 0.0
C881 C 0.07732 0.71405 0.75336 0.0
C882 C 0.09085 0.73978 0.77636 0.0
N883 N 0.11385 0.70213 0.77533 0.0
C884 C 0.1272 0.72728 0.798 0.0
Co885 Co 0.47813 0.10123 0.86565 0.0
Co886 Co 0.46725 0.12754 0.77623 0.0
O887 O 0.46606 0.1267 0.8364 0.0
C888 C 0.4336 0.10251 0.92592 0.0
O889 O 0.42878 0.12094 0.90478 0.0
C890 C 0.48445 0.19137 0.79711 0.0
O891 O 0.4877 0.18829 0.83578 0.0
O892 O 0.51024 0.14107 0.77806 0.0
O893 O 0.50825 0.10847 0.8233 0.0
H894 H 0.4967 0.10681 0.64126 0.0
H895 H 0.48175 0.15522 0.90255 0.0
O896 O 0.44955 0.09255 0.91169 0.0
H897 H 0.57941 0.16562 0.92521 0.0
H898 H 0.50129 0.05673 0.98559 0.0
H899 H 0.49157 0.05555 0.8377 0.0
H900 H 0.5407 0.12236 0.88956 0.0
H901 H 0.489 0.09114 0.95184 0.0
O902 O 0.47685 0.16986 0.773 0.0
H903 H 0.49366 0.10609 0.71551 0.0
H904 H 0.44484 0.1509 0.71085 0.0
H905 H 0.50562 0.02212 0.87027 0.0
H906 H 0.51952 0.19847 0.93902 0.0
H907 H 0.51036 0.02235 0.94491 0.0
H908 H 0.56892 0.20403 0.95067 0.0
O909 O 0.44732 0.06605 0.83567 0.0
H910 H 0.37595 0.12833 0.82074 0.0
H911 H 0.4152 0.08138 0.73049 0.0
H912 H 0.36189 0.0639 0.73029 0.0
H913 H 0.34193 0.08751 0.77553 0.0
H914 H 0.42907 0.14486 0.8203 0.0
H915 H 0.44757 0.15228 0.63655 0.0
H916 H 0.47353 0.13002 0.60124 0.0
O917 O 0.45734 0.08526 0.77372 0.0
C918 C 0.52197 0.12809 0.79646 0.0
C919 C 0.48526 0.11652 0.65629 0.0
C920 C 0.45771 0.14206 0.65366 0.0
N921 N 0.46895 0.12827 0.7176 0.0
C922 C 0.48342 0.11614 0.69836 0.0
C923 C 0.45631 0.14127 0.69577 0.0
C924 C 0.47228 0.12956 0.63386 0.0
C925 C 0.50277 0.15692 0.90801 0.0
N926 N 0.50845 0.13559 0.89458 0.0
C927 C 0.5243 0.18175 0.92847 0.0
C928 C 0.55202 0.1849 0.93489 0.0
C929 C 0.55791 0.16337 0.92062 0.0
C930 C 0.53582 0.13886 0.90032 0.0
C931 C 0.4995 0.05657 0.95315 0.0
C932 C 0.494 0.05618 0.87014 0.0
C933 C 0.49219 0.07577 0.93382 0.0
N934 N 0.48949 0.07541 0.89274 0.0
C935 C 0.50178 0.03701 0.88844 0.0
C936 C 0.50446 0.03718 0.93027 0.0
C937 C 0.44537 0.06314 0.79736 0.0
C938 C 0.38439 0.11794 0.80077 0.0
C939 C 0.40672 0.09171 0.75039 0.0
C940 C 0.37649 0.08175 0.75006 0.0
C941 C 0.36531 0.09502 0.77544 0.0
N942 N 0.42534 0.11433 0.77516 0.0
C943 C 0.4145 0.12731 0.80027 0.0
Co944 Co 0.37784 0.47548 0.86681 0.0
Co945 Co 0.3345 0.45642 0.78041 0.0
O946 O 0.33956 0.46009 0.83945 0.0
C947 C 0.36843 0.43026 0.9283 0.0
O948 O 0.38952 0.42789 0.91041 0.0
C949 C 0.30438 0.49101 0.76534 0.0
O950 O 0.32752 0.50965 0.74432 0.0
O951 O 0.36694 0.49805 0.77265 0.0
O952 O 0.39778 0.50644 0.82464 0.0
H953 H 0.36922 0.46784 0.63668 0.0
H954 H 0.32581 0.46901 0.9111 0.0
O955 O 0.35848 0.44557 0.91159 0.0
H956 H 0.40134 0.57412 0.92419 0.0
H957 H 0.44837 0.51266 0.98475 0.0
H958 H 0.43796 0.49332 0.83853 0.0
H959 H 0.41206 0.53982 0.88696 0.0
H960 H 0.39965 0.49134 0.95227 0.0
O961 O 0.30416 0.46942 0.78375 0.0
H962 H 0.37502 0.47186 0.71066 0.0
H963 H 0.28231 0.43212 0.72513 0.0
H964 H 0.48708 0.51479 0.86999 0.0
H965 H 0.31431 0.5024 0.94932 0.0
H966 H 0.49256 0.52441 0.94378 0.0
H967 H 0.35221 0.55539 0.956 0.0
O968 O 0.3862 0.4476 0.83541 0.0
H969 H 0.24233 0.37539 0.84408 0.0
H970 H 0.32073 0.39866 0.74419 0.0
H971 H 0.28175 0.34693 0.75435 0.0
H972 H 0.2421 0.33502 0.80447 0.0
H973 H 0.28194 0.42682 0.8333 0.0
H974 H 0.27545 0.42774 0.65132 0.0
H975 H 0.31912 0.44567 0.60652 0.0
O976 O 0.36389 0.44298 0.77568 0.0
C977 C 0.39106 0.51401 0.79156 0.0
C978 C 0.35002 0.46005 0.65585 0.0
C979 C 0.29741 0.43756 0.66407 0.0
N980 N 0.32909 0.45257 0.72222 0.0
C981 C 0.35319 0.46235 0.69777 0.0
C982 C 0.30144 0.4402 0.70585 0.0
C983 C 0.32191 0.4476 0.63896 0.0
C984 C 0.34245 0.49203 0.91394 0.0
N985 N 0.36955 0.50247 0.89662 0.0
C986 C 0.33579 0.51084 0.93557 0.0
C987 C 0.35705 0.54057 0.93928 0.0
C988 C 0.3846 0.5511 0.92139 0.0
C989 C 0.39047 0.53163 0.90002 0.0
C990 C 0.44626 0.50823 0.95278 0.0
C991 C 0.44009 0.49731 0.87069 0.0
C992 C 0.4187 0.49615 0.93415 0.0
N993 N 0.41588 0.49095 0.8935 0.0
C994 C 0.46799 0.50944 0.88834 0.0
C995 C 0.47105 0.5149 0.9297 0.0
C996 C 0.38103 0.43886 0.79867 0.0
C997 C 0.25944 0.38031 0.82207 0.0
C998 C 0.30366 0.39366 0.76624 0.0
C999 C 0.28159 0.36432 0.77176 0.0
C1000 C 0.25934 0.35766 0.79987 0.0
N1001 N 0.30351 0.41577 0.78798 0.0
C1002 C 0.28187 0.40939 0.81575 0.0
Co1003 Co 0.91676 0.37787 0.87139 0.0
Co1004 Co 0.88623 0.34381 0.78201 0.0
O1005 O 0.88881 0.34164 0.84167 0.0
C1006 C 0.91192 0.32802 0.92572 0.0
O1007 O 0.89267 0.30689 0.9023 0.0
C1008 C 0.82379 0.29712 0.8069 0.0
O1009 O 0.83009 0.3009 0.84555 0.0
O1010 O 0.87435 0.37405 0.78923 0.0
O1011 O 0.9105 0.40314 0.83156 0.0
H1012 H 0.90368 0.39843 0.65083 0.0
H1013 H 0.86201 0.32952 0.91068 0.0
O1014 O 0.92416 0.35494 0.9145 0.0
H1015 H 0.86114 0.42126 0.93947 0.0
H1016 H 0.97056 0.44064 0.99242 0.0
H1017 H 0.96429 0.43636 0.84403 0.0
H1018 H 0.90093 0.42237 0.89881 0.0
H1019 H 0.93122 0.39648 0.95828 0.0
O1020 O 0.84333 0.31232 0.78071 0.0
H1021 H 0.90727 0.39367 0.72435 0.0
H1022 H 0.85869 0.30019 0.7147 0.0
H1023 H 1.0026 0.48133 0.87708 0.0
H1024 H 0.82217 0.32746 0.95188 0.0
H1025 H 1.00601 0.48366 0.95193 0.0
H1026 H 0.82149 0.37359 0.96677 0.0
O1027 O 0.9497 0.38025 0.83838 0.0
H1028 H 0.88419 0.24899 0.81543 0.0
H1029 H 0.92934 0.33788 0.72956 0.0
H1030 H 0.94513 0.30099 0.7223 0.0
H1031 H 0.9224 0.25606 0.76528 0.0
H1032 H 0.86932 0.28657 0.822 0.0
H1033 H 0.85444 0.30398 0.64108 0.0
H1034 H 0.87713 0.35336 0.60864 0.0
O1035 O 0.92897 0.37535 0.77799 0.0
C1036 C 0.88938 0.39842 0.80783 0.0
C1037 C 0.89379 0.37678 0.66459 0.0
C1038 C 0.86613 0.32378 0.65913 0.0
N1039 N 0.88344 0.34669 0.72385 0.0
C1040 C 0.8958 0.37394 0.70622 0.0
C1041 C 0.86857 0.32178 0.70086 0.0
C1042 C 0.87887 0.35149 0.64094 0.0
C1043 C 0.86244 0.34977 0.91745 0.0
N1044 N 0.8846 0.37611 0.90327 0.0
C1045 C 0.83953 0.34844 0.94061 0.0
C1046 C 0.83911 0.3743 0.94887 0.0
C1047 C 0.86135 0.40103 0.9336 0.0
C1048 C 0.8839 0.40149 0.9106 0.0
C1049 C 0.96892 0.43997 0.95988 0.0
C1050 C 0.96516 0.43727 0.8766 0.0
C1051 C 0.94696 0.4149 0.94031 0.0
N1052 N 0.9454 0.41368 0.89907 0.0
C1053 C 0.98706 0.46283 0.89517 0.0
C1054 C 0.98897 0.4641 0.93711 0.0
C1055 C 0.95168 0.38354 0.80015 0.0
C1056 C 0.89412 0.26838 0.79633 0.0
C1057 C 0.91931 0.31841 0.74842 0.0
C1058 C 0.92835 0.29757 0.74413 0.0
C1059 C 0.91559 0.27238 0.76824 0.0
N1060 N 0.89801 0.31421 0.77579 0.0
C1061 C 0.88563 0.28969 0.79977 0.0
Co1062 Co 0.10512 0.48632 0.65681 0.0
Co1063 Co 0.13161 0.46404 0.7372 0.0
O1064 O 0.12887 0.46982 0.67872 0.0
C1065 C 0.09631 0.43919 0.59402 0.0
O1066 O 0.10494 0.42476 0.61755 0.0
C1067 C 0.19662 0.49532 0.74954 0.0
O1068 O 0.19369 0.51391 0.77293 0.0
O1069 O 0.14336 0.50604 0.7482 0.0
O1070 O 0.11653 0.51435 0.70283 0.0
H1071 H 0.11402 0.47311 0.88423 0.0
H1072 H 0.15344 0.48555 0.61075 0.0
O1073 O 0.09372 0.46059 0.60749 0.0
H1074 H 0.17555 0.58877 0.60563 0.0
H1075 H 0.06451 0.52473 0.54901 0.0
H1076 H 0.06499 0.50404 0.69416 0.0
H1077 H 0.13164 0.55105 0.64166 0.0
H1078 H 0.09387 0.50334 0.57465 0.0
O1079 O 0.17431 0.4751 0.73068 0.0
H1080 H 0.11064 0.47967 0.81108 0.0
H1081 H 0.15818 0.43537 0.78674 0.0
H1082 H 0.03685 0.5272 0.67008 0.0
H1083 H 0.19746 0.52251 0.57418 0.0
H1084 H 0.03596 0.5372 0.59696 0.0
H1085 H 0.20876 0.57457 0.57133 0.0
O1086 O 0.06957 0.45582 0.68675 0.0
H1087 H 0.13656 0.38239 0.66468 0.0
H1088 H 0.08624 0.40601 0.77156 0.0
H1089 H 0.07064 0.35401 0.75732 0.0
H1090 H 0.09595 0.34191 0.70367 0.0
H1091 H 0.15119 0.43411 0.67951 0.0
H1092 H 0.16224 0.42843 0.8596 0.0
H1093 H 0.14002 0.44735 0.90894 0.0
O1094 O 0.08929 0.45236 0.74532 0.0
C1095 C 0.13362 0.52193 0.7332 0.0
C1096 C 0.12388 0.46485 0.86305 0.0
C1097 C 0.15094 0.43978 0.84923 0.0
N1098 N 0.13444 0.4582 0.79464 0.0
C1099 C 0.12208 0.46856 0.82159 0.0
C1100 C 0.14867 0.44388 0.808 0.0
C1101 C 0.13846 0.45039 0.87689 0.0
C1102 C 0.1581 0.5081 0.60967 0.0
N1103 N 0.13972 0.51598 0.62809 0.0
C1104 C 0.18311 0.52897 0.5889 0.0
C1105 C 0.18945 0.55817 0.58732 0.0
C1106 C 0.17082 0.56614 0.60652 0.0
C1107 C 0.14599 0.54466 0.62695 0.0
C1108 C 0.06453 0.52029 0.58094 0.0
C1109 C 0.06514 0.50869 0.66234 0.0
C1110 C 0.08092 0.50787 0.59561 0.0
N1111 N 0.08129 0.50242 0.63595 0.0
C1112 C 0.0489 0.52158 0.64884 0.0
C1113 C 0.04855 0.52731 0.60783 0.0
C1114 C 0.06715 0.44735 0.72352 0.0
C1115 C 0.12541 0.38738 0.6882 0.0
C1116 C 0.09721 0.40095 0.74792 0.0
C1117 C 0.08836 0.37145 0.74012 0.0
C1118 C 0.10259 0.36468 0.71004 0.0
N1119 N 0.11966 0.42311 0.72642 0.0
C1120 C 0.13367 0.41663 0.69683 0.0
Co1121 Co 0.64086 0.11106 0.66417 0.0
Co1122 Co 0.68215 0.1289 0.75202 0.0
O1123 O 0.6792 0.13137 0.69257 0.0
C1124 C 0.68286 0.10725 0.60224 0.0
O1125 O 0.70666 0.12259 0.62421 0.0
C1126 C 0.71915 0.19505 0.74438 0.0
O1127 O 0.6991 0.19617 0.72179 0.0
O1128 O 0.65342 0.14305 0.76062 0.0
O1129 O 0.62191 0.12062 0.70922 0.0
H1130 H 0.64254 0.10121 0.89328 0.0
H1131 H 0.69497 0.16228 0.62823 0.0
O1132 O 0.65746 0.10063 0.61585 0.0
H1133 H 0.61731 0.18882 0.6184 0.0
H1134 H 0.57156 0.08483 0.54572 0.0
H1135 H 0.57974 0.06975 0.69102 0.0
H1136 H 0.60667 0.14163 0.6489 0.0
H1137 H 0.62011 0.10875 0.57915 0.0
O1138 O 0.71615 0.17038 0.75525 0.0
H1139 H 0.63919 0.10416 0.81938 0.0
H1140 H 0.73246 0.14823 0.80976 0.0
H1141 H 0.53079 0.04506 0.65855 0.0
H1142 H 0.70639 0.20933 0.59696 0.0
H1143 H 0.52643 0.05262 0.58537 0.0
H1144 H 0.66742 0.223 0.59176 0.0
O1145 O 0.63107 0.07257 0.69055 0.0
H1146 H 0.77057 0.13115 0.68959 0.0
H1147 H 0.68718 0.078 0.78339 0.0
H1148 H 0.72135 0.05927 0.77143 0.0
H1149 H 0.76346 0.08595 0.72432 0.0
H1150 H 0.73567 0.14897 0.70218 0.0
H1151 H 0.73693 0.14591 0.88354 0.0
H1152 H 0.69176 0.12223 0.92589 0.0
O1153 O 0.6488 0.0875 0.75288 0.0
C1154 C 0.62922 0.13525 0.74197 0.0
C1155 C 0.66241 0.11168 0.8752 0.0
C1156 C 0.71536 0.13675 0.86973 0.0
N1157 N 0.6855 0.12657 0.81021 0.0
C1158 C 0.6606 0.11347 0.83333 0.0
C1159 C 0.71267 0.1381 0.82793 0.0
C1160 C 0.69002 0.12346 0.89346 0.0
C1161 C 0.67763 0.16746 0.62532 0.0
N1162 N 0.64986 0.14843 0.63916 0.0
C1163 C 0.68434 0.19444 0.60791 0.0
C1164 C 0.66251 0.20215 0.60512 0.0
C1165 C 0.63441 0.18298 0.62002 0.0
C1166 C 0.62852 0.15621 0.63723 0.0
C1167 C 0.57318 0.08107 0.57749 0.0
C1168 C 0.57808 0.07298 0.6591 0.0
C1169 C 0.60064 0.09457 0.59663 0.0
N1170 N 0.60279 0.09081 0.63711 0.0
C1171 C 0.55028 0.05891 0.64086 0.0
C1172 C 0.54786 0.06312 0.5998 0.0
C1173 C 0.63277 0.06737 0.72792 0.0
C1174 C 0.75234 0.11936 0.71025 0.0
C1175 C 0.70535 0.08965 0.76266 0.0
C1176 C 0.72469 0.07899 0.75612 0.0
C1177 C 0.74832 0.09398 0.72971 0.0
N1178 N 0.70948 0.1146 0.74351 0.0
C1179 C 0.73257 0.12939 0.71755 0.0
Co1180 Co 0.5326 0.63436 0.65175 0.0
Co1181 Co 0.54766 0.67132 0.74267 0.0
O1182 O 0.54697 0.67141 0.68275 0.0
C1183 C 0.58022 0.68063 0.59517 0.0
O1184 O 0.58666 0.70325 0.6187 0.0
C1185 C 0.5291 0.71645 0.72199 0.0
O1186 O 0.52685 0.71011 0.68341 0.0
O1187 O 0.50497 0.64104 0.74435 0.0
O1188 O 0.50251 0.61146 0.69401 0.0
H1189 H 0.525 0.62228 0.87879 0.0
H1190 H 0.53388 0.68717 0.61398 0.0
O1191 O 0.56147 0.65443 0.60616 0.0
H1192 H 0.43133 0.60639 0.59953 0.0
H1193 H 0.49511 0.56951 0.52875 0.0
H1194 H 0.51733 0.57339 0.67397 0.0
H1195 H 0.46836 0.59776 0.6327 0.0
H1196 H 0.51747 0.61671 0.56533 0.0
O1197 O 0.53689 0.70317 0.74703 0.0
H1198 H 0.52515 0.62391 0.80443 0.0
H1199 H 0.57097 0.71764 0.80701 0.0
H1200 H 0.49661 0.52597 0.63785 0.0
H1201 H 0.49789 0.69662 0.57966 0.0
H1202 H 0.48505 0.52375 0.5647 0.0
H1203 H 0.44603 0.65609 0.57222 0.0
O1204 O 0.56205 0.62651 0.67981 0.0
H1205 H 0.63657 0.76471 0.69461 0.0
H1206 H 0.60149 0.67798 0.7836 0.0
H1207 H 0.65456 0.7146 0.78114 0.0
H1208 H 0.67243 0.75844 0.73655 0.0
H1209 H 0.58377 0.7274 0.69763 0.0
H1210 H 0.5711 0.71699 0.88142 0.0
H1211 H 0.5481 0.66906 0.91782 0.0
O1212 O 0.55841 0.6397 0.74287 0.0
C1213 C 0.49174 0.61665 0.72526 0.0
C1214 C 0.53516 0.64331 0.86328 0.0
C1215 C 0.561 0.69646 0.86475 0.0
N1216 N 0.54821 0.67083 0.80131 0.0
C1217 C 0.53538 0.64438 0.82116 0.0
C1218 C 0.56079 0.69668 0.82259 0.0
C1219 C 0.5481 0.66956 0.88516 0.0
C1220 C 0.51171 0.66922 0.61039 0.0
N1221 N 0.50364 0.64179 0.62502 0.0
C1222 C 0.49123 0.6748 0.59114 0.0
C1223 C 0.46213 0.65209 0.58708 0.0
C1224 C 0.45387 0.62425 0.60244 0.0
C1225 C 0.47497 0.61953 0.6215 0.0
C1226 C 0.50061 0.57025 0.56036 0.0
C1227 C 0.51296 0.57272 0.64198 0.0
C1228 C 0.51311 0.59692 0.58135 0.0
N1229 N 0.51846 0.59779 0.6219 0.0
C1230 C 0.50113 0.54578 0.6217 0.0
C1231 C 0.49472 0.54455 0.58067 0.0
C1232 C 0.56655 0.62676 0.71782 0.0
C1233 C 0.62904 0.7458 0.71435 0.0
C1234 C 0.60904 0.69696 0.76404 0.0
C1235 C 0.63915 0.71765 0.76284 0.0
C1236 C 0.64915 0.74224 0.73783 0.0
N1237 N 0.58938 0.70071 0.74117 0.0
C1238 C 0.59909 0.72465 0.71635 0.0
Co1239 Co 0.91087 0.52987 0.67251 0.0
Co1240 Co 0.88529 0.55492 0.74873 0.0
O1241 O 0.8865 0.54629 0.69127 0.0
C1242 C 0.91984 0.57374 0.60429 0.0
O1243 O 0.92251 0.59505 0.62792 0.0
C1244 C 0.82029 0.5242 0.76129 0.0
O1245 O 0.82326 0.5064 0.78633 0.0
O1246 O 0.87303 0.51328 0.76254 0.0
O1247 O 0.90486 0.50774 0.72382 0.0
H1248 H 0.90465 0.55091 0.89655 0.0
H1249 H 0.85984 0.52242 0.62422 0.0
O1250 O 0.91681 0.54985 0.61892 0.0
H1251 H 0.84196 0.42159 0.64654 0.0
H1252 H 0.9479 0.48399 0.57133 0.0
H1253 H 0.95665 0.52022 0.71082 0.0
H1254 H 0.88641 0.46456 0.67418 0.0
H1255 H 0.91797 0.50549 0.59415 0.0
O1256 O 0.84265 0.5442 0.7423 0.0
H1257 H 0.90671 0.54133 0.82411 0.0
H1258 H 0.85991 0.58583 0.79531 0.0
H1259 H 0.98576 0.49744 0.68987 0.0
H1260 H 0.81517 0.48005 0.59572 0.0
H1261 H 0.98177 0.47938 0.61952 0.0
H1262 H 0.80601 0.42919 0.60681 0.0
O1263 O 0.94649 0.56436 0.69619 0.0
H1264 H 0.88172 0.63435 0.66793 0.0
H1265 H 0.93145 0.61387 0.77942 0.0
H1266 H 0.94795 0.66543 0.76066 0.0
H1267 H 0.92295 0.67594 0.70463 0.0
H1268 H 0.86614 0.58309 0.68741 0.0
H1269 H 0.85716 0.59572 0.86746 0.0
H1270 H 0.87971 0.57827 0.91865 0.0
O1271 O 0.92794 0.5663 0.75644 0.0
C1272 C 0.88594 0.49927 0.75197 0.0
C1273 C 0.89477 0.55865 0.87454 0.0
C1274 C 0.8681 0.58379 0.85822 0.0
N1275 N 0.88351 0.56306 0.8055 0.0
C1276 C 0.89589 0.55332 0.83347 0.0
C1277 C 0.86968 0.57807 0.81742 0.0
C1278 C 0.88076 0.57399 0.88692 0.0
C1279 C 0.85605 0.50036 0.62908 0.0
N1280 N 0.87582 0.49602 0.65065 0.0
C1281 C 0.8307 0.47646 0.61291 0.0
C1282 C 0.82556 0.44793 0.61915 0.0
C1283 C 0.84572 0.44364 0.64142 0.0
C1284 C 0.87084 0.46808 0.65707 0.0
C1285 C 0.94994 0.49189 0.60201 0.0
C1286 C 0.95454 0.51223 0.68025 0.0
C1287 C 0.93323 0.50436 0.61503 0.0
N1288 N 0.93545 0.51413 0.65385 0.0
C1289 C 0.97126 0.49951 0.66847 0.0
C1290 C 0.96894 0.48931 0.62905 0.0
C1291 C 0.94978 0.57223 0.73332 0.0
C1292 C 0.89273 0.63006 0.69248 0.0
C1293 C 0.92054 0.61824 0.75488 0.0
C1294 C 0.92993 0.6475 0.74447 0.0
C1295 C 0.91589 0.65338 0.71305 0.0
N1296 N 0.89773 0.59549 0.73466 0.0
C1297 C 0.88393 0.60108 0.70373 0.0
Co1298 Co 0.38154 0.91053 0.65267 0.0
Co1299 Co 0.34492 0.88167 0.7416 0.0
O1300 O 0.34454 0.8833 0.68158 0.0
C1301 C 0.33329 0.90584 0.59473 0.0
O1302 O 0.31146 0.88696 0.61755 0.0
C1303 C 0.29801 0.81873 0.71781 0.0
O1304 O 0.30162 0.82424 0.67894 0.0
O1305 O 0.37558 0.86995 0.73855 0.0
O1306 O 0.40564 0.90418 0.6945 0.0
H1307 H 0.39538 0.90183 0.87657 0.0
H1308 H 0.3331 0.8552 0.61484 0.0
O1309 O 0.3599 0.91788 0.60739 0.0
H1310 H 0.42433 0.85261 0.58955 0.0
H1311 H 0.44749 0.96269 0.53339 0.0
H1312 H 0.4398 0.95744 0.68158 0.0
H1313 H 0.42582 0.89372 0.62726 0.0
H1314 H 0.40215 0.92414 0.56628 0.0
O1315 O 0.31354 0.8387 0.74335 0.0
H1316 H 0.39294 0.90407 0.80246 0.0
H1317 H 0.29927 0.85492 0.80662 0.0
H1318 H 0.48601 0.99466 0.64979 0.0
H1319 H 0.33064 0.81401 0.57651 0.0
H1320 H 0.49001 0.99755 0.57505 0.0
H1321 H 0.3765 0.81242 0.56344 0.0
O1322 O 0.38398 0.94431 0.68386 0.0
H1323 H 0.25139 0.87922 0.69869 0.0
H1324 H 0.337 0.92512 0.79043 0.0
H1325 H 0.29992 0.94089 0.79297 0.0
H1326 H 0.25661 0.91777 0.74703 0.0
H1327 H 0.28915 0.86441 0.69683 0.0
H1328 H 0.30075 0.85196 0.88078 0.0
H1329 H 0.34905 0.87564 0.91628 0.0
O1330 O 0.37615 0.92444 0.74533 0.0
C1331 C 0.40036 0.88422 0.72064 0.0
C1332 C 0.37419 0.89151 0.86147 0.0
C1333 C 0.32109 0.86349 0.86382 0.0
N1334 N 0.346 0.87986 0.80015 0.0
C1335 C 0.37266 0.89276 0.81948 0.0
C1336 C 0.3204 0.86519 0.82179 0.0
C1337 C 0.3482 0.87679 0.88372 0.0
C1338 C 0.35324 0.85522 0.60886 0.0
N1339 N 0.37966 0.8776 0.62252 0.0
C1340 C 0.35168 0.83156 0.58731 0.0
C1341 C 0.37739 0.83063 0.58007 0.0
C1342 C 0.4042 0.85316 0.59469 0.0
C1343 C 0.40489 0.87647 0.61608 0.0
C1344 C 0.44605 0.96119 0.5659 0.0
C1345 C 0.44146 0.95801 0.64906 0.0
C1346 C 0.42031 0.93973 0.58476 0.0
N1347 N 0.41817 0.93845 0.62594 0.0
C1348 C 0.46769 0.97935 0.63122 0.0
C1349 C 0.46991 0.98096 0.58933 0.0
C1350 C 0.38557 0.94681 0.72222 0.0
C1351 C 0.27005 0.8893 0.71909 0.0
C1352 C 0.31826 0.91491 0.7703 0.0
C1353 C 0.2973 0.92394 0.77192 0.0
C1354 C 0.27301 0.91097 0.74615 0.0
N1355 N 0.31507 0.89339 0.74397 0.0
C1356 C 0.29145 0.88083 0.71834 0.0
Co1357 Co 0.46978 0.37246 0.66002 0.0
Co1358 Co 0.46152 0.33741 0.75032 0.0
O1359 O 0.45988 0.33583 0.69018 0.0
C1360 C 0.42683 0.32421 0.6012 0.0
O1361 O 0.42398 0.30199 0.62308 0.0
C1362 C 0.48273 0.29365 0.73161 0.0
O1363 O 0.48922 0.30218 0.69392 0.0
O1364 O 0.50413 0.36776 0.74728 0.0
O1365 O 0.49981 0.39698 0.70186 0.0
H1366 H 0.49173 0.39017 0.88363 0.0
H1367 H 0.47711 0.32365 0.62481 0.0
O1368 O 0.44113 0.35056 0.61471 0.0
H1369 H 0.57095 0.4148 0.59839 0.0
H1370 H 0.484 0.43676 0.53858 0.0
H1371 H 0.48073 0.43097 0.68696 0.0
H1372 H 0.53106 0.41659 0.63485 0.0
H1373 H 0.47763 0.39215 0.57313 0.0
O1374 O 0.472 0.30538 0.75454 0.0
H1375 H 0.48783 0.38647 0.8095 0.0
H1376 H 0.44052 0.29286 0.81715 0.0
H1377 H 0.48937 0.47655 0.65359 0.0
H1378 H 0.51612 0.32089 0.58765 0.0
H1379 H 0.49091 0.47964 0.57871 0.0
H1380 H 0.56358 0.36671 0.57404 0.0
O1381 O 0.43809 0.37509 0.68989 0.0
H1382 H 0.37155 0.24263 0.7098 0.0
H1383 H 0.40921 0.33124 0.79545 0.0
H1384 H 0.35623 0.29413 0.79691 0.0
H1385 H 0.33708 0.24936 0.75398 0.0
H1386 H 0.42436 0.28048 0.709 0.0
H1387 H 0.44412 0.29559 0.89137 0.0
H1388 H 0.46977 0.3445 0.92513 0.0
O1389 O 0.45072 0.36918 0.75189 0.0
C1390 C 0.51456 0.39227 0.72853 0.0
C1391 C 0.48043 0.36872 0.86929 0.0
C1392 C 0.45373 0.31564 0.87362 0.0
N1393 N 0.46381 0.33949 0.8089 0.0
C1394 C 0.4781 0.36648 0.82728 0.0
C1395 C 0.45182 0.31425 0.83155 0.0
C1396 C 0.46812 0.34309 0.89254 0.0
C1397 C 0.4972 0.34378 0.6184 0.0
N1398 N 0.50109 0.37034 0.63101 0.0
C1399 C 0.51948 0.34204 0.5976 0.0
C1400 C 0.54612 0.36773 0.59009 0.0
C1401 C 0.55026 0.39469 0.60371 0.0
C1402 C 0.52748 0.39554 0.62438 0.0
C1403 C 0.48395 0.4358 0.57114 0.0
C1404 C 0.48202 0.43223 0.65442 0.0
C1405 C 0.47987 0.41044 0.59093 0.0
N1406 N 0.47867 0.40876 0.63215 0.0
C1407 C 0.48675 0.45813 0.63566 0.0
C1408 C 0.48759 0.45983 0.5937 0.0
C1409 C 0.4375 0.37782 0.72804 0.0
C1410 C 0.37964 0.26199 0.72874 0.0
C1411 C 0.40106 0.31189 0.77655 0.0
C1412 C 0.37103 0.29091 0.77758 0.0
C1413 C 0.36031 0.2658 0.7535 0.0
N1414 N 0.41991 0.30792 0.75233 0.0
C1415 C 0.40953 0.28344 0.72851 0.0
C1416 C 0.42043 0.00574 0.22123 0.0
C1417 C 0.42554 0.03003 0.24498 0.0
H1418 H 0.40452 0.95938 0.2188 0.0
C1419 C 0.4186 0.02528 0.28654 0.0
H1420 H 0.42568 0.00844 0.18934 0.0
C1421 C 0.40672 0.99709 0.30373 0.0
C1422 C 0.4012 0.97275 0.27981 0.0
H1423 H 0.42229 0.04339 0.30606 0.0
H1424 H 0.40135 0.9943 0.33557 0.0
C1425 C 0.40837 0.97754 0.23835 0.0
C1426 C 0.41272 0.40562 0.31267 0.0
C1427 C 0.42978 0.3978 0.2886 0.0
H1428 H 0.38422 0.42403 0.31455 0.0
C1429 C 0.43164 0.40386 0.24684 0.0
H1430 H 0.4107 0.40124 0.34481 0.0
C1431 C 0.41653 0.41679 0.22945 0.0
C1432 C 0.39893 0.42406 0.25319 0.0
H1433 H 0.44469 0.3984 0.22715 0.0
H1434 H 0.41857 0.42092 0.19724 0.0
C1435 C 0.39739 0.41853 0.29514 0.0
C1436 C 0.98 0.40444 0.2785 0.0
C1437 C 0.97577 0.39775 0.23691 0.0
H1438 H 0.01034 0.42283 0.32777 0.0
C1439 C 1.00068 0.40549 0.2129 0.0
H1440 H 0.96144 0.39899 0.29812 0.0
C1441 C 0.02898 0.41909 0.23025 0.0
C1442 C 0.03307 0.42544 0.27198 0.0
H1443 H 0.99831 0.40062 0.18091 0.0
H1444 H 0.04765 0.42459 0.21083 0.0
C1445 C 0.00816 0.41811 0.29572 0.0
C1446 C 0.58758 0.97846 0.28675 0.0
C1447 C 0.58387 0.97532 0.24444 0.0
H1448 H 0.60393 0.00772 0.33753 0.0
C1449 C 0.59435 1.00096 0.22094 0.0
H1450 H 0.57978 0.95932 0.30612 0.0
C1451 C 0.60847 0.0289 0.23921 0.0
C1452 C 0.61234 0.03199 0.28152 0.0
H1453 H 0.59191 0.9995 0.18841 0.0
H1454 H 0.61639 0.04813 0.21997 0.0
C1455 C 0.60151 0.00633 0.305 0.0
C1456 C 0.60337 0.60337 0.30107 0.0
C1457 C 0.58779 0.61309 0.27702 0.0
H1458 H 0.62822 0.58118 0.30355 0.0
C1459 C 0.58539 0.60702 0.23526 0.0
H1460 H 0.60562 0.60749 0.33327 0.0
C1461 C 0.59817 0.59159 0.21808 0.0
C1462 C 0.61392 0.58204 0.24212 0.0
H1463 H 0.57346 0.61403 0.21569 0.0
H1464 H 0.59579 0.58731 0.18593 0.0
C1465 C 0.61634 0.58819 0.28387 0.0
C1466 C 1.00587 0.60352 0.2207 0.0
C1467 C 0.03176 0.61301 0.24339 0.0
H1468 H 0.95872 0.5809 0.22038 0.0
C1469 C 0.02903 0.60617 0.28495 0.0
H1470 H 0.007 0.60822 0.18869 0.0
C1471 C 1.00123 0.5902 0.30324 0.0
C1472 C 0.97533 0.58081 0.28057 0.0
H1473 H 0.04843 0.61297 0.30353 0.0
H1474 H 1.00009 0.58533 0.33518 0.0
C1475 C 0.97809 0.58776 0.23903 0.0
C1476 C 0.5979 1.00372 0.80295 0.0
C1477 C 0.58691 0.97898 0.77769 0.0
H1478 H 0.6209 0.0507 0.80716 0.0
C1479 C 0.5899 0.98355 0.73548 0.0
H1480 H 0.59594 1.00113 0.83543 0.0
C1481 C 0.60399 0.01206 0.71905 0.0
C1482 C 0.61583 0.03681 0.74438 0.0
H1483 H 0.58151 0.96505 0.71489 0.0
H1484 H 0.6062 0.01468 0.68658 0.0
C1485 C 0.61231 0.03222 0.78654 0.0
C1486 C 0.59649 0.59418 0.79455 0.0
C1487 C 0.61151 0.58403 0.77028 0.0
H1488 H 0.57081 0.61536 0.79729 0.0
C1489 C 0.61113 0.58747 0.72802 0.0
H1490 H 0.59612 0.59187 0.82707 0.0
C1491 C 0.59624 0.60086 0.71061 0.0
C1492 C 0.5816 0.61138 0.73506 0.0
H1493 H 0.62233 0.5798 0.70823 0.0
H1494 H 0.59652 0.60327 0.67812 0.0
C1495 C 0.5819 0.60772 0.77726 0.0
C1496 C 0.98411 0.59357 0.79321 0.0
C1497 C 0.97991 0.5871 0.75151 0.0
H1498 H 0.01489 0.61182 0.84249 0.0
C1499 C 1.00473 0.5941 0.72775 0.0
H1500 H 0.9655 0.58832 0.81264 0.0
C1501 C 0.0329 0.60749 0.74493 0.0
C1502 C 0.03725 0.61424 0.7865 0.0
H1503 H 1.00247 0.58928 0.69573 0.0
H1504 H 0.05138 0.61265 0.72529 0.0
C1505 C 0.01242 0.60688 0.81051 0.0
C1506 C 0.41662 0.00745 0.80212 0.0
C1507 C 0.42987 0.03321 0.77854 0.0
H1508 H 0.39238 0.96026 0.80309 0.0
C1509 C 0.42827 0.03023 0.73611 0.0
H1510 H 0.41745 0.00879 0.83477 0.0
C1511 C 0.41377 1.00238 0.71781 0.0
C1512 C 0.4005 0.97662 0.74135 0.0
H1513 H 0.43831 0.04947 0.71673 0.0
H1514 H 0.41316 1.00109 0.68516 0.0
C1515 C 0.40217 0.97956 0.7838 0.0
C1516 C 0.4123 0.41477 0.80475 0.0
C1517 C 0.39557 0.42321 0.78087 0.0
H1518 H 0.4383 0.39375 0.80706 0.0
C1519 C 0.39277 0.41655 0.73925 0.0
H1520 H 0.41502 0.41951 0.83678 0.0
C1521 C 0.40633 0.40194 0.72201 0.0
C1522 C 0.42289 0.39333 0.74593 0.0
H1523 H 0.38015 0.42273 0.71969 0.0
H1524 H 0.40375 0.39733 0.68993 0.0
C1525 C 0.42565 0.39993 0.78756 0.0
C1526 C 0.01151 0.42192 0.72038 0.0
C1527 C 0.03745 0.43096 0.74278 0.0
H1528 H 0.96434 0.39977 0.72061 0.0
C1529 C 0.03485 0.42408 0.78433 0.0
H1530 H 0.01255 0.42678 0.68843 0.0
C1531 C 0.00718 0.40868 0.80293 0.0
C1532 C 0.98124 0.39954 0.78053 0.0
H1533 H 0.05426 0.43068 0.80278 0.0
H1534 H 1.00617 0.40399 0.83493 0.0
C1535 C 0.98379 0.40633 0.73896 0.0
C1536 C 0.4811 0.23705 0.21748 0.0
C1537 C 0.48338 0.21731 0.24387 0.0
H1538 H 0.47921 0.27686 0.21158 0.0
C1539 C 0.48792 0.22422 0.28532 0.0
H1540 H 0.47743 0.23223 0.18552 0.0
C1541 C 0.48969 0.25014 0.30016 0.0
C1542 C 0.48602 0.26915 0.27401 0.0
H1543 H 0.48978 0.20937 0.30638 0.0
H1544 H 0.49272 0.25468 0.33224 0.0
C1545 C 0.48197 0.26248 0.23249 0.0
C1546 C 0.24769 0.51418 0.26089 0.0
C1547 C 0.22068 0.48761 0.26376 0.0
H1548 H 0.29492 0.53478 0.2585 0.0
C1549 C 0.22076 0.46082 0.26511 0.0
H1550 H 0.24818 0.53511 0.25961 0.0
C1551 C 0.24732 0.46058 0.26282 0.0
C1552 C 0.27437 0.48717 0.26052 0.0
H1553 H 0.20023 0.44 0.2669 0.0
H1554 H 0.24672 0.4396 0.26361 0.0
C1555 C 0.27435 0.51399 0.26008 0.0
C1556 C 0.74093 0.22711 0.24787 0.0
C1557 C 0.74117 0.21801 0.28791 0.0
H1558 H 0.7647 0.25858 0.20092 0.0
C1559 C 0.76628 0.23495 0.31174 0.0
H1560 H 0.72189 0.2145 0.22868 0.0
C1561 C 0.79096 0.2597 0.29549 0.0
C1562 C 0.79094 0.26853 0.25529 0.0
H1563 H 0.76729 0.22851 0.34253 0.0
H1564 H 0.81015 0.27193 0.31452 0.0
C1565 C 0.76541 0.25233 0.23191 0.0
C1566 C 0.51682 0.76415 0.2275 0.0
C1567 C 0.52587 0.78937 0.25138 0.0
H1568 H 0.51188 0.72095 0.22333 0.0
C1569 C 0.53473 0.78909 0.29147 0.0
H1570 H 0.50987 0.76374 0.19657 0.0
C1571 C 0.53518 0.76447 0.30715 0.0
C1572 C 0.52743 0.73972 0.28282 0.0
H1573 H 0.54139 0.80804 0.31082 0.0
H1574 H 0.54265 0.76529 0.33788 0.0
C1575 C 0.51801 0.73973 0.24288 0.0
C1576 C 0.76109 0.54129 0.26404 0.0
C1577 C 0.73412 0.51471 0.2606 0.0
H1578 H 0.80783 0.5619 0.2729 0.0
C1579 C 0.73405 0.48788 0.26309 0.0
H1580 H 0.7618 0.56231 0.26264 0.0
C1581 C 0.76057 0.48767 0.26775 0.0
C1582 C 0.78748 0.51426 0.27172 0.0
H1583 H 0.71354 0.46708 0.2608 0.0
H1584 H 0.76004 0.46671 0.26844 0.0
C1585 C 0.78742 0.54106 0.27031 0.0
C1586 C 0.2277 0.74 0.27428 0.0
C1587 C 0.21898 0.73963 0.23385 0.0
H1588 H 0.25972 0.76369 0.32071 0.0
C1589 C 0.23728 0.7635 0.20878 0.0
H1590 H 0.21412 0.72192 0.29445 0.0
C1591 C 0.26304 0.7876 0.2241 0.0
C1592 C 0.27151 0.78825 0.26467 0.0
H1593 H 0.23125 0.76403 0.17763 0.0
H1594 H 0.27632 0.80587 0.20407 0.0
C1595 C 0.25385 0.76388 0.28938 0.0
C1596 C 0.51848 0.7429 0.77693 0.0
C1597 C 0.52653 0.74183 0.73664 0.0
H1598 H 0.51278 0.76853 0.82311 0.0
C1599 C 0.53438 0.76625 0.71153 0.0
H1600 H 0.51236 0.72436 0.79701 0.0
C1601 C 0.53543 0.79166 0.72681 0.0
C1602 C 0.52787 0.79295 0.76721 0.0
H1603 H 0.54089 0.76621 0.68053 0.0
H1604 H 0.54234 0.81045 0.70696 0.0
C1605 C 0.51868 0.76808 0.7919 0.0
C1606 C 0.73805 0.49606 0.76287 0.0
C1607 C 0.73731 0.52251 0.76243 0.0
H1608 H 0.7651 0.47592 0.76358 0.0
C1609 C 0.76402 0.54946 0.76025 0.0
H1610 H 0.71775 0.475 0.76436 0.0
C1611 C 0.79096 0.54993 0.75815 0.0
C1612 C 0.79174 0.52351 0.75957 0.0
H1613 H 0.76408 0.57018 0.75946 0.0
H1614 H 0.81122 0.57101 0.75652 0.0
C1615 C 0.76506 0.49658 0.76225 0.0
C1616 C 0.27343 0.78116 0.77303 0.0
C1617 C 0.273 0.79064 0.73328 0.0
H1618 H 0.24956 0.7498 0.82006 0.0
C1619 C 0.24741 0.77445 0.71 0.0
H1620 H 0.29283 0.7932 0.79182 0.0
C1621 C 0.22249 0.75013 0.72656 0.0
C1622 C 0.2227 0.74097 0.76651 0.0
H1623 H 0.24623 0.78122 0.67947 0.0
H1624 H 0.20295 0.7385 0.70797 0.0
C1625 C 0.24868 0.75635 0.78929 0.0
C1626 C 0.48809 0.24869 0.72263 0.0
C1627 C 0.48594 0.2689 0.74818 0.0
H1628 H 0.48931 0.20851 0.71798 0.0
C1629 C 0.48531 0.26441 0.79026 0.0
H1630 H 0.48862 0.2514 0.69017 0.0
C1631 C 0.48594 0.23993 0.80634 0.0
C1632 C 0.48687 0.21906 0.78075 0.0
H1633 H 0.48393 0.27968 0.81095 0.0
H1634 H 0.48477 0.2369 0.83877 0.0
C1635 C 0.48837 0.224 0.73869 0.0
C1636 C 0.25169 0.52062 0.75568 0.0
C1637 C 0.22443 0.49449 0.75126 0.0
H1638 H 0.29859 0.54002 0.76285 0.0
C1639 C 0.22368 0.46728 0.75209 0.0
H1640 H 0.25284 0.54187 0.75541 0.0
C1641 C 0.24955 0.46618 0.75825 0.0
C1642 C 0.27688 0.49231 0.76212 0.0
H1643 H 0.20297 0.44676 0.74911 0.0
H1644 H 0.24823 0.44487 0.75919 0.0
C1645 C 0.27777 0.51956 0.76021 0.0
C1646 C 0.77945 0.24685 0.81603 0.0
C1647 C 0.79523 0.27231 0.79243 0.0
H1648 H 0.74333 0.20252 0.819 0.0
C1649 C 0.78476 0.27283 0.75332 0.0
H1650 H 0.78696 0.24563 0.84608 0.0
C1651 C 0.75939 0.24819 0.73795 0.0
C1652 C 0.74451 0.22228 0.76095 0.0
H1653 H 0.79648 0.29217 0.73436 0.0
H1654 H 0.75208 0.24901 0.70761 0.0
C1655 C 0.75461 0.22204 0.8003 0.0
C1656 C 0.41967 0.11617 0.03477 0.0
C1657 C 0.42606 0.09667 0.05602 0.0
H1658 H 0.41687 0.13336 0.97693 0.0
C1659 C 0.43041 0.07634 0.03369 0.0
H1660 H 0.41634 0.13223 0.05093 0.0
C1661 C 0.43039 0.07677 0.99142 0.0
C1662 C 0.42644 0.09782 0.97001 0.0
H1663 H 0.43516 0.06084 0.04889 0.0
H1664 H 0.43497 0.06144 0.97555 0.0
C1665 C 0.41996 0.1168 0.99223 0.0
C1666 C 0.3782 0.41167 0.99332 0.0
C1667 C 0.36289 0.42325 0.97221 0.0
H1668 H 0.39211 0.40407 0.05074 0.0
C1669 C 0.34598 0.43232 0.99458 0.0
H1670 H 0.39137 0.40435 0.97723 0.0
C1671 C 0.34641 0.43216 0.0369 0.0
C1672 C 0.36376 0.42292 0.05801 0.0
H1673 H 0.33382 0.4413 0.97951 0.0
H1674 H 0.33454 0.44099 0.05297 0.0
C1675 C 0.37863 0.41151 0.03565 0.0
C1676 C 0.93629 0.34488 0.99322 0.0
C1677 C 0.91415 0.32243 0.96945 0.0
H1678 H 0.95077 0.36252 0.05245 0.0
C1679 C 0.89165 0.29738 0.98916 0.0
H1680 H 0.95417 0.36433 0.97925 0.0
C1681 C 0.88992 0.29618 0.0316 0.0
C1682 C 0.91054 0.32008 0.05504 0.0
H1683 H 0.87416 0.27971 0.97189 0.0
H1684 H 0.87114 0.27768 0.04581 0.0
C1685 C 0.9344 0.34382 0.03533 0.0
C1686 C 0.5959 0.89641 0.0305 0.0
C1687 C 0.58657 0.91336 0.05232 0.0
H1688 H 0.60161 0.88197 0.97217 0.0
C1689 C 0.57939 0.93203 0.0305 0.0
H1690 H 0.60154 0.88172 0.04615 0.0
C1691 C 0.5793 0.93207 0.98824 0.0
C1692 C 0.58655 0.91357 0.96631 0.0
H1693 H 0.57246 0.94573 0.04607 0.0
H1694 H 0.57225 0.94573 0.97275 0.0
C1695 C 0.59593 0.89655 0.98797 0.0
C1696 C 0.63169 0.5948 0.03031 0.0
C1697 C 0.64693 0.58304 0.05116 0.0
H1698 H 0.61794 0.60289 0.97307 0.0
C1699 C 0.66393 0.57419 0.0286 0.0
H1700 H 0.61846 0.60198 0.04657 0.0
C1701 C 0.66364 0.57472 0.98629 0.0
C1702 C 0.64633 0.58411 0.9654 0.0
H1703 H 0.67604 0.56508 0.04347 0.0
H1704 H 0.67557 0.56603 0.97004 0.0
C1705 C 0.63139 0.59533 0.98799 0.0
C1706 C 0.07979 0.66782 0.98834 0.0
C1707 C 0.10356 0.69153 0.96846 0.0
H1708 H 0.06006 0.64755 0.04456 0.0
C1709 C 0.12415 0.71557 0.99175 0.0
H1710 H 0.06344 0.64901 0.97137 0.0
C1711 C 0.12242 0.71457 0.03421 0.0
C1712 C 0.09998 0.68959 0.05411 0.0
H1713 H 0.14285 0.73407 0.97743 0.0
H1714 H 0.13986 0.73238 0.05136 0.0
C1715 C 0.07791 0.66696 0.03047 0.0
C1716 C 0.90421 0.54826 0.5382 0.0
C1717 C 0.91754 0.57502 0.55958 0.0
H1718 H 0.89273 0.52656 0.48154 0.0
C1719 C 0.92857 0.60156 0.53755 0.0
H1720 H 0.89449 0.52726 0.55376 0.0
C1721 C 0.92747 0.60107 0.49485 0.0
C1722 C 0.91545 0.57405 0.47396 0.0
H1723 H 0.9387 0.62255 0.55313 0.0
H1724 H 0.93679 0.62165 0.47831 0.0
C1725 C 0.90321 0.54781 0.49637 0.0
C1726 C 0.35181 0.92995 0.52721 0.0
C1727 C 0.32862 0.90836 0.55066 0.0
H1728 H 0.36985 0.94461 0.46822 0.0
C1729 C 0.30316 0.88684 0.53049 0.0
H1730 H 0.37162 0.94712 0.54148 0.0
C1731 C 0.30202 0.88557 0.48798 0.0
C1732 C 0.32637 0.90571 0.46477 0.0
H1733 H 0.28488 0.8698 0.54743 0.0
H1734 H 0.28295 0.86757 0.47348 0.0
C1735 C 0.35076 0.92857 0.48501 0.0
C1736 C 0.41677 0.29599 0.53543 0.0
C1737 C 0.41994 0.3206 0.55703 0.0
H1738 H 0.41704 0.27785 0.47727 0.0
C1739 C 0.42134 0.34428 0.53494 0.0
H1740 H 0.41572 0.27739 0.55131 0.0
C1741 C 0.42246 0.34468 0.49274 0.0
C1742 C 0.42168 0.3212 0.47117 0.0
H1743 H 0.42333 0.36343 0.55033 0.0
H1744 H 0.42545 0.36417 0.47704 0.0
C1745 C 0.41752 0.29625 0.4929 0.0
C1746 C 0.08426 0.40978 0.52842 0.0
C1747 C 0.09679 0.43679 0.54939 0.0
H1748 H 0.07269 0.38841 0.47005 0.0
C1749 C 0.10963 0.46309 0.52706 0.0
H1750 H 0.07445 0.38914 0.5449 0.0
C1751 C 0.10874 0.46273 0.48525 0.0
C1752 C 0.09487 0.43601 0.46379 0.0
H1753 H 0.12043 0.48432 0.54193 0.0
H1754 H 0.11889 0.48378 0.46976 0.0
C1755 C 0.08325 0.40938 0.48571 0.0
C1756 C 0.70965 0.11976 0.49321 0.0
C1757 C 0.68384 0.0994 0.47256 0.0
H1758 H 0.72985 0.13805 0.55058 0.0
C1759 C 0.65962 0.07884 0.49561 0.0
H1760 H 0.72872 0.13598 0.47659 0.0
C1761 C 0.66014 0.08028 0.53781 0.0
C1762 C 0.68508 0.10199 0.55844 0.0
H1763 H 0.6395 0.0625 0.481 0.0
H1764 H 0.64039 0.06514 0.55425 0.0
C1765 C 0.7103 0.12096 0.53571 0.0
C1766 C 0.59436 0.71001 0.4876 0.0
C1767 C 0.59179 0.68555 0.46625 0.0
H1768 H 0.59316 0.72794 0.54553 0.0
C1769 C 0.59074 0.66212 0.48854 0.0
H1770 H 0.59511 0.7284 0.47153 0.0
C1771 C 0.58928 0.66172 0.53069 0.0
C1772 C 0.58932 0.68496 0.55198 0.0
H1773 H 0.58917 0.64309 0.47331 0.0
H1774 H 0.58648 0.64236 0.54656 0.0
C1775 C 0.59324 0.70975 0.53009 0.0
C1776 C 0.56645 0.14605 0.23902 0.0
C1777 C 0.53973 0.13149 0.26039 0.0
H1778 H 0.61137 0.15593 0.23515 0.0
C1779 C 0.53842 0.11703 0.29648 0.0
H1780 H 0.56787 0.15733 0.211 0.0
C1781 C 0.56298 0.11572 0.30992 0.0
C1782 C 0.58957 0.12929 0.28788 0.0
H1783 H 0.5179 0.10508 0.31294 0.0
H1784 H 0.56057 0.10295 0.33679 0.0
C1785 C 0.5913 0.14521 0.25283 0.0
C1786 C 0.45531 0.56206 0.30554 0.0
C1787 C 0.46726 0.5889 0.28414 0.0
H1788 H 0.42137 0.51675 0.30876 0.0
C1789 C 0.45168 0.59081 0.25075 0.0
H1790 H 0.46674 0.55951 0.33109 0.0
C1791 C 0.42554 0.56598 0.23798 0.0
C1792 C 0.41435 0.53911 0.25881 0.0
H1793 H 0.46023 0.61107 0.23356 0.0
H1794 H 0.41464 0.56747 0.21101 0.0
C1795 C 0.42907 0.53749 0.29308 0.0
C1796 C 0.88154 0.46075 0.23124 0.0
C1797 C 0.87259 0.46088 0.27092 0.0
H1798 H 0.89046 0.43732 0.18617 0.0
C1799 C 0.86164 0.43503 0.29423 0.0
H1800 H 0.89034 0.48046 0.21282 0.0
C1801 C 0.86137 0.40999 0.27898 0.0
C1802 C 0.87248 0.41055 0.24027 0.0
H1803 H 0.85416 0.43449 0.32476 0.0
H1804 H 0.85393 0.39084 0.29828 0.0
C1805 C 0.8817 0.43593 0.21614 0.0
C1806 C 0.46649 0.8777 0.2912 0.0
C1807 C 0.46796 0.86934 0.25161 0.0
H1808 H 0.44212 0.88677 0.33434 0.0
C1809 C 0.44295 0.85912 0.22662 0.0
H1810 H 0.48539 0.88593 0.31102 0.0
C1811 C 0.4175 0.85889 0.24024 0.0
C1812 C 0.41688 0.86949 0.27891 0.0
H1813 H 0.44338 0.85216 0.19608 0.0
H1814 H 0.39905 0.85196 0.21975 0.0
C1815 C 0.44145 0.87816 0.3045 0.0
C1816 C 0.57866 0.43793 0.224 0.0
C1817 C 0.5959 0.46266 0.24851 0.0
H1818 H 0.54087 0.39448 0.21989 0.0
C1819 C 0.58897 0.46131 0.28952 0.0
H1820 H 0.58372 0.43817 0.19238 0.0
C1821 C 0.56406 0.43663 0.30509 0.0
C1822 C 0.54598 0.41226 0.28031 0.0
H1823 H 0.6017 0.48 0.30911 0.0
H1824 H 0.55846 0.43726 0.33629 0.0
C1825 C 0.55415 0.4128 0.23984 0.0
C1826 C 0.15044 0.59247 0.2546 0.0
C1827 C 0.12844 0.58939 0.22737 0.0
H1828 H 0.16817 0.57024 0.28927 0.0
C1829 C 0.10972 0.56147 0.21018 0.0
H1830 H 0.16534 0.61364 0.26817 0.0
C1831 C 0.11154 0.53689 0.22208 0.0
C1832 C 0.13234 0.53977 0.25093 0.0
H1833 H 0.09256 0.55818 0.18898 0.0
H1834 H 0.09541 0.51531 0.21077 0.0
C1835 C 0.15233 0.56777 0.26631 0.0
C1836 C 0.47636 0.89207 0.72426 0.0
C1837 C 0.47445 0.87584 0.75884 0.0
H1838 H 0.45488 0.90811 0.68578 0.0
C1839 C 0.44738 0.8604 0.77923 0.0
H1840 H 0.49717 0.90493 0.7088 0.0
C1841 C 0.42281 0.86202 0.76602 0.0
C1842 C 0.42512 0.87963 0.73259 0.0
H1843 H 0.44555 0.84802 0.80633 0.0
H1844 H 0.40248 0.85055 0.78304 0.0
C1845 C 0.45204 0.8941 0.7114 0.0
C1846 C 0.58134 0.46918 0.73055 0.0
C1847 C 0.59635 0.46804 0.76479 0.0
H1848 H 0.54364 0.44652 0.6928 0.0
C1849 C 0.58559 0.44129 0.78586 0.0
H1850 H 0.58869 0.48978 0.71465 0.0
C1851 C 0.55956 0.41614 0.77341 0.0
C1852 C 0.54368 0.41758 0.74006 0.0
H1853 H 0.59673 0.44012 0.81275 0.0
H1854 H 0.55132 0.396 0.7908 0.0
C1855 C 0.55527 0.4443 0.71837 0.0
C1856 C 0.13028 0.57447 0.80695 0.0
C1857 C 0.14009 0.60006 0.78307 0.0
H1858 H 0.12133 0.52985 0.81013 0.0
C1859 C 0.15196 0.60087 0.74482 0.0
H1860 H 0.12093 0.57289 0.83656 0.0
C1861 C 0.15193 0.5759 0.72973 0.0
C1862 C 0.14043 0.54987 0.75273 0.0
H1863 H 0.15986 0.62018 0.72572 0.0
H1864 H 0.15999 0.57663 0.6995 0.0
C1865 C 0.13064 0.54971 0.792 0.0
C1866 C 0.59217 0.12387 0.79552 0.0
C1867 C 0.60621 0.13964 0.76059 0.0
H1868 H 0.55434 0.10687 0.83313 0.0
C1869 C 0.59356 0.15363 0.7388 0.0
H1870 H 0.60077 0.11203 0.8121 0.0
C1871 C 0.56674 0.15105 0.75108 0.0
C1872 C 0.55181 0.13382 0.78492 0.0
H1873 H 0.60385 0.16565 0.71139 0.0
H1874 H 0.55714 0.16142 0.73312 0.0
C1875 C 0.56521 0.12074 0.80732 0.0
C1876 C 0.42139 0.5425 0.73256 0.0
C1877 C 0.41375 0.54188 0.77315 0.0
H1878 H 0.45241 0.56601 0.68607 0.0
C1879 C 0.43032 0.5671 0.79709 0.0
H1880 H 0.40921 0.52335 0.71351 0.0
C1881 C 0.45481 0.59212 0.78109 0.0
C1882 C 0.4636 0.59209 0.74107 0.0
H1883 H 0.4247 0.56733 0.82839 0.0
H1884 H 0.46755 0.61091 0.80059 0.0
C1885 C 0.44628 0.56712 0.71686 0.0
C1886 C 0.86263 0.42037 0.77151 0.0
C1887 C 0.88485 0.42355 0.79839 0.0
H1888 H 0.8448 0.44249 0.73681 0.0
C1889 C 0.90389 0.45157 0.81504 0.0
H1890 H 0.84748 0.39911 0.75838 0.0
C1891 C 0.90218 0.47616 0.80281 0.0
C1892 C 0.88115 0.47315 0.77425 0.0
H1893 H 0.9212 0.45492 0.83598 0.0
H1894 H 0.91854 0.49782 0.81363 0.0
C1895 C 0.86082 0.44506 0.75954 0.0
loop_
_geom_bond_atom_site_label_1
_geom_bond_atom_site_label_2
_geom_bond_distance
_geom_bond_site_symmetry_2
_ccdc_geom_bond_type
Co0 O2 2.143 . S
Co0 O8 2.074 . S
Co0 O11 2.093 . S
Co0 O24 2.097 . S
Co0 N41 2.151 . S
Co0 N49 2.214 . S
Co1 O2 2.160 . S
Co1 O7 2.058 . S
Co1 O17 2.057 . S
Co1 O32 2.037 . S
Co1 N36 2.145 . S
Co1 N57 2.257 . S
O2 Co0 2.143 . S
O2 Co1 2.160 . S
C3 O4 1.278 . S
C3 O11 1.224 . S
O4 C3 1.278 . S
C5 O6 1.245 . S
C5 O17 1.232 . S
O6 C5 1.245 . S
O7 Co1 2.058 . S
O7 C33 1.269 . S
O8 Co0 2.074 . S
O8 C33 1.257 . S
H9 C34 0.930 . S
H10 C40 0.930 . S
O11 Co0 2.093 . S
O11 C3 1.224 . S
H12 C44 0.929 . S
H13 C46 0.930 . S
H14 C47 0.930 . S
H15 C45 0.929 . S
H16 C48 0.928 . S
O17 Co1 2.057 . S
O17 C5 1.232 . S
H18 C37 0.929 . S
H19 C38 0.929 . S
H20 C50 0.931 . S
H21 C42 0.929 . S
H22 C51 0.930 . S
H23 C43 0.931 . S
O24 Co0 2.097 . S
O24 C52 1.214 . S
H25 C53 0.929 . S
H26 C54 0.929 . S
H27 C55 0.930 . S
H28 C56 0.929 . S
H29 C58 0.930 . S
H30 C35 0.930 . S
H31 C39 0.930 . S
O32 Co1 2.037 . S
O32 C52 1.234 . S
C33 O7 1.269 . S
C33 O8 1.257 . S
C34 H9 0.930 . S
C34 C37 1.388 . S
C34 C39 1.418 . S
C35 H30 0.930 . S
C35 C38 1.404 . S
C35 C39 1.353 . S
N36 Co1 2.145 . S
N36 C37 1.397 . S
N36 C38 1.334 . S
C37 H18 0.929 . S
C37 C34 1.388 . S
C37 N36 1.397 . S
C38 H19 0.929 . S
C38 C35 1.404 . S
C38 N36 1.334 . S
C39 H31 0.930 . S
C39 C34 1.418 . S
C39 C35 1.353 . S
C40 H10 0.930 . S
C40 N41 1.330 . S
C40 C42 1.446 . S
N41 Co0 2.151 . S
N41 C40 1.330 . S
N41 C45 1.418 . S
C42 H21 0.929 . S
C42 C40 1.446 . S
C42 C43 1.332 . S
C43 H23 0.931 . S
C43 C42 1.332 . S
C43 C44 1.267 . S
C44 H12 0.929 . S
C44 C43 1.267 . S
C44 C45 1.251 . S
C45 H15 0.929 . S
C45 N41 1.418 . S
C45 C44 1.251 . S
C46 H13 0.930 . S
C46 C48 1.406 . S
C46 C51 1.261 . S
C47 H14 0.930 . S
C47 N49 1.325 . S
C47 C50 1.357 . S
C48 H16 0.928 . S
C48 C46 1.406 . S
C48 N49 1.261 . S
N49 Co0 2.214 . S
N49 C47 1.325 . S
N49 C48 1.261 . S
C50 H20 0.931 . S
C50 C47 1.357 . S
C50 C51 1.312 . S
C51 H22 0.930 . S
C51 C46 1.261 . S
C51 C50 1.312 . S
C52 O24 1.214 . S
C52 O32 1.234 . S
C53 H25 0.929 . S
C53 C56 1.391 . S
C53 C58 1.391 . S
C54 H26 0.929 . S
C54 C55 1.390 . S
C54 N57 1.391 . S
C55 H27 0.930 . S
C55 C54 1.390 . S
C55 C56 1.392 . S
C56 H28 0.929 . S
C56 C53 1.391 . S
C56 C55 1.392 . S
N57 Co1 2.257 . S
N57 C54 1.391 . S
N57 C58 1.388 . S
C58 H29 0.930 . S
C58 C53 1.391 . S
C58 N57 1.388 . S
Co59 O61 2.143 . S
Co59 O67 2.074 . S
Co59 O70 2.093 . S
Co59 O83 2.097 . S
Co59 N100 2.151 . S
Co59 N108 2.214 . S
Co60 O61 2.160 . S
Co60 O66 2.058 . S
Co60 O76 2.057 . S
Co60 O91 2.037 . S
Co60 N95 2.145 . S
Co60 N116 2.257 . S
O61 Co59 2.143 . S
O61 Co60 2.160 . S
C62 O63 1.278 . S
C62 O70 1.224 . S
O63 C62 1.278 . S
C64 O65 1.245 . S
C64 O76 1.232 . S
O65 C64 1.245 . S
O66 Co60 2.058 . S
O66 C92 1.269 . S
O67 Co59 2.074 . S
O67 C92 1.257 . S
H68 C93 0.930 . S
H69 C99 0.930 . S
O70 Co59 2.093 . S
O70 C62 1.224 . S
H71 C103 0.929 . S
H72 C105 0.930 . S
H73 C106 0.930 . S
H74 C104 0.929 . S
H75 C107 0.928 . S
O76 Co60 2.057 . S
O76 C64 1.232 . S
H77 C96 0.929 . S
H78 C97 0.929 . S
H79 C109 0.931 . S
H80 C101 0.929 . S
H81 C110 0.930 . S
H82 C102 0.931 . S
O83 Co59 2.097 . S
O83 C111 1.214 . S
H84 C112 0.929 . S
H85 C113 0.929 . S
H86 C114 0.930 . S
H87 C115 0.929 . S
H88 C117 0.930 . S
H89 C94 0.930 . S
H90 C98 0.930 . S
O91 Co60 2.037 . S
O91 C111 1.234 . S
C92 O66 1.269 . S
C92 O67 1.257 . S
C93 H68 0.930 . S
C93 C96 1.388 . S
C93 C98 1.418 . S
C94 H89 0.930 . S
C94 C97 1.404 . S
C94 C98 1.353 . S
N95 Co60 2.145 . S
N95 C96 1.397 . S
N95 C97 1.334 . S
C96 H77 0.929 . S
C96 C93 1.388 . S
C96 N95 1.397 . S
C97 H78 0.929 . S
C97 C94 1.404 . S
C97 N95 1.334 . S
C98 H90 0.930 . S
C98 C93 1.418 . S
C98 C94 1.353 . S
C99 H69 0.930 . S
C99 N100 1.330 . S
C99 C101 1.446 . S
N100 Co59 2.151 . S
N100 C99 1.330 . S
N100 C104 1.418 . S
C101 H80 0.929 . S
C101 C99 1.446 . S
C101 C102 1.332 . S
C102 H82 0.931 . S
C102 C101 1.332 . S
C102 C103 1.267 . S
C103 H71 0.929 . S
C103 C102 1.267 . S
C103 C104 1.251 . S
C104 H74 0.929 . S
C104 N100 1.418 . S
C104 C103 1.251 . S
C105 H72 0.930 . S
C105 C107 1.406 . S
C105 C110 1.261 . S
C106 H73 0.930 . S
C106 N108 1.325 . S
C106 C109 1.357 . S
C107 H75 0.928 . S
C107 C105 1.406 . S
C107 N108 1.261 . S
N108 Co59 2.214 . S
N108 C106 1.325 . S
N108 C107 1.261 . S
C109 H79 0.931 . S
C109 C106 1.357 . S
C109 C110 1.312 . S
C110 H81 0.930 . S
C110 C105 1.261 . S
C110 C109 1.312 . S
C111 O83 1.214 . S
C111 O91 1.234 . S
C112 H84 0.929 . S
C112 C115 1.391 . S
C112 C117 1.391 . S
C113 H85 0.929 . S
C113 C114 1.390 . S
C113 N116 1.391 . S
C114 H86 0.930 . S
C114 C113 1.390 . S
C114 C115 1.392 . S
C115 H87 0.929 . S
C115 C112 1.391 . S
C115 C114 1.392 . S
N116 Co60 2.257 . S
N116 C113 1.391 . S
N116 C117 1.388 . S
C117 H88 0.930 . S
C117 C112 1.391 . S
C117 N116 1.388 . S
Co118 O120 2.143 . S
Co118 O126 2.074 . S
Co118 O129 2.093 . S
Co118 O142 2.097 . S
Co118 N159 2.151 . S
Co118 N167 2.214 . S
Co119 O120 2.160 . S
Co119 O125 2.058 . S
Co119 O135 2.057 . S
Co119 O150 2.037 . S
Co119 N154 2.145 . S
Co119 N175 2.257 . S
O120 Co118 2.143 . S
O120 Co119 2.160 . S
C121 O122 1.278 . S
C121 O129 1.224 . S
O122 C121 1.278 . S
C123 O124 1.245 . S
C123 O135 1.232 . S
O124 C123 1.245 . S
O125 Co119 2.058 . S
O125 C151 1.269 . S
O126 Co118 2.074 . S
O126 C151 1.257 . S
H127 C152 0.930 . S
H128 C158 0.930 . S
O129 Co118 2.093 . S
O129 C121 1.224 . S
H130 C162 0.929 . S
H131 C164 0.930 . S
H132 C165 0.930 . S
H133 C163 0.929 . S
H134 C166 0.928 . S
O135 Co119 2.057 . S
O135 C123 1.232 . S
H136 C155 0.929 . S
H137 C156 0.929 . S
H138 C168 0.931 . S
H139 C160 0.929 . S
H140 C169 0.930 . S
H141 C161 0.931 . S
O142 Co118 2.097 . S
O142 C170 1.214 . S
H143 C171 0.929 . S
H144 C172 0.929 . S
H145 C173 0.930 . S
H146 C174 0.929 . S
H147 C176 0.930 . S
H148 C153 0.930 . S
H149 C157 0.930 . S
O150 Co119 2.037 . S
O150 C170 1.234 . S
C151 O125 1.269 . S
C151 O126 1.257 . S
C152 H127 0.930 . S
C152 C155 1.388 . S
C152 C157 1.418 . S
C153 H148 0.930 . S
C153 C156 1.404 . S
C153 C157 1.353 . S
N154 Co119 2.145 . S
N154 C155 1.397 . S
N154 C156 1.334 . S
C155 H136 0.929 . S
C155 C152 1.388 . S
C155 N154 1.397 . S
C156 H137 0.929 . S
C156 C153 1.404 . S
C156 N154 1.334 . S
C157 H149 0.930 . S
C157 C152 1.418 . S
C157 C153 1.353 . S
C158 H128 0.930 . S
C158 N159 1.330 . S
C158 C160 1.446 . S
N159 Co118 2.151 . S
N159 C158 1.330 . S
N159 C163 1.418 . S
C160 H139 0.929 . S
C160 C158 1.446 . S
C160 C161 1.332 . S
C161 H141 0.931 . S
C161 C160 1.332 . S
C161 C162 1.267 . S
C162 H130 0.929 . S
C162 C161 1.267 . S
C162 C163 1.251 . S
C163 H133 0.929 . S
C163 N159 1.418 . S
C163 C162 1.251 . S
C164 H131 0.930 . S
C164 C166 1.406 . S
C164 C169 1.261 . S
C165 H132 0.930 . S
C165 N167 1.325 . S
C165 C168 1.357 . S
C166 H134 0.928 . S
C166 C164 1.406 . S
C166 N167 1.261 . S
N167 Co118 2.214 . S
N167 C165 1.325 . S
N167 C166 1.261 . S
C168 H138 0.931 . S
C168 C165 1.357 . S
C168 C169 1.312 . S
C169 H140 0.930 . S
C169 C164 1.261 . S
C169 C168 1.312 . S
C170 O142 1.214 . S
C170 O150 1.234 . S
C171 H143 0.929 . S
C171 C174 1.391 . S
C171 C176 1.391 . S
C172 H144 0.929 . S
C172 C173 1.390 . S
C172 N175 1.391 . S
C173 H145 0.930 . S
C173 C172 1.390 . S
C173 C174 1.392 . S
C174 H146 0.929 . S
C174 C171 1.391 . S
C174 C173 1.392 . S
N175 Co119 2.257 . S
N175 C172 1.391 . S
N175 C176 1.388 . S
C176 H147 0.930 . S
C176 C171 1.391 . S
C176 N175 1.388 . S
Co177 O179 2.143 . S
Co177 O185 2.074 . S
Co177 O188 2.093 . S
Co177 O201 2.097 . S
Co177 N218 2.151 . S
Co177 N226 2.214 . S
Co178 O179 2.160 . S
Co178 O184 2.058 . S
Co178 O194 2.057 . S
Co178 O209 2.037 . S
Co178 N213 2.145 . S
Co178 N234 2.257 . S
O179 Co177 2.143 . S
O179 Co178 2.160 . S
C180 O181 1.278 . S
C180 O188 1.224 . S
O181 C180 1.278 . S
C182 O183 1.245 . S
C182 O194 1.232 . S
O183 C182 1.245 . S
O184 Co178 2.058 . S
O184 C210 1.269 . S
O185 Co177 2.074 . S
O185 C210 1.257 . S
H186 C211 0.930 . S
H187 C217 0.930 . S
O188 Co177 2.093 . S
O188 C180 1.224 . S
H189 C221 0.929 . S
H190 C223 0.930 . S
H191 C224 0.930 . S
H192 C222 0.929 . S
H193 C225 0.928 . S
O194 Co178 2.057 . S
O194 C182 1.232 . S
H195 C214 0.929 . S
H196 C215 0.929 . S
H197 C227 0.931 . S
H198 C219 0.929 . S
H199 C228 0.930 . S
H200 C220 0.931 . S
O201 Co177 2.097 . S
O201 C229 1.214 . S
H202 C230 0.929 . S
H203 C231 0.929 . S
H204 C232 0.930 . S
H205 C233 0.929 . S
H206 C235 0.930 . S
H207 C212 0.930 . S
H208 C216 0.930 . S
O209 Co178 2.037 . S
O209 C229 1.234 . S
C210 O184 1.269 . S
C210 O185 1.257 . S
C211 H186 0.930 . S
C211 C214 1.388 . S
C211 C216 1.418 . S
C212 H207 0.930 . S
C212 C215 1.404 . S
C212 C216 1.353 . S
N213 Co178 2.145 . S
N213 C214 1.397 . S
N213 C215 1.334 . S
C214 H195 0.929 . S
C214 C211 1.388 . S
C214 N213 1.397 . S
C215 H196 0.929 . S
C215 C212 1.404 . S
C215 N213 1.334 . S
C216 H208 0.930 . S
C216 C211 1.418 . S
C216 C212 1.353 . S
C217 H187 0.930 . S
C217 N218 1.330 . S
C217 C219 1.446 . S
N218 Co177 2.151 . S
N218 C217 1.330 . S
N218 C222 1.418 . S
C219 H198 0.929 . S
C219 C217 1.446 . S
C219 C220 1.332 . S
C220 H200 0.931 . S
C220 C219 1.332 . S
C220 C221 1.267 . S
C221 H189 0.929 . S
C221 C220 1.267 . S
C221 C222 1.251 . S
C222 H192 0.929 . S
C222 N218 1.418 . S
C222 C221 1.251 . S
C223 H190 0.930 . S
C223 C225 1.406 . S
C223 C228 1.261 . S
C224 H191 0.930 . S
C224 N226 1.325 . S
C224 C227 1.357 . S
C225 H193 0.928 . S
C225 C223 1.406 . S
C225 N226 1.261 . S
N226 Co177 2.214 . S
N226 C224 1.325 . S
N226 C225 1.261 . S
C227 H197 0.931 . S
C227 C224 1.357 . S
C227 C228 1.312 . S
C228 H199 0.930 . S
C228 C223 1.261 . S
C228 C227 1.312 . S
C229 O201 1.214 . S
C229 O209 1.234 . S
C230 H202 0.929 . S
C230 C233 1.391 . S
C230 C235 1.391 . S
C231 H203 0.929 . S
C231 C232 1.390 . S
C231 N234 1.391 . S
C232 H204 0.930 . S
C232 C231 1.390 . S
C232 C233 1.392 . S
C233 H205 0.929 . S
C233 C230 1.391 . S
C233 C232 1.392 . S
N234 Co178 2.257 . S
N234 C231 1.391 . S
N234 C235 1.388 . S
C235 H206 0.930 . S
C235 C230 1.391 . S
C235 N234 1.388 . S
Co236 O238 2.143 . S
Co236 O244 2.074 . S
Co236 O247 2.093 . S
Co236 O260 2.097 . S
Co236 N277 2.151 . S
Co236 N285 2.214 . S
Co237 O238 2.160 . S
Co237 O243 2.058 . S
Co237 O253 2.057 . S
Co237 O268 2.037 . S
Co237 N272 2.145 . S
Co237 N293 2.257 . S
O238 Co236 2.143 . S
O238 Co237 2.160 . S
C239 O240 1.278 . S
C239 O247 1.224 . S
O240 C239 1.278 . S
C241 O242 1.245 . S
C241 O253 1.232 . S
O242 C241 1.245 . S
O243 Co237 2.058 . S
O243 C269 1.269 . S
O244 Co236 2.074 . S
O244 C269 1.257 . S
H245 C270 0.930 . S
H246 C276 0.930 . S
O247 Co236 2.093 . S
O247 C239 1.224 . S
H248 C280 0.929 . S
H249 C282 0.930 . S
H250 C283 0.930 . S
H251 C281 0.929 . S
H252 C284 0.928 . S
O253 Co237 2.057 . S
O253 C241 1.232 . S
H254 C273 0.929 . S
H255 C274 0.929 . S
H256 C286 0.931 . S
H257 C278 0.929 . S
H258 C287 0.930 . S
H259 C279 0.931 . S
O260 Co236 2.097 . S
O260 C288 1.214 . S
H261 C289 0.929 . S
H262 C290 0.929 . S
H263 C291 0.930 . S
H264 C292 0.929 . S
H265 C294 0.930 . S
H266 C271 0.930 . S
H267 C275 0.930 . S
O268 Co237 2.037 . S
O268 C288 1.234 . S
C269 O243 1.269 . S
C269 O244 1.257 . S
C270 H245 0.930 . S
C270 C273 1.388 . S
C270 C275 1.418 . S
C271 H266 0.930 . S
C271 C274 1.404 . S
C271 C275 1.353 . S
N272 Co237 2.145 . S
N272 C273 1.397 . S
N272 C274 1.334 . S
C273 H254 0.929 . S
C273 C270 1.388 . S
C273 N272 1.397 . S
C274 H255 0.929 . S
C274 C271 1.404 . S
C274 N272 1.334 . S
C275 H267 0.930 . S
C275 C270 1.418 . S
C275 C271 1.353 . S
C276 H246 0.930 . S
C276 N277 1.330 . S
C276 C278 1.446 . S
N277 Co236 2.151 . S
N277 C276 1.330 . S
N277 C281 1.418 . S
C278 H257 0.929 . S
C278 C276 1.446 . S
C278 C279 1.332 . S
C279 H259 0.931 . S
C279 C278 1.332 . S
C279 C280 1.267 . S
C280 H248 0.929 . S
C280 C279 1.267 . S
C280 C281 1.251 . S
C281 H251 0.929 . S
C281 N277 1.418 . S
C281 C280 1.251 . S
C282 H249 0.930 . S
C282 C284 1.406 . S
C282 C287 1.261 . S
C283 H250 0.930 . S
C283 N285 1.325 . S
C283 C286 1.357 . S
C284 H252 0.928 . S
C284 C282 1.406 . S
C284 N285 1.261 . S
N285 Co236 2.214 . S
N285 C283 1.325 . S
N285 C284 1.261 . S
C286 H256 0.931 . S
C286 C283 1.357 . S
C286 C287 1.312 . S
C287 H258 0.930 . S
C287 C282 1.261 . S
C287 C286 1.312 . S
C288 O260 1.214 . S
C288 O268 1.234 . S
C289 H261 0.929 . S
C289 C292 1.391 . S
C289 C294 1.391 . S
C290 H262 0.929 . S
C290 C291 1.390 . S
C290 N293 1.391 . S
C291 H263 0.930 . S
C291 C290 1.390 . S
C291 C292 1.392 . S
C292 H264 0.929 . S
C292 C289 1.391 . S
C292 C291 1.392 . S
N293 Co237 2.257 . S
N293 C290 1.391 . S
N293 C294 1.388 . S
C294 H265 0.930 . S
C294 C289 1.391 . S
C294 N293 1.388 . S
Co295 O297 2.143 . S
Co295 O303 2.074 . S
Co295 O306 2.093 . S
Co295 O319 2.097 . S
Co295 N336 2.151 . S
Co295 N344 2.214 . S
Co296 O297 2.160 . S
Co296 O302 2.058 . S
Co296 O312 2.057 . S
Co296 O327 2.037 . S
Co296 N331 2.145 . S
Co296 N352 2.257 . S
O297 Co295 2.143 . S
O297 Co296 2.160 . S
C298 O299 1.278 . S
C298 O306 1.224 . S
O299 C298 1.278 . S
C300 O301 1.245 . S
C300 O312 1.232 . S
O301 C300 1.245 . S
O302 Co296 2.058 . S
O302 C328 1.269 . S
O303 Co295 2.074 . S
O303 C328 1.257 . S
H304 C329 0.930 . S
H305 C335 0.930 . S
O306 Co295 2.093 . S
O306 C298 1.224 . S
H307 C339 0.929 . S
H308 C341 0.930 . S
H309 C342 0.930 . S
H310 C340 0.929 . S
H311 C343 0.928 . S
O312 Co296 2.057 . S
O312 C300 1.232 . S
H313 C332 0.929 . S
H314 C333 0.929 . S
H315 C345 0.931 . S
H316 C337 0.929 . S
H317 C346 0.930 . S
H318 C338 0.931 . S
O319 Co295 2.097 . S
O319 C347 1.214 . S
H320 C348 0.929 . S
H321 C349 0.929 . S
H322 C350 0.930 . S
H323 C351 0.929 . S
H324 C353 0.930 . S
H325 C330 0.930 . S
H326 C334 0.930 . S
O327 Co296 2.037 . S
O327 C347 1.234 . S
C328 O302 1.269 . S
C328 O303 1.257 . S
C329 H304 0.930 . S
C329 C332 1.388 . S
C329 C334 1.418 . S
C330 H325 0.930 . S
C330 C333 1.404 . S
C330 C334 1.353 . S
N331 Co296 2.145 . S
N331 C332 1.397 . S
N331 C333 1.334 . S
C332 H313 0.929 . S
C332 C329 1.388 . S
C332 N331 1.397 . S
C333 H314 0.929 . S
C333 C330 1.404 . S
C333 N331 1.334 . S
C334 H326 0.930 . S
C334 C329 1.418 . S
C334 C330 1.353 . S
C335 H305 0.930 . S
C335 N336 1.330 . S
C335 C337 1.446 . S
N336 Co295 2.151 . S
N336 C335 1.330 . S
N336 C340 1.418 . S
C337 H316 0.929 . S
C337 C335 1.446 . S
C337 C338 1.332 . S
C338 H318 0.931 . S
C338 C337 1.332 . S
C338 C339 1.267 . S
C339 H307 0.929 . S
C339 C338 1.267 . S
C339 C340 1.251 . S
C340 H310 0.929 . S
C340 N336 1.418 . S
C340 C339 1.251 . S
C341 H308 0.930 . S
C341 C343 1.406 . S
C341 C346 1.261 . S
C342 H309 0.930 . S
C342 N344 1.325 . S
C342 C345 1.357 . S
C343 H311 0.928 . S
C343 C341 1.406 . S
C343 N344 1.261 . S
N344 Co295 2.214 . S
N344 C342 1.325 . S
N344 C343 1.261 . S
C345 H315 0.931 . S
C345 C342 1.357 . S
C345 C346 1.312 . S
C346 H317 0.930 . S
C346 C341 1.261 . S
C346 C345 1.312 . S
C347 O319 1.214 . S
C347 O327 1.234 . S
C348 H320 0.929 . S
C348 C351 1.391 . S
C348 C353 1.391 . S
C349 H321 0.929 . S
C349 C350 1.390 . S
C349 N352 1.391 . S
C350 H322 0.930 . S
C350 C349 1.390 . S
C350 C351 1.392 . S
C351 H323 0.929 . S
C351 C348 1.391 . S
C351 C350 1.392 . S
N352 Co296 2.257 . S
N352 C349 1.391 . S
N352 C353 1.388 . S
C353 H324 0.930 . S
C353 C348 1.391 . S
C353 N352 1.388 . S
Co354 O356 2.143 . S
Co354 O362 2.074 . S
Co354 O365 2.093 . S
Co354 O378 2.097 . S
Co354 N395 2.151 . S
Co354 N403 2.214 . S
Co355 O356 2.160 . S
Co355 O361 2.058 . S
Co355 O371 2.057 . S
Co355 O386 2.037 . S
Co355 N390 2.145 . S
Co355 N411 2.257 . S
O356 Co354 2.143 . S
O356 Co355 2.160 . S
C357 O358 1.278 . S
C357 O365 1.224 . S
O358 C357 1.278 . S
C359 O360 1.245 . S
C359 O371 1.232 . S
O360 C359 1.245 . S
O361 Co355 2.058 . S
O361 C387 1.269 . S
O362 Co354 2.074 . S
O362 C387 1.257 . S
H363 C388 0.930 . S
H364 C394 0.930 . S
O365 Co354 2.093 . S
O365 C357 1.224 . S
H366 C398 0.929 . S
H367 C400 0.930 . S
H368 C401 0.930 . S
H369 C399 0.929 . S
H370 C402 0.928 . S
O371 Co355 2.057 . S
O371 C359 1.232 . S
H372 C391 0.929 . S
H373 C392 0.929 . S
H374 C404 0.931 . S
H375 C396 0.929 . S
H376 C405 0.930 . S
H377 C397 0.931 . S
O378 Co354 2.097 . S
O378 C406 1.214 . S
H379 C407 0.929 . S
H380 C408 0.929 . S
H381 C409 0.930 . S
H382 C410 0.929 . S
H383 C412 0.930 . S
H384 C389 0.930 . S
H385 C393 0.930 . S
O386 Co355 2.037 . S
O386 C406 1.234 . S
C387 O361 1.269 . S
C387 O362 1.257 . S
C388 H363 0.930 . S
C388 C391 1.388 . S
C388 C393 1.418 . S
C389 H384 0.930 . S
C389 C392 1.404 . S
C389 C393 1.353 . S
N390 Co355 2.145 . S
N390 C391 1.397 . S
N390 C392 1.334 . S
C391 H372 0.929 . S
C391 C388 1.388 . S
C391 N390 1.397 . S
C392 H373 0.929 . S
C392 C389 1.404 . S
C392 N390 1.334 . S
C393 H385 0.930 . S
C393 C388 1.418 . S
C393 C389 1.353 . S
C394 H364 0.930 . S
C394 N395 1.330 . S
C394 C396 1.446 . S
N395 Co354 2.151 . S
N395 C394 1.330 . S
N395 C399 1.418 . S
C396 H375 0.929 . S
C396 C394 1.446 . S
C396 C397 1.332 . S
C397 H377 0.931 . S
C397 C396 1.332 . S
C397 C398 1.267 . S
C398 H366 0.929 . S
C398 C397 1.267 . S
C398 C399 1.251 . S
C399 H369 0.929 . S
C399 N395 1.418 . S
C399 C398 1.251 . S
C400 H367 0.930 . S
C400 C402 1.406 . S
C400 C405 1.261 . S
C401 H368 0.930 . S
C401 N403 1.325 . S
C401 C404 1.357 . S
C402 H370 0.928 . S
C402 C400 1.406 . S
C402 N403 1.261 . S
N403 Co354 2.214 . S
N403 C401 1.325 . S
N403 C402 1.261 . S
C404 H374 0.931 . S
C404 C401 1.357 . S
C404 C405 1.312 . S
C405 H376 0.930 . S
C405 C400 1.261 . S
C405 C404 1.312 . S
C406 O378 1.214 . S
C406 O386 1.234 . S
C407 H379 0.929 . S
C407 C410 1.391 . S
C407 C412 1.391 . S
C408 H380 0.929 . S
C408 C409 1.390 . S
C408 N411 1.391 . S
C409 H381 0.930 . S
C409 C408 1.390 . S
C409 C410 1.392 . S
C410 H382 0.929 . S
C410 C407 1.391 . S
C410 C409 1.392 . S
N411 Co355 2.257 . S
N411 C408 1.391 . S
N411 C412 1.388 . S
C412 H383 0.930 . S
C412 C407 1.391 . S
C412 N411 1.388 . S
Co413 O415 2.143 . S
Co413 O421 2.074 . S
Co413 O424 2.093 . S
Co413 O437 2.097 . S
Co413 N454 2.151 . S
Co413 N462 2.214 . S
Co414 O415 2.160 . S
Co414 O420 2.058 . S
Co414 O430 2.057 . S
Co414 O445 2.037 . S
Co414 N449 2.145 . S
Co414 N470 2.257 . S
O415 Co413 2.143 . S
O415 Co414 2.160 . S
C416 O417 1.278 . S
C416 O424 1.224 . S
O417 C416 1.278 . S
C418 O419 1.245 . S
C418 O430 1.232 . S
O419 C418 1.245 . S
O420 Co414 2.058 . S
O420 C446 1.269 . S
O421 Co413 2.074 . S
O421 C446 1.257 . S
H422 C447 0.930 . S
H423 C453 0.930 . S
O424 Co413 2.093 . S
O424 C416 1.224 . S
H425 C457 0.929 . S
H426 C459 0.930 . S
H427 C460 0.930 . S
H428 C458 0.929 . S
H429 C461 0.928 . S
O430 Co414 2.057 . S
O430 C418 1.232 . S
H431 C450 0.929 . S
H432 C451 0.929 . S
H433 C463 0.931 . S
H434 C455 0.929 . S
H435 C464 0.930 . S
H436 C456 0.931 . S
O437 Co413 2.097 . S
O437 C465 1.214 . S
H438 C466 0.929 . S
H439 C467 0.929 . S
H440 C468 0.930 . S
H441 C469 0.929 . S
H442 C471 0.930 . S
H443 C448 0.930 . S
H444 C452 0.930 . S
O445 Co414 2.037 . S
O445 C465 1.234 . S
C446 O420 1.269 . S
C446 O421 1.257 . S
C447 H422 0.930 . S
C447 C450 1.388 . S
C447 C452 1.418 . S
C448 H443 0.930 . S
C448 C451 1.404 . S
C448 C452 1.353 . S
N449 Co414 2.145 . S
N449 C450 1.397 . S
N449 C451 1.334 . S
C450 H431 0.929 . S
C450 C447 1.388 . S
C450 N449 1.397 . S
C451 H432 0.929 . S
C451 C448 1.404 . S
C451 N449 1.334 . S
C452 H444 0.930 . S
C452 C447 1.418 . S
C452 C448 1.353 . S
C453 H423 0.930 . S
C453 N454 1.330 . S
C453 C455 1.446 . S
N454 Co413 2.151 . S
N454 C453 1.330 . S
N454 C458 1.418 . S
C455 H434 0.929 . S
C455 C453 1.446 . S
C455 C456 1.332 . S
C456 H436 0.931 . S
C456 C455 1.332 . S
C456 C457 1.267 . S
C457 H425 0.929 . S
C457 C456 1.267 . S
C457 C458 1.251 . S
C458 H428 0.929 . S
C458 N454 1.418 . S
C458 C457 1.251 . S
C459 H426 0.930 . S
C459 C461 1.406 . S
C459 C464 1.261 . S
C460 H427 0.930 . S
C460 N462 1.325 . S
C460 C463 1.357 . S
C461 H429 0.928 . S
C461 C459 1.406 . S
C461 N462 1.261 . S
N462 Co413 2.214 . S
N462 C460 1.325 . S
N462 C461 1.261 . S
C463 H433 0.931 . S
C463 C460 1.357 . S
C463 C464 1.312 . S
C464 H435 0.930 . S
C464 C459 1.261 . S
C464 C463 1.312 . S
C465 O437 1.214 . S
C465 O445 1.234 . S
C466 H438 0.929 . S
C466 C469 1.391 . S
C466 C471 1.391 . S
C467 H439 0.929 . S
C467 C468 1.390 . S
C467 N470 1.391 . S
C468 H440 0.930 . S
C468 C467 1.390 . S
C468 C469 1.392 . S
C469 H441 0.929 . S
C469 C466 1.391 . S
C469 C468 1.392 . S
N470 Co414 2.257 . S
N470 C467 1.391 . S
N470 C471 1.388 . S
C471 H442 0.930 . S
C471 C466 1.391 . S
C471 N470 1.388 . S
Co472 O474 2.143 . S
Co472 O480 2.074 . S
Co472 O483 2.093 . S
Co472 O496 2.097 . S
Co472 N513 2.151 . S
Co472 N521 2.214 . S
Co473 O474 2.160 . S
Co473 O479 2.058 . S
Co473 O489 2.057 . S
Co473 O504 2.037 . S
Co473 N508 2.145 . S
Co473 N529 2.257 . S
O474 Co472 2.143 . S
O474 Co473 2.160 . S
C475 O476 1.278 . S
C475 O483 1.224 . S
O476 C475 1.278 . S
C477 O478 1.245 . S
C477 O489 1.232 . S
O478 C477 1.245 . S
O479 Co473 2.058 . S
O479 C505 1.269 . S
O480 Co472 2.074 . S
O480 C505 1.257 . S
H481 C506 0.930 . S
H482 C512 0.930 . S
O483 Co472 2.093 . S
O483 C475 1.224 . S
H484 C516 0.929 . S
H485 C518 0.930 . S
H486 C519 0.930 . S
H487 C517 0.929 . S
H488 C520 0.928 . S
O489 Co473 2.057 . S
O489 C477 1.232 . S
H490 C509 0.929 . S
H491 C510 0.929 . S
H492 C522 0.931 . S
H493 C514 0.929 . S
H494 C523 0.930 . S
H495 C515 0.931 . S
O496 Co472 2.097 . S
O496 C524 1.214 . S
H497 C525 0.929 . S
H498 C526 0.929 . S
H499 C527 0.930 . S
H500 C528 0.929 . S
H501 C530 0.930 . S
H502 C507 0.930 . S
H503 C511 0.930 . S
O504 Co473 2.037 . S
O504 C524 1.234 . S
C505 O479 1.269 . S
C505 O480 1.257 . S
C506 H481 0.930 . S
C506 C509 1.388 . S
C506 C511 1.418 . S
C507 H502 0.930 . S
C507 C510 1.404 . S
C507 C511 1.353 . S
N508 Co473 2.145 . S
N508 C509 1.397 . S
N508 C510 1.334 . S
C509 H490 0.929 . S
C509 C506 1.388 . S
C509 N508 1.397 . S
C510 H491 0.929 . S
C510 C507 1.404 . S
C510 N508 1.334 . S
C511 H503 0.930 . S
C511 C506 1.418 . S
C511 C507 1.353 . S
C512 H482 0.930 . S
C512 N513 1.330 . S
C512 C514 1.446 . S
N513 Co472 2.151 . S
N513 C512 1.330 . S
N513 C517 1.418 . S
C514 H493 0.929 . S
C514 C512 1.446 . S
C514 C515 1.332 . S
C515 H495 0.931 . S
C515 C514 1.332 . S
C515 C516 1.267 . S
C516 H484 0.929 . S
C516 C515 1.267 . S
C516 C517 1.251 . S
C517 H487 0.929 . S
C517 N513 1.418 . S
C517 C516 1.251 . S
C518 H485 0.930 . S
C518 C520 1.406 . S
C518 C523 1.261 . S
C519 H486 0.930 . S
C519 N521 1.325 . S
C519 C522 1.357 . S
C520 H488 0.928 . S
C520 C518 1.406 . S
C520 N521 1.261 . S
N521 Co472 2.214 . S
N521 C519 1.325 . S
N521 C520 1.261 . S
C522 H492 0.931 . S
C522 C519 1.357 . S
C522 C523 1.312 . S
C523 H494 0.930 . S
C523 C518 1.261 . S
C523 C522 1.312 . S
C524 O496 1.214 . S
C524 O504 1.234 . S
C525 H497 0.929 . S
C525 C528 1.391 . S
C525 C530 1.391 . S
C526 H498 0.929 . S
C526 C527 1.390 . S
C526 N529 1.391 . S
C527 H499 0.930 . S
C527 C526 1.390 . S
C527 C528 1.392 . S
C528 H500 0.929 . S
C528 C525 1.391 . S
C528 C527 1.392 . S
N529 Co473 2.257 . S
N529 C526 1.391 . S
N529 C530 1.388 . S
C530 H501 0.930 . S
C530 C525 1.391 . S
C530 N529 1.388 . S
Co531 O533 2.143 . S
Co531 O539 2.074 . S
Co531 O542 2.093 . S
Co531 O555 2.097 . S
Co531 N572 2.151 . S
Co531 N580 2.214 . S
Co532 O533 2.160 . S
Co532 O538 2.058 . S
Co532 O548 2.057 . S
Co532 O563 2.037 . S
Co532 N567 2.145 . S
Co532 N588 2.257 . S
O533 Co531 2.143 . S
O533 Co532 2.160 . S
C534 O535 1.278 . S
C534 O542 1.224 . S
O535 C534 1.278 . S
C536 O537 1.245 . S
C536 O548 1.232 . S
O537 C536 1.245 . S
O538 Co532 2.058 . S
O538 C564 1.269 . S
O539 Co531 2.074 . S
O539 C564 1.257 . S
H540 C565 0.930 . S
H541 C571 0.930 . S
O542 Co531 2.093 . S
O542 C534 1.224 . S
H543 C575 0.929 . S
H544 C577 0.930 . S
H545 C578 0.930 . S
H546 C576 0.929 . S
H547 C579 0.928 . S
O548 Co532 2.057 . S
O548 C536 1.232 . S
H549 C568 0.929 . S
H550 C569 0.929 . S
H551 C581 0.931 . S
H552 C573 0.929 . S
H553 C582 0.930 . S
H554 C574 0.931 . S
O555 Co531 2.097 . S
O555 C583 1.214 . S
H556 C584 0.929 . S
H557 C585 0.929 . S
H558 C586 0.930 . S
H559 C587 0.929 . S
H560 C589 0.930 . S
H561 C566 0.930 . S
H562 C570 0.930 . S
O563 Co532 2.037 . S
O563 C583 1.234 . S
C564 O538 1.269 . S
C564 O539 1.257 . S
C565 H540 0.930 . S
C565 C568 1.388 . S
C565 C570 1.418 . S
C566 H561 0.930 . S
C566 C569 1.404 . S
C566 C570 1.353 . S
N567 Co532 2.145 . S
N567 C568 1.397 . S
N567 C569 1.334 . S
C568 H549 0.929 . S
C568 C565 1.388 . S
C568 N567 1.397 . S
C569 H550 0.929 . S
C569 C566 1.404 . S
C569 N567 1.334 . S
C570 H562 0.930 . S
C570 C565 1.418 . S
C570 C566 1.353 . S
C571 H541 0.930 . S
C571 N572 1.330 . S
C571 C573 1.446 . S
N572 Co531 2.151 . S
N572 C571 1.330 . S
N572 C576 1.418 . S
C573 H552 0.929 . S
C573 C571 1.446 . S
C573 C574 1.332 . S
C574 H554 0.931 . S
C574 C573 1.332 . S
C574 C575 1.267 . S
C575 H543 0.929 . S
C575 C574 1.267 . S
C575 C576 1.251 . S
C576 H546 0.929 . S
C576 N572 1.418 . S
C576 C575 1.251 . S
C577 H544 0.930 . S
C577 C579 1.406 . S
C577 C582 1.261 . S
C578 H545 0.930 . S
C578 N580 1.325 . S
C578 C581 1.357 . S
C579 H547 0.928 . S
C579 C577 1.406 . S
C579 N580 1.261 . S
N580 Co531 2.214 . S
N580 C578 1.325 . S
N580 C579 1.261 . S
C581 H551 0.931 . S
C581 C578 1.357 . S
C581 C582 1.312 . S
C582 H553 0.930 . S
C582 C577 1.261 . S
C582 C581 1.312 . S
C583 O555 1.214 . S
C583 O563 1.234 . S
C584 H556 0.929 . S
C584 C587 1.391 . S
C584 C589 1.391 . S
C585 H557 0.929 . S
C585 C586 1.390 . S
C585 N588 1.391 . S
C586 H558 0.930 . S
C586 C585 1.390 . S
C586 C587 1.392 . S
C587 H559 0.929 . S
C587 C584 1.391 . S
C587 C586 1.392 . S
N588 Co532 2.257 . S
N588 C585 1.391 . S
N588 C589 1.388 . S
C589 H560 0.930 . S
C589 C584 1.391 . S
C589 N588 1.388 . S
Co590 O592 2.143 . S
Co590 O598 2.074 . S
Co590 O601 2.093 . S
Co590 O614 2.097 . S
Co590 N631 2.151 . S
Co590 N639 2.214 . S
Co591 O592 2.160 . S
Co591 O597 2.058 . S
Co591 O607 2.057 . S
Co591 O622 2.037 . S
Co591 N626 2.145 . S
Co591 N647 2.257 . S
O592 Co590 2.143 . S
O592 Co591 2.160 . S
C593 O594 1.278 . S
C593 O601 1.224 . S
O594 C593 1.278 . S
C595 O596 1.245 . S
C595 O607 1.232 . S
O596 C595 1.245 . S
O597 Co591 2.058 . S
O597 C623 1.269 . S
O598 Co590 2.074 . S
O598 C623 1.257 . S
H599 C624 0.930 . S
H600 C630 0.930 . S
O601 Co590 2.093 . S
O601 C593 1.224 . S
H602 C634 0.929 . S
H603 C636 0.930 . S
H604 C637 0.930 . S
H605 C635 0.929 . S
H606 C638 0.928 . S
O607 Co591 2.057 . S
O607 C595 1.232 . S
H608 C627 0.929 . S
H609 C628 0.929 . S
H610 C640 0.931 . S
H611 C632 0.929 . S
H612 C641 0.930 . S
H613 C633 0.931 . S
O614 Co590 2.097 . S
O614 C642 1.214 . S
H615 C643 0.929 . S
H616 C644 0.929 . S
H617 C645 0.930 . S
H618 C646 0.929 . S
H619 C648 0.930 . S
H620 C625 0.930 . S
H621 C629 0.930 . S
O622 Co591 2.037 . S
O622 C642 1.234 . S
C623 O597 1.269 . S
C623 O598 1.257 . S
C624 H599 0.930 . S
C624 C627 1.388 . S
C624 C629 1.418 . S
C625 H620 0.930 . S
C625 C628 1.404 . S
C625 C629 1.353 . S
N626 Co591 2.145 . S
N626 C627 1.397 . S
N626 C628 1.334 . S
C627 H608 0.929 . S
C627 C624 1.388 . S
C627 N626 1.397 . S
C628 H609 0.929 . S
C628 C625 1.404 . S
C628 N626 1.334 . S
C629 H621 0.930 . S
C629 C624 1.418 . S
C629 C625 1.353 . S
C630 H600 0.930 . S
C630 N631 1.330 . S
C630 C632 1.446 . S
N631 Co590 2.151 . S
N631 C630 1.330 . S
N631 C635 1.418 . S
C632 H611 0.929 . S
C632 C630 1.446 . S
C632 C633 1.332 . S
C633 H613 0.931 . S
C633 C632 1.332 . S
C633 C634 1.267 . S
C634 H602 0.929 . S
C634 C633 1.267 . S
C634 C635 1.251 . S
C635 H605 0.929 . S
C635 N631 1.418 . S
C635 C634 1.251 . S
C636 H603 0.930 . S
C636 C638 1.406 . S
C636 C641 1.261 . S
C637 H604 0.930 . S
C637 N639 1.325 . S
C637 C640 1.357 . S
C638 H606 0.928 . S
C638 C636 1.406 . S
C638 N639 1.261 . S
N639 Co590 2.214 . S
N639 C637 1.325 . S
N639 C638 1.261 . S
C640 H610 0.931 . S
C640 C637 1.357 . S
C640 C641 1.312 . S
C641 H612 0.930 . S
C641 C636 1.261 . S
C641 C640 1.312 . S
C642 O614 1.214 . S
C642 O622 1.234 . S
C643 H615 0.929 . S
C643 C646 1.391 . S
C643 C648 1.391 . S
C644 H616 0.929 . S
C644 C645 1.390 . S
C644 N647 1.391 . S
C645 H617 0.930 . S
C645 C644 1.390 . S
C645 C646 1.392 . S
C646 H618 0.929 . S
C646 C643 1.391 . S
C646 C645 1.392 . S
N647 Co591 2.257 . S
N647 C644 1.391 . S
N647 C648 1.388 . S
C648 H619 0.930 . S
C648 C643 1.391 . S
C648 N647 1.388 . S
Co649 O651 2.143 . S
Co649 O657 2.074 . S
Co649 O660 2.093 . S
Co649 O673 2.097 . S
Co649 N690 2.151 . S
Co649 N698 2.214 . S
Co650 O651 2.160 . S
Co650 O656 2.058 . S
Co650 O666 2.057 . S
Co650 O681 2.037 . S
Co650 N685 2.145 . S
Co650 N706 2.257 . S
O651 Co649 2.143 . S
O651 Co650 2.160 . S
C652 O653 1.278 . S
C652 O660 1.224 . S
O653 C652 1.278 . S
C654 O655 1.245 . S
C654 O666 1.232 . S
O655 C654 1.245 . S
O656 Co650 2.058 . S
O656 C682 1.269 . S
O657 Co649 2.074 . S
O657 C682 1.257 . S
H658 C683 0.930 . S
H659 C689 0.930 . S
O660 Co649 2.093 . S
O660 C652 1.224 . S
H661 C693 0.929 . S
H662 C695 0.930 . S
H663 C696 0.930 . S
H664 C694 0.929 . S
H665 C697 0.928 . S
O666 Co650 2.057 . S
O666 C654 1.232 . S
H667 C686 0.929 . S
H668 C687 0.929 . S
H669 C699 0.931 . S
H670 C691 0.929 . S
H671 C700 0.930 . S
H672 C692 0.931 . S
O673 Co649 2.097 . S
O673 C701 1.214 . S
H674 C702 0.929 . S
H675 C703 0.929 . S
H676 C704 0.930 . S
H677 C705 0.929 . S
H678 C707 0.930 . S
H679 C684 0.930 . S
H680 C688 0.930 . S
O681 Co650 2.037 . S
O681 C701 1.234 . S
C682 O656 1.269 . S
C682 O657 1.257 . S
C683 H658 0.930 . S
C683 C686 1.388 . S
C683 C688 1.418 . S
C684 H679 0.930 . S
C684 C687 1.404 . S
C684 C688 1.353 . S
N685 Co650 2.145 . S
N685 C686 1.397 . S
N685 C687 1.334 . S
C686 H667 0.929 . S
C686 C683 1.388 . S
C686 N685 1.397 . S
C687 H668 0.929 . S
C687 C684 1.404 . S
C687 N685 1.334 . S
C688 H680 0.930 . S
C688 C683 1.418 . S
C688 C684 1.353 . S
C689 H659 0.930 . S
C689 N690 1.330 . S
C689 C691 1.446 . S
N690 Co649 2.151 . S
N690 C689 1.330 . S
N690 C694 1.418 . S
C691 H670 0.929 . S
C691 C689 1.446 . S
C691 C692 1.332 . S
C692 H672 0.931 . S
C692 C691 1.332 . S
C692 C693 1.267 . S
C693 H661 0.929 . S
C693 C692 1.267 . S
C693 C694 1.251 . S
C694 H664 0.929 . S
C694 N690 1.418 . S
C694 C693 1.251 . S
C695 H662 0.930 . S
C695 C697 1.406 . S
C695 C700 1.261 . S
C696 H663 0.930 . S
C696 N698 1.325 . S
C696 C699 1.357 . S
C697 H665 0.928 . S
C697 C695 1.406 . S
C697 N698 1.261 . S
N698 Co649 2.214 . S
N698 C696 1.325 . S
N698 C697 1.261 . S
C699 H669 0.931 . S
C699 C696 1.357 . S
C699 C700 1.312 . S
C700 H671 0.930 . S
C700 C695 1.261 . S
C700 C699 1.312 . S
C701 O673 1.214 . S
C701 O681 1.234 . S
C702 H674 0.929 . S
C702 C705 1.391 . S
C702 C707 1.391 . S
C703 H675 0.929 . S
C703 C704 1.390 . S
C703 N706 1.391 . S
C704 H676 0.930 . S
C704 C703 1.390 . S
C704 C705 1.392 . S
C705 H677 0.929 . S
C705 C702 1.391 . S
C705 C704 1.392 . S
N706 Co650 2.257 . S
N706 C703 1.391 . S
N706 C707 1.388 . S
C707 H678 0.930 . S
C707 C702 1.391 . S
C707 N706 1.388 . S
Co708 O710 2.143 . S
Co708 O716 2.074 . S
Co708 O719 2.093 . S
Co708 O732 2.097 . S
Co708 N749 2.151 . S
Co708 N757 2.214 . S
Co709 O710 2.160 . S
Co709 O715 2.058 . S
Co709 O725 2.057 . S
Co709 O740 2.037 . S
Co709 N744 2.145 . S
Co709 N765 2.257 . S
O710 Co708 2.143 . S
O710 Co709 2.160 . S
C711 O712 1.278 . S
C711 O719 1.224 . S
O712 C711 1.278 . S
C713 O714 1.245 . S
C713 O725 1.232 . S
O714 C713 1.245 . S
O715 Co709 2.058 . S
O715 C741 1.269 . S
O716 Co708 2.074 . S
O716 C741 1.257 . S
H717 C742 0.930 . S
H718 C748 0.930 . S
O719 Co708 2.093 . S
O719 C711 1.224 . S
H720 C752 0.929 . S
H721 C754 0.930 . S
H722 C755 0.930 . S
H723 C753 0.929 . S
H724 C756 0.928 . S
O725 Co709 2.057 . S
O725 C713 1.232 . S
H726 C745 0.929 . S
H727 C746 0.929 . S
H728 C758 0.931 . S
H729 C750 0.929 . S
H730 C759 0.930 . S
H731 C751 0.931 . S
O732 Co708 2.097 . S
O732 C760 1.214 . S
H733 C761 0.929 . S
H734 C762 0.929 . S
H735 C763 0.930 . S
H736 C764 0.929 . S
H737 C766 0.930 . S
H738 C743 0.930 . S
H739 C747 0.930 . S
O740 Co709 2.037 . S
O740 C760 1.234 . S
C741 O715 1.269 . S
C741 O716 1.257 . S
C742 H717 0.930 . S
C742 C745 1.388 . S
C742 C747 1.418 . S
C743 H738 0.930 . S
C743 C746 1.404 . S
C743 C747 1.353 . S
N744 Co709 2.145 . S
N744 C745 1.397 . S
N744 C746 1.334 . S
C745 H726 0.929 . S
C745 C742 1.388 . S
C745 N744 1.397 . S
C746 H727 0.929 . S
C746 C743 1.404 . S
C746 N744 1.334 . S
C747 H739 0.930 . S
C747 C742 1.418 . S
C747 C743 1.353 . S
C748 H718 0.930 . S
C748 N749 1.330 . S
C748 C750 1.446 . S
N749 Co708 2.151 . S
N749 C748 1.330 . S
N749 C753 1.418 . S
C750 H729 0.929 . S
C750 C748 1.446 . S
C750 C751 1.332 . S
C751 H731 0.931 . S
C751 C750 1.332 . S
C751 C752 1.267 . S
C752 H720 0.929 . S
C752 C751 1.267 . S
C752 C753 1.251 . S
C753 H723 0.929 . S
C753 N749 1.418 . S
C753 C752 1.251 . S
C754 H721 0.930 . S
C754 C756 1.406 . S
C754 C759 1.261 . S
C755 H722 0.930 . S
C755 N757 1.325 . S
C755 C758 1.357 . S
C756 H724 0.928 . S
C756 C754 1.406 . S
C756 N757 1.261 . S
N757 Co708 2.214 . S
N757 C755 1.325 . S
N757 C756 1.261 . S
C758 H728 0.931 . S
C758 C755 1.357 . S
C758 C759 1.312 . S
C759 H730 0.930 . S
C759 C754 1.261 . S
C759 C758 1.312 . S
C760 O732 1.214 . S
C760 O740 1.234 . S
C761 H733 0.929 . S
C761 C764 1.391 . S
C761 C766 1.391 . S
C762 H734 0.929 . S
C762 C763 1.390 . S
C762 N765 1.391 . S
C763 H735 0.930 . S
C763 C762 1.390 . S
C763 C764 1.392 . S
C764 H736 0.929 . S
C764 C761 1.391 . S
C764 C763 1.392 . S
N765 Co709 2.257 . S
N765 C762 1.391 . S
N765 C766 1.388 . S
C766 H737 0.930 . S
C766 C761 1.391 . S
C766 N765 1.388 . S
Co767 O769 2.143 . S
Co767 O775 2.074 . S
Co767 O778 2.093 . S
Co767 O791 2.097 . S
Co767 N808 2.151 . S
Co767 N816 2.214 . S
Co768 O769 2.160 . S
Co768 O774 2.058 . S
Co768 O784 2.057 . S
Co768 O799 2.037 . S
Co768 N803 2.145 . S
Co768 N824 2.257 . S
O769 Co767 2.143 . S
O769 Co768 2.160 . S
C770 O771 1.278 . S
C770 O778 1.224 . S
O771 C770 1.278 . S
C772 O773 1.245 . S
C772 O784 1.232 . S
O773 C772 1.245 . S
O774 Co768 2.058 . S
O774 C800 1.269 . S
O775 Co767 2.074 . S
O775 C800 1.257 . S
H776 C801 0.930 . S
H777 C807 0.930 . S
O778 Co767 2.093 . S
O778 C770 1.224 . S
H779 C811 0.929 . S
H780 C813 0.930 . S
H781 C814 0.930 . S
H782 C812 0.929 . S
H783 C815 0.928 . S
O784 Co768 2.057 . S
O784 C772 1.232 . S
H785 C804 0.929 . S
H786 C805 0.929 . S
H787 C817 0.931 . S
H788 C809 0.929 . S
H789 C818 0.930 . S
H790 C810 0.931 . S
O791 Co767 2.097 . S
O791 C819 1.214 . S
H792 C820 0.929 . S
H793 C821 0.929 . S
H794 C822 0.930 . S
H795 C823 0.929 . S
H796 C825 0.930 . S
H797 C802 0.930 . S
H798 C806 0.930 . S
O799 Co768 2.037 . S
O799 C819 1.234 . S
C800 O774 1.269 . S
C800 O775 1.257 . S
C801 H776 0.930 . S
C801 C804 1.388 . S
C801 C806 1.418 . S
C802 H797 0.930 . S
C802 C805 1.404 . S
C802 C806 1.353 . S
N803 Co768 2.145 . S
N803 C804 1.397 . S
N803 C805 1.334 . S
C804 H785 0.929 . S
C804 C801 1.388 . S
C804 N803 1.397 . S
C805 H786 0.929 . S
C805 C802 1.404 . S
C805 N803 1.334 . S
C806 H798 0.930 . S
C806 C801 1.418 . S
C806 C802 1.353 . S
C807 H777 0.930 . S
C807 N808 1.330 . S
C807 C809 1.446 . S
N808 Co767 2.151 . S
N808 C807 1.330 . S
N808 C812 1.418 . S
C809 H788 0.929 . S
C809 C807 1.446 . S
C809 C810 1.332 . S
C810 H790 0.931 . S
C810 C809 1.332 . S
C810 C811 1.267 . S
C811 H779 0.929 . S
C811 C810 1.267 . S
C811 C812 1.251 . S
C812 H782 0.929 . S
C812 N808 1.418 . S
C812 C811 1.251 . S
C813 H780 0.930 . S
C813 C815 1.406 . S
C813 C818 1.261 . S
C814 H781 0.930 . S
C814 N816 1.325 . S
C814 C817 1.357 . S
C815 H783 0.928 . S
C815 C813 1.406 . S
C815 N816 1.261 . S
N816 Co767 2.214 . S
N816 C814 1.325 . S
N816 C815 1.261 . S
C817 H787 0.931 . S
C817 C814 1.357 . S
C817 C818 1.312 . S
C818 H789 0.930 . S
C818 C813 1.261 . S
C818 C817 1.312 . S
C819 O791 1.214 . S
C819 O799 1.234 . S
C820 H792 0.929 . S
C820 C823 1.391 . S
C820 C825 1.391 . S
C821 H793 0.929 . S
C821 C822 1.390 . S
C821 N824 1.391 . S
C822 H794 0.930 . S
C822 C821 1.390 . S
C822 C823 1.392 . S
C823 H795 0.929 . S
C823 C820 1.391 . S
C823 C822 1.392 . S
N824 Co768 2.257 . S
N824 C821 1.391 . S
N824 C825 1.388 . S
C825 H796 0.930 . S
C825 C820 1.391 . S
C825 N824 1.388 . S
Co826 O828 2.143 . S
Co826 O834 2.074 . S
Co826 O837 2.093 . S
Co826 O850 2.097 . S
Co826 N867 2.151 . S
Co826 N875 2.214 . S
Co827 O828 2.160 . S
Co827 O833 2.058 . S
Co827 O843 2.057 . S
Co827 O858 2.037 . S
Co827 N862 2.145 . S
Co827 N883 2.257 . S
O828 Co826 2.143 . S
O828 Co827 2.160 . S
C829 O830 1.278 . S
C829 O837 1.224 . S
O830 C829 1.278 . S
C831 O832 1.245 . S
C831 O843 1.232 . S
O832 C831 1.245 . S
O833 Co827 2.058 . S
O833 C859 1.269 . S
O834 Co826 2.074 . S
O834 C859 1.257 . S
H835 C860 0.930 . S
H836 C866 0.930 . S
O837 Co826 2.093 . S
O837 C829 1.224 . S
H838 C870 0.929 . S
H839 C872 0.930 . S
H840 C873 0.930 . S
H841 C871 0.929 . S
H842 C874 0.928 . S
O843 Co827 2.057 . S
O843 C831 1.232 . S
H844 C863 0.929 . S
H845 C864 0.929 . S
H846 C876 0.931 . S
H847 C868 0.929 . S
H848 C877 0.930 . S
H849 C869 0.931 . S
O850 Co826 2.097 . S
O850 C878 1.214 . S
H851 C879 0.929 . S
H852 C880 0.929 . S
H853 C881 0.930 . S
H854 C882 0.929 . S
H855 C884 0.930 . S
H856 C861 0.930 . S
H857 C865 0.930 . S
O858 Co827 2.037 . S
O858 C878 1.234 . S
C859 O833 1.269 . S
C859 O834 1.257 . S
C860 H835 0.930 . S
C860 C863 1.388 . S
C860 C865 1.418 . S
C861 H856 0.930 . S
C861 C864 1.404 . S
C861 C865 1.353 . S
N862 Co827 2.145 . S
N862 C863 1.397 . S
N862 C864 1.334 . S
C863 H844 0.929 . S
C863 C860 1.388 . S
C863 N862 1.397 . S
C864 H845 0.929 . S
C864 C861 1.404 . S
C864 N862 1.334 . S
C865 H857 0.930 . S
C865 C860 1.418 . S
C865 C861 1.353 . S
C866 H836 0.930 . S
C866 N867 1.330 . S
C866 C868 1.446 . S
N867 Co826 2.151 . S
N867 C866 1.330 . S
N867 C871 1.418 . S
C868 H847 0.929 . S
C868 C866 1.446 . S
C868 C869 1.332 . S
C869 H849 0.931 . S
C869 C868 1.332 . S
C869 C870 1.267 . S
C870 H838 0.929 . S
C870 C869 1.267 . S
C870 C871 1.251 . S
C871 H841 0.929 . S
C871 N867 1.418 . S
C871 C870 1.251 . S
C872 H839 0.930 . S
C872 C874 1.406 . S
C872 C877 1.261 . S
C873 H840 0.930 . S
C873 N875 1.325 . S
C873 C876 1.357 . S
C874 H842 0.928 . S
C874 C872 1.406 . S
C874 N875 1.261 . S
N875 Co826 2.214 . S
N875 C873 1.325 . S
N875 C874 1.261 . S
C876 H846 0.931 . S
C876 C873 1.357 . S
C876 C877 1.312 . S
C877 H848 0.930 . S
C877 C872 1.261 . S
C877 C876 1.312 . S
C878 O850 1.214 . S
C878 O858 1.234 . S
C879 H851 0.929 . S
C879 C882 1.391 . S
C879 C884 1.391 . S
C880 H852 0.929 . S
C880 C881 1.390 . S
C880 N883 1.391 . S
C881 H853 0.930 . S
C881 C880 1.390 . S
C881 C882 1.392 . S
C882 H854 0.929 . S
C882 C879 1.391 . S
C882 C881 1.392 . S
N883 Co827 2.257 . S
N883 C880 1.391 . S
N883 C884 1.388 . S
C884 H855 0.930 . S
C884 C879 1.391 . S
C884 N883 1.388 . S
Co885 O887 2.143 . S
Co885 O893 2.074 . S
Co885 O896 2.093 . S
Co885 O909 2.097 . S
Co885 N926 2.151 . S
Co885 N934 2.214 . S
Co886 O887 2.160 . S
Co886 O892 2.058 . S
Co886 O902 2.057 . S
Co886 O917 2.037 . S
Co886 N921 2.145 . S
Co886 N942 2.257 . S
O887 Co885 2.143 . S
O887 Co886 2.160 . S
C888 O889 1.278 . S
C888 O896 1.224 . S
O889 C888 1.278 . S
C890 O891 1.245 . S
C890 O902 1.232 . S
O891 C890 1.245 . S
O892 Co886 2.058 . S
O892 C918 1.269 . S
O893 Co885 2.074 . S
O893 C918 1.257 . S
H894 C919 0.930 . S
H895 C925 0.930 . S
O896 Co885 2.093 . S
O896 C888 1.224 . S
H897 C929 0.929 . S
H898 C931 0.930 . S
H899 C932 0.930 . S
H900 C930 0.929 . S
H901 C933 0.928 . S
O902 Co886 2.057 . S
O902 C890 1.232 . S
H903 C922 0.929 . S
H904 C923 0.929 . S
H905 C935 0.931 . S
H906 C927 0.929 . S
H907 C936 0.930 . S
H908 C928 0.931 . S
O909 Co885 2.097 . S
O909 C937 1.214 . S
H910 C938 0.929 . S
H911 C939 0.929 . S
H912 C940 0.930 . S
H913 C941 0.929 . S
H914 C943 0.930 . S
H915 C920 0.930 . S
H916 C924 0.930 . S
O917 Co886 2.037 . S
O917 C937 1.234 . S
C918 O892 1.269 . S
C918 O893 1.257 . S
C919 H894 0.930 . S
C919 C922 1.388 . S
C919 C924 1.418 . S
C920 H915 0.930 . S
C920 C923 1.404 . S
C920 C924 1.353 . S
N921 Co886 2.145 . S
N921 C922 1.397 . S
N921 C923 1.334 . S
C922 H903 0.929 . S
C922 C919 1.388 . S
C922 N921 1.397 . S
C923 H904 0.929 . S
C923 C920 1.404 . S
C923 N921 1.334 . S
C924 H916 0.930 . S
C924 C919 1.418 . S
C924 C920 1.353 . S
C925 H895 0.930 . S
C925 N926 1.330 . S
C925 C927 1.446 . S
N926 Co885 2.151 . S
N926 C925 1.330 . S
N926 C930 1.418 . S
C927 H906 0.929 . S
C927 C925 1.446 . S
C927 C928 1.332 . S
C928 H908 0.931 . S
C928 C927 1.332 . S
C928 C929 1.267 . S
C929 H897 0.929 . S
C929 C928 1.267 . S
C929 C930 1.251 . S
C930 H900 0.929 . S
C930 N926 1.418 . S
C930 C929 1.251 . S
C931 H898 0.930 . S
C931 C933 1.406 . S
C931 C936 1.261 . S
C932 H899 0.930 . S
C932 N934 1.325 . S
C932 C935 1.357 . S
C933 H901 0.928 . S
C933 C931 1.406 . S
C933 N934 1.261 . S
N934 Co885 2.214 . S
N934 C932 1.325 . S
N934 C933 1.261 . S
C935 H905 0.931 . S
C935 C932 1.357 . S
C935 C936 1.312 . S
C936 H907 0.930 . S
C936 C931 1.261 . S
C936 C935 1.312 . S
C937 O909 1.214 . S
C937 O917 1.234 . S
C938 H910 0.929 . S
C938 C941 1.391 . S
C938 C943 1.391 . S
C939 H911 0.929 . S
C939 C940 1.390 . S
C939 N942 1.391 . S
C940 H912 0.930 . S
C940 C939 1.390 . S
C940 C941 1.392 . S
C941 H913 0.929 . S
C941 C938 1.391 . S
C941 C940 1.392 . S
N942 Co886 2.257 . S
N942 C939 1.391 . S
N942 C943 1.388 . S
C943 H914 0.930 . S
C943 C938 1.391 . S
C943 N942 1.388 . S
Co944 O946 2.143 . S
Co944 O952 2.074 . S
Co944 O955 2.093 . S
Co944 O968 2.097 . S
Co944 N985 2.151 . S
Co944 N993 2.214 . S
Co945 O946 2.160 . S
Co945 O951 2.058 . S
Co945 O961 2.057 . S
Co945 O976 2.037 . S
Co945 N980 2.145 . S
Co945 N1001 2.257 . S
O946 Co944 2.143 . S
O946 Co945 2.160 . S
C947 O948 1.278 . S
C947 O955 1.224 . S
O948 C947 1.278 . S
C949 O950 1.245 . S
C949 O961 1.232 . S
O950 C949 1.245 . S
O951 Co945 2.058 . S
O951 C977 1.269 . S
O952 Co944 2.074 . S
O952 C977 1.257 . S
H953 C978 0.930 . S
H954 C984 0.930 . S
O955 Co944 2.093 . S
O955 C947 1.224 . S
H956 C988 0.929 . S
H957 C990 0.930 . S
H958 C991 0.930 . S
H959 C989 0.929 . S
H960 C992 0.928 . S
O961 Co945 2.057 . S
O961 C949 1.232 . S
H962 C981 0.929 . S
H963 C982 0.929 . S
H964 C994 0.931 . S
H965 C986 0.929 . S
H966 C995 0.930 . S
H967 C987 0.931 . S
O968 Co944 2.097 . S
O968 C996 1.214 . S
H969 C997 0.929 . S
H970 C998 0.929 . S
H971 C999 0.930 . S
H972 C1000 0.929 . S
H973 C1002 0.930 . S
H974 C979 0.930 . S
H975 C983 0.930 . S
O976 Co945 2.037 . S
O976 C996 1.234 . S
C977 O951 1.269 . S
C977 O952 1.257 . S
C978 H953 0.930 . S
C978 C981 1.388 . S
C978 C983 1.418 . S
C979 H974 0.930 . S
C979 C982 1.404 . S
C979 C983 1.353 . S
N980 Co945 2.145 . S
N980 C981 1.397 . S
N980 C982 1.334 . S
C981 H962 0.929 . S
C981 C978 1.388 . S
C981 N980 1.397 . S
C982 H963 0.929 . S
C982 C979 1.404 . S
C982 N980 1.334 . S
C983 H975 0.930 . S
C983 C978 1.418 . S
C983 C979 1.353 . S
C984 H954 0.930 . S
C984 N985 1.330 . S
C984 C986 1.446 . S
N985 Co944 2.151 . S
N985 C984 1.330 . S
N985 C989 1.418 . S
C986 H965 0.929 . S
C986 C984 1.446 . S
C986 C987 1.332 . S
C987 H967 0.931 . S
C987 C986 1.332 . S
C987 C988 1.267 . S
C988 H956 0.929 . S
C988 C987 1.267 . S
C988 C989 1.251 . S
C989 H959 0.929 . S
C989 N985 1.418 . S
C989 C988 1.251 . S
C990 H957 0.930 . S
C990 C992 1.406 . S
C990 C995 1.261 . S
C991 H958 0.930 . S
C991 N993 1.325 . S
C991 C994 1.357 . S
C992 H960 0.928 . S
C992 C990 1.406 . S
C992 N993 1.261 . S
N993 Co944 2.214 . S
N993 C991 1.325 . S
N993 C992 1.261 . S
C994 H964 0.931 . S
C994 C991 1.357 . S
C994 C995 1.312 . S
C995 H966 0.930 . S
C995 C990 1.261 . S
C995 C994 1.312 . S
C996 O968 1.214 . S
C996 O976 1.234 . S
C997 H969 0.929 . S
C997 C1000 1.391 . S
C997 C1002 1.391 . S
C998 H970 0.929 . S
C998 C999 1.390 . S
C998 N1001 1.391 . S
C999 H971 0.930 . S
C999 C998 1.390 . S
C999 C1000 1.392 . S
C1000 H972 0.929 . S
C1000 C997 1.391 . S
C1000 C999 1.392 . S
N1001 Co945 2.257 . S
N1001 C998 1.391 . S
N1001 C1002 1.388 . S
C1002 H973 0.930 . S
C1002 C997 1.391 . S
C1002 N1001 1.388 . S
Co1003 O1005 2.143 . S
Co1003 O1011 2.074 . S
Co1003 O1014 2.093 . S
Co1003 O1027 2.097 . S
Co1003 N1044 2.151 . S
Co1003 N1052 2.214 . S
Co1004 O1005 2.160 . S
Co1004 O1010 2.058 . S
Co1004 O1020 2.057 . S
Co1004 O1035 2.037 . S
Co1004 N1039 2.145 . S
Co1004 N1060 2.257 . S
O1005 Co1003 2.143 . S
O1005 Co1004 2.160 . S
C1006 O1007 1.278 . S
C1006 O1014 1.224 . S
O1007 C1006 1.278 . S
C1008 O1009 1.245 . S
C1008 O1020 1.232 . S
O1009 C1008 1.245 . S
O1010 Co1004 2.058 . S
O1010 C1036 1.269 . S
O1011 Co1003 2.074 . S
O1011 C1036 1.257 . S
H1012 C1037 0.930 . S
H1013 C1043 0.930 . S
O1014 Co1003 2.093 . S
O1014 C1006 1.224 . S
H1015 C1047 0.929 . S
H1016 C1049 0.930 . S
H1017 C1050 0.930 . S
H1018 C1048 0.929 . S
H1019 C1051 0.928 . S
O1020 Co1004 2.057 . S
O1020 C1008 1.232 . S
H1021 C1040 0.929 . S
H1022 C1041 0.929 . S
H1023 C1053 0.931 . S
H1024 C1045 0.929 . S
H1025 C1054 0.930 . S
H1026 C1046 0.931 . S
O1027 Co1003 2.097 . S
O1027 C1055 1.214 . S
H1028 C1056 0.929 . S
H1029 C1057 0.929 . S
H1030 C1058 0.930 . S
H1031 C1059 0.929 . S
H1032 C1061 0.930 . S
H1033 C1038 0.930 . S
H1034 C1042 0.930 . S
O1035 Co1004 2.037 . S
O1035 C1055 1.234 . S
C1036 O1010 1.269 . S
C1036 O1011 1.257 . S
C1037 H1012 0.930 . S
C1037 C1040 1.388 . S
C1037 C1042 1.418 . S
C1038 H1033 0.930 . S
C1038 C1041 1.404 . S
C1038 C1042 1.353 . S
N1039 Co1004 2.145 . S
N1039 C1040 1.397 . S
N1039 C1041 1.334 . S
C1040 H1021 0.929 . S
C1040 C1037 1.388 . S
C1040 N1039 1.397 . S
C1041 H1022 0.929 . S
C1041 C1038 1.404 . S
C1041 N1039 1.334 . S
C1042 H1034 0.930 . S
C1042 C1037 1.418 . S
C1042 C1038 1.353 . S
C1043 H1013 0.930 . S
C1043 N1044 1.330 . S
C1043 C1045 1.446 . S
N1044 Co1003 2.151 . S
N1044 C1043 1.330 . S
N1044 C1048 1.418 . S
C1045 H1024 0.929 . S
C1045 C1043 1.446 . S
C1045 C1046 1.332 . S
C1046 H1026 0.931 . S
C1046 C1045 1.332 . S
C1046 C1047 1.267 . S
C1047 H1015 0.929 . S
C1047 C1046 1.267 . S
C1047 C1048 1.251 . S
C1048 H1018 0.929 . S
C1048 N1044 1.418 . S
C1048 C1047 1.251 . S
C1049 H1016 0.930 . S
C1049 C1051 1.406 . S
C1049 C1054 1.261 . S
C1050 H1017 0.930 . S
C1050 N1052 1.325 . S
C1050 C1053 1.357 . S
C1051 H1019 0.928 . S
C1051 C1049 1.406 . S
C1051 N1052 1.261 . S
N1052 Co1003 2.214 . S
N1052 C1050 1.325 . S
N1052 C1051 1.261 . S
C1053 H1023 0.931 . S
C1053 C1050 1.357 . S
C1053 C1054 1.312 . S
C1054 H1025 0.930 . S
C1054 C1049 1.261 . S
C1054 C1053 1.312 . S
C1055 O1027 1.214 . S
C1055 O1035 1.234 . S
C1056 H1028 0.929 . S
C1056 C1059 1.391 . S
C1056 C1061 1.391 . S
C1057 H1029 0.929 . S
C1057 C1058 1.390 . S
C1057 N1060 1.391 . S
C1058 H1030 0.930 . S
C1058 C1057 1.390 . S
C1058 C1059 1.392 . S
C1059 H1031 0.929 . S
C1059 C1056 1.391 . S
C1059 C1058 1.392 . S
N1060 Co1004 2.257 . S
N1060 C1057 1.391 . S
N1060 C1061 1.388 . S
C1061 H1032 0.930 . S
C1061 C1056 1.391 . S
C1061 N1060 1.388 . S
Co1062 O1064 2.143 . S
Co1062 O1070 2.074 . S
Co1062 O1073 2.093 . S
Co1062 O1086 2.097 . S
Co1062 N1103 2.151 . S
Co1062 N1111 2.214 . S
Co1063 O1064 2.160 . S
Co1063 O1069 2.058 . S
Co1063 O1079 2.057 . S
Co1063 O1094 2.037 . S
Co1063 N1098 2.145 . S
Co1063 N1119 2.257 . S
O1064 Co1062 2.143 . S
O1064 Co1063 2.160 . S
C1065 O1066 1.278 . S
C1065 O1073 1.224 . S
O1066 C1065 1.278 . S
C1067 O1068 1.245 . S
C1067 O1079 1.232 . S
O1068 C1067 1.245 . S
O1069 Co1063 2.058 . S
O1069 C1095 1.269 . S
O1070 Co1062 2.074 . S
O1070 C1095 1.257 . S
H1071 C1096 0.930 . S
H1072 C1102 0.930 . S
O1073 Co1062 2.093 . S
O1073 C1065 1.224 . S
H1074 C1106 0.929 . S
H1075 C1108 0.930 . S
H1076 C1109 0.930 . S
H1077 C1107 0.929 . S
H1078 C1110 0.928 . S
O1079 Co1063 2.057 . S
O1079 C1067 1.232 . S
H1080 C1099 0.929 . S
H1081 C1100 0.929 . S
H1082 C1112 0.931 . S
H1083 C1104 0.929 . S
H1084 C1113 0.930 . S
H1085 C1105 0.931 . S
O1086 Co1062 2.097 . S
O1086 C1114 1.214 . S
H1087 C1115 0.929 . S
H1088 C1116 0.929 . S
H1089 C1117 0.930 . S
H1090 C1118 0.929 . S
H1091 C1120 0.930 . S
H1092 C1097 0.930 . S
H1093 C1101 0.930 . S
O1094 Co1063 2.037 . S
O1094 C1114 1.234 . S
C1095 O1069 1.269 . S
C1095 O1070 1.257 . S
C1096 H1071 0.930 . S
C1096 C1099 1.388 . S
C1096 C1101 1.418 . S
C1097 H1092 0.930 . S
C1097 C1100 1.404 . S
C1097 C1101 1.353 . S
N1098 Co1063 2.145 . S
N1098 C1099 1.397 . S
N1098 C1100 1.334 . S
C1099 H1080 0.929 . S
C1099 C1096 1.388 . S
C1099 N1098 1.397 . S
C1100 H1081 0.929 . S
C1100 C1097 1.404 . S
C1100 N1098 1.334 . S
C1101 H1093 0.930 . S
C1101 C1096 1.418 . S
C1101 C1097 1.353 . S
C1102 H1072 0.930 . S
C1102 N1103 1.330 . S
C1102 C1104 1.446 . S
N1103 Co1062 2.151 . S
N1103 C1102 1.330 . S
N1103 C1107 1.418 . S
C1104 H1083 0.929 . S
C1104 C1102 1.446 . S
C1104 C1105 1.332 . S
C1105 H1085 0.931 . S
C1105 C1104 1.332 . S
C1105 C1106 1.267 . S
C1106 H1074 0.929 . S
C1106 C1105 1.267 . S
C1106 C1107 1.251 . S
C1107 H1077 0.929 . S
C1107 N1103 1.418 . S
C1107 C1106 1.251 . S
C1108 H1075 0.930 . S
C1108 C1110 1.406 . S
C1108 C1113 1.261 . S
C1109 H1076 0.930 . S
C1109 N1111 1.325 . S
C1109 C1112 1.357 . S
C1110 H1078 0.928 . S
C1110 C1108 1.406 . S
C1110 N1111 1.261 . S
N1111 Co1062 2.214 . S
N1111 C1109 1.325 . S
N1111 C1110 1.261 . S
C1112 H1082 0.931 . S
C1112 C1109 1.357 . S
C1112 C1113 1.312 . S
C1113 H1084 0.930 . S
C1113 C1108 1.261 . S
C1113 C1112 1.312 . S
C1114 O1086 1.214 . S
C1114 O1094 1.234 . S
C1115 H1087 0.929 . S
C1115 C1118 1.391 . S
C1115 C1120 1.391 . S
C1116 H1088 0.929 . S
C1116 C1117 1.390 . S
C1116 N1119 1.391 . S
C1117 H1089 0.930 . S
C1117 C1116 1.390 . S
C1117 C1118 1.392 . S
C1118 H1090 0.929 . S
C1118 C1115 1.391 . S
C1118 C1117 1.392 . S
N1119 Co1063 2.257 . S
N1119 C1116 1.391 . S
N1119 C1120 1.388 . S
C1120 H1091 0.930 . S
C1120 C1115 1.391 . S
C1120 N1119 1.388 . S
Co1121 O1123 2.143 . S
Co1121 O1129 2.074 . S
Co1121 O1132 2.093 . S
Co1121 O1145 2.097 . S
Co1121 N1162 2.151 . S
Co1121 N1170 2.214 . S
Co1122 O1123 2.160 . S
Co1122 O1128 2.058 . S
Co1122 O1138 2.057 . S
Co1122 O1153 2.037 . S
Co1122 N1157 2.145 . S
Co1122 N1178 2.257 . S
O1123 Co1121 2.143 . S
O1123 Co1122 2.160 . S
C1124 O1125 1.278 . S
C1124 O1132 1.224 . S
O1125 C1124 1.278 . S
C1126 O1127 1.245 . S
C1126 O1138 1.232 . S
O1127 C1126 1.245 . S
O1128 Co1122 2.058 . S
O1128 C1154 1.269 . S
O1129 Co1121 2.074 . S
O1129 C1154 1.257 . S
H1130 C1155 0.930 . S
H1131 C1161 0.930 . S
O1132 Co1121 2.093 . S
O1132 C1124 1.224 . S
H1133 C1165 0.929 . S
H1134 C1167 0.930 . S
H1135 C1168 0.930 . S
H1136 C1166 0.929 . S
H1137 C1169 0.928 . S
O1138 Co1122 2.057 . S
O1138 C1126 1.232 . S
H1139 C1158 0.929 . S
H1140 C1159 0.929 . S
H1141 C1171 0.931 . S
H1142 C1163 0.929 . S
H1143 C1172 0.930 . S
H1144 C1164 0.931 . S
O1145 Co1121 2.097 . S
O1145 C1173 1.214 . S
H1146 C1174 0.929 . S
H1147 C1175 0.929 . S
H1148 C1176 0.930 . S
H1149 C1177 0.929 . S
H1150 C1179 0.930 . S
H1151 C1156 0.930 . S
H1152 C1160 0.930 . S
O1153 Co1122 2.037 . S
O1153 C1173 1.234 . S
C1154 O1128 1.269 . S
C1154 O1129 1.257 . S
C1155 H1130 0.930 . S
C1155 C1158 1.388 . S
C1155 C1160 1.418 . S
C1156 H1151 0.930 . S
C1156 C1159 1.404 . S
C1156 C1160 1.353 . S
N1157 Co1122 2.145 . S
N1157 C1158 1.397 . S
N1157 C1159 1.334 . S
C1158 H1139 0.929 . S
C1158 C1155 1.388 . S
C1158 N1157 1.397 . S
C1159 H1140 0.929 . S
C1159 C1156 1.404 . S
C1159 N1157 1.334 . S
C1160 H1152 0.930 . S
C1160 C1155 1.418 . S
C1160 C1156 1.353 . S
C1161 H1131 0.930 . S
C1161 N1162 1.330 . S
C1161 C1163 1.446 . S
N1162 Co1121 2.151 . S
N1162 C1161 1.330 . S
N1162 C1166 1.418 . S
C1163 H1142 0.929 . S
C1163 C1161 1.446 . S
C1163 C1164 1.332 . S
C1164 H1144 0.931 . S
C1164 C1163 1.332 . S
C1164 C1165 1.267 . S
C1165 H1133 0.929 . S
C1165 C1164 1.267 . S
C1165 C1166 1.251 . S
C1166 H1136 0.929 . S
C1166 N1162 1.418 . S
C1166 C1165 1.251 . S
C1167 H1134 0.930 . S
C1167 C1169 1.406 . S
C1167 C1172 1.261 . S
C1168 H1135 0.930 . S
C1168 N1170 1.325 . S
C1168 C1171 1.357 . S
C1169 H1137 0.928 . S
C1169 C1167 1.406 . S
C1169 N1170 1.261 . S
N1170 Co1121 2.214 . S
N1170 C1168 1.325 . S
N1170 C1169 1.261 . S
C1171 H1141 0.931 . S
C1171 C1168 1.357 . S
C1171 C1172 1.312 . S
C1172 H1143 0.930 . S
C1172 C1167 1.261 . S
C1172 C1171 1.312 . S
C1173 O1145 1.214 . S
C1173 O1153 1.234 . S
C1174 H1146 0.929 . S
C1174 C1177 1.391 . S
C1174 C1179 1.391 . S
C1175 H1147 0.929 . S
C1175 C1176 1.390 . S
C1175 N1178 1.391 . S
C1176 H1148 0.930 . S
C1176 C1175 1.390 . S
C1176 C1177 1.392 . S
C1177 H1149 0.929 . S
C1177 C1174 1.391 . S
C1177 C1176 1.392 . S
N1178 Co1122 2.257 . S
N1178 C1175 1.391 . S
N1178 C1179 1.388 . S
C1179 H1150 0.930 . S
C1179 C1174 1.391 . S
C1179 N1178 1.388 . S
Co1180 O1182 2.143 . S
Co1180 O1188 2.074 . S
Co1180 O1191 2.093 . S
Co1180 O1204 2.097 . S
Co1180 N1221 2.151 . S
Co1180 N1229 2.214 . S
Co1181 O1182 2.160 . S
Co1181 O1187 2.058 . S
Co1181 O1197 2.057 . S
Co1181 O1212 2.037 . S
Co1181 N1216 2.145 . S
Co1181 N1237 2.257 . S
O1182 Co1180 2.143 . S
O1182 Co1181 2.160 . S
C1183 O1184 1.278 . S
C1183 O1191 1.224 . S
O1184 C1183 1.278 . S
C1185 O1186 1.245 . S
C1185 O1197 1.232 . S
O1186 C1185 1.245 . S
O1187 Co1181 2.058 . S
O1187 C1213 1.269 . S
O1188 Co1180 2.074 . S
O1188 C1213 1.257 . S
H1189 C1214 0.930 . S
H1190 C1220 0.930 . S
O1191 Co1180 2.093 . S
O1191 C1183 1.224 . S
H1192 C1224 0.929 . S
H1193 C1226 0.930 . S
H1194 C1227 0.930 . S
H1195 C1225 0.929 . S
H1196 C1228 0.928 . S
O1197 Co1181 2.057 . S
O1197 C1185 1.232 . S
H1198 C1217 0.929 . S
H1199 C1218 0.929 . S
H1200 C1230 0.931 . S
H1201 C1222 0.929 . S
H1202 C1231 0.930 . S
H1203 C1223 0.931 . S
O1204 Co1180 2.097 . S
O1204 C1232 1.214 . S
H1205 C1233 0.929 . S
H1206 C1234 0.929 . S
H1207 C1235 0.930 . S
H1208 C1236 0.929 . S
H1209 C1238 0.930 . S
H1210 C1215 0.930 . S
H1211 C1219 0.930 . S
O1212 Co1181 2.037 . S
O1212 C1232 1.234 . S
C1213 O1187 1.269 . S
C1213 O1188 1.257 . S
C1214 H1189 0.930 . S
C1214 C1217 1.388 . S
C1214 C1219 1.418 . S
C1215 H1210 0.930 . S
C1215 C1218 1.404 . S
C1215 C1219 1.353 . S
N1216 Co1181 2.145 . S
N1216 C1217 1.397 . S
N1216 C1218 1.334 . S
C1217 H1198 0.929 . S
C1217 C1214 1.388 . S
C1217 N1216 1.397 . S
C1218 H1199 0.929 . S
C1218 C1215 1.404 . S
C1218 N1216 1.334 . S
C1219 H1211 0.930 . S
C1219 C1214 1.418 . S
C1219 C1215 1.353 . S
C1220 H1190 0.930 . S
C1220 N1221 1.330 . S
C1220 C1222 1.446 . S
N1221 Co1180 2.151 . S
N1221 C1220 1.330 . S
N1221 C1225 1.418 . S
C1222 H1201 0.929 . S
C1222 C1220 1.446 . S
C1222 C1223 1.332 . S
C1223 H1203 0.931 . S
C1223 C1222 1.332 . S
C1223 C1224 1.267 . S
C1224 H1192 0.929 . S
C1224 C1223 1.267 . S
C1224 C1225 1.251 . S
C1225 H1195 0.929 . S
C1225 N1221 1.418 . S
C1225 C1224 1.251 . S
C1226 H1193 0.930 . S
C1226 C1228 1.406 . S
C1226 C1231 1.261 . S
C1227 H1194 0.930 . S
C1227 N1229 1.325 . S
C1227 C1230 1.357 . S
C1228 H1196 0.928 . S
C1228 C1226 1.406 . S
C1228 N1229 1.261 . S
N1229 Co1180 2.214 . S
N1229 C1227 1.325 . S
N1229 C1228 1.261 . S
C1230 H1200 0.931 . S
C1230 C1227 1.357 . S
C1230 C1231 1.312 . S
C1231 H1202 0.930 . S
C1231 C1226 1.261 . S
C1231 C1230 1.312 . S
C1232 O1204 1.214 . S
C1232 O1212 1.234 . S
C1233 H1205 0.929 . S
C1233 C1236 1.391 . S
C1233 C1238 1.391 . S
C1234 H1206 0.929 . S
C1234 C1235 1.390 . S
C1234 N1237 1.391 . S
C1235 H1207 0.930 . S
C1235 C1234 1.390 . S
C1235 C1236 1.392 . S
C1236 H1208 0.929 . S
C1236 C1233 1.391 . S
C1236 C1235 1.392 . S
N1237 Co1181 2.257 . S
N1237 C1234 1.391 . S
N1237 C1238 1.388 . S
C1238 H1209 0.930 . S
C1238 C1233 1.391 . S
C1238 N1237 1.388 . S
Co1239 O1241 2.143 . S
Co1239 O1247 2.074 . S
Co1239 O1250 2.093 . S
Co1239 O1263 2.097 . S
Co1239 N1280 2.151 . S
Co1239 N1288 2.214 . S
Co1240 O1241 2.160 . S
Co1240 O1246 2.058 . S
Co1240 O1256 2.057 . S
Co1240 O1271 2.037 . S
Co1240 N1275 2.145 . S
Co1240 N1296 2.257 . S
O1241 Co1239 2.143 . S
O1241 Co1240 2.160 . S
C1242 O1243 1.278 . S
C1242 O1250 1.224 . S
O1243 C1242 1.278 . S
C1244 O1245 1.245 . S
C1244 O1256 1.232 . S
O1245 C1244 1.245 . S
O1246 Co1240 2.058 . S
O1246 C1272 1.269 . S
O1247 Co1239 2.074 . S
O1247 C1272 1.257 . S
H1248 C1273 0.930 . S
H1249 C1279 0.930 . S
O1250 Co1239 2.093 . S
O1250 C1242 1.224 . S
H1251 C1283 0.929 . S
H1252 C1285 0.930 . S
H1253 C1286 0.930 . S
H1254 C1284 0.929 . S
H1255 C1287 0.928 . S
O1256 Co1240 2.057 . S
O1256 C1244 1.232 . S
H1257 C1276 0.929 . S
H1258 C1277 0.929 . S
H1259 C1289 0.931 . S
H1260 C1281 0.929 . S
H1261 C1290 0.930 . S
H1262 C1282 0.931 . S
O1263 Co1239 2.097 . S
O1263 C1291 1.214 . S
H1264 C1292 0.929 . S
H1265 C1293 0.929 . S
H1266 C1294 0.930 . S
H1267 C1295 0.929 . S
H1268 C1297 0.930 . S
H1269 C1274 0.930 . S
H1270 C1278 0.930 . S
O1271 Co1240 2.037 . S
O1271 C1291 1.234 . S
C1272 O1246 1.269 . S
C1272 O1247 1.257 . S
C1273 H1248 0.930 . S
C1273 C1276 1.388 . S
C1273 C1278 1.418 . S
C1274 H1269 0.930 . S
C1274 C1277 1.404 . S
C1274 C1278 1.353 . S
N1275 Co1240 2.145 . S
N1275 C1276 1.397 . S
N1275 C1277 1.334 . S
C1276 H1257 0.929 . S
C1276 C1273 1.388 . S
C1276 N1275 1.397 . S
C1277 H1258 0.929 . S
C1277 C1274 1.404 . S
C1277 N1275 1.334 . S
C1278 H1270 0.930 . S
C1278 C1273 1.418 . S
C1278 C1274 1.353 . S
C1279 H1249 0.930 . S
C1279 N1280 1.330 . S
C1279 C1281 1.446 . S
N1280 Co1239 2.151 . S
N1280 C1279 1.330 . S
N1280 C1284 1.418 . S
C1281 H1260 0.929 . S
C1281 C1279 1.446 . S
C1281 C1282 1.332 . S
C1282 H1262 0.931 . S
C1282 C1281 1.332 . S
C1282 C1283 1.267 . S
C1283 H1251 0.929 . S
C1283 C1282 1.267 . S
C1283 C1284 1.251 . S
C1284 H1254 0.929 . S
C1284 N1280 1.418 . S
C1284 C1283 1.251 . S
C1285 H1252 0.930 . S
C1285 C1287 1.406 . S
C1285 C1290 1.261 . S
C1286 H1253 0.930 . S
C1286 N1288 1.325 . S
C1286 C1289 1.357 . S
C1287 H1255 0.928 . S
C1287 C1285 1.406 . S
C1287 N1288 1.261 . S
N1288 Co1239 2.214 . S
N1288 C1286 1.325 . S
N1288 C1287 1.261 . S
C1289 H1259 0.931 . S
C1289 C1286 1.357 . S
C1289 C1290 1.312 . S
C1290 H1261 0.930 . S
C1290 C1285 1.261 . S
C1290 C1289 1.312 . S
C1291 O1263 1.214 . S
C1291 O1271 1.234 . S
C1292 H1264 0.929 . S
C1292 C1295 1.391 . S
C1292 C1297 1.391 . S
C1293 H1265 0.929 . S
C1293 C1294 1.390 . S
C1293 N1296 1.391 . S
C1294 H1266 0.930 . S
C1294 C1293 1.390 . S
C1294 C1295 1.392 . S
C1295 H1267 0.929 . S
C1295 C1292 1.391 . S
C1295 C1294 1.392 . S
N1296 Co1240 2.257 . S
N1296 C1293 1.391 . S
N1296 C1297 1.388 . S
C1297 H1268 0.930 . S
C1297 C1292 1.391 . S
C1297 N1296 1.388 . S
Co1298 O1300 2.143 . S
Co1298 O1306 2.074 . S
Co1298 O1309 2.093 . S
Co1298 O1322 2.097 . S
Co1298 N1339 2.151 . S
Co1298 N1347 2.214 . S
Co1299 O1300 2.160 . S
Co1299 O1305 2.058 . S
Co1299 O1315 2.057 . S
Co1299 O1330 2.037 . S
Co1299 N1334 2.145 . S
Co1299 N1355 2.257 . S
O1300 Co1298 2.143 . S
O1300 Co1299 2.160 . S
C1301 O1302 1.278 . S
C1301 O1309 1.224 . S
O1302 C1301 1.278 . S
C1303 O1304 1.245 . S
C1303 O1315 1.232 . S
O1304 C1303 1.245 . S
O1305 Co1299 2.058 . S
O1305 C1331 1.269 . S
O1306 Co1298 2.074 . S
O1306 C1331 1.257 . S
H1307 C1332 0.930 . S
H1308 C1338 0.930 . S
O1309 Co1298 2.093 . S
O1309 C1301 1.224 . S
H1310 C1342 0.929 . S
H1311 C1344 0.930 . S
H1312 C1345 0.930 . S
H1313 C1343 0.929 . S
H1314 C1346 0.928 . S
O1315 Co1299 2.057 . S
O1315 C1303 1.232 . S
H1316 C1335 0.929 . S
H1317 C1336 0.929 . S
H1318 C1348 0.931 . S
H1319 C1340 0.929 . S
H1320 C1349 0.930 . S
H1321 C1341 0.931 . S
O1322 Co1298 2.097 . S
O1322 C1350 1.214 . S
H1323 C1351 0.929 . S
H1324 C1352 0.929 . S
H1325 C1353 0.930 . S
H1326 C1354 0.929 . S
H1327 C1356 0.930 . S
H1328 C1333 0.930 . S
H1329 C1337 0.930 . S
O1330 Co1299 2.037 . S
O1330 C1350 1.234 . S
C1331 O1305 1.269 . S
C1331 O1306 1.257 . S
C1332 H1307 0.930 . S
C1332 C1335 1.388 . S
C1332 C1337 1.418 . S
C1333 H1328 0.930 . S
C1333 C1336 1.404 . S
C1333 C1337 1.353 . S
N1334 Co1299 2.145 . S
N1334 C1335 1.397 . S
N1334 C1336 1.334 . S
C1335 H1316 0.929 . S
C1335 C1332 1.388 . S
C1335 N1334 1.397 . S
C1336 H1317 0.929 . S
C1336 C1333 1.404 . S
C1336 N1334 1.334 . S
C1337 H1329 0.930 . S
C1337 C1332 1.418 . S
C1337 C1333 1.353 . S
C1338 H1308 0.930 . S
C1338 N1339 1.330 . S
C1338 C1340 1.446 . S
N1339 Co1298 2.151 . S
N1339 C1338 1.330 . S
N1339 C1343 1.418 . S
C1340 H1319 0.929 . S
C1340 C1338 1.446 . S
C1340 C1341 1.332 . S
C1341 H1321 0.931 . S
C1341 C1340 1.332 . S
C1341 C1342 1.267 . S
C1342 H1310 0.929 . S
C1342 C1341 1.267 . S
C1342 C1343 1.251 . S
C1343 H1313 0.929 . S
C1343 N1339 1.418 . S
C1343 C1342 1.251 . S
C1344 H1311 0.930 . S
C1344 C1346 1.406 . S
C1344 C1349 1.261 . S
C1345 H1312 0.930 . S
C1345 N1347 1.325 . S
C1345 C1348 1.357 . S
C1346 H1314 0.928 . S
C1346 C1344 1.406 . S
C1346 N1347 1.261 . S
N1347 Co1298 2.214 . S
N1347 C1345 1.325 . S
N1347 C1346 1.261 . S
C1348 H1318 0.931 . S
C1348 C1345 1.357 . S
C1348 C1349 1.312 . S
C1349 H1320 0.930 . S
C1349 C1344 1.261 . S
C1349 C1348 1.312 . S
C1350 O1322 1.214 . S
C1350 O1330 1.234 . S
C1351 H1323 0.929 . S
C1351 C1354 1.391 . S
C1351 C1356 1.391 . S
C1352 H1324 0.929 . S
C1352 C1353 1.390 . S
C1352 N1355 1.391 . S
C1353 H1325 0.930 . S
C1353 C1352 1.390 . S
C1353 C1354 1.392 . S
C1354 H1326 0.929 . S
C1354 C1351 1.391 . S
C1354 C1353 1.392 . S
N1355 Co1299 2.257 . S
N1355 C1352 1.391 . S
N1355 C1356 1.388 . S
C1356 H1327 0.930 . S
C1356 C1351 1.391 . S
C1356 N1355 1.388 . S
Co1357 O1359 2.143 . S
Co1357 O1365 2.074 . S
Co1357 O1368 2.093 . S
Co1357 O1381 2.097 . S
Co1357 N1398 2.151 . S
Co1357 N1406 2.214 . S
Co1358 O1359 2.160 . S
Co1358 O1364 2.058 . S
Co1358 O1374 2.057 . S
Co1358 O1389 2.037 . S
Co1358 N1393 2.145 . S
Co1358 N1414 2.257 . S
O1359 Co1357 2.143 . S
O1359 Co1358 2.160 . S
C1360 O1361 1.278 . S
C1360 O1368 1.224 . S
O1361 C1360 1.278 . S
C1362 O1363 1.245 . S
C1362 O1374 1.232 . S
O1363 C1362 1.245 . S
O1364 Co1358 2.058 . S
O1364 C1390 1.269 . S
O1365 Co1357 2.074 . S
O1365 C1390 1.257 . S
H1366 C1391 0.930 . S
H1367 C1397 0.930 . S
O1368 Co1357 2.093 . S
O1368 C1360 1.224 . S
H1369 C1401 0.929 . S
H1370 C1403 0.930 . S
H1371 C1404 0.930 . S
H1372 C1402 0.929 . S
H1373 C1405 0.928 . S
O1374 Co1358 2.057 . S
O1374 C1362 1.232 . S
H1375 C1394 0.929 . S
H1376 C1395 0.929 . S
H1377 C1407 0.931 . S
H1378 C1399 0.929 . S
H1379 C1408 0.930 . S
H1380 C1400 0.931 . S
O1381 Co1357 2.097 . S
O1381 C1409 1.214 . S
H1382 C1410 0.929 . S
H1383 C1411 0.929 . S
H1384 C1412 0.930 . S
H1385 C1413 0.929 . S
H1386 C1415 0.930 . S
H1387 C1392 0.930 . S
H1388 C1396 0.930 . S
O1389 Co1358 2.037 . S
O1389 C1409 1.234 . S
C1390 O1364 1.269 . S
C1390 O1365 1.257 . S
C1391 H1366 0.930 . S
C1391 C1394 1.388 . S
C1391 C1396 1.418 . S
C1392 H1387 0.930 . S
C1392 C1395 1.404 . S
C1392 C1396 1.353 . S
N1393 Co1358 2.145 . S
N1393 C1394 1.397 . S
N1393 C1395 1.334 . S
C1394 H1375 0.929 . S
C1394 C1391 1.388 . S
C1394 N1393 1.397 . S
C1395 H1376 0.929 . S
C1395 C1392 1.404 . S
C1395 N1393 1.334 . S
C1396 H1388 0.930 . S
C1396 C1391 1.418 . S
C1396 C1392 1.353 . S
C1397 H1367 0.930 . S
C1397 N1398 1.330 . S
C1397 C1399 1.446 . S
N1398 Co1357 2.151 . S
N1398 C1397 1.330 . S
N1398 C1402 1.418 . S
C1399 H1378 0.929 . S
C1399 C1397 1.446 . S
C1399 C1400 1.332 . S
C1400 H1380 0.931 . S
C1400 C1399 1.332 . S
C1400 C1401 1.267 . S
C1401 H1369 0.929 . S
C1401 C1400 1.267 . S
C1401 C1402 1.251 . S
C1402 H1372 0.929 . S
C1402 N1398 1.418 . S
C1402 C1401 1.251 . S
C1403 H1370 0.930 . S
C1403 C1405 1.406 . S
C1403 C1408 1.261 . S
C1404 H1371 0.930 . S
C1404 N1406 1.325 . S
C1404 C1407 1.357 . S
C1405 H1373 0.928 . S
C1405 C1403 1.406 . S
C1405 N1406 1.261 . S
N1406 Co1357 2.214 . S
N1406 C1404 1.325 . S
N1406 C1405 1.261 . S
C1407 H1377 0.931 . S
C1407 C1404 1.357 . S
C1407 C1408 1.312 . S
C1408 H1379 0.930 . S
C1408 C1403 1.261 . S
C1408 C1407 1.312 . S
C1409 O1381 1.214 . S
C1409 O1389 1.234 . S
C1410 H1382 0.929 . S
C1410 C1413 1.391 . S
C1410 C1415 1.391 . S
C1411 H1383 0.929 . S
C1411 C1412 1.390 . S
C1411 N1414 1.391 . S
C1412 H1384 0.930 . S
C1412 C1411 1.390 . S
C1412 C1413 1.392 . S
C1413 H1385 0.929 . S
C1413 C1410 1.391 . S
C1413 C1412 1.392 . S
N1414 Co1358 2.257 . S
N1414 C1411 1.391 . S
N1414 C1415 1.388 . S
C1415 H1386 0.930 . S
C1415 C1410 1.391 . S
C1415 N1414 1.388 . S
C1416 C1417 1.387 . S
C1416 H1420 0.950 . S
C1416 C1425 1.390 1_545 S
C1417 C1416 1.387 . S
C1417 C1419 1.387 . S
H1418 C1425 0.950 . S
C1419 C1417 1.387 . S
C1419 C1421 1.390 1_545 S
C1419 H1423 0.950 . S
H1420 C1416 0.950 . S
C1421 C1419 1.390 1_565 S
C1421 C1422 1.387 . S
C1421 H1424 0.950 . S
C1422 C1421 1.387 . S
C1422 C1425 1.387 . S
H1423 C1419 0.950 . S
H1424 C1421 0.950 . S
C1425 C1416 1.390 1_565 S
C1425 H1418 0.950 . S
C1425 C1422 1.387 . S
C1426 C1427 1.387 . S
C1426 H1430 0.950 . S
C1426 C1435 1.390 . S
C1427 C1426 1.387 . S
C1427 C1429 1.387 . S
H1428 C1435 0.950 . S
C1429 C1427 1.387 . S
C1429 C1431 1.390 . S
C1429 H1433 0.950 . S
H1430 C1426 0.950 . S
C1431 C1429 1.390 . S
C1431 C1432 1.387 . S
C1431 H1434 0.950 . S
C1432 C1431 1.387 . S
C1432 C1435 1.387 . S
H1433 C1429 0.950 . S
H1434 C1431 0.950 . S
C1435 C1426 1.390 . S
C1435 H1428 0.950 . S
C1435 C1432 1.387 . S
C1436 C1437 1.387 . S
C1436 H1440 0.950 . S
C1436 C1445 1.390 1_655 S
C1437 C1436 1.387 . S
C1437 C1439 1.387 . S
H1438 C1445 0.950 . S
C1439 C1437 1.387 . S
C1439 C1441 1.390 1_655 S
C1439 H1443 0.950 . S
H1440 C1436 0.950 . S
C1441 C1439 1.390 1_455 S
C1441 C1442 1.387 . S
C1441 H1444 0.950 . S
C1442 C1441 1.387 . S
C1442 C1445 1.387 . S
H1443 C1439 0.950 . S
H1444 C1441 0.950 . S
C1445 C1436 1.390 1_455 S
C1445 H1438 0.950 . S
C1445 C1442 1.387 . S
C1446 C1447 1.387 . S
C1446 H1450 0.950 . S
C1446 C1455 1.390 1_565 S
C1447 C1446 1.387 . S
C1447 C1449 1.387 . S
H1448 C1455 0.950 . S
C1449 C1447 1.387 . S
C1449 C1451 1.390 1_565 S
C1449 H1453 0.950 . S
H1450 C1446 0.950 . S
C1451 C1449 1.390 1_545 S
C1451 C1452 1.387 . S
C1451 H1454 0.950 . S
C1452 C1451 1.387 . S
C1452 C1455 1.387 . S
H1453 C1449 0.950 . S
H1454 C1451 0.950 . S
C1455 C1446 1.390 1_545 S
C1455 H1448 0.950 . S
C1455 C1452 1.387 . S
C1456 C1457 1.387 . S
C1456 H1460 0.950 . S
C1456 C1465 1.390 . S
C1457 C1456 1.387 . S
C1457 C1459 1.387 . S
H1458 C1465 0.950 . S
C1459 C1457 1.387 . S
C1459 C1461 1.390 . S
C1459 H1463 0.950 . S
H1460 C1456 0.950 . S
C1461 C1459 1.390 . S
C1461 C1462 1.387 . S
C1461 H1464 0.950 . S
C1462 C1461 1.387 . S
C1462 C1465 1.387 . S
H1463 C1459 0.950 . S
H1464 C1461 0.950 . S
C1465 C1456 1.390 . S
C1465 H1458 0.950 . S
C1465 C1462 1.387 . S
C1466 C1467 1.387 . S
C1466 H1470 0.950 . S
C1466 C1475 1.390 1_455 S
C1467 C1466 1.387 . S
C1467 C1469 1.387 . S
H1468 C1475 0.950 . S
C1469 C1467 1.387 . S
C1469 C1471 1.390 1_455 S
C1469 H1473 0.950 . S
H1470 C1466 0.950 . S
C1471 C1469 1.390 1_655 S
C1471 C1472 1.387 . S
C1471 H1474 0.950 . S
C1472 C1471 1.387 . S
C1472 C1475 1.387 . S
H1473 C1469 0.950 . S
H1474 C1471 0.950 . S
C1475 C1466 1.390 1_655 S
C1475 H1468 0.950 . S
C1475 C1472 1.387 . S
C1476 C1477 1.387 . S
C1476 H1480 0.950 . S
C1476 C1485 1.390 1_565 S
C1477 C1476 1.387 . S
C1477 C1479 1.387 . S
H1478 C1485 0.950 . S
C1479 C1477 1.387 . S
C1479 C1481 1.390 1_565 S
C1479 H1483 0.950 . S
H1480 C1476 0.950 . S
C1481 C1479 1.390 1_545 S
C1481 C1482 1.387 . S
C1481 H1484 0.950 . S
C1482 C1481 1.387 . S
C1482 C1485 1.387 . S
H1483 C1479 0.950 . S
H1484 C1481 0.950 . S
C1485 C1476 1.390 1_545 S
C1485 H1478 0.950 . S
C1485 C1482 1.387 . S
C1486 C1487 1.387 . S
C1486 H1490 0.950 . S
C1486 C1495 1.390 . S
C1487 C1486 1.387 . S
C1487 C1489 1.387 . S
H1488 C1495 0.950 . S
C1489 C1487 1.387 . S
C1489 C1491 1.390 . S
C1489 H1493 0.950 . S
H1490 C1486 0.950 . S
C1491 C1489 1.390 . S
C1491 C1492 1.387 . S
C1491 H1494 0.950 . S
C1492 C1491 1.387 . S
C1492 C1495 1.387 . S
H1493 C1489 0.950 . S
H1494 C1491 0.950 . S
C1495 C1486 1.390 . S
C1495 H1488 0.950 . S
C1495 C1492 1.387 . S
C1496 C1497 1.387 . S
C1496 H1500 0.950 . S
C1496 C1505 1.390 1_655 S
C1497 C1496 1.387 . S
C1497 C1499 1.387 . S
H1498 C1505 0.950 . S
C1499 C1497 1.387 . S
C1499 C1501 1.390 1_655 S
C1499 H1503 0.950 . S
H1500 C1496 0.950 . S
C1501 C1499 1.390 1_455 S
C1501 C1502 1.387 . S
C1501 H1504 0.950 . S
C1502 C1501 1.387 . S
C1502 C1505 1.387 . S
H1503 C1499 0.950 . S
H1504 C1501 0.950 . S
C1505 C1496 1.390 1_455 S
C1505 H1498 0.950 . S
C1505 C1502 1.387 . S
C1506 C1507 1.387 . S
C1506 H1510 0.950 . S
C1506 C1515 1.390 1_545 S
C1507 C1506 1.387 . S
C1507 C1509 1.387 . S
H1508 C1515 0.950 . S
C1509 C1507 1.387 . S
C1509 C1511 1.390 1_545 S
C1509 H1513 0.950 . S
H1510 C1506 0.950 . S
C1511 C1509 1.390 1_565 S
C1511 C1512 1.387 . S
C1511 H1514 0.950 . S
C1512 C1511 1.387 . S
C1512 C1515 1.387 . S
H1513 C1509 0.950 . S
H1514 C1511 0.950 . S
C1515 C1506 1.390 1_565 S
C1515 H1508 0.950 . S
C1515 C1512 1.387 . S
C1516 C1517 1.387 . S
C1516 H1520 0.950 . S
C1516 C1525 1.390 . S
C1517 C1516 1.387 . S
C1517 C1519 1.387 . S
H1518 C1525 0.950 . S
C1519 C1517 1.387 . S
C1519 C1521 1.390 . S
C1519 H1523 0.950 . S
H1520 C1516 0.950 . S
C1521 C1519 1.390 . S
C1521 C1522 1.387 . S
C1521 H1524 0.950 . S
C1522 C1521 1.387 . S
C1522 C1525 1.387 . S
H1523 C1519 0.950 . S
H1524 C1521 0.950 . S
C1525 C1516 1.390 . S
C1525 H1518 0.950 . S
C1525 C1522 1.387 . S
C1526 C1527 1.387 . S
C1526 H1530 0.950 . S
C1526 C1535 1.390 1_455 S
C1527 C1526 1.387 . S
C1527 C1529 1.387 . S
H1528 C1535 0.950 . S
C1529 C1527 1.387 . S
C1529 C1531 1.390 1_455 S
C1529 H1533 0.950 . S
H1530 C1526 0.950 . S
C1531 C1529 1.390 1_655 S
C1531 C1532 1.387 . S
C1531 H1534 0.950 . S
C1532 C1531 1.387 . S
C1532 C1535 1.387 . S
H1533 C1529 0.950 . S
H1534 C1531 0.950 . S
C1535 C1526 1.390 1_655 S
C1535 H1528 0.950 . S
C1535 C1532 1.387 . S
C1536 C1537 1.387 . S
C1536 H1540 0.950 . S
C1536 C1545 1.390 . S
C1537 C1536 1.387 . S
C1537 C1539 1.387 . S
H1538 C1545 0.950 . S
C1539 C1537 1.387 . S
C1539 C1541 1.390 . S
C1539 H1543 0.950 . S
H1540 C1536 0.950 . S
C1541 C1539 1.390 . S
C1541 C1542 1.387 . S
C1541 H1544 0.950 . S
C1542 C1541 1.387 . S
C1542 C1545 1.387 . S
H1543 C1539 0.950 . S
H1544 C1541 0.950 . S
C1545 C1536 1.390 . S
C1545 H1538 0.950 . S
C1545 C1542 1.387 . S
C1546 C1547 1.387 . S
C1546 H1550 0.950 . S
C1546 C1555 1.390 . S
C1547 C1546 1.387 . S
C1547 C1549 1.387 . S
H1548 C1555 0.950 . S
C1549 C1547 1.387 . S
C1549 C1551 1.390 . S
C1549 H1553 0.950 . S
H1550 C1546 0.950 . S
C1551 C1549 1.390 . S
C1551 C1552 1.387 . S
C1551 H1554 0.950 . S
C1552 C1551 1.387 . S
C1552 C1555 1.387 . S
H1553 C1549 0.950 . S
H1554 C1551 0.950 . S
C1555 C1546 1.390 . S
C1555 H1548 0.950 . S
C1555 C1552 1.387 . S
C1556 C1557 1.387 . S
C1556 H1560 0.950 . S
C1556 C1565 1.390 . S
C1557 C1556 1.387 . S
C1557 C1559 1.387 . S
H1558 C1565 0.950 . S
C1559 C1557 1.387 . S
C1559 C1561 1.390 . S
C1559 H1563 0.950 . S
H1560 C1556 0.950 . S
C1561 C1559 1.390 . S
C1561 C1562 1.387 . S
C1561 H1564 0.950 . S
C1562 C1561 1.387 . S
C1562 C1565 1.387 . S
H1563 C1559 0.950 . S
H1564 C1561 0.950 . S
C1565 C1556 1.390 . S
C1565 H1558 0.950 . S
C1565 C1562 1.387 . S
C1566 C1567 1.387 . S
C1566 H1570 0.950 . S
C1566 C1575 1.390 . S
C1567 C1566 1.387 . S
C1567 C1569 1.387 . S
H1568 C1575 0.950 . S
C1569 C1567 1.387 . S
C1569 C1571 1.390 . S
C1569 H1573 0.950 . S
H1570 C1566 0.950 . S
C1571 C1569 1.390 . S
C1571 C1572 1.387 . S
C1571 H1574 0.950 . S
C1572 C1571 1.387 . S
C1572 C1575 1.387 . S
H1573 C1569 0.950 . S
H1574 C1571 0.950 . S
C1575 C1566 1.390 . S
C1575 H1568 0.950 . S
C1575 C1572 1.387 . S
C1576 C1577 1.387 . S
C1576 H1580 0.950 . S
C1576 C1585 1.390 . S
C1577 C1576 1.387 . S
C1577 C1579 1.387 . S
H1578 C1585 0.950 . S
C1579 C1577 1.387 . S
C1579 C1581 1.390 . S
C1579 H1583 0.950 . S
H1580 C1576 0.950 . S
C1581 C1579 1.390 . S
C1581 C1582 1.387 . S
C1581 H1584 0.950 . S
C1582 C1581 1.387 . S
C1582 C1585 1.387 . S
H1583 C1579 0.950 . S
H1584 C1581 0.950 . S
C1585 C1576 1.390 . S
C1585 H1578 0.950 . S
C1585 C1582 1.387 . S
C1586 C1587 1.387 . S
C1586 H1590 0.950 . S
C1586 C1595 1.390 . S
C1587 C1586 1.387 . S
C1587 C1589 1.387 . S
H1588 C1595 0.950 . S
C1589 C1587 1.387 . S
C1589 C1591 1.390 . S
C1589 H1593 0.950 . S
H1590 C1586 0.950 . S
C1591 C1589 1.390 . S
C1591 C1592 1.387 . S
C1591 H1594 0.950 . S
C1592 C1591 1.387 . S
C1592 C1595 1.387 . S
H1593 C1589 0.950 . S
H1594 C1591 0.950 . S
C1595 C1586 1.390 . S
C1595 H1588 0.950 . S
C1595 C1592 1.387 . S
C1596 C1597 1.387 . S
C1596 H1600 0.950 . S
C1596 C1605 1.390 . S
C1597 C1596 1.387 . S
C1597 C1599 1.387 . S
H1598 C1605 0.950 . S
C1599 C1597 1.387 . S
C1599 C1601 1.390 . S
C1599 H1603 0.950 . S
H1600 C1596 0.950 . S
C1601 C1599 1.390 . S
C1601 C1602 1.387 . S
C1601 H1604 0.950 . S
C1602 C1601 1.387 . S
C1602 C1605 1.387 . S
H1603 C1599 0.950 . S
H1604 C1601 0.950 . S
C1605 C1596 1.390 . S
C1605 H1598 0.950 . S
C1605 C1602 1.387 . S
C1606 C1607 1.387 . S
C1606 H1610 0.950 . S
C1606 C1615 1.390 . S
C1607 C1606 1.387 . S
C1607 C1609 1.387 . S
H1608 C1615 0.950 . S
C1609 C1607 1.387 . S
C1609 C1611 1.390 . S
C1609 H1613 0.950 . S
H1610 C1606 0.950 . S
C1611 C1609 1.390 . S
C1611 C1612 1.387 . S
C1611 H1614 0.950 . S
C1612 C1611 1.387 . S
C1612 C1615 1.387 . S
H1613 C1609 0.950 . S
H1614 C1611 0.950 . S
C1615 C1606 1.390 . S
C1615 H1608 0.950 . S
C1615 C1612 1.387 . S
C1616 C1617 1.387 . S
C1616 H1620 0.950 . S
C1616 C1625 1.390 . S
C1617 C1616 1.387 . S
C1617 C1619 1.387 . S
H1618 C1625 0.950 . S
C1619 C1617 1.387 . S
C1619 C1621 1.390 . S
C1619 H1623 0.950 . S
H1620 C1616 0.950 . S
C1621 C1619 1.390 . S
C1621 C1622 1.387 . S
C1621 H1624 0.950 . S
C1622 C1621 1.387 . S
C1622 C1625 1.387 . S
H1623 C1619 0.950 . S
H1624 C1621 0.950 . S
C1625 C1616 1.390 . S
C1625 H1618 0.950 . S
C1625 C1622 1.387 . S
C1626 C1627 1.387 . S
C1626 H1630 0.950 . S
C1626 C1635 1.390 . S
C1627 C1626 1.387 . S
C1627 C1629 1.387 . S
H1628 C1635 0.950 . S
C1629 C1627 1.387 . S
C1629 C1631 1.390 . S
C1629 H1633 0.950 . S
H1630 C1626 0.950 . S
C1631 C1629 1.390 . S
C1631 C1632 1.387 . S
C1631 H1634 0.950 . S
C1632 C1631 1.387 . S
C1632 C1635 1.387 . S
H1633 C1629 0.950 . S
H1634 C1631 0.950 . S
C1635 C1626 1.390 . S
C1635 H1628 0.950 . S
C1635 C1632 1.387 . S
C1636 C1637 1.387 . S
C1636 H1640 0.950 . S
C1636 C1645 1.390 . S
C1637 C1636 1.387 . S
C1637 C1639 1.387 . S
H1638 C1645 0.950 . S
C1639 C1637 1.387 . S
C1639 C1641 1.390 . S
C1639 H1643 0.950 . S
H1640 C1636 0.950 . S
C1641 C1639 1.390 . S
C1641 C1642 1.387 . S
C1641 H1644 0.950 . S
C1642 C1641 1.387 . S
C1642 C1645 1.387 . S
H1643 C1639 0.950 . S
H1644 C1641 0.950 . S
C1645 C1636 1.390 . S
C1645 H1638 0.950 . S
C1645 C1642 1.387 . S
C1646 C1647 1.387 . S
C1646 H1650 0.950 . S
C1646 C1655 1.390 . S
C1647 C1646 1.387 . S
C1647 C1649 1.387 . S
H1648 C1655 0.950 . S
C1649 C1647 1.387 . S
C1649 C1651 1.390 . S
C1649 H1653 0.950 . S
H1650 C1646 0.950 . S
C1651 C1649 1.390 . S
C1651 C1652 1.387 . S
C1651 H1654 0.950 . S
C1652 C1651 1.387 . S
C1652 C1655 1.387 . S
H1653 C1649 0.950 . S
H1654 C1651 0.950 . S
C1655 C1646 1.390 . S
C1655 H1648 0.950 . S
C1655 C1652 1.387 . S
C1656 C1657 1.387 . S
C1656 H1660 0.950 . S
C1656 C1665 1.390 1_554 S
C1657 C1656 1.387 . S
C1657 C1659 1.387 . S
H1658 C1665 0.950 . S
C1659 C1657 1.387 . S
C1659 C1661 1.390 1_554 S
C1659 H1663 0.950 . S
H1660 C1656 0.950 . S
C1661 C1659 1.390 1_556 S
C1661 C1662 1.387 . S
C1661 H1664 0.950 . S
C1662 C1661 1.387 . S
C1662 C1665 1.387 . S
H1663 C1659 0.950 . S
H1664 C1661 0.950 . S
C1665 C1656 1.390 1_556 S
C1665 H1658 0.950 . S
C1665 C1662 1.387 . S
C1666 C1667 1.387 . S
C1666 H1670 0.950 . S
C1666 C1675 1.390 1_556 S
C1667 C1666 1.387 . S
C1667 C1669 1.387 . S
H1668 C1675 0.950 . S
C1669 C1667 1.387 . S
C1669 C1671 1.390 1_556 S
C1669 H1673 0.950 . S
H1670 C1666 0.950 . S
C1671 C1669 1.390 1_554 S
C1671 C1672 1.387 . S
C1671 H1674 0.950 . S
C1672 C1671 1.387 . S
C1672 C1675 1.387 . S
H1673 C1669 0.950 . S
H1674 C1671 0.950 . S
C1675 C1666 1.390 1_554 S
C1675 H1668 0.950 . S
C1675 C1672 1.387 . S
C1676 C1677 1.387 . S
C1676 H1680 0.950 . S
C1676 C1685 1.390 1_556 S
C1677 C1676 1.387 . S
C1677 C1679 1.387 . S
H1678 C1685 0.950 . S
C1679 C1677 1.387 . S
C1679 C1681 1.390 1_556 S
C1679 H1683 0.950 . S
H1680 C1676 0.950 . S
C1681 C1679 1.390 1_554 S
C1681 C1682 1.387 . S
C1681 H1684 0.950 . S
C1682 C1681 1.387 . S
C1682 C1685 1.387 . S
H1683 C1679 0.950 . S
H1684 C1681 0.950 . S
C1685 C1676 1.390 1_554 S
C1685 H1678 0.950 . S
C1685 C1682 1.387 . S
C1686 C1687 1.387 . S
C1686 H1690 0.950 . S
C1686 C1695 1.390 1_554 S
C1687 C1686 1.387 . S
C1687 C1689 1.387 . S
H1688 C1695 0.950 . S
C1689 C1687 1.387 . S
C1689 C1691 1.390 1_554 S
C1689 H1693 0.950 . S
H1690 C1686 0.950 . S
C1691 C1689 1.390 1_556 S
C1691 C1692 1.387 . S
C1691 H1694 0.950 . S
C1692 C1691 1.387 . S
C1692 C1695 1.387 . S
H1693 C1689 0.950 . S
H1694 C1691 0.950 . S
C1695 C1686 1.390 1_556 S
C1695 H1688 0.950 . S
C1695 C1692 1.387 . S
C1696 C1697 1.387 . S
C1696 H1700 0.950 . S
C1696 C1705 1.390 1_554 S
C1697 C1696 1.387 . S
C1697 C1699 1.387 . S
H1698 C1705 0.950 . S
C1699 C1697 1.387 . S
C1699 C1701 1.390 1_554 S
C1699 H1703 0.950 . S
H1700 C1696 0.950 . S
C1701 C1699 1.390 1_556 S
C1701 C1702 1.387 . S
C1701 H1704 0.950 . S
C1702 C1701 1.387 . S
C1702 C1705 1.387 . S
H1703 C1699 0.950 . S
H1704 C1701 0.950 . S
C1705 C1696 1.390 1_556 S
C1705 H1698 0.950 . S
C1705 C1702 1.387 . S
C1706 C1707 1.387 . S
C1706 H1710 0.950 . S
C1706 C1715 1.390 1_556 S
C1707 C1706 1.387 . S
C1707 C1709 1.387 . S
H1708 C1715 0.950 . S
C1709 C1707 1.387 . S
C1709 C1711 1.390 1_556 S
C1709 H1713 0.950 . S
H1710 C1706 0.950 . S
C1711 C1709 1.390 1_554 S
C1711 C1712 1.387 . S
C1711 H1714 0.950 . S
C1712 C1711 1.387 . S
C1712 C1715 1.387 . S
H1713 C1709 0.950 . S
H1714 C1711 0.950 . S
C1715 C1706 1.390 1_554 S
C1715 H1708 0.950 . S
C1715 C1712 1.387 . S
C1716 C1717 1.387 . S
C1716 H1720 0.950 . S
C1716 C1725 1.390 . S
C1717 C1716 1.387 . S
C1717 C1719 1.387 . S
H1718 C1725 0.950 . S
C1719 C1717 1.387 . S
C1719 C1721 1.390 . S
C1719 H1723 0.950 . S
H1720 C1716 0.950 . S
C1721 C1719 1.390 . S
C1721 C1722 1.387 . S
C1721 H1724 0.950 . S
C1722 C1721 1.387 . S
C1722 C1725 1.387 . S
H1723 C1719 0.950 . S
H1724 C1721 0.950 . S
C1725 C1716 1.390 . S
C1725 H1718 0.950 . S
C1725 C1722 1.387 . S
C1726 C1727 1.387 . S
C1726 H1730 0.950 . S
C1726 C1735 1.390 . S
C1727 C1726 1.387 . S
C1727 C1729 1.387 . S
H1728 C1735 0.950 . S
C1729 C1727 1.387 . S
C1729 C1731 1.390 . S
C1729 H1733 0.950 . S
H1730 C1726 0.950 . S
C1731 C1729 1.390 . S
C1731 C1732 1.387 . S
C1731 H1734 0.950 . S
C1732 C1731 1.387 . S
C1732 C1735 1.387 . S
H1733 C1729 0.950 . S
H1734 C1731 0.950 . S
C1735 C1726 1.390 . S
C1735 H1728 0.950 . S
C1735 C1732 1.387 . S
C1736 C1737 1.387 . S
C1736 H1740 0.950 . S
C1736 C1745 1.390 . S
C1737 C1736 1.387 . S
C1737 C1739 1.387 . S
H1738 C1745 0.950 . S
C1739 C1737 1.387 . S
C1739 C1741 1.390 . S
C1739 H1743 0.950 . S
H1740 C1736 0.950 . S
C1741 C1739 1.390 . S
C1741 C1742 1.387 . S
C1741 H1744 0.950 . S
C1742 C1741 1.387 . S
C1742 C1745 1.387 . S
H1743 C1739 0.950 . S
H1744 C1741 0.950 . S
C1745 C1736 1.390 . S
C1745 H1738 0.950 . S
C1745 C1742 1.387 . S
C1746 C1747 1.387 . S
C1746 H1750 0.950 . S
C1746 C1755 1.390 . S
C1747 C1746 1.387 . S
C1747 C1749 1.387 . S
H1748 C1755 0.950 . S
C1749 C1747 1.387 . S
C1749 C1751 1.390 . S
C1749 H1753 0.950 . S
H1750 C1746 0.950 . S
C1751 C1749 1.390 . S
C1751 C1752 1.387 . S
C1751 H1754 0.950 . S
C1752 C1751 1.387 . S
C1752 C1755 1.387 . S
H1753 C1749 0.950 . S
H1754 C1751 0.950 . S
C1755 C1746 1.390 . S
C1755 H1748 0.950 . S
C1755 C1752 1.387 . S
C1756 C1757 1.387 . S
C1756 H1760 0.950 . S
C1756 C1765 1.390 . S
C1757 C1756 1.387 . S
C1757 C1759 1.387 . S
H1758 C1765 0.950 . S
C1759 C1757 1.387 . S
C1759 C1761 1.390 . S
C1759 H1763 0.950 . S
H1760 C1756 0.950 . S
C1761 C1759 1.390 . S
C1761 C1762 1.387 . S
C1761 H1764 0.950 . S
C1762 C1761 1.387 . S
C1762 C1765 1.387 . S
H1763 C1759 0.950 . S
H1764 C1761 0.950 . S
C1765 C1756 1.390 . S
C1765 H1758 0.950 . S
C1765 C1762 1.387 . S
C1766 C1767 1.387 . S
C1766 H1770 0.950 . S
C1766 C1775 1.390 . S
C1767 C1766 1.387 . S
C1767 C1769 1.387 . S
H1768 C1775 0.950 . S
C1769 C1767 1.387 . S
C1769 C1771 1.390 . S
C1769 H1773 0.950 . S
H1770 C1766 0.950 . S
C1771 C1769 1.390 . S
C1771 C1772 1.387 . S
C1771 H1774 0.950 . S
C1772 C1771 1.387 . S
C1772 C1775 1.387 . S
H1773 C1769 0.950 . S
H1774 C1771 0.950 . S
C1775 C1766 1.390 . S
C1775 H1768 0.950 . S
C1775 C1772 1.387 . S
C1776 C1777 1.387 . S
C1776 H1780 0.950 . S
C1776 C1785 1.390 . S
C1777 C1776 1.387 . S
C1777 C1779 1.387 . S
H1778 C1785 0.950 . S
C1779 C1777 1.387 . S
C1779 C1781 1.390 . S
C1779 H1783 0.950 . S
H1780 C1776 0.950 . S
C1781 C1779 1.390 . S
C1781 C1782 1.387 . S
C1781 H1784 0.950 . S
C1782 C1781 1.387 . S
C1782 C1785 1.387 . S
H1783 C1779 0.950 . S
H1784 C1781 0.950 . S
C1785 C1776 1.390 . S
C1785 H1778 0.950 . S
C1785 C1782 1.387 . S
C1786 C1787 1.387 . S
C1786 H1790 0.950 . S
C1786 C1795 1.390 . S
C1787 C1786 1.387 . S
C1787 C1789 1.387 . S
H1788 C1795 0.950 . S
C1789 C1787 1.387 . S
C1789 C1791 1.390 . S
C1789 H1793 0.950 . S
H1790 C1786 0.950 . S
C1791 C1789 1.390 . S
C1791 C1792 1.387 . S
C1791 H1794 0.950 . S
C1792 C1791 1.387 . S
C1792 C1795 1.387 . S
H1793 C1789 0.950 . S
H1794 C1791 0.950 . S
C1795 C1786 1.390 . S
C1795 H1788 0.950 . S
C1795 C1792 1.387 . S
C1796 C1797 1.387 . S
C1796 H1800 0.950 . S
C1796 C1805 1.390 . S
C1797 C1796 1.387 . S
C1797 C1799 1.387 . S
H1798 C1805 0.950 . S
C1799 C1797 1.387 . S
C1799 C1801 1.390 . S
C1799 H1803 0.950 . S
H1800 C1796 0.950 . S
C1801 C1799 1.390 . S
C1801 C1802 1.387 . S
C1801 H1804 0.950 . S
C1802 C1801 1.387 . S
C1802 C1805 1.387 . S
H1803 C1799 0.950 . S
H1804 C1801 0.950 . S
C1805 C1796 1.390 . S
C1805 H1798 0.950 . S
C1805 C1802 1.387 . S
C1806 C1807 1.387 . S
C1806 H1810 0.950 . S
C1806 C1815 1.390 . S
C1807 C1806 1.387 . S
C1807 C1809 1.387 . S
H1808 C1815 0.950 . S
C1809 C1807 1.387 . S
C1809 C1811 1.390 . S
C1809 H1813 0.950 . S
H1810 C1806 0.950 . S
C1811 C1809 1.390 . S
C1811 C1812 1.387 . S
C1811 H1814 0.950 . S
C1812 C1811 1.387 . S
C1812 C1815 1.387 . S
H1813 C1809 0.950 . S
H1814 C1811 0.950 . S
C1815 C1806 1.390 . S
C1815 H1808 0.950 . S
C1815 C1812 1.387 . S
C1816 C1817 1.387 . S
C1816 H1820 0.950 . S
C1816 C1825 1.390 . S
C1817 C1816 1.387 . S
C1817 C1819 1.387 . S
H1818 C1825 0.950 . S
C1819 C1817 1.387 . S
C1819 C1821 1.390 . S
C1819 H1823 0.950 . S
H1820 C1816 0.950 . S
C1821 C1819 1.390 . S
C1821 C1822 1.387 . S
C1821 H1824 0.950 . S
C1822 C1821 1.387 . S
C1822 C1825 1.387 . S
H1823 C1819 0.950 . S
H1824 C1821 0.950 . S
C1825 C1816 1.390 . S
C1825 H1818 0.950 . S
C1825 C1822 1.387 . S
C1826 C1827 1.387 . S
C1826 H1830 0.950 . S
C1826 C1835 1.390 . S
C1827 C1826 1.387 . S
C1827 C1829 1.387 . S
H1828 C1835 0.950 . S
C1829 C1827 1.387 . S
C1829 C1831 1.390 . S
C1829 H1833 0.950 . S
H1830 C1826 0.950 . S
C1831 C1829 1.390 . S
C1831 C1832 1.387 . S
C1831 H1834 0.950 . S
C1832 C1831 1.387 . S
C1832 C1835 1.387 . S
H1833 C1829 0.950 . S
H1834 C1831 0.950 . S
C1835 C1826 1.390 . S
C1835 H1828 0.950 . S
C1835 C1832 1.387 . S
C1836 C1837 1.387 . S
C1836 H1840 0.950 . S
C1836 C1845 1.390 . S
C1837 C1836 1.387 . S
C1837 C1839 1.387 . S
H1838 C1845 0.950 . S
C1839 C1837 1.387 . S
C1839 C1841 1.390 . S
C1839 H1843 0.950 . S
H1840 C1836 0.950 . S
C1841 C1839 1.390 . S
C1841 C1842 1.387 . S
C1841 H1844 0.950 . S
C1842 C1841 1.387 . S
C1842 C1845 1.387 . S
H1843 C1839 0.950 . S
H1844 C1841 0.950 . S
C1845 C1836 1.390 . S
C1845 H1838 0.950 . S
C1845 C1842 1.387 . S
C1846 C1847 1.387 . S
C1846 H1850 0.950 . S
C1846 C1855 1.390 . S
C1847 C1846 1.387 . S
C1847 C1849 1.387 . S
H1848 C1855 0.950 . S
C1849 C1847 1.387 . S
C1849 C1851 1.390 . S
C1849 H1853 0.950 . S
H1850 C1846 0.950 . S
C1851 C1849 1.390 . S
C1851 C1852 1.387 . S
C1851 H1854 0.950 . S
C1852 C1851 1.387 . S
C1852 C1855 1.387 . S
H1853 C1849 0.950 . S
H1854 C1851 0.950 . S
C1855 C1846 1.390 . S
C1855 H1848 0.950 . S
C1855 C1852 1.387 . S
C1856 C1857 1.387 . S
C1856 H1860 0.950 . S
C1856 C1865 1.390 . S
C1857 C1856 1.387 . S
C1857 C1859 1.387 . S
H1858 C1865 0.950 . S
C1859 C1857 1.387 . S
C1859 C1861 1.390 . S
C1859 H1863 0.950 . S
H1860 C1856 0.950 . S
C1861 C1859 1.390 . S
C1861 C1862 1.387 . S
C1861 H1864 0.950 . S
C1862 C1861 1.387 . S
C1862 C1865 1.387 . S
H1863 C1859 0.950 . S
H1864 C1861 0.950 . S
C1865 C1856 1.390 . S
C1865 H1858 0.950 . S
C1865 C1862 1.387 . S
C1866 C1867 1.387 . S
C1866 H1870 0.950 . S
C1866 C1875 1.390 . S
C1867 C1866 1.387 . S
C1867 C1869 1.387 . S
H1868 C1875 0.950 . S
C1869 C1867 1.387 . S
C1869 C1871 1.390 . S
C1869 H1873 0.950 . S
H1870 C1866 0.950 . S
C1871 C1869 1.390 . S
C1871 C1872 1.387 . S
C1871 H1874 0.950 . S
C1872 C1871 1.387 . S
C1872 C1875 1.387 . S
H1873 C1869 0.950 . S
H1874 C1871 0.950 . S
C1875 C1866 1.390 . S
C1875 H1868 0.950 . S
C1875 C1872 1.387 . S
C1876 C1877 1.387 . S
C1876 H1880 0.950 . S
C1876 C1885 1.390 . S
C1877 C1876 1.387 . S
C1877 C1879 1.387 . S
H1878 C1885 0.950 . S
C1879 C1877 1.387 . S
C1879 C1881 1.390 . S
C1879 H1883 0.950 . S
H1880 C1876 0.950 . S
C1881 C1879 1.390 . S
C1881 C1882 1.387 . S
C1881 H1884 0.950 . S
C1882 C1881 1.387 . S
C1882 C1885 1.387 . S
H1883 C1879 0.950 . S
H1884 C1881 0.950 . S
C1885 C1876 1.390 . S
C1885 H1878 0.950 . S
C1885 C1882 1.387 . S
C1886 C1887 1.387 . S
C1886 H1890 0.950 . S
C1886 C1895 1.390 . S
C1887 C1886 1.387 . S
C1887 C1889 1.387 . S
H1888 C1895 0.950 . S
C1889 C1887 1.387 . S
C1889 C1891 1.390 . S
C1889 H1893 0.950 . S
H1890 C1886 0.950 . S
C1891 C1889 1.390 . S
C1891 C1892 1.387 . S
C1891 H1894 0.950 . S
C1892 C1891 1.387 . S
C1892 C1895 1.387 . S
H1893 C1889 0.950 . S
H1894 C1891 0.950 . S
C1895 C1886 1.390 . S
C1895 H1888 0.950 . S
C1895 C1892 1.387 . S
C1417 C52 1.747 . S
C1422 C465 1.747 . S
C1427 C524 1.746 . S
C1432 C111 1.746 . S
C1437 C170 1.745 . S
C1442 C583 1.745 . S
C1447 C229 1.745 . S
C1452 C642 1.745 . S
C1457 C701 1.747 . S
C1462 C288 1.747 . S
C1467 C347 1.747 . S
C1472 C406 1.747 . S
C1477 C760 1.747 . S
C1482 C1173 1.747 . S
C1487 C819 1.746 . S
C1492 C1232 1.746 . S
C1497 C1291 1.745 . S
C1502 C878 1.745 . S
C1507 C937 1.745 . S
C1512 C1350 1.745 . S
C1517 C996 1.746 . S
C1522 C1409 1.746 . S
C1527 C1114 1.745 . S
C1532 C1055 1.745 . S
C1537 C5 1.555 . S
C1542 C477 1.555 . S
C1547 C536 1.555 . S
C1552 C64 1.555 . S
C1557 C595 1.556 . S
C1562 C123 1.555 . S
C1567 C182 1.556 . S
C1572 C654 1.556 . S
C1577 C241 1.556 . S
C1582 C359 1.556 . S
C1587 C300 1.555 . S
C1592 C418 1.555 . S
C1597 C1185 1.556 . S
C1602 C713 1.556 . S
C1607 C772 1.556 . S
C1612 C1244 1.556 . S
C1617 C1303 1.555 . S
C1622 C831 1.555 . S
C1627 C1362 1.556 . S
C1632 C890 1.555 . S
C1637 C1067 1.556 . S
C1642 C949 1.556 . S
C1647 C1008 1.555 . S
C1652 C1126 1.555 . S
C1657 C3 1.631 . S
C1662 C888 1.629 . S
C1667 C947 1.631 . S
C1672 C62 1.629 . S
C1677 C1006 1.631 . S
C1682 C121 1.629 . S
C1687 C180 1.631 . S
C1692 C711 1.629 . S
C1697 C239 1.629 . S
C1702 C770 1.631 . S
C1707 C829 1.631 . S
C1712 C298 1.629 . S
C1717 C1242 1.629 . S
C1722 C357 1.630 . S
C1727 C1301 1.630 . S
C1732 C416 1.629 . S
C1737 C1360 1.630 . S
C1742 C475 1.630 . S
C1747 C1065 1.631 . S
C1752 C534 1.629 . S
C1757 C593 1.630 . S
C1762 C1124 1.629 . S
C1767 C652 1.630 . S
C1772 C1183 1.630 . S
C1777 C33 1.537 . S
C1782 C623 1.537 . S
C1787 C682 1.538 . S
C1792 C92 1.539 . S
C1797 C387 1.538 . S
C1802 C151 1.538 . S
C1807 C210 1.539 . S
C1812 C446 1.539 . S
C1817 C269 1.538 . S
C1822 C505 1.538 . S
C1827 C328 1.538 . S
C1832 C564 1.538 . S
C1837 C741 1.537 . S
C1842 C1331 1.537 . S
C1847 C800 1.538 . S
C1852 C1390 1.538 . S
C1857 C859 1.538 . S
C1862 C1095 1.538 . S
C1867 C1154 1.536 . S
C1872 C918 1.536 . S
C1877 C977 1.538 . S
C1882 C1213 1.538 . S
C1887 C1036 1.538 . S
C1892 C1272 1.538 . S
