# Generated by pormake.
# Topology sml, (6)-cn, num edge types: 1
# Building blocks:
#     Node 0, Type 0, BuildingBlock: KUMBOL_clean_sbu_1, # of connection points: 6
#     Node 1, Type 0, BuildingBlock: KUMBOL_clean_sbu_1, # of connection points: 6
#     Node 2, Type 0, BuildingBlock: KUMBOL_clean_sbu_1, # of connection points: 6
#     Node 3, Type 0, BuildingBlock: KUMBOL_clean_sbu_1, # of connection points: 6
#     Node 4, Type 0, BuildingBlock: KUMBOL_clean_sbu_1, # of connection points: 6
#     Node 5, Type 0, BuildingBlock: KUMBOL_clean_sbu_1, # of connection points: 6
#     Edge 6, Type (0, 0), BuildingBlock: XIVTED_clean_linker_0, # of connection points: 2
#     Edge 7, Type (0, 0), BuildingBlock: XIVTED_clean_linker_0, # of connection points: 2
#     Edge 8, Type (0, 0), BuildingBlock: XIVTED_clean_linker_0, # of connection points: 2
#     Edge 9, Type (0, 0), BuildingBlock: XIVTED_clean_linker_0, # of connection points: 2
#     Edge 10, Type (0, 0), BuildingBlock: XIVTED_clean_linker_0, # of connection points: 2
#     Edge 11, Type (0, 0), BuildingBlock: XIVTED_clean_linker_0, # of connection points: 2
#     Edge 12, Type (0, 0), BuildingBlock: XIVTED_clean_linker_0, # of connection points: 2
#     Edge 13, Type (0, 0), BuildingBlock: XIVTED_clean_linker_0, # of connection points: 2
#     Edge 14, Type (0, 0), BuildingBlock: XIVTED_clean_linker_0, # of connection points: 2
#     Edge 15, Type (0, 0), BuildingBlock: XIVTED_clean_linker_0, # of connection points: 2
#     Edge 16, Type (0, 0), BuildingBlock: XIVTED_clean_linker_0, # of connection points: 2
#     Edge 17, Type (0, 0), BuildingBlock: XIVTED_clean_linker_0, # of connection points: 2
#     Edge 18, Type (0, 0), BuildingBlock: XIVTED_clean_linker_0, # of connection points: 2
#     Edge 19, Type (0, 0), BuildingBlock: XIVTED_clean_linker_0, # of connection points: 2
#     Edge 20, Type (0, 0), BuildingBlock: XIVTED_clean_linker_0, # of connection points: 2
#     Edge 21, Type (0, 0), BuildingBlock: XIVTED_clean_linker_0, # of connection points: 2
#     Edge 22, Type (0, 0), BuildingBlock: XIVTED_clean_linker_0, # of connection points: 2
#     Edge 23, Type (0, 0), BuildingBlock: XIVTED_clean_linker_0, # of connection points: 2
# Relax obj value: 0.062
# Max RMSD: 0.175
# Mean RMSD: 0.175
data_MOF--net-sml--node1-KUMBOL_clean_sbu_1--edge1-XIVTED_clean_linker_0
_symmetry_space_group_name_H-M    P1
_symmetry_Int_Tables_number       1
_symmetry_cell_setting            triclinic
loop_
_symmetry_equiv_pos_as_xyz
'x, y, z'
_cell_length_a     33.245704
_cell_length_b     33.296298
_cell_length_c     24.40552
_cell_angle_alpha  90.097893
_cell_angle_beta   89.977088
_cell_angle_gamma 120.06931
loop_
_atom_site_label
_atom_site_type_symbol
_atom_site_fract_x
_atom_site_fract_y
_atom_site_fract_z
_atom_type_partial_charge
C0 C 0.33416 0.435 0.0605 0.0
C1 C 0.38043 0.51587 0.08763 0.0
C2 C 0.33686 0.47646 0.07636 0.0
C3 C 0.42106 0.51307 0.08268 0.0
C4 C 0.37491 0.43218 0.05515 0.0
C5 C 0.41832 0.47139 0.06642 0.0
N6 N 0.29178 0.39777 0.04906 0.0
C7 C 0.28746 0.35646 0.03343 0.0
C8 C 0.37083 0.39008 0.03821 0.0
C9 C 0.32689 0.35204 0.02739 0.0
Gd10 Gd 0.16311 0.42944 0.92477 0.0
Gd11 Gd 0.22804 0.4088 0.05975 0.0
N12 N 0.297 0.47856 0.07907 0.0
C13 C 0.38189 0.55703 0.10328 0.0
C14 C 0.29818 0.5182 0.09601 0.0
C15 C 0.34056 0.55808 0.10783 0.0
H16 H 0.26672 0.51933 0.10139 0.0
H17 H 0.34129 0.58953 0.12082 0.0
H18 H 0.14419 0.32612 0.87171 0.0
H19 H 0.25346 0.32671 0.02631 0.0
H20 H 0.07836 0.24856 0.85453 0.0
H21 H 0.41466 0.58805 0.11237 0.0
H22 H 0.45482 0.54303 0.09111 0.0
H23 H 0.11733 0.49309 0.966 0.0
H24 H 0.40132 0.38655 0.03349 0.0
H25 H 0.32337 0.31927 0.01465 0.0
H26 H 0.94469 0.26134 0.89789 0.0
H27 H 0.45001 0.46988 0.06255 0.0
H28 H 0.96891 0.4084 0.96047 0.0
H29 H 0.03933 0.48386 0.97999 0.0
N30 N 0.09085 0.42372 0.9388 0.0
C31 C 0.05271 0.382 0.92747 0.0
C32 C 0.08664 0.46009 0.95737 0.0
C33 C 1.00295 0.4123 0.95408 0.0
C34 C 0.04264 0.45496 0.96525 0.0
C35 C 0.00763 0.3751 0.93515 0.0
H36 H 0.93388 0.32535 0.92994 0.0
N37 N 0.10312 0.35319 0.90455 0.0
C38 C 0.05901 0.34564 0.91034 0.0
C39 C 0.02723 0.26626 0.88013 0.0
C40 C 0.01996 0.30178 0.89905 0.0
C41 C 0.11008 0.31939 0.88256 0.0
C42 C 0.07245 0.27532 0.87118 0.0
O43 O 0.2757 0.45159 0.98983 0.0
O44 O 0.23381 0.4829 0.95535 0.0
O45 O 0.17467 0.43093 0.83601 0.0
O46 O 0.15888 0.48082 0.8742 0.0
O47 O 0.19276 0.4515 0.07298 0.0
O48 O 0.19062 0.48596 0.99013 0.0
O49 O 0.12037 0.3964 1.00022 0.0
O50 O 0.15621 0.35767 0.02923 0.0
O51 O 0.21254 0.41135 0.14706 0.0
O52 O 0.22646 0.35782 0.11586 0.0
O53 O 0.20682 0.39547 0.91139 0.0
O54 O 0.19762 0.3555 0.99188 0.0
C55 C 0.27097 0.4789 0.95483 0.0
C56 C 0.18728 0.48214 0.04433 0.0
C57 C 0.17043 0.48755 0.77535 0.0
C58 C 0.17508 0.48825 0.6748 0.0
C59 C 0.1724 0.55075 0.72354 0.0
C60 C 0.17003 0.5295 0.7735 0.0
C61 C 0.17493 0.53045 0.67464 0.0
C62 C 0.1732 0.46708 0.72573 0.0
C63 C 0.16779 0.4658 0.82923 0.0
C64 C 0.97498 0.29483 0.90631 0.0
C65 C 0.96882 0.33135 0.92437 0.0
H66 H 0.99817 0.23211 0.87097 0.0
C67 C 0.12193 0.36617 0.03294 0.0
C68 C 0.21217 0.36537 0.94087 0.0
C69 C 0.21024 0.35432 0.21335 0.0
C70 C 0.2039 0.35685 0.31346 0.0
C71 C 0.20248 0.29053 0.26943 0.0
C72 C 0.20729 0.31086 0.21825 0.0
C73 C 0.2009 0.31325 0.31662 0.0
C74 C 0.20801 0.37711 0.26128 0.0
C75 C 0.21674 0.37529 0.15809 0.0
H76 H 0.17239 0.58325 0.72271 0.0
H77 H 0.16811 0.54615 0.8108 0.0
H78 H 0.1774 0.54827 0.63662 0.0
H79 H 0.17303 0.43447 0.72672 0.0
H80 H 0.20012 0.25698 0.27257 0.0
H81 H 0.20871 0.2924 0.18239 0.0
H82 H 0.1969 0.29638 0.35579 0.0
H83 H 0.21067 0.41082 0.25817 0.0
C84 C 0.66881 0.12392 0.30248 0.0
C85 C 0.63659 0.1712 0.27197 0.0
C86 C 0.67537 0.16654 0.28534 0.0
C87 C 0.59146 0.13318 0.27832 0.0
C88 C 0.6236 0.08546 0.30817 0.0
C89 C 0.58498 0.09043 0.2964 0.0
N90 N 0.70678 0.12035 0.31465 0.0
C91 C 0.70217 0.07912 0.33084 0.0
C92 C 0.61859 0.04319 0.32581 0.0
C93 C 0.65809 0.03997 0.33692 0.0
Gd94 Gd 0.84445 0.27105 0.44167 0.0
Gd95 Gd 0.77944 0.18778 0.30549 0.0
N96 N 0.71957 0.2029 0.28008 0.0
C97 C 0.64431 0.21359 0.25116 0.0
C98 C 0.72696 0.24258 0.25478 0.0
C99 C 0.68972 0.24909 0.24147 0.0
H100 H 0.76113 0.26866 0.2423 0.0
H101 H 0.69606 0.28111 0.2225 0.0
H102 H 0.87539 0.19355 0.4867 0.0
H103 H 0.7326 0.0764 0.33827 0.0
H104 H 0.94689 0.1914 0.50363 0.0
H105 H 0.6155 0.21856 0.24029 0.0
H106 H 0.56134 0.13629 0.26858 0.0
H107 H 0.8785 0.37972 0.40366 0.0
H108 H 0.58445 0.01284 0.33068 0.0
H109 H 0.65463 0.00733 0.34999 0.0
H110 H 0.06928 0.34626 0.46533 0.0
H111 H 0.54997 0.06134 0.30075 0.0
H112 H 0.02728 0.45771 0.40702 0.0
H113 H 0.95198 0.45355 0.38952 0.0
N114 N 0.91209 0.34266 0.42825 0.0
C115 C 0.953 0.34426 0.43888 0.0
C116 C 0.91124 0.38116 0.41095 0.0
C117 C 0.99518 0.42527 0.41331 0.0
C118 C 0.95274 0.42304 0.40323 0.0
C119 C 0.99572 0.3856 0.43122 0.0
H120 H 0.07059 0.41726 0.4347 0.0
N121 N 0.91021 0.26389 0.46006 0.0
C122 C 0.95207 0.30376 0.45519 0.0
C123 C 0.99199 0.26305 0.48214 0.0
C124 C 0.99406 0.30416 0.46525 0.0
C125 C 0.90811 0.22425 0.4787 0.0
C126 C 0.94884 0.22309 0.48936 0.0
O127 O 0.73343 0.17759 0.37919 0.0
O128 O 0.77332 0.25138 0.41088 0.0
O129 O 0.83079 0.25673 0.52985 0.0
O130 O 0.84612 0.32354 0.49549 0.0
O131 O 0.82043 0.26637 0.29536 0.0
O132 O 0.81399 0.29751 0.37778 0.0
O133 O 0.88885 0.27914 0.3683 0.0
O134 O 0.85083 0.20543 0.33506 0.0
O135 O 0.79614 0.2018 0.21828 0.0
O136 O 0.77658 0.13379 0.25254 0.0
O137 O 0.80651 0.19282 0.45364 0.0
O138 O 0.80529 0.15734 0.37048 0.0
C139 C 0.73757 0.2095 0.41396 0.0
C140 C 0.82313 0.301 0.32474 0.0
C141 C 0.83199 0.31491 0.59346 0.0
C142 C 0.82413 0.30752 0.69346 0.0
C143 C 0.82548 0.37289 0.64725 0.0
C144 C 0.83016 0.3561 0.59676 0.0
C145 C 0.82251 0.34893 0.69521 0.0
C146 C 0.82904 0.29067 0.64212 0.0
C147 C 0.83654 0.29788 0.53896 0.0
C148 C 0.0367 0.34539 0.45802 0.0
C149 C 0.03749 0.38591 0.44084 0.0
H150 H 0.02345 0.26193 0.49036 0.0
C151 C 0.88669 0.24755 0.33453 0.0
C152 C 0.79988 0.15649 0.42434 0.0
C153 C 0.79417 0.14364 0.15486 0.0
C154 C 0.8059 0.15388 0.05543 0.0
C155 C 0.79918 0.08539 0.0999 0.0
C156 C 0.79362 0.1013 0.15063 0.0
C157 C 0.80527 0.11135 0.05268 0.0
C158 C 0.80027 0.16985 0.10698 0.0
C159 C 0.78885 0.16011 0.20936 0.0
H160 H 0.82424 0.40473 0.64925 0.0
H161 H 0.83219 0.37543 0.5602 0.0
H162 H 0.81958 0.36325 0.73389 0.0
H163 H 0.8301 0.2587 0.64001 0.0
H164 H 0.79858 0.05264 0.09712 0.0
H165 H 0.78908 0.08045 0.18663 0.0
H166 H 0.80864 0.09763 0.01377 0.0
H167 H 0.80096 0.20267 0.10986 0.0
C168 C 0.54764 0.88163 0.7373 0.0
C169 C 0.46803 0.83396 0.76792 0.0
C170 C 0.51157 0.83888 0.75434 0.0
C171 C 0.46086 0.87189 0.76198 0.0
C172 C 0.54081 0.91999 0.73199 0.0
C173 C 0.49715 0.91478 0.74403 0.0
N174 N 0.58922 0.88541 0.72475 0.0
C175 C 0.62585 0.92678 0.70862 0.0
C176 C 0.57806 0.96238 0.71437 0.0
C177 C 0.62085 0.96583 0.70293 0.0
Gd178 Gd 0.57669 0.73619 0.59622 0.0
Gd179 Gd 0.59463 0.81818 0.73355 0.0
N180 N 0.51946 0.8026 0.75918 0.0
C181 C 0.43332 0.7914 0.78848 0.0
C182 C 0.48709 0.76269 0.78416 0.0
C183 C 0.44325 0.75594 0.79766 0.0
H184 H 0.49517 0.73658 0.79621 0.0
H185 H 0.41751 0.72375 0.81638 0.0
H186 H 0.68445 0.81566 0.54975 0.0
H187 H 0.65906 0.9297 0.701 0.0
H188 H 0.75838 0.81939 0.52997 0.0
H189 H 0.39946 0.78623 0.79948 0.0
H190 H 0.42756 0.86859 0.7719 0.0
H191 H 0.50404 0.627 0.63452 0.0
H192 H 0.57422 0.99266 0.70978 0.0
H193 H 0.65002 0.99857 0.68989 0.0
H194 H 0.72823 0.66491 0.5625 0.0
H195 H 0.49117 0.94378 0.73996 0.0
H196 H 0.57631 0.55094 0.62399 0.0
H197 H 0.50497 0.55365 0.64549 0.0
N198 N 0.5743 0.66531 0.60819 0.0
C199 C 0.61381 0.66462 0.59575 0.0
C200 C 0.53549 0.62623 0.62574 0.0
C201 C 0.57615 0.58322 0.6193 0.0
C202 C 0.53583 0.58463 0.63163 0.0
C203 C 0.61584 0.6235 0.60122 0.0
H204 H 0.65956 0.59269 0.59279 0.0
N205 N 0.65016 0.7452 0.576 0.0
C206 C 0.65285 0.7057 0.57935 0.0
C207 C 0.73303 0.74774 0.55003 0.0
C208 C 0.69454 0.70613 0.56708 0.0
C209 C 0.68709 0.78529 0.55697 0.0
C210 C 0.72914 0.78734 0.54453 0.0
O211 O 0.55847 0.82834 0.66023 0.0
O212 O 0.52458 0.75484 0.62735 0.0
O213 O 0.57653 0.75066 0.50821 0.0
O214 O 0.52573 0.68347 0.54257 0.0
O215 O 0.55703 0.73957 0.74306 0.0
O216 O 0.51973 0.70871 0.66031 0.0
O217 O 0.61278 0.72713 0.66916 0.0
O218 O 0.64819 0.8005 0.70334 0.0
O219 O 0.59736 0.80438 0.82097 0.0
O220 O 0.64594 0.8722 0.78624 0.0
O221 O 0.61644 0.81454 0.58542 0.0
O222 O 0.65111 0.84926 0.6687 0.0
C223 C 0.5305 0.79664 0.6253 0.0
C224 C 0.52524 0.70501 0.71334 0.0
C225 C 0.51943 0.6922 0.44477 0.0
C226 C 0.51786 0.70002 0.3449 0.0
C227 C 0.45523 0.63328 0.39125 0.0
C228 C 0.47696 0.65023 0.44159 0.0
C229 C 0.47542 0.65782 0.34331 0.0
C230 C 0.5399 0.71705 0.39612 0.0
C231 C 0.54133 0.7093 0.49916 0.0
C232 C 0.69652 0.66511 0.5719 0.0
C233 C 0.65734 0.62395 0.589 0.0
H234 H 0.76566 0.74947 0.54019 0.0
C235 C 0.64185 0.7584 0.70358 0.0
C236 C 0.64636 0.85064 0.61496 0.0
C237 C 0.65396 0.86314 0.88393 0.0
C238 C 0.65605 0.85423 0.98358 0.0
C239 C 0.71727 0.92258 0.93794 0.0
C240 C 0.69563 0.90581 0.88749 0.0
C241 C 0.69774 0.89715 0.98559 0.0
C242 C 0.6342 0.83739 0.93227 0.0
C243 C 0.63182 0.84617 0.82965 0.0
H244 H 0.4226 0.60082 0.38935 0.0
H245 H 0.4603 0.6304 0.47813 0.0
H246 H 0.458 0.64331 0.30474 0.0
H247 H 0.57249 0.74959 0.39813 0.0
H248 H 0.74928 0.9556 0.94018 0.0
H249 H 0.71166 0.92634 0.85117 0.0
H250 H 0.71499 0.91159 0.02425 0.0
H251 H 0.60217 0.80433 0.92992 0.0
C252 C 0.90148 0.57062 0.97615 0.0
C253 C 0.8673 0.48985 0.94881 0.0
C254 C 0.86281 0.52896 0.96029 0.0
C255 C 0.91098 0.49316 0.9535 0.0
C256 C 0.94531 0.57395 0.98122 0.0
C257 C 0.94984 0.53505 0.96972 0.0
N258 N 0.89601 0.60756 0.98777 0.0
C259 C 0.93292 0.64906 1.00336 0.0
C260 C 0.98324 0.61624 0.9981 0.0
C261 C 0.97701 0.65397 0.00911 0.0
Gd262 Gd 0.73501 0.57406 0.11235 0.0
Gd263 Gd 0.82084 0.59564 0.9775 0.0
N264 N 0.8206 0.52635 0.95784 0.0
C265 C 0.82768 0.44847 0.93321 0.0
C266 C 0.7822 0.48649 0.94102 0.0
C267 C 0.78504 0.44691 0.92897 0.0
H268 H 0.74939 0.48496 0.93596 0.0
H269 H 0.75436 0.41528 0.91606 0.0
H270 H 0.81967 0.67666 0.16701 0.0
H271 H 0.92838 0.67854 0.01079 0.0
H272 H 0.8322 0.75442 0.18427 0.0
H273 H 0.82969 0.41768 0.92397 0.0
H274 H 0.91505 0.46344 0.9449 0.0
H275 H 0.62532 0.51089 0.07121 0.0
H276 H 0.01745 0.62016 1.00261 0.0
H277 H 0.00618 0.68686 0.02185 0.0
H278 H 0.68666 0.74302 0.13917 0.0
H279 H 0.98324 0.53695 0.9734 0.0
H280 H 0.56276 0.59638 0.07636 0.0
H281 H 0.55694 0.52066 0.057 0.0
N282 N 0.66872 0.58018 0.09854 0.0
C283 C 0.67271 0.622 0.10986 0.0
C284 C 0.62794 0.54397 0.07987 0.0
C285 C 0.59271 0.59222 0.08291 0.0
C286 C 0.58929 0.54941 0.07184 0.0
C287 C 0.6348 0.62923 0.10195 0.0
H288 H 0.61151 0.67942 0.10679 0.0
N289 N 0.75185 0.65028 0.13321 0.0
C290 C 0.71555 0.65816 0.12717 0.0
C291 C 0.7637 0.73737 0.1578 0.0
C292 C 0.72081 0.70212 0.13847 0.0
C293 C 0.79262 0.68374 0.15576 0.0
C294 C 0.79949 0.72791 0.16722 0.0
O295 O 0.82549 0.5524 0.04689 0.0
O296 O 0.75213 0.52073 0.08143 0.0
O297 O 0.74497 0.57207 0.20097 0.0
O298 O 0.6791 0.52241 0.16269 0.0
O299 O 0.74276 0.55248 0.96412 0.0
O300 O 0.70583 0.51775 0.0468 0.0
O301 O 0.72528 0.60709 0.03692 0.0
O302 O 0.80004 0.64658 1.00802 0.0
O303 O 0.80219 0.59317 0.89057 0.0
O304 O 0.8702 0.64657 0.92105 0.0
O305 O 0.81279 0.6079 0.12573 0.0
O306 O 0.84358 0.64858 0.04569 0.0
C307 C 0.79332 0.52478 0.08171 0.0
C308 C 0.70651 0.52168 0.99262 0.0
C309 C 0.68402 0.51522 0.26146 0.0
C310 C 0.68897 0.5136 0.3618 0.0
C311 C 0.62322 0.4514 0.3133 0.0
C312 C 0.64171 0.47305 0.26335 0.0
C313 C 0.64652 0.47139 0.36211 0.0
C314 C 0.70757 0.53547 0.31098 0.0
C315 C 0.70311 0.53714 0.20764 0.0
C316 C 0.68307 0.70942 0.13085 0.0
C317 C 0.64021 0.67313 0.1126 0.0
H318 H 0.76911 0.77158 0.167 0.0
C319 C 0.7571 0.63777 1.00444 0.0
C320 C 0.84829 0.63836 0.09647 0.0
C321 C 0.8566 0.64977 0.8237 0.0
C322 C 0.84355 0.64892 0.72451 0.0
C323 C 0.91319 0.71202 0.76616 0.0
C324 C 0.89869 0.69174 0.81757 0.0
C325 C 0.88603 0.69088 0.72003 0.0
C326 C 0.82904 0.62833 0.77683 0.0
C327 C 0.84255 0.62912 0.87914 0.0
H328 H 0.59053 0.41896 0.31421 0.0
H329 H 0.62287 0.45659 0.22611 0.0
H330 H 0.63084 0.45405 0.40028 0.0
H331 H 0.74038 0.56784 0.30995 0.0
H332 H 0.94584 0.74422 0.76198 0.0
H333 H 0.92065 0.70906 0.85261 0.0
H334 H 0.89879 0.70715 0.68055 0.0
H335 H 0.79643 0.59605 0.78109 0.0
C336 C 0.11492 0.66599 0.39648 0.0
C337 C 0.1551 0.62503 0.42321 0.0
C338 C 0.15558 0.66688 0.41239 0.0
C339 C 0.11346 0.58251 0.41768 0.0
C340 C 0.07317 0.62334 0.39044 0.0
C341 C 0.07265 0.58166 0.40127 0.0
N342 N 0.11655 0.70678 0.38536 0.0
C343 C 0.07769 0.7076 0.36929 0.0
C344 C 0.03326 0.62385 0.37318 0.0
C345 C 0.03554 0.66618 0.36262 0.0
Gd346 Gd 0.27251 0.84304 0.26341 0.0
Gd347 Gd 0.18857 0.77413 0.39796 0.0
N348 N 0.19576 0.70858 0.41582 0.0
C349 C 0.19653 0.62715 0.43919 0.0
C350 C 0.23577 0.71081 0.43337 0.0
C351 C 0.23692 0.67024 0.44467 0.0
H352 H 0.26669 0.7436 0.44 0.0
H353 H 0.26891 0.67227 0.45814 0.0
H354 H 0.18674 0.86251 0.2174 0.0
H355 H 0.07908 0.7403 0.36245 0.0
H356 H 0.17663 0.92896 0.19818 0.0
H357 H 0.19759 0.5958 0.44797 0.0
H358 H 0.11248 0.55004 0.4258 0.0
H359 H 0.38249 0.88767 0.30386 0.0
H360 H 1.00054 0.59181 0.36796 0.0
H361 H 0.00481 0.66694 0.34961 0.0
H362 H 0.32699 0.06136 0.23017 0.0
H363 H 0.04089 0.54856 0.39691 0.0
H364 H 0.44923 0.03573 0.29139 0.0
H365 H 0.45268 0.96513 0.31416 0.0
N366 N 0.34017 0.91456 0.27595 0.0
C367 C 0.33741 0.95279 0.26296 0.0
C368 C 0.38071 0.91841 0.29422 0.0
C369 C 0.41841 1.0019 0.28676 0.0
C370 C 0.42047 0.96212 0.29983 0.0
C371 C 0.37652 0.99761 0.26835 0.0
H372 H 0.40208 0.07133 0.25996 0.0
N373 N 0.2571 0.90333 0.24365 0.0
C374 C 0.29467 0.94705 0.24671 0.0
C375 C 0.24739 0.97955 0.21792 0.0
C376 C 0.29059 0.98629 0.2346 0.0
C377 C 0.21552 0.89667 0.22479 0.0
C378 C 0.20986 0.93455 0.21254 0.0
O379 O 0.18489 0.72902 0.32597 0.0
O380 O 0.25822 0.7731 0.2927 0.0
O381 O 0.26076 0.83051 0.17475 0.0
O382 O 0.32782 0.84865 0.21121 0.0
O383 O 0.26686 0.81496 0.41128 0.0
O384 O 0.30237 0.81647 0.32816 0.0
O385 O 0.27867 0.88678 0.33744 0.0
O386 O 0.20471 0.84514 0.37005 0.0
O387 O 0.20353 0.78669 0.48629 0.0
O388 O 0.13611 0.77104 0.45296 0.0
O389 O 0.19479 0.79818 0.24999 0.0
O390 O 0.16253 0.80309 0.3319 0.0
C391 C 0.21759 0.73524 0.29113 0.0
C392 C 0.30324 0.82168 0.38205 0.0
C393 C 0.32189 0.83627 0.11269 0.0
C394 C 0.31725 0.83114 0.01223 0.0
C395 C 0.38378 0.83593 0.06004 0.0
C396 C 0.3649 0.83789 0.11025 0.0
C397 C 0.36029 0.83259 0.01146 0.0
C398 C 0.29795 0.8326 0.06341 0.0
C399 C 0.30297 0.83867 0.16688 0.0
C400 C 0.32961 0.03095 0.23932 0.0
C401 C 0.37243 0.03661 0.25615 0.0
H402 H 0.24285 0.00879 0.20824 0.0
C403 C 0.24625 0.88196 0.37182 0.0
C404 C 0.15871 0.79064 0.28003 0.0
C405 C 0.14501 0.78329 0.55134 0.0
C406 C 0.15273 0.79005 0.6515 0.0
C407 C 0.08446 0.78386 0.60667 0.0
C408 C 0.10187 0.78128 0.55571 0.0
C409 C 0.10953 0.78816 0.65415 0.0
C410 C 0.17066 0.78811 0.59956 0.0
C411 C 0.16207 0.78005 0.49622 0.0
H412 H 0.41681 0.8369 0.05876 0.0
H413 H 0.38402 0.84048 0.14728 0.0
H414 H 0.37564 0.83048 0.9732 0.0
H415 H 0.26496 0.83176 0.06482 0.0
H416 H 0.05129 0.78248 0.6094 0.0
H417 H 0.08143 0.7778 0.5196 0.0
H418 H 0.09519 0.79045 0.69312 0.0
H419 H 0.2038 0.78937 0.59681 0.0
C420 C 0.45054 0.33792 0.63982 0.0
C421 C 0.53183 0.37887 0.61302 0.0
C422 C 0.49032 0.33703 0.6239 0.0
C423 C 0.53284 0.42139 0.61848 0.0
C424 C 0.45159 0.38056 0.64583 0.0
C425 C 0.49288 0.42224 0.63491 0.0
N426 N 0.41125 0.29714 0.65107 0.0
C427 C 0.3716 0.29632 0.66732 0.0
C428 C 0.41117 0.38006 0.66318 0.0
C429 C 0.37101 0.33774 0.67393 0.0
Gd430 Gd 0.43162 0.16144 0.77307 0.0
Gd431 Gd 0.41572 0.22982 0.63855 0.0
N432 N 0.4887 0.29534 0.62057 0.0
C433 C 0.57116 0.37677 0.59705 0.0
C434 C 0.52648 0.29311 0.60304 0.0
C435 C 0.56834 0.33368 0.59167 0.0
H436 H 0.52454 0.26032 0.59651 0.0
H437 H 0.5983 0.33166 0.57821 0.0
H438 H 0.32579 0.14016 0.81886 0.0
H439 H 0.34023 0.26361 0.67446 0.0
H440 H 0.24943 0.07279 0.83798 0.0
H441 H 0.60367 0.40812 0.58822 0.0
H442 H 0.56444 0.45386 0.61031 0.0
H443 H 0.4985 0.11866 0.73277 0.0
H444 H 0.4106 0.41209 0.66838 0.0
H445 H 0.33954 0.33699 0.68707 0.0
H446 H 0.26928 0.94186 0.80413 0.0
H447 H 0.49434 0.45535 0.63924 0.0
H448 H 0.41831 0.97038 0.7431 0.0
H449 H 0.49221 0.04183 0.72139 0.0
N450 N 0.42896 0.0906 0.76047 0.0
C451 C 0.38811 0.0519 0.77309 0.0
C452 C 0.46608 0.08756 0.74208 0.0
C453 C 0.42092 0.00394 0.74831 0.0
C454 C 0.46267 0.0442 0.73584 0.0
C455 C 0.38291 0.00742 0.76689 0.0
H456 H 0.33514 0.93351 0.7734 0.0
N457 N 0.35625 0.10024 0.79294 0.0
C458 C 0.35067 0.05682 0.78956 0.0
C459 C 0.27055 0.02308 0.81799 0.0
C460 C 0.30744 0.01709 0.80119 0.0
C461 C 0.32087 0.10617 0.81165 0.0
C462 C 0.27745 0.0678 0.82369 0.0
O463 O 0.45726 0.27509 0.7104 0.0
O464 O 0.48688 0.23132 0.74286 0.0
O465 O 0.43278 0.17483 0.86158 0.0
O466 O 0.48164 0.15657 0.82529 0.0
O467 O 0.45297 0.18896 0.62497 0.0
O468 O 0.48767 0.18827 0.70773 0.0
O469 O 0.39324 0.11744 0.69944 0.0
O470 O 0.36076 0.15879 0.66667 0.0
O471 O 0.41799 0.21706 0.55038 0.0
O472 O 0.36632 0.23291 0.58351 0.0
O473 O 0.39825 0.20565 0.78671 0.0
O474 O 0.36082 0.20076 0.70493 0.0
C475 C 0.48394 0.26899 0.74493 0.0
C476 C 0.48264 0.1822 0.654 0.0
C477 C 0.48875 0.17007 0.9236 0.0
C478 C 0.49173 0.17941 0.02366 0.0
C479 C 0.55132 0.17085 0.97596 0.0
C480 C 0.52968 0.16759 0.92597 0.0
C481 C 0.53261 0.17667 0.02438 0.0
C482 C 0.46975 0.1759 0.97278 0.0
C483 C 0.46704 0.16703 0.8695 0.0
C484 C 0.30229 0.97273 0.79557 0.0
C485 C 0.33986 0.96793 0.77833 0.0
H486 H 0.23683 0.99346 0.82734 0.0
C487 C 0.36546 0.12202 0.66514 0.0
C488 C 0.36962 0.21311 0.75683 0.0
C489 C 0.36333 0.22065 0.48503 0.0
C490 C 0.36197 0.20859 0.38556 0.0
C491 C 0.30391 0.22234 0.42867 0.0
C492 C 0.32397 0.22567 0.47978 0.0
C493 C 0.32263 0.21388 0.38197 0.0
C494 C 0.38243 0.21228 0.43754 0.0
C495 C 0.38329 0.22381 0.54032 0.0
H496 H 0.58276 0.16874 0.9772 0.0
H497 H 0.54522 0.16326 0.88905 0.0
H498 H 0.5499 0.17834 0.06263 0.0
H499 H 0.43839 0.1782 0.97141 0.0
H500 H 0.27372 0.22646 0.4252 0.0
H501 H 0.30848 0.23214 0.5153 0.0
H502 H 0.30662 0.21222 0.34275 0.0
H503 H 0.41262 0.20811 0.44107 0.0
H504 H 0.40984 0.2942 0.81258 0.0
H505 H 0.18201 0.27236 0.9399 0.0
H506 H 0.27635 0.18185 0.76192 0.0
H507 H 0.29202 0.40439 0.88239 0.0
H508 H 0.21975 0.23391 0.89365 0.0
H509 H 0.37079 0.33148 0.85759 0.0
C510 C 0.37226 0.27736 0.81134 0.0
C511 C 0.34603 0.23513 0.78371 0.0
C512 C 0.23541 0.27127 0.89126 0.0
C513 C 0.30148 0.27664 0.83581 0.0
C514 C 0.21415 0.29309 0.91769 0.0
C515 C 0.23405 0.34137 0.91449 0.0
C516 C 0.27735 0.29823 0.86306 0.0
C517 C 0.27559 0.36698 0.88528 0.0
C518 C 0.35014 0.29863 0.83668 0.0
C519 C 0.29753 0.21461 0.78273 0.0
N520 N 0.29624 0.34515 0.86114 0.0
N521 N 0.2766 0.23534 0.80908 0.0
H522 H 0.07015 0.40126 0.07414 0.0
H523 H 0.90493 0.19279 0.26555 0.0
H524 H 0.09647 0.28765 0.09452 0.0
H525 H 0.95056 0.3357 0.30583 0.0
H526 H 0.96423 0.21998 0.19262 0.0
H527 H 0.01396 0.37036 0.14855 0.0
C528 C 0.06397 0.36963 0.09414 0.0
C529 C 0.08803 0.34694 0.07817 0.0
C530 C 0.96123 0.24509 0.21797 0.0
C531 C 0.02323 0.3112 0.1631 0.0
C532 C 0.92745 0.22971 0.25928 0.0
C533 C 0.92285 0.26201 0.29183 0.0
C534 C 0.9895 0.2929 0.20863 0.0
C535 C 0.95286 0.30947 0.28198 0.0
C536 C 0.03204 0.35219 0.13677 0.0
C537 C 0.0787 0.3062 0.10584 0.0
N538 N 0.98447 0.3234 0.24094 0.0
N539 N 0.04657 0.28926 0.14688 0.0
H540 H 0.77757 0.13768 0.53314 0.0
H541 H 0.6424 0.87011 0.50661 0.0
H542 H 0.79217 0.07523 0.38474 0.0
H543 H 0.72041 0.93173 0.65477 0.0
H544 H 0.6874 0.94485 0.46046 0.0
H545 H 0.74748 0.063 0.57957 0.0
C546 C 0.77462 0.10845 0.51019 0.0
C547 C 0.78617 0.1126 0.45424 0.0
C548 C 0.69463 0.94177 0.50304 0.0
C549 C 0.75094 0.02699 0.50724 0.0
C550 C 0.66896 0.89919 0.52958 0.0
C551 C 0.67655 0.89475 0.58538 0.0
C552 C 0.72744 0.98048 0.53266 0.0
C553 C 0.71197 0.9338 0.61246 0.0
C554 C 0.75751 0.06591 0.53688 0.0
C555 C 0.78201 0.07339 0.42718 0.0
N556 N 0.73543 0.97532 0.5862 0.0
N557 N 0.76375 0.03193 0.45358 0.0
H558 H 0.71527 0.81257 0.7725 0.0
H559 H 0.66988 0.60326 0.96403 0.0
H560 H 0.61567 0.67001 0.73318 0.0
H561 H 0.81033 0.7165 0.94304 0.0
H562 H 0.64457 0.63457 0.8902 0.0
H563 H 0.74671 0.7849 0.84551 0.0
C564 C 0.70019 0.77562 0.77903 0.0
C565 C 0.6629 0.74356 0.74664 0.0
C566 C 0.68094 0.65259 0.90174 0.0
C567 C 0.6979 0.71211 0.83003 0.0
C568 C 0.69544 0.6349 0.94404 0.0
C569 C 0.74236 0.65734 0.95967 0.0
C570 C 0.71327 0.69357 0.87537 0.0
C571 C 0.77388 0.69811 0.93201 0.0
C572 C 0.71821 0.75996 0.82041 0.0
C573 C 0.64456 0.69605 0.75687 0.0
N574 N 0.75869 0.71527 0.8913 0.0
N575 N 0.6619 0.68184 0.79796 0.0
H576 H 0.09451 0.81904 0.28446 0.0
H577 H 0.89122 0.59697 0.14484 0.0
H578 H 0.11975 0.71473 0.21457 0.0
H579 H 0.90939 0.7314 0.10673 0.0
H580 H 0.9681 0.635 0.18873 0.0
H581 H 0.0186 0.78287 0.23747 0.0
C582 C 0.08389 0.78849 0.25934 0.0
C583 C 0.1131 0.76976 0.25293 0.0
C584 C 0.95517 0.65608 0.17074 0.0
C585 C 0.02692 0.72814 0.20059 0.0
C586 C 0.91146 0.63453 0.14604 0.0
C587 C 0.89442 0.66132 0.1223 0.0
C588 C 0.98114 0.70467 0.17326 0.0
C589 C 0.92176 0.70979 0.12448 0.0
C590 C 0.04096 0.76814 0.23248 0.0
C591 C 0.09814 0.73026 0.21999 0.0
N592 N 0.96374 0.7301 0.15025 0.0
N593 N 0.05574 0.71033 0.19551 0.0
H594 H 0.33685 0.02956 0.67277 0.0
H595 H 0.31033 0.97448 0.36452 0.0
H596 H 0.33598 0.13076 0.56365 0.0
H597 H 0.20739 0.873 0.47301 0.0
H598 H 0.33272 0.03324 0.43658 0.0
H599 H 0.3009 0.97074 0.60067 0.0
C600 C 0.32898 0.03943 0.63381 0.0
C601 C 0.33981 0.08529 0.624 0.0
C602 C 0.30499 0.99809 0.44424 0.0
C603 C 0.29998 0.01864 0.54133 0.0
C604 C 0.29232 0.96453 0.40334 0.0
C605 C 0.25718 0.91861 0.41299 0.0
C606 C 0.28343 0.9852 0.49562 0.0
C607 C 0.23482 0.90781 0.46408 0.0
C608 C 0.30833 0.00584 0.59289 0.0
C609 C 0.32854 0.096 0.57273 0.0
N610 N 0.24897 0.94065 0.50404 0.0
N611 N 0.3101 0.06313 0.53275 0.0
H612 H 0.13102 0.48401 0.57787 0.0
H613 H 0.25102 0.36561 0.40865 0.0
H614 H 0.22505 0.44493 0.64969 0.0
H615 H 0.15423 0.40087 0.33683 0.0
H616 H 0.24347 0.39656 0.49632 0.0
H617 H 0.14031 0.45553 0.48933 0.0
C618 C 0.15363 0.4694 0.57514 0.0
C619 C 0.17758 0.46728 0.62158 0.0
C620 C 0.22393 0.39771 0.46147 0.0
C621 C 0.18759 0.43358 0.51975 0.0
C622 C 0.22819 0.38 0.41129 0.0
C623 C 0.20294 0.38028 0.36524 0.0
C624 C 0.19411 0.41598 0.46611 0.0
C625 C 0.17455 0.40014 0.37106 0.0
C626 C 0.15864 0.45283 0.52445 0.0
C627 C 0.20559 0.44702 0.61536 0.0
N628 N 0.17069 0.41692 0.42061 0.0
N629 N 0.20991 0.43114 0.56546 0.0
H630 H 0.75884 0.19849 0.02445 0.0
H631 H 0.87567 0.26779 0.72589 0.0
H632 H 0.86474 0.16919 0.96886 0.0
H633 H 0.76594 0.29168 0.78046 0.0
H634 H 0.87337 0.23266 0.81494 0.0
H635 H 0.76367 0.23601 0.93665 0.0
C636 C 0.78348 0.20038 0.99406 0.0
C637 C 0.81118 0.18032 1.00407 0.0
C638 C 0.84971 0.24549 0.80734 0.0
C639 C 0.81643 0.2227 0.90285 0.0
C640 C 0.85077 0.26522 0.75633 0.0
C641 C 0.82108 0.28289 0.74564 0.0
C642 C 0.81856 0.24318 0.84794 0.0
C643 C 0.78995 0.27913 0.78704 0.0
C644 C 0.78596 0.22148 0.94368 0.0
C645 C 0.84212 0.18345 0.96271 0.0
N646 N 0.78955 0.25981 0.8362 0.0
N647 N 0.84377 0.20401 0.91398 0.0
H648 H 0.47357 0.71394 0.25854 0.0
H649 H 0.70114 0.84182 0.07048 0.0
H650 H 0.60933 0.74295 0.31164 0.0
H651 H 0.56427 0.80794 0.01569 0.0
H652 H 0.66834 0.80617 0.15886 0.0
H653 H 0.50641 0.74902 0.16998 0.0
C654 C 0.51036 0.7277 0.2516 0.0
C655 C 0.53864 0.72515 0.29267 0.0
C656 C 0.64538 0.80619 0.12743 0.0
C657 C 0.57666 0.76573 0.19089 0.0
C658 C 0.66412 0.82676 0.07692 0.0
C659 C 0.63552 0.82832 0.03551 0.0
C660 C 0.59755 0.78669 0.13689 0.0
C661 C 0.58766 0.80735 0.0461 0.0
C662 C 0.52911 0.74782 0.20094 0.0
C663 C 0.58624 0.74442 0.28148 0.0
N664 N 0.57026 0.78765 0.09576 0.0
N665 N 0.60368 0.76368 0.23163 0.0
H666 H 0.79729 0.55657 0.69461 0.0
H667 H 0.73198 0.60508 0.3943 0.0
H668 H 0.82692 0.69149 0.63838 0.0
H669 H 0.69992 0.46946 0.45066 0.0
H670 H 0.76672 0.63728 0.48369 0.0
H671 H 0.75898 0.52334 0.60689 0.0
C672 C 0.79528 0.57913 0.66417 0.0
C673 C 0.8158 0.62702 0.67391 0.0
C674 C 0.75211 0.60046 0.47651 0.0
C675 C 0.77268 0.58933 0.57284 0.0
C676 C 0.73261 0.58213 0.42524 0.0
C677 C 0.71286 0.53444 0.4148 0.0
C678 C 0.75214 0.571 0.51777 0.0
C679 C 0.71415 0.50632 0.45696 0.0
C680 C 0.77375 0.56021 0.61385 0.0
C681 C 0.81245 0.65455 0.63248 0.0
N682 N 0.73338 0.52497 0.50642 0.0
N683 N 0.79169 0.63541 0.58386 0.0
H684 H 0.11686 0.74247 0.74698 0.0
H685 H 0.35545 0.87586 0.91524 0.0
H686 H 0.24593 0.84645 0.67504 0.0
H687 H 0.22396 0.77801 0.98805 0.0
H688 H 0.31675 0.8645 0.82693 0.0
H689 H 0.1563 0.75362 0.83466 0.0
C690 C 0.1536 0.76769 0.7496 0.0
C691 C 0.178 0.79381 0.7035 0.0
C692 C 0.29625 0.84579 0.86222 0.0
C693 C 0.22364 0.80672 0.80436 0.0
C694 C 0.31837 0.85202 0.91276 0.0
C695 C 0.29304 0.82758 0.95936 0.0
C696 C 0.24826 0.815 0.85788 0.0
C697 C 0.24491 0.79787 0.95354 0.0
C698 C 0.17613 0.77401 0.79979 0.0
C699 C 0.22577 0.82534 0.7093 0.0
N700 N 0.22418 0.79229 0.90378 0.0
N701 N 0.24697 0.83107 0.75885 0.0
H702 H 0.31437 0.15041 0.30014 0.0
H703 H 0.53935 0.23607 0.11024 0.0
H704 H 0.45357 0.24807 0.35374 0.0
H705 H 0.4005 0.13596 0.05801 0.0
H706 H 0.50865 0.2407 0.19943 0.0
H707 H 0.34539 0.14387 0.21201 0.0
C708 C 0.35156 0.17037 0.29349 0.0
C709 C 0.38135 0.20024 0.33442 0.0
C710 C 0.48482 0.21773 0.16854 0.0
C711 C 0.41725 0.19249 0.23322 0.0
C712 C 0.50234 0.21499 0.1175 0.0
C713 C 0.47253 0.18532 0.07644 0.0
C714 C 0.43699 0.19068 0.17899 0.0
C715 C 0.42477 0.15957 0.08811 0.0
C716 C 0.36925 0.16648 0.2431 0.0
C717 C 0.42929 0.22448 0.32364 0.0
N718 N 0.40855 0.16271 0.13829 0.0
N719 N 0.44569 0.2203 0.27402 0.0
H720 H 0.14665 0.47244 0.14399 0.0
H721 H 0.26916 0.74191 0.20099 0.0
H722 H 0.22122 0.57346 0.01787 0.0
H723 H 0.14796 0.6439 0.29175 0.0
H724 H 0.25628 0.68028 0.13668 0.0
H725 H 0.14982 0.53411 0.20187 0.0
C726 C 0.16328 0.50759 0.12832 0.0
C727 C 0.18386 0.51801 0.07621 0.0
C728 C 0.23239 0.67235 0.17052 0.0
C729 C 0.18834 0.58865 0.14247 0.0
C730 C 0.23985 0.70743 0.20747 0.0
C731 C 0.20978 0.698 0.25209 0.0
C732 C 0.19509 0.62725 0.17878 0.0
C733 C 0.17217 0.6527 0.25816 0.0
C734 C 0.16498 0.54267 0.16128 0.0
C735 C 0.20477 0.56399 0.05771 0.0
N736 N 0.16618 0.61884 0.22225 0.0
N737 N 0.20712 0.59782 0.09119 0.0
H738 H 0.74235 0.26039 0.50358 0.0
H739 H 0.47341 0.14269 0.55322 0.0
H740 H 0.64684 0.13764 0.41329 0.0
H741 H 0.57243 0.21107 0.68359 0.0
H742 H 0.53523 0.14351 0.49745 0.0
H743 H 0.67978 0.24703 0.56636 0.0
C744 C 0.70826 0.23048 0.49704 0.0
C745 C 0.69982 0.20017 0.45293 0.0
C746 C 0.54317 0.15772 0.53855 0.0
C747 C 0.62778 0.18515 0.52425 0.0
C748 C 0.50805 0.15739 0.57029 0.0
C749 C 0.51794 0.17704 0.62296 0.0
C750 C 0.58865 0.17883 0.55922 0.0
C751 C 0.56329 0.19546 0.64326 0.0
C752 C 0.6726 0.2228 0.53305 0.0
C753 C 0.65485 0.16197 0.44655 0.0
N754 N 0.59718 0.19661 0.61098 0.0
N755 N 0.62024 0.15586 0.48141 0.0
H756 H 0.2656 0.52344 0.86424 0.0
H757 H 0.53589 0.66922 0.80916 0.0
H758 H 0.36238 0.49982 0.95691 0.0
H759 H 0.43387 0.64817 0.68628 0.0
H760 H 0.47419 0.60893 0.86549 0.0
H761 H 0.3277 0.57184 0.8008 0.0
C762 C 0.29996 0.52844 0.87131 0.0
C763 C 0.30886 0.50783 0.91628 0.0
C764 C 0.46545 0.61703 0.82585 0.0
C765 C 0.38037 0.56356 0.84364 0.0
C766 C 0.50056 0.6514 0.79375 0.0
C767 C 0.48981 0.66386 0.74322 0.0
C768 C 0.41921 0.59561 0.80767 0.0
C769 C 0.44363 0.63959 0.72496 0.0
C770 C 0.33536 0.55588 0.83479 0.0
C771 C 0.35405 0.51527 0.923 0.0
N772 N 0.40989 0.60713 0.75757 0.0
N773 N 0.38833 0.54303 0.88738 0.0
H774 H 0.86944 0.3365 0.22869 0.0
H775 H 0.74319 0.47985 0.17212 0.0
H776 H 0.78812 0.35737 0.35124 0.0
H777 H 0.8642 0.50452 0.07971 0.0
H778 H 0.75725 0.43202 0.2358 0.0
H779 H 0.86754 0.39613 0.17178 0.0
C780 C 0.85176 0.35415 0.2439 0.0
C781 C 0.8286 0.34184 0.29451 0.0
C782 C 0.78092 0.44807 0.20181 0.0
C783 C 0.82566 0.40929 0.22941 0.0
C784 C 0.77275 0.47518 0.16514 0.0
C785 C 0.80236 0.49596 0.1202 0.0
C786 C 0.81855 0.44088 0.19314 0.0
C787 C 0.84035 0.48893 0.1136 0.0
C788 C 0.85073 0.38814 0.21147 0.0
C789 C 0.80643 0.36586 0.31251 0.0
N790 N 0.84709 0.4615 0.14938 0.0
N791 N 0.80488 0.39793 0.27958 0.0
H792 H 0.36398 0.79303 0.35113 0.0
H793 H 0.51181 0.8684 0.62785 0.0
H794 H 0.33371 0.85996 0.48342 0.0
H795 H 0.48415 0.74682 0.53496 0.0
H796 H 0.46107 0.88053 0.56533 0.0
H797 H 0.42414 0.79186 0.40794 0.0
C798 C 0.37056 0.80823 0.39173 0.0
C799 C 0.34365 0.82633 0.41282 0.0
C800 C 0.46647 0.85141 0.55865 0.0
C801 C 0.41237 0.82526 0.47765 0.0
C802 C 0.49537 0.84445 0.59426 0.0
C803 C 0.5019 0.80627 0.58697 0.0
C804 C 0.44502 0.82064 0.51474 0.0
C805 C 0.47994 0.77653 0.54236 0.0
C806 C 0.40461 0.80724 0.4242 0.0
C807 C 0.35345 0.8453 0.46587 0.0
N808 N 0.45263 0.78442 0.50784 0.0
N809 N 0.38705 0.84426 0.49657 0.0
H810 H 0.67548 0.53157 0.89319 0.0
H811 H 0.52974 0.2625 0.8342 0.0
H812 H 0.64931 0.43021 0.01863 0.0
H813 H 0.50474 0.35993 0.74545 0.0
H814 H 0.57835 0.32397 0.89883 0.0
H815 H 0.61694 0.46993 0.83513 0.0
C816 C 0.65701 0.49635 0.90867 0.0
C817 C 0.66725 0.48581 0.96062 0.0
C818 C 0.562 0.33179 0.86537 0.0
C819 C 0.60108 0.41524 0.89418 0.0
C820 C 0.53446 0.29681 0.82825 0.0
C821 C 0.51333 0.30613 0.78412 0.0
C822 C 0.56929 0.37671 0.85773 0.0
C823 C 0.52054 0.35124 0.77866 0.0
C824 C 0.62361 0.46129 0.87561 0.0
C825 C 0.64226 0.43976 0.9789 0.0
N826 N 0.54837 0.38503 0.81471 0.0
N827 N 0.61078 0.40596 0.94532 0.0
loop_
_geom_bond_atom_site_label_1
_geom_bond_atom_site_label_2
_geom_bond_distance
_geom_bond_site_symmetry_2
_ccdc_geom_bond_type
C0 C2 1.422 . S
C0 C4 1.415 . S
C0 N6 1.369 . S
C1 C2 1.421 . S
C1 C3 1.417 . S
C1 C13 1.422 . S
C2 C0 1.422 . S
C2 C1 1.421 . S
C2 N12 1.359 . S
C3 C1 1.417 . S
C3 C5 1.329 . S
C3 H22 0.930 . S
C4 C0 1.415 . S
C4 C5 1.437 . S
C4 C8 1.413 . S
C5 C3 1.329 . S
C5 C4 1.437 . S
C5 H27 0.929 . S
N6 C0 1.369 . S
N6 C7 1.338 . S
N6 Gd11 2.622 . S
C7 N6 1.338 . S
C7 C9 1.378 . S
C7 H19 0.929 . S
C8 C4 1.413 . S
C8 C9 1.348 . S
C8 H24 0.931 . S
C9 C7 1.378 . S
C9 C8 1.348 . S
C9 H25 0.930 . S
Gd10 N30 2.622 . S
Gd10 N37 2.570 . S
Gd10 O44 2.353 . S
Gd10 O45 2.468 . S
Gd10 O46 2.427 . S
Gd10 O48 2.388 . S
Gd10 O49 2.386 1_556 S
Gd10 O53 2.307 . S
Gd10 C63 2.805 . S
Gd11 N6 2.622 . S
Gd11 N12 2.570 . S
Gd11 O43 2.386 1_554 S
Gd11 O47 2.307 . S
Gd11 O50 2.353 . S
Gd11 O51 2.468 . S
Gd11 O52 2.427 . S
Gd11 O54 2.388 . S
Gd11 C75 2.805 . S
N12 C2 1.359 . S
N12 Gd11 2.570 . S
N12 C14 1.343 . S
C13 C1 1.422 . S
C13 C15 1.321 . S
C13 H21 0.931 . S
C14 N12 1.343 . S
C14 C15 1.390 . S
C14 H16 0.931 . S
C15 C13 1.321 . S
C15 C14 1.390 . S
C15 H17 0.930 . S
H16 C14 0.931 . S
H17 C15 0.930 . S
H18 C41 0.931 . S
H19 C7 0.929 . S
H20 C42 0.930 . S
H21 C13 0.931 . S
H22 C3 0.930 . S
H23 C32 0.929 . S
H24 C8 0.931 . S
H25 C9 0.930 . S
H26 C64 0.930 . S
H27 C5 0.929 . S
H28 C33 0.913 1_655 S
H29 C34 0.930 . S
N30 Gd10 2.622 . S
N30 C31 1.369 . S
N30 C32 1.338 . S
C31 N30 1.369 . S
C31 C35 1.416 . S
C31 C38 1.422 . S
C32 H23 0.929 . S
C32 N30 1.338 . S
C32 C34 1.378 . S
C33 H28 0.913 1_455 S
C33 C34 1.358 . S
C33 C35 1.421 . S
C34 H29 0.930 . S
C34 C32 1.378 . S
C34 C33 1.358 . S
C35 C31 1.416 . S
C35 C33 1.421 . S
C35 C65 1.437 1_455 S
H36 C65 0.929 . S
N37 Gd10 2.570 . S
N37 C38 1.359 . S
N37 C41 1.343 . S
C38 C31 1.422 . S
C38 N37 1.359 . S
C38 C40 1.434 . S
C39 C40 1.436 . S
C39 C42 1.321 . S
C39 H66 0.931 1_455 S
C40 C38 1.434 . S
C40 C39 1.436 . S
C40 C64 1.393 1_455 S
C41 H18 0.931 . S
C41 N37 1.343 . S
C41 C42 1.390 . S
C42 H20 0.930 . S
C42 C39 1.321 . S
C42 C41 1.390 . S
O43 Gd11 2.386 1_556 S
O43 C55 1.265 . S
O44 Gd10 2.353 . S
O44 C55 1.242 . S
O45 Gd10 2.468 . S
O45 C63 1.263 . S
O46 Gd10 2.427 . S
O46 C63 1.252 . S
O47 Gd11 2.307 . S
O47 C56 1.261 . S
O48 Gd10 2.388 . S
O48 C56 1.252 1_556 S
O49 Gd10 2.386 1_554 S
O49 C67 1.265 . S
O50 Gd11 2.353 . S
O50 C67 1.242 . S
O51 Gd11 2.468 . S
O51 C75 1.263 . S
O52 Gd11 2.427 . S
O52 C75 1.252 . S
O53 Gd10 2.307 . S
O53 C68 1.261 . S
O54 Gd11 2.388 . S
O54 C68 1.252 1_554 S
C55 O43 1.265 . S
C55 O44 1.242 . S
C56 O47 1.261 . S
C56 O48 1.252 1_554 S
C57 C60 1.394 . S
C57 C62 1.370 . S
C57 C63 1.500 . S
C58 C61 1.383 . S
C58 C62 1.395 . S
C59 C60 1.396 . S
C59 C61 1.365 . S
C59 H76 0.929 . S
C60 C57 1.394 . S
C60 C59 1.396 . S
C60 H77 0.930 . S
C61 C58 1.383 . S
C61 C59 1.365 . S
C61 H78 0.931 . S
C62 C57 1.370 . S
C62 C58 1.395 . S
C62 H79 0.930 . S
C63 Gd10 2.805 . S
C63 O45 1.263 . S
C63 O46 1.252 . S
C63 C57 1.500 . S
C64 H26 0.930 . S
C64 C40 1.393 1_655 S
C64 C65 1.329 . S
C65 C35 1.437 1_655 S
C65 H36 0.929 . S
C65 C64 1.329 . S
H66 C39 0.931 1_655 S
C67 O49 1.265 . S
C67 O50 1.242 . S
C68 O53 1.261 . S
C68 O54 1.252 1_556 S
C69 C72 1.394 . S
C69 C74 1.370 . S
C69 C75 1.500 . S
C70 C73 1.383 . S
C70 C74 1.395 . S
C71 C72 1.396 . S
C71 C73 1.365 . S
C71 H80 0.929 . S
C72 C69 1.394 . S
C72 C71 1.396 . S
C72 H81 0.930 . S
C73 C70 1.383 . S
C73 C71 1.365 . S
C73 H82 0.931 . S
C74 C69 1.370 . S
C74 C70 1.395 . S
C74 H83 0.930 . S
C75 Gd11 2.805 . S
C75 O51 1.263 . S
C75 O52 1.252 . S
C75 C69 1.500 . S
H76 C59 0.929 . S
H77 C60 0.930 . S
H78 C61 0.931 . S
H79 C62 0.930 . S
H80 C71 0.929 . S
H81 C72 0.930 . S
H82 C73 0.931 . S
H83 C74 0.930 . S
C84 C86 1.422 . S
C84 C88 1.415 . S
C84 N90 1.369 . S
C85 C86 1.421 . S
C85 C87 1.417 . S
C85 C97 1.422 . S
C86 C84 1.422 . S
C86 C85 1.421 . S
C86 N96 1.359 . S
C87 C85 1.417 . S
C87 C89 1.329 . S
C87 H106 0.930 . S
C88 C84 1.415 . S
C88 C89 1.437 . S
C88 C92 1.423 . S
C89 C87 1.329 . S
C89 C88 1.437 . S
C89 H111 0.929 . S
N90 C84 1.369 . S
N90 C91 1.338 . S
N90 Gd95 2.622 . S
C91 N90 1.338 . S
C91 C93 1.378 . S
C91 H103 0.929 . S
C92 C88 1.423 . S
C92 C93 1.343 . S
C92 H108 0.926 1_545 S
C93 C91 1.378 . S
C93 C92 1.343 . S
C93 H109 0.930 1_545 S
Gd94 N114 2.622 . S
Gd94 N121 2.570 . S
Gd94 O128 2.353 . S
Gd94 O129 2.468 . S
Gd94 O130 2.427 . S
Gd94 O132 2.388 . S
Gd94 O133 2.386 . S
Gd94 O137 2.307 . S
Gd94 C147 2.805 . S
Gd95 N90 2.622 . S
Gd95 N96 2.570 . S
Gd95 O127 2.386 . S
Gd95 O131 2.307 . S
Gd95 O134 2.353 . S
Gd95 O135 2.468 . S
Gd95 O136 2.427 . S
Gd95 O138 2.388 . S
Gd95 C159 2.805 . S
N96 C86 1.359 . S
N96 Gd95 2.570 . S
N96 C98 1.343 . S
C97 C85 1.422 . S
C97 C99 1.321 . S
C97 H105 0.931 . S
C98 N96 1.343 . S
C98 C99 1.390 . S
C98 H100 0.931 . S
C99 C97 1.321 . S
C99 C98 1.390 . S
C99 H101 0.930 . S
H100 C98 0.931 . S
H101 C99 0.930 . S
H102 C125 0.931 . S
H103 C91 0.929 . S
H104 C126 0.930 . S
H105 C97 0.931 . S
H106 C87 0.930 . S
H107 C116 0.929 . S
H108 C92 0.926 1_565 S
H109 C93 0.930 1_565 S
H110 C148 0.930 . S
H111 C89 0.929 . S
H112 C117 0.922 1_455 S
H113 C118 0.930 . S
N114 Gd94 2.622 . S
N114 C115 1.369 . S
N114 C116 1.338 . S
C115 N114 1.369 . S
C115 C119 1.415 . S
C115 C122 1.422 . S
C116 H107 0.929 . S
C116 N114 1.338 . S
C116 C118 1.378 . S
C117 H112 0.922 1_655 S
C117 C118 1.366 . S
C117 C119 1.404 . S
C118 H113 0.930 . S
C118 C116 1.378 . S
C118 C117 1.366 . S
C119 C115 1.415 . S
C119 C117 1.404 . S
C119 C149 1.437 1_655 S
H120 C149 0.929 . S
N121 Gd94 2.570 . S
N121 C122 1.359 . S
N121 C125 1.343 . S
C122 C115 1.422 . S
C122 N121 1.359 . S
C122 C124 1.446 . S
C123 C124 1.411 . S
C123 C126 1.321 . S
C123 H150 0.931 1_655 S
C124 C122 1.446 . S
C124 C123 1.411 . S
C124 C148 1.405 1_655 S
C125 H102 0.931 . S
C125 N121 1.343 . S
C125 C126 1.390 . S
C126 H104 0.930 . S
C126 C123 1.321 . S
C126 C125 1.390 . S
O127 Gd95 2.386 . S
O127 C139 1.265 . S
O128 Gd94 2.353 . S
O128 C139 1.242 . S
O129 Gd94 2.468 . S
O129 C147 1.263 . S
O130 Gd94 2.427 . S
O130 C147 1.252 . S
O131 Gd95 2.307 . S
O131 C140 1.261 . S
O132 Gd94 2.388 . S
O132 C140 1.252 . S
O133 Gd94 2.386 . S
O133 C151 1.265 . S
O134 Gd95 2.353 . S
O134 C151 1.242 . S
O135 Gd95 2.468 . S
O135 C159 1.263 . S
O136 Gd95 2.427 . S
O136 C159 1.252 . S
O137 Gd94 2.307 . S
O137 C152 1.261 . S
O138 Gd95 2.388 . S
O138 C152 1.252 . S
C139 O127 1.265 . S
C139 O128 1.242 . S
C140 O131 1.261 . S
C140 O132 1.252 . S
C141 C144 1.394 . S
C141 C146 1.370 . S
C141 C147 1.500 . S
C142 C145 1.383 . S
C142 C146 1.395 . S
C143 C144 1.396 . S
C143 C145 1.365 . S
C143 H160 0.929 . S
C144 C141 1.394 . S
C144 C143 1.396 . S
C144 H161 0.930 . S
C145 C142 1.383 . S
C145 C143 1.365 . S
C145 H162 0.931 . S
C146 C141 1.370 . S
C146 C142 1.395 . S
C146 H163 0.930 . S
C147 Gd94 2.805 . S
C147 O129 1.263 . S
C147 O130 1.252 . S
C147 C141 1.500 . S
C148 H110 0.930 . S
C148 C124 1.405 1_455 S
C148 C149 1.329 . S
C149 C119 1.437 1_455 S
C149 H120 0.929 . S
C149 C148 1.329 . S
H150 C123 0.931 1_455 S
C151 O133 1.265 . S
C151 O134 1.242 . S
C152 O137 1.261 . S
C152 O138 1.252 . S
C153 C156 1.394 . S
C153 C158 1.370 . S
C153 C159 1.500 . S
C154 C157 1.383 . S
C154 C158 1.395 . S
C155 C156 1.396 . S
C155 C157 1.365 . S
C155 H164 0.929 . S
C156 C153 1.394 . S
C156 C155 1.396 . S
C156 H165 0.930 . S
C157 C154 1.383 . S
C157 C155 1.365 . S
C157 H166 0.931 1_554 S
C158 C153 1.370 . S
C158 C154 1.395 . S
C158 H167 0.930 . S
C159 Gd95 2.805 . S
C159 O135 1.263 . S
C159 O136 1.252 . S
C159 C153 1.500 . S
H160 C143 0.929 . S
H161 C144 0.930 . S
H162 C145 0.931 . S
H163 C146 0.930 . S
H164 C155 0.929 . S
H165 C156 0.930 . S
H166 C157 0.931 1_556 S
H167 C158 0.930 . S
C168 C170 1.422 . S
C168 C172 1.415 . S
C168 N174 1.369 . S
C169 C170 1.421 . S
C169 C171 1.417 . S
C169 C181 1.422 . S
C170 C168 1.422 . S
C170 C169 1.421 . S
C170 N180 1.359 . S
C171 C169 1.417 . S
C171 C173 1.329 . S
C171 H190 0.930 . S
C172 C168 1.415 . S
C172 C173 1.437 . S
C172 C176 1.418 . S
C173 C171 1.329 . S
C173 C172 1.437 . S
C173 H195 0.929 . S
N174 C168 1.369 . S
N174 C175 1.338 . S
N174 Gd179 2.622 . S
C175 N174 1.338 . S
C175 C177 1.378 . S
C175 H187 0.929 . S
C176 C172 1.418 . S
C176 C177 1.353 . S
C176 H192 0.921 1_565 S
C177 C175 1.378 . S
C177 C176 1.353 . S
C177 H193 0.930 1_565 S
Gd178 N198 2.622 . S
Gd178 N205 2.570 . S
Gd178 O212 2.353 . S
Gd178 O213 2.468 . S
Gd178 O214 2.427 . S
Gd178 O216 2.388 . S
Gd178 O217 2.386 . S
Gd178 O221 2.307 . S
Gd178 C231 2.805 . S
Gd179 N174 2.622 . S
Gd179 N180 2.570 . S
Gd179 O211 2.386 . S
Gd179 O215 2.307 . S
Gd179 O218 2.353 . S
Gd179 O219 2.468 . S
Gd179 O220 2.427 . S
Gd179 O222 2.388 . S
Gd179 C243 2.805 . S
N180 C170 1.359 . S
N180 Gd179 2.570 . S
N180 C182 1.343 . S
C181 C169 1.422 . S
C181 C183 1.321 . S
C181 H189 0.931 . S
C182 N180 1.343 . S
C182 C183 1.390 . S
C182 H184 0.931 . S
C183 C181 1.321 . S
C183 C182 1.390 . S
C183 H185 0.930 . S
H184 C182 0.931 . S
H185 C183 0.930 . S
H186 C209 0.931 . S
H187 C175 0.929 . S
H188 C210 0.930 . S
H189 C181 0.931 . S
H190 C171 0.930 . S
H191 C200 0.929 . S
H192 C176 0.921 1_545 S
H193 C177 0.930 1_545 S
H194 C232 0.930 . S
H195 C173 0.929 . S
H196 C201 0.931 . S
H197 C202 0.930 . S
N198 Gd178 2.622 . S
N198 C199 1.369 . S
N198 C200 1.338 . S
C199 N198 1.369 . S
C199 C203 1.415 . S
C199 C206 1.422 . S
C200 H191 0.929 . S
C200 N198 1.338 . S
C200 C202 1.378 . S
C201 H196 0.931 . S
C201 C202 1.348 . S
C201 C203 1.413 . S
C202 H197 0.930 . S
C202 C200 1.378 . S
C202 C201 1.348 . S
C203 C199 1.415 . S
C203 C201 1.413 . S
C203 C233 1.437 . S
H204 C233 0.929 . S
N205 Gd178 2.570 . S
N205 C206 1.359 . S
N205 C209 1.343 . S
C206 C199 1.422 . S
C206 N205 1.359 . S
C206 C208 1.421 . S
C207 C208 1.422 . S
C207 C210 1.321 . S
C207 H234 0.931 . S
C208 C206 1.421 . S
C208 C207 1.422 . S
C208 C232 1.417 . S
C209 H186 0.931 . S
C209 N205 1.343 . S
C209 C210 1.390 . S
C210 H188 0.930 . S
C210 C207 1.321 . S
C210 C209 1.390 . S
O211 Gd179 2.386 . S
O211 C223 1.265 . S
O212 Gd178 2.353 . S
O212 C223 1.242 . S
O213 Gd178 2.468 . S
O213 C231 1.263 . S
O214 Gd178 2.427 . S
O214 C231 1.252 . S
O215 Gd179 2.307 . S
O215 C224 1.261 . S
O216 Gd178 2.388 . S
O216 C224 1.252 . S
O217 Gd178 2.386 . S
O217 C235 1.265 . S
O218 Gd179 2.353 . S
O218 C235 1.242 . S
O219 Gd179 2.468 . S
O219 C243 1.263 . S
O220 Gd179 2.427 . S
O220 C243 1.252 . S
O221 Gd178 2.307 . S
O221 C236 1.261 . S
O222 Gd179 2.388 . S
O222 C236 1.252 . S
C223 O211 1.265 . S
C223 O212 1.242 . S
C224 O215 1.261 . S
C224 O216 1.252 . S
C225 C228 1.394 . S
C225 C230 1.370 . S
C225 C231 1.500 . S
C226 C229 1.383 . S
C226 C230 1.395 . S
C227 C228 1.396 . S
C227 C229 1.365 . S
C227 H244 0.929 . S
C228 C225 1.394 . S
C228 C227 1.396 . S
C228 H245 0.930 . S
C229 C226 1.383 . S
C229 C227 1.365 . S
C229 H246 0.931 . S
C230 C225 1.370 . S
C230 C226 1.395 . S
C230 H247 0.930 . S
C231 Gd178 2.805 . S
C231 O213 1.263 . S
C231 O214 1.252 . S
C231 C225 1.500 . S
C232 H194 0.930 . S
C232 C208 1.417 . S
C232 C233 1.329 . S
C233 C203 1.437 . S
C233 H204 0.929 . S
C233 C232 1.329 . S
H234 C207 0.931 . S
C235 O217 1.265 . S
C235 O218 1.242 . S
C236 O221 1.261 . S
C236 O222 1.252 . S
C237 C240 1.394 . S
C237 C242 1.370 . S
C237 C243 1.500 . S
C238 C241 1.383 1_556 S
C238 C242 1.395 . S
C239 C240 1.396 . S
C239 C241 1.365 1_556 S
C239 H248 0.929 . S
C240 C237 1.394 . S
C240 C239 1.396 . S
C240 H249 0.930 . S
C241 C238 1.383 1_554 S
C241 C239 1.365 1_554 S
C241 H250 0.931 . S
C242 C237 1.370 . S
C242 C238 1.395 . S
C242 H251 0.930 . S
C243 Gd179 2.805 . S
C243 O219 1.263 . S
C243 O220 1.252 . S
C243 C237 1.500 . S
H244 C227 0.929 . S
H245 C228 0.930 . S
H246 C229 0.931 . S
H247 C230 0.930 . S
H248 C239 0.929 . S
H249 C240 0.930 . S
H250 C241 0.931 . S
H251 C242 0.930 . S
C252 C254 1.422 . S
C252 C256 1.415 . S
C252 N258 1.369 . S
C253 C254 1.421 . S
C253 C255 1.417 . S
C253 C265 1.422 . S
C254 C252 1.422 . S
C254 C253 1.421 . S
C254 N264 1.359 . S
C255 C253 1.417 . S
C255 C257 1.329 . S
C255 H274 0.930 . S
C256 C252 1.415 . S
C256 C257 1.437 . S
C256 C260 1.418 . S
C257 C255 1.329 . S
C257 C256 1.437 . S
C257 H279 0.929 . S
N258 C252 1.369 . S
N258 C259 1.338 . S
N258 Gd263 2.622 . S
C259 N258 1.338 . S
C259 C261 1.378 . S
C259 H271 0.929 . S
C260 C256 1.418 . S
C260 C261 1.353 . S
C260 H276 0.921 1_655 S
C261 C259 1.378 . S
C261 C260 1.353 . S
C261 H277 0.930 1_655 S
Gd262 N282 2.622 . S
Gd262 N289 2.570 . S
Gd262 O296 2.353 . S
Gd262 O297 2.468 . S
Gd262 O298 2.427 . S
Gd262 O300 2.388 . S
Gd262 O301 2.386 . S
Gd262 O305 2.307 . S
Gd262 C315 2.805 . S
Gd263 N258 2.622 . S
Gd263 N264 2.570 . S
Gd263 O295 2.386 1_556 S
Gd263 O299 2.307 . S
Gd263 O302 2.353 . S
Gd263 O303 2.468 . S
Gd263 O304 2.427 . S
Gd263 O306 2.388 1_556 S
Gd263 C327 2.805 . S
N264 C254 1.359 . S
N264 Gd263 2.570 . S
N264 C266 1.343 . S
C265 C253 1.422 . S
C265 C267 1.321 . S
C265 H273 0.931 . S
C266 N264 1.343 . S
C266 C267 1.390 . S
C266 H268 0.931 . S
C267 C265 1.321 . S
C267 C266 1.390 . S
C267 H269 0.930 . S
H268 C266 0.931 . S
H269 C267 0.930 . S
H270 C293 0.931 . S
H271 C259 0.929 . S
H272 C294 0.930 . S
H273 C265 0.931 . S
H274 C255 0.930 . S
H275 C284 0.929 . S
H276 C260 0.921 1_455 S
H277 C261 0.930 1_455 S
H278 C316 0.930 . S
H279 C257 0.929 . S
H280 C285 0.931 . S
H281 C286 0.930 . S
N282 Gd262 2.622 . S
N282 C283 1.369 . S
N282 C284 1.338 . S
C283 N282 1.369 . S
C283 C287 1.415 . S
C283 C290 1.422 . S
C284 H275 0.929 . S
C284 N282 1.338 . S
C284 C286 1.378 . S
C285 H280 0.931 . S
C285 C286 1.348 . S
C285 C287 1.413 . S
C286 H281 0.930 . S
C286 C284 1.378 . S
C286 C285 1.348 . S
C287 C283 1.415 . S
C287 C285 1.413 . S
C287 C317 1.437 . S
H288 C317 0.929 . S
N289 Gd262 2.570 . S
N289 C290 1.359 . S
N289 C293 1.343 . S
C290 C283 1.422 . S
C290 N289 1.359 . S
C290 C292 1.421 . S
C291 C292 1.422 . S
C291 C294 1.321 . S
C291 H318 0.931 . S
C292 C290 1.421 . S
C292 C291 1.422 . S
C292 C316 1.417 . S
C293 H270 0.931 . S
C293 N289 1.343 . S
C293 C294 1.390 . S
C294 H272 0.930 . S
C294 C291 1.321 . S
C294 C293 1.390 . S
O295 Gd263 2.386 1_554 S
O295 C307 1.265 . S
O296 Gd262 2.353 . S
O296 C307 1.242 . S
O297 Gd262 2.468 . S
O297 C315 1.263 . S
O298 Gd262 2.427 . S
O298 C315 1.252 . S
O299 Gd263 2.307 . S
O299 C308 1.261 . S
O300 Gd262 2.388 . S
O300 C308 1.252 1_554 S
O301 Gd262 2.386 . S
O301 C319 1.265 1_554 S
O302 Gd263 2.353 . S
O302 C319 1.242 . S
O303 Gd263 2.468 . S
O303 C327 1.263 . S
O304 Gd263 2.427 . S
O304 C327 1.252 . S
O305 Gd262 2.307 . S
O305 C320 1.261 . S
O306 Gd263 2.388 1_554 S
O306 C320 1.252 . S
C307 O295 1.265 . S
C307 O296 1.242 . S
C308 O299 1.261 . S
C308 O300 1.252 1_556 S
C309 C312 1.394 . S
C309 C314 1.370 . S
C309 C315 1.500 . S
C310 C313 1.383 . S
C310 C314 1.395 . S
C311 C312 1.396 . S
C311 C313 1.365 . S
C311 H328 0.929 . S
C312 C309 1.394 . S
C312 C311 1.396 . S
C312 H329 0.930 . S
C313 C310 1.383 . S
C313 C311 1.365 . S
C313 H330 0.931 . S
C314 C309 1.370 . S
C314 C310 1.395 . S
C314 H331 0.930 . S
C315 Gd262 2.805 . S
C315 O297 1.263 . S
C315 O298 1.252 . S
C315 C309 1.500 . S
C316 H278 0.930 . S
C316 C292 1.417 . S
C316 C317 1.329 . S
C317 C287 1.437 . S
C317 H288 0.929 . S
C317 C316 1.329 . S
H318 C291 0.931 . S
C319 O301 1.265 1_556 S
C319 O302 1.242 . S
C320 O305 1.261 . S
C320 O306 1.252 . S
C321 C324 1.394 . S
C321 C326 1.370 . S
C321 C327 1.500 . S
C322 C325 1.383 . S
C322 C326 1.395 . S
C323 C324 1.396 . S
C323 C325 1.365 . S
C323 H332 0.929 . S
C324 C321 1.394 . S
C324 C323 1.396 . S
C324 H333 0.930 . S
C325 C322 1.383 . S
C325 C323 1.365 . S
C325 H334 0.931 . S
C326 C321 1.370 . S
C326 C322 1.395 . S
C326 H335 0.930 . S
C327 Gd263 2.805 . S
C327 O303 1.263 . S
C327 O304 1.252 . S
C327 C321 1.500 . S
H328 C311 0.929 . S
H329 C312 0.930 . S
H330 C313 0.931 . S
H331 C314 0.930 . S
H332 C323 0.929 . S
H333 C324 0.930 . S
H334 C325 0.931 . S
H335 C326 0.930 . S
C336 C338 1.422 . S
C336 C340 1.415 . S
C336 N342 1.369 . S
C337 C338 1.421 . S
C337 C339 1.417 . S
C337 C349 1.422 . S
C338 C336 1.422 . S
C338 C337 1.421 . S
C338 N348 1.359 . S
C339 C337 1.417 . S
C339 C341 1.329 . S
C339 H358 0.930 . S
C340 C336 1.415 . S
C340 C341 1.437 . S
C340 C344 1.423 . S
C341 C339 1.329 . S
C341 C340 1.437 . S
C341 H363 0.929 . S
N342 C336 1.369 . S
N342 C343 1.338 . S
N342 Gd347 2.622 . S
C343 N342 1.338 . S
C343 C345 1.378 . S
C343 H355 0.929 . S
C344 C340 1.423 . S
C344 C345 1.343 . S
C344 H360 0.926 1_455 S
C345 C343 1.378 . S
C345 C344 1.343 . S
C345 H361 0.930 1_455 S
Gd346 N366 2.622 . S
Gd346 N373 2.570 . S
Gd346 O380 2.353 . S
Gd346 O381 2.468 . S
Gd346 O382 2.427 . S
Gd346 O384 2.388 . S
Gd346 O385 2.386 . S
Gd346 O389 2.307 . S
Gd346 C399 2.805 . S
Gd347 N342 2.622 . S
Gd347 N348 2.570 . S
Gd347 O379 2.386 . S
Gd347 O383 2.307 . S
Gd347 O386 2.353 . S
Gd347 O387 2.468 . S
Gd347 O388 2.427 . S
Gd347 O390 2.388 . S
Gd347 C411 2.805 . S
N348 C338 1.359 . S
N348 Gd347 2.570 . S
N348 C350 1.343 . S
C349 C337 1.422 . S
C349 C351 1.321 . S
C349 H357 0.931 . S
C350 N348 1.343 . S
C350 C351 1.390 . S
C350 H352 0.931 . S
C351 C349 1.321 . S
C351 C350 1.390 . S
C351 H353 0.930 . S
H352 C350 0.931 . S
H353 C351 0.930 . S
H354 C377 0.931 . S
H355 C343 0.929 . S
H356 C378 0.930 . S
H357 C349 0.931 . S
H358 C339 0.930 . S
H359 C368 0.929 . S
H360 C344 0.926 1_655 S
H361 C345 0.930 1_655 S
H362 C400 0.930 . S
H363 C341 0.929 . S
H364 C369 0.922 1_545 S
H365 C370 0.930 . S
N366 Gd346 2.622 . S
N366 C367 1.369 . S
N366 C368 1.338 . S
C367 N366 1.369 . S
C367 C371 1.416 . S
C367 C374 1.422 . S
C368 H359 0.929 . S
C368 N366 1.338 . S
C368 C370 1.378 . S
C369 H364 0.922 1_565 S
C369 C370 1.367 . S
C369 C371 1.404 . S
C370 H365 0.930 . S
C370 C368 1.378 . S
C370 C369 1.367 . S
C371 C367 1.416 . S
C371 C369 1.404 . S
C371 C401 1.436 1_565 S
H372 C401 0.929 . S
N373 Gd346 2.570 . S
N373 C374 1.359 . S
N373 C377 1.343 . S
C374 C367 1.422 . S
C374 N373 1.359 . S
C374 C376 1.447 . S
C375 C376 1.411 . S
C375 C378 1.321 . S
C375 H402 0.931 1_565 S
C376 C374 1.447 . S
C376 C375 1.411 . S
C376 C400 1.405 1_565 S
C377 H354 0.931 . S
C377 N373 1.343 . S
C377 C378 1.390 . S
C378 H356 0.930 . S
C378 C375 1.321 . S
C378 C377 1.390 . S
O379 Gd347 2.386 . S
O379 C391 1.265 . S
O380 Gd346 2.353 . S
O380 C391 1.242 . S
O381 Gd346 2.468 . S
O381 C399 1.263 . S
O382 Gd346 2.427 . S
O382 C399 1.252 . S
O383 Gd347 2.307 . S
O383 C392 1.261 . S
O384 Gd346 2.388 . S
O384 C392 1.252 . S
O385 Gd346 2.386 . S
O385 C403 1.265 . S
O386 Gd347 2.353 . S
O386 C403 1.242 . S
O387 Gd347 2.468 . S
O387 C411 1.263 . S
O388 Gd347 2.427 . S
O388 C411 1.252 . S
O389 Gd346 2.307 . S
O389 C404 1.261 . S
O390 Gd347 2.388 . S
O390 C404 1.252 . S
C391 O379 1.265 . S
C391 O380 1.242 . S
C392 O383 1.261 . S
C392 O384 1.252 . S
C393 C396 1.394 . S
C393 C398 1.370 . S
C393 C399 1.500 . S
C394 C397 1.383 1_554 S
C394 C398 1.395 . S
C395 C396 1.396 . S
C395 C397 1.365 1_554 S
C395 H412 0.929 . S
C396 C393 1.394 . S
C396 C395 1.396 . S
C396 H413 0.930 . S
C397 C394 1.383 1_556 S
C397 C395 1.365 1_556 S
C397 H414 0.931 . S
C398 C393 1.370 . S
C398 C394 1.395 . S
C398 H415 0.930 . S
C399 Gd346 2.805 . S
C399 O381 1.263 . S
C399 O382 1.252 . S
C399 C393 1.500 . S
C400 H362 0.930 . S
C400 C376 1.405 1_545 S
C400 C401 1.329 . S
C401 C371 1.436 1_545 S
C401 H372 0.929 . S
C401 C400 1.329 . S
H402 C375 0.931 1_545 S
C403 O385 1.265 . S
C403 O386 1.242 . S
C404 O389 1.261 . S
C404 O390 1.252 . S
C405 C408 1.394 . S
C405 C410 1.370 . S
C405 C411 1.500 . S
C406 C409 1.383 . S
C406 C410 1.395 . S
C407 C408 1.396 . S
C407 C409 1.365 . S
C407 H416 0.929 . S
C408 C405 1.394 . S
C408 C407 1.396 . S
C408 H417 0.930 . S
C409 C406 1.383 . S
C409 C407 1.365 . S
C409 H418 0.931 . S
C410 C405 1.370 . S
C410 C406 1.395 . S
C410 H419 0.930 . S
C411 Gd347 2.805 . S
C411 O387 1.263 . S
C411 O388 1.252 . S
C411 C405 1.500 . S
H412 C395 0.929 . S
H413 C396 0.930 . S
H414 C397 0.931 . S
H415 C398 0.930 . S
H416 C407 0.929 . S
H417 C408 0.930 . S
H418 C409 0.931 . S
H419 C410 0.930 . S
C420 C422 1.422 . S
C420 C424 1.415 . S
C420 N426 1.369 . S
C421 C422 1.421 . S
C421 C423 1.417 . S
C421 C433 1.422 . S
C422 C420 1.422 . S
C422 C421 1.421 . S
C422 N432 1.359 . S
C423 C421 1.417 . S
C423 C425 1.329 . S
C423 H442 0.930 . S
C424 C420 1.415 . S
C424 C425 1.437 . S
C424 C428 1.413 . S
C425 C423 1.329 . S
C425 C424 1.437 . S
C425 H447 0.929 . S
N426 C420 1.369 . S
N426 C427 1.338 . S
N426 Gd431 2.622 . S
C427 N426 1.338 . S
C427 C429 1.378 . S
C427 H439 0.929 . S
C428 C424 1.413 . S
C428 C429 1.348 . S
C428 H444 0.931 . S
C429 C427 1.378 . S
C429 C428 1.348 . S
C429 H445 0.930 . S
Gd430 N450 2.622 . S
Gd430 N457 2.570 . S
Gd430 O464 2.353 . S
Gd430 O465 2.468 . S
Gd430 O466 2.427 . S
Gd430 O468 2.388 . S
Gd430 O469 2.386 . S
Gd430 O473 2.307 . S
Gd430 C483 2.805 . S
Gd431 N426 2.622 . S
Gd431 N432 2.570 . S
Gd431 O463 2.386 . S
Gd431 O467 2.307 . S
Gd431 O470 2.353 . S
Gd431 O471 2.468 . S
Gd431 O472 2.427 . S
Gd431 O474 2.388 . S
Gd431 C495 2.805 . S
N432 C422 1.359 . S
N432 Gd431 2.570 . S
N432 C434 1.343 . S
C433 C421 1.422 . S
C433 C435 1.321 . S
C433 H441 0.931 . S
C434 N432 1.343 . S
C434 C435 1.390 . S
C434 H436 0.931 . S
C435 C433 1.321 . S
C435 C434 1.390 . S
C435 H437 0.930 . S
H436 C434 0.931 . S
H437 C435 0.930 . S
H438 C461 0.931 . S
H439 C427 0.929 . S
H440 C462 0.930 . S
H441 C433 0.931 . S
H442 C423 0.930 . S
H443 C452 0.929 . S
H444 C428 0.931 . S
H445 C429 0.930 . S
H446 C484 0.930 . S
H447 C425 0.929 . S
H448 C453 0.912 1_565 S
H449 C454 0.930 . S
N450 Gd430 2.622 . S
N450 C451 1.369 . S
N450 C452 1.338 . S
C451 N450 1.369 . S
C451 C455 1.416 . S
C451 C458 1.422 . S
C452 H443 0.929 . S
C452 N450 1.338 . S
C452 C454 1.378 . S
C453 H448 0.912 1_545 S
C453 C454 1.358 . S
C453 C455 1.421 . S
C454 H449 0.930 . S
C454 C452 1.378 . S
C454 C453 1.358 . S
C455 C451 1.416 . S
C455 C453 1.421 . S
C455 C485 1.437 1_545 S
H456 C485 0.929 . S
N457 Gd430 2.570 . S
N457 C458 1.359 . S
N457 C461 1.343 . S
C458 C451 1.422 . S
C458 N457 1.359 . S
C458 C460 1.434 . S
C459 C460 1.436 . S
C459 C462 1.321 . S
C459 H486 0.931 1_545 S
C460 C458 1.434 . S
C460 C459 1.436 . S
C460 C484 1.392 1_545 S
C461 H438 0.931 . S
C461 N457 1.343 . S
C461 C462 1.390 . S
C462 H440 0.930 . S
C462 C459 1.321 . S
C462 C461 1.390 . S
O463 Gd431 2.386 . S
O463 C475 1.265 . S
O464 Gd430 2.353 . S
O464 C475 1.242 . S
O465 Gd430 2.468 . S
O465 C483 1.263 . S
O466 Gd430 2.427 . S
O466 C483 1.252 . S
O467 Gd431 2.307 . S
O467 C476 1.261 . S
O468 Gd430 2.388 . S
O468 C476 1.252 . S
O469 Gd430 2.386 . S
O469 C487 1.265 . S
O470 Gd431 2.353 . S
O470 C487 1.242 . S
O471 Gd431 2.468 . S
O471 C495 1.263 . S
O472 Gd431 2.427 . S
O472 C495 1.252 . S
O473 Gd430 2.307 . S
O473 C488 1.261 . S
O474 Gd431 2.388 . S
O474 C488 1.252 . S
C475 O463 1.265 . S
C475 O464 1.242 . S
C476 O467 1.261 . S
C476 O468 1.252 . S
C477 C480 1.394 . S
C477 C482 1.370 . S
C477 C483 1.500 . S
C478 C481 1.383 . S
C478 C482 1.395 1_554 S
C479 C480 1.396 . S
C479 C481 1.365 1_556 S
C479 H496 0.929 1_556 S
C480 C477 1.394 . S
C480 C479 1.396 . S
C480 H497 0.930 . S
C481 C478 1.383 . S
C481 C479 1.365 1_554 S
C481 H498 0.931 . S
C482 C477 1.370 . S
C482 C478 1.395 1_556 S
C482 H499 0.930 . S
C483 Gd430 2.805 . S
C483 O465 1.263 . S
C483 O466 1.252 . S
C483 C477 1.500 . S
C484 H446 0.930 . S
C484 C460 1.392 1_565 S
C484 C485 1.329 . S
C485 C455 1.437 1_565 S
C485 H456 0.929 . S
C485 C484 1.329 . S
H486 C459 0.931 1_565 S
C487 O469 1.265 . S
C487 O470 1.242 . S
C488 O473 1.261 . S
C488 O474 1.252 . S
C489 C492 1.394 . S
C489 C494 1.370 . S
C489 C495 1.500 . S
C490 C493 1.383 . S
C490 C494 1.395 . S
C491 C492 1.396 . S
C491 C493 1.365 . S
C491 H500 0.929 . S
C492 C489 1.394 . S
C492 C491 1.396 . S
C492 H501 0.930 . S
C493 C490 1.383 . S
C493 C491 1.365 . S
C493 H502 0.931 . S
C494 C489 1.370 . S
C494 C490 1.395 . S
C494 H503 0.930 . S
C495 Gd431 2.805 . S
C495 O471 1.263 . S
C495 O472 1.252 . S
C495 C489 1.500 . S
H496 C479 0.929 1_554 S
H497 C480 0.930 . S
H498 C481 0.931 . S
H499 C482 0.930 . S
H500 C491 0.929 . S
H501 C492 0.930 . S
H502 C493 0.931 . S
H503 C494 0.930 . S
H504 C510 0.930 . S
H505 C514 0.930 . S
H506 C519 0.929 . S
H507 C517 0.929 . S
H508 C512 0.929 . S
H509 C518 0.929 . S
C510 H504 0.930 . S
C510 C511 1.367 . S
C510 C518 1.378 . S
C511 C510 1.367 . S
C511 C519 1.433 . S
C512 H508 0.929 . S
C512 C514 1.378 . S
C512 C516 1.350 . S
C513 C516 1.463 . S
C513 C518 1.350 . S
C513 N521 1.427 . S
C514 H505 0.930 . S
C514 C512 1.378 . S
C514 C515 1.367 . S
C515 C514 1.367 . S
C515 C517 1.433 . S
C516 C512 1.350 . S
C516 C513 1.463 . S
C516 N520 1.427 . S
C517 H507 0.929 . S
C517 C515 1.433 . S
C517 N520 1.384 . S
C518 H509 0.929 . S
C518 C510 1.378 . S
C518 C513 1.350 . S
C519 H506 0.929 . S
C519 C511 1.433 . S
C519 N521 1.384 . S
N520 C516 1.427 . S
N520 C517 1.384 . S
N521 C513 1.427 . S
N521 C519 1.384 . S
H522 C528 0.930 . S
H523 C532 0.930 . S
H524 C537 0.929 . S
H525 C535 0.929 . S
H526 C530 0.929 . S
H527 C536 0.929 . S
C528 H522 0.930 . S
C528 C529 1.367 . S
C528 C536 1.378 . S
C529 C528 1.367 . S
C529 C537 1.433 . S
C530 H526 0.929 . S
C530 C532 1.378 . S
C530 C534 1.350 . S
C531 C534 1.463 1_455 S
C531 C536 1.350 . S
C531 N539 1.427 . S
C532 H523 0.930 . S
C532 C530 1.378 . S
C532 C533 1.367 . S
C533 C532 1.367 . S
C533 C535 1.433 . S
C534 C530 1.350 . S
C534 C531 1.463 1_655 S
C534 N538 1.427 . S
C535 H525 0.929 . S
C535 C533 1.433 . S
C535 N538 1.384 . S
C536 H527 0.929 . S
C536 C528 1.378 . S
C536 C531 1.350 . S
C537 H524 0.929 . S
C537 C529 1.433 . S
C537 N539 1.384 . S
N538 C534 1.427 . S
N538 C535 1.384 . S
N539 C531 1.427 . S
N539 C537 1.384 . S
H540 C546 0.930 . S
H541 C550 0.930 . S
H542 C555 0.929 . S
H543 C553 0.929 . S
H544 C548 0.929 . S
H545 C554 0.929 . S
C546 H540 0.930 . S
C546 C547 1.367 . S
C546 C554 1.378 . S
C547 C546 1.367 . S
C547 C555 1.433 . S
C548 H544 0.929 . S
C548 C550 1.378 . S
C548 C552 1.350 . S
C549 C552 1.463 1_545 S
C549 C554 1.350 . S
C549 N557 1.427 . S
C550 H541 0.930 . S
C550 C548 1.378 . S
C550 C551 1.367 . S
C551 C550 1.367 . S
C551 C553 1.433 . S
C552 C548 1.350 . S
C552 C549 1.463 1_565 S
C552 N556 1.427 . S
C553 H543 0.929 . S
C553 C551 1.433 . S
C553 N556 1.384 . S
C554 H545 0.929 . S
C554 C546 1.378 . S
C554 C549 1.350 . S
C555 H542 0.929 . S
C555 C547 1.433 . S
C555 N557 1.384 . S
N556 C552 1.427 . S
N556 C553 1.384 . S
N557 C549 1.427 . S
N557 C555 1.384 . S
H558 C564 0.930 . S
H559 C568 0.930 . S
H560 C573 0.929 . S
H561 C571 0.929 . S
H562 C566 0.929 . S
H563 C572 0.929 . S
C564 H558 0.930 . S
C564 C565 1.367 . S
C564 C572 1.378 . S
C565 C564 1.367 . S
C565 C573 1.433 . S
C566 H562 0.929 . S
C566 C568 1.378 . S
C566 C570 1.350 . S
C567 C570 1.463 . S
C567 C572 1.350 . S
C567 N575 1.427 . S
C568 H559 0.930 . S
C568 C566 1.378 . S
C568 C569 1.367 . S
C569 C568 1.367 . S
C569 C571 1.433 . S
C570 C566 1.350 . S
C570 C567 1.463 . S
C570 N574 1.427 . S
C571 H561 0.929 . S
C571 C569 1.433 . S
C571 N574 1.384 . S
C572 H563 0.929 . S
C572 C564 1.378 . S
C572 C567 1.350 . S
C573 H560 0.929 . S
C573 C565 1.433 . S
C573 N575 1.384 . S
N574 C570 1.427 . S
N574 C571 1.384 . S
N575 C567 1.427 . S
N575 C573 1.384 . S
H576 C582 0.930 . S
H577 C586 0.930 . S
H578 C591 0.929 . S
H579 C589 0.929 . S
H580 C584 0.929 . S
H581 C590 0.929 . S
C582 H576 0.930 . S
C582 C583 1.367 . S
C582 C590 1.378 . S
C583 C582 1.367 . S
C583 C591 1.433 . S
C584 H580 0.929 . S
C584 C586 1.378 . S
C584 C588 1.350 . S
C585 C588 1.463 1_455 S
C585 C590 1.350 . S
C585 N593 1.427 . S
C586 H577 0.930 . S
C586 C584 1.378 . S
C586 C587 1.367 . S
C587 C586 1.367 . S
C587 C589 1.433 . S
C588 C584 1.350 . S
C588 C585 1.463 1_655 S
C588 N592 1.427 . S
C589 H579 0.929 . S
C589 C587 1.433 . S
C589 N592 1.384 . S
C590 H581 0.929 . S
C590 C582 1.378 . S
C590 C585 1.350 . S
C591 H578 0.929 . S
C591 C583 1.433 . S
C591 N593 1.384 . S
N592 C588 1.427 . S
N592 C589 1.384 . S
N593 C585 1.427 . S
N593 C591 1.384 . S
H594 C600 0.930 . S
H595 C604 0.930 . S
H596 C609 0.929 . S
H597 C607 0.929 . S
H598 C602 0.929 1_545 S
H599 C608 0.929 1_565 S
C600 H594 0.930 . S
C600 C601 1.367 . S
C600 C608 1.378 . S
C601 C600 1.367 . S
C601 C609 1.433 . S
C602 H598 0.929 1_565 S
C602 C604 1.378 . S
C602 C606 1.350 . S
C603 C606 1.463 1_545 S
C603 C608 1.350 . S
C603 N611 1.427 . S
C604 H595 0.930 . S
C604 C602 1.378 . S
C604 C605 1.367 . S
C605 C604 1.367 . S
C605 C607 1.433 . S
C606 C602 1.350 . S
C606 C603 1.463 1_565 S
C606 N610 1.427 . S
C607 H597 0.929 . S
C607 C605 1.433 . S
C607 N610 1.384 . S
C608 H599 0.929 1_545 S
C608 C600 1.378 . S
C608 C603 1.350 . S
C609 H596 0.929 . S
C609 C601 1.433 . S
C609 N611 1.384 . S
N610 C606 1.427 . S
N610 C607 1.384 . S
N611 C603 1.427 . S
N611 C609 1.384 . S
H612 C618 0.930 . S
H613 C622 0.930 . S
H614 C627 0.929 . S
H615 C625 0.929 . S
H616 C620 0.929 . S
H617 C626 0.929 . S
C618 H612 0.930 . S
C618 C619 1.367 . S
C618 C626 1.378 . S
C619 C618 1.367 . S
C619 C627 1.433 . S
C620 H616 0.929 . S
C620 C622 1.378 . S
C620 C624 1.350 . S
C621 C624 1.463 . S
C621 C626 1.350 . S
C621 N629 1.427 . S
C622 H613 0.930 . S
C622 C620 1.378 . S
C622 C623 1.367 . S
C623 C622 1.367 . S
C623 C625 1.433 . S
C624 C620 1.350 . S
C624 C621 1.463 . S
C624 N628 1.427 . S
C625 H615 0.929 . S
C625 C623 1.433 . S
C625 N628 1.384 . S
C626 H617 0.929 . S
C626 C618 1.378 . S
C626 C621 1.350 . S
C627 H614 0.929 . S
C627 C619 1.433 . S
C627 N629 1.384 . S
N628 C624 1.427 . S
N628 C625 1.384 . S
N629 C621 1.427 . S
N629 C627 1.384 . S
H630 C636 0.930 . S
H631 C640 0.930 . S
H632 C645 0.929 . S
H633 C643 0.929 . S
H634 C638 0.929 . S
H635 C644 0.929 . S
C636 H630 0.930 . S
C636 C637 1.367 . S
C636 C644 1.378 . S
C637 C636 1.367 . S
C637 C645 1.433 . S
C638 H634 0.929 . S
C638 C640 1.378 . S
C638 C642 1.350 . S
C639 C642 1.463 . S
C639 C644 1.350 . S
C639 N647 1.427 . S
C640 H631 0.930 . S
C640 C638 1.378 . S
C640 C641 1.367 . S
C641 C640 1.367 . S
C641 C643 1.433 . S
C642 C638 1.350 . S
C642 C639 1.463 . S
C642 N646 1.427 . S
C643 H633 0.929 . S
C643 C641 1.433 . S
C643 N646 1.384 . S
C644 H635 0.929 . S
C644 C636 1.378 . S
C644 C639 1.350 . S
C645 H632 0.929 . S
C645 C637 1.433 . S
C645 N647 1.384 . S
N646 C642 1.427 . S
N646 C643 1.384 . S
N647 C639 1.427 . S
N647 C645 1.384 . S
H648 C654 0.930 . S
H649 C658 0.930 . S
H650 C663 0.929 . S
H651 C661 0.929 . S
H652 C656 0.929 . S
H653 C662 0.929 . S
C654 H648 0.930 . S
C654 C655 1.367 . S
C654 C662 1.378 . S
C655 C654 1.367 . S
C655 C663 1.433 . S
C656 H652 0.929 . S
C656 C658 1.378 . S
C656 C660 1.350 . S
C657 C660 1.463 . S
C657 C662 1.350 . S
C657 N665 1.427 . S
C658 H649 0.930 . S
C658 C656 1.378 . S
C658 C659 1.367 . S
C659 C658 1.367 . S
C659 C661 1.433 . S
C660 C656 1.350 . S
C660 C657 1.463 . S
C660 N664 1.427 . S
C661 H651 0.929 . S
C661 C659 1.433 . S
C661 N664 1.384 . S
C662 H653 0.929 . S
C662 C654 1.378 . S
C662 C657 1.350 . S
C663 H650 0.929 . S
C663 C655 1.433 . S
C663 N665 1.384 . S
N664 C660 1.427 . S
N664 C661 1.384 . S
N665 C657 1.427 . S
N665 C663 1.384 . S
H666 C672 0.930 . S
H667 C676 0.930 . S
H668 C681 0.929 . S
H669 C679 0.929 . S
H670 C674 0.929 . S
H671 C680 0.929 . S
C672 H666 0.930 . S
C672 C673 1.367 . S
C672 C680 1.378 . S
C673 C672 1.367 . S
C673 C681 1.433 . S
C674 H670 0.929 . S
C674 C676 1.378 . S
C674 C678 1.350 . S
C675 C678 1.463 . S
C675 C680 1.350 . S
C675 N683 1.427 . S
C676 H667 0.930 . S
C676 C674 1.378 . S
C676 C677 1.367 . S
C677 C676 1.367 . S
C677 C679 1.433 . S
C678 C674 1.350 . S
C678 C675 1.463 . S
C678 N682 1.427 . S
C679 H669 0.929 . S
C679 C677 1.433 . S
C679 N682 1.384 . S
C680 H671 0.929 . S
C680 C672 1.378 . S
C680 C675 1.350 . S
C681 H668 0.929 . S
C681 C673 1.433 . S
C681 N683 1.384 . S
N682 C678 1.427 . S
N682 C679 1.384 . S
N683 C675 1.427 . S
N683 C681 1.384 . S
H684 C690 0.930 . S
H685 C694 0.930 . S
H686 C699 0.929 . S
H687 C697 0.929 . S
H688 C692 0.929 . S
H689 C698 0.929 . S
C690 H684 0.930 . S
C690 C691 1.367 . S
C690 C698 1.378 . S
C691 C690 1.367 . S
C691 C699 1.433 . S
C692 H688 0.929 . S
C692 C694 1.378 . S
C692 C696 1.350 . S
C693 C696 1.463 . S
C693 C698 1.350 . S
C693 N701 1.427 . S
C694 H685 0.930 . S
C694 C692 1.378 . S
C694 C695 1.367 . S
C695 C694 1.367 . S
C695 C697 1.433 . S
C696 C692 1.350 . S
C696 C693 1.463 . S
C696 N700 1.427 . S
C697 H687 0.929 . S
C697 C695 1.433 . S
C697 N700 1.384 . S
C698 H689 0.929 . S
C698 C690 1.378 . S
C698 C693 1.350 . S
C699 H686 0.929 . S
C699 C691 1.433 . S
C699 N701 1.384 . S
N700 C696 1.427 . S
N700 C697 1.384 . S
N701 C693 1.427 . S
N701 C699 1.384 . S
H702 C708 0.930 . S
H703 C712 0.930 . S
H704 C717 0.929 . S
H705 C715 0.929 . S
H706 C710 0.929 . S
H707 C716 0.929 . S
C708 H702 0.930 . S
C708 C709 1.367 . S
C708 C716 1.378 . S
C709 C708 1.367 . S
C709 C717 1.433 . S
C710 H706 0.929 . S
C710 C712 1.378 . S
C710 C714 1.350 . S
C711 C714 1.463 . S
C711 C716 1.350 . S
C711 N719 1.427 . S
C712 H703 0.930 . S
C712 C710 1.378 . S
C712 C713 1.367 . S
C713 C712 1.367 . S
C713 C715 1.433 . S
C714 C710 1.350 . S
C714 C711 1.463 . S
C714 N718 1.427 . S
C715 H705 0.929 . S
C715 C713 1.433 . S
C715 N718 1.384 . S
C716 H707 0.929 . S
C716 C708 1.378 . S
C716 C711 1.350 . S
C717 H704 0.929 . S
C717 C709 1.433 . S
C717 N719 1.384 . S
N718 C714 1.427 . S
N718 C715 1.384 . S
N719 C711 1.427 . S
N719 C717 1.384 . S
H720 C726 0.930 . S
H721 C730 0.930 . S
H722 C735 0.929 . S
H723 C733 0.929 . S
H724 C728 0.929 . S
H725 C734 0.929 . S
C726 H720 0.930 . S
C726 C727 1.367 . S
C726 C734 1.378 . S
C727 C726 1.367 . S
C727 C735 1.433 . S
C728 H724 0.929 . S
C728 C730 1.378 . S
C728 C732 1.350 . S
C729 C732 1.463 . S
C729 C734 1.350 . S
C729 N737 1.427 . S
C730 H721 0.930 . S
C730 C728 1.378 . S
C730 C731 1.367 . S
C731 C730 1.367 . S
C731 C733 1.433 . S
C732 C728 1.350 . S
C732 C729 1.463 . S
C732 N736 1.427 . S
C733 H723 0.929 . S
C733 C731 1.433 . S
C733 N736 1.384 . S
C734 H725 0.929 . S
C734 C726 1.378 . S
C734 C729 1.350 . S
C735 H722 0.929 . S
C735 C727 1.433 . S
C735 N737 1.384 . S
N736 C732 1.427 . S
N736 C733 1.384 . S
N737 C729 1.427 . S
N737 C735 1.384 . S
H738 C744 0.930 . S
H739 C748 0.930 . S
H740 C753 0.929 . S
H741 C751 0.929 . S
H742 C746 0.929 . S
H743 C752 0.929 . S
C744 H738 0.930 . S
C744 C745 1.367 . S
C744 C752 1.378 . S
C745 C744 1.367 . S
C745 C753 1.433 . S
C746 H742 0.929 . S
C746 C748 1.378 . S
C746 C750 1.350 . S
C747 C750 1.463 . S
C747 C752 1.350 . S
C747 N755 1.427 . S
C748 H739 0.930 . S
C748 C746 1.378 . S
C748 C749 1.367 . S
C749 C748 1.367 . S
C749 C751 1.433 . S
C750 C746 1.350 . S
C750 C747 1.463 . S
C750 N754 1.427 . S
C751 H741 0.929 . S
C751 C749 1.433 . S
C751 N754 1.384 . S
C752 H743 0.929 . S
C752 C744 1.378 . S
C752 C747 1.350 . S
C753 H740 0.929 . S
C753 C745 1.433 . S
C753 N755 1.384 . S
N754 C750 1.427 . S
N754 C751 1.384 . S
N755 C747 1.427 . S
N755 C753 1.384 . S
H756 C762 0.930 . S
H757 C766 0.930 . S
H758 C771 0.929 . S
H759 C769 0.929 . S
H760 C764 0.929 . S
H761 C770 0.929 . S
C762 H756 0.930 . S
C762 C763 1.367 . S
C762 C770 1.378 . S
C763 C762 1.367 . S
C763 C771 1.433 . S
C764 H760 0.929 . S
C764 C766 1.378 . S
C764 C768 1.350 . S
C765 C768 1.463 . S
C765 C770 1.350 . S
C765 N773 1.427 . S
C766 H757 0.930 . S
C766 C764 1.378 . S
C766 C767 1.367 . S
C767 C766 1.367 . S
C767 C769 1.433 . S
C768 C764 1.350 . S
C768 C765 1.463 . S
C768 N772 1.427 . S
C769 H759 0.929 . S
C769 C767 1.433 . S
C769 N772 1.384 . S
C770 H761 0.929 . S
C770 C762 1.378 . S
C770 C765 1.350 . S
C771 H758 0.929 . S
C771 C763 1.433 . S
C771 N773 1.384 . S
N772 C768 1.427 . S
N772 C769 1.384 . S
N773 C765 1.427 . S
N773 C771 1.384 . S
H774 C780 0.930 . S
H775 C784 0.930 . S
H776 C789 0.929 . S
H777 C787 0.929 . S
H778 C782 0.929 . S
H779 C788 0.929 . S
C780 H774 0.930 . S
C780 C781 1.367 . S
C780 C788 1.378 . S
C781 C780 1.367 . S
C781 C789 1.433 . S
C782 H778 0.929 . S
C782 C784 1.378 . S
C782 C786 1.350 . S
C783 C786 1.463 . S
C783 C788 1.350 . S
C783 N791 1.427 . S
C784 H775 0.930 . S
C784 C782 1.378 . S
C784 C785 1.367 . S
C785 C784 1.367 . S
C785 C787 1.433 . S
C786 C782 1.350 . S
C786 C783 1.463 . S
C786 N790 1.427 . S
C787 H777 0.929 . S
C787 C785 1.433 . S
C787 N790 1.384 . S
C788 H779 0.929 . S
C788 C780 1.378 . S
C788 C783 1.350 . S
C789 H776 0.929 . S
C789 C781 1.433 . S
C789 N791 1.384 . S
N790 C786 1.427 . S
N790 C787 1.384 . S
N791 C783 1.427 . S
N791 C789 1.384 . S
H792 C798 0.930 . S
H793 C802 0.930 . S
H794 C807 0.929 . S
H795 C805 0.929 . S
H796 C800 0.929 . S
H797 C806 0.929 . S
C798 H792 0.930 . S
C798 C799 1.367 . S
C798 C806 1.378 . S
C799 C798 1.367 . S
C799 C807 1.433 . S
C800 H796 0.929 . S
C800 C802 1.378 . S
C800 C804 1.350 . S
C801 C804 1.463 . S
C801 C806 1.350 . S
C801 N809 1.427 . S
C802 H793 0.930 . S
C802 C800 1.378 . S
C802 C803 1.367 . S
C803 C802 1.367 . S
C803 C805 1.433 . S
C804 C800 1.350 . S
C804 C801 1.463 . S
C804 N808 1.427 . S
C805 H795 0.929 . S
C805 C803 1.433 . S
C805 N808 1.384 . S
C806 H797 0.929 . S
C806 C798 1.378 . S
C806 C801 1.350 . S
C807 H794 0.929 . S
C807 C799 1.433 . S
C807 N809 1.384 . S
N808 C804 1.427 . S
N808 C805 1.384 . S
N809 C801 1.427 . S
N809 C807 1.384 . S
H810 C816 0.930 . S
H811 C820 0.930 . S
H812 C825 0.929 . S
H813 C823 0.929 . S
H814 C818 0.929 . S
H815 C824 0.929 . S
C816 H810 0.930 . S
C816 C817 1.367 . S
C816 C824 1.378 . S
C817 C816 1.367 . S
C817 C825 1.433 . S
C818 H814 0.929 . S
C818 C820 1.378 . S
C818 C822 1.350 . S
C819 C822 1.463 . S
C819 C824 1.350 . S
C819 N827 1.427 . S
C820 H811 0.930 . S
C820 C818 1.378 . S
C820 C821 1.367 . S
C821 C820 1.367 . S
C821 C823 1.433 . S
C822 C818 1.350 . S
C822 C819 1.463 . S
C822 N826 1.427 . S
C823 H813 0.929 . S
C823 C821 1.433 . S
C823 N826 1.384 . S
C824 H815 0.929 . S
C824 C816 1.378 . S
C824 C819 1.350 . S
C825 H812 0.929 . S
C825 C817 1.433 . S
C825 N827 1.384 . S
N826 C822 1.427 . S
N826 C823 1.384 . S
N827 C819 1.427 . S
N827 C825 1.384 . S
C511 C488 1.366 . S
C515 C68 1.369 . S
C529 C67 1.320 . S
C533 C151 1.335 . S
C547 C152 1.371 . S
C551 C236 1.372 . S
C565 C235 1.334 . S
C569 C319 1.320 . S
C583 C404 1.373 . S
C587 C320 1.368 . S
C601 C487 1.333 . S
C605 C403 1.330 . S
C619 C58 1.108 . S
C623 C70 1.108 . S
C637 C154 1.125 1_556 S
C641 C142 1.125 . S
C655 C226 1.107 . S
C659 C238 1.107 1_554 S
C673 C322 1.125 . S
C677 C310 1.125 . S
C691 C406 1.104 . S
C695 C394 1.104 1_556 S
C709 C490 1.111 . S
C713 C478 1.111 . S
C727 C56 1.624 . S
C731 C391 1.626 . S
C745 C139 1.629 . S
C749 C476 1.627 . S
C763 C55 1.626 . S
C767 C224 1.627 . S
C781 C140 1.627 . S
C785 C307 1.629 . S
C799 C392 1.621 . S
C803 C223 1.630 . S
C817 C308 1.625 . S
C821 C475 1.626 . S
