# Generated by pormake.
# Topology uki, (4)-cn, num edge types: 1
# Building blocks:
#     Node 0, Type 0, BuildingBlock: KUFVIS_clean_sbu_0, # of connection points: 4
#     Node 1, Type 0, BuildingBlock: KUFVIS_clean_sbu_0, # of connection points: 4
#     Node 2, Type 0, BuildingBlock: KUFVIS_clean_sbu_0, # of connection points: 4
#     Node 3, Type 0, BuildingBlock: KUFVIS_clean_sbu_0, # of connection points: 4
#     Node 4, Type 0, BuildingBlock: KUFVIS_clean_sbu_0, # of connection points: 4
#     Node 5, Type 0, BuildingBlock: KUFVIS_clean_sbu_0, # of connection points: 4
#     Node 6, Type 0, BuildingBlock: KUFVIS_clean_sbu_0, # of connection points: 4
#     Node 7, Type 0, BuildingBlock: KUFVIS_clean_sbu_0, # of connection points: 4
#     Node 8, Type 0, BuildingBlock: KUFVIS_clean_sbu_0, # of connection points: 4
#     Node 9, Type 0, BuildingBlock: KUFVIS_clean_sbu_0, # of connection points: 4
#     Node 10, Type 0, BuildingBlock: KUFVIS_clean_sbu_0, # of connection points: 4
#     Node 11, Type 0, BuildingBlock: KUFVIS_clean_sbu_0, # of connection points: 4
#     Node 12, Type 0, BuildingBlock: KUFVIS_clean_sbu_0, # of connection points: 4
#     Node 13, Type 0, BuildingBlock: KUFVIS_clean_sbu_0, # of connection points: 4
#     Node 14, Type 0, BuildingBlock: KUFVIS_clean_sbu_0, # of connection points: 4
#     Node 15, Type 0, BuildingBlock: KUFVIS_clean_sbu_0, # of connection points: 4
#     Edge 16, Type (0, 0), BuildingBlock: OJICUG_clean_linker_0, # of connection points: 2
#     Edge 17, Type (0, 0), BuildingBlock: OJICUG_clean_linker_0, # of connection points: 2
#     Edge 18, Type (0, 0), BuildingBlock: OJICUG_clean_linker_0, # of connection points: 2
#     Edge 19, Type (0, 0), BuildingBlock: OJICUG_clean_linker_0, # of connection points: 2
#     Edge 20, Type (0, 0), BuildingBlock: OJICUG_clean_linker_0, # of connection points: 2
#     Edge 21, Type (0, 0), BuildingBlock: OJICUG_clean_linker_0, # of connection points: 2
#     Edge 22, Type (0, 0), BuildingBlock: OJICUG_clean_linker_0, # of connection points: 2
#     Edge 23, Type (0, 0), BuildingBlock: OJICUG_clean_linker_0, # of connection points: 2
#     Edge 24, Type (0, 0), BuildingBlock: OJICUG_clean_linker_0, # of connection points: 2
#     Edge 25, Type (0, 0), BuildingBlock: OJICUG_clean_linker_0, # of connection points: 2
#     Edge 26, Type (0, 0), BuildingBlock: OJICUG_clean_linker_0, # of connection points: 2
#     Edge 27, Type (0, 0), BuildingBlock: OJICUG_clean_linker_0, # of connection points: 2
#     Edge 28, Type (0, 0), BuildingBlock: OJICUG_clean_linker_0, # of connection points: 2
#     Edge 29, Type (0, 0), BuildingBlock: OJICUG_clean_linker_0, # of connection points: 2
#     Edge 30, Type (0, 0), BuildingBlock: OJICUG_clean_linker_0, # of connection points: 2
#     Edge 31, Type (0, 0), BuildingBlock: OJICUG_clean_linker_0, # of connection points: 2
#     Edge 32, Type (0, 0), BuildingBlock: OJICUG_clean_linker_0, # of connection points: 2
#     Edge 33, Type (0, 0), BuildingBlock: OJICUG_clean_linker_0, # of connection points: 2
#     Edge 34, Type (0, 0), BuildingBlock: OJICUG_clean_linker_0, # of connection points: 2
#     Edge 35, Type (0, 0), BuildingBlock: OJICUG_clean_linker_0, # of connection points: 2
#     Edge 36, Type (0, 0), BuildingBlock: OJICUG_clean_linker_0, # of connection points: 2
#     Edge 37, Type (0, 0), BuildingBlock: OJICUG_clean_linker_0, # of connection points: 2
#     Edge 38, Type (0, 0), BuildingBlock: OJICUG_clean_linker_0, # of connection points: 2
#     Edge 39, Type (0, 0), BuildingBlock: OJICUG_clean_linker_0, # of connection points: 2
#     Edge 40, Type (0, 0), BuildingBlock: OJICUG_clean_linker_0, # of connection points: 2
#     Edge 41, Type (0, 0), BuildingBlock: OJICUG_clean_linker_0, # of connection points: 2
#     Edge 42, Type (0, 0), BuildingBlock: OJICUG_clean_linker_0, # of connection points: 2
#     Edge 43, Type (0, 0), BuildingBlock: OJICUG_clean_linker_0, # of connection points: 2
#     Edge 44, Type (0, 0), BuildingBlock: OJICUG_clean_linker_0, # of connection points: 2
#     Edge 45, Type (0, 0), BuildingBlock: OJICUG_clean_linker_0, # of connection points: 2
#     Edge 46, Type (0, 0), BuildingBlock: OJICUG_clean_linker_0, # of connection points: 2
#     Edge 47, Type (0, 0), BuildingBlock: OJICUG_clean_linker_0, # of connection points: 2
# Relax obj value: 0.141
# Max RMSD: 0.246
# Mean RMSD: 0.246
data_MOF--net-uki--node1-KUFVIS_clean_sbu_0--edge1-OJICUG_clean_linker_0
_symmetry_space_group_name_H-M    P1
_symmetry_Int_Tables_number       1
_symmetry_cell_setting            triclinic
loop_
_symmetry_equiv_pos_as_xyz
'x, y, z'
_cell_length_a     22.693016
_cell_length_b     22.691921
_cell_length_c     48.734201
_cell_angle_alpha  90.032814
_cell_angle_beta   90.011701
_cell_angle_gamma 89.998306
loop_
_atom_site_label
_atom_site_type_symbol
_atom_site_fract_x
_atom_site_fract_y
_atom_site_fract_z
_atom_type_partial_charge
Mn0 Mn 0.0794 0.23226 0.29411 0.0
Mn1 Mn 0.00371 0.23382 0.35346 0.0
C2 C 0.9798 0.2507 0.29341 0.0
C3 C 0.13604 0.28539 0.26303 0.0
C4 C 0.037 0.12173 0.32355 0.0
O5 O 0.14389 0.23521 0.3231 0.0
O6 O 0.09022 0.24324 0.36175 0.0
C7 C 0.02439 0.35686 0.37099 0.0
N8 N 0.98649 0.31345 0.36326 0.0
C9 C 0.90324 0.37859 0.36737 0.0
C10 C 0.94132 0.42386 0.37549 0.0
C11 C 0.00209 0.41283 0.37747 0.0
C12 C 0.92776 0.32327 0.36184 0.0
H13 H 0.0712 0.34873 0.37229 0.0
C14 C 0.13993 0.24115 0.34907 0.0
O15 O 0.13987 0.22821 0.26395 0.0
O16 O 0.10148 0.31082 0.28044 0.0
N17 N 0.9204 0.22536 0.34827 0.0
C18 C 0.88937 0.17669 0.34046 0.0
C19 C 0.82791 0.18036 0.33753 0.0
C20 C 0.79899 0.23398 0.34258 0.0
C21 C 0.83175 0.28321 0.35088 0.0
C22 C 0.89277 0.27662 0.35398 0.0
H23 H 0.91129 0.13547 0.33624 0.0
O24 O 0.00711 0.23458 0.27128 0.0
O25 O 0.0125 0.258 0.31516 0.0
O26 O 0.06238 0.14528 0.30283 0.0
O27 O 0.01731 0.15087 0.34402 0.0
C28 C 0.8064 0.33887 0.35571 0.0
C29 C 0.842 0.3864 0.36422 0.0
H30 H 0.92416 0.46711 0.38026 0.0
H31 H 0.03171 0.44724 0.38399 0.0
H32 H 0.80297 0.1421 0.33113 0.0
H33 H 0.75167 0.23687 0.33996 0.0
H34 H 0.75958 0.34563 0.35282 0.0
H35 H 0.82189 0.42891 0.36807 0.0
Mn36 Mn 0.23261 0.92173 0.71744 0.0
Mn37 Mn 0.23358 0.99708 0.65801 0.0
C38 C 0.25106 0.02136 0.71801 0.0
C39 C 0.28593 0.86541 0.74858 0.0
C40 C 0.1218 0.96383 0.68813 0.0
O41 O 0.23538 0.85703 0.68851 0.0
O42 O 0.24304 0.91051 0.6498 0.0
C43 C 0.35617 0.97666 0.63977 0.0
N44 N 0.31302 0.01441 0.64794 0.0
C45 C 0.37766 0.09788 0.6432 0.0
C46 C 0.42265 0.05995 0.63461 0.0
C47 C 0.41173 0.99914 0.63271 0.0
C48 C 0.3227 0.07319 0.64925 0.0
H49 H 0.34807 0.92984 0.63844 0.0
C50 C 0.24109 0.86085 0.66253 0.0
O51 O 0.22875 0.86152 0.74771 0.0
O52 O 0.31126 0.89977 0.73108 0.0
N53 N 0.22504 0.0804 0.66318 0.0
C54 C 0.17643 0.11137 0.67112 0.0
C55 C 0.18 0.17286 0.67395 0.0
C56 C 0.23341 0.20189 0.66861 0.0
C57 C 0.28257 0.1692 0.66016 0.0
C58 C 0.27613 0.10811 0.65727 0.0
H59 H 0.13535 0.08939 0.67553 0.0
O60 O 0.23506 0.99416 0.74017 0.0
O61 O 0.25823 0.98854 0.69627 0.0
O62 O 0.14554 0.93863 0.70885 0.0
O63 O 0.15077 0.98341 0.66761 0.0
C64 C 0.33795 0.19471 0.65491 0.0
C65 C 0.38534 0.15919 0.64615 0.0
H66 H 0.4655 0.07731 0.62928 0.0
H67 H 0.44586 0.96968 0.62571 0.0
H68 H 0.14179 0.19776 0.68045 0.0
H69 H 0.2362 0.24926 0.67109 0.0
H70 H 0.34459 0.24161 0.65759 0.0
H71 H 0.42759 0.17944 0.6419 0.0
Mn72 Mn 0.9206 0.76818 0.29479 0.0
Mn73 Mn 0.99613 0.7676 0.35424 0.0
C74 C 0.0202 0.74962 0.29426 0.0
C75 C 0.86402 0.71519 0.2636 0.0
C76 C 0.96304 0.87915 0.32392 0.0
O77 O 0.85597 0.76557 0.32374 0.0
O78 O 0.90957 0.75843 0.36246 0.0
C79 C 0.97555 0.64561 0.37334 0.0
N80 N 0.01329 0.68829 0.36464 0.0
C81 C 0.09678 0.62396 0.37021 0.0
C82 C 0.05889 0.57952 0.37941 0.0
C83 C 0.99807 0.59049 0.38113 0.0
C84 C 0.07207 0.67857 0.3635 0.0
H85 H 0.92876 0.65383 0.37465 0.0
C86 C 0.85988 0.76016 0.34974 0.0
O87 O 0.86037 0.77236 0.26455 0.0
O88 O 0.89832 0.6896 0.28108 0.0
N89 N 0.07945 0.77587 0.34906 0.0
C90 C 0.11052 0.82426 0.34094 0.0
C91 C 0.17202 0.82057 0.33824 0.0
C92 C 0.20098 0.76728 0.34392 0.0
C93 C 0.16819 0.71838 0.35259 0.0
C94 C 0.10707 0.72488 0.35525 0.0
H95 H 0.08861 0.86526 0.3363 0.0
O96 O 0.99296 0.76554 0.27208 0.0
O97 O 0.98745 0.74248 0.31601 0.0
O98 O 0.93763 0.85527 0.30329 0.0
O99 O 0.98271 0.85033 0.34445 0.0
C100 C 0.19368 0.66322 0.35836 0.0
C101 C 0.15812 0.6162 0.36748 0.0
H102 H 0.07635 0.53717 0.38547 0.0
H103 H 0.96866 0.55681 0.38868 0.0
H104 H 0.19699 0.8586 0.33159 0.0
H105 H 0.24837 0.76442 0.34159 0.0
H106 H 0.24061 0.65653 0.35587 0.0
H107 H 0.17837 0.57419 0.37222 0.0
Mn108 Mn 0.76858 0.08079 0.71699 0.0
Mn109 Mn 0.76751 0.00492 0.65763 0.0
C110 C 0.75003 0.98121 0.71767 0.0
C111 C 0.7157 0.13768 0.74811 0.0
C112 C 0.87931 0.03808 0.68778 0.0
O113 O 0.76582 0.14522 0.68797 0.0
O114 O 0.75824 0.09143 0.64932 0.0
C115 C 0.64512 0.02551 0.63909 0.0
N116 N 0.68807 0.98773 0.64747 0.0
C117 C 0.62336 0.90434 0.64254 0.0
C118 C 0.5786 0.94228 0.63372 0.0
C119 C 0.58964 0.00306 0.63181 0.0
C120 C 0.67827 0.92898 0.64876 0.0
H121 H 0.65332 0.07229 0.63773 0.0
C122 C 0.76012 0.14118 0.662 0.0
O123 O 0.77288 0.14128 0.74714 0.0
O124 O 0.69007 0.1032 0.73071 0.0
N125 N 0.77583 0.92161 0.66286 0.0
C126 C 0.82433 0.89055 0.67086 0.0
C127 C 0.82061 0.82908 0.67371 0.0
C128 C 0.76715 0.80015 0.66832 0.0
C129 C 0.71813 0.83292 0.65978 0.0
C130 C 0.72471 0.89399 0.65688 0.0
H131 H 0.86544 0.91246 0.67531 0.0
O132 O 0.76604 0.00857 0.7398 0.0
O133 O 0.74279 0.01383 0.69589 0.0
O134 O 0.85559 0.06363 0.70841 0.0
O135 O 0.85034 0.01839 0.66727 0.0
C136 C 0.66273 0.80751 0.65443 0.0
C137 C 0.61553 0.84307 0.64551 0.0
H138 H 0.53589 0.92491 0.62817 0.0
H139 H 0.55569 0.03252 0.62461 0.0
H140 H 0.85872 0.80412 0.68026 0.0
H141 H 0.76424 0.7528 0.67081 0.0
H142 H 0.65596 0.76064 0.65714 0.0
H143 H 0.57329 0.82288 0.64115 0.0
Mn144 Mn 0.08109 0.26818 0.96735 0.0
Mn145 Mn 0.00584 0.26628 0.90785 0.0
C146 C 0.98154 0.24934 0.96786 0.0
C147 C 0.13772 0.21545 0.9986 0.0
C148 C 0.03791 0.37852 0.93794 0.0
O149 O 0.14591 0.26555 0.9385 0.0
O150 O 0.09251 0.25778 0.89977 0.0
C151 C 0.02809 0.14351 0.8903 0.0
N152 N 0.98962 0.18651 0.89792 0.0
C153 C 0.90708 0.12063 0.89333 0.0
C154 C 0.94575 0.0758 0.88529 0.0
C155 C 0.00646 0.08738 0.88362 0.0
C156 C 0.93097 0.17611 0.89909 0.0
H157 H 0.07484 0.15209 0.88921 0.0
C158 C 0.14213 0.25991 0.91252 0.0
O159 O 0.14123 0.27265 0.99766 0.0
O160 O 0.10351 0.18976 0.98112 0.0
N161 N 0.92237 0.27386 0.91277 0.0
C162 C 0.8907 0.32221 0.92044 0.0
C163 C 0.82922 0.31793 0.92307 0.0
C164 C 0.80093 0.26406 0.91783 0.0
C165 C 0.83434 0.21518 0.90963 0.0
C166 C 0.89537 0.22236 0.90686 0.0
H167 H 0.91213 0.36363 0.92479 0.0
O168 O 0.00863 0.26552 0.99003 0.0
O169 O 0.01443 0.24208 0.94616 0.0
O170 O 0.06364 0.35507 0.95859 0.0
O171 O 0.01842 0.34932 0.91744 0.0
C172 C 0.80963 0.15933 0.90458 0.0
C173 C 0.84586 0.11221 0.89616 0.0
H174 H 0.92903 0.0325 0.88032 0.0
H175 H 0.03653 0.05325 0.87718 0.0
H176 H 0.80377 0.35592 0.92937 0.0
H177 H 0.75358 0.2607 0.92019 0.0
H178 H 0.76282 0.15209 0.90722 0.0
H179 H 0.82625 0.06955 0.89213 0.0
Mn180 Mn 0.26904 0.92085 0.04463 0.0
Mn181 Mn 0.26847 0.99659 0.10404 0.0
C182 C 0.25062 0.02047 0.04402 0.0
C183 C 0.21593 0.86413 0.01353 0.0
C184 C 0.38002 0.96312 0.07378 0.0
O185 O 0.26631 0.85637 0.07364 0.0
O186 O 0.25887 0.9101 0.11232 0.0
C187 C 0.14629 0.97664 0.123 0.0
N188 N 0.1892 0.01416 0.11434 0.0
C189 C 0.12505 0.0979 0.11955 0.0
C190 C 0.08034 0.06023 0.12867 0.0
C191 C 0.09113 0.9994 0.13058 0.0
C192 C 0.17968 0.07296 0.11307 0.0
H193 H 0.15434 0.92983 0.12442 0.0
C194 C 0.26063 0.86037 0.09962 0.0
O195 O 0.2731 0.86042 0.01445 0.0
O196 O 0.19042 0.8986 0.03097 0.0
N197 N 0.27712 0.07986 0.09878 0.0
C198 C 0.32568 0.11068 0.09066 0.0
C199 C 0.32222 0.17216 0.08782 0.0
C200 C 0.26897 0.20135 0.09333 0.0
C201 C 0.21988 0.16882 0.10198 0.0
C202 C 0.22619 0.10772 0.10484 0.0
H203 H 0.36665 0.08858 0.08613 0.0
O204 O 0.26649 0.99312 0.02186 0.0
O205 O 0.24346 0.98781 0.0658 0.0
O206 O 0.35614 0.93782 0.05312 0.0
O207 O 0.35118 0.98277 0.09432 0.0
C208 C 0.16471 0.19452 0.10751 0.0
C209 C 0.11748 0.15921 0.11661 0.0
H210 H 0.03791 0.07785 0.13451 0.0
H211 H 0.05728 0.97017 0.13808 0.0
H212 H 0.36038 0.19693 0.08117 0.0
H213 H 0.26626 0.24872 0.09085 0.0
H214 H 0.15815 0.24143 0.10483 0.0
H215 H 0.07545 0.17963 0.12116 0.0
Mn216 Mn 0.92183 0.73222 0.9672 0.0
Mn217 Mn 0.99756 0.73224 0.90785 0.0
C218 C 0.02149 0.75036 0.96785 0.0
C219 C 0.86535 0.7858 0.9982 0.0
C220 C 0.96343 0.62095 0.93813 0.0
O221 O 0.85741 0.73501 0.93816 0.0
O222 O 0.91114 0.74235 0.89949 0.0
C223 C 0.97854 0.85436 0.88862 0.0
N224 N 0.0157 0.81134 0.89749 0.0
C225 C 0.0999 0.87487 0.89227 0.0
C226 C 0.06258 0.91972 0.88297 0.0
C227 C 0.00171 0.90926 0.88094 0.0
C228 C 0.07456 0.82047 0.89883 0.0
H229 H 0.9317 0.84657 0.8871 0.0
C230 C 0.86141 0.7407 0.91218 0.0
O231 O 0.86137 0.72863 0.99736 0.0
O232 O 0.89993 0.81101 0.98074 0.0
N233 N 0.08074 0.72306 0.91323 0.0
C234 C 0.11119 0.67436 0.92147 0.0
C235 C 0.17268 0.67743 0.9244 0.0
C236 C 0.20225 0.73043 0.91884 0.0
C237 C 0.17009 0.77968 0.91007 0.0
C238 C 0.10896 0.77379 0.90717 0.0
H239 H 0.0888 0.63358 0.92602 0.0
O240 O 0.99409 0.73463 0.99 0.0
O241 O 0.98886 0.75747 0.94605 0.0
O242 O 0.93845 0.64499 0.95882 0.0
O243 O 0.98315 0.64966 0.91757 0.0
C244 C 0.19621 0.83461 0.90446 0.0
C245 C 0.16126 0.88202 0.89526 0.0
H246 H 0.08049 0.96199 0.87705 0.0
H247 H 0.97278 0.94315 0.87323 0.0
H248 H 0.19715 0.63915 0.93114 0.0
H249 H 0.24962 0.73282 0.92137 0.0
H250 H 0.24316 0.84081 0.90714 0.0
H251 H 0.182 0.92385 0.89063 0.0
Mn252 Mn 0.73296 0.08022 0.04414 0.0
Mn253 Mn 0.73442 0.00499 0.10359 0.0
C254 C 0.75155 0.98063 0.04359 0.0
C255 C 0.78611 0.13662 0.01298 0.0
C256 C 0.62239 0.03777 0.07353 0.0
O257 O 0.7357 0.145 0.07302 0.0
O258 O 0.74357 0.0916 0.11174 0.0
C259 C 0.85723 0.02611 0.12133 0.0
N260 N 0.81403 0.98806 0.11352 0.0
C261 C 0.87921 0.90495 0.11806 0.0
C262 C 0.92426 0.94319 0.12628 0.0
C263 C 0.91312 0.00398 0.12808 0.0
C264 C 0.82397 0.92933 0.11226 0.0
H265 H 0.84899 0.07292 0.12254 0.0
C266 C 0.74149 0.14123 0.099 0.0
O267 O 0.72892 0.14041 0.01385 0.0
O268 O 0.81152 0.1023 0.03048 0.0
N269 N 0.72619 0.92161 0.09854 0.0
C270 C 0.67764 0.89038 0.09074 0.0
C271 C 0.68145 0.82889 0.08799 0.0
C272 C 0.73506 0.80013 0.09323 0.0
C273 C 0.78416 0.83309 0.10153 0.0
C274 C 0.77746 0.89415 0.1044 0.0
H275 H 0.63642 0.91216 0.0864 0.0
O276 O 0.73546 0.00777 0.02142 0.0
O277 O 0.75876 0.01351 0.0653 0.0
O278 O 0.64596 0.06313 0.05282 0.0
O279 O 0.65149 0.01828 0.09404 0.0
C280 C 0.83977 0.80787 0.10662 0.0
C281 C 0.88714 0.84367 0.11515 0.0
H282 H 0.96739 0.92611 0.13131 0.0
H283 H 0.94736 0.03371 0.13471 0.0
H284 H 0.64328 0.80379 0.08161 0.0
H285 H 0.73804 0.75276 0.09079 0.0
H286 H 0.84661 0.76101 0.10394 0.0
H287 H 0.92959 0.82367 0.11921 0.0
Mn288 Mn 0.58067 0.73373 0.79448 0.0
Mn289 Mn 0.50549 0.73585 0.85398 0.0
C290 C 0.48115 0.75263 0.79396 0.0
C291 C 0.63726 0.78633 0.7632 0.0
C292 C 0.53731 0.6235 0.82393 0.0
O293 O 0.64554 0.73638 0.82331 0.0
O294 O 0.5922 0.74413 0.86205 0.0
C295 C 0.52814 0.85867 0.87136 0.0
N296 N 0.48952 0.81572 0.86384 0.0
C297 C 0.40721 0.88192 0.86829 0.0
C298 C 0.44603 0.92671 0.87623 0.0
C299 C 0.50671 0.91495 0.87791 0.0
C300 C 0.4309 0.82631 0.86264 0.0
H301 H 0.57487 0.84996 0.87244 0.0
C302 C 0.64181 0.74197 0.8493 0.0
O303 O 0.64076 0.72914 0.76417 0.0
O304 O 0.6031 0.81208 0.78068 0.0
N305 N 0.42199 0.72851 0.84909 0.0
C306 C 0.39016 0.68022 0.84148 0.0
C307 C 0.32869 0.68468 0.83885 0.0
C308 C 0.30057 0.73867 0.84402 0.0
C309 C 0.33415 0.7875 0.85214 0.0
C310 C 0.39515 0.78013 0.85492 0.0
H311 H 0.41145 0.6387 0.83718 0.0
O312 O 0.5082 0.73636 0.7718 0.0
O313 O 0.51406 0.75994 0.81565 0.0
O314 O 0.56317 0.64688 0.8033 0.0
O315 O 0.51783 0.65275 0.84441 0.0
C316 C 0.30962 0.84347 0.85711 0.0
C317 C 0.34601 0.89053 0.86544 0.0
H318 H 0.42946 0.97012 0.88108 0.0
H319 H 0.53691 0.94906 0.88424 0.0
H320 H 0.30311 0.64672 0.83261 0.0
H321 H 0.25323 0.74217 0.84165 0.0
H322 H 0.26283 0.85084 0.85446 0.0
H323 H 0.32655 0.93329 0.86939 0.0
Mn324 Mn 0.7322 0.42142 0.21685 0.0
Mn325 Mn 0.73299 0.49715 0.15751 0.0
C326 C 0.7506 0.52102 0.21754 0.0
C327 C 0.78536 0.36477 0.2479 0.0
C328 C 0.62132 0.46374 0.18768 0.0
O329 O 0.735 0.35695 0.18783 0.0
O330 O 0.7425 0.41063 0.14917 0.0
C331 C 0.85533 0.477 0.1388 0.0
N332 N 0.81235 0.5146 0.14732 0.0
C333 C 0.87671 0.59823 0.14234 0.0
C334 C 0.92149 0.56047 0.13336 0.0
C335 C 0.91064 0.49965 0.13141 0.0
C336 C 0.82196 0.57339 0.14866 0.0
H337 H 0.84724 0.43019 0.13737 0.0
C338 C 0.7407 0.36091 0.16186 0.0
O339 O 0.72819 0.36098 0.24699 0.0
O340 O 0.81081 0.39928 0.23048 0.0
N341 N 0.72443 0.58043 0.16282 0.0
C342 C 0.67587 0.61132 0.17088 0.0
C343 C 0.6794 0.6728 0.17376 0.0
C344 C 0.73272 0.70192 0.16833 0.0
C345 C 0.78182 0.66931 0.15973 0.0
C346 C 0.77545 0.60822 0.15684 0.0
H347 H 0.63484 0.58929 0.17534 0.0
O348 O 0.73465 0.49366 0.23967 0.0
O349 O 0.75782 0.48837 0.19575 0.0
O350 O 0.64514 0.43836 0.20832 0.0
O351 O 0.65021 0.48343 0.16717 0.0
C352 C 0.83707 0.69494 0.15429 0.0
C353 C 0.88434 0.65954 0.1453 0.0
H354 H 0.96407 0.578 0.12769 0.0
H355 H 0.94458 0.47034 0.12405 0.0
H356 H 0.64123 0.69763 0.18036 0.0
H357 H 0.73547 0.74928 0.17083 0.0
H358 H 0.84365 0.74185 0.15697 0.0
H359 H 0.92644 0.67989 0.14085 0.0
Mn360 Mn 0.42171 0.26964 0.79448 0.0
Mn361 Mn 0.49767 0.26973 0.8538 0.0
C362 C 0.52139 0.25158 0.79379 0.0
C363 C 0.36514 0.21603 0.7635 0.0
C364 C 0.46319 0.38096 0.82356 0.0
O365 O 0.35742 0.26676 0.82357 0.0
O366 O 0.4113 0.25946 0.86221 0.0
C367 C 0.47901 0.14766 0.87316 0.0
N368 N 0.51602 0.19069 0.86418 0.0
C369 C 0.60039 0.12738 0.86941 0.0
C370 C 0.56323 0.08252 0.87882 0.0
C371 C 0.50235 0.09286 0.88091 0.0
C372 C 0.57489 0.18168 0.8628 0.0
H373 H 0.43217 0.15537 0.87474 0.0
C374 C 0.36152 0.26107 0.84955 0.0
O375 O 0.36113 0.27319 0.76436 0.0
O376 O 0.39982 0.19082 0.78093 0.0
N377 N 0.5808 0.27907 0.84835 0.0
C378 C 0.6111 0.32781 0.84005 0.0
C379 C 0.67258 0.32486 0.83706 0.0
C380 C 0.7023 0.27194 0.84263 0.0
C381 C 0.67029 0.22265 0.85146 0.0
C382 C 0.60916 0.22842 0.85441 0.0
H383 H 0.5886 0.36853 0.83549 0.0
O384 O 0.49391 0.2673 0.77165 0.0
O385 O 0.48884 0.24445 0.81561 0.0
O386 O 0.43824 0.35689 0.80286 0.0
O387 O 0.48303 0.35228 0.8441 0.0
C388 C 0.69655 0.1678 0.8571 0.0
C389 C 0.66175 0.12035 0.86638 0.0
H390 H 0.58126 0.04033 0.88479 0.0
H391 H 0.47356 0.05899 0.88873 0.0
H392 H 0.69694 0.36317 0.83028 0.0
H393 H 0.74966 0.26964 0.84007 0.0
H394 H 0.74351 0.16169 0.8544 0.0
H395 H 0.68261 0.07859 0.87104 0.0
Mn396 Mn 0.26815 0.58019 0.21747 0.0
Mn397 Mn 0.26682 0.50474 0.15801 0.0
C398 C 0.24962 0.48057 0.21801 0.0
C399 C 0.21516 0.63672 0.2487 0.0
C400 C 0.37878 0.53783 0.18805 0.0
O401 O 0.26533 0.64485 0.18855 0.0
O402 O 0.25753 0.59129 0.14984 0.0
C403 C 0.14408 0.52549 0.14007 0.0
N404 N 0.18729 0.4876 0.14802 0.0
C405 C 0.12235 0.4043 0.14342 0.0
C406 C 0.07729 0.44238 0.13505 0.0
C407 C 0.08832 0.50317 0.1332 0.0
C408 C 0.17748 0.42884 0.14929 0.0
H409 H 0.15224 0.5723 0.13881 0.0
C410 C 0.25957 0.64097 0.16257 0.0
O411 O 0.27233 0.64045 0.24774 0.0
O412 O 0.18961 0.60236 0.23123 0.0
N413 N 0.27522 0.42139 0.16309 0.0
C414 C 0.32381 0.39031 0.17094 0.0
C415 C 0.32013 0.32882 0.17373 0.0
C416 C 0.26659 0.29993 0.16848 0.0
C417 C 0.21745 0.33274 0.16012 0.0
C418 C 0.22404 0.3938 0.15721 0.0
H419 H 0.36498 0.4122 0.17531 0.0
O420 O 0.2657 0.50777 0.24018 0.0
O421 O 0.24238 0.51338 0.1963 0.0
O422 O 0.35515 0.56313 0.20878 0.0
O423 O 0.34971 0.51822 0.16755 0.0
C424 C 0.16191 0.30739 0.15502 0.0
C425 C 0.11453 0.34303 0.14638 0.0
H426 H 0.03427 0.42516 0.12992 0.0
H427 H 0.0541 0.53276 0.12643 0.0
H428 H 0.35832 0.30384 0.18017 0.0
H429 H 0.26369 0.25257 0.17096 0.0
H430 H 0.15514 0.26054 0.15776 0.0
H431 H 0.07214 0.32291 0.14228 0.0
Mn432 Mn 0.57955 0.76905 0.46754 0.0
Mn433 Mn 0.50411 0.76645 0.40813 0.0
C434 C 0.47999 0.75034 0.46818 0.0
C435 C 0.63625 0.71634 0.49875 0.0
C436 C 0.5362 0.87908 0.4379 0.0
O437 O 0.64427 0.76611 0.43865 0.0
O438 O 0.59075 0.75794 0.39999 0.0
C439 C 0.52672 0.64298 0.39189 0.0
N440 N 0.48803 0.68641 0.39865 0.0
C441 C 0.40574 0.61996 0.3949 0.0
C442 C 0.44467 0.57465 0.38774 0.0
C443 C 0.50537 0.58629 0.38612 0.0
C444 C 0.4294 0.67589 0.3999 0.0
H445 H 0.5735 0.65152 0.39096 0.0
C446 C 0.64042 0.76021 0.41269 0.0
O447 O 0.63988 0.77353 0.49777 0.0
O448 O 0.60185 0.69069 0.48135 0.0
N449 N 0.42063 0.77398 0.41301 0.0
C450 C 0.38888 0.82245 0.42045 0.0
C451 C 0.32741 0.81813 0.4231 0.0
C452 C 0.29921 0.76408 0.41816 0.0
C453 C 0.33271 0.71504 0.41025 0.0
C454 C 0.3937 0.72231 0.40736 0.0
H455 H 0.41024 0.86401 0.42457 0.0
O456 O 0.50716 0.76669 0.49031 0.0
O457 O 0.51281 0.74291 0.44649 0.0
O458 O 0.5621 0.85585 0.45857 0.0
O459 O 0.51663 0.84969 0.41746 0.0
C460 C 0.30814 0.65893 0.40568 0.0
C461 C 0.34454 0.6115 0.3978 0.0
H462 H 0.42826 0.53081 0.38363 0.0
H463 H 0.53572 0.55173 0.38057 0.0
H464 H 0.30189 0.85624 0.4292 0.0
H465 H 0.25188 0.76068 0.42059 0.0
H466 H 0.26136 0.65167 0.4084 0.0
H467 H 0.32509 0.56855 0.39431 0.0
Mn468 Mn 0.76793 0.42123 0.54405 0.0
Mn469 Mn 0.76709 0.49668 0.60354 0.0
C470 C 0.74948 0.52087 0.54354 0.0
C471 C 0.71476 0.36463 0.51289 0.0
C472 C 0.87879 0.46335 0.57337 0.0
O473 O 0.76526 0.35658 0.573 0.0
O474 O 0.75753 0.41016 0.61171 0.0
C475 C 0.64455 0.47645 0.62187 0.0
N476 N 0.68772 0.51413 0.61368 0.0
C477 C 0.62329 0.59773 0.61861 0.0
C478 C 0.57827 0.55987 0.62723 0.0
C479 C 0.58908 0.49904 0.62904 0.0
C480 C 0.67817 0.57294 0.61248 0.0
H481 H 0.65255 0.42961 0.62314 0.0
C482 C 0.75951 0.36048 0.59898 0.0
O483 O 0.77194 0.36092 0.5138 0.0
O484 O 0.6893 0.39903 0.53037 0.0
N485 N 0.77576 0.57998 0.59842 0.0
C486 C 0.82438 0.61087 0.59045 0.0
C487 C 0.82092 0.67237 0.58768 0.0
C488 C 0.76759 0.7015 0.59311 0.0
C489 C 0.71843 0.66889 0.60161 0.0
C490 C 0.72477 0.60779 0.60444 0.0
H491 H 0.86539 0.58881 0.58597 0.0
O492 O 0.76536 0.49365 0.52135 0.0
O493 O 0.74235 0.48807 0.56527 0.0
O494 O 0.85503 0.43822 0.55263 0.0
O495 O 0.84985 0.48289 0.59391 0.0
C496 C 0.66311 0.69449 0.60692 0.0
C497 C 0.61571 0.65906 0.61572 0.0
H498 H 0.53549 0.57731 0.63263 0.0
H499 H 0.55494 0.46963 0.63607 0.0
H500 H 0.85913 0.6972 0.58115 0.0
H501 H 0.76487 0.74887 0.59066 0.0
H502 H 0.65653 0.74139 0.60425 0.0
H503 H 0.57351 0.67938 0.62002 0.0
Mn504 Mn 0.42015 0.23298 0.46695 0.0
Mn505 Mn 0.49559 0.23274 0.40749 0.0
C506 C 0.51978 0.25132 0.46744 0.0
C507 C 0.36377 0.28643 0.49806 0.0
C508 C 0.46188 0.12159 0.43798 0.0
O509 O 0.35552 0.23559 0.438 0.0
O510 O 0.40908 0.24238 0.39925 0.0
C511 C 0.47597 0.35417 0.38744 0.0
N512 N 0.51329 0.31174 0.39679 0.0
C513 C 0.59727 0.37525 0.39082 0.0
C514 C 0.55982 0.41941 0.38095 0.0
C515 C 0.49897 0.40871 0.37908 0.0
C516 C 0.57212 0.32111 0.39798 0.0
H517 H 0.42918 0.3461 0.38594 0.0
C518 C 0.35941 0.2409 0.41199 0.0
O519 O 0.35994 0.22926 0.49721 0.0
O520 O 0.39813 0.31175 0.48053 0.0
N521 N 0.57882 0.22402 0.4128 0.0
C522 C 0.60954 0.17559 0.42117 0.0
C523 C 0.67103 0.17899 0.42401 0.0
C524 C 0.70034 0.23201 0.41819 0.0
C525 C 0.66791 0.28094 0.40925 0.0
C526 C 0.60677 0.27477 0.40651 0.0
H527 H 0.58736 0.1348 0.42592 0.0
O528 O 0.49254 0.23559 0.48964 0.0
O529 O 0.48704 0.25835 0.44566 0.0
O530 O 0.43682 0.14572 0.45863 0.0
O531 O 0.48162 0.15021 0.41742 0.0
C532 C 0.69378 0.33579 0.40323 0.0
C533 C 0.65862 0.38271 0.39366 0.0
H534 H 0.57766 0.46124 0.37434 0.0
H535 H 0.46995 0.44206 0.3709 0.0
H536 H 0.69572 0.14094 0.43086 0.0
H537 H 0.74772 0.23464 0.4206 0.0
H538 H 0.74072 0.34226 0.4058 0.0
H539 H 0.67921 0.42439 0.38861 0.0
Mn540 Mn 0.23199 0.58048 0.5447 0.0
Mn541 Mn 0.23301 0.50488 0.60405 0.0
C542 C 0.25049 0.48089 0.54403 0.0
C543 C 0.28518 0.63701 0.51363 0.0
C544 C 0.1212 0.5379 0.57386 0.0
O545 O 0.23472 0.64506 0.57367 0.0
O546 O 0.24223 0.59145 0.61235 0.0
C547 C 0.35545 0.52561 0.62249 0.0
N548 N 0.31248 0.48777 0.61418 0.0
C549 C 0.3773 0.40446 0.61902 0.0
C550 C 0.42208 0.44247 0.62777 0.0
C551 C 0.411 0.50325 0.62968 0.0
C552 C 0.32234 0.42903 0.61285 0.0
H553 H 0.34721 0.5724 0.62385 0.0
C554 C 0.24038 0.64115 0.59965 0.0
O555 O 0.228 0.64082 0.5145 0.0
O556 O 0.31058 0.6026 0.5311 0.0
N557 N 0.22474 0.42155 0.59883 0.0
C558 C 0.17624 0.39043 0.59087 0.0
C559 C 0.18 0.32896 0.58803 0.0
C560 C 0.23349 0.30008 0.59338 0.0
C561 C 0.28253 0.33292 0.60188 0.0
C562 C 0.27591 0.39398 0.60476 0.0
H563 H 0.13509 0.41229 0.58646 0.0
O564 O 0.23449 0.50819 0.5219 0.0
O565 O 0.2577 0.5136 0.56581 0.0
O566 O 0.14494 0.56343 0.55324 0.0
O567 O 0.15016 0.51828 0.59438 0.0
C568 C 0.33795 0.30755 0.6072 0.0
C569 C 0.38517 0.34318 0.61606 0.0
H570 H 0.46486 0.42515 0.63325 0.0
H571 H 0.44499 0.53277 0.63681 0.0
H572 H 0.14188 0.30395 0.5815 0.0
H573 H 0.23643 0.25273 0.5909 0.0
H574 H 0.34473 0.26067 0.60452 0.0
H575 H 0.42744 0.32303 0.62039 0.0
C576 C 0.13677 0.36319 0.22779 0.0
C577 C 0.16857 0.32217 0.24347 0.0
H578 H 0.13859 0.44592 0.20671 0.0
C579 C 0.22985 0.32794 0.24577 0.0
H580 H 0.08924 0.35997 0.22622 0.0
C581 C 0.25799 0.37758 0.23484 0.0
C582 C 0.22534 0.42092 0.22093 0.0
H583 H 0.25487 0.29753 0.25833 0.0
H584 H 0.30443 0.3843 0.23896 0.0
C585 C 0.16495 0.41221 0.21656 0.0
C586 C 0.41284 0.83733 0.79516 0.0
C587 C 0.42148 0.77685 0.79105 0.0
H588 H 0.36069 0.91291 0.78518 0.0
C589 C 0.37806 0.74395 0.7773 0.0
H590 H 0.44662 0.86385 0.8049 0.0
C591 C 0.32844 0.77193 0.76625 0.0
C592 C 0.32278 0.83325 0.76826 0.0
H593 H 0.38473 0.69743 0.77338 0.0
H594 H 0.29798 0.74666 0.7538 0.0
C595 C 0.36384 0.86534 0.78381 0.0
C596 C 0.74215 0.62369 0.23474 0.0
C597 C 0.7748 0.58067 0.2206 0.0
H598 H 0.74524 0.70308 0.25874 0.0
C599 C 0.8352 0.58949 0.2163 0.0
H600 H 0.6957 0.61689 0.23879 0.0
C601 C 0.86342 0.63811 0.22793 0.0
C602 C 0.83159 0.67868 0.24386 0.0
H603 H 0.86154 0.55603 0.20623 0.0
H604 H 0.91096 0.64134 0.22642 0.0
C605 C 0.7703 0.67297 0.24602 0.0
C606 C 0.62396 0.2599 0.77645 0.0
C607 C 0.58107 0.22743 0.79075 0.0
H608 H 0.70329 0.25652 0.75245 0.0
C609 C 0.59008 0.16715 0.79531 0.0
H610 H 0.61702 0.30625 0.77219 0.0
C611 C 0.63877 0.13882 0.78382 0.0
C612 C 0.67922 0.17042 0.76774 0.0
H613 H 0.55673 0.14092 0.8055 0.0
H614 H 0.64213 0.09132 0.78553 0.0
C615 C 0.6733 0.23164 0.76529 0.0
C616 C 0.16643 0.08945 0.04559 0.0
C617 C 0.22669 0.08027 0.04107 0.0
H618 H 0.09089 0.14195 0.0359 0.0
C619 C 0.25942 0.12319 0.02693 0.0
H620 H 0.14001 0.05607 0.05565 0.0
C621 C 0.23143 0.17279 0.01588 0.0
C622 C 0.17023 0.17895 0.01829 0.0
H623 H 0.30576 0.11611 0.0227 0.0
H624 H 0.25648 0.2028 1.00312 0.0
C625 C 0.13838 0.13844 0.03423 0.0
C626 C 0.17349 0.77024 0.99626 0.0
C627 C 0.17933 0.83149 0.9939 0.0
H628 H 0.11727 0.69563 0.98929 0.0
C629 C 0.13879 0.86315 0.97789 0.0
H630 H 0.20357 0.74533 0.00905 0.0
C631 C 0.0901 0.83484 0.96637 0.0
C632 C 0.08118 0.77452 0.97086 0.0
H633 H 0.14211 0.91066 0.97623 0.0
H634 H 0.05669 0.86109 0.95623 0.0
C635 C 0.12414 0.742 0.98509 0.0
C636 C 0.7716 0.82816 0.01569 0.0
C637 C 0.83294 0.82273 0.01777 0.0
H638 H 0.69684 0.88412 0.02279 0.0
C639 C 0.86476 0.86383 0.03342 0.0
H640 H 0.74655 0.79763 1.00319 0.0
C641 C 0.83647 0.91262 0.04483 0.0
C642 C 0.77598 0.92106 0.04064 0.0
H643 H 0.91233 0.86082 0.03486 0.0
H644 H 0.86279 0.94642 0.05467 0.0
C645 C 0.74336 0.8776 0.02678 0.0
C646 C 0.86391 0.13684 0.97773 0.0
C647 C 0.82291 0.16888 0.99333 0.0
H648 H 0.94674 0.13827 0.95671 0.0
C649 C 0.82876 0.23017 0.99549 0.0
H650 H 0.86061 0.08929 0.97627 0.0
C651 C 0.87849 0.2581 0.98453 0.0
C652 C 0.92183 0.22522 0.97073 0.0
H653 H 0.79837 0.25539 0.00799 0.0
H654 H 0.88528 0.30457 0.98856 0.0
C655 C 0.91302 0.1648 0.96648 0.0
C656 C 0.63775 0.86335 0.72759 0.0
C657 C 0.66968 0.82278 0.74347 0.0
H658 H 0.63927 0.94577 0.70623 0.0
C659 C 0.73091 0.82888 0.74581 0.0
H660 H 0.59024 0.85988 0.72599 0.0
C661 C 0.75886 0.87848 0.73474 0.0
C662 C 0.72605 0.92145 0.72066 0.0
H663 H 0.75602 0.79883 0.75852 0.0
H664 H 0.80523 0.88551 0.7389 0.0
C665 C 0.66575 0.91234 0.71623 0.0
C666 C 0.87688 0.24264 0.27646 0.0
C667 C 0.9203 0.27522 0.29036 0.0
H668 H 0.797 0.24591 0.25283 0.0
C669 C 0.91191 0.33571 0.29457 0.0
H670 H 0.88337 0.19611 0.27246 0.0
C671 C 0.86314 0.36404 0.28317 0.0
C672 C 0.82207 0.33227 0.2675 0.0
H673 H 0.9457 0.36199 0.30443 0.0
H674 H 0.86017 0.41161 0.28464 0.0
C675 C 0.82748 0.27093 0.26537 0.0
C676 C 0.24299 0.12428 0.73497 0.0
C677 C 0.27552 0.08093 0.72099 0.0
H678 H 0.24629 0.20409 0.75866 0.0
C679 C 0.33598 0.08942 0.71674 0.0
H680 H 0.19649 0.11773 0.739 0.0
C681 C 0.36434 0.13813 0.7282 0.0
C682 C 0.33261 0.17912 0.74395 0.0
H683 H 0.36223 0.05571 0.7068 0.0
H684 H 0.4119 0.14116 0.72671 0.0
C685 C 0.27129 0.17366 0.74609 0.0
C686 C 0.12292 0.7584 0.27718 0.0
C687 C 0.08 0.72566 0.29132 0.0
H688 H 0.20246 0.75549 0.25331 0.0
C689 C 0.08917 0.66537 0.29579 0.0
H690 H 0.11587 0.80475 0.27299 0.0
C691 C 0.13807 0.63731 0.28434 0.0
C692 C 0.17856 0.66918 0.26839 0.0
H693 H 0.05581 0.63895 0.30587 0.0
H694 H 0.14155 0.58981 0.28596 0.0
C695 C 0.17246 0.7304 0.26606 0.0
C696 C 0.6652 0.58971 0.54527 0.0
C697 C 0.72546 0.58065 0.54069 0.0
H698 H 0.58962 0.64236 0.53587 0.0
C699 C 0.75813 0.62382 0.52668 0.0
H700 H 0.63882 0.55613 0.55521 0.0
C701 C 0.73008 0.67361 0.51585 0.0
C702 C 0.66888 0.67973 0.51835 0.0
H703 H 0.80445 0.61683 0.5224 0.0
H704 H 0.75507 0.70383 0.50317 0.0
C705 C 0.63712 0.63891 0.53416 0.0
C706 C 0.63768 0.3637 0.47721 0.0
C707 C 0.67808 0.332 0.49328 0.0
H708 H 0.55555 0.36184 0.45556 0.0
C709 C 0.67193 0.27081 0.49577 0.0
H710 H 0.64121 0.41118 0.47547 0.0
C711 C 0.62243 0.24271 0.48466 0.0
C712 C 0.57959 0.2753 0.47037 0.0
H713 H 0.70187 0.24586 0.5086 0.0
H714 H 0.61533 0.19641 0.48896 0.0
C715 C 0.58883 0.33552 0.46575 0.0
C716 C 0.24203 0.37812 0.52696 0.0
C717 C 0.27476 0.42126 0.54099 0.0
H718 H 0.24501 0.29856 0.50308 0.0
C719 C 0.33521 0.41257 0.54517 0.0
H720 H 0.19553 0.38483 0.52299 0.0
C721 C 0.3634 0.36392 0.53355 0.0
C722 C 0.33147 0.32319 0.51774 0.0
H723 H 0.3616 0.44612 0.55515 0.0
H724 H 0.41095 0.36077 0.53498 0.0
C725 C 0.27015 0.3288 0.51569 0.0
C726 C 0.41211 0.66535 0.46716 0.0
C727 C 0.42044 0.72591 0.47116 0.0
H728 H 0.36027 0.58963 0.4772 0.0
C729 C 0.37685 0.75872 0.48483 0.0
H730 H 0.44604 0.63891 0.4575 0.0
C731 C 0.32733 0.7306 0.49589 0.0
C732 C 0.32196 0.66923 0.49397 0.0
H733 H 0.3833 0.80531 0.48868 0.0
H734 H 0.29672 0.75581 0.50828 0.0
C735 C 0.36321 0.63722 0.4785 0.0
C736 C 0.24815 0.24488 0.40917 0.0
C737 C 0.30333 0.24408 0.39583 0.0
H738 H 0.15399 0.24493 0.40521 0.0
C739 C 0.30397 0.24463 0.36696 0.0
H740 H 0.24553 0.24475 0.43136 0.0
C741 C 0.25118 0.24462 0.35192 0.0
C742 C 0.196 0.24425 0.36526 0.0
H743 H 0.34532 0.2442 0.35587 0.0
H744 H 0.25381 0.24428 0.32973 0.0
C745 C 0.19535 0.24506 0.39413 0.0
C746 C 0.24429 0.75243 0.60248 0.0
C747 C 0.24361 0.69727 0.61583 0.0
H748 H 0.24439 0.84659 0.6064 0.0
C749 C 0.2444 0.6967 0.6447 0.0
H750 H 0.24399 0.75501 0.58029 0.0
C751 C 0.24451 0.74954 0.65972 0.0
C752 C 0.24404 0.8047 0.64637 0.0
H753 H 0.24407 0.65536 0.6558 0.0
H754 H 0.24435 0.74697 0.68191 0.0
C755 C 0.2446 0.80526 0.6175 0.0
C756 C 0.69584 0.75624 0.36764 0.0
C757 C 0.69651 0.75721 0.39651 0.0
H758 H 0.74597 0.75631 0.3304 0.0
C759 C 0.75171 0.75694 0.40985 0.0
H760 H 0.65447 0.75628 0.35656 0.0
C761 C 0.80448 0.75681 0.3948 0.0
C762 C 0.80381 0.75717 0.36592 0.0
H763 H 0.75435 0.75739 0.43203 0.0
H764 H 0.84585 0.75731 0.40588 0.0
C765 C 0.74862 0.75633 0.35259 0.0
C766 C 0.7562 0.19644 0.61691 0.0
C767 C 0.7569 0.19719 0.64578 0.0
H768 H 0.75635 0.2465 0.57966 0.0
C769 C 0.75617 0.25242 0.6591 0.0
H770 H 0.75659 0.15505 0.60584 0.0
C771 C 0.75588 0.30515 0.64403 0.0
C772 C 0.75653 0.30442 0.61516 0.0
H773 H 0.7564 0.25513 0.68128 0.0
H774 H 0.75605 0.34655 0.65511 0.0
C775 C 0.75612 0.24919 0.60185 0.0
C776 C 0.25345 0.25703 0.90969 0.0
C777 C 0.19825 0.25713 0.89636 0.0
H778 H 0.3476 0.25784 0.90571 0.0
C779 C 0.19757 0.25625 0.86749 0.0
H780 H 0.25609 0.25744 0.93188 0.0
C781 C 0.25033 0.2566 0.85244 0.0
C782 C 0.30553 0.25765 0.86577 0.0
H783 H 0.1562 0.25615 0.85641 0.0
H784 H 0.24765 0.25666 0.83025 0.0
C785 C 0.30623 0.25719 0.89464 0.0
C786 C 0.25631 0.75227 0.15973 0.0
C787 C 0.25669 0.69705 0.1464 0.0
H788 H 0.2569 0.84642 0.15576 0.0
C789 C 0.25613 0.69637 0.11752 0.0
H790 H 0.25647 0.75493 0.18192 0.0
C791 C 0.25653 0.74913 0.10248 0.0
C792 C 0.25729 0.80434 0.11581 0.0
H793 H 0.25628 0.65499 0.10644 0.0
H794 H 0.25683 0.74645 0.08029 0.0
C795 C 0.2565 0.80504 0.14468 0.0
C796 C 0.80596 0.74466 0.86712 0.0
C797 C 0.80535 0.7441 0.89599 0.0
H798 H 0.75572 0.74452 0.8299 0.0
C799 C 0.75018 0.74508 0.90934 0.0
H800 H 0.8473 0.74406 0.85602 0.0
C801 C 0.69738 0.74547 0.89431 0.0
C802 C 0.69797 0.74469 0.86544 0.0
H803 H 0.74758 0.74496 0.93153 0.0
H804 H 0.65604 0.74552 0.90542 0.0
C805 C 0.75314 0.74485 0.85209 0.0
C806 C 0.74513 0.19684 0.14401 0.0
C807 C 0.74442 0.19739 0.11514 0.0
H808 H 0.74462 0.24709 0.18122 0.0
C809 C 0.74475 0.25255 0.10178 0.0
H810 H 0.74503 0.15551 0.15512 0.0
C811 C 0.74465 0.30539 0.1168 0.0
C812 C 0.74399 0.30482 0.14568 0.0
H813 H 0.74449 0.2551 0.07959 0.0
H814 H 0.74419 0.34672 0.10571 0.0
C815 C 0.74482 0.24967 0.15903 0.0
C816 C 0.98933 0.97196 0.34802 0.0
C817 C 0.97772 0.94245 0.32326 0.0
H818 H 0.01886 0.05086 0.36742 0.0
C819 C 0.98861 0.97153 0.29831 0.0
H820 H 0.98198 0.95054 0.36759 0.0
C821 C 0.01108 0.02905 0.29822 0.0
C822 C 0.02237 0.05842 0.32308 0.0
H823 H 0.98121 0.94938 0.27892 0.0
H824 H 0.01813 0.05099 0.27876 0.0
C825 C 0.01118 0.0292 0.34792 0.0
C826 C 0.9719 0.01117 0.66367 0.0
C827 C 0.94258 0.02324 0.68842 0.0
H828 H 0.05063 0.98122 0.64428 0.0
C829 C 0.9718 0.01265 0.71338 0.0
H830 H 0.95038 0.01826 0.6441 0.0
C831 C 0.02929 0.9901 0.71349 0.0
C832 C 0.05848 0.97839 0.68863 0.0
H833 H 0.94979 0.02039 0.73277 0.0
H834 H 0.05135 0.98333 0.73294 0.0
C835 C 0.02911 0.98922 0.66378 0.0
C836 C 0.01002 0.47075 0.91377 0.0
C837 C 0.0227 0.44172 0.93852 0.0
H838 H 0.97959 0.54927 0.89436 0.0
C839 C 0.01257 0.47118 0.96347 0.0
H840 H 0.01675 0.44906 0.89421 0.0
C841 C 0.98996 0.52865 0.96356 0.0
C842 C 0.97772 0.55758 0.9387 0.0
H843 H 0.02079 0.44941 0.98287 0.0
H844 H 0.98363 0.55094 0.983 0.0
C845 C 0.988 0.52794 0.91387 0.0
C846 C 0.47277 0.98935 0.09791 0.0
C847 C 0.44331 0.97784 0.07314 0.0
H848 H 0.55153 0.01904 0.11737 0.0
C849 C 0.47238 0.98901 0.0482 0.0
H850 H 0.45136 0.9818 0.11746 0.0
C851 C 0.52982 0.01167 0.04814 0.0
C852 C 0.55913 0.02291 0.07303 0.0
H853 H 0.45025 0.98171 0.0288 0.0
H854 H 0.55174 0.01895 0.0287 0.0
C855 C 0.52993 0.01142 0.09785 0.0
C856 C 0.48976 0.47331 0.79819 0.0
C857 C 0.47726 0.44438 0.82302 0.0
H858 H 0.52075 0.55256 0.77897 0.0
C859 C 0.48711 0.47407 0.84788 0.0
H860 H 0.48375 0.45098 0.77874 0.0
C861 C 0.50902 0.53129 0.84803 0.0
C862 C 0.52202 0.56032 0.82332 0.0
H863 H 0.47848 0.45272 0.86736 0.0
H864 H 0.51545 0.55301 0.86762 0.0
C865 C 0.51227 0.53081 0.79835 0.0
C866 C 0.52889 0.48928 0.21329 0.0
C867 C 0.55802 0.47844 0.18833 0.0
H868 H 0.44942 0.5188 0.23285 0.0
C869 C 0.52858 0.49015 0.16358 0.0
H870 H 0.551 0.48182 0.23268 0.0
C871 C 0.47135 0.51204 0.16368 0.0
C872 C 0.44208 0.52318 0.18853 0.0
H873 H 0.55003 0.48284 0.14401 0.0
H874 H 0.44974 0.5198 0.14418 0.0
C875 C 0.47139 0.51179 0.21339 0.0
C876 C 0.48613 0.02844 0.41376 0.0
C877 C 0.4761 0.0582 0.43859 0.0
H878 H 0.5146 0.94942 0.39412 0.0
C879 C 0.48848 0.02936 0.46345 0.0
H880 H 0.47758 0.0497 0.39426 0.0
C881 C 0.51103 0.97187 0.46337 0.0
C882 C 0.52093 0.94227 0.43843 0.0
H883 H 0.48233 0.05174 0.48288 0.0
H884 H 0.51939 0.95017 0.48277 0.0
C885 C 0.50805 0.97121 0.41368 0.0
C886 C 0.97129 0.48984 0.54805 0.0
C887 C 0.94211 0.47792 0.57288 0.0
H888 H 0.05074 0.52038 0.52883 0.0
C889 C 0.97148 0.48862 0.59776 0.0
H890 H 0.94922 0.48318 0.52858 0.0
C891 C 0.02864 0.51067 0.59791 0.0
C892 C 0.05795 0.52295 0.57319 0.0
H893 H 0.94997 0.48045 0.61724 0.0
H894 H 0.05014 0.51767 0.61749 0.0
C895 C 0.02875 0.51248 0.5482 0.0
loop_
_geom_bond_atom_site_label_1
_geom_bond_atom_site_label_2
_geom_bond_distance
_geom_bond_site_symmetry_2
_ccdc_geom_bond_type
Mn0 O5 2.095 . S
Mn0 O15 2.162 . S
Mn0 O16 2.297 . S
Mn0 O24 2.385 . S
Mn0 O25 2.209 . S
Mn0 O26 2.094 . S
Mn1 O6 2.121 . S
Mn1 N8 2.257 1_455 S
Mn1 N17 2.282 1_455 S
Mn1 O25 2.215 . S
Mn1 O27 2.117 . S
C2 O24 1.234 . S
C2 O25 1.283 . S
C3 O15 1.281 . S
C3 O16 1.236 . S
C4 O26 1.240 . S
C4 O27 1.264 . S
O5 Mn0 2.095 . S
O5 C14 1.250 . S
O6 Mn1 2.121 . S
O6 C14 1.258 . S
C7 N8 1.326 . S
C7 C11 1.460 . S
C7 H13 0.929 1_655 S
N8 Mn1 2.257 1_655 S
N8 C7 1.326 . S
N8 C12 1.362 . S
C9 C10 1.258 . S
C9 C12 1.431 . S
C9 C29 1.449 . S
C10 C9 1.258 . S
C10 C11 1.477 . S
C10 H30 0.931 . S
C11 C7 1.460 . S
C11 C10 1.477 . S
C11 H31 0.930 . S
C12 N8 1.362 . S
C12 C9 1.431 . S
C12 C22 1.476 . S
H13 C7 0.929 1_455 S
C14 O5 1.250 . S
C14 O6 1.258 . S
O15 Mn0 2.162 . S
O15 C3 1.281 . S
O16 Mn0 2.297 . S
O16 C3 1.236 . S
N17 Mn1 2.282 1_655 S
N17 C18 1.328 . S
N17 C22 1.318 . S
C18 N17 1.328 . S
C18 C19 1.457 . S
C18 H23 0.929 . S
C19 C18 1.457 . S
C19 C20 1.291 . S
C19 H32 0.931 . S
C20 C19 1.291 . S
C20 C21 1.373 . S
C20 H33 0.929 . S
C21 C20 1.373 . S
C21 C22 1.396 . S
C21 C28 1.403 . S
C22 C12 1.476 . S
C22 N17 1.318 . S
C22 C21 1.396 . S
H23 C18 0.929 . S
O24 Mn0 2.385 . S
O24 C2 1.234 . S
O25 Mn0 2.209 . S
O25 Mn1 2.215 . S
O25 C2 1.283 . S
O26 Mn0 2.094 . S
O26 C4 1.240 . S
O27 Mn1 2.117 . S
O27 C4 1.264 . S
C28 C21 1.403 . S
C28 C29 1.399 . S
C28 H34 0.929 . S
C29 C9 1.449 . S
C29 C28 1.399 . S
C29 H35 0.930 . S
H30 C10 0.931 . S
H31 C11 0.930 . S
H32 C19 0.931 . S
H33 C20 0.929 . S
H34 C28 0.929 . S
H35 C29 0.930 . S
Mn36 O41 2.095 . S
Mn36 O51 2.162 . S
Mn36 O52 2.297 . S
Mn36 O60 2.385 . S
Mn36 O61 2.209 . S
Mn36 O62 2.094 . S
Mn37 O42 2.121 . S
Mn37 N44 2.257 1_565 S
Mn37 N53 2.282 1_565 S
Mn37 O61 2.215 . S
Mn37 O63 2.117 . S
C38 O60 1.234 . S
C38 O61 1.283 . S
C39 O51 1.281 . S
C39 O52 1.236 . S
C40 O62 1.240 . S
C40 O63 1.264 . S
O41 Mn36 2.095 . S
O41 C50 1.250 . S
O42 Mn37 2.121 . S
O42 C50 1.258 . S
C43 N44 1.326 . S
C43 C47 1.460 . S
C43 H49 0.929 1_545 S
N44 Mn37 2.257 1_545 S
N44 C43 1.326 . S
N44 C48 1.362 . S
C45 C46 1.258 . S
C45 C48 1.431 . S
C45 C65 1.449 . S
C46 C45 1.258 . S
C46 C47 1.477 . S
C46 H66 0.931 . S
C47 C43 1.460 . S
C47 C46 1.477 . S
C47 H67 0.930 . S
C48 N44 1.362 . S
C48 C45 1.431 . S
C48 C58 1.476 . S
H49 C43 0.929 1_565 S
C50 O41 1.250 . S
C50 O42 1.258 . S
O51 Mn36 2.162 . S
O51 C39 1.281 . S
O52 Mn36 2.297 . S
O52 C39 1.236 . S
N53 Mn37 2.282 1_545 S
N53 C54 1.328 . S
N53 C58 1.318 . S
C54 N53 1.328 . S
C54 C55 1.457 . S
C54 H59 0.929 . S
C55 C54 1.457 . S
C55 C56 1.291 . S
C55 H68 0.931 . S
C56 C55 1.291 . S
C56 C57 1.373 . S
C56 H69 0.929 . S
C57 C56 1.373 . S
C57 C58 1.396 . S
C57 C64 1.403 . S
C58 C48 1.476 . S
C58 N53 1.318 . S
C58 C57 1.396 . S
H59 C54 0.929 . S
O60 Mn36 2.385 . S
O60 C38 1.234 . S
O61 Mn36 2.209 . S
O61 Mn37 2.215 . S
O61 C38 1.283 . S
O62 Mn36 2.094 . S
O62 C40 1.240 . S
O63 Mn37 2.117 . S
O63 C40 1.264 . S
C64 C57 1.403 . S
C64 C65 1.399 . S
C64 H70 0.929 . S
C65 C45 1.449 . S
C65 C64 1.399 . S
C65 H71 0.930 . S
H66 C46 0.931 . S
H67 C47 0.930 . S
H68 C55 0.931 . S
H69 C56 0.929 . S
H70 C64 0.929 . S
H71 C65 0.930 . S
Mn72 O77 2.095 . S
Mn72 O87 2.162 . S
Mn72 O88 2.297 . S
Mn72 O96 2.385 . S
Mn72 O97 2.209 . S
Mn72 O98 2.094 . S
Mn73 O78 2.121 . S
Mn73 N80 2.257 1_655 S
Mn73 N89 2.282 1_655 S
Mn73 O97 2.215 . S
Mn73 O99 2.117 . S
C74 O96 1.234 . S
C74 O97 1.283 . S
C75 O87 1.281 . S
C75 O88 1.236 . S
C76 O98 1.240 . S
C76 O99 1.264 . S
O77 Mn72 2.095 . S
O77 C86 1.250 . S
O78 Mn73 2.121 . S
O78 C86 1.258 . S
C79 N80 1.326 . S
C79 C83 1.460 . S
C79 H85 0.929 1_455 S
N80 Mn73 2.257 1_455 S
N80 C79 1.326 . S
N80 C84 1.362 . S
C81 C82 1.258 . S
C81 C84 1.431 . S
C81 C101 1.449 . S
C82 C81 1.258 . S
C82 C83 1.477 . S
C82 H102 0.931 . S
C83 C79 1.460 . S
C83 C82 1.477 . S
C83 H103 0.930 . S
C84 N80 1.362 . S
C84 C81 1.431 . S
C84 C94 1.476 . S
H85 C79 0.929 1_655 S
C86 O77 1.250 . S
C86 O78 1.258 . S
O87 Mn72 2.162 . S
O87 C75 1.281 . S
O88 Mn72 2.297 . S
O88 C75 1.236 . S
N89 Mn73 2.282 1_455 S
N89 C90 1.328 . S
N89 C94 1.318 . S
C90 N89 1.328 . S
C90 C91 1.457 . S
C90 H95 0.929 . S
C91 C90 1.457 . S
C91 C92 1.291 . S
C91 H104 0.931 . S
C92 C91 1.291 . S
C92 C93 1.373 . S
C92 H105 0.929 . S
C93 C92 1.373 . S
C93 C94 1.396 . S
C93 C100 1.403 . S
C94 C84 1.476 . S
C94 N89 1.318 . S
C94 C93 1.396 . S
H95 C90 0.929 . S
O96 Mn72 2.385 . S
O96 C74 1.234 . S
O97 Mn72 2.209 . S
O97 Mn73 2.215 . S
O97 C74 1.283 . S
O98 Mn72 2.094 . S
O98 C76 1.240 . S
O99 Mn73 2.117 . S
O99 C76 1.264 . S
C100 C93 1.403 . S
C100 C101 1.399 . S
C100 H106 0.929 . S
C101 C81 1.449 . S
C101 C100 1.399 . S
C101 H107 0.930 . S
H102 C82 0.931 . S
H103 C83 0.930 . S
H104 C91 0.931 . S
H105 C92 0.929 . S
H106 C100 0.929 . S
H107 C101 0.930 . S
Mn108 O113 2.095 . S
Mn108 O123 2.162 . S
Mn108 O124 2.297 . S
Mn108 O132 2.385 . S
Mn108 O133 2.209 . S
Mn108 O134 2.094 . S
Mn109 O114 2.121 . S
Mn109 N116 2.257 1_545 S
Mn109 N125 2.282 1_545 S
Mn109 O133 2.215 . S
Mn109 O135 2.117 . S
C110 O132 1.234 . S
C110 O133 1.283 . S
C111 O123 1.281 . S
C111 O124 1.236 . S
C112 O134 1.240 . S
C112 O135 1.264 . S
O113 Mn108 2.095 . S
O113 C122 1.250 . S
O114 Mn109 2.121 . S
O114 C122 1.258 . S
C115 N116 1.326 . S
C115 C119 1.460 . S
C115 H121 0.929 1_565 S
N116 Mn109 2.257 1_565 S
N116 C115 1.326 . S
N116 C120 1.362 . S
C117 C118 1.258 . S
C117 C120 1.431 . S
C117 C137 1.449 . S
C118 C117 1.258 . S
C118 C119 1.477 . S
C118 H138 0.931 . S
C119 C115 1.460 . S
C119 C118 1.477 . S
C119 H139 0.930 . S
C120 N116 1.362 . S
C120 C117 1.431 . S
C120 C130 1.476 . S
H121 C115 0.929 1_545 S
C122 O113 1.250 . S
C122 O114 1.258 . S
O123 Mn108 2.162 . S
O123 C111 1.281 . S
O124 Mn108 2.297 . S
O124 C111 1.236 . S
N125 Mn109 2.282 1_565 S
N125 C126 1.328 . S
N125 C130 1.318 . S
C126 N125 1.328 . S
C126 C127 1.457 . S
C126 H131 0.929 . S
C127 C126 1.457 . S
C127 C128 1.291 . S
C127 H140 0.931 . S
C128 C127 1.291 . S
C128 C129 1.373 . S
C128 H141 0.929 . S
C129 C128 1.373 . S
C129 C130 1.396 . S
C129 C136 1.403 . S
C130 C120 1.476 . S
C130 N125 1.318 . S
C130 C129 1.396 . S
H131 C126 0.929 . S
O132 Mn108 2.385 . S
O132 C110 1.234 . S
O133 Mn108 2.209 . S
O133 Mn109 2.215 . S
O133 C110 1.283 . S
O134 Mn108 2.094 . S
O134 C112 1.240 . S
O135 Mn109 2.117 . S
O135 C112 1.264 . S
C136 C129 1.403 . S
C136 C137 1.399 . S
C136 H142 0.929 . S
C137 C117 1.449 . S
C137 C136 1.399 . S
C137 H143 0.930 . S
H138 C118 0.931 . S
H139 C119 0.930 . S
H140 C127 0.931 . S
H141 C128 0.929 . S
H142 C136 0.929 . S
H143 C137 0.930 . S
Mn144 O149 2.095 . S
Mn144 O159 2.162 1_556 S
Mn144 O160 2.297 . S
Mn144 O168 2.385 . S
Mn144 O169 2.209 . S
Mn144 O170 2.094 . S
Mn145 O150 2.121 . S
Mn145 N152 2.257 1_455 S
Mn145 N161 2.282 1_455 S
Mn145 O169 2.215 . S
Mn145 O171 2.117 . S
C146 O168 1.234 . S
C146 O169 1.283 . S
C147 O159 1.281 1_556 S
C147 O160 1.236 . S
C148 O170 1.240 . S
C148 O171 1.264 . S
O149 Mn144 2.095 . S
O149 C158 1.250 . S
O150 Mn145 2.121 . S
O150 C158 1.258 . S
C151 N152 1.326 . S
C151 C155 1.460 . S
C151 H157 0.929 1_655 S
N152 Mn145 2.257 1_655 S
N152 C151 1.326 . S
N152 C156 1.362 . S
C153 C154 1.258 . S
C153 C156 1.431 . S
C153 C173 1.449 . S
C154 C153 1.258 . S
C154 C155 1.477 . S
C154 H174 0.931 . S
C155 C151 1.460 . S
C155 C154 1.477 . S
C155 H175 0.930 . S
C156 N152 1.362 . S
C156 C153 1.431 . S
C156 C166 1.476 . S
H157 C151 0.929 1_455 S
C158 O149 1.250 . S
C158 O150 1.258 . S
O159 Mn144 2.162 1_554 S
O159 C147 1.281 1_554 S
O160 Mn144 2.297 . S
O160 C147 1.236 . S
N161 Mn145 2.282 1_655 S
N161 C162 1.328 . S
N161 C166 1.318 . S
C162 N161 1.328 . S
C162 C163 1.457 . S
C162 H167 0.929 . S
C163 C162 1.457 . S
C163 C164 1.291 . S
C163 H176 0.931 . S
C164 C163 1.291 . S
C164 C165 1.373 . S
C164 H177 0.929 . S
C165 C164 1.373 . S
C165 C166 1.396 . S
C165 C172 1.403 . S
C166 C156 1.476 . S
C166 N161 1.318 . S
C166 C165 1.396 . S
H167 C162 0.929 . S
O168 Mn144 2.385 . S
O168 C146 1.234 . S
O169 Mn144 2.209 . S
O169 Mn145 2.215 . S
O169 C146 1.283 . S
O170 Mn144 2.094 . S
O170 C148 1.240 . S
O171 Mn145 2.117 . S
O171 C148 1.264 . S
C172 C165 1.403 . S
C172 C173 1.399 . S
C172 H178 0.929 . S
C173 C153 1.449 . S
C173 C172 1.399 . S
C173 H179 0.930 . S
H174 C154 0.931 . S
H175 C155 0.930 . S
H176 C163 0.931 . S
H177 C164 0.929 . S
H178 C172 0.929 . S
H179 C173 0.930 . S
Mn180 O185 2.095 . S
Mn180 O195 2.162 1_554 S
Mn180 O196 2.297 . S
Mn180 O204 2.385 . S
Mn180 O205 2.209 . S
Mn180 O206 2.094 . S
Mn181 O186 2.121 . S
Mn181 N188 2.257 1_565 S
Mn181 N197 2.282 1_565 S
Mn181 O205 2.215 . S
Mn181 O207 2.117 . S
C182 O204 1.234 . S
C182 O205 1.283 . S
C183 O195 1.281 1_554 S
C183 O196 1.236 . S
C184 O206 1.240 . S
C184 O207 1.264 . S
O185 Mn180 2.095 . S
O185 C194 1.250 . S
O186 Mn181 2.121 . S
O186 C194 1.258 . S
C187 N188 1.326 . S
C187 C191 1.460 . S
C187 H193 0.929 1_545 S
N188 Mn181 2.257 1_545 S
N188 C187 1.326 . S
N188 C192 1.362 . S
C189 C190 1.258 . S
C189 C192 1.431 . S
C189 C209 1.449 . S
C190 C189 1.258 . S
C190 C191 1.477 . S
C190 H210 0.931 . S
C191 C187 1.460 . S
C191 C190 1.477 . S
C191 H211 0.930 . S
C192 N188 1.362 . S
C192 C189 1.431 . S
C192 C202 1.476 . S
H193 C187 0.929 1_565 S
C194 O185 1.250 . S
C194 O186 1.258 . S
O195 Mn180 2.162 1_556 S
O195 C183 1.281 1_556 S
O196 Mn180 2.297 . S
O196 C183 1.236 . S
N197 Mn181 2.282 1_545 S
N197 C198 1.328 . S
N197 C202 1.318 . S
C198 N197 1.328 . S
C198 C199 1.457 . S
C198 H203 0.929 . S
C199 C198 1.457 . S
C199 C200 1.291 . S
C199 H212 0.931 . S
C200 C199 1.291 . S
C200 C201 1.373 . S
C200 H213 0.929 . S
C201 C200 1.373 . S
C201 C202 1.396 . S
C201 C208 1.403 . S
C202 C192 1.476 . S
C202 N197 1.318 . S
C202 C201 1.396 . S
H203 C198 0.929 . S
O204 Mn180 2.385 . S
O204 C182 1.234 . S
O205 Mn180 2.209 . S
O205 Mn181 2.215 . S
O205 C182 1.283 . S
O206 Mn180 2.094 . S
O206 C184 1.240 . S
O207 Mn181 2.117 . S
O207 C184 1.264 . S
C208 C201 1.403 . S
C208 C209 1.399 . S
C208 H214 0.929 . S
C209 C189 1.449 . S
C209 C208 1.399 . S
C209 H215 0.930 . S
H210 C190 0.931 . S
H211 C191 0.930 . S
H212 C199 0.931 . S
H213 C200 0.929 . S
H214 C208 0.929 . S
H215 C209 0.930 . S
Mn216 O221 2.095 . S
Mn216 O231 2.162 1_556 S
Mn216 O232 2.297 . S
Mn216 O240 2.385 . S
Mn216 O241 2.209 . S
Mn216 O242 2.094 . S
Mn217 O222 2.121 . S
Mn217 N224 2.257 1_655 S
Mn217 N233 2.282 1_655 S
Mn217 O241 2.215 . S
Mn217 O243 2.117 . S
C218 O240 1.234 . S
C218 O241 1.283 . S
C219 O231 1.281 1_556 S
C219 O232 1.236 . S
C220 O242 1.240 . S
C220 O243 1.264 . S
O221 Mn216 2.095 . S
O221 C230 1.250 . S
O222 Mn217 2.121 . S
O222 C230 1.258 . S
C223 N224 1.326 . S
C223 C227 1.460 . S
C223 H229 0.929 1_455 S
N224 Mn217 2.257 1_455 S
N224 C223 1.326 . S
N224 C228 1.362 . S
C225 C226 1.258 . S
C225 C228 1.431 . S
C225 C245 1.449 . S
C226 C225 1.258 . S
C226 C227 1.477 . S
C226 H246 0.931 . S
C227 C223 1.460 . S
C227 C226 1.477 . S
C227 H247 0.930 . S
C228 N224 1.362 . S
C228 C225 1.431 . S
C228 C238 1.476 . S
H229 C223 0.929 1_655 S
C230 O221 1.250 . S
C230 O222 1.258 . S
O231 Mn216 2.162 1_554 S
O231 C219 1.281 1_554 S
O232 Mn216 2.297 . S
O232 C219 1.236 . S
N233 Mn217 2.282 1_455 S
N233 C234 1.328 . S
N233 C238 1.318 . S
C234 N233 1.328 . S
C234 C235 1.457 . S
C234 H239 0.929 . S
C235 C234 1.457 . S
C235 C236 1.291 . S
C235 H248 0.931 . S
C236 C235 1.291 . S
C236 C237 1.373 . S
C236 H249 0.929 . S
C237 C236 1.373 . S
C237 C238 1.396 . S
C237 C244 1.403 . S
C238 C228 1.476 . S
C238 N233 1.318 . S
C238 C237 1.396 . S
H239 C234 0.929 . S
O240 Mn216 2.385 . S
O240 C218 1.234 . S
O241 Mn216 2.209 . S
O241 Mn217 2.215 . S
O241 C218 1.283 . S
O242 Mn216 2.094 . S
O242 C220 1.240 . S
O243 Mn217 2.117 . S
O243 C220 1.264 . S
C244 C237 1.403 . S
C244 C245 1.399 . S
C244 H250 0.929 . S
C245 C225 1.449 . S
C245 C244 1.399 . S
C245 H251 0.930 . S
H246 C226 0.931 . S
H247 C227 0.930 . S
H248 C235 0.931 . S
H249 C236 0.929 . S
H250 C244 0.929 . S
H251 C245 0.930 . S
Mn252 O257 2.095 . S
Mn252 O267 2.162 1_554 S
Mn252 O268 2.297 . S
Mn252 O276 2.385 . S
Mn252 O277 2.209 . S
Mn252 O278 2.094 . S
Mn253 O258 2.121 . S
Mn253 N260 2.257 1_545 S
Mn253 N269 2.282 1_545 S
Mn253 O277 2.215 . S
Mn253 O279 2.117 . S
C254 O276 1.234 . S
C254 O277 1.283 . S
C255 O267 1.281 1_554 S
C255 O268 1.236 . S
C256 O278 1.240 . S
C256 O279 1.264 . S
O257 Mn252 2.095 . S
O257 C266 1.250 . S
O258 Mn253 2.121 . S
O258 C266 1.258 . S
C259 N260 1.326 . S
C259 C263 1.460 . S
C259 H265 0.929 1_565 S
N260 Mn253 2.257 1_565 S
N260 C259 1.326 . S
N260 C264 1.362 . S
C261 C262 1.258 . S
C261 C264 1.431 . S
C261 C281 1.449 . S
C262 C261 1.258 . S
C262 C263 1.477 . S
C262 H282 0.931 . S
C263 C259 1.460 . S
C263 C262 1.477 . S
C263 H283 0.930 . S
C264 N260 1.362 . S
C264 C261 1.431 . S
C264 C274 1.476 . S
H265 C259 0.929 1_545 S
C266 O257 1.250 . S
C266 O258 1.258 . S
O267 Mn252 2.162 1_556 S
O267 C255 1.281 1_556 S
O268 Mn252 2.297 . S
O268 C255 1.236 . S
N269 Mn253 2.282 1_565 S
N269 C270 1.328 . S
N269 C274 1.318 . S
C270 N269 1.328 . S
C270 C271 1.457 . S
C270 H275 0.929 . S
C271 C270 1.457 . S
C271 C272 1.291 . S
C271 H284 0.931 . S
C272 C271 1.291 . S
C272 C273 1.373 . S
C272 H285 0.929 . S
C273 C272 1.373 . S
C273 C274 1.396 . S
C273 C280 1.403 . S
C274 C264 1.476 . S
C274 N269 1.318 . S
C274 C273 1.396 . S
H275 C270 0.929 . S
O276 Mn252 2.385 . S
O276 C254 1.234 . S
O277 Mn252 2.209 . S
O277 Mn253 2.215 . S
O277 C254 1.283 . S
O278 Mn252 2.094 . S
O278 C256 1.240 . S
O279 Mn253 2.117 . S
O279 C256 1.264 . S
C280 C273 1.403 . S
C280 C281 1.399 . S
C280 H286 0.929 . S
C281 C261 1.449 . S
C281 C280 1.399 . S
C281 H287 0.930 . S
H282 C262 0.931 . S
H283 C263 0.930 . S
H284 C271 0.931 . S
H285 C272 0.929 . S
H286 C280 0.929 . S
H287 C281 0.930 . S
Mn288 O293 2.095 . S
Mn288 O303 2.162 . S
Mn288 O304 2.297 . S
Mn288 O312 2.385 . S
Mn288 O313 2.209 . S
Mn288 O314 2.094 . S
Mn289 O294 2.121 . S
Mn289 N296 2.257 . S
Mn289 N305 2.282 . S
Mn289 O313 2.215 . S
Mn289 O315 2.117 . S
C290 O312 1.234 . S
C290 O313 1.283 . S
C291 O303 1.281 . S
C291 O304 1.236 . S
C292 O314 1.240 . S
C292 O315 1.264 . S
O293 Mn288 2.095 . S
O293 C302 1.250 . S
O294 Mn289 2.121 . S
O294 C302 1.258 . S
C295 N296 1.326 . S
C295 C299 1.460 . S
C295 H301 0.929 . S
N296 Mn289 2.257 . S
N296 C295 1.326 . S
N296 C300 1.362 . S
C297 C298 1.258 . S
C297 C300 1.431 . S
C297 C317 1.449 . S
C298 C297 1.258 . S
C298 C299 1.477 . S
C298 H318 0.931 . S
C299 C295 1.460 . S
C299 C298 1.477 . S
C299 H319 0.930 . S
C300 N296 1.362 . S
C300 C297 1.431 . S
C300 C310 1.476 . S
H301 C295 0.929 . S
C302 O293 1.250 . S
C302 O294 1.258 . S
O303 Mn288 2.162 . S
O303 C291 1.281 . S
O304 Mn288 2.297 . S
O304 C291 1.236 . S
N305 Mn289 2.282 . S
N305 C306 1.328 . S
N305 C310 1.318 . S
C306 N305 1.328 . S
C306 C307 1.457 . S
C306 H311 0.929 . S
C307 C306 1.457 . S
C307 C308 1.291 . S
C307 H320 0.931 . S
C308 C307 1.291 . S
C308 C309 1.373 . S
C308 H321 0.929 . S
C309 C308 1.373 . S
C309 C310 1.396 . S
C309 C316 1.403 . S
C310 C300 1.476 . S
C310 N305 1.318 . S
C310 C309 1.396 . S
H311 C306 0.929 . S
O312 Mn288 2.385 . S
O312 C290 1.234 . S
O313 Mn288 2.209 . S
O313 Mn289 2.215 . S
O313 C290 1.283 . S
O314 Mn288 2.094 . S
O314 C292 1.240 . S
O315 Mn289 2.117 . S
O315 C292 1.264 . S
C316 C309 1.403 . S
C316 C317 1.399 . S
C316 H322 0.929 . S
C317 C297 1.449 . S
C317 C316 1.399 . S
C317 H323 0.930 . S
H318 C298 0.931 . S
H319 C299 0.930 . S
H320 C307 0.931 . S
H321 C308 0.929 . S
H322 C316 0.929 . S
H323 C317 0.930 . S
Mn324 O329 2.095 . S
Mn324 O339 2.162 . S
Mn324 O340 2.297 . S
Mn324 O348 2.385 . S
Mn324 O349 2.209 . S
Mn324 O350 2.094 . S
Mn325 O330 2.121 . S
Mn325 N332 2.257 . S
Mn325 N341 2.282 . S
Mn325 O349 2.215 . S
Mn325 O351 2.117 . S
C326 O348 1.234 . S
C326 O349 1.283 . S
C327 O339 1.281 . S
C327 O340 1.236 . S
C328 O350 1.240 . S
C328 O351 1.264 . S
O329 Mn324 2.095 . S
O329 C338 1.250 . S
O330 Mn325 2.121 . S
O330 C338 1.258 . S
C331 N332 1.326 . S
C331 C335 1.460 . S
C331 H337 0.929 . S
N332 Mn325 2.257 . S
N332 C331 1.326 . S
N332 C336 1.362 . S
C333 C334 1.258 . S
C333 C336 1.431 . S
C333 C353 1.449 . S
C334 C333 1.258 . S
C334 C335 1.477 . S
C334 H354 0.931 . S
C335 C331 1.460 . S
C335 C334 1.477 . S
C335 H355 0.930 . S
C336 N332 1.362 . S
C336 C333 1.431 . S
C336 C346 1.476 . S
H337 C331 0.929 . S
C338 O329 1.250 . S
C338 O330 1.258 . S
O339 Mn324 2.162 . S
O339 C327 1.281 . S
O340 Mn324 2.297 . S
O340 C327 1.236 . S
N341 Mn325 2.282 . S
N341 C342 1.328 . S
N341 C346 1.318 . S
C342 N341 1.328 . S
C342 C343 1.457 . S
C342 H347 0.929 . S
C343 C342 1.457 . S
C343 C344 1.291 . S
C343 H356 0.931 . S
C344 C343 1.291 . S
C344 C345 1.373 . S
C344 H357 0.929 . S
C345 C344 1.373 . S
C345 C346 1.396 . S
C345 C352 1.403 . S
C346 C336 1.476 . S
C346 N341 1.318 . S
C346 C345 1.396 . S
H347 C342 0.929 . S
O348 Mn324 2.385 . S
O348 C326 1.234 . S
O349 Mn324 2.209 . S
O349 Mn325 2.215 . S
O349 C326 1.283 . S
O350 Mn324 2.094 . S
O350 C328 1.240 . S
O351 Mn325 2.117 . S
O351 C328 1.264 . S
C352 C345 1.403 . S
C352 C353 1.399 . S
C352 H358 0.929 . S
C353 C333 1.449 . S
C353 C352 1.399 . S
C353 H359 0.930 . S
H354 C334 0.931 . S
H355 C335 0.930 . S
H356 C343 0.931 . S
H357 C344 0.929 . S
H358 C352 0.929 . S
H359 C353 0.930 . S
Mn360 O365 2.095 . S
Mn360 O375 2.162 . S
Mn360 O376 2.297 . S
Mn360 O384 2.385 . S
Mn360 O385 2.209 . S
Mn360 O386 2.094 . S
Mn361 O366 2.121 . S
Mn361 N368 2.257 . S
Mn361 N377 2.282 . S
Mn361 O385 2.215 . S
Mn361 O387 2.117 . S
C362 O384 1.234 . S
C362 O385 1.283 . S
C363 O375 1.281 . S
C363 O376 1.236 . S
C364 O386 1.240 . S
C364 O387 1.264 . S
O365 Mn360 2.095 . S
O365 C374 1.250 . S
O366 Mn361 2.121 . S
O366 C374 1.258 . S
C367 N368 1.326 . S
C367 C371 1.460 . S
C367 H373 0.929 . S
N368 Mn361 2.257 . S
N368 C367 1.326 . S
N368 C372 1.362 . S
C369 C370 1.258 . S
C369 C372 1.431 . S
C369 C389 1.449 . S
C370 C369 1.258 . S
C370 C371 1.477 . S
C370 H390 0.931 . S
C371 C367 1.460 . S
C371 C370 1.477 . S
C371 H391 0.930 . S
C372 N368 1.362 . S
C372 C369 1.431 . S
C372 C382 1.476 . S
H373 C367 0.929 . S
C374 O365 1.250 . S
C374 O366 1.258 . S
O375 Mn360 2.162 . S
O375 C363 1.281 . S
O376 Mn360 2.297 . S
O376 C363 1.236 . S
N377 Mn361 2.282 . S
N377 C378 1.328 . S
N377 C382 1.318 . S
C378 N377 1.328 . S
C378 C379 1.457 . S
C378 H383 0.929 . S
C379 C378 1.457 . S
C379 C380 1.291 . S
C379 H392 0.931 . S
C380 C379 1.291 . S
C380 C381 1.373 . S
C380 H393 0.929 . S
C381 C380 1.373 . S
C381 C382 1.396 . S
C381 C388 1.403 . S
C382 C372 1.476 . S
C382 N377 1.318 . S
C382 C381 1.396 . S
H383 C378 0.929 . S
O384 Mn360 2.385 . S
O384 C362 1.234 . S
O385 Mn360 2.209 . S
O385 Mn361 2.215 . S
O385 C362 1.283 . S
O386 Mn360 2.094 . S
O386 C364 1.240 . S
O387 Mn361 2.117 . S
O387 C364 1.264 . S
C388 C381 1.403 . S
C388 C389 1.399 . S
C388 H394 0.929 . S
C389 C369 1.449 . S
C389 C388 1.399 . S
C389 H395 0.930 . S
H390 C370 0.931 . S
H391 C371 0.930 . S
H392 C379 0.931 . S
H393 C380 0.929 . S
H394 C388 0.929 . S
H395 C389 0.930 . S
Mn396 O401 2.095 . S
Mn396 O411 2.162 . S
Mn396 O412 2.297 . S
Mn396 O420 2.385 . S
Mn396 O421 2.209 . S
Mn396 O422 2.094 . S
Mn397 O402 2.121 . S
Mn397 N404 2.257 . S
Mn397 N413 2.282 . S
Mn397 O421 2.215 . S
Mn397 O423 2.117 . S
C398 O420 1.234 . S
C398 O421 1.283 . S
C399 O411 1.281 . S
C399 O412 1.236 . S
C400 O422 1.240 . S
C400 O423 1.264 . S
O401 Mn396 2.095 . S
O401 C410 1.250 . S
O402 Mn397 2.121 . S
O402 C410 1.258 . S
C403 N404 1.326 . S
C403 C407 1.460 . S
C403 H409 0.929 . S
N404 Mn397 2.257 . S
N404 C403 1.326 . S
N404 C408 1.362 . S
C405 C406 1.258 . S
C405 C408 1.431 . S
C405 C425 1.449 . S
C406 C405 1.258 . S
C406 C407 1.477 . S
C406 H426 0.931 . S
C407 C403 1.460 . S
C407 C406 1.477 . S
C407 H427 0.930 . S
C408 N404 1.362 . S
C408 C405 1.431 . S
C408 C418 1.476 . S
H409 C403 0.929 . S
C410 O401 1.250 . S
C410 O402 1.258 . S
O411 Mn396 2.162 . S
O411 C399 1.281 . S
O412 Mn396 2.297 . S
O412 C399 1.236 . S
N413 Mn397 2.282 . S
N413 C414 1.328 . S
N413 C418 1.318 . S
C414 N413 1.328 . S
C414 C415 1.457 . S
C414 H419 0.929 . S
C415 C414 1.457 . S
C415 C416 1.291 . S
C415 H428 0.931 . S
C416 C415 1.291 . S
C416 C417 1.373 . S
C416 H429 0.929 . S
C417 C416 1.373 . S
C417 C418 1.396 . S
C417 C424 1.403 . S
C418 C408 1.476 . S
C418 N413 1.318 . S
C418 C417 1.396 . S
H419 C414 0.929 . S
O420 Mn396 2.385 . S
O420 C398 1.234 . S
O421 Mn396 2.209 . S
O421 Mn397 2.215 . S
O421 C398 1.283 . S
O422 Mn396 2.094 . S
O422 C400 1.240 . S
O423 Mn397 2.117 . S
O423 C400 1.264 . S
C424 C417 1.403 . S
C424 C425 1.399 . S
C424 H430 0.929 . S
C425 C405 1.449 . S
C425 C424 1.399 . S
C425 H431 0.930 . S
H426 C406 0.931 . S
H427 C407 0.930 . S
H428 C415 0.931 . S
H429 C416 0.929 . S
H430 C424 0.929 . S
H431 C425 0.930 . S
Mn432 O437 2.095 . S
Mn432 O447 2.162 . S
Mn432 O448 2.297 . S
Mn432 O456 2.385 . S
Mn432 O457 2.209 . S
Mn432 O458 2.094 . S
Mn433 O438 2.121 . S
Mn433 N440 2.257 . S
Mn433 N449 2.282 . S
Mn433 O457 2.215 . S
Mn433 O459 2.117 . S
C434 O456 1.234 . S
C434 O457 1.283 . S
C435 O447 1.281 . S
C435 O448 1.236 . S
C436 O458 1.240 . S
C436 O459 1.264 . S
O437 Mn432 2.095 . S
O437 C446 1.250 . S
O438 Mn433 2.121 . S
O438 C446 1.258 . S
C439 N440 1.326 . S
C439 C443 1.460 . S
C439 H445 0.929 . S
N440 Mn433 2.257 . S
N440 C439 1.326 . S
N440 C444 1.362 . S
C441 C442 1.258 . S
C441 C444 1.431 . S
C441 C461 1.449 . S
C442 C441 1.258 . S
C442 C443 1.477 . S
C442 H462 0.931 . S
C443 C439 1.460 . S
C443 C442 1.477 . S
C443 H463 0.930 . S
C444 N440 1.362 . S
C444 C441 1.431 . S
C444 C454 1.476 . S
H445 C439 0.929 . S
C446 O437 1.250 . S
C446 O438 1.258 . S
O447 Mn432 2.162 . S
O447 C435 1.281 . S
O448 Mn432 2.297 . S
O448 C435 1.236 . S
N449 Mn433 2.282 . S
N449 C450 1.328 . S
N449 C454 1.318 . S
C450 N449 1.328 . S
C450 C451 1.457 . S
C450 H455 0.929 . S
C451 C450 1.457 . S
C451 C452 1.291 . S
C451 H464 0.931 . S
C452 C451 1.291 . S
C452 C453 1.373 . S
C452 H465 0.929 . S
C453 C452 1.373 . S
C453 C454 1.396 . S
C453 C460 1.403 . S
C454 C444 1.476 . S
C454 N449 1.318 . S
C454 C453 1.396 . S
H455 C450 0.929 . S
O456 Mn432 2.385 . S
O456 C434 1.234 . S
O457 Mn432 2.209 . S
O457 Mn433 2.215 . S
O457 C434 1.283 . S
O458 Mn432 2.094 . S
O458 C436 1.240 . S
O459 Mn433 2.117 . S
O459 C436 1.264 . S
C460 C453 1.403 . S
C460 C461 1.399 . S
C460 H466 0.929 . S
C461 C441 1.449 . S
C461 C460 1.399 . S
C461 H467 0.930 . S
H462 C442 0.931 . S
H463 C443 0.930 . S
H464 C451 0.931 . S
H465 C452 0.929 . S
H466 C460 0.929 . S
H467 C461 0.930 . S
Mn468 O473 2.095 . S
Mn468 O483 2.162 . S
Mn468 O484 2.297 . S
Mn468 O492 2.385 . S
Mn468 O493 2.209 . S
Mn468 O494 2.094 . S
Mn469 O474 2.121 . S
Mn469 N476 2.257 . S
Mn469 N485 2.282 . S
Mn469 O493 2.215 . S
Mn469 O495 2.117 . S
C470 O492 1.234 . S
C470 O493 1.283 . S
C471 O483 1.281 . S
C471 O484 1.236 . S
C472 O494 1.240 . S
C472 O495 1.264 . S
O473 Mn468 2.095 . S
O473 C482 1.250 . S
O474 Mn469 2.121 . S
O474 C482 1.258 . S
C475 N476 1.326 . S
C475 C479 1.460 . S
C475 H481 0.929 . S
N476 Mn469 2.257 . S
N476 C475 1.326 . S
N476 C480 1.362 . S
C477 C478 1.258 . S
C477 C480 1.431 . S
C477 C497 1.449 . S
C478 C477 1.258 . S
C478 C479 1.477 . S
C478 H498 0.931 . S
C479 C475 1.460 . S
C479 C478 1.477 . S
C479 H499 0.930 . S
C480 N476 1.362 . S
C480 C477 1.431 . S
C480 C490 1.476 . S
H481 C475 0.929 . S
C482 O473 1.250 . S
C482 O474 1.258 . S
O483 Mn468 2.162 . S
O483 C471 1.281 . S
O484 Mn468 2.297 . S
O484 C471 1.236 . S
N485 Mn469 2.282 . S
N485 C486 1.328 . S
N485 C490 1.318 . S
C486 N485 1.328 . S
C486 C487 1.457 . S
C486 H491 0.929 . S
C487 C486 1.457 . S
C487 C488 1.291 . S
C487 H500 0.931 . S
C488 C487 1.291 . S
C488 C489 1.373 . S
C488 H501 0.929 . S
C489 C488 1.373 . S
C489 C490 1.396 . S
C489 C496 1.403 . S
C490 C480 1.476 . S
C490 N485 1.318 . S
C490 C489 1.396 . S
H491 C486 0.929 . S
O492 Mn468 2.385 . S
O492 C470 1.234 . S
O493 Mn468 2.209 . S
O493 Mn469 2.215 . S
O493 C470 1.283 . S
O494 Mn468 2.094 . S
O494 C472 1.240 . S
O495 Mn469 2.117 . S
O495 C472 1.264 . S
C496 C489 1.403 . S
C496 C497 1.399 . S
C496 H502 0.929 . S
C497 C477 1.449 . S
C497 C496 1.399 . S
C497 H503 0.930 . S
H498 C478 0.931 . S
H499 C479 0.930 . S
H500 C487 0.931 . S
H501 C488 0.929 . S
H502 C496 0.929 . S
H503 C497 0.930 . S
Mn504 O509 2.095 . S
Mn504 O519 2.162 . S
Mn504 O520 2.297 . S
Mn504 O528 2.385 . S
Mn504 O529 2.209 . S
Mn504 O530 2.094 . S
Mn505 O510 2.121 . S
Mn505 N512 2.257 . S
Mn505 N521 2.282 . S
Mn505 O529 2.215 . S
Mn505 O531 2.117 . S
C506 O528 1.234 . S
C506 O529 1.283 . S
C507 O519 1.281 . S
C507 O520 1.236 . S
C508 O530 1.240 . S
C508 O531 1.264 . S
O509 Mn504 2.095 . S
O509 C518 1.250 . S
O510 Mn505 2.121 . S
O510 C518 1.258 . S
C511 N512 1.326 . S
C511 C515 1.460 . S
C511 H517 0.929 . S
N512 Mn505 2.257 . S
N512 C511 1.326 . S
N512 C516 1.362 . S
C513 C514 1.258 . S
C513 C516 1.431 . S
C513 C533 1.449 . S
C514 C513 1.258 . S
C514 C515 1.477 . S
C514 H534 0.931 . S
C515 C511 1.460 . S
C515 C514 1.477 . S
C515 H535 0.930 . S
C516 N512 1.362 . S
C516 C513 1.431 . S
C516 C526 1.476 . S
H517 C511 0.929 . S
C518 O509 1.250 . S
C518 O510 1.258 . S
O519 Mn504 2.162 . S
O519 C507 1.281 . S
O520 Mn504 2.297 . S
O520 C507 1.236 . S
N521 Mn505 2.282 . S
N521 C522 1.328 . S
N521 C526 1.318 . S
C522 N521 1.328 . S
C522 C523 1.457 . S
C522 H527 0.929 . S
C523 C522 1.457 . S
C523 C524 1.291 . S
C523 H536 0.931 . S
C524 C523 1.291 . S
C524 C525 1.373 . S
C524 H537 0.929 . S
C525 C524 1.373 . S
C525 C526 1.396 . S
C525 C532 1.403 . S
C526 C516 1.476 . S
C526 N521 1.318 . S
C526 C525 1.396 . S
H527 C522 0.929 . S
O528 Mn504 2.385 . S
O528 C506 1.234 . S
O529 Mn504 2.209 . S
O529 Mn505 2.215 . S
O529 C506 1.283 . S
O530 Mn504 2.094 . S
O530 C508 1.240 . S
O531 Mn505 2.117 . S
O531 C508 1.264 . S
C532 C525 1.403 . S
C532 C533 1.399 . S
C532 H538 0.929 . S
C533 C513 1.449 . S
C533 C532 1.399 . S
C533 H539 0.930 . S
H534 C514 0.931 . S
H535 C515 0.930 . S
H536 C523 0.931 . S
H537 C524 0.929 . S
H538 C532 0.929 . S
H539 C533 0.930 . S
Mn540 O545 2.095 . S
Mn540 O555 2.162 . S
Mn540 O556 2.297 . S
Mn540 O564 2.385 . S
Mn540 O565 2.209 . S
Mn540 O566 2.094 . S
Mn541 O546 2.121 . S
Mn541 N548 2.257 . S
Mn541 N557 2.282 . S
Mn541 O565 2.215 . S
Mn541 O567 2.117 . S
C542 O564 1.234 . S
C542 O565 1.283 . S
C543 O555 1.281 . S
C543 O556 1.236 . S
C544 O566 1.240 . S
C544 O567 1.264 . S
O545 Mn540 2.095 . S
O545 C554 1.250 . S
O546 Mn541 2.121 . S
O546 C554 1.258 . S
C547 N548 1.326 . S
C547 C551 1.460 . S
C547 H553 0.929 . S
N548 Mn541 2.257 . S
N548 C547 1.326 . S
N548 C552 1.362 . S
C549 C550 1.258 . S
C549 C552 1.431 . S
C549 C569 1.449 . S
C550 C549 1.258 . S
C550 C551 1.477 . S
C550 H570 0.931 . S
C551 C547 1.460 . S
C551 C550 1.477 . S
C551 H571 0.930 . S
C552 N548 1.362 . S
C552 C549 1.431 . S
C552 C562 1.476 . S
H553 C547 0.929 . S
C554 O545 1.250 . S
C554 O546 1.258 . S
O555 Mn540 2.162 . S
O555 C543 1.281 . S
O556 Mn540 2.297 . S
O556 C543 1.236 . S
N557 Mn541 2.282 . S
N557 C558 1.328 . S
N557 C562 1.318 . S
C558 N557 1.328 . S
C558 C559 1.457 . S
C558 H563 0.929 . S
C559 C558 1.457 . S
C559 C560 1.291 . S
C559 H572 0.931 . S
C560 C559 1.291 . S
C560 C561 1.373 . S
C560 H573 0.929 . S
C561 C560 1.373 . S
C561 C562 1.396 . S
C561 C568 1.403 . S
C562 C552 1.476 . S
C562 N557 1.318 . S
C562 C561 1.396 . S
H563 C558 0.929 . S
O564 Mn540 2.385 . S
O564 C542 1.234 . S
O565 Mn540 2.209 . S
O565 Mn541 2.215 . S
O565 C542 1.283 . S
O566 Mn540 2.094 . S
O566 C544 1.240 . S
O567 Mn541 2.117 . S
O567 C544 1.264 . S
C568 C561 1.403 . S
C568 C569 1.399 . S
C568 H574 0.929 . S
C569 C549 1.449 . S
C569 C568 1.399 . S
C569 H575 0.930 . S
H570 C550 0.931 . S
H571 C551 0.930 . S
H572 C559 0.931 . S
H573 C560 0.929 . S
H574 C568 0.929 . S
H575 C569 0.930 . S
C576 C577 1.387 . S
C576 H580 0.950 . S
C576 C585 1.390 . S
C577 C576 1.387 . S
C577 C579 1.387 . S
H578 C585 0.950 . S
C579 C577 1.387 . S
C579 C581 1.390 . S
C579 H583 0.950 . S
H580 C576 0.950 . S
C581 C579 1.390 . S
C581 C582 1.387 . S
C581 H584 0.950 . S
C582 C581 1.387 . S
C582 C585 1.387 . S
H583 C579 0.950 . S
H584 C581 0.950 . S
C585 C576 1.390 . S
C585 H578 0.950 . S
C585 C582 1.387 . S
C586 C587 1.387 . S
C586 H590 0.950 . S
C586 C595 1.390 . S
C587 C586 1.387 . S
C587 C589 1.387 . S
H588 C595 0.950 . S
C589 C587 1.387 . S
C589 C591 1.390 . S
C589 H593 0.950 . S
H590 C586 0.950 . S
C591 C589 1.390 . S
C591 C592 1.387 . S
C591 H594 0.950 . S
C592 C591 1.387 . S
C592 C595 1.387 . S
H593 C589 0.950 . S
H594 C591 0.950 . S
C595 C586 1.390 . S
C595 H588 0.950 . S
C595 C592 1.387 . S
C596 C597 1.387 . S
C596 H600 0.950 . S
C596 C605 1.390 . S
C597 C596 1.387 . S
C597 C599 1.387 . S
H598 C605 0.950 . S
C599 C597 1.387 . S
C599 C601 1.390 . S
C599 H603 0.950 . S
H600 C596 0.950 . S
C601 C599 1.390 . S
C601 C602 1.387 . S
C601 H604 0.950 . S
C602 C601 1.387 . S
C602 C605 1.387 . S
H603 C599 0.950 . S
H604 C601 0.950 . S
C605 C596 1.390 . S
C605 H598 0.950 . S
C605 C602 1.387 . S
C606 C607 1.387 . S
C606 H610 0.950 . S
C606 C615 1.390 . S
C607 C606 1.387 . S
C607 C609 1.387 . S
H608 C615 0.950 . S
C609 C607 1.387 . S
C609 C611 1.390 . S
C609 H613 0.950 . S
H610 C606 0.950 . S
C611 C609 1.390 . S
C611 C612 1.387 . S
C611 H614 0.950 . S
C612 C611 1.387 . S
C612 C615 1.387 . S
H613 C609 0.950 . S
H614 C611 0.950 . S
C615 C606 1.390 . S
C615 H608 0.950 . S
C615 C612 1.387 . S
C616 C617 1.387 . S
C616 H620 0.950 . S
C616 C625 1.390 . S
C617 C616 1.387 . S
C617 C619 1.387 1_554 S
H618 C625 0.950 . S
C619 C617 1.387 1_556 S
C619 C621 1.390 . S
C619 H623 0.950 . S
H620 C616 0.950 . S
C621 C619 1.390 . S
C621 C622 1.387 1_556 S
C621 H624 0.950 . S
C622 C621 1.387 1_554 S
C622 C625 1.387 . S
H623 C619 0.950 . S
H624 C621 0.950 . S
C625 C616 1.390 . S
C625 H618 0.950 . S
C625 C622 1.387 . S
C626 C627 1.387 . S
C626 H630 0.950 1_556 S
C626 C635 1.390 . S
C627 C626 1.387 . S
C627 C629 1.387 . S
H628 C635 0.950 . S
C629 C627 1.387 . S
C629 C631 1.390 . S
C629 H633 0.950 . S
H630 C626 0.950 1_554 S
C631 C629 1.390 . S
C631 C632 1.387 . S
C631 H634 0.950 . S
C632 C631 1.387 . S
C632 C635 1.387 . S
H633 C629 0.950 . S
H634 C631 0.950 . S
C635 C626 1.390 . S
C635 H628 0.950 . S
C635 C632 1.387 . S
C636 C637 1.387 . S
C636 H640 0.950 . S
C636 C645 1.390 . S
C637 C636 1.387 . S
C637 C639 1.387 . S
H638 C645 0.950 . S
C639 C637 1.387 . S
C639 C641 1.390 . S
C639 H643 0.950 . S
H640 C636 0.950 . S
C641 C639 1.390 . S
C641 C642 1.387 . S
C641 H644 0.950 . S
C642 C641 1.387 . S
C642 C645 1.387 . S
H643 C639 0.950 . S
H644 C641 0.950 . S
C645 C636 1.390 . S
C645 H638 0.950 . S
C645 C642 1.387 . S
C646 C647 1.387 . S
C646 H650 0.950 . S
C646 C655 1.390 . S
C647 C646 1.387 . S
C647 C649 1.387 1_556 S
H648 C655 0.950 . S
C649 C647 1.387 1_554 S
C649 C651 1.390 1_554 S
C649 H653 0.950 . S
H650 C646 0.950 . S
C651 C649 1.390 1_556 S
C651 C652 1.387 . S
C651 H654 0.950 1_556 S
C652 C651 1.387 . S
C652 C655 1.387 . S
H653 C649 0.950 . S
H654 C651 0.950 1_554 S
C655 C646 1.390 . S
C655 H648 0.950 . S
C655 C652 1.387 . S
C656 C657 1.387 . S
C656 H660 0.950 . S
C656 C665 1.390 . S
C657 C656 1.387 . S
C657 C659 1.387 . S
H658 C665 0.950 . S
C659 C657 1.387 . S
C659 C661 1.390 . S
C659 H663 0.950 . S
H660 C656 0.950 . S
C661 C659 1.390 . S
C661 C662 1.387 . S
C661 H664 0.950 . S
C662 C661 1.387 . S
C662 C665 1.387 . S
H663 C659 0.950 . S
H664 C661 0.950 . S
C665 C656 1.390 . S
C665 H658 0.950 . S
C665 C662 1.387 . S
C666 C667 1.387 . S
C666 H670 0.950 . S
C666 C675 1.390 . S
C667 C666 1.387 . S
C667 C669 1.387 . S
H668 C675 0.950 . S
C669 C667 1.387 . S
C669 C671 1.390 . S
C669 H673 0.950 . S
H670 C666 0.950 . S
C671 C669 1.390 . S
C671 C672 1.387 . S
C671 H674 0.950 . S
C672 C671 1.387 . S
C672 C675 1.387 . S
H673 C669 0.950 . S
H674 C671 0.950 . S
C675 C666 1.390 . S
C675 H668 0.950 . S
C675 C672 1.387 . S
C676 C677 1.387 . S
C676 H680 0.950 . S
C676 C685 1.390 . S
C677 C676 1.387 . S
C677 C679 1.387 . S
H678 C685 0.950 . S
C679 C677 1.387 . S
C679 C681 1.390 . S
C679 H683 0.950 . S
H680 C676 0.950 . S
C681 C679 1.390 . S
C681 C682 1.387 . S
C681 H684 0.950 . S
C682 C681 1.387 . S
C682 C685 1.387 . S
H683 C679 0.950 . S
H684 C681 0.950 . S
C685 C676 1.390 . S
C685 H678 0.950 . S
C685 C682 1.387 . S
C686 C687 1.387 . S
C686 H690 0.950 . S
C686 C695 1.390 . S
C687 C686 1.387 . S
C687 C689 1.387 . S
H688 C695 0.950 . S
C689 C687 1.387 . S
C689 C691 1.390 . S
C689 H693 0.950 . S
H690 C686 0.950 . S
C691 C689 1.390 . S
C691 C692 1.387 . S
C691 H694 0.950 . S
C692 C691 1.387 . S
C692 C695 1.387 . S
H693 C689 0.950 . S
H694 C691 0.950 . S
C695 C686 1.390 . S
C695 H688 0.950 . S
C695 C692 1.387 . S
C696 C697 1.387 . S
C696 H700 0.950 . S
C696 C705 1.390 . S
C697 C696 1.387 . S
C697 C699 1.387 . S
H698 C705 0.950 . S
C699 C697 1.387 . S
C699 C701 1.390 . S
C699 H703 0.950 . S
H700 C696 0.950 . S
C701 C699 1.390 . S
C701 C702 1.387 . S
C701 H704 0.950 . S
C702 C701 1.387 . S
C702 C705 1.387 . S
H703 C699 0.950 . S
H704 C701 0.950 . S
C705 C696 1.390 . S
C705 H698 0.950 . S
C705 C702 1.387 . S
C706 C707 1.387 . S
C706 H710 0.950 . S
C706 C715 1.390 . S
C707 C706 1.387 . S
C707 C709 1.387 . S
H708 C715 0.950 . S
C709 C707 1.387 . S
C709 C711 1.390 . S
C709 H713 0.950 . S
H710 C706 0.950 . S
C711 C709 1.390 . S
C711 C712 1.387 . S
C711 H714 0.950 . S
C712 C711 1.387 . S
C712 C715 1.387 . S
H713 C709 0.950 . S
H714 C711 0.950 . S
C715 C706 1.390 . S
C715 H708 0.950 . S
C715 C712 1.387 . S
C716 C717 1.387 . S
C716 H720 0.950 . S
C716 C725 1.390 . S
C717 C716 1.387 . S
C717 C719 1.387 . S
H718 C725 0.950 . S
C719 C717 1.387 . S
C719 C721 1.390 . S
C719 H723 0.950 . S
H720 C716 0.950 . S
C721 C719 1.390 . S
C721 C722 1.387 . S
C721 H724 0.950 . S
C722 C721 1.387 . S
C722 C725 1.387 . S
H723 C719 0.950 . S
H724 C721 0.950 . S
C725 C716 1.390 . S
C725 H718 0.950 . S
C725 C722 1.387 . S
C726 C727 1.387 . S
C726 H730 0.950 . S
C726 C735 1.390 . S
C727 C726 1.387 . S
C727 C729 1.387 . S
H728 C735 0.950 . S
C729 C727 1.387 . S
C729 C731 1.390 . S
C729 H733 0.950 . S
H730 C726 0.950 . S
C731 C729 1.390 . S
C731 C732 1.387 . S
C731 H734 0.950 . S
C732 C731 1.387 . S
C732 C735 1.387 . S
H733 C729 0.950 . S
H734 C731 0.950 . S
C735 C726 1.390 . S
C735 H728 0.950 . S
C735 C732 1.387 . S
C736 C737 1.387 . S
C736 H740 0.950 . S
C736 C745 1.390 . S
C737 C736 1.387 . S
C737 C739 1.387 . S
H738 C745 0.950 . S
C739 C737 1.387 . S
C739 C741 1.390 . S
C739 H743 0.950 . S
H740 C736 0.950 . S
C741 C739 1.390 . S
C741 C742 1.387 . S
C741 H744 0.950 . S
C742 C741 1.387 . S
C742 C745 1.387 . S
H743 C739 0.950 . S
H744 C741 0.950 . S
C745 C736 1.390 . S
C745 H738 0.950 . S
C745 C742 1.387 . S
C746 C747 1.387 . S
C746 H750 0.950 . S
C746 C755 1.390 . S
C747 C746 1.387 . S
C747 C749 1.387 . S
H748 C755 0.950 . S
C749 C747 1.387 . S
C749 C751 1.390 . S
C749 H753 0.950 . S
H750 C746 0.950 . S
C751 C749 1.390 . S
C751 C752 1.387 . S
C751 H754 0.950 . S
C752 C751 1.387 . S
C752 C755 1.387 . S
H753 C749 0.950 . S
H754 C751 0.950 . S
C755 C746 1.390 . S
C755 H748 0.950 . S
C755 C752 1.387 . S
C756 C757 1.387 . S
C756 H760 0.950 . S
C756 C765 1.390 . S
C757 C756 1.387 . S
C757 C759 1.387 . S
H758 C765 0.950 . S
C759 C757 1.387 . S
C759 C761 1.390 . S
C759 H763 0.950 . S
H760 C756 0.950 . S
C761 C759 1.390 . S
C761 C762 1.387 . S
C761 H764 0.950 . S
C762 C761 1.387 . S
C762 C765 1.387 . S
H763 C759 0.950 . S
H764 C761 0.950 . S
C765 C756 1.390 . S
C765 H758 0.950 . S
C765 C762 1.387 . S
C766 C767 1.387 . S
C766 H770 0.950 . S
C766 C775 1.390 . S
C767 C766 1.387 . S
C767 C769 1.387 . S
H768 C775 0.950 . S
C769 C767 1.387 . S
C769 C771 1.390 . S
C769 H773 0.950 . S
H770 C766 0.950 . S
C771 C769 1.390 . S
C771 C772 1.387 . S
C771 H774 0.950 . S
C772 C771 1.387 . S
C772 C775 1.387 . S
H773 C769 0.950 . S
H774 C771 0.950 . S
C775 C766 1.390 . S
C775 H768 0.950 . S
C775 C772 1.387 . S
C776 C777 1.387 . S
C776 H780 0.950 . S
C776 C785 1.390 . S
C777 C776 1.387 . S
C777 C779 1.387 . S
H778 C785 0.950 . S
C779 C777 1.387 . S
C779 C781 1.390 . S
C779 H783 0.950 . S
H780 C776 0.950 . S
C781 C779 1.390 . S
C781 C782 1.387 . S
C781 H784 0.950 . S
C782 C781 1.387 . S
C782 C785 1.387 . S
H783 C779 0.950 . S
H784 C781 0.950 . S
C785 C776 1.390 . S
C785 H778 0.950 . S
C785 C782 1.387 . S
C786 C787 1.387 . S
C786 H790 0.950 . S
C786 C795 1.390 . S
C787 C786 1.387 . S
C787 C789 1.387 . S
H788 C795 0.950 . S
C789 C787 1.387 . S
C789 C791 1.390 . S
C789 H793 0.950 . S
H790 C786 0.950 . S
C791 C789 1.390 . S
C791 C792 1.387 . S
C791 H794 0.950 . S
C792 C791 1.387 . S
C792 C795 1.387 . S
H793 C789 0.950 . S
H794 C791 0.950 . S
C795 C786 1.390 . S
C795 H788 0.950 . S
C795 C792 1.387 . S
C796 C797 1.387 . S
C796 H800 0.950 . S
C796 C805 1.390 . S
C797 C796 1.387 . S
C797 C799 1.387 . S
H798 C805 0.950 . S
C799 C797 1.387 . S
C799 C801 1.390 . S
C799 H803 0.950 . S
H800 C796 0.950 . S
C801 C799 1.390 . S
C801 C802 1.387 . S
C801 H804 0.950 . S
C802 C801 1.387 . S
C802 C805 1.387 . S
H803 C799 0.950 . S
H804 C801 0.950 . S
C805 C796 1.390 . S
C805 H798 0.950 . S
C805 C802 1.387 . S
C806 C807 1.387 . S
C806 H810 0.950 . S
C806 C815 1.390 . S
C807 C806 1.387 . S
C807 C809 1.387 . S
H808 C815 0.950 . S
C809 C807 1.387 . S
C809 C811 1.390 . S
C809 H813 0.950 . S
H810 C806 0.950 . S
C811 C809 1.390 . S
C811 C812 1.387 . S
C811 H814 0.950 . S
C812 C811 1.387 . S
C812 C815 1.387 . S
H813 C809 0.950 . S
H814 C811 0.950 . S
C815 C806 1.390 . S
C815 H808 0.950 . S
C815 C812 1.387 . S
C816 C817 1.387 . S
C816 H820 0.950 . S
C816 C825 1.390 1_665 S
C817 C816 1.387 . S
C817 C819 1.387 . S
H818 C825 0.950 . S
C819 C817 1.387 . S
C819 C821 1.390 1_665 S
C819 H823 0.950 . S
H820 C816 0.950 . S
C821 C819 1.390 1_445 S
C821 C822 1.387 . S
C821 H824 0.950 . S
C822 C821 1.387 . S
C822 C825 1.387 . S
H823 C819 0.950 . S
H824 C821 0.950 . S
C825 C816 1.390 1_445 S
C825 H818 0.950 . S
C825 C822 1.387 . S
C826 C827 1.387 . S
C826 H830 0.950 . S
C826 C835 1.390 1_645 S
C827 C826 1.387 . S
C827 C829 1.387 . S
H828 C835 0.950 . S
C829 C827 1.387 . S
C829 C831 1.390 1_645 S
C829 H833 0.950 . S
H830 C826 0.950 . S
C831 C829 1.390 1_465 S
C831 C832 1.387 . S
C831 H834 0.950 . S
C832 C831 1.387 . S
C832 C835 1.387 . S
H833 C829 0.950 . S
H834 C831 0.950 . S
C835 C826 1.390 1_465 S
C835 H828 0.950 . S
C835 C832 1.387 . S
C836 C837 1.387 . S
C836 H840 0.950 . S
C836 C845 1.390 1_455 S
C837 C836 1.387 . S
C837 C839 1.387 . S
H838 C845 0.950 . S
C839 C837 1.387 . S
C839 C841 1.390 1_455 S
C839 H843 0.950 1_556 S
H840 C836 0.950 . S
C841 C839 1.390 1_655 S
C841 C842 1.387 . S
C841 H844 0.950 1_556 S
C842 C841 1.387 . S
C842 C845 1.387 . S
H843 C839 0.950 1_554 S
H844 C841 0.950 1_554 S
C845 C836 1.390 1_655 S
C845 H838 0.950 . S
C845 C842 1.387 . S
C846 C847 1.387 . S
C846 H850 0.950 . S
C846 C855 1.390 1_565 S
C847 C846 1.387 . S
C847 C849 1.387 . S
H848 C855 0.950 . S
C849 C847 1.387 . S
C849 C851 1.390 1_565 S
C849 H853 0.950 1_554 S
H850 C846 0.950 . S
C851 C849 1.390 1_545 S
C851 C852 1.387 . S
C851 H854 0.950 1_554 S
C852 C851 1.387 . S
C852 C855 1.387 . S
H853 C849 0.950 1_556 S
H854 C851 0.950 1_556 S
C855 C846 1.390 1_545 S
C855 H848 0.950 . S
C855 C852 1.387 . S
C856 C857 1.387 . S
C856 H860 0.950 . S
C856 C865 1.390 . S
C857 C856 1.387 . S
C857 C859 1.387 . S
H858 C865 0.950 . S
C859 C857 1.387 . S
C859 C861 1.390 . S
C859 H863 0.950 . S
H860 C856 0.950 . S
C861 C859 1.390 . S
C861 C862 1.387 . S
C861 H864 0.950 . S
C862 C861 1.387 . S
C862 C865 1.387 . S
H863 C859 0.950 . S
H864 C861 0.950 . S
C865 C856 1.390 . S
C865 H858 0.950 . S
C865 C862 1.387 . S
C866 C867 1.387 . S
C866 H870 0.950 . S
C866 C875 1.390 . S
C867 C866 1.387 . S
C867 C869 1.387 . S
H868 C875 0.950 . S
C869 C867 1.387 . S
C869 C871 1.390 . S
C869 H873 0.950 . S
H870 C866 0.950 . S
C871 C869 1.390 . S
C871 C872 1.387 . S
C871 H874 0.950 . S
C872 C871 1.387 . S
C872 C875 1.387 . S
H873 C869 0.950 . S
H874 C871 0.950 . S
C875 C866 1.390 . S
C875 H868 0.950 . S
C875 C872 1.387 . S
C876 C877 1.387 . S
C876 H880 0.950 . S
C876 C885 1.390 1_545 S
C877 C876 1.387 . S
C877 C879 1.387 . S
H878 C885 0.950 . S
C879 C877 1.387 . S
C879 C881 1.390 1_545 S
C879 H883 0.950 . S
H880 C876 0.950 . S
C881 C879 1.390 1_565 S
C881 C882 1.387 . S
C881 H884 0.950 . S
C882 C881 1.387 . S
C882 C885 1.387 . S
H883 C879 0.950 . S
H884 C881 0.950 . S
C885 C876 1.390 1_565 S
C885 H878 0.950 . S
C885 C882 1.387 . S
C886 C887 1.387 . S
C886 H890 0.950 . S
C886 C895 1.390 1_655 S
C887 C886 1.387 . S
C887 C889 1.387 . S
H888 C895 0.950 . S
C889 C887 1.387 . S
C889 C891 1.390 1_655 S
C889 H893 0.950 . S
H890 C886 0.950 . S
C891 C889 1.390 1_455 S
C891 C892 1.387 . S
C891 H894 0.950 . S
C892 C891 1.387 . S
C892 C895 1.387 . S
H893 C889 0.950 . S
H894 C891 0.950 . S
C895 C886 1.390 1_455 S
C895 H888 0.950 . S
C895 C892 1.387 . S
C577 C3 1.257 . S
C582 C398 1.249 . S
C587 C290 1.249 . S
C592 C39 1.254 . S
C597 C326 1.247 . S
C602 C75 1.254 . S
C607 C362 1.247 . S
C612 C111 1.256 . S
C617 C182 1.250 1_545 S
C622 C147 1.256 1_554 S
C627 C183 1.256 1_556 S
C632 C218 1.247 1_455 S
C637 C219 1.254 1_554 S
C642 C254 1.250 1_565 S
C647 C255 1.254 1_556 S
C652 C146 1.249 1_655 S
C657 C291 1.257 . S
C662 C110 1.249 1_565 S
C667 C2 1.247 1_655 S
C672 C327 1.256 . S
C677 C38 1.250 1_545 S
C682 C363 1.255 . S
C687 C74 1.248 1_455 S
C692 C399 1.256 . S
C697 C470 1.249 . S
C702 C435 1.257 . S
C707 C471 1.254 . S
C712 C506 1.249 . S
C717 C542 1.247 . S
C722 C507 1.255 . S
C727 C434 1.249 . S
C732 C543 1.254 . S
C737 C518 1.629 . S
C742 C14 1.629 . S
C747 C554 1.629 . S
C752 C50 1.629 . S
C757 C446 1.629 . S
C762 C86 1.629 . S
C767 C122 1.629 . S
C772 C482 1.629 . S
C777 C158 1.629 . S
C782 C374 1.629 . S
C787 C410 1.629 . S
C792 C194 1.629 . S
C797 C230 1.629 . S
C802 C302 1.629 . S
C807 C266 1.629 . S
C812 C338 1.629 . S
C817 C76 1.389 . S
C822 C4 1.389 . S
C827 C112 1.384 . S
C832 C40 1.384 . S
C837 C148 1.389 . S
C842 C220 1.389 . S
C847 C184 1.384 . S
C852 C256 1.384 . S
C857 C364 1.384 . S
C862 C292 1.384 . S
C867 C328 1.389 . S
C872 C400 1.389 . S
C877 C508 1.389 . S
C882 C436 1.389 . S
C887 C472 1.389 . S
C892 C544 1.389 . S
