# Generated by pormake.
# Topology wkw, (8)-cn, num edge types: 1
# Building blocks:
#     Node 0, Type 0, BuildingBlock: TAGTUT_clean_sbu_1, # of connection points: 8
#     Node 1, Type 0, BuildingBlock: TAGTUT_clean_sbu_1, # of connection points: 8
#     Node 2, Type 0, BuildingBlock: TAGTUT_clean_sbu_1, # of connection points: 8
#     Node 3, Type 0, BuildingBlock: TAGTUT_clean_sbu_1, # of connection points: 8
#     Node 4, Type 0, BuildingBlock: TAGTUT_clean_sbu_1, # of connection points: 8
#     Node 5, Type 0, BuildingBlock: TAGTUT_clean_sbu_1, # of connection points: 8
#     Edge 6, Type (0, 0), BuildingBlock: EZIPEK_clean_linker_0, # of connection points: 2
#     Edge 7, Type (0, 0), BuildingBlock: EZIPEK_clean_linker_0, # of connection points: 2
#     Edge 8, Type (0, 0), BuildingBlock: EZIPEK_clean_linker_0, # of connection points: 2
#     Edge 9, Type (0, 0), BuildingBlock: EZIPEK_clean_linker_0, # of connection points: 2
#     Edge 10, Type (0, 0), BuildingBlock: EZIPEK_clean_linker_0, # of connection points: 2
#     Edge 11, Type (0, 0), BuildingBlock: EZIPEK_clean_linker_0, # of connection points: 2
#     Edge 12, Type (0, 0), BuildingBlock: EZIPEK_clean_linker_0, # of connection points: 2
#     Edge 13, Type (0, 0), BuildingBlock: EZIPEK_clean_linker_0, # of connection points: 2
#     Edge 14, Type (0, 0), BuildingBlock: EZIPEK_clean_linker_0, # of connection points: 2
#     Edge 15, Type (0, 0), BuildingBlock: EZIPEK_clean_linker_0, # of connection points: 2
#     Edge 16, Type (0, 0), BuildingBlock: EZIPEK_clean_linker_0, # of connection points: 2
#     Edge 17, Type (0, 0), BuildingBlock: EZIPEK_clean_linker_0, # of connection points: 2
#     Edge 18, Type (0, 0), BuildingBlock: EZIPEK_clean_linker_0, # of connection points: 2
#     Edge 19, Type (0, 0), BuildingBlock: EZIPEK_clean_linker_0, # of connection points: 2
#     Edge 20, Type (0, 0), BuildingBlock: EZIPEK_clean_linker_0, # of connection points: 2
#     Edge 21, Type (0, 0), BuildingBlock: EZIPEK_clean_linker_0, # of connection points: 2
#     Edge 22, Type (0, 0), BuildingBlock: EZIPEK_clean_linker_0, # of connection points: 2
#     Edge 23, Type (0, 0), BuildingBlock: EZIPEK_clean_linker_0, # of connection points: 2
#     Edge 24, Type (0, 0), BuildingBlock: EZIPEK_clean_linker_0, # of connection points: 2
#     Edge 25, Type (0, 0), BuildingBlock: EZIPEK_clean_linker_0, # of connection points: 2
#     Edge 26, Type (0, 0), BuildingBlock: EZIPEK_clean_linker_0, # of connection points: 2
#     Edge 27, Type (0, 0), BuildingBlock: EZIPEK_clean_linker_0, # of connection points: 2
#     Edge 28, Type (0, 0), BuildingBlock: EZIPEK_clean_linker_0, # of connection points: 2
#     Edge 29, Type (0, 0), BuildingBlock: EZIPEK_clean_linker_0, # of connection points: 2
# Relax obj value: 0.242
# Max RMSD: 0.275
# Mean RMSD: 0.275
data_MOF--net-wkw--node1-TAGTUT_clean_sbu_1--edge1-EZIPEK_clean_linker_0
_symmetry_space_group_name_H-M    P1
_symmetry_Int_Tables_number       1
_symmetry_cell_setting            triclinic
loop_
_symmetry_equiv_pos_as_xyz
'x, y, z'
_cell_length_a     29.613394
_cell_length_b     29.652744
_cell_length_c     15.055487
_cell_angle_alpha  90.251072
_cell_angle_beta   90.048335
_cell_angle_gamma 119.82845
loop_
_atom_site_label
_atom_site_type_symbol
_atom_site_fract_x
_atom_site_fract_y
_atom_site_fract_z
_atom_type_partial_charge
C0 C 0.7276 0.18302 0.78563 0.0
C1 C 0.86205 0.29594 0.65782 0.0
C2 C 0.97317 0.26993 0.94315 0.0
Mg3 Mg 0.80256 0.29485 0.82747 0.0
O4 O 0.83262 0.26329 0.89108 0.0
Mg5 Mg 0.85518 0.21963 0.82686 0.0
Mg6 Mg 0.89088 0.30484 0.96989 0.0
O7 O 0.95017 0.34755 0.05407 0.0
Mg8 Mg 0.97803 0.31549 0.12782 0.0
Mg9 Mg 0.92181 0.3887 0.11385 0.0
C10 C 0.82354 0.36301 0.00282 0.0
C11 C 0.93808 0.42626 0.90982 0.0
O12 O 0.76556 0.1732 0.77904 0.0
O13 O 0.73391 0.22695 0.81018 0.0
O14 O 0.87385 0.26544 0.6979 0.0
O15 O 0.83626 0.31448 0.69555 0.0
O16 O 0.8048 0.34991 0.92447 0.0
O17 O 0.84447 0.33896 0.04107 0.0
C18 C 0.83555 0.18029 0.02801 0.0
O19 O 0.85477 0.2271 0.05851 0.0
O20 O 0.83424 0.17112 0.94564 0.0
O21 O 1.00229 0.43477 0.16919 0.0
O22 O 0.04555 0.39001 0.16721 0.0
O23 O 0.90088 0.34221 0.24253 0.0
C24 C 0.04338 0.43171 0.18206 0.0
O25 O 0.93042 0.28641 0.24542 0.0
O26 O 0.9606 0.25679 0.02392 0.0
C27 C 0.90704 0.30782 0.28222 0.0
O28 O 0.94145 0.27605 0.89184 0.0
O29 O 0.92168 0.37966 0.88162 0.0
O30 O 0.94247 0.43668 -0.0075 0.0
C31 C 0.54739 0.72555 0.91007 0.0
C32 C 0.57586 0.86479 0.81079 0.0
C33 C 0.7158 0.96349 0.09735 0.0
Mg34 Mg 0.51893 0.80447 -0.02507 0.0
O35 O 0.57991 0.82525 0.03938 0.0
Mg36 Mg 0.64465 0.84651 -0.02753 0.0
Mg37 Mg 0.59975 0.88392 0.11944 0.0
O38 O 0.61787 0.94276 0.20749 0.0
Mg39 Mg 0.67731 0.97004 0.2825 0.0
Mg40 Mg 0.54803 0.91409 0.26584 0.0
C41 C 0.47384 0.81962 0.15047 0.0
C42 C 0.53283 0.94083 0.06414 0.0
O43 O 0.59702 0.75811 0.9159 0.0
O44 O 0.51262 0.73653 0.9323 0.0
O45 O 0.61593 0.86727 0.8471 0.0
O46 O 0.53326 0.8481 0.85328 0.0
O47 O 0.46411 0.79584 0.07603 0.0
O48 O 0.51925 0.83936 0.18693 0.0
C49 C 0.66713 0.82491 0.17268 0.0
O50 O 0.64071 0.84524 0.20448 0.0
O51 O 0.6731 0.82256 0.08966 0.0
O52 O 0.58192 0.99083 0.32938 0.0
O53 O 0.66962 0.03642 0.32824 0.0
O54 O 0.57101 0.88735 0.39304 0.0
C55 C 0.62499 0.03184 0.34577 0.0
O56 O 0.65679 0.92213 0.39866 0.0
O57 O 0.71421 0.94834 0.17696 0.0
C58 C 0.61221 0.89536 0.43391 0.0
O59 O 0.67924 0.93344 0.04212 0.0
O60 O 0.55782 0.9186 0.03533 0.0
O61 O 0.52589 0.94289 0.14702 0.0
C62 C 0.84516 0.54146 0.12324 0.0
C63 C 0.73407 0.56882 -0.00276 0.0
C64 C 0.76535 0.70776 0.28035 0.0
Mg65 Mg 0.73239 0.50874 0.16385 0.0
O66 O 0.76766 0.57008 0.22957 0.0
Mg67 Mg 0.8143 0.63593 0.16753 0.0
Mg68 Mg 0.72774 0.58984 0.30668 0.0
O69 O 0.68678 0.60862 0.39119 0.0
Mg70 Mg 0.71854 0.66762 0.46657 0.0
Mg71 Mg 0.64309 0.53901 0.44684 0.0
C72 C 0.66253 0.46422 0.33228 0.0
C73 C 0.60633 0.52826 0.24199 0.0
O74 O 0.85868 0.59029 0.12198 0.0
O75 O 0.7991 0.50534 0.14065 0.0
O76 O 0.76968 0.6089 0.03675 0.0
O77 O 0.70888 0.52515 0.03675 0.0
O78 O 0.67777 0.4544 0.25898 0.0
O79 O 0.68911 0.50867 0.37151 0.0
C80 C 0.85174 0.65471 0.37035 0.0
O81 O 0.80451 0.62795 0.39862 0.0
O82 O 0.86189 0.66248 0.2884 0.0
O83 O 0.5999 0.57447 0.50562 0.0
O84 O 0.6441 0.66206 0.50549 0.0
O85 O 0.69012 0.56 0.57675 0.0
C86 C 0.60263 0.61819 0.51957 0.0
O87 O 0.74527 0.64548 0.58396 0.0
O88 O 0.77732 0.70918 0.36244 0.0
C89 C 0.72415 0.60025 0.61844 0.0
O90 O 0.75965 0.66937 0.23046 0.0
O91 O 0.65391 0.55124 0.21638 0.0
O92 O 0.59559 0.52016 0.32413 0.0
C93 C 0.30698 0.82556 0.28237 0.0
C94 C 0.16888 0.71693 0.1632 0.0
C95 C 0.06803 0.75312 0.44991 0.0
Mg96 Mg 0.22635 0.7144 0.32793 0.0
O97 O 0.20635 0.75385 0.39674 0.0
Mg98 Mg 0.18462 0.79854 0.33329 0.0
Mg99 Mg 0.1481 0.71482 0.47559 0.0
O100 O 0.08852 0.67468 0.55885 0.0
Mg101 Mg 0.0669 0.71189 0.63399 0.0
Mg102 Mg 0.11473 0.63182 0.61765 0.0
C103 C 0.21064 0.65061 0.50453 0.0
C104 C 0.09327 0.59294 0.41309 0.0
O105 O 0.27271 0.84054 0.28482 0.0
O106 O 0.29685 0.77935 0.29951 0.0
O107 O 0.16509 0.75281 0.20328 0.0
O108 O 0.18642 0.69074 0.20218 0.0
O109 O 0.22374 0.65923 0.42271 0.0
O110 O 0.19227 0.67686 0.54429 0.0
C111 C 0.20651 0.83977 0.53471 0.0
O112 O 0.18674 0.79306 0.56506 0.0
O113 O 0.20759 0.84836 0.45228 0.0
O114 O 0.03621 0.59087 0.67669 0.0
O115 O 0.9995 0.6417 0.68551 0.0
O116 O 0.13932 0.68019 0.74705 0.0
C117 C 0.99866 0.59833 0.69739 0.0
O118 O 0.11969 0.74315 0.74424 0.0
O119 O 0.08271 0.76869 0.52924 0.0
C120 C 0.1384 0.71847 0.78427 0.0
O121 O 0.09848 0.74534 0.39805 0.0
O122 O 0.1152 0.64042 0.38769 0.0
O123 O 0.0889 0.58238 0.49549 0.0
C124 C 0.48742 0.30143 0.44954 0.0
C125 C 0.4617 0.16491 0.32154 0.0
C126 C 0.32415 0.05747 0.60883 0.0
Mg127 Mg 0.52211 0.22344 0.48991 0.0
O128 O 0.46023 0.19554 0.55397 0.0
Mg129 Mg 0.3939 0.17582 0.49205 0.0
Mg130 Mg 0.44108 0.13635 0.63039 0.0
O131 O 0.42257 0.07657 0.71444 0.0
Mg132 Mg 0.36488 0.05374 0.79247 0.0
Mg133 Mg 0.49285 0.10317 0.77047 0.0
C134 C 0.56713 0.19738 0.65807 0.0
C135 C 0.50577 0.07883 0.56548 0.0
O136 O 0.43891 0.26535 0.44707 0.0
O137 O 0.52443 0.29297 0.46896 0.0
O138 O 0.42057 0.15739 0.36143 0.0
O139 O 0.50612 0.18646 0.36013 0.0
O140 O 0.57677 0.22249 0.5852 0.0
O141 O 0.52246 0.17917 0.6962 0.0
C142 C 0.37617 0.19613 0.69462 0.0
O143 O 0.40322 0.17573 0.72268 0.0
O144 O 0.3676 0.19773 0.61269 0.0
O145 O 0.45759 0.02565 0.82944 0.0
O146 O 0.37009 0.98557 0.83685 0.0
O147 O 0.47237 0.12895 0.90119 0.0
C148 C 0.41364 0.98633 0.84771 0.0
O149 O 0.38858 0.10607 0.90494 0.0
O150 O 0.32527 0.07288 0.68839 0.0
C151 C 0.43336 0.12655 0.94138 0.0
O152 O 0.36027 0.08803 0.55405 0.0
O153 O 0.48143 0.10229 0.54017 0.0
O154 O 0.51288 0.07504 0.64781 0.0
C155 C 0.17328 0.45631 0.63441 0.0
C156 C 0.28344 0.45232 0.47661 0.0
C157 C 0.27937 0.31612 0.77425 0.0
Mg158 Mg 0.27841 0.50655 0.65783 0.0
O159 O 0.27553 0.44654 0.69792 0.0
Mg160 Mg 0.22651 0.37913 0.6458 0.0
Mg161 Mg 0.31279 0.43267 0.78613 0.0
O162 O 0.35339 0.41938 0.87956 0.0
Mg163 Mg 0.3235 0.36227 0.95869 0.0
Mg164 Mg 0.39175 0.49092 0.93012 0.0
C165 C 0.36527 0.55787 0.80354 0.0
C166 C 0.43526 0.50099 0.73027 0.0
O167 O 0.17695 0.41924 0.59582 0.0
O168 O 0.20176 0.47828 0.70137 0.0
O169 O 0.27345 0.4106 0.51809 0.0
O170 O 0.28407 0.49137 0.5156 0.0
O171 O 0.34359 0.565 0.73554 0.0
O172 O 0.34315 0.51441 0.84538 0.0
C173 C 0.1879 0.36527 0.84665 0.0
O174 O 0.23484 0.39539 0.87389 0.0
O175 O 0.17798 0.35305 0.76561 0.0
O176 O 0.43723 0.46061 0.00126 0.0
O177 O 0.39896 0.37303 -0.00101 0.0
O178 O 0.33954 0.47201 0.05211 0.0
C179 C 0.43741 0.41841 0.01715 0.0
O180 O 0.29838 0.38654 0.07586 0.0
O181 O 0.26574 0.31929 0.85351 0.0
C182 C 0.31131 0.43271 0.10036 0.0
O183 O 0.28443 0.35069 0.71627 0.0
O184 O 0.38847 0.47292 0.702 0.0
O185 O 0.4438 0.51077 0.81283 0.0
C186 C 0.9344 0.31465 0.44247 0.0
C187 C 0.89389 0.29996 0.37833 0.0
C188 C 0.8318 0.28493 0.49848 0.0
C189 C 0.8733 0.30354 0.56135 0.0
N190 N 0.9651 0.34604 0.59184 0.0
N191 N 0.80501 0.27545 0.34391 0.0
C192 C 0.92483 0.32105 0.53282 0.0
C193 C 0.84296 0.28679 0.40609 0.0
N194 N 0.98222 0.32254 0.41802 0.0
N195 N 0.78138 0.26259 0.52691 0.0
H196 H 0.80985 0.27059 0.27657 0.0
H197 H 0.76952 0.27311 0.35818 0.0
H198 H 0.77077 0.25923 0.59347 0.0
H199 H 0.74933 0.24373 0.48491 0.0
H200 H 1.00988 0.32521 0.46371 0.0
H201 H 0.9937 0.32296 0.35273 0.0
H202 H 1.00418 0.36451 0.57381 0.0
H203 H 0.95949 0.35291 0.65788 0.0
C204 C 0.56125 0.83806 0.56128 0.0
C205 C 0.60742 0.88218 0.53093 0.0
C206 C 0.62495 0.91881 0.6819 0.0
C207 C 0.57935 0.87476 0.71323 0.0
N208 N 0.50006 0.794 0.68065 0.0
N209 N 0.69307 0.95257 0.57274 0.0
C210 C 0.54615 0.8348 0.65232 0.0
C211 C 0.64218 0.91931 0.59384 0.0
N212 N 0.53436 0.7974 0.50372 0.0
N213 N 0.65175 0.9608 0.73678 0.0
H214 H 0.71072 0.94922 0.51548 0.0
H215 H 0.72048 0.97783 0.6185 0.0
H216 H 0.64007 0.96182 0.80173 0.0
H217 H 0.68203 0.9964 0.71522 0.0
H218 H 0.50273 0.76176 0.52107 0.0
H219 H 0.54725 0.7974 0.4392 0.0
H220 H 0.47137 0.76727 0.63833 0.0
H221 H 0.48805 0.78771 0.74638 0.0
C222 C 0.73538 0.54262 0.83747 0.0
C223 C 0.72688 0.57375 0.90037 0.0
C224 C 0.71789 0.62342 0.77789 0.0
C225 C 0.73012 0.59476 0.71555 0.0
N226 N 0.75965 0.53384 0.687 0.0
N227 N 0.71507 0.6472 0.93122 0.0
C228 C 0.74094 0.55592 0.74568 0.0
C229 C 0.72011 0.61543 0.8706 0.0
N230 N 0.73887 0.50057 0.86473 0.0
N231 N 0.70084 0.65606 0.74893 0.0
H232 H 0.70959 0.63916 -0.0011 0.0
H233 H 0.719 0.68312 0.91555 0.0
H234 H 0.6947 0.66095 0.68255 0.0
H235 H 0.6884 0.67556 0.79092 0.0
H236 H 0.73562 0.47174 0.82109 0.0
H237 H 0.74187 0.49227 0.93079 0.0
H238 H 0.77406 0.50964 0.7059 0.0
H239 H 0.76569 0.54382 0.61994 0.0
C240 C 0.20212 0.72241 0.00664 0.0
C241 C 0.16067 0.71315 0.06545 0.0
C242 C 0.11406 0.72608 0.94261 0.0
C243 C 0.15136 0.72737 0.88107 0.0
N244 N 0.23149 0.72701 0.85486 0.0
N245 N 0.07296 0.69607 0.08566 0.0
C246 C 0.19537 0.7252 0.91343 0.0
C247 C 0.11544 0.71192 0.03204 0.0
N248 N 0.24921 0.73204 0.03955 0.0
N249 N 0.0779 0.73955 0.91793 0.0
H250 H 0.0723 0.68497 0.15149 0.0
H251 H 0.03674 0.68863 0.06232 0.0
H252 H 0.07504 0.75232 0.85531 0.0
H253 H 0.05396 0.74412 0.96342 0.0
H254 H 0.28224 0.74414 0.00059 0.0
H255 H 0.25741 0.73274 0.10689 0.0
H256 H 0.25982 0.71747 0.87176 0.0
H257 H 0.23206 0.73656 0.78809 0.0
C258 C 0.47881 0.18677 0.07057 0.0
C259 C 0.43873 0.13801 0.03856 0.0
C260 C 0.41963 0.10509 0.19194 0.0
C261 C 0.45744 0.15471 0.2242 0.0
N262 N 0.51571 0.24601 0.19534 0.0
N263 N 0.36663 0.05184 0.0705 0.0
C264 C 0.48549 0.19639 0.16386 0.0
C265 C 0.40776 0.09766 0.0997 0.0
N266 N 0.51021 0.22432 0.01167 0.0
N267 N 0.39634 0.06414 0.24932 0.0
H268 H 0.35963 0.04006 0.00446 0.0
H269 H 0.33751 0.02559 0.11239 0.0
H270 H 0.40202 0.06798 0.31779 0.0
H271 H 0.37445 0.02552 0.22891 0.0
H272 H 0.54467 0.25754 0.0299 0.0
H273 H 0.50316 0.22123 0.94341 0.0
H274 H 0.53246 0.2787 0.15492 0.0
H275 H 0.52059 0.2557 0.26258 0.0
C276 C 0.34358 0.47994 0.24694 0.0
C277 C 0.30174 0.44211 0.19399 0.0
C278 C 0.24658 0.41255 0.32641 0.0
C279 C 0.28793 0.45206 0.37808 0.0
N280 N 0.36901 0.53361 0.37887 0.0
N281 N 0.20979 0.38269 0.17921 0.0
C282 C 0.33386 0.48945 0.33536 0.0
C283 C 0.25207 0.41141 0.23255 0.0
N284 N 0.39372 0.50364 0.21664 0.0
N285 N 0.20195 0.37601 0.36654 0.0
H286 H 0.21234 0.38244 0.1101 0.0
H287 H 0.17164 0.36362 0.20242 0.0
H288 H 0.19396 0.37729 0.43355 0.0
H289 H 0.17371 0.3428 0.33398 0.0
H290 H 0.42557 0.52857 0.25579 0.0
H291 H 0.40478 0.49391 0.1572 0.0
H292 H 0.39853 0.56525 0.34539 0.0
H293 H 0.3663 0.54073 0.44588 0.0
C294 C 0.60613 0.16784 0.77955 0.0
C295 C 0.60416 0.17917 0.68806 0.0
C296 C 0.67152 0.15455 0.65769 0.0
C297 C 0.67534 0.1487 0.74923 0.0
N298 N 0.63062 0.12283 0.88706 0.0
N299 N 0.63078 0.17401 0.53595 0.0
C300 C 0.63529 0.1439 0.80508 0.0
C301 C 0.63523 0.16922 0.62535 0.0
N302 N 0.58545 0.18503 0.84341 0.0
N303 N 0.70439 0.14746 0.6033 0.0
H304 H 0.59943 0.17427 0.5058 0.0
H305 H 0.65619 0.1738 0.48877 0.0
H306 H 0.7291 0.13491 0.62858 0.0
H307 H 0.70631 0.15144 0.53471 0.0
H308 H 0.58947 0.18077 0.91116 0.0
H309 H 0.57 0.20907 0.82976 0.0
H310 H 0.60029 0.11565 0.9303 0.0
H311 H 0.65493 0.10845 0.9067 0.0
C312 C 0.5067 0.66984 0.78206 0.0
C313 C 0.52455 0.67347 0.87031 0.0
C314 C 0.43967 0.60322 0.91418 0.0
C315 C 0.42075 0.59771 0.82551 0.0
N316 N 0.44465 0.61684 0.66937 0.0
N317 N 0.5156 0.63038 0.00812 0.0
C318 C 0.45679 0.62813 0.75725 0.0
C319 C 0.49391 0.63375 0.93042 0.0
N320 N 0.53629 0.70861 0.7239 0.0
N321 N 0.40605 0.58409 -0.01601 0.0
H322 H 0.55513 0.65513 0.02147 0.0
H323 H 0.4955 0.60051 0.05358 0.0
H324 H 0.36586 0.56719 -0.0236 0.0
H325 H 0.41851 0.59054 0.04999 0.0
H326 H 0.52328 0.71229 0.66152 0.0
H327 H 0.57361 0.73834 0.74077 0.0
H328 H 0.47039 0.63723 0.61836 0.0
H329 H 0.41235 0.58298 0.64659 0.0
C330 C 0.85407 0.43194 0.12482 0.0
C331 C 0.83607 0.41637 0.03597 0.0
C332 C 0.86865 0.50862 -0.00074 0.0
C333 C 0.8784 0.5215 0.08933 0.0
N334 N 0.90488 0.50359 0.22743 0.0
N335 N 0.8108 0.44154 0.89855 0.0
C336 C 0.88096 0.4858 0.14737 0.0
C337 C 0.83984 0.45522 -0.02532 0.0
N338 N 0.84024 0.39535 0.18959 0.0
N339 N 0.88023 0.54764 0.94037 0.0
H340 H 0.77739 0.40552 0.89014 0.0
H341 H 0.81377 0.46798 0.85059 0.0
H342 H 0.899 0.58644 0.96139 0.0
H343 H 0.87557 0.54219 0.87194 0.0
H344 H 0.84901 0.40447 0.25657 0.0
H345 H 0.81472 0.35595 0.17773 0.0
H346 H 0.91147 0.48071 0.27211 0.0
H347 H 0.92192 0.54298 0.2442 0.0
C348 C 0.40283 0.84309 0.12065 0.0
C349 C 0.43546 0.83519 0.18269 0.0
C350 C 0.39945 0.86398 0.3022 0.0
C351 C 0.35906 0.85777 0.24547 0.0
N352 N 0.32458 0.84985 0.09978 0.0
N353 N 0.45561 0.82942 0.33719 0.0
C354 C 0.36241 0.85122 0.15374 0.0
C355 C 0.43223 0.84442 0.27483 0.0
N356 N 0.41032 0.84342 0.0309 0.0
N357 N 0.40214 0.8832 0.38561 0.0
H358 H 0.47444 0.80866 0.32174 0.0
H359 H 0.45089 0.83202 0.40526 0.0
H360 H 0.37591 0.89505 0.40621 0.0
H361 H 0.43267 0.89169 0.42942 0.0
H362 H 0.38656 0.84645 -0.0166 0.0
H363 H 0.44373 0.84724 0.00159 0.0
H364 H 0.31982 0.83983 0.03283 0.0
H365 H 0.29685 0.85873 0.12384 0.0
C366 C 0.54048 0.39301 0.47669 0.0
C367 C 0.50599 0.35449 0.41753 0.0
C368 C 0.56673 0.3987 0.29612 0.0
C369 C 0.60728 0.42767 0.36077 0.0
N370 N 0.63099 0.444 0.51696 0.0
N371 N 0.47785 0.3274 0.26949 0.0
C372 C 0.59353 0.42362 0.45238 0.0
C373 C 0.51625 0.36059 0.32612 0.0
N374 N 0.52335 0.39514 0.55969 0.0
N375 N 0.57576 0.40747 0.20704 0.0
H376 H 0.4406 0.30144 0.29282 0.0
H377 H 0.48186 0.32495 0.20138 0.0
H378 H 0.60819 0.4392 0.18016 0.0
H379 H 0.54881 0.38656 0.15764 0.0
H380 H 0.54571 0.4243 0.60555 0.0
H381 H 0.48473 0.36998 0.57791 0.0
H382 H 0.6225 0.43854 0.58453 0.0
H383 H 0.67063 0.46098 0.50375 0.0
C384 C 0.17601 0.57939 0.62259 0.0
C385 C 0.20219 0.59939 0.5411 0.0
C386 C 0.18713 0.51201 0.50259 0.0
C387 C 0.16124 0.49245 0.58403 0.0
N388 N 0.11571 0.5033 0.70623 0.0
N389 N 0.25397 0.58758 0.42874 0.0
C390 C 0.14968 0.52485 0.6375 0.0
C391 C 0.21338 0.56643 0.48712 0.0
N392 N 0.18298 0.61264 0.69082 0.0
N393 N 0.18684 0.47866 0.43983 0.0
H394 H 0.28069 0.62732 0.42747 0.0
H395 H 0.2663 0.56552 0.39295 0.0
H396 H 0.16575 0.43855 0.44825 0.0
H397 H 0.2015 0.49037 0.37597 0.0
H398 H 0.16863 0.60011 0.75457 0.0
H399 H 0.20882 0.65249 0.68624 0.0
H400 H 0.10279 0.52408 0.74438 0.0
H401 H 0.09707 0.46336 0.71835 0.0
C402 C 0.83287 0.10201 0.09199 0.0
C403 C 0.8085 0.13243 0.08276 0.0
C404 C 0.72267 0.05286 0.07975 0.0
C405 C 0.74692 0.02165 0.08564 0.0
N406 N 0.82524 0.01734 0.11228 0.0
N407 N 0.73149 0.13894 0.09299 0.0
C408 C 0.80209 0.04666 0.09713 0.0
C409 C 0.75365 0.10822 0.08581 0.0
N410 N 0.88597 0.12649 0.09093 0.0
N411 N 0.67036 0.03001 0.06556 0.0
H412 H 0.75408 0.17938 0.09752 0.0
H413 H 0.69194 0.12479 0.10303 0.0
H414 H 0.64655 0.99018 0.06029 0.0
H415 H 0.65097 0.05037 0.05187 0.0
H416 H 0.90739 0.10751 0.0848 0.0
H417 H 0.9086 0.1669 0.09427 0.0
H418 H 0.86383 0.0328 0.13218 0.0
H419 H 0.80533 0.97685 0.1084 0.0
C420 C 0.74496 0.82385 0.23645 0.0
C421 C 0.68997 0.79955 0.22821 0.0
C422 C 0.68346 0.71426 0.24883 0.0
C423 C 0.73876 0.7384 0.25741 0.0
N424 N 0.82104 0.8176 0.27651 0.0
N425 N 0.60643 0.72396 0.24847 0.0
C426 C 0.76902 0.79368 0.25712 0.0
C427 C 0.65921 0.74546 0.24222 0.0
N428 N 0.77444 0.87583 0.22048 0.0
N429 N 0.65395 0.66152 0.24412 0.0
H430 H 0.58823 0.74629 0.2438 0.0
H431 H 0.58141 0.68562 0.26691 0.0
H432 H 0.66999 0.63767 0.24871 0.0
H433 H 0.6145 0.64156 0.22815 0.0
H434 H 0.81466 0.89521 0.21226 0.0
H435 H 0.75784 0.89927 0.21224 0.0
H436 H 0.84385 0.85734 0.28851 0.0
H437 H 0.84118 0.79743 0.2858 0.0
C438 C 0.97935 0.67008 0.42709 0.0
C439 C 1.00978 0.72538 0.43637 0.0
C440 C 0.92831 0.7295 0.44074 0.0
C441 C 0.89887 0.67509 0.4277 0.0
N442 N 0.89361 0.59224 0.43398 0.0
N443 N 1.01213 0.80685 0.46576 0.0
C444 C 0.92382 0.6451 0.43014 0.0
C445 C 0.98373 0.75465 0.44822 0.0
N446 N 1.00297 0.64129 0.41255 0.0
N447 N 0.90282 0.75723 0.44121 0.0
H448 H 0.05268 0.82804 0.46342 0.0
H449 H 0.99584 0.82923 0.48591 0.0
H450 H 0.86231 0.73875 0.44354 0.0
H451 H 0.92102 0.79755 0.43782 0.0
H452 H 0.98319 0.60203 0.39558 0.0
H453 H 0.04291 0.65725 0.41059 0.0
H454 H 0.90816 0.56707 0.44329 0.0
H455 H 0.85304 0.574 0.4364 0.0
C456 C 0.20918 0.91721 0.60531 0.0
C457 C 0.23432 0.88797 0.58977 0.0
C458 C 0.31898 0.96886 0.5843 0.0
C459 C 0.2939 0.99904 0.59634 0.0
N460 N 0.21512 1.00084 0.63185 0.0
N461 N 0.31268 0.88367 0.58995 0.0
C462 C 0.23899 0.97268 0.61174 0.0
C463 C 0.28923 0.91338 0.58842 0.0
N464 N 0.15614 0.89144 0.60987 0.0
N465 N 0.37083 0.99272 0.56602 0.0
H466 H 0.29102 0.84315 0.59303 0.0
H467 H 0.3526 0.89866 0.59695 0.0
H468 H 0.39389 0.03262 0.56279 0.0
H469 H 0.39035 0.97318 0.54713 0.0
H470 H 0.13353 0.9093 0.60841 0.0
H471 H 0.13477 0.85104 0.61415 0.0
H472 H 0.17701 0.98446 0.65442 0.0
H473 H 0.23395 0.04132 0.62918 0.0
C474 C 0.38706 0.27891 0.75304 0.0
C475 C 0.35686 0.22406 0.75199 0.0
C476 C 0.27786 0.23025 0.77748 0.0
C477 C 0.30694 0.28514 0.76376 0.0
N478 N 0.39058 0.362 0.73989 0.0
N479 N 0.27489 0.14667 0.77076 0.0
C480 C 0.36208 0.30963 0.75272 0.0
C481 C 0.30274 0.19968 0.76838 0.0
N482 N 0.44005 0.30127 0.75339 0.0
N483 N 0.22616 0.20718 0.79848 0.0
H484 H 0.29334 0.12454 0.77238 0.0
H485 H 0.23445 0.1248 0.76987 0.0
H486 H 0.2052 0.22689 0.79863 0.0
H487 H 0.20411 0.16889 0.81951 0.0
H488 H 0.46561 0.34091 0.76136 0.0
H489 H 0.45833 0.27888 0.75396 0.0
H490 H 0.42964 0.38164 0.72192 0.0
H491 H 0.3744 0.3859 0.74205 0.0
C492 C 0.0609 0.35196 0.91207 0.0
C493 C 0.03081 0.29701 0.92517 0.0
C494 C 0.11178 0.29218 0.92105 0.0
C495 C 0.14095 0.34618 0.90393 0.0
N496 N 0.14687 0.42956 0.90561 0.0
N497 N 0.02901 0.21618 0.95652 0.0
C498 C 0.11642 0.37665 0.90734 0.0
C499 C 0.0569 0.26773 0.93478 0.0
N500 N 0.03671 0.3806 0.90229 0.0
N501 N 0.13678 0.26398 0.91982 0.0
H502 H 0.98846 0.19526 0.95911 0.0
H503 H 0.04586 0.19419 -0.02436 0.0
H504 H 0.17723 0.28195 0.91811 0.0
H505 H 0.11813 0.22358 0.91882 0.0
H506 H 0.05543 0.41931 0.88271 0.0
H507 H 0.99691 0.36505 0.90857 0.0
H508 H 0.13303 0.45531 0.91516 0.0
H509 H 0.18741 0.44782 0.90275 0.0
C510 C 0.09638 0.52471 0.20041 0.0
C511 C 0.08375 0.47545 0.23338 0.0
C512 C 0.06983 0.49989 0.38044 0.0
C513 C 0.08138 0.54976 0.34825 0.0
N514 N 0.08291 0.598 0.21859 0.0
N515 N 0.07933 0.42408 0.3578 0.0
C516 C 0.08963 0.55985 0.25568 0.0
C517 C 0.0792 0.46676 0.32516 0.0
N518 N 0.111 0.53562 0.1138 0.0
N519 N 0.04312 0.48099 0.45797 0.0
H520 H 0.08651 0.39984 0.31683 0.0
H521 H 0.07809 0.41643 0.42549 0.0
H522 H 0.02429 0.49816 0.49017 0.0
H523 H 0.03141 0.44382 0.48146 0.0
H524 H 0.12448 0.57222 0.08594 0.0
H525 H 0.11381 0.50848 0.07303 0.0
H526 H 0.08356 0.60382 0.15033 0.0
H527 H 0.06878 0.61843 0.25464 0.0
C528 C 0.54437 0.08195 0.41284 0.0
C529 C 0.53547 0.06412 0.50196 0.0
C530 C 0.61022 0.05008 0.49335 0.0
C531 C 0.61868 0.06743 0.40488 0.0
N532 N 0.60371 0.1119 0.28713 0.0
N533 N 0.54514 1.00775 0.60641 0.0
C534 C 0.58939 0.08836 0.36788 0.0
C535 C 0.56451 0.04178 0.53715 0.0
N536 N 0.50688 0.08638 0.3679 0.0
N537 N 0.64419 0.03774 0.5325 0.0
H538 H 0.5075 0.99403 0.63045 0.0
H539 H 0.56276 0.98741 0.63078 0.0
H540 H 0.6774 0.04283 0.49948 0.0
H541 H 0.64238 0.02832 0.59947 0.0
H542 H 0.50922 0.09504 0.30055 0.0
H543 H 0.47008 0.0732 0.39472 0.0
H544 H 0.58668 0.13166 0.25802 0.0
H545 H 0.63618 0.1152 0.25386 0.0
C546 C 0.56202 0.6144 0.65769 0.0
C547 C 0.55692 0.61358 0.56553 0.0
C548 C 0.47163 0.53418 0.57522 0.0
C549 C 0.4798 0.53217 0.66824 0.0
N550 N 0.54578 0.55936 0.78374 0.0
N551 N 0.50281 0.58381 0.4376 0.0
C552 C 0.52863 0.56939 0.70606 0.0
C553 C 0.5092 0.57763 0.52549 0.0
N554 N 0.60119 0.65714 0.69788 0.0
N555 N 0.43158 0.49251 0.53329 0.0
H556 H 0.53135 0.61549 0.40238 0.0
H557 H 0.46948 0.55989 0.40132 0.0
H558 H 0.40999 0.45657 0.56397 0.0
H559 H 0.42406 0.49073 0.46555 0.0
H560 H 0.60428 0.66141 0.76678 0.0
H561 H 0.62631 0.69006 0.66134 0.0
H562 H 0.58241 0.58443 0.81065 0.0
H563 H 0.52719 0.52273 0.81314 0.0
C564 C 0.92763 0.50987 0.72486 0.0
C565 C 0.96258 0.55949 0.75921 0.0
C566 C 0.98614 0.5211 0.87908 0.0
C567 C 0.94872 0.47036 0.84978 0.0
N568 N 0.8725 0.41931 0.75721 0.0
N569 N 1.00805 0.61107 0.88605 0.0
C570 C 0.91598 0.46526 0.77601 0.0
C571 C 0.9846 0.56418 0.84375 0.0
N572 N 0.90718 0.50561 0.64199 0.0
N573 N 0.02515 0.52859 0.93634 0.0
H574 H 1.00733 0.64308 0.85907 0.0
H575 H 0.02239 0.61578 0.95071 0.0
H576 H 0.03129 0.49839 0.95625 0.0
H577 H 0.05505 0.56546 0.9545 0.0
H578 H 0.88622 0.47026 0.60843 0.0
H579 H 0.9137 0.53839 0.60611 0.0
H580 H 0.84529 0.41538 0.70938 0.0
H581 H 0.86062 0.3868 0.79618 0.0
C582 C 0.46572 0.96842 0.03988 0.0
C583 C 0.50175 0.95486 0.00291 0.0
C584 C 0.45353 0.93339 0.8625 0.0
C585 C 0.41854 0.94744 0.89988 0.0
N586 N 0.37934 0.95801 0.03054 0.0
N587 N 0.54165 0.94894 0.86775 0.0
C588 C 0.42025 0.957 -0.00852 0.0
C589 C 0.49874 0.94328 0.91092 0.0
N590 N 0.47759 0.99728 0.11618 0.0
N591 N 0.44512 0.91474 0.77765 0.0
H592 H 0.57762 0.96398 0.89954 0.0
H593 H 0.54337 0.94612 0.79898 0.0
H594 H 0.41273 0.90964 0.74154 0.0
H595 H 0.46729 0.90062 0.74733 0.0
H596 H 0.45397 1.0108 0.1426 0.0
H597 H 0.51461 0.01466 0.14481 0.0
H598 H 0.37665 0.96158 0.09897 0.0
H599 H 0.34579 0.9492 -0.00561 0.0
C600 C 0.47295 0.42884 0.16356 0.0
C601 C 0.4811 0.42569 0.0724 0.0
C602 C 0.57018 0.49853 0.08587 0.0
C603 C 0.56175 0.50213 0.17787 0.0
N604 N 0.49631 0.48737 0.28791 0.0
N605 N 0.5389 0.44791 0.94924 0.0
C606 C 0.5106 0.47172 0.21276 0.0
C607 C 0.53077 0.45711 0.03498 0.0
N608 N 0.42752 0.39238 0.20133 0.0
N609 N 0.61238 0.53799 0.04521 0.0
H610 H 0.50938 0.41784 0.912 0.0
H611 H 0.57519 0.46644 0.91862 0.0
H612 H 0.6368 0.57292 0.07769 0.0
H613 H 0.61863 0.53956 -0.023 0.0
H614 H 0.42069 0.39051 0.26948 0.0
H615 H 0.39937 0.36079 0.16498 0.0
H616 H 0.45875 0.46815 0.31374 0.0
H617 H 0.51974 0.52401 0.31605 0.0
loop_
_geom_bond_atom_site_label_1
_geom_bond_atom_site_label_2
_geom_bond_distance
_geom_bond_site_symmetry_2
_ccdc_geom_bond_type
C0 O12 1.241 . S
C0 O13 1.280 . S
C1 O14 1.277 . S
C1 O15 1.245 . S
C2 O26 1.247 1_556 S
C2 O28 1.289 . S
Mg3 O4 1.926 . S
Mg3 O13 1.984 . S
Mg3 O15 1.988 . S
Mg3 O16 2.061 . S
O4 Mg3 1.926 . S
O4 Mg5 1.986 . S
O4 Mg6 1.914 1_556 S
Mg5 O4 1.986 . S
Mg5 O12 2.042 . S
Mg5 O14 2.041 . S
Mg5 O20 2.038 . S
Mg5 O28 2.238 . S
Mg6 O4 1.914 1_554 S
Mg6 O7 1.920 . S
Mg6 O17 2.108 . S
Mg6 O19 2.081 . S
Mg6 O28 2.105 1_554 S
Mg6 O29 2.076 1_554 S
O7 Mg6 1.920 . S
O7 Mg8 1.926 . S
O7 Mg9 1.986 . S
Mg8 O7 1.926 . S
Mg8 O22 1.984 1_655 S
Mg8 O25 1.988 . S
Mg8 O26 2.061 . S
Mg9 O7 1.986 . S
Mg9 O17 2.238 . S
Mg9 O21 2.042 . S
Mg9 O23 2.041 . S
Mg9 O30 2.038 . S
C10 O16 1.247 1_554 S
C10 O17 1.289 . S
C11 O29 1.245 . S
C11 O30 1.274 1_556 S
O12 C0 1.241 . S
O12 Mg5 2.042 . S
O13 C0 1.280 . S
O13 Mg3 1.984 . S
O14 C1 1.277 . S
O14 Mg5 2.041 . S
O15 C1 1.245 . S
O15 Mg3 1.988 . S
O16 Mg3 2.061 . S
O16 C10 1.247 1_556 S
O17 Mg6 2.108 . S
O17 Mg9 2.238 . S
O17 C10 1.289 . S
C18 O19 1.245 . S
C18 O20 1.274 1_554 S
O19 Mg6 2.081 . S
O19 C18 1.245 . S
O20 Mg5 2.038 . S
O20 C18 1.274 1_556 S
O21 Mg9 2.042 . S
O21 C24 1.241 1_655 S
O22 Mg8 1.984 1_455 S
O22 C24 1.280 . S
O23 Mg9 2.041 . S
O23 C27 1.277 . S
C24 O21 1.241 1_455 S
C24 O22 1.280 . S
O25 Mg8 1.988 . S
O25 C27 1.245 . S
O26 C2 1.247 1_554 S
O26 Mg8 2.061 . S
C27 O23 1.277 . S
C27 O25 1.245 . S
O28 C2 1.289 . S
O28 Mg5 2.238 . S
O28 Mg6 2.105 1_556 S
O29 Mg6 2.076 1_556 S
O29 C11 1.245 . S
O30 Mg9 2.038 . S
O30 C11 1.274 1_554 S
C31 O43 1.241 . S
C31 O44 1.280 . S
C32 O45 1.277 . S
C32 O46 1.245 . S
C33 O57 1.247 . S
C33 O59 1.289 . S
Mg34 O35 1.926 1_556 S
Mg34 O44 1.984 . S
Mg34 O46 1.988 . S
Mg34 O47 2.061 1_556 S
O35 Mg34 1.926 1_554 S
O35 Mg36 1.986 . S
O35 Mg37 1.917 . S
Mg36 O35 1.986 . S
Mg36 O43 2.042 1_554 S
Mg36 O45 2.041 1_554 S
Mg36 O51 2.038 . S
Mg36 O59 2.238 . S
Mg37 O35 1.917 . S
Mg37 O38 1.917 . S
Mg37 O48 2.106 . S
Mg37 O50 2.079 . S
Mg37 O59 2.106 . S
Mg37 O60 2.079 . S
O38 Mg37 1.917 . S
O38 Mg39 1.926 . S
O38 Mg40 1.986 . S
Mg39 O38 1.926 . S
Mg39 O53 1.984 1_565 S
Mg39 O56 1.988 . S
Mg39 O57 2.061 . S
Mg40 O38 1.986 . S
Mg40 O48 2.238 . S
Mg40 O52 2.042 . S
Mg40 O54 2.041 . S
Mg40 O61 2.038 . S
C41 O47 1.247 . S
C41 O48 1.289 . S
C42 O60 1.245 . S
C42 O61 1.274 . S
O43 C31 1.241 . S
O43 Mg36 2.042 1_556 S
O44 C31 1.280 . S
O44 Mg34 1.984 . S
O45 C32 1.277 . S
O45 Mg36 2.041 1_556 S
O46 C32 1.245 . S
O46 Mg34 1.988 . S
O47 Mg34 2.061 1_554 S
O47 C41 1.247 . S
O48 Mg37 2.106 . S
O48 Mg40 2.238 . S
O48 C41 1.289 . S
C49 O50 1.245 . S
C49 O51 1.274 . S
O50 Mg37 2.079 . S
O50 C49 1.245 . S
O51 Mg36 2.038 . S
O51 C49 1.274 . S
O52 Mg40 2.042 . S
O52 C55 1.241 1_565 S
O53 Mg39 1.984 1_545 S
O53 C55 1.280 . S
O54 Mg40 2.041 . S
O54 C58 1.277 . S
C55 O52 1.241 1_545 S
C55 O53 1.280 . S
O56 Mg39 1.988 . S
O56 C58 1.245 . S
O57 C33 1.247 . S
O57 Mg39 2.061 . S
C58 O54 1.277 . S
C58 O56 1.245 . S
O59 C33 1.289 . S
O59 Mg36 2.238 . S
O59 Mg37 2.106 . S
O60 Mg37 2.079 . S
O60 C42 1.245 . S
O61 Mg40 2.038 . S
O61 C42 1.274 . S
C62 O74 1.241 . S
C62 O75 1.280 . S
C63 O76 1.277 . S
C63 O77 1.245 . S
C64 O88 1.247 . S
C64 O90 1.289 . S
Mg65 O66 1.926 . S
Mg65 O75 1.984 . S
Mg65 O77 1.988 . S
Mg65 O78 2.061 . S
O66 Mg65 1.926 . S
O66 Mg67 1.986 . S
O66 Mg68 1.917 . S
Mg67 O66 1.986 . S
Mg67 O74 2.042 . S
Mg67 O76 2.041 . S
Mg67 O82 2.038 . S
Mg67 O90 2.238 . S
Mg68 O66 1.917 . S
Mg68 O69 1.917 . S
Mg68 O79 2.106 . S
Mg68 O81 2.079 . S
Mg68 O90 2.106 . S
Mg68 O91 2.079 . S
O69 Mg68 1.917 . S
O69 Mg70 1.926 . S
O69 Mg71 1.986 . S
Mg70 O69 1.926 . S
Mg70 O84 1.984 . S
Mg70 O87 1.988 . S
Mg70 O88 2.061 . S
Mg71 O69 1.986 . S
Mg71 O79 2.238 . S
Mg71 O83 2.042 . S
Mg71 O85 2.041 . S
Mg71 O92 2.038 . S
C72 O78 1.247 . S
C72 O79 1.289 . S
C73 O91 1.245 . S
C73 O92 1.274 . S
O74 C62 1.241 . S
O74 Mg67 2.042 . S
O75 C62 1.280 . S
O75 Mg65 1.984 . S
O76 C63 1.277 . S
O76 Mg67 2.041 . S
O77 C63 1.245 . S
O77 Mg65 1.988 . S
O78 Mg65 2.061 . S
O78 C72 1.247 . S
O79 Mg68 2.106 . S
O79 Mg71 2.238 . S
O79 C72 1.289 . S
C80 O81 1.245 . S
C80 O82 1.274 . S
O81 Mg68 2.079 . S
O81 C80 1.245 . S
O82 Mg67 2.038 . S
O82 C80 1.274 . S
O83 Mg71 2.042 . S
O83 C86 1.241 . S
O84 Mg70 1.984 . S
O84 C86 1.280 . S
O85 Mg71 2.041 . S
O85 C89 1.277 . S
C86 O83 1.241 . S
C86 O84 1.280 . S
O87 Mg70 1.988 . S
O87 C89 1.245 . S
O88 C64 1.247 . S
O88 Mg70 2.061 . S
C89 O85 1.277 . S
C89 O87 1.245 . S
O90 C64 1.289 . S
O90 Mg67 2.238 . S
O90 Mg68 2.106 . S
O91 Mg68 2.079 . S
O91 C73 1.245 . S
O92 Mg71 2.038 . S
O92 C73 1.274 . S
C93 O105 1.241 . S
C93 O106 1.280 . S
C94 O107 1.277 . S
C94 O108 1.245 . S
C95 O119 1.247 . S
C95 O121 1.289 . S
Mg96 O97 1.926 . S
Mg96 O106 1.984 . S
Mg96 O108 1.988 . S
Mg96 O109 2.061 . S
O97 Mg96 1.926 . S
O97 Mg98 1.986 . S
O97 Mg99 1.917 . S
Mg98 O97 1.986 . S
Mg98 O105 2.042 . S
Mg98 O107 2.041 . S
Mg98 O113 2.038 . S
Mg98 O121 2.238 . S
Mg99 O97 1.917 . S
Mg99 O100 1.917 . S
Mg99 O110 2.106 . S
Mg99 O112 2.079 . S
Mg99 O121 2.106 . S
Mg99 O122 2.079 . S
O100 Mg99 1.917 . S
O100 Mg101 1.926 . S
O100 Mg102 1.986 . S
Mg101 O100 1.926 . S
Mg101 O115 1.984 1_455 S
Mg101 O118 1.988 . S
Mg101 O119 2.061 . S
Mg102 O100 1.986 . S
Mg102 O110 2.238 . S
Mg102 O114 2.042 . S
Mg102 O116 2.041 . S
Mg102 O123 2.038 . S
C103 O109 1.247 . S
C103 O110 1.289 . S
C104 O122 1.245 . S
C104 O123 1.274 . S
O105 C93 1.241 . S
O105 Mg98 2.042 . S
O106 C93 1.280 . S
O106 Mg96 1.984 . S
O107 C94 1.277 . S
O107 Mg98 2.041 . S
O108 C94 1.245 . S
O108 Mg96 1.988 . S
O109 Mg96 2.061 . S
O109 C103 1.247 . S
O110 Mg99 2.106 . S
O110 Mg102 2.238 . S
O110 C103 1.289 . S
C111 O112 1.245 . S
C111 O113 1.274 . S
O112 Mg99 2.079 . S
O112 C111 1.245 . S
O113 Mg98 2.038 . S
O113 C111 1.274 . S
O114 Mg102 2.042 . S
O114 C117 1.241 1_455 S
O115 Mg101 1.984 1_655 S
O115 C117 1.280 . S
O116 Mg102 2.041 . S
O116 C120 1.277 . S
C117 O114 1.241 1_655 S
C117 O115 1.280 . S
O118 Mg101 1.988 . S
O118 C120 1.245 . S
O119 C95 1.247 . S
O119 Mg101 2.061 . S
C120 O116 1.277 . S
C120 O118 1.245 . S
O121 C95 1.289 . S
O121 Mg98 2.238 . S
O121 Mg99 2.106 . S
O122 Mg99 2.079 . S
O122 C104 1.245 . S
O123 Mg102 2.038 . S
O123 C104 1.274 . S
C124 O136 1.241 . S
C124 O137 1.280 . S
C125 O138 1.277 . S
C125 O139 1.245 . S
C126 O150 1.247 . S
C126 O152 1.289 . S
Mg127 O128 1.926 . S
Mg127 O137 1.984 . S
Mg127 O139 1.988 . S
Mg127 O140 2.061 . S
O128 Mg127 1.926 . S
O128 Mg129 1.986 . S
O128 Mg130 1.917 . S
Mg129 O128 1.986 . S
Mg129 O136 2.042 . S
Mg129 O138 2.041 . S
Mg129 O144 2.038 . S
Mg129 O152 2.238 . S
Mg130 O128 1.917 . S
Mg130 O131 1.917 . S
Mg130 O141 2.106 . S
Mg130 O143 2.079 . S
Mg130 O152 2.106 . S
Mg130 O153 2.079 . S
O131 Mg130 1.917 . S
O131 Mg132 1.926 . S
O131 Mg133 1.986 . S
Mg132 O131 1.926 . S
Mg132 O146 1.984 1_545 S
Mg132 O149 1.988 . S
Mg132 O150 2.061 . S
Mg133 O131 1.986 . S
Mg133 O141 2.238 . S
Mg133 O145 2.042 . S
Mg133 O147 2.041 . S
Mg133 O154 2.038 . S
C134 O140 1.247 . S
C134 O141 1.289 . S
C135 O153 1.245 . S
C135 O154 1.274 . S
O136 C124 1.241 . S
O136 Mg129 2.042 . S
O137 C124 1.280 . S
O137 Mg127 1.984 . S
O138 C125 1.277 . S
O138 Mg129 2.041 . S
O139 C125 1.245 . S
O139 Mg127 1.988 . S
O140 Mg127 2.061 . S
O140 C134 1.247 . S
O141 Mg130 2.106 . S
O141 Mg133 2.238 . S
O141 C134 1.289 . S
C142 O143 1.245 . S
C142 O144 1.274 . S
O143 Mg130 2.079 . S
O143 C142 1.245 . S
O144 Mg129 2.038 . S
O144 C142 1.274 . S
O145 Mg133 2.042 . S
O145 C148 1.241 1_545 S
O146 Mg132 1.984 1_565 S
O146 C148 1.280 . S
O147 Mg133 2.041 . S
O147 C151 1.277 . S
C148 O145 1.241 1_565 S
C148 O146 1.280 . S
O149 Mg132 1.988 . S
O149 C151 1.245 . S
O150 C126 1.247 . S
O150 Mg132 2.061 . S
C151 O147 1.277 . S
C151 O149 1.245 . S
O152 C126 1.289 . S
O152 Mg129 2.238 . S
O152 Mg130 2.106 . S
O153 Mg130 2.079 . S
O153 C135 1.245 . S
O154 Mg133 2.038 . S
O154 C135 1.274 . S
C155 O167 1.241 . S
C155 O168 1.280 . S
C156 O169 1.277 . S
C156 O170 1.245 . S
C157 O181 1.247 . S
C157 O183 1.289 . S
Mg158 O159 1.926 . S
Mg158 O168 1.984 . S
Mg158 O170 1.988 . S
Mg158 O171 2.061 . S
O159 Mg158 1.926 . S
O159 Mg160 1.986 . S
O159 Mg161 1.917 . S
Mg160 O159 1.986 . S
Mg160 O167 2.042 . S
Mg160 O169 2.041 . S
Mg160 O175 2.038 . S
Mg160 O183 2.238 . S
Mg161 O159 1.917 . S
Mg161 O162 1.917 . S
Mg161 O172 2.106 . S
Mg161 O174 2.079 . S
Mg161 O183 2.106 . S
Mg161 O184 2.079 . S
O162 Mg161 1.917 . S
O162 Mg163 1.926 1_556 S
O162 Mg164 1.986 . S
Mg163 O162 1.926 1_554 S
Mg163 O177 1.984 . S
Mg163 O180 1.988 . S
Mg163 O181 2.061 1_554 S
Mg164 O162 1.986 . S
Mg164 O172 2.238 . S
Mg164 O176 2.042 1_556 S
Mg164 O178 2.041 1_556 S
Mg164 O185 2.038 . S
C165 O171 1.247 . S
C165 O172 1.289 . S
C166 O184 1.245 . S
C166 O185 1.274 . S
O167 C155 1.241 . S
O167 Mg160 2.042 . S
O168 C155 1.280 . S
O168 Mg158 1.984 . S
O169 C156 1.277 . S
O169 Mg160 2.041 . S
O170 C156 1.245 . S
O170 Mg158 1.988 . S
O171 Mg158 2.061 . S
O171 C165 1.247 . S
O172 Mg161 2.106 . S
O172 Mg164 2.238 . S
O172 C165 1.289 . S
C173 O174 1.245 . S
C173 O175 1.274 . S
O174 Mg161 2.079 . S
O174 C173 1.245 . S
O175 Mg160 2.038 . S
O175 C173 1.274 . S
O176 Mg164 2.042 1_554 S
O176 C179 1.241 . S
O177 Mg163 1.984 . S
O177 C179 1.280 . S
O178 Mg164 2.041 1_554 S
O178 C182 1.277 . S
C179 O176 1.241 . S
C179 O177 1.280 . S
O180 Mg163 1.988 . S
O180 C182 1.245 . S
O181 C157 1.247 . S
O181 Mg163 2.061 1_556 S
C182 O178 1.277 . S
C182 O180 1.245 . S
O183 C157 1.289 . S
O183 Mg160 2.238 . S
O183 Mg161 2.106 . S
O184 Mg161 2.079 . S
O184 C166 1.245 . S
O185 Mg164 2.038 . S
O185 C166 1.274 . S
C186 C187 1.363 . S
C186 C192 1.379 . S
C186 N194 1.356 . S
C187 C186 1.363 . S
C187 C193 1.363 . S
C188 C189 1.363 . S
C188 C193 1.379 . S
C188 N195 1.356 . S
C189 C188 1.363 . S
C189 C192 1.363 . S
N190 C192 1.356 . S
N190 H202 0.984 . S
N190 H203 0.985 . S
N191 C193 1.356 . S
N191 H196 0.984 . S
N191 H197 0.985 . S
C192 C186 1.379 . S
C192 C189 1.363 . S
C192 N190 1.356 . S
C193 C187 1.363 . S
C193 C188 1.379 . S
C193 N191 1.356 . S
N194 C186 1.356 . S
N194 H200 0.984 . S
N194 H201 0.984 . S
N195 C188 1.356 . S
N195 H198 0.984 . S
N195 H199 0.985 . S
H196 N191 0.984 . S
H197 N191 0.985 . S
H198 N195 0.984 . S
H199 N195 0.985 . S
H200 N194 0.984 . S
H201 N194 0.984 . S
H202 N190 0.984 . S
H203 N190 0.985 . S
C204 C205 1.363 . S
C204 C210 1.379 . S
C204 N212 1.356 . S
C205 C204 1.363 . S
C205 C211 1.363 . S
C206 C207 1.363 . S
C206 C211 1.379 . S
C206 N213 1.356 . S
C207 C206 1.363 . S
C207 C210 1.363 . S
N208 C210 1.356 . S
N208 H220 0.984 . S
N208 H221 0.985 . S
N209 C211 1.356 . S
N209 H214 0.984 . S
N209 H215 0.985 . S
C210 C204 1.379 . S
C210 C207 1.363 . S
C210 N208 1.356 . S
C211 C205 1.363 . S
C211 C206 1.379 . S
C211 N209 1.356 . S
N212 C204 1.356 . S
N212 H218 0.984 . S
N212 H219 0.984 . S
N213 C206 1.356 . S
N213 H216 0.984 . S
N213 H217 0.985 . S
H214 N209 0.984 . S
H215 N209 0.985 . S
H216 N213 0.984 . S
H217 N213 0.985 . S
H218 N212 0.984 . S
H219 N212 0.984 . S
H220 N208 0.984 . S
H221 N208 0.985 . S
C222 C223 1.363 . S
C222 C228 1.379 . S
C222 N230 1.356 . S
C223 C222 1.363 . S
C223 C229 1.363 . S
C224 C225 1.363 . S
C224 C229 1.379 . S
C224 N231 1.356 . S
C225 C224 1.363 . S
C225 C228 1.363 . S
N226 C228 1.356 . S
N226 H238 0.984 . S
N226 H239 0.985 . S
N227 C229 1.356 . S
N227 H232 0.984 1_556 S
N227 H233 0.985 . S
C228 C222 1.379 . S
C228 C225 1.363 . S
C228 N226 1.356 . S
C229 C223 1.363 . S
C229 C224 1.379 . S
C229 N227 1.356 . S
N230 C222 1.356 . S
N230 H236 0.984 . S
N230 H237 0.984 1_556 S
N231 C224 1.356 . S
N231 H234 0.984 . S
N231 H235 0.985 . S
H232 N227 0.984 1_554 S
H233 N227 0.985 . S
H234 N231 0.984 . S
H235 N231 0.985 . S
H236 N230 0.984 . S
H237 N230 0.984 1_554 S
H238 N226 0.984 . S
H239 N226 0.985 . S
C240 C241 1.363 . S
C240 C246 1.379 1_554 S
C240 N248 1.356 . S
C241 C240 1.363 . S
C241 C247 1.363 . S
C242 C243 1.363 . S
C242 C247 1.379 1_556 S
C242 N249 1.356 . S
C243 C242 1.363 . S
C243 C246 1.363 . S
N244 C246 1.356 . S
N244 H256 0.984 . S
N244 H257 0.985 . S
N245 C247 1.356 . S
N245 H250 0.984 . S
N245 H251 0.985 . S
C246 C240 1.379 1_556 S
C246 C243 1.363 . S
C246 N244 1.356 . S
C247 C241 1.363 . S
C247 C242 1.379 1_554 S
C247 N245 1.356 . S
N248 C240 1.356 . S
N248 H254 0.984 . S
N248 H255 0.984 . S
N249 C242 1.356 . S
N249 H252 0.984 . S
N249 H253 0.985 . S
H250 N245 0.984 . S
H251 N245 0.985 . S
H252 N249 0.984 . S
H253 N249 0.985 . S
H254 N248 0.984 . S
H255 N248 0.984 . S
H256 N244 0.984 . S
H257 N244 0.985 . S
C258 C259 1.363 . S
C258 C264 1.379 . S
C258 N266 1.356 . S
C259 C258 1.363 . S
C259 C265 1.363 . S
C260 C261 1.363 . S
C260 C265 1.379 . S
C260 N267 1.356 . S
C261 C260 1.363 . S
C261 C264 1.363 . S
N262 C264 1.356 . S
N262 H274 0.984 . S
N262 H275 0.985 . S
N263 C265 1.356 . S
N263 H268 0.984 1_554 S
N263 H269 0.985 . S
C264 C258 1.379 . S
C264 C261 1.363 . S
C264 N262 1.356 . S
C265 C259 1.363 . S
C265 C260 1.379 . S
C265 N263 1.356 . S
N266 C258 1.356 . S
N266 H272 0.984 . S
N266 H273 0.984 1_554 S
N267 C260 1.356 . S
N267 H270 0.984 . S
N267 H271 0.985 . S
H268 N263 0.984 1_556 S
H269 N263 0.985 . S
H270 N267 0.984 . S
H271 N267 0.985 . S
H272 N266 0.984 . S
H273 N266 0.984 1_556 S
H274 N262 0.984 . S
H275 N262 0.985 . S
C276 C277 1.363 . S
C276 C282 1.379 . S
C276 N284 1.356 . S
C277 C276 1.363 . S
C277 C283 1.363 . S
C278 C279 1.363 . S
C278 C283 1.379 . S
C278 N285 1.356 . S
C279 C278 1.363 . S
C279 C282 1.363 . S
N280 C282 1.356 . S
N280 H292 0.984 . S
N280 H293 0.985 . S
N281 C283 1.356 . S
N281 H286 0.984 . S
N281 H287 0.985 . S
C282 C276 1.379 . S
C282 C279 1.363 . S
C282 N280 1.356 . S
C283 C277 1.363 . S
C283 C278 1.379 . S
C283 N281 1.356 . S
N284 C276 1.356 . S
N284 H290 0.984 . S
N284 H291 0.984 . S
N285 C278 1.356 . S
N285 H288 0.984 . S
N285 H289 0.985 . S
H286 N281 0.984 . S
H287 N281 0.985 . S
H288 N285 0.984 . S
H289 N285 0.985 . S
H290 N284 0.984 . S
H291 N284 0.984 . S
H292 N280 0.984 . S
H293 N280 0.985 . S
C294 C295 1.363 . S
C294 C300 1.379 . S
C294 N302 1.356 . S
C295 C294 1.363 . S
C295 C301 1.363 . S
C296 C297 1.363 . S
C296 C301 1.379 . S
C296 N303 1.356 . S
C297 C296 1.363 . S
C297 C300 1.363 . S
N298 C300 1.356 . S
N298 H310 0.984 1_556 S
N298 H311 0.985 . S
N299 C301 1.356 . S
N299 H304 0.984 . S
N299 H305 0.985 . S
C300 C294 1.379 . S
C300 C297 1.363 . S
C300 N298 1.356 . S
C301 C295 1.363 . S
C301 C296 1.379 . S
C301 N299 1.356 . S
N302 C294 1.356 . S
N302 H308 0.984 . S
N302 H309 0.984 . S
N303 C296 1.356 . S
N303 H306 0.984 . S
N303 H307 0.985 . S
H304 N299 0.984 . S
H305 N299 0.985 . S
H306 N303 0.984 . S
H307 N303 0.985 . S
H308 N302 0.984 . S
H309 N302 0.984 . S
H310 N298 0.984 1_554 S
H311 N298 0.985 . S
C312 C313 1.363 . S
C312 C318 1.379 . S
C312 N320 1.356 . S
C313 C312 1.363 . S
C313 C319 1.363 1_556 S
C314 C315 1.363 1_554 S
C314 C319 1.379 . S
C314 N321 1.356 . S
C315 C314 1.363 1_556 S
C315 C318 1.363 . S
N316 C318 1.356 . S
N316 H328 0.984 . S
N316 H329 0.985 . S
N317 C319 1.356 . S
N317 H322 0.984 . S
N317 H323 0.985 . S
C318 C312 1.379 . S
C318 C315 1.363 . S
C318 N316 1.356 . S
C319 C313 1.363 1_554 S
C319 C314 1.379 . S
C319 N317 1.356 . S
N320 C312 1.356 . S
N320 H326 0.984 . S
N320 H327 0.984 . S
N321 C314 1.356 . S
N321 H324 0.984 . S
N321 H325 0.985 . S
H322 N317 0.984 . S
H323 N317 0.985 . S
H324 N321 0.984 . S
H325 N321 0.985 . S
H326 N320 0.984 . S
H327 N320 0.984 . S
H328 N316 0.984 . S
H329 N316 0.985 . S
C330 C331 1.363 . S
C330 C336 1.379 . S
C330 N338 1.356 . S
C331 C330 1.363 . S
C331 C337 1.363 . S
C332 C333 1.363 . S
C332 C337 1.379 . S
C332 N339 1.356 1_554 S
C333 C332 1.363 . S
C333 C336 1.363 . S
N334 C336 1.356 . S
N334 H346 0.984 . S
N334 H347 0.985 . S
N335 C337 1.356 1_556 S
N335 H340 0.984 . S
N335 H341 0.985 . S
C336 C330 1.379 . S
C336 C333 1.363 . S
C336 N334 1.356 . S
C337 C331 1.363 . S
C337 C332 1.379 . S
C337 N335 1.356 1_554 S
N338 C330 1.356 . S
N338 H344 0.984 . S
N338 H345 0.984 . S
N339 C332 1.356 1_556 S
N339 H342 0.984 1_556 S
N339 H343 0.985 . S
H340 N335 0.984 . S
H341 N335 0.985 . S
H342 N339 0.984 1_554 S
H343 N339 0.985 . S
H344 N338 0.984 . S
H345 N338 0.984 . S
H346 N334 0.984 . S
H347 N334 0.985 . S
C348 C349 1.363 . S
C348 C354 1.379 . S
C348 N356 1.356 . S
C349 C348 1.363 . S
C349 C355 1.363 . S
C350 C351 1.363 . S
C350 C355 1.379 . S
C350 N357 1.356 . S
C351 C350 1.363 . S
C351 C354 1.363 . S
N352 C354 1.356 . S
N352 H364 0.984 . S
N352 H365 0.985 . S
N353 C355 1.356 . S
N353 H358 0.984 . S
N353 H359 0.985 . S
C354 C348 1.379 . S
C354 C351 1.363 . S
C354 N352 1.356 . S
C355 C349 1.363 . S
C355 C350 1.379 . S
C355 N353 1.356 . S
N356 C348 1.356 . S
N356 H362 0.984 . S
N356 H363 0.984 . S
N357 C350 1.356 . S
N357 H360 0.984 . S
N357 H361 0.985 . S
H358 N353 0.984 . S
H359 N353 0.985 . S
H360 N357 0.984 . S
H361 N357 0.985 . S
H362 N356 0.984 . S
H363 N356 0.984 . S
H364 N352 0.984 . S
H365 N352 0.985 . S
C366 C367 1.363 . S
C366 C372 1.379 . S
C366 N374 1.356 . S
C367 C366 1.363 . S
C367 C373 1.363 . S
C368 C369 1.363 . S
C368 C373 1.379 . S
C368 N375 1.356 . S
C369 C368 1.363 . S
C369 C372 1.363 . S
N370 C372 1.356 . S
N370 H382 0.984 . S
N370 H383 0.985 . S
N371 C373 1.356 . S
N371 H376 0.984 . S
N371 H377 0.985 . S
C372 C366 1.379 . S
C372 C369 1.363 . S
C372 N370 1.356 . S
C373 C367 1.363 . S
C373 C368 1.379 . S
C373 N371 1.356 . S
N374 C366 1.356 . S
N374 H380 0.984 . S
N374 H381 0.984 . S
N375 C368 1.356 . S
N375 H378 0.984 . S
N375 H379 0.985 . S
H376 N371 0.984 . S
H377 N371 0.985 . S
H378 N375 0.984 . S
H379 N375 0.985 . S
H380 N374 0.984 . S
H381 N374 0.984 . S
H382 N370 0.984 . S
H383 N370 0.985 . S
C384 C385 1.363 . S
C384 C390 1.379 . S
C384 N392 1.356 . S
C385 C384 1.363 . S
C385 C391 1.363 . S
C386 C387 1.363 . S
C386 C391 1.379 . S
C386 N393 1.356 . S
C387 C386 1.363 . S
C387 C390 1.363 . S
N388 C390 1.356 . S
N388 H400 0.984 . S
N388 H401 0.985 . S
N389 C391 1.356 . S
N389 H394 0.984 . S
N389 H395 0.985 . S
C390 C384 1.379 . S
C390 C387 1.363 . S
C390 N388 1.356 . S
C391 C385 1.363 . S
C391 C386 1.379 . S
C391 N389 1.356 . S
N392 C384 1.356 . S
N392 H398 0.984 . S
N392 H399 0.984 . S
N393 C386 1.356 . S
N393 H396 0.984 . S
N393 H397 0.985 . S
H394 N389 0.984 . S
H395 N389 0.985 . S
H396 N393 0.984 . S
H397 N393 0.985 . S
H398 N392 0.984 . S
H399 N392 0.984 . S
H400 N388 0.984 . S
H401 N388 0.985 . S
C402 C403 1.363 . S
C402 C408 1.379 . S
C402 N410 1.356 . S
C403 C402 1.363 . S
C403 C409 1.363 . S
C404 C405 1.363 . S
C404 C409 1.379 . S
C404 N411 1.356 1_554 S
C405 C404 1.363 . S
C405 C408 1.363 . S
N406 C408 1.356 . S
N406 H418 0.984 . S
N406 H419 0.985 1_545 S
N407 C409 1.356 1_556 S
N407 H412 0.984 . S
N407 H413 0.985 . S
C408 C402 1.379 . S
C408 C405 1.363 . S
C408 N406 1.356 . S
C409 C403 1.363 . S
C409 C404 1.379 . S
C409 N407 1.356 1_554 S
N410 C402 1.356 . S
N410 H416 0.984 . S
N410 H417 0.984 . S
N411 C404 1.356 1_556 S
N411 H414 0.984 1_545 S
N411 H415 0.985 . S
H412 N407 0.984 . S
H413 N407 0.985 . S
H414 N411 0.984 1_565 S
H415 N411 0.985 . S
H416 N410 0.984 . S
H417 N410 0.984 . S
H418 N406 0.984 . S
H419 N406 0.985 1_565 S
C420 C421 1.363 . S
C420 C426 1.379 . S
C420 N428 1.356 . S
C421 C420 1.363 . S
C421 C427 1.363 . S
C422 C423 1.363 . S
C422 C427 1.379 . S
C422 N429 1.356 . S
C423 C422 1.363 . S
C423 C426 1.363 . S
N424 C426 1.356 . S
N424 H436 0.984 . S
N424 H437 0.985 . S
N425 C427 1.356 . S
N425 H430 0.984 . S
N425 H431 0.985 . S
C426 C420 1.379 . S
C426 C423 1.363 . S
C426 N424 1.356 . S
C427 C421 1.363 . S
C427 C422 1.379 . S
C427 N425 1.356 . S
N428 C420 1.356 . S
N428 H434 0.984 . S
N428 H435 0.984 . S
N429 C422 1.356 . S
N429 H432 0.984 . S
N429 H433 0.985 . S
H430 N425 0.984 . S
H431 N425 0.985 . S
H432 N429 0.984 . S
H433 N429 0.985 . S
H434 N428 0.984 . S
H435 N428 0.984 . S
H436 N424 0.984 . S
H437 N424 0.985 . S
C438 C439 1.363 . S
C438 C444 1.379 . S
C438 N446 1.356 . S
C439 C438 1.363 . S
C439 C445 1.363 . S
C440 C441 1.363 . S
C440 C445 1.379 . S
C440 N447 1.356 . S
C441 C440 1.363 . S
C441 C444 1.363 . S
N442 C444 1.356 . S
N442 H454 0.984 . S
N442 H455 0.985 . S
N443 C445 1.356 . S
N443 H448 0.984 1_655 S
N443 H449 0.985 . S
C444 C438 1.379 . S
C444 C441 1.363 . S
C444 N442 1.356 . S
C445 C439 1.363 . S
C445 C440 1.379 . S
C445 N443 1.356 . S
N446 C438 1.356 . S
N446 H452 0.984 . S
N446 H453 0.984 1_655 S
N447 C440 1.356 . S
N447 H450 0.984 . S
N447 H451 0.985 . S
H448 N443 0.984 1_455 S
H449 N443 0.985 . S
H450 N447 0.984 . S
H451 N447 0.985 . S
H452 N446 0.984 . S
H453 N446 0.984 1_455 S
H454 N442 0.984 . S
H455 N442 0.985 . S
C456 C457 1.363 . S
C456 C462 1.379 . S
C456 N464 1.356 . S
C457 C456 1.363 . S
C457 C463 1.363 . S
C458 C459 1.363 . S
C458 C463 1.379 . S
C458 N465 1.356 . S
C459 C458 1.363 . S
C459 C462 1.363 . S
N460 C462 1.356 . S
N460 H472 0.984 . S
N460 H473 0.985 1_565 S
N461 C463 1.356 . S
N461 H466 0.984 . S
N461 H467 0.985 . S
C462 C456 1.379 . S
C462 C459 1.363 . S
C462 N460 1.356 . S
C463 C457 1.363 . S
C463 C458 1.379 . S
C463 N461 1.356 . S
N464 C456 1.356 . S
N464 H470 0.984 . S
N464 H471 0.984 . S
N465 C458 1.356 . S
N465 H468 0.984 1_565 S
N465 H469 0.985 . S
H466 N461 0.984 . S
H467 N461 0.985 . S
H468 N465 0.984 1_545 S
H469 N465 0.985 . S
H470 N464 0.984 . S
H471 N464 0.984 . S
H472 N460 0.984 . S
H473 N460 0.985 1_545 S
C474 C475 1.363 . S
C474 C480 1.379 . S
C474 N482 1.356 . S
C475 C474 1.363 . S
C475 C481 1.363 . S
C476 C477 1.363 . S
C476 C481 1.379 . S
C476 N483 1.356 . S
C477 C476 1.363 . S
C477 C480 1.363 . S
N478 C480 1.356 . S
N478 H490 0.984 . S
N478 H491 0.985 . S
N479 C481 1.356 . S
N479 H484 0.984 . S
N479 H485 0.985 . S
C480 C474 1.379 . S
C480 C477 1.363 . S
C480 N478 1.356 . S
C481 C475 1.363 . S
C481 C476 1.379 . S
C481 N479 1.356 . S
N482 C474 1.356 . S
N482 H488 0.984 . S
N482 H489 0.984 . S
N483 C476 1.356 . S
N483 H486 0.984 . S
N483 H487 0.985 . S
H484 N479 0.984 . S
H485 N479 0.985 . S
H486 N483 0.984 . S
H487 N483 0.985 . S
H488 N482 0.984 . S
H489 N482 0.984 . S
H490 N478 0.984 . S
H491 N478 0.985 . S
C492 C493 1.363 . S
C492 C498 1.379 . S
C492 N500 1.356 1_556 S
C493 C492 1.363 . S
C493 C499 1.363 . S
C494 C495 1.363 . S
C494 C499 1.379 . S
C494 N501 1.356 . S
C495 C494 1.363 . S
C495 C498 1.363 . S
N496 C498 1.356 1_554 S
N496 H508 0.984 . S
N496 H509 0.985 . S
N497 C499 1.356 . S
N497 H502 0.984 1_455 S
N497 H503 0.985 . S
C498 C492 1.379 . S
C498 C495 1.363 . S
C498 N496 1.356 1_556 S
C499 C493 1.363 . S
C499 C494 1.379 . S
C499 N497 1.356 . S
N500 C492 1.356 1_554 S
N500 H506 0.984 . S
N500 H507 0.984 1_455 S
N501 C494 1.356 . S
N501 H504 0.984 . S
N501 H505 0.985 . S
H502 N497 0.984 1_655 S
H503 N497 0.985 . S
H504 N501 0.984 . S
H505 N501 0.985 . S
H506 N500 0.984 . S
H507 N500 0.984 1_655 S
H508 N496 0.984 . S
H509 N496 0.985 . S
C510 C511 1.363 . S
C510 C516 1.379 . S
C510 N518 1.356 . S
C511 C510 1.363 . S
C511 C517 1.363 . S
C512 C513 1.363 . S
C512 C517 1.379 . S
C512 N519 1.356 . S
C513 C512 1.363 . S
C513 C516 1.363 . S
N514 C516 1.356 . S
N514 H526 0.984 . S
N514 H527 0.985 . S
N515 C517 1.356 . S
N515 H520 0.984 . S
N515 H521 0.985 . S
C516 C510 1.379 . S
C516 C513 1.363 . S
C516 N514 1.356 . S
C517 C511 1.363 . S
C517 C512 1.379 . S
C517 N515 1.356 . S
N518 C510 1.356 . S
N518 H524 0.984 . S
N518 H525 0.984 . S
N519 C512 1.356 . S
N519 H522 0.984 . S
N519 H523 0.985 . S
H520 N515 0.984 . S
H521 N515 0.985 . S
H522 N519 0.984 . S
H523 N519 0.985 . S
H524 N518 0.984 . S
H525 N518 0.984 . S
H526 N514 0.984 . S
H527 N514 0.985 . S
C528 C529 1.363 . S
C528 C534 1.379 . S
C528 N536 1.356 . S
C529 C528 1.363 . S
C529 C535 1.363 . S
C530 C531 1.363 . S
C530 C535 1.379 . S
C530 N537 1.356 1_545 S
C531 C530 1.363 . S
C531 C534 1.363 . S
N532 C534 1.356 . S
N532 H544 0.984 . S
N532 H545 0.985 . S
N533 C535 1.356 1_565 S
N533 H538 0.984 . S
N533 H539 0.985 . S
C534 C528 1.379 . S
C534 C531 1.363 . S
C534 N532 1.356 . S
C535 C529 1.363 . S
C535 C530 1.379 . S
C535 N533 1.356 1_545 S
N536 C528 1.356 . S
N536 H542 0.984 . S
N536 H543 0.984 . S
N537 C530 1.356 1_565 S
N537 H540 0.984 1_565 S
N537 H541 0.985 . S
H538 N533 0.984 . S
H539 N533 0.985 . S
H540 N537 0.984 1_545 S
H541 N537 0.985 . S
H542 N536 0.984 . S
H543 N536 0.984 . S
H544 N532 0.984 . S
H545 N532 0.985 . S
C546 C547 1.363 . S
C546 C552 1.379 . S
C546 N554 1.356 . S
C547 C546 1.363 . S
C547 C553 1.363 . S
C548 C549 1.363 . S
C548 C553 1.379 . S
C548 N555 1.356 . S
C549 C548 1.363 . S
C549 C552 1.363 . S
N550 C552 1.356 . S
N550 H562 0.984 . S
N550 H563 0.985 . S
N551 C553 1.356 . S
N551 H556 0.984 . S
N551 H557 0.985 . S
C552 C546 1.379 . S
C552 C549 1.363 . S
C552 N550 1.356 . S
C553 C547 1.363 . S
C553 C548 1.379 . S
C553 N551 1.356 . S
N554 C546 1.356 . S
N554 H560 0.984 . S
N554 H561 0.984 . S
N555 C548 1.356 . S
N555 H558 0.984 . S
N555 H559 0.985 . S
H556 N551 0.984 . S
H557 N551 0.985 . S
H558 N555 0.984 . S
H559 N555 0.985 . S
H560 N554 0.984 . S
H561 N554 0.984 . S
H562 N550 0.984 . S
H563 N550 0.985 . S
C564 C565 1.363 . S
C564 C570 1.379 . S
C564 N572 1.356 . S
C565 C564 1.363 . S
C565 C571 1.363 . S
C566 C567 1.363 . S
C566 C571 1.379 . S
C566 N573 1.356 1_655 S
C567 C566 1.363 . S
C567 C570 1.363 . S
N568 C570 1.356 . S
N568 H580 0.984 . S
N568 H581 0.985 . S
N569 C571 1.356 1_455 S
N569 H574 0.984 . S
N569 H575 0.985 . S
C570 C564 1.379 . S
C570 C567 1.363 . S
C570 N568 1.356 . S
C571 C565 1.363 . S
C571 C566 1.379 . S
C571 N569 1.356 1_655 S
N572 C564 1.356 . S
N572 H578 0.984 . S
N572 H579 0.984 . S
N573 C566 1.356 1_455 S
N573 H576 0.984 . S
N573 H577 0.985 . S
H574 N569 0.984 . S
H575 N569 0.985 . S
H576 N573 0.984 . S
H577 N573 0.985 . S
H578 N572 0.984 . S
H579 N572 0.984 . S
H580 N568 0.984 . S
H581 N568 0.985 . S
C582 C583 1.363 . S
C582 C588 1.379 1_554 S
C582 N590 1.356 1_565 S
C583 C582 1.363 . S
C583 C589 1.363 1_554 S
C584 C585 1.363 . S
C584 C589 1.379 . S
C584 N591 1.356 . S
C585 C584 1.363 . S
C585 C588 1.363 . S
N586 C588 1.356 1_545 S
N586 H598 0.984 . S
N586 H599 0.985 . S
N587 C589 1.355 1_554 S
N587 H592 0.987 . S
N587 H593 0.983 1_554 S
C588 C582 1.379 1_556 S
C588 C585 1.363 . S
C588 N586 1.356 1_565 S
C589 C583 1.363 1_556 S
C589 C584 1.379 . S
C589 N587 1.355 1_556 S
N590 C582 1.356 1_545 S
N590 H596 0.984 . S
N590 H597 0.984 . S
N591 C584 1.356 . S
N591 H594 0.984 . S
N591 H595 0.985 . S
H592 N587 0.987 . S
H593 N587 0.983 1_556 S
H594 N591 0.984 . S
H595 N591 0.985 . S
H596 N590 0.984 . S
H597 N590 0.984 . S
H598 N586 0.984 . S
H599 N586 0.985 . S
C600 C601 1.363 . S
C600 C606 1.379 . S
C600 N608 1.356 . S
C601 C600 1.363 . S
C601 C607 1.363 . S
C602 C603 1.363 . S
C602 C607 1.379 . S
C602 N609 1.356 . S
C603 C602 1.363 . S
C603 C606 1.363 . S
N604 C606 1.356 . S
N604 H616 0.984 . S
N604 H617 0.985 . S
N605 C607 1.356 1_556 S
N605 H610 0.984 . S
N605 H611 0.985 . S
C606 C600 1.379 . S
C606 C603 1.363 . S
C606 N604 1.356 . S
C607 C601 1.363 . S
C607 C602 1.379 . S
C607 N605 1.356 1_554 S
N608 C600 1.356 . S
N608 H614 0.984 . S
N608 H615 0.984 . S
N609 C602 1.356 . S
N609 H612 0.984 . S
N609 H613 0.985 . S
H610 N605 0.984 . S
H611 N605 0.985 . S
H612 N609 0.984 . S
H613 N609 0.985 . S
H614 N608 0.984 . S
H615 N608 0.984 . S
H616 N604 0.984 . S
H617 N604 0.985 . S
C187 C27 1.439 . S
C189 C1 1.439 . S
C205 C58 1.439 . S
C207 C32 1.439 . S
C223 C63 1.439 1_556 S
C225 C89 1.439 . S
C241 C94 1.439 . S
C243 C120 1.439 . S
C259 C151 1.439 1_554 S
C261 C125 1.439 . S
C277 C182 1.439 . S
C279 C156 1.439 . S
C295 C134 1.507 . S
C297 C0 1.543 . S
C313 C31 1.543 . S
C315 C165 1.507 . S
C331 C10 1.507 . S
C333 C62 1.543 . S
C349 C41 1.507 . S
C351 C93 1.543 . S
C367 C124 1.543 . S
C369 C72 1.507 . S
C385 C103 1.507 . S
C387 C155 1.543 . S
C403 C18 2.069 . S
C405 C33 2.055 1_545 S
C421 C49 2.069 . S
C423 C64 2.055 . S
C439 C95 2.055 1_655 S
C441 C80 2.069 . S
C457 C111 2.069 . S
C459 C126 2.055 1_565 S
C475 C142 2.069 . S
C477 C157 2.055 . S
C493 C2 2.055 1_455 S
C495 C173 2.069 . S
C511 C24 1.060 . S
C513 C104 1.302 . S
C529 C135 1.302 . S
C531 C55 1.060 . S
C547 C86 1.060 . S
C549 C166 1.302 . S
C565 C117 1.060 . S
C567 C11 1.302 . S
C583 C42 1.302 . S
C585 C148 1.060 . S
C601 C179 1.060 . S
C603 C73 1.302 . S
