# Generated by pormake.
# Topology fci, (5)-cn, num edge types: 1
# Building blocks:
#     Node 0, Type 0, BuildingBlock: BEQFEK_clean_sbu_0, # of connection points: 5
#     Node 1, Type 0, BuildingBlock: BEQFEK_clean_sbu_0, # of connection points: 5
#     Node 2, Type 0, BuildingBlock: BEQFEK_clean_sbu_0, # of connection points: 5
#     Node 3, Type 0, BuildingBlock: BEQFEK_clean_sbu_0, # of connection points: 5
#     Node 4, Type 0, BuildingBlock: BEQFEK_clean_sbu_0, # of connection points: 5
#     Node 5, Type 0, BuildingBlock: BEQFEK_clean_sbu_0, # of connection points: 5
#     Node 6, Type 0, BuildingBlock: BEQFEK_clean_sbu_0, # of connection points: 5
#     Node 7, Type 0, BuildingBlock: BEQFEK_clean_sbu_0, # of connection points: 5
#     Node 8, Type 0, BuildingBlock: BEQFEK_clean_sbu_0, # of connection points: 5
#     Node 9, Type 0, BuildingBlock: BEQFEK_clean_sbu_0, # of connection points: 5
#     Node 10, Type 0, BuildingBlock: BEQFEK_clean_sbu_0, # of connection points: 5
#     Node 11, Type 0, BuildingBlock: BEQFEK_clean_sbu_0, # of connection points: 5
#     Node 12, Type 0, BuildingBlock: BEQFEK_clean_sbu_0, # of connection points: 5
#     Node 13, Type 0, BuildingBlock: BEQFEK_clean_sbu_0, # of connection points: 5
#     Node 14, Type 0, BuildingBlock: BEQFEK_clean_sbu_0, # of connection points: 5
#     Node 15, Type 0, BuildingBlock: BEQFEK_clean_sbu_0, # of connection points: 5
#     Node 16, Type 0, BuildingBlock: BEQFEK_clean_sbu_0, # of connection points: 5
#     Node 17, Type 0, BuildingBlock: BEQFEK_clean_sbu_0, # of connection points: 5
#     Node 18, Type 0, BuildingBlock: BEQFEK_clean_sbu_0, # of connection points: 5
#     Node 19, Type 0, BuildingBlock: BEQFEK_clean_sbu_0, # of connection points: 5
#     Node 20, Type 0, BuildingBlock: BEQFEK_clean_sbu_0, # of connection points: 5
#     Node 21, Type 0, BuildingBlock: BEQFEK_clean_sbu_0, # of connection points: 5
#     Node 22, Type 0, BuildingBlock: BEQFEK_clean_sbu_0, # of connection points: 5
#     Node 23, Type 0, BuildingBlock: BEQFEK_clean_sbu_0, # of connection points: 5
#     Edge 24, Type (0, 0), BuildingBlock: XUDNAN_clean_linker_2, # of connection points: 2
#     Edge 25, Type (0, 0), BuildingBlock: XUDNAN_clean_linker_2, # of connection points: 2
#     Edge 26, Type (0, 0), BuildingBlock: XUDNAN_clean_linker_2, # of connection points: 2
#     Edge 27, Type (0, 0), BuildingBlock: XUDNAN_clean_linker_2, # of connection points: 2
#     Edge 28, Type (0, 0), BuildingBlock: XUDNAN_clean_linker_2, # of connection points: 2
#     Edge 29, Type (0, 0), BuildingBlock: XUDNAN_clean_linker_2, # of connection points: 2
#     Edge 30, Type (0, 0), BuildingBlock: XUDNAN_clean_linker_2, # of connection points: 2
#     Edge 31, Type (0, 0), BuildingBlock: XUDNAN_clean_linker_2, # of connection points: 2
#     Edge 32, Type (0, 0), BuildingBlock: XUDNAN_clean_linker_2, # of connection points: 2
#     Edge 33, Type (0, 0), BuildingBlock: XUDNAN_clean_linker_2, # of connection points: 2
#     Edge 34, Type (0, 0), BuildingBlock: XUDNAN_clean_linker_2, # of connection points: 2
#     Edge 35, Type (0, 0), BuildingBlock: XUDNAN_clean_linker_2, # of connection points: 2
#     Edge 36, Type (0, 0), BuildingBlock: XUDNAN_clean_linker_2, # of connection points: 2
#     Edge 37, Type (0, 0), BuildingBlock: XUDNAN_clean_linker_2, # of connection points: 2
#     Edge 38, Type (0, 0), BuildingBlock: XUDNAN_clean_linker_2, # of connection points: 2
#     Edge 39, Type (0, 0), BuildingBlock: XUDNAN_clean_linker_2, # of connection points: 2
#     Edge 40, Type (0, 0), BuildingBlock: XUDNAN_clean_linker_2, # of connection points: 2
#     Edge 41, Type (0, 0), BuildingBlock: XUDNAN_clean_linker_2, # of connection points: 2
#     Edge 42, Type (0, 0), BuildingBlock: XUDNAN_clean_linker_2, # of connection points: 2
#     Edge 43, Type (0, 0), BuildingBlock: XUDNAN_clean_linker_2, # of connection points: 2
#     Edge 44, Type (0, 0), BuildingBlock: XUDNAN_clean_linker_2, # of connection points: 2
#     Edge 45, Type (0, 0), BuildingBlock: XUDNAN_clean_linker_2, # of connection points: 2
#     Edge 46, Type (0, 0), BuildingBlock: XUDNAN_clean_linker_2, # of connection points: 2
#     Edge 47, Type (0, 0), BuildingBlock: XUDNAN_clean_linker_2, # of connection points: 2
#     Edge 48, Type (0, 0), BuildingBlock: XUDNAN_clean_linker_2, # of connection points: 2
#     Edge 49, Type (0, 0), BuildingBlock: XUDNAN_clean_linker_2, # of connection points: 2
#     Edge 50, Type (0, 0), BuildingBlock: XUDNAN_clean_linker_2, # of connection points: 2
#     Edge 51, Type (0, 0), BuildingBlock: XUDNAN_clean_linker_2, # of connection points: 2
#     Edge 52, Type (0, 0), BuildingBlock: XUDNAN_clean_linker_2, # of connection points: 2
#     Edge 53, Type (0, 0), BuildingBlock: XUDNAN_clean_linker_2, # of connection points: 2
#     Edge 54, Type (0, 0), BuildingBlock: XUDNAN_clean_linker_2, # of connection points: 2
#     Edge 55, Type (0, 0), BuildingBlock: XUDNAN_clean_linker_2, # of connection points: 2
#     Edge 56, Type (0, 0), BuildingBlock: XUDNAN_clean_linker_2, # of connection points: 2
#     Edge 57, Type (0, 0), BuildingBlock: XUDNAN_clean_linker_2, # of connection points: 2
#     Edge 58, Type (0, 0), BuildingBlock: XUDNAN_clean_linker_2, # of connection points: 2
#     Edge 59, Type (0, 0), BuildingBlock: XUDNAN_clean_linker_2, # of connection points: 2
#     Edge 60, Type (0, 0), BuildingBlock: XUDNAN_clean_linker_2, # of connection points: 2
#     Edge 61, Type (0, 0), BuildingBlock: XUDNAN_clean_linker_2, # of connection points: 2
#     Edge 62, Type (0, 0), BuildingBlock: XUDNAN_clean_linker_2, # of connection points: 2
#     Edge 63, Type (0, 0), BuildingBlock: XUDNAN_clean_linker_2, # of connection points: 2
#     Edge 64, Type (0, 0), BuildingBlock: XUDNAN_clean_linker_2, # of connection points: 2
#     Edge 65, Type (0, 0), BuildingBlock: XUDNAN_clean_linker_2, # of connection points: 2
#     Edge 66, Type (0, 0), BuildingBlock: XUDNAN_clean_linker_2, # of connection points: 2
#     Edge 67, Type (0, 0), BuildingBlock: XUDNAN_clean_linker_2, # of connection points: 2
#     Edge 68, Type (0, 0), BuildingBlock: XUDNAN_clean_linker_2, # of connection points: 2
#     Edge 69, Type (0, 0), BuildingBlock: XUDNAN_clean_linker_2, # of connection points: 2
#     Edge 70, Type (0, 0), BuildingBlock: XUDNAN_clean_linker_2, # of connection points: 2
#     Edge 71, Type (0, 0), BuildingBlock: XUDNAN_clean_linker_2, # of connection points: 2
#     Edge 72, Type (0, 0), BuildingBlock: XUDNAN_clean_linker_2, # of connection points: 2
#     Edge 73, Type (0, 0), BuildingBlock: XUDNAN_clean_linker_2, # of connection points: 2
#     Edge 74, Type (0, 0), BuildingBlock: XUDNAN_clean_linker_2, # of connection points: 2
#     Edge 75, Type (0, 0), BuildingBlock: XUDNAN_clean_linker_2, # of connection points: 2
#     Edge 76, Type (0, 0), BuildingBlock: XUDNAN_clean_linker_2, # of connection points: 2
#     Edge 77, Type (0, 0), BuildingBlock: XUDNAN_clean_linker_2, # of connection points: 2
#     Edge 78, Type (0, 0), BuildingBlock: XUDNAN_clean_linker_2, # of connection points: 2
#     Edge 79, Type (0, 0), BuildingBlock: XUDNAN_clean_linker_2, # of connection points: 2
#     Edge 80, Type (0, 0), BuildingBlock: XUDNAN_clean_linker_2, # of connection points: 2
#     Edge 81, Type (0, 0), BuildingBlock: XUDNAN_clean_linker_2, # of connection points: 2
#     Edge 82, Type (0, 0), BuildingBlock: XUDNAN_clean_linker_2, # of connection points: 2
#     Edge 83, Type (0, 0), BuildingBlock: XUDNAN_clean_linker_2, # of connection points: 2
# Relax obj value: 0.885
# Max RMSD: 0.352
# Mean RMSD: 0.317
data_MOF--net-fci--node1-BEQFEK_clean_sbu_0--edge1-XUDNAN_clean_linker_2
_symmetry_space_group_name_H-M    P1
_symmetry_Int_Tables_number       1
_symmetry_cell_setting            triclinic
loop_
_symmetry_equiv_pos_as_xyz
'x, y, z'
_cell_length_a     54.158812
_cell_length_b     54.160356
_cell_length_c     54.15251
_cell_angle_alpha  89.212791
_cell_angle_beta   89.221599
_cell_angle_gamma 89.259442
loop_
_atom_site_label
_atom_site_type_symbol
_atom_site_fract_x
_atom_site_fract_y
_atom_site_fract_z
_atom_type_partial_charge
Co0 Co 0.19359 0.16411 0.59907 0.0
Co1 Co 0.22639 0.14327 0.55617 0.0
C2 C 0.19795 0.11024 0.59132 0.0
O3 O 0.18958 0.12895 0.60259 0.0
O4 O 0.21236 0.11243 0.57261 0.0
C5 C 0.17062 0.16875 0.64638 0.0
O6 O 0.18069 0.14691 0.65047 0.0
C7 C 0.27621 0.1288 0.54151 0.0
C8 C 0.27601 0.13739 0.50169 0.0
C9 C 0.29179 0.1322 0.52117 0.0
N10 N 0.25278 0.13315 0.53459 0.0
N11 N 0.25267 0.1371 0.51049 0.0
C12 C 0.28376 0.12513 0.56784 0.0
H13 H 0.26737 0.12452 0.58034 0.0
H14 H 0.29628 0.13999 0.57351 0.0
H15 H 0.29418 0.10743 0.56959 0.0
C16 C 0.2387 0.18911 0.61214 0.0
N17 N 0.22688 0.17211 0.59907 0.0
N18 N 0.23958 0.16697 0.5789 0.0
C19 C 0.25911 0.18226 0.57757 0.0
C20 C 0.25959 0.19631 0.59889 0.0
C21 C 0.22932 0.19881 0.6363 0.0
H22 H 0.21515 0.21339 0.63285 0.0
H23 H 0.22056 0.18372 0.64717 0.0
H24 H 0.24449 0.2066 0.64721 0.0
O25 O 0.1795 0.17719 0.5681 0.0
O26 O 0.20057 0.16091 0.53658 0.0
H27 H 0.26374 0.18067 0.53796 0.0
H28 H 0.27549 0.20809 0.55188 0.0
C29 C 0.2733 0.18784 0.55427 0.0
H30 H 0.29204 0.1796 0.55547 0.0
H31 H 0.237 0.14226 0.50056 0.0
O32 O 0.17475 0.17987 0.62598 0.0
C33 C 0.18334 0.17481 0.54501 0.0
Co34 Co 0.53629 0.42875 0.29136 0.0
Co35 Co 0.54479 0.47891 0.2629 0.0
C36 C 0.57794 0.46091 0.3038 0.0
O37 O 0.56497 0.44186 0.30757 0.0
O38 O 0.57303 0.47629 0.28653 0.0
C39 C 0.53863 0.3879 0.32593 0.0
O40 O 0.56093 0.39596 0.33017 0.0
C41 C 0.54558 0.53186 0.26611 0.0
C42 C 0.54218 0.54535 0.22774 0.0
C43 C 0.54366 0.55322 0.25193 0.0
N44 N 0.54562 0.5123 0.25117 0.0
N45 N 0.54409 0.52046 0.22812 0.0
C46 C 0.54548 0.52999 0.29375 0.0
H47 H 0.53249 0.54369 0.30197 0.0
H48 H 0.56425 0.53407 0.30042 0.0
H49 H 0.54041 0.51115 0.3001 0.0
C50 C 0.48882 0.45212 0.30361 0.0
N51 N 0.511 0.45244 0.29221 0.0
N52 N 0.5134 0.47303 0.27928 0.0
C53 C 0.49205 0.48609 0.28137 0.0
C54 C 0.47583 0.47336 0.29694 0.0
C55 C 0.48136 0.43279 0.32222 0.0
H56 H 0.49738 0.42761 0.33382 0.0
H57 H 0.46618 0.43936 0.3345 0.0
H58 H 0.47533 0.41609 0.31243 0.0
O59 O 0.54325 0.42017 0.25673 0.0
O60 O 0.54938 0.45499 0.23528 0.0
H61 H 0.46671 0.5122 0.26474 0.0
H62 H 0.49261 0.52509 0.28012 0.0
C63 C 0.48677 0.5099 0.26818 0.0
H64 H 0.49705 0.51084 0.25038 0.0
H65 H 0.54311 0.50904 0.21279 0.0
O66 O 0.52556 0.39863 0.30956 0.0
C67 C 0.54776 0.43149 0.23641 0.0
Co68 Co 0.29635 0.84663 0.10639 0.0
Co69 Co 0.25929 0.86376 0.06527 0.0
C70 C 0.28246 0.89967 0.09945 0.0
O71 O 0.29408 0.88209 0.10987 0.0
O72 O 0.26814 0.89593 0.08145 0.0
C73 C 0.3156 0.84549 0.15445 0.0
O74 O 0.30196 0.86564 0.15599 0.0
C75 C 0.20731 0.87075 0.05565 0.0
C76 C 0.20491 0.86583 0.01545 0.0
C77 C 0.19052 0.86779 0.03678 0.0
N78 N 0.23032 0.86974 0.04608 0.0
N79 N 0.22879 0.86751 0.0219 0.0
C80 C 0.20174 0.87377 0.08262 0.0
H81 H 0.216 0.88538 0.0911 0.0
H82 H 0.20217 0.85555 0.09215 0.0
H83 H 0.18315 0.88222 0.08543 0.0
C84 C 0.25787 0.81155 0.11803 0.0
N85 N 0.26508 0.83267 0.10694 0.0
N86 N 0.25146 0.83704 0.08743 0.0
C87 C 0.23653 0.81758 0.08433 0.0
C88 C 0.23934 0.80147 0.1042 0.0
C89 C 0.27161 0.79885 0.13848 0.0
H90 H 0.28962 0.79188 0.13125 0.0
H91 H 0.27519 0.81219 0.15332 0.0
H92 H 0.26104 0.78309 0.14631 0.0
O93 O 0.31244 0.83805 0.07435 0.0
O94 O 0.28729 0.85163 0.04463 0.0
H95 H 0.23501 0.82097 0.04466 0.0
H96 H 0.22742 0.7908 0.05682 0.0
C97 C 0.22566 0.81095 0.06003 0.0
H98 H 0.20581 0.81564 0.06006 0.0
H99 H 0.24399 0.86519 0.01006 0.0
O100 O 0.3162 0.83362 0.13435 0.0
C101 C 0.30724 0.84089 0.05152 0.0
Co102 Co 0.95045 0.5662 0.79813 0.0
Co103 Co 0.94814 0.5138 0.7732 0.0
C104 C 0.90735 0.53235 0.80548 0.0
O105 O 0.91851 0.55244 0.80912 0.0
O106 O 0.91648 0.51558 0.79188 0.0
C107 C 0.95329 0.59184 0.84219 0.0
O108 O 0.94659 0.56982 0.85004 0.0
C109 C 0.94302 0.46024 0.77087 0.0
C110 C 0.97414 0.45038 0.74619 0.0
C111 C 0.95745 0.4402 0.76308 0.0
N112 N 0.95216 0.48104 0.76063 0.0
N113 N 0.96995 0.47489 0.74494 0.0
C114 C 0.9201 0.45991 0.78662 0.0
H115 H 0.9065 0.47349 0.77927 0.0
H116 H 0.92461 0.46508 0.80578 0.0
H117 H 0.91128 0.44154 0.78646 0.0
C118 C 0.99848 0.54533 0.81488 0.0
N119 N 0.97677 0.54323 0.80319 0.0
N120 N 0.97501 0.52067 0.79462 0.0
C121 C 0.99507 0.50744 0.80176 0.0
C122 C 0.01057 0.5227 0.81455 0.0
C123 C 0.00762 0.56855 0.82613 0.0
H124 H 0.00149 0.58487 0.81516 0.0
H125 H 0.00013 0.56997 0.84522 0.0
H126 H 0.02804 0.56849 0.82724 0.0
O127 O 0.94865 0.57497 0.76272 0.0
O128 O 0.94862 0.53802 0.74487 0.0
H129 H 0.00588 0.47975 0.77608 0.0
H130 H 0.01512 0.47286 0.80699 0.0
C131 C 7e-05 0.48097 0.79571 0.0
H132 H 0.98318 0.47008 0.79897 0.0
H133 H 0.98082 0.4876 0.73521 0.0
O134 O 0.95582 0.59563 0.81905 0.0
C135 C 0.94842 0.56158 0.74353 0.0
Co136 Co 0.68825 0.33682 0.38668 0.0
Co137 Co 0.72457 0.35349 0.42762 0.0
C138 C 0.69506 0.38979 0.39767 0.0
O139 O 0.68462 0.37245 0.3865 0.0
O140 O 0.71143 0.38566 0.4139 0.0
C141 C 0.66292 0.33468 0.33989 0.0
O142 O 0.67258 0.35641 0.33525 0.0
C143 C 0.77523 0.36478 0.44029 0.0
C144 C 0.77543 0.35552 0.47996 0.0
C145 C 0.79096 0.36068 0.45997 0.0
N146 N 0.75185 0.36111 0.44803 0.0
N147 N 0.752 0.3567 0.47206 0.0
C148 C 0.78266 0.36856 0.41378 0.0
H149 H 0.79432 0.35289 0.40735 0.0
H150 H 0.79402 0.38542 0.41206 0.0
H151 H 0.7662 0.37069 0.40192 0.0
C152 C 0.73071 0.30817 0.37026 0.0
N153 N 0.72142 0.32695 0.38359 0.0
N154 N 0.73569 0.33078 0.40261 0.0
C155 C 0.75379 0.31333 0.40267 0.0
C156 C 0.75155 0.29893 0.38185 0.0
C157 C 0.7172 0.29612 0.34983 0.0
H158 H 0.7012 0.28594 0.35769 0.0
H159 H 0.7102 0.31044 0.33678 0.0
H160 H 0.72938 0.28299 0.33967 0.0
O161 O 0.6757 0.3222 0.41772 0.0
O162 O 0.69904 0.33591 0.44808 0.0
H163 H 0.76051 0.31425 0.44188 0.0
H164 H 0.76919 0.28574 0.42734 0.0
C165 C 0.76855 0.30612 0.42491 0.0
H166 H 0.78784 0.31225 0.42218 0.0
H167 H 0.7364 0.35202 0.48254 0.0
O168 O 0.66771 0.32352 0.3601 0.0
C169 C 0.68106 0.32319 0.4405 0.0
Co170 Co 0.44457 0.94076 0.19448 0.0
Co171 Co 0.43851 0.99148 0.22107 0.0
C172 C 0.40149 0.97389 0.18454 0.0
O173 O 0.41388 0.95429 0.18059 0.0
O174 O 0.40834 0.98971 0.20007 0.0
C175 C 0.45092 0.91247 0.15194 0.0
O176 O 0.44434 0.93379 0.14202 0.0
C177 C 0.43807 0.04455 0.21781 0.0
C178 C 0.44902 0.05584 0.25503 0.0
C179 C 0.44453 0.0649 0.23139 0.0
N180 N 0.43897 0.02446 0.23258 0.0
N181 N 0.44475 0.03138 0.25505 0.0
C182 C 0.43515 0.04348 0.19036 0.0
H183 H 0.44844 0.05586 0.18073 0.0
H184 H 0.41622 0.04983 0.1856 0.0
H185 H 0.43792 0.02437 0.1837 0.0
C186 C 0.4931 0.96237 0.18023 0.0
N187 N 0.47063 0.96378 0.19123 0.0
N188 N 0.46849 0.98497 0.2028 0.0
C189 C 0.48988 0.9974 0.19991 0.0
C190 C 0.5059 0.9836 0.18528 0.0
C191 C 0.50298 0.94043 0.1666 0.0
H192 H 0.49781 0.92319 0.17653 0.0
H193 H 0.49495 0.94029 0.14788 0.0
H194 H 0.52339 0.94102 0.16461 0.0
O195 O 0.43958 0.9318 0.22989 0.0
O196 O 0.43697 0.96771 0.24953 0.0
H197 H 0.48815 0.02207 0.23057 0.0
H198 H 0.51542 0.02537 0.21146 0.0
C199 C 0.49534 0.02172 0.21135 0.0
H200 H 0.48641 0.03674 0.2005 0.0
H201 H 0.44764 0.01919 0.26986 0.0
O202 O 0.45245 0.91063 0.1753 0.0
C203 C 0.43734 0.94414 0.24972 0.0
Co204 Co 0.80358 0.65477 0.89728 0.0
Co205 Co 0.76513 0.63471 0.93669 0.0
C206 C 0.78864 0.60225 0.89817 0.0
O207 O 0.80065 0.62036 0.88947 0.0
O208 O 0.77442 0.60442 0.91697 0.0
C209 C 0.82605 0.66149 0.85013 0.0
O210 O 0.81103 0.64363 0.84456 0.0
C211 C 0.71313 0.62433 0.94489 0.0
C212 C 0.70833 0.62777 0.98515 0.0
C213 C 0.69518 0.62529 0.96351 0.0
N214 N 0.7355 0.62695 0.95495 0.0
N215 N 0.73258 0.62828 0.97916 0.0
C216 C 0.70919 0.62174 0.91772 0.0
H217 H 0.72448 0.61068 0.90944 0.0
H218 H 0.70929 0.64016 0.90857 0.0
H219 H 0.69125 0.61286 0.91418 0.0
C220 C 0.76277 0.68925 0.88598 0.0
N221 N 0.77239 0.66949 0.89794 0.0
N222 N 0.75785 0.66328 0.91659 0.0
C223 C 0.73961 0.68029 0.91835 0.0
C224 C 0.74148 0.69655 0.89847 0.0
C225 C 0.7741 0.70092 0.86342 0.0
H226 H 0.77982 0.68635 0.85027 0.0
H227 H 0.76107 0.71387 0.85414 0.0
H228 H 0.79085 0.71106 0.86872 0.0
O229 O 0.81832 0.65896 0.93016 0.0
O230 O 0.79234 0.64405 0.9588 0.0
H231 H 0.73383 0.67634 0.95763 0.0
H232 H 0.72211 0.7049 0.94431 0.0
C233 C 0.72467 0.68478 0.94134 0.0
H234 H 0.70623 0.67687 0.93948 0.0
H235 H 0.74692 0.63127 0.99139 0.0
O236 O 0.82553 0.67 0.8719 0.0
C237 C 0.8126 0.65446 0.95271 0.0
Co238 Co 0.03141 0.06793 0.69441 0.0
Co239 Co 0.03971 0.01642 0.72052 0.0
C240 C 0.07363 0.03508 0.68021 0.0
O241 O 0.0611 0.05488 0.67772 0.0
O242 O 0.06787 0.01866 0.69621 0.0
C243 C 0.03424 0.10895 0.65984 0.0
O244 O 0.05716 0.10131 0.65659 0.0
C245 C 0.03861 0.96265 0.72108 0.0
C246 C 0.04039 0.9537 0.76091 0.0
C247 C 0.03783 0.94295 0.73793 0.0
N248 N 0.04097 0.98369 0.73367 0.0
N249 N 0.04256 0.9782 0.75741 0.0
C250 C 0.03542 0.96229 0.69365 0.0
H251 H 0.0324 0.98126 0.6862 0.0
H252 H 0.01964 0.95056 0.68872 0.0
H253 H 0.05242 0.95456 0.68489 0.0
C254 C 0.98271 0.04622 0.68482 0.0
N255 N 0.00571 0.04449 0.69388 0.0
N256 N 0.00833 0.02333 0.70589 0.0
C257 C 0.98651 0.01146 0.70581 0.0
C258 C 0.96975 0.0254 0.69211 0.0
C259 C 0.97294 0.0682 0.67084 0.0
H260 H 0.97395 0.08475 0.68262 0.0
H261 H 0.98468 0.07151 0.6542 0.0
H262 H 0.95352 0.06573 0.66522 0.0
O263 O 0.03882 0.07646 0.72927 0.0
O264 O 0.04359 0.0398 0.74799 0.0
H265 H 0.99301 0.98586 0.73585 0.0
H266 H 0.96174 0.98656 0.72511 0.0
C267 C 0.98136 0.9877 0.71927 0.0
H268 H 0.9852 0.97205 0.70679 0.0
H269 H 0.04417 0.99124 0.77127 0.0
O270 O 0.02059 0.09807 0.67579 0.0
C271 C 0.04286 0.0633 0.74857 0.0
Co272 Co 0.60744 0.19338 0.15375 0.0
Co273 Co 0.57177 0.23202 0.12896 0.0
C274 C 0.61022 0.20422 0.09981 0.0
O275 O 0.61699 0.1931 0.11933 0.0
O276 O 0.59252 0.21993 0.10007 0.0
C277 C 0.65316 0.1693 0.16314 0.0
O278 O 0.66005 0.18231 0.14367 0.0
C279 C 0.56216 0.28343 0.11569 0.0
C280 C 0.52154 0.28501 0.11672 0.0
C281 C 0.54228 0.29987 0.11582 0.0
N282 N 0.55358 0.26029 0.11762 0.0
N283 N 0.52923 0.2613 0.11708 0.0
C284 C 0.58892 0.28978 0.11727 0.0
H285 H 0.60059 0.27286 0.11879 0.0
H286 H 0.59211 0.30193 0.1332 0.0
H287 H 0.59443 0.30028 0.10038 0.0
C288 C 0.61677 0.23378 0.18691 0.0
N289 N 0.6074 0.22553 0.16577 0.0
N290 N 0.59045 0.24115 0.15764 0.0
C291 C 0.58756 0.25927 0.17449 0.0
C292 C 0.60461 0.25547 0.1931 0.0
C293 C 0.63448 0.21935 0.20263 0.0
H294 H 0.65037 0.21306 0.19113 0.0
H295 H 0.6414 0.23056 0.21801 0.0
H296 H 0.6251 0.2028 0.21037 0.0
O297 O 0.5741 0.17984 0.15877 0.0
O298 O 0.54817 0.20606 0.14016 0.0
H299 H 0.55895 0.27732 0.19583 0.0
H300 H 0.5707 0.29501 0.17038 0.0
C301 C 0.56548 0.27612 0.17636 0.0
H302 H 0.55016 0.26945 0.16502 0.0
H303 H 0.51788 0.246 0.11946 0.0
O304 O 0.63117 0.17162 0.17138 0.0
C305 C 0.55228 0.18635 0.15271 0.0
Co306 Co 0.55758 0.79146 0.96334 0.0
Co307 Co 0.50795 0.76326 0.95605 0.0
C308 C 0.52706 0.80018 0.91865 0.0
O309 O 0.54539 0.80495 0.93205 0.0
O310 O 0.51156 0.78371 0.92493 0.0
C311 C 0.59009 0.83283 0.96408 0.0
O312 O 0.57429 0.84195 0.94808 0.0
C313 C 0.45512 0.76501 0.95239 0.0
C314 C 0.44367 0.72837 0.96626 0.0
C315 C 0.43457 0.7514 0.95904 0.0
N316 N 0.47534 0.75085 0.95566 0.0
N317 N 0.4684 0.72866 0.96319 0.0
C318 C 0.45591 0.79224 0.94713 0.0
H319 H 0.45267 0.79553 0.92716 0.0
H320 H 0.47419 0.79975 0.95178 0.0
H321 H 0.4413 0.80226 0.95768 0.0
C322 C 0.53167 0.80748 0.00879 0.0
N323 N 0.53257 0.79464 0.98768 0.0
N324 N 0.51187 0.78242 0.98533 0.0
C325 C 0.49748 0.78657 0.00552 0.0
C326 C 0.50949 0.80275 0.02077 0.0
C327 C 0.5519 0.82365 0.0175 0.0
H328 H 0.5695 0.81295 0.01793 0.0
H329 H 0.55424 0.83932 0.00431 0.0
H330 H 0.54787 0.83096 0.03618 0.0
O331 O 0.56736 0.75604 0.95988 0.0
O332 O 0.53214 0.73544 0.95682 0.0
H333 H 0.47274 0.756 0.00465 0.0
H334 H 0.46724 0.77656 0.03008 0.0
C335 C 0.47264 0.77556 0.0103 0.0
H336 H 0.45859 0.78598 0.99958 0.0
H337 H 0.48061 0.71442 0.96814 0.0
O338 O 0.58685 0.81115 0.97282 0.0
C339 C 0.55561 0.73588 0.95807 0.0
Co340 Co 0.89462 0.7967 0.66534 0.0
Co341 Co 0.9369 0.76333 0.64336 0.0
C342 C 0.90218 0.79329 0.61136 0.0
O343 O 0.89103 0.80215 0.63005 0.0
O344 O 0.9201 0.77798 0.61345 0.0
C345 C 0.84718 0.82019 0.67409 0.0
O346 O 0.84279 0.81476 0.651 0.0
C347 C 0.94565 0.71376 0.62714 0.0
C348 C 0.98491 0.70716 0.63526 0.0
C349 C 0.96338 0.69509 0.62916 0.0
N350 N 0.95591 0.73538 0.63279 0.0
N351 N 0.97964 0.73149 0.6368 0.0
C352 C 0.91882 0.71105 0.6215 0.0
H353 H 0.91242 0.72698 0.61007 0.0
H354 H 0.90772 0.71107 0.63884 0.0
H355 H 0.91557 0.69355 0.61167 0.0
C356 C 0.88295 0.75197 0.6929 0.0
N357 N 0.89438 0.76312 0.67365 0.0
N358 N 0.91481 0.75093 0.66823 0.0
C359 C 0.91814 0.73288 0.68533 0.0
C360 C 0.89756 0.73234 0.70086 0.0
C361 C 0.86143 0.76292 0.70671 0.0
H362 H 0.86793 0.77827 0.71822 0.0
H363 H 0.84768 0.77037 0.69348 0.0
H364 H 0.85253 0.74896 0.71897 0.0
O365 O 0.92644 0.80984 0.67674 0.0
O366 O 0.95751 0.78846 0.65941 0.0
H367 H 0.9578 0.73398 0.6852 0.0
H368 H 0.9445 0.7161 0.71045 0.0
C369 C 0.94277 0.72119 0.69063 0.0
H370 H 0.94512 0.70418 0.6799 0.0
H371 H 0.99167 0.74497 0.64285 0.0
O372 O 0.86793 0.81438 0.68332 0.0
C373 C 0.94946 0.8057 0.67332 0.0
Co374 Co 0.93386 0.19161 0.45051 0.0
Co375 Co 0.98064 0.22393 0.4418 0.0
C376 C 0.96706 0.18251 0.40787 0.0
O377 O 0.94826 0.17685 0.42086 0.0
O378 O 0.98075 0.20054 0.41327 0.0
C379 C 0.89454 0.15626 0.44862 0.0
O380 O 0.9029 0.15198 0.42618 0.0
C381 C 0.03378 0.22715 0.44425 0.0
C382 C 0.04013 0.26731 0.44383 0.0
C383 C 0.05219 0.24464 0.44659 0.0
N384 N 0.01213 0.23901 0.44087 0.0
N385 N 0.01608 0.263 0.44 0.0
C386 C 0.0358 0.19967 0.44754 0.0
H387 H 0.01727 0.19127 0.44895 0.0
H388 H 0.04652 0.19479 0.46426 0.0
H389 H 0.04551 0.19174 0.43125 0.0
C390 C 0.95684 0.18244 0.4985 0.0
N391 N 0.95723 0.19246 0.47566 0.0
N392 N 0.97619 0.20728 0.47321 0.0
C393 C 0.98806 0.20775 0.49503 0.0
C394 C 0.97627 0.19188 0.51163 0.0
C395 C 0.93823 0.164 0.50731 0.0
H396 H 0.93462 0.15068 0.49245 0.0
H397 H 0.94467 0.1537 0.52391 0.0
H398 H 0.92064 0.17376 0.51185 0.0
O399 O 0.92172 0.22546 0.44412 0.0
O400 O 0.95412 0.24966 0.43811 0.0
H401 H 0.00702 0.23046 0.52085 0.0
H402 H 0.02639 0.21606 0.49806 0.0
C403 C 0.00822 0.22522 0.50112 0.0
H404 H 0.00703 0.24212 0.48941 0.0
H405 H 0.0022 0.27641 0.43814 0.0
O406 O 0.905 0.17226 0.4617 0.0
C407 C 0.93083 0.24669 0.43992 0.0
Co408 Co 0.10541 0.30018 0.83702 0.0
Co409 Co 0.06961 0.26092 0.86041 0.0
C410 C 0.10743 0.28652 0.89039 0.0
O411 O 0.11409 0.29875 0.87141 0.0
O412 O 0.09008 0.27089 0.88958 0.0
C413 C 0.15203 0.32067 0.82762 0.0
O414 O 0.15798 0.30459 0.84499 0.0
C415 C 0.06405 0.20861 0.86988 0.0
C416 C 0.02375 0.20376 0.8695 0.0
C417 C 0.04596 0.19064 0.86937 0.0
N418 N 0.05309 0.23102 0.86938 0.0
N419 N 0.02893 0.22802 0.86992 0.0
C420 C 0.09149 0.20477 0.87016 0.0
H421 H 0.10016 0.21952 0.88097 0.0
H422 H 0.09914 0.20592 0.85111 0.0
H423 H 0.09629 0.18637 0.87817 0.0
C424 C 0.11562 0.26112 0.80205 0.0
N425 N 0.1062 0.2687 0.82378 0.0
N426 N 0.08839 0.25386 0.83097 0.0
C427 C 0.08457 0.23752 0.81283 0.0
C428 C 0.1024 0.24096 0.79461 0.0
C429 C 0.13406 0.27524 0.78684 0.0
H430 H 0.12573 0.29313 0.78088 0.0
H431 H 0.15041 0.27908 0.79819 0.0
H432 H 0.14013 0.26484 0.77027 0.0
O433 O 0.07163 0.31368 0.83234 0.0
O434 O 0.04571 0.28759 0.85137 0.0
H435 H 0.05548 0.22426 0.78989 0.0
H436 H 0.0634 0.20454 0.81521 0.0
C437 C 0.06091 0.22401 0.80959 0.0
H438 H 0.04585 0.23246 0.8208 0.0
H439 H 0.01604 0.24246 0.86857 0.0
O440 O 0.12978 0.32195 0.82047 0.0
C441 C 0.04986 0.30731 0.83887 0.0
Co442 Co 0.43024 0.3018 0.53192 0.0
Co443 Co 0.47743 0.2689 0.53993 0.0
C444 C 0.46325 0.30952 0.57457 0.0
O445 O 0.44476 0.31519 0.56148 0.0
O446 O 0.4773 0.29135 0.56914 0.0
C447 C 0.38893 0.33163 0.54196 0.0
O448 O 0.39276 0.32202 0.56401 0.0
C449 C 0.53059 0.26572 0.53763 0.0
C450 C 0.53835 0.22567 0.53638 0.0
C451 C 0.54975 0.24852 0.53485 0.0
N452 N 0.50923 0.25356 0.54013 0.0
N453 N 0.51397 0.2296 0.53996 0.0
C454 C 0.53173 0.29332 0.5356 0.0
H455 H 0.51298 0.30158 0.53406 0.0
H456 H 0.54306 0.29905 0.51935 0.0
H457 H 0.54026 0.30063 0.55246 0.0
C458 C 0.45411 0.31171 0.48396 0.0
N459 N 0.45399 0.30121 0.50658 0.0
N460 N 0.47334 0.28644 0.50893 0.0
C461 C 0.48603 0.28652 0.48723 0.0
C462 C 0.47438 0.3027 0.47089 0.0
C463 C 0.43521 0.33022 0.47539 0.0
H464 H 0.41785 0.32054 0.47125 0.0
H465 H 0.43117 0.34359 0.49029 0.0
H466 H 0.44159 0.34045 0.45865 0.0
O467 O 0.41785 0.26793 0.53705 0.0
O468 O 0.45083 0.24371 0.54313 0.0
H469 H 0.50695 0.26491 0.46096 0.0
H470 H 0.52471 0.27823 0.48489 0.0
C471 C 0.50694 0.26929 0.48093 0.0
H472 H 0.50551 0.2519 0.49182 0.0
H473 H 0.50051 0.21603 0.54106 0.0
O474 O 0.40241 0.3245 0.52395 0.0
C475 C 0.42752 0.24665 0.54096 0.0
Co476 Co 0.39549 0.69247 0.33458 0.0
Co477 Co 0.43263 0.73298 0.35143 0.0
C478 C 0.39646 0.70754 0.3865 0.0
O479 O 0.38726 0.69545 0.36909 0.0
O480 O 0.41461 0.72201 0.38284 0.0
C481 C 0.35292 0.66172 0.32971 0.0
O482 O 0.34684 0.67003 0.35166 0.0
C483 C 0.4357 0.78558 0.36068 0.0
C484 C 0.47539 0.79315 0.35619 0.0
C485 C 0.45253 0.80475 0.35902 0.0
N486 N 0.44792 0.76395 0.35819 0.0
N487 N 0.47176 0.76855 0.35617 0.0
C488 C 0.40826 0.78766 0.36405 0.0
H489 H 0.40133 0.77151 0.37477 0.0
H490 H 0.39917 0.7877 0.34586 0.0
H491 H 0.40313 0.80502 0.37363 0.0
C492 C 0.38028 0.73184 0.30007 0.0
N493 N 0.39366 0.72323 0.31916 0.0
N494 N 0.41136 0.73877 0.32388 0.0
C495 C 0.41103 0.75681 0.30652 0.0
C496 C 0.39081 0.75357 0.29156 0.0
C497 C 0.35809 0.71928 0.29025 0.0
H498 H 0.36425 0.70447 0.27753 0.0
H499 H 0.34745 0.71066 0.30567 0.0
H500 H 0.346 0.73246 0.28005 0.0
O501 O 0.4295 0.67939 0.33013 0.0
O502 O 0.45706 0.70727 0.34107 0.0
H503 H 0.44955 0.76589 0.30888 0.0
H504 H 0.4349 0.77527 0.28037 0.0
C505 C 0.43231 0.77334 0.30068 0.0
H506 H 0.42847 0.7919 0.30784 0.0
H507 H 0.48536 0.75508 0.35309 0.0
O508 O 0.37269 0.66909 0.3192 0.0
C509 C 0.45183 0.6861 0.33262 0.0
Co510 Co 0.06166 0.69427 0.03991 0.0
Co511 Co 0.01153 0.72283 0.04867 0.0
C512 C 0.03258 0.6879 0.08662 0.0
O513 O 0.05123 0.68306 0.07302 0.0
O514 O 0.01581 0.70302 0.07981 0.0
C515 C 0.09453 0.65244 0.03932 0.0
O516 O 0.07909 0.64421 0.05634 0.0
C517 C 0.95871 0.72185 0.05386 0.0
C518 C 0.94696 0.75913 0.04165 0.0
C519 C 0.93803 0.73605 0.04838 0.0
N520 N 0.97883 0.73572 0.05035 0.0
N521 N 0.97172 0.75828 0.04385 0.0
C522 C 0.95964 0.69446 0.05822 0.0
H523 H 0.97844 0.68694 0.05452 0.0
H524 H 0.94622 0.68501 0.04639 0.0
H525 H 0.95453 0.69048 0.07777 0.0
C526 C 0.03519 0.67795 0.99548 0.0
N527 N 0.03595 0.69038 0.01686 0.0
N528 N 0.01527 0.70315 0.01972 0.0
C529 C 0.00108 0.69985 0.9997 0.0
C530 C 0.01312 0.68359 0.98393 0.0
C531 C 0.05586 0.66217 0.98567 0.0
H532 H 0.07293 0.67323 0.98422 0.0
H533 H 0.05936 0.64664 0.99878 0.0
H534 H 0.05159 0.65468 0.96726 0.0
O535 O 0.07114 0.72964 0.04139 0.0
O536 O 0.03551 0.75025 0.04648 0.0
H537 H 0.97745 0.73194 0.00126 0.0
H538 H 0.97191 0.71232 0.97534 0.0
C539 C 0.97681 0.71254 0.99514 0.0
H540 H 0.96208 0.7028 0.00561 0.0
H541 H 0.9838 0.77245 0.03902 0.0
O542 O 0.09087 0.67377 0.0298 0.0
C543 C 0.05893 0.7498 0.04377 0.0
Co544 Co 0.1673 0.59956 0.18836 0.0
Co545 Co 0.14772 0.56085 0.22717 0.0
C546 C 0.11438 0.59886 0.20381 0.0
O547 O 0.13251 0.60728 0.19149 0.0
O548 O 0.11686 0.58039 0.21842 0.0
C549 C 0.17263 0.64684 0.16595 0.0
O550 O 0.15331 0.65186 0.17999 0.0
C551 C 0.13728 0.54936 0.27859 0.0
C552 C 0.14433 0.50923 0.28026 0.0
C553 C 0.14057 0.52975 0.29502 0.0
N554 N 0.13986 0.54096 0.25545 0.0
N555 N 0.14302 0.51676 0.25652 0.0
C556 C 0.13581 0.5762 0.28481 0.0
H557 H 0.15134 0.58126 0.2968 0.0
H558 H 0.11847 0.57981 0.29538 0.0
H559 H 0.13595 0.58789 0.26782 0.0
C560 C 0.20301 0.6091 0.22657 0.0
N561 N 0.18197 0.59868 0.21935 0.0
N562 N 0.17571 0.58099 0.23505 0.0
C563 C 0.19357 0.57893 0.25226 0.0
C564 C 0.21105 0.59696 0.24764 0.0
C565 C 0.21647 0.62854 0.21203 0.0
H566 H 0.22365 0.62053 0.19456 0.0
H567 H 0.2035 0.64384 0.20733 0.0
H568 H 0.23204 0.6361 0.22253 0.0
O569 O 0.17287 0.56727 0.17286 0.0
O570 O 0.15834 0.53912 0.19942 0.0
H571 H 0.21703 0.55274 0.27144 0.0
H572 H 0.18971 0.56188 0.28786 0.0
C573 C 0.19711 0.55723 0.26932 0.0
H574 H 0.18774 0.54078 0.26227 0.0
H575 H 0.14677 0.50579 0.24119 0.0
O576 O 0.18216 0.62528 0.16674 0.0
C577 C 0.16881 0.54485 0.1789 0.0
Co578 Co 0.64768 0.88275 0.81326 0.0
Co579 Co 0.63517 0.92121 0.77146 0.0
C580 C 0.59602 0.89216 0.79807 0.0
O581 O 0.61229 0.88217 0.81156 0.0
O582 O 0.60161 0.90756 0.78098 0.0
C583 C 0.64375 0.83992 0.84462 0.0
O584 O 0.62009 0.84191 0.83988 0.0
C585 C 0.62959 0.93062 0.7188 0.0
C586 C 0.63335 0.97101 0.71562 0.0
C587 C 0.63167 0.94982 0.70169 0.0
N588 N 0.63066 0.93991 0.74162 0.0
N589 N 0.63219 0.96419 0.73964 0.0
C590 C 0.62768 0.90364 0.71356 0.0
H591 H 0.6183 0.89398 0.7292 0.0
H592 H 0.64636 0.89535 0.71125 0.0
H593 H 0.61746 0.90087 0.6962 0.0
C594 C 0.6822 0.86404 0.77671 0.0
N595 N 0.66234 0.87818 0.78218 0.0
N596 N 0.6604 0.89635 0.76593 0.0
C597 C 0.68034 0.89527 0.75062 0.0
C598 C 0.69434 0.87444 0.75658 0.0
C599 C 0.6911 0.84283 0.79238 0.0
H600 H 0.70011 0.85002 0.80905 0.0
H601 H 0.67522 0.83138 0.79837 0.0
H602 H 0.7046 0.83112 0.78212 0.0
O603 O 0.65848 0.91466 0.82591 0.0
O604 O 0.64776 0.94303 0.79773 0.0
H605 H 0.67704 0.93258 0.7358 0.0
H606 H 0.70774 0.92257 0.74337 0.0
C607 C 0.68991 0.91662 0.73567 0.0
H608 H 0.69386 0.91055 0.71658 0.0
H609 H 0.63402 0.97592 0.75459 0.0
O610 O 0.6585 0.85602 0.83596 0.0
C611 C 0.65743 0.93705 0.81839 0.0
Co612 Co 0.80027 0.96186 0.56375 0.0
Co613 Co 0.77205 0.94994 0.51532 0.0
C614 C 0.81327 0.91751 0.53463 0.0
O615 O 0.81682 0.9319 0.55248 0.0
O616 O 0.79613 0.92167 0.51921 0.0
C617 C 0.81641 0.97512 0.61392 0.0
O618 O 0.79501 0.96773 0.62278 0.0
C619 C 0.77242 0.94908 0.46207 0.0
C620 C 0.73286 0.948 0.45299 0.0
C621 C 0.75623 0.95026 0.44229 0.0
N622 N 0.75914 0.9469 0.48309 0.0
N623 N 0.73554 0.94559 0.47758 0.0
C624 C 0.79987 0.95234 0.46177 0.0
H625 H 0.80686 0.95462 0.48074 0.0
H626 H 0.80515 0.96856 0.45024 0.0
H627 H 0.80886 0.93566 0.45385 0.0
C628 C 0.80913 0.00851 0.53708 0.0
N629 N 0.79984 0.98562 0.53817 0.0
N630 N 0.78697 0.98162 0.51821 0.0
C631 C 0.78681 0.0025 0.50422 0.0
C632 C 0.80105 0.02002 0.51562 0.0
C633 C 0.82619 0.0186 0.55588 0.0
H634 H 0.8156 0.02253 0.5731 0.0
H635 H 0.84067 0.00462 0.56026 0.0
H636 H 0.8353 0.03571 0.54924 0.0
O637 O 0.76584 0.95486 0.57504 0.0
O638 O 0.74518 0.94796 0.54042 0.0
H639 H 0.75431 0.99534 0.48311 0.0
H640 H 0.76511 0.02672 0.48101 0.0
C641 C 0.77095 0.00702 0.48214 0.0
H642 H 0.78165 0.00284 0.4651 0.0
H643 H 0.72124 0.94445 0.49063 0.0
O644 O 0.82085 0.97403 0.59086 0.0
C645 C 0.74588 0.95017 0.56381 0.0
Co646 Co 0.83858 0.10147 0.30033 0.0
Co647 Co 0.85825 0.05932 0.26605 0.0
C648 C 0.89213 0.09465 0.29112 0.0
O649 O 0.87385 0.1057 0.30103 0.0
O650 O 0.88933 0.07599 0.27738 0.0
C651 C 0.8325 0.14886 0.32327 0.0
O652 O 0.85424 0.15362 0.3134 0.0
C653 C 0.86964 0.04903 0.2149 0.0
C654 C 0.86456 0.00884 0.21269 0.0
C655 C 0.86779 0.02992 0.19817 0.0
N656 N 0.86674 0.03981 0.23792 0.0
N657 N 0.86445 0.01563 0.23654 0.0
C658 C 0.87341 0.07588 0.20923 0.0
H659 H 0.88414 0.08437 0.22415 0.0
H660 H 0.85538 0.08568 0.20833 0.0
H661 H 0.88317 0.07832 0.19121 0.0
C662 C 0.80758 0.11313 0.25859 0.0
N663 N 0.82764 0.10176 0.26794 0.0
N664 N 0.83258 0.08163 0.25542 0.0
C665 C 0.8144 0.07849 0.23898 0.0
C666 C 0.79869 0.09887 0.23976 0.0
C667 C 0.79441 0.13437 0.27054 0.0
H668 H 0.78443 0.12764 0.2873 0.0
H669 H 0.80798 0.14831 0.27615 0.0
H670 H 0.78086 0.1431 0.2578 0.0
O671 O 0.82792 0.0697 0.3152 0.0
O672 O 0.84339 0.0387 0.29285 0.0
H673 H 0.81741 0.03877 0.23842 0.0
H674 H 0.788 0.05117 0.22852 0.0
C675 C 0.80826 0.05407 0.22812 0.0
H676 H 0.81435 0.05365 0.20863 0.0
H677 H 0.86081 0.00405 0.25169 0.0
O678 O 0.8227 0.12805 0.31968 0.0
C679 C 0.83063 0.04669 0.31109 0.0
Co680 Co 0.69984 0.02971 0.06513 0.0
Co681 Co 0.72884 0.03406 0.01478 0.0
C682 C 0.69479 0.07418 0.03204 0.0
O683 O 0.68951 0.0621 0.0516 0.0
O684 O 0.70994 0.06585 0.01602 0.0
C685 C 0.65457 0.02694 0.08985 0.0
O686 O 0.64775 0.03399 0.06761 0.0
C687 C 0.73013 0.03636 0.96173 0.0
C688 C 0.76708 0.02154 0.9521 0.0
C689 C 0.74487 0.02928 0.94192 0.0
N690 N 0.74292 0.03293 0.98255 0.0
N691 N 0.76532 0.02479 0.9767 0.0
C692 C 0.70306 0.04245 0.96129 0.0
H693 H 0.69435 0.03881 0.97961 0.0
H694 H 0.69359 0.03159 0.94709 0.0
H695 H 0.70061 0.06232 0.95655 0.0
C696 C 0.68477 0.98226 0.0429 0.0
N697 N 0.6965 0.0041 0.04166 0.0
N698 N 0.7082 0.00598 0.02024 0.0
C699 C 0.70404 0.98539 0.00713 0.0
C700 C 0.689 0.96985 0.021 0.0
C701 C 0.66974 0.97345 0.06463 0.0
H702 H 0.65146 0.98288 0.06439 0.0
H703 H 0.66654 0.95332 0.06416 0.0
H704 H 0.67913 0.97795 0.08203 0.0
O705 O 0.73475 0.03163 0.07552 0.0
O706 O 0.75564 0.03327 0.0397 0.0
H707 H 0.71458 0.95943 0.97869 0.0
H708 H 0.7064 0.98989 0.96789 0.0
C709 C 0.71589 0.97939 0.98276 0.0
H710 H 0.73561 0.98451 0.98277 0.0
H711 H 0.77869 0.01973 0.98957 0.0
O712 O 0.67745 0.02364 0.09397 0.0
C713 C 0.75502 0.03264 0.06326 0.0
Co714 Co 0.34245 0.38361 0.68984 0.0
Co715 Co 0.35653 0.42969 0.72103 0.0
C716 C 0.39488 0.39717 0.69754 0.0
O717 O 0.37821 0.38389 0.68866 0.0
O718 O 0.3897 0.41598 0.71052 0.0
C719 C 0.3457 0.34194 0.65781 0.0
O720 O 0.36797 0.3503 0.65319 0.0
C721 C 0.36665 0.44844 0.76979 0.0
C722 C 0.35456 0.48728 0.76615 0.0
C723 C 0.36121 0.46935 0.78351 0.0
N724 N 0.36235 0.45355 0.74585 0.0
N725 N 0.35616 0.47711 0.74365 0.0
C726 C 0.37231 0.42302 0.7796 0.0
H727 H 0.37389 0.40957 0.76438 0.0
H728 H 0.35788 0.4171 0.79307 0.0
H729 H 0.39007 0.4233 0.78956 0.0
C730 C 0.31232 0.37207 0.73304 0.0
N731 N 0.3309 0.38481 0.72251 0.0
N732 N 0.33403 0.40551 0.73449 0.0
C733 C 0.31629 0.40717 0.75223 0.0
C734 C 0.30249 0.38575 0.75228 0.0
C735 C 0.30089 0.35003 0.72163 0.0
H736 H 0.29076 0.35599 0.70485 0.0
H737 H 0.31556 0.33668 0.71602 0.0
H738 H 0.2878 0.34083 0.73464 0.0
O739 O 0.32806 0.41246 0.67227 0.0
O740 O 0.33946 0.44591 0.69254 0.0
H741 H 0.31499 0.44692 0.75412 0.0
H742 H 0.28874 0.43186 0.76804 0.0
C743 C 0.30901 0.4306 0.76506 0.0
H744 H 0.31754 0.43085 0.78352 0.0
H745 H 0.35069 0.4856 0.72716 0.0
O746 O 0.33159 0.35333 0.67293 0.0
C747 C 0.32807 0.43582 0.67491 0.0
Co748 Co 0.30686 0.54083 0.43898 0.0
Co749 Co 0.27186 0.55299 0.48374 0.0
C750 C 0.31339 0.58657 0.4668 0.0
O751 O 0.32042 0.5722 0.44968 0.0
O752 O 0.29485 0.58177 0.48068 0.0
C753 C 0.34216 0.53941 0.39848 0.0
O754 O 0.34478 0.56304 0.40274 0.0
C755 C 0.26781 0.5516 0.53673 0.0
C756 C 0.22768 0.54881 0.5433 0.0
C757 C 0.25028 0.54653 0.55507 0.0
N758 N 0.25613 0.55552 0.51528 0.0
N759 N 0.23208 0.55481 0.51945 0.0
C760 C 0.29535 0.54899 0.53843 0.0
H761 H 0.30428 0.5509 0.51998 0.0
H762 H 0.3006 0.53091 0.54682 0.0
H763 H 0.30241 0.56369 0.55041 0.0
C764 C 0.31785 0.49677 0.46973 0.0
N765 N 0.3059 0.51834 0.4656 0.0
N766 N 0.28887 0.52166 0.48277 0.0
C767 C 0.28819 0.50128 0.49741 0.0
C768 C 0.30699 0.48509 0.49011 0.0
C769 C 0.33996 0.48842 0.45504 0.0
H770 H 0.33378 0.47735 0.43923 0.0
H771 H 0.35015 0.50462 0.44767 0.0
H772 H 0.35259 0.47694 0.46651 0.0
O773 O 0.27296 0.54537 0.42578 0.0
O774 O 0.24734 0.55434 0.45691 0.0
H775 H 0.26322 0.47547 0.51463 0.0
H776 H 0.27305 0.49958 0.53426 0.0
C777 C 0.26755 0.49543 0.51518 0.0
H778 H 0.25074 0.50633 0.51053 0.0
H779 H 0.21882 0.55613 0.50567 0.0
O780 O 0.32726 0.52688 0.41179 0.0
C781 C 0.25132 0.55036 0.43404 0.0
Co782 Co 0.1979 0.45553 0.93246 0.0
Co783 Co 0.23113 0.44624 0.97855 0.0
C784 C 0.19527 0.40848 0.96122 0.0
O785 O 0.18823 0.42231 0.94351 0.0
O786 O 0.21185 0.41509 0.97605 0.0
C787 C 0.15335 0.45904 0.90547 0.0
O788 O 0.14555 0.44396 0.92303 0.0
C789 C 0.23368 0.44143 0.03124 0.0
C790 C 0.27137 0.45333 0.03964 0.0
C791 C 0.24896 0.44702 0.0506 0.0
N792 N 0.24631 0.44442 0.00995 0.0
N793 N 0.26913 0.45076 0.01505 0.0
C794 C 0.20632 0.43762 0.03272 0.0
H795 H 0.19776 0.44031 0.0144 0.0
H796 H 0.19756 0.45052 0.04607 0.0
H797 H 0.20275 0.41853 0.03942 0.0
C798 C 0.18359 0.50005 0.96004 0.0
N799 N 0.19576 0.47829 0.95836 0.0
N800 N 0.21022 0.47528 0.97755 0.0
C801 C 0.20772 0.49541 0.99201 0.0
C802 C 0.19072 0.51156 0.98139 0.0
C803 C 0.16584 0.50983 0.94123 0.0
H804 H 0.17537 0.51148 0.92303 0.0
H805 H 0.15048 0.49667 0.93949 0.0
H806 H 0.15794 0.52806 0.94639 0.0
O807 O 0.23196 0.45515 0.91938 0.0
O808 O 0.25664 0.44837 0.95135 0.0
H809 H 0.24215 0.49373 0.01119 0.0
H810 H 0.22335 0.52064 0.01795 0.0
C811 C 0.223 0.50056 0.01412 0.0
H812 H 0.21486 0.49111 0.03051 0.0
H813 H 0.28248 0.45532 0.00174 0.0
O814 O 0.17561 0.46617 0.9056 0.0
C815 C 0.25349 0.45237 0.9283 0.0
H816 H 0.29833 0.32545 0.65427 0.0
H817 H 0.37422 0.30721 0.63427 0.0
H818 H 0.36042 0.26842 0.61564 0.0
H819 H 0.27905 0.26518 0.6703 0.0
H820 H 0.24877 0.26868 0.6572 0.0
H821 H 0.26455 0.29529 0.66835 0.0
H822 H 0.2601 0.31686 0.62557 0.0
H823 H 0.24416 0.29037 0.61433 0.0
H824 H 0.27131 0.3014 0.59828 0.0
H825 H 0.33846 0.23011 0.60199 0.0
H826 H 0.30974 0.19656 0.59236 0.0
H827 H 0.24812 0.24201 0.61762 0.0
C828 C 0.31204 0.31334 0.6459 0.0
C829 C 0.33735 0.31923 0.64586 0.0
C830 C 0.35471 0.30303 0.63453 0.0
C831 C 0.34707 0.28096 0.62392 0.0
C832 C 0.32197 0.27559 0.62447 0.0
C833 C 0.3047 0.29148 0.63488 0.0
C834 C 0.27885 0.2815 0.63298 0.0
C835 C 0.26713 0.27742 0.65874 0.0
C836 C 0.26265 0.29855 0.61682 0.0
C837 C 0.28433 0.25725 0.62041 0.0
C838 C 0.30929 0.2541 0.61571 0.0
C839 C 0.31883 0.23252 0.60531 0.0
C840 C 0.30238 0.21363 0.59977 0.0
C841 C 0.27672 0.21658 0.60439 0.0
C842 C 0.26766 0.23889 0.61443 0.0
H843 H 0.38263 0.55747 0.37353 0.0
H844 H 0.33562 0.49331 0.3799 0.0
H845 H 0.36198 0.47161 0.34947 0.0
H846 H 0.39733 0.55036 0.3071 0.0
H847 H 0.42904 0.55915 0.30948 0.0
H848 H 0.40602 0.57251 0.32985 0.0
H849 H 0.42873 0.55819 0.36879 0.0
H850 H 0.45335 0.54581 0.34994 0.0
H851 H 0.43799 0.52625 0.37233 0.0
H852 H 0.39511 0.45558 0.32125 0.0
H853 H 0.43452 0.44517 0.30012 0.0
H854 H 0.46124 0.51869 0.3142 0.0
C855 C 0.37758 0.53905 0.36813 0.0
C856 C 0.357 0.52713 0.37899 0.0
C857 C 0.35127 0.50284 0.37178 0.0
C858 C 0.36604 0.49041 0.35438 0.0
C859 C 0.38643 0.50253 0.34431 0.0
C860 C 0.39225 0.52629 0.35095 0.0
C861 C 0.41642 0.53427 0.33911 0.0
C862 C 0.41194 0.55534 0.32031 0.0
C863 C 0.43522 0.54155 0.35871 0.0
C864 C 0.42407 0.51072 0.32618 0.0
C865 C 0.40608 0.49295 0.32867 0.0
C866 C 0.40928 0.46937 0.31909 0.0
C867 C 0.43175 0.46358 0.30729 0.0
C868 C 0.45094 0.48104 0.30579 0.0
C869 C 0.44677 0.5051 0.31478 0.0
H870 H 0.19607 0.78585 0.12427 0.0
H871 H 0.26401 0.7602 0.08966 0.0
H872 H 0.25193 0.71681 0.09768 0.0
H873 H 0.1969 0.74395 0.17281 0.0
H874 H 0.16403 0.73921 0.17457 0.0
H875 H 0.17584 0.76785 0.16244 0.0
H876 H 0.1519 0.76195 0.12186 0.0
H877 H 0.1397 0.73343 0.13412 0.0
H878 H 0.15603 0.73371 0.10492 0.0
H879 H 0.23482 0.677 0.11362 0.0
H880 H 0.21405 0.64326 0.13653 0.0
H881 H 0.15745 0.69504 0.16152 0.0
C882 C 0.20794 0.77096 0.11782 0.0
C883 C 0.23071 0.77594 0.10612 0.0
C884 C 0.24633 0.75637 0.09839 0.0
C885 C 0.2396 0.73181 0.10283 0.0
C886 C 0.2172 0.72735 0.11498 0.0
C887 C 0.20153 0.74636 0.12226 0.0
C888 C 0.17979 0.73669 0.13716 0.0
C889 C 0.17912 0.74757 0.16329 0.0
C890 C 0.15541 0.74175 0.1237 0.0
C891 C 0.18609 0.7094 0.13778 0.0
C892 C 0.20754 0.70434 0.12459 0.0
C893 C 0.2178 0.68065 0.12371 0.0
C894 C 0.20592 0.66163 0.13683 0.0
C895 C 0.18412 0.66652 0.15077 0.0
C896 C 0.17398 0.69067 0.1509 0.0
H897 H 0.10362 0.45127 0.90335 0.0
H898 H 0.16318 0.49184 0.86769 0.0
H899 H 0.13312 0.5122 0.83993 0.0
H900 H 0.06737 0.44207 0.84821 0.0
H901 H 0.03834 0.44608 0.86442 0.0
H902 H 0.06477 0.43376 0.88049 0.0
H903 H 0.06009 0.46824 0.91304 0.0
H904 H 0.03377 0.48077 0.89699 0.0
H905 H 0.05978 0.50012 0.903 0.0
H906 H 0.09627 0.52922 0.81702 0.0
H907 H 0.05527 0.54086 0.80025 0.0
H908 H 0.02019 0.48985 0.85161 0.0
C909 C 0.11043 0.46421 0.88953 0.0
C910 C 0.13576 0.4699 0.88764 0.0
C911 C 0.14386 0.48712 0.86942 0.0
C912 C 0.12693 0.4988 0.85358 0.0
C913 C 0.10204 0.49303 0.85622 0.0
C914 C 0.09383 0.47606 0.87366 0.0
C915 C 0.06604 0.47362 0.87321 0.0
C916 C 0.05871 0.44732 0.86616 0.0
C917 C 0.05423 0.48115 0.89803 0.0
C918 C 0.05986 0.49206 0.85295 0.0
C919 C 0.08086 0.50301 0.84329 0.0
C920 C 0.07971 0.52076 0.82443 0.0
C921 C 0.05646 0.52734 0.81513 0.0
C922 C 0.03486 0.51627 0.82484 0.0
C923 C 0.03658 0.4985 0.84397 0.0
H924 H 0.79729 0.28585 0.36423 0.0
H925 H 0.72837 0.2561 0.39222 0.0
H926 H 0.74367 0.21371 0.38418 0.0
H927 H 0.80427 0.24587 0.31482 0.0
H928 H 0.83734 0.24233 0.31666 0.0
H929 H 0.82249 0.27003 0.32772 0.0
H930 H 0.84235 0.26319 0.3706 0.0
H931 H 0.85738 0.23545 0.35966 0.0
H932 H 0.83792 0.23434 0.38692 0.0
H933 H 0.7642 0.17561 0.36927 0.0
H934 H 0.78883 0.14342 0.34833 0.0
H935 H 0.84488 0.19744 0.32955 0.0
C936 C 0.78576 0.27027 0.36905 0.0
C937 C 0.76176 0.27387 0.37877 0.0
C938 C 0.74683 0.25338 0.38469 0.0
C939 C 0.7554 0.22936 0.38031 0.0
C940 C 0.77897 0.22628 0.37014 0.0
C941 C 0.79404 0.2461 0.36468 0.0
C942 C 0.8178 0.2377 0.3521 0.0
C943 C 0.82062 0.24969 0.3263 0.0
C944 C 0.84019 0.24298 0.36829 0.0
C945 C 0.81326 0.21022 0.3505 0.0
C946 C 0.79091 0.20404 0.36138 0.0
C947 C 0.7819 0.1801 0.36099 0.0
C948 C 0.79599 0.16197 0.34895 0.0
C949 C 0.81879 0.1679 0.33732 0.0
C950 C 0.82764 0.1923 0.33845 0.0
H951 H 0.60592 0.01788 0.08227 0.0
H952 H 0.66047 0.02161 0.14 0.0
H953 H 0.62824 0.01118 0.17123 0.0
H954 H 0.55487 0.04383 0.11598 0.0
H955 H 0.53261 0.02345 0.10296 0.0
H956 H 0.55992 0.0316 0.08551 0.0
H957 H 0.5711 0.9852 0.08064 0.0
H958 H 0.54383 0.97691 0.09809 0.0
H959 H 0.57371 0.96575 0.10779 0.0
H960 H 0.58933 0.00103 0.19614 0.0
H961 H 0.54762 0.99017 0.21219 0.0
H962 H 0.51969 0.99171 0.13764 0.0
C963 C 0.61111 0.01667 0.1015 0.0
C964 C 0.63564 0.02078 0.10878 0.0
C965 C 0.64175 0.01859 0.13406 0.0
C966 C 0.62358 0.01272 0.1519 0.0
C967 C 0.59952 0.00882 0.14405 0.0
C968 C 0.59336 0.01052 0.11939 0.0
C969 C 0.56642 0.00486 0.11554 0.0
C970 C 0.55265 0.02728 0.10434 0.0
C971 C 0.56362 0.98181 0.09957 0.0
C972 C 0.55823 -7e-05 0.14191 0.0
C973 C 0.5775 0.00239 0.15815 0.0
C974 C 0.57415 0.99902 0.18357 0.0
C975 C 0.55049 0.99296 0.19252 0.0
C976 C 0.53069 0.99031 0.17606 0.0
C977 C 0.53466 0.99369 0.1505 0.0
H978 H 0.69181 0.82971 0.8568 0.0
H979 H 0.61815 0.79881 0.85878 0.0
H980 H 0.63545 0.75906 0.87361 0.0
H981 H 0.72292 0.77727 0.83458 0.0
H982 H 0.75006 0.78075 0.85305 0.0
H983 H 0.73191 0.8075 0.84437 0.0
H984 H 0.72651 0.81923 0.8904 0.0
H985 H 0.74493 0.7927 0.89923 0.0
H986 H 0.71434 0.79686 0.91215 0.0
H987 H 0.66088 0.72186 0.8834 0.0
H988 H 0.69257 0.69026 0.89374 0.0
H989 H 0.74957 0.74551 0.88719 0.0
C990 C 0.67925 0.81472 0.86074 0.0
C991 C 0.65364 0.81732 0.85655 0.0
C992 C 0.63783 0.79725 0.86186 0.0
C993 C 0.64747 0.77458 0.87021 0.0
C994 C 0.67288 0.77243 0.87337 0.0
C995 C 0.68853 0.79203 0.86924 0.0
C996 C 0.71519 0.78464 0.87369 0.0
C997 C 0.73094 0.78773 0.85001 0.0
C998 C 0.72586 0.79922 0.89515 0.0
C999 C 0.71209 0.75768 0.88058 0.0
C1000 C 0.68754 0.75104 0.8801 0.0
C1001 C 0.68008 0.7269 0.88451 0.0
C1002 C 0.69814 0.70916 0.89032 0.0
C1003 C 0.72326 0.71569 0.89157 0.0
C1004 C 0.73039 0.74018 0.88644 0.0
H1005 H 0.86297 0.98957 0.60074 0.0
H1006 H 0.81435 0.98005 0.66448 0.0
H1007 H 0.84798 0.9932 0.69172 0.0
H1008 H 0.91722 0.96612 0.62866 0.0
H1009 H 0.93742 0.98769 0.61313 0.0
H1010 H 0.90917 0.97872 0.59881 0.0
H1011 H 0.89561 0.02469 0.59497 0.0
H1012 H 0.92387 0.03382 0.60923 0.0
H1013 H 0.89454 0.04353 0.62216 0.0
H1014 H 0.88776 0.00652 0.71198 0.0
H1015 H 0.93016 0.0185 0.72333 0.0
H1016 H 0.95213 0.01835 0.64614 0.0
C1017 C 0.85921 0.9904 0.6204 0.0
C1018 C 0.83596 0.98381 0.63047 0.0
C1019 C 0.83199 0.98505 0.65634 0.0
C1020 C 0.85098 0.99251 0.67194 0.0
C1021 C 0.87375 0.99868 0.66135 0.0
C1022 C 0.87787 0.99772 0.63615 0.0
C1023 C 0.90408 0.00461 0.6293 0.0
C1024 C 0.91777 0.98299 0.61674 0.0
C1025 C 0.90454 0.02806 0.61295 0.0
C1026 C 0.91425 0.0094 0.65461 0.0
C1027 C 0.89649 0.00601 0.6729 0.0
C1028 C 0.90178 0.00916 0.69779 0.0
C1029 C 0.92587 0.0158 0.70409 0.0
C1030 C 0.94426 0.019 0.68558 0.0
C1031 C 0.93829 0.01597 0.66058 0.0
H1032 H 0.62203 0.30092 0.20414 0.0
H1033 H 0.58891 0.23554 0.23654 0.0
H1034 H 0.59536 0.25188 0.27834 0.0
H1035 H 0.66933 0.30496 0.24475 0.0
H1036 H 0.66976 0.33814 0.2468 0.0
H1037 H 0.65822 0.32395 0.21953 0.0
H1038 H 0.61668 0.34776 0.22453 0.0
H1039 H 0.62819 0.36232 0.25175 0.0
H1040 H 0.59966 0.34554 0.25329 0.0
H1041 H 0.61113 0.27162 0.31576 0.0
H1042 H 0.63416 0.29416 0.347 0.0
H1043 H 0.65742 0.34729 0.29088 0.0
C1044 C 0.61543 0.29059 0.22012 0.0
C1045 C 0.60484 0.26718 0.21745 0.0
C1046 C 0.5969 0.25363 0.2385 0.0
C1047 C 0.60044 0.26279 0.26221 0.0
C1048 C 0.61177 0.28559 0.26442 0.0
C1049 C 0.61893 0.29948 0.24398 0.0
C1050 C 0.63299 0.32213 0.25155 0.0
C1051 C 0.65912 0.32228 0.23997 0.0
C1052 C 0.61852 0.34584 0.24489 0.0
C1053 C 0.63377 0.31805 0.27928 0.0
C1054 C 0.62102 0.2971 0.2863 0.0
C1055 C 0.62075 0.28834 0.3106 0.0
C1056 C 0.63404 0.30119 0.32818 0.0
C1057 C 0.64752 0.32253 0.3214 0.0
C1058 C 0.647 0.33125 0.29668 0.0
H1059 H 0.49777 0.85104 0.02679 0.0
H1060 H 0.49982 0.7805 0.06534 0.0
H1061 H 0.48434 0.80064 0.10359 0.0
H1062 H 0.51761 0.88794 0.07676 0.0
H1063 H 0.49749 0.91366 0.06927 0.0
H1064 H 0.50846 0.89346 0.04526 0.0
H1065 H 0.46331 0.8851 0.03275 0.0
H1066 H 0.45218 0.90526 0.05673 0.0
H1067 H 0.44163 0.87387 0.05569 0.0
H1068 H 0.47018 0.8293 0.13791 0.0
H1069 H 0.45674 0.86358 0.16498 0.0
H1070 H 0.4627 0.91474 0.10286 0.0
C1071 C 0.49487 0.83992 0.04334 0.0
C1072 C 0.49985 0.81436 0.04341 0.0
C1073 C 0.49591 0.80016 0.06516 0.0
C1074 C 0.4872 0.81144 0.08686 0.0
C1075 C 0.48245 0.83682 0.08625 0.0
C1076 C 0.48601 0.85083 0.06498 0.0
C1077 C 0.47944 0.87769 0.06904 0.0
C1078 C 0.5021 0.89415 0.06484 0.0
C1079 C 0.45785 0.88596 0.05258 0.0
C1080 C 0.47178 0.87671 0.09597 0.0
C1081 C 0.47374 0.85304 0.10567 0.0
C1082 C 0.46839 0.84787 0.13045 0.0
C1083 C 0.46082 0.86743 0.14568 0.0
C1084 C 0.45848 0.89175 0.13596 0.0
C1085 C 0.46398 0.8963 0.11077 0.0
H1086 H 0.87039 0.69211 0.71287 0.0
H1087 H 0.9183 0.74691 0.7434 0.0
H1088 H 0.90863 0.73142 0.78565 0.0
H1089 H 0.82391 0.69747 0.7555 0.0
H1090 H 0.8161 0.66524 0.75759 0.0
H1091 H 0.83013 0.6774 0.72979 0.0
H1092 H 0.86551 0.64489 0.73283 0.0
H1093 H 0.85139 0.63231 0.76052 0.0
H1094 H 0.88303 0.64219 0.76083 0.0
H1095 H 0.88897 0.71439 0.8241 0.0
H1096 H 0.86229 0.6956 0.85635 0.0
H1097 H 0.82745 0.65129 0.80075 0.0
C1098 C 0.87945 0.70013 0.72851 0.0
C1099 C 0.8954 0.72025 0.72522 0.0
C1100 C 0.90644 0.73108 0.74584 0.0
C1101 C 0.90103 0.72243 0.76979 0.0
C1102 C 0.88469 0.70288 0.7726 0.0
C1103 C 0.87433 0.6916 0.7525 0.0
C1104 C 0.85568 0.67245 0.76062 0.0
C1105 C 0.82994 0.67852 0.75027 0.0
C1106 C 0.86443 0.64641 0.75327 0.0
C1107 C 0.85627 0.6756 0.78834 0.0
C1108 C 0.87334 0.693 0.79489 0.0
C1109 C 0.87589 0.70038 0.81927 0.0
C1110 C 0.86054 0.68972 0.83743 0.0
C1111 C 0.84284 0.67195 0.83108 0.0
C1112 C 0.84097 0.66465 0.80624 0.0
H1113 H 0.02064 0.17638 0.5298 0.0
H1114 H 0.94544 0.1946 0.55168 0.0
H1115 H 0.95399 0.18018 0.59428 0.0
H1116 H 0.02467 0.1215 0.56189 0.0
H1117 H 0.05641 0.12421 0.57096 0.0
H1118 H 0.04578 0.13981 0.54351 0.0
H1119 H 0.06069 0.18154 0.56026 0.0
H1120 H 0.07154 0.16604 0.5878 0.0
H1121 H 0.05011 0.19166 0.59022 0.0
H1122 H 0.96877 0.15851 0.63237 0.0
H1123 H 0.98882 0.13154 0.66347 0.0
H1124 H 0.0548 0.12776 0.61718 0.0
C1125 C 0.00629 0.17803 0.54383 0.0
C1126 C 0.98243 0.18657 0.53767 0.0
C1127 C 0.96382 0.18799 0.55619 0.0
C1128 C 0.96855 0.17999 0.5804 0.0
C1129 C 0.99207 0.17086 0.58579 0.0
C1130 C 0.01073 0.17004 0.56809 0.0
C1131 C 0.03361 0.15719 0.57804 0.0
C1132 C 0.0405 0.13432 0.56269 0.0
C1133 C 0.05526 0.17519 0.57915 0.0
C1134 C 0.02454 0.15 0.60371 0.0
C1135 C 0.00067 0.15838 0.60794 0.0
C1136 C 0.98764 0.15227 0.62949 0.0
C1137 C 0.99916 0.13688 0.64703 0.0
C1138 C 0.02344 0.12769 0.64287 0.0
C1139 C 0.03639 0.13483 0.62113 0.0
H1140 H 0.16632 0.15598 0.69528 0.0
H1141 H 0.13903 0.20791 0.63997 0.0
H1142 H 0.1132 0.22833 0.67171 0.0
H1143 H 0.10913 0.15195 0.73288 0.0
H1144 H 0.12567 0.15116 0.76159 0.0
H1145 H 0.13963 0.13833 0.73414 0.0
H1146 H 0.17752 0.16641 0.73892 0.0
H1147 H 0.16393 0.17894 0.76658 0.0
H1148 H 0.17291 0.1993 0.74152 0.0
H1149 H 0.09413 0.24584 0.70965 0.0
H1150 H 0.08492 0.26058 0.75193 0.0
H1151 H 0.12431 0.19753 0.78265 0.0
C1152 C 0.15456 0.17136 0.68978 0.0
C1153 C 0.15457 0.18033 0.6652 0.0
C1154 C 0.1393 0.20077 0.65875 0.0
C1155 C 0.12442 0.21236 0.67659 0.0
C1156 C 0.12503 0.20325 0.70074 0.0
C1157 C 0.13978 0.18329 0.7074 0.0
C1158 C 0.13899 0.17874 0.73501 0.0
C1159 C 0.12766 0.15354 0.74127 0.0
C1160 C 0.16487 0.181 0.74615 0.0
C1161 C 0.12208 0.19972 0.74293 0.0
C1162 C 0.1139 0.2134 0.72281 0.0
C1163 C 0.09994 0.23502 0.72553 0.0
C1164 C 0.09477 0.24323 0.74947 0.0
C1165 C 0.10361 0.22982 0.77013 0.0
C1166 C 0.11688 0.20758 0.76693 0.0
H1167 H 0.51911 0.31907 0.45459 0.0
H1168 H 0.44589 0.30089 0.4299 0.0
H1169 H 0.45665 0.31586 0.3878 0.0
H1170 H 0.52344 0.37446 0.42319 0.0
H1171 H 0.55581 0.37192 0.4153 0.0
H1172 H 0.54388 0.35607 0.44221 0.0
H1173 H 0.56115 0.31455 0.4257 0.0
H1174 H 0.57326 0.33032 0.3987 0.0
H1175 H 0.55281 0.30463 0.39532 0.0
H1176 H 0.47327 0.33763 0.35045 0.0
H1177 H 0.4944 0.36493 0.32034 0.0
H1178 H 0.55718 0.36887 0.3691 0.0
C1179 C 0.50568 0.3176 0.44006 0.0
C1180 C 0.48174 0.30886 0.44524 0.0
C1181 C 0.46431 0.30766 0.42612 0.0
C1182 C 0.47032 0.31595 0.40219 0.0
C1183 C 0.4939 0.32518 0.39775 0.0
C1184 C 0.51138 0.32591 0.4161 0.0
C1185 C 0.53448 0.33893 0.40713 0.0
C1186 C 0.53969 0.36169 0.42289 0.0
C1187 C 0.55674 0.32103 0.40668 0.0
C1188 C 0.52685 0.34628 0.38122 0.0
C1189 C 0.50354 0.33782 0.37605 0.0
C1190 C 0.49172 0.34397 0.35408 0.0
C1191 C 0.50385 0.35955 0.33712 0.0
C1192 C 0.5275 0.3689 0.34229 0.0
C1193 C 0.5393 0.36168 0.36441 0.0
H1194 H 0.37763 0.74445 0.24372 0.0
H1195 H 0.38216 0.80215 0.2981 0.0
H1196 H 0.36542 0.83246 0.268 0.0
H1197 H 0.39414 0.78259 0.19003 0.0
H1198 H 0.37275 0.76777 0.16997 0.0
H1199 H 0.38616 0.75073 0.19538 0.0
H1200 H 0.3424 0.74007 0.21196 0.0
H1201 H 0.32887 0.75702 0.18659 0.0
H1202 H 0.32047 0.76467 0.21791 0.0
H1203 H 0.34657 0.85581 0.23334 0.0
H1204 H 0.32634 0.87126 0.19564 0.0
H1205 H 0.33429 0.79878 0.16298 0.0
C1206 C 0.37516 0.76351 0.24912 0.0
C1207 C 0.38131 0.77121 0.273 0.0
C1208 C 0.37787 0.79616 0.27965 0.0
C1209 C 0.36833 0.81342 0.26277 0.0
C1210 C 0.36248 0.80536 0.23931 0.0
C1211 C 0.36575 0.78104 0.23239 0.0
C1212 C 0.35722 0.77721 0.20621 0.0
C1213 C 0.37886 0.7691 0.18941 0.0
C1214 C 0.33598 0.75864 0.20565 0.0
C1215 C 0.34837 0.8031 0.19967 0.0
C1216 C 0.35166 0.81901 0.21905 0.0
C1217 C 0.34406 0.84362 0.21793 0.0
C1218 C 0.33256 0.85221 0.19644 0.0
C1219 C 0.32891 0.83628 0.17634 0.0
C1220 C 0.33715 0.81146 0.17793 0.0
H1221 H 0.96207 0.58439 0.89123 0.0
H1222 H 0.96272 0.64109 0.83383 0.0
H1223 H 0.97764 0.67125 0.86405 0.0
H1224 H 0.94239 0.62314 0.9418 0.0
H1225 H 0.962 0.60744 0.96375 0.0
H1226 H 0.95025 0.59098 0.93783 0.0
H1227 H 0.99497 0.57862 0.9249 0.0
H1228 H 0.00686 0.59518 0.95068 0.0
H1229 H 0.01756 0.60237 0.91978 0.0
H1230 H 0.99288 0.69506 0.90097 0.0
H1231 H 0.008 0.71008 0.9411 0.0
H1232 H 0.99881 0.6371 0.97324 0.0
C1233 C 0.96505 0.60321 0.88501 0.0
C1234 C 0.96102 0.61046 0.86021 0.0
C1235 C 0.96558 0.63518 0.85277 0.0
C1236 C 0.97405 0.65241 0.8698 0.0
C1237 C 0.97804 0.64454 0.89409 0.0
C1238 C 0.97374 0.62048 0.90162 0.0
C1239 C 0.98027 0.61633 0.92846 0.0
C1240 C 0.95736 0.60905 0.94386 0.0
C1241 C 0.00115 0.59698 0.9311 0.0
C1242 C 0.98896 0.64181 0.93496 0.0
C1243 C 0.9874 0.65792 0.91497 0.0
C1244 C 0.9942 0.68259 0.91669 0.0
C1245 C 0.00273 0.69095 0.93945 0.0
C1246 C 0.0045 0.67465 0.95997 0.0
C1247 C 0.99765 0.64981 0.95766 0.0
H1248 H 0.30562 0.64906 0.34289 0.0
H1249 H 0.36212 0.63794 0.28633 0.0
H1250 H 0.33284 0.61411 0.26204 0.0
H1251 H 0.27378 0.58786 0.33526 0.0
H1252 H 0.24394 0.6021 0.34047 0.0
H1253 H 0.27076 0.614 0.35539 0.0
H1254 H 0.2608 0.65735 0.33664 0.0
H1255 H 0.2344 0.64524 0.32137 0.0
H1256 H 0.25805 0.66084 0.30362 0.0
H1257 H 0.29661 0.5972 0.24121 0.0
H1258 H 0.25521 0.58862 0.22494 0.0
H1259 H 0.22179 0.61021 0.2946 0.0
C1260 C 0.31202 0.64104 0.32571 0.0
C1261 C 0.33616 0.64531 0.31651 0.0
C1262 C 0.34372 0.6349 0.29374 0.0
C1263 C 0.32727 0.62119 0.27989 0.0
C1264 C 0.3034 0.61787 0.28914 0.0
C1265 C 0.29579 0.62733 0.3116 0.0
C1266 C 0.2684 0.62342 0.31603 0.0
C1267 C 0.26398 0.60578 0.33809 0.0
C1268 C 0.25462 0.64819 0.31961 0.0
C1269 C 0.2616 0.61148 0.29196 0.0
C1270 C 0.2822 0.608 0.27695 0.0
C1271 C 0.28041 0.59936 0.25294 0.0
C1272 C 0.25692 0.59467 0.24382 0.0
C1273 C 0.23564 0.59881 0.25864 0.0
C1274 C 0.23798 0.60663 0.28318 0.0
H1275 H 0.71026 0.86484 0.70963 0.0
H1276 H 0.73557 0.87206 0.78474 0.0
H1277 H 0.77806 0.86115 0.77124 0.0
H1278 H 0.74702 0.81262 0.69456 0.0
H1279 H 0.75346 0.82229 0.66317 0.0
H1280 H 0.72541 0.83237 0.67837 0.0
H1281 H 0.73661 0.87796 0.66967 0.0
H1282 H 0.76447 0.86805 0.65397 0.0
H1283 H 0.76602 0.8894 0.67916 0.0
H1284 H 0.81701 0.84756 0.75016 0.0
H1285 H 0.8502 0.83166 0.72294 0.0
H1286 H 0.79976 0.83311 0.66121 0.0
C1287 C 0.72488 0.86432 0.72309 0.0
C1288 C 0.71981 0.86895 0.74821 0.0
C1289 C 0.73918 0.86812 0.76546 0.0
C1290 C 0.76333 0.86213 0.75795 0.0
C1291 C 0.76773 0.85719 0.73309 0.0
C1292 C 0.7491 0.85826 0.71589 0.0
C1293 C 0.75866 0.85113 0.69053 0.0
C1294 C 0.74535 0.82824 0.68112 0.0
C1295 C 0.75634 0.87295 0.67224 0.0
C1296 C 0.78543 0.84541 0.69628 0.0
C1297 C 0.7903 0.84928 0.72089 0.0
C1298 C 0.8135 0.84463 0.7308 0.0
C1299 C 0.83223 0.83559 0.71517 0.0
C1300 C 0.82761 0.83118 0.68991 0.0
C1301 C 0.80392 0.8364 0.68038 0.0
H1302 H 0.82091 0.03259 0.47092 0.0
H1303 H 0.7958 0.06318 0.54047 0.0
H1304 H 0.81227 0.10391 0.52791 0.0
H1305 H 0.87649 0.06073 0.46868 0.0
H1306 H 0.87767 0.06672 0.43586 0.0
H1307 H 0.85974 0.0415 0.44795 0.0
H1308 H 0.82073 0.05913 0.42654 0.0
H1309 H 0.8386 0.08438 0.41409 0.0
H1310 H 0.81104 0.09055 0.43213 0.0
H1311 H 0.83723 0.13858 0.51114 0.0
H1312 H 0.86785 0.16557 0.4907 0.0
H1313 H 0.8764 0.11285 0.43143 0.0
C1314 C 0.81813 0.04816 0.48303 0.0
C1315 C 0.80714 0.04501 0.50658 0.0
C1316 C 0.80427 0.06544 0.52236 0.0
C1317 C 0.81343 0.08859 0.51532 0.0
C1318 C 0.82511 0.09095 0.49233 0.0
C1319 C 0.82721 0.07137 0.47625 0.0
C1320 C 0.84287 0.07806 0.45382 0.0
C1321 C 0.86553 0.06073 0.45147 0.0
C1322 C 0.82738 0.07803 0.43025 0.0
C1323 C 0.85026 0.104 0.46041 0.0
C1324 C 0.83949 0.11121 0.4825 0.0
C1325 C 0.84533 0.13342 0.49355 0.0
C1326 C 0.86285 0.14855 0.48187 0.0
C1327 C 0.87436 0.14137 0.4594 0.0
C1328 C 0.86757 0.11904 0.44835 0.0
H1329 H 0.78732 0.11874 0.19511 0.0
H1330 H 0.7552 0.08587 0.26117 0.0
H1331 H 0.71327 0.09612 0.24607 0.0
H1332 H 0.7489 0.16926 0.19304 0.0
H1333 H 0.74622 0.17129 0.15993 0.0
H1334 H 0.77322 0.15725 0.17337 0.0
H1335 H 0.76599 0.11724 0.14904 0.0
H1336 H 0.73906 0.13125 0.1352 0.0
H1337 H 0.73655 0.10215 0.15151 0.0
H1338 H 0.67584 0.11494 0.22678 0.0
H1339 H 0.64515 0.14038 0.20431 0.0
H1340 H 0.70179 0.1616 0.15088 0.0
C1341 C 0.77132 0.11302 0.20585 0.0
C1342 C 0.77407 0.10125 0.22898 0.0
C1343 C 0.75308 0.09458 0.24318 0.0
C1344 C 0.72933 0.1003 0.23475 0.0
C1345 C 0.72709 0.11261 0.2121 0.0
C1346 C 0.7475 0.1187 0.19771 0.0
C1347 C 0.74021 0.13421 0.17545 0.0
C1348 C 0.75288 0.15949 0.17547 0.0
C1349 C 0.74578 0.12037 0.15137 0.0
C1350 C 0.71269 0.13672 0.1801 0.0
C1351 C 0.70543 0.12382 0.20111 0.0
C1352 C 0.6812 0.12476 0.21005 0.0
C1353 C 0.66393 0.13935 0.19723 0.0
C1354 C 0.67107 0.15294 0.17583 0.0
C1355 C 0.69571 0.15129 0.16707 0.0
H1356 H 0.60127 0.87994 0.94922 0.0
H1357 H 0.62328 0.82175 0.00062 0.0
H1358 H 0.65376 0.84966 0.01862 0.0
H1359 H 0.66307 0.90742 0.94026 0.0
H1360 H 0.65022 0.93826 0.93884 0.0
H1361 H 0.63247 0.91262 0.92838 0.0
H1362 H 0.59694 0.92547 0.95842 0.0
H1363 H 0.61494 0.95077 0.96912 0.0
H1364 H 0.60318 0.92819 0.99088 0.0
H1365 H 0.67914 0.88508 0.03343 0.0
H1366 H 0.6976 0.92529 0.04359 0.0
H1367 H 0.65898 0.96008 0.98259 0.0
C1368 C 0.61278 0.87287 0.96398 0.0
C1369 C 0.60993 0.84861 0.97347 0.0
C1370 C 0.62522 0.84021 0.99296 0.0
C1371 C 0.6426 0.85592 0.00329 0.0
C1372 C 0.64459 0.87989 0.99379 0.0
C1373 C 0.6302 0.88826 0.97445 0.0
C1374 C 0.63481 0.91526 0.96861 0.0
C1375 C 0.64581 0.91856 0.94247 0.0
C1376 C 0.61105 0.93083 0.97197 0.0
C1377 C 0.65358 0.92097 0.98811 0.0
C1378 C 0.65915 0.90028 0.00233 0.0
C1379 C 0.67509 0.90133 0.02228 0.0
C1380 C 0.68536 0.92417 0.028 0.0
C1381 C 0.67949 0.94557 0.01392 0.0
C1382 C 0.66378 0.94385 0.9935 0.0
H1383 H 0.20172 0.31866 0.83576 0.0
H1384 H 0.14596 0.35656 0.79197 0.0
H1385 H 0.17862 0.38025 0.7704 0.0
H1386 H 0.24377 0.371 0.84107 0.0
H1387 H 0.2709 0.35155 0.83842 0.0
H1388 H 0.24294 0.33944 0.85205 0.0
H1389 H 0.24381 0.30386 0.82045 0.0
H1390 H 0.27167 0.31589 0.80673 0.0
H1391 H 0.24502 0.31117 0.78788 0.0
H1392 H 0.21735 0.39742 0.75152 0.0
H1393 H 0.25968 0.40619 0.73611 0.0
H1394 H 0.28999 0.35681 0.7918 0.0
C1395 C 0.19631 0.33218 0.82188 0.0
C1396 C 0.17129 0.33583 0.81557 0.0
C1397 C 0.16502 0.35351 0.79712 0.0
C1398 C 0.18342 0.36711 0.78483 0.0
C1399 C 0.20794 0.36282 0.79129 0.0
C1400 C 0.21441 0.34581 0.80939 0.0
C1401 C 0.24216 0.34352 0.81176 0.0
C1402 C 0.25043 0.35188 0.83735 0.0
C1403 C 0.25118 0.31704 0.80637 0.0
C1404 C 0.25034 0.36145 0.79172 0.0
C1405 C 0.2303 0.37264 0.78034 0.0
C1406 C 0.23317 0.38906 0.7605 0.0
C1407 C 0.25715 0.39395 0.75191 0.0
C1408 C 0.27775 0.38243 0.76317 0.0
C1409 C 0.27437 0.36612 0.78334 0.0
H1410 H 0.3229 0.44183 0.4685 0.0
H1411 H 0.30934 0.47562 0.5397 0.0
H1412 H 0.32389 0.4376 0.5606 0.0
H1413 H 0.30947 0.37769 0.48609 0.0
H1414 H 0.33477 0.36542 0.46788 0.0
H1415 H 0.31954 0.39372 0.45842 0.0
H1416 H 0.36151 0.41621 0.45789 0.0
H1417 H 0.37685 0.388 0.46725 0.0
H1418 H 0.38015 0.41549 0.48523 0.0
H1419 H 0.34261 0.39722 0.57382 0.0
H1420 H 0.36718 0.35887 0.57851 0.0
H1421 H 0.37248 0.35282 0.49872 0.0
C1422 C 0.32292 0.44123 0.48848 0.0
C1423 C 0.31461 0.46162 0.50244 0.0
C1424 C 0.31481 0.45999 0.52857 0.0
C1425 C 0.32324 0.4385 0.54064 0.0
C1426 C 0.33169 0.41889 0.52632 0.0
C1427 C 0.33183 0.42013 0.50081 0.0
C1428 C 0.34425 0.39753 0.48978 0.0
C1429 C 0.32591 0.38272 0.47465 0.0
C1430 C 0.36704 0.40474 0.47412 0.0
C1431 C 0.35154 0.38365 0.51309 0.0
C1432 C 0.34365 0.39605 0.53395 0.0
C1433 C 0.34875 0.38725 0.55764 0.0
C1434 C 0.36269 0.3654 0.5601 0.0
C1435 C 0.37172 0.35283 0.53897 0.0
C1436 C 0.36573 0.36196 0.5152 0.0
H1437 H 0.16435 0.52351 0.02278 0.0
H1438 H 0.19956 0.55508 0.95764 0.0
H1439 H 0.18252 0.5963 0.96823 0.0
H1440 H 0.10921 0.55573 0.01688 0.0
H1441 H 0.10358 0.56009 0.04943 0.0
H1442 H 0.12187 0.53417 0.03915 0.0
H1443 H 0.15754 0.54765 0.06679 0.0
H1444 H 0.13979 0.57399 0.07709 0.0
H1445 H 0.16996 0.57824 0.06332 0.0
H1446 H 0.15778 0.63268 0.98312 0.0
H1447 H 0.12694 0.66156 0.00097 0.0
H1448 H 0.10703 0.60606 0.05608 0.0
C1449 C 0.16898 0.53933 0.01125 0.0
C1450 C 0.18333 0.53645 0.98957 0.0
C1451 C 0.18867 0.55721 0.97442 0.0
C1452 C 0.17913 0.58061 0.98033 0.0
C1453 C 0.16436 0.58283 0.00148 0.0
C1454 C 0.15939 0.56278 0.0168 0.0
C1455 C 0.141 0.56962 0.03696 0.0
C1456 C 0.11753 0.55398 0.0355 0.0
C1457 C 0.15279 0.56725 0.06255 0.0
C1458 C 0.13581 0.59638 0.03013 0.0
C1459 C 0.14975 0.60377 0.00985 0.0
C1460 C 0.14703 0.62724 0.99925 0.0
C1461 C 0.12944 0.6435 0.00949 0.0
C1462 C 0.11461 0.63613 0.02997 0.0
C1463 C 0.11819 0.61236 0.04055 0.0
H1464 H 0.11872 0.05041 0.69249 0.0
H1465 H 0.07819 0.01707 0.63371 0.0
H1466 H 0.11369 0.02342 0.60508 0.0
H1467 H 0.13901 0.09782 0.65962 0.0
H1468 H 0.16887 0.10025 0.67363 0.0
H1469 H 0.14404 0.08621 0.69055 0.0
H1470 H 0.17101 0.04668 0.69684 0.0
H1471 H 0.1959 0.06078 0.67952 0.0
H1472 H 0.18424 0.0313 0.67039 0.0
H1473 H 0.14867 0.04228 0.58107 0.0
H1474 H 0.17755 0.07355 0.56419 0.0
H1475 H 0.19543 0.09471 0.63848 0.0
C1476 C 0.11804 0.04324 0.67394 0.0
C1477 C 0.09632 0.03254 0.66534 0.0
C1478 C 0.09515 0.02457 0.64067 0.0
C1479 C 0.11522 0.02812 0.62436 0.0
C1480 C 0.13625 0.03966 0.63308 0.0
C1481 C 0.13782 0.04691 0.65746 0.0
C1482 C 0.1601 0.06288 0.66133 0.0
C1483 C 0.15253 0.08827 0.67186 0.0
C1484 C 0.17893 0.0496 0.67801 0.0
C1485 C 0.1698 0.06505 0.63506 0.0
C1486 C 0.15639 0.0509 0.61908 0.0
C1487 C 0.15983 0.05279 0.59347 0.0
C1488 C 0.17641 0.07046 0.58398 0.0
C1489 C 0.1889 0.08613 0.60013 0.0
C1490 C 0.1865 0.08242 0.62587 0.0
H1491 H 0.57953 0.44992 0.35225 0.0
H1492 H 0.62387 0.47876 0.29166 0.0
H1493 H 0.66124 0.47466 0.31736 0.0
H1494 H 0.61988 0.47417 0.40529 0.0
H1495 H 0.61399 0.44625 0.42277 0.0
H1496 H 0.59047 0.45922 0.40301 0.0
H1497 H 0.58755 0.41747 0.3804 0.0
H1498 H 0.61074 0.40451 0.4 0.0
H1499 H 0.61513 0.40398 0.36694 0.0
H1500 H 0.69367 0.45569 0.34389 0.0
H1501 H 0.71689 0.42393 0.36756 0.0
H1502 H 0.65191 0.40901 0.41202 0.0
C1503 C 0.59701 0.45636 0.34484 0.0
C1504 C 0.59902 0.46459 0.32013 0.0
C1505 C 0.62203 0.47265 0.31072 0.0
C1506 C 0.64329 0.47044 0.32525 0.0
C1507 C 0.64096 0.46077 0.34924 0.0
C1508 C 0.61818 0.45435 0.35912 0.0
C1509 C 0.62067 0.44041 0.38334 0.0
C1510 C 0.61067 0.45595 0.40488 0.0
C1511 C 0.60781 0.41512 0.38258 0.0
C1512 C 0.64845 0.43773 0.38442 0.0
C1513 C 0.65997 0.45032 0.36509 0.0
C1514 C 0.68506 0.44668 0.35968 0.0
C1515 C 0.69823 0.42875 0.37332 0.0
C1516 C 0.6862 0.41482 0.392 0.0
C1517 C 0.66157 0.42039 0.39852 0.0
H1518 H 0.35603 0.95926 0.19862 0.0
H1519 H 0.39667 0.99397 0.13872 0.0
H1520 H 0.36096 0.98917 0.11127 0.0
H1521 H 0.33513 0.91337 0.16762 0.0
H1522 H 0.30498 0.91118 0.18202 0.0
H1523 H 0.32962 0.92495 0.19832 0.0
H1524 H 0.30262 0.96451 0.20384 0.0
H1525 H 0.27805 0.95057 0.18697 0.0
H1526 H 0.29001 0.98005 0.17711 0.0
H1527 H 0.32686 0.97056 0.08812 0.0
H1528 H 0.3002 0.93811 0.07172 0.0
H1529 H 0.28093 0.9153 0.1462 0.0
C1530 C 0.35665 0.96712 0.18013 0.0
C1531 C 0.37854 0.97763 0.17083 0.0
C1532 C 0.37962 0.98656 0.14623 0.0
C1533 C 0.3594 0.98393 0.13058 0.0
C1534 C 0.33824 0.97239 0.13989 0.0
C1535 C 0.33664 0.96441 0.1643 0.0
C1536 C 0.31424 0.94843 0.16864 0.0
C1537 C 0.32147 0.923 0.17975 0.0
C1538 C 0.2951 0.96169 0.18511 0.0
C1539 C 0.30502 0.94643 0.14247 0.0
C1540 C 0.31835 0.96128 0.12626 0.0
C1541 C 0.31571 0.95954 0.10068 0.0
C1542 C 0.30035 0.94118 0.09145 0.0
C1543 C 0.28827 0.92464 0.1078 0.0
C1544 C 0.28946 0.92833 0.13347 0.0
H1545 H 0.7883 0.59449 0.84966 0.0
H1546 H 0.80197 0.55816 0.91973 0.0
H1547 H 0.82676 0.52605 0.89846 0.0
H1548 H 0.79608 0.53555 0.80755 0.0
H1549 H 0.81136 0.55464 0.78466 0.0
H1550 H 0.78619 0.56716 0.80293 0.0
H1551 H 0.8143 0.6026 0.81567 0.0
H1552 H 0.8399 0.59012 0.79871 0.0
H1553 H 0.84286 0.59567 0.83129 0.0
H1554 H 0.86023 0.50747 0.87291 0.0
H1555 H 0.89758 0.50421 0.84622 0.0
H1556 H 0.86448 0.55443 0.79319 0.0
C1557 C 0.79518 0.57875 0.86017 0.0
C1558 C 0.79311 0.57844 0.88613 0.0
C1559 C 0.80288 0.55827 0.89974 0.0
C1560 C 0.81712 0.54005 0.88773 0.0
C1561 C 0.82104 0.54226 0.86219 0.0
C1562 C 0.80978 0.56091 0.84845 0.0
C1563 C 0.82097 0.56299 0.82272 0.0
C1564 C 0.80255 0.55457 0.80332 0.0
C1565 C 0.83008 0.58937 0.81683 0.0
C1566 C 0.84214 0.54472 0.82506 0.0
C1567 C 0.8412 0.532 0.84744 0.0
C1568 C 0.86065 0.51662 0.85503 0.0
C1569 C 0.8818 0.51488 0.83984 0.0
C1570 C 0.88337 0.5288 0.81766 0.0
C1571 C 0.86312 0.54318 0.80983 0.0
H1572 H 0.70923 0.11532 0.05447 0.0
H1573 H 0.65469 0.0874 0.00488 0.0
H1574 H 0.63066 0.12649 0.0085 0.0
H1575 H 0.67079 0.13843 0.09567 0.0
H1576 H 0.68821 0.16539 0.1032 0.0
H1577 H 0.70381 0.13892 0.09087 0.0
H1578 H 0.72199 0.16647 0.05561 0.0
H1579 H 0.70582 0.193 0.06793 0.0
H1580 H 0.70154 0.18445 0.03624 0.0
H1581 H 0.60795 0.16293 0.02599 0.0
H1582 H 0.58881 0.19137 0.05633 0.0
H1583 H 0.65883 0.19684 0.09314 0.0
C1584 C 0.69288 0.11813 0.04343 0.0
C1585 C 0.68393 0.09892 0.029 0.0
C1586 C 0.662 0.10237 0.01553 0.0
C1587 C 0.64833 0.12451 0.01747 0.0
C1588 C 0.65711 0.14298 0.0327 0.0
C1589 C 0.67918 0.1401 0.04515 0.0
C1590 C 0.68274 0.16057 0.06341 0.0
C1591 C 0.68656 0.15018 0.08981 0.0
C1592 C 0.7043 0.1771 0.0553 0.0
C1593 C 0.6583 0.17417 0.06097 0.0
C1594 C 0.64401 0.16434 0.04261 0.0
C1595 C 0.61925 0.17138 0.03978 0.0
C1596 C 0.60851 0.18771 0.05696 0.0
C1597 C 0.62253 0.19642 0.07676 0.0
C1598 C 0.64798 0.19077 0.07776 0.0
H1599 H 0.5342 0.84897 0.91293 0.0
H1600 H 0.51437 0.78383 0.87276 0.0
H1601 H 0.51852 0.80733 0.83331 0.0
H1602 H 0.50632 0.89675 0.86735 0.0
H1603 H 0.53161 0.9172 0.8728 0.0
H1604 H 0.52018 0.89748 0.89741 0.0
H1605 H 0.56424 0.87923 0.9036 0.0
H1606 H 0.57567 0.89899 0.87946 0.0
H1607 H 0.58052 0.86606 0.87756 0.0
H1608 H 0.53654 0.83365 0.79946 0.0
H1609 H 0.56653 0.85899 0.77592 0.0
H1610 H 0.5713 0.90863 0.83725 0.0
C1611 C 0.52981 0.84 0.89582 0.0
C1612 C 0.524 0.81473 0.89568 0.0
C1613 C 0.51858 0.80331 0.87313 0.0
C1614 C 0.52083 0.81658 0.8507 0.0
C1615 C 0.52778 0.84135 0.85133 0.0
C1616 C 0.53166 0.85305 0.87348 0.0
C1617 C 0.54257 0.87837 0.86949 0.0
C1618 C 0.52405 0.89865 0.87722 0.0
C1619 C 0.56719 0.88076 0.8833 0.0
C1620 C 0.54635 0.87833 0.84176 0.0
C1621 C 0.53711 0.85713 0.83142 0.0
C1622 C 0.54284 0.8508 0.80705 0.0
C1623 C 0.55968 0.86547 0.7936 0.0
C1624 C 0.57043 0.88616 0.80459 0.0
C1625 C 0.56227 0.89357 0.82817 0.0
H1626 H 0.91586 0.83703 0.59321 0.0
H1627 H 0.87048 0.77418 0.57818 0.0
H1628 H 0.84787 0.79875 0.54666 0.0
H1629 H 0.87113 0.87655 0.5972 0.0
H1630 H 0.88594 0.90317 0.58359 0.0
H1631 H 0.90431 0.8791 0.59731 0.0
H1632 H 0.92898 0.87364 0.5564 0.0
H1633 H 0.91088 0.89819 0.54251 0.0
H1634 H 0.9128 0.8684 0.52811 0.0
H1635 H 0.82366 0.83258 0.52573 0.0
H1636 H 0.80034 0.87161 0.51851 0.0
H1637 H 0.86071 0.91266 0.54874 0.0
C1638 C 0.90227 0.82811 0.58199 0.0
C1639 C 0.89537 0.80365 0.58726 0.0
C1640 C 0.87654 0.79268 0.57356 0.0
C1641 C 0.86358 0.80658 0.55573 0.0
C1642 C 0.86979 0.83133 0.55195 0.0
C1643 C 0.88905 0.84188 0.56451 0.0
C1644 C 0.88905 0.86966 0.56123 0.0
C1645 C 0.88748 0.88285 0.58631 0.0
C1646 C 0.91178 0.87795 0.54615 0.0
C1647 C 0.86569 0.87334 0.54663 0.0
C1648 C 0.85525 0.85107 0.54061 0.0
C1649 C 0.83203 0.85009 0.52972 0.0
C1650 C 0.81889 0.87232 0.52568 0.0
C1651 C 0.82882 0.89502 0.5331 0.0
C1652 C 0.85284 0.8955 0.54275 0.0
H1653 H 0.95231 0.19604 0.36255 0.0
H1654 H 0.98812 0.13704 0.40343 0.0
H1655 H 0.98301 0.10906 0.36823 0.0
H1656 H 0.90619 0.16379 0.34465 0.0
H1657 H 0.90212 0.17746 0.31441 0.0
H1658 H 0.91677 0.19463 0.3379 0.0
H1659 H 0.95503 0.20054 0.30915 0.0
H1660 H 0.94028 0.18304 0.28552 0.0
H1661 H 0.97049 0.17395 0.29618 0.0
H1662 H 0.96399 0.08517 0.33498 0.0
H1663 H 0.93112 0.06787 0.30935 0.0
H1664 H 0.90653 0.14178 0.29 0.0
C1665 C 0.96045 0.17768 0.36324 0.0
C1666 C 0.97136 0.16877 0.38507 0.0
C1667 C 0.98048 0.14427 0.38638 0.0
C1668 C 0.97764 0.1283 0.36645 0.0
C1669 C 0.96551 0.13716 0.34546 0.0
C1670 C 0.95725 0.16147 0.34366 0.0
C1671 C 0.94018 0.16518 0.32199 0.0
C1672 C 0.91485 0.17584 0.33026 0.0
C1673 C 0.95223 0.18165 0.30202 0.0
C1674 C 0.93828 0.13884 0.3133 0.0
C1675 C 0.95382 0.12305 0.3263 0.0
C1676 C 0.95239 0.0974 0.32407 0.0
C1677 C 0.93378 0.08766 0.30936 0.0
C1678 C 0.9167 0.10361 0.29754 0.0
C1679 C 0.91991 0.12936 0.29843 0.0
H1680 H 0.15615 0.29077 0.89586 0.0
H1681 H 0.08654 0.29823 0.93517 0.0
H1682 H 0.10665 0.32396 0.96631 0.0
H1683 H 0.19965 0.29823 0.95213 0.0
H1684 H 0.22041 0.31591 0.93274 0.0
H1685 H 0.20344 0.29077 0.91994 0.0
H1686 H 0.18645 0.32057 0.88642 0.0
H1687 H 0.20251 0.3459 0.89926 0.0
H1688 H 0.1695 0.34791 0.89557 0.0
H1689 H 0.1303 0.35824 0.98466 0.0
H1690 H 0.15519 0.39595 0.9891 0.0
H1691 H 0.20901 0.36754 0.93679 0.0
C1692 C 0.14559 0.2966 0.91192 0.0
C1693 C 0.11999 0.29235 0.91345 0.0
C1694 C 0.10633 0.30079 0.93412 0.0
C1695 C 0.11764 0.31556 0.95178 0.0
C1696 C 0.1426 0.32133 0.94853 0.0
C1697 C 0.15657 0.31159 0.9293 0.0
C1698 C 0.1813 0.32415 0.92662 0.0
C1699 C 0.20245 0.3062 0.93327 0.0
C1700 C 0.18511 0.3353 0.90045 0.0
C1701 C 0.17829 0.34396 0.94584 0.0
C1702 C 0.15626 0.34156 0.95894 0.0
C1703 C 0.14798 0.35975 0.97523 0.0
C1704 C 0.16216 0.38109 0.97766 0.0
C1705 C 0.18418 0.38404 0.96375 0.0
C1706 C 0.19264 0.36505 0.94823 0.0
H1707 H 0.41538 0.41454 0.65618 0.0
H1708 H 0.42776 0.36462 0.71763 0.0
H1709 H 0.45868 0.34152 0.6929 0.0
H1710 H 0.40792 0.37233 0.6172 0.0
H1711 H 0.42164 0.38644 0.59008 0.0
H1712 H 0.41006 0.40547 0.61443 0.0
H1713 H 0.45271 0.426 0.61862 0.0
H1714 H 0.46447 0.40733 0.59365 0.0
H1715 H 0.47996 0.40703 0.62291 0.0
H1716 H 0.47708 0.31683 0.65879 0.0
H1717 H 0.4805 0.29373 0.61969 0.0
H1718 H 0.45374 0.35813 0.57958 0.0
C1719 C 0.42619 0.39997 0.66489 0.0
C1720 C 0.42009 0.39186 0.68895 0.0
C1721 C 0.43306 0.37166 0.69953 0.0
C1722 C 0.45051 0.35833 0.68547 0.0
C1723 C 0.45454 0.36539 0.66084 0.0
C1724 C 0.44294 0.3861 0.65074 0.0
C1725 C 0.44527 0.38656 0.62284 0.0
C1726 C 0.41973 0.38773 0.61046 0.0
C1727 C 0.46159 0.408 0.61399 0.0
C1728 C 0.45808 0.36199 0.6187 0.0
C1729 C 0.46419 0.35041 0.64074 0.0
C1730 C 0.4731 0.32605 0.64141 0.0
C1731 C 0.47498 0.31302 0.61916 0.0
C1732 C 0.46738 0.32426 0.59678 0.0
C1733 C 0.45986 0.34927 0.59652 0.0
H1734 H 0.34877 0.70621 0.40021 0.0
H1735 H 0.42263 0.69312 0.42701 0.0
H1736 H 0.40587 0.66667 0.46061 0.0
H1737 H 0.31406 0.69799 0.46419 0.0
H1738 H 0.28939 0.6829 0.44855 0.0
H1739 H 0.30567 0.70787 0.43347 0.0
H1740 H 0.31519 0.67952 0.39637 0.0
H1741 H 0.29962 0.65443 0.41135 0.0
H1742 H 0.33136 0.6506 0.40152 0.0
H1743 H 0.38395 0.63151 0.48017 0.0
H1744 H 0.35831 0.59444 0.48673 0.0
H1745 H 0.29795 0.63043 0.4486 0.0
C1746 C 0.36111 0.6991 0.41427 0.0
C1747 C 0.38684 0.70189 0.41142 0.0
C1748 C 0.4028 0.6917 0.42936 0.0
C1749 C 0.39338 0.67649 0.44839 0.0
C1750 C 0.36797 0.67218 0.4494 0.0
C1751 C 0.35191 0.68388 0.4332 0.0
C1752 C 0.32633 0.67291 0.43488 0.0
C1753 C 0.30777 0.69153 0.44594 0.0
C1754 C 0.31768 0.66382 0.40955 0.0
C1755 C 0.33105 0.65165 0.45265 0.0
C1756 C 0.35499 0.65189 0.46139 0.0
C1757 C 0.36489 0.63174 0.47445 0.0
C1758 C 0.35027 0.61075 0.47807 0.0
C1759 C 0.32604 0.61019 0.46885 0.0
C1760 C 0.31608 0.6311 0.45674 0.0
H1761 H 0.05696 0.70141 0.12697 0.0
H1762 H 0.00765 0.64637 0.09956 0.0
H1763 H 0.01533 0.62025 0.13664 0.0
H1764 H 0.10141 0.66404 0.1437 0.0
H1765 H 0.11059 0.67977 0.17118 0.0
H1766 H 0.09516 0.69661 0.14722 0.0
H1767 H 0.06177 0.71073 0.17908 0.0
H1768 H 0.07725 0.69332 0.20306 0.0
H1769 H 0.04512 0.68798 0.19705 0.0
H1770 H 0.03698 0.596 0.16952 0.0
H1771 H 0.07079 0.57633 0.19333 0.0
H1772 H 0.10503 0.64746 0.20071 0.0
C1773 C 0.04678 0.68448 0.12965 0.0
C1774 C 0.03129 0.67601 0.11104 0.0
C1775 C 0.01903 0.65332 0.11416 0.0
C1776 C 0.0233 0.63844 0.13516 0.0
C1777 C 0.03965 0.64674 0.15288 0.0
C1778 C 0.05087 0.66954 0.1505 0.0
C1779 C 0.0708 0.67253 0.16947 0.0
C1780 C 0.09594 0.67854 0.15713 0.0
C1781 C 0.06327 0.69231 0.18829 0.0
C1782 C 0.07076 0.64705 0.18129 0.0
C1783 C 0.05211 0.63264 0.17219 0.0
C1784 C 0.05106 0.60731 0.17747 0.0
C1785 C 0.07024 0.59624 0.19116 0.0
C1786 C 0.09021 0.61054 0.19901 0.0
C1787 C 0.08958 0.63635 0.1953 0.0
H1788 H 0.3063 0.17679 0.5043 0.0
H1789 H 0.33314 0.11151 0.54307 0.0
H1790 H 0.37242 0.13295 0.55151 0.0
H1791 H 0.36442 0.19856 0.4779 0.0
H1792 H 0.35624 0.23038 0.4835 0.0
H1793 H 0.33246 0.20831 0.47781 0.0
H1794 H 0.31086 0.2204 0.51899 0.0
H1795 H 0.33481 0.24207 0.52521 0.0
H1796 H 0.32776 0.21799 0.54739 0.0
H1797 H 0.40845 0.16344 0.55678 0.0
H1798 H 0.43617 0.1995 0.55951 0.0
H1799 H 0.38216 0.24461 0.52052 0.0
C1800 C 0.32077 0.16661 0.51378 0.0
C1801 C 0.31697 0.14232 0.5226 0.0
C1802 C 0.33591 0.13004 0.5359 0.0
C1803 C 0.35818 0.14212 0.54082 0.0
C1804 C 0.3609 0.16652 0.5326 0.0
C1805 C 0.34254 0.17855 0.51942 0.0
C1806 C 0.34847 0.20535 0.51469 0.0
C1807 C 0.35053 0.21097 0.48682 0.0
C1808 C 0.32934 0.22244 0.52733 0.0
C1809 C 0.37323 0.20664 0.52696 0.0
C1810 C 0.38037 0.18412 0.53703 0.0
C1811 C 0.40293 0.18115 0.549 0.0
C1812 C 0.41852 0.20169 0.55051 0.0
C1813 C 0.41121 0.22493 0.54049 0.0
C1814 C 0.3882 0.22724 0.52872 0.0
H1815 H 0.49784 0.56424 0.26771 0.0
H1816 H 0.57032 0.59568 0.25776 0.0
H1817 H 0.55562 0.63399 0.27871 0.0
H1818 H 0.45997 0.61728 0.26152 0.0
H1819 H 0.4393 0.60825 0.28632 0.0
H1820 H 0.45566 0.58504 0.26895 0.0
H1821 H 0.47379 0.56689 0.30961 0.0
H1822 H 0.45763 0.59032 0.32713 0.0
H1823 H 0.49058 0.58663 0.32972 0.0
H1824 H 0.5315 0.66884 0.30171 0.0
H1825 H 0.50102 0.69624 0.32284 0.0
H1826 H 0.44684 0.63799 0.32058 0.0
C1827 C 0.51059 0.57918 0.26991 0.0
C1828 C 0.53506 0.57724 0.26122 0.0
C1829 C 0.55133 0.59715 0.26417 0.0
C1830 C 0.54319 0.61877 0.27618 0.0
C1831 C 0.51896 0.6197 0.28542 0.0
C1832 C 0.50305 0.60023 0.28246 0.0
C1833 C 0.47855 0.60459 0.29524 0.0
C1834 C 0.45712 0.60376 0.2769 0.0
C1835 C 0.47491 0.586 0.31668 0.0
C1836 C 0.48243 0.63022 0.30476 0.0
C1837 C 0.50587 0.6387 0.29931 0.0
C1838 C 0.51316 0.66226 0.30615 0.0
C1839 C 0.4958 0.67764 0.31826 0.0
C1840 C 0.47151 0.66931 0.32331 0.0
C1841 C 0.46517 0.64506 0.31693 0.0
H1842 H 0.09801 0.76245 0.07156 0.0
H1843 H 0.05038 0.78926 0.01321 0.0
H1844 H 0.07621 0.82657 0.00813 0.0
H1845 H 0.1097 0.82435 0.09829 0.0
H1846 H 0.14103 0.81581 0.10581 0.0
H1847 H 0.1174 0.79267 0.10582 0.0
H1848 H 0.1435 0.76667 0.07416 0.0
H1849 H 0.16703 0.78967 0.07554 0.0
H1850 H 0.15437 0.78148 0.04619 0.0
H1851 H 0.11211 0.85639 0.00452 0.0
H1852 H 0.152 0.87827 0.00595 0.0
H1853 H 0.17148 0.83549 0.07119 0.0
C1854 C 0.09282 0.77648 0.05808 0.0
C1855 C 0.0724 0.77319 0.04271 0.0
C1856 C 0.06597 0.79172 0.02522 0.0
C1857 C 0.08051 0.81288 0.02223 0.0
C1858 C 0.10087 0.81548 0.03746 0.0
C1859 C 0.10662 0.79802 0.05545 0.0
C1860 C 0.12979 0.80467 0.06897 0.0
C1861 C 0.12413 0.80968 0.09635 0.0
C1862 C 0.14986 0.78444 0.06603 0.0
C1863 C 0.13673 0.82809 0.05518 0.0
C1864 C 0.12005 0.83397 0.03688 0.0
C1865 C 0.12483 0.85253 0.01936 0.0
C1866 C 0.14749 0.8649 0.02031 0.0
C1867 C 0.16475 0.85904 0.03895 0.0
C1868 C 0.15868 0.84104 0.05706 0.0
H1869 H 0.04513 0.328 0.79343 0.0
H1870 H 0.00812 0.32103 0.86459 0.0
H1871 H 0.97548 0.3503 0.85041 0.0
H1872 H 0.03623 0.38992 0.78419 0.0
H1873 H 0.03075 0.38863 0.75148 0.0
H1874 H 0.04905 0.36494 0.76622 0.0
H1875 H 0.01989 0.33155 0.74967 0.0
H1876 H 0.00141 0.35525 0.73487 0.0
H1877 H 0.98721 0.33371 0.75621 0.0
H1878 H 0.95302 0.38631 0.83159 0.0
H1879 H 0.94004 0.42315 0.80927 0.0
H1880 H 0.98722 0.40259 0.74711 0.0
C1881 C 0.02987 0.33233 0.80583 0.0
C1882 C 0.02906 0.32258 0.83012 0.0
C1883 C 0.00889 0.32839 0.8459 0.0
C1884 C 0.99032 0.34489 0.83796 0.0
C1885 C 0.99192 0.35462 0.81398 0.0
C1886 C 0.01091 0.34813 0.79797 0.0
C1887 C 0.00921 0.36218 0.77369 0.0
C1888 C 0.03269 0.37731 0.76862 0.0
C1889 C 0.00412 0.34462 0.75235 0.0
C1890 C 0.98708 0.37868 0.77902 0.0
C1891 C 0.97734 0.37397 0.80229 0.0
C1892 C 0.95956 0.3894 0.81283 0.0
C1893 C 0.95189 0.41043 0.79953 0.0
C1894 C 0.96137 0.41565 0.77544 0.0
C1895 C 0.97876 0.39893 0.765 0.0
H1896 H 0.80386 0.31376 0.47051 0.0
H1897 H 0.83342 0.38241 0.44167 0.0
H1898 H 0.87364 0.36113 0.43306 0.0
H1899 H 0.85843 0.28835 0.4984 0.0
H1900 H 0.85175 0.25744 0.4888 0.0
H1901 H 0.82689 0.27909 0.49443 0.0
H1902 H 0.81076 0.27165 0.45036 0.0
H1903 H 0.83587 0.25046 0.44415 0.0
H1904 H 0.83087 0.2768 0.42405 0.0
H1905 H 0.91098 0.33079 0.42807 0.0
H1906 H 0.94017 0.29509 0.42564 0.0
H1907 H 0.88267 0.24709 0.45433 0.0
C1908 C 0.819 0.32451 0.46298 0.0
C1909 C 0.81594 0.3498 0.45735 0.0
C1910 C 0.83574 0.36306 0.44652 0.0
C1911 C 0.8585 0.3511 0.44149 0.0
C1912 C 0.86072 0.32585 0.4469 0.0
C1913 C 0.84129 0.3128 0.45722 0.0
C1914 C 0.84724 0.28563 0.45973 0.0
C1915 C 0.84602 0.27714 0.48695 0.0
C1916 C 0.83018 0.27025 0.44361 0.0
C1917 C 0.87338 0.28532 0.44982 0.0
C1918 C 0.88106 0.30857 0.44256 0.0
C1919 C 0.90501 0.3125 0.43355 0.0
C1920 C 0.92145 0.29215 0.4322 0.0
C1921 C 0.91369 0.26823 0.43957 0.0
C1922 C 0.88923 0.26499 0.44822 0.0
H1923 H 0.49052 0.08242 0.23682 0.0
H1924 H 0.42107 0.09807 0.20076 0.0
H1925 H 0.44045 0.1328 0.17755 0.0
H1926 H 0.51269 0.14633 0.24058 0.0
H1927 H 0.5441 0.13694 0.23389 0.0
H1928 H 0.52356 0.11603 0.24984 0.0
H1929 H 0.53252 0.08307 0.21648 0.0
H1930 H 0.55273 0.10398 0.20019 0.0
H1931 H 0.52708 0.09064 0.18448 0.0
H1932 H 0.46885 0.16411 0.15632 0.0
H1933 H 0.50336 0.18891 0.13912 0.0
H1934 H 0.55401 0.1501 0.18805 0.0
C1935 C 0.47918 0.09376 0.22471 0.0
C1936 C 0.45424 0.0881 0.22087 0.0
C1937 C 0.44015 0.10255 0.20413 0.0
C1938 C 0.45102 0.12218 0.19088 0.0
C1939 C 0.47599 0.12683 0.19453 0.0
C1940 C 0.48982 0.11302 0.21113 0.0
C1941 C 0.51669 0.12011 0.21021 0.0
C1942 C 0.52472 0.13048 0.23511 0.0
C1943 C 0.53322 0.09815 0.20237 0.0
C1944 C 0.51594 0.13998 0.19039 0.0
C1945 C 0.49234 0.14385 0.18167 0.0
C1946 C 0.48739 0.16128 0.1631 0.0
C1947 C 0.50709 0.17522 0.1534 0.0
C1948 C 0.53142 0.17136 0.16209 0.0
C1949 C 0.53571 0.15343 0.18079 0.0
H1950 H 0.59571 0.72498 0.92983 0.0
H1951 H 0.54792 0.69497 0.98717 0.0
H1952 H 0.57597 0.65853 0.99146 0.0
H1953 H 0.61438 0.6657 0.90091 0.0
H1954 H 0.64541 0.67633 0.89555 0.0
H1955 H 0.61993 0.69807 0.89543 0.0
H1956 H 0.64201 0.72336 0.92824 0.0
H1957 H 0.66707 0.70142 0.93091 0.0
H1958 H 0.64911 0.70934 0.95772 0.0
H1959 H 0.61454 0.63051 0.99504 0.0
H1960 H 0.65652 0.61154 0.99383 0.0
H1961 H 0.67404 0.65606 0.92903 0.0
C1962 C 0.59078 0.71032 0.94272 0.0
C1963 C 0.56978 0.71254 0.9581 0.0
C1964 C 0.56393 0.69331 0.97507 0.0
C1965 C 0.57974 0.67263 0.97762 0.0
C1966 C 0.60077 0.67122 0.96248 0.0
C1967 C 0.60584 0.68931 0.9449 0.0
C1968 C 0.63038 0.68476 0.93223 0.0
C1969 C 0.62733 0.68099 0.90438 0.0
C1970 C 0.64816 0.70598 0.93754 0.0
C1971 C 0.63842 0.6612 0.94518 0.0
C1972 C 0.62155 0.65391 0.96309 0.0
C1973 C 0.62742 0.63544 0.98038 0.0
C1974 C 0.65126 0.6247 0.97955 0.0
C1975 C 0.66862 0.63195 0.96112 0.0
C1976 C 0.66144 0.64961 0.94315 0.0
H1977 H 0.04288 0.91368 0.69594 0.0
H1978 H 0.01493 0.91306 0.77155 0.0
H1979 H 0.99526 0.87333 0.7644 0.0
H1980 H 0.98876 0.89537 0.6702 0.0
H1981 H 0.00249 0.87657 0.64633 0.0
H1982 H 0.01938 0.90188 0.6586 0.0
H1983 H 0.05551 0.87214 0.66975 0.0
H1984 H 0.03872 0.84665 0.65742 0.0
H1985 H 0.04962 0.84518 0.68871 0.0
H1986 H 0.97189 0.83909 0.7477 0.0
H1987 H 0.94748 0.81104 0.7225 0.0
H1988 H 0.98885 0.83333 0.65704 0.0
C1989 C 0.03264 0.90537 0.71103 0.0
C1990 C 0.02993 0.91711 0.73412 0.0
C1991 C 0.01729 0.90466 0.75362 0.0
C1992 C 0.00601 0.88199 0.74977 0.0
C1993 C 0.00771 0.87176 0.72639 0.0
C1994 C 0.0209 0.88285 0.70736 0.0
C1995 C 0.01736 0.86944 0.68326 0.0
C1996 C 0.00634 0.88685 0.66345 0.0
C1997 C 0.04176 0.85765 0.67426 0.0
C1998 C 0.9991 0.8499 0.69151 0.0
C1999 C 0.99419 0.85137 0.7166 0.0
C2000 C 0.97603 0.83726 0.7282 0.0
C2001 C 0.9622 0.82151 0.71376 0.0
C2002 C 0.96667 0.8199 0.68805 0.0
C2003 C 0.98569 0.83381 0.67682 0.0
H2004 H 0.52077 0.31275 0.15876 0.0
H2005 H 0.56688 0.34148 0.09936 0.0
H2006 H 0.57201 0.38039 0.12263 0.0
H2007 H 0.49087 0.36978 0.17824 0.0
H2008 H 0.49256 0.36105 0.21042 0.0
H2009 H 0.49021 0.33764 0.1873 0.0
H2010 H 0.52986 0.31648 0.20409 0.0
H2011 H 0.53282 0.34002 0.22692 0.0
H2012 H 0.55796 0.33383 0.20565 0.0
H2013 H 0.5726 0.41595 0.15446 0.0
H2014 H 0.57075 0.44249 0.19161 0.0
H2015 H 0.52723 0.38688 0.22994 0.0
C2016 C 0.53127 0.32755 0.15022 0.0
C2017 C 0.54287 0.32454 0.12701 0.0
C2018 C 0.55746 0.34378 0.11696 0.0
C2019 C 0.5605 0.36582 0.13008 0.0
C2020 C 0.54916 0.36793 0.15332 0.0
C2021 C 0.53499 0.3491 0.16324 0.0
C2022 C 0.52676 0.35433 0.18937 0.0
C2023 C 0.49842 0.3558 0.19144 0.0
C2024 C 0.53751 0.33503 0.20756 0.0
C2025 C 0.5382 0.37925 0.1927 0.0
C2026 C 0.55088 0.38711 0.17177 0.0
C2027 C 0.56275 0.40987 0.17092 0.0
C2028 C 0.56161 0.42482 0.19204 0.0
C2029 C 0.54909 0.41662 0.21372 0.0
C2030 C 0.53726 0.39358 0.2138 0.0
H2031 H 0.41671 0.75304 0.00566 0.0
H2032 H 0.40071 0.77603 0.93062 0.0
H2033 H 0.36493 0.80091 0.94585 0.0
H2034 H 0.35301 0.75095 0.02999 0.0
H2035 H 0.36181 0.76347 0.05921 0.0
H2036 H 0.38355 0.74505 0.04172 0.0
H2037 H 0.41495 0.78075 0.04288 0.0
H2038 H 0.39317 0.7995 0.05991 0.0
H2039 H 0.40614 0.81085 0.03117 0.0
H2040 H 0.33248 0.82519 0.97009 0.0
H2041 H 0.30595 0.84647 0.00093 0.0
H2042 H 0.3459 0.80913 0.05989 0.0
C2043 C 0.40506 0.76257 0.9924 0.0
C2044 C 0.41079 0.76219 0.96698 0.0
C2045 C 0.39603 0.77576 0.95013 0.0
C2046 C 0.37586 0.78999 0.95864 0.0
C2047 C 0.37109 0.79059 0.98402 0.0
C2048 C 0.38529 0.77718 0.00062 0.0
C2049 C 0.37787 0.78255 0.02701 0.0
C2050 C 0.36849 0.75911 0.04025 0.0
C2051 C 0.3993 0.7941 0.04105 0.0
C2052 C 0.3572 0.80105 0.02275 0.0
C2053 C 0.35342 0.80539 0.99788 0.0
C2054 C 0.33524 0.82187 0.98961 0.0
C2055 C 0.32034 0.83393 0.00725 0.0
C2056 C 0.3239 0.82959 0.03284 0.0
C2057 C 0.34276 0.81306 0.04052 0.0
H2058 H 0.91971 0.60006 0.72823 0.0
H2059 H 0.97955 0.55161 0.70488 0.0
H2060 H 0.98563 0.57733 0.6671 0.0
H2061 H 0.89597 0.61394 0.66376 0.0
H2062 H 0.88814 0.6452 0.67217 0.0
H2063 H 0.88631 0.62069 0.69497 0.0
H2064 H 0.91553 0.64491 0.72335 0.0
H2065 H 0.91705 0.66921 0.70059 0.0
H2066 H 0.94509 0.65465 0.71131 0.0
H2067 H 0.99128 0.61384 0.638 0.0
H2068 H 0.99295 0.65526 0.61808 0.0
H2069 H 0.92542 0.67591 0.65681 0.0
C2070 C 0.93354 0.59448 0.7147 0.0
C2071 C 0.94915 0.57398 0.71922 0.0
C2072 C 0.96726 0.56719 0.70144 0.0
C2073 C 0.97082 0.58167 0.68 0.0
C2074 C 0.95553 0.6023 0.67633 0.0
C2075 C 0.93678 0.60827 0.69292 0.0
C2076 C 0.92395 0.6322 0.68574 0.0
C2077 C 0.897 0.62772 0.67873 0.0
C2078 C 0.92554 0.65134 0.70647 0.0
C2079 C 0.93935 0.63956 0.66338 0.0
C2080 C 0.95751 0.62217 0.65816 0.0
C2081 C 0.97652 0.62713 0.64119 0.0
C2082 C 0.97735 0.65067 0.62992 0.0
C2083 C 0.95903 0.66873 0.63532 0.0
C2084 C 0.93927 0.66248 0.65142 0.0
H2085 H 0.08487 0.20484 0.44146 0.0
H2086 H 0.07642 0.27658 0.47566 0.0
H2087 H 0.11363 0.26831 0.49994 0.0
H2088 H 0.09787 0.17336 0.49508 0.0
H2089 H 0.11997 0.15186 0.48206 0.0
H2090 H 0.09629 0.16526 0.46297 0.0
H2091 H 0.12951 0.18163 0.43224 0.0
H2092 H 0.1534 0.16809 0.45116 0.0
H2093 H 0.15405 0.20054 0.44335 0.0
H2094 H 0.14552 0.24979 0.52631 0.0
H2095 H 0.17259 0.22293 0.55144 0.0
H2096 H 0.1609 0.16234 0.50158 0.0
C2097 C 0.09081 0.21888 0.45393 0.0
C2098 C 0.0772 0.24112 0.45706 0.0
C2099 C 0.08641 0.25937 0.47288 0.0
C2100 C 0.10757 0.25484 0.48684 0.0
C2101 C 0.11954 0.23208 0.48456 0.0
C2102 C 0.11177 0.21448 0.46828 0.0
C2103 C 0.12629 0.19051 0.47146 0.0
C2104 C 0.10908 0.16899 0.47831 0.0
C2105 C 0.14173 0.18487 0.44816 0.0
C2106 C 0.14263 0.19708 0.49286 0.0
C2107 C 0.13857 0.22129 0.49984 0.0
C2108 C 0.14936 0.23102 0.52067 0.0
C2109 C 0.16453 0.21559 0.53491 0.0
C2110 C 0.16891 0.19074 0.52822 0.0
C2111 C 0.15824 0.18146 0.50667 0.0
H2112 H 0.07911 0.17209 0.83532 0.0
H2113 H 0.01705 0.15135 0.88216 0.0
H2114 H 0.01443 0.11184 0.85994 0.0
H2115 H 0.05108 0.15718 0.78376 0.0
H2116 H 0.07744 0.1462 0.76635 0.0
H2117 H 0.08146 0.16859 0.79004 0.0
H2118 H 0.11271 0.14114 0.81272 0.0
H2119 H 0.11043 0.11792 0.78931 0.0
H2120 H 0.10501 0.10984 0.82127 0.0
H2121 H 0.01525 0.07723 0.82896 0.0
H2122 H 0.01632 0.05326 0.7903 0.0
H2123 H 0.07293 0.10127 0.76029 0.0
C2124 C 0.06553 0.15906 0.84172 0.0
C2125 C 0.0485 0.16479 0.86084 0.0
C2126 C 0.03058 0.14715 0.86787 0.0
C2127 C 0.02897 0.12468 0.85532 0.0
C2128 C 0.04514 0.12037 0.8355 0.0
C2129 C 0.063 0.13723 0.82868 0.0
C2130 C 0.07484 0.13094 0.80402 0.0
C2131 C 0.07096 0.15197 0.78494 0.0
C2132 C 0.10239 0.12459 0.80702 0.0
C2133 C 0.06035 0.10833 0.79757 0.0
C2134 C 0.04396 0.10194 0.81635 0.0
C2135 C 0.02816 0.08197 0.81427 0.0
C2136 C 0.02888 0.06849 0.79231 0.0
C2137 C 0.04467 0.07558 0.77252 0.0
C2138 C 0.06074 0.09556 0.77528 0.0
H2139 H 0.58032 0.28884 0.54186 0.0
H2140 H 0.57747 0.21753 0.50635 0.0
H2141 H 0.61585 0.22693 0.4837 0.0
H2142 H 0.5945 0.32117 0.48902 0.0
H2143 H 0.61456 0.34321 0.5029 0.0
H2144 H 0.59061 0.32886 0.52113 0.0
H2145 H 0.62302 0.31327 0.55267 0.0
H2146 H 0.64715 0.32773 0.53457 0.0
H2147 H 0.64923 0.29526 0.54214 0.0
H2148 H 0.64848 0.24652 0.45878 0.0
H2149 H 0.67483 0.27465 0.43426 0.0
H2150 H 0.65655 0.33442 0.48394 0.0
C2151 C 0.58765 0.27514 0.52939 0.0
C2152 C 0.57528 0.2527 0.52542 0.0
C2153 C 0.58642 0.2349 0.50975 0.0
C2154 C 0.60829 0.24007 0.49674 0.0
C2155 C 0.61899 0.26304 0.49975 0.0
C2156 C 0.60925 0.28024 0.51587 0.0
C2157 C 0.62253 0.30467 0.51331 0.0
C2158 C 0.60448 0.3257 0.50616 0.0
C2159 C 0.63631 0.31057 0.53709 0.0
C2160 C 0.64045 0.29885 0.49237 0.0
C2161 C 0.63832 0.27454 0.48519 0.0
C2162 C 0.65083 0.26536 0.46461 0.0
C2163 C 0.66561 0.28149 0.45074 0.0
C2164 C 0.66784 0.30647 0.45751 0.0
C2165 C 0.65558 0.31519 0.47888 0.0
H2166 H 0.41631 0.82386 0.32917 0.0
H2167 H 0.47898 0.84508 0.37258 0.0
H2168 H 0.47633 0.88726 0.35431 0.0
H2169 H 0.44131 0.85055 0.27586 0.0
H2170 H 0.4114 0.85707 0.2629 0.0
H2171 H 0.41533 0.83192 0.28449 0.0
H2172 H 0.37971 0.85176 0.31141 0.0
H2173 H 0.37738 0.87734 0.28988 0.0
H2174 H 0.38303 0.88293 0.32205 0.0
H2175 H 0.46985 0.92554 0.32704 0.0
H2176 H 0.46427 0.95341 0.29076 0.0
H2177 H 0.41085 0.90327 0.26122 0.0
C2178 C 0.42911 0.83734 0.33552 0.0
C2179 C 0.44764 0.83112 0.35267 0.0
C2180 C 0.4643 0.84956 0.35982 0.0
C2181 C 0.46291 0.87354 0.34951 0.0
C2182 C 0.44516 0.87857 0.33159 0.0
C2183 C 0.42883 0.86073 0.32443 0.0
C2184 C 0.41508 0.86852 0.30141 0.0
C2185 C 0.42112 0.851 0.27991 0.0
C2186 C 0.38714 0.87025 0.3065 0.0
C2187 C 0.42603 0.89367 0.29671 0.0
C2188 C 0.44292 0.89949 0.3146 0.0
C2189 C 0.45647 0.92123 0.31313 0.0
C2190 C 0.45315 0.93698 0.29253 0.0
C2191 C 0.43703 0.93044 0.27341 0.0
C2192 C 0.42304 0.90878 0.2758 0.0
H2193 H 0.9207 0.73701 0.0021 0.0
H2194 H 0.90422 0.71023 0.07611 0.0
H2195 H 0.86891 0.68662 0.06012 0.0
H2196 H 0.85758 0.74127 0.9788 0.0
H2197 H 0.86697 0.73019 0.94883 0.0
H2198 H 0.88826 0.74727 0.96705 0.0
H2199 H 0.92 0.71117 0.9636 0.0
H2200 H 0.89865 0.69372 0.94585 0.0
H2201 H 0.91129 0.68066 0.97382 0.0
H2202 H 0.8366 0.66434 0.03486 0.0
H2203 H 0.81047 0.64563 0.00305 0.0
H2204 H 0.85148 0.6853 0.94596 0.0
C2205 C 0.90905 0.72691 0.01504 0.0
C2206 C 0.91448 0.7259 0.04036 0.0
C2207 C 0.89974 0.71159 0.0567 0.0
C2208 C 0.87985 0.69807 0.04775 0.0
C2209 C 0.87539 0.69887 0.02243 0.0
C2210 C 0.88964 0.71297 0.00636 0.0
C2211 C 0.8827 0.70916 0.97981 0.0
C2212 C 0.87331 0.73341 0.96793 0.0
C2213 C 0.90445 0.69801 0.96491 0.0
C2214 C 0.86215 0.69083 0.98334 0.0
C2215 C 0.85802 0.68515 0.00799 0.0
C2216 C 0.8397 0.66868 0.01551 0.0
C2217 C 0.82501 0.65808 0.99734 0.0
C2218 C 0.829 0.66385 0.972 0.0
C2219 C 0.84802 0.68025 0.96511 0.0
H2220 H 0.18601 0.51534 0.30928 0.0
H2221 H 0.11906 0.55123 0.3359 0.0
H2222 H 0.13963 0.55997 0.37559 0.0
H2223 H 0.20765 0.48862 0.36689 0.0
H2224 H 0.23944 0.49547 0.35963 0.0
H2225 H 0.21814 0.48983 0.33516 0.0
H2226 H 0.22958 0.53182 0.31519 0.0
H2227 H 0.25023 0.53845 0.33993 0.0
H2228 H 0.22544 0.55971 0.33256 0.0
H2229 H 0.16881 0.56513 0.41222 0.0
H2230 H 0.20365 0.56767 0.44128 0.0
H2231 H 0.25163 0.53153 0.38763 0.0
C2232 C 0.17543 0.52438 0.32376 0.0
C2233 C 0.15081 0.53209 0.31995 0.0
C2234 C 0.13784 0.54482 0.33881 0.0
C2235 C 0.14941 0.54992 0.36127 0.0
C2236 C 0.17403 0.54254 0.36418 0.0
C2237 C 0.18685 0.53018 0.34578 0.0
C2238 C 0.21363 0.52608 0.35225 0.0
C2239 C 0.22008 0.49835 0.35357 0.0
C2240 C 0.23072 0.53984 0.33391 0.0
C2241 C 0.21391 0.5376 0.37746 0.0
C2242 C 0.19095 0.54691 0.3842 0.0
C2243 C 0.18687 0.55797 0.40705 0.0
C2244 C 0.20675 0.55934 0.42342 0.0
C2245 C 0.23042 0.54995 0.4167 0.0
C2246 C 0.23388 0.53913 0.39331 0.0
H2247 H 0.73826 0.92358 0.60594 0.0
H2248 H 0.7022 0.97383 0.55462 0.0
H2249 H 0.66541 0.97575 0.58239 0.0
H2250 H 0.68049 0.89009 0.62505 0.0
H2251 H 0.69143 0.88621 0.65616 0.0
H2252 H 0.71312 0.88699 0.63058 0.0
H2253 H 0.73623 0.92321 0.6514 0.0
H2254 H 0.71457 0.92189 0.67676 0.0
H2255 H 0.71893 0.95049 0.65997 0.0
H2256 H 0.63637 0.97795 0.61983 0.0
H2257 H 0.61598 0.97643 0.66121 0.0
H2258 H 0.66923 0.92112 0.6848 0.0
C2259 C 0.72234 0.93449 0.60035 0.0
C2260 C 0.72285 0.94857 0.57833 0.0
C2261 C 0.70188 0.96277 0.57144 0.0
C2262 C 0.68099 0.96397 0.58707 0.0
C2263 C 0.68122 0.95023 0.60905 0.0
C2264 C 0.70115 0.93526 0.61531 0.0
C2265 C 0.69738 0.92308 0.64028 0.0
C2266 C 0.69549 0.89492 0.63787 0.0
C2267 C 0.71798 0.9301 0.65815 0.0
C2268 C 0.67282 0.93445 0.6477 0.0
C2269 C 0.66367 0.95009 0.62956 0.0
C2270 C 0.64287 0.96506 0.63381 0.0
C2271 C 0.63141 0.96411 0.65729 0.0
C2272 C 0.64053 0.94799 0.67588 0.0
C2273 C 0.66116 0.93274 0.6707 0.0
H2274 H 0.84408 0.00472 0.33739 0.0
H2275 H 0.78168 0.05137 0.3173 0.0
H2276 H 0.75416 0.026 0.34353 0.0
H2277 H 0.80927 0.94508 0.34461 0.0
H2278 H 0.82671 0.9357 0.37134 0.0
H2279 H 0.84092 0.95444 0.34745 0.0
H2280 H 0.85209 0.987 0.38001 0.0
H2281 H 0.83793 0.9684 0.40389 0.0
H2282 H 0.82798 -1e-05 0.3993 0.0
H2283 H 0.73462 2e-05 0.37537 0.0
H2284 H 0.72469 0.97685 0.41338 0.0
H2285 H 0.79881 0.94517 0.41309 0.0
C2286 C 0.82449 0.009 0.33808 0.0
C2287 C 0.8148 0.02973 0.3253 0.0
C2288 C 0.78929 0.03545 0.32703 0.0
C2289 C 0.77352 0.02106 0.34168 0.0
C2290 C 0.78357 0.00103 0.35457 0.0
C2291 C 0.80845 0.99495 0.35304 0.0
C2292 C 0.81486 0.97447 0.37133 0.0
C2293 C 0.82345 0.95103 0.35787 0.0
C2294 C 0.83436 0.98299 0.38971 0.0
C2295 C 0.78996 0.97081 0.38393 0.0
C2296 C 0.77213 0.986 0.37359 0.0
C2297 C 0.74831 0.98772 0.38343 0.0
C2298 C 0.74284 0.97438 0.40506 0.0
C2299 C 0.76116 0.95966 0.41682 0.0
C2300 C 0.7846 0.9569 0.40526 0.0
H2301 H 0.76742 0.06284 0.10056 0.0
H2302 H 0.79442 0.00149 0.05697 0.0
H2303 H 0.83117 0.99763 0.08369 0.0
H2304 H 0.83008 0.08928 0.11236 0.0
H2305 H 0.82063 0.09875 0.14289 0.0
H2306 H 0.79837 0.09799 0.11847 0.0
H2307 H 0.77062 0.06868 0.14545 0.0
H2308 H 0.79285 0.0706 0.16961 0.0
H2309 H 0.78416 0.04085 0.15823 0.0
H2310 H 0.85976 0.99542 0.12041 0.0
H2311 H 0.87978 0.99785 0.16117 0.0
H2312 H 0.83779 0.06473 0.17627 0.0
C2313 C 0.78143 0.04901 0.09637 0.0
C2314 C 0.7783 0.03242 0.0769 0.0
C2315 C 0.79676 0.01444 0.0718 0.0
C2316 C 0.81762 0.01214 0.08685 0.0
C2317 C 0.82001 0.02853 0.10631 0.0
C2318 C 0.80268 0.04702 0.11067 0.0
C2319 C 0.80889 0.06161 0.13331 0.0
C2320 C 0.81486 0.08851 0.12633 0.0
C2321 C 0.7879 0.06033 0.15279 0.0
C2322 C 0.83171 0.04767 0.14176 0.0
C2323 C 0.83785 0.02857 0.12607 0.0
C2324 C 0.85574 0.01086 0.13234 0.0
C2325 C 0.86706 0.01238 0.15549 0.0
C2326 C 0.86079 0.03172 0.17182 0.0
C2327 C 0.84365 0.05006 0.16422 0.0
H2328 H 0.74267 0.98259 0.92609 0.0
H2329 H 0.72343 0.05794 0.90595 0.0
H2330 H 0.70019 0.04287 0.87001 0.0
H2331 H 0.74718 0.95637 0.86369 0.0
H2332 H 0.73288 0.92806 0.87384 0.0
H2333 H 0.75103 0.94539 0.895 0.0
H2334 H 0.71377 0.94664 0.92552 0.0
H2335 H 0.69513 0.93001 0.90428 0.0
H2336 H 0.68478 0.95965 0.91543 0.0
H2337 H 0.67662 0.01864 0.83795 0.0
H2338 H 0.6548 0.9878 0.81313 0.0
H2339 H 0.68776 0.92893 0.85741 0.0
C2340 C 0.73442 0.99592 0.91348 0.0
C2341 C 0.73536 0.02137 0.91807 0.0
C2342 C 0.72332 0.03837 0.90211 0.0
C2343 C 0.71003 0.02996 0.88183 0.0
C2344 C 0.7088 0.00454 0.87819 0.0
C2345 C 0.72073 0.98782 0.89362 0.0
C2346 C 0.71453 0.96152 0.88759 0.0
C2347 C 0.73779 0.94698 0.87954 0.0
C2348 C 0.70127 0.94871 0.9095 0.0
C2349 C 0.69729 0.96595 0.86628 0.0
C2350 C 0.69428 0.9908 0.8609 0.0
C2351 C 0.67893 0.99912 0.84196 0.0
C2352 C 0.66656 0.98151 0.82802 0.0
C2353 C 0.66943 0.95596 0.83339 0.0
C2354 C 0.68495 0.94829 0.85287 0.0
H2355 H 0.25314 0.47208 0.88192 0.0
H2356 H 0.30219 0.43823 0.93569 0.0
H2357 H 0.33697 0.44158 0.90548 0.0
H2358 H 0.27792 0.44244 0.82939 0.0
H2359 H 0.27361 0.46896 0.8094 0.0
H2360 H 0.25349 0.46449 0.83573 0.0
H2361 H 0.26458 0.50802 0.85141 0.0
H2362 H 0.28494 0.5125 0.8252 0.0
H2363 H 0.29651 0.51554 0.85605 0.0
H2364 H 0.36556 0.44592 0.86703 0.0
H2365 H 0.38466 0.45186 0.82539 0.0
H2366 H 0.31623 0.48457 0.79932 0.0
C2367 C 0.27118 0.46539 0.88753 0.0
C2368 C 0.27491 0.45475 0.91115 0.0
C2369 C 0.29891 0.44646 0.91768 0.0
C2370 C 0.31874 0.4483 0.90065 0.0
C2371 C 0.31426 0.45878 0.87739 0.0
C2372 C 0.29101 0.46731 0.87101 0.0
C2373 C 0.29049 0.47732 0.84488 0.0
C2374 C 0.27284 0.46241 0.82893 0.0
C2375 C 0.28374 0.50499 0.84437 0.0
C2376 C 0.31706 0.47298 0.83729 0.0
C2377 C 0.33061 0.46216 0.8561 0.0
C2378 C 0.35518 0.45477 0.85236 0.0
C2379 C 0.36589 0.45819 0.82872 0.0
C2380 C 0.35205 0.46907 0.80935 0.0
C2381 C 0.32754 0.47694 0.81398 0.0
H2382 H 0.33499 0.48364 0.65794 0.0
H2383 H 0.28483 0.42189 0.65539 0.0
H2384 H 0.25674 0.44637 0.62909 0.0
H2385 H 0.28842 0.53354 0.65681 0.0
H2386 H 0.30634 0.55298 0.6363 0.0
H2387 H 0.32168 0.53173 0.6571 0.0
H2388 H 0.34524 0.51193 0.62018 0.0
H2389 H 0.33016 0.53329 0.59937 0.0
H2390 H 0.32801 0.50054 0.59454 0.0
H2391 H 0.23491 0.47612 0.6021 0.0
H2392 H 0.22327 0.50741 0.57099 0.0
H2393 H 0.28729 0.55049 0.58966 0.0
C2394 C 0.31795 0.47547 0.65201 0.0
C2395 C 0.31199 0.45094 0.65876 0.0
C2396 C 0.28979 0.44062 0.65032 0.0
C2397 C 0.27359 0.45444 0.63559 0.0
C2398 C 0.27992 0.47853 0.62923 0.0
C2399 C 0.3017 0.48891 0.63679 0.0
C2400 C 0.30504 0.51433 0.6252 0.0
C2401 C 0.30538 0.53433 0.64504 0.0
C2402 C 0.3285 0.51505 0.60885 0.0
C2403 C 0.28189 0.51639 0.60979 0.0
C2404 C 0.26751 0.49567 0.61281 0.0
C2405 C 0.2459 0.49255 0.59967 0.0
C2406 C 0.23934 0.51057 0.58215 0.0
C2407 C 0.25452 0.53132 0.57763 0.0
C2408 C 0.27551 0.5347 0.5924 0.0
H2409 H 0.25021 0.49344 0.06757 0.0
H2410 H 0.22533 0.41987 0.08652 0.0
H2411 H 0.20273 0.43646 0.12305 0.0
H2412 H 0.2557 0.51796 0.13032 0.0
H2413 H 0.24362 0.54774 0.12088 0.0
H2414 H 0.26069 0.52906 0.09913 0.0
H2415 H 0.22388 0.53219 0.06926 0.0
H2416 H 0.20601 0.54996 0.0911 0.0
H2417 H 0.19397 0.5216 0.07936 0.0
H2418 H 0.1807 0.46227 0.15603 0.0
H2419 H 0.16157 0.49453 0.18237 0.0
H2420 H 0.19889 0.55091 0.13856 0.0
C2421 C 0.24085 0.48071 0.08002 0.0
C2422 C 0.24002 0.45534 0.07489 0.0
C2423 C 0.22658 0.4393 0.09072 0.0
C2424 C 0.21362 0.4486 0.11132 0.0
C2425 C 0.21409 0.47397 0.11543 0.0
C2426 C 0.22744 0.48975 0.10018 0.0
C2427 C 0.22307 0.51644 0.10684 0.0
C2428 C 0.24721 0.5285 0.11477 0.0
C2429 C 0.21102 0.5309 0.08538 0.0
C2430 C 0.20532 0.51331 0.12836 0.0
C2431 C 0.20041 0.48874 0.13322 0.0
C2432 C 0.18447 0.48156 0.1524 0.0
C2433 C 0.17362 0.5 0.16719 0.0
C2434 C 0.17859 0.52527 0.1625 0.0
C2435 C 0.19449 0.53182 0.14263 0.0
loop_
_geom_bond_atom_site_label_1
_geom_bond_atom_site_label_2
_geom_bond_distance
_geom_bond_site_symmetry_2
_ccdc_geom_bond_type
Co0 O3 1.970 . S
Co0 N17 1.989 . S
Co0 O25 1.967 . S
Co0 O32 1.920 . S
Co1 O4 1.966 . S
Co1 N10 2.022 . S
Co1 N18 1.993 . S
Co1 O26 1.941 . S
C2 O3 1.258 . S
C2 O4 1.263 . S
O3 Co0 1.970 . S
O3 C2 1.258 . S
O4 Co1 1.966 . S
O4 C2 1.263 . S
C5 O6 1.235 . S
C5 O32 1.289 . S
O6 C5 1.235 . S
C7 C9 1.400 . S
C7 N10 1.351 . S
C7 C12 1.501 . S
C8 C9 1.387 . S
C8 N11 1.341 . S
C9 C7 1.400 . S
C9 C8 1.387 . S
N10 Co1 2.022 . S
N10 C7 1.351 . S
N10 N11 1.365 . S
N11 C8 1.341 . S
N11 N10 1.365 . S
N11 H31 0.862 . S
C12 C7 1.501 . S
C12 H13 0.961 . S
C12 H14 0.961 . S
C12 H15 0.960 . S
H13 C12 0.961 . S
H14 C12 0.961 . S
H15 C12 0.960 . S
C16 N17 1.342 . S
C16 C20 1.401 . S
C16 C21 1.499 . S
N17 Co0 1.989 . S
N17 C16 1.342 . S
N17 N18 1.388 . S
N18 Co1 1.993 . S
N18 N17 1.388 . S
N18 C19 1.346 . S
C19 N18 1.346 . S
C19 C20 1.396 . S
C19 C29 1.510 . S
C20 C16 1.401 . S
C20 C19 1.396 . S
C21 C16 1.499 . S
C21 H22 0.959 . S
C21 H23 0.960 . S
C21 H24 0.961 . S
H22 C21 0.959 . S
H23 C21 0.960 . S
H24 C21 0.961 . S
O25 Co0 1.967 . S
O25 C33 1.258 . S
O26 Co1 1.941 . S
O26 C33 1.266 . S
H27 C29 0.959 . S
H28 C29 0.961 . S
C29 C19 1.510 . S
C29 H27 0.959 . S
C29 H28 0.961 . S
C29 H30 0.960 . S
H30 C29 0.960 . S
H31 N11 0.862 . S
O32 Co0 1.920 . S
O32 C5 1.289 . S
C33 O25 1.258 . S
C33 O26 1.266 . S
Co34 O37 1.970 . S
Co34 N51 1.989 . S
Co34 O59 1.967 . S
Co34 O66 1.920 . S
Co35 O38 1.966 . S
Co35 N44 2.022 . S
Co35 N52 1.993 . S
Co35 O60 1.941 . S
C36 O37 1.258 . S
C36 O38 1.263 . S
O37 Co34 1.970 . S
O37 C36 1.258 . S
O38 Co35 1.966 . S
O38 C36 1.263 . S
C39 O40 1.235 . S
C39 O66 1.289 . S
O40 C39 1.235 . S
C41 C43 1.400 . S
C41 N44 1.351 . S
C41 C46 1.501 . S
C42 C43 1.387 . S
C42 N45 1.341 . S
C43 C41 1.400 . S
C43 C42 1.387 . S
N44 Co35 2.022 . S
N44 C41 1.351 . S
N44 N45 1.365 . S
N45 C42 1.341 . S
N45 N44 1.365 . S
N45 H65 0.862 . S
C46 C41 1.501 . S
C46 H47 0.961 . S
C46 H48 0.961 . S
C46 H49 0.960 . S
H47 C46 0.961 . S
H48 C46 0.961 . S
H49 C46 0.960 . S
C50 N51 1.342 . S
C50 C54 1.401 . S
C50 C55 1.499 . S
N51 Co34 1.989 . S
N51 C50 1.342 . S
N51 N52 1.388 . S
N52 Co35 1.993 . S
N52 N51 1.388 . S
N52 C53 1.346 . S
C53 N52 1.346 . S
C53 C54 1.396 . S
C53 C63 1.510 . S
C54 C50 1.401 . S
C54 C53 1.396 . S
C55 C50 1.499 . S
C55 H56 0.959 . S
C55 H57 0.960 . S
C55 H58 0.961 . S
H56 C55 0.959 . S
H57 C55 0.960 . S
H58 C55 0.961 . S
O59 Co34 1.967 . S
O59 C67 1.258 . S
O60 Co35 1.941 . S
O60 C67 1.266 . S
H61 C63 0.959 . S
H62 C63 0.961 . S
C63 C53 1.510 . S
C63 H61 0.959 . S
C63 H62 0.961 . S
C63 H64 0.960 . S
H64 C63 0.960 . S
H65 N45 0.862 . S
O66 Co34 1.920 . S
O66 C39 1.289 . S
C67 O59 1.258 . S
C67 O60 1.266 . S
Co68 O71 1.970 . S
Co68 N85 1.989 . S
Co68 O93 1.967 . S
Co68 O100 1.920 . S
Co69 O72 1.966 . S
Co69 N78 2.022 . S
Co69 N86 1.993 . S
Co69 O94 1.941 . S
C70 O71 1.258 . S
C70 O72 1.263 . S
O71 Co68 1.970 . S
O71 C70 1.258 . S
O72 Co69 1.966 . S
O72 C70 1.263 . S
C73 O74 1.235 . S
C73 O100 1.289 . S
O74 C73 1.235 . S
C75 C77 1.400 . S
C75 N78 1.351 . S
C75 C80 1.501 . S
C76 C77 1.387 . S
C76 N79 1.341 . S
C77 C75 1.400 . S
C77 C76 1.387 . S
N78 Co69 2.022 . S
N78 C75 1.351 . S
N78 N79 1.365 . S
N79 C76 1.341 . S
N79 N78 1.365 . S
N79 H99 0.862 . S
C80 C75 1.501 . S
C80 H81 0.961 . S
C80 H82 0.961 . S
C80 H83 0.960 . S
H81 C80 0.961 . S
H82 C80 0.961 . S
H83 C80 0.960 . S
C84 N85 1.342 . S
C84 C88 1.401 . S
C84 C89 1.499 . S
N85 Co68 1.989 . S
N85 C84 1.342 . S
N85 N86 1.388 . S
N86 Co69 1.993 . S
N86 N85 1.388 . S
N86 C87 1.346 . S
C87 N86 1.346 . S
C87 C88 1.396 . S
C87 C97 1.510 . S
C88 C84 1.401 . S
C88 C87 1.396 . S
C89 C84 1.499 . S
C89 H90 0.959 . S
C89 H91 0.960 . S
C89 H92 0.961 . S
H90 C89 0.959 . S
H91 C89 0.960 . S
H92 C89 0.961 . S
O93 Co68 1.967 . S
O93 C101 1.258 . S
O94 Co69 1.941 . S
O94 C101 1.266 . S
H95 C97 0.959 . S
H96 C97 0.961 . S
C97 C87 1.510 . S
C97 H95 0.959 . S
C97 H96 0.961 . S
C97 H98 0.960 . S
H98 C97 0.960 . S
H99 N79 0.862 . S
O100 Co68 1.920 . S
O100 C73 1.289 . S
C101 O93 1.258 . S
C101 O94 1.266 . S
Co102 O105 1.970 . S
Co102 N119 1.989 1_655 S
Co102 O127 1.967 . S
Co102 O134 1.920 1_655 S
Co103 O106 1.966 . S
Co103 N112 2.022 . S
Co103 N120 1.993 1_655 S
Co103 O128 1.941 . S
C104 O105 1.258 . S
C104 O106 1.263 . S
O105 Co102 1.970 . S
O105 C104 1.258 . S
O106 Co103 1.966 . S
O106 C104 1.263 . S
C107 O108 1.234 1_455 S
C107 O134 1.289 . S
O108 C107 1.234 1_655 S
C109 C111 1.400 . S
C109 N112 1.351 . S
C109 C114 1.501 . S
C110 C111 1.387 1_455 S
C110 N113 1.341 . S
C111 C109 1.400 . S
C111 C110 1.387 1_655 S
N112 Co103 2.022 . S
N112 C109 1.351 . S
N112 N113 1.365 1_655 S
N113 C110 1.341 . S
N113 N112 1.365 1_455 S
N113 H133 0.862 . S
C114 C109 1.501 . S
C114 H115 0.961 . S
C114 H116 0.961 . S
C114 H117 0.960 . S
H115 C114 0.961 . S
H116 C114 0.961 . S
H117 C114 0.960 . S
C118 N119 1.342 . S
C118 C122 1.401 . S
C118 C123 1.499 . S
N119 Co102 1.989 1_455 S
N119 C118 1.342 . S
N119 N120 1.388 . S
N120 Co103 1.993 1_455 S
N120 N119 1.388 . S
N120 C121 1.346 . S
C121 N120 1.346 . S
C121 C122 1.396 . S
C121 C131 1.510 . S
C122 C118 1.401 . S
C122 C121 1.396 . S
C123 C118 1.499 . S
C123 H124 0.959 . S
C123 H125 0.960 . S
C123 H126 0.961 . S
H124 C123 0.959 . S
H125 C123 0.960 . S
H126 C123 0.961 . S
O127 Co102 1.967 . S
O127 C135 1.258 . S
O128 Co103 1.941 . S
O128 C135 1.266 . S
H129 C131 0.959 . S
H130 C131 0.961 . S
C131 C121 1.510 . S
C131 H129 0.959 . S
C131 H130 0.961 . S
C131 H132 0.960 . S
H132 C131 0.960 . S
H133 N113 0.862 . S
O134 Co102 1.920 1_455 S
O134 C107 1.289 . S
C135 O127 1.258 . S
C135 O128 1.266 . S
Co136 O139 1.970 . S
Co136 N153 1.989 . S
Co136 O161 1.967 . S
Co136 O168 1.920 . S
Co137 O140 1.966 . S
Co137 N146 2.022 . S
Co137 N154 1.993 . S
Co137 O162 1.941 . S
C138 O139 1.258 . S
C138 O140 1.263 . S
O139 Co136 1.970 . S
O139 C138 1.258 . S
O140 Co137 1.966 . S
O140 C138 1.263 . S
C141 O142 1.235 . S
C141 O168 1.289 . S
O142 C141 1.235 . S
C143 C145 1.400 . S
C143 N146 1.351 . S
C143 C148 1.501 . S
C144 C145 1.387 . S
C144 N147 1.341 . S
C145 C143 1.400 . S
C145 C144 1.387 . S
N146 Co137 2.022 . S
N146 C143 1.351 . S
N146 N147 1.365 . S
N147 C144 1.341 . S
N147 N146 1.365 . S
N147 H167 0.862 . S
C148 C143 1.501 . S
C148 H149 0.961 . S
C148 H150 0.961 . S
C148 H151 0.960 . S
H149 C148 0.961 . S
H150 C148 0.961 . S
H151 C148 0.960 . S
C152 N153 1.342 . S
C152 C156 1.401 . S
C152 C157 1.499 . S
N153 Co136 1.989 . S
N153 C152 1.342 . S
N153 N154 1.388 . S
N154 Co137 1.993 . S
N154 N153 1.388 . S
N154 C155 1.346 . S
C155 N154 1.346 . S
C155 C156 1.396 . S
C155 C165 1.510 . S
C156 C152 1.401 . S
C156 C155 1.396 . S
C157 C152 1.499 . S
C157 H158 0.959 . S
C157 H159 0.960 . S
C157 H160 0.961 . S
H158 C157 0.959 . S
H159 C157 0.960 . S
H160 C157 0.961 . S
O161 Co136 1.967 . S
O161 C169 1.258 . S
O162 Co137 1.941 . S
O162 C169 1.266 . S
H163 C165 0.959 . S
H164 C165 0.961 . S
C165 C155 1.510 . S
C165 H163 0.959 . S
C165 H164 0.961 . S
C165 H166 0.960 . S
H166 C165 0.960 . S
H167 N147 0.862 . S
O168 Co136 1.920 . S
O168 C141 1.289 . S
C169 O161 1.258 . S
C169 O162 1.266 . S
Co170 O173 1.970 . S
Co170 N187 1.989 . S
Co170 O195 1.967 . S
Co170 O202 1.920 . S
Co171 O174 1.966 . S
Co171 N180 2.022 1_565 S
Co171 N188 1.993 . S
Co171 O196 1.941 . S
C172 O173 1.258 . S
C172 O174 1.263 . S
O173 Co170 1.970 . S
O173 C172 1.258 . S
O174 Co171 1.966 . S
O174 C172 1.263 . S
C175 O176 1.235 . S
C175 O202 1.289 . S
O176 C175 1.235 . S
C177 C179 1.400 . S
C177 N180 1.351 . S
C177 C182 1.501 . S
C178 C179 1.387 . S
C178 N181 1.341 . S
C179 C177 1.400 . S
C179 C178 1.387 . S
N180 Co171 2.022 1_545 S
N180 C177 1.351 . S
N180 N181 1.365 . S
N181 C178 1.341 . S
N181 N180 1.365 . S
N181 H201 0.862 . S
C182 C177 1.501 . S
C182 H183 0.961 . S
C182 H184 0.961 . S
C182 H185 0.960 . S
H183 C182 0.961 . S
H184 C182 0.961 . S
H185 C182 0.960 . S
C186 N187 1.342 . S
C186 C190 1.401 . S
C186 C191 1.499 . S
N187 Co170 1.989 . S
N187 C186 1.342 . S
N187 N188 1.388 . S
N188 Co171 1.993 . S
N188 N187 1.388 . S
N188 C189 1.346 . S
C189 N188 1.346 . S
C189 C190 1.396 . S
C189 C199 1.510 1_565 S
C190 C186 1.401 . S
C190 C189 1.396 . S
C191 C186 1.499 . S
C191 H192 0.959 . S
C191 H193 0.960 . S
C191 H194 0.961 . S
H192 C191 0.959 . S
H193 C191 0.960 . S
H194 C191 0.961 . S
O195 Co170 1.967 . S
O195 C203 1.258 . S
O196 Co171 1.941 . S
O196 C203 1.266 . S
H197 C199 0.959 . S
H198 C199 0.961 . S
C199 C189 1.510 1_545 S
C199 H197 0.959 . S
C199 H198 0.961 . S
C199 H200 0.960 . S
H200 C199 0.960 . S
H201 N181 0.862 . S
O202 Co170 1.920 . S
O202 C175 1.289 . S
C203 O195 1.258 . S
C203 O196 1.266 . S
Co204 O207 1.970 . S
Co204 N221 1.989 . S
Co204 O229 1.967 . S
Co204 O236 1.920 . S
Co205 O208 1.966 . S
Co205 N214 2.022 . S
Co205 N222 1.993 . S
Co205 O230 1.941 . S
C206 O207 1.258 . S
C206 O208 1.263 . S
O207 Co204 1.970 . S
O207 C206 1.258 . S
O208 Co205 1.966 . S
O208 C206 1.263 . S
C209 O210 1.235 . S
C209 O236 1.289 . S
O210 C209 1.235 . S
C211 C213 1.400 . S
C211 N214 1.351 . S
C211 C216 1.501 . S
C212 C213 1.387 . S
C212 N215 1.341 . S
C213 C211 1.400 . S
C213 C212 1.387 . S
N214 Co205 2.022 . S
N214 C211 1.351 . S
N214 N215 1.365 . S
N215 C212 1.341 . S
N215 N214 1.365 . S
N215 H235 0.862 . S
C216 C211 1.501 . S
C216 H217 0.961 . S
C216 H218 0.961 . S
C216 H219 0.960 . S
H217 C216 0.961 . S
H218 C216 0.961 . S
H219 C216 0.960 . S
C220 N221 1.342 . S
C220 C224 1.401 . S
C220 C225 1.499 . S
N221 Co204 1.989 . S
N221 C220 1.342 . S
N221 N222 1.388 . S
N222 Co205 1.993 . S
N222 N221 1.388 . S
N222 C223 1.346 . S
C223 N222 1.346 . S
C223 C224 1.396 . S
C223 C233 1.510 . S
C224 C220 1.401 . S
C224 C223 1.396 . S
C225 C220 1.499 . S
C225 H226 0.959 . S
C225 H227 0.960 . S
C225 H228 0.961 . S
H226 C225 0.959 . S
H227 C225 0.960 . S
H228 C225 0.961 . S
O229 Co204 1.967 . S
O229 C237 1.258 . S
O230 Co205 1.941 . S
O230 C237 1.266 . S
H231 C233 0.959 . S
H232 C233 0.961 . S
C233 C223 1.510 . S
C233 H231 0.959 . S
C233 H232 0.961 . S
C233 H234 0.960 . S
H234 C233 0.960 . S
H235 N215 0.862 . S
O236 Co204 1.920 . S
O236 C209 1.289 . S
C237 O229 1.258 . S
C237 O230 1.266 . S
Co238 O241 1.970 . S
Co238 N255 1.989 1_455 S
Co238 O263 1.967 . S
Co238 O270 1.920 1_455 S
Co239 O242 1.966 . S
Co239 N248 2.022 1_545 S
Co239 N256 1.993 1_455 S
Co239 O264 1.941 . S
C240 O241 1.258 . S
C240 O242 1.263 . S
O241 Co238 1.970 . S
O241 C240 1.258 . S
O242 Co239 1.966 . S
O242 C240 1.263 . S
C243 O244 1.235 1_655 S
C243 O270 1.289 . S
O244 C243 1.235 1_455 S
C245 C247 1.400 . S
C245 N248 1.351 . S
C245 C250 1.501 . S
C246 C247 1.387 1_655 S
C246 N249 1.341 . S
C247 C245 1.400 . S
C247 C246 1.387 1_455 S
N248 Co239 2.022 1_565 S
N248 C245 1.351 . S
N248 N249 1.365 1_455 S
N249 C246 1.341 . S
N249 N248 1.365 1_655 S
N249 H269 0.862 . S
C250 C245 1.501 . S
C250 H251 0.961 . S
C250 H252 0.961 . S
C250 H253 0.960 . S
H251 C250 0.961 . S
H252 C250 0.961 . S
H253 C250 0.960 . S
C254 N255 1.342 . S
C254 C258 1.401 . S
C254 C259 1.499 . S
N255 Co238 1.989 1_655 S
N255 C254 1.342 . S
N255 N256 1.388 . S
N256 Co239 1.993 1_655 S
N256 N255 1.388 . S
N256 C257 1.346 . S
C257 N256 1.346 . S
C257 C258 1.396 . S
C257 C267 1.510 1_545 S
C258 C254 1.401 . S
C258 C257 1.396 . S
C259 C254 1.499 . S
C259 H260 0.959 . S
C259 H261 0.960 . S
C259 H262 0.961 . S
H260 C259 0.959 . S
H261 C259 0.960 . S
H262 C259 0.961 . S
O263 Co238 1.967 . S
O263 C271 1.258 . S
O264 Co239 1.941 . S
O264 C271 1.266 . S
H265 C267 0.959 . S
H266 C267 0.961 . S
C267 C257 1.510 1_565 S
C267 H265 0.959 . S
C267 H266 0.961 . S
C267 H268 0.960 . S
H268 C267 0.960 . S
H269 N249 0.862 . S
O270 Co238 1.920 1_655 S
O270 C243 1.289 . S
C271 O263 1.258 . S
C271 O264 1.266 . S
Co272 O275 1.970 . S
Co272 N289 1.989 . S
Co272 O297 1.967 . S
Co272 O304 1.920 . S
Co273 O276 1.966 . S
Co273 N282 2.022 . S
Co273 N290 1.993 . S
Co273 O298 1.941 . S
C274 O275 1.258 . S
C274 O276 1.263 . S
O275 Co272 1.970 . S
O275 C274 1.258 . S
O276 Co273 1.966 . S
O276 C274 1.263 . S
C277 O278 1.235 . S
C277 O304 1.289 . S
O278 C277 1.235 . S
C279 C281 1.400 . S
C279 N282 1.351 . S
C279 C284 1.501 . S
C280 C281 1.387 . S
C280 N283 1.341 . S
C281 C279 1.400 . S
C281 C280 1.387 . S
N282 Co273 2.022 . S
N282 C279 1.351 . S
N282 N283 1.365 . S
N283 C280 1.341 . S
N283 N282 1.365 . S
N283 H303 0.862 . S
C284 C279 1.501 . S
C284 H285 0.961 . S
C284 H286 0.961 . S
C284 H287 0.960 . S
H285 C284 0.961 . S
H286 C284 0.961 . S
H287 C284 0.960 . S
C288 N289 1.342 . S
C288 C292 1.401 . S
C288 C293 1.499 . S
N289 Co272 1.989 . S
N289 C288 1.342 . S
N289 N290 1.388 . S
N290 Co273 1.993 . S
N290 N289 1.388 . S
N290 C291 1.346 . S
C291 N290 1.346 . S
C291 C292 1.396 . S
C291 C301 1.510 . S
C292 C288 1.401 . S
C292 C291 1.396 . S
C293 C288 1.499 . S
C293 H294 0.959 . S
C293 H295 0.960 . S
C293 H296 0.961 . S
H294 C293 0.959 . S
H295 C293 0.960 . S
H296 C293 0.961 . S
O297 Co272 1.967 . S
O297 C305 1.258 . S
O298 Co273 1.941 . S
O298 C305 1.266 . S
H299 C301 0.959 . S
H300 C301 0.961 . S
C301 C291 1.510 . S
C301 H299 0.959 . S
C301 H300 0.961 . S
C301 H302 0.960 . S
H302 C301 0.960 . S
H303 N283 0.862 . S
O304 Co272 1.920 . S
O304 C277 1.289 . S
C305 O297 1.258 . S
C305 O298 1.266 . S
Co306 O309 1.970 . S
Co306 N323 1.989 1_556 S
Co306 O331 1.967 . S
Co306 O338 1.920 1_556 S
Co307 O310 1.966 . S
Co307 N316 2.022 . S
Co307 N324 1.993 1_556 S
Co307 O332 1.941 . S
C308 O309 1.258 . S
C308 O310 1.263 . S
O309 Co306 1.970 . S
O309 C308 1.258 . S
O310 Co307 1.966 . S
O310 C308 1.263 . S
C311 O312 1.234 1_554 S
C311 O338 1.289 . S
O312 C311 1.234 1_556 S
C313 C315 1.400 . S
C313 N316 1.351 . S
C313 C318 1.501 . S
C314 C315 1.387 1_554 S
C314 N317 1.341 . S
C315 C313 1.400 . S
C315 C314 1.387 1_556 S
N316 Co307 2.022 . S
N316 C313 1.351 . S
N316 N317 1.365 1_556 S
N317 C314 1.341 . S
N317 N316 1.365 1_554 S
N317 H337 0.862 . S
C318 C313 1.501 . S
C318 H319 0.961 . S
C318 H320 0.961 . S
C318 H321 0.960 . S
H319 C318 0.961 . S
H320 C318 0.961 . S
H321 C318 0.960 . S
C322 N323 1.342 . S
C322 C326 1.401 . S
C322 C327 1.499 . S
N323 Co306 1.989 1_554 S
N323 C322 1.342 . S
N323 N324 1.388 . S
N324 Co307 1.993 1_554 S
N324 N323 1.388 . S
N324 C325 1.346 . S
C325 N324 1.346 . S
C325 C326 1.396 . S
C325 C335 1.510 . S
C326 C322 1.401 . S
C326 C325 1.396 . S
C327 C322 1.499 . S
C327 H328 0.959 . S
C327 H329 0.960 . S
C327 H330 0.961 . S
H328 C327 0.959 . S
H329 C327 0.960 . S
H330 C327 0.961 . S
O331 Co306 1.967 . S
O331 C339 1.258 . S
O332 Co307 1.941 . S
O332 C339 1.266 . S
H333 C335 0.959 . S
H334 C335 0.961 . S
C335 C325 1.510 . S
C335 H333 0.959 . S
C335 H334 0.961 . S
C335 H336 0.960 . S
H336 C335 0.960 . S
H337 N317 0.862 . S
O338 Co306 1.920 1_554 S
O338 C311 1.289 . S
C339 O331 1.258 . S
C339 O332 1.266 . S
Co340 O343 1.970 . S
Co340 N357 1.989 . S
Co340 O365 1.967 . S
Co340 O372 1.920 . S
Co341 O344 1.966 . S
Co341 N350 2.022 . S
Co341 N358 1.993 . S
Co341 O366 1.941 . S
C342 O343 1.258 . S
C342 O344 1.263 . S
O343 Co340 1.970 . S
O343 C342 1.258 . S
O344 Co341 1.966 . S
O344 C342 1.263 . S
C345 O346 1.235 . S
C345 O372 1.289 . S
O346 C345 1.235 . S
C347 C349 1.400 . S
C347 N350 1.351 . S
C347 C352 1.501 . S
C348 C349 1.387 . S
C348 N351 1.341 . S
C349 C347 1.400 . S
C349 C348 1.387 . S
N350 Co341 2.022 . S
N350 C347 1.351 . S
N350 N351 1.365 . S
N351 C348 1.341 . S
N351 N350 1.365 . S
N351 H371 0.862 . S
C352 C347 1.501 . S
C352 H353 0.961 . S
C352 H354 0.961 . S
C352 H355 0.960 . S
H353 C352 0.961 . S
H354 C352 0.961 . S
H355 C352 0.960 . S
C356 N357 1.342 . S
C356 C360 1.401 . S
C356 C361 1.499 . S
N357 Co340 1.989 . S
N357 C356 1.342 . S
N357 N358 1.388 . S
N358 Co341 1.993 . S
N358 N357 1.388 . S
N358 C359 1.346 . S
C359 N358 1.346 . S
C359 C360 1.396 . S
C359 C369 1.510 . S
C360 C356 1.401 . S
C360 C359 1.396 . S
C361 C356 1.499 . S
C361 H362 0.959 . S
C361 H363 0.960 . S
C361 H364 0.961 . S
H362 C361 0.959 . S
H363 C361 0.960 . S
H364 C361 0.961 . S
O365 Co340 1.967 . S
O365 C373 1.258 . S
O366 Co341 1.941 . S
O366 C373 1.266 . S
H367 C369 0.959 . S
H368 C369 0.961 . S
C369 C359 1.510 . S
C369 H367 0.959 . S
C369 H368 0.961 . S
C369 H370 0.960 . S
H370 C369 0.960 . S
H371 N351 0.862 . S
O372 Co340 1.920 . S
O372 C345 1.289 . S
C373 O365 1.258 . S
C373 O366 1.266 . S
Co374 O377 1.970 . S
Co374 N391 1.989 . S
Co374 O399 1.967 . S
Co374 O406 1.920 . S
Co375 O378 1.966 . S
Co375 N384 2.022 1_655 S
Co375 N392 1.993 . S
Co375 O400 1.941 . S
C376 O377 1.258 . S
C376 O378 1.263 . S
O377 Co374 1.970 . S
O377 C376 1.258 . S
O378 Co375 1.966 . S
O378 C376 1.263 . S
C379 O380 1.235 . S
C379 O406 1.289 . S
O380 C379 1.235 . S
C381 C383 1.400 . S
C381 N384 1.351 . S
C381 C386 1.501 . S
C382 C383 1.387 . S
C382 N385 1.341 . S
C383 C381 1.400 . S
C383 C382 1.387 . S
N384 Co375 2.022 1_455 S
N384 C381 1.351 . S
N384 N385 1.365 . S
N385 C382 1.341 . S
N385 N384 1.365 . S
N385 H405 0.862 . S
C386 C381 1.501 . S
C386 H387 0.961 . S
C386 H388 0.961 . S
C386 H389 0.960 . S
H387 C386 0.961 . S
H388 C386 0.961 . S
H389 C386 0.960 . S
C390 N391 1.342 . S
C390 C394 1.401 . S
C390 C395 1.499 . S
N391 Co374 1.989 . S
N391 C390 1.342 . S
N391 N392 1.388 . S
N392 Co375 1.993 . S
N392 N391 1.388 . S
N392 C393 1.346 . S
C393 N392 1.346 . S
C393 C394 1.396 . S
C393 C403 1.510 1_655 S
C394 C390 1.401 . S
C394 C393 1.396 . S
C395 C390 1.499 . S
C395 H396 0.959 . S
C395 H397 0.960 . S
C395 H398 0.961 . S
H396 C395 0.959 . S
H397 C395 0.960 . S
H398 C395 0.961 . S
O399 Co374 1.967 . S
O399 C407 1.258 . S
O400 Co375 1.941 . S
O400 C407 1.266 . S
H401 C403 0.959 . S
H402 C403 0.961 . S
C403 C393 1.510 1_455 S
C403 H401 0.959 . S
C403 H402 0.961 . S
C403 H404 0.960 . S
H404 C403 0.960 . S
H405 N385 0.862 . S
O406 Co374 1.920 . S
O406 C379 1.289 . S
C407 O399 1.258 . S
C407 O400 1.266 . S
Co408 O411 1.970 . S
Co408 N425 1.989 . S
Co408 O433 1.967 . S
Co408 O440 1.920 . S
Co409 O412 1.966 . S
Co409 N418 2.022 . S
Co409 N426 1.993 . S
Co409 O434 1.941 . S
C410 O411 1.258 . S
C410 O412 1.263 . S
O411 Co408 1.970 . S
O411 C410 1.258 . S
O412 Co409 1.966 . S
O412 C410 1.263 . S
C413 O414 1.235 . S
C413 O440 1.289 . S
O414 C413 1.235 . S
C415 C417 1.400 . S
C415 N418 1.351 . S
C415 C420 1.501 . S
C416 C417 1.387 . S
C416 N419 1.341 . S
C417 C415 1.400 . S
C417 C416 1.387 . S
N418 Co409 2.022 . S
N418 C415 1.351 . S
N418 N419 1.365 . S
N419 C416 1.341 . S
N419 N418 1.365 . S
N419 H439 0.862 . S
C420 C415 1.501 . S
C420 H421 0.961 . S
C420 H422 0.961 . S
C420 H423 0.960 . S
H421 C420 0.961 . S
H422 C420 0.961 . S
H423 C420 0.960 . S
C424 N425 1.342 . S
C424 C428 1.401 . S
C424 C429 1.499 . S
N425 Co408 1.989 . S
N425 C424 1.342 . S
N425 N426 1.388 . S
N426 Co409 1.993 . S
N426 N425 1.388 . S
N426 C427 1.346 . S
C427 N426 1.346 . S
C427 C428 1.396 . S
C427 C437 1.510 . S
C428 C424 1.401 . S
C428 C427 1.396 . S
C429 C424 1.499 . S
C429 H430 0.959 . S
C429 H431 0.960 . S
C429 H432 0.961 . S
H430 C429 0.959 . S
H431 C429 0.960 . S
H432 C429 0.961 . S
O433 Co408 1.967 . S
O433 C441 1.258 . S
O434 Co409 1.941 . S
O434 C441 1.266 . S
H435 C437 0.959 . S
H436 C437 0.961 . S
C437 C427 1.510 . S
C437 H435 0.959 . S
C437 H436 0.961 . S
C437 H438 0.960 . S
H438 C437 0.960 . S
H439 N419 0.862 . S
O440 Co408 1.920 . S
O440 C413 1.289 . S
C441 O433 1.258 . S
C441 O434 1.266 . S
Co442 O445 1.970 . S
Co442 N459 1.989 . S
Co442 O467 1.967 . S
Co442 O474 1.920 . S
Co443 O446 1.966 . S
Co443 N452 2.022 . S
Co443 N460 1.993 . S
Co443 O468 1.941 . S
C444 O445 1.258 . S
C444 O446 1.263 . S
O445 Co442 1.970 . S
O445 C444 1.258 . S
O446 Co443 1.966 . S
O446 C444 1.263 . S
C447 O448 1.235 . S
C447 O474 1.289 . S
O448 C447 1.235 . S
C449 C451 1.400 . S
C449 N452 1.351 . S
C449 C454 1.501 . S
C450 C451 1.387 . S
C450 N453 1.341 . S
C451 C449 1.400 . S
C451 C450 1.387 . S
N452 Co443 2.022 . S
N452 C449 1.351 . S
N452 N453 1.365 . S
N453 C450 1.341 . S
N453 N452 1.365 . S
N453 H473 0.862 . S
C454 C449 1.501 . S
C454 H455 0.961 . S
C454 H456 0.961 . S
C454 H457 0.960 . S
H455 C454 0.961 . S
H456 C454 0.961 . S
H457 C454 0.960 . S
C458 N459 1.342 . S
C458 C462 1.401 . S
C458 C463 1.499 . S
N459 Co442 1.989 . S
N459 C458 1.342 . S
N459 N460 1.388 . S
N460 Co443 1.993 . S
N460 N459 1.388 . S
N460 C461 1.346 . S
C461 N460 1.346 . S
C461 C462 1.396 . S
C461 C471 1.510 . S
C462 C458 1.401 . S
C462 C461 1.396 . S
C463 C458 1.499 . S
C463 H464 0.959 . S
C463 H465 0.960 . S
C463 H466 0.961 . S
H464 C463 0.959 . S
H465 C463 0.960 . S
H466 C463 0.961 . S
O467 Co442 1.967 . S
O467 C475 1.258 . S
O468 Co443 1.941 . S
O468 C475 1.266 . S
H469 C471 0.959 . S
H470 C471 0.961 . S
C471 C461 1.510 . S
C471 H469 0.959 . S
C471 H470 0.961 . S
C471 H472 0.960 . S
H472 C471 0.960 . S
H473 N453 0.862 . S
O474 Co442 1.920 . S
O474 C447 1.289 . S
C475 O467 1.258 . S
C475 O468 1.266 . S
Co476 O479 1.970 . S
Co476 N493 1.989 . S
Co476 O501 1.967 . S
Co476 O508 1.920 . S
Co477 O480 1.966 . S
Co477 N486 2.022 . S
Co477 N494 1.993 . S
Co477 O502 1.941 . S
C478 O479 1.258 . S
C478 O480 1.263 . S
O479 Co476 1.970 . S
O479 C478 1.258 . S
O480 Co477 1.966 . S
O480 C478 1.263 . S
C481 O482 1.235 . S
C481 O508 1.289 . S
O482 C481 1.235 . S
C483 C485 1.400 . S
C483 N486 1.351 . S
C483 C488 1.501 . S
C484 C485 1.387 . S
C484 N487 1.341 . S
C485 C483 1.400 . S
C485 C484 1.387 . S
N486 Co477 2.022 . S
N486 C483 1.351 . S
N486 N487 1.365 . S
N487 C484 1.341 . S
N487 N486 1.365 . S
N487 H507 0.862 . S
C488 C483 1.501 . S
C488 H489 0.961 . S
C488 H490 0.961 . S
C488 H491 0.960 . S
H489 C488 0.961 . S
H490 C488 0.961 . S
H491 C488 0.960 . S
C492 N493 1.342 . S
C492 C496 1.401 . S
C492 C497 1.499 . S
N493 Co476 1.989 . S
N493 C492 1.342 . S
N493 N494 1.388 . S
N494 Co477 1.993 . S
N494 N493 1.388 . S
N494 C495 1.346 . S
C495 N494 1.346 . S
C495 C496 1.396 . S
C495 C505 1.510 . S
C496 C492 1.401 . S
C496 C495 1.396 . S
C497 C492 1.499 . S
C497 H498 0.959 . S
C497 H499 0.960 . S
C497 H500 0.961 . S
H498 C497 0.959 . S
H499 C497 0.960 . S
H500 C497 0.961 . S
O501 Co476 1.967 . S
O501 C509 1.258 . S
O502 Co477 1.941 . S
O502 C509 1.266 . S
H503 C505 0.959 . S
H504 C505 0.961 . S
C505 C495 1.510 . S
C505 H503 0.959 . S
C505 H504 0.961 . S
C505 H506 0.960 . S
H506 C505 0.960 . S
H507 N487 0.862 . S
O508 Co476 1.920 . S
O508 C481 1.289 . S
C509 O501 1.258 . S
C509 O502 1.266 . S
Co510 O513 1.970 . S
Co510 N527 1.989 1_554 S
Co510 O535 1.967 . S
Co510 O542 1.920 1_554 S
Co511 O514 1.966 . S
Co511 N520 2.022 1_455 S
Co511 N528 1.993 1_554 S
Co511 O536 1.941 . S
C512 O513 1.258 . S
C512 O514 1.263 . S
O513 Co510 1.970 . S
O513 C512 1.258 . S
O514 Co511 1.966 . S
O514 C512 1.263 . S
C515 O516 1.235 1_556 S
C515 O542 1.289 . S
O516 C515 1.235 1_554 S
C517 C519 1.400 . S
C517 N520 1.351 . S
C517 C522 1.501 . S
C518 C519 1.387 1_556 S
C518 N521 1.341 . S
C519 C517 1.400 . S
C519 C518 1.387 1_554 S
N520 Co511 2.022 1_655 S
N520 C517 1.351 . S
N520 N521 1.365 1_554 S
N521 C518 1.341 . S
N521 N520 1.365 1_556 S
N521 H541 0.862 . S
C522 C517 1.501 . S
C522 H523 0.961 . S
C522 H524 0.961 . S
C522 H525 0.960 . S
H523 C522 0.961 . S
H524 C522 0.961 . S
H525 C522 0.960 . S
C526 N527 1.342 . S
C526 C530 1.401 . S
C526 C531 1.499 . S
N527 Co510 1.989 1_556 S
N527 C526 1.342 . S
N527 N528 1.388 . S
N528 Co511 1.993 1_556 S
N528 N527 1.388 . S
N528 C529 1.346 . S
C529 N528 1.346 . S
C529 C530 1.396 . S
C529 C539 1.510 1_455 S
C530 C526 1.401 . S
C530 C529 1.396 . S
C531 C526 1.499 . S
C531 H532 0.959 . S
C531 H533 0.960 . S
C531 H534 0.961 . S
H532 C531 0.959 . S
H533 C531 0.960 . S
H534 C531 0.961 . S
O535 Co510 1.967 . S
O535 C543 1.258 . S
O536 Co511 1.941 . S
O536 C543 1.266 . S
H537 C539 0.959 . S
H538 C539 0.961 . S
C539 C529 1.510 1_655 S
C539 H537 0.959 . S
C539 H538 0.961 . S
C539 H540 0.960 . S
H540 C539 0.960 . S
H541 N521 0.862 . S
O542 Co510 1.920 1_556 S
O542 C515 1.289 . S
C543 O535 1.258 . S
C543 O536 1.266 . S
Co544 O547 1.970 . S
Co544 N561 1.989 . S
Co544 O569 1.967 . S
Co544 O576 1.920 . S
Co545 O548 1.966 . S
Co545 N554 2.022 . S
Co545 N562 1.993 . S
Co545 O570 1.941 . S
C546 O547 1.258 . S
C546 O548 1.263 . S
O547 Co544 1.970 . S
O547 C546 1.258 . S
O548 Co545 1.966 . S
O548 C546 1.263 . S
C549 O550 1.235 . S
C549 O576 1.289 . S
O550 C549 1.235 . S
C551 C553 1.400 . S
C551 N554 1.351 . S
C551 C556 1.501 . S
C552 C553 1.387 . S
C552 N555 1.341 . S
C553 C551 1.400 . S
C553 C552 1.387 . S
N554 Co545 2.022 . S
N554 C551 1.351 . S
N554 N555 1.365 . S
N555 C552 1.341 . S
N555 N554 1.365 . S
N555 H575 0.862 . S
C556 C551 1.501 . S
C556 H557 0.961 . S
C556 H558 0.961 . S
C556 H559 0.960 . S
H557 C556 0.961 . S
H558 C556 0.961 . S
H559 C556 0.960 . S
C560 N561 1.342 . S
C560 C564 1.401 . S
C560 C565 1.499 . S
N561 Co544 1.989 . S
N561 C560 1.342 . S
N561 N562 1.388 . S
N562 Co545 1.993 . S
N562 N561 1.388 . S
N562 C563 1.346 . S
C563 N562 1.346 . S
C563 C564 1.396 . S
C563 C573 1.510 . S
C564 C560 1.401 . S
C564 C563 1.396 . S
C565 C560 1.499 . S
C565 H566 0.959 . S
C565 H567 0.960 . S
C565 H568 0.961 . S
H566 C565 0.959 . S
H567 C565 0.960 . S
H568 C565 0.961 . S
O569 Co544 1.967 . S
O569 C577 1.258 . S
O570 Co545 1.941 . S
O570 C577 1.266 . S
H571 C573 0.959 . S
H572 C573 0.961 . S
C573 C563 1.510 . S
C573 H571 0.959 . S
C573 H572 0.961 . S
C573 H574 0.960 . S
H574 C573 0.960 . S
H575 N555 0.862 . S
O576 Co544 1.920 . S
O576 C549 1.289 . S
C577 O569 1.258 . S
C577 O570 1.266 . S
Co578 O581 1.970 . S
Co578 N595 1.989 . S
Co578 O603 1.967 . S
Co578 O610 1.920 . S
Co579 O582 1.966 . S
Co579 N588 2.022 . S
Co579 N596 1.993 . S
Co579 O604 1.941 . S
C580 O581 1.258 . S
C580 O582 1.263 . S
O581 Co578 1.970 . S
O581 C580 1.258 . S
O582 Co579 1.966 . S
O582 C580 1.263 . S
C583 O584 1.235 . S
C583 O610 1.289 . S
O584 C583 1.235 . S
C585 C587 1.400 . S
C585 N588 1.351 . S
C585 C590 1.501 . S
C586 C587 1.387 . S
C586 N589 1.341 . S
C587 C585 1.400 . S
C587 C586 1.387 . S
N588 Co579 2.022 . S
N588 C585 1.351 . S
N588 N589 1.365 . S
N589 C586 1.341 . S
N589 N588 1.365 . S
N589 H609 0.862 . S
C590 C585 1.501 . S
C590 H591 0.961 . S
C590 H592 0.961 . S
C590 H593 0.960 . S
H591 C590 0.961 . S
H592 C590 0.961 . S
H593 C590 0.960 . S
C594 N595 1.342 . S
C594 C598 1.401 . S
C594 C599 1.499 . S
N595 Co578 1.989 . S
N595 C594 1.342 . S
N595 N596 1.388 . S
N596 Co579 1.993 . S
N596 N595 1.388 . S
N596 C597 1.346 . S
C597 N596 1.346 . S
C597 C598 1.396 . S
C597 C607 1.510 . S
C598 C594 1.401 . S
C598 C597 1.396 . S
C599 C594 1.499 . S
C599 H600 0.959 . S
C599 H601 0.960 . S
C599 H602 0.961 . S
H600 C599 0.959 . S
H601 C599 0.960 . S
H602 C599 0.961 . S
O603 Co578 1.967 . S
O603 C611 1.258 . S
O604 Co579 1.941 . S
O604 C611 1.266 . S
H605 C607 0.959 . S
H606 C607 0.961 . S
C607 C597 1.510 . S
C607 H605 0.959 . S
C607 H606 0.961 . S
C607 H608 0.960 . S
H608 C607 0.960 . S
H609 N589 0.862 . S
O610 Co578 1.920 . S
O610 C583 1.289 . S
C611 O603 1.258 . S
C611 O604 1.266 . S
Co612 O615 1.970 . S
Co612 N629 1.989 1_565 S
Co612 O637 1.967 . S
Co612 O644 1.920 1_565 S
Co613 O616 1.966 . S
Co613 N622 2.022 . S
Co613 N630 1.993 1_565 S
Co613 O638 1.941 . S
C614 O615 1.258 . S
C614 O616 1.263 . S
O615 Co612 1.970 . S
O615 C614 1.258 . S
O616 Co613 1.966 . S
O616 C614 1.263 . S
C617 O618 1.234 1_545 S
C617 O644 1.289 . S
O618 C617 1.234 1_565 S
C619 C621 1.400 . S
C619 N622 1.351 . S
C619 C624 1.501 . S
C620 C621 1.387 1_545 S
C620 N623 1.341 . S
C621 C619 1.400 . S
C621 C620 1.387 1_565 S
N622 Co613 2.022 . S
N622 C619 1.351 . S
N622 N623 1.365 1_565 S
N623 C620 1.341 . S
N623 N622 1.365 1_545 S
N623 H643 0.862 . S
C624 C619 1.501 . S
C624 H625 0.961 . S
C624 H626 0.961 . S
C624 H627 0.960 . S
H625 C624 0.961 . S
H626 C624 0.961 . S
H627 C624 0.960 . S
C628 N629 1.342 . S
C628 C632 1.401 . S
C628 C633 1.499 . S
N629 Co612 1.989 1_545 S
N629 C628 1.342 . S
N629 N630 1.388 . S
N630 Co613 1.993 1_545 S
N630 N629 1.388 . S
N630 C631 1.346 . S
C631 N630 1.346 . S
C631 C632 1.396 . S
C631 C641 1.510 . S
C632 C628 1.401 . S
C632 C631 1.396 . S
C633 C628 1.499 . S
C633 H634 0.959 . S
C633 H635 0.960 . S
C633 H636 0.961 . S
H634 C633 0.959 . S
H635 C633 0.960 . S
H636 C633 0.961 . S
O637 Co612 1.967 . S
O637 C645 1.258 . S
O638 Co613 1.941 . S
O638 C645 1.266 . S
H639 C641 0.959 . S
H640 C641 0.961 . S
C641 C631 1.510 . S
C641 H639 0.959 . S
C641 H640 0.961 . S
C641 H642 0.960 . S
H642 C641 0.960 . S
H643 N623 0.862 . S
O644 Co612 1.920 1_545 S
O644 C617 1.289 . S
C645 O637 1.258 . S
C645 O638 1.266 . S
Co646 O649 1.970 . S
Co646 N663 1.989 . S
Co646 O671 1.967 . S
Co646 O678 1.920 . S
Co647 O650 1.966 . S
Co647 N656 2.022 . S
Co647 N664 1.993 . S
Co647 O672 1.941 . S
C648 O649 1.258 . S
C648 O650 1.263 . S
O649 Co646 1.970 . S
O649 C648 1.258 . S
O650 Co647 1.966 . S
O650 C648 1.263 . S
C651 O652 1.235 . S
C651 O678 1.289 . S
O652 C651 1.235 . S
C653 C655 1.400 . S
C653 N656 1.351 . S
C653 C658 1.501 . S
C654 C655 1.387 . S
C654 N657 1.341 . S
C655 C653 1.400 . S
C655 C654 1.387 . S
N656 Co647 2.022 . S
N656 C653 1.351 . S
N656 N657 1.365 . S
N657 C654 1.341 . S
N657 N656 1.365 . S
N657 H677 0.862 . S
C658 C653 1.501 . S
C658 H659 0.961 . S
C658 H660 0.961 . S
C658 H661 0.960 . S
H659 C658 0.961 . S
H660 C658 0.961 . S
H661 C658 0.960 . S
C662 N663 1.342 . S
C662 C666 1.401 . S
C662 C667 1.499 . S
N663 Co646 1.989 . S
N663 C662 1.342 . S
N663 N664 1.388 . S
N664 Co647 1.993 . S
N664 N663 1.388 . S
N664 C665 1.346 . S
C665 N664 1.346 . S
C665 C666 1.396 . S
C665 C675 1.510 . S
C666 C662 1.401 . S
C666 C665 1.396 . S
C667 C662 1.499 . S
C667 H668 0.959 . S
C667 H669 0.960 . S
C667 H670 0.961 . S
H668 C667 0.959 . S
H669 C667 0.960 . S
H670 C667 0.961 . S
O671 Co646 1.967 . S
O671 C679 1.258 . S
O672 Co647 1.941 . S
O672 C679 1.266 . S
H673 C675 0.959 . S
H674 C675 0.961 . S
C675 C665 1.510 . S
C675 H673 0.959 . S
C675 H674 0.961 . S
C675 H676 0.960 . S
H676 C675 0.960 . S
H677 N657 0.862 . S
O678 Co646 1.920 . S
O678 C651 1.289 . S
C679 O671 1.258 . S
C679 O672 1.266 . S
Co680 O683 1.970 . S
Co680 N697 1.989 1_545 S
Co680 O705 1.967 . S
Co680 O712 1.920 1_545 S
Co681 O684 1.966 . S
Co681 N690 2.022 1_554 S
Co681 N698 1.993 1_545 S
Co681 O706 1.941 . S
C682 O683 1.258 . S
C682 O684 1.263 . S
O683 Co680 1.970 . S
O683 C682 1.258 . S
O684 Co681 1.966 . S
O684 C682 1.263 . S
C685 O686 1.235 1_565 S
C685 O712 1.289 . S
O686 C685 1.235 1_545 S
C687 C689 1.400 . S
C687 N690 1.351 . S
C687 C692 1.501 . S
C688 C689 1.387 1_565 S
C688 N691 1.341 . S
C689 C687 1.400 . S
C689 C688 1.387 1_545 S
N690 Co681 2.022 1_556 S
N690 C687 1.351 . S
N690 N691 1.365 1_545 S
N691 C688 1.341 . S
N691 N690 1.365 1_565 S
N691 H711 0.862 . S
C692 C687 1.501 . S
C692 H693 0.961 . S
C692 H694 0.961 . S
C692 H695 0.960 . S
H693 C692 0.961 . S
H694 C692 0.961 . S
H695 C692 0.960 . S
C696 N697 1.342 . S
C696 C700 1.401 . S
C696 C701 1.499 . S
N697 Co680 1.989 1_565 S
N697 C696 1.342 . S
N697 N698 1.388 . S
N698 Co681 1.993 1_565 S
N698 N697 1.388 . S
N698 C699 1.346 . S
C699 N698 1.346 . S
C699 C700 1.396 . S
C699 C709 1.510 1_554 S
C700 C696 1.401 . S
C700 C699 1.396 . S
C701 C696 1.499 . S
C701 H702 0.959 . S
C701 H703 0.960 . S
C701 H704 0.961 . S
H702 C701 0.959 . S
H703 C701 0.960 . S
H704 C701 0.961 . S
O705 Co680 1.967 . S
O705 C713 1.258 . S
O706 Co681 1.941 . S
O706 C713 1.266 . S
H707 C709 0.959 . S
H708 C709 0.961 . S
C709 C699 1.510 1_556 S
C709 H707 0.959 . S
C709 H708 0.961 . S
C709 H710 0.960 . S
H710 C709 0.960 . S
H711 N691 0.862 . S
O712 Co680 1.920 1_565 S
O712 C685 1.289 . S
C713 O705 1.258 . S
C713 O706 1.266 . S
Co714 O717 1.970 . S
Co714 N731 1.989 . S
Co714 O739 1.967 . S
Co714 O746 1.920 . S
Co715 O718 1.966 . S
Co715 N724 2.022 . S
Co715 N732 1.993 . S
Co715 O740 1.941 . S
C716 O717 1.258 . S
C716 O718 1.263 . S
O717 Co714 1.970 . S
O717 C716 1.258 . S
O718 Co715 1.966 . S
O718 C716 1.263 . S
C719 O720 1.235 . S
C719 O746 1.289 . S
O720 C719 1.235 . S
C721 C723 1.400 . S
C721 N724 1.351 . S
C721 C726 1.501 . S
C722 C723 1.387 . S
C722 N725 1.341 . S
C723 C721 1.400 . S
C723 C722 1.387 . S
N724 Co715 2.022 . S
N724 C721 1.351 . S
N724 N725 1.365 . S
N725 C722 1.341 . S
N725 N724 1.365 . S
N725 H745 0.862 . S
C726 C721 1.501 . S
C726 H727 0.961 . S
C726 H728 0.961 . S
C726 H729 0.960 . S
H727 C726 0.961 . S
H728 C726 0.961 . S
H729 C726 0.960 . S
C730 N731 1.342 . S
C730 C734 1.401 . S
C730 C735 1.499 . S
N731 Co714 1.989 . S
N731 C730 1.342 . S
N731 N732 1.388 . S
N732 Co715 1.993 . S
N732 N731 1.388 . S
N732 C733 1.346 . S
C733 N732 1.346 . S
C733 C734 1.396 . S
C733 C743 1.510 . S
C734 C730 1.401 . S
C734 C733 1.396 . S
C735 C730 1.499 . S
C735 H736 0.959 . S
C735 H737 0.960 . S
C735 H738 0.961 . S
H736 C735 0.959 . S
H737 C735 0.960 . S
H738 C735 0.961 . S
O739 Co714 1.967 . S
O739 C747 1.258 . S
O740 Co715 1.941 . S
O740 C747 1.266 . S
H741 C743 0.959 . S
H742 C743 0.961 . S
C743 C733 1.510 . S
C743 H741 0.959 . S
C743 H742 0.961 . S
C743 H744 0.960 . S
H744 C743 0.960 . S
H745 N725 0.862 . S
O746 Co714 1.920 . S
O746 C719 1.289 . S
C747 O739 1.258 . S
C747 O740 1.266 . S
Co748 O751 1.970 . S
Co748 N765 1.989 . S
Co748 O773 1.967 . S
Co748 O780 1.920 . S
Co749 O752 1.966 . S
Co749 N758 2.022 . S
Co749 N766 1.993 . S
Co749 O774 1.941 . S
C750 O751 1.258 . S
C750 O752 1.263 . S
O751 Co748 1.970 . S
O751 C750 1.258 . S
O752 Co749 1.966 . S
O752 C750 1.263 . S
C753 O754 1.235 . S
C753 O780 1.289 . S
O754 C753 1.235 . S
C755 C757 1.400 . S
C755 N758 1.351 . S
C755 C760 1.501 . S
C756 C757 1.387 . S
C756 N759 1.341 . S
C757 C755 1.400 . S
C757 C756 1.387 . S
N758 Co749 2.022 . S
N758 C755 1.351 . S
N758 N759 1.365 . S
N759 C756 1.341 . S
N759 N758 1.365 . S
N759 H779 0.862 . S
C760 C755 1.501 . S
C760 H761 0.961 . S
C760 H762 0.961 . S
C760 H763 0.960 . S
H761 C760 0.961 . S
H762 C760 0.961 . S
H763 C760 0.960 . S
C764 N765 1.342 . S
C764 C768 1.401 . S
C764 C769 1.499 . S
N765 Co748 1.989 . S
N765 C764 1.342 . S
N765 N766 1.388 . S
N766 Co749 1.993 . S
N766 N765 1.388 . S
N766 C767 1.346 . S
C767 N766 1.346 . S
C767 C768 1.396 . S
C767 C777 1.510 . S
C768 C764 1.401 . S
C768 C767 1.396 . S
C769 C764 1.499 . S
C769 H770 0.959 . S
C769 H771 0.960 . S
C769 H772 0.961 . S
H770 C769 0.959 . S
H771 C769 0.960 . S
H772 C769 0.961 . S
O773 Co748 1.967 . S
O773 C781 1.258 . S
O774 Co749 1.941 . S
O774 C781 1.266 . S
H775 C777 0.959 . S
H776 C777 0.961 . S
C777 C767 1.510 . S
C777 H775 0.959 . S
C777 H776 0.961 . S
C777 H778 0.960 . S
H778 C777 0.960 . S
H779 N759 0.862 . S
O780 Co748 1.920 . S
O780 C753 1.289 . S
C781 O773 1.258 . S
C781 O774 1.266 . S
Co782 O785 1.970 . S
Co782 N799 1.989 . S
Co782 O807 1.967 . S
Co782 O814 1.920 . S
Co783 O786 1.966 . S
Co783 N792 2.022 1_556 S
Co783 N800 1.993 . S
Co783 O808 1.941 . S
C784 O785 1.258 . S
C784 O786 1.263 . S
O785 Co782 1.970 . S
O785 C784 1.258 . S
O786 Co783 1.966 . S
O786 C784 1.263 . S
C787 O788 1.235 . S
C787 O814 1.289 . S
O788 C787 1.235 . S
C789 C791 1.400 . S
C789 N792 1.351 . S
C789 C794 1.501 . S
C790 C791 1.387 . S
C790 N793 1.341 . S
C791 C789 1.400 . S
C791 C790 1.387 . S
N792 Co783 2.022 1_554 S
N792 C789 1.351 . S
N792 N793 1.365 . S
N793 C790 1.341 . S
N793 N792 1.365 . S
N793 H813 0.862 . S
C794 C789 1.501 . S
C794 H795 0.961 . S
C794 H796 0.961 . S
C794 H797 0.960 . S
H795 C794 0.961 . S
H796 C794 0.961 . S
H797 C794 0.960 . S
C798 N799 1.342 . S
C798 C802 1.401 . S
C798 C803 1.499 . S
N799 Co782 1.989 . S
N799 C798 1.342 . S
N799 N800 1.388 . S
N800 Co783 1.993 . S
N800 N799 1.388 . S
N800 C801 1.346 . S
C801 N800 1.346 . S
C801 C802 1.396 . S
C801 C811 1.510 1_556 S
C802 C798 1.401 . S
C802 C801 1.396 . S
C803 C798 1.499 . S
C803 H804 0.959 . S
C803 H805 0.960 . S
C803 H806 0.961 . S
H804 C803 0.959 . S
H805 C803 0.960 . S
H806 C803 0.961 . S
O807 Co782 1.967 . S
O807 C815 1.258 . S
O808 Co783 1.941 . S
O808 C815 1.266 . S
H809 C811 0.959 . S
H810 C811 0.961 . S
C811 C801 1.510 1_554 S
C811 H809 0.959 . S
C811 H810 0.961 . S
C811 H812 0.960 . S
H812 C811 0.960 . S
H813 N793 0.862 . S
O814 Co782 1.920 . S
O814 C787 1.289 . S
C815 O807 1.258 . S
C815 O808 1.266 . S
H816 C828 0.930 . S
H817 C830 0.930 . S
H818 C831 0.930 . S
H819 C835 0.959 . S
H820 C835 0.959 . S
H821 C835 0.961 . S
H822 C836 0.960 . S
H823 C836 0.961 . S
H824 C836 0.959 . S
H825 C839 0.929 . S
H826 C840 0.931 . S
H827 C842 0.930 . S
C828 H816 0.930 . S
C828 C829 1.399 . S
C828 C833 1.399 . S
C829 C828 1.399 . S
C829 C830 1.376 . S
C830 H817 0.930 . S
C830 C829 1.376 . S
C830 C831 1.388 . S
C831 H818 0.930 . S
C831 C830 1.388 . S
C831 C832 1.390 . S
C832 C831 1.390 . S
C832 C833 1.394 . S
C832 C838 1.465 . S
C833 C828 1.399 . S
C833 C832 1.394 . S
C833 C834 1.516 . S
C834 C833 1.516 . S
C834 C835 1.502 . S
C834 C836 1.561 . S
C834 C837 1.526 . S
C835 H819 0.959 . S
C835 H820 0.959 . S
C835 H821 0.961 . S
C835 C834 1.502 . S
C836 H822 0.960 . S
C836 H823 0.961 . S
C836 H824 0.959 . S
C836 C834 1.561 . S
C837 C834 1.526 . S
C837 C838 1.396 . S
C837 C842 1.390 . S
C838 C832 1.465 . S
C838 C837 1.396 . S
C838 C839 1.399 . S
C839 H825 0.929 . S
C839 C838 1.399 . S
C839 C840 1.385 . S
C840 H826 0.931 . S
C840 C839 1.385 . S
C840 C841 1.389 . S
C841 C840 1.389 . S
C841 C842 1.387 . S
C842 H827 0.930 . S
C842 C837 1.390 . S
C842 C841 1.387 . S
H843 C855 0.930 . S
H844 C857 0.930 . S
H845 C858 0.930 . S
H846 C862 0.959 . S
H847 C862 0.959 . S
H848 C862 0.961 . S
H849 C863 0.960 . S
H850 C863 0.961 . S
H851 C863 0.959 . S
H852 C866 0.929 . S
H853 C867 0.931 . S
H854 C869 0.930 . S
C855 H843 0.930 . S
C855 C856 1.399 . S
C855 C860 1.399 . S
C856 C855 1.399 . S
C856 C857 1.376 . S
C857 H844 0.930 . S
C857 C856 1.376 . S
C857 C858 1.388 . S
C858 H845 0.930 . S
C858 C857 1.388 . S
C858 C859 1.390 . S
C859 C858 1.390 . S
C859 C860 1.394 . S
C859 C865 1.465 . S
C860 C855 1.399 . S
C860 C859 1.394 . S
C860 C861 1.516 . S
C861 C860 1.516 . S
C861 C862 1.502 . S
C861 C863 1.561 . S
C861 C864 1.526 . S
C862 H846 0.959 . S
C862 H847 0.959 . S
C862 H848 0.961 . S
C862 C861 1.502 . S
C863 H849 0.960 . S
C863 H850 0.961 . S
C863 H851 0.959 . S
C863 C861 1.561 . S
C864 C861 1.526 . S
C864 C865 1.396 . S
C864 C869 1.390 . S
C865 C859 1.465 . S
C865 C864 1.396 . S
C865 C866 1.399 . S
C866 H852 0.929 . S
C866 C865 1.399 . S
C866 C867 1.385 . S
C867 H853 0.931 . S
C867 C866 1.385 . S
C867 C868 1.389 . S
C868 C867 1.389 . S
C868 C869 1.387 . S
C869 H854 0.930 . S
C869 C864 1.390 . S
C869 C868 1.387 . S
H870 C882 0.930 . S
H871 C884 0.930 . S
H872 C885 0.930 . S
H873 C889 0.959 . S
H874 C889 0.959 . S
H875 C889 0.961 . S
H876 C890 0.960 . S
H877 C890 0.961 . S
H878 C890 0.959 . S
H879 C893 0.929 . S
H880 C894 0.931 . S
H881 C896 0.930 . S
C882 H870 0.930 . S
C882 C883 1.399 . S
C882 C887 1.399 . S
C883 C882 1.399 . S
C883 C884 1.376 . S
C884 H871 0.930 . S
C884 C883 1.376 . S
C884 C885 1.388 . S
C885 H872 0.930 . S
C885 C884 1.388 . S
C885 C886 1.390 . S
C886 C885 1.390 . S
C886 C887 1.394 . S
C886 C892 1.465 . S
C887 C882 1.399 . S
C887 C886 1.394 . S
C887 C888 1.516 . S
C888 C887 1.516 . S
C888 C889 1.502 . S
C888 C890 1.561 . S
C888 C891 1.526 . S
C889 H873 0.959 . S
C889 H874 0.959 . S
C889 H875 0.961 . S
C889 C888 1.502 . S
C890 H876 0.960 . S
C890 H877 0.961 . S
C890 H878 0.959 . S
C890 C888 1.561 . S
C891 C888 1.526 . S
C891 C892 1.396 . S
C891 C896 1.390 . S
C892 C886 1.465 . S
C892 C891 1.396 . S
C892 C893 1.399 . S
C893 H879 0.929 . S
C893 C892 1.399 . S
C893 C894 1.385 . S
C894 H880 0.931 . S
C894 C893 1.385 . S
C894 C895 1.389 . S
C895 C894 1.389 . S
C895 C896 1.387 . S
C896 H881 0.930 . S
C896 C891 1.390 . S
C896 C895 1.387 . S
H897 C909 0.930 . S
H898 C911 0.930 . S
H899 C912 0.930 . S
H900 C916 0.959 . S
H901 C916 0.959 . S
H902 C916 0.961 . S
H903 C917 0.960 . S
H904 C917 0.961 . S
H905 C917 0.959 . S
H906 C920 0.929 . S
H907 C921 0.931 . S
H908 C923 0.930 . S
C909 H897 0.930 . S
C909 C910 1.399 . S
C909 C914 1.399 . S
C910 C909 1.399 . S
C910 C911 1.376 . S
C911 H898 0.930 . S
C911 C910 1.376 . S
C911 C912 1.388 . S
C912 H899 0.930 . S
C912 C911 1.388 . S
C912 C913 1.390 . S
C913 C912 1.390 . S
C913 C914 1.394 . S
C913 C919 1.465 . S
C914 C909 1.399 . S
C914 C913 1.394 . S
C914 C915 1.516 . S
C915 C914 1.516 . S
C915 C916 1.502 . S
C915 C917 1.561 . S
C915 C918 1.526 . S
C916 H900 0.959 . S
C916 H901 0.959 . S
C916 H902 0.961 . S
C916 C915 1.502 . S
C917 H903 0.960 . S
C917 H904 0.961 . S
C917 H905 0.959 . S
C917 C915 1.561 . S
C918 C915 1.526 . S
C918 C919 1.396 . S
C918 C923 1.390 . S
C919 C913 1.465 . S
C919 C918 1.396 . S
C919 C920 1.399 . S
C920 H906 0.929 . S
C920 C919 1.399 . S
C920 C921 1.385 . S
C921 H907 0.931 . S
C921 C920 1.385 . S
C921 C922 1.389 . S
C922 C921 1.389 . S
C922 C923 1.387 . S
C923 H908 0.930 . S
C923 C918 1.390 . S
C923 C922 1.387 . S
H924 C936 0.930 . S
H925 C938 0.930 . S
H926 C939 0.930 . S
H927 C943 0.959 . S
H928 C943 0.959 . S
H929 C943 0.961 . S
H930 C944 0.960 . S
H931 C944 0.961 . S
H932 C944 0.959 . S
H933 C947 0.929 . S
H934 C948 0.931 . S
H935 C950 0.930 . S
C936 H924 0.930 . S
C936 C937 1.399 . S
C936 C941 1.399 . S
C937 C936 1.399 . S
C937 C938 1.376 . S
C938 H925 0.930 . S
C938 C937 1.376 . S
C938 C939 1.388 . S
C939 H926 0.930 . S
C939 C938 1.388 . S
C939 C940 1.390 . S
C940 C939 1.390 . S
C940 C941 1.394 . S
C940 C946 1.465 . S
C941 C936 1.399 . S
C941 C940 1.394 . S
C941 C942 1.516 . S
C942 C941 1.516 . S
C942 C943 1.502 . S
C942 C944 1.561 . S
C942 C945 1.526 . S
C943 H927 0.959 . S
C943 H928 0.959 . S
C943 H929 0.961 . S
C943 C942 1.502 . S
C944 H930 0.960 . S
C944 H931 0.961 . S
C944 H932 0.959 . S
C944 C942 1.561 . S
C945 C942 1.526 . S
C945 C946 1.396 . S
C945 C950 1.390 . S
C946 C940 1.465 . S
C946 C945 1.396 . S
C946 C947 1.399 . S
C947 H933 0.929 . S
C947 C946 1.399 . S
C947 C948 1.385 . S
C948 H934 0.931 . S
C948 C947 1.385 . S
C948 C949 1.389 . S
C949 C948 1.389 . S
C949 C950 1.387 . S
C950 H935 0.930 . S
C950 C945 1.390 . S
C950 C949 1.387 . S
H951 C963 0.930 . S
H952 C965 0.930 . S
H953 C966 0.930 . S
H954 C970 0.959 . S
H955 C970 0.959 . S
H956 C970 0.961 . S
H957 C971 0.960 . S
H958 C971 0.961 . S
H959 C971 0.959 . S
H960 C974 0.929 . S
H961 C975 0.931 1_545 S
H962 C977 0.930 . S
C963 H951 0.930 . S
C963 C964 1.399 . S
C963 C968 1.399 . S
C964 C963 1.399 . S
C964 C965 1.376 1_565 S
C965 H952 0.930 . S
C965 C964 1.376 1_545 S
C965 C966 1.388 . S
C966 H953 0.930 . S
C966 C965 1.388 . S
C966 C967 1.390 1_545 S
C967 C966 1.390 1_565 S
C967 C968 1.394 . S
C967 C973 1.465 . S
C968 C963 1.399 . S
C968 C967 1.394 . S
C968 C969 1.516 . S
C969 C968 1.516 . S
C969 C970 1.502 . S
C969 C971 1.561 . S
C969 C972 1.526 . S
C970 H954 0.959 . S
C970 H955 0.959 . S
C970 H956 0.961 . S
C970 C969 1.502 . S
C971 H957 0.960 . S
C971 H958 0.961 . S
C971 H959 0.959 . S
C971 C969 1.561 . S
C972 C969 1.526 . S
C972 C973 1.396 . S
C972 C977 1.390 . S
C973 C967 1.465 . S
C973 C972 1.396 . S
C973 C974 1.399 1_565 S
C974 H960 0.929 . S
C974 C973 1.399 1_545 S
C974 C975 1.385 1_545 S
C975 H961 0.931 1_565 S
C975 C974 1.385 1_565 S
C975 C976 1.389 . S
C976 C975 1.389 . S
C976 C977 1.387 . S
C977 H962 0.930 . S
C977 C972 1.390 . S
C977 C976 1.387 . S
H978 C990 0.930 . S
H979 C992 0.930 . S
H980 C993 0.930 . S
H981 C997 0.959 . S
H982 C997 0.959 . S
H983 C997 0.961 . S
H984 C998 0.960 . S
H985 C998 0.961 . S
H986 C998 0.959 . S
H987 C1001 0.929 . S
H988 C1002 0.931 . S
H989 C1004 0.930 . S
C990 H978 0.930 . S
C990 C991 1.399 . S
C990 C995 1.399 . S
C991 C990 1.399 . S
C991 C992 1.376 . S
C992 H979 0.930 . S
C992 C991 1.376 . S
C992 C993 1.388 . S
C993 H980 0.930 . S
C993 C992 1.388 . S
C993 C994 1.390 . S
C994 C993 1.390 . S
C994 C995 1.394 . S
C994 C1000 1.465 . S
C995 C990 1.399 . S
C995 C994 1.394 . S
C995 C996 1.516 . S
C996 C995 1.516 . S
C996 C997 1.502 . S
C996 C998 1.561 . S
C996 C999 1.526 . S
C997 H981 0.959 . S
C997 H982 0.959 . S
C997 H983 0.961 . S
C997 C996 1.502 . S
C998 H984 0.960 . S
C998 H985 0.961 . S
C998 H986 0.959 . S
C998 C996 1.561 . S
C999 C996 1.526 . S
C999 C1000 1.396 . S
C999 C1004 1.390 . S
C1000 C994 1.465 . S
C1000 C999 1.396 . S
C1000 C1001 1.399 . S
C1001 H987 0.929 . S
C1001 C1000 1.399 . S
C1001 C1002 1.385 . S
C1002 H988 0.931 . S
C1002 C1001 1.385 . S
C1002 C1003 1.389 . S
C1003 C1002 1.389 . S
C1003 C1004 1.387 . S
C1004 H989 0.930 . S
C1004 C999 1.390 . S
C1004 C1003 1.387 . S
H1005 C1017 0.930 . S
H1006 C1019 0.930 . S
H1007 C1020 0.930 . S
H1008 C1024 0.959 . S
H1009 C1024 0.959 . S
H1010 C1024 0.961 . S
H1011 C1025 0.960 . S
H1012 C1025 0.961 . S
H1013 C1025 0.959 . S
H1014 C1028 0.929 . S
H1015 C1029 0.918 1_565 S
H1016 C1031 0.930 . S
C1017 H1005 0.930 . S
C1017 C1018 1.399 . S
C1017 C1022 1.399 . S
C1018 C1017 1.399 . S
C1018 C1019 1.376 1_545 S
C1019 H1006 0.930 . S
C1019 C1018 1.376 1_565 S
C1019 C1020 1.388 . S
C1020 H1007 0.930 . S
C1020 C1019 1.388 . S
C1020 C1021 1.390 1_565 S
C1021 C1020 1.390 1_545 S
C1021 C1022 1.394 . S
C1021 C1027 1.465 . S
C1022 C1017 1.399 . S
C1022 C1021 1.394 . S
C1022 C1023 1.516 . S
C1023 C1022 1.516 . S
C1023 C1024 1.502 . S
C1023 C1025 1.561 . S
C1023 C1026 1.526 . S
C1024 H1008 0.959 . S
C1024 H1009 0.959 . S
C1024 H1010 0.961 . S
C1024 C1023 1.502 . S
C1025 H1011 0.960 . S
C1025 H1012 0.961 . S
C1025 H1013 0.959 . S
C1025 C1023 1.561 . S
C1026 C1023 1.526 . S
C1026 C1027 1.396 . S
C1026 C1031 1.390 . S
C1027 C1021 1.465 . S
C1027 C1026 1.396 . S
C1027 C1028 1.399 1_545 S
C1028 H1014 0.929 . S
C1028 C1027 1.399 1_565 S
C1028 C1029 1.377 1_565 S
C1029 H1015 0.918 1_545 S
C1029 C1028 1.377 1_545 S
C1029 C1030 1.409 . S
C1030 C1029 1.409 . S
C1030 C1031 1.387 . S
C1031 H1016 0.930 . S
C1031 C1026 1.390 . S
C1031 C1030 1.387 . S
H1032 C1044 0.930 . S
H1033 C1046 0.930 . S
H1034 C1047 0.930 . S
H1035 C1051 0.959 . S
H1036 C1051 0.959 . S
H1037 C1051 0.961 . S
H1038 C1052 0.960 . S
H1039 C1052 0.961 . S
H1040 C1052 0.959 . S
H1041 C1055 0.929 . S
H1042 C1056 0.931 . S
H1043 C1058 0.930 . S
C1044 H1032 0.930 . S
C1044 C1045 1.399 . S
C1044 C1049 1.399 . S
C1045 C1044 1.399 . S
C1045 C1046 1.376 . S
C1046 H1033 0.930 . S
C1046 C1045 1.376 . S
C1046 C1047 1.388 . S
C1047 H1034 0.930 . S
C1047 C1046 1.388 . S
C1047 C1048 1.390 . S
C1048 C1047 1.390 . S
C1048 C1049 1.394 . S
C1048 C1054 1.465 . S
C1049 C1044 1.399 . S
C1049 C1048 1.394 . S
C1049 C1050 1.516 . S
C1050 C1049 1.516 . S
C1050 C1051 1.502 . S
C1050 C1052 1.561 . S
C1050 C1053 1.526 . S
C1051 H1035 0.959 . S
C1051 H1036 0.959 . S
C1051 H1037 0.961 . S
C1051 C1050 1.502 . S
C1052 H1038 0.960 . S
C1052 H1039 0.961 . S
C1052 H1040 0.959 . S
C1052 C1050 1.561 . S
C1053 C1050 1.526 . S
C1053 C1054 1.396 . S
C1053 C1058 1.390 . S
C1054 C1048 1.465 . S
C1054 C1053 1.396 . S
C1054 C1055 1.399 . S
C1055 H1041 0.929 . S
C1055 C1054 1.399 . S
C1055 C1056 1.385 . S
C1056 H1042 0.931 . S
C1056 C1055 1.385 . S
C1056 C1057 1.389 . S
C1057 C1056 1.389 . S
C1057 C1058 1.387 . S
C1058 H1043 0.930 . S
C1058 C1053 1.390 . S
C1058 C1057 1.387 . S
H1059 C1071 0.930 . S
H1060 C1073 0.930 . S
H1061 C1074 0.930 . S
H1062 C1078 0.959 . S
H1063 C1078 0.959 . S
H1064 C1078 0.961 . S
H1065 C1079 0.960 . S
H1066 C1079 0.961 . S
H1067 C1079 0.959 . S
H1068 C1082 0.929 . S
H1069 C1083 0.931 . S
H1070 C1085 0.930 . S
C1071 H1059 0.930 . S
C1071 C1072 1.399 . S
C1071 C1076 1.399 . S
C1072 C1071 1.399 . S
C1072 C1073 1.376 . S
C1073 H1060 0.930 . S
C1073 C1072 1.376 . S
C1073 C1074 1.388 . S
C1074 H1061 0.930 . S
C1074 C1073 1.388 . S
C1074 C1075 1.390 . S
C1075 C1074 1.390 . S
C1075 C1076 1.394 . S
C1075 C1081 1.465 . S
C1076 C1071 1.399 . S
C1076 C1075 1.394 . S
C1076 C1077 1.516 . S
C1077 C1076 1.516 . S
C1077 C1078 1.502 . S
C1077 C1079 1.561 . S
C1077 C1080 1.526 . S
C1078 H1062 0.959 . S
C1078 H1063 0.959 . S
C1078 H1064 0.961 . S
C1078 C1077 1.502 . S
C1079 H1065 0.960 . S
C1079 H1066 0.961 . S
C1079 H1067 0.959 . S
C1079 C1077 1.561 . S
C1080 C1077 1.526 . S
C1080 C1081 1.396 . S
C1080 C1085 1.390 . S
C1081 C1075 1.465 . S
C1081 C1080 1.396 . S
C1081 C1082 1.399 . S
C1082 H1068 0.929 . S
C1082 C1081 1.399 . S
C1082 C1083 1.385 . S
C1083 H1069 0.931 . S
C1083 C1082 1.385 . S
C1083 C1084 1.389 . S
C1084 C1083 1.389 . S
C1084 C1085 1.387 . S
C1085 H1070 0.930 . S
C1085 C1080 1.390 . S
C1085 C1084 1.387 . S
H1086 C1098 0.930 . S
H1087 C1100 0.930 . S
H1088 C1101 0.930 . S
H1089 C1105 0.959 . S
H1090 C1105 0.959 . S
H1091 C1105 0.961 . S
H1092 C1106 0.960 . S
H1093 C1106 0.961 . S
H1094 C1106 0.959 . S
H1095 C1109 0.929 . S
H1096 C1110 0.931 . S
H1097 C1112 0.930 . S
C1098 H1086 0.930 . S
C1098 C1099 1.399 . S
C1098 C1103 1.399 . S
C1099 C1098 1.399 . S
C1099 C1100 1.376 . S
C1100 H1087 0.930 . S
C1100 C1099 1.376 . S
C1100 C1101 1.388 . S
C1101 H1088 0.930 . S
C1101 C1100 1.388 . S
C1101 C1102 1.390 . S
C1102 C1101 1.390 . S
C1102 C1103 1.394 . S
C1102 C1108 1.465 . S
C1103 C1098 1.399 . S
C1103 C1102 1.394 . S
C1103 C1104 1.516 . S
C1104 C1103 1.516 . S
C1104 C1105 1.502 . S
C1104 C1106 1.561 . S
C1104 C1107 1.526 . S
C1105 H1089 0.959 . S
C1105 H1090 0.959 . S
C1105 H1091 0.961 . S
C1105 C1104 1.502 . S
C1106 H1092 0.960 . S
C1106 H1093 0.961 . S
C1106 H1094 0.959 . S
C1106 C1104 1.561 . S
C1107 C1104 1.526 . S
C1107 C1108 1.396 . S
C1107 C1112 1.390 . S
C1108 C1102 1.465 . S
C1108 C1107 1.396 . S
C1108 C1109 1.399 . S
C1109 H1095 0.929 . S
C1109 C1108 1.399 . S
C1109 C1110 1.385 . S
C1110 H1096 0.931 . S
C1110 C1109 1.385 . S
C1110 C1111 1.389 . S
C1111 C1110 1.389 . S
C1111 C1112 1.387 . S
C1112 H1097 0.930 . S
C1112 C1107 1.390 . S
C1112 C1111 1.387 . S
H1113 C1125 0.930 1_455 S
H1114 C1127 0.930 . S
H1115 C1128 0.930 . S
H1116 C1132 0.959 . S
H1117 C1132 0.959 . S
H1118 C1132 0.961 . S
H1119 C1133 0.960 . S
H1120 C1133 0.961 . S
H1121 C1133 0.959 . S
H1122 C1136 0.929 . S
H1123 C1137 0.931 . S
H1124 C1139 0.930 . S
C1125 H1113 0.930 1_655 S
C1125 C1126 1.399 . S
C1125 C1130 1.399 . S
C1126 C1125 1.399 . S
C1126 C1127 1.376 . S
C1127 H1114 0.930 . S
C1127 C1126 1.376 . S
C1127 C1128 1.388 . S
C1128 H1115 0.930 . S
C1128 C1127 1.388 . S
C1128 C1129 1.390 . S
C1129 C1128 1.390 . S
C1129 C1130 1.394 . S
C1129 C1135 1.465 . S
C1130 C1125 1.399 . S
C1130 C1129 1.394 . S
C1130 C1131 1.516 1_655 S
C1131 C1130 1.516 1_455 S
C1131 C1132 1.502 . S
C1131 C1133 1.561 . S
C1131 C1134 1.526 . S
C1132 H1116 0.959 . S
C1132 H1117 0.959 . S
C1132 H1118 0.961 . S
C1132 C1131 1.502 . S
C1133 H1119 0.960 . S
C1133 H1120 0.961 . S
C1133 H1121 0.959 . S
C1133 C1131 1.561 . S
C1134 C1131 1.526 . S
C1134 C1135 1.396 1_455 S
C1134 C1139 1.390 . S
C1135 C1129 1.465 . S
C1135 C1134 1.396 1_655 S
C1135 C1136 1.399 . S
C1136 H1122 0.929 . S
C1136 C1135 1.399 . S
C1136 C1137 1.385 . S
C1137 H1123 0.931 . S
C1137 C1136 1.385 . S
C1137 C1138 1.389 . S
C1138 C1137 1.389 . S
C1138 C1139 1.387 1_655 S
C1139 H1124 0.930 . S
C1139 C1134 1.390 . S
C1139 C1138 1.387 1_455 S
H1140 C1152 0.930 . S
H1141 C1154 0.930 . S
H1142 C1155 0.930 . S
H1143 C1159 0.959 . S
H1144 C1159 0.959 . S
H1145 C1159 0.961 . S
H1146 C1160 0.960 . S
H1147 C1160 0.961 . S
H1148 C1160 0.959 . S
H1149 C1163 0.929 . S
H1150 C1164 0.931 . S
H1151 C1166 0.930 . S
C1152 H1140 0.930 . S
C1152 C1153 1.399 . S
C1152 C1157 1.399 . S
C1153 C1152 1.399 . S
C1153 C1154 1.376 . S
C1154 H1141 0.930 . S
C1154 C1153 1.376 . S
C1154 C1155 1.388 . S
C1155 H1142 0.930 . S
C1155 C1154 1.388 . S
C1155 C1156 1.390 . S
C1156 C1155 1.390 . S
C1156 C1157 1.394 . S
C1156 C1162 1.465 . S
C1157 C1152 1.399 . S
C1157 C1156 1.394 . S
C1157 C1158 1.516 . S
C1158 C1157 1.516 . S
C1158 C1159 1.502 . S
C1158 C1160 1.561 . S
C1158 C1161 1.526 . S
C1159 H1143 0.959 . S
C1159 H1144 0.959 . S
C1159 H1145 0.961 . S
C1159 C1158 1.502 . S
C1160 H1146 0.960 . S
C1160 H1147 0.961 . S
C1160 H1148 0.959 . S
C1160 C1158 1.561 . S
C1161 C1158 1.526 . S
C1161 C1162 1.396 . S
C1161 C1166 1.390 . S
C1162 C1156 1.465 . S
C1162 C1161 1.396 . S
C1162 C1163 1.399 . S
C1163 H1149 0.929 . S
C1163 C1162 1.399 . S
C1163 C1164 1.385 . S
C1164 H1150 0.931 . S
C1164 C1163 1.385 . S
C1164 C1165 1.389 . S
C1165 C1164 1.389 . S
C1165 C1166 1.387 . S
C1166 H1151 0.930 . S
C1166 C1161 1.390 . S
C1166 C1165 1.387 . S
H1167 C1179 0.930 . S
H1168 C1181 0.930 . S
H1169 C1182 0.930 . S
H1170 C1186 0.959 . S
H1171 C1186 0.959 . S
H1172 C1186 0.961 . S
H1173 C1187 0.960 . S
H1174 C1187 0.961 . S
H1175 C1187 0.959 . S
H1176 C1190 0.929 . S
H1177 C1191 0.931 . S
H1178 C1193 0.930 . S
C1179 H1167 0.930 . S
C1179 C1180 1.399 . S
C1179 C1184 1.399 . S
C1180 C1179 1.399 . S
C1180 C1181 1.376 . S
C1181 H1168 0.930 . S
C1181 C1180 1.376 . S
C1181 C1182 1.388 . S
C1182 H1169 0.930 . S
C1182 C1181 1.388 . S
C1182 C1183 1.390 . S
C1183 C1182 1.390 . S
C1183 C1184 1.394 . S
C1183 C1189 1.465 . S
C1184 C1179 1.399 . S
C1184 C1183 1.394 . S
C1184 C1185 1.516 . S
C1185 C1184 1.516 . S
C1185 C1186 1.502 . S
C1185 C1187 1.561 . S
C1185 C1188 1.526 . S
C1186 H1170 0.959 . S
C1186 H1171 0.959 . S
C1186 H1172 0.961 . S
C1186 C1185 1.502 . S
C1187 H1173 0.960 . S
C1187 H1174 0.961 . S
C1187 H1175 0.959 . S
C1187 C1185 1.561 . S
C1188 C1185 1.526 . S
C1188 C1189 1.396 . S
C1188 C1193 1.390 . S
C1189 C1183 1.465 . S
C1189 C1188 1.396 . S
C1189 C1190 1.399 . S
C1190 H1176 0.929 . S
C1190 C1189 1.399 . S
C1190 C1191 1.385 . S
C1191 H1177 0.931 . S
C1191 C1190 1.385 . S
C1191 C1192 1.389 . S
C1192 C1191 1.389 . S
C1192 C1193 1.387 . S
C1193 H1178 0.930 . S
C1193 C1188 1.390 . S
C1193 C1192 1.387 . S
H1194 C1206 0.930 . S
H1195 C1208 0.930 . S
H1196 C1209 0.930 . S
H1197 C1213 0.959 . S
H1198 C1213 0.959 . S
H1199 C1213 0.961 . S
H1200 C1214 0.960 . S
H1201 C1214 0.961 . S
H1202 C1214 0.959 . S
H1203 C1217 0.929 . S
H1204 C1218 0.931 . S
H1205 C1220 0.930 . S
C1206 H1194 0.930 . S
C1206 C1207 1.399 . S
C1206 C1211 1.399 . S
C1207 C1206 1.399 . S
C1207 C1208 1.376 . S
C1208 H1195 0.930 . S
C1208 C1207 1.376 . S
C1208 C1209 1.388 . S
C1209 H1196 0.930 . S
C1209 C1208 1.388 . S
C1209 C1210 1.390 . S
C1210 C1209 1.390 . S
C1210 C1211 1.394 . S
C1210 C1216 1.465 . S
C1211 C1206 1.399 . S
C1211 C1210 1.394 . S
C1211 C1212 1.516 . S
C1212 C1211 1.516 . S
C1212 C1213 1.502 . S
C1212 C1214 1.561 . S
C1212 C1215 1.526 . S
C1213 H1197 0.959 . S
C1213 H1198 0.959 . S
C1213 H1199 0.961 . S
C1213 C1212 1.502 . S
C1214 H1200 0.960 . S
C1214 H1201 0.961 . S
C1214 H1202 0.959 . S
C1214 C1212 1.561 . S
C1215 C1212 1.526 . S
C1215 C1216 1.396 . S
C1215 C1220 1.390 . S
C1216 C1210 1.465 . S
C1216 C1215 1.396 . S
C1216 C1217 1.399 . S
C1217 H1203 0.929 . S
C1217 C1216 1.399 . S
C1217 C1218 1.385 . S
C1218 H1204 0.931 . S
C1218 C1217 1.385 . S
C1218 C1219 1.389 . S
C1219 C1218 1.389 . S
C1219 C1220 1.387 . S
C1220 H1205 0.930 . S
C1220 C1215 1.390 . S
C1220 C1219 1.387 . S
H1221 C1233 0.930 1_655 S
H1222 C1235 0.930 . S
H1223 C1236 0.930 . S
H1224 C1240 0.959 . S
H1225 C1240 0.959 . S
H1226 C1240 0.961 . S
H1227 C1241 0.960 . S
H1228 C1241 0.961 . S
H1229 C1241 0.959 . S
H1230 C1244 0.929 . S
H1231 C1245 0.931 . S
H1232 C1247 0.930 . S
C1233 H1221 0.930 1_455 S
C1233 C1234 1.399 . S
C1233 C1238 1.399 . S
C1234 C1233 1.399 . S
C1234 C1235 1.376 . S
C1235 H1222 0.930 . S
C1235 C1234 1.376 . S
C1235 C1236 1.388 . S
C1236 H1223 0.930 . S
C1236 C1235 1.388 . S
C1236 C1237 1.390 . S
C1237 C1236 1.390 . S
C1237 C1238 1.394 . S
C1237 C1243 1.465 . S
C1238 C1233 1.399 . S
C1238 C1237 1.394 . S
C1238 C1239 1.516 . S
C1239 C1238 1.516 . S
C1239 C1240 1.502 1_455 S
C1239 C1241 1.561 . S
C1239 C1242 1.526 . S
C1240 H1224 0.959 . S
C1240 H1225 0.959 . S
C1240 H1226 0.961 . S
C1240 C1239 1.502 1_655 S
C1241 H1227 0.960 . S
C1241 H1228 0.961 . S
C1241 H1229 0.959 . S
C1241 C1239 1.561 . S
C1242 C1239 1.526 . S
C1242 C1243 1.396 . S
C1242 C1247 1.390 . S
C1243 C1237 1.465 . S
C1243 C1242 1.396 . S
C1243 C1244 1.399 . S
C1244 H1230 0.929 . S
C1244 C1243 1.399 . S
C1244 C1245 1.385 . S
C1245 H1231 0.931 . S
C1245 C1244 1.385 . S
C1245 C1246 1.389 . S
C1246 C1245 1.389 . S
C1246 C1247 1.387 . S
C1247 H1232 0.930 . S
C1247 C1242 1.390 . S
C1247 C1246 1.387 . S
H1248 C1260 0.930 . S
H1249 C1262 0.930 . S
H1250 C1263 0.930 . S
H1251 C1267 0.959 . S
H1252 C1267 0.959 . S
H1253 C1267 0.961 . S
H1254 C1268 0.960 . S
H1255 C1268 0.961 . S
H1256 C1268 0.959 . S
H1257 C1271 0.929 . S
H1258 C1272 0.931 . S
H1259 C1274 0.930 . S
C1260 H1248 0.930 . S
C1260 C1261 1.399 . S
C1260 C1265 1.399 . S
C1261 C1260 1.399 . S
C1261 C1262 1.376 . S
C1262 H1249 0.930 . S
C1262 C1261 1.376 . S
C1262 C1263 1.388 . S
C1263 H1250 0.930 . S
C1263 C1262 1.388 . S
C1263 C1264 1.390 . S
C1264 C1263 1.390 . S
C1264 C1265 1.394 . S
C1264 C1270 1.465 . S
C1265 C1260 1.399 . S
C1265 C1264 1.394 . S
C1265 C1266 1.516 . S
C1266 C1265 1.516 . S
C1266 C1267 1.502 . S
C1266 C1268 1.561 . S
C1266 C1269 1.526 . S
C1267 H1251 0.959 . S
C1267 H1252 0.959 . S
C1267 H1253 0.961 . S
C1267 C1266 1.502 . S
C1268 H1254 0.960 . S
C1268 H1255 0.961 . S
C1268 H1256 0.959 . S
C1268 C1266 1.561 . S
C1269 C1266 1.526 . S
C1269 C1270 1.396 . S
C1269 C1274 1.390 . S
C1270 C1264 1.465 . S
C1270 C1269 1.396 . S
C1270 C1271 1.399 . S
C1271 H1257 0.929 . S
C1271 C1270 1.399 . S
C1271 C1272 1.385 . S
C1272 H1258 0.931 . S
C1272 C1271 1.385 . S
C1272 C1273 1.389 . S
C1273 C1272 1.389 . S
C1273 C1274 1.387 . S
C1274 H1259 0.930 . S
C1274 C1269 1.390 . S
C1274 C1273 1.387 . S
H1275 C1287 0.930 . S
H1276 C1289 0.930 . S
H1277 C1290 0.930 . S
H1278 C1294 0.959 . S
H1279 C1294 0.959 . S
H1280 C1294 0.961 . S
H1281 C1295 0.960 . S
H1282 C1295 0.961 . S
H1283 C1295 0.959 . S
H1284 C1298 0.929 . S
H1285 C1299 0.931 . S
H1286 C1301 0.930 . S
C1287 H1275 0.930 . S
C1287 C1288 1.399 . S
C1287 C1292 1.399 . S
C1288 C1287 1.399 . S
C1288 C1289 1.376 . S
C1289 H1276 0.930 . S
C1289 C1288 1.376 . S
C1289 C1290 1.388 . S
C1290 H1277 0.930 . S
C1290 C1289 1.388 . S
C1290 C1291 1.390 . S
C1291 C1290 1.390 . S
C1291 C1292 1.394 . S
C1291 C1297 1.465 . S
C1292 C1287 1.399 . S
C1292 C1291 1.394 . S
C1292 C1293 1.516 . S
C1293 C1292 1.516 . S
C1293 C1294 1.502 . S
C1293 C1295 1.561 . S
C1293 C1296 1.526 . S
C1294 H1278 0.959 . S
C1294 H1279 0.959 . S
C1294 H1280 0.961 . S
C1294 C1293 1.502 . S
C1295 H1281 0.960 . S
C1295 H1282 0.961 . S
C1295 H1283 0.959 . S
C1295 C1293 1.561 . S
C1296 C1293 1.526 . S
C1296 C1297 1.396 . S
C1296 C1301 1.390 . S
C1297 C1291 1.465 . S
C1297 C1296 1.396 . S
C1297 C1298 1.399 . S
C1298 H1284 0.929 . S
C1298 C1297 1.399 . S
C1298 C1299 1.385 . S
C1299 H1285 0.931 . S
C1299 C1298 1.385 . S
C1299 C1300 1.389 . S
C1300 C1299 1.389 . S
C1300 C1301 1.387 . S
C1301 H1286 0.930 . S
C1301 C1296 1.390 . S
C1301 C1300 1.387 . S
H1302 C1314 0.930 . S
H1303 C1316 0.930 . S
H1304 C1317 0.930 . S
H1305 C1321 0.959 . S
H1306 C1321 0.959 . S
H1307 C1321 0.961 . S
H1308 C1322 0.960 . S
H1309 C1322 0.961 . S
H1310 C1322 0.959 . S
H1311 C1325 0.929 . S
H1312 C1326 0.931 . S
H1313 C1328 0.930 . S
C1314 H1302 0.930 . S
C1314 C1315 1.399 . S
C1314 C1319 1.399 . S
C1315 C1314 1.399 . S
C1315 C1316 1.376 . S
C1316 H1303 0.930 . S
C1316 C1315 1.376 . S
C1316 C1317 1.388 . S
C1317 H1304 0.930 . S
C1317 C1316 1.388 . S
C1317 C1318 1.390 . S
C1318 C1317 1.390 . S
C1318 C1319 1.394 . S
C1318 C1324 1.465 . S
C1319 C1314 1.399 . S
C1319 C1318 1.394 . S
C1319 C1320 1.516 . S
C1320 C1319 1.516 . S
C1320 C1321 1.502 . S
C1320 C1322 1.561 . S
C1320 C1323 1.526 . S
C1321 H1305 0.959 . S
C1321 H1306 0.959 . S
C1321 H1307 0.961 . S
C1321 C1320 1.502 . S
C1322 H1308 0.960 . S
C1322 H1309 0.961 . S
C1322 H1310 0.959 . S
C1322 C1320 1.561 . S
C1323 C1320 1.526 . S
C1323 C1324 1.396 . S
C1323 C1328 1.390 . S
C1324 C1318 1.465 . S
C1324 C1323 1.396 . S
C1324 C1325 1.399 . S
C1325 H1311 0.929 . S
C1325 C1324 1.399 . S
C1325 C1326 1.385 . S
C1326 H1312 0.931 . S
C1326 C1325 1.385 . S
C1326 C1327 1.389 . S
C1327 C1326 1.389 . S
C1327 C1328 1.387 . S
C1328 H1313 0.930 . S
C1328 C1323 1.390 . S
C1328 C1327 1.387 . S
H1329 C1341 0.930 . S
H1330 C1343 0.930 . S
H1331 C1344 0.930 . S
H1332 C1348 0.959 . S
H1333 C1348 0.959 . S
H1334 C1348 0.961 . S
H1335 C1349 0.960 . S
H1336 C1349 0.961 . S
H1337 C1349 0.959 . S
H1338 C1352 0.929 . S
H1339 C1353 0.931 . S
H1340 C1355 0.930 . S
C1341 H1329 0.930 . S
C1341 C1342 1.399 . S
C1341 C1346 1.399 . S
C1342 C1341 1.399 . S
C1342 C1343 1.376 . S
C1343 H1330 0.930 . S
C1343 C1342 1.376 . S
C1343 C1344 1.388 . S
C1344 H1331 0.930 . S
C1344 C1343 1.388 . S
C1344 C1345 1.390 . S
C1345 C1344 1.390 . S
C1345 C1346 1.394 . S
C1345 C1351 1.465 . S
C1346 C1341 1.399 . S
C1346 C1345 1.394 . S
C1346 C1347 1.516 . S
C1347 C1346 1.516 . S
C1347 C1348 1.502 . S
C1347 C1349 1.561 . S
C1347 C1350 1.526 . S
C1348 H1332 0.959 . S
C1348 H1333 0.959 . S
C1348 H1334 0.961 . S
C1348 C1347 1.502 . S
C1349 H1335 0.960 . S
C1349 H1336 0.961 . S
C1349 H1337 0.959 . S
C1349 C1347 1.561 . S
C1350 C1347 1.526 . S
C1350 C1351 1.396 . S
C1350 C1355 1.390 . S
C1351 C1345 1.465 . S
C1351 C1350 1.396 . S
C1351 C1352 1.399 . S
C1352 H1338 0.929 . S
C1352 C1351 1.399 . S
C1352 C1353 1.385 . S
C1353 H1339 0.931 . S
C1353 C1352 1.385 . S
C1353 C1354 1.389 . S
C1354 C1353 1.389 . S
C1354 C1355 1.387 . S
C1355 H1340 0.930 . S
C1355 C1350 1.390 . S
C1355 C1354 1.387 . S
H1356 C1368 0.930 . S
H1357 C1370 0.930 . S
H1358 C1371 0.930 . S
H1359 C1375 0.959 . S
H1360 C1375 0.959 . S
H1361 C1375 0.961 . S
H1362 C1376 0.960 . S
H1363 C1376 0.961 . S
H1364 C1376 0.959 . S
H1365 C1379 0.929 . S
H1366 C1380 0.931 . S
H1367 C1382 0.930 1_556 S
C1368 H1356 0.930 . S
C1368 C1369 1.399 1_556 S
C1368 C1373 1.387 1_556 S
C1369 C1368 1.399 1_554 S
C1369 C1370 1.376 . S
C1370 H1357 0.930 . S
C1370 C1369 1.376 . S
C1370 C1371 1.388 . S
C1371 H1358 0.930 . S
C1371 C1370 1.388 . S
C1371 C1372 1.390 . S
C1372 C1371 1.390 . S
C1372 C1373 1.427 . S
C1372 C1378 1.465 . S
C1373 C1368 1.387 1_554 S
C1373 C1372 1.427 . S
C1373 C1374 1.501 1_554 S
C1374 C1373 1.501 1_556 S
C1374 C1375 1.502 . S
C1374 C1376 1.561 . S
C1374 C1377 1.526 1_556 S
C1375 H1359 0.959 . S
C1375 H1360 0.959 . S
C1375 H1361 0.961 . S
C1375 C1374 1.502 . S
C1376 H1362 0.960 . S
C1376 H1363 0.961 . S
C1376 H1364 0.959 . S
C1376 C1374 1.561 . S
C1377 C1374 1.526 1_554 S
C1377 C1378 1.396 . S
C1377 C1382 1.390 . S
C1378 C1372 1.465 . S
C1378 C1377 1.396 . S
C1378 C1379 1.399 . S
C1379 H1365 0.929 . S
C1379 C1378 1.399 . S
C1379 C1380 1.385 . S
C1380 H1366 0.931 . S
C1380 C1379 1.385 . S
C1380 C1381 1.389 . S
C1381 C1380 1.389 . S
C1381 C1382 1.387 . S
C1382 H1367 0.930 1_554 S
C1382 C1377 1.390 . S
C1382 C1381 1.387 . S
H1383 C1395 0.930 . S
H1384 C1397 0.930 . S
H1385 C1398 0.930 . S
H1386 C1402 0.959 . S
H1387 C1402 0.959 . S
H1388 C1402 0.961 . S
H1389 C1403 0.960 . S
H1390 C1403 0.961 . S
H1391 C1403 0.959 . S
H1392 C1406 0.929 . S
H1393 C1407 0.931 . S
H1394 C1409 0.930 . S
C1395 H1383 0.930 . S
C1395 C1396 1.399 . S
C1395 C1400 1.399 . S
C1396 C1395 1.399 . S
C1396 C1397 1.376 . S
C1397 H1384 0.930 . S
C1397 C1396 1.376 . S
C1397 C1398 1.388 . S
C1398 H1385 0.930 . S
C1398 C1397 1.388 . S
C1398 C1399 1.390 . S
C1399 C1398 1.390 . S
C1399 C1400 1.394 . S
C1399 C1405 1.465 . S
C1400 C1395 1.399 . S
C1400 C1399 1.394 . S
C1400 C1401 1.516 . S
C1401 C1400 1.516 . S
C1401 C1402 1.502 . S
C1401 C1403 1.561 . S
C1401 C1404 1.526 . S
C1402 H1386 0.959 . S
C1402 H1387 0.959 . S
C1402 H1388 0.961 . S
C1402 C1401 1.502 . S
C1403 H1389 0.960 . S
C1403 H1390 0.961 . S
C1403 H1391 0.959 . S
C1403 C1401 1.561 . S
C1404 C1401 1.526 . S
C1404 C1405 1.396 . S
C1404 C1409 1.390 . S
C1405 C1399 1.465 . S
C1405 C1404 1.396 . S
C1405 C1406 1.399 . S
C1406 H1392 0.929 . S
C1406 C1405 1.399 . S
C1406 C1407 1.385 . S
C1407 H1393 0.931 . S
C1407 C1406 1.385 . S
C1407 C1408 1.389 . S
C1408 C1407 1.389 . S
C1408 C1409 1.387 . S
C1409 H1394 0.930 . S
C1409 C1404 1.390 . S
C1409 C1408 1.387 . S
H1410 C1422 0.930 . S
H1411 C1424 0.930 . S
H1412 C1425 0.930 . S
H1413 C1429 0.959 . S
H1414 C1429 0.959 . S
H1415 C1429 0.961 . S
H1416 C1430 0.960 . S
H1417 C1430 0.961 . S
H1418 C1430 0.959 . S
H1419 C1433 0.929 . S
H1420 C1434 0.931 . S
H1421 C1436 0.930 . S
C1422 H1410 0.930 . S
C1422 C1423 1.399 . S
C1422 C1427 1.399 . S
C1423 C1422 1.399 . S
C1423 C1424 1.376 . S
C1424 H1411 0.930 . S
C1424 C1423 1.376 . S
C1424 C1425 1.388 . S
C1425 H1412 0.930 . S
C1425 C1424 1.388 . S
C1425 C1426 1.390 . S
C1426 C1425 1.390 . S
C1426 C1427 1.394 . S
C1426 C1432 1.465 . S
C1427 C1422 1.399 . S
C1427 C1426 1.394 . S
C1427 C1428 1.516 . S
C1428 C1427 1.516 . S
C1428 C1429 1.502 . S
C1428 C1430 1.561 . S
C1428 C1431 1.526 . S
C1429 H1413 0.959 . S
C1429 H1414 0.959 . S
C1429 H1415 0.961 . S
C1429 C1428 1.502 . S
C1430 H1416 0.960 . S
C1430 H1417 0.961 . S
C1430 H1418 0.959 . S
C1430 C1428 1.561 . S
C1431 C1428 1.526 . S
C1431 C1432 1.396 . S
C1431 C1436 1.390 . S
C1432 C1426 1.465 . S
C1432 C1431 1.396 . S
C1432 C1433 1.399 . S
C1433 H1419 0.929 . S
C1433 C1432 1.399 . S
C1433 C1434 1.385 . S
C1434 H1420 0.931 . S
C1434 C1433 1.385 . S
C1434 C1435 1.389 . S
C1435 C1434 1.389 . S
C1435 C1436 1.387 . S
C1436 H1421 0.930 . S
C1436 C1431 1.390 . S
C1436 C1435 1.387 . S
H1437 C1449 0.930 1_554 S
H1438 C1451 0.930 . S
H1439 C1452 0.930 . S
H1440 C1456 0.959 1_556 S
H1441 C1456 0.959 . S
H1442 C1456 0.961 . S
H1443 C1457 0.960 . S
H1444 C1457 0.961 . S
H1445 C1457 0.959 . S
H1446 C1460 0.929 . S
H1447 C1461 0.931 . S
H1448 C1463 0.930 . S
C1449 H1437 0.930 1_556 S
C1449 C1450 1.399 . S
C1449 C1454 1.399 . S
C1450 C1449 1.399 . S
C1450 C1451 1.376 . S
C1451 H1438 0.930 . S
C1451 C1450 1.376 . S
C1451 C1452 1.388 . S
C1452 H1439 0.930 . S
C1452 C1451 1.388 . S
C1452 C1453 1.390 . S
C1453 C1452 1.390 . S
C1453 C1454 1.394 . S
C1453 C1459 1.465 . S
C1454 C1449 1.399 . S
C1454 C1453 1.394 . S
C1454 C1455 1.516 1_556 S
C1455 C1454 1.516 1_554 S
C1455 C1456 1.502 . S
C1455 C1457 1.561 . S
C1455 C1458 1.526 . S
C1456 H1440 0.959 1_554 S
C1456 H1441 0.959 . S
C1456 H1442 0.961 . S
C1456 C1455 1.502 . S
C1457 H1443 0.960 . S
C1457 H1444 0.961 . S
C1457 H1445 0.959 . S
C1457 C1455 1.561 . S
C1458 C1455 1.526 . S
C1458 C1459 1.396 1_554 S
C1458 C1463 1.390 . S
C1459 C1453 1.465 . S
C1459 C1458 1.396 1_556 S
C1459 C1460 1.399 . S
C1460 H1446 0.929 . S
C1460 C1459 1.399 . S
C1460 C1461 1.385 . S
C1461 H1447 0.931 . S
C1461 C1460 1.385 . S
C1461 C1462 1.389 . S
C1462 C1461 1.389 . S
C1462 C1463 1.387 1_556 S
C1463 H1448 0.930 . S
C1463 C1458 1.390 . S
C1463 C1462 1.387 1_554 S
H1464 C1476 0.930 . S
H1465 C1478 0.930 . S
H1466 C1479 0.930 . S
H1467 C1483 0.959 . S
H1468 C1483 0.959 . S
H1469 C1483 0.961 . S
H1470 C1484 0.960 . S
H1471 C1484 0.961 . S
H1472 C1484 0.959 . S
H1473 C1487 0.929 . S
H1474 C1488 0.931 . S
H1475 C1490 0.930 . S
C1476 H1464 0.930 . S
C1476 C1477 1.399 . S
C1476 C1481 1.399 . S
C1477 C1476 1.399 . S
C1477 C1478 1.376 . S
C1478 H1465 0.930 . S
C1478 C1477 1.376 . S
C1478 C1479 1.388 . S
C1479 H1466 0.930 . S
C1479 C1478 1.388 . S
C1479 C1480 1.390 . S
C1480 C1479 1.390 . S
C1480 C1481 1.394 . S
C1480 C1486 1.465 . S
C1481 C1476 1.399 . S
C1481 C1480 1.394 . S
C1481 C1482 1.516 . S
C1482 C1481 1.516 . S
C1482 C1483 1.502 . S
C1482 C1484 1.561 . S
C1482 C1485 1.526 . S
C1483 H1467 0.959 . S
C1483 H1468 0.959 . S
C1483 H1469 0.961 . S
C1483 C1482 1.502 . S
C1484 H1470 0.960 . S
C1484 H1471 0.961 . S
C1484 H1472 0.959 . S
C1484 C1482 1.561 . S
C1485 C1482 1.526 . S
C1485 C1486 1.396 . S
C1485 C1490 1.390 . S
C1486 C1480 1.465 . S
C1486 C1485 1.396 . S
C1486 C1487 1.399 . S
C1487 H1473 0.929 . S
C1487 C1486 1.399 . S
C1487 C1488 1.385 . S
C1488 H1474 0.931 . S
C1488 C1487 1.385 . S
C1488 C1489 1.389 . S
C1489 C1488 1.389 . S
C1489 C1490 1.387 . S
C1490 H1475 0.930 . S
C1490 C1485 1.390 . S
C1490 C1489 1.387 . S
H1491 C1503 0.930 . S
H1492 C1505 0.930 . S
H1493 C1506 0.930 . S
H1494 C1510 0.959 . S
H1495 C1510 0.959 . S
H1496 C1510 0.961 . S
H1497 C1511 0.960 . S
H1498 C1511 0.961 . S
H1499 C1511 0.959 . S
H1500 C1514 0.929 . S
H1501 C1515 0.931 . S
H1502 C1517 0.930 . S
C1503 H1491 0.930 . S
C1503 C1504 1.399 . S
C1503 C1508 1.399 . S
C1504 C1503 1.399 . S
C1504 C1505 1.376 . S
C1505 H1492 0.930 . S
C1505 C1504 1.376 . S
C1505 C1506 1.388 . S
C1506 H1493 0.930 . S
C1506 C1505 1.388 . S
C1506 C1507 1.390 . S
C1507 C1506 1.390 . S
C1507 C1508 1.394 . S
C1507 C1513 1.465 . S
C1508 C1503 1.399 . S
C1508 C1507 1.394 . S
C1508 C1509 1.516 . S
C1509 C1508 1.516 . S
C1509 C1510 1.502 . S
C1509 C1511 1.561 . S
C1509 C1512 1.526 . S
C1510 H1494 0.959 . S
C1510 H1495 0.959 . S
C1510 H1496 0.961 . S
C1510 C1509 1.502 . S
C1511 H1497 0.960 . S
C1511 H1498 0.961 . S
C1511 H1499 0.959 . S
C1511 C1509 1.561 . S
C1512 C1509 1.526 . S
C1512 C1513 1.396 . S
C1512 C1517 1.390 . S
C1513 C1507 1.465 . S
C1513 C1512 1.396 . S
C1513 C1514 1.399 . S
C1514 H1500 0.929 . S
C1514 C1513 1.399 . S
C1514 C1515 1.385 . S
C1515 H1501 0.931 . S
C1515 C1514 1.385 . S
C1515 C1516 1.389 . S
C1516 C1515 1.389 . S
C1516 C1517 1.387 . S
C1517 H1502 0.930 . S
C1517 C1512 1.390 . S
C1517 C1516 1.387 . S
H1518 C1530 0.930 . S
H1519 C1532 0.930 . S
H1520 C1533 0.930 . S
H1521 C1537 0.959 . S
H1522 C1537 0.959 . S
H1523 C1537 0.961 . S
H1524 C1538 0.960 . S
H1525 C1538 0.961 . S
H1526 C1538 0.959 . S
H1527 C1541 0.929 . S
H1528 C1542 0.931 . S
H1529 C1544 0.930 . S
C1530 H1518 0.930 . S
C1530 C1531 1.399 . S
C1530 C1535 1.399 . S
C1531 C1530 1.399 . S
C1531 C1532 1.376 . S
C1532 H1519 0.930 . S
C1532 C1531 1.376 . S
C1532 C1533 1.388 . S
C1533 H1520 0.930 . S
C1533 C1532 1.388 . S
C1533 C1534 1.390 . S
C1534 C1533 1.390 . S
C1534 C1535 1.394 . S
C1534 C1540 1.465 . S
C1535 C1530 1.399 . S
C1535 C1534 1.394 . S
C1535 C1536 1.516 . S
C1536 C1535 1.516 . S
C1536 C1537 1.502 . S
C1536 C1538 1.561 . S
C1536 C1539 1.526 . S
C1537 H1521 0.959 . S
C1537 H1522 0.959 . S
C1537 H1523 0.961 . S
C1537 C1536 1.502 . S
C1538 H1524 0.960 . S
C1538 H1525 0.961 . S
C1538 H1526 0.959 . S
C1538 C1536 1.561 . S
C1539 C1536 1.526 . S
C1539 C1540 1.396 . S
C1539 C1544 1.390 . S
C1540 C1534 1.465 . S
C1540 C1539 1.396 . S
C1540 C1541 1.399 . S
C1541 H1527 0.929 . S
C1541 C1540 1.399 . S
C1541 C1542 1.385 . S
C1542 H1528 0.931 . S
C1542 C1541 1.385 . S
C1542 C1543 1.389 . S
C1543 C1542 1.389 . S
C1543 C1544 1.387 . S
C1544 H1529 0.930 . S
C1544 C1539 1.390 . S
C1544 C1543 1.387 . S
H1545 C1557 0.930 . S
H1546 C1559 0.930 . S
H1547 C1560 0.930 . S
H1548 C1564 0.959 . S
H1549 C1564 0.959 . S
H1550 C1564 0.961 . S
H1551 C1565 0.960 . S
H1552 C1565 0.961 . S
H1553 C1565 0.959 . S
H1554 C1568 0.929 . S
H1555 C1569 0.931 . S
H1556 C1571 0.930 . S
C1557 H1545 0.930 . S
C1557 C1558 1.399 . S
C1557 C1562 1.399 . S
C1558 C1557 1.399 . S
C1558 C1559 1.376 . S
C1559 H1546 0.930 . S
C1559 C1558 1.376 . S
C1559 C1560 1.388 . S
C1560 H1547 0.930 . S
C1560 C1559 1.388 . S
C1560 C1561 1.390 . S
C1561 C1560 1.390 . S
C1561 C1562 1.394 . S
C1561 C1567 1.465 . S
C1562 C1557 1.399 . S
C1562 C1561 1.394 . S
C1562 C1563 1.516 . S
C1563 C1562 1.516 . S
C1563 C1564 1.502 . S
C1563 C1565 1.561 . S
C1563 C1566 1.526 . S
C1564 H1548 0.959 . S
C1564 H1549 0.959 . S
C1564 H1550 0.961 . S
C1564 C1563 1.502 . S
C1565 H1551 0.960 . S
C1565 H1552 0.961 . S
C1565 H1553 0.959 . S
C1565 C1563 1.561 . S
C1566 C1563 1.526 . S
C1566 C1567 1.396 . S
C1566 C1571 1.390 . S
C1567 C1561 1.465 . S
C1567 C1566 1.396 . S
C1567 C1568 1.399 . S
C1568 H1554 0.929 . S
C1568 C1567 1.399 . S
C1568 C1569 1.385 . S
C1569 H1555 0.931 . S
C1569 C1568 1.385 . S
C1569 C1570 1.389 . S
C1570 C1569 1.389 . S
C1570 C1571 1.387 . S
C1571 H1556 0.930 . S
C1571 C1566 1.390 . S
C1571 C1570 1.387 . S
H1572 C1584 0.930 . S
H1573 C1586 0.930 . S
H1574 C1587 0.930 . S
H1575 C1591 0.959 . S
H1576 C1591 0.959 . S
H1577 C1591 0.961 . S
H1578 C1592 0.960 . S
H1579 C1592 0.961 . S
H1580 C1592 0.959 . S
H1581 C1595 0.929 . S
H1582 C1596 0.931 . S
H1583 C1598 0.930 . S
C1584 H1572 0.930 . S
C1584 C1585 1.399 . S
C1584 C1589 1.399 . S
C1585 C1584 1.399 . S
C1585 C1586 1.376 . S
C1586 H1573 0.930 . S
C1586 C1585 1.376 . S
C1586 C1587 1.388 . S
C1587 H1574 0.930 . S
C1587 C1586 1.388 . S
C1587 C1588 1.390 . S
C1588 C1587 1.390 . S
C1588 C1589 1.394 . S
C1588 C1594 1.465 . S
C1589 C1584 1.399 . S
C1589 C1588 1.394 . S
C1589 C1590 1.516 . S
C1590 C1589 1.516 . S
C1590 C1591 1.502 . S
C1590 C1592 1.561 . S
C1590 C1593 1.526 . S
C1591 H1575 0.959 . S
C1591 H1576 0.959 . S
C1591 H1577 0.961 . S
C1591 C1590 1.502 . S
C1592 H1578 0.960 . S
C1592 H1579 0.961 . S
C1592 H1580 0.959 . S
C1592 C1590 1.561 . S
C1593 C1590 1.526 . S
C1593 C1594 1.396 . S
C1593 C1598 1.390 . S
C1594 C1588 1.465 . S
C1594 C1593 1.396 . S
C1594 C1595 1.399 . S
C1595 H1581 0.929 . S
C1595 C1594 1.399 . S
C1595 C1596 1.385 . S
C1596 H1582 0.931 . S
C1596 C1595 1.385 . S
C1596 C1597 1.389 . S
C1597 C1596 1.389 . S
C1597 C1598 1.387 . S
C1598 H1583 0.930 . S
C1598 C1593 1.390 . S
C1598 C1597 1.387 . S
H1599 C1611 0.930 . S
H1600 C1613 0.930 . S
H1601 C1614 0.930 . S
H1602 C1618 0.959 . S
H1603 C1618 0.959 . S
H1604 C1618 0.961 . S
H1605 C1619 0.960 . S
H1606 C1619 0.961 . S
H1607 C1619 0.959 . S
H1608 C1622 0.929 . S
H1609 C1623 0.931 . S
H1610 C1625 0.930 . S
C1611 H1599 0.930 . S
C1611 C1612 1.399 . S
C1611 C1616 1.399 . S
C1612 C1611 1.399 . S
C1612 C1613 1.376 . S
C1613 H1600 0.930 . S
C1613 C1612 1.376 . S
C1613 C1614 1.388 . S
C1614 H1601 0.930 . S
C1614 C1613 1.388 . S
C1614 C1615 1.390 . S
C1615 C1614 1.390 . S
C1615 C1616 1.394 . S
C1615 C1621 1.465 . S
C1616 C1611 1.399 . S
C1616 C1615 1.394 . S
C1616 C1617 1.516 . S
C1617 C1616 1.516 . S
C1617 C1618 1.502 . S
C1617 C1619 1.561 . S
C1617 C1620 1.526 . S
C1618 H1602 0.959 . S
C1618 H1603 0.959 . S
C1618 H1604 0.961 . S
C1618 C1617 1.502 . S
C1619 H1605 0.960 . S
C1619 H1606 0.961 . S
C1619 H1607 0.959 . S
C1619 C1617 1.561 . S
C1620 C1617 1.526 . S
C1620 C1621 1.396 . S
C1620 C1625 1.390 . S
C1621 C1615 1.465 . S
C1621 C1620 1.396 . S
C1621 C1622 1.399 . S
C1622 H1608 0.929 . S
C1622 C1621 1.399 . S
C1622 C1623 1.385 . S
C1623 H1609 0.931 . S
C1623 C1622 1.385 . S
C1623 C1624 1.389 . S
C1624 C1623 1.389 . S
C1624 C1625 1.387 . S
C1625 H1610 0.930 . S
C1625 C1620 1.390 . S
C1625 C1624 1.387 . S
H1626 C1638 0.930 . S
H1627 C1640 0.930 . S
H1628 C1641 0.930 . S
H1629 C1645 0.959 . S
H1630 C1645 0.959 . S
H1631 C1645 0.961 . S
H1632 C1646 0.960 . S
H1633 C1646 0.961 . S
H1634 C1646 0.959 . S
H1635 C1649 0.929 . S
H1636 C1650 0.931 . S
H1637 C1652 0.930 . S
C1638 H1626 0.930 . S
C1638 C1639 1.399 . S
C1638 C1643 1.399 . S
C1639 C1638 1.399 . S
C1639 C1640 1.376 . S
C1640 H1627 0.930 . S
C1640 C1639 1.376 . S
C1640 C1641 1.388 . S
C1641 H1628 0.930 . S
C1641 C1640 1.388 . S
C1641 C1642 1.390 . S
C1642 C1641 1.390 . S
C1642 C1643 1.394 . S
C1642 C1648 1.465 . S
C1643 C1638 1.399 . S
C1643 C1642 1.394 . S
C1643 C1644 1.516 . S
C1644 C1643 1.516 . S
C1644 C1645 1.502 . S
C1644 C1646 1.561 . S
C1644 C1647 1.526 . S
C1645 H1629 0.959 . S
C1645 H1630 0.959 . S
C1645 H1631 0.961 . S
C1645 C1644 1.502 . S
C1646 H1632 0.960 . S
C1646 H1633 0.961 . S
C1646 H1634 0.959 . S
C1646 C1644 1.561 . S
C1647 C1644 1.526 . S
C1647 C1648 1.396 . S
C1647 C1652 1.390 . S
C1648 C1642 1.465 . S
C1648 C1647 1.396 . S
C1648 C1649 1.399 . S
C1649 H1635 0.929 . S
C1649 C1648 1.399 . S
C1649 C1650 1.385 . S
C1650 H1636 0.931 . S
C1650 C1649 1.385 . S
C1650 C1651 1.389 . S
C1651 C1650 1.389 . S
C1651 C1652 1.387 . S
C1652 H1637 0.930 . S
C1652 C1647 1.390 . S
C1652 C1651 1.387 . S
H1653 C1665 0.930 . S
H1654 C1667 0.930 . S
H1655 C1668 0.930 . S
H1656 C1672 0.959 . S
H1657 C1672 0.959 . S
H1658 C1672 0.961 . S
H1659 C1673 0.960 . S
H1660 C1673 0.961 . S
H1661 C1673 0.959 . S
H1662 C1676 0.929 . S
H1663 C1677 0.931 . S
H1664 C1679 0.930 . S
C1665 H1653 0.930 . S
C1665 C1666 1.399 . S
C1665 C1670 1.399 . S
C1666 C1665 1.399 . S
C1666 C1667 1.376 . S
C1667 H1654 0.930 . S
C1667 C1666 1.376 . S
C1667 C1668 1.388 . S
C1668 H1655 0.930 . S
C1668 C1667 1.388 . S
C1668 C1669 1.390 . S
C1669 C1668 1.390 . S
C1669 C1670 1.394 . S
C1669 C1675 1.465 . S
C1670 C1665 1.399 . S
C1670 C1669 1.394 . S
C1670 C1671 1.516 . S
C1671 C1670 1.516 . S
C1671 C1672 1.502 . S
C1671 C1673 1.561 . S
C1671 C1674 1.526 . S
C1672 H1656 0.959 . S
C1672 H1657 0.959 . S
C1672 H1658 0.961 . S
C1672 C1671 1.502 . S
C1673 H1659 0.960 . S
C1673 H1660 0.961 . S
C1673 H1661 0.959 . S
C1673 C1671 1.561 . S
C1674 C1671 1.526 . S
C1674 C1675 1.396 . S
C1674 C1679 1.390 . S
C1675 C1669 1.465 . S
C1675 C1674 1.396 . S
C1675 C1676 1.399 . S
C1676 H1662 0.929 . S
C1676 C1675 1.399 . S
C1676 C1677 1.385 . S
C1677 H1663 0.931 . S
C1677 C1676 1.385 . S
C1677 C1678 1.389 . S
C1678 C1677 1.389 . S
C1678 C1679 1.387 . S
C1679 H1664 0.930 . S
C1679 C1674 1.390 . S
C1679 C1678 1.387 . S
H1680 C1692 0.930 . S
H1681 C1694 0.930 . S
H1682 C1695 0.930 . S
H1683 C1699 0.959 . S
H1684 C1699 0.959 . S
H1685 C1699 0.961 . S
H1686 C1700 0.960 . S
H1687 C1700 0.961 . S
H1688 C1700 0.959 . S
H1689 C1703 0.929 . S
H1690 C1704 0.931 . S
H1691 C1706 0.930 . S
C1692 H1680 0.930 . S
C1692 C1693 1.399 . S
C1692 C1697 1.399 . S
C1693 C1692 1.399 . S
C1693 C1694 1.376 . S
C1694 H1681 0.930 . S
C1694 C1693 1.376 . S
C1694 C1695 1.388 . S
C1695 H1682 0.930 . S
C1695 C1694 1.388 . S
C1695 C1696 1.390 . S
C1696 C1695 1.390 . S
C1696 C1697 1.394 . S
C1696 C1702 1.465 . S
C1697 C1692 1.399 . S
C1697 C1696 1.394 . S
C1697 C1698 1.516 . S
C1698 C1697 1.516 . S
C1698 C1699 1.502 . S
C1698 C1700 1.561 . S
C1698 C1701 1.526 . S
C1699 H1683 0.959 . S
C1699 H1684 0.959 . S
C1699 H1685 0.961 . S
C1699 C1698 1.502 . S
C1700 H1686 0.960 . S
C1700 H1687 0.961 . S
C1700 H1688 0.959 . S
C1700 C1698 1.561 . S
C1701 C1698 1.526 . S
C1701 C1702 1.396 . S
C1701 C1706 1.390 . S
C1702 C1696 1.465 . S
C1702 C1701 1.396 . S
C1702 C1703 1.399 . S
C1703 H1689 0.929 . S
C1703 C1702 1.399 . S
C1703 C1704 1.385 . S
C1704 H1690 0.931 . S
C1704 C1703 1.385 . S
C1704 C1705 1.389 . S
C1705 C1704 1.389 . S
C1705 C1706 1.387 . S
C1706 H1691 0.930 . S
C1706 C1701 1.390 . S
C1706 C1705 1.387 . S
H1707 C1719 0.930 . S
H1708 C1721 0.930 . S
H1709 C1722 0.930 . S
H1710 C1726 0.959 . S
H1711 C1726 0.959 . S
H1712 C1726 0.961 . S
H1713 C1727 0.960 . S
H1714 C1727 0.961 . S
H1715 C1727 0.959 . S
H1716 C1730 0.929 . S
H1717 C1731 0.931 . S
H1718 C1733 0.930 . S
C1719 H1707 0.930 . S
C1719 C1720 1.399 . S
C1719 C1724 1.399 . S
C1720 C1719 1.399 . S
C1720 C1721 1.376 . S
C1721 H1708 0.930 . S
C1721 C1720 1.376 . S
C1721 C1722 1.388 . S
C1722 H1709 0.930 . S
C1722 C1721 1.388 . S
C1722 C1723 1.390 . S
C1723 C1722 1.390 . S
C1723 C1724 1.394 . S
C1723 C1729 1.465 . S
C1724 C1719 1.399 . S
C1724 C1723 1.394 . S
C1724 C1725 1.516 . S
C1725 C1724 1.516 . S
C1725 C1726 1.502 . S
C1725 C1727 1.561 . S
C1725 C1728 1.526 . S
C1726 H1710 0.959 . S
C1726 H1711 0.959 . S
C1726 H1712 0.961 . S
C1726 C1725 1.502 . S
C1727 H1713 0.960 . S
C1727 H1714 0.961 . S
C1727 H1715 0.959 . S
C1727 C1725 1.561 . S
C1728 C1725 1.526 . S
C1728 C1729 1.396 . S
C1728 C1733 1.390 . S
C1729 C1723 1.465 . S
C1729 C1728 1.396 . S
C1729 C1730 1.399 . S
C1730 H1716 0.929 . S
C1730 C1729 1.399 . S
C1730 C1731 1.385 . S
C1731 H1717 0.931 . S
C1731 C1730 1.385 . S
C1731 C1732 1.389 . S
C1732 C1731 1.389 . S
C1732 C1733 1.387 . S
C1733 H1718 0.930 . S
C1733 C1728 1.390 . S
C1733 C1732 1.387 . S
H1734 C1746 0.930 . S
H1735 C1748 0.930 . S
H1736 C1749 0.930 . S
H1737 C1753 0.959 . S
H1738 C1753 0.959 . S
H1739 C1753 0.961 . S
H1740 C1754 0.960 . S
H1741 C1754 0.961 . S
H1742 C1754 0.959 . S
H1743 C1757 0.929 . S
H1744 C1758 0.931 . S
H1745 C1760 0.930 . S
C1746 H1734 0.930 . S
C1746 C1747 1.399 . S
C1746 C1751 1.399 . S
C1747 C1746 1.399 . S
C1747 C1748 1.376 . S
C1748 H1735 0.930 . S
C1748 C1747 1.376 . S
C1748 C1749 1.388 . S
C1749 H1736 0.930 . S
C1749 C1748 1.388 . S
C1749 C1750 1.390 . S
C1750 C1749 1.390 . S
C1750 C1751 1.394 . S
C1750 C1756 1.465 . S
C1751 C1746 1.399 . S
C1751 C1750 1.394 . S
C1751 C1752 1.516 . S
C1752 C1751 1.516 . S
C1752 C1753 1.502 . S
C1752 C1754 1.561 . S
C1752 C1755 1.526 . S
C1753 H1737 0.959 . S
C1753 H1738 0.959 . S
C1753 H1739 0.961 . S
C1753 C1752 1.502 . S
C1754 H1740 0.960 . S
C1754 H1741 0.961 . S
C1754 H1742 0.959 . S
C1754 C1752 1.561 . S
C1755 C1752 1.526 . S
C1755 C1756 1.396 . S
C1755 C1760 1.390 . S
C1756 C1750 1.465 . S
C1756 C1755 1.396 . S
C1756 C1757 1.399 . S
C1757 H1743 0.929 . S
C1757 C1756 1.399 . S
C1757 C1758 1.385 . S
C1758 H1744 0.931 . S
C1758 C1757 1.385 . S
C1758 C1759 1.389 . S
C1759 C1758 1.389 . S
C1759 C1760 1.387 . S
C1760 H1745 0.930 . S
C1760 C1755 1.390 . S
C1760 C1759 1.387 . S
H1761 C1773 0.930 . S
H1762 C1775 0.930 . S
H1763 C1776 0.930 . S
H1764 C1780 0.959 . S
H1765 C1780 0.959 . S
H1766 C1780 0.961 . S
H1767 C1781 0.960 . S
H1768 C1781 0.961 . S
H1769 C1781 0.959 . S
H1770 C1784 0.929 . S
H1771 C1785 0.931 . S
H1772 C1787 0.930 . S
C1773 H1761 0.930 . S
C1773 C1774 1.399 . S
C1773 C1778 1.399 . S
C1774 C1773 1.399 . S
C1774 C1775 1.376 . S
C1775 H1762 0.930 . S
C1775 C1774 1.376 . S
C1775 C1776 1.388 . S
C1776 H1763 0.930 . S
C1776 C1775 1.388 . S
C1776 C1777 1.390 . S
C1777 C1776 1.390 . S
C1777 C1778 1.394 . S
C1777 C1783 1.465 . S
C1778 C1773 1.399 . S
C1778 C1777 1.394 . S
C1778 C1779 1.516 . S
C1779 C1778 1.516 . S
C1779 C1780 1.502 . S
C1779 C1781 1.561 . S
C1779 C1782 1.526 . S
C1780 H1764 0.959 . S
C1780 H1765 0.959 . S
C1780 H1766 0.961 . S
C1780 C1779 1.502 . S
C1781 H1767 0.960 . S
C1781 H1768 0.961 . S
C1781 H1769 0.959 . S
C1781 C1779 1.561 . S
C1782 C1779 1.526 . S
C1782 C1783 1.396 . S
C1782 C1787 1.390 . S
C1783 C1777 1.465 . S
C1783 C1782 1.396 . S
C1783 C1784 1.399 . S
C1784 H1770 0.929 . S
C1784 C1783 1.399 . S
C1784 C1785 1.385 . S
C1785 H1771 0.931 . S
C1785 C1784 1.385 . S
C1785 C1786 1.389 . S
C1786 C1785 1.389 . S
C1786 C1787 1.387 . S
C1787 H1772 0.930 . S
C1787 C1782 1.390 . S
C1787 C1786 1.387 . S
H1788 C1800 0.930 . S
H1789 C1802 0.930 . S
H1790 C1803 0.930 . S
H1791 C1807 0.959 . S
H1792 C1807 0.959 . S
H1793 C1807 0.961 . S
H1794 C1808 0.960 . S
H1795 C1808 0.961 . S
H1796 C1808 0.959 . S
H1797 C1811 0.929 . S
H1798 C1812 0.931 . S
H1799 C1814 0.930 . S
C1800 H1788 0.930 . S
C1800 C1801 1.399 . S
C1800 C1805 1.399 . S
C1801 C1800 1.399 . S
C1801 C1802 1.376 . S
C1802 H1789 0.930 . S
C1802 C1801 1.376 . S
C1802 C1803 1.388 . S
C1803 H1790 0.930 . S
C1803 C1802 1.388 . S
C1803 C1804 1.390 . S
C1804 C1803 1.390 . S
C1804 C1805 1.394 . S
C1804 C1810 1.465 . S
C1805 C1800 1.399 . S
C1805 C1804 1.394 . S
C1805 C1806 1.516 . S
C1806 C1805 1.516 . S
C1806 C1807 1.502 . S
C1806 C1808 1.561 . S
C1806 C1809 1.526 . S
C1807 H1791 0.959 . S
C1807 H1792 0.959 . S
C1807 H1793 0.961 . S
C1807 C1806 1.502 . S
C1808 H1794 0.960 . S
C1808 H1795 0.961 . S
C1808 H1796 0.959 . S
C1808 C1806 1.561 . S
C1809 C1806 1.526 . S
C1809 C1810 1.396 . S
C1809 C1814 1.390 . S
C1810 C1804 1.465 . S
C1810 C1809 1.396 . S
C1810 C1811 1.399 . S
C1811 H1797 0.929 . S
C1811 C1810 1.399 . S
C1811 C1812 1.385 . S
C1812 H1798 0.931 . S
C1812 C1811 1.385 . S
C1812 C1813 1.389 . S
C1813 C1812 1.389 . S
C1813 C1814 1.387 . S
C1814 H1799 0.930 . S
C1814 C1809 1.390 . S
C1814 C1813 1.387 . S
H1815 C1827 0.930 . S
H1816 C1829 0.930 . S
H1817 C1830 0.930 . S
H1818 C1834 0.959 . S
H1819 C1834 0.959 . S
H1820 C1834 0.961 . S
H1821 C1835 0.960 . S
H1822 C1835 0.961 . S
H1823 C1835 0.959 . S
H1824 C1838 0.929 . S
H1825 C1839 0.931 . S
H1826 C1841 0.930 . S
C1827 H1815 0.930 . S
C1827 C1828 1.399 . S
C1827 C1832 1.399 . S
C1828 C1827 1.399 . S
C1828 C1829 1.376 . S
C1829 H1816 0.930 . S
C1829 C1828 1.376 . S
C1829 C1830 1.388 . S
C1830 H1817 0.930 . S
C1830 C1829 1.388 . S
C1830 C1831 1.390 . S
C1831 C1830 1.390 . S
C1831 C1832 1.394 . S
C1831 C1837 1.465 . S
C1832 C1827 1.399 . S
C1832 C1831 1.394 . S
C1832 C1833 1.516 . S
C1833 C1832 1.516 . S
C1833 C1834 1.502 . S
C1833 C1835 1.561 . S
C1833 C1836 1.526 . S
C1834 H1818 0.959 . S
C1834 H1819 0.959 . S
C1834 H1820 0.961 . S
C1834 C1833 1.502 . S
C1835 H1821 0.960 . S
C1835 H1822 0.961 . S
C1835 H1823 0.959 . S
C1835 C1833 1.561 . S
C1836 C1833 1.526 . S
C1836 C1837 1.396 . S
C1836 C1841 1.390 . S
C1837 C1831 1.465 . S
C1837 C1836 1.396 . S
C1837 C1838 1.399 . S
C1838 H1824 0.929 . S
C1838 C1837 1.399 . S
C1838 C1839 1.385 . S
C1839 H1825 0.931 . S
C1839 C1838 1.385 . S
C1839 C1840 1.389 . S
C1840 C1839 1.389 . S
C1840 C1841 1.387 . S
C1841 H1826 0.930 . S
C1841 C1836 1.390 . S
C1841 C1840 1.387 . S
H1842 C1854 0.930 . S
H1843 C1856 0.930 . S
H1844 C1857 0.930 . S
H1845 C1861 0.959 . S
H1846 C1861 0.959 . S
H1847 C1861 0.961 . S
H1848 C1862 0.960 . S
H1849 C1862 0.961 . S
H1850 C1862 0.959 . S
H1851 C1865 0.929 . S
H1852 C1866 0.931 . S
H1853 C1868 0.930 . S
C1854 H1842 0.930 . S
C1854 C1855 1.399 . S
C1854 C1859 1.399 . S
C1855 C1854 1.399 . S
C1855 C1856 1.376 1_554 S
C1856 H1843 0.930 . S
C1856 C1855 1.376 1_556 S
C1856 C1857 1.388 . S
C1857 H1844 0.930 . S
C1857 C1856 1.388 . S
C1857 C1858 1.390 1_556 S
C1858 C1857 1.390 1_554 S
C1858 C1859 1.394 . S
C1858 C1864 1.465 . S
C1859 C1854 1.399 . S
C1859 C1858 1.394 . S
C1859 C1860 1.516 . S
C1860 C1859 1.516 . S
C1860 C1861 1.502 . S
C1860 C1862 1.561 . S
C1860 C1863 1.526 . S
C1861 H1845 0.959 . S
C1861 H1846 0.959 . S
C1861 H1847 0.961 . S
C1861 C1860 1.502 . S
C1862 H1848 0.960 . S
C1862 H1849 0.961 . S
C1862 H1850 0.959 . S
C1862 C1860 1.561 . S
C1863 C1860 1.526 . S
C1863 C1864 1.396 . S
C1863 C1868 1.390 . S
C1864 C1858 1.465 . S
C1864 C1863 1.396 . S
C1864 C1865 1.399 1_554 S
C1865 H1851 0.929 . S
C1865 C1864 1.399 1_556 S
C1865 C1866 1.385 . S
C1866 H1852 0.931 . S
C1866 C1865 1.385 . S
C1866 C1867 1.389 1_556 S
C1867 C1866 1.389 1_554 S
C1867 C1868 1.387 . S
C1868 H1853 0.930 . S
C1868 C1863 1.390 . S
C1868 C1867 1.387 . S
H1869 C1881 0.930 . S
H1870 C1883 0.930 . S
H1871 C1884 0.930 . S
H1872 C1888 0.959 . S
H1873 C1888 0.959 . S
H1874 C1888 0.961 . S
H1875 C1889 0.960 . S
H1876 C1889 0.961 . S
H1877 C1889 0.967 . S
H1878 C1892 0.929 . S
H1879 C1893 0.931 . S
H1880 C1895 0.930 . S
C1881 H1869 0.930 . S
C1881 C1882 1.399 . S
C1881 C1886 1.399 . S
C1882 C1881 1.399 . S
C1882 C1883 1.376 . S
C1883 H1870 0.930 . S
C1883 C1882 1.376 . S
C1883 C1884 1.388 . S
C1884 H1871 0.930 . S
C1884 C1883 1.388 . S
C1884 C1885 1.390 . S
C1885 C1884 1.390 . S
C1885 C1886 1.394 . S
C1885 C1891 1.465 . S
C1886 C1881 1.399 . S
C1886 C1885 1.394 . S
C1886 C1887 1.516 . S
C1887 C1886 1.516 . S
C1887 C1888 1.502 . S
C1887 C1889 1.561 . S
C1887 C1890 1.526 . S
C1888 H1872 0.959 . S
C1888 H1873 0.959 . S
C1888 H1874 0.961 . S
C1888 C1887 1.502 . S
C1889 H1875 0.960 . S
C1889 H1876 0.961 . S
C1889 H1877 0.967 . S
C1889 C1887 1.561 . S
C1890 C1887 1.526 . S
C1890 C1891 1.396 . S
C1890 C1895 1.390 . S
C1891 C1885 1.465 . S
C1891 C1890 1.396 . S
C1891 C1892 1.399 1_455 S
C1892 H1878 0.929 . S
C1892 C1891 1.399 1_655 S
C1892 C1893 1.385 . S
C1893 H1879 0.931 . S
C1893 C1892 1.385 . S
C1893 C1894 1.389 . S
C1894 C1893 1.389 . S
C1894 C1895 1.387 1_655 S
C1895 H1880 0.930 . S
C1895 C1890 1.390 . S
C1895 C1894 1.387 1_455 S
H1896 C1908 0.930 . S
H1897 C1910 0.930 . S
H1898 C1911 0.930 . S
H1899 C1915 0.959 . S
H1900 C1915 0.959 . S
H1901 C1915 0.961 . S
H1902 C1916 0.960 . S
H1903 C1916 0.961 . S
H1904 C1916 0.959 . S
H1905 C1919 0.929 . S
H1906 C1920 0.931 . S
H1907 C1922 0.930 . S
C1908 H1896 0.930 . S
C1908 C1909 1.399 . S
C1908 C1913 1.399 . S
C1909 C1908 1.399 . S
C1909 C1910 1.376 . S
C1910 H1897 0.930 . S
C1910 C1909 1.376 . S
C1910 C1911 1.388 . S
C1911 H1898 0.930 . S
C1911 C1910 1.388 . S
C1911 C1912 1.390 . S
C1912 C1911 1.390 . S
C1912 C1913 1.394 . S
C1912 C1918 1.465 . S
C1913 C1908 1.399 . S
C1913 C1912 1.394 . S
C1913 C1914 1.516 . S
C1914 C1913 1.516 . S
C1914 C1915 1.502 . S
C1914 C1916 1.561 . S
C1914 C1917 1.526 . S
C1915 H1899 0.959 . S
C1915 H1900 0.959 . S
C1915 H1901 0.961 . S
C1915 C1914 1.502 . S
C1916 H1902 0.960 . S
C1916 H1903 0.961 . S
C1916 H1904 0.959 . S
C1916 C1914 1.561 . S
C1917 C1914 1.526 . S
C1917 C1918 1.396 . S
C1917 C1922 1.390 . S
C1918 C1912 1.465 . S
C1918 C1917 1.396 . S
C1918 C1919 1.399 . S
C1919 H1905 0.929 . S
C1919 C1918 1.399 . S
C1919 C1920 1.385 . S
C1920 H1906 0.931 . S
C1920 C1919 1.385 . S
C1920 C1921 1.389 . S
C1921 C1920 1.389 . S
C1921 C1922 1.387 . S
C1922 H1907 0.930 . S
C1922 C1917 1.390 . S
C1922 C1921 1.387 . S
H1923 C1935 0.930 . S
H1924 C1937 0.930 . S
H1925 C1938 0.930 . S
H1926 C1942 0.959 . S
H1927 C1942 0.959 . S
H1928 C1942 0.961 . S
H1929 C1943 0.960 . S
H1930 C1943 0.961 . S
H1931 C1943 0.959 . S
H1932 C1946 0.929 . S
H1933 C1947 0.931 . S
H1934 C1949 0.930 . S
C1935 H1923 0.930 . S
C1935 C1936 1.399 . S
C1935 C1940 1.399 . S
C1936 C1935 1.399 . S
C1936 C1937 1.376 . S
C1937 H1924 0.930 . S
C1937 C1936 1.376 . S
C1937 C1938 1.388 . S
C1938 H1925 0.930 . S
C1938 C1937 1.388 . S
C1938 C1939 1.390 . S
C1939 C1938 1.390 . S
C1939 C1940 1.394 . S
C1939 C1945 1.465 . S
C1940 C1935 1.399 . S
C1940 C1939 1.394 . S
C1940 C1941 1.516 . S
C1941 C1940 1.516 . S
C1941 C1942 1.502 . S
C1941 C1943 1.561 . S
C1941 C1944 1.526 . S
C1942 H1926 0.959 . S
C1942 H1927 0.959 . S
C1942 H1928 0.961 . S
C1942 C1941 1.502 . S
C1943 H1929 0.960 . S
C1943 H1930 0.961 . S
C1943 H1931 0.959 . S
C1943 C1941 1.561 . S
C1944 C1941 1.526 . S
C1944 C1945 1.396 . S
C1944 C1949 1.390 . S
C1945 C1939 1.465 . S
C1945 C1944 1.396 . S
C1945 C1946 1.399 . S
C1946 H1932 0.929 . S
C1946 C1945 1.399 . S
C1946 C1947 1.385 . S
C1947 H1933 0.931 . S
C1947 C1946 1.385 . S
C1947 C1948 1.389 . S
C1948 C1947 1.389 . S
C1948 C1949 1.387 . S
C1949 H1934 0.930 . S
C1949 C1944 1.390 . S
C1949 C1948 1.387 . S
H1950 C1962 0.930 . S
H1951 C1964 0.930 1_554 S
H1952 C1965 0.930 1_554 S
H1953 C1969 0.959 . S
H1954 C1969 0.959 . S
H1955 C1969 0.961 . S
H1956 C1970 0.960 . S
H1957 C1970 0.961 . S
H1958 C1970 0.959 . S
H1959 C1973 0.929 . S
H1960 C1974 0.931 . S
H1961 C1976 0.930 . S
C1962 H1950 0.930 . S
C1962 C1963 1.399 . S
C1962 C1967 1.399 . S
C1963 C1962 1.399 . S
C1963 C1964 1.376 . S
C1964 H1951 0.930 1_556 S
C1964 C1963 1.376 . S
C1964 C1965 1.388 . S
C1965 H1952 0.930 1_556 S
C1965 C1964 1.388 . S
C1965 C1966 1.390 . S
C1966 C1965 1.390 . S
C1966 C1967 1.394 . S
C1966 C1972 1.465 . S
C1967 C1962 1.399 . S
C1967 C1966 1.394 . S
C1967 C1968 1.516 . S
C1968 C1967 1.516 . S
C1968 C1969 1.502 . S
C1968 C1970 1.561 . S
C1968 C1971 1.526 . S
C1969 H1953 0.959 . S
C1969 H1954 0.959 . S
C1969 H1955 0.961 . S
C1969 C1968 1.502 . S
C1970 H1956 0.960 . S
C1970 H1957 0.961 . S
C1970 H1958 0.959 . S
C1970 C1968 1.561 . S
C1971 C1968 1.526 . S
C1971 C1972 1.396 . S
C1971 C1976 1.390 . S
C1972 C1966 1.465 . S
C1972 C1971 1.396 . S
C1972 C1973 1.399 . S
C1973 H1959 0.929 . S
C1973 C1972 1.399 . S
C1973 C1974 1.385 . S
C1974 H1960 0.931 . S
C1974 C1973 1.385 . S
C1974 C1975 1.389 . S
C1975 C1974 1.389 . S
C1975 C1976 1.387 . S
C1976 H1961 0.930 . S
C1976 C1971 1.390 . S
C1976 C1975 1.387 . S
H1977 C1989 0.930 . S
H1978 C1991 0.930 . S
H1979 C1992 0.930 . S
H1980 C1996 0.959 . S
H1981 C1996 0.959 . S
H1982 C1996 0.961 . S
H1983 C1997 0.932 1_455 S
H1984 C1997 0.956 1_455 S
H1985 C1997 0.986 . S
H1986 C2000 0.929 . S
H1987 C2001 0.931 . S
H1988 C2003 0.930 . S
C1989 H1977 0.930 . S
C1989 C1990 1.399 1_455 S
C1989 C1994 1.399 1_455 S
C1990 C1989 1.399 1_655 S
C1990 C1991 1.376 . S
C1991 H1978 0.930 . S
C1991 C1990 1.376 . S
C1991 C1992 1.388 . S
C1992 H1979 0.930 . S
C1992 C1991 1.388 . S
C1992 C1993 1.390 . S
C1993 C1992 1.390 . S
C1993 C1994 1.394 . S
C1993 C1999 1.465 . S
C1994 C1989 1.399 1_655 S
C1994 C1993 1.394 . S
C1994 C1995 1.516 . S
C1995 C1994 1.516 . S
C1995 C1996 1.502 1_655 S
C1995 C1997 1.568 . S
C1995 C1998 1.526 . S
C1996 H1980 0.959 . S
C1996 H1981 0.959 . S
C1996 H1982 0.961 . S
C1996 C1995 1.502 1_455 S
C1997 H1983 0.932 1_655 S
C1997 H1984 0.956 1_655 S
C1997 H1985 0.986 . S
C1997 C1995 1.568 . S
C1998 C1995 1.526 . S
C1998 C1999 1.396 . S
C1998 C2003 1.390 . S
C1999 C1993 1.465 . S
C1999 C1998 1.396 . S
C1999 C2000 1.399 . S
C2000 H1986 0.929 . S
C2000 C1999 1.399 . S
C2000 C2001 1.385 . S
C2001 H1987 0.931 . S
C2001 C2000 1.385 . S
C2001 C2002 1.389 . S
C2002 C2001 1.389 . S
C2002 C2003 1.387 . S
C2003 H1988 0.930 . S
C2003 C1998 1.390 . S
C2003 C2002 1.387 . S
H2004 C2016 0.930 . S
H2005 C2018 0.930 . S
H2006 C2019 0.930 . S
H2007 C2023 0.959 . S
H2008 C2023 0.959 . S
H2009 C2023 0.961 . S
H2010 C2024 0.960 . S
H2011 C2024 0.961 . S
H2012 C2024 0.959 . S
H2013 C2027 0.929 . S
H2014 C2028 0.931 . S
H2015 C2030 0.930 . S
C2016 H2004 0.930 . S
C2016 C2017 1.399 . S
C2016 C2021 1.399 . S
C2017 C2016 1.399 . S
C2017 C2018 1.376 . S
C2018 H2005 0.930 . S
C2018 C2017 1.376 . S
C2018 C2019 1.388 . S
C2019 H2006 0.930 . S
C2019 C2018 1.388 . S
C2019 C2020 1.390 . S
C2020 C2019 1.390 . S
C2020 C2021 1.394 . S
C2020 C2026 1.465 . S
C2021 C2016 1.399 . S
C2021 C2020 1.394 . S
C2021 C2022 1.516 . S
C2022 C2021 1.516 . S
C2022 C2023 1.502 . S
C2022 C2024 1.561 . S
C2022 C2025 1.526 . S
C2023 H2007 0.959 . S
C2023 H2008 0.959 . S
C2023 H2009 0.961 . S
C2023 C2022 1.502 . S
C2024 H2010 0.960 . S
C2024 H2011 0.961 . S
C2024 H2012 0.959 . S
C2024 C2022 1.561 . S
C2025 C2022 1.526 . S
C2025 C2026 1.396 . S
C2025 C2030 1.390 . S
C2026 C2020 1.465 . S
C2026 C2025 1.396 . S
C2026 C2027 1.399 . S
C2027 H2013 0.929 . S
C2027 C2026 1.399 . S
C2027 C2028 1.385 . S
C2028 H2014 0.931 . S
C2028 C2027 1.385 . S
C2028 C2029 1.389 . S
C2029 C2028 1.389 . S
C2029 C2030 1.387 . S
C2030 H2015 0.930 . S
C2030 C2025 1.390 . S
C2030 C2029 1.387 . S
H2031 C2043 0.930 . S
H2032 C2045 0.930 . S
H2033 C2046 0.930 . S
H2034 C2050 0.959 . S
H2035 C2050 0.959 . S
H2036 C2050 0.970 . S
H2037 C2051 0.960 . S
H2038 C2051 0.961 . S
H2039 C2051 0.959 . S
H2040 C2054 0.929 . S
H2041 C2055 0.931 . S
H2042 C2057 0.930 . S
C2043 H2031 0.930 . S
C2043 C2044 1.399 . S
C2043 C2048 1.399 1_556 S
C2044 C2043 1.399 . S
C2044 C2045 1.376 1_556 S
C2045 H2032 0.930 . S
C2045 C2044 1.376 1_554 S
C2045 C2046 1.388 . S
C2046 H2033 0.930 . S
C2046 C2045 1.388 . S
C2046 C2047 1.390 . S
C2047 C2046 1.390 . S
C2047 C2048 1.394 . S
C2047 C2053 1.465 . S
C2048 C2043 1.399 1_554 S
C2048 C2047 1.394 . S
C2048 C2049 1.516 . S
C2049 C2048 1.516 . S
C2049 C2050 1.502 . S
C2049 C2051 1.561 1_554 S
C2049 C2052 1.526 . S
C2050 H2034 0.959 . S
C2050 H2035 0.959 . S
C2050 H2036 0.970 . S
C2050 C2049 1.502 . S
C2051 H2037 0.960 . S
C2051 H2038 0.961 . S
C2051 H2039 0.959 . S
C2051 C2049 1.561 1_556 S
C2052 C2049 1.526 . S
C2052 C2053 1.396 . S
C2052 C2057 1.390 . S
C2053 C2047 1.465 . S
C2053 C2052 1.396 . S
C2053 C2054 1.399 . S
C2054 H2040 0.929 . S
C2054 C2053 1.399 . S
C2054 C2055 1.385 . S
C2055 H2041 0.931 . S
C2055 C2054 1.385 . S
C2055 C2056 1.389 . S
C2056 C2055 1.389 . S
C2056 C2057 1.387 . S
C2057 H2042 0.930 . S
C2057 C2052 1.390 . S
C2057 C2056 1.387 . S
H2058 C2070 0.930 . S
H2059 C2072 0.930 . S
H2060 C2073 0.930 . S
H2061 C2077 0.959 . S
H2062 C2077 0.959 . S
H2063 C2077 0.961 . S
H2064 C2078 0.960 . S
H2065 C2078 0.961 . S
H2066 C2078 0.959 . S
H2067 C2081 0.929 . S
H2068 C2082 0.931 1_455 S
H2069 C2084 0.930 . S
C2070 H2058 0.930 . S
C2070 C2071 1.399 . S
C2070 C2075 1.399 . S
C2071 C2070 1.399 . S
C2071 C2072 1.376 1_655 S
C2072 H2059 0.930 . S
C2072 C2071 1.376 1_455 S
C2072 C2073 1.388 . S
C2073 H2060 0.930 . S
C2073 C2072 1.388 . S
C2073 C2074 1.390 1_455 S
C2074 C2073 1.390 1_655 S
C2074 C2075 1.394 . S
C2074 C2080 1.465 . S
C2075 C2070 1.399 . S
C2075 C2074 1.394 . S
C2075 C2076 1.516 . S
C2076 C2075 1.516 . S
C2076 C2077 1.502 . S
C2076 C2078 1.561 . S
C2076 C2079 1.526 . S
C2077 H2061 0.959 . S
C2077 H2062 0.959 . S
C2077 H2063 0.961 . S
C2077 C2076 1.502 . S
C2078 H2064 0.960 . S
C2078 H2065 0.961 . S
C2078 H2066 0.959 . S
C2078 C2076 1.561 . S
C2079 C2076 1.526 . S
C2079 C2080 1.396 . S
C2079 C2084 1.390 . S
C2080 C2074 1.465 . S
C2080 C2079 1.396 . S
C2080 C2081 1.399 1_655 S
C2081 H2067 0.929 . S
C2081 C2080 1.399 1_455 S
C2081 C2082 1.385 1_455 S
C2082 H2068 0.931 1_655 S
C2082 C2081 1.385 1_655 S
C2082 C2083 1.389 . S
C2083 C2082 1.389 . S
C2083 C2084 1.387 . S
C2084 H2069 0.930 . S
C2084 C2079 1.390 . S
C2084 C2083 1.387 . S
H2085 C2097 0.930 . S
H2086 C2099 0.930 . S
H2087 C2100 0.930 . S
H2088 C2104 0.959 . S
H2089 C2104 0.959 . S
H2090 C2104 0.961 . S
H2091 C2105 0.960 . S
H2092 C2105 0.961 . S
H2093 C2105 0.959 . S
H2094 C2108 0.929 . S
H2095 C2109 0.931 . S
H2096 C2111 0.930 . S
C2097 H2085 0.930 . S
C2097 C2098 1.399 . S
C2097 C2102 1.399 . S
C2098 C2097 1.399 . S
C2098 C2099 1.376 . S
C2099 H2086 0.930 . S
C2099 C2098 1.376 . S
C2099 C2100 1.388 . S
C2100 H2087 0.930 . S
C2100 C2099 1.388 . S
C2100 C2101 1.390 . S
C2101 C2100 1.390 . S
C2101 C2102 1.394 . S
C2101 C2107 1.465 . S
C2102 C2097 1.399 . S
C2102 C2101 1.394 . S
C2102 C2103 1.516 . S
C2103 C2102 1.516 . S
C2103 C2104 1.502 . S
C2103 C2105 1.561 . S
C2103 C2106 1.526 . S
C2104 H2088 0.959 . S
C2104 H2089 0.959 . S
C2104 H2090 0.961 . S
C2104 C2103 1.502 . S
C2105 H2091 0.960 . S
C2105 H2092 0.961 . S
C2105 H2093 0.959 . S
C2105 C2103 1.561 . S
C2106 C2103 1.526 . S
C2106 C2107 1.396 . S
C2106 C2111 1.390 . S
C2107 C2101 1.465 . S
C2107 C2106 1.396 . S
C2107 C2108 1.399 . S
C2108 H2094 0.929 . S
C2108 C2107 1.399 . S
C2108 C2109 1.385 . S
C2109 H2095 0.931 . S
C2109 C2108 1.385 . S
C2109 C2110 1.389 . S
C2110 C2109 1.389 . S
C2110 C2111 1.387 . S
C2111 H2096 0.930 . S
C2111 C2106 1.390 . S
C2111 C2110 1.387 . S
H2112 C2124 0.930 . S
H2113 C2126 0.930 . S
H2114 C2127 0.930 . S
H2115 C2131 0.959 . S
H2116 C2131 0.959 . S
H2117 C2131 0.961 . S
H2118 C2132 0.960 . S
H2119 C2132 0.961 . S
H2120 C2132 0.959 . S
H2121 C2135 0.929 . S
H2122 C2136 0.931 . S
H2123 C2138 0.930 . S
C2124 H2112 0.930 . S
C2124 C2125 1.399 . S
C2124 C2129 1.399 . S
C2125 C2124 1.399 . S
C2125 C2126 1.376 1_455 S
C2126 H2113 0.930 . S
C2126 C2125 1.376 1_655 S
C2126 C2127 1.388 . S
C2127 H2114 0.930 . S
C2127 C2126 1.388 . S
C2127 C2128 1.390 1_655 S
C2128 C2127 1.390 1_455 S
C2128 C2129 1.394 . S
C2128 C2134 1.465 . S
C2129 C2124 1.399 . S
C2129 C2128 1.394 . S
C2129 C2130 1.516 . S
C2130 C2129 1.516 . S
C2130 C2131 1.502 . S
C2130 C2132 1.561 . S
C2130 C2133 1.526 . S
C2131 H2115 0.959 . S
C2131 H2116 0.959 . S
C2131 H2117 0.961 . S
C2131 C2130 1.502 . S
C2132 H2118 0.960 . S
C2132 H2119 0.961 . S
C2132 H2120 0.959 . S
C2132 C2130 1.561 . S
C2133 C2130 1.526 . S
C2133 C2134 1.396 . S
C2133 C2138 1.390 . S
C2134 C2128 1.465 . S
C2134 C2133 1.396 . S
C2134 C2135 1.399 1_455 S
C2135 H2121 0.929 . S
C2135 C2134 1.399 1_655 S
C2135 C2136 1.385 . S
C2136 H2122 0.931 . S
C2136 C2135 1.385 . S
C2136 C2137 1.389 1_655 S
C2137 C2136 1.389 1_455 S
C2137 C2138 1.387 . S
C2138 H2123 0.930 . S
C2138 C2133 1.390 . S
C2138 C2137 1.387 . S
H2139 C2151 0.930 . S
H2140 C2153 0.930 . S
H2141 C2154 0.930 . S
H2142 C2158 0.959 . S
H2143 C2158 0.959 . S
H2144 C2158 0.961 . S
H2145 C2159 0.960 . S
H2146 C2159 0.961 . S
H2147 C2159 0.959 . S
H2148 C2162 0.929 . S
H2149 C2163 0.931 . S
H2150 C2165 0.930 . S
C2151 H2139 0.930 . S
C2151 C2152 1.399 . S
C2151 C2156 1.399 . S
C2152 C2151 1.399 . S
C2152 C2153 1.376 . S
C2153 H2140 0.930 . S
C2153 C2152 1.376 . S
C2153 C2154 1.388 . S
C2154 H2141 0.930 . S
C2154 C2153 1.388 . S
C2154 C2155 1.390 . S
C2155 C2154 1.390 . S
C2155 C2156 1.394 . S
C2155 C2161 1.465 . S
C2156 C2151 1.399 . S
C2156 C2155 1.394 . S
C2156 C2157 1.516 . S
C2157 C2156 1.516 . S
C2157 C2158 1.502 . S
C2157 C2159 1.561 . S
C2157 C2160 1.526 . S
C2158 H2142 0.959 . S
C2158 H2143 0.959 . S
C2158 H2144 0.961 . S
C2158 C2157 1.502 . S
C2159 H2145 0.960 . S
C2159 H2146 0.961 . S
C2159 H2147 0.959 . S
C2159 C2157 1.561 . S
C2160 C2157 1.526 . S
C2160 C2161 1.396 . S
C2160 C2165 1.390 . S
C2161 C2155 1.465 . S
C2161 C2160 1.396 . S
C2161 C2162 1.399 . S
C2162 H2148 0.929 . S
C2162 C2161 1.399 . S
C2162 C2163 1.385 . S
C2163 H2149 0.931 . S
C2163 C2162 1.385 . S
C2163 C2164 1.389 . S
C2164 C2163 1.389 . S
C2164 C2165 1.387 . S
C2165 H2150 0.930 . S
C2165 C2160 1.390 . S
C2165 C2164 1.387 . S
H2166 C2178 0.930 . S
H2167 C2180 0.930 . S
H2168 C2181 0.930 . S
H2169 C2185 0.959 . S
H2170 C2185 0.959 . S
H2171 C2185 0.961 . S
H2172 C2186 0.960 . S
H2173 C2186 0.961 . S
H2174 C2186 0.959 . S
H2175 C2189 0.929 . S
H2176 C2190 0.931 . S
H2177 C2192 0.930 . S
C2178 H2166 0.930 . S
C2178 C2179 1.399 . S
C2178 C2183 1.399 . S
C2179 C2178 1.399 . S
C2179 C2180 1.376 . S
C2180 H2167 0.930 . S
C2180 C2179 1.376 . S
C2180 C2181 1.388 . S
C2181 H2168 0.930 . S
C2181 C2180 1.388 . S
C2181 C2182 1.390 . S
C2182 C2181 1.390 . S
C2182 C2183 1.394 . S
C2182 C2188 1.465 . S
C2183 C2178 1.399 . S
C2183 C2182 1.394 . S
C2183 C2184 1.516 . S
C2184 C2183 1.516 . S
C2184 C2185 1.502 . S
C2184 C2186 1.561 . S
C2184 C2187 1.526 . S
C2185 H2169 0.959 . S
C2185 H2170 0.959 . S
C2185 H2171 0.961 . S
C2185 C2184 1.502 . S
C2186 H2172 0.960 . S
C2186 H2173 0.961 . S
C2186 H2174 0.959 . S
C2186 C2184 1.561 . S
C2187 C2184 1.526 . S
C2187 C2188 1.396 . S
C2187 C2192 1.390 . S
C2188 C2182 1.465 . S
C2188 C2187 1.396 . S
C2188 C2189 1.399 . S
C2189 H2175 0.929 . S
C2189 C2188 1.399 . S
C2189 C2190 1.385 . S
C2190 H2176 0.931 . S
C2190 C2189 1.385 . S
C2190 C2191 1.389 . S
C2191 C2190 1.389 . S
C2191 C2192 1.387 . S
C2192 H2177 0.930 . S
C2192 C2187 1.390 . S
C2192 C2191 1.387 . S
H2193 C2205 0.930 . S
H2194 C2207 0.930 . S
H2195 C2208 0.930 . S
H2196 C2212 0.959 . S
H2197 C2212 0.959 . S
H2198 C2212 0.961 . S
H2199 C2213 0.960 . S
H2200 C2213 0.961 . S
H2201 C2213 0.959 . S
H2202 C2216 0.928 . S
H2203 C2217 0.931 . S
H2204 C2219 0.930 . S
C2205 H2193 0.930 . S
C2205 C2206 1.399 1_556 S
C2205 C2210 1.399 . S
C2206 C2205 1.399 1_554 S
C2206 C2207 1.376 . S
C2207 H2194 0.930 . S
C2207 C2206 1.376 . S
C2207 C2208 1.388 . S
C2208 H2195 0.930 . S
C2208 C2207 1.388 . S
C2208 C2209 1.390 1_554 S
C2209 C2208 1.390 1_556 S
C2209 C2210 1.394 . S
C2209 C2215 1.465 . S
C2210 C2205 1.399 . S
C2210 C2209 1.394 . S
C2210 C2211 1.516 . S
C2211 C2210 1.516 . S
C2211 C2212 1.502 . S
C2211 C2213 1.561 . S
C2211 C2214 1.526 . S
C2212 H2196 0.959 . S
C2212 H2197 0.959 . S
C2212 H2198 0.961 . S
C2212 C2211 1.502 . S
C2213 H2199 0.960 . S
C2213 H2200 0.961 . S
C2213 H2201 0.959 . S
C2213 C2211 1.561 . S
C2214 C2211 1.526 . S
C2214 C2215 1.396 . S
C2214 C2219 1.390 . S
C2215 C2209 1.465 . S
C2215 C2214 1.396 . S
C2215 C2216 1.399 . S
C2216 H2202 0.928 . S
C2216 C2215 1.399 . S
C2216 C2217 1.385 . S
C2217 H2203 0.931 . S
C2217 C2216 1.385 . S
C2217 C2218 1.389 . S
C2218 C2217 1.389 . S
C2218 C2219 1.387 . S
C2219 H2204 0.930 . S
C2219 C2214 1.390 . S
C2219 C2218 1.387 . S
H2220 C2232 0.930 . S
H2221 C2234 0.930 . S
H2222 C2235 0.930 . S
H2223 C2239 0.959 . S
H2224 C2239 0.959 . S
H2225 C2239 0.961 . S
H2226 C2240 0.960 . S
H2227 C2240 0.961 . S
H2228 C2240 0.959 . S
H2229 C2243 0.929 . S
H2230 C2244 0.931 . S
H2231 C2246 0.930 . S
C2232 H2220 0.930 . S
C2232 C2233 1.399 . S
C2232 C2237 1.399 . S
C2233 C2232 1.399 . S
C2233 C2234 1.376 . S
C2234 H2221 0.930 . S
C2234 C2233 1.376 . S
C2234 C2235 1.388 . S
C2235 H2222 0.930 . S
C2235 C2234 1.388 . S
C2235 C2236 1.390 . S
C2236 C2235 1.390 . S
C2236 C2237 1.394 . S
C2236 C2242 1.465 . S
C2237 C2232 1.399 . S
C2237 C2236 1.394 . S
C2237 C2238 1.516 . S
C2238 C2237 1.516 . S
C2238 C2239 1.502 . S
C2238 C2240 1.561 . S
C2238 C2241 1.526 . S
C2239 H2223 0.959 . S
C2239 H2224 0.959 . S
C2239 H2225 0.961 . S
C2239 C2238 1.502 . S
C2240 H2226 0.960 . S
C2240 H2227 0.961 . S
C2240 H2228 0.959 . S
C2240 C2238 1.561 . S
C2241 C2238 1.526 . S
C2241 C2242 1.396 . S
C2241 C2246 1.390 . S
C2242 C2236 1.465 . S
C2242 C2241 1.396 . S
C2242 C2243 1.399 . S
C2243 H2229 0.929 . S
C2243 C2242 1.399 . S
C2243 C2244 1.385 . S
C2244 H2230 0.931 . S
C2244 C2243 1.385 . S
C2244 C2245 1.389 . S
C2245 C2244 1.389 . S
C2245 C2246 1.387 . S
C2246 H2231 0.930 . S
C2246 C2241 1.390 . S
C2246 C2245 1.387 . S
H2247 C2259 0.930 . S
H2248 C2261 0.930 1_545 S
H2249 C2262 0.930 1_545 S
H2250 C2266 0.959 . S
H2251 C2266 0.959 . S
H2252 C2266 0.961 . S
H2253 C2267 0.960 . S
H2254 C2267 0.961 . S
H2255 C2267 0.959 . S
H2256 C2270 0.929 . S
H2257 C2271 0.931 . S
H2258 C2273 0.930 . S
C2259 H2247 0.930 . S
C2259 C2260 1.399 . S
C2259 C2264 1.399 . S
C2260 C2259 1.399 . S
C2260 C2261 1.376 . S
C2261 H2248 0.930 1_565 S
C2261 C2260 1.376 . S
C2261 C2262 1.388 . S
C2262 H2249 0.930 1_565 S
C2262 C2261 1.388 . S
C2262 C2263 1.390 . S
C2263 C2262 1.390 . S
C2263 C2264 1.394 . S
C2263 C2269 1.465 . S
C2264 C2259 1.399 . S
C2264 C2263 1.394 . S
C2264 C2265 1.516 . S
C2265 C2264 1.516 . S
C2265 C2266 1.502 . S
C2265 C2267 1.561 . S
C2265 C2268 1.526 . S
C2266 H2250 0.959 . S
C2266 H2251 0.959 . S
C2266 H2252 0.961 . S
C2266 C2265 1.502 . S
C2267 H2253 0.960 . S
C2267 H2254 0.961 . S
C2267 H2255 0.959 . S
C2267 C2265 1.561 . S
C2268 C2265 1.526 . S
C2268 C2269 1.396 . S
C2268 C2273 1.390 . S
C2269 C2263 1.465 . S
C2269 C2268 1.396 . S
C2269 C2270 1.399 . S
C2270 H2256 0.929 . S
C2270 C2269 1.399 . S
C2270 C2271 1.385 . S
C2271 H2257 0.931 . S
C2271 C2270 1.385 . S
C2271 C2272 1.389 . S
C2272 C2271 1.389 . S
C2272 C2273 1.387 . S
C2273 H2258 0.930 . S
C2273 C2268 1.390 . S
C2273 C2272 1.387 . S
H2274 C2286 0.930 . S
H2275 C2288 0.930 . S
H2276 C2289 0.930 . S
H2277 C2293 0.932 1_545 S
H2278 C2293 0.959 . S
H2279 C2293 0.961 . S
H2280 C2294 0.960 . S
H2281 C2294 0.961 . S
H2282 C2294 0.959 . S
H2283 C2297 0.929 . S
H2284 C2298 0.931 . S
H2285 C2300 0.930 . S
C2286 H2274 0.930 . S
C2286 C2287 1.399 . S
C2286 C2291 1.399 . S
C2287 C2286 1.399 . S
C2287 C2288 1.376 . S
C2288 H2275 0.930 . S
C2288 C2287 1.376 . S
C2288 C2289 1.388 . S
C2289 H2276 0.930 . S
C2289 C2288 1.388 . S
C2289 C2290 1.390 . S
C2290 C2289 1.390 . S
C2290 C2291 1.394 . S
C2290 C2296 1.465 . S
C2291 C2286 1.399 . S
C2291 C2290 1.394 . S
C2291 C2292 1.488 1_545 S
C2292 C2291 1.488 1_565 S
C2292 C2293 1.514 . S
C2292 C2294 1.582 . S
C2292 C2295 1.520 1_565 S
C2293 H2277 0.932 1_565 S
C2293 H2278 0.959 . S
C2293 H2279 0.961 . S
C2293 C2292 1.514 . S
C2294 H2280 0.960 . S
C2294 H2281 0.961 . S
C2294 H2282 0.959 . S
C2294 C2292 1.582 . S
C2295 C2292 1.520 1_545 S
C2295 C2296 1.396 . S
C2295 C2300 1.390 1_545 S
C2296 C2290 1.465 . S
C2296 C2295 1.396 . S
C2296 C2297 1.399 . S
C2297 H2283 0.929 . S
C2297 C2296 1.399 . S
C2297 C2298 1.385 . S
C2298 H2284 0.931 . S
C2298 C2297 1.385 . S
C2298 C2299 1.389 1_545 S
C2299 C2298 1.389 1_565 S
C2299 C2300 1.387 . S
C2300 H2285 0.930 . S
C2300 C2295 1.390 1_565 S
C2300 C2299 1.387 . S
H2301 C2313 0.930 . S
H2302 C2315 0.930 . S
H2303 C2316 0.930 . S
H2304 C2320 0.959 . S
H2305 C2320 0.959 . S
H2306 C2320 0.961 . S
H2307 C2321 0.960 . S
H2308 C2321 0.961 . S
H2309 C2321 0.959 . S
H2310 C2324 0.929 . S
H2311 C2325 0.931 1_565 S
H2312 C2327 0.930 . S
C2313 H2301 0.930 . S
C2313 C2314 1.399 . S
C2313 C2318 1.399 . S
C2314 C2313 1.399 . S
C2314 C2315 1.376 1_545 S
C2315 H2302 0.930 . S
C2315 C2314 1.376 1_565 S
C2315 C2316 1.388 . S
C2316 H2303 0.930 . S
C2316 C2315 1.388 . S
C2316 C2317 1.390 1_565 S
C2317 C2316 1.390 1_545 S
C2317 C2318 1.394 . S
C2317 C2323 1.465 . S
C2318 C2313 1.399 . S
C2318 C2317 1.394 . S
C2318 C2319 1.516 . S
C2319 C2318 1.516 . S
C2319 C2320 1.502 . S
C2319 C2321 1.561 . S
C2319 C2322 1.526 . S
C2320 H2304 0.959 . S
C2320 H2305 0.959 . S
C2320 H2306 0.961 . S
C2320 C2319 1.502 . S
C2321 H2307 0.960 . S
C2321 H2308 0.961 . S
C2321 H2309 0.959 . S
C2321 C2319 1.561 . S
C2322 C2319 1.526 . S
C2322 C2323 1.396 . S
C2322 C2327 1.390 . S
C2323 C2317 1.465 . S
C2323 C2322 1.396 . S
C2323 C2324 1.399 1_545 S
C2324 H2310 0.929 . S
C2324 C2323 1.399 1_565 S
C2324 C2325 1.385 1_565 S
C2325 H2311 0.931 1_545 S
C2325 C2324 1.385 1_545 S
C2325 C2326 1.389 . S
C2326 C2325 1.389 . S
C2326 C2327 1.387 . S
C2327 H2312 0.930 . S
C2327 C2322 1.390 . S
C2327 C2326 1.387 . S
H2328 C2340 0.930 . S
H2329 C2342 0.930 . S
H2330 C2343 0.930 . S
H2331 C2347 0.959 . S
H2332 C2347 0.959 . S
H2333 C2347 0.961 . S
H2334 C2348 0.960 . S
H2335 C2348 0.961 . S
H2336 C2348 0.959 . S
H2337 C2351 0.928 . S
H2338 C2352 0.931 . S
H2339 C2354 0.930 . S
C2340 H2328 0.930 . S
C2340 C2341 1.399 1_565 S
C2340 C2345 1.399 . S
C2341 C2340 1.399 1_545 S
C2341 C2342 1.376 . S
C2342 H2329 0.930 . S
C2342 C2341 1.376 . S
C2342 C2343 1.388 . S
C2343 H2330 0.930 . S
C2343 C2342 1.388 . S
C2343 C2344 1.390 1_545 S
C2344 C2343 1.390 1_565 S
C2344 C2345 1.394 . S
C2344 C2350 1.465 . S
C2345 C2340 1.399 . S
C2345 C2344 1.394 . S
C2345 C2346 1.516 . S
C2346 C2345 1.516 . S
C2346 C2347 1.502 . S
C2346 C2348 1.561 . S
C2346 C2349 1.526 . S
C2347 H2331 0.959 . S
C2347 H2332 0.959 . S
C2347 H2333 0.961 . S
C2347 C2346 1.502 . S
C2348 H2334 0.960 . S
C2348 H2335 0.961 . S
C2348 H2336 0.959 . S
C2348 C2346 1.561 . S
C2349 C2346 1.526 . S
C2349 C2350 1.396 . S
C2349 C2354 1.390 . S
C2350 C2344 1.465 . S
C2350 C2349 1.396 . S
C2350 C2351 1.399 . S
C2351 H2337 0.928 . S
C2351 C2350 1.399 . S
C2351 C2352 1.385 . S
C2352 H2338 0.931 . S
C2352 C2351 1.385 . S
C2352 C2353 1.389 . S
C2353 C2352 1.389 . S
C2353 C2354 1.387 . S
C2354 H2339 0.930 . S
C2354 C2349 1.390 . S
C2354 C2353 1.387 . S
H2355 C2367 0.930 . S
H2356 C2369 0.930 . S
H2357 C2370 0.930 . S
H2358 C2374 0.959 . S
H2359 C2374 0.959 . S
H2360 C2374 0.961 . S
H2361 C2375 0.960 . S
H2362 C2375 0.961 . S
H2363 C2375 0.959 . S
H2364 C2378 0.929 . S
H2365 C2379 0.931 . S
H2366 C2381 0.930 . S
C2367 H2355 0.930 . S
C2367 C2368 1.399 . S
C2367 C2372 1.399 . S
C2368 C2367 1.399 . S
C2368 C2369 1.376 . S
C2369 H2356 0.930 . S
C2369 C2368 1.376 . S
C2369 C2370 1.388 . S
C2370 H2357 0.930 . S
C2370 C2369 1.388 . S
C2370 C2371 1.390 . S
C2371 C2370 1.390 . S
C2371 C2372 1.394 . S
C2371 C2377 1.465 . S
C2372 C2367 1.399 . S
C2372 C2371 1.394 . S
C2372 C2373 1.516 . S
C2373 C2372 1.516 . S
C2373 C2374 1.502 . S
C2373 C2375 1.561 . S
C2373 C2376 1.526 . S
C2374 H2358 0.959 . S
C2374 H2359 0.959 . S
C2374 H2360 0.961 . S
C2374 C2373 1.502 . S
C2375 H2361 0.960 . S
C2375 H2362 0.961 . S
C2375 H2363 0.959 . S
C2375 C2373 1.561 . S
C2376 C2373 1.526 . S
C2376 C2377 1.396 . S
C2376 C2381 1.390 . S
C2377 C2371 1.465 . S
C2377 C2376 1.396 . S
C2377 C2378 1.399 . S
C2378 H2364 0.929 . S
C2378 C2377 1.399 . S
C2378 C2379 1.385 . S
C2379 H2365 0.931 . S
C2379 C2378 1.385 . S
C2379 C2380 1.389 . S
C2380 C2379 1.389 . S
C2380 C2381 1.387 . S
C2381 H2366 0.930 . S
C2381 C2376 1.390 . S
C2381 C2380 1.387 . S
H2382 C2394 0.930 . S
H2383 C2396 0.930 . S
H2384 C2397 0.930 . S
H2385 C2401 0.959 . S
H2386 C2401 0.959 . S
H2387 C2401 0.961 . S
H2388 C2402 0.960 . S
H2389 C2402 0.961 . S
H2390 C2402 0.959 . S
H2391 C2405 0.929 . S
H2392 C2406 0.931 . S
H2393 C2408 0.930 . S
C2394 H2382 0.930 . S
C2394 C2395 1.399 . S
C2394 C2399 1.399 . S
C2395 C2394 1.399 . S
C2395 C2396 1.376 . S
C2396 H2383 0.930 . S
C2396 C2395 1.376 . S
C2396 C2397 1.388 . S
C2397 H2384 0.930 . S
C2397 C2396 1.388 . S
C2397 C2398 1.390 . S
C2398 C2397 1.390 . S
C2398 C2399 1.394 . S
C2398 C2404 1.465 . S
C2399 C2394 1.399 . S
C2399 C2398 1.394 . S
C2399 C2400 1.516 . S
C2400 C2399 1.516 . S
C2400 C2401 1.502 . S
C2400 C2402 1.561 . S
C2400 C2403 1.526 . S
C2401 H2385 0.959 . S
C2401 H2386 0.959 . S
C2401 H2387 0.961 . S
C2401 C2400 1.502 . S
C2402 H2388 0.960 . S
C2402 H2389 0.961 . S
C2402 H2390 0.959 . S
C2402 C2400 1.561 . S
C2403 C2400 1.526 . S
C2403 C2404 1.396 . S
C2403 C2408 1.390 . S
C2404 C2398 1.465 . S
C2404 C2403 1.396 . S
C2404 C2405 1.399 . S
C2405 H2391 0.929 . S
C2405 C2404 1.399 . S
C2405 C2406 1.385 . S
C2406 H2392 0.931 . S
C2406 C2405 1.385 . S
C2406 C2407 1.389 . S
C2407 C2406 1.389 . S
C2407 C2408 1.387 . S
C2408 H2393 0.930 . S
C2408 C2403 1.390 . S
C2408 C2407 1.387 . S
H2409 C2421 0.930 . S
H2410 C2423 0.930 . S
H2411 C2424 0.930 . S
H2412 C2428 0.959 . S
H2413 C2428 0.959 . S
H2414 C2428 0.961 . S
H2415 C2429 0.960 . S
H2416 C2429 0.961 . S
H2417 C2429 0.959 . S
H2418 C2432 0.929 . S
H2419 C2433 0.931 . S
H2420 C2435 0.930 . S
C2421 H2409 0.930 . S
C2421 C2422 1.399 . S
C2421 C2426 1.399 . S
C2422 C2421 1.399 . S
C2422 C2423 1.376 . S
C2423 H2410 0.930 . S
C2423 C2422 1.376 . S
C2423 C2424 1.388 . S
C2424 H2411 0.930 . S
C2424 C2423 1.388 . S
C2424 C2425 1.390 . S
C2425 C2424 1.390 . S
C2425 C2426 1.394 . S
C2425 C2431 1.465 . S
C2426 C2421 1.399 . S
C2426 C2425 1.394 . S
C2426 C2427 1.516 . S
C2427 C2426 1.516 . S
C2427 C2428 1.502 . S
C2427 C2429 1.561 . S
C2427 C2430 1.526 . S
C2428 H2412 0.959 . S
C2428 H2413 0.959 . S
C2428 H2414 0.961 . S
C2428 C2427 1.502 . S
C2429 H2415 0.960 . S
C2429 H2416 0.961 . S
C2429 H2417 0.959 . S
C2429 C2427 1.561 . S
C2430 C2427 1.526 . S
C2430 C2431 1.396 . S
C2430 C2435 1.390 . S
C2431 C2425 1.465 . S
C2431 C2430 1.396 . S
C2431 C2432 1.399 . S
C2432 H2418 0.929 . S
C2432 C2431 1.399 . S
C2432 C2433 1.385 . S
C2433 H2419 0.931 . S
C2433 C2432 1.385 . S
C2433 C2434 1.389 . S
C2434 C2433 1.389 . S
C2434 C2435 1.387 . S
C2435 H2420 0.930 . S
C2435 C2430 1.390 . S
C2435 C2434 1.387 . S
C829 C719 0.759 . S
C841 C20 0.791 . S
C856 C753 0.614 . S
C868 C54 0.643 . S
C883 C88 0.848 . S
C895 C549 0.869 . S
C910 C787 0.703 . S
C922 C122 0.715 . S
C937 C156 0.763 . S
C949 C651 0.785 . S
C964 C685 0.792 . S
C976 C190 0.746 . S
C991 C583 0.771 . S
C1003 C224 0.770 . S
C1018 C617 0.660 . S
C1030 C258 0.591 . S
C1045 C292 0.825 . S
C1057 C141 0.848 . S
C1072 C326 0.718 . S
C1084 C175 0.750 . S
C1099 C360 0.728 . S
C1111 C209 0.749 . S
C1126 C394 0.710 . S
C1138 C243 0.731 . S
C1153 C5 0.857 . S
C1165 C428 0.829 . S
C1180 C462 0.732 . S
C1192 C39 0.771 . S
C1207 C496 0.734 . S
C1219 C73 0.712 . S
C1234 C107 0.676 . S
C1246 C530 0.609 . S
C1261 C481 0.843 . S
C1273 C564 0.820 . S
C1288 C598 0.754 . S
C1300 C345 0.783 . S
C1315 C632 0.747 . S
C1327 C379 0.749 . S
C1342 C666 0.800 . S
C1354 C277 0.810 . S
C1369 C311 0.529 . S
C1381 C700 0.519 . S
C1396 C413 0.787 . S
C1408 C734 0.759 . S
C1423 C768 0.643 . S
C1435 C447 0.648 . S
C1450 C802 0.737 . S
C1462 C515 0.773 . S
C1477 C240 2.103 . S
C1489 C2 1.862 . S
C1504 C36 1.903 . S
C1516 C138 1.745 . S
C1531 C172 2.025 . S
C1543 C70 1.805 . S
C1558 C206 1.847 . S
C1570 C104 2.122 . S
C1585 C682 2.103 . S
C1597 C274 1.861 . S
C1612 C308 2.133 . S
C1624 C580 1.875 . S
C1639 C342 1.932 . S
C1651 C614 2.142 . S
C1666 C376 2.072 . S
C1678 C648 1.905 . S
C1693 C410 1.816 . S
C1705 C784 2.041 . S
C1720 C716 1.739 . S
C1732 C444 1.902 . S
C1747 C478 1.639 . S
C1759 C750 1.848 . S
C1774 C512 2.107 . S
C1786 C546 1.877 . S
C1801 C9 1.278 . S
C1813 C475 1.665 . S
C1828 C43 1.622 . S
C1840 C509 1.743 . S
C1855 C543 1.408 . S
C1867 C77 1.091 . S
C1882 C441 1.639 . S
C1894 C111 1.481 . S
C1909 C145 1.054 . S
C1921 C407 1.394 . S
C1936 C179 1.515 . S
C1948 C305 1.766 . S
C1963 C339 1.521 . S
C1975 C213 1.140 . S
C1990 C247 1.502 1_655 S
C2002 C373 1.685 . S
C2017 C281 1.333 . S
C2029 C67 1.670 . S
C2044 C315 1.509 . S
C2056 C101 1.599 . S
C2071 C135 1.532 . S
C2083 C349 1.195 . S
C2098 C383 1.516 . S
C2110 C33 1.763 . S
C2125 C417 1.184 . S
C2137 C271 1.419 . S
C2152 C451 1.537 . S
C2164 C169 1.746 . S
C2179 C485 1.151 . S
C2191 C203 1.401 . S
C2206 C519 1.572 . S
C2218 C237 1.693 . S
C2233 C553 1.232 . S
C2245 C781 1.659 . S
C2260 C645 1.521 . S
C2272 C587 1.140 . S
C2287 C679 1.630 . S
C2299 C621 1.428 . S
C2314 C713 1.404 . S
C2326 C655 1.059 . S
C2341 C689 1.570 . S
C2353 C611 1.694 . S
C2368 C815 1.411 . S
C2380 C723 1.161 . S
C2395 C747 1.768 . S
C2407 C757 1.508 . S
C2422 C791 1.602 . S
C2434 C577 1.761 . S
