# Generated by pormake.
# Topology wlh, (5)-cn, num edge types: 1
# Building blocks:
#     Node 0, Type 0, BuildingBlock: XOMCOT_clean_sbu_1, # of connection points: 5
#     Node 1, Type 0, BuildingBlock: XOMCOT_clean_sbu_1, # of connection points: 5
#     Node 2, Type 0, BuildingBlock: XOMCOT_clean_sbu_1, # of connection points: 5
#     Node 3, Type 0, BuildingBlock: XOMCOT_clean_sbu_1, # of connection points: 5
#     Node 4, Type 0, BuildingBlock: XOMCOT_clean_sbu_1, # of connection points: 5
#     Node 5, Type 0, BuildingBlock: XOMCOT_clean_sbu_1, # of connection points: 5
#     Node 6, Type 0, BuildingBlock: XOMCOT_clean_sbu_1, # of connection points: 5
#     Node 7, Type 0, BuildingBlock: XOMCOT_clean_sbu_1, # of connection points: 5
#     Node 8, Type 0, BuildingBlock: XOMCOT_clean_sbu_1, # of connection points: 5
#     Node 9, Type 0, BuildingBlock: XOMCOT_clean_sbu_1, # of connection points: 5
#     Node 10, Type 0, BuildingBlock: XOMCOT_clean_sbu_1, # of connection points: 5
#     Node 11, Type 0, BuildingBlock: XOMCOT_clean_sbu_1, # of connection points: 5
#     Node 12, Type 0, BuildingBlock: XOMCOT_clean_sbu_1, # of connection points: 5
#     Node 13, Type 0, BuildingBlock: XOMCOT_clean_sbu_1, # of connection points: 5
#     Node 14, Type 0, BuildingBlock: XOMCOT_clean_sbu_1, # of connection points: 5
#     Node 15, Type 0, BuildingBlock: XOMCOT_clean_sbu_1, # of connection points: 5
#     Node 16, Type 0, BuildingBlock: XOMCOT_clean_sbu_1, # of connection points: 5
#     Node 17, Type 0, BuildingBlock: XOMCOT_clean_sbu_1, # of connection points: 5
#     Node 18, Type 0, BuildingBlock: XOMCOT_clean_sbu_1, # of connection points: 5
#     Node 19, Type 0, BuildingBlock: XOMCOT_clean_sbu_1, # of connection points: 5
#     Node 20, Type 0, BuildingBlock: XOMCOT_clean_sbu_1, # of connection points: 5
#     Node 21, Type 0, BuildingBlock: XOMCOT_clean_sbu_1, # of connection points: 5
#     Node 22, Type 0, BuildingBlock: XOMCOT_clean_sbu_1, # of connection points: 5
#     Node 23, Type 0, BuildingBlock: XOMCOT_clean_sbu_1, # of connection points: 5
#     Node 24, Type 0, BuildingBlock: XOMCOT_clean_sbu_1, # of connection points: 5
#     Node 25, Type 0, BuildingBlock: XOMCOT_clean_sbu_1, # of connection points: 5
#     Node 26, Type 0, BuildingBlock: XOMCOT_clean_sbu_1, # of connection points: 5
#     Node 27, Type 0, BuildingBlock: XOMCOT_clean_sbu_1, # of connection points: 5
#     Node 28, Type 0, BuildingBlock: XOMCOT_clean_sbu_1, # of connection points: 5
#     Node 29, Type 0, BuildingBlock: XOMCOT_clean_sbu_1, # of connection points: 5
#     Node 30, Type 0, BuildingBlock: XOMCOT_clean_sbu_1, # of connection points: 5
#     Node 31, Type 0, BuildingBlock: XOMCOT_clean_sbu_1, # of connection points: 5
#     Node 32, Type 0, BuildingBlock: XOMCOT_clean_sbu_1, # of connection points: 5
#     Node 33, Type 0, BuildingBlock: XOMCOT_clean_sbu_1, # of connection points: 5
#     Node 34, Type 0, BuildingBlock: XOMCOT_clean_sbu_1, # of connection points: 5
#     Node 35, Type 0, BuildingBlock: XOMCOT_clean_sbu_1, # of connection points: 5
#     Edge 36, Type (0, 0), BuildingBlock: EZIPEK_clean_linker_0, # of connection points: 2
#     Edge 37, Type (0, 0), BuildingBlock: EZIPEK_clean_linker_0, # of connection points: 2
#     Edge 38, Type (0, 0), BuildingBlock: EZIPEK_clean_linker_0, # of connection points: 2
#     Edge 39, Type (0, 0), BuildingBlock: EZIPEK_clean_linker_0, # of connection points: 2
#     Edge 40, Type (0, 0), BuildingBlock: EZIPEK_clean_linker_0, # of connection points: 2
#     Edge 41, Type (0, 0), BuildingBlock: EZIPEK_clean_linker_0, # of connection points: 2
#     Edge 42, Type (0, 0), BuildingBlock: EZIPEK_clean_linker_0, # of connection points: 2
#     Edge 43, Type (0, 0), BuildingBlock: EZIPEK_clean_linker_0, # of connection points: 2
#     Edge 44, Type (0, 0), BuildingBlock: EZIPEK_clean_linker_0, # of connection points: 2
#     Edge 45, Type (0, 0), BuildingBlock: EZIPEK_clean_linker_0, # of connection points: 2
#     Edge 46, Type (0, 0), BuildingBlock: EZIPEK_clean_linker_0, # of connection points: 2
#     Edge 47, Type (0, 0), BuildingBlock: EZIPEK_clean_linker_0, # of connection points: 2
#     Edge 48, Type (0, 0), BuildingBlock: EZIPEK_clean_linker_0, # of connection points: 2
#     Edge 49, Type (0, 0), BuildingBlock: EZIPEK_clean_linker_0, # of connection points: 2
#     Edge 50, Type (0, 0), BuildingBlock: EZIPEK_clean_linker_0, # of connection points: 2
#     Edge 51, Type (0, 0), BuildingBlock: EZIPEK_clean_linker_0, # of connection points: 2
#     Edge 52, Type (0, 0), BuildingBlock: EZIPEK_clean_linker_0, # of connection points: 2
#     Edge 53, Type (0, 0), BuildingBlock: EZIPEK_clean_linker_0, # of connection points: 2
#     Edge 54, Type (0, 0), BuildingBlock: EZIPEK_clean_linker_0, # of connection points: 2
#     Edge 55, Type (0, 0), BuildingBlock: EZIPEK_clean_linker_0, # of connection points: 2
#     Edge 56, Type (0, 0), BuildingBlock: EZIPEK_clean_linker_0, # of connection points: 2
#     Edge 57, Type (0, 0), BuildingBlock: EZIPEK_clean_linker_0, # of connection points: 2
#     Edge 58, Type (0, 0), BuildingBlock: EZIPEK_clean_linker_0, # of connection points: 2
#     Edge 59, Type (0, 0), BuildingBlock: EZIPEK_clean_linker_0, # of connection points: 2
#     Edge 60, Type (0, 0), BuildingBlock: EZIPEK_clean_linker_0, # of connection points: 2
#     Edge 61, Type (0, 0), BuildingBlock: EZIPEK_clean_linker_0, # of connection points: 2
#     Edge 62, Type (0, 0), BuildingBlock: EZIPEK_clean_linker_0, # of connection points: 2
#     Edge 63, Type (0, 0), BuildingBlock: EZIPEK_clean_linker_0, # of connection points: 2
#     Edge 64, Type (0, 0), BuildingBlock: EZIPEK_clean_linker_0, # of connection points: 2
#     Edge 65, Type (0, 0), BuildingBlock: EZIPEK_clean_linker_0, # of connection points: 2
#     Edge 66, Type (0, 0), BuildingBlock: EZIPEK_clean_linker_0, # of connection points: 2
#     Edge 67, Type (0, 0), BuildingBlock: EZIPEK_clean_linker_0, # of connection points: 2
#     Edge 68, Type (0, 0), BuildingBlock: EZIPEK_clean_linker_0, # of connection points: 2
#     Edge 69, Type (0, 0), BuildingBlock: EZIPEK_clean_linker_0, # of connection points: 2
#     Edge 70, Type (0, 0), BuildingBlock: EZIPEK_clean_linker_0, # of connection points: 2
#     Edge 71, Type (0, 0), BuildingBlock: EZIPEK_clean_linker_0, # of connection points: 2
#     Edge 72, Type (0, 0), BuildingBlock: EZIPEK_clean_linker_0, # of connection points: 2
#     Edge 73, Type (0, 0), BuildingBlock: EZIPEK_clean_linker_0, # of connection points: 2
#     Edge 74, Type (0, 0), BuildingBlock: EZIPEK_clean_linker_0, # of connection points: 2
#     Edge 75, Type (0, 0), BuildingBlock: EZIPEK_clean_linker_0, # of connection points: 2
#     Edge 76, Type (0, 0), BuildingBlock: EZIPEK_clean_linker_0, # of connection points: 2
#     Edge 77, Type (0, 0), BuildingBlock: EZIPEK_clean_linker_0, # of connection points: 2
#     Edge 78, Type (0, 0), BuildingBlock: EZIPEK_clean_linker_0, # of connection points: 2
#     Edge 79, Type (0, 0), BuildingBlock: EZIPEK_clean_linker_0, # of connection points: 2
#     Edge 80, Type (0, 0), BuildingBlock: EZIPEK_clean_linker_0, # of connection points: 2
#     Edge 81, Type (0, 0), BuildingBlock: EZIPEK_clean_linker_0, # of connection points: 2
#     Edge 82, Type (0, 0), BuildingBlock: EZIPEK_clean_linker_0, # of connection points: 2
#     Edge 83, Type (0, 0), BuildingBlock: EZIPEK_clean_linker_0, # of connection points: 2
#     Edge 84, Type (0, 0), BuildingBlock: EZIPEK_clean_linker_0, # of connection points: 2
#     Edge 85, Type (0, 0), BuildingBlock: EZIPEK_clean_linker_0, # of connection points: 2
#     Edge 86, Type (0, 0), BuildingBlock: EZIPEK_clean_linker_0, # of connection points: 2
#     Edge 87, Type (0, 0), BuildingBlock: EZIPEK_clean_linker_0, # of connection points: 2
#     Edge 88, Type (0, 0), BuildingBlock: EZIPEK_clean_linker_0, # of connection points: 2
#     Edge 89, Type (0, 0), BuildingBlock: EZIPEK_clean_linker_0, # of connection points: 2
#     Edge 90, Type (0, 0), BuildingBlock: EZIPEK_clean_linker_0, # of connection points: 2
#     Edge 91, Type (0, 0), BuildingBlock: EZIPEK_clean_linker_0, # of connection points: 2
#     Edge 92, Type (0, 0), BuildingBlock: EZIPEK_clean_linker_0, # of connection points: 2
#     Edge 93, Type (0, 0), BuildingBlock: EZIPEK_clean_linker_0, # of connection points: 2
#     Edge 94, Type (0, 0), BuildingBlock: EZIPEK_clean_linker_0, # of connection points: 2
#     Edge 95, Type (0, 0), BuildingBlock: EZIPEK_clean_linker_0, # of connection points: 2
#     Edge 96, Type (0, 0), BuildingBlock: EZIPEK_clean_linker_0, # of connection points: 2
#     Edge 97, Type (0, 0), BuildingBlock: EZIPEK_clean_linker_0, # of connection points: 2
#     Edge 98, Type (0, 0), BuildingBlock: EZIPEK_clean_linker_0, # of connection points: 2
#     Edge 99, Type (0, 0), BuildingBlock: EZIPEK_clean_linker_0, # of connection points: 2
#     Edge 100, Type (0, 0), BuildingBlock: EZIPEK_clean_linker_0, # of connection points: 2
#     Edge 101, Type (0, 0), BuildingBlock: EZIPEK_clean_linker_0, # of connection points: 2
#     Edge 102, Type (0, 0), BuildingBlock: EZIPEK_clean_linker_0, # of connection points: 2
#     Edge 103, Type (0, 0), BuildingBlock: EZIPEK_clean_linker_0, # of connection points: 2
#     Edge 104, Type (0, 0), BuildingBlock: EZIPEK_clean_linker_0, # of connection points: 2
#     Edge 105, Type (0, 0), BuildingBlock: EZIPEK_clean_linker_0, # of connection points: 2
#     Edge 106, Type (0, 0), BuildingBlock: EZIPEK_clean_linker_0, # of connection points: 2
#     Edge 107, Type (0, 0), BuildingBlock: EZIPEK_clean_linker_0, # of connection points: 2
#     Edge 108, Type (0, 0), BuildingBlock: EZIPEK_clean_linker_0, # of connection points: 2
#     Edge 109, Type (0, 0), BuildingBlock: EZIPEK_clean_linker_0, # of connection points: 2
#     Edge 110, Type (0, 0), BuildingBlock: EZIPEK_clean_linker_0, # of connection points: 2
#     Edge 111, Type (0, 0), BuildingBlock: EZIPEK_clean_linker_0, # of connection points: 2
#     Edge 112, Type (0, 0), BuildingBlock: EZIPEK_clean_linker_0, # of connection points: 2
#     Edge 113, Type (0, 0), BuildingBlock: EZIPEK_clean_linker_0, # of connection points: 2
#     Edge 114, Type (0, 0), BuildingBlock: EZIPEK_clean_linker_0, # of connection points: 2
#     Edge 115, Type (0, 0), BuildingBlock: EZIPEK_clean_linker_0, # of connection points: 2
#     Edge 116, Type (0, 0), BuildingBlock: EZIPEK_clean_linker_0, # of connection points: 2
#     Edge 117, Type (0, 0), BuildingBlock: EZIPEK_clean_linker_0, # of connection points: 2
#     Edge 118, Type (0, 0), BuildingBlock: EZIPEK_clean_linker_0, # of connection points: 2
#     Edge 119, Type (0, 0), BuildingBlock: EZIPEK_clean_linker_0, # of connection points: 2
#     Edge 120, Type (0, 0), BuildingBlock: EZIPEK_clean_linker_0, # of connection points: 2
#     Edge 121, Type (0, 0), BuildingBlock: EZIPEK_clean_linker_0, # of connection points: 2
#     Edge 122, Type (0, 0), BuildingBlock: EZIPEK_clean_linker_0, # of connection points: 2
#     Edge 123, Type (0, 0), BuildingBlock: EZIPEK_clean_linker_0, # of connection points: 2
#     Edge 124, Type (0, 0), BuildingBlock: EZIPEK_clean_linker_0, # of connection points: 2
#     Edge 125, Type (0, 0), BuildingBlock: EZIPEK_clean_linker_0, # of connection points: 2
# Relax obj value: 0.341
# Max RMSD: 0.229
# Mean RMSD: 0.229
data_MOF--net-wlh--node1-XOMCOT_clean_sbu_1--edge1-EZIPEK_clean_linker_0
_symmetry_space_group_name_H-M    P1
_symmetry_Int_Tables_number       1
_symmetry_cell_setting            triclinic
loop_
_symmetry_equiv_pos_as_xyz
'x, y, z'
_cell_length_a     29.824682
_cell_length_b     29.84818
_cell_length_c     118.6476
_cell_angle_alpha  89.979327
_cell_angle_beta   89.812297
_cell_angle_gamma 119.85554
loop_
_atom_site_label
_atom_site_type_symbol
_atom_site_fract_x
_atom_site_fract_y
_atom_site_fract_z
_atom_type_partial_charge
C0 C 0.147 0.22691 0.17886 0.0
C1 C 0.16599 0.19428 0.17695 0.0
N2 N 0.12578 0.14626 0.17577 0.0
N3 N 0.09469 0.20012 0.1787 0.0
C4 C 0.08286 0.15052 0.17689 0.0
H5 H 0.17036 0.26752 0.18073 0.0
Co6 Co 0.0527 0.23101 0.18064 0.0
C7 C 0.97574 0.15827 0.17132 0.0
O8 O 0.9725 0.1513 0.1823 0.0
N9 N 0.01159 0.26279 0.18191 0.0
C10 C 0.95551 0.28526 0.18845 0.0
C11 C 0.97419 0.2516 0.18965 0.0
C12 C 0.01343 0.302 0.17579 0.0
N13 N 0.97999 0.31667 0.17966 0.0
O14 O 0.10558 0.28866 0.1718 0.0
H15 H 0.96235 0.22181 0.19598 0.0
H16 H 0.03951 0.3204 0.16877 0.0
O17 O 0.01568 0.19751 0.16724 0.0
C18 C 0.14324 0.33482 0.17271 0.0
O19 O 0.151 0.35821 0.18245 0.0
N20 N 0.08267 0.25723 0.19523 0.0
C21 C 0.06867 0.25709 0.21856 0.0
C22 C 0.07767 0.22005 0.21357 0.0
C23 C 0.08339 0.2201 0.20193 0.0
C24 C 0.08188 0.29817 0.2003 0.0
C25 C 0.07398 0.29836 0.21197 0.0
H26 H 0.08089 0.18571 0.19842 0.0
H27 H 0.07915 0.32695 0.19534 0.0
H28 H 0.04388 0.11803 0.17679 0.0
H29 H 0.20629 0.20449 0.177 0.0
H30 H 0.92642 0.28682 0.19365 0.0
H31 H 0.07353 0.18745 0.21844 0.0
H32 H 0.06694 0.32761 0.21559 0.0
C33 C 0.80243 0.92985 0.19049 0.0
C34 C 0.82757 0.97868 0.18597 0.0
N35 N 0.82462 0.97489 0.17467 0.0
N36 N 0.78448 0.89463 0.1821 0.0
C37 C 0.79701 0.92367 0.17255 0.0
H38 H 0.79777 0.92105 0.19939 0.0
Co39 Co 0.74682 0.8215 0.18362 0.0
C40 C 0.8446 0.83673 0.17127 0.0
O41 O 0.86317 0.88573 0.16899 0.0
N42 N 0.7083 0.74732 0.18503 0.0
C43 C 0.68349 0.6662 0.19043 0.0
C44 C 0.71693 0.71765 0.19242 0.0
C45 C 0.6697 0.7119 0.17847 0.0
N46 N 0.65355 0.66282 0.18172 0.0
O47 O 0.71397 0.81964 0.1696 0.0
H48 H 0.74735 0.7317 0.19862 0.0
H49 H 0.65478 0.72108 0.17108 0.0
O50 O 0.80118 0.81227 0.1764 0.0
C51 C 0.67026 0.81727 0.17086 0.0
O52 O 0.64187 0.79233 0.17967 0.0
N53 N 0.77697 0.82652 0.19783 0.0
C54 C 0.81383 0.82822 0.21938 0.0
C55 C 0.84755 0.84474 0.21016 0.0
C56 C 0.82844 0.84402 0.19944 0.0
C57 C 0.74431 0.81379 0.20686 0.0
C58 C 0.76185 0.81351 0.21776 0.0
H59 H 0.85549 0.85856 0.19255 0.0
H60 H 0.70406 0.80195 0.20551 0.0
H61 H 0.78637 0.90749 0.16418 0.0
H62 H 0.84717 0.01453 0.19063 0.0
H63 H 0.68238 0.63373 0.19477 0.0
H64 H 0.88824 0.85757 0.21123 0.0
H65 H 0.73513 0.80133 0.22481 0.0
C66 C 0.07807 0.80698 0.19137 0.0
C67 C 0.02671 0.78539 0.1885 0.0
N68 N 0.01852 0.82335 0.1848 0.0
N69 N 0.10254 0.85817 0.18923 0.0
C70 C 0.06492 0.86701 0.18539 0.0
H71 H 0.09696 0.78604 0.19414 0.0
Co72 Co 0.17457 0.90062 0.18842 0.0
C73 C 0.17193 0.98109 0.17322 0.0
O74 O 0.19027 0.97079 0.16412 0.0
N75 N 0.24808 0.94336 0.18736 0.0
C76 C 0.32893 0.009 0.18929 0.0
C77 C 0.2784 0.98859 0.19273 0.0
C78 C 0.28195 0.93691 0.18085 0.0
N79 N 0.331 0.9763 0.18184 0.0
O80 O 0.17176 0.87217 0.17385 0.0
H81 H 0.26492 0.00633 0.19878 0.0
H82 H 0.27133 0.90513 0.17513 0.0
O83 O 0.16652 0.9562 0.18231 0.0
C84 C 0.17521 0.83134 0.17441 0.0
O85 O 0.18689 0.82004 0.1843 0.0
N86 N 0.17515 0.92478 0.20304 0.0
C87 C 0.19026 0.97014 0.22416 0.0
C88 C 0.15719 0.97414 0.21639 0.0
C89 C 0.15011 0.95112 0.20584 0.0
C90 C 0.20331 0.9162 0.21089 0.0
C91 C 0.21246 0.93967 0.22146 0.0
H92 H 0.1255 0.95573 0.19986 0.0
H93 H 0.2215 0.89381 0.20867 0.0
H94 H 0.07153 0.904 0.18237 0.0
H95 H 0.99799 0.74472 0.18871 0.0
H96 H 0.36153 0.04541 0.1919 0.0
H97 H 0.13853 0.99642 0.21835 0.0
H98 H 0.23752 0.93513 0.22737 0.0
C99 C 0.26742 0.21743 0.29719 0.0
C100 C 0.23409 0.23614 0.29886 0.0
N101 N 0.1962 0.2039 0.30593 0.0
N102 N 0.25135 0.17406 0.30333 0.0
C103 C 0.20881 0.16778 0.30883 0.0
H104 H 0.30082 0.23382 0.29168 0.0
Co105 Co 0.28515 0.13538 0.30352 0.0
C106 C 0.20232 0.02582 0.30694 0.0
O107 O 0.22685 0.01236 0.29974 0.0
N108 N 0.32244 0.09738 0.30379 0.0
C109 C 0.36034 0.05124 0.29905 0.0
C110 C 0.33088 0.07165 0.29533 0.0
C111 C 0.34778 0.09119 0.31266 0.0
N112 N 0.37095 0.0635 0.30993 0.0
O113 O 0.30869 0.16074 0.31845 0.0
H114 H 0.31433 0.06434 0.28704 0.0
H115 H 0.34911 0.10617 0.32102 0.0
O116 O 0.22124 0.07367 0.30953 0.0
C117 C 0.34595 0.20716 0.31782 0.0
O118 O 0.3647 0.22577 0.30777 0.0
N119 N 0.26437 0.11633 0.28844 0.0
C120 C 0.23995 0.08215 0.26639 0.0
C121 C 0.20065 0.07031 0.27429 0.0
C122 C 0.21378 0.08865 0.28526 0.0
C123 C 0.30214 0.13614 0.28038 0.0
C124 C 0.2911 0.11773 0.26931 0.0
H125 H 0.1833 0.07945 0.29124 0.0
H126 H 0.34175 0.16223 0.28279 0.0
H127 H 0.18799 0.13812 0.31504 0.0
H128 H 0.23586 0.2693 0.2947 0.0
H129 H 0.3719 0.02783 0.29424 0.0
H130 H 0.16045 0.04507 0.27213 0.0
H131 H 0.32226 0.12921 0.26327 0.0
C132 C 0.85096 0.06468 0.28906 0.0
C133 C 0.83794 0.01427 0.2912 0.0
N134 N 0.85671 0.01237 0.30138 0.0
N135 N 0.87812 0.09458 0.29783 0.0
C136 C 0.88059 0.06142 0.30527 0.0
H137 H 0.84092 0.07856 0.28161 0.0
Co138 Co 0.90513 0.16599 0.29919 0.0
C139 C 1.00075 0.19565 0.31314 0.0
O140 O 0.99034 0.2199 0.32104 0.0
N141 N 0.93362 0.23981 0.30072 0.0
C142 C 0.97918 0.32519 0.29762 0.0
C143 C 0.96289 0.27732 0.29313 0.0
C144 C 0.93376 0.26718 0.3099 0.0
N145 N 0.96111 0.31883 0.30818 0.0
O146 O 0.87256 0.15325 0.31384 0.0
H147 H 0.97588 0.27183 0.28504 0.0
H148 H 0.91675 0.2501 0.31793 0.0
O149 O 0.96901 0.17333 0.3051 0.0
C150 C 0.82867 0.15106 0.31345 0.0
O151 O 0.81713 0.1686 0.3044 0.0
N152 N 0.93155 0.17461 0.28438 0.0
C153 C 0.9717 0.19865 0.26264 0.0
C154 C 0.99217 0.17878 0.27049 0.0
C155 C 0.97084 0.16601 0.2813 0.0
C156 C 0.90734 0.18807 0.27644 0.0
C157 C 0.92767 0.20163 0.26554 0.0
H158 H 0.98662 0.14997 0.28719 0.0
H159 H 0.87428 0.19176 0.27883 0.0
H160 H 0.89945 0.07292 0.31338 0.0
H161 H 0.81595 0.98136 0.28577 0.0
H162 H 1.00522 0.36199 0.29371 0.0
H163 H 0.02476 0.17386 0.26832 0.0
H164 H 0.90994 0.21527 0.25952 0.0
C165 C 0.95952 0.78597 0.2905 0.0
C166 C 0.0103 0.82292 0.29223 0.0
N167 N 0.01356 0.84425 0.30238 0.0
N168 N 0.9309 0.78485 0.29946 0.0
C169 C 0.96522 0.82026 0.30664 0.0
H170 H 0.94446 0.76209 0.28309 0.0
Co171 Co 0.85983 0.74321 0.30125 0.0
C172 C 0.8213 0.81298 0.3094 0.0
O173 O 0.779 0.78427 0.30363 0.0
N174 N 0.78733 0.69859 0.30319 0.0
C175 C 0.7036 0.64157 0.30069 0.0
C176 C 0.75079 0.66971 0.29548 0.0
C177 C 0.7609 0.68622 0.3131 0.0
N178 N 0.71012 0.65205 0.31173 0.0
O179 O 0.87251 0.71732 0.31496 0.0
H180 H 0.75682 0.6681 0.28659 0.0
H181 H 0.77843 0.70233 0.32116 0.0
O182 O 0.85679 0.8005 0.30933 0.0
C183 C 0.8764 0.67713 0.3133 0.0
O184 O 0.86498 0.65533 0.30331 0.0
N185 N 0.85109 0.76697 0.2871 0.0
C186 C 0.86116 0.80052 0.26449 0.0
C187 C 0.86506 0.83277 0.27359 0.0
C188 C 0.86267 0.81634 0.2847 0.0
C189 C 0.84408 0.734 0.27851 0.0
C190 C 0.84654 0.74902 0.2673 0.0
H191 H 0.87319 0.84488 0.29121 0.0
H192 H 0.83845 0.69605 0.28037 0.0
H193 H 0.95508 0.82905 0.31474 0.0
H194 H 0.04196 0.83496 0.28631 0.0
H195 H 0.66721 0.61535 0.2967 0.0
H196 H 0.87035 0.87085 0.27249 0.0
H197 H 0.83733 0.7197 0.26098 0.0
C198 C 0.82335 0.72756 0.80436 0.0
C199 C 0.80169 0.7584 0.80624 0.0
N200 N 0.83659 0.80144 0.81164 0.0
N201 N 0.87152 0.75094 0.80863 0.0
C202 C 0.87831 0.79566 0.81305 0.0
H203 H 0.80405 0.68912 0.80081 0.0
Co204 Co 0.91081 0.71961 0.81147 0.0
C205 C 0.0197 0.80323 0.81021 0.0
O206 O 0.02898 0.77086 0.80455 0.0
N207 N 0.95006 0.68703 0.81513 0.0
C208 C 0.99699 0.6669 0.82648 0.0
C209 C 0.98047 0.70148 0.82439 0.0
C210 C 0.94911 0.64306 0.81174 0.0
N211 N 0.97699 0.62998 0.81858 0.0
O212 O 0.89006 0.7156 0.82706 0.0
H213 H 0.98758 0.73361 0.82976 0.0
H214 H 0.92562 0.61842 0.80502 0.0
O215 O 0.97376 0.78844 0.81383 0.0
C216 C 0.86076 0.67231 0.83185 0.0
O217 O 0.86874 0.63345 0.83003 0.0
N218 N 0.92546 0.72159 0.79576 0.0
C219 C 0.94382 0.72395 0.77259 0.0
C220 C 0.95679 0.76937 0.77844 0.0
C221 C 0.94631 0.76716 0.78994 0.0
C222 C 0.90718 0.67648 0.78991 0.0
C223 C 0.91768 0.67675 0.77837 0.0
H224 H 0.95424 0.80218 0.79409 0.0
H225 H 0.88293 0.6401 0.79406 0.0
H226 H 0.91129 0.8215 0.81809 0.0
H227 H 0.76264 0.74908 0.80419 0.0
H228 H 0.01971 0.66727 0.8336 0.0
H229 H 0.97492 0.80634 0.77414 0.0
H230 H 0.90478 0.64061 0.77397 0.0
C231 C 0.26971 0.06638 0.7975 0.0
C232 C 0.23965 0.01328 0.798 0.0
N233 N 0.19831 1.00175 0.80452 0.0
N234 N 0.24671 0.08775 0.80353 0.0
C235 C 0.20345 0.0473 0.80777 0.0
H236 H 0.30569 0.08812 0.79292 0.0
Co237 Co 0.27133 0.15797 0.80585 0.0
C238 C 0.1702 0.15923 0.80317 0.0
O239 O 0.18675 0.19053 0.7945 0.0
N240 N 0.29772 0.22999 0.80838 0.0
C241 C 0.31973 0.313 0.80643 0.0
C242 C 0.29202 0.26445 0.80196 0.0
C243 C 0.33044 0.25956 0.81664 0.0
N244 N 0.34404 0.30988 0.81561 0.0
O245 O 0.27421 0.14633 0.82165 0.0
H246 H 0.27243 0.2565 0.794 0.0
H247 H 0.34502 0.24496 0.82316 0.0
O248 O 0.19917 0.14441 0.80794 0.0
C249 C 0.31034 0.1372 0.82421 0.0
O250 O 0.34471 0.14438 0.81641 0.0
N251 N 0.27133 0.16733 0.79021 0.0
C252 C 0.27513 0.18907 0.76745 0.0
C253 C 0.23031 0.14844 0.77218 0.0
C254 C 0.22959 0.1374 0.7836 0.0
C255 C 0.31717 0.20259 0.78541 0.0
C256 C 0.31965 0.21516 0.77401 0.0
H257 H 0.19489 0.10617 0.78722 0.0
H258 H 0.35126 0.22311 0.79058 0.0
H259 H 0.17577 0.05092 0.81304 0.0
H260 H 0.24685 0.98537 0.79375 0.0
H261 H 0.3235 0.3483 0.80298 0.0
H262 H 0.19574 0.12674 0.76718 0.0
H263 H 0.35518 0.24599 0.77046 0.0
C264 C 0.89882 0.12045 0.79773 0.0
C265 C 0.95056 0.13592 0.79663 0.0
N266 N 0.96469 0.11877 0.80568 0.0
N267 N 0.88058 0.09326 0.80738 0.0
C268 C 0.92177 0.09297 0.81203 0.0
H269 H 0.8759 0.12843 0.79188 0.0
Co270 Co 0.81368 0.06491 0.81322 0.0
C271 C 0.82894 0.98207 0.82566 0.0
O272 O 0.8548 0.00992 0.83437 0.0
N273 N 0.74616 0.03705 0.81948 0.0
C274 C 0.67525 0.99031 0.82987 0.0
C275 C 0.72175 0.99588 0.82647 0.0
C276 C 0.7134 0.05625 0.81893 0.0
N277 N 0.66998 0.02822 0.82513 0.0
O278 O 0.84302 0.10265 0.82688 0.0
H279 H 0.73665 0.97159 0.82932 0.0
H280 H 0.7217 0.09091 0.81435 0.0
O281 O 0.8159 1.00345 0.81804 0.0
C282 C 0.84922 0.14807 0.82591 0.0
O283 O 0.82986 0.15874 0.81705 0.0
N284 N 0.78671 0.03204 0.79929 0.0
C285 C 0.76018 0.99872 0.77712 0.0
C286 C 0.79296 0.98672 0.78316 0.0
C287 C 0.80604 1.00403 0.7942 0.0
C288 C 0.75453 0.04389 0.79348 0.0
C289 C 0.73994 0.02673 0.78243 0.0
H290 H 0.83424 0.99733 0.79841 0.0
H291 H 0.74222 0.06904 0.79714 0.0
H292 H 0.92068 0.07442 0.81992 0.0
H293 H 0.97572 0.15735 0.78967 0.0
H294 H 0.64758 0.9611 0.83553 0.0
H295 H 0.81001 0.96598 0.77921 0.0
H296 H 0.71529 0.03746 0.77786 0.0
C297 C 0.75121 0.83775 0.70094 0.0
C298 C 0.78134 0.81494 0.69963 0.0
N299 N 0.81337 0.8377 0.69084 0.0
N300 N 0.76481 0.87517 0.69309 0.0
C301 C 0.80219 0.87346 0.68695 0.0
H302 H 0.72167 0.82809 0.70729 0.0
Co303 Co 0.73744 0.91921 0.69115 0.0
C304 C 0.82687 0.0166 0.68244 0.0
O305 O 0.79966 0.01924 0.67404 0.0
N306 N 0.7094 0.96367 0.68926 0.0
C307 C 0.69067 0.02552 0.69321 0.0
C308 C 0.72286 0.00627 0.69555 0.0
C309 C 0.6698 0.9591 0.68282 0.0
N310 N 0.65768 0.9964 0.68508 0.0
O311 O 0.73085 0.90309 0.67538 0.0
H312 H 0.75339 0.02173 0.70175 0.0
H313 H 0.6492 0.92834 0.67682 0.0
O314 O 0.8069 0.97798 0.68914 0.0
C315 C 0.68981 0.86016 0.67363 0.0
O316 O 0.65646 0.84053 0.68199 0.0
N317 N 0.74139 0.93069 0.70674 0.0
C318 C 0.74104 0.9474 0.72975 0.0
C319 C 0.78745 0.96113 0.72411 0.0
C320 C 0.78683 0.95225 0.71256 0.0
C321 C 0.69559 0.91467 0.71222 0.0
C322 C 0.69459 0.92342 0.72375 0.0
H323 H 0.82285 0.96259 0.70833 0.0
H324 H 0.65982 0.89628 0.70752 0.0
H325 H 0.82057 0.89754 0.67971 0.0
H326 H 0.78021 0.78439 0.70476 0.0
H327 H 0.69146 0.05861 0.69716 0.0
H328 H 0.82386 0.97913 0.7286 0.0
H329 H 0.65811 0.91208 0.72792 0.0
C330 C 0.12996 0.89306 0.70521 0.0
C331 C 0.15233 0.94634 0.70501 0.0
N332 N 0.14294 0.95993 0.69485 0.0
N333 N 0.10626 0.8738 0.69526 0.0
C334 C 0.11517 0.91564 0.68917 0.0
H335 H 0.1316 0.87007 0.71208 0.0
Co336 Co 0.0736 0.80709 0.68941 0.0
C337 C 0.96955 0.78683 0.6827 0.0
O338 O 0.95171 0.73979 0.68665 0.0
N339 N 0.04144 0.74018 0.68279 0.0
C340 C 0.01085 0.68324 0.6687 0.0
C341 C 0.03104 0.73409 0.67162 0.0
C342 C 0.02641 0.69159 0.68649 0.0
N343 N 1.00818 0.65665 0.67804 0.0
O344 O 0.11598 0.83529 0.67618 0.0
H345 H 0.03791 0.76499 0.66587 0.0
H346 H 0.02961 0.68137 0.69504 0.0
O347 O 0.01834 0.81849 0.68324 0.0
C348 C 0.15663 0.83132 0.67611 0.0
O349 O 0.16013 0.79977 0.68331 0.0
N350 N 0.03752 0.78179 0.70316 0.0
C351 C 1.00292 0.75523 0.72537 0.0
C352 C 0.98775 0.78455 0.71887 0.0
C353 C 1.00608 0.79811 0.70783 0.0
C354 C 0.0544 0.7553 0.70959 0.0
C355 C 0.03628 0.7401 0.72058 0.0
H356 H 0.99738 0.82429 0.70334 0.0
H357 H 0.08377 0.74762 0.7063 0.0
H358 H 0.1027 0.91395 0.68056 0.0
H359 H 0.17399 0.97293 0.7117 0.0
H360 H 0.99953 0.66694 0.66035 0.0
H361 H 0.96359 0.79855 0.72247 0.0
H362 H 0.0502 0.71896 0.72551 0.0
C363 C 0.10264 0.23295 0.70333 0.0
C364 C 0.04936 0.20357 0.70408 0.0
N365 N 0.03203 0.1754 0.6946 0.0
N366 N 0.11845 0.22261 0.69348 0.0
C367 C 0.07441 0.1875 0.68837 0.0
H368 H 0.12812 0.26047 0.70949 0.0
Co369 Co 0.18459 0.25286 0.68704 0.0
C370 C 0.2015 0.16511 0.68237 0.0
O371 O 0.24875 0.19489 0.68611 0.0
N372 N 0.25073 0.28429 0.67988 0.0
C373 C 0.30752 0.30074 0.66596 0.0
C374 C 0.25788 0.26888 0.66962 0.0
C375 C 0.29655 0.32774 0.68195 0.0
N376 N 0.33178 0.33771 0.67373 0.0
O377 O 0.15598 0.26395 0.67371 0.0
H378 H 0.22806 0.23732 0.66484 0.0
H379 H 0.30347 0.35396 0.68882 0.0
O380 O 0.17076 0.18361 0.68196 0.0
C381 C 0.16257 0.30946 0.67311 0.0
O382 O 0.19636 0.34537 0.67981 0.0
N383 N 0.21087 0.2444 0.70083 0.0
C384 C 0.24322 0.23571 0.72225 0.0
C385 C 0.20671 0.19179 0.71655 0.0
C386 C 0.19009 0.19708 0.70596 0.0
C387 C 0.24395 0.28779 0.70664 0.0
C388 C 0.26194 0.2843 0.71727 0.0
H389 H 0.15884 0.16313 0.70212 0.0
H390 H 0.25407 0.32532 0.70337 0.0
H391 H 0.07323 0.17162 0.68012 0.0
H392 H 0.02529 0.20276 0.71101 0.0
H393 H 0.3237 0.29897 0.6579 0.0
H394 H 0.18979 0.15396 0.72045 0.0
H395 H 0.28823 0.31914 0.72178 0.0
C396 C 0.86193 0.60187 0.52833 0.0
C397 C 0.87644 0.56466 0.52806 0.0
N398 N 0.8338 0.51832 0.52654 0.0
N399 N 0.81041 0.57943 0.52679 0.0
C400 C 0.79432 0.52825 0.52588 0.0
H401 H 0.88767 0.6429 0.52931 0.0
Co402 Co 0.77353 0.61509 0.5246 0.0
C403 C 0.67722 0.53257 0.51324 0.0
O404 O 0.67868 0.56124 0.5047 0.0
N405 N 0.73559 0.6503 0.52226 0.0
C406 C 0.6718 0.66889 0.52344 0.0
C407 C 0.68993 0.63744 0.5273 0.0
C408 C 0.74415 0.68995 0.51529 0.0
N409 N 0.70593 0.70194 0.51591 0.0
O410 O 0.79906 0.62854 0.50926 0.0
H411 H 0.66996 0.60589 0.53319 0.0
H412 H 0.77659 0.70857 0.50956 0.0
O413 O 0.71227 0.5507 0.52074 0.0
C414 C 0.84417 0.66853 0.50868 0.0
O415 O 0.8609 0.69933 0.51746 0.0
N416 N 0.75376 0.60501 0.5399 0.0
C417 C 0.72811 0.59768 0.56273 0.0
C418 C 0.71375 0.55309 0.55633 0.0
C419 C 0.72658 0.55753 0.54488 0.0
C420 C 0.76986 0.64882 0.54611 0.0
C421 C 0.75641 0.64603 0.55749 0.0
H422 H 0.71472 0.5227 0.54009 0.0
H423 H 0.79235 0.68618 0.54212 0.0
H424 H 0.75463 0.49859 0.52454 0.0
H425 H 0.91529 0.57102 0.52896 0.0
H426 H 0.63535 0.66638 0.52564 0.0
H427 H 0.69226 0.51513 0.56013 0.0
H428 H 0.76831 0.68128 0.56218 0.0
C429 C 0.43025 0.27039 0.53161 0.0
C430 C 0.46285 0.323 0.53154 0.0
N431 N 0.50884 0.33426 0.52685 0.0
N432 N 0.45391 0.24747 0.52658 0.0
C433 C 0.5001 0.28734 0.52321 0.0
H434 H 0.39071 0.25021 0.5346 0.0
Co435 Co 0.42212 0.17631 0.52311 0.0
C436 C 0.53374 0.19936 0.52654 0.0
O437 O 0.54488 0.23606 0.53387 0.0
N438 N 0.39095 0.10533 0.51906 0.0
C439 C 0.37722 0.02475 0.51799 0.0
C440 C 0.40916 0.07353 0.52207 0.0
C441 C 0.34763 0.07455 0.51309 0.0
N442 N 0.33859 0.02547 0.51239 0.0
O443 O 0.42174 0.19538 0.50756 0.0
H444 H 0.44316 0.08469 0.52714 0.0
H445 H 0.32319 0.08756 0.50934 0.0
O446 O 0.48979 0.17761 0.52158 0.0
C447 C 0.38254 0.20178 0.50646 0.0
O448 O 0.34926 0.18734 0.51484 0.0
N449 N 0.41659 0.15805 0.53889 0.0
C450 C 0.40972 0.12267 0.56093 0.0
C451 C 0.44835 0.17224 0.55793 0.0
C452 C 0.45024 0.18973 0.54694 0.0
C453 C 0.37414 0.11289 0.54232 0.0
C454 C 0.37077 0.09364 0.55321 0.0
H455 H 0.47882 0.22897 0.54512 0.0
H456 H 0.34276 0.0905 0.53661 0.0
H457 H 0.52553 0.28195 0.51757 0.0
H458 H 0.45092 0.35012 0.53412 0.0
H459 H 0.38223 0.99142 0.5189 0.0
H460 H 0.47735 0.19689 0.56397 0.0
H461 H 0.33868 0.05618 0.55551 0.0
C462 C 0.76762 0.15765 0.53684 0.0
C463 C 0.71454 0.13511 0.53645 0.0
N464 N 0.70241 0.15966 0.52851 0.0
N465 N 0.78881 0.19555 0.52905 0.0
C466 C 0.74791 0.19381 0.52375 0.0
H467 H 0.78945 0.1481 0.54267 0.0
Co468 Co 0.85896 0.24033 0.52581 0.0
C469 C 0.81698 0.31799 0.52702 0.0
O470 O 0.77309 0.28728 0.5321 0.0
N471 N 0.93057 0.28594 0.52224 0.0
C472 C 0.01125 0.34918 0.52531 0.0
C473 C 0.9602 0.33027 0.52793 0.0
C474 C 0.96504 0.28123 0.51551 0.0
N475 N 0.01462 0.31893 0.51734 0.0
O476 O 0.84223 0.22063 0.51035 0.0
H477 H 0.94607 0.34611 0.53427 0.0
H478 H 0.95475 0.2501 0.50961 0.0
O479 O 0.84887 0.3024 0.52431 0.0
C480 C 0.84515 0.17998 0.50836 0.0
O481 O 0.87543 0.17049 0.51473 0.0
N482 N 0.87411 0.25311 0.54137 0.0
C483 C 0.91017 0.28517 0.56303 0.0
C484 C 0.86464 0.28304 0.55945 0.0
C485 C 0.84678 0.26604 0.54861 0.0
C486 C 0.91419 0.24778 0.54535 0.0
C487 C 0.93414 0.26538 0.5561 0.0
H488 H 0.81153 0.26412 0.54609 0.0
H489 H 0.93323 0.23339 0.53987 0.0
H490 H 0.75157 0.21992 0.51702 0.0
H491 H 0.68731 0.10641 0.54226 0.0
H492 H 0.04369 0.38244 0.52912 0.0
H493 H 0.84419 0.29624 0.56485 0.0
H494 H 0.96865 0.26516 0.55882 0.0
C495 C 0.93957 0.51888 0.63619 0.0
C496 C 0.90789 0.54013 0.63728 0.0
N497 N 0.86054 0.50335 0.64096 0.0
N498 N 0.91337 0.46924 0.63947 0.0
C499 C 0.86698 0.46212 0.64283 0.0
H500 H 0.9801 0.53925 0.63392 0.0
Co501 Co 0.93796 0.4235 0.64238 0.0
C502 C 0.82759 0.34632 0.63501 0.0
O503 O 0.82447 0.37558 0.62721 0.0
N504 N 0.96108 0.37671 0.64599 0.0
C505 C 0.96886 0.30617 0.64606 0.0
C506 C 0.93978 0.32724 0.64236 0.0
C507 C 1.00312 0.38468 0.6519 0.0
N508 N 1.00863 0.34245 0.65198 0.0
O509 O 0.92767 0.43113 0.658 0.0
H510 H 0.90631 0.308 0.63698 0.0
H511 H 0.02994 0.42086 0.65585 0.0
O512 O 0.86793 0.36268 0.64115 0.0
C513 C 0.96732 0.47187 0.66151 0.0
O514 O 1.00776 0.49403 0.65477 0.0
N515 N 0.95273 0.42023 0.62669 0.0
C516 C 0.96279 0.39148 0.60503 0.0
C517 C 0.92824 0.40915 0.60721 0.0
C518 C 0.92512 0.42516 0.61808 0.0
C519 C 0.9936 0.41325 0.62402 0.0
C520 C 0.99831 0.39698 0.61329 0.0
H521 H 0.89972 0.44047 0.61947 0.0
H522 H 0.02149 0.41748 0.63029 0.0
H523 H 0.83965 0.42821 0.64744 0.0
H524 H 0.92148 0.58073 0.63622 0.0
H525 H 0.96201 0.26761 0.64438 0.0
H526 H 0.90252 0.4086 0.60072 0.0
H527 H 0.02761 0.38646 0.61162 0.0
C528 C 0.53111 0.43996 0.63471 0.0
C529 C 0.50949 0.38698 0.63458 0.0
N530 N 0.53821 0.37428 0.64117 0.0
N531 N 0.57318 0.46053 0.64137 0.0
C532 C 0.57667 0.41953 0.64512 0.0
H533 H 0.51551 0.46185 0.63074 0.0
Co534 Co 0.6064 0.52779 0.64686 0.0
C535 C 0.68733 0.51151 0.65972 0.0
O536 O 0.66778 0.49941 0.66993 0.0
N537 N 0.63935 0.59566 0.65281 0.0
C538 C 0.67053 0.6564 0.66609 0.0
C539 C 0.65631 0.60626 0.66356 0.0
C540 C 0.6443 0.64079 0.64895 0.0
N541 N 0.66327 0.67816 0.6569 0.0
O542 O 0.5684 0.49993 0.66063 0.0
H543 H 0.65492 0.57829 0.66952 0.0
H544 H 0.6314 0.64572 0.64079 0.0
O545 O 0.66387 0.52064 0.6519 0.0
C546 C 0.53227 0.50945 0.66303 0.0
O547 O 0.53553 0.55243 0.65931 0.0
N548 N 0.6391 0.55195 0.63272 0.0
C549 C 0.67005 0.57397 0.61017 0.0
C550 C 0.69223 0.55304 0.61731 0.0
C551 C 0.67634 0.54232 0.62854 0.0
C552 C 0.61659 0.57162 0.62583 0.0
C553 C 0.63248 0.58429 0.6146 0.0
H554 H 0.69244 0.52371 0.63356 0.0
H555 H 0.58476 0.57578 0.62895 0.0
H556 H 0.6046 0.42212 0.65121 0.0
H557 H 0.47447 0.35968 0.63028 0.0
H558 H 0.6823 0.67461 0.67425 0.0
H559 H 0.7207 0.54373 0.61412 0.0
H560 H 0.61394 0.59975 0.60928 0.0
C561 C 0.58033 0.06831 0.6348 0.0
C562 C 0.63277 0.10109 0.63345 0.0
N563 N 0.64367 0.14859 0.63675 0.0
N564 N 0.55869 0.09509 0.63904 0.0
C565 C 0.59845 0.14385 0.6402 0.0
H566 H 0.55928 0.02755 0.63284 0.0
Co567 Co 0.4891 0.06831 0.64278 0.0
C568 C 0.4857 0.16325 0.65106 0.0
O569 O 0.45429 0.13849 0.65948 0.0
N570 N 0.4184 0.04007 0.64666 0.0
C571 C 0.33674 0.02351 0.64702 0.0
C572 C 0.38559 0.05572 0.64292 0.0
C573 C 0.38799 0.99738 0.6529 0.0
N574 N 0.33832 0.98683 0.65326 0.0
O575 O 0.50682 0.06452 0.65824 0.0
H576 H 0.39581 0.08756 0.63728 0.0
H577 H 0.40156 0.97402 0.65699 0.0
O578 O 0.50089 0.13924 0.64457 0.0
C579 C 0.5114 0.0248 0.66009 0.0
O580 O 0.49758 0.99035 0.65201 0.0
N581 N 0.47352 0.0696 0.62749 0.0
C582 C 0.44546 0.07166 0.6053 0.0
C583 C 0.48675 0.11538 0.61009 0.0
C584 C 0.50065 0.11337 0.62118 0.0
C585 C 0.43554 0.02547 0.62267 0.0
C586 C 0.4203 0.02581 0.61155 0.0
H587 H 0.53222 0.14779 0.62478 0.0
H588 H 0.41591 0.99027 0.62758 0.0
H589 H 0.59479 0.17566 0.64349 0.0
H590 H 0.66063 0.09114 0.63019 0.0
H591 H 0.30243 0.0262 0.64542 0.0
H592 H 0.50739 0.15108 0.60536 0.0
H593 H 0.38875 0.99114 0.60794 0.0
C594 C 0.51322 0.08856 0.12623 0.0
C595 C 0.49067 0.11932 0.12687 0.0
N596 N 0.50642 0.14658 0.1365 0.0
N597 N 0.5433 0.09713 0.13537 0.0
C598 C 0.53783 0.13232 0.14148 0.0
H599 H 0.50762 0.06134 0.11961 0.0
Co600 Co 0.58144 0.06633 0.14013 0.0
C601 C 0.68698 0.15479 0.14254 0.0
O602 O 0.70239 0.12726 0.13676 0.0
N603 N 0.61889 0.0346 0.1458 0.0
C604 C 0.66807 0.02109 0.15789 0.0
C605 C 0.65198 0.05448 0.15457 0.0
C606 C 0.61238 0.98634 0.14464 0.0
N607 N 0.6428 0.97781 0.15177 0.0
O608 O 0.54735 0.05469 0.15444 0.0
H609 H 0.66074 0.08927 0.15909 0.0
H610 H 0.58258 0.95638 0.13954 0.0
O611 O 0.63859 0.13539 0.14471 0.0
C612 C 0.50816 0.00971 0.15567 0.0
O613 O 0.50182 0.97306 0.14863 0.0
N614 N 0.61093 0.07581 0.12539 0.0
C615 C 0.64615 0.0886 0.10313 0.0
C616 C 0.64869 0.13009 0.10909 0.0
C617 C 0.63019 0.12276 0.12012 0.0
C618 C 0.60651 0.0345 0.11951 0.0
C619 C 0.62468 0.04022 0.10839 0.0
H620 H 0.63074 0.15502 0.12439 0.0
H621 H 0.58733 0.99654 0.12322 0.0
H622 H 0.55544 0.1463 0.14962 0.0
H623 H 0.46436 0.12108 0.12086 0.0
H624 H 0.69185 0.02573 0.16515 0.0
H625 H 0.66401 0.16771 0.10516 0.0
H626 H 0.62095 0.00704 0.10386 0.0
C627 C 0.91098 0.42514 0.12748 0.0
C628 C 0.87758 0.37251 0.12717 0.0
N629 N 0.84252 0.36045 0.13548 0.0
N630 N 0.89615 0.44564 0.13584 0.0
C631 C 0.85452 0.40525 0.14055 0.0
H632 H 0.94435 0.44696 0.12211 0.0
Co633 Co 0.9276 0.51327 0.14092 0.0
C634 C 0.82847 0.50144 0.15111 0.0
O635 O 0.83692 0.48914 0.16118 0.0
N636 N 0.9597 0.58138 0.1463 0.0
C637 C 0.9761 0.65841 0.15251 0.0
C638 C 0.93863 0.61142 0.14855 0.0
C639 C 0.01036 0.61155 0.14878 0.0
N640 N 0.0212 0.65853 0.15261 0.0
O641 O 0.9291 0.48804 0.15584 0.0
H642 H 0.8988 0.60085 0.14731 0.0
H643 H 0.03881 0.59942 0.14772 0.0
O644 O 0.86008 0.50753 0.14321 0.0
C645 C 0.96329 0.47441 0.15673 0.0
O646 O 0.99557 0.48477 0.14827 0.0
N647 N 0.92797 0.53653 0.12612 0.0
C648 C 0.92732 0.57017 0.10431 0.0
C649 C 0.88305 0.52829 0.10883 0.0
C650 C 0.88427 0.51182 0.11972 0.0
C651 C 0.97229 0.57597 0.12161 0.0
C652 C 0.9726 0.59406 0.11072 0.0
H653 H 0.84964 0.47913 0.12305 0.0
H654 H 1.00765 0.59358 0.12641 0.0
H655 H 0.83376 0.40829 0.14771 0.0
H656 H 0.87987 0.345 0.12159 0.0
H657 H 0.97095 0.69051 0.15497 0.0
H658 H 0.84773 0.50861 0.10398 0.0
H659 H 1.00773 0.626 0.1073 0.0
C660 C 0.56064 0.46483 0.13002 0.0
C661 C 0.61368 0.48663 0.12996 0.0
N662 N 0.62734 0.46763 0.13881 0.0
N663 N 0.54119 0.43313 0.139 0.0
C664 C 0.58263 0.43543 0.14411 0.0
H665 H 0.538 0.4737 0.12428 0.0
Co666 Co 0.4742 0.40179 0.14468 0.0
C667 C 0.45014 0.29476 0.14949 0.0
O668 O 0.40451 0.28008 0.14508 0.0
N669 N 0.40668 0.37211 0.15107 0.0
C670 C 0.34566 0.33764 0.16443 0.0
C671 C 0.39363 0.34686 0.16109 0.0
C672 C 0.36649 0.38004 0.14884 0.0
N673 N 0.32875 0.35851 0.15672 0.0
O674 O 0.5019 0.44083 0.15818 0.0
H675 H 0.41867 0.3381 0.16604 0.0
H676 H 0.36614 0.40448 0.14219 0.0
O677 O 0.48216 0.34339 0.15035 0.0
C678 C 0.50048 0.48282 0.15842 0.0
O679 O 0.47227 0.49008 0.15096 0.0
N680 N 0.44981 0.36763 0.13064 0.0
C681 C 0.43169 0.33634 0.10816 0.0
C682 C 0.46352 0.32539 0.11481 0.0
C683 C 0.47267 0.34194 0.12595 0.0
C684 C 0.41936 0.37932 0.12414 0.0
C685 C 0.40858 0.36278 0.11294 0.0
H686 H 0.50128 0.3372 0.1305 0.0
H687 H 0.40668 0.40501 0.12722 0.0
H688 H 0.5806 0.41688 0.15204 0.0
H689 H 0.64031 0.51523 0.12406 0.0
H690 H 0.32581 0.31944 0.17221 0.0
H691 H 0.48332 0.30652 0.11124 0.0
H692 H 0.38524 0.37345 0.10786 0.0
C693 C 0.43755 0.18455 0.03002 0.0
C694 C 0.47098 0.1659 0.02806 0.0
N695 N 0.50373 0.19442 0.01977 0.0
N696 N 0.44993 0.22495 0.02309 0.0
C697 C 0.48972 0.22922 0.0168 0.0
H698 H 0.40701 0.17039 0.03627 0.0
Co699 Co 0.41887 0.26579 0.02196 0.0
C700 C 0.51302 0.37369 0.0209 0.0
O701 O 0.49226 0.39215 0.0279 0.0
N702 N 0.38576 0.30708 0.02066 0.0
C703 C 0.35464 0.35994 0.02462 0.0
C704 C 0.38479 0.34028 0.02837 0.0
C705 C 0.35468 0.30715 0.01232 0.0
N706 N 0.33544 0.33882 0.01458 0.0
O707 O 0.40516 0.24543 0.00649 0.0
H708 H 0.40443 0.35006 0.03638 0.0
H709 H 0.34584 0.28438 0.00472 0.0
O710 O 0.48778 0.32613 0.01793 0.0
C711 C 0.36449 0.20103 0.00626 0.0
O712 O 0.3383 0.18464 0.01575 0.0
N713 N 0.42789 0.2786 0.03746 0.0
C714 C 0.42738 0.29107 0.06064 0.0
C715 C 0.47424 0.30999 0.05477 0.0
C716 C 0.47364 0.30279 0.04313 0.0
C717 C 0.38214 0.25587 0.04323 0.0
C718 C 0.38089 0.2628 0.05481 0.0
H719 H 0.50976 0.31665 0.03875 0.0
H720 H 0.34626 0.2341 0.03868 0.0
H721 H 0.50918 0.25826 0.01034 0.0
H722 H 0.47259 0.13538 0.03265 0.0
H723 H 0.34705 0.38742 0.02895 0.0
H724 H 0.51082 0.33076 0.05914 0.0
H725 H 0.34408 0.24686 0.05915 0.0
C726 C 0.85231 0.26434 0.0306 0.0
C727 C 0.87697 0.31758 0.03017 0.0
N728 N 0.85498 0.33138 0.02197 0.0
N729 N 0.81493 0.24476 0.02272 0.0
C730 C 0.81837 0.28656 0.01745 0.0
H731 H 0.86062 0.24134 0.03636 0.0
Co732 Co 0.76967 0.1753 0.01939 0.0
C733 C 0.6848 0.18398 0.00803 0.0
O734 O 0.68507 0.15541 -0.00035 0.0
N735 N 0.72434 0.10512 0.01595 0.0
C736 C 0.65465 0.0265 0.0154 0.0
C737 C 0.67347 0.07716 0.01856 0.0
C738 C 0.73568 0.07037 0.01137 0.0
N739 N 0.69393 0.02235 0.01095 0.0
O740 O 0.79515 0.1895 0.00415 0.0
H741 H 0.65154 0.09247 0.02267 0.0
H742 H 0.77376 0.07979 0.00843 0.0
O743 O 0.71559 0.19233 0.01621 0.0
C744 C 0.83816 0.19017 0.00344 0.0
O745 O 0.85364 0.17612 0.01246 0.0
N746 N 0.74849 0.16189 0.03455 0.0
C747 C 0.71781 0.13576 0.05691 0.0
C748 C 0.71056 0.17318 0.05141 0.0
C749 C 0.72657 0.18604 0.04022 0.0
C750 C 0.75749 0.12672 0.03993 0.0
C751 C 0.74196 0.11267 0.05111 0.0
H752 H 0.7217 0.21564 0.03617 0.0
H753 H 0.77625 0.10897 0.03544 0.0
H754 H 0.7946 0.28431 0.01037 0.0
H755 H 0.90763 0.34417 0.03566 0.0
H756 H 0.61527 0.99509 0.01629 0.0
H757 H 0.69265 0.19222 0.05575 0.0
H758 H 0.74853 0.08396 0.05518 0.0
C759 C 0.77927 0.61256 0.02728 0.0
C760 C 0.72693 0.57873 0.02653 0.0
N761 N 0.71967 0.53895 0.01995 0.0
N762 N 0.80487 0.59385 0.02131 0.0
C763 C 0.76743 0.54923 0.01678 0.0
H764 H 0.79769 0.64795 0.0321 0.0
Co765 Co 0.8768 0.62467 0.02032 0.0
C766 C 0.89577 0.53904 0.01273 0.0
O767 O 0.93425 0.57007 0.00612 0.0
N768 N 0.95073 0.65673 0.01927 0.0
C769 C 0.03267 0.6812 0.02356 0.0
C770 C 0.98189 0.65002 0.02653 0.0
C771 C 0.98432 0.69182 0.01174 0.0
N772 N 0.03426 0.70719 0.01419 0.0
O773 O 0.87134 0.6352 0.00457 0.0
H774 H 0.96912 0.62503 0.0338 0.0
H775 H 0.97283 0.70641 0.00463 0.0
O776 O 0.87043 0.5563 0.01815 0.0
C777 C 0.86973 0.67715 0.00413 0.0
O778 O 0.87977 0.70368 0.01354 0.0
N779 N 0.87946 0.61807 0.03595 0.0
C780 C 0.89327 0.61244 0.05885 0.0
C781 C 0.85987 0.56788 0.05284 0.0
C782 C 0.85278 0.57167 0.04135 0.0
C783 C 0.90744 0.6625 0.04193 0.0
C784 C 0.91592 0.66047 0.05343 0.0
H785 H 0.82734 0.53703 0.03674 0.0
H786 H 0.92579 0.69935 0.03761 0.0
H787 H 0.77492 0.52391 0.01157 0.0
H788 H 0.69651 0.58232 0.03068 0.0
H789 H 0.06605 0.68449 0.0279 0.0
H790 H 0.84092 0.53038 0.05691 0.0
H791 H 0.94113 0.69563 0.05796 0.0
C792 C 0.50517 0.9175 0.85465 0.0
C793 C 0.52374 0.88418 0.85317 0.0
N794 N 0.48322 0.83598 0.8529 0.0
N795 N 0.45291 0.89059 0.85525 0.0
C796 C 0.44077 0.84056 0.8543 0.0
H797 H 0.52879 0.95879 0.85557 0.0
Co798 Co 0.41016 0.92058 0.85637 0.0
C799 C 0.33094 0.838 0.85053 0.0
O800 O 0.3353 0.8399 0.86156 0.0
N801 N 0.36773 0.95079 0.85684 0.0
C802 C 0.31202 0.97486 0.86282 0.0
C803 C 0.33269 0.94345 0.86492 0.0
C804 C 0.36635 0.98546 0.8497 0.0
N805 N 0.33298 1.00084 0.85319 0.0
O806 O 0.45722 0.97141 0.84512 0.0
H807 H 0.32297 0.91705 0.87189 0.0
H808 H 0.39001 1.00012 0.8422 0.0
O809 O 0.36626 0.87503 0.84473 0.0
C810 C 0.49709 0.01672 0.84506 0.0
O811 O 0.51174 0.04238 0.85454 0.0
N812 N 0.44684 0.95922 0.86955 0.0
C813 C 0.44548 0.97987 0.8925 0.0
C814 C 0.45353 0.93983 0.889 0.0
C815 C 0.45286 0.92942 0.87754 0.0
C816 C 0.44665 1.0031 0.87294 0.0
C817 C 0.44519 0.01372 0.88439 0.0
H818 H 0.4499 0.89298 0.8754 0.0
H819 H 0.44033 0.02652 0.86695 0.0
H820 H 0.40201 0.80797 0.85488 0.0
H821 H 0.56396 0.89425 0.85274 0.0
H822 H 0.2837 0.97828 0.86792 0.0
H823 H 0.45308 0.91249 0.89508 0.0
H824 H 0.43847 0.04485 0.88683 0.0
C825 C 0.06634 0.58314 0.84885 0.0
C826 C 0.09834 0.63423 0.84624 0.0
N827 N 0.14733 0.64591 0.84819 0.0
N828 N 0.09482 0.56162 0.85205 0.0
C829 C 0.14423 0.60133 0.85175 0.0
H830 H 0.02471 0.56266 0.8482 0.0
Co831 Co 0.06438 0.48972 0.854 0.0
C832 C 0.15158 0.46758 0.85505 0.0
O833 O 0.12781 0.43619 0.86348 0.0
N834 N 0.02985 0.41482 0.85575 0.0
C835 C 0.99403 0.33423 0.86276 0.0
C836 C 0.02333 0.38594 0.86514 0.0
C837 C 1.00281 0.37836 0.84782 0.0
N838 N 0.98038 0.32956 0.8519 0.0
O839 O 0.04875 0.48336 0.83822 0.0
H840 H 0.03992 0.40062 0.8733 0.0
H841 H 0.99933 0.38668 0.83912 0.0
O842 O 0.13154 0.49278 0.85063 0.0
C843 C 1.00403 0.47625 0.83585 0.0
O844 O 0.96977 0.46055 0.84406 0.0
N845 N 0.07777 0.49969 0.86954 0.0
C846 C 0.0881 0.49929 0.89275 0.0
C847 C 0.13198 0.52366 0.88583 0.0
C848 C 0.12598 0.52386 0.87419 0.0
C849 C 0.03516 0.48324 0.87625 0.0
C850 C 0.03923 0.48098 0.88794 0.0
H851 H 0.16019 0.54145 0.86898 0.0
H852 H 0.99738 0.46737 0.87243 0.0
H853 H 0.17741 0.59799 0.854 0.0
H854 H 0.08665 0.66118 0.8433 0.0
H855 H 0.98318 0.30244 0.86857 0.0
H856 H 0.1704 0.5397 0.88936 0.0
H857 H 1.00459 0.46295 0.89309 0.0
C858 C 0.42003 0.51161 0.8719 0.0
C859 C 0.36783 0.49581 0.87217 0.0
N860 N 0.35554 0.51001 0.86239 0.0
N861 N 0.44018 0.53589 0.86202 0.0
C862 C 0.3998 0.53387 0.85642 0.0
H863 H 0.4417 0.50549 0.87842 0.0
Co864 Co 0.50659 0.56578 0.85584 0.0
C865 C 0.53312 0.67416 0.85115 0.0
O866 O 0.58244 0.68941 0.85228 0.0
N867 N 0.57266 0.59585 0.84866 0.0
C868 C 0.62678 0.6312 0.83409 0.0
C869 C 0.57731 0.61278 0.83789 0.0
C870 C 0.62037 0.60301 0.85105 0.0
N871 N 0.65382 0.62507 0.84236 0.0
O872 O 0.47602 0.52793 0.84234 0.0
H873 H 0.54624 0.61182 0.83302 0.0
H874 H 0.63066 0.59103 0.85872 0.0
O875 O 0.49942 0.62582 0.85135 0.0
C876 C 0.47777 0.48609 0.84247 0.0
O877 O 0.50441 0.47924 0.85041 0.0
N878 N 0.53465 0.59743 0.86981 0.0
C879 C 0.56865 0.6329 0.89157 0.0
C880 C 0.53482 0.64528 0.88611 0.0
C881 C 0.51752 0.62639 0.87531 0.0
C882 C 0.56416 0.58158 0.87543 0.0
C883 C 0.58306 0.6002 0.88621 0.0
H884 H 0.48902 0.63391 0.87154 0.0
H885 H 0.57133 0.55267 0.87174 0.0
H886 H 0.40258 0.54921 0.84802 0.0
H887 H 0.34081 0.47473 0.87889 0.0
H888 H 0.64148 0.64619 0.82575 0.0
H889 H 0.5213 0.66876 0.89024 0.0
H890 H 0.60726 0.58797 0.89046 0.0
C891 C 0.61518 0.84809 0.96123 0.0
C892 C 0.5825 0.86842 0.96197 0.0
N893 N 0.55289 0.84863 0.97124 0.0
N894 N 0.60521 0.81513 0.96991 0.0
C895 C 0.56742 0.81681 0.97588 0.0
H896 H 0.64315 0.85555 0.95463 0.0
Co897 Co 0.63232 0.77275 0.9738 0.0
C898 C 0.53073 0.68583 0.98398 0.0
O899 O 0.54836 0.688 0.99422 0.0
N900 N 0.66013 0.72965 0.97818 0.0
C901 C 0.66995 0.6645 0.98447 0.0
C902 C 0.63508 0.67929 0.98128 0.0
C903 C 0.71083 0.74359 0.97912 0.0
N904 N 0.71776 0.70488 0.98309 0.0
O905 O 0.63994 0.79996 0.98889 0.0
H906 H 0.59409 0.65357 0.98121 0.0
H907 H 0.74233 0.78146 0.97692 0.0
O908 O 0.56118 0.7166 0.97646 0.0
C909 C 0.68302 0.84053 0.99104 0.0
O910 O 0.72446 0.8482 0.98552 0.0
N911 N 0.62671 0.75021 0.95871 0.0
C912 C 0.61813 0.7156 0.93659 0.0
C913 C 0.57651 0.71618 0.94187 0.0
C914 C 0.58173 0.73409 0.95289 0.0
C915 C 0.66865 0.75274 0.95342 0.0
C916 C 0.66494 0.73473 0.94238 0.0
H917 H 0.5491 0.73438 0.9568 0.0
H918 H 0.70523 0.7687 0.95771 0.0
H919 H 0.54915 0.79339 0.98327 0.0
H920 H 0.57909 0.89377 0.95595 0.0
H921 H 0.6609 0.62666 0.98749 0.0
H922 H 0.54005 0.70234 0.93754 0.0
H923 H 0.69814 0.73568 0.9384 0.0
C924 C 0.21927 0.79496 0.9584 0.0
C925 C 0.19259 0.74144 0.95842 0.0
N926 N 0.20739 0.7254 0.96755 0.0
N927 N 0.25098 0.81208 0.96742 0.0
C928 C 0.24257 0.76865 0.97278 0.0
H929 H 0.21477 0.81974 0.95241 0.0
Co930 Co 0.29075 0.87933 0.97312 0.0
C931 C 0.36733 0.85122 0.98386 0.0
O932 O 0.34606 0.83816 0.99391 0.0
N933 N 0.32947 0.94628 0.97911 0.0
C934 C 0.39053 0.01835 0.98707 0.0
C935 C 0.37842 0.97053 0.98304 0.0
C936 C 0.3131 0.98079 0.98066 0.0
N937 N 0.3496 0.02502 0.9855 0.0
O938 O 0.25811 0.85393 0.98764 0.0
H939 H 0.40439 0.95521 0.98295 0.0
H940 H 0.27503 0.97355 0.9783 0.0
O941 O 0.34736 0.86595 0.97626 0.0
C942 C 0.21139 0.84453 0.98796 0.0
O943 O 0.19341 0.85666 0.97907 0.0
N944 N 0.32015 0.90419 0.95875 0.0
C945 C 0.36422 0.94308 0.93773 0.0
C946 C 0.36634 0.90126 0.94242 0.0
C947 C 0.34389 0.88224 0.95292 0.0
C948 C 0.31646 0.94411 0.95412 0.0
C949 C 0.33913 0.96486 0.94366 0.0
H950 H 0.34464 0.84904 0.95623 0.0
H951 H 0.29546 0.95975 0.95845 0.0
H952 H 0.26148 0.76852 0.9805 0.0
H953 H 0.16394 0.71637 0.95238 0.0
H954 H 0.42682 0.04637 0.99079 0.0
H955 H 0.38434 0.88282 0.93788 0.0
H956 H 0.33571 0.99639 0.94007 0.0
C957 C 0.26049 0.46402 0.96037 0.0
C958 C 0.31358 0.49508 0.96068 0.0
N959 N 0.32607 0.52842 0.96936 0.0
N960 N 0.23966 0.47684 0.96899 0.0
C961 C 0.28033 0.51645 0.97416 0.0
H962 H 0.2389 0.43156 0.95481 0.0
Co963 Co 0.17265 0.43946 0.97475 0.0
C964 C 0.14564 0.51981 0.98079 0.0
O965 O 0.09928 0.48819 0.97683 0.0
N966 N 0.10522 0.40049 0.98122 0.0
C967 C 0.04581 0.37391 0.99493 0.0
C968 C 0.09552 0.40942 0.99189 0.0
C969 C 0.06063 0.35756 0.97813 0.0
N970 N 0.02397 0.34147 0.98626 0.0
O971 O 0.20146 0.42635 0.98805 0.0
H972 H 0.12354 0.43935 0.99731 0.0
H973 H 0.05519 0.33641 0.97043 0.0
O974 O 0.17891 0.50432 0.98097 0.0
C975 C 0.20503 0.38559 0.98708 0.0
O976 O 0.1837 0.35546 0.97833 0.0
N977 N 0.14724 0.4502 0.96101 0.0
C978 C 0.12051 0.46331 0.93924 0.0
C979 C 0.15258 0.50616 0.94584 0.0
C980 C 0.16612 0.4988 0.95662 0.0
C981 C 0.11862 0.40821 0.95438 0.0
C982 C 0.10305 0.41373 0.94363 0.0
H983 H 0.19422 0.53239 0.96116 0.0
H984 H 0.1107 0.3705 0.95709 0.0
H985 H 0.27687 0.53338 0.98188 0.0
H986 H 0.341 0.49175 0.95524 0.0
H987 H 0.02765 0.37077 0.00303 0.0
H988 H 0.16863 0.54498 0.94251 0.0
H989 H 0.08025 0.3798 0.93851 0.0
C990 C 0.1539 0.41115 0.47199 0.0
C991 C 0.1353 0.44468 0.47378 0.0
N992 N 0.17406 0.48939 0.47786 0.0
N993 N 0.20401 0.43438 0.47503 0.0
C994 C 0.21462 0.4814 0.47881 0.0
H995 H 0.13239 0.37238 0.46866 0.0
Co996 Co 0.24734 0.40547 0.47477 0.0
C997 C 0.35169 0.50267 0.47229 0.0
O998 O 0.3614 0.48435 0.46318 0.0
N999 N 0.29187 0.37491 0.4749 0.0
C1000 C 0.34935 0.35035 0.47013 0.0
C1001 C 0.32584 0.37766 0.46689 0.0
C1002 C 0.29612 0.34487 0.48302 0.0
N1003 N 0.33077 0.32976 0.48027 0.0
O1004 O 0.23298 0.39203 0.49063 0.0
H1005 H 0.33311 0.39705 0.45888 0.0
H1006 H 0.27411 0.33366 0.49078 0.0
O1007 O 0.30922 0.47562 0.47777 0.0
C1008 C 0.19032 0.34993 0.49219 0.0
O1009 O 0.17023 0.31929 0.48346 0.0
N1010 N 0.25393 0.4148 0.45889 0.0
C1011 C 0.27252 0.42796 0.43584 0.0
C1012 C 0.27556 0.46825 0.4424 0.0
C1013 C 0.26515 0.4605 0.45391 0.0
C1014 C 0.24181 0.37282 0.45228 0.0
C1015 C 0.25287 0.37894 0.44071 0.0
H1016 H 0.26868 0.49206 0.45887 0.0
H1017 H 0.22774 0.33528 0.45613 0.0
H1018 H 0.25094 0.50906 0.48251 0.0
H1019 H 0.09679 0.43749 0.47188 0.0
H1020 H 0.37745 0.34524 0.46534 0.0
H1021 H 0.28875 0.50615 0.43879 0.0
H1022 H 0.24849 0.3465 0.43577 0.0
C1023 C 0.58579 0.76518 0.45993 0.0
C1024 C 0.5528 0.71251 0.46041 0.0
N1025 N 0.52727 0.70128 0.47032 0.0
N1026 N 0.58032 0.78679 0.46945 0.0
C1027 C 0.54499 0.74675 0.47566 0.0
H1028 H 0.61043 0.78656 0.45291 0.0
Co1029 Co 0.60994 0.85637 0.47313 0.0
C1030 C 0.52459 0.85562 0.48695 0.0
O1031 O 0.55325 0.87568 0.49595 0.0
N1032 N 0.63923 0.92691 0.47687 0.0
C1033 C 0.64912 0.00597 0.47794 0.0
C1034 C 0.61798 0.95639 0.4742 0.0
C1035 C 0.68368 0.9598 0.48221 0.0
N1036 N 0.69046 0.00806 0.48292 0.0
O1037 O 0.62744 0.83967 0.48765 0.0
H1038 H 0.58157 0.94252 0.46987 0.0
H1039 H 0.71008 0.94864 0.48574 0.0
O1040 O 0.54301 0.84486 0.47833 0.0
C1041 C 0.66927 0.83757 0.48741 0.0
O1042 O 0.70075 0.85838 0.47878 0.0
N1043 N 0.59517 0.87056 0.45861 0.0
C1044 C 0.57913 0.89082 0.43655 0.0
C1045 C 0.53735 0.85682 0.4433 0.0
C1046 C 0.54616 0.84709 0.45433 0.0
C1047 C 0.63638 0.90314 0.45208 0.0
C1048 C 0.62915 0.91436 0.44102 0.0
H1049 H 0.51362 0.81958 0.4593 0.0
H1050 H 0.67505 0.9204 0.45548 0.0
H1051 H 0.53091 0.75101 0.48375 0.0
H1052 H 0.54562 0.68505 0.45374 0.0
H1053 H 0.64146 0.03774 0.47735 0.0
H1054 H 0.49834 0.83758 0.44001 0.0
H1055 H 0.66222 0.94052 0.43595 0.0
C1056 C 0.27546 0.83097 0.46089 0.0
C1057 C 0.32744 0.84994 0.46264 0.0
N1058 N 0.3341 0.84254 0.47353 0.0
N1059 N 0.24899 0.81011 0.47056 0.0
C1060 C 0.28653 0.8205 0.47823 0.0
H1061 H 0.25808 0.83106 0.45291 0.0
Co1062 Co 0.1759 0.77572 0.47257 0.0
C1063 C 0.19845 0.6908 0.48153 0.0
O1064 O 0.24861 0.7197 0.48232 0.0
N1065 N 0.10158 0.74156 0.47465 0.0
C1066 C 0.0173 0.68569 0.47215 0.0
C1067 C 0.06627 0.70184 0.46831 0.0
C1068 C 0.07183 0.74745 0.48262 0.0
N1069 N 0.02059 0.71412 0.48116 0.0
O1070 O 0.18793 0.80682 0.48722 0.0
H1071 H 0.07467 0.68404 0.46133 0.0
H1072 H 0.08707 0.77445 0.48953 0.0
O1073 O 0.17112 0.71064 0.47833 0.0
C1074 C 0.1897 0.85049 0.48681 0.0
O1075 O 0.1675 0.85986 0.47828 0.0
N1076 N 0.16733 0.75049 0.45775 0.0
C1077 C 0.14925 0.71244 0.43589 0.0
C1078 C 0.17867 0.70103 0.44328 0.0
C1079 C 0.18729 0.72046 0.45419 0.0
C1080 C 0.14313 0.76626 0.45032 0.0
C1081 C 0.13201 0.74615 0.43941 0.0
H1082 H 0.21064 0.71182 0.4597 0.0
H1083 H 0.12992 0.79228 0.45309 0.0
H1084 H 0.27906 0.80992 0.48705 0.0
H1085 H 0.35764 0.86528 0.4563 0.0
H1086 H 0.98185 0.65402 0.46885 0.0
H1087 H 0.19391 0.67639 0.44068 0.0
H1088 H 0.10994 0.75644 0.43381 0.0
C1089 C 0.10743 0.49013 0.36494 0.0
C1090 C 0.14116 0.47143 0.36391 0.0
N1091 N 0.17293 0.49563 0.35517 0.0
N1092 N 0.11828 0.52657 0.357 0.0
C1093 C 0.1583 0.52878 0.35112 0.0
H1094 H 0.07655 0.47768 0.37107 0.0
Co1095 Co 0.0791 0.5595 0.35483 0.0
C1096 C 0.15637 0.67185 0.35106 0.0
O1097 O 0.12709 0.68315 0.35731 0.0
N1098 N 0.03616 0.59081 0.35259 0.0
C1099 C 0.99225 0.63314 0.35497 0.0
C1100 C 0.02364 0.61774 0.35998 0.0
C1101 C 0.01043 0.59024 0.34309 0.0
N1102 N 0.98385 0.61581 0.34436 0.0
O1103 O 0.06246 0.53009 0.33995 0.0
H1104 H 0.03877 0.62943 0.36836 0.0
H1105 H 0.01204 0.5728 0.33522 0.0
O1106 O 0.1419 0.62407 0.34911 0.0
C1107 C 0.02715 0.48262 0.3403 0.0
O1108 O 1.00501 0.46285 0.35004 0.0
N1109 N 0.09339 0.58265 0.3698 0.0
C1110 C 0.1086 0.61604 0.39199 0.0
C1111 C 0.15091 0.63113 0.38475 0.0
C1112 C 0.14248 0.6134 0.37369 0.0
C1113 C 0.05285 0.56154 0.37719 0.0
C1114 C 0.05918 0.57947 0.38826 0.0
H1115 H 0.17543 0.62452 0.36827 0.0
H1116 H 0.01476 0.53349 0.37423 0.0
H1117 H 0.17601 0.55353 0.34389 0.0
H1118 H 0.14249 0.44248 0.36918 0.0
H1119 H 0.97809 0.65688 0.35869 0.0
H1120 H 0.18989 0.65751 0.38756 0.0
H1121 H 0.02586 0.56577 0.39377 0.0
C1122 C 0.4989 0.62055 0.36873 0.0
C1123 C 0.51052 0.67092 0.36704 0.0
N1124 N 0.49315 0.67388 0.35678 0.0
N1125 N 0.47389 0.59203 0.35961 0.0
C1126 C 0.47107 0.62579 0.35248 0.0
H1127 H 0.50944 0.60589 0.37598 0.0
Co1128 Co 0.45853 0.52401 0.35712 0.0
C1129 C 0.348 0.47207 0.34977 0.0
O1130 O 0.33882 0.43352 0.35654 0.0
N1131 N 0.44789 0.45687 0.35456 0.0
C1132 C 0.46931 0.39508 0.35511 0.0
C1133 C 0.48074 0.44283 0.35902 0.0
C1134 C 0.41903 0.4181 0.34726 0.0
N1135 N 0.43057 0.37967 0.3477 0.0
O1136 O 0.49976 0.54612 0.34354 0.0
H1137 H 0.51304 0.46714 0.36439 0.0
H1138 H 0.39209 0.41885 0.3413 0.0
O1139 O 0.39474 0.50954 0.34878 0.0
C1140 C 0.54857 0.56966 0.3451 0.0
O1141 O 0.56619 0.5767 0.35546 0.0
N1142 N 0.42016 0.5037 0.37094 0.0
C1143 C 0.36716 0.47731 0.3915 0.0
C1144 C 0.35704 0.50525 0.38344 0.0
C1145 C 0.38433 0.51851 0.37325 0.0
C1146 C 0.43207 0.47887 0.37904 0.0
C1147 C 0.4052 0.46419 0.38924 0.0
H1148 H 0.37709 0.54148 0.36728 0.0
H1149 H 0.46358 0.47162 0.37793 0.0
H1150 H 0.45562 0.61617 0.34408 0.0
H1151 H 0.53098 0.70305 0.37275 0.0
H1152 H 0.48953 0.37437 0.35708 0.0
H1153 H 0.329 0.51748 0.38509 0.0
H1154 H 0.4153 0.4443 0.3955 0.0
C1155 C 0.40934 0.92498 0.36441 0.0
C1156 C 0.35709 0.88939 0.36397 0.0
N1157 N 0.3494 0.85662 0.35545 0.0
N1158 N 0.43412 0.914 0.35627 0.0
C1159 C 0.39637 0.87251 0.35092 0.0
H1160 H 0.42828 0.95581 0.37047 0.0
Co1161 Co 0.50511 0.94599 0.35321 0.0
C1162 C 0.51094 0.86193 0.34055 0.0
O1163 O 0.53304 0.89044 0.33159 0.0
N1164 N 0.5769 0.97726 0.35003 0.0
C1165 C 0.6572 0.98982 0.3499 0.0
C1166 C 0.60835 0.96091 0.35431 0.0
C1167 C 0.60783 0.01615 0.34291 0.0
N1168 N 0.65681 0.02445 0.34274 0.0
O1169 O 0.49156 0.96149 0.33825 0.0
H1170 H 0.59617 0.92856 0.36 0.0
H1171 H 0.59449 0.03668 0.33764 0.0
O1172 O 0.49748 0.87999 0.34879 0.0
C1173 C 0.4811 0.99812 0.33875 0.0
O1174 O 0.48693 0.02157 0.34846 0.0
N1175 N 0.51673 0.93384 0.36813 0.0
C1176 C 0.53723 0.92229 0.39046 0.0
C1177 C 0.50463 0.87899 0.38398 0.0
C1178 C 0.49466 0.88557 0.3728 0.0
C1179 C 0.54689 0.97649 0.37446 0.0
C1180 C 0.55831 0.97155 0.38564 0.0
H1181 H 0.46883 0.85187 0.36796 0.0
H1182 H 0.56282 0.0145 0.37073 0.0
H1183 H 0.40315 0.85346 0.34398 0.0
H1184 H 0.32742 0.88659 0.36968 0.0
H1185 H 0.68996 0.98438 0.35141 0.0
H1186 H 0.48722 0.84048 0.38755 0.0
H1187 H 0.58326 0.00574 0.39049 0.0
C1188 C 0.15559 0.09116 0.18437 0.0
C1189 C 0.1302 0.10034 0.17542 0.0
C1190 C 0.1264 0.02703 0.16519 0.0
C1191 C 0.15922 0.02358 0.1734 0.0
N1192 N 0.21689 0.0642 0.18905 0.0
N1193 N 0.09865 0.08261 0.1564 0.0
C1194 C 0.17682 0.05872 0.18258 0.0
C1195 C 0.11731 0.06966 0.16556 0.0
N1196 N 0.15988 0.11404 0.19457 0.0
N1197 N 0.10249 0.98908 0.15732 0.0
H1198 H 0.09292 0.11434 0.15641 0.0
H1199 H 0.09311 0.06459 0.1486 0.0
H1200 H 0.10697 0.95664 0.15697 0.0
H1201 H 0.07445 0.98751 0.15186 0.0
H1202 H 0.1746 0.10536 0.20168 0.0
H1203 H 0.14347 0.13722 0.19615 0.0
H1204 H 0.23346 0.09168 0.19541 0.0
H1205 H 0.23822 0.04667 0.18683 0.0
C1206 C 0.93769 0.07758 0.16025 0.0
C1207 C 0.93274 0.11899 0.16453 0.0
C1208 C 0.84155 0.06054 0.16871 0.0
C1209 C 0.85014 0.0185 0.16705 0.0
N1210 N 0.89531 0.98584 0.15601 0.0
N1211 N 0.87781 0.15408 0.16851 0.0
C1212 C 0.89459 0.02659 0.16097 0.0
C1213 C 0.88319 0.11168 0.16701 0.0
N1214 N 0.98453 0.0871 0.15624 0.0
N1215 N 0.79464 0.05076 0.17272 0.0
H1216 H 0.90908 0.19134 0.16733 0.0
H1217 H 0.8428 0.15254 0.17018 0.0
H1218 H 0.76422 0.01291 0.17374 0.0
H1219 H 0.78579 0.07918 0.17496 0.0
H1220 H 0.99308 0.0584 0.15408 0.0
H1221 H 0.01519 0.12479 0.15526 0.0
H1222 H 0.92601 0.98897 0.15122 0.0
H1223 H 0.86221 0.94977 0.15553 0.0
C1224 C 0.9287 0.84138 0.16536 0.0
C1225 C 0.88215 0.81695 0.17176 0.0
C1226 C 0.92411 0.79139 0.18595 0.0
C1227 C 0.97153 0.81778 0.17996 0.0
N1228 N 0.01332 0.85047 0.16203 0.0
N1229 N 0.83147 0.74373 0.18384 0.0
C1230 C 0.97221 0.83757 0.16902 0.0
C1231 C 0.87831 0.78376 0.18069 0.0
N1232 N 0.93107 0.86781 0.15578 0.0
N1233 N 0.92278 0.77593 0.19682 0.0
H1234 H 0.79865 0.73268 0.17894 0.0
H1235 H 0.82729 0.71716 0.19005 0.0
H1236 H 0.95598 0.78386 0.20127 0.0
H1237 H 0.88922 0.76031 0.20172 0.0
H1238 H 0.96545 0.89213 0.15156 0.0
H1239 H 0.89812 0.86565 0.1522 0.0
H1240 H 0.01461 0.86164 0.15366 0.0
H1241 H 0.04383 0.84458 0.16423 0.0
C1242 C 0.07743 0.19024 0.32099 0.0
C1243 C 0.05362 0.20234 0.31207 0.0
C1244 C 0.12034 0.20891 0.29913 0.0
C1245 C 0.14791 0.20298 0.30816 0.0
N1246 N 0.15803 0.20073 0.32825 0.0
N1247 N 0.06681 0.2447 0.29404 0.0
C1248 C 0.12798 0.19722 0.3193 0.0
C1249 C 0.07947 0.2183 0.30155 0.0
N1250 N 0.05167 0.17083 0.33091 0.0
N1251 N 0.13088 0.20276 0.28823 0.0
H1252 H 0.03989 0.25609 0.29595 0.0
H1253 H 0.08743 0.26015 0.28657 0.0
H1254 H 0.15648 0.18988 0.28608 0.0
H1255 H 0.10893 0.20368 0.2815 0.0
H1256 H 0.06553 0.15684 0.33726 0.0
H1257 H 0.01459 0.16478 0.3324 0.0
H1258 H 0.14718 0.20108 0.33659 0.0
H1259 H 0.19611 0.20922 0.3272 0.0
C1260 C 0.88383 0.90905 0.31216 0.0
C1261 C 0.83263 0.86667 0.31247 0.0
C1262 C 0.80016 0.92715 0.31021 0.0
C1263 C 0.85021 0.96628 0.30687 0.0
N1264 N 0.94111 0.99554 0.30507 0.0
N1265 N 0.74325 0.83964 0.31626 0.0
C1266 C 0.89274 0.95789 0.30815 0.0
C1267 C 0.79128 0.87725 0.31297 0.0
N1268 N 0.92308 0.90342 0.31641 0.0
N1269 N 0.75993 0.9364 0.31071 0.0
H1270 H 0.73659 0.80411 0.31938 0.0
H1271 H 0.7115 0.84543 0.3165 0.0
H1272 H 0.76362 0.97247 0.30909 0.0
H1273 H 0.76362 0.97247 0.30909 0.0
H1274 H 0.96111 0.93355 0.31698 0.0
H1275 H 0.9153 0.87066 0.32105 0.0
H1276 H 0.97287 0.98997 0.30491 0.0
H1277 H 0.94878 0.03139 0.30199 0.0
C1278 C 0.14365 0.93703 0.31436 0.0
C1279 C 0.14939 0.98449 0.31034 0.0
C1280 C 0.06112 0.93899 0.30299 0.0
C1281 C 0.05663 0.89154 0.30632 0.0
N1282 N 0.0871 0.84429 0.31709 0.0
N1283 N 0.10603 0.03131 0.30517 0.0
C1284 C 0.0958 0.89033 0.31276 0.0
C1285 C 0.10562 0.98573 0.30608 0.0
N1286 N 0.18487 0.93696 0.31933 0.0
N1287 N 0.02399 0.93929 0.29633 0.0
H1288 H 0.13696 0.06535 0.30799 0.0
H1289 H 0.07381 0.03432 0.303 0.0
H1290 H 0.98984 0.90581 0.29421 0.0
H1291 H 0.02874 0.97232 0.29226 0.0
H1292 H 0.18592 0.90371 0.32149 0.0
H1293 H 0.21883 0.97124 0.32119 0.0
H1294 H 0.11245 0.8403 0.32245 0.0
H1295 H 0.05234 0.81002 0.31581 0.0
C1296 C 0.83717 0.90237 0.83122 0.0
C1297 C 0.81926 0.92764 0.82375 0.0
C1298 C 0.81004 0.86726 0.80879 0.0
C1299 C 0.82915 0.84277 0.81594 0.0
N1300 N 0.84246 0.82502 0.83504 0.0
N1301 N 0.75783 0.90767 0.80863 0.0
C1302 C 0.83773 0.85698 0.8275 0.0
C1303 C 0.79622 0.90221 0.81347 0.0
N1304 N 0.85125 0.91962 0.84198 0.0
N1305 N 0.80639 0.85869 0.79745 0.0
H1306 H 0.7411 0.92686 0.81263 0.0
H1307 H 0.73801 0.88695 0.80149 0.0
H1308 H 0.81935 0.83594 0.79354 0.0
H1309 H 0.79582 0.879 0.79192 0.0
H1310 H 0.87281 0.90877 0.84702 0.0
H1311 H 0.83958 0.94305 0.84602 0.0
H1312 H 0.84418 0.83046 0.84373 0.0
H1313 H 0.8387 0.78967 0.8327 0.0
C1314 C 0.10698 0.93974 0.80112 0.0
C1315 C 0.15378 0.95175 0.80642 0.0
C1316 C 0.11085 0.86724 0.81578 0.0
C1317 C 0.06274 0.85757 0.81119 0.0
N1318 N 0.01446 0.89407 0.8027 0.0
N1319 N 0.20129 0.92996 0.81943 0.0
C1320 C 0.06052 0.89672 0.80487 0.0
C1321 C 0.15604 0.91634 0.81399 0.0
N1322 N 0.10737 0.96795 0.79204 0.0
N1323 N 0.11312 0.82935 0.82178 0.0
H1324 H 0.23451 0.96573 0.8182 0.0
H1325 H 0.20538 0.90741 0.82558 0.0
H1326 H 0.08012 0.79482 0.82398 0.0
H1327 H 0.14741 0.8313 0.82432 0.0
H1328 H 0.0749 0.95691 0.78702 0.0
H1329 H 0.14139 0.99897 0.78888 0.0
H1330 H 0.01164 0.92359 0.79866 0.0
H1331 H 0.98016 0.86618 0.80634 0.0
C1332 C 0.10462 0.17413 0.81308 0.0
C1333 C 0.11625 0.14046 0.80693 0.0
C1334 C 0.02505 0.08696 0.80175 0.0
C1335 C 0.01402 0.12209 0.80737 0.0
N1336 N 0.03821 0.18987 0.82088 0.0
N1337 N 0.08668 0.05824 0.79807 0.0
C1338 C 0.05231 0.16271 0.8139 0.0
C1339 C 0.07599 0.09452 0.80216 0.0
N1340 N 0.14389 0.21791 0.81776 0.0
N1341 N 0.98692 0.04747 0.79571 0.0
H1342 H 0.1235 0.0627 0.79854 0.0
H1343 H 0.05852 0.02212 0.79526 0.0
H1344 H 0.94877 0.03986 0.79575 0.0
H1345 H 0.99317 0.02368 0.7903 0.0
H1346 H 0.1391 0.24723 0.82125 0.0
H1347 H 0.18211 0.22566 0.81777 0.0
H1348 H 0.06317 0.21768 0.82655 0.0
H1349 H 0.99983 0.18078 0.82172 0.0
C1350 C 0.87869 0.76807 0.6785 0.0
C1351 C 0.93138 0.80496 0.68064 0.0
C1352 C 0.90567 0.86503 0.6881 0.0
C1353 C 0.85303 0.82747 0.68677 0.0
N1354 N 0.78887 0.74817 0.67847 0.0
N1355 N 0.99181 0.8964 0.68088 0.0
C1356 C 0.83933 0.78036 0.68123 0.0
C1357 C 0.94422 0.85603 0.68343 0.0
N1358 N 0.86684 0.72183 0.67374 0.0
N1359 N 0.91918 0.90819 0.69434 0.0
H1360 H 0.01815 0.89162 0.67598 0.0
H1361 H 1.00074 0.93469 0.68181 0.0
H1362 H 0.89196 0.9155 0.69818 0.0
H1363 H 0.95743 0.93402 0.69648 0.0
H1364 H 0.82959 0.69048 0.67311 0.0
H1365 H 0.89525 0.71521 0.67027 0.0
H1366 H 0.77603 0.71447 0.67383 0.0
H1367 H 0.76002 0.75727 0.68022 0.0
C1368 C 0.20662 0.0422 0.68583 0.0
C1369 C 0.15724 0.01065 0.6907 0.0
C1370 C 0.13042 0.07214 0.68473 0.0
C1371 C 0.1822 0.10815 0.68186 0.0
N1372 N 0.26345 0.12 0.67514 0.0
N1373 N 0.07379 0.99718 0.69591 0.0
C1374 C 0.2187 0.09085 0.68105 0.0
C1375 C 0.11951 0.02595 0.69038 0.0
N1376 N 0.24204 0.02597 0.6861 0.0
N1377 N 0.09123 0.07949 0.68113 0.0
H1378 H 0.0646 0.96306 0.70018 0.0
H1379 H 0.04725 0.00972 0.69702 0.0
H1380 H 0.09759 0.10908 0.67555 0.0
H1381 H 0.05246 0.05135 0.68199 0.0
H1382 H 0.28036 0.04838 0.68358 0.0
H1383 H 0.23335 0.9903 0.68948 0.0
H1384 H 0.29121 0.10932 0.67363 0.0
H1385 H 0.27032 0.1532 0.67076 0.0
C1386 C 0.92003 0.04777 0.68656 0.0
C1387 C 0.88032 0.0597 0.6847 0.0
C1388 C 0.94289 0.151 0.68859 0.0
C1389 C 0.97972 0.13679 0.69189 0.0
N1390 N 0.99704 0.06929 0.69706 0.0
N1391 N 0.85218 0.12298 0.68576 0.0
C1392 C 0.96636 0.08447 0.69179 0.0
C1393 C 0.89117 0.11157 0.68616 0.0
N1394 N 0.91533 1.00283 0.68259 0.0
N1395 N 0.95762 0.20202 0.68761 0.0
H1396 H 0.81377 0.09534 0.68427 0.0
H1397 H 0.85729 0.1591 0.68787 0.0
H1398 H 0.99502 0.23124 0.68948 0.0
H1399 H 0.9341 0.21502 0.68413 0.0
H1400 H 0.94591 0.99528 0.68276 0.0
H1401 H 0.88411 0.97755 0.67766 0.0
H1402 H 0.98462 0.03036 0.69847 0.0
H1403 H 0.03149 0.09531 0.70103 0.0
C1404 C 0.85048 0.45298 0.53545 0.0
C1405 C 0.83133 0.46853 0.52622 0.0
C1406 C 0.80739 0.38623 0.51671 0.0
C1407 C 0.83018 0.37276 0.52559 0.0
N1408 N 0.88227 0.39768 0.54236 0.0
N1409 N 0.79823 0.45321 0.50726 0.0
C1410 C 0.85486 0.40779 0.53458 0.0
C1411 C 0.81163 0.43602 0.5166 0.0
N1412 N 0.86117 0.47957 0.54536 0.0
N1413 N 0.78033 0.35075 0.50853 0.0
H1414 H 0.79965 0.48865 0.50696 0.0
H1415 H 0.78914 0.43404 0.49955 0.0
H1416 H 0.77897 0.31519 0.50801 0.0
H1417 H 0.75707 0.35535 0.50265 0.0
H1418 H 0.87042 0.46735 0.55278 0.0
H1419 H 0.85512 0.51079 0.54653 0.0
H1420 H 0.90528 0.42397 0.5485 0.0
H1421 H 0.88608 0.36495 0.54194 0.0
C1422 C 0.55467 0.43183 0.52718 0.0
C1423 C 0.55463 0.38522 0.52469 0.0
C1424 C 0.63665 0.43648 0.51432 0.0
C1425 C 0.63143 0.48089 0.51535 0.0
N1426 N 0.58034 0.5188 0.52128 0.0
N1427 N 0.61477 0.35422 0.5225 0.0
C1428 C 0.58852 0.47772 0.52121 0.0
C1429 C 0.60073 0.38998 0.51991 0.0
N1430 N 0.53056 0.4351 0.53666 0.0
N1431 N 0.67598 0.43873 0.50797 0.0
H1432 H 0.59581 0.32716 0.52884 0.0
H1433 H 0.64964 0.35706 0.52002 0.0
H1434 H 0.70289 0.47237 0.50382 0.0
H1435 H 0.67892 0.40626 0.506 0.0
H1436 H 0.53241 0.46929 0.5393 0.0
H1437 H 0.51798 0.40685 0.54293 0.0
H1438 H 0.54719 0.51672 0.52475 0.0
H1439 H 0.60381 0.55275 0.51682 0.0
C1440 C 0.63326 0.1704 0.53759 0.0
C1441 C 0.65515 0.16199 0.52775 0.0
C1442 C 0.59189 0.17205 0.51629 0.0
C1443 C 0.56839 0.17662 0.52632 0.0
N1444 N 0.55458 0.15758 0.54619 0.0
N1445 N 0.64796 0.14341 0.50789 0.0
C1446 C 0.58497 0.16797 0.53684 0.0
C1447 C 0.63198 0.15906 0.51711 0.0
N1448 N 0.66017 0.18539 0.54745 0.0
N1449 N 0.57778 0.1822 0.5061 0.0
H1450 H 0.67625 0.13263 0.5084 0.0
H1451 H 0.62991 0.13655 0.50008 0.0
H1452 H 0.54835 0.19119 0.50524 0.0
H1453 H 0.59735 0.18472 0.49862 0.0
H1454 H 0.64643 0.19543 0.55455 0.0
H1455 H 0.69876 0.19506 0.54811 0.0
H1456 H 0.56381 0.14776 0.55393 0.0
H1457 H 0.51734 0.15215 0.5457 0.0
C1458 C 0.7309 0.46223 0.65408 0.0
C1459 C 0.73483 0.5104 0.65649 0.0
C1460 C 0.81526 0.55412 0.64542 0.0
C1461 C 0.81449 0.50642 0.64416 0.0
N1462 N 0.7544 0.4167 0.64077 0.0
N1463 N 0.78372 0.60323 0.65568 0.0
C1464 C 0.76753 0.46048 0.64674 0.0
C1465 C 0.7782 0.55669 0.65259 0.0
N1466 N 0.69193 0.41788 0.65868 0.0
N1467 N 0.84397 0.59383 0.6382 0.0
H1468 H 0.7572 0.60618 0.66095 0.0
H1469 H 0.81693 0.63834 0.65396 0.0
H1470 H 0.85824 0.58751 0.6307 0.0
H1471 H 0.84415 0.62881 0.63829 0.0
H1472 H 0.69017 0.38224 0.65792 0.0
H1473 H 0.66447 0.41763 0.66418 0.0
H1474 H 0.71888 0.38282 0.64156 0.0
H1475 H 0.77591 0.41758 0.63375 0.0
C1476 C 0.50069 0.23516 0.63734 0.0
C1477 C 0.50088 0.21855 0.6486 0.0
C1478 C 0.52126 0.30494 0.65515 0.0
C1479 C 0.52791 0.32264 0.64383 0.0
N1480 N 0.53742 0.30708 0.62433 0.0
N1481 N 0.52436 0.24365 0.66804 0.0
C1482 C 0.52204 0.28852 0.63499 0.0
C1483 C 0.51498 0.25521 0.65748 0.0
N1484 N 0.47636 0.20017 0.62897 0.0
N1485 N 0.51835 0.33426 0.66363 0.0
H1486 H 0.5232 0.20902 0.66997 0.0
H1487 H 0.53901 0.2708 0.67451 0.0
H1488 H 0.51974 0.36938 0.66218 0.0
H1489 H 0.50882 0.32098 0.6719 0.0
H1490 H 0.47168 0.21062 0.62086 0.0
H1491 H 0.45487 0.16085 0.63053 0.0
H1492 H 0.53791 0.28417 0.61775 0.0
H1493 H 0.55503 0.34637 0.62241 0.0
C1494 C 0.71403 0.22295 0.64668 0.0
C1495 C 0.693 0.1956 0.63653 0.0
C1496 C 0.76784 0.26144 0.62616 0.0
C1497 C 0.78456 0.29253 0.63601 0.0
N1498 N 0.77002 0.30538 0.65549 0.0
N1499 N 0.69525 0.19313 0.61626 0.0
C1500 C 0.75699 0.27389 0.64628 0.0
C1501 C 0.71884 0.21577 0.62616 0.0
N1502 N 0.69338 0.19941 0.65671 0.0
N1503 N 0.79928 0.27504 0.61689 0.0
H1504 H 0.65827 0.16095 0.61591 0.0
H1505 H 0.71014 0.2093 0.60839 0.0
H1506 H 0.83616 0.30751 0.61671 0.0
H1507 H 0.79105 0.2513 0.60987 0.0
H1508 H 0.70941 0.21535 0.66449 0.0
H1509 H 0.6632 0.16138 0.65709 0.0
H1510 H 0.74741 0.29568 0.66276 0.0
H1511 H 0.80128 0.3429 0.6556 0.0
C1512 C 0.44354 0.1653 0.14608 0.0
C1513 C 0.49249 0.18301 0.14093 0.0
C1514 C 0.51958 0.27047 0.14737 0.0
C1515 C 0.46775 0.25555 0.15004 0.0
N1516 N 0.38271 0.1868 0.15488 0.0
N1517 N 0.5756 0.25354 0.13558 0.0
C1518 C 0.43034 0.20204 0.15034 0.0
C1519 C 0.53015 0.23595 0.1413 0.0
N1520 N 0.41049 0.11346 0.14706 0.0
N1521 N 0.5589 0.31556 0.15143 0.0
H1522 H 0.58428 0.22907 0.13095 0.0
H1523 H 0.60219 0.29279 0.13468 0.0
H1524 H 0.55213 0.33595 0.1577 0.0
H1525 H 0.59778 0.32718 0.15014 0.0
H1526 H 0.37554 0.09722 0.1514 0.0
H1527 H 0.41954 0.08632 0.14392 0.0
H1528 H 0.35127 0.14957 0.15433 0.0
H1529 H 0.37504 0.21227 0.1594 0.0
C1530 C 0.75106 0.29732 0.13941 0.0
C1531 C 0.80353 0.30994 0.13916 0.0
C1532 C 0.77894 0.22315 0.14596 0.0
C1533 C 0.72614 0.20956 0.14508 0.0
N1534 N 0.66706 0.24171 0.1476 0.0
N1535 N 0.86933 0.29079 0.14499 0.0
C1536 C 0.71344 0.24899 0.14386 0.0
C1537 C 0.81817 0.27454 0.14332 0.0
N1538 N 0.73675 0.33043 0.13493 0.0
N1539 N 0.79089 0.18685 0.14955 0.0
H1540 H 0.8982 0.32913 0.14388 0.0
H1541 H 0.88339 0.26781 0.14822 0.0
H1542 H 0.76282 0.15136 0.15284 0.0
H1543 H 0.82786 0.19158 0.14946 0.0
H1544 H 0.69821 0.32071 0.134 0.0
H1545 H 0.76306 0.36545 0.13117 0.0
H1546 H 0.65846 0.27151 0.14788 0.0
H1547 H 0.64165 0.20921 0.15223 0.0
C1548 C 0.69587 0.49506 0.15354 0.0
C1549 C 0.67908 0.48087 0.14221 0.0
C1550 C 0.76742 0.50634 0.13706 0.0
C1551 C 0.78051 0.50468 0.14848 0.0
N1552 N 0.75856 0.50885 0.168 0.0
N1553 N 0.69963 0.464 0.12352 0.0
C1554 C 0.74494 0.50189 0.15691 0.0
C1555 C 0.715 0.48364 0.13407 0.0
N1556 N 0.66719 0.50625 0.16079 0.0
N1557 N 0.80439 0.53476 0.12928 0.0
H1558 H 0.66083 0.44291 0.12122 0.0
H1559 H 0.7255 0.4637 0.11761 0.0
H1560 H 0.84235 0.5607 0.13159 0.0
H1561 H 0.79527 0.5388 0.12099 0.0
H1562 H 0.67951 0.52136 0.16883 0.0
H1563 H 0.63377 0.50628 0.15832 0.0
H1564 H 0.73168 0.49874 0.17451 0.0
H1565 H 0.79679 0.52628 0.17067 0.0
C1566 C 0.59923 0.17754 0.00188 0.0
C1567 C 0.64247 0.19769 0.00928 0.0
C1568 C 0.59541 0.22166 0.02279 0.0
C1569 C 0.55025 0.19502 0.01622 0.0
N1570 N 0.50754 0.14834 -0.00047 0.0
N1571 N 0.68838 0.26481 0.02295 0.0
C1572 C 0.55184 0.17349 0.0057 0.0
C1573 C 0.6426 0.22712 0.01871 0.0
N1574 N 0.60492 0.16724 0.99091 0.0
N1575 N 0.59316 0.24164 0.03299 0.0
H1576 H 0.72329 0.27531 0.01898 0.0
H1577 H 0.69133 0.29061 0.02921 0.0
H1578 H 0.56001 0.24121 0.03595 0.0
H1579 H 0.62327 0.25576 0.03879 0.0
H1580 H 0.57583 0.15469 0.98491 0.0
H1581 H 0.64101 0.17883 0.98734 0.0
H1582 H 0.50427 0.12796 0.99219 0.0
H1583 H 0.47274 0.14528 0.0022 0.0
C1584 C 0.88146 0.452 0.00591 0.0
C1585 C 0.88545 0.48519 0.01492 0.0
C1586 C 0.86135 0.41356 0.02817 0.0
C1587 C 0.8644 0.38286 0.01946 0.0
N1588 N 0.88895 0.3778 0.00039 0.0
N1589 N 0.89732 0.50036 0.03498 0.0
C1590 C 0.87763 0.40342 0.0084 0.0
C1591 C 0.88025 0.46676 0.02617 0.0
N1592 N 0.87963 0.4658 0.99502 0.0
N1593 N 0.83925 0.39189 0.03827 0.0
H1594 H 0.91733 0.54007 0.03375 0.0
H1595 H 0.8979 0.48891 0.04326 0.0
H1596 H 0.82205 0.35231 0.03981 0.0
H1597 H 0.83274 0.41241 0.04457 0.0
H1598 H 0.87205 0.44082 0.98825 0.0
H1599 H 0.88043 0.50006 0.99287 0.0
H1600 H 0.90368 0.39354 0.99249 0.0
H1601 H 0.88905 0.34364 0.00215 0.0
C1602 C 0.6587 0.44574 0.02319 0.0
C1603 C 0.6707 0.49297 0.01786 0.0
C1604 C 0.58057 0.45532 0.01172 0.0
C1605 C 0.56791 0.40881 0.01746 0.0
N1606 N 0.59836 0.35435 0.02535 0.0
N1607 N 0.64401 0.53969 0.00548 0.0
C1608 C 0.60816 0.40216 0.02207 0.0
C1609 C 0.63231 0.49655 0.01156 0.0
N1610 N 0.69431 0.44362 0.03004 0.0
N1611 N 0.54295 0.46047 0.00635 0.0
H1612 H 0.68136 0.57126 0.00473 0.0
H1613 H 0.68136 0.57126 0.00473 0.0
H1614 H 0.50471 0.4304 0.00589 0.0
H1615 H 0.55057 0.49442 0.0022 0.0
H1616 H 0.68596 0.41229 0.03525 0.0
H1617 H 0.73122 0.47494 0.03129 0.0
H1618 H 0.62714 0.34623 0.02773 0.0
H1619 H 0.56232 0.32168 0.02445 0.0
C1620 C 0.4865 0.71774 0.84295 0.0
C1621 C 0.51617 0.71329 0.8518 0.0
C1622 C 0.50918 0.7801 0.86241 0.0
C1623 C 0.48691 0.7898 0.85297 0.0
N1624 N 0.45734 0.7718 0.83387 0.0
N1625 N 0.56292 0.74749 0.8694 0.0
C1626 C 0.47567 0.75922 0.84316 0.0
C1627 C 0.52949 0.74638 0.8614 0.0
N1628 N 0.46979 0.68332 0.83423 0.0
N1629 N 0.51045 0.80321 0.87244 0.0
H1630 H 0.5794 0.72403 0.86936 0.0
H1631 H 0.57814 0.7753 0.87573 0.0
H1632 H 0.49529 0.82788 0.87336 0.0
H1633 H 0.52124 0.79369 0.88002 0.0
H1634 H 0.44343 0.68118 0.82822 0.0
H1635 H 0.47998 0.65479 0.83333 0.0
H1636 H 0.45334 0.75475 0.82601 0.0
H1637 H 0.44927 0.80203 0.83388 0.0
C1638 C 0.23617 0.78967 0.85018 0.0
C1639 C 0.28263 0.79504 0.84579 0.0
C1640 C 0.23541 0.70373 0.84029 0.0
C1641 C 0.19284 0.69645 0.84706 0.0
N1642 N 0.15734 0.73287 0.86011 0.0
N1643 N 0.32722 0.75753 0.83626 0.0
C1644 C 0.19411 0.73968 0.85235 0.0
C1645 C 0.2824 0.75224 0.84058 0.0
N1646 N 0.23298 0.83274 0.85249 0.0
N1647 N 0.2303 0.66505 0.83335 0.0
H1648 H 0.36093 0.79338 0.83574 0.0
H1649 H 0.33116 0.7264 0.8336 0.0
H1650 H 0.19557 0.63032 0.83257 0.0
H1651 H 0.25865 0.66937 0.8276 0.0
H1652 H 0.19883 0.83137 0.85504 0.0
H1653 H 0.26313 0.86953 0.85044 0.0
H1654 H 0.15918 0.76311 0.86486 0.0
H1655 H 0.12861 0.69651 0.8628 0.0
C1656 C 0.2956 0.54029 0.85633 0.0
C1657 C 0.30515 0.49912 0.85859 0.0
C1658 C 0.2154 0.43659 0.85371 0.0
C1659 C 0.20506 0.47793 0.85243 0.0
N1660 N 0.24097 0.56648 0.84665 0.0
N1661 N 0.27909 0.40941 0.85644 0.0
C1662 C 0.2469 0.52919 0.8519 0.0
C1663 C 0.26644 0.4475 0.85632 0.0
N1664 N 0.3323 0.58981 0.85884 0.0
N1665 N 0.17585 0.38696 0.85251 0.0
H1666 H 0.31627 0.4168 0.85826 0.0
H1667 H 0.25425 0.37146 0.854 0.0
H1668 H 0.13971 0.37859 0.84944 0.0
H1669 H 0.17832 0.35442 0.85462 0.0
H1670 H 0.32555 0.62082 0.85837 0.0
H1671 H 0.3679 0.59912 0.86236 0.0
H1672 H 0.2712 0.60411 0.84544 0.0
H1673 H 0.20796 0.55746 0.84201 0.0
C1674 C 0.46294 0.88317 0.98649 0.0
C1675 C 0.41529 0.84918 0.98109 0.0
C1676 C 0.45945 0.81443 0.96946 0.0
C1677 C 0.5071 0.85056 0.97426 0.0
N1678 N 0.5568 0.921 0.98672 0.0
N1679 N 0.36939 0.78584 0.96667 0.0
C1680 C 0.50951 0.88537 0.98265 0.0
C1681 C 0.41405 0.81589 0.97235 0.0
N1682 N 0.46365 0.91339 0.99523 0.0
N1683 N 0.45739 0.77712 0.96243 0.0
H1684 H 0.33427 0.78165 0.96922 0.0
H1685 H 0.36783 0.76778 0.95905 0.0
H1686 H 0.49021 0.77597 0.95982 0.0
H1687 H 0.42307 0.74515 0.95982 0.0
H1688 H 0.4959 0.93575 0.00018 0.0
H1689 H 0.43099 0.91454 -0.00206 0.0
H1690 H 0.56312 0.95065 0.99223 0.0
H1691 H 0.59078 0.92243 0.98401 0.0
C1692 C 0.22576 0.65579 0.97185 0.0
C1693 C 0.18987 0.67341 0.97141 0.0
C1694 C 0.12582 0.59354 0.9809 0.0
C1695 C 0.16283 0.57654 0.98111 0.0
N1696 N 0.25379 0.60751 0.98312 0.0
N1697 N 0.10854 0.66415 0.9773 0.0
C1698 C 0.21479 0.61254 0.97854 0.0
C1699 C 0.14046 0.64372 0.97649 0.0
N1700 N 0.26948 0.67916 0.96546 0.0
N1701 N 0.07761 0.56231 0.98526 0.0
H1702 H 0.11919 0.70104 0.97434 0.0
H1703 H 0.07287 0.64616 0.98136 0.0
H1704 H 0.06891 0.52937 0.98996 0.0
H1705 H 0.04679 0.56909 0.9844 0.0
H1706 H 0.29561 0.66557 0.96503 0.0
H1707 H 0.27543 0.70771 0.9596 0.0
H1708 H 0.2927 0.63451 0.98179 0.0
H1709 H 0.24647 0.58122 0.98964 0.0
C1710 C 0.46886 0.6243 0.96928 0.0
C1711 C 0.47802 0.64297 0.98057 0.0
C1712 C 0.38926 0.57517 0.9849 0.0
C1713 C 0.37746 0.56644 0.97321 0.0
N1714 N 0.40702 0.59775 0.95427 0.0
N1715 N 0.43855 0.64076 -0.00133 0.0
C1716 C 0.41745 0.59558 0.96537 0.0
C1717 C 0.43581 0.61985 0.9883 0.0
N1718 N 0.50815 0.62971 0.96249 0.0
N1719 N 0.35831 0.53975 0.99275 0.0
H1720 H 0.46955 0.67594 0.00121 0.0
H1721 H 0.40686 0.62614 0.00413 0.0
H1722 H 0.32777 0.50358 0.99054 0.0
H1723 H 0.36773 0.54361 0.00128 0.0
H1724 H 0.50151 0.61341 0.95445 0.0
H1725 H 0.54567 0.64377 0.96539 0.0
H1726 H 0.43589 0.62111 0.94852 0.0
H1727 H 0.36946 0.58207 0.95121 0.0
C1728 C 0.15137 0.60152 0.47301 0.0
C1729 C 0.1769 0.63361 0.48238 0.0
C1730 C 0.19095 0.56483 0.48996 0.0
C1731 C 0.17424 0.53767 0.47957 0.0
N1732 N 0.15087 0.53872 0.46017 0.0
N1733 N 0.21803 0.64439 0.50035 0.0
C1734 C 0.15742 0.55813 0.47083 0.0
C1735 C 0.19541 0.61446 0.49107 0.0
N1736 N 0.12042 0.61141 0.46629 0.0
N1737 N 0.20179 0.54283 0.49881 0.0
H1738 H 0.21698 0.67828 0.50191 0.0
H1739 H 0.23895 0.63666 0.50627 0.0
H1740 H 0.19985 0.50733 0.49813 0.0
H1741 H 0.20884 0.55755 0.50697 0.0
H1742 H 0.09832 0.58689 0.4598 0.0
H1743 H 0.11084 0.63936 0.46831 0.0
H1744 H 0.1432 0.55559 0.45329 0.0
H1745 H 0.15968 0.51023 0.45792 0.0
C1746 C 0.48346 0.61498 0.47926 0.0
C1747 C 0.48074 0.65395 0.47303 0.0
C1748 C 0.38732 0.5982 0.47097 0.0
C1749 C 0.39113 0.55622 0.47552 0.0
N1750 N 0.44157 0.52417 0.4846 0.0
N1751 N 0.43155 0.68401 0.46275 0.0
C1752 C 0.43883 0.56478 0.48003 0.0
C1753 C 0.43288 0.64617 0.46898 0.0
N1754 N 0.52899 0.6263 0.48429 0.0
N1755 N 0.34004 0.5922 0.46856 0.0
H1756 H 0.46388 0.72034 0.46149 0.0
H1757 H 0.39933 0.67868 0.45826 0.0
H1758 H 0.30636 0.55774 0.47002 0.0
H1759 H 0.33377 0.62231 0.46628 0.0
H1760 H 0.53343 0.60127 0.48968 0.0
H1761 H 0.56193 0.66271 0.4836 0.0
H1762 H 0.47588 0.52579 0.48698 0.0
H1763 H 0.40883 0.4879 0.48576 0.0
C1764 C 0.38694 0.80145 0.47725 0.0
C1765 C 0.37961 0.84464 0.47826 0.0
C1766 C 0.46607 0.89508 0.48651 0.0
C1767 C 0.47245 0.85084 0.48591 0.0
N1768 N 0.43212 0.75854 0.48413 0.0
N1769 N 0.40665 0.92878 0.48573 0.0
C1770 C 0.43067 0.80294 0.48232 0.0
C1771 C 0.41741 0.8902 0.48358 0.0
N1772 N 0.35309 0.75966 0.47108 0.0
N1773 N 0.50696 0.94229 0.4892 0.0
H1774 H 0.37173 0.92613 0.48337 0.0
H1775 H 0.43022 0.96111 0.49059 0.0
H1776 H 0.54306 0.94794 0.49149 0.0
H1777 H 0.50614 0.97663 0.48847 0.0
H1778 H 0.35939 0.72923 0.46909 0.0
H1779 H 0.32093 0.7575 0.46712 0.0
H1780 H 0.40099 0.72186 0.48254 0.0
H1781 H 0.46204 0.7584 0.48861 0.0
C1782 C 0.25203 0.43468 0.34593 0.0
C1783 C 0.30272 0.47839 0.34651 0.0
C1784 C 0.26657 0.5324 0.35188 0.0
C1785 C 0.21601 0.48975 0.35152 0.0
N1786 N 0.15919 0.40291 0.34529 0.0
N1787 N 0.34997 0.56984 0.34297 0.0
C1788 C 0.20816 0.44145 0.3476 0.0
C1789 C 0.30766 0.52778 0.34725 0.0
N1790 N 0.24613 0.38715 0.34377 0.0
N1791 N 0.27631 0.57622 0.35739 0.0
H1792 H 0.37598 0.56558 0.33782 0.0
H1793 H 0.35331 0.60632 0.34285 0.0
H1794 H 0.2477 0.57946 0.36178 0.0
H1795 H 0.31389 0.60614 0.35872 0.0
H1796 H 0.21101 0.35286 0.34449 0.0
H1797 H 0.27723 0.38248 0.34134 0.0
H1798 H 0.15081 0.36794 0.34161 0.0
H1799 H 0.12716 0.40794 0.3462 0.0
C1800 C 0.55164 0.80574 0.34334 0.0
C1801 C 0.50671 0.81045 0.34205 0.0
C1802 C 0.45385 0.72514 0.35052 0.0
C1803 C 0.49779 0.71931 0.35143 0.0
N1804 N 0.58622 0.74822 0.34656 0.0
N1805 N 0.41415 0.76724 0.34066 0.0
C1806 C 0.54607 0.75784 0.34712 0.0
C1807 C 0.45744 0.76776 0.34449 0.0
N1808 N 0.59959 0.84741 0.34152 0.0
N1809 N 0.40928 0.69119 0.35589 0.0
H1810 H 0.4166 0.7958 0.3352 0.0
H1811 H 0.37706 0.7356 0.34158 0.0
H1812 H 0.40596 0.66017 0.36061 0.0
H1813 H 0.37764 0.69684 0.35648 0.0
H1814 H 0.63371 0.84792 0.34363 0.0
H1815 H 0.6054 0.88264 0.33848 0.0
H1816 H 0.62105 0.77254 0.34249 0.0
H1817 H 0.58283 0.71351 0.34936 0.0
C1818 C 0.29736 0.76165 0.35618 0.0
C1819 C 0.30257 0.80938 0.35283 0.0
C1820 C 0.21507 0.76398 0.34493 0.0
C1821 C 0.20962 0.71586 0.34849 0.0
N1822 N 0.25466 0.67006 0.35297 0.0
N1823 N 0.27186 0.85654 0.34208 0.0
C1824 C 0.25353 0.71496 0.3527 0.0
C1825 C 0.26304 0.81067 0.34654 0.0
N1826 N 0.33328 0.76086 0.36316 0.0
N1827 N 0.17388 0.76474 0.34016 0.0
H1828 H 0.30656 0.89093 0.34332 0.0
H1829 H 0.24662 0.86015 0.33661 0.0
H1830 H 0.14034 0.73082 0.338 0.0
H1831 H 0.17247 0.79828 0.33854 0.0
H1832 H 0.32791 0.72723 0.36706 0.0
H1833 H 0.3659 0.79439 0.36591 0.0
H1834 H 0.28802 0.66896 0.35493 0.0
H1835 H 0.22536 0.63607 0.34959 0.0
C1836 C 0.23525 0.321 0.15341 0.0
C1837 C 0.28222 0.36168 0.15765 0.0
C1838 C 0.23477 0.39923 0.16682 0.0
C1839 C 0.18784 0.35312 0.16456 0.0
N1840 N 0.1432 0.28675 0.1507 0.0
N1841 N 0.32861 0.44192 0.16761 0.0
C1842 C 0.18789 0.31905 0.15622 0.0
C1843 C 0.2826 0.40225 0.16392 0.0
N1844 N 0.23601 0.28287 0.14721 0.0
N1845 N 0.23307 0.44047 0.1713 0.0
H1846 H 0.36402 0.44536 0.16534 0.0
H1847 H 0.33166 0.46991 0.17328 0.0
H1848 H 0.19809 0.43992 0.17249 0.0
H1849 H 0.26557 0.47654 0.17256 0.0
H1850 H 0.20282 0.24877 0.14499 0.0
H1851 H 0.27048 0.28446 0.14481 0.0
H1852 H 0.14109 0.26293 0.14407 0.0
H1853 H 0.10965 0.28902 0.15181 0.0
C1854 C 0.66682 0.8651 0.15334 0.0
C1855 C 0.65974 0.8557 0.16515 0.0
C1856 C 0.62303 0.91274 0.16631 0.0
C1857 C 0.63869 0.92946 0.15515 0.0
N1858 N 0.67943 0.92484 0.13806 0.0
N1859 N 0.64803 0.88707 0.18321 0.0
C1860 C 0.66137 0.90623 0.14859 0.0
C1861 C 0.64198 0.88361 0.17176 0.0
N1862 N 0.67774 0.83453 0.14666 0.0
N1863 N 0.59189 0.92693 0.17184 0.0
H1864 H 0.66926 0.87352 0.18755 0.0
H1865 H 0.63884 0.9103 0.18814 0.0
H1866 H 0.57712 0.94806 0.16788 0.0
H1867 H 0.57662 0.91288 0.17983 0.0
H1868 H 0.67907 0.837 0.13789 0.0
H1869 H 0.68099 0.80368 0.14983 0.0
H1870 H 0.70136 0.91339 0.13329 0.0
H1871 H 0.67481 0.9541 0.13441 0.0
C1872 C 0.128 0.79578 0.15584 0.0
C1873 C 0.15286 0.79036 0.1655 0.0
C1874 C 0.09965 0.69658 0.16461 0.0
C1875 C 0.07042 0.70164 0.15583 0.0
N1876 N 0.06738 0.75273 0.14052 0.0
N1877 N 0.18281 0.73637 0.17381 0.0
C1878 C 0.0881 0.75045 0.1506 0.0
C1879 C 0.14557 0.74088 0.16813 0.0
N1880 N 0.14291 0.84379 0.15166 0.0
N1881 N 0.08203 0.6508 0.17018 0.0
H1882 H 0.21873 0.76853 0.17556 0.0
H1883 H 0.18056 0.70088 0.17531 0.0
H1884 H 0.04689 0.61798 0.16838 0.0
H1885 H 0.10014 0.64708 0.17733 0.0
H1886 H 0.12195 0.85132 0.1457 0.0
H1887 H 0.17751 0.87615 0.15405 0.0
H1888 H 0.08012 0.7864 0.13583 0.0
H1889 H 0.0401 0.71951 0.13635 0.0
C1890 C 0.44082 0.32642 0.33312 0.0
C1891 C 0.40917 0.33324 0.34102 0.0
C1892 C 0.33538 0.24933 0.33568 0.0
C1893 C 0.3675 0.2427 0.32769 0.0
N1894 N 0.45413 0.26563 0.32217 0.0
N1895 N 0.33117 0.29668 0.35199 0.0
C1896 C 0.4214 0.27835 0.32753 0.0
C1897 C 0.35785 0.29313 0.34298 0.0
N1898 N 0.48865 0.36677 0.33055 0.0
N1899 N 0.28343 0.21556 0.33606 0.0
H1900 H 0.34686 0.32844 0.35739 0.0
H1901 H 0.29565 0.26661 0.35472 0.0
H1902 H 0.26496 0.18203 0.3313 0.0
H1903 H 0.25783 0.22174 0.34089 0.0
H1904 H 0.51154 0.36552 0.32404 0.0
H1905 H 0.50324 0.40321 0.33418 0.0
H1906 H 0.49425 0.28828 0.32254 0.0
H1907 H 0.44109 0.22951 0.31846 0.0
C1908 C 0.70139 0.03917 0.32443 0.0
C1909 C 0.69878 0.05728 0.33528 0.0
C1910 C 0.78519 0.13319 0.33258 0.0
C1911 C 0.78594 0.11731 0.32133 0.0
N1912 N 0.74308 0.05673 0.30616 0.0
N1913 N 0.7346 0.12215 0.3496 0.0
C1914 C 0.74348 0.07074 0.31715 0.0
C1915 C 0.73984 0.10453 0.33933 0.0
N1916 N 0.66447 0.99057 0.32129 0.0
N1917 N 0.82792 0.17528 0.33682 0.0
H1918 H 0.70184 0.1014 0.35464 0.0
H1919 H 0.76056 0.15839 0.3528 0.0
H1920 H 0.86128 0.19716 0.33206 0.0
H1921 H 0.83195 0.18656 0.34522 0.0
H1922 H 0.66707 0.97197 0.31411 0.0
H1923 H 0.63262 0.96711 0.32635 0.0
H1924 H 0.71062 0.02744 0.30219 0.0
H1925 H 0.77465 0.07573 0.30076 0.0
C1926 C 0.95647 0.67598 0.31928 0.0
C1927 C 0.90401 0.66157 0.32141 0.0
C1928 C 0.90259 0.60929 0.33753 0.0
C1929 C 0.95621 0.62787 0.33603 0.0
N1930 N 0.03629 0.68601 0.32678 0.0
N1931 N 0.82802 0.6186 0.33312 0.0
C1932 C 0.98368 0.66298 0.32722 0.0
C1933 C 0.8773 0.62946 0.33074 0.0
N1934 N 0.98023 0.70136 0.30955 0.0
N1935 N 0.87582 0.57119 0.34527 0.0
H1936 H 0.80831 0.63204 0.32818 0.0
H1937 H 0.80799 0.59946 0.34039 0.0
H1938 H 0.89351 0.55524 0.35013 0.0
H1939 H 0.83581 0.55238 0.3462 0.0
H1940 H 0.0163 0.70762 0.30695 0.0
H1941 H 0.96231 0.71264 0.3036 0.0
H1942 H 0.0593 0.71681 0.32145 0.0
H1943 H 0.05736 0.67721 0.33244 0.0
C1944 C 0.79909 0.6862 0.8441 0.0
C1945 C 0.80761 0.65994 0.83509 0.0
C1946 C 0.71413 0.60361 0.83306 0.0
C1947 C 0.70545 0.63336 0.84109 0.0
N1948 N 0.73878 0.70697 0.85333 0.0
N1949 N 0.77232 0.60335 0.81895 0.0
C1950 C 0.74774 0.67569 0.84643 0.0
C1951 C 0.76488 0.62107 0.82902 0.0
N1952 N 0.83978 0.72042 0.8505 0.0
N1953 N 0.67348 0.55842 0.8293 0.0
H1954 H 0.80844 0.61808 0.81511 0.0
H1955 H 0.74198 0.5786 0.81374 0.0
H1956 H 0.63586 0.5444 0.83229 0.0
H1957 H 0.678 0.53258 0.82417 0.0
H1958 H 0.83548 0.73718 0.85782 0.0
H1959 H 0.87777 0.72934 0.8489 0.0
H1960 H 0.76804 0.74174 0.85654 0.0
H1961 H 0.70155 0.69967 0.85523 0.0
C1962 C 0.26694 0.06384 0.83818 0.0
C1963 C 0.31097 0.11116 0.83491 0.0
C1964 C 0.36511 0.09092 0.84706 0.0
C1965 C 0.32398 0.03935 0.84796 0.0
N1966 N 0.23514 0.97572 0.84452 0.0
N1967 N 0.40056 0.17407 0.83765 0.0
C1968 C 0.27439 0.0257 0.84373 0.0
C1969 C 0.35959 0.1262 0.83993 0.0
N1970 N 0.21835 0.05545 0.83611 0.0
N1971 N 0.40879 0.10611 0.85327 0.0
H1972 H 0.39621 0.20218 0.83335 0.0
H1973 H 0.4386 0.18558 0.83979 0.0
H1974 H 0.41254 0.08122 0.85885 0.0
H1975 H 0.43908 0.14404 0.85371 0.0
H1976 H 0.1848 0.02299 0.83891 0.0
H1977 H 0.21138 0.08389 0.83295 0.0
H1978 H 0.1988 0.9623 0.84098 0.0
H1979 H 0.23997 0.94633 0.84799 0.0
C1980 C 0.93393 0.22966 0.82898 0.0
C1981 C 0.88502 0.19148 0.83327 0.0
C1982 C 0.89747 0.2468 0.84961 0.0
C1983 C 0.94849 0.28205 0.84585 0.0
N1984 N 0.01944 0.29946 0.8335 0.0
N1985 N 0.82316 0.16019 0.84849 0.0
C1986 C 0.96795 0.27117 0.83599 0.0
C1987 C 0.86796 0.1987 0.84393 0.0
N1988 N 0.94748 0.2276 0.81808 0.0
N1989 N 0.87597 0.26074 0.85811 0.0
H1990 H 0.8001 0.12519 0.84438 0.0
H1991 H 0.81118 0.16131 0.85669 0.0
H1992 H 0.89523 0.29684 0.86197 0.0
H1993 H 0.83736 0.23882 0.86054 0.0
H1994 H 0.98002 0.25762 0.81421 0.0
H1995 H 0.92443 0.19762 0.81265 0.0
H1996 H 0.03663 0.29029 0.82691 0.0
H1997 H 0.04584 0.32857 0.83877 0.0
C1998 C 0.62554 0.73529 0.65851 0.0
C1999 C 0.6691 0.72914 0.65661 0.0
C2000 C 0.7268 0.82204 0.65977 0.0
C2001 C 0.6839 0.82514 0.664 0.0
N2002 N 0.59315 0.79422 0.66235 0.0
N2003 N 0.76036 0.76609 0.65387 0.0
C2004 C 0.63334 0.78471 0.66159 0.0
C2005 C 0.71954 0.77281 0.65653 0.0
N2006 N 0.57712 0.69305 0.6583 0.0
N2007 N 0.77347 0.86601 0.65853 0.0
H2008 H 0.75513 0.73062 0.65108 0.0
H2009 H 0.7989 0.79447 0.65479 0.0
H2010 H 0.77781 0.90259 0.65965 0.0
H2011 H 0.80616 0.86696 0.65515 0.0
H2012 H 0.544 0.69352 0.6609 0.0
H2013 H 0.57031 0.65657 0.65596 0.0
H2014 H 0.55543 0.76794 0.65999 0.0
H2015 H 0.59919 0.83092 0.66434 0.0
C2016 C 0.24672 0.90775 0.67657 0.0
C2017 C 0.20404 0.87053 0.67015 0.0
C2018 C 0.25426 0.90585 0.65273 0.0
C2019 C 0.29492 0.94536 0.65906 0.0
N2020 N 0.32874 0.98833 0.67666 0.0
N2021 N 0.16499 0.83606 0.65215 0.0
C2022 C 0.29107 0.94715 0.67091 0.0
C2023 C 0.20715 0.87021 0.65822 0.0
N2024 N 0.2447 0.90588 0.68809 0.0
N2025 N 0.26179 0.90175 0.6415 0.0
H2026 H 0.13078 0.80801 0.65591 0.0
H2027 H 0.16265 0.83722 0.64341 0.0
H2028 H 0.29638 0.9269 0.63741 0.0
H2029 H 0.23594 0.87139 0.63645 0.0
H2030 H 0.27667 0.92703 0.69322 0.0
H2031 H 0.21136 0.88172 0.69266 0.0
H2032 H 0.32648 0.99524 0.68518 0.0
H2033 H 0.36122 0.0181 0.67272 0.0
C2034 C 0.12208 0.32133 0.65565 0.0
C2035 C 0.12312 0.31816 0.66756 0.0
C2036 C 0.04755 0.33013 0.66908 0.0
C2037 C 0.0486 0.33646 0.65728 0.0
N2038 N 0.08955 0.34549 0.63933 0.0
N2039 N 0.09065 0.3249 0.68585 0.0
C2040 C 0.08662 0.33399 0.65055 0.0
C2041 C 0.08707 0.32437 0.67436 0.0
N2042 N 0.15478 0.312 0.64926 0.0
N2043 N 1.00722 0.32739 0.67516 0.0
H2044 H 0.1165 0.31735 0.69016 0.0
H2045 H 0.06988 0.33561 0.6912 0.0
H2046 H 0.97756 0.33115 0.67147 0.0
H2047 H 1.00081 0.31775 0.68367 0.0
H2048 H 0.15262 0.30858 0.64052 0.0
H2049 H 0.18244 0.30453 0.65277 0.0
H2050 H 0.11904 0.34914 0.63403 0.0
H2051 H 0.06428 0.35543 0.63548 0.0
C2052 C 0.89902 0.63997 0.49807 0.0
C2053 C 0.88262 0.67686 0.49959 0.0
C2054 C 0.9576 0.73912 0.48825 0.0
C2055 C 0.97716 0.70455 0.48825 0.0
N2056 N 0.97166 0.62625 0.49503 0.0
N2057 N 0.89706 0.76272 0.49621 0.0
C2058 C 0.94925 0.65619 0.49372 0.0
C2059 C 0.91227 0.72688 0.49468 0.0
N2060 N 0.86647 0.58912 0.50046 0.0
N2061 N 0.98139 0.7827 0.48177 0.0
H2062 H 0.86189 0.75368 0.49998 0.0
H2063 H 0.91993 0.80157 0.49409 0.0
H2064 H 0.01474 0.79254 0.4771 0.0
H2065 H 0.96634 0.8071 0.48041 0.0
H2066 H 0.87532 0.56031 0.49857 0.0
H2067 H 0.82829 0.57475 0.50292 0.0
H2068 H 0.9556 0.5929 0.49997 0.0
H2069 H 1.00905 0.63792 0.49219 0.0
C2070 C 0.39425 0.31778 0.49127 0.0
C2071 C 0.3446 0.29646 0.48635 0.0
C2072 C 0.32587 0.20958 0.49194 0.0
C2073 C 0.37552 0.231 0.49701 0.0
N2074 N 0.46231 0.30309 0.49818 0.0
N2075 N 0.26742 0.22214 0.47979 0.0
C2076 C 0.41151 0.28442 0.49561 0.0
C2077 C 0.31163 0.24224 0.48603 0.0
N2078 N 0.42423 0.37022 0.49206 0.0
N2079 N 0.29211 0.15782 0.49294 0.0
H2080 H 0.25603 0.24532 0.4755 0.0
H2081 H 0.24387 0.18288 0.47822 0.0
H2082 H 0.30332 0.13242 0.49618 0.0
H2083 H 0.25316 0.14028 0.49083 0.0
H2084 H 0.45864 0.38862 0.49658 0.0
H2085 H 0.41221 0.39531 0.489 0.0
H2086 H 0.49113 0.3411 0.49673 0.0
H2087 H 0.47676 0.27899 0.50039 0.0
C2088 C 0.76646 0.0964 0.48348 0.0
C2089 C 0.72927 0.05129 0.48918 0.0
C2090 C 0.76883 0.08932 0.50725 0.0
C2091 C 0.8043 0.13647 0.50169 0.0
N2092 N 0.83295 0.18693 0.48461 0.0
N2093 N 0.68661 0.00979 0.50642 0.0
C2094 C 0.80166 0.14075 0.48982 0.0
C2095 C 0.72813 0.04922 0.50105 0.0
N2096 N 0.76902 0.09589 0.47199 0.0
N2097 N 0.77414 0.08181 0.51842 0.0
H2098 H 0.65567 0.9801 0.50212 0.0
H2099 H 0.68026 0.00929 0.51508 0.0
H2100 H 0.80151 0.10973 0.52367 0.0
H2101 H 0.75354 0.04596 0.52237 0.0
H2102 H 0.7981 0.12545 0.46724 0.0
H2103 H 0.74389 0.0637 0.46724 0.0
H2104 H 0.82943 0.19413 0.47617 0.0
H2105 H 0.86059 0.21937 0.48893 0.0
C2106 C 0.92638 0.51512 0.6722 0.0
C2107 C 0.96628 0.50271 0.67127 0.0
C2108 C 0.02829 0.58575 0.67956 0.0
C2109 C 0.99139 0.60222 0.67835 0.0
N2110 N 0.90397 0.58237 0.67524 0.0
N2111 N 0.04595 0.51448 0.67859 0.0
C2112 C 0.93952 0.56625 0.67543 0.0
C2113 C 0.014 0.53415 0.67667 0.0
N2114 N 0.87648 0.47799 0.67016 0.0
N2115 N 0.07811 0.6206 0.68235 0.0
H2116 H 0.03511 0.47651 0.6764 0.0
H2117 H 0.08005 0.53346 0.68319 0.0
H2118 H 0.09027 0.65894 0.68432 0.0
H2119 H 0.10821 0.61246 0.68214 0.0
H2120 H 0.84491 0.4837 0.67083 0.0
H2121 H 0.8661 0.43948 0.66889 0.0
H2122 H 0.86668 0.56064 0.67209 0.0
H2123 H 0.91268 0.61885 0.67814 0.0
C2124 C 0.47428 0.43535 0.67604 0.0
C2125 C 0.48053 0.46596 0.66634 0.0
C2126 C 0.38681 0.41807 0.66338 0.0
C2127 C 0.38123 0.38373 0.67215 0.0
N2128 N 0.41951 0.355 0.68608 0.0
N2129 N 0.44322 0.47497 0.64893 0.0
C2130 C 0.42496 0.39117 0.67833 0.0
C2131 C 0.43691 0.45444 0.65951 0.0
N2132 N 0.51493 0.44907 0.68317 0.0
N2133 N 0.34391 0.41584 0.65875 0.0
H2134 H 0.47922 0.49801 0.64519 0.0
H2135 H 0.41273 0.46375 0.6433 0.0
H2136 H 0.3066 0.38998 0.66158 0.0
H2137 H 0.34576 0.44314 0.653 0.0
H2138 H 0.51153 0.43108 0.6909 0.0
H2139 H 0.5513 0.48123 0.68177 0.0
H2140 H 0.45061 0.35499 0.69004 0.0
H2141 H 0.38371 0.32284 0.68796 0.0
C2142 C 0.52794 0.97041 0.67389 0.0
C2143 C 0.5409 0.02034 0.66985 0.0
C2144 C 0.62961 0.054 0.67629 0.0
C2145 C 0.6176 1.00415 0.68012 0.0
N2146 N 0.55122 0.91954 0.68601 0.0
N2147 N 0.59601 0.11168 0.67301 0.0
C2148 C 0.5654 0.96351 0.67995 0.0
C2149 C 0.58911 0.06299 0.67291 0.0
N2150 N 0.47961 0.92969 0.67199 0.0
N2151 N 0.67992 0.0922 0.67526 0.0
H2152 H 0.5661 0.11929 0.67146 0.0
H2153 H 0.62923 0.14306 0.67627 0.0
H2154 H 0.71089 0.0858 0.67644 0.0
H2155 H 0.69069 0.12859 0.67203 0.0
H2156 H 0.46954 0.89134 0.67337 0.0
H2157 H 0.44984 0.93468 0.66877 0.0
H2158 H 0.51304 0.89017 0.68699 0.0
H2159 H 0.5771 0.91483 0.69107 0.0
C2160 C 0.41926 0.98795 0.18082 0.0
C2161 C 0.37559 0.9848 0.17533 0.0
C2162 C 0.41788 0.99538 0.15698 0.0
C2163 C 0.46326 1.00249 0.16254 0.0
N2164 N 0.50984 0.01156 0.17971 0.0
N2165 N 0.33625 0.99444 0.15855 0.0
C2166 C 0.46486 1.00089 0.17447 0.0
C2167 C 0.37561 0.99067 0.16349 0.0
N2168 N 0.41599 0.97603 0.19201 0.0
N2169 N 0.41516 0.99341 0.14547 0.0
H2170 H 0.30659 0.99475 0.16316 0.0
H2171 H 0.33506 1.00202 0.15003 0.0
H2172 H 0.44649 1.00159 0.14027 0.0
H2173 H 0.38104 0.98124 0.14101 0.0
H2174 H 0.4444 0.97266 0.19637 0.0
H2175 H 0.38257 0.965 0.19675 0.0
H2176 H 0.51522 0.01632 0.18838 0.0
H2177 H 0.54321 0.01911 0.17529 0.0
C2178 C 0.01258 0.45038 0.1702 0.0
C2179 C 0.96395 0.44075 0.16604 0.0
C2180 C 0.92484 0.35016 0.17197 0.0
C2181 C 0.97383 0.35913 0.17567 0.0
N2182 N 0.06004 0.42032 0.18158 0.0
N2183 N 0.87126 0.38774 0.16764 0.0
C2184 C 0.01651 0.41018 0.17578 0.0
C2185 C 0.9191 0.39266 0.16845 0.0
N2186 N 0.05508 0.49807 0.16869 0.0
N2187 N 0.88437 0.30077 0.17131 0.0
H2188 H 0.86611 0.41929 0.16629 0.0
H2189 H 0.83729 0.3544 0.16992 0.0
H2190 H 0.888 0.26855 0.17311 0.0
H2191 H 0.84853 0.29134 0.16796 0.0
H2192 H 0.09279 0.50615 0.17015 0.0
H2193 H 0.05236 0.52949 0.16567 0.0
H2194 H 0.09119 0.45731 0.1828 0.0
H2195 H 0.06291 0.39198 0.18613 0.0
C2196 C 0.58452 0.56651 0.15884 0.0
C2197 C 0.54036 0.52806 0.1647 0.0
C2198 C 0.5699 0.5805 0.18186 0.0
C2199 C 0.61599 0.61622 0.17619 0.0
N2200 N 0.67311 0.63584 0.16034 0.0
N2201 N 0.49385 0.49477 0.18214 0.0
C2202 C 0.62503 0.60699 0.16498 0.0
C2203 C 0.53408 0.53375 0.17637 0.0
N2204 N 0.58748 0.56534 0.14736 0.0
N2205 N 0.55943 0.59254 0.19228 0.0
H2206 H 0.46611 0.46091 0.17825 0.0
H2207 H 0.49 0.49444 0.19087 0.0
H2208 H 0.58446 0.627 0.19636 0.0
H2209 H 0.52432 0.57063 0.19645 0.0
H2210 H 0.6166 0.59514 0.14265 0.0
H2211 H 0.55828 0.53724 0.14244 0.0
H2212 H 0.68355 0.62733 0.15258 0.0
H2213 H 0.70411 0.66474 0.1648 0.0
C2214 C 0.38636 0.12 0.98437 0.0
C2215 C 0.34715 0.07096 0.98831 0.0
C2216 C 0.30693 0.11391 -0.0019 0.0
C2217 C 0.35329 0.16201 0.99708 0.0
N2218 N 0.43302 0.21306 0.98678 0.0
N2219 N 0.27152 0.02197 -2e-05 0.0
C2220 C 0.39174 0.16598 0.98937 0.0
C2221 C 0.30709 0.06789 0.99528 0.0
N2222 N 0.41703 0.12228 0.97556 0.0
N2223 N 0.26286 0.11241 0.00182 0.0
H2224 H 0.27261 0.98791 -0.00108 0.0
H2225 H 0.24435 0.01906 0.00592 0.0
H2226 H 0.26145 0.14617 0.00332 0.0
H2227 H 0.22708 0.07853 0.00201 0.0
H2228 H 0.44396 0.15654 0.97167 0.0
H2229 H 0.41174 0.0892 0.97141 0.0
H2230 H 0.46635 0.21775 0.98284 0.0
H2231 H 0.43324 0.24751 0.98832 0.0
C2232 C 0.87971 0.25905 0.98801 0.0
C2233 C 0.87676 0.21658 0.99409 0.0
C2234 C 0.96894 0.24893 0.99076 0.0
C2235 C 0.97381 0.29548 0.98659 0.0
N2236 N 0.9349 0.34049 0.97815 0.0
N2237 N 0.91103 0.15918 0.99573 0.0
C2238 C 0.92918 0.29887 0.98413 0.0
C2239 C 0.91909 0.20755 0.99355 0.0
N2240 N 0.83583 0.26135 0.98607 0.0
N2241 N 0.01228 0.2456 0.99267 0.0
H2242 H 0.87402 0.12819 0.99733 0.0
H2243 H 0.9394 0.14882 0.99475 0.0
H2244 H 0.04918 0.27517 0.99048 0.0
H2245 H 0.01189 0.21484 0.99691 0.0
H2246 H 0.83535 0.29341 0.98279 0.0
H2247 H 0.7991 0.22945 0.98717 0.0
H2248 H 0.90445 0.3453 0.97544 0.0
H2249 H 0.97107 0.36953 0.97537 0.0
C2250 C 0.81007 0.65439 0.98693 0.0
C2251 C 0.84542 0.69123 0.99468 0.0
C2252 C 0.80334 0.74318 0.99271 0.0
C2253 C 0.76528 0.70489 0.98566 0.0
N2254 N 0.7441 0.6351 0.97275 0.0
N2255 N 0.8916 0.7818 -0.00079 0.0
C2256 C 0.77237 0.66381 0.98171 0.0
C2257 C 0.84756 0.73961 0.99552 0.0
N2258 N 0.81217 0.6108 0.98453 0.0
N2259 N 0.79572 0.78027 0.99758 0.0
H2260 H 0.9252 0.78019 0.00083 0.0
H2261 H 0.89621 0.8188 -0.00068 0.0
H2262 H 0.76176 0.78169 0.99673 0.0
H2263 H 0.82096 0.80607 0.00355 0.0
H2264 H 0.78264 0.57901 0.98042 0.0
H2265 H 0.84419 0.60703 0.98644 0.0
H2266 H 0.74974 0.60699 0.96888 0.0
H2267 H 0.71862 0.64342 0.96845 0.0
C2268 C 0.57668 0.99712 0.82303 0.0
C2269 C 0.62616 0.03574 0.82679 0.0
C2270 C 0.58552 0.07721 0.83712 0.0
C2271 C 0.53681 0.03194 0.8358 0.0
N2272 N 0.48361 0.96377 0.82301 0.0
N2273 N 0.67846 0.11388 0.83725 0.0
C2274 C 0.53145 0.99629 0.8273 0.0
C2275 C 0.63097 0.07709 0.83353 0.0
N2276 N 0.57348 0.96035 0.81572 0.0
N2277 N 0.58782 0.12047 0.84156 0.0
H2278 H 0.71254 0.11471 0.8349 0.0
H2279 H 0.68368 0.14149 0.84326 0.0
H2280 H 0.55433 0.12192 0.84344 0.0
H2281 H 0.62181 0.15599 0.84202 0.0
H2282 H 0.53906 0.92762 0.81348 0.0
H2283 H 0.60629 0.96245 0.81202 0.0
H2284 H 0.47655 0.93776 0.8165 0.0
H2285 H 0.45151 0.96723 0.82516 0.0
C2286 C 0.93739 0.53509 0.82136 0.0
C2287 C 0.981 0.58369 0.8186 0.0
C2288 C 0.03775 0.5465 0.82096 0.0
C2289 C 0.99573 0.50242 0.82595 0.0
N2290 N 0.90462 0.44392 0.82519 0.0
N2291 N 0.07122 0.63436 0.81405 0.0
C2292 C 0.94506 0.49309 0.82411 0.0
C2293 C 0.03071 0.58853 0.81765 0.0
N2294 N 0.88957 0.53021 0.82243 0.0
N2295 N 0.08327 0.54716 0.81913 0.0
H2296 H 0.06594 0.66421 0.81099 0.0
H2297 H 0.10968 0.64337 0.81431 0.0
H2298 H 0.08661 0.51433 0.82036 0.0
H2299 H 0.11544 0.57741 0.81525 0.0
H2300 H 0.85775 0.4975 0.82575 0.0
H2301 H 0.88205 0.55993 0.82067 0.0
H2302 H 0.86665 0.43317 0.82314 0.0
H2303 H 0.91065 0.41305 0.82701 0.0
C2304 C 0.3989 0.39892 0.84047 0.0
C2305 C 0.44271 0.44147 0.83541 0.0
C2306 C 0.42535 0.39279 0.8178 0.0
C2307 C 0.3788 0.35279 0.82253 0.0
N2308 N 0.31639 0.32129 0.83757 0.0
N2309 N 0.49554 0.48158 0.81901 0.0
C2310 C 0.36436 0.35666 0.83368 0.0
C2311 C 0.4552 0.43932 0.82396 0.0
N2312 N 0.39054 0.39838 0.85181 0.0
N2313 N 0.44185 0.38512 0.80761 0.0
H2314 H 0.51915 0.51557 0.8234 0.0
H2315 H 0.50346 0.4843 0.8104 0.0
H2316 H 0.42149 0.35064 0.80315 0.0
H2317 H 0.47768 0.4106 0.80408 0.0
H2318 H 0.36343 0.36559 0.85615 0.0
H2319 H 0.41266 0.42969 0.85706 0.0
H2320 H 0.3013 0.32503 0.84521 0.0
H2321 H 0.28978 0.2904 0.83271 0.0
C2322 C 0.67523 0.88773 0.00801 0.0
C2323 C 0.68342 0.88636 0.99624 0.0
C2324 C 0.69363 0.97321 0.99423 0.0
C2325 C 0.69067 0.97652 0.00605 0.0
N2326 N 0.68436 0.94045 0.02444 0.0
N2327 N 0.7058 0.93064 0.97818 0.0
C2328 C 0.6827 0.93453 0.01301 0.0
C2329 C 0.6943 0.92998 0.98937 0.0
N2330 N 0.66042 0.84439 0.01437 0.0
N2331 N 0.69316 0.01044 0.9876 0.0
H2332 H 0.70344 0.89913 0.97392 0.0
H2333 H 0.72073 0.96371 0.97319 0.0
H2334 H 0.69191 0.04216 0.99091 0.0
H2335 H 0.68891 0.00752 0.97888 0.0
H2336 H 0.64885 0.84103 0.02276 0.0
H2337 H 0.65635 0.81024 0.01103 0.0
H2338 H 0.6838 0.91356 0.03011 0.0
H2339 H 0.69042 0.97452 0.02825 0.0
C2340 C 0.094 0.79619 0.00728 0.0
C2341 C 0.08074 0.74366 0.00825 0.0
C2342 C 0.16555 0.76549 0.00045 0.0
C2343 C 0.17423 0.81508 0.99729 0.0
N2344 N 0.14834 0.87965 -0.00154 0.0
N2345 N 0.10115 0.67665 0.00441 0.0
C2346 C 0.13883 0.831 0.00097 0.0
C2347 C 0.11592 0.72792 0.00448 0.0
N2348 N 0.06509 0.8132 0.01281 0.0
N2349 N 0.20481 0.75459 -2e-05 0.0
H2350 H 0.06391 0.64788 0.00661 0.0
H2351 H 0.12382 0.66233 0.00105 0.0
H2352 H 0.24289 0.7829 -0.00152 0.0
H2353 H 0.20119 0.71986 0.00279 0.0
H2354 H 0.07527 0.85193 0.01334 0.0
H2355 H 0.0332 0.789 0.01779 0.0
H2356 H 0.12122 0.8916 -0.00046 0.0
H2357 H 0.1833 0.90778 0.99497 0.0
C2358 C 0.22209 0.35304 0.00526 0.0
C2359 C 0.23949 0.37578 0.99448 0.0
C2360 C 0.32186 0.3775 0.99748 0.0
C2361 C 0.30247 0.34997 0.00766 0.0
N2362 N 0.23194 0.30476 0.02064 0.0
N2363 N 0.30211 0.39995 0.97938 0.0
C2364 C 0.25195 0.33605 0.01142 0.0
C2365 C 0.28828 0.3852 0.99031 0.0
N2366 N 0.17704 0.34746 0.00957 0.0
N2367 N 0.37302 0.39806 0.99486 0.0
H2368 H 0.27831 0.40488 0.97377 0.0
H2369 H 0.33479 0.40234 0.97559 0.0
H2370 H 0.39881 0.39376 4e-05 0.0
H2371 H 0.39082 0.42348 0.98816 0.0
H2372 H 0.1647 0.33581 0.01782 0.0
H2373 H 0.15363 0.35808 0.00512 0.0
H2374 H 0.19371 0.28906 0.02329 0.0
H2375 H 0.25256 0.29076 0.02508 0.0
C2376 C 0.07154 0.28351 0.5112 0.0
C2377 C 0.06223 0.32569 0.51232 0.0
C2378 C 0.15194 0.3834 0.50652 0.0
C2379 C 0.15546 0.34142 0.5021 0.0
N2380 N 0.12063 0.24928 0.5018 0.0
N2381 N 0.09361 0.41637 0.50882 0.0
C2382 C 0.11571 0.2906 0.50494 0.0
C2383 C 0.10265 0.37596 0.50946 0.0
N2384 N 0.04039 0.23803 0.51663 0.0
N2385 N 0.19529 0.42945 0.50851 0.0
H2386 H 0.05662 0.41168 0.50932 0.0
H2387 H 0.12204 0.45318 0.50636 0.0
H2388 H 0.23234 0.43499 0.50727 0.0
H2389 H 0.19376 0.45844 0.51311 0.0
H2390 H 0.04766 0.20733 0.51679 0.0
H2391 H 0.01094 0.23326 0.5221 0.0
H2392 H 0.09051 0.21121 0.50236 0.0
H2393 H 0.15493 0.25369 0.49839 0.0
C2394 C 0.68911 0.81405 0.50656 0.0
C2395 C 0.67687 0.80185 0.495 0.0
C2396 C 0.68084 0.72192 0.49759 0.0
C2397 C 0.69781 0.73655 0.50878 0.0
N2398 N 0.7226 0.79765 0.52386 0.0
N2399 N 0.66775 0.74694 0.47909 0.0
C2400 C 0.70298 0.78293 0.51326 0.0
C2401 C 0.67479 0.75665 0.49039 0.0
N2402 N 0.68758 0.85535 0.5111 0.0
N2403 N 0.66812 0.67353 0.494 0.0
H2404 H 0.66063 0.76935 0.47349 0.0
H2405 H 0.67247 0.71849 0.4751 0.0
H2406 H 0.67182 0.64711 0.49909 0.0
H2407 H 0.64956 0.65779 0.4864 0.0
H2408 H 0.69125 0.86373 0.51967 0.0
H2409 H 0.67942 0.87979 0.50633 0.0
H2410 H 0.73201 0.8331 0.52742 0.0
H2411 H 0.73295 0.77541 0.52883 0.0
C2412 C 0.22115 0.89753 0.50536 0.0
C2413 C 0.22841 0.89508 0.49358 0.0
C2414 C 0.30882 0.97929 0.49437 0.0
C2415 C 0.29969 0.98313 0.50592 0.0
N2416 N 0.24686 0.94985 0.52244 0.0
N2417 N 0.27736 0.93548 0.47657 0.0
C2418 C 0.2557 0.94319 0.51143 0.0
C2419 C 0.27167 0.9366 0.488 0.0
N2420 N 0.18139 0.85617 0.5107 0.0
N2421 N 0.35448 0.01566 0.48964 0.0
H2422 H 0.25427 0.90359 0.47159 0.0
H2423 H 0.30363 0.96718 0.47185 0.0
H2424 H 0.38189 0.0479 0.49405 0.0
H2425 H 0.36712 0.01243 0.48166 0.0
H2426 H 0.17629 0.85315 0.5194 0.0
H2427 H 0.15459 0.82309 0.50644 0.0
H2428 H 0.21362 0.92472 0.5269 0.0
H2429 H 0.27194 0.98291 0.52696 0.0
C2430 C 0.02882 0.38649 0.31991 0.0
C2431 C 0.97677 0.35974 0.31631 0.0
C2432 C 0.95908 0.41915 0.32721 0.0
C2433 C 0.01207 0.44754 0.33036 0.0
N2434 N 0.09957 0.46625 0.32699 0.0
N2435 N 0.89388 0.35396 0.31497 0.0
C2436 C 0.04769 0.43375 0.32586 0.0
C2437 C 0.94224 0.37704 0.31953 0.0
N2438 N 0.05978 0.36567 0.3179 0.0
N2439 N 0.92494 0.43249 0.33161 0.0
H2440 H 0.88069 0.3226 0.30949 0.0
H2441 H 0.86811 0.3676 0.31602 0.0
H2442 H 0.93674 0.4657 0.33645 0.0
H2443 H 0.88501 0.41003 0.33079 0.0
H2444 H 0.09659 0.38037 0.32131 0.0
H2445 H 0.04656 0.33054 0.31373 0.0
H2446 H 0.12746 0.45982 0.32323 0.0
H2447 H 0.1147 0.50295 0.3304 0.0
C2448 C 0.5936 0.62903 0.32863 0.0
C2449 C 0.58625 0.58703 0.33557 0.0
C2450 C 0.66005 0.58675 0.32627 0.0
C2451 C 0.6698 0.63134 0.32013 0.0
N2452 N 0.65007 0.69804 0.31583 0.0
N2453 N 0.61184 0.52524 0.34113 0.0
C2454 C 0.63757 0.65322 0.3214 0.0
C2455 C 0.6194 0.5657 0.33441 0.0
N2456 N 0.55818 0.64531 0.32882 0.0
N2457 N 0.68897 0.56388 0.32398 0.0
H2458 H 0.57981 0.50582 0.34643 0.0
H2459 H 0.63774 0.51159 0.34174 0.0
H2460 H 0.71935 0.57924 0.31817 0.0
H2461 H 0.68146 0.52852 0.32729 0.0
H2462 H 0.55848 0.67254 0.3233 0.0
H2463 H 0.52562 0.62839 0.33394 0.0
H2464 H 0.63215 0.71984 0.31725 0.0
H2465 H 0.6813 0.71559 0.31027 0.0
C2466 C 0.45156 0.08285 0.31977 0.0
C2467 C 0.3996 0.04738 0.31701 0.0
C2468 C 0.40876 0.97646 0.325 0.0
C2469 C 0.45826 0.01285 0.32924 0.0
N2470 N 0.52803 0.10089 0.33045 0.0
N2471 N 0.32619 0.96194 0.31795 0.0
C2472 C 0.48006 0.06618 0.32651 0.0
C2473 C 0.37759 0.99453 0.31987 0.0
N2474 N 0.47393 0.13207 0.31563 0.0
N2475 N 0.3918 0.92479 0.32564 0.0
H2476 H 0.30252 0.97447 0.31432 0.0
H2477 H 0.30605 0.92397 0.32084 0.0
H2478 H 0.41469 0.91016 0.3286 0.0
H2479 H 0.35766 0.89661 0.32197 0.0
H2480 H 0.51314 0.15885 0.31631 0.0
H2481 H 0.4536 0.14518 0.31079 0.0
H2482 H 0.54365 0.14076 0.33006 0.0
H2483 H 0.55187 0.08955 0.33446 0.0
C2484 C 0.97024 0.18567 0.24173 0.0
C2485 C 0.99599 0.21552 0.25132 0.0
C2486 C 0.07047 0.27378 0.23951 0.0
C2487 C 0.04313 0.24579 0.22984 0.0
N2488 N 0.96247 0.18248 0.22144 0.0
N2489 N 0.06631 0.2931 0.25924 0.0
C2490 C 0.99158 0.20399 0.23087 0.0
C2491 C 0.04494 0.26116 0.25019 0.0
N2492 N 0.92649 0.13864 0.243 0.0
N2493 N 0.12123 0.31117 0.23856 0.0
H2494 H 0.04863 0.28523 0.26716 0.0
H2495 H 0.09927 0.32941 0.2587 0.0
H2496 H 0.14069 0.32184 0.23084 0.0
H2497 H 0.145 0.32902 0.24546 0.0
H2498 H 0.90944 0.11254 0.23641 0.0
H2499 H 0.90976 0.12348 0.25083 0.0
H2500 H 0.92302 0.1559 0.2217 0.0
H2501 H 0.97648 0.19475 0.21331 0.0
C2502 C 0.84471 0.78541 0.23298 0.0
C2503 C 0.8335 0.82544 0.23064 0.0
C2504 C 0.87018 0.86459 0.24884 0.0
C2505 C 0.8677 0.81785 0.25222 0.0
N2506 N 0.89452 0.76012 0.24468 0.0
N2507 N 0.83893 0.90601 0.2361 0.0
C2508 C 0.86733 0.78543 0.24346 0.0
C2509 C 0.84721 0.86598 0.2385 0.0
N2510 N 0.83229 0.74648 0.22542 0.0
N2511 N 0.90301 0.90952 0.25419 0.0
H2512 H 0.8242 0.90967 0.22841 0.0
H2513 H 0.84381 0.93367 0.24209 0.0
H2514 H 0.92974 0.91105 0.26007 0.0
H2515 H 0.90969 0.94559 0.2515 0.0
H2516 H 0.8352 0.7139 0.2273 0.0
H2517 H 0.81531 0.74475 0.21764 0.0
H2518 H 0.89978 0.73971 0.23818 0.0
H2519 H 0.91716 0.76547 0.25181 0.0
C2520 C 0.18881 0.97177 0.24533 0.0
C2521 C 0.20279 0.99904 0.23496 0.0
C2522 C 0.2363 0.08095 0.24516 0.0
C2523 C 0.22771 0.05401 0.2555 0.0
N2524 N 0.20714 0.97475 0.26522 0.0
N2525 N 0.24993 0.08044 0.22505 0.0
C2526 C 0.20719 0.99963 0.25554 0.0
C2527 C 0.22941 0.05396 0.23487 0.0
N2528 N 0.15659 0.91946 0.24548 0.0
N2529 N 0.24942 0.13182 0.24513 0.0
H2530 H 0.24726 0.06224 0.21738 0.0
H2531 H 0.274 0.12038 0.22473 0.0
H2532 H 0.254 0.15266 0.25251 0.0
H2533 H 0.25095 0.15188 0.23782 0.0
H2534 H 0.14105 0.89851 0.25289 0.0
H2535 H 0.14119 0.89771 0.23819 0.0
H2536 H 0.19727 0.936 0.26542 0.0
H2537 H 0.22212 0.99386 0.27282 0.0
C2538 C 0.01127 0.75326 0.75741 0.0
C2539 C 0.95817 0.72699 0.76046 0.0
C2540 C 0.93476 0.71194 0.74045 0.0
C2541 C 0.98749 0.74431 0.73745 0.0
N2542 N 0.07491 0.80433 0.74326 0.0
N2543 N 0.8688 0.68816 0.75483 0.0
C2544 C 0.02558 0.76722 0.74598 0.0
C2545 C 0.91963 0.7079 0.75197 0.0
N2546 N 0.0481 0.76407 0.76543 0.0
N2547 N 0.89933 0.68413 0.73233 0.0
H2548 H 0.85613 0.68516 0.76314 0.0
H2549 H 0.83975 0.67894 0.74892 0.0
H2550 H 0.9091 0.68571 0.72383 0.0
H2551 H 0.86138 0.65598 0.73416 0.0
H2552 H 0.08704 0.77863 0.7635 0.0
H2553 H 0.03906 0.75356 0.77387 0.0
H2554 H 0.10266 0.82607 0.74928 0.0
H2555 H 0.08678 0.81721 0.73504 0.0
C2556 C 0.24785 0.23563 0.75422 0.0
C2557 C 0.27344 0.20693 0.75593 0.0
C2558 C 0.28956 0.20834 0.73568 0.0
C2559 C 0.25761 0.23039 0.73388 0.0
N2560 N 0.2007 0.25931 0.74125 0.0
N2561 N 0.31581 0.16239 0.7485 0.0
C2562 C 0.23556 0.24299 0.7431 0.0
C2563 C 0.29399 0.19263 0.74672 0.0
N2564 N 0.23581 0.25629 0.76323 0.0
N2565 N 0.31603 0.20308 0.72682 0.0
H2566 H 0.32046 0.15098 0.75652 0.0
H2567 H 0.3262 0.14578 0.74203 0.0
H2568 H 0.31353 0.21433 0.71863 0.0
H2569 H 0.34373 0.19182 0.72773 0.0
H2570 H 0.22201 0.28205 0.76242 0.0
H2571 H 0.2441 0.25155 0.77153 0.0
H2572 H 0.17882 0.2631 0.74764 0.0
H2573 H 0.19032 0.26511 0.73323 0.0
C2574 C 0.72245 0.933 0.76164 0.0
C2575 C 0.75104 0.98554 0.76497 0.0
C2576 C 0.76417 0.0124 0.74517 0.0
C2577 C 0.74174 0.95994 0.74188 0.0
N2578 N 0.70546 0.87016 0.74696 0.0
N2579 N 0.80711 0.07514 0.75993 0.0
C2580 C 0.72219 0.92006 0.75011 0.0
C2581 C 0.7739 0.02533 0.75675 0.0
N2582 N 0.69485 0.89565 0.76949 0.0
N2583 N 0.77522 0.0498 0.73724 0.0
H2584 H 0.81637 0.08636 0.76831 0.0
H2585 H 0.82923 0.10451 0.75421 0.0
H2586 H 0.76811 0.04174 0.72867 0.0
H2587 H 0.78667 0.08795 0.73928 0.0
H2588 H 0.66918 0.85732 0.76743 0.0
H2589 H 0.69399 0.90389 0.77801 0.0
H2590 H 0.69615 0.84036 0.7527 0.0
H2591 H 0.70492 0.85916 0.7386 0.0
C2592 C 0.73664 0.61564 0.59472 0.0
C2593 C 0.68443 0.58226 0.59797 0.0
C2594 C 0.66016 0.56636 0.57803 0.0
C2595 C 0.71318 0.59353 0.57488 0.0
N2596 N 0.80266 0.63506 0.58063 0.0
N2597 N 0.59831 0.5165 0.59257 0.0
C2598 C 0.75174 0.61583 0.58334 0.0
C2599 C 0.64657 0.55503 0.58958 0.0
N2600 N 0.77161 0.64821 0.60243 0.0
N2601 N 0.62265 0.55264 0.57004 0.0
H2602 H 0.58722 0.50512 0.60089 0.0
H2603 H 0.57114 0.4922 0.5867 0.0
H2604 H 0.63096 0.56179 0.56152 0.0
H2605 H 0.58365 0.53711 0.57205 0.0
H2606 H 0.80894 0.67676 0.60025 0.0
H2607 H 0.76169 0.65033 0.61078 0.0
H2608 H 0.83166 0.64702 0.58667 0.0
H2609 H 0.81532 0.63411 0.57248 0.0
C2610 C 0.45111 0.0651 0.58436 0.0
C2611 C 0.42844 0.07535 0.59381 0.0
C2612 C 0.38812 0.11126 0.58155 0.0
C2613 C 0.41115 0.10142 0.57211 0.0
N2614 N 0.45537 0.05996 0.564 0.0
N2615 N 0.36778 0.09824 0.60154 0.0
C2616 C 0.4396 0.07522 0.57336 0.0
C2617 C 0.39428 0.09512 0.59243 0.0
N2618 N 0.48532 0.04778 0.58596 0.0
N2619 N 0.36206 0.13776 0.58013 0.0
H2620 H 0.37207 0.08738 0.60965 0.0
H2621 H 0.33866 0.1077 0.601 0.0
H2622 H 0.35513 0.14832 0.57222 0.0
H2623 H 0.34954 0.15168 0.58675 0.0
H2624 H 0.50816 0.04556 0.57958 0.0
H2625 H 0.49306 0.03807 0.59389 0.0
H2626 H 0.47193 0.03645 0.56427 0.0
H2627 H 0.44828 0.06749 0.55581 0.0
C2628 C 0.97942 0.39225 0.58436 0.0
C2629 C 0.95864 0.36377 0.59442 0.0
C2630 C 0.91963 0.28254 0.58386 0.0
C2631 C 0.93367 0.31146 0.57373 0.0
N2632 N 0.97679 0.39314 0.56393 0.0
N2633 N 0.90839 0.28233 0.6041 0.0
C2634 C 0.96422 0.36619 0.57386 0.0
C2635 C 0.92927 0.30892 0.5943 0.0
N2636 N 0.01387 0.44405 0.58491 0.0
N2637 N 0.8969 0.22991 0.58344 0.0
H2638 H 0.91576 0.29999 0.61198 0.0
H2639 H 0.88135 0.24309 0.60443 0.0
H2640 H 0.88856 0.20959 0.57587 0.0
H2641 H 0.89014 0.20667 0.5905 0.0
H2642 H 0.03418 0.46647 0.57799 0.0
H2643 H 0.02541 0.46399 0.59254 0.0
H2644 H 0.99326 0.43308 0.56342 0.0
H2645 H 0.9685 0.37521 0.55606 0.0
C2646 C 0.6462 0.08838 0.07095 0.0
C2647 C 0.69976 0.12064 0.06873 0.0
C2648 C 0.71831 0.12339 0.08893 0.0
C2649 C 0.66444 0.0962 0.09123 0.0
N2650 N 0.57656 0.05818 0.08464 0.0
N2651 N 0.7867 0.17411 0.07552 0.0
C2652 C 0.62816 0.07986 0.0823 0.0
C2653 C 0.73589 0.1394 0.0777 0.0
N2654 N 0.61274 0.06498 0.06222 0.0
N2655 N 0.75259 0.13304 0.09747 0.0
H2656 H 0.80109 0.1865 0.0674 0.0
H2657 H 0.81385 0.19369 0.08179 0.0
H2658 H 0.74098 0.12192 0.1058 0.0
H2659 H 0.79206 0.14797 0.09619 0.0
H2660 H 0.57419 0.03672 0.06334 0.0
H2661 H 0.62453 0.07051 0.0538 0.0
H2662 H 0.54879 0.05107 0.07854 0.0
H2663 H 0.5617 0.0508 0.09283 0.0
C2664 C 0.94102 0.58818 0.07253 0.0
C2665 C 0.90712 0.60786 0.07058 0.0
C2666 C 0.89748 0.61438 0.09091 0.0
C2667 C 0.92535 0.588 0.09278 0.0
N2668 N 0.96955 0.54489 0.0855 0.0
N2669 N 0.84947 0.63614 0.07766 0.0
C2670 C 0.9465 0.57397 0.08363 0.0
C2671 C 0.88467 0.62049 0.07971 0.0
N2672 N 0.9685 0.5838 0.06376 0.0
N2673 N 0.88385 0.634 0.09985 0.0
H2674 H 0.83962 0.64161 0.06956 0.0
H2675 H 0.82731 0.64024 0.08394 0.0
H2676 H 0.89275 0.63015 0.10817 0.0
H2677 H 0.86786 0.65788 0.099 0.0
H2678 H 0.99772 0.57473 0.06482 0.0
H2679 H 0.96538 0.59377 0.05549 0.0
H2680 H 0.98007 0.52819 0.07906 0.0
H2681 H 0.97488 0.53413 0.09353 0.0
C2682 C 0.44512 0.35394 0.07631 0.0
C2683 C 0.42687 0.30231 0.0728 0.0
C2684 C 0.40315 0.2725 0.09229 0.0
C2685 C 0.42743 0.32463 0.09593 0.0
N2686 N 0.48125 0.41539 0.09154 0.0
N2687 N 0.39631 0.21308 0.07761 0.0
C2688 C 0.45104 0.36558 0.08798 0.0
C2689 C 0.40787 0.26163 0.08083 0.0
N2690 N 0.45537 0.39169 0.06853 0.0
N2691 N 0.37469 0.23347 0.09974 0.0
H2692 H 0.40021 0.20382 0.06932 0.0
H2693 H 0.38743 0.18321 0.0833 0.0
H2694 H 0.36995 0.24013 0.10818 0.0
H2695 H 0.35194 0.19503 0.09733 0.0
H2696 H 0.46364 0.42883 0.07073 0.0
H2697 H 0.45059 0.38465 0.05989 0.0
H2698 H 0.50375 0.44581 0.08607 0.0
H2699 H 0.48798 0.42575 0.10001 0.0
C2700 C 0.43777 0.99445 0.92426 0.0
C2701 C 0.38419 0.96019 0.92613 0.0
C2702 C 0.37056 0.9428 0.90593 0.0
C2703 C 0.42414 0.97726 0.90398 0.0
N2704 N 0.50716 0.04247 0.91075 0.0
N2705 N 0.29776 0.91023 0.91881 0.0
C2706 C 0.45727 1.0054 0.913 0.0
C2707 C 0.35001 0.93736 0.91696 0.0
N2708 N 0.47002 0.01513 0.93328 0.0
N2709 N 0.33974 0.91312 0.89732 0.0
H2710 H 0.28114 0.90344 0.92681 0.0
H2711 H 0.27052 0.89794 0.91238 0.0
H2712 H 0.35282 0.9164 0.88907 0.0
H2713 H 0.30226 0.88254 0.89844 0.0
H2714 H 0.51014 0.03574 0.93265 0.0
H2715 H 0.45652 0.00962 0.94158 0.0
H2716 H 0.53233 0.06773 0.91676 0.0
H2717 H 0.52242 0.05044 0.90259 0.0
C2718 C 0.07908 0.51059 0.91359 0.0
C2719 C 0.09349 0.48832 0.90473 0.0
C2720 C 0.12893 0.45314 0.91845 0.0
C2721 C 0.10981 0.47072 0.92736 0.0
N2722 N 0.0575 0.50729 0.9334 0.0
N2723 N 0.11924 0.42668 0.89897 0.0
C2724 C 0.08208 0.49684 0.92493 0.0
C2725 C 0.11448 0.45597 0.90723 0.0
N2726 N 0.06446 0.54628 0.91122 0.0
N2727 N 0.16295 0.43606 0.92058 0.0
H2728 H 0.10738 0.42611 0.89068 0.0
H2729 H 0.12971 0.39882 0.90062 0.0
H2730 H 0.17657 0.43542 0.92863 0.0
H2731 H 0.18187 0.42779 0.91421 0.0
H2732 H 0.05872 0.56769 0.91741 0.0
H2733 H 0.06255 0.55787 0.90303 0.0
H2734 H 0.03261 0.52173 0.93196 0.0
H2735 H 0.05806 0.49692 0.94177 0.0
C2736 C 0.63198 0.72741 0.91563 0.0
C2737 C 0.61159 0.69394 0.92507 0.0
C2738 C 0.56473 0.61962 0.91256 0.0
C2739 C 0.58672 0.65276 0.90311 0.0
N2740 N 0.64919 0.73568 0.89551 0.0
N2741 N 0.56829 0.60755 0.93268 0.0
C2742 C 0.62297 0.70595 0.90461 0.0
C2743 C 0.58107 0.63975 0.92357 0.0
N2744 N 0.65789 0.77975 0.91715 0.0
N2745 N 0.52637 0.56961 0.91105 0.0
H2746 H 0.57975 0.62107 0.94087 0.0
H2747 H 0.55052 0.56752 0.93203 0.0
H2748 H 0.51326 0.55328 0.90313 0.0
H2749 H 0.50468 0.54541 0.91765 0.0
H2750 H 0.66839 0.8062 0.91057 0.0
H2751 H 0.66573 0.79694 0.92509 0.0
H2752 H 0.67976 0.77342 0.89616 0.0
H2753 H 0.64344 0.7211 0.88732 0.0
C2754 C 0.37155 0.48981 0.4124 0.0
C2755 C 0.34146 0.46549 0.40272 0.0
C2756 C 0.2642 0.41923 0.41465 0.0
C2757 C 0.29568 0.43919 0.42436 0.0
N2758 N 0.38124 0.48403 0.43245 0.0
N2759 N 0.26065 0.40113 0.39464 0.0
C2760 C 0.34995 0.47181 0.42323 0.0
C2761 C 0.28807 0.42854 0.40383 0.0
N2762 N 0.42029 0.53126 0.41126 0.0
N2763 N 0.2116 0.39273 0.41574 0.0
H2764 H 0.27684 0.40678 0.3866 0.0
H2765 H 0.22313 0.36996 0.39514 0.0
H2766 H 0.19293 0.38522 0.42354 0.0
H2767 H 0.18653 0.38192 0.40891 0.0
H2768 H 0.44183 0.55367 0.41805 0.0
H2769 H 0.43715 0.54658 0.40345 0.0
H2770 H 0.42145 0.50341 0.43191 0.0
H2771 H 0.36724 0.47011 0.44052 0.0
C2772 C 0.52924 0.93162 0.41133 0.0
C2773 C 0.54938 0.91584 0.40227 0.0
C2774 C 0.58638 0.88079 0.41569 0.0
C2775 C 0.57026 0.90072 0.42472 0.0
N2776 N 0.53509 0.95365 0.43113 0.0
N2777 N 0.60569 0.88475 0.39575 0.0
C2778 C 0.54423 0.92869 0.42254 0.0
C2779 C 0.58051 0.89314 0.40443 0.0
N2780 N 0.49425 0.94751 0.40926 0.0
N2781 N 0.60537 0.84836 0.41784 0.0
H2782 H 0.60279 0.89376 0.38739 0.0
H2783 H 0.63316 0.87336 0.39696 0.0
H2784 H 0.60978 0.83785 0.42597 0.0
H2785 H 0.61238 0.8282 0.41157 0.0
H2786 H 0.47404 0.95411 0.41561 0.0
H2787 H 0.48187 0.94971 0.40117 0.0
H2788 H 0.52111 0.97902 0.42986 0.0
H2789 H 0.54592 0.95276 0.43944 0.0
C2790 C 0.15307 0.71873 0.4147 0.0
C2791 C 0.13595 0.68795 0.4246 0.0
C2792 C 0.10382 0.6097 0.41317 0.0
C2793 C 0.11625 0.64023 0.40326 0.0
N2794 N 0.13996 0.7227 0.39472 0.0
N2795 N 0.08291 0.60379 0.43302 0.0
C2796 C 0.137 0.69448 0.40406 0.0
C2797 C 0.10757 0.63324 0.42377 0.0
N2798 N 0.1865 0.7707 0.4154 0.0
N2799 N 0.09059 0.55887 0.41255 0.0
H2800 H 0.08293 0.61975 0.44084 0.0
H2801 H 0.05796 0.56402 0.43262 0.0
H2802 H 0.089 0.54049 0.40497 0.0
H2803 H 0.08625 0.53645 0.41965 0.0
H2804 H 0.20404 0.79379 0.40835 0.0
H2805 H 0.20081 0.78987 0.42302 0.0
H2806 H 0.1503 0.76156 0.3951 0.0
H2807 H 0.12678 0.70613 0.38682 0.0
loop_
_geom_bond_atom_site_label_1
_geom_bond_atom_site_label_2
_geom_bond_distance
_geom_bond_site_symmetry_2
_ccdc_geom_bond_type
C0 C1 1.351 . S
C0 N3 1.368 . S
C0 H5 0.931 . S
C1 C0 1.351 . S
C1 N2 1.373 . S
C1 H29 0.930 . S
N2 C1 1.373 . S
N2 C4 1.340 . S
N3 C0 1.368 . S
N3 C4 1.321 . S
N3 Co6 2.135 . S
C4 N2 1.340 . S
C4 N3 1.321 . S
C4 H28 0.930 . S
H5 C0 0.931 . S
Co6 N3 2.135 . S
Co6 N9 2.121 . S
Co6 O14 2.055 . S
Co6 O17 2.039 . S
Co6 N20 2.140 . S
C7 O8 1.227 . S
C7 O17 1.265 1_655 S
O8 C7 1.227 . S
N9 Co6 2.121 . S
N9 C11 1.375 1_455 S
N9 C12 1.313 . S
C10 C11 1.338 . S
C10 N13 1.377 1_655 S
C10 H30 0.930 . S
C11 N9 1.375 1_655 S
C11 C10 1.338 . S
C11 H15 0.931 . S
C12 N9 1.313 . S
C12 N13 1.344 . S
C12 H16 0.930 . S
N13 C10 1.377 1_455 S
N13 C12 1.344 . S
O14 Co6 2.055 . S
O14 C18 1.253 . S
H15 C11 0.931 . S
H16 C12 0.930 . S
O17 Co6 2.039 . S
O17 C7 1.265 1_455 S
C18 O14 1.253 . S
C18 O19 1.227 . S
O19 C18 1.227 . S
N20 Co6 2.140 . S
N20 C23 1.346 . S
N20 C24 1.345 . S
C21 C22 1.387 . S
C21 C25 1.391 . S
C22 C21 1.387 . S
C22 C23 1.369 . S
C22 H31 0.929 . S
C23 N20 1.346 . S
C23 C22 1.369 . S
C23 H26 0.928 . S
C24 N20 1.345 . S
C24 C25 1.371 . S
C24 H27 0.931 . S
C25 C21 1.391 . S
C25 C24 1.371 . S
C25 H32 0.930 . S
H26 C23 0.928 . S
H27 C24 0.931 . S
H28 C4 0.930 . S
H29 C1 0.930 . S
H30 C10 0.930 . S
H31 C22 0.929 . S
H32 C25 0.930 . S
C33 C34 1.351 . S
C33 N36 1.368 . S
C33 H38 0.931 . S
C34 C33 1.351 . S
C34 N35 1.373 . S
C34 H62 0.930 1_565 S
N35 C34 1.373 . S
N35 C37 1.340 . S
N36 C33 1.368 . S
N36 C37 1.321 . S
N36 Co39 2.135 . S
C37 N35 1.340 . S
C37 N36 1.321 . S
C37 H61 0.930 . S
H38 C33 0.931 . S
Co39 N36 2.135 . S
Co39 N42 2.121 . S
Co39 O47 2.055 . S
Co39 O50 2.039 . S
Co39 N53 2.140 . S
C40 O41 1.227 . S
C40 O50 1.265 . S
O41 C40 1.227 . S
N42 Co39 2.121 . S
N42 C44 1.375 . S
N42 C45 1.313 . S
C43 C44 1.338 . S
C43 N46 1.377 . S
C43 H63 0.930 . S
C44 N42 1.375 . S
C44 C43 1.338 . S
C44 H48 0.931 . S
C45 N42 1.313 . S
C45 N46 1.344 . S
C45 H49 0.930 . S
N46 C43 1.377 . S
N46 C45 1.344 . S
O47 Co39 2.055 . S
O47 C51 1.253 . S
H48 C44 0.931 . S
H49 C45 0.930 . S
O50 Co39 2.039 . S
O50 C40 1.265 . S
C51 O47 1.253 . S
C51 O52 1.227 . S
O52 C51 1.227 . S
N53 Co39 2.140 . S
N53 C56 1.346 . S
N53 C57 1.345 . S
C54 C55 1.387 . S
C54 C58 1.391 . S
C55 C54 1.387 . S
C55 C56 1.369 . S
C55 H64 0.929 . S
C56 N53 1.346 . S
C56 C55 1.369 . S
C56 H59 0.928 . S
C57 N53 1.345 . S
C57 C58 1.371 . S
C57 H60 0.931 . S
C58 C54 1.391 . S
C58 C57 1.371 . S
C58 H65 0.930 . S
H59 C56 0.928 . S
H60 C57 0.931 . S
H61 C37 0.930 . S
H62 C34 0.930 1_545 S
H63 C43 0.930 . S
H64 C55 0.929 . S
H65 C58 0.930 . S
C66 C67 1.351 . S
C66 N69 1.368 . S
C66 H71 0.931 . S
C67 C66 1.351 . S
C67 N68 1.373 . S
C67 H95 0.930 1_455 S
N68 C67 1.373 . S
N68 C70 1.340 . S
N69 C66 1.368 . S
N69 C70 1.321 . S
N69 Co72 2.135 . S
C70 N68 1.340 . S
C70 N69 1.321 . S
C70 H94 0.930 . S
H71 C66 0.931 . S
Co72 N69 2.135 . S
Co72 N75 2.121 . S
Co72 O80 2.055 . S
Co72 O83 2.039 . S
Co72 N86 2.140 . S
C73 O74 1.227 . S
C73 O83 1.265 1_545 S
O74 C73 1.227 . S
N75 Co72 2.121 . S
N75 C77 1.375 1_565 S
N75 C78 1.313 . S
C76 C77 1.338 . S
C76 N79 1.377 1_545 S
C76 H96 0.930 . S
C77 N75 1.375 1_545 S
C77 C76 1.338 . S
C77 H81 0.931 . S
C78 N75 1.313 . S
C78 N79 1.344 . S
C78 H82 0.930 . S
N79 C76 1.377 1_565 S
N79 C78 1.344 . S
O80 Co72 2.055 . S
O80 C84 1.253 . S
H81 C77 0.931 . S
H82 C78 0.930 . S
O83 Co72 2.039 . S
O83 C73 1.265 1_565 S
C84 O80 1.253 . S
C84 O85 1.227 . S
O85 C84 1.227 . S
N86 Co72 2.140 . S
N86 C89 1.346 . S
N86 C90 1.345 . S
C87 C88 1.387 . S
C87 C91 1.391 . S
C88 C87 1.387 . S
C88 C89 1.369 . S
C88 H97 0.929 . S
C89 N86 1.346 . S
C89 C88 1.369 . S
C89 H92 0.928 . S
C90 N86 1.345 . S
C90 C91 1.371 . S
C90 H93 0.931 . S
C91 C87 1.391 . S
C91 C90 1.371 . S
C91 H98 0.930 . S
H92 C89 0.928 . S
H93 C90 0.931 . S
H94 C70 0.930 . S
H95 C67 0.930 1_655 S
H96 C76 0.930 . S
H97 C88 0.929 . S
H98 C91 0.930 . S
C99 C100 1.351 . S
C99 N102 1.368 . S
C99 H104 0.931 . S
C100 C99 1.351 . S
C100 N101 1.373 . S
C100 H128 0.930 . S
N101 C100 1.373 . S
N101 C103 1.340 . S
N102 C99 1.368 . S
N102 C103 1.321 . S
N102 Co105 2.135 . S
C103 N101 1.340 . S
C103 N102 1.321 . S
C103 H127 0.930 . S
H104 C99 0.931 . S
Co105 N102 2.135 . S
Co105 N108 2.121 . S
Co105 O113 2.055 . S
Co105 O116 2.039 . S
Co105 N119 2.140 . S
C106 O107 1.227 . S
C106 O116 1.265 1_565 S
O107 C106 1.227 . S
N108 Co105 2.121 . S
N108 C110 1.375 1_545 S
N108 C111 1.313 . S
C109 C110 1.338 . S
C109 N112 1.377 1_565 S
C109 H129 0.930 . S
C110 N108 1.375 1_565 S
C110 C109 1.338 . S
C110 H114 0.931 . S
C111 N108 1.313 . S
C111 N112 1.344 . S
C111 H115 0.930 . S
N112 C109 1.377 1_545 S
N112 C111 1.344 . S
O113 Co105 2.055 . S
O113 C117 1.253 . S
H114 C110 0.931 . S
H115 C111 0.930 . S
O116 Co105 2.039 . S
O116 C106 1.265 1_545 S
C117 O113 1.253 . S
C117 O118 1.227 . S
O118 C117 1.227 . S
N119 Co105 2.140 . S
N119 C122 1.346 . S
N119 C123 1.345 . S
C120 C121 1.387 . S
C120 C124 1.391 . S
C121 C120 1.387 . S
C121 C122 1.369 . S
C121 H130 0.929 . S
C122 N119 1.346 . S
C122 C121 1.369 . S
C122 H125 0.928 . S
C123 N119 1.345 . S
C123 C124 1.371 . S
C123 H126 0.931 . S
C124 C120 1.391 . S
C124 C123 1.371 . S
C124 H131 0.930 . S
H125 C122 0.928 . S
H126 C123 0.931 . S
H127 C103 0.930 . S
H128 C100 0.930 . S
H129 C109 0.930 . S
H130 C121 0.929 . S
H131 C124 0.930 . S
C132 C133 1.351 . S
C132 N135 1.368 . S
C132 H137 0.931 . S
C133 C132 1.351 . S
C133 N134 1.373 . S
C133 H161 0.930 1_545 S
N134 C133 1.373 . S
N134 C136 1.340 . S
N135 C132 1.368 . S
N135 C136 1.321 . S
N135 Co138 2.135 . S
C136 N134 1.340 . S
C136 N135 1.321 . S
C136 H160 0.930 . S
H137 C132 0.931 . S
Co138 N135 2.135 . S
Co138 N141 2.121 . S
Co138 O146 2.055 . S
Co138 O149 2.039 . S
Co138 N152 2.140 . S
C139 O140 1.227 . S
C139 O149 1.265 1_455 S
O140 C139 1.227 . S
N141 Co138 2.121 . S
N141 C143 1.375 1_655 S
N141 C144 1.313 . S
C142 C143 1.338 . S
C142 N145 1.377 1_455 S
C142 H162 0.930 . S
C143 N141 1.375 1_455 S
C143 C142 1.338 . S
C143 H147 0.931 . S
C144 N141 1.313 . S
C144 N145 1.344 . S
C144 H148 0.930 . S
N145 C142 1.377 1_655 S
N145 C144 1.344 . S
O146 Co138 2.055 . S
O146 C150 1.253 . S
H147 C143 0.931 . S
H148 C144 0.930 . S
O149 Co138 2.039 . S
O149 C139 1.265 1_655 S
C150 O146 1.253 . S
C150 O151 1.227 . S
O151 C150 1.227 . S
N152 Co138 2.140 . S
N152 C155 1.346 . S
N152 C156 1.345 . S
C153 C154 1.387 . S
C153 C157 1.391 . S
C154 C153 1.387 . S
C154 C155 1.369 . S
C154 H163 0.929 . S
C155 N152 1.346 . S
C155 C154 1.369 . S
C155 H158 0.928 . S
C156 N152 1.345 . S
C156 C157 1.371 . S
C156 H159 0.931 . S
C157 C153 1.391 . S
C157 C156 1.371 . S
C157 H164 0.930 . S
H158 C155 0.928 . S
H159 C156 0.931 . S
H160 C136 0.930 . S
H161 C133 0.930 1_565 S
H162 C142 0.930 . S
H163 C154 0.929 . S
H164 C157 0.930 . S
C165 C166 1.351 . S
C165 N168 1.368 . S
C165 H170 0.931 . S
C166 C165 1.351 . S
C166 N167 1.373 . S
C166 H194 0.930 1_655 S
N167 C166 1.373 . S
N167 C169 1.340 . S
N168 C165 1.368 . S
N168 C169 1.321 . S
N168 Co171 2.135 . S
C169 N167 1.340 . S
C169 N168 1.321 . S
C169 H193 0.930 . S
H170 C165 0.931 . S
Co171 N168 2.135 . S
Co171 N174 2.121 . S
Co171 O179 2.055 . S
Co171 O182 2.039 . S
Co171 N185 2.140 . S
C172 O173 1.227 . S
C172 O182 1.265 . S
O173 C172 1.227 . S
N174 Co171 2.121 . S
N174 C176 1.375 . S
N174 C177 1.313 . S
C175 C176 1.338 . S
C175 N178 1.377 . S
C175 H195 0.930 . S
C176 N174 1.375 . S
C176 C175 1.338 . S
C176 H180 0.931 . S
C177 N174 1.313 . S
C177 N178 1.344 . S
C177 H181 0.930 . S
N178 C175 1.377 . S
N178 C177 1.344 . S
O179 Co171 2.055 . S
O179 C183 1.253 . S
H180 C176 0.931 . S
H181 C177 0.930 . S
O182 Co171 2.039 . S
O182 C172 1.265 . S
C183 O179 1.253 . S
C183 O184 1.227 . S
O184 C183 1.227 . S
N185 Co171 2.140 . S
N185 C188 1.346 . S
N185 C189 1.345 . S
C186 C187 1.387 . S
C186 C190 1.391 . S
C187 C186 1.387 . S
C187 C188 1.369 . S
C187 H196 0.929 . S
C188 N185 1.346 . S
C188 C187 1.369 . S
C188 H191 0.928 . S
C189 N185 1.345 . S
C189 C190 1.371 . S
C189 H192 0.931 . S
C190 C186 1.391 . S
C190 C189 1.371 . S
C190 H197 0.930 . S
H191 C188 0.928 . S
H192 C189 0.931 . S
H193 C169 0.930 . S
H194 C166 0.930 1_455 S
H195 C175 0.930 . S
H196 C187 0.929 . S
H197 C190 0.930 . S
C198 C199 1.351 . S
C198 N201 1.368 . S
C198 H203 0.931 . S
C199 C198 1.351 . S
C199 N200 1.373 . S
C199 H227 0.930 . S
N200 C199 1.373 . S
N200 C202 1.340 . S
N201 C198 1.368 . S
N201 C202 1.321 . S
N201 Co204 2.135 . S
C202 N200 1.340 . S
C202 N201 1.321 . S
C202 H226 0.930 . S
H203 C198 0.931 . S
Co204 N201 2.135 . S
Co204 N207 2.121 . S
Co204 O212 2.055 . S
Co204 O215 2.039 . S
Co204 N218 2.140 . S
C205 O206 1.227 . S
C205 O215 1.265 1_455 S
O206 C205 1.227 . S
N207 Co204 2.121 . S
N207 C209 1.375 1_655 S
N207 C210 1.313 . S
C208 C209 1.338 . S
C208 N211 1.377 1_455 S
C208 H228 0.930 . S
C209 N207 1.375 1_455 S
C209 C208 1.338 . S
C209 H213 0.931 . S
C210 N207 1.313 . S
C210 N211 1.344 . S
C210 H214 0.930 . S
N211 C208 1.377 1_655 S
N211 C210 1.344 . S
O212 Co204 2.055 . S
O212 C216 1.253 . S
H213 C209 0.931 . S
H214 C210 0.930 . S
O215 Co204 2.039 . S
O215 C205 1.265 1_655 S
C216 O212 1.253 . S
C216 O217 1.227 . S
O217 C216 1.227 . S
N218 Co204 2.140 . S
N218 C221 1.346 . S
N218 C222 1.345 . S
C219 C220 1.387 . S
C219 C223 1.391 . S
C220 C219 1.387 . S
C220 C221 1.369 . S
C220 H229 0.929 . S
C221 N218 1.346 . S
C221 C220 1.369 . S
C221 H224 0.928 . S
C222 N218 1.345 . S
C222 C223 1.371 . S
C222 H225 0.931 . S
C223 C219 1.391 . S
C223 C222 1.371 . S
C223 H230 0.930 . S
H224 C221 0.928 . S
H225 C222 0.931 . S
H226 C202 0.930 . S
H227 C199 0.930 . S
H228 C208 0.930 . S
H229 C220 0.929 . S
H230 C223 0.930 . S
C231 C232 1.351 . S
C231 N234 1.368 . S
C231 H236 0.931 . S
C232 C231 1.351 . S
C232 N233 1.373 . S
C232 H260 0.930 1_545 S
N233 C232 1.373 . S
N233 C235 1.340 . S
N234 C231 1.368 . S
N234 C235 1.321 . S
N234 Co237 2.135 . S
C235 N233 1.340 . S
C235 N234 1.321 . S
C235 H259 0.930 . S
H236 C231 0.931 . S
Co237 N234 2.135 . S
Co237 N240 2.121 . S
Co237 O245 2.055 . S
Co237 O248 2.039 . S
Co237 N251 2.140 . S
C238 O239 1.227 . S
C238 O248 1.265 . S
O239 C238 1.227 . S
N240 Co237 2.121 . S
N240 C242 1.375 . S
N240 C243 1.313 . S
C241 C242 1.338 . S
C241 N244 1.377 . S
C241 H261 0.930 . S
C242 N240 1.375 . S
C242 C241 1.338 . S
C242 H246 0.931 . S
C243 N240 1.313 . S
C243 N244 1.344 . S
C243 H247 0.930 . S
N244 C241 1.377 . S
N244 C243 1.344 . S
O245 Co237 2.055 . S
O245 C249 1.253 . S
H246 C242 0.931 . S
H247 C243 0.930 . S
O248 Co237 2.039 . S
O248 C238 1.265 . S
C249 O245 1.253 . S
C249 O250 1.227 . S
O250 C249 1.227 . S
N251 Co237 2.140 . S
N251 C254 1.346 . S
N251 C255 1.345 . S
C252 C253 1.387 . S
C252 C256 1.391 . S
C253 C252 1.387 . S
C253 C254 1.369 . S
C253 H262 0.929 . S
C254 N251 1.346 . S
C254 C253 1.369 . S
C254 H257 0.928 . S
C255 N251 1.345 . S
C255 C256 1.371 . S
C255 H258 0.931 . S
C256 C252 1.391 . S
C256 C255 1.371 . S
C256 H263 0.930 . S
H257 C254 0.928 . S
H258 C255 0.931 . S
H259 C235 0.930 . S
H260 C232 0.930 1_565 S
H261 C241 0.930 . S
H262 C253 0.929 . S
H263 C256 0.930 . S
C264 C265 1.351 . S
C264 N267 1.368 . S
C264 H269 0.931 . S
C265 C264 1.351 . S
C265 N266 1.373 . S
C265 H293 0.930 1_655 S
N266 C265 1.373 . S
N266 C268 1.340 . S
N267 C264 1.368 . S
N267 C268 1.321 . S
N267 Co270 2.135 . S
C268 N266 1.340 . S
C268 N267 1.321 . S
C268 H292 0.930 . S
H269 C264 0.931 . S
Co270 N267 2.135 . S
Co270 N273 2.121 . S
Co270 O278 2.055 . S
Co270 O281 2.039 . S
Co270 N284 2.140 . S
C271 O272 1.227 . S
C271 O281 1.265 1_565 S
O272 C271 1.227 . S
N273 Co270 2.121 . S
N273 C275 1.375 1_545 S
N273 C276 1.313 . S
C274 C275 1.338 . S
C274 N277 1.377 1_565 S
C274 H294 0.930 . S
C275 N273 1.375 1_565 S
C275 C274 1.338 . S
C275 H279 0.931 . S
C276 N273 1.313 . S
C276 N277 1.344 . S
C276 H280 0.930 . S
N277 C274 1.377 1_545 S
N277 C276 1.344 . S
O278 Co270 2.055 . S
O278 C282 1.253 . S
H279 C275 0.931 . S
H280 C276 0.930 . S
O281 Co270 2.039 . S
O281 C271 1.265 1_545 S
C282 O278 1.253 . S
C282 O283 1.227 . S
O283 C282 1.227 . S
N284 Co270 2.140 . S
N284 C287 1.346 . S
N284 C288 1.345 . S
C285 C286 1.387 . S
C285 C289 1.391 . S
C286 C285 1.387 . S
C286 C287 1.369 . S
C286 H295 0.929 . S
C287 N284 1.346 . S
C287 C286 1.369 . S
C287 H290 0.928 . S
C288 N284 1.345 . S
C288 C289 1.371 . S
C288 H291 0.931 . S
C289 C285 1.391 . S
C289 C288 1.371 . S
C289 H296 0.930 . S
H290 C287 0.928 . S
H291 C288 0.931 . S
H292 C268 0.930 . S
H293 C265 0.930 1_455 S
H294 C274 0.930 . S
H295 C286 0.929 . S
H296 C289 0.930 . S
C297 C298 1.351 . S
C297 N300 1.368 . S
C297 H302 0.931 . S
C298 C297 1.351 . S
C298 N299 1.373 . S
C298 H326 0.930 . S
N299 C298 1.373 . S
N299 C301 1.340 . S
N300 C297 1.368 . S
N300 C301 1.321 . S
N300 Co303 2.135 . S
C301 N299 1.340 . S
C301 N300 1.321 . S
C301 H325 0.930 . S
H302 C297 0.931 . S
Co303 N300 2.135 . S
Co303 N306 2.121 . S
Co303 O311 2.055 . S
Co303 O314 2.039 . S
Co303 N317 2.140 . S
C304 O305 1.227 . S
C304 O314 1.265 1_545 S
O305 C304 1.227 . S
N306 Co303 2.121 . S
N306 C308 1.375 1_565 S
N306 C309 1.313 . S
C307 C308 1.338 . S
C307 N310 1.377 1_545 S
C307 H327 0.930 . S
C308 N306 1.375 1_545 S
C308 C307 1.338 . S
C308 H312 0.931 . S
C309 N306 1.313 . S
C309 N310 1.344 . S
C309 H313 0.930 . S
N310 C307 1.377 1_565 S
N310 C309 1.344 . S
O311 Co303 2.055 . S
O311 C315 1.253 . S
H312 C308 0.931 . S
H313 C309 0.930 . S
O314 Co303 2.039 . S
O314 C304 1.265 1_565 S
C315 O311 1.253 . S
C315 O316 1.227 . S
O316 C315 1.227 . S
N317 Co303 2.140 . S
N317 C320 1.346 . S
N317 C321 1.345 . S
C318 C319 1.387 . S
C318 C322 1.391 . S
C319 C318 1.387 . S
C319 C320 1.369 . S
C319 H328 0.929 . S
C320 N317 1.346 . S
C320 C319 1.369 . S
C320 H323 0.928 . S
C321 N317 1.345 . S
C321 C322 1.371 . S
C321 H324 0.931 . S
C322 C318 1.391 . S
C322 C321 1.371 . S
C322 H329 0.930 . S
H323 C320 0.928 . S
H324 C321 0.931 . S
H325 C301 0.930 . S
H326 C298 0.930 . S
H327 C307 0.930 . S
H328 C319 0.929 . S
H329 C322 0.930 . S
C330 C331 1.351 . S
C330 N333 1.368 . S
C330 H335 0.931 . S
C331 C330 1.351 . S
C331 N332 1.373 . S
C331 H359 0.930 1_565 S
N332 C331 1.373 . S
N332 C334 1.340 . S
N333 C330 1.368 . S
N333 C334 1.321 . S
N333 Co336 2.135 . S
C334 N332 1.340 . S
C334 N333 1.321 . S
C334 H358 0.930 . S
H335 C330 0.931 . S
Co336 N333 2.135 . S
Co336 N339 2.121 . S
Co336 O344 2.055 . S
Co336 O347 2.039 . S
Co336 N350 2.140 . S
C337 O338 1.227 . S
C337 O347 1.265 1_655 S
O338 C337 1.227 . S
N339 Co336 2.121 . S
N339 C341 1.375 1_455 S
N339 C342 1.313 . S
C340 C341 1.338 . S
C340 N343 1.377 1_655 S
C340 H360 0.930 . S
C341 N339 1.375 1_655 S
C341 C340 1.338 . S
C341 H345 0.931 . S
C342 N339 1.313 . S
C342 N343 1.344 . S
C342 H346 0.930 . S
N343 C340 1.377 1_455 S
N343 C342 1.344 . S
O344 Co336 2.055 . S
O344 C348 1.253 . S
H345 C341 0.931 . S
H346 C342 0.930 . S
O347 Co336 2.039 . S
O347 C337 1.265 1_455 S
C348 O344 1.253 . S
C348 O349 1.227 . S
O349 C348 1.227 . S
N350 Co336 2.140 . S
N350 C353 1.346 . S
N350 C354 1.345 . S
C351 C352 1.387 . S
C351 C355 1.391 . S
C352 C351 1.387 . S
C352 C353 1.369 . S
C352 H361 0.929 . S
C353 N350 1.346 . S
C353 C352 1.369 . S
C353 H356 0.928 . S
C354 N350 1.345 . S
C354 C355 1.371 . S
C354 H357 0.931 . S
C355 C351 1.391 . S
C355 C354 1.371 . S
C355 H362 0.930 . S
H356 C353 0.928 . S
H357 C354 0.931 . S
H358 C334 0.930 . S
H359 C331 0.930 1_545 S
H360 C340 0.930 . S
H361 C352 0.929 . S
H362 C355 0.930 . S
C363 C364 1.351 . S
C363 N366 1.368 . S
C363 H368 0.931 . S
C364 C363 1.351 . S
C364 N365 1.373 . S
C364 H392 0.930 1_455 S
N365 C364 1.373 . S
N365 C367 1.340 . S
N366 C363 1.368 . S
N366 C367 1.321 . S
N366 Co369 2.135 . S
C367 N365 1.340 . S
C367 N366 1.321 . S
C367 H391 0.930 . S
H368 C363 0.931 . S
Co369 N366 2.135 . S
Co369 N372 2.121 . S
Co369 O377 2.055 . S
Co369 O380 2.039 . S
Co369 N383 2.140 . S
C370 O371 1.227 . S
C370 O380 1.265 . S
O371 C370 1.227 . S
N372 Co369 2.121 . S
N372 C374 1.375 . S
N372 C375 1.313 . S
C373 C374 1.338 . S
C373 N376 1.377 . S
C373 H393 0.930 . S
C374 N372 1.375 . S
C374 C373 1.338 . S
C374 H378 0.931 . S
C375 N372 1.313 . S
C375 N376 1.344 . S
C375 H379 0.930 . S
N376 C373 1.377 . S
N376 C375 1.344 . S
O377 Co369 2.055 . S
O377 C381 1.253 . S
H378 C374 0.931 . S
H379 C375 0.930 . S
O380 Co369 2.039 . S
O380 C370 1.265 . S
C381 O377 1.253 . S
C381 O382 1.227 . S
O382 C381 1.227 . S
N383 Co369 2.140 . S
N383 C386 1.346 . S
N383 C387 1.345 . S
C384 C385 1.387 . S
C384 C388 1.391 . S
C385 C384 1.387 . S
C385 C386 1.369 . S
C385 H394 0.929 . S
C386 N383 1.346 . S
C386 C385 1.369 . S
C386 H389 0.928 . S
C387 N383 1.345 . S
C387 C388 1.371 . S
C387 H390 0.931 . S
C388 C384 1.391 . S
C388 C387 1.371 . S
C388 H395 0.930 . S
H389 C386 0.928 . S
H390 C387 0.931 . S
H391 C367 0.930 . S
H392 C364 0.930 1_655 S
H393 C373 0.930 . S
H394 C385 0.929 . S
H395 C388 0.930 . S
C396 C397 1.351 . S
C396 N399 1.368 . S
C396 H401 0.931 . S
C397 C396 1.351 . S
C397 N398 1.373 . S
C397 H425 0.930 . S
N398 C397 1.373 . S
N398 C400 1.340 . S
N399 C396 1.368 . S
N399 C400 1.321 . S
N399 Co402 2.135 . S
C400 N398 1.340 . S
C400 N399 1.321 . S
C400 H424 0.930 . S
H401 C396 0.931 . S
Co402 N399 2.135 . S
Co402 N405 2.121 . S
Co402 O410 2.055 . S
Co402 O413 2.039 . S
Co402 N416 2.140 . S
C403 O404 1.227 . S
C403 O413 1.265 . S
O404 C403 1.227 . S
N405 Co402 2.121 . S
N405 C407 1.375 . S
N405 C408 1.313 . S
C406 C407 1.338 . S
C406 N409 1.377 . S
C406 H426 0.930 . S
C407 N405 1.375 . S
C407 C406 1.338 . S
C407 H411 0.931 . S
C408 N405 1.313 . S
C408 N409 1.344 . S
C408 H412 0.930 . S
N409 C406 1.377 . S
N409 C408 1.344 . S
O410 Co402 2.055 . S
O410 C414 1.253 . S
H411 C407 0.931 . S
H412 C408 0.930 . S
O413 Co402 2.039 . S
O413 C403 1.265 . S
C414 O410 1.253 . S
C414 O415 1.227 . S
O415 C414 1.227 . S
N416 Co402 2.140 . S
N416 C419 1.346 . S
N416 C420 1.345 . S
C417 C418 1.387 . S
C417 C421 1.391 . S
C418 C417 1.387 . S
C418 C419 1.369 . S
C418 H427 0.929 . S
C419 N416 1.346 . S
C419 C418 1.369 . S
C419 H422 0.928 . S
C420 N416 1.345 . S
C420 C421 1.371 . S
C420 H423 0.931 . S
C421 C417 1.391 . S
C421 C420 1.371 . S
C421 H428 0.930 . S
H422 C419 0.928 . S
H423 C420 0.931 . S
H424 C400 0.930 . S
H425 C397 0.930 . S
H426 C406 0.930 . S
H427 C418 0.929 . S
H428 C421 0.930 . S
C429 C430 1.351 . S
C429 N432 1.368 . S
C429 H434 0.931 . S
C430 C429 1.351 . S
C430 N431 1.373 . S
C430 H458 0.930 . S
N431 C430 1.373 . S
N431 C433 1.340 . S
N432 C429 1.368 . S
N432 C433 1.321 . S
N432 Co435 2.135 . S
C433 N431 1.340 . S
C433 N432 1.321 . S
C433 H457 0.930 . S
H434 C429 0.931 . S
Co435 N432 2.135 . S
Co435 N438 2.121 . S
Co435 O443 2.055 . S
Co435 O446 2.039 . S
Co435 N449 2.140 . S
C436 O437 1.227 . S
C436 O446 1.265 . S
O437 C436 1.227 . S
N438 Co435 2.121 . S
N438 C440 1.375 . S
N438 C441 1.313 . S
C439 C440 1.338 . S
C439 N442 1.377 . S
C439 H459 0.930 1_545 S
C440 N438 1.375 . S
C440 C439 1.338 . S
C440 H444 0.931 . S
C441 N438 1.313 . S
C441 N442 1.344 . S
C441 H445 0.930 . S
N442 C439 1.377 . S
N442 C441 1.344 . S
O443 Co435 2.055 . S
O443 C447 1.253 . S
H444 C440 0.931 . S
H445 C441 0.930 . S
O446 Co435 2.039 . S
O446 C436 1.265 . S
C447 O443 1.253 . S
C447 O448 1.227 . S
O448 C447 1.227 . S
N449 Co435 2.140 . S
N449 C452 1.346 . S
N449 C453 1.345 . S
C450 C451 1.387 . S
C450 C454 1.391 . S
C451 C450 1.387 . S
C451 C452 1.369 . S
C451 H460 0.929 . S
C452 N449 1.346 . S
C452 C451 1.369 . S
C452 H455 0.928 . S
C453 N449 1.345 . S
C453 C454 1.371 . S
C453 H456 0.931 . S
C454 C450 1.391 . S
C454 C453 1.371 . S
C454 H461 0.930 . S
H455 C452 0.928 . S
H456 C453 0.931 . S
H457 C433 0.930 . S
H458 C430 0.930 . S
H459 C439 0.930 1_565 S
H460 C451 0.929 . S
H461 C454 0.930 . S
C462 C463 1.351 . S
C462 N465 1.368 . S
C462 H467 0.931 . S
C463 C462 1.351 . S
C463 N464 1.373 . S
C463 H491 0.930 . S
N464 C463 1.373 . S
N464 C466 1.340 . S
N465 C462 1.368 . S
N465 C466 1.321 . S
N465 Co468 2.135 . S
C466 N464 1.340 . S
C466 N465 1.321 . S
C466 H490 0.930 . S
H467 C462 0.931 . S
Co468 N465 2.135 . S
Co468 N471 2.121 . S
Co468 O476 2.055 . S
Co468 O479 2.039 . S
Co468 N482 2.140 . S
C469 O470 1.227 . S
C469 O479 1.265 . S
O470 C469 1.227 . S
N471 Co468 2.121 . S
N471 C473 1.375 . S
N471 C474 1.313 . S
C472 C473 1.338 . S
C472 N475 1.377 . S
C472 H492 0.930 1_655 S
C473 N471 1.375 . S
C473 C472 1.338 . S
C473 H477 0.931 . S
C474 N471 1.313 . S
C474 N475 1.344 . S
C474 H478 0.930 . S
N475 C472 1.377 . S
N475 C474 1.344 . S
O476 Co468 2.055 . S
O476 C480 1.253 . S
H477 C473 0.931 . S
H478 C474 0.930 . S
O479 Co468 2.039 . S
O479 C469 1.265 . S
C480 O476 1.253 . S
C480 O481 1.227 . S
O481 C480 1.227 . S
N482 Co468 2.140 . S
N482 C485 1.346 . S
N482 C486 1.345 . S
C483 C484 1.387 . S
C483 C487 1.391 . S
C484 C483 1.387 . S
C484 C485 1.369 . S
C484 H493 0.929 . S
C485 N482 1.346 . S
C485 C484 1.369 . S
C485 H488 0.928 . S
C486 N482 1.345 . S
C486 C487 1.371 . S
C486 H489 0.931 . S
C487 C483 1.391 . S
C487 C486 1.371 . S
C487 H494 0.930 . S
H488 C485 0.928 . S
H489 C486 0.931 . S
H490 C466 0.930 . S
H491 C463 0.930 . S
H492 C472 0.930 1_455 S
H493 C484 0.929 . S
H494 C487 0.930 . S
C495 C496 1.351 . S
C495 N498 1.368 . S
C495 H500 0.931 . S
C496 C495 1.351 . S
C496 N497 1.373 . S
C496 H524 0.930 . S
N497 C496 1.373 . S
N497 C499 1.340 . S
N498 C495 1.368 . S
N498 C499 1.321 . S
N498 Co501 2.135 . S
C499 N497 1.340 . S
C499 N498 1.321 . S
C499 H523 0.930 . S
H500 C495 0.931 . S
Co501 N498 2.135 . S
Co501 N504 2.121 . S
Co501 O509 2.055 . S
Co501 O512 2.039 . S
Co501 N515 2.140 . S
C502 O503 1.227 . S
C502 O512 1.265 . S
O503 C502 1.227 . S
N504 Co501 2.121 . S
N504 C506 1.375 . S
N504 C507 1.313 1_655 S
C505 C506 1.338 . S
C505 N508 1.377 1_655 S
C505 H525 0.930 . S
C506 N504 1.375 . S
C506 C505 1.338 . S
C506 H510 0.931 . S
C507 N504 1.313 1_455 S
C507 N508 1.344 . S
C507 H511 0.930 . S
N508 C505 1.377 1_455 S
N508 C507 1.344 . S
O509 Co501 2.055 . S
O509 C513 1.253 . S
H510 C506 0.931 . S
H511 C507 0.930 . S
O512 Co501 2.039 . S
O512 C502 1.265 . S
C513 O509 1.253 . S
C513 O514 1.227 1_655 S
O514 C513 1.227 1_455 S
N515 Co501 2.140 . S
N515 C518 1.346 . S
N515 C519 1.345 . S
C516 C517 1.387 . S
C516 C520 1.391 . S
C517 C516 1.387 . S
C517 C518 1.369 . S
C517 H526 0.929 . S
C518 N515 1.346 . S
C518 C517 1.369 . S
C518 H521 0.928 . S
C519 N515 1.345 . S
C519 C520 1.371 . S
C519 H522 0.931 1_655 S
C520 C516 1.391 . S
C520 C519 1.371 . S
C520 H527 0.930 1_655 S
H521 C518 0.928 . S
H522 C519 0.931 1_455 S
H523 C499 0.930 . S
H524 C496 0.930 . S
H525 C505 0.930 . S
H526 C517 0.929 . S
H527 C520 0.930 1_455 S
C528 C529 1.351 . S
C528 N531 1.368 . S
C528 H533 0.931 . S
C529 C528 1.351 . S
C529 N530 1.373 . S
C529 H557 0.930 . S
N530 C529 1.373 . S
N530 C532 1.340 . S
N531 C528 1.368 . S
N531 C532 1.321 . S
N531 Co534 2.135 . S
C532 N530 1.340 . S
C532 N531 1.321 . S
C532 H556 0.930 . S
H533 C528 0.931 . S
Co534 N531 2.135 . S
Co534 N537 2.121 . S
Co534 O542 2.055 . S
Co534 O545 2.039 . S
Co534 N548 2.140 . S
C535 O536 1.227 . S
C535 O545 1.265 . S
O536 C535 1.227 . S
N537 Co534 2.121 . S
N537 C539 1.375 . S
N537 C540 1.313 . S
C538 C539 1.338 . S
C538 N541 1.377 . S
C538 H558 0.930 . S
C539 N537 1.375 . S
C539 C538 1.338 . S
C539 H543 0.931 . S
C540 N537 1.313 . S
C540 N541 1.344 . S
C540 H544 0.930 . S
N541 C538 1.377 . S
N541 C540 1.344 . S
O542 Co534 2.055 . S
O542 C546 1.253 . S
H543 C539 0.931 . S
H544 C540 0.930 . S
O545 Co534 2.039 . S
O545 C535 1.265 . S
C546 O542 1.253 . S
C546 O547 1.227 . S
O547 C546 1.227 . S
N548 Co534 2.140 . S
N548 C551 1.346 . S
N548 C552 1.345 . S
C549 C550 1.387 . S
C549 C553 1.391 . S
C550 C549 1.387 . S
C550 C551 1.369 . S
C550 H559 0.929 . S
C551 N548 1.346 . S
C551 C550 1.369 . S
C551 H554 0.928 . S
C552 N548 1.345 . S
C552 C553 1.371 . S
C552 H555 0.931 . S
C553 C549 1.391 . S
C553 C552 1.371 . S
C553 H560 0.930 . S
H554 C551 0.928 . S
H555 C552 0.931 . S
H556 C532 0.930 . S
H557 C529 0.930 . S
H558 C538 0.930 . S
H559 C550 0.929 . S
H560 C553 0.930 . S
C561 C562 1.351 . S
C561 N564 1.368 . S
C561 H566 0.931 . S
C562 C561 1.351 . S
C562 N563 1.373 . S
C562 H590 0.930 . S
N563 C562 1.373 . S
N563 C565 1.340 . S
N564 C561 1.368 . S
N564 C565 1.321 . S
N564 Co567 2.135 . S
C565 N563 1.340 . S
C565 N564 1.321 . S
C565 H589 0.930 . S
H566 C561 0.931 . S
Co567 N564 2.135 . S
Co567 N570 2.121 . S
Co567 O575 2.055 . S
Co567 O578 2.039 . S
Co567 N581 2.140 . S
C568 O569 1.227 . S
C568 O578 1.265 . S
O569 C568 1.227 . S
N570 Co567 2.121 . S
N570 C572 1.375 . S
N570 C573 1.313 1_545 S
C571 C572 1.338 . S
C571 N574 1.377 1_545 S
C571 H591 0.930 . S
C572 N570 1.375 . S
C572 C571 1.338 . S
C572 H576 0.931 . S
C573 N570 1.313 1_565 S
C573 N574 1.344 . S
C573 H577 0.930 . S
N574 C571 1.377 1_565 S
N574 C573 1.344 . S
O575 Co567 2.055 . S
O575 C579 1.253 . S
H576 C572 0.931 . S
H577 C573 0.930 . S
O578 Co567 2.039 . S
O578 C568 1.265 . S
C579 O575 1.253 . S
C579 O580 1.227 1_545 S
O580 C579 1.227 1_565 S
N581 Co567 2.140 . S
N581 C584 1.346 . S
N581 C585 1.345 . S
C582 C583 1.387 . S
C582 C586 1.391 . S
C583 C582 1.387 . S
C583 C584 1.369 . S
C583 H592 0.929 . S
C584 N581 1.346 . S
C584 C583 1.369 . S
C584 H587 0.928 . S
C585 N581 1.345 . S
C585 C586 1.371 . S
C585 H588 0.931 1_545 S
C586 C582 1.391 . S
C586 C585 1.371 . S
C586 H593 0.930 1_545 S
H587 C584 0.928 . S
H588 C585 0.931 1_565 S
H589 C565 0.930 . S
H590 C562 0.930 . S
H591 C571 0.930 . S
H592 C583 0.929 . S
H593 C586 0.930 1_565 S
C594 C595 1.351 . S
C594 N597 1.368 . S
C594 H599 0.931 . S
C595 C594 1.351 . S
C595 N596 1.373 . S
C595 H623 0.930 . S
N596 C595 1.373 . S
N596 C598 1.340 . S
N597 C594 1.368 . S
N597 C598 1.321 . S
N597 Co600 2.135 . S
C598 N596 1.340 . S
C598 N597 1.321 . S
C598 H622 0.930 . S
H599 C594 0.931 . S
Co600 N597 2.135 . S
Co600 N603 2.121 . S
Co600 O608 2.055 . S
Co600 O611 2.039 . S
Co600 N614 2.140 . S
C601 O602 1.227 . S
C601 O611 1.265 . S
O602 C601 1.227 . S
N603 Co600 2.121 . S
N603 C605 1.375 . S
N603 C606 1.313 1_545 S
C604 C605 1.338 . S
C604 N607 1.377 1_545 S
C604 H624 0.930 . S
C605 N603 1.375 . S
C605 C604 1.338 . S
C605 H609 0.931 . S
C606 N603 1.313 1_565 S
C606 N607 1.344 . S
C606 H610 0.930 . S
N607 C604 1.377 1_565 S
N607 C606 1.344 . S
O608 Co600 2.055 . S
O608 C612 1.253 . S
H609 C605 0.931 . S
H610 C606 0.930 . S
O611 Co600 2.039 . S
O611 C601 1.265 . S
C612 O608 1.253 . S
C612 O613 1.227 1_545 S
O613 C612 1.227 1_565 S
N614 Co600 2.140 . S
N614 C617 1.346 . S
N614 C618 1.345 . S
C615 C616 1.387 . S
C615 C619 1.391 . S
C616 C615 1.387 . S
C616 C617 1.369 . S
C616 H625 0.929 . S
C617 N614 1.346 . S
C617 C616 1.369 . S
C617 H620 0.928 . S
C618 N614 1.345 . S
C618 C619 1.371 . S
C618 H621 0.931 1_545 S
C619 C615 1.391 . S
C619 C618 1.371 . S
C619 H626 0.930 1_545 S
H620 C617 0.928 . S
H621 C618 0.931 1_565 S
H622 C598 0.930 . S
H623 C595 0.930 . S
H624 C604 0.930 . S
H625 C616 0.929 . S
H626 C619 0.930 1_565 S
C627 C628 1.351 . S
C627 N630 1.368 . S
C627 H632 0.931 . S
C628 C627 1.351 . S
C628 N629 1.373 . S
C628 H656 0.930 . S
N629 C628 1.373 . S
N629 C631 1.340 . S
N630 C627 1.368 . S
N630 C631 1.321 . S
N630 Co633 2.135 . S
C631 N629 1.340 . S
C631 N630 1.321 . S
C631 H655 0.930 . S
H632 C627 0.931 . S
Co633 N630 2.135 . S
Co633 N636 2.121 . S
Co633 O641 2.055 . S
Co633 O644 2.039 . S
Co633 N647 2.140 . S
C634 O635 1.227 . S
C634 O644 1.265 . S
O635 C634 1.227 . S
N636 Co633 2.121 . S
N636 C638 1.375 . S
N636 C639 1.313 1_655 S
C637 C638 1.338 . S
C637 N640 1.377 1_655 S
C637 H657 0.930 . S
C638 N636 1.375 . S
C638 C637 1.338 . S
C638 H642 0.931 . S
C639 N636 1.313 1_455 S
C639 N640 1.344 . S
C639 H643 0.930 . S
N640 C637 1.377 1_455 S
N640 C639 1.344 . S
O641 Co633 2.055 . S
O641 C645 1.253 . S
H642 C638 0.931 . S
H643 C639 0.930 . S
O644 Co633 2.039 . S
O644 C634 1.265 . S
C645 O641 1.253 . S
C645 O646 1.227 1_655 S
O646 C645 1.227 1_455 S
N647 Co633 2.140 . S
N647 C650 1.346 . S
N647 C651 1.345 . S
C648 C649 1.387 . S
C648 C652 1.391 . S
C649 C648 1.387 . S
C649 C650 1.369 . S
C649 H658 0.929 . S
C650 N647 1.346 . S
C650 C649 1.369 . S
C650 H653 0.928 . S
C651 N647 1.345 . S
C651 C652 1.371 . S
C651 H654 0.931 1_655 S
C652 C648 1.391 . S
C652 C651 1.371 . S
C652 H659 0.930 1_655 S
H653 C650 0.928 . S
H654 C651 0.931 1_455 S
H655 C631 0.930 . S
H656 C628 0.930 . S
H657 C637 0.930 . S
H658 C649 0.929 . S
H659 C652 0.930 1_455 S
C660 C661 1.351 . S
C660 N663 1.368 . S
C660 H665 0.931 . S
C661 C660 1.351 . S
C661 N662 1.373 . S
C661 H689 0.930 . S
N662 C661 1.373 . S
N662 C664 1.340 . S
N663 C660 1.368 . S
N663 C664 1.321 . S
N663 Co666 2.135 . S
C664 N662 1.340 . S
C664 N663 1.321 . S
C664 H688 0.930 . S
H665 C660 0.931 . S
Co666 N663 2.135 . S
Co666 N669 2.121 . S
Co666 O674 2.055 . S
Co666 O677 2.039 . S
Co666 N680 2.140 . S
C667 O668 1.227 . S
C667 O677 1.265 . S
O668 C667 1.227 . S
N669 Co666 2.121 . S
N669 C671 1.375 . S
N669 C672 1.313 . S
C670 C671 1.338 . S
C670 N673 1.377 . S
C670 H690 0.930 . S
C671 N669 1.375 . S
C671 C670 1.338 . S
C671 H675 0.931 . S
C672 N669 1.313 . S
C672 N673 1.344 . S
C672 H676 0.930 . S
N673 C670 1.377 . S
N673 C672 1.344 . S
O674 Co666 2.055 . S
O674 C678 1.253 . S
H675 C671 0.931 . S
H676 C672 0.930 . S
O677 Co666 2.039 . S
O677 C667 1.265 . S
C678 O674 1.253 . S
C678 O679 1.227 . S
O679 C678 1.227 . S
N680 Co666 2.140 . S
N680 C683 1.346 . S
N680 C684 1.345 . S
C681 C682 1.387 . S
C681 C685 1.391 . S
C682 C681 1.387 . S
C682 C683 1.369 . S
C682 H691 0.929 . S
C683 N680 1.346 . S
C683 C682 1.369 . S
C683 H686 0.928 . S
C684 N680 1.345 . S
C684 C685 1.371 . S
C684 H687 0.931 . S
C685 C681 1.391 . S
C685 C684 1.371 . S
C685 H692 0.930 . S
H686 C683 0.928 . S
H687 C684 0.931 . S
H688 C664 0.930 . S
H689 C661 0.930 . S
H690 C670 0.930 . S
H691 C682 0.929 . S
H692 C685 0.930 . S
C693 C694 1.351 . S
C693 N696 1.368 . S
C693 H698 0.931 . S
C694 C693 1.351 . S
C694 N695 1.373 . S
C694 H722 0.930 . S
N695 C694 1.373 . S
N695 C697 1.340 . S
N696 C693 1.368 . S
N696 C697 1.321 . S
N696 Co699 2.135 . S
C697 N695 1.340 . S
C697 N696 1.321 . S
C697 H721 0.930 . S
H698 C693 0.931 . S
Co699 N696 2.135 . S
Co699 N702 2.121 . S
Co699 O707 2.055 . S
Co699 O710 2.039 . S
Co699 N713 2.140 . S
C700 O701 1.227 . S
C700 O710 1.265 . S
O701 C700 1.227 . S
N702 Co699 2.121 . S
N702 C704 1.375 . S
N702 C705 1.313 . S
C703 C704 1.338 . S
C703 N706 1.377 . S
C703 H723 0.930 . S
C704 N702 1.375 . S
C704 C703 1.338 . S
C704 H708 0.931 . S
C705 N702 1.313 . S
C705 N706 1.344 . S
C705 H709 0.930 . S
N706 C703 1.377 . S
N706 C705 1.344 . S
O707 Co699 2.055 . S
O707 C711 1.253 . S
H708 C704 0.931 . S
H709 C705 0.930 . S
O710 Co699 2.039 . S
O710 C700 1.265 . S
C711 O707 1.253 . S
C711 O712 1.227 . S
O712 C711 1.227 . S
N713 Co699 2.140 . S
N713 C716 1.346 . S
N713 C717 1.345 . S
C714 C715 1.387 . S
C714 C718 1.391 . S
C715 C714 1.387 . S
C715 C716 1.369 . S
C715 H724 0.929 . S
C716 N713 1.346 . S
C716 C715 1.369 . S
C716 H719 0.928 . S
C717 N713 1.345 . S
C717 C718 1.371 . S
C717 H720 0.931 . S
C718 C714 1.391 . S
C718 C717 1.371 . S
C718 H725 0.930 . S
H719 C716 0.928 . S
H720 C717 0.931 . S
H721 C697 0.930 . S
H722 C694 0.930 . S
H723 C703 0.930 . S
H724 C715 0.929 . S
H725 C718 0.930 . S
C726 C727 1.351 . S
C726 N729 1.368 . S
C726 H731 0.931 . S
C727 C726 1.351 . S
C727 N728 1.373 . S
C727 H755 0.930 . S
N728 C727 1.373 . S
N728 C730 1.340 . S
N729 C726 1.368 . S
N729 C730 1.321 . S
N729 Co732 2.135 . S
C730 N728 1.340 . S
C730 N729 1.321 . S
C730 H754 0.930 . S
H731 C726 0.931 . S
Co732 N729 2.135 . S
Co732 N735 2.121 . S
Co732 O740 2.055 . S
Co732 O743 2.039 . S
Co732 N746 2.140 . S
C733 O734 1.227 . S
C733 O743 1.265 . S
O734 C733 1.227 . S
N735 Co732 2.121 . S
N735 C737 1.375 . S
N735 C738 1.313 . S
C736 C737 1.338 . S
C736 N739 1.377 . S
C736 H756 0.930 1_545 S
C737 N735 1.375 . S
C737 C736 1.338 . S
C737 H741 0.931 . S
C738 N735 1.313 . S
C738 N739 1.344 . S
C738 H742 0.930 . S
N739 C736 1.377 . S
N739 C738 1.344 . S
O740 Co732 2.055 . S
O740 C744 1.253 . S
H741 C737 0.931 . S
H742 C738 0.930 . S
O743 Co732 2.039 . S
O743 C733 1.265 . S
C744 O740 1.253 . S
C744 O745 1.227 . S
O745 C744 1.227 . S
N746 Co732 2.140 . S
N746 C749 1.346 . S
N746 C750 1.345 . S
C747 C748 1.387 . S
C747 C751 1.391 . S
C748 C747 1.387 . S
C748 C749 1.369 . S
C748 H757 0.929 . S
C749 N746 1.346 . S
C749 C748 1.369 . S
C749 H752 0.928 . S
C750 N746 1.345 . S
C750 C751 1.371 . S
C750 H753 0.931 . S
C751 C747 1.391 . S
C751 C750 1.371 . S
C751 H758 0.930 . S
H752 C749 0.928 . S
H753 C750 0.931 . S
H754 C730 0.930 . S
H755 C727 0.930 . S
H756 C736 0.930 1_565 S
H757 C748 0.929 . S
H758 C751 0.930 . S
C759 C760 1.351 . S
C759 N762 1.368 . S
C759 H764 0.931 . S
C760 C759 1.351 . S
C760 N761 1.373 . S
C760 H788 0.930 . S
N761 C760 1.373 . S
N761 C763 1.340 . S
N762 C759 1.368 . S
N762 C763 1.321 . S
N762 Co765 2.135 . S
C763 N761 1.340 . S
C763 N762 1.321 . S
C763 H787 0.930 . S
H764 C759 0.931 . S
Co765 N762 2.135 . S
Co765 N768 2.121 . S
Co765 O773 2.055 . S
Co765 O776 2.039 . S
Co765 N779 2.140 . S
C766 O767 1.227 . S
C766 O776 1.265 . S
O767 C766 1.227 . S
N768 Co765 2.121 . S
N768 C770 1.375 . S
N768 C771 1.313 . S
C769 C770 1.338 . S
C769 N772 1.377 . S
C769 H789 0.930 1_655 S
C770 N768 1.375 . S
C770 C769 1.338 . S
C770 H774 0.931 . S
C771 N768 1.313 . S
C771 N772 1.344 . S
C771 H775 0.930 . S
N772 C769 1.377 . S
N772 C771 1.344 . S
O773 Co765 2.055 . S
O773 C777 1.253 . S
H774 C770 0.931 . S
H775 C771 0.930 . S
O776 Co765 2.039 . S
O776 C766 1.265 . S
C777 O773 1.253 . S
C777 O778 1.227 . S
O778 C777 1.227 . S
N779 Co765 2.140 . S
N779 C782 1.346 . S
N779 C783 1.345 . S
C780 C781 1.387 . S
C780 C784 1.391 . S
C781 C780 1.387 . S
C781 C782 1.369 . S
C781 H790 0.929 . S
C782 N779 1.346 . S
C782 C781 1.369 . S
C782 H785 0.928 . S
C783 N779 1.345 . S
C783 C784 1.371 . S
C783 H786 0.931 . S
C784 C780 1.391 . S
C784 C783 1.371 . S
C784 H791 0.930 . S
H785 C782 0.928 . S
H786 C783 0.931 . S
H787 C763 0.930 . S
H788 C760 0.930 . S
H789 C769 0.930 1_455 S
H790 C781 0.929 . S
H791 C784 0.930 . S
C792 C793 1.351 . S
C792 N795 1.368 . S
C792 H797 0.931 . S
C793 C792 1.351 . S
C793 N794 1.373 . S
C793 H821 0.930 . S
N794 C793 1.373 . S
N794 C796 1.340 . S
N795 C792 1.368 . S
N795 C796 1.321 . S
N795 Co798 2.135 . S
C796 N794 1.340 . S
C796 N795 1.321 . S
C796 H820 0.930 . S
H797 C792 0.931 . S
Co798 N795 2.135 . S
Co798 N801 2.121 . S
Co798 O806 2.055 . S
Co798 O809 2.039 . S
Co798 N812 2.140 . S
C799 O800 1.227 . S
C799 O809 1.265 . S
O800 C799 1.227 . S
N801 Co798 2.121 . S
N801 C803 1.375 . S
N801 C804 1.313 1_565 S
C802 C803 1.338 . S
C802 N805 1.377 1_565 S
C802 H822 0.930 . S
C803 N801 1.375 . S
C803 C802 1.338 . S
C803 H807 0.931 . S
C804 N801 1.313 1_545 S
C804 N805 1.344 . S
C804 H808 0.930 . S
N805 C802 1.377 1_545 S
N805 C804 1.344 . S
O806 Co798 2.055 . S
O806 C810 1.253 . S
H807 C803 0.931 . S
H808 C804 0.930 . S
O809 Co798 2.039 . S
O809 C799 1.265 . S
C810 O806 1.253 . S
C810 O811 1.227 1_565 S
O811 C810 1.227 1_545 S
N812 Co798 2.140 . S
N812 C815 1.346 . S
N812 C816 1.345 . S
C813 C814 1.387 . S
C813 C817 1.391 . S
C814 C813 1.387 . S
C814 C815 1.369 . S
C814 H823 0.929 . S
C815 N812 1.346 . S
C815 C814 1.369 . S
C815 H818 0.928 . S
C816 N812 1.345 . S
C816 C817 1.371 . S
C816 H819 0.931 1_565 S
C817 C813 1.391 . S
C817 C816 1.371 . S
C817 H824 0.930 1_565 S
H818 C815 0.928 . S
H819 C816 0.931 1_545 S
H820 C796 0.930 . S
H821 C793 0.930 . S
H822 C802 0.930 . S
H823 C814 0.929 . S
H824 C817 0.930 1_545 S
C825 C826 1.351 . S
C825 N828 1.368 . S
C825 H830 0.931 . S
C826 C825 1.351 . S
C826 N827 1.373 . S
C826 H854 0.930 . S
N827 C826 1.373 . S
N827 C829 1.340 . S
N828 C825 1.368 . S
N828 C829 1.321 . S
N828 Co831 2.135 . S
C829 N827 1.340 . S
C829 N828 1.321 . S
C829 H853 0.930 . S
H830 C825 0.931 . S
Co831 N828 2.135 . S
Co831 N834 2.121 . S
Co831 O839 2.055 . S
Co831 O842 2.039 . S
Co831 N845 2.140 . S
C832 O833 1.227 . S
C832 O842 1.265 . S
O833 C832 1.227 . S
N834 Co831 2.121 . S
N834 C836 1.375 . S
N834 C837 1.313 1_455 S
C835 C836 1.338 . S
C835 N838 1.377 1_455 S
C835 H855 0.930 . S
C836 N834 1.375 . S
C836 C835 1.338 . S
C836 H840 0.931 . S
C837 N834 1.313 1_655 S
C837 N838 1.344 . S
C837 H841 0.930 . S
N838 C835 1.377 1_655 S
N838 C837 1.344 . S
O839 Co831 2.055 . S
O839 C843 1.253 . S
H840 C836 0.931 . S
H841 C837 0.930 . S
O842 Co831 2.039 . S
O842 C832 1.265 . S
C843 O839 1.253 . S
C843 O844 1.227 1_455 S
O844 C843 1.227 1_655 S
N845 Co831 2.140 . S
N845 C848 1.346 . S
N845 C849 1.345 . S
C846 C847 1.387 . S
C846 C850 1.391 . S
C847 C846 1.387 . S
C847 C848 1.369 . S
C847 H856 0.929 . S
C848 N845 1.346 . S
C848 C847 1.369 . S
C848 H851 0.928 . S
C849 N845 1.345 . S
C849 C850 1.371 . S
C849 H852 0.931 1_455 S
C850 C846 1.391 . S
C850 C849 1.371 . S
C850 H857 0.930 1_455 S
H851 C848 0.928 . S
H852 C849 0.931 1_655 S
H853 C829 0.930 . S
H854 C826 0.930 . S
H855 C835 0.930 . S
H856 C847 0.929 . S
H857 C850 0.930 1_655 S
C858 C859 1.351 . S
C858 N861 1.368 . S
C858 H863 0.931 . S
C859 C858 1.351 . S
C859 N860 1.373 . S
C859 H887 0.930 . S
N860 C859 1.373 . S
N860 C862 1.340 . S
N861 C858 1.368 . S
N861 C862 1.321 . S
N861 Co864 2.135 . S
C862 N860 1.340 . S
C862 N861 1.321 . S
C862 H886 0.930 . S
H863 C858 0.931 . S
Co864 N861 2.135 . S
Co864 N867 2.121 . S
Co864 O872 2.055 . S
Co864 O875 2.039 . S
Co864 N878 2.140 . S
C865 O866 1.227 . S
C865 O875 1.265 . S
O866 C865 1.227 . S
N867 Co864 2.121 . S
N867 C869 1.375 . S
N867 C870 1.313 . S
C868 C869 1.338 . S
C868 N871 1.377 . S
C868 H888 0.930 . S
C869 N867 1.375 . S
C869 C868 1.338 . S
C869 H873 0.931 . S
C870 N867 1.313 . S
C870 N871 1.344 . S
C870 H874 0.930 . S
N871 C868 1.377 . S
N871 C870 1.344 . S
O872 Co864 2.055 . S
O872 C876 1.253 . S
H873 C869 0.931 . S
H874 C870 0.930 . S
O875 Co864 2.039 . S
O875 C865 1.265 . S
C876 O872 1.253 . S
C876 O877 1.227 . S
O877 C876 1.227 . S
N878 Co864 2.140 . S
N878 C881 1.346 . S
N878 C882 1.345 . S
C879 C880 1.387 . S
C879 C883 1.391 . S
C880 C879 1.387 . S
C880 C881 1.369 . S
C880 H889 0.929 . S
C881 N878 1.346 . S
C881 C880 1.369 . S
C881 H884 0.928 . S
C882 N878 1.345 . S
C882 C883 1.371 . S
C882 H885 0.931 . S
C883 C879 1.391 . S
C883 C882 1.371 . S
C883 H890 0.930 . S
H884 C881 0.928 . S
H885 C882 0.931 . S
H886 C862 0.930 . S
H887 C859 0.930 . S
H888 C868 0.930 . S
H889 C880 0.929 . S
H890 C883 0.930 . S
C891 C892 1.351 . S
C891 N894 1.368 . S
C891 H896 0.931 . S
C892 C891 1.351 . S
C892 N893 1.373 . S
C892 H920 0.930 . S
N893 C892 1.373 . S
N893 C895 1.340 . S
N894 C891 1.368 . S
N894 C895 1.321 . S
N894 Co897 2.135 . S
C895 N893 1.340 . S
C895 N894 1.321 . S
C895 H919 0.930 . S
H896 C891 0.931 . S
Co897 N894 2.135 . S
Co897 N900 2.121 . S
Co897 O905 2.055 . S
Co897 O908 2.039 . S
Co897 N911 2.140 . S
C898 O899 1.227 . S
C898 O908 1.265 . S
O899 C898 1.227 . S
N900 Co897 2.121 . S
N900 C902 1.375 . S
N900 C903 1.313 . S
C901 C902 1.338 . S
C901 N904 1.377 . S
C901 H921 0.930 . S
C902 N900 1.375 . S
C902 C901 1.338 . S
C902 H906 0.931 . S
C903 N900 1.313 . S
C903 N904 1.344 . S
C903 H907 0.930 . S
N904 C901 1.377 . S
N904 C903 1.344 . S
O905 Co897 2.055 . S
O905 C909 1.253 . S
H906 C902 0.931 . S
H907 C903 0.930 . S
O908 Co897 2.039 . S
O908 C898 1.265 . S
C909 O905 1.253 . S
C909 O910 1.227 . S
O910 C909 1.227 . S
N911 Co897 2.140 . S
N911 C914 1.346 . S
N911 C915 1.345 . S
C912 C913 1.387 . S
C912 C916 1.391 . S
C913 C912 1.387 . S
C913 C914 1.369 . S
C913 H922 0.929 . S
C914 N911 1.346 . S
C914 C913 1.369 . S
C914 H917 0.928 . S
C915 N911 1.345 . S
C915 C916 1.371 . S
C915 H918 0.931 . S
C916 C912 1.391 . S
C916 C915 1.371 . S
C916 H923 0.930 . S
H917 C914 0.928 . S
H918 C915 0.931 . S
H919 C895 0.930 . S
H920 C892 0.930 . S
H921 C901 0.930 . S
H922 C913 0.929 . S
H923 C916 0.930 . S
C924 C925 1.351 . S
C924 N927 1.368 . S
C924 H929 0.931 . S
C925 C924 1.351 . S
C925 N926 1.373 . S
C925 H953 0.930 . S
N926 C925 1.373 . S
N926 C928 1.340 . S
N927 C924 1.368 . S
N927 C928 1.321 . S
N927 Co930 2.135 . S
C928 N926 1.340 . S
C928 N927 1.321 . S
C928 H952 0.930 . S
H929 C924 0.931 . S
Co930 N927 2.135 . S
Co930 N933 2.121 . S
Co930 O938 2.055 . S
Co930 O941 2.039 . S
Co930 N944 2.140 . S
C931 O932 1.227 . S
C931 O941 1.265 . S
O932 C931 1.227 . S
N933 Co930 2.121 . S
N933 C935 1.375 . S
N933 C936 1.313 . S
C934 C935 1.338 . S
C934 N937 1.377 . S
C934 H954 0.930 1_565 S
C935 N933 1.375 . S
C935 C934 1.338 . S
C935 H939 0.931 . S
C936 N933 1.313 . S
C936 N937 1.344 . S
C936 H940 0.930 . S
N937 C934 1.377 . S
N937 C936 1.344 . S
O938 Co930 2.055 . S
O938 C942 1.253 . S
H939 C935 0.931 . S
H940 C936 0.930 . S
O941 Co930 2.039 . S
O941 C931 1.265 . S
C942 O938 1.253 . S
C942 O943 1.227 . S
O943 C942 1.227 . S
N944 Co930 2.140 . S
N944 C947 1.346 . S
N944 C948 1.345 . S
C945 C946 1.387 . S
C945 C949 1.391 . S
C946 C945 1.387 . S
C946 C947 1.369 . S
C946 H955 0.929 . S
C947 N944 1.346 . S
C947 C946 1.369 . S
C947 H950 0.928 . S
C948 N944 1.345 . S
C948 C949 1.371 . S
C948 H951 0.931 . S
C949 C945 1.391 . S
C949 C948 1.371 . S
C949 H956 0.930 . S
H950 C947 0.928 . S
H951 C948 0.931 . S
H952 C928 0.930 . S
H953 C925 0.930 . S
H954 C934 0.930 1_545 S
H955 C946 0.929 . S
H956 C949 0.930 . S
C957 C958 1.351 . S
C957 N960 1.368 . S
C957 H962 0.931 . S
C958 C957 1.351 . S
C958 N959 1.373 . S
C958 H986 0.930 . S
N959 C958 1.373 . S
N959 C961 1.340 . S
N960 C957 1.368 . S
N960 C961 1.321 . S
N960 Co963 2.135 . S
C961 N959 1.340 . S
C961 N960 1.321 . S
C961 H985 0.930 . S
H962 C957 0.931 . S
Co963 N960 2.135 . S
Co963 N966 2.121 . S
Co963 O971 2.055 . S
Co963 O974 2.039 . S
Co963 N977 2.140 . S
C964 O965 1.227 . S
C964 O974 1.265 . S
O965 C964 1.227 . S
N966 Co963 2.121 . S
N966 C968 1.375 . S
N966 C969 1.313 . S
C967 C968 1.338 . S
C967 N970 1.377 . S
C967 H987 0.930 1_455 S
C968 N966 1.375 . S
C968 C967 1.338 . S
C968 H972 0.931 . S
C969 N966 1.313 . S
C969 N970 1.344 . S
C969 H973 0.930 . S
N970 C967 1.377 . S
N970 C969 1.344 . S
O971 Co963 2.055 . S
O971 C975 1.253 . S
H972 C968 0.931 . S
H973 C969 0.930 . S
O974 Co963 2.039 . S
O974 C964 1.265 . S
C975 O971 1.253 . S
C975 O976 1.227 . S
O976 C975 1.227 . S
N977 Co963 2.140 . S
N977 C980 1.346 . S
N977 C981 1.345 . S
C978 C979 1.387 . S
C978 C982 1.391 . S
C979 C978 1.387 . S
C979 C980 1.369 . S
C979 H988 0.929 . S
C980 N977 1.346 . S
C980 C979 1.369 . S
C980 H983 0.928 . S
C981 N977 1.345 . S
C981 C982 1.371 . S
C981 H984 0.931 . S
C982 C978 1.391 . S
C982 C981 1.371 . S
C982 H989 0.930 . S
H983 C980 0.928 . S
H984 C981 0.931 . S
H985 C961 0.930 . S
H986 C958 0.930 . S
H987 C967 0.930 1_655 S
H988 C979 0.929 . S
H989 C982 0.930 . S
C990 C991 1.351 . S
C990 N993 1.368 . S
C990 H995 0.931 . S
C991 C990 1.351 . S
C991 N992 1.373 . S
C991 H1019 0.930 . S
N992 C991 1.373 . S
N992 C994 1.340 . S
N993 C990 1.368 . S
N993 C994 1.321 . S
N993 Co996 2.135 . S
C994 N992 1.340 . S
C994 N993 1.321 . S
C994 H1018 0.930 . S
H995 C990 0.931 . S
Co996 N993 2.135 . S
Co996 N999 2.121 . S
Co996 O1004 2.055 . S
Co996 O1007 2.039 . S
Co996 N1010 2.140 . S
C997 O998 1.227 . S
C997 O1007 1.265 . S
O998 C997 1.227 . S
N999 Co996 2.121 . S
N999 C1001 1.375 . S
N999 C1002 1.313 . S
C1000 C1001 1.338 . S
C1000 N1003 1.377 . S
C1000 H1020 0.930 . S
C1001 N999 1.375 . S
C1001 C1000 1.338 . S
C1001 H1005 0.931 . S
C1002 N999 1.313 . S
C1002 N1003 1.344 . S
C1002 H1006 0.930 . S
N1003 C1000 1.377 . S
N1003 C1002 1.344 . S
O1004 Co996 2.055 . S
O1004 C1008 1.253 . S
H1005 C1001 0.931 . S
H1006 C1002 0.930 . S
O1007 Co996 2.039 . S
O1007 C997 1.265 . S
C1008 O1004 1.253 . S
C1008 O1009 1.227 . S
O1009 C1008 1.227 . S
N1010 Co996 2.140 . S
N1010 C1013 1.346 . S
N1010 C1014 1.345 . S
C1011 C1012 1.387 . S
C1011 C1015 1.391 . S
C1012 C1011 1.387 . S
C1012 C1013 1.369 . S
C1012 H1021 0.929 . S
C1013 N1010 1.346 . S
C1013 C1012 1.369 . S
C1013 H1016 0.928 . S
C1014 N1010 1.345 . S
C1014 C1015 1.371 . S
C1014 H1017 0.931 . S
C1015 C1011 1.391 . S
C1015 C1014 1.371 . S
C1015 H1022 0.930 . S
H1016 C1013 0.928 . S
H1017 C1014 0.931 . S
H1018 C994 0.930 . S
H1019 C991 0.930 . S
H1020 C1000 0.930 . S
H1021 C1012 0.929 . S
H1022 C1015 0.930 . S
C1023 C1024 1.351 . S
C1023 N1026 1.368 . S
C1023 H1028 0.931 . S
C1024 C1023 1.351 . S
C1024 N1025 1.373 . S
C1024 H1052 0.930 . S
N1025 C1024 1.373 . S
N1025 C1027 1.340 . S
N1026 C1023 1.368 . S
N1026 C1027 1.321 . S
N1026 Co1029 2.135 . S
C1027 N1025 1.340 . S
C1027 N1026 1.321 . S
C1027 H1051 0.930 . S
H1028 C1023 0.931 . S
Co1029 N1026 2.135 . S
Co1029 N1032 2.121 . S
Co1029 O1037 2.055 . S
Co1029 O1040 2.039 . S
Co1029 N1043 2.140 . S
C1030 O1031 1.227 . S
C1030 O1040 1.265 . S
O1031 C1030 1.227 . S
N1032 Co1029 2.121 . S
N1032 C1034 1.375 . S
N1032 C1035 1.313 . S
C1033 C1034 1.338 . S
C1033 N1036 1.377 . S
C1033 H1053 0.930 1_565 S
C1034 N1032 1.375 . S
C1034 C1033 1.338 . S
C1034 H1038 0.931 . S
C1035 N1032 1.313 . S
C1035 N1036 1.344 . S
C1035 H1039 0.930 . S
N1036 C1033 1.377 . S
N1036 C1035 1.344 . S
O1037 Co1029 2.055 . S
O1037 C1041 1.253 . S
H1038 C1034 0.931 . S
H1039 C1035 0.930 . S
O1040 Co1029 2.039 . S
O1040 C1030 1.265 . S
C1041 O1037 1.253 . S
C1041 O1042 1.227 . S
O1042 C1041 1.227 . S
N1043 Co1029 2.140 . S
N1043 C1046 1.346 . S
N1043 C1047 1.345 . S
C1044 C1045 1.387 . S
C1044 C1048 1.391 . S
C1045 C1044 1.387 . S
C1045 C1046 1.369 . S
C1045 H1054 0.929 . S
C1046 N1043 1.346 . S
C1046 C1045 1.369 . S
C1046 H1049 0.928 . S
C1047 N1043 1.345 . S
C1047 C1048 1.371 . S
C1047 H1050 0.931 . S
C1048 C1044 1.391 . S
C1048 C1047 1.371 . S
C1048 H1055 0.930 . S
H1049 C1046 0.928 . S
H1050 C1047 0.931 . S
H1051 C1027 0.930 . S
H1052 C1024 0.930 . S
H1053 C1033 0.930 1_545 S
H1054 C1045 0.929 . S
H1055 C1048 0.930 . S
C1056 C1057 1.351 . S
C1056 N1059 1.368 . S
C1056 H1061 0.931 . S
C1057 C1056 1.351 . S
C1057 N1058 1.373 . S
C1057 H1085 0.930 . S
N1058 C1057 1.373 . S
N1058 C1060 1.340 . S
N1059 C1056 1.368 . S
N1059 C1060 1.321 . S
N1059 Co1062 2.135 . S
C1060 N1058 1.340 . S
C1060 N1059 1.321 . S
C1060 H1084 0.930 . S
H1061 C1056 0.931 . S
Co1062 N1059 2.135 . S
Co1062 N1065 2.121 . S
Co1062 O1070 2.055 . S
Co1062 O1073 2.039 . S
Co1062 N1076 2.140 . S
C1063 O1064 1.227 . S
C1063 O1073 1.265 . S
O1064 C1063 1.227 . S
N1065 Co1062 2.121 . S
N1065 C1067 1.375 . S
N1065 C1068 1.313 . S
C1066 C1067 1.338 . S
C1066 N1069 1.377 . S
C1066 H1086 0.930 1_455 S
C1067 N1065 1.375 . S
C1067 C1066 1.338 . S
C1067 H1071 0.931 . S
C1068 N1065 1.313 . S
C1068 N1069 1.344 . S
C1068 H1072 0.930 . S
N1069 C1066 1.377 . S
N1069 C1068 1.344 . S
O1070 Co1062 2.055 . S
O1070 C1074 1.253 . S
H1071 C1067 0.931 . S
H1072 C1068 0.930 . S
O1073 Co1062 2.039 . S
O1073 C1063 1.265 . S
C1074 O1070 1.253 . S
C1074 O1075 1.227 . S
O1075 C1074 1.227 . S
N1076 Co1062 2.140 . S
N1076 C1079 1.346 . S
N1076 C1080 1.345 . S
C1077 C1078 1.387 . S
C1077 C1081 1.391 . S
C1078 C1077 1.387 . S
C1078 C1079 1.369 . S
C1078 H1087 0.929 . S
C1079 N1076 1.346 . S
C1079 C1078 1.369 . S
C1079 H1082 0.928 . S
C1080 N1076 1.345 . S
C1080 C1081 1.371 . S
C1080 H1083 0.931 . S
C1081 C1077 1.391 . S
C1081 C1080 1.371 . S
C1081 H1088 0.930 . S
H1082 C1079 0.928 . S
H1083 C1080 0.931 . S
H1084 C1060 0.930 . S
H1085 C1057 0.930 . S
H1086 C1066 0.930 1_655 S
H1087 C1078 0.929 . S
H1088 C1081 0.930 . S
C1089 C1090 1.351 . S
C1089 N1092 1.368 . S
C1089 H1094 0.931 . S
C1090 C1089 1.351 . S
C1090 N1091 1.373 . S
C1090 H1118 0.930 . S
N1091 C1090 1.373 . S
N1091 C1093 1.340 . S
N1092 C1089 1.368 . S
N1092 C1093 1.321 . S
N1092 Co1095 2.135 . S
C1093 N1091 1.340 . S
C1093 N1092 1.321 . S
C1093 H1117 0.930 . S
H1094 C1089 0.931 . S
Co1095 N1092 2.135 . S
Co1095 N1098 2.121 . S
Co1095 O1103 2.055 . S
Co1095 O1106 2.039 . S
Co1095 N1109 2.140 . S
C1096 O1097 1.227 . S
C1096 O1106 1.265 . S
O1097 C1096 1.227 . S
N1098 Co1095 2.121 . S
N1098 C1100 1.375 . S
N1098 C1101 1.313 1_455 S
C1099 C1100 1.338 . S
C1099 N1102 1.377 1_455 S
C1099 H1119 0.930 . S
C1100 N1098 1.375 . S
C1100 C1099 1.338 . S
C1100 H1104 0.931 . S
C1101 N1098 1.313 1_655 S
C1101 N1102 1.344 . S
C1101 H1105 0.930 . S
N1102 C1099 1.377 1_655 S
N1102 C1101 1.344 . S
O1103 Co1095 2.055 . S
O1103 C1107 1.253 . S
H1104 C1100 0.931 . S
H1105 C1101 0.930 . S
O1106 Co1095 2.039 . S
O1106 C1096 1.265 . S
C1107 O1103 1.253 . S
C1107 O1108 1.227 1_455 S
O1108 C1107 1.227 1_655 S
N1109 Co1095 2.140 . S
N1109 C1112 1.346 . S
N1109 C1113 1.345 . S
C1110 C1111 1.387 . S
C1110 C1114 1.391 . S
C1111 C1110 1.387 . S
C1111 C1112 1.369 . S
C1111 H1120 0.929 . S
C1112 N1109 1.346 . S
C1112 C1111 1.369 . S
C1112 H1115 0.928 . S
C1113 N1109 1.345 . S
C1113 C1114 1.371 . S
C1113 H1116 0.931 1_455 S
C1114 C1110 1.391 . S
C1114 C1113 1.371 . S
C1114 H1121 0.930 1_455 S
H1115 C1112 0.928 . S
H1116 C1113 0.931 1_655 S
H1117 C1093 0.930 . S
H1118 C1090 0.930 . S
H1119 C1099 0.930 . S
H1120 C1111 0.929 . S
H1121 C1114 0.930 1_655 S
C1122 C1123 1.351 . S
C1122 N1125 1.368 . S
C1122 H1127 0.931 . S
C1123 C1122 1.351 . S
C1123 N1124 1.373 . S
C1123 H1151 0.930 . S
N1124 C1123 1.373 . S
N1124 C1126 1.340 . S
N1125 C1122 1.368 . S
N1125 C1126 1.321 . S
N1125 Co1128 2.135 . S
C1126 N1124 1.340 . S
C1126 N1125 1.321 . S
C1126 H1150 0.930 . S
H1127 C1122 0.931 . S
Co1128 N1125 2.135 . S
Co1128 N1131 2.121 . S
Co1128 O1136 2.055 . S
Co1128 O1139 2.039 . S
Co1128 N1142 2.140 . S
C1129 O1130 1.227 . S
C1129 O1139 1.265 . S
O1130 C1129 1.227 . S
N1131 Co1128 2.121 . S
N1131 C1133 1.375 . S
N1131 C1134 1.313 . S
C1132 C1133 1.338 . S
C1132 N1135 1.377 . S
C1132 H1152 0.930 . S
C1133 N1131 1.375 . S
C1133 C1132 1.338 . S
C1133 H1137 0.931 . S
C1134 N1131 1.313 . S
C1134 N1135 1.344 . S
C1134 H1138 0.930 . S
N1135 C1132 1.377 . S
N1135 C1134 1.344 . S
O1136 Co1128 2.055 . S
O1136 C1140 1.253 . S
H1137 C1133 0.931 . S
H1138 C1134 0.930 . S
O1139 Co1128 2.039 . S
O1139 C1129 1.265 . S
C1140 O1136 1.253 . S
C1140 O1141 1.227 . S
O1141 C1140 1.227 . S
N1142 Co1128 2.140 . S
N1142 C1145 1.346 . S
N1142 C1146 1.345 . S
C1143 C1144 1.387 . S
C1143 C1147 1.391 . S
C1144 C1143 1.387 . S
C1144 C1145 1.369 . S
C1144 H1153 0.929 . S
C1145 N1142 1.346 . S
C1145 C1144 1.369 . S
C1145 H1148 0.928 . S
C1146 N1142 1.345 . S
C1146 C1147 1.371 . S
C1146 H1149 0.931 . S
C1147 C1143 1.391 . S
C1147 C1146 1.371 . S
C1147 H1154 0.930 . S
H1148 C1145 0.928 . S
H1149 C1146 0.931 . S
H1150 C1126 0.930 . S
H1151 C1123 0.930 . S
H1152 C1132 0.930 . S
H1153 C1144 0.929 . S
H1154 C1147 0.930 . S
C1155 C1156 1.351 . S
C1155 N1158 1.368 . S
C1155 H1160 0.931 . S
C1156 C1155 1.351 . S
C1156 N1157 1.373 . S
C1156 H1184 0.930 . S
N1157 C1156 1.373 . S
N1157 C1159 1.340 . S
N1158 C1155 1.368 . S
N1158 C1159 1.321 . S
N1158 Co1161 2.135 . S
C1159 N1157 1.340 . S
C1159 N1158 1.321 . S
C1159 H1183 0.930 . S
H1160 C1155 0.931 . S
Co1161 N1158 2.135 . S
Co1161 N1164 2.121 . S
Co1161 O1169 2.055 . S
Co1161 O1172 2.039 . S
Co1161 N1175 2.140 . S
C1162 O1163 1.227 . S
C1162 O1172 1.265 . S
O1163 C1162 1.227 . S
N1164 Co1161 2.121 . S
N1164 C1166 1.375 . S
N1164 C1167 1.313 1_565 S
C1165 C1166 1.338 . S
C1165 N1168 1.377 1_565 S
C1165 H1185 0.930 . S
C1166 N1164 1.375 . S
C1166 C1165 1.338 . S
C1166 H1170 0.931 . S
C1167 N1164 1.313 1_545 S
C1167 N1168 1.344 . S
C1167 H1171 0.930 . S
N1168 C1165 1.377 1_545 S
N1168 C1167 1.344 . S
O1169 Co1161 2.055 . S
O1169 C1173 1.253 . S
H1170 C1166 0.931 . S
H1171 C1167 0.930 . S
O1172 Co1161 2.039 . S
O1172 C1162 1.265 . S
C1173 O1169 1.253 . S
C1173 O1174 1.227 1_565 S
O1174 C1173 1.227 1_545 S
N1175 Co1161 2.140 . S
N1175 C1178 1.346 . S
N1175 C1179 1.345 . S
C1176 C1177 1.387 . S
C1176 C1180 1.391 . S
C1177 C1176 1.387 . S
C1177 C1178 1.369 . S
C1177 H1186 0.929 . S
C1178 N1175 1.346 . S
C1178 C1177 1.369 . S
C1178 H1181 0.928 . S
C1179 N1175 1.345 . S
C1179 C1180 1.371 . S
C1179 H1182 0.931 1_565 S
C1180 C1176 1.391 . S
C1180 C1179 1.371 . S
C1180 H1187 0.930 1_565 S
H1181 C1178 0.928 . S
H1182 C1179 0.931 1_545 S
H1183 C1159 0.930 . S
H1184 C1156 0.930 . S
H1185 C1165 0.930 . S
H1186 C1177 0.929 . S
H1187 C1180 0.930 1_545 S
C1188 C1189 1.363 . S
C1188 C1194 1.379 . S
C1188 N1196 1.356 . S
C1189 C1188 1.363 . S
C1189 C1195 1.363 . S
C1190 C1191 1.363 . S
C1190 C1195 1.379 . S
C1190 N1197 1.356 . S
C1191 C1190 1.363 . S
C1191 C1194 1.363 . S
N1192 C1194 1.356 . S
N1192 H1204 0.984 . S
N1192 H1205 0.985 1_545 S
N1193 C1195 1.356 . S
N1193 H1198 0.984 . S
N1193 H1199 0.985 . S
C1194 C1188 1.379 . S
C1194 C1191 1.363 . S
C1194 N1192 1.356 . S
C1195 C1189 1.363 . S
C1195 C1190 1.379 . S
C1195 N1193 1.356 . S
N1196 C1188 1.356 . S
N1196 H1202 0.984 . S
N1196 H1203 0.984 . S
N1197 C1190 1.356 . S
N1197 H1200 0.984 . S
N1197 H1201 0.985 . S
H1198 N1193 0.984 . S
H1199 N1193 0.985 . S
H1200 N1197 0.984 . S
H1201 N1197 0.985 . S
H1202 N1196 0.984 . S
H1203 N1196 0.984 . S
H1204 N1192 0.984 . S
H1205 N1192 0.985 1_565 S
C1206 C1207 1.363 . S
C1206 C1212 1.379 . S
C1206 N1214 1.356 . S
C1207 C1206 1.363 . S
C1207 C1213 1.363 . S
C1208 C1209 1.363 . S
C1208 C1213 1.379 . S
C1208 N1215 1.356 . S
C1209 C1208 1.363 . S
C1209 C1212 1.363 . S
N1210 C1212 1.356 1_565 S
N1210 H1222 0.984 . S
N1210 H1223 0.985 . S
N1211 C1213 1.356 . S
N1211 H1216 0.984 . S
N1211 H1217 0.985 . S
C1212 C1206 1.379 . S
C1212 C1209 1.363 . S
C1212 N1210 1.356 1_545 S
C1213 C1207 1.363 . S
C1213 C1208 1.379 . S
C1213 N1211 1.356 . S
N1214 C1206 1.356 . S
N1214 H1220 0.984 1_655 S
N1214 H1221 0.984 1_655 S
N1215 C1208 1.356 . S
N1215 H1218 0.984 . S
N1215 H1219 0.985 . S
H1216 N1211 0.984 . S
H1217 N1211 0.985 . S
H1218 N1215 0.984 . S
H1219 N1215 0.985 . S
H1220 N1214 0.984 1_455 S
H1221 N1214 0.984 1_455 S
H1222 N1210 0.984 . S
H1223 N1210 0.985 . S
C1224 C1225 1.363 . S
C1224 C1230 1.379 . S
C1224 N1232 1.356 . S
C1225 C1224 1.363 . S
C1225 C1231 1.363 . S
C1226 C1227 1.363 . S
C1226 C1231 1.379 . S
C1226 N1233 1.356 . S
C1227 C1226 1.363 . S
C1227 C1230 1.363 . S
N1228 C1230 1.356 1_455 S
N1228 H1240 0.984 . S
N1228 H1241 0.985 . S
N1229 C1231 1.356 . S
N1229 H1234 0.984 . S
N1229 H1235 0.985 . S
C1230 C1224 1.379 . S
C1230 C1227 1.363 . S
C1230 N1228 1.356 1_655 S
C1231 C1225 1.363 . S
C1231 C1226 1.379 . S
C1231 N1229 1.356 . S
N1232 C1224 1.356 . S
N1232 H1238 0.984 . S
N1232 H1239 0.984 . S
N1233 C1226 1.356 . S
N1233 H1236 0.984 . S
N1233 H1237 0.985 . S
H1234 N1229 0.984 . S
H1235 N1229 0.985 . S
H1236 N1233 0.984 . S
H1237 N1233 0.985 . S
H1238 N1232 0.984 . S
H1239 N1232 0.984 . S
H1240 N1228 0.984 . S
H1241 N1228 0.985 . S
C1242 C1243 1.363 . S
C1242 C1248 1.379 . S
C1242 N1250 1.356 . S
C1243 C1242 1.363 . S
C1243 C1249 1.363 . S
C1244 C1245 1.363 . S
C1244 C1249 1.379 . S
C1244 N1251 1.356 . S
C1245 C1244 1.363 . S
C1245 C1248 1.363 . S
N1246 C1248 1.356 . S
N1246 H1258 0.984 . S
N1246 H1259 0.985 . S
N1247 C1249 1.356 . S
N1247 H1252 0.984 . S
N1247 H1253 0.985 . S
C1248 C1242 1.379 . S
C1248 C1245 1.363 . S
C1248 N1246 1.356 . S
C1249 C1243 1.363 . S
C1249 C1244 1.379 . S
C1249 N1247 1.356 . S
N1250 C1242 1.356 . S
N1250 H1256 0.984 . S
N1250 H1257 0.984 . S
N1251 C1244 1.356 . S
N1251 H1254 0.984 . S
N1251 H1255 0.985 . S
H1252 N1247 0.984 . S
H1253 N1247 0.985 . S
H1254 N1251 0.984 . S
H1255 N1251 0.985 . S
H1256 N1250 0.984 . S
H1257 N1250 0.984 . S
H1258 N1246 0.984 . S
H1259 N1246 0.985 . S
C1260 C1261 1.363 . S
C1260 C1266 1.379 . S
C1260 N1268 1.356 . S
C1261 C1260 1.363 . S
C1261 C1267 1.363 . S
C1262 C1263 1.363 . S
C1262 C1267 1.379 . S
C1262 N1269 1.356 . S
C1263 C1262 1.363 . S
C1263 C1266 1.363 . S
N1264 C1266 1.356 . S
N1264 H1276 0.984 . S
N1264 H1277 0.985 1_565 S
N1265 C1267 1.356 . S
N1265 H1270 0.984 . S
N1265 H1271 0.985 . S
C1266 C1260 1.379 . S
C1266 C1263 1.363 . S
C1266 N1264 1.356 . S
C1267 C1261 1.363 . S
C1267 C1262 1.379 . S
C1267 N1265 1.356 . S
N1268 C1260 1.356 . S
N1268 H1274 0.984 . S
N1268 H1275 0.984 . S
N1269 C1262 1.356 . S
N1269 H1272 0.984 1_565 S
N1269 H1273 0.985 . S
H1270 N1265 0.984 . S
H1271 N1265 0.985 . S
H1272 N1269 0.984 1_545 S
H1273 N1269 0.985 . S
H1274 N1268 0.984 . S
H1275 N1268 0.984 . S
H1276 N1264 0.984 . S
H1277 N1264 0.985 1_545 S
C1278 C1279 1.363 . S
C1278 C1284 1.379 . S
C1278 N1286 1.356 . S
C1279 C1278 1.363 . S
C1279 C1285 1.363 . S
C1280 C1281 1.363 . S
C1280 C1285 1.379 . S
C1280 N1287 1.356 . S
C1281 C1280 1.363 . S
C1281 C1284 1.363 . S
N1282 C1284 1.356 . S
N1282 H1294 0.984 . S
N1282 H1295 0.985 1_455 S
N1283 C1285 1.356 1_545 S
N1283 H1288 0.984 . S
N1283 H1289 0.985 . S
C1284 C1278 1.379 . S
C1284 C1281 1.363 . S
C1284 N1282 1.356 . S
C1285 C1279 1.363 . S
C1285 C1280 1.379 . S
C1285 N1283 1.356 1_565 S
N1286 C1278 1.356 . S
N1286 H1292 0.984 . S
N1286 H1293 0.984 . S
N1287 C1280 1.356 . S
N1287 H1290 0.984 1_455 S
N1287 H1291 0.985 . S
H1288 N1283 0.984 . S
H1289 N1283 0.985 . S
H1290 N1287 0.984 1_655 S
H1291 N1287 0.985 . S
H1292 N1286 0.984 . S
H1293 N1286 0.984 . S
H1294 N1282 0.984 . S
H1295 N1282 0.985 1_655 S
C1296 C1297 1.363 . S
C1296 C1302 1.379 . S
C1296 N1304 1.356 . S
C1297 C1296 1.363 . S
C1297 C1303 1.363 . S
C1298 C1299 1.363 . S
C1298 C1303 1.379 . S
C1298 N1305 1.356 . S
C1299 C1298 1.363 . S
C1299 C1302 1.363 . S
N1300 C1302 1.356 . S
N1300 H1312 0.984 . S
N1300 H1313 0.985 . S
N1301 C1303 1.356 . S
N1301 H1306 0.984 . S
N1301 H1307 0.985 . S
C1302 C1296 1.379 . S
C1302 C1299 1.363 . S
C1302 N1300 1.356 . S
C1303 C1297 1.363 . S
C1303 C1298 1.379 . S
C1303 N1301 1.356 . S
N1304 C1296 1.356 . S
N1304 H1310 0.984 . S
N1304 H1311 0.984 . S
N1305 C1298 1.356 . S
N1305 H1308 0.984 . S
N1305 H1309 0.985 . S
H1306 N1301 0.984 . S
H1307 N1301 0.985 . S
H1308 N1305 0.984 . S
H1309 N1305 0.985 . S
H1310 N1304 0.984 . S
H1311 N1304 0.984 . S
H1312 N1300 0.984 . S
H1313 N1300 0.985 . S
C1314 C1315 1.363 . S
C1314 C1320 1.379 . S
C1314 N1322 1.356 . S
C1315 C1314 1.363 . S
C1315 C1321 1.363 . S
C1316 C1317 1.363 . S
C1316 C1321 1.379 . S
C1316 N1323 1.356 . S
C1317 C1316 1.363 . S
C1317 C1320 1.363 . S
N1318 C1320 1.356 1_655 S
N1318 H1330 0.984 . S
N1318 H1331 0.985 . S
N1319 C1321 1.347 1_545 S
N1319 H1324 1.000 . S
N1319 H1325 0.979 . S
C1320 C1314 1.379 . S
C1320 C1317 1.363 . S
C1320 N1318 1.356 1_455 S
C1321 C1315 1.363 . S
C1321 C1316 1.379 . S
C1321 N1319 1.347 1_565 S
N1322 C1314 1.356 . S
N1322 H1328 0.984 . S
N1322 H1329 0.984 . S
N1323 C1316 1.356 . S
N1323 H1326 0.984 . S
N1323 H1327 0.985 . S
H1324 N1319 1.000 . S
H1325 N1319 0.979 . S
H1326 N1323 0.984 . S
H1327 N1323 0.985 . S
H1328 N1322 0.984 . S
H1329 N1322 0.984 . S
H1330 N1318 0.984 . S
H1331 N1318 0.985 . S
C1332 C1333 1.363 . S
C1332 C1338 1.379 . S
C1332 N1340 1.356 . S
C1333 C1332 1.363 . S
C1333 C1339 1.363 . S
C1334 C1335 1.363 . S
C1334 C1339 1.379 . S
C1334 N1341 1.356 . S
C1335 C1334 1.363 . S
C1335 C1338 1.363 . S
N1336 C1338 1.356 . S
N1336 H1348 0.984 . S
N1336 H1349 0.985 . S
N1337 C1339 1.356 . S
N1337 H1342 0.984 . S
N1337 H1343 0.985 . S
C1338 C1332 1.379 . S
C1338 C1335 1.363 . S
C1338 N1336 1.356 . S
C1339 C1333 1.363 . S
C1339 C1334 1.379 . S
C1339 N1337 1.356 . S
N1340 C1332 1.356 . S
N1340 H1346 0.984 . S
N1340 H1347 0.984 . S
N1341 C1334 1.356 . S
N1341 H1344 0.984 1_455 S
N1341 H1345 0.985 . S
H1342 N1337 0.984 . S
H1343 N1337 0.985 . S
H1344 N1341 0.984 1_655 S
H1345 N1341 0.985 . S
H1346 N1340 0.984 . S
H1347 N1340 0.984 . S
H1348 N1336 0.984 . S
H1349 N1336 0.985 . S
C1350 C1351 1.363 . S
C1350 C1356 1.379 . S
C1350 N1358 1.356 . S
C1351 C1350 1.363 . S
C1351 C1357 1.363 . S
C1352 C1353 1.363 . S
C1352 C1357 1.379 . S
C1352 N1359 1.356 . S
C1353 C1352 1.363 . S
C1353 C1356 1.363 . S
N1354 C1356 1.356 . S
N1354 H1366 0.984 . S
N1354 H1367 0.985 . S
N1355 C1357 1.356 1_455 S
N1355 H1360 0.984 . S
N1355 H1361 0.985 . S
C1356 C1350 1.379 . S
C1356 C1353 1.363 . S
C1356 N1354 1.356 . S
C1357 C1351 1.363 . S
C1357 C1352 1.379 . S
C1357 N1355 1.356 1_655 S
N1358 C1350 1.356 . S
N1358 H1364 0.984 . S
N1358 H1365 0.984 . S
N1359 C1352 1.356 . S
N1359 H1362 0.984 . S
N1359 H1363 0.985 . S
H1360 N1355 0.984 . S
H1361 N1355 0.985 . S
H1362 N1359 0.984 . S
H1363 N1359 0.985 . S
H1364 N1358 0.984 . S
H1365 N1358 0.984 . S
H1366 N1354 0.984 . S
H1367 N1354 0.985 . S
C1368 C1369 1.363 . S
C1368 C1374 1.379 . S
C1368 N1376 1.356 . S
C1369 C1368 1.363 . S
C1369 C1375 1.363 . S
C1370 C1371 1.363 . S
C1370 C1375 1.379 . S
C1370 N1377 1.356 . S
C1371 C1370 1.363 . S
C1371 C1374 1.363 . S
N1372 C1374 1.356 . S
N1372 H1384 0.984 . S
N1372 H1385 0.985 . S
N1373 C1375 1.356 . S
N1373 H1378 0.984 . S
N1373 H1379 0.985 . S
C1374 C1368 1.379 . S
C1374 C1371 1.363 . S
C1374 N1372 1.356 . S
C1375 C1369 1.363 . S
C1375 C1370 1.379 . S
C1375 N1373 1.356 . S
N1376 C1368 1.356 . S
N1376 H1382 0.984 . S
N1376 H1383 0.984 1_545 S
N1377 C1370 1.356 . S
N1377 H1380 0.984 . S
N1377 H1381 0.985 . S
H1378 N1373 0.984 . S
H1379 N1373 0.985 . S
H1380 N1377 0.984 . S
H1381 N1377 0.985 . S
H1382 N1376 0.984 . S
H1383 N1376 0.984 1_565 S
H1384 N1372 0.984 . S
H1385 N1372 0.985 . S
C1386 C1387 1.363 . S
C1386 C1392 1.379 . S
C1386 N1394 1.356 . S
C1387 C1386 1.363 . S
C1387 C1393 1.363 . S
C1388 C1389 1.363 . S
C1388 C1393 1.379 . S
C1388 N1395 1.356 . S
C1389 C1388 1.363 . S
C1389 C1392 1.363 . S
N1390 C1392 1.356 1_455 S
N1390 H1402 0.984 . S
N1390 H1403 0.985 . S
N1391 C1393 1.356 . S
N1391 H1396 0.984 . S
N1391 H1397 0.985 . S
C1392 C1386 1.379 . S
C1392 C1389 1.363 . S
C1392 N1390 1.356 1_655 S
C1393 C1387 1.363 . S
C1393 C1388 1.379 . S
C1393 N1391 1.356 . S
N1394 C1386 1.356 . S
N1394 H1400 0.984 1_545 S
N1394 H1401 0.984 1_545 S
N1395 C1388 1.356 . S
N1395 H1398 0.984 . S
N1395 H1399 0.985 . S
H1396 N1391 0.984 . S
H1397 N1391 0.985 . S
H1398 N1395 0.984 . S
H1399 N1395 0.985 . S
H1400 N1394 0.984 1_565 S
H1401 N1394 0.984 1_565 S
H1402 N1390 0.984 . S
H1403 N1390 0.985 . S
C1404 C1405 1.363 . S
C1404 C1410 1.379 . S
C1404 N1412 1.356 . S
C1405 C1404 1.363 . S
C1405 C1411 1.363 . S
C1406 C1407 1.363 . S
C1406 C1411 1.379 . S
C1406 N1413 1.356 . S
C1407 C1406 1.363 . S
C1407 C1410 1.363 . S
N1408 C1410 1.356 . S
N1408 H1420 0.984 . S
N1408 H1421 0.985 . S
N1409 C1411 1.356 . S
N1409 H1414 0.984 . S
N1409 H1415 0.985 . S
C1410 C1404 1.379 . S
C1410 C1407 1.363 . S
C1410 N1408 1.356 . S
C1411 C1405 1.363 . S
C1411 C1406 1.379 . S
C1411 N1409 1.356 . S
N1412 C1404 1.356 . S
N1412 H1418 0.984 . S
N1412 H1419 0.984 . S
N1413 C1406 1.356 . S
N1413 H1416 0.984 . S
N1413 H1417 0.985 . S
H1414 N1409 0.984 . S
H1415 N1409 0.985 . S
H1416 N1413 0.984 . S
H1417 N1413 0.985 . S
H1418 N1412 0.984 . S
H1419 N1412 0.984 . S
H1420 N1408 0.984 . S
H1421 N1408 0.985 . S
C1422 C1423 1.363 . S
C1422 C1428 1.379 . S
C1422 N1430 1.356 . S
C1423 C1422 1.363 . S
C1423 C1429 1.363 . S
C1424 C1425 1.363 . S
C1424 C1429 1.379 . S
C1424 N1431 1.356 . S
C1425 C1424 1.363 . S
C1425 C1428 1.363 . S
N1426 C1428 1.356 . S
N1426 H1438 0.984 . S
N1426 H1439 0.985 . S
N1427 C1429 1.356 . S
N1427 H1432 0.984 . S
N1427 H1433 0.985 . S
C1428 C1422 1.379 . S
C1428 C1425 1.363 . S
C1428 N1426 1.356 . S
C1429 C1423 1.363 . S
C1429 C1424 1.379 . S
C1429 N1427 1.356 . S
N1430 C1422 1.356 . S
N1430 H1436 0.984 . S
N1430 H1437 0.984 . S
N1431 C1424 1.356 . S
N1431 H1434 0.984 . S
N1431 H1435 0.985 . S
H1432 N1427 0.984 . S
H1433 N1427 0.985 . S
H1434 N1431 0.984 . S
H1435 N1431 0.985 . S
H1436 N1430 0.984 . S
H1437 N1430 0.984 . S
H1438 N1426 0.984 . S
H1439 N1426 0.985 . S
C1440 C1441 1.363 . S
C1440 C1446 1.379 . S
C1440 N1448 1.356 . S
C1441 C1440 1.363 . S
C1441 C1447 1.363 . S
C1442 C1443 1.363 . S
C1442 C1447 1.379 . S
C1442 N1449 1.356 . S
C1443 C1442 1.363 . S
C1443 C1446 1.363 . S
N1444 C1446 1.356 . S
N1444 H1456 0.984 . S
N1444 H1457 0.985 . S
N1445 C1447 1.356 . S
N1445 H1450 0.984 . S
N1445 H1451 0.985 . S
C1446 C1440 1.379 . S
C1446 C1443 1.363 . S
C1446 N1444 1.356 . S
C1447 C1441 1.363 . S
C1447 C1442 1.379 . S
C1447 N1445 1.356 . S
N1448 C1440 1.356 . S
N1448 H1454 0.984 . S
N1448 H1455 0.984 . S
N1449 C1442 1.356 . S
N1449 H1452 0.984 . S
N1449 H1453 0.985 . S
H1450 N1445 0.984 . S
H1451 N1445 0.985 . S
H1452 N1449 0.984 . S
H1453 N1449 0.985 . S
H1454 N1448 0.984 . S
H1455 N1448 0.984 . S
H1456 N1444 0.984 . S
H1457 N1444 0.985 . S
C1458 C1459 1.363 . S
C1458 C1464 1.379 . S
C1458 N1466 1.356 . S
C1459 C1458 1.363 . S
C1459 C1465 1.363 . S
C1460 C1461 1.363 . S
C1460 C1465 1.379 . S
C1460 N1467 1.356 . S
C1461 C1460 1.363 . S
C1461 C1464 1.363 . S
N1462 C1464 1.356 . S
N1462 H1474 0.984 . S
N1462 H1475 0.985 . S
N1463 C1465 1.356 . S
N1463 H1468 0.984 . S
N1463 H1469 0.985 . S
C1464 C1458 1.379 . S
C1464 C1461 1.363 . S
C1464 N1462 1.356 . S
C1465 C1459 1.363 . S
C1465 C1460 1.379 . S
C1465 N1463 1.356 . S
N1466 C1458 1.356 . S
N1466 H1472 0.984 . S
N1466 H1473 0.984 . S
N1467 C1460 1.356 . S
N1467 H1470 0.984 . S
N1467 H1471 0.985 . S
H1468 N1463 0.984 . S
H1469 N1463 0.985 . S
H1470 N1467 0.984 . S
H1471 N1467 0.985 . S
H1472 N1466 0.984 . S
H1473 N1466 0.984 . S
H1474 N1462 0.984 . S
H1475 N1462 0.985 . S
C1476 C1477 1.363 . S
C1476 C1482 1.379 . S
C1476 N1484 1.356 . S
C1477 C1476 1.363 . S
C1477 C1483 1.363 . S
C1478 C1479 1.363 . S
C1478 C1483 1.379 . S
C1478 N1485 1.356 . S
C1479 C1478 1.363 . S
C1479 C1482 1.363 . S
N1480 C1482 1.356 . S
N1480 H1492 0.984 . S
N1480 H1493 0.985 . S
N1481 C1483 1.356 . S
N1481 H1486 0.984 . S
N1481 H1487 0.985 . S
C1482 C1476 1.379 . S
C1482 C1479 1.363 . S
C1482 N1480 1.356 . S
C1483 C1477 1.363 . S
C1483 C1478 1.379 . S
C1483 N1481 1.356 . S
N1484 C1476 1.356 . S
N1484 H1490 0.984 . S
N1484 H1491 0.984 . S
N1485 C1478 1.356 . S
N1485 H1488 0.984 . S
N1485 H1489 0.985 . S
H1486 N1481 0.984 . S
H1487 N1481 0.985 . S
H1488 N1485 0.984 . S
H1489 N1485 0.985 . S
H1490 N1484 0.984 . S
H1491 N1484 0.984 . S
H1492 N1480 0.984 . S
H1493 N1480 0.985 . S
C1494 C1495 1.363 . S
C1494 C1500 1.379 . S
C1494 N1502 1.356 . S
C1495 C1494 1.363 . S
C1495 C1501 1.363 . S
C1496 C1497 1.363 . S
C1496 C1501 1.379 . S
C1496 N1503 1.356 . S
C1497 C1496 1.363 . S
C1497 C1500 1.363 . S
N1498 C1500 1.356 . S
N1498 H1510 0.984 . S
N1498 H1511 0.985 . S
N1499 C1501 1.356 . S
N1499 H1504 0.984 . S
N1499 H1505 0.985 . S
C1500 C1494 1.379 . S
C1500 C1497 1.363 . S
C1500 N1498 1.356 . S
C1501 C1495 1.363 . S
C1501 C1496 1.379 . S
C1501 N1499 1.356 . S
N1502 C1494 1.356 . S
N1502 H1508 0.984 . S
N1502 H1509 0.984 . S
N1503 C1496 1.356 . S
N1503 H1506 0.984 . S
N1503 H1507 0.985 . S
H1504 N1499 0.984 . S
H1505 N1499 0.985 . S
H1506 N1503 0.984 . S
H1507 N1503 0.985 . S
H1508 N1502 0.984 . S
H1509 N1502 0.984 . S
H1510 N1498 0.984 . S
H1511 N1498 0.985 . S
C1512 C1513 1.363 . S
C1512 C1518 1.379 . S
C1512 N1520 1.356 . S
C1513 C1512 1.363 . S
C1513 C1519 1.363 . S
C1514 C1515 1.363 . S
C1514 C1519 1.379 . S
C1514 N1521 1.356 . S
C1515 C1514 1.363 . S
C1515 C1518 1.363 . S
N1516 C1518 1.356 . S
N1516 H1528 0.984 . S
N1516 H1529 0.985 . S
N1517 C1519 1.356 . S
N1517 H1522 0.984 . S
N1517 H1523 0.985 . S
C1518 C1512 1.379 . S
C1518 C1515 1.363 . S
C1518 N1516 1.356 . S
C1519 C1513 1.363 . S
C1519 C1514 1.379 . S
C1519 N1517 1.356 . S
N1520 C1512 1.356 . S
N1520 H1526 0.984 . S
N1520 H1527 0.984 . S
N1521 C1514 1.356 . S
N1521 H1524 0.984 . S
N1521 H1525 0.985 . S
H1522 N1517 0.984 . S
H1523 N1517 0.985 . S
H1524 N1521 0.984 . S
H1525 N1521 0.985 . S
H1526 N1520 0.984 . S
H1527 N1520 0.984 . S
H1528 N1516 0.984 . S
H1529 N1516 0.985 . S
C1530 C1531 1.363 . S
C1530 C1536 1.379 . S
C1530 N1538 1.356 . S
C1531 C1530 1.363 . S
C1531 C1537 1.363 . S
C1532 C1533 1.363 . S
C1532 C1537 1.379 . S
C1532 N1539 1.356 . S
C1533 C1532 1.363 . S
C1533 C1536 1.363 . S
N1534 C1536 1.356 . S
N1534 H1546 0.984 . S
N1534 H1547 0.985 . S
N1535 C1537 1.356 . S
N1535 H1540 0.984 . S
N1535 H1541 0.985 . S
C1536 C1530 1.379 . S
C1536 C1533 1.363 . S
C1536 N1534 1.356 . S
C1537 C1531 1.363 . S
C1537 C1532 1.379 . S
C1537 N1535 1.356 . S
N1538 C1530 1.356 . S
N1538 H1544 0.984 . S
N1538 H1545 0.984 . S
N1539 C1532 1.356 . S
N1539 H1542 0.984 . S
N1539 H1543 0.985 . S
H1540 N1535 0.984 . S
H1541 N1535 0.985 . S
H1542 N1539 0.984 . S
H1543 N1539 0.985 . S
H1544 N1538 0.984 . S
H1545 N1538 0.984 . S
H1546 N1534 0.984 . S
H1547 N1534 0.985 . S
C1548 C1549 1.363 . S
C1548 C1554 1.379 . S
C1548 N1556 1.356 . S
C1549 C1548 1.363 . S
C1549 C1555 1.363 . S
C1550 C1551 1.363 . S
C1550 C1555 1.379 . S
C1550 N1557 1.356 . S
C1551 C1550 1.363 . S
C1551 C1554 1.363 . S
N1552 C1554 1.356 . S
N1552 H1564 0.984 . S
N1552 H1565 0.985 . S
N1553 C1555 1.356 . S
N1553 H1558 0.984 . S
N1553 H1559 0.985 . S
C1554 C1548 1.379 . S
C1554 C1551 1.363 . S
C1554 N1552 1.356 . S
C1555 C1549 1.363 . S
C1555 C1550 1.379 . S
C1555 N1553 1.356 . S
N1556 C1548 1.356 . S
N1556 H1562 0.984 . S
N1556 H1563 0.984 . S
N1557 C1550 1.356 . S
N1557 H1560 0.984 . S
N1557 H1561 0.985 . S
H1558 N1553 0.984 . S
H1559 N1553 0.985 . S
H1560 N1557 0.984 . S
H1561 N1557 0.985 . S
H1562 N1556 0.984 . S
H1563 N1556 0.984 . S
H1564 N1552 0.984 . S
H1565 N1552 0.985 . S
C1566 C1567 1.363 . S
C1566 C1572 1.379 . S
C1566 N1574 1.356 . S
C1567 C1566 1.363 . S
C1567 C1573 1.363 . S
C1568 C1569 1.363 . S
C1568 C1573 1.379 . S
C1568 N1575 1.356 . S
C1569 C1568 1.363 . S
C1569 C1572 1.363 . S
N1570 C1572 1.356 . S
N1570 H1582 0.984 . S
N1570 H1583 0.985 . S
N1571 C1573 1.356 . S
N1571 H1576 0.984 . S
N1571 H1577 0.985 . S
C1572 C1566 1.379 . S
C1572 C1569 1.363 . S
C1572 N1570 1.356 . S
C1573 C1567 1.363 . S
C1573 C1568 1.379 . S
C1573 N1571 1.356 . S
N1574 C1566 1.356 . S
N1574 H1580 0.984 . S
N1574 H1581 0.984 . S
N1575 C1568 1.356 . S
N1575 H1578 0.984 . S
N1575 H1579 0.985 . S
H1576 N1571 0.984 . S
H1577 N1571 0.985 . S
H1578 N1575 0.984 . S
H1579 N1575 0.985 . S
H1580 N1574 0.984 . S
H1581 N1574 0.984 . S
H1582 N1570 0.984 . S
H1583 N1570 0.985 . S
C1584 C1585 1.363 . S
C1584 C1590 1.379 . S
C1584 N1592 1.356 . S
C1585 C1584 1.363 . S
C1585 C1591 1.363 . S
C1586 C1587 1.363 . S
C1586 C1591 1.379 . S
C1586 N1593 1.356 . S
C1587 C1586 1.363 . S
C1587 C1590 1.363 . S
N1588 C1590 1.356 . S
N1588 H1600 0.984 . S
N1588 H1601 0.985 . S
N1589 C1591 1.356 . S
N1589 H1594 0.984 . S
N1589 H1595 0.985 . S
C1590 C1584 1.379 . S
C1590 C1587 1.363 . S
C1590 N1588 1.356 . S
C1591 C1585 1.363 . S
C1591 C1586 1.379 . S
C1591 N1589 1.356 . S
N1592 C1584 1.356 . S
N1592 H1598 0.984 . S
N1592 H1599 0.984 . S
N1593 C1586 1.356 . S
N1593 H1596 0.984 . S
N1593 H1597 0.985 . S
H1594 N1589 0.984 . S
H1595 N1589 0.985 . S
H1596 N1593 0.984 . S
H1597 N1593 0.985 . S
H1598 N1592 0.984 . S
H1599 N1592 0.984 . S
H1600 N1588 0.984 . S
H1601 N1588 0.985 . S
C1602 C1603 1.363 . S
C1602 C1608 1.379 . S
C1602 N1610 1.356 . S
C1603 C1602 1.363 . S
C1603 C1609 1.363 . S
C1604 C1605 1.363 . S
C1604 C1609 1.379 . S
C1604 N1611 1.356 . S
C1605 C1604 1.363 . S
C1605 C1608 1.363 . S
N1606 C1608 1.356 . S
N1606 H1618 0.984 . S
N1606 H1619 0.985 . S
N1607 C1609 1.356 . S
N1607 H1612 0.984 . S
N1607 H1613 0.985 . S
C1608 C1602 1.379 . S
C1608 C1605 1.363 . S
C1608 N1606 1.356 . S
C1609 C1603 1.363 . S
C1609 C1604 1.379 . S
C1609 N1607 1.356 . S
N1610 C1602 1.356 . S
N1610 H1616 0.984 . S
N1610 H1617 0.984 . S
N1611 C1604 1.356 . S
N1611 H1614 0.984 . S
N1611 H1615 0.985 . S
H1612 N1607 0.984 . S
H1613 N1607 0.985 . S
H1614 N1611 0.984 . S
H1615 N1611 0.985 . S
H1616 N1610 0.984 . S
H1617 N1610 0.984 . S
H1618 N1606 0.984 . S
H1619 N1606 0.985 . S
C1620 C1621 1.363 . S
C1620 C1626 1.379 . S
C1620 N1628 1.356 . S
C1621 C1620 1.363 . S
C1621 C1627 1.363 . S
C1622 C1623 1.363 . S
C1622 C1627 1.379 . S
C1622 N1629 1.356 . S
C1623 C1622 1.363 . S
C1623 C1626 1.363 . S
N1624 C1626 1.356 . S
N1624 H1636 0.984 . S
N1624 H1637 0.985 . S
N1625 C1627 1.356 . S
N1625 H1630 0.984 . S
N1625 H1631 0.985 . S
C1626 C1620 1.379 . S
C1626 C1623 1.363 . S
C1626 N1624 1.356 . S
C1627 C1621 1.363 . S
C1627 C1622 1.379 . S
C1627 N1625 1.356 . S
N1628 C1620 1.356 . S
N1628 H1634 0.984 . S
N1628 H1635 0.984 . S
N1629 C1622 1.356 . S
N1629 H1632 0.984 . S
N1629 H1633 0.985 . S
H1630 N1625 0.984 . S
H1631 N1625 0.985 . S
H1632 N1629 0.984 . S
H1633 N1629 0.985 . S
H1634 N1628 0.984 . S
H1635 N1628 0.984 . S
H1636 N1624 0.984 . S
H1637 N1624 0.985 . S
C1638 C1639 1.363 . S
C1638 C1644 1.379 . S
C1638 N1646 1.356 . S
C1639 C1638 1.363 . S
C1639 C1645 1.363 . S
C1640 C1641 1.363 . S
C1640 C1645 1.379 . S
C1640 N1647 1.356 . S
C1641 C1640 1.363 . S
C1641 C1644 1.363 . S
N1642 C1644 1.356 . S
N1642 H1654 0.984 . S
N1642 H1655 0.985 . S
N1643 C1645 1.356 . S
N1643 H1648 0.984 . S
N1643 H1649 0.985 . S
C1644 C1638 1.379 . S
C1644 C1641 1.363 . S
C1644 N1642 1.356 . S
C1645 C1639 1.363 . S
C1645 C1640 1.379 . S
C1645 N1643 1.356 . S
N1646 C1638 1.356 . S
N1646 H1652 0.984 . S
N1646 H1653 0.984 . S
N1647 C1640 1.356 . S
N1647 H1650 0.984 . S
N1647 H1651 0.985 . S
H1648 N1643 0.984 . S
H1649 N1643 0.985 . S
H1650 N1647 0.984 . S
H1651 N1647 0.985 . S
H1652 N1646 0.984 . S
H1653 N1646 0.984 . S
H1654 N1642 0.984 . S
H1655 N1642 0.985 . S
C1656 C1657 1.363 . S
C1656 C1662 1.379 . S
C1656 N1664 1.356 . S
C1657 C1656 1.363 . S
C1657 C1663 1.363 . S
C1658 C1659 1.363 . S
C1658 C1663 1.379 . S
C1658 N1665 1.356 . S
C1659 C1658 1.363 . S
C1659 C1662 1.363 . S
N1660 C1662 1.356 . S
N1660 H1672 0.984 . S
N1660 H1673 0.985 . S
N1661 C1663 1.356 . S
N1661 H1666 0.984 . S
N1661 H1667 0.985 . S
C1662 C1656 1.379 . S
C1662 C1659 1.363 . S
C1662 N1660 1.356 . S
C1663 C1657 1.363 . S
C1663 C1658 1.379 . S
C1663 N1661 1.356 . S
N1664 C1656 1.356 . S
N1664 H1670 0.984 . S
N1664 H1671 0.984 . S
N1665 C1658 1.356 . S
N1665 H1668 0.984 . S
N1665 H1669 0.985 . S
H1666 N1661 0.984 . S
H1667 N1661 0.985 . S
H1668 N1665 0.984 . S
H1669 N1665 0.985 . S
H1670 N1664 0.984 . S
H1671 N1664 0.984 . S
H1672 N1660 0.984 . S
H1673 N1660 0.985 . S
C1674 C1675 1.363 . S
C1674 C1680 1.379 . S
C1674 N1682 1.356 . S
C1675 C1674 1.363 . S
C1675 C1681 1.363 . S
C1676 C1677 1.363 . S
C1676 C1681 1.379 . S
C1676 N1683 1.356 . S
C1677 C1676 1.363 . S
C1677 C1680 1.363 . S
N1678 C1680 1.356 . S
N1678 H1690 0.984 . S
N1678 H1691 0.985 . S
N1679 C1681 1.356 . S
N1679 H1684 0.984 . S
N1679 H1685 0.985 . S
C1680 C1674 1.379 . S
C1680 C1677 1.363 . S
C1680 N1678 1.356 . S
C1681 C1675 1.363 . S
C1681 C1676 1.379 . S
C1681 N1679 1.356 . S
N1682 C1674 1.356 . S
N1682 H1688 1.050 . S
N1682 H1689 0.984 . S
N1683 C1676 1.356 . S
N1683 H1686 0.984 . S
N1683 H1687 0.985 . S
H1684 N1679 0.984 . S
H1685 N1679 0.985 . S
H1686 N1683 0.984 . S
H1687 N1683 0.985 . S
H1688 N1682 1.050 . S
H1689 N1682 0.984 . S
H1690 N1678 0.984 . S
H1691 N1678 0.985 . S
C1692 C1693 1.363 . S
C1692 C1698 1.379 . S
C1692 N1700 1.356 . S
C1693 C1692 1.363 . S
C1693 C1699 1.363 . S
C1694 C1695 1.363 . S
C1694 C1699 1.379 . S
C1694 N1701 1.356 . S
C1695 C1694 1.363 . S
C1695 C1698 1.363 . S
N1696 C1698 1.356 . S
N1696 H1708 0.984 . S
N1696 H1709 0.985 . S
N1697 C1699 1.356 . S
N1697 H1702 0.984 . S
N1697 H1703 0.985 . S
C1698 C1692 1.379 . S
C1698 C1695 1.363 . S
C1698 N1696 1.356 . S
C1699 C1693 1.363 . S
C1699 C1694 1.379 . S
C1699 N1697 1.356 . S
N1700 C1692 1.356 . S
N1700 H1706 0.984 . S
N1700 H1707 0.984 . S
N1701 C1694 1.356 . S
N1701 H1704 0.984 . S
N1701 H1705 0.985 . S
H1702 N1697 0.984 . S
H1703 N1697 0.985 . S
H1704 N1701 0.984 . S
H1705 N1701 0.985 . S
H1706 N1700 0.984 . S
H1707 N1700 0.984 . S
H1708 N1696 0.984 . S
H1709 N1696 0.985 . S
C1710 C1711 1.363 . S
C1710 C1716 1.379 . S
C1710 N1718 1.356 . S
C1711 C1710 1.363 . S
C1711 C1717 1.363 . S
C1712 C1713 1.363 . S
C1712 C1717 1.379 . S
C1712 N1719 1.356 . S
C1713 C1712 1.363 . S
C1713 C1716 1.363 . S
N1714 C1716 1.356 . S
N1714 H1726 0.984 . S
N1714 H1727 0.985 . S
N1715 C1717 1.356 . S
N1715 H1720 0.984 . S
N1715 H1721 0.996 . S
C1716 C1710 1.379 . S
C1716 C1713 1.363 . S
C1716 N1714 1.356 . S
C1717 C1711 1.363 . S
C1717 C1712 1.379 . S
C1717 N1715 1.356 . S
N1718 C1710 1.356 . S
N1718 H1724 0.984 . S
N1718 H1725 0.984 . S
N1719 C1712 1.356 . S
N1719 H1722 0.984 . S
N1719 H1723 0.985 . S
H1720 N1715 0.984 . S
H1721 N1715 0.996 . S
H1722 N1719 0.984 . S
H1723 N1719 0.985 . S
H1724 N1718 0.984 . S
H1725 N1718 0.984 . S
H1726 N1714 0.984 . S
H1727 N1714 0.985 . S
C1728 C1729 1.363 . S
C1728 C1734 1.379 . S
C1728 N1736 1.356 . S
C1729 C1728 1.363 . S
C1729 C1735 1.363 . S
C1730 C1731 1.363 . S
C1730 C1735 1.379 . S
C1730 N1737 1.356 . S
C1731 C1730 1.363 . S
C1731 C1734 1.363 . S
N1732 C1734 1.356 . S
N1732 H1744 0.984 . S
N1732 H1745 0.985 . S
N1733 C1735 1.356 . S
N1733 H1738 0.984 . S
N1733 H1739 0.985 . S
C1734 C1728 1.379 . S
C1734 C1731 1.363 . S
C1734 N1732 1.356 . S
C1735 C1729 1.363 . S
C1735 C1730 1.379 . S
C1735 N1733 1.356 . S
N1736 C1728 1.356 . S
N1736 H1742 0.984 . S
N1736 H1743 0.984 . S
N1737 C1730 1.356 . S
N1737 H1740 0.984 . S
N1737 H1741 0.985 . S
H1738 N1733 0.984 . S
H1739 N1733 0.985 . S
H1740 N1737 0.984 . S
H1741 N1737 0.985 . S
H1742 N1736 0.984 . S
H1743 N1736 0.984 . S
H1744 N1732 0.984 . S
H1745 N1732 0.985 . S
C1746 C1747 1.363 . S
C1746 C1752 1.379 . S
C1746 N1754 1.356 . S
C1747 C1746 1.363 . S
C1747 C1753 1.363 . S
C1748 C1749 1.363 . S
C1748 C1753 1.379 . S
C1748 N1755 1.356 . S
C1749 C1748 1.363 . S
C1749 C1752 1.363 . S
N1750 C1752 1.356 . S
N1750 H1762 0.984 . S
N1750 H1763 0.985 . S
N1751 C1753 1.356 . S
N1751 H1756 0.984 . S
N1751 H1757 0.985 . S
C1752 C1746 1.379 . S
C1752 C1749 1.363 . S
C1752 N1750 1.356 . S
C1753 C1747 1.363 . S
C1753 C1748 1.379 . S
C1753 N1751 1.356 . S
N1754 C1746 1.356 . S
N1754 H1760 0.984 . S
N1754 H1761 0.984 . S
N1755 C1748 1.356 . S
N1755 H1758 0.984 . S
N1755 H1759 0.985 . S
H1756 N1751 0.984 . S
H1757 N1751 0.985 . S
H1758 N1755 0.984 . S
H1759 N1755 0.985 . S
H1760 N1754 0.984 . S
H1761 N1754 0.984 . S
H1762 N1750 0.984 . S
H1763 N1750 0.985 . S
C1764 C1765 1.363 . S
C1764 C1770 1.379 . S
C1764 N1772 1.356 . S
C1765 C1764 1.363 . S
C1765 C1771 1.363 . S
C1766 C1767 1.363 . S
C1766 C1771 1.379 . S
C1766 N1773 1.356 . S
C1767 C1766 1.363 . S
C1767 C1770 1.363 . S
N1768 C1770 1.356 . S
N1768 H1780 0.984 . S
N1768 H1781 0.985 . S
N1769 C1771 1.356 . S
N1769 H1774 0.984 . S
N1769 H1775 0.985 . S
C1770 C1764 1.379 . S
C1770 C1767 1.363 . S
C1770 N1768 1.356 . S
C1771 C1765 1.363 . S
C1771 C1766 1.379 . S
C1771 N1769 1.356 . S
N1772 C1764 1.356 . S
N1772 H1778 0.984 . S
N1772 H1779 0.984 . S
N1773 C1766 1.356 . S
N1773 H1776 0.984 . S
N1773 H1777 0.985 . S
H1774 N1769 0.984 . S
H1775 N1769 0.985 . S
H1776 N1773 0.984 . S
H1777 N1773 0.985 . S
H1778 N1772 0.984 . S
H1779 N1772 0.984 . S
H1780 N1768 0.984 . S
H1781 N1768 0.985 . S
C1782 C1783 1.363 . S
C1782 C1788 1.379 . S
C1782 N1790 1.356 . S
C1783 C1782 1.363 . S
C1783 C1789 1.363 . S
C1784 C1785 1.363 . S
C1784 C1789 1.379 . S
C1784 N1791 1.356 . S
C1785 C1784 1.363 . S
C1785 C1788 1.363 . S
N1786 C1788 1.356 . S
N1786 H1798 0.984 . S
N1786 H1799 0.985 . S
N1787 C1789 1.356 . S
N1787 H1792 0.984 . S
N1787 H1793 0.985 . S
C1788 C1782 1.379 . S
C1788 C1785 1.363 . S
C1788 N1786 1.356 . S
C1789 C1783 1.363 . S
C1789 C1784 1.379 . S
C1789 N1787 1.356 . S
N1790 C1782 1.356 . S
N1790 H1796 0.984 . S
N1790 H1797 0.984 . S
N1791 C1784 1.356 . S
N1791 H1794 0.984 . S
N1791 H1795 0.985 . S
H1792 N1787 0.984 . S
H1793 N1787 0.985 . S
H1794 N1791 0.984 . S
H1795 N1791 0.985 . S
H1796 N1790 0.984 . S
H1797 N1790 0.984 . S
H1798 N1786 0.984 . S
H1799 N1786 0.985 . S
C1800 C1801 1.363 . S
C1800 C1806 1.379 . S
C1800 N1808 1.356 . S
C1801 C1800 1.363 . S
C1801 C1807 1.363 . S
C1802 C1803 1.363 . S
C1802 C1807 1.379 . S
C1802 N1809 1.356 . S
C1803 C1802 1.363 . S
C1803 C1806 1.363 . S
N1804 C1806 1.356 . S
N1804 H1816 0.984 . S
N1804 H1817 0.985 . S
N1805 C1807 1.356 . S
N1805 H1810 0.984 . S
N1805 H1811 0.985 . S
C1806 C1800 1.379 . S
C1806 C1803 1.363 . S
C1806 N1804 1.356 . S
C1807 C1801 1.363 . S
C1807 C1802 1.379 . S
C1807 N1805 1.356 . S
N1808 C1800 1.356 . S
N1808 H1814 0.984 . S
N1808 H1815 0.984 . S
N1809 C1802 1.356 . S
N1809 H1812 0.984 . S
N1809 H1813 0.985 . S
H1810 N1805 0.984 . S
H1811 N1805 0.985 . S
H1812 N1809 0.984 . S
H1813 N1809 0.985 . S
H1814 N1808 0.984 . S
H1815 N1808 0.984 . S
H1816 N1804 0.984 . S
H1817 N1804 0.985 . S
C1818 C1819 1.363 . S
C1818 C1824 1.379 . S
C1818 N1826 1.356 . S
C1819 C1818 1.363 . S
C1819 C1825 1.363 . S
C1820 C1821 1.363 . S
C1820 C1825 1.379 . S
C1820 N1827 1.356 . S
C1821 C1820 1.363 . S
C1821 C1824 1.363 . S
N1822 C1824 1.356 . S
N1822 H1834 0.984 . S
N1822 H1835 0.985 . S
N1823 C1825 1.356 . S
N1823 H1828 0.984 . S
N1823 H1829 0.985 . S
C1824 C1818 1.379 . S
C1824 C1821 1.363 . S
C1824 N1822 1.356 . S
C1825 C1819 1.363 . S
C1825 C1820 1.379 . S
C1825 N1823 1.356 . S
N1826 C1818 1.356 . S
N1826 H1832 0.984 . S
N1826 H1833 0.984 . S
N1827 C1820 1.356 . S
N1827 H1830 0.984 . S
N1827 H1831 0.985 . S
H1828 N1823 0.984 . S
H1829 N1823 0.985 . S
H1830 N1827 0.984 . S
H1831 N1827 0.985 . S
H1832 N1826 0.984 . S
H1833 N1826 0.984 . S
H1834 N1822 0.984 . S
H1835 N1822 0.985 . S
C1836 C1837 1.363 . S
C1836 C1842 1.379 . S
C1836 N1844 1.356 . S
C1837 C1836 1.363 . S
C1837 C1843 1.363 . S
C1838 C1839 1.363 . S
C1838 C1843 1.379 . S
C1838 N1845 1.356 . S
C1839 C1838 1.363 . S
C1839 C1842 1.363 . S
N1840 C1842 1.356 . S
N1840 H1852 0.984 . S
N1840 H1853 0.985 . S
N1841 C1843 1.356 . S
N1841 H1846 0.984 . S
N1841 H1847 0.985 . S
C1842 C1836 1.379 . S
C1842 C1839 1.363 . S
C1842 N1840 1.356 . S
C1843 C1837 1.363 . S
C1843 C1838 1.379 . S
C1843 N1841 1.356 . S
N1844 C1836 1.356 . S
N1844 H1850 0.984 . S
N1844 H1851 0.984 . S
N1845 C1838 1.356 . S
N1845 H1848 0.984 . S
N1845 H1849 0.985 . S
H1846 N1841 0.984 . S
H1847 N1841 0.985 . S
H1848 N1845 0.984 . S
H1849 N1845 0.985 . S
H1850 N1844 0.984 . S
H1851 N1844 0.984 . S
H1852 N1840 0.984 . S
H1853 N1840 0.985 . S
C1854 C1855 1.363 . S
C1854 C1860 1.379 . S
C1854 N1862 1.356 . S
C1855 C1854 1.363 . S
C1855 C1861 1.363 . S
C1856 C1857 1.363 . S
C1856 C1861 1.379 . S
C1856 N1863 1.356 . S
C1857 C1856 1.363 . S
C1857 C1860 1.363 . S
N1858 C1860 1.356 . S
N1858 H1870 0.984 . S
N1858 H1871 0.985 . S
N1859 C1861 1.356 . S
N1859 H1864 0.984 . S
N1859 H1865 0.985 . S
C1860 C1854 1.379 . S
C1860 C1857 1.363 . S
C1860 N1858 1.356 . S
C1861 C1855 1.363 . S
C1861 C1856 1.379 . S
C1861 N1859 1.356 . S
N1862 C1854 1.356 . S
N1862 H1868 0.984 . S
N1862 H1869 0.984 . S
N1863 C1856 1.356 . S
N1863 H1866 0.984 . S
N1863 H1867 0.985 . S
H1864 N1859 0.984 . S
H1865 N1859 0.985 . S
H1866 N1863 0.984 . S
H1867 N1863 0.985 . S
H1868 N1862 0.984 . S
H1869 N1862 0.984 . S
H1870 N1858 0.984 . S
H1871 N1858 0.985 . S
C1872 C1873 1.363 . S
C1872 C1878 1.379 . S
C1872 N1880 1.356 . S
C1873 C1872 1.363 . S
C1873 C1879 1.363 . S
C1874 C1875 1.363 . S
C1874 C1879 1.379 . S
C1874 N1881 1.356 . S
C1875 C1874 1.363 . S
C1875 C1878 1.363 . S
N1876 C1878 1.356 . S
N1876 H1888 0.984 . S
N1876 H1889 0.985 . S
N1877 C1879 1.356 . S
N1877 H1882 0.984 . S
N1877 H1883 0.985 . S
C1878 C1872 1.379 . S
C1878 C1875 1.363 . S
C1878 N1876 1.356 . S
C1879 C1873 1.363 . S
C1879 C1874 1.379 . S
C1879 N1877 1.356 . S
N1880 C1872 1.356 . S
N1880 H1886 0.984 . S
N1880 H1887 0.984 . S
N1881 C1874 1.356 . S
N1881 H1884 0.984 . S
N1881 H1885 0.985 . S
H1882 N1877 0.984 . S
H1883 N1877 0.985 . S
H1884 N1881 0.984 . S
H1885 N1881 0.985 . S
H1886 N1880 0.984 . S
H1887 N1880 0.984 . S
H1888 N1876 0.984 . S
H1889 N1876 0.985 . S
C1890 C1891 1.363 . S
C1890 C1896 1.379 . S
C1890 N1898 1.356 . S
C1891 C1890 1.363 . S
C1891 C1897 1.363 . S
C1892 C1893 1.363 . S
C1892 C1897 1.379 . S
C1892 N1899 1.356 . S
C1893 C1892 1.363 . S
C1893 C1896 1.363 . S
N1894 C1896 1.356 . S
N1894 H1906 0.984 . S
N1894 H1907 0.985 . S
N1895 C1897 1.356 . S
N1895 H1900 0.984 . S
N1895 H1901 0.985 . S
C1896 C1890 1.379 . S
C1896 C1893 1.363 . S
C1896 N1894 1.356 . S
C1897 C1891 1.363 . S
C1897 C1892 1.379 . S
C1897 N1895 1.356 . S
N1898 C1890 1.356 . S
N1898 H1904 0.984 . S
N1898 H1905 0.984 . S
N1899 C1892 1.356 . S
N1899 H1902 0.984 . S
N1899 H1903 0.985 . S
H1900 N1895 0.984 . S
H1901 N1895 0.985 . S
H1902 N1899 0.984 . S
H1903 N1899 0.985 . S
H1904 N1898 0.984 . S
H1905 N1898 0.984 . S
H1906 N1894 0.984 . S
H1907 N1894 0.985 . S
C1908 C1909 1.363 . S
C1908 C1914 1.379 . S
C1908 N1916 1.356 1_545 S
C1909 C1908 1.363 . S
C1909 C1915 1.363 . S
C1910 C1911 1.363 . S
C1910 C1915 1.379 . S
C1910 N1917 1.356 . S
C1911 C1910 1.363 . S
C1911 C1914 1.363 . S
N1912 C1914 1.356 . S
N1912 H1924 0.984 . S
N1912 H1925 0.985 . S
N1913 C1915 1.356 . S
N1913 H1918 0.984 . S
N1913 H1919 0.985 . S
C1914 C1908 1.379 . S
C1914 C1911 1.363 . S
C1914 N1912 1.356 . S
C1915 C1909 1.363 . S
C1915 C1910 1.379 . S
C1915 N1913 1.356 . S
N1916 C1908 1.356 1_565 S
N1916 H1922 0.984 . S
N1916 H1923 0.984 . S
N1917 C1910 1.356 . S
N1917 H1920 0.984 . S
N1917 H1921 0.985 . S
H1918 N1913 0.984 . S
H1919 N1913 0.985 . S
H1920 N1917 0.984 . S
H1921 N1917 0.985 . S
H1922 N1916 0.984 . S
H1923 N1916 0.984 . S
H1924 N1912 0.984 . S
H1925 N1912 0.985 . S
C1926 C1927 1.363 . S
C1926 C1932 1.379 . S
C1926 N1934 1.356 . S
C1927 C1926 1.363 . S
C1927 C1933 1.363 . S
C1928 C1929 1.363 . S
C1928 C1933 1.379 . S
C1928 N1935 1.356 . S
C1929 C1928 1.363 . S
C1929 C1932 1.363 . S
N1930 C1932 1.356 . S
N1930 H1942 0.984 1_655 S
N1930 H1943 0.985 1_655 S
N1931 C1933 1.356 . S
N1931 H1936 0.984 . S
N1931 H1937 0.985 . S
C1932 C1926 1.379 . S
C1932 C1929 1.363 . S
C1932 N1930 1.356 . S
C1933 C1927 1.363 . S
C1933 C1928 1.379 . S
C1933 N1931 1.356 . S
N1934 C1926 1.356 . S
N1934 H1940 0.984 . S
N1934 H1941 0.984 . S
N1935 C1928 1.356 . S
N1935 H1938 0.984 . S
N1935 H1939 0.985 . S
H1936 N1931 0.984 . S
H1937 N1931 0.985 . S
H1938 N1935 0.984 . S
H1939 N1935 0.985 . S
H1940 N1934 0.984 . S
H1941 N1934 0.984 . S
H1942 N1930 0.984 1_455 S
H1943 N1930 0.985 1_455 S
C1944 C1945 1.363 . S
C1944 C1950 1.379 . S
C1944 N1952 1.356 . S
C1945 C1944 1.363 . S
C1945 C1951 1.363 . S
C1946 C1947 1.363 . S
C1946 C1951 1.379 . S
C1946 N1953 1.356 . S
C1947 C1946 1.363 . S
C1947 C1950 1.363 . S
N1948 C1950 1.356 . S
N1948 H1960 0.984 . S
N1948 H1961 0.985 . S
N1949 C1951 1.356 . S
N1949 H1954 0.984 . S
N1949 H1955 0.985 . S
C1950 C1944 1.379 . S
C1950 C1947 1.363 . S
C1950 N1948 1.356 . S
C1951 C1945 1.363 . S
C1951 C1946 1.379 . S
C1951 N1949 1.356 . S
N1952 C1944 1.356 . S
N1952 H1958 0.984 . S
N1952 H1959 0.984 . S
N1953 C1946 1.356 . S
N1953 H1956 0.984 . S
N1953 H1957 0.985 . S
H1954 N1949 0.984 . S
H1955 N1949 0.985 . S
H1956 N1953 0.984 . S
H1957 N1953 0.985 . S
H1958 N1952 0.984 . S
H1959 N1952 0.984 . S
H1960 N1948 0.984 . S
H1961 N1948 0.985 . S
C1962 C1963 1.363 . S
C1962 C1968 1.379 . S
C1962 N1970 1.356 . S
C1963 C1962 1.363 . S
C1963 C1969 1.363 . S
C1964 C1965 1.363 . S
C1964 C1969 1.379 . S
C1964 N1971 1.356 . S
C1965 C1964 1.363 . S
C1965 C1968 1.363 . S
N1966 C1968 1.356 1_565 S
N1966 H1978 0.984 . S
N1966 H1979 0.985 . S
N1967 C1969 1.356 . S
N1967 H1972 0.984 . S
N1967 H1973 0.985 . S
C1968 C1962 1.379 . S
C1968 C1965 1.363 . S
C1968 N1966 1.356 1_545 S
C1969 C1963 1.363 . S
C1969 C1964 1.379 . S
C1969 N1967 1.356 . S
N1970 C1962 1.356 . S
N1970 H1976 0.984 . S
N1970 H1977 0.984 . S
N1971 C1964 1.356 . S
N1971 H1974 0.984 . S
N1971 H1975 0.985 . S
H1972 N1967 0.984 . S
H1973 N1967 0.985 . S
H1974 N1971 0.984 . S
H1975 N1971 0.985 . S
H1976 N1970 0.984 . S
H1977 N1970 0.984 . S
H1978 N1966 0.984 . S
H1979 N1966 0.985 . S
C1980 C1981 1.363 . S
C1980 C1986 1.379 . S
C1980 N1988 1.356 . S
C1981 C1980 1.363 . S
C1981 C1987 1.363 . S
C1982 C1983 1.363 . S
C1982 C1987 1.379 . S
C1982 N1989 1.356 . S
C1983 C1982 1.363 . S
C1983 C1986 1.363 . S
N1984 C1986 1.356 1_455 S
N1984 H1996 0.984 . S
N1984 H1997 0.985 . S
N1985 C1987 1.356 . S
N1985 H1990 0.984 . S
N1985 H1991 0.985 . S
C1986 C1980 1.379 . S
C1986 C1983 1.363 . S
C1986 N1984 1.356 1_655 S
C1987 C1981 1.363 . S
C1987 C1982 1.379 . S
C1987 N1985 1.356 . S
N1988 C1980 1.356 . S
N1988 H1994 0.984 . S
N1988 H1995 0.984 . S
N1989 C1982 1.356 . S
N1989 H1992 0.984 . S
N1989 H1993 0.985 . S
H1990 N1985 0.984 . S
H1991 N1985 0.985 . S
H1992 N1989 0.984 . S
H1993 N1989 0.985 . S
H1994 N1988 0.984 . S
H1995 N1988 0.984 . S
H1996 N1984 0.984 . S
H1997 N1984 0.985 . S
C1998 C1999 1.363 . S
C1998 C2004 1.379 . S
C1998 N2006 1.356 . S
C1999 C1998 1.363 . S
C1999 C2005 1.363 . S
C2000 C2001 1.363 . S
C2000 C2005 1.379 . S
C2000 N2007 1.356 . S
C2001 C2000 1.363 . S
C2001 C2004 1.363 . S
N2002 C2004 1.356 . S
N2002 H2014 0.984 . S
N2002 H2015 0.985 . S
N2003 C2005 1.356 . S
N2003 H2008 0.984 . S
N2003 H2009 0.985 . S
C2004 C1998 1.379 . S
C2004 C2001 1.363 . S
C2004 N2002 1.356 . S
C2005 C1999 1.363 . S
C2005 C2000 1.379 . S
C2005 N2003 1.356 . S
N2006 C1998 1.356 . S
N2006 H2012 0.984 . S
N2006 H2013 0.984 . S
N2007 C2000 1.356 . S
N2007 H2010 0.984 . S
N2007 H2011 0.985 . S
H2008 N2003 0.984 . S
H2009 N2003 0.985 . S
H2010 N2007 0.984 . S
H2011 N2007 0.985 . S
H2012 N2006 0.984 . S
H2013 N2006 0.984 . S
H2014 N2002 0.984 . S
H2015 N2002 0.985 . S
C2016 C2017 1.363 . S
C2016 C2022 1.379 . S
C2016 N2024 1.356 . S
C2017 C2016 1.363 . S
C2017 C2023 1.363 . S
C2018 C2019 1.363 . S
C2018 C2023 1.379 . S
C2018 N2025 1.356 . S
C2019 C2018 1.363 . S
C2019 C2022 1.363 . S
N2020 C2022 1.356 . S
N2020 H2032 0.984 . S
N2020 H2033 0.985 . S
N2021 C2023 1.356 . S
N2021 H2026 0.984 . S
N2021 H2027 0.985 . S
C2022 C2016 1.379 . S
C2022 C2019 1.363 . S
C2022 N2020 1.356 . S
C2023 C2017 1.363 . S
C2023 C2018 1.379 . S
C2023 N2021 1.356 . S
N2024 C2016 1.356 . S
N2024 H2030 0.984 . S
N2024 H2031 0.984 . S
N2025 C2018 1.356 . S
N2025 H2028 0.984 . S
N2025 H2029 0.985 . S
H2026 N2021 0.984 . S
H2027 N2021 0.985 . S
H2028 N2025 0.984 . S
H2029 N2025 0.985 . S
H2030 N2024 0.984 . S
H2031 N2024 0.984 . S
H2032 N2020 0.984 . S
H2033 N2020 0.985 . S
C2034 C2035 1.363 . S
C2034 C2040 1.379 . S
C2034 N2042 1.356 . S
C2035 C2034 1.363 . S
C2035 C2041 1.363 . S
C2036 C2037 1.363 . S
C2036 C2041 1.379 . S
C2036 N2043 1.356 1_455 S
C2037 C2036 1.363 . S
C2037 C2040 1.363 . S
N2038 C2040 1.356 . S
N2038 H2050 0.984 . S
N2038 H2051 0.985 . S
N2039 C2041 1.356 . S
N2039 H2044 0.984 . S
N2039 H2045 0.985 . S
C2040 C2034 1.379 . S
C2040 C2037 1.363 . S
C2040 N2038 1.356 . S
C2041 C2035 1.363 . S
C2041 C2036 1.379 . S
C2041 N2039 1.356 . S
N2042 C2034 1.356 . S
N2042 H2048 0.984 . S
N2042 H2049 0.984 . S
N2043 C2036 1.356 1_655 S
N2043 H2046 0.984 . S
N2043 H2047 0.985 . S
H2044 N2039 0.984 . S
H2045 N2039 0.985 . S
H2046 N2043 0.984 . S
H2047 N2043 0.985 . S
H2048 N2042 0.984 . S
H2049 N2042 0.984 . S
H2050 N2038 0.984 . S
H2051 N2038 0.985 . S
C2052 C2053 1.363 . S
C2052 C2058 1.379 . S
C2052 N2060 1.356 . S
C2053 C2052 1.363 . S
C2053 C2059 1.363 . S
C2054 C2055 1.363 . S
C2054 C2059 1.379 . S
C2054 N2061 1.356 . S
C2055 C2054 1.363 . S
C2055 C2058 1.363 . S
N2056 C2058 1.356 . S
N2056 H2068 0.984 . S
N2056 H2069 0.985 . S
N2057 C2059 1.356 . S
N2057 H2062 0.984 . S
N2057 H2063 0.985 . S
C2058 C2052 1.379 . S
C2058 C2055 1.363 . S
C2058 N2056 1.356 . S
C2059 C2053 1.363 . S
C2059 C2054 1.379 . S
C2059 N2057 1.356 . S
N2060 C2052 1.356 . S
N2060 H2066 0.984 . S
N2060 H2067 0.984 . S
N2061 C2054 1.356 . S
N2061 H2064 0.984 1_655 S
N2061 H2065 0.985 . S
H2062 N2057 0.984 . S
H2063 N2057 0.985 . S
H2064 N2061 0.984 1_455 S
H2065 N2061 0.985 . S
H2066 N2060 0.984 . S
H2067 N2060 0.984 . S
H2068 N2056 0.984 . S
H2069 N2056 0.985 . S
C2070 C2071 1.363 . S
C2070 C2076 1.379 . S
C2070 N2078 1.356 . S
C2071 C2070 1.363 . S
C2071 C2077 1.363 . S
C2072 C2073 1.363 . S
C2072 C2077 1.379 . S
C2072 N2079 1.356 . S
C2073 C2072 1.363 . S
C2073 C2076 1.363 . S
N2074 C2076 1.356 . S
N2074 H2086 0.984 . S
N2074 H2087 0.985 . S
N2075 C2077 1.356 . S
N2075 H2080 0.984 . S
N2075 H2081 0.985 . S
C2076 C2070 1.379 . S
C2076 C2073 1.363 . S
C2076 N2074 1.356 . S
C2077 C2071 1.363 . S
C2077 C2072 1.379 . S
C2077 N2075 1.356 . S
N2078 C2070 1.356 . S
N2078 H2084 0.984 . S
N2078 H2085 0.984 . S
N2079 C2072 1.356 . S
N2079 H2082 0.984 . S
N2079 H2083 0.985 . S
H2080 N2075 0.984 . S
H2081 N2075 0.985 . S
H2082 N2079 0.984 . S
H2083 N2079 0.985 . S
H2084 N2078 0.984 . S
H2085 N2078 0.984 . S
H2086 N2074 0.984 . S
H2087 N2074 0.985 . S
C2088 C2089 1.363 . S
C2088 C2094 1.379 . S
C2088 N2096 1.356 . S
C2089 C2088 1.363 . S
C2089 C2095 1.363 . S
C2090 C2091 1.363 . S
C2090 C2095 1.379 . S
C2090 N2097 1.356 . S
C2091 C2090 1.363 . S
C2091 C2094 1.363 . S
N2092 C2094 1.356 . S
N2092 H2104 0.984 . S
N2092 H2105 0.985 . S
N2093 C2095 1.356 1_565 S
N2093 H2098 0.984 . S
N2093 H2099 0.985 . S
C2094 C2088 1.379 . S
C2094 C2091 1.363 . S
C2094 N2092 1.356 . S
C2095 C2089 1.363 . S
C2095 C2090 1.379 . S
C2095 N2093 1.356 1_545 S
N2096 C2088 1.356 . S
N2096 H2102 0.984 . S
N2096 H2103 0.984 . S
N2097 C2090 1.356 . S
N2097 H2100 0.984 . S
N2097 H2101 0.985 . S
H2098 N2093 0.984 . S
H2099 N2093 0.985 . S
H2100 N2097 0.984 . S
H2101 N2097 0.985 . S
H2102 N2096 0.984 . S
H2103 N2096 0.984 . S
H2104 N2092 0.984 . S
H2105 N2092 0.985 . S
C2106 C2107 1.363 1_655 S
C2106 C2112 1.379 . S
C2106 N2114 1.356 . S
C2107 C2106 1.363 1_455 S
C2107 C2113 1.363 . S
C2108 C2109 1.363 . S
C2108 C2113 1.379 . S
C2108 N2115 1.356 . S
C2109 C2108 1.363 . S
C2109 C2112 1.363 1_455 S
N2110 C2112 1.356 . S
N2110 H2122 0.984 . S
N2110 H2123 0.985 . S
N2111 C2113 1.356 . S
N2111 H2116 0.984 . S
N2111 H2117 0.985 . S
C2112 C2106 1.379 . S
C2112 C2109 1.363 1_655 S
C2112 N2110 1.356 . S
C2113 C2107 1.363 . S
C2113 C2108 1.379 . S
C2113 N2111 1.356 . S
N2114 C2106 1.356 . S
N2114 H2120 0.984 . S
N2114 H2121 0.984 . S
N2115 C2108 1.356 . S
N2115 H2118 0.984 . S
N2115 H2119 0.985 . S
H2116 N2111 0.984 . S
H2117 N2111 0.985 . S
H2118 N2115 0.984 . S
H2119 N2115 0.985 . S
H2120 N2114 0.984 . S
H2121 N2114 0.984 . S
H2122 N2110 0.984 . S
H2123 N2110 0.985 . S
C2124 C2125 1.363 . S
C2124 C2130 1.379 . S
C2124 N2132 1.356 . S
C2125 C2124 1.363 . S
C2125 C2131 1.363 . S
C2126 C2127 1.363 . S
C2126 C2131 1.379 . S
C2126 N2133 1.356 . S
C2127 C2126 1.363 . S
C2127 C2130 1.363 . S
N2128 C2130 1.356 . S
N2128 H2140 0.984 . S
N2128 H2141 0.985 . S
N2129 C2131 1.356 . S
N2129 H2134 0.984 . S
N2129 H2135 0.985 . S
C2130 C2124 1.379 . S
C2130 C2127 1.363 . S
C2130 N2128 1.356 . S
C2131 C2125 1.363 . S
C2131 C2126 1.379 . S
C2131 N2129 1.356 . S
N2132 C2124 1.356 . S
N2132 H2138 0.984 . S
N2132 H2139 0.984 . S
N2133 C2126 1.356 . S
N2133 H2136 0.984 . S
N2133 H2137 0.985 . S
H2134 N2129 0.984 . S
H2135 N2129 0.985 . S
H2136 N2133 0.984 . S
H2137 N2133 0.985 . S
H2138 N2132 0.984 . S
H2139 N2132 0.984 . S
H2140 N2128 0.984 . S
H2141 N2128 0.985 . S
C2142 C2143 1.363 . S
C2142 C2148 1.379 . S
C2142 N2150 1.356 . S
C2143 C2142 1.363 . S
C2143 C2149 1.363 1_565 S
C2144 C2145 1.363 1_545 S
C2144 C2149 1.379 . S
C2144 N2151 1.356 . S
C2145 C2144 1.363 1_565 S
C2145 C2148 1.363 . S
N2146 C2148 1.356 . S
N2146 H2158 0.984 . S
N2146 H2159 0.985 . S
N2147 C2149 1.356 . S
N2147 H2152 0.984 . S
N2147 H2153 0.985 . S
C2148 C2142 1.379 . S
C2148 C2145 1.363 . S
C2148 N2146 1.356 . S
C2149 C2143 1.363 1_545 S
C2149 C2144 1.379 . S
C2149 N2147 1.356 . S
N2150 C2142 1.356 . S
N2150 H2156 0.984 . S
N2150 H2157 0.984 . S
N2151 C2144 1.356 . S
N2151 H2154 0.984 . S
N2151 H2155 0.985 . S
H2152 N2147 0.984 . S
H2153 N2147 0.985 . S
H2154 N2151 0.984 . S
H2155 N2151 0.985 . S
H2156 N2150 0.984 . S
H2157 N2150 0.984 . S
H2158 N2146 0.984 . S
H2159 N2146 0.985 . S
C2160 C2161 1.363 . S
C2160 C2166 1.379 . S
C2160 N2168 1.356 . S
C2161 C2160 1.363 . S
C2161 C2167 1.363 1_565 S
C2162 C2163 1.363 1_545 S
C2162 C2167 1.379 . S
C2162 N2169 1.356 . S
C2163 C2162 1.363 1_565 S
C2163 C2166 1.363 . S
N2164 C2166 1.356 . S
N2164 H2176 0.984 . S
N2164 H2177 0.985 . S
N2165 C2167 1.356 . S
N2165 H2170 0.984 . S
N2165 H2171 0.985 . S
C2166 C2160 1.379 . S
C2166 C2163 1.363 . S
C2166 N2164 1.356 . S
C2167 C2161 1.363 1_545 S
C2167 C2162 1.379 . S
C2167 N2165 1.356 . S
N2168 C2160 1.356 . S
N2168 H2174 0.984 . S
N2168 H2175 0.984 . S
N2169 C2162 1.356 . S
N2169 H2172 0.984 . S
N2169 H2173 0.985 . S
H2170 N2165 0.984 . S
H2171 N2165 0.985 . S
H2172 N2169 0.984 . S
H2173 N2169 0.985 . S
H2174 N2168 0.984 . S
H2175 N2168 0.984 . S
H2176 N2164 0.984 . S
H2177 N2164 0.985 . S
C2178 C2179 1.363 . S
C2178 C2184 1.379 . S
C2178 N2186 1.356 . S
C2179 C2178 1.363 . S
C2179 C2185 1.363 1_455 S
C2180 C2181 1.363 1_655 S
C2180 C2185 1.379 . S
C2180 N2187 1.356 . S
C2181 C2180 1.363 1_455 S
C2181 C2184 1.363 . S
N2182 C2184 1.356 . S
N2182 H2194 0.984 . S
N2182 H2195 0.985 . S
N2183 C2185 1.356 . S
N2183 H2188 0.984 . S
N2183 H2189 0.985 . S
C2184 C2178 1.379 . S
C2184 C2181 1.363 . S
C2184 N2182 1.356 . S
C2185 C2179 1.363 1_655 S
C2185 C2180 1.379 . S
C2185 N2183 1.356 . S
N2186 C2178 1.356 . S
N2186 H2192 0.984 . S
N2186 H2193 0.984 . S
N2187 C2180 1.356 . S
N2187 H2190 0.984 . S
N2187 H2191 0.985 . S
H2188 N2183 0.984 . S
H2189 N2183 0.985 . S
H2190 N2187 0.984 . S
H2191 N2187 0.985 . S
H2192 N2186 0.984 . S
H2193 N2186 0.984 . S
H2194 N2182 0.984 . S
H2195 N2182 0.985 . S
C2196 C2197 1.363 . S
C2196 C2202 1.379 . S
C2196 N2204 1.356 . S
C2197 C2196 1.363 . S
C2197 C2203 1.363 . S
C2198 C2199 1.363 . S
C2198 C2203 1.379 . S
C2198 N2205 1.356 . S
C2199 C2198 1.363 . S
C2199 C2202 1.363 . S
N2200 C2202 1.356 . S
N2200 H2212 0.984 . S
N2200 H2213 0.985 . S
N2201 C2203 1.356 . S
N2201 H2206 0.984 . S
N2201 H2207 0.985 . S
C2202 C2196 1.379 . S
C2202 C2199 1.363 . S
C2202 N2200 1.356 . S
C2203 C2197 1.363 . S
C2203 C2198 1.379 . S
C2203 N2201 1.356 . S
N2204 C2196 1.356 . S
N2204 H2210 0.984 . S
N2204 H2211 0.984 . S
N2205 C2198 1.356 . S
N2205 H2208 0.984 . S
N2205 H2209 0.985 . S
H2206 N2201 0.984 . S
H2207 N2201 0.985 . S
H2208 N2205 0.984 . S
H2209 N2205 0.985 . S
H2210 N2204 0.984 . S
H2211 N2204 0.984 . S
H2212 N2200 0.984 . S
H2213 N2200 0.985 . S
C2214 C2215 1.363 . S
C2214 C2220 1.379 . S
C2214 N2222 1.356 . S
C2215 C2214 1.363 . S
C2215 C2221 1.363 1_556 S
C2216 C2217 1.363 . S
C2216 C2221 1.379 . S
C2216 N2223 1.356 . S
C2217 C2216 1.363 . S
C2217 C2220 1.363 1_554 S
N2218 C2220 1.356 . S
N2218 H2230 0.984 . S
N2218 H2231 0.985 1_556 S
N2219 C2221 1.356 1_565 S
N2219 H2224 0.984 1_554 S
N2219 H2225 0.985 . S
C2220 C2214 1.379 . S
C2220 C2217 1.363 1_556 S
C2220 N2218 1.356 . S
C2221 C2215 1.363 1_554 S
C2221 C2216 1.379 . S
C2221 N2219 1.356 1_545 S
N2222 C2214 1.356 . S
N2222 H2228 0.984 . S
N2222 H2229 0.984 . S
N2223 C2216 1.356 . S
N2223 H2226 0.984 . S
N2223 H2227 0.985 . S
H2224 N2219 0.984 1_556 S
H2225 N2219 0.985 . S
H2226 N2223 0.984 . S
H2227 N2223 0.985 . S
H2228 N2222 0.984 . S
H2229 N2222 0.984 . S
H2230 N2218 0.984 . S
H2231 N2218 0.985 1_554 S
C2232 C2233 1.348 1_556 S
C2232 C2238 1.393 . S
C2232 N2240 1.352 1_556 S
C2233 C2232 1.348 1_554 S
C2233 C2239 1.363 . S
C2234 C2235 1.343 1_554 S
C2234 C2239 1.398 . S
C2234 N2241 1.351 1_654 S
C2235 C2234 1.343 1_556 S
C2235 C2238 1.363 . S
N2236 C2238 1.356 . S
N2236 H2248 0.984 . S
N2236 H2249 0.985 . S
N2237 C2239 1.356 . S
N2237 H2242 0.984 . S
N2237 H2243 0.985 . S
C2238 C2232 1.393 . S
C2238 C2235 1.363 . S
C2238 N2236 1.356 . S
C2239 C2233 1.363 . S
C2239 C2234 1.398 . S
C2239 N2237 1.356 . S
N2240 C2232 1.352 1_554 S
N2240 H2246 0.984 1_554 S
N2240 H2247 0.984 . S
N2241 C2234 1.351 1_456 S
N2241 H2244 0.984 . S
N2241 H2245 0.985 1_556 S
H2242 N2237 0.984 . S
H2243 N2237 0.985 . S
H2244 N2241 0.984 . S
H2245 N2241 0.985 1_554 S
H2246 N2240 0.984 1_556 S
H2247 N2240 0.984 . S
H2248 N2236 0.984 . S
H2249 N2236 0.985 . S
C2250 C2251 1.363 1_556 S
C2250 C2256 1.379 . S
C2250 N2258 1.356 . S
C2251 C2250 1.363 1_554 S
C2251 C2257 1.363 . S
C2252 C2253 1.363 1_554 S
C2252 C2257 1.379 . S
C2252 N2259 1.356 . S
C2253 C2252 1.363 1_556 S
C2253 C2256 1.363 . S
N2254 C2256 1.356 . S
N2254 H2266 0.984 . S
N2254 H2267 0.985 . S
N2255 C2257 1.356 . S
N2255 H2260 0.984 . S
N2255 H2261 0.985 . S
C2256 C2250 1.379 . S
C2256 C2253 1.363 . S
C2256 N2254 1.356 . S
C2257 C2251 1.363 . S
C2257 C2252 1.379 . S
C2257 N2255 1.356 . S
N2258 C2250 1.356 . S
N2258 H2264 0.984 . S
N2258 H2265 0.984 1_556 S
N2259 C2252 1.356 . S
N2259 H2262 0.984 1_554 S
N2259 H2263 0.985 . S
H2260 N2255 0.984 . S
H2261 N2255 0.985 . S
H2262 N2259 0.984 1_556 S
H2263 N2259 0.985 . S
H2264 N2258 0.984 . S
H2265 N2258 0.984 1_554 S
H2266 N2254 0.984 . S
H2267 N2254 0.985 . S
C2268 C2269 1.363 1_565 S
C2268 C2274 1.379 . S
C2268 N2276 1.356 . S
C2269 C2268 1.363 1_545 S
C2269 C2275 1.363 . S
C2270 C2271 1.363 . S
C2270 C2275 1.379 . S
C2270 N2277 1.356 . S
C2271 C2270 1.363 . S
C2271 C2274 1.363 1_545 S
N2272 C2274 1.356 . S
N2272 H2284 0.984 . S
N2272 H2285 0.985 . S
N2273 C2275 1.356 . S
N2273 H2278 0.984 . S
N2273 H2279 0.985 . S
C2274 C2268 1.379 . S
C2274 C2271 1.363 1_565 S
C2274 N2272 1.356 . S
C2275 C2269 1.363 . S
C2275 C2270 1.379 . S
C2275 N2273 1.356 . S
N2276 C2268 1.356 . S
N2276 H2282 0.984 . S
N2276 H2283 0.984 . S
N2277 C2270 1.356 . S
N2277 H2280 0.984 . S
N2277 H2281 0.985 . S
H2278 N2273 0.984 . S
H2279 N2273 0.985 . S
H2280 N2277 0.984 . S
H2281 N2277 0.985 . S
H2282 N2276 0.984 . S
H2283 N2276 0.984 . S
H2284 N2272 0.984 . S
H2285 N2272 0.985 . S
C2286 C2287 1.363 . S
C2286 C2292 1.379 . S
C2286 N2294 1.356 . S
C2287 C2286 1.363 . S
C2287 C2293 1.363 1_655 S
C2288 C2289 1.363 1_455 S
C2288 C2293 1.379 . S
C2288 N2295 1.356 . S
C2289 C2288 1.363 1_655 S
C2289 C2292 1.363 . S
N2290 C2292 1.356 . S
N2290 H2302 0.984 . S
N2290 H2303 0.985 . S
N2291 C2293 1.356 . S
N2291 H2296 0.984 . S
N2291 H2297 0.985 . S
C2292 C2286 1.379 . S
C2292 C2289 1.363 . S
C2292 N2290 1.356 . S
C2293 C2287 1.363 1_455 S
C2293 C2288 1.379 . S
C2293 N2291 1.356 . S
N2294 C2286 1.356 . S
N2294 H2300 0.984 . S
N2294 H2301 0.984 . S
N2295 C2288 1.356 . S
N2295 H2298 0.984 . S
N2295 H2299 0.985 . S
H2296 N2291 0.984 . S
H2297 N2291 0.985 . S
H2298 N2295 0.984 . S
H2299 N2295 0.985 . S
H2300 N2294 0.984 . S
H2301 N2294 0.984 . S
H2302 N2290 0.984 . S
H2303 N2290 0.985 . S
C2304 C2305 1.363 . S
C2304 C2310 1.379 . S
C2304 N2312 1.356 . S
C2305 C2304 1.363 . S
C2305 C2311 1.363 . S
C2306 C2307 1.363 . S
C2306 C2311 1.379 . S
C2306 N2313 1.356 . S
C2307 C2306 1.363 . S
C2307 C2310 1.363 . S
N2308 C2310 1.356 . S
N2308 H2320 0.984 . S
N2308 H2321 0.985 . S
N2309 C2311 1.356 . S
N2309 H2314 0.984 . S
N2309 H2315 0.985 . S
C2310 C2304 1.379 . S
C2310 C2307 1.363 . S
C2310 N2308 1.356 . S
C2311 C2305 1.363 . S
C2311 C2306 1.379 . S
C2311 N2309 1.356 . S
N2312 C2304 1.356 . S
N2312 H2318 0.984 . S
N2312 H2319 0.984 . S
N2313 C2306 1.356 . S
N2313 H2316 0.984 . S
N2313 H2317 0.985 . S
H2314 N2309 0.984 . S
H2315 N2309 0.985 . S
H2316 N2313 0.984 . S
H2317 N2313 0.985 . S
H2318 N2312 0.984 . S
H2319 N2312 0.984 . S
H2320 N2308 0.984 . S
H2321 N2308 0.985 . S
C2322 C2323 1.363 1_554 S
C2322 C2328 1.379 . S
C2322 N2330 1.356 . S
C2323 C2322 1.363 1_556 S
C2323 C2329 1.363 . S
C2324 C2325 1.363 1_556 S
C2324 C2329 1.379 . S
C2324 N2331 1.356 1_565 S
C2325 C2324 1.363 1_554 S
C2325 C2328 1.363 . S
N2326 C2328 1.356 . S
N2326 H2338 0.984 . S
N2326 H2339 0.985 . S
N2327 C2329 1.356 . S
N2327 H2332 0.984 . S
N2327 H2333 0.985 . S
C2328 C2322 1.379 . S
C2328 C2325 1.363 . S
C2328 N2326 1.356 . S
C2329 C2323 1.363 . S
C2329 C2324 1.379 . S
C2329 N2327 1.356 . S
N2330 C2322 1.356 . S
N2330 H2336 0.984 . S
N2330 H2337 0.931 1_554 S
N2331 C2324 1.356 1_545 S
N2331 H2334 0.939 1_556 S
N2331 H2335 0.985 . S
H2332 N2327 0.984 . S
H2333 N2327 0.985 . S
H2334 N2331 0.939 1_554 S
H2335 N2331 0.985 . S
H2336 N2330 0.984 . S
H2337 N2330 0.931 1_556 S
H2338 N2326 0.984 . S
H2339 N2326 0.985 . S
C2340 C2341 1.363 . S
C2340 C2346 1.366 1_554 S
C2340 N2348 1.356 . S
C2341 C2340 1.363 . S
C2341 C2347 1.371 . S
C2342 C2343 1.363 . S
C2342 C2347 1.371 1_556 S
C2342 N2349 1.356 . S
C2343 C2342 1.363 . S
C2343 C2346 1.376 . S
N2344 C2346 1.361 . S
N2344 H2356 0.951 1_556 S
N2344 H2357 0.985 . S
N2345 C2347 1.359 . S
N2345 H2350 0.984 . S
N2345 H2351 0.948 1_554 S
C2346 C2340 1.366 1_556 S
C2346 C2343 1.376 . S
C2346 N2344 1.361 . S
C2347 C2341 1.371 . S
C2347 C2342 1.371 1_554 S
C2347 N2345 1.359 . S
N2348 C2340 1.356 . S
N2348 H2354 0.984 . S
N2348 H2355 0.984 1_455 S
N2349 C2342 1.356 . S
N2349 H2352 0.984 . S
N2349 H2353 0.985 . S
H2350 N2345 0.984 . S
H2351 N2345 0.948 1_556 S
H2352 N2349 0.984 . S
H2353 N2349 0.985 . S
H2354 N2348 0.984 . S
H2355 N2348 0.984 1_655 S
H2356 N2344 0.951 1_554 S
H2357 N2344 0.985 . S
C2358 C2359 1.363 1_554 S
C2358 C2364 1.379 . S
C2358 N2366 1.356 1_554 S
C2359 C2358 1.363 1_556 S
C2359 C2365 1.363 . S
C2360 C2361 1.363 1_556 S
C2360 C2365 1.379 . S
C2360 N2367 1.357 1_556 S
C2361 C2360 1.363 1_554 S
C2361 C2364 1.363 . S
N2362 C2364 1.356 . S
N2362 H2374 0.984 . S
N2362 H2375 0.985 . S
N2363 C2365 1.356 . S
N2363 H2368 0.984 . S
N2363 H2369 0.985 . S
C2364 C2358 1.379 . S
C2364 C2361 1.363 . S
C2364 N2362 1.356 . S
C2365 C2359 1.363 . S
C2365 C2360 1.379 . S
C2365 N2363 1.356 . S
N2366 C2358 1.356 1_556 S
N2366 H2372 0.981 1_556 S
N2366 H2373 0.989 . S
N2367 C2360 1.357 1_554 S
N2367 H2370 0.983 . S
N2367 H2371 0.986 1_554 S
H2368 N2363 0.984 . S
H2369 N2363 0.985 . S
H2370 N2367 0.983 . S
H2371 N2367 0.986 1_556 S
H2372 N2366 0.981 1_554 S
H2373 N2366 0.989 . S
H2374 N2362 0.984 . S
H2375 N2362 0.985 . S
C2376 C2377 1.363 . S
C2376 C2382 1.379 . S
C2376 N2384 1.356 . S
C2377 C2376 1.363 . S
C2377 C2383 1.363 . S
C2378 C2379 1.363 . S
C2378 C2383 1.379 . S
C2378 N2385 1.356 . S
C2379 C2378 1.363 . S
C2379 C2382 1.363 . S
N2380 C2382 1.356 . S
N2380 H2392 0.984 . S
N2380 H2393 0.985 . S
N2381 C2383 1.356 . S
N2381 H2386 0.984 . S
N2381 H2387 0.985 . S
C2382 C2376 1.379 . S
C2382 C2379 1.363 . S
C2382 N2380 1.356 . S
C2383 C2377 1.363 . S
C2383 C2378 1.379 . S
C2383 N2381 1.356 . S
N2384 C2376 1.356 . S
N2384 H2390 0.984 . S
N2384 H2391 0.984 1_455 S
N2385 C2378 1.356 . S
N2385 H2388 0.984 . S
N2385 H2389 0.985 . S
H2386 N2381 0.984 . S
H2387 N2381 0.985 . S
H2388 N2385 0.984 . S
H2389 N2385 0.985 . S
H2390 N2384 0.984 . S
H2391 N2384 0.984 1_655 S
H2392 N2380 0.984 . S
H2393 N2380 0.985 . S
C2394 C2395 1.363 . S
C2394 C2400 1.379 . S
C2394 N2402 1.356 . S
C2395 C2394 1.363 . S
C2395 C2401 1.363 . S
C2396 C2397 1.363 . S
C2396 C2401 1.379 . S
C2396 N2403 1.356 . S
C2397 C2396 1.363 . S
C2397 C2400 1.363 . S
N2398 C2400 1.356 . S
N2398 H2410 0.984 . S
N2398 H2411 0.985 . S
N2399 C2401 1.356 . S
N2399 H2404 0.984 . S
N2399 H2405 0.985 . S
C2400 C2394 1.379 . S
C2400 C2397 1.363 . S
C2400 N2398 1.356 . S
C2401 C2395 1.363 . S
C2401 C2396 1.379 . S
C2401 N2399 1.356 . S
N2402 C2394 1.356 . S
N2402 H2408 0.984 . S
N2402 H2409 0.984 . S
N2403 C2396 1.356 . S
N2403 H2406 0.984 . S
N2403 H2407 0.985 . S
H2404 N2399 0.984 . S
H2405 N2399 0.985 . S
H2406 N2403 0.984 . S
H2407 N2403 0.985 . S
H2408 N2402 0.984 . S
H2409 N2402 0.984 . S
H2410 N2398 0.984 . S
H2411 N2398 0.985 . S
C2412 C2413 1.363 . S
C2412 C2418 1.379 . S
C2412 N2420 1.356 . S
C2413 C2412 1.363 . S
C2413 C2419 1.363 . S
C2414 C2415 1.363 . S
C2414 C2419 1.379 . S
C2414 N2421 1.356 1_565 S
C2415 C2414 1.363 . S
C2415 C2418 1.363 . S
N2416 C2418 1.356 . S
N2416 H2428 0.984 . S
N2416 H2429 0.985 . S
N2417 C2419 1.356 . S
N2417 H2422 0.984 . S
N2417 H2423 0.985 . S
C2418 C2412 1.379 . S
C2418 C2415 1.363 . S
C2418 N2416 1.356 . S
C2419 C2413 1.363 . S
C2419 C2414 1.379 . S
C2419 N2417 1.356 . S
N2420 C2412 1.356 . S
N2420 H2426 0.984 . S
N2420 H2427 0.984 . S
N2421 C2414 1.356 1_545 S
N2421 H2424 0.984 . S
N2421 H2425 0.985 . S
H2422 N2417 0.984 . S
H2423 N2417 0.985 . S
H2424 N2421 0.984 . S
H2425 N2421 0.985 . S
H2426 N2420 0.984 . S
H2427 N2420 0.984 . S
H2428 N2416 0.984 . S
H2429 N2416 0.985 . S
C2430 C2431 1.363 1_455 S
C2430 C2436 1.379 . S
C2430 N2438 1.356 . S
C2431 C2430 1.363 1_655 S
C2431 C2437 1.363 . S
C2432 C2433 1.363 . S
C2432 C2437 1.379 . S
C2432 N2439 1.356 . S
C2433 C2432 1.363 . S
C2433 C2436 1.363 1_655 S
N2434 C2436 1.356 . S
N2434 H2446 0.984 . S
N2434 H2447 0.985 . S
N2435 C2437 1.356 . S
N2435 H2440 0.984 . S
N2435 H2441 0.985 . S
C2436 C2430 1.379 . S
C2436 C2433 1.363 1_455 S
C2436 N2434 1.356 . S
C2437 C2431 1.363 . S
C2437 C2432 1.379 . S
C2437 N2435 1.356 . S
N2438 C2430 1.356 . S
N2438 H2444 0.984 . S
N2438 H2445 0.984 . S
N2439 C2432 1.356 . S
N2439 H2442 0.984 . S
N2439 H2443 0.985 . S
H2440 N2435 0.984 . S
H2441 N2435 0.985 . S
H2442 N2439 0.984 . S
H2443 N2439 0.985 . S
H2444 N2438 0.984 . S
H2445 N2438 0.984 . S
H2446 N2434 0.984 . S
H2447 N2434 0.985 . S
C2448 C2449 1.363 . S
C2448 C2454 1.379 . S
C2448 N2456 1.356 . S
C2449 C2448 1.363 . S
C2449 C2455 1.363 . S
C2450 C2451 1.363 . S
C2450 C2455 1.379 . S
C2450 N2457 1.356 . S
C2451 C2450 1.363 . S
C2451 C2454 1.363 . S
N2452 C2454 1.356 . S
N2452 H2464 0.984 . S
N2452 H2465 0.985 . S
N2453 C2455 1.356 . S
N2453 H2458 0.984 . S
N2453 H2459 0.985 . S
C2454 C2448 1.379 . S
C2454 C2451 1.363 . S
C2454 N2452 1.356 . S
C2455 C2449 1.363 . S
C2455 C2450 1.379 . S
C2455 N2453 1.356 . S
N2456 C2448 1.356 . S
N2456 H2462 0.984 . S
N2456 H2463 0.984 . S
N2457 C2450 1.356 . S
N2457 H2460 0.984 . S
N2457 H2461 0.985 . S
H2458 N2453 0.984 . S
H2459 N2453 0.985 . S
H2460 N2457 0.984 . S
H2461 N2457 0.985 . S
H2462 N2456 0.984 . S
H2463 N2456 0.984 . S
H2464 N2452 0.984 . S
H2465 N2452 0.985 . S
C2466 C2467 1.363 . S
C2466 C2472 1.379 . S
C2466 N2474 1.356 . S
C2467 C2466 1.363 . S
C2467 C2473 1.363 1_545 S
C2468 C2469 1.363 1_565 S
C2468 C2473 1.379 . S
C2468 N2475 1.356 . S
C2469 C2468 1.363 1_545 S
C2469 C2472 1.363 . S
N2470 C2472 1.356 . S
N2470 H2482 0.984 . S
N2470 H2483 0.985 . S
N2471 C2473 1.356 . S
N2471 H2476 0.984 . S
N2471 H2477 0.985 . S
C2472 C2466 1.379 . S
C2472 C2469 1.363 . S
C2472 N2470 1.356 . S
C2473 C2467 1.363 1_565 S
C2473 C2468 1.379 . S
C2473 N2471 1.356 . S
N2474 C2466 1.356 . S
N2474 H2480 0.984 . S
N2474 H2481 0.984 . S
N2475 C2468 1.356 . S
N2475 H2478 0.984 . S
N2475 H2479 0.985 . S
H2476 N2471 0.984 . S
H2477 N2471 0.985 . S
H2478 N2475 0.984 . S
H2479 N2475 0.985 . S
H2480 N2474 0.984 . S
H2481 N2474 0.984 . S
H2482 N2470 0.984 . S
H2483 N2470 0.985 . S
C2484 C2485 1.363 . S
C2484 C2490 1.379 1_655 S
C2484 N2492 1.356 . S
C2485 C2484 1.363 . S
C2485 C2491 1.363 . S
C2486 C2487 1.363 . S
C2486 C2491 1.379 1_455 S
C2486 N2493 1.356 . S
C2487 C2486 1.363 . S
C2487 C2490 1.363 . S
N2488 C2490 1.356 . S
N2488 H2500 0.984 . S
N2488 H2501 0.985 . S
N2489 C2491 1.356 . S
N2489 H2494 0.984 . S
N2489 H2495 0.985 . S
C2490 C2484 1.379 1_455 S
C2490 C2487 1.363 . S
C2490 N2488 1.356 . S
C2491 C2485 1.363 . S
C2491 C2486 1.379 1_655 S
C2491 N2489 1.356 . S
N2492 C2484 1.356 . S
N2492 H2498 0.984 . S
N2492 H2499 0.984 . S
N2493 C2486 1.356 . S
N2493 H2496 0.984 . S
N2493 H2497 0.985 . S
H2494 N2489 0.984 . S
H2495 N2489 0.985 . S
H2496 N2493 0.984 . S
H2497 N2493 0.985 . S
H2498 N2492 0.984 . S
H2499 N2492 0.984 . S
H2500 N2488 0.984 . S
H2501 N2488 0.985 . S
C2502 C2503 1.363 . S
C2502 C2508 1.379 . S
C2502 N2510 1.356 . S
C2503 C2502 1.363 . S
C2503 C2509 1.363 . S
C2504 C2505 1.363 . S
C2504 C2509 1.379 . S
C2504 N2511 1.356 . S
C2505 C2504 1.363 . S
C2505 C2508 1.363 . S
N2506 C2508 1.356 . S
N2506 H2518 0.984 . S
N2506 H2519 0.985 . S
N2507 C2509 1.356 . S
N2507 H2512 0.984 . S
N2507 H2513 0.985 . S
C2508 C2502 1.379 . S
C2508 C2505 1.363 . S
C2508 N2506 1.356 . S
C2509 C2503 1.363 . S
C2509 C2504 1.379 . S
C2509 N2507 1.356 . S
N2510 C2502 1.356 . S
N2510 H2516 0.984 . S
N2510 H2517 0.984 . S
N2511 C2504 1.356 . S
N2511 H2514 0.984 . S
N2511 H2515 0.985 . S
H2512 N2507 0.984 . S
H2513 N2507 0.985 . S
H2514 N2511 0.984 . S
H2515 N2511 0.985 . S
H2516 N2510 0.984 . S
H2517 N2510 0.984 . S
H2518 N2506 0.984 . S
H2519 N2506 0.985 . S
C2520 C2521 1.363 . S
C2520 C2526 1.379 . S
C2520 N2528 1.356 . S
C2521 C2520 1.363 . S
C2521 C2527 1.363 1_565 S
C2522 C2523 1.363 . S
C2522 C2527 1.379 . S
C2522 N2529 1.356 . S
C2523 C2522 1.363 . S
C2523 C2526 1.363 1_545 S
N2524 C2526 1.356 1_545 S
N2524 H2536 0.984 1_545 S
N2524 H2537 0.985 . S
N2525 C2527 1.356 1_565 S
N2525 H2530 0.984 . S
N2525 H2531 0.985 1_565 S
C2526 C2520 1.379 . S
C2526 C2523 1.363 1_565 S
C2526 N2524 1.356 1_565 S
C2527 C2521 1.363 1_545 S
C2527 C2522 1.379 . S
C2527 N2525 1.356 1_545 S
N2528 C2520 1.356 . S
N2528 H2534 0.984 . S
N2528 H2535 0.984 . S
N2529 C2522 1.356 . S
N2529 H2532 0.984 . S
N2529 H2533 0.985 . S
H2530 N2525 0.984 . S
H2531 N2525 0.985 1_545 S
H2532 N2529 0.984 . S
H2533 N2529 0.985 . S
H2534 N2528 0.984 . S
H2535 N2528 0.984 . S
H2536 N2524 0.984 1_565 S
H2537 N2524 0.985 . S
C2538 C2539 1.345 1_455 S
C2538 C2544 1.391 . S
C2538 N2546 1.357 1_455 S
C2539 C2538 1.345 1_655 S
C2539 C2545 1.363 . S
C2540 C2541 1.347 1_655 S
C2540 C2545 1.390 . S
C2540 N2547 1.357 1_655 S
C2541 C2540 1.347 1_455 S
C2541 C2544 1.363 . S
N2542 C2544 1.356 . S
N2542 H2554 0.984 . S
N2542 H2555 0.985 . S
N2543 C2545 1.356 . S
N2543 H2548 0.984 . S
N2543 H2549 0.985 . S
C2544 C2538 1.391 . S
C2544 C2541 1.363 . S
C2544 N2542 1.356 . S
C2545 C2539 1.363 . S
C2545 C2540 1.390 . S
C2545 N2543 1.356 . S
N2546 C2538 1.357 1_655 S
N2546 H2552 0.984 1_655 S
N2546 H2553 0.984 . S
N2547 C2540 1.357 1_455 S
N2547 H2550 0.984 . S
N2547 H2551 0.985 1_455 S
H2548 N2543 0.984 . S
H2549 N2543 0.985 . S
H2550 N2547 0.984 . S
H2551 N2547 0.985 1_655 S
H2552 N2546 0.984 1_455 S
H2553 N2546 0.984 . S
H2554 N2542 0.984 . S
H2555 N2542 0.985 . S
C2556 C2557 1.363 . S
C2556 C2562 1.379 . S
C2556 N2564 1.356 . S
C2557 C2556 1.363 . S
C2557 C2563 1.363 . S
C2558 C2559 1.363 . S
C2558 C2563 1.379 . S
C2558 N2565 1.356 . S
C2559 C2558 1.363 . S
C2559 C2562 1.363 . S
N2560 C2562 1.356 . S
N2560 H2572 0.984 . S
N2560 H2573 0.985 . S
N2561 C2563 1.356 . S
N2561 H2566 0.984 . S
N2561 H2567 0.985 . S
C2562 C2556 1.379 . S
C2562 C2559 1.363 . S
C2562 N2560 1.356 . S
C2563 C2557 1.363 . S
C2563 C2558 1.379 . S
C2563 N2561 1.356 . S
N2564 C2556 1.356 . S
N2564 H2570 0.984 . S
N2564 H2571 0.984 . S
N2565 C2558 1.356 . S
N2565 H2568 0.984 . S
N2565 H2569 0.985 . S
H2566 N2561 0.984 . S
H2567 N2561 0.985 . S
H2568 N2565 0.984 . S
H2569 N2565 0.985 . S
H2570 N2564 0.984 . S
H2571 N2564 0.984 . S
H2572 N2560 0.984 . S
H2573 N2560 0.985 . S
C2574 C2575 1.363 1_565 S
C2574 C2580 1.379 . S
C2574 N2582 1.356 . S
C2575 C2574 1.363 1_545 S
C2575 C2581 1.363 . S
C2576 C2577 1.363 1_545 S
C2576 C2581 1.379 . S
C2576 N2583 1.356 . S
C2577 C2576 1.363 1_565 S
C2577 C2580 1.363 . S
N2578 C2580 1.356 . S
N2578 H2590 0.984 . S
N2578 H2591 0.985 . S
N2579 C2581 1.356 . S
N2579 H2584 0.984 . S
N2579 H2585 0.985 . S
C2580 C2574 1.379 . S
C2580 C2577 1.363 . S
C2580 N2578 1.356 . S
C2581 C2575 1.363 . S
C2581 C2576 1.379 . S
C2581 N2579 1.356 . S
N2582 C2574 1.356 . S
N2582 H2588 0.982 . S
N2582 H2589 0.987 1_565 S
N2583 C2576 1.356 . S
N2583 H2586 0.986 1_545 S
N2583 H2587 0.983 . S
H2584 N2579 0.984 . S
H2585 N2579 0.985 . S
H2586 N2583 0.986 1_565 S
H2587 N2583 0.983 . S
H2588 N2582 0.982 . S
H2589 N2582 0.987 1_545 S
H2590 N2578 0.984 . S
H2591 N2578 0.985 . S
C2592 C2593 1.363 . S
C2592 C2598 1.379 . S
C2592 N2600 1.356 . S
C2593 C2592 1.363 . S
C2593 C2599 1.363 . S
C2594 C2595 1.363 . S
C2594 C2599 1.379 . S
C2594 N2601 1.356 . S
C2595 C2594 1.363 . S
C2595 C2598 1.363 . S
N2596 C2598 1.356 . S
N2596 H2608 0.984 . S
N2596 H2609 0.985 . S
N2597 C2599 1.356 . S
N2597 H2602 0.984 . S
N2597 H2603 0.985 . S
C2598 C2592 1.379 . S
C2598 C2595 1.363 . S
C2598 N2596 1.356 . S
C2599 C2593 1.363 . S
C2599 C2594 1.379 . S
C2599 N2597 1.356 . S
N2600 C2592 1.356 . S
N2600 H2606 0.984 . S
N2600 H2607 0.984 . S
N2601 C2594 1.356 . S
N2601 H2604 0.984 . S
N2601 H2605 0.985 . S
H2602 N2597 0.984 . S
H2603 N2597 0.985 . S
H2604 N2601 0.984 . S
H2605 N2601 0.985 . S
H2606 N2600 0.984 . S
H2607 N2600 0.984 . S
H2608 N2596 0.984 . S
H2609 N2596 0.985 . S
C2610 C2611 1.363 . S
C2610 C2616 1.379 . S
C2610 N2618 1.356 1_545 S
C2611 C2610 1.363 . S
C2611 C2617 1.363 . S
C2612 C2613 1.363 . S
C2612 C2617 1.379 . S
C2612 N2619 1.356 . S
C2613 C2612 1.363 . S
C2613 C2616 1.363 . S
N2614 C2616 1.356 . S
N2614 H2626 0.984 . S
N2614 H2627 0.985 . S
N2615 C2617 1.356 . S
N2615 H2620 0.984 . S
N2615 H2621 0.985 . S
C2616 C2610 1.379 . S
C2616 C2613 1.363 . S
C2616 N2614 1.356 . S
C2617 C2611 1.363 . S
C2617 C2612 1.379 . S
C2617 N2615 1.356 . S
N2618 C2610 1.356 1_565 S
N2618 H2624 0.984 . S
N2618 H2625 0.984 . S
N2619 C2612 1.356 . S
N2619 H2622 0.984 . S
N2619 H2623 0.985 . S
H2620 N2615 0.984 . S
H2621 N2615 0.985 . S
H2622 N2619 0.984 . S
H2623 N2619 0.985 . S
H2624 N2618 0.984 . S
H2625 N2618 0.984 . S
H2626 N2614 0.984 . S
H2627 N2614 0.985 . S
C2628 C2629 1.363 . S
C2628 C2634 1.379 . S
C2628 N2636 1.356 . S
C2629 C2628 1.363 . S
C2629 C2635 1.363 . S
C2630 C2631 1.363 . S
C2630 C2635 1.379 . S
C2630 N2637 1.356 . S
C2631 C2630 1.363 . S
C2631 C2634 1.363 . S
N2632 C2634 1.356 . S
N2632 H2644 0.984 . S
N2632 H2645 0.985 . S
N2633 C2635 1.356 . S
N2633 H2638 0.984 . S
N2633 H2639 0.985 . S
C2634 C2628 1.379 . S
C2634 C2631 1.363 . S
C2634 N2632 1.356 . S
C2635 C2629 1.363 . S
C2635 C2630 1.379 . S
C2635 N2633 1.356 . S
N2636 C2628 1.356 . S
N2636 H2642 0.984 . S
N2636 H2643 0.984 . S
N2637 C2630 1.356 . S
N2637 H2640 0.984 . S
N2637 H2641 0.985 . S
H2638 N2633 0.984 . S
H2639 N2633 0.985 . S
H2640 N2637 0.984 . S
H2641 N2637 0.985 . S
H2642 N2636 0.984 . S
H2643 N2636 0.984 . S
H2644 N2632 0.984 . S
H2645 N2632 0.985 . S
C2646 C2647 1.363 . S
C2646 C2652 1.379 . S
C2646 N2654 1.356 . S
C2647 C2646 1.363 . S
C2647 C2653 1.363 . S
C2648 C2649 1.363 . S
C2648 C2653 1.379 . S
C2648 N2655 1.356 . S
C2649 C2648 1.363 . S
C2649 C2652 1.363 . S
N2650 C2652 1.356 1_565 S
N2650 H2662 0.984 . S
N2650 H2663 0.985 . S
N2651 C2653 1.356 . S
N2651 H2656 0.984 . S
N2651 H2657 0.985 . S
C2652 C2646 1.379 . S
C2652 C2649 1.363 . S
C2652 N2650 1.356 1_545 S
C2653 C2647 1.363 . S
C2653 C2648 1.379 . S
C2653 N2651 1.356 . S
N2654 C2646 1.356 . S
N2654 H2660 0.984 1_545 S
N2654 H2661 0.984 . S
N2655 C2648 1.356 . S
N2655 H2658 0.984 . S
N2655 H2659 0.985 . S
H2656 N2651 0.984 . S
H2657 N2651 0.985 . S
H2658 N2655 0.984 . S
H2659 N2655 0.985 . S
H2660 N2654 0.984 1_565 S
H2661 N2654 0.984 . S
H2662 N2650 0.984 . S
H2663 N2650 0.985 . S
C2664 C2665 1.363 . S
C2664 C2670 1.379 . S
C2664 N2672 1.356 . S
C2665 C2664 1.363 . S
C2665 C2671 1.363 . S
C2666 C2667 1.363 . S
C2666 C2671 1.379 . S
C2666 N2673 1.356 . S
C2667 C2666 1.363 . S
C2667 C2670 1.363 . S
N2668 C2670 1.356 1_455 S
N2668 H2680 0.984 . S
N2668 H2681 0.985 . S
N2669 C2671 1.356 . S
N2669 H2674 0.984 . S
N2669 H2675 0.985 . S
C2670 C2664 1.379 . S
C2670 C2667 1.363 . S
C2670 N2668 1.356 1_655 S
C2671 C2665 1.363 . S
C2671 C2666 1.379 . S
C2671 N2669 1.356 . S
N2672 C2664 1.356 . S
N2672 H2678 1.002 . S
N2672 H2679 0.984 . S
N2673 C2666 1.356 . S
N2673 H2676 0.984 . S
N2673 H2677 0.985 . S
H2674 N2669 0.984 . S
H2675 N2669 0.985 . S
H2676 N2673 0.984 . S
H2677 N2673 0.985 . S
H2678 N2672 1.002 . S
H2679 N2672 0.984 . S
H2680 N2668 0.984 . S
H2681 N2668 0.985 . S
C2682 C2683 1.363 . S
C2682 C2688 1.379 . S
C2682 N2690 1.356 . S
C2683 C2682 1.363 . S
C2683 C2689 1.363 . S
C2684 C2685 1.363 . S
C2684 C2689 1.379 . S
C2684 N2691 1.356 . S
C2685 C2684 1.363 . S
C2685 C2688 1.363 . S
N2686 C2688 1.356 . S
N2686 H2698 0.984 . S
N2686 H2699 0.985 . S
N2687 C2689 1.356 . S
N2687 H2692 0.984 . S
N2687 H2693 0.985 . S
C2688 C2682 1.379 . S
C2688 C2685 1.363 . S
C2688 N2686 1.356 . S
C2689 C2683 1.363 . S
C2689 C2684 1.379 . S
C2689 N2687 1.356 . S
N2690 C2682 1.356 . S
N2690 H2696 0.984 . S
N2690 H2697 0.984 . S
N2691 C2684 1.356 . S
N2691 H2694 0.984 . S
N2691 H2695 0.985 . S
H2692 N2687 0.984 . S
H2693 N2687 0.985 . S
H2694 N2691 0.984 . S
H2695 N2691 0.985 . S
H2696 N2690 0.984 . S
H2697 N2690 0.984 . S
H2698 N2686 0.984 . S
H2699 N2686 0.985 . S
C2700 C2701 1.363 . S
C2700 C2706 1.379 . S
C2700 N2708 1.356 . S
C2701 C2700 1.363 . S
C2701 C2707 1.363 . S
C2702 C2703 1.363 . S
C2702 C2707 1.379 . S
C2702 N2709 1.356 . S
C2703 C2702 1.363 . S
C2703 C2706 1.363 . S
N2704 C2706 1.356 1_545 S
N2704 H2716 0.984 . S
N2704 H2717 0.985 . S
N2705 C2707 1.356 . S
N2705 H2710 0.984 . S
N2705 H2711 0.985 . S
C2706 C2700 1.379 . S
C2706 C2703 1.363 . S
C2706 N2704 1.356 1_565 S
C2707 C2701 1.363 . S
C2707 C2702 1.379 . S
C2707 N2705 1.356 . S
N2708 C2700 1.356 . S
N2708 H2714 0.984 1_565 S
N2708 H2715 0.984 . S
N2709 C2702 1.356 . S
N2709 H2712 0.984 . S
N2709 H2713 0.985 . S
H2710 N2705 0.984 . S
H2711 N2705 0.985 . S
H2712 N2709 0.984 . S
H2713 N2709 0.985 . S
H2714 N2708 0.984 1_545 S
H2715 N2708 0.984 . S
H2716 N2704 0.984 . S
H2717 N2704 0.985 . S
C2718 C2719 1.363 . S
C2718 C2724 1.379 . S
C2718 N2726 1.356 1_455 S
C2719 C2718 1.363 . S
C2719 C2725 1.363 . S
C2720 C2721 1.363 . S
C2720 C2725 1.379 . S
C2720 N2727 1.356 . S
C2721 C2720 1.363 . S
C2721 C2724 1.363 . S
N2722 C2724 1.356 . S
N2722 H2734 0.984 1_455 S
N2722 H2735 0.985 . S
N2723 C2725 1.356 . S
N2723 H2728 0.984 . S
N2723 H2729 0.985 . S
C2724 C2718 1.379 . S
C2724 C2721 1.363 . S
C2724 N2722 1.356 . S
C2725 C2719 1.363 . S
C2725 C2720 1.379 . S
C2725 N2723 1.356 . S
N2726 C2718 1.356 1_655 S
N2726 H2732 0.984 . S
N2726 H2733 0.984 . S
N2727 C2720 1.356 . S
N2727 H2730 0.984 . S
N2727 H2731 0.985 . S
H2728 N2723 0.984 . S
H2729 N2723 0.985 . S
H2730 N2727 0.984 . S
H2731 N2727 0.985 . S
H2732 N2726 0.984 . S
H2733 N2726 0.984 . S
H2734 N2722 0.984 1_655 S
H2735 N2722 0.985 . S
C2736 C2737 1.363 . S
C2736 C2742 1.379 . S
C2736 N2744 1.356 . S
C2737 C2736 1.363 . S
C2737 C2743 1.363 . S
C2738 C2739 1.363 . S
C2738 C2743 1.379 . S
C2738 N2745 1.356 . S
C2739 C2738 1.363 . S
C2739 C2742 1.363 . S
N2740 C2742 1.356 . S
N2740 H2752 0.984 . S
N2740 H2753 0.985 . S
N2741 C2743 1.356 . S
N2741 H2746 0.984 . S
N2741 H2747 0.985 . S
C2742 C2736 1.379 . S
C2742 C2739 1.363 . S
C2742 N2740 1.356 . S
C2743 C2737 1.363 . S
C2743 C2738 1.379 . S
C2743 N2741 1.356 . S
N2744 C2736 1.356 . S
N2744 H2750 0.984 . S
N2744 H2751 0.984 . S
N2745 C2738 1.356 . S
N2745 H2748 0.984 . S
N2745 H2749 0.985 . S
H2746 N2741 0.984 . S
H2747 N2741 0.985 . S
H2748 N2745 0.984 . S
H2749 N2745 0.985 . S
H2750 N2744 0.984 . S
H2751 N2744 0.984 . S
H2752 N2740 0.984 . S
H2753 N2740 0.985 . S
C2754 C2755 1.363 . S
C2754 C2760 1.379 . S
C2754 N2762 1.356 . S
C2755 C2754 1.363 . S
C2755 C2761 1.363 . S
C2756 C2757 1.363 . S
C2756 C2761 1.379 . S
C2756 N2763 1.356 . S
C2757 C2756 1.363 . S
C2757 C2760 1.363 . S
N2758 C2760 1.356 . S
N2758 H2770 0.984 . S
N2758 H2771 0.985 . S
N2759 C2761 1.356 . S
N2759 H2764 0.984 . S
N2759 H2765 0.985 . S
C2760 C2754 1.379 . S
C2760 C2757 1.363 . S
C2760 N2758 1.356 . S
C2761 C2755 1.363 . S
C2761 C2756 1.379 . S
C2761 N2759 1.356 . S
N2762 C2754 1.356 . S
N2762 H2768 0.984 . S
N2762 H2769 0.984 . S
N2763 C2756 1.356 . S
N2763 H2766 0.984 . S
N2763 H2767 0.985 . S
H2764 N2759 0.984 . S
H2765 N2759 0.985 . S
H2766 N2763 0.984 . S
H2767 N2763 0.985 . S
H2768 N2762 0.984 . S
H2769 N2762 0.984 . S
H2770 N2758 0.984 . S
H2771 N2758 0.985 . S
C2772 C2773 1.363 . S
C2772 C2778 1.379 . S
C2772 N2780 1.356 . S
C2773 C2772 1.363 . S
C2773 C2779 1.363 . S
C2774 C2775 1.363 . S
C2774 C2779 1.379 . S
C2774 N2781 1.356 . S
C2775 C2774 1.363 . S
C2775 C2778 1.363 . S
N2776 C2778 1.356 . S
N2776 H2788 0.984 . S
N2776 H2789 0.985 . S
N2777 C2779 1.356 1_545 S
N2777 H2782 0.984 . S
N2777 H2783 0.985 . S
C2778 C2772 1.379 . S
C2778 C2775 1.363 . S
C2778 N2776 1.356 . S
C2779 C2773 1.363 . S
C2779 C2774 1.379 . S
C2779 N2777 1.356 1_565 S
N2780 C2772 1.356 . S
N2780 H2786 0.984 . S
N2780 H2787 0.984 . S
N2781 C2774 1.356 . S
N2781 H2784 0.984 . S
N2781 H2785 0.985 . S
H2782 N2777 0.984 . S
H2783 N2777 0.985 . S
H2784 N2781 0.984 . S
H2785 N2781 0.985 . S
H2786 N2780 0.984 . S
H2787 N2780 0.984 . S
H2788 N2776 0.984 . S
H2789 N2776 0.985 . S
C2790 C2791 1.363 . S
C2790 C2796 1.379 . S
C2790 N2798 1.356 . S
C2791 C2790 1.363 . S
C2791 C2797 1.363 . S
C2792 C2793 1.363 . S
C2792 C2797 1.379 . S
C2792 N2799 1.356 1_455 S
C2793 C2792 1.363 . S
C2793 C2796 1.363 . S
N2794 C2796 1.356 . S
N2794 H2806 0.984 . S
N2794 H2807 0.985 . S
N2795 C2797 1.356 . S
N2795 H2800 0.984 . S
N2795 H2801 0.985 . S
C2796 C2790 1.379 . S
C2796 C2793 1.363 . S
C2796 N2794 1.356 . S
C2797 C2791 1.363 . S
C2797 C2792 1.379 . S
C2797 N2795 1.356 . S
N2798 C2790 1.356 . S
N2798 H2804 0.984 . S
N2798 H2805 0.984 . S
N2799 C2792 1.356 1_655 S
N2799 H2802 0.984 . S
N2799 H2803 0.985 . S
H2800 N2795 0.984 . S
H2801 N2795 0.985 . S
H2802 N2799 0.984 . S
H2803 N2799 0.985 . S
H2804 N2798 0.984 . S
H2805 N2798 0.984 . S
H2806 N2794 0.984 . S
H2807 N2794 0.985 . S
C1189 N2 1.284 . S
C1191 C73 1.275 . S
C1207 C7 1.275 . S
C1209 N35 1.284 1_545 S
C1225 C40 1.275 . S
C1227 N68 1.284 1_655 S
C1243 C139 1.275 . S
C1245 N101 1.284 . S
C1261 C172 1.275 . S
C1263 N134 1.284 1_565 S
C1279 C106 1.275 . S
C1281 N167 1.284 1_455 S
C1297 C271 1.275 . S
C1299 N200 1.284 . S
C1315 N233 1.284 1_565 S
C1317 C205 1.275 . S
C1333 C238 1.275 . S
C1335 N266 1.284 1_455 S
C1351 C337 1.275 . S
C1353 N299 1.284 . S
C1369 N332 1.284 1_545 S
C1371 C370 1.275 . S
C1387 C304 1.275 . S
C1389 N365 1.284 1_655 S
C1405 N398 1.284 . S
C1407 C469 1.275 . S
C1423 N431 1.284 . S
C1425 C403 1.275 . S
C1441 N464 1.284 . S
C1443 C436 1.275 . S
C1459 C535 1.275 . S
C1461 N497 1.284 . S
C1477 C568 1.275 . S
C1479 N530 1.284 . S
C1495 N563 1.284 . S
C1497 C502 1.275 . S
C1513 N596 1.284 . S
C1515 C667 1.275 . S
C1531 N629 1.284 . S
C1533 C601 1.275 . S
C1549 N662 1.284 . S
C1551 C634 1.275 . S
C1567 C733 1.275 . S
C1569 N695 1.284 . S
C1585 C766 1.275 . S
C1587 N728 1.284 . S
C1603 N761 1.284 . S
C1605 C700 1.275 . S
C1621 C865 1.275 . S
C1623 N794 1.284 . S
C1639 C799 1.275 . S
C1641 N827 1.284 . S
C1657 N860 1.284 . S
C1659 C832 1.275 . S
C1675 C931 1.275 . S
C1677 N893 1.284 . S
C1693 N926 1.284 . S
C1695 C964 1.275 . S
C1711 C898 1.275 . S
C1713 N959 1.284 . S
C1729 C1063 1.275 . S
C1731 N992 1.284 . S
C1747 N1025 1.284 . S
C1749 C997 1.275 . S
C1765 N1058 1.284 . S
C1767 C1030 1.275 . S
C1783 C1129 1.275 . S
C1785 N1091 1.284 . S
C1801 C1162 1.275 . S
C1803 N1124 1.284 . S
C1819 N1157 1.284 . S
C1821 C1096 1.275 . S
C1837 N673 1.483 . S
C1839 C18 1.467 . S
C1855 C51 1.467 . S
C1857 N607 1.483 . S
C1873 C84 1.467 . S
C1875 N640 1.483 . S
C1891 N1135 1.483 . S
C1893 C117 1.467 . S
C1909 N1168 1.483 . S
C1911 C150 1.467 . S
C1927 C183 1.467 . S
C1929 N1102 1.483 . S
C1945 C216 1.466 . S
C1947 N871 1.483 . S
C1963 C249 1.467 . S
C1965 N805 1.483 . S
C1981 C282 1.467 . S
C1983 N838 1.483 . S
C1999 N541 1.483 . S
C2001 C315 1.467 . S
C2017 C348 1.467 . S
C2019 N574 1.483 . S
C2035 C381 1.467 . S
C2037 N508 1.483 . S
C2053 C414 1.467 . S
C2055 N1069 1.483 1_655 S
C2071 N1003 1.483 . S
C2073 C447 1.467 . S
C2089 N1036 1.483 1_545 S
C2091 C480 1.467 . S
C2107 C513 1.466 1_455 S
C2109 N343 1.482 . S
C2125 C546 1.467 . S
C2127 N376 1.483 . S
C2143 C579 1.467 1_565 S
C2145 N310 1.483 . S
C2161 N79 1.483 . S
C2163 C612 1.467 1_565 S
C2179 C645 1.467 1_455 S
C2181 N13 1.483 . S
C2197 C678 1.467 . S
C2199 N46 1.483 . S
C2215 N937 1.483 1_545 S
C2217 C711 1.467 . S
C2233 C744 1.467 . S
C2235 N970 1.483 1_655 S
C2251 C777 1.467 . S
C2253 N904 1.483 . S
C2269 N277 1.483 . S
C2271 C810 1.467 1_545 S
C2287 N211 1.483 . S
C2289 C843 1.467 1_655 S
C2305 C876 1.467 . S
C2307 N244 1.483 . S
C2323 C909 1.467 . S
C2325 N739 1.483 1_565 S
C2341 N772 1.483 1_455 S
C2343 C942 1.467 . S
C2359 C975 1.467 . S
C2361 N706 1.483 . S
C2377 N475 1.483 1_455 S
C2379 C1008 1.467 . S
C2395 C1041 1.467 . S
C2397 N409 1.483 . S
C2413 C1074 1.467 . S
C2415 N442 1.483 1_565 S
C2431 N145 1.483 . S
C2433 C1107 1.467 1_655 S
C2449 C1140 1.467 . S
C2451 N178 1.483 . S
C2467 N112 1.483 . S
C2469 C1173 1.466 1_545 S
C2485 C153 1.739 . S
C2487 C21 1.739 . S
C2503 C54 1.739 . S
C2505 C186 1.739 . S
C2521 C87 1.739 . S
C2523 C120 1.739 . S
C2539 C219 1.739 . S
C2541 C351 1.739 . S
C2557 C252 1.739 . S
C2559 C384 1.739 . S
C2575 C285 1.739 . S
C2577 C318 1.739 . S
C2593 C549 1.739 . S
C2595 C417 1.739 . S
C2611 C582 1.739 . S
C2613 C450 1.739 . S
C2629 C516 1.739 . S
C2631 C483 1.739 . S
C2647 C747 1.739 . S
C2649 C615 1.739 . S
C2665 C780 1.739 . S
C2667 C648 1.739 . S
C2683 C714 1.739 . S
C2685 C681 1.739 . S
C2701 C945 1.739 . S
C2703 C813 1.739 . S
C2719 C846 1.739 . S
C2721 C978 1.739 . S
C2737 C912 1.739 . S
C2739 C879 1.739 . S
C2755 C1143 1.739 . S
C2757 C1011 1.739 . S
C2773 C1176 1.739 . S
C2775 C1044 1.739 . S
C2791 C1077 1.739 . S
C2793 C1110 1.739 . S
