# Generated by pormake.
# Topology uow, (4)-cn, num edge types: 1
# Building blocks:
#     Node 0, Type 0, BuildingBlock: NAHDIM_clean_sbu_0, # of connection points: 4
#     Node 1, Type 0, BuildingBlock: NAHDIM_clean_sbu_0, # of connection points: 4
#     Node 2, Type 0, BuildingBlock: NAHDIM_clean_sbu_0, # of connection points: 4
#     Node 3, Type 0, BuildingBlock: NAHDIM_clean_sbu_0, # of connection points: 4
#     Node 4, Type 0, BuildingBlock: NAHDIM_clean_sbu_0, # of connection points: 4
#     Node 5, Type 0, BuildingBlock: NAHDIM_clean_sbu_0, # of connection points: 4
#     Node 6, Type 0, BuildingBlock: NAHDIM_clean_sbu_0, # of connection points: 4
#     Node 7, Type 0, BuildingBlock: NAHDIM_clean_sbu_0, # of connection points: 4
#     Node 8, Type 0, BuildingBlock: NAHDIM_clean_sbu_0, # of connection points: 4
#     Node 9, Type 0, BuildingBlock: NAHDIM_clean_sbu_0, # of connection points: 4
#     Node 10, Type 0, BuildingBlock: NAHDIM_clean_sbu_0, # of connection points: 4
#     Node 11, Type 0, BuildingBlock: NAHDIM_clean_sbu_0, # of connection points: 4
#     Node 12, Type 0, BuildingBlock: NAHDIM_clean_sbu_0, # of connection points: 4
#     Node 13, Type 0, BuildingBlock: NAHDIM_clean_sbu_0, # of connection points: 4
#     Node 14, Type 0, BuildingBlock: NAHDIM_clean_sbu_0, # of connection points: 4
#     Node 15, Type 0, BuildingBlock: NAHDIM_clean_sbu_0, # of connection points: 4
#     Node 16, Type 0, BuildingBlock: NAHDIM_clean_sbu_0, # of connection points: 4
#     Node 17, Type 0, BuildingBlock: NAHDIM_clean_sbu_0, # of connection points: 4
#     Node 18, Type 0, BuildingBlock: NAHDIM_clean_sbu_0, # of connection points: 4
#     Node 19, Type 0, BuildingBlock: NAHDIM_clean_sbu_0, # of connection points: 4
#     Node 20, Type 0, BuildingBlock: NAHDIM_clean_sbu_0, # of connection points: 4
#     Node 21, Type 0, BuildingBlock: NAHDIM_clean_sbu_0, # of connection points: 4
#     Node 22, Type 0, BuildingBlock: NAHDIM_clean_sbu_0, # of connection points: 4
#     Node 23, Type 0, BuildingBlock: NAHDIM_clean_sbu_0, # of connection points: 4
#     Node 24, Type 0, BuildingBlock: NAHDIM_clean_sbu_0, # of connection points: 4
#     Node 25, Type 0, BuildingBlock: NAHDIM_clean_sbu_0, # of connection points: 4
#     Node 26, Type 0, BuildingBlock: NAHDIM_clean_sbu_0, # of connection points: 4
#     Node 27, Type 0, BuildingBlock: NAHDIM_clean_sbu_0, # of connection points: 4
#     Node 28, Type 0, BuildingBlock: NAHDIM_clean_sbu_0, # of connection points: 4
#     Node 29, Type 0, BuildingBlock: NAHDIM_clean_sbu_0, # of connection points: 4
#     Node 30, Type 0, BuildingBlock: NAHDIM_clean_sbu_0, # of connection points: 4
#     Node 31, Type 0, BuildingBlock: NAHDIM_clean_sbu_0, # of connection points: 4
#     Edge 32, Type (0, 0), BuildingBlock: AJUNOK_clean_linker_0, # of connection points: 2
#     Edge 33, Type (0, 0), BuildingBlock: AJUNOK_clean_linker_0, # of connection points: 2
#     Edge 34, Type (0, 0), BuildingBlock: AJUNOK_clean_linker_0, # of connection points: 2
#     Edge 35, Type (0, 0), BuildingBlock: AJUNOK_clean_linker_0, # of connection points: 2
#     Edge 36, Type (0, 0), BuildingBlock: AJUNOK_clean_linker_0, # of connection points: 2
#     Edge 37, Type (0, 0), BuildingBlock: AJUNOK_clean_linker_0, # of connection points: 2
#     Edge 38, Type (0, 0), BuildingBlock: AJUNOK_clean_linker_0, # of connection points: 2
#     Edge 39, Type (0, 0), BuildingBlock: AJUNOK_clean_linker_0, # of connection points: 2
#     Edge 40, Type (0, 0), BuildingBlock: AJUNOK_clean_linker_0, # of connection points: 2
#     Edge 41, Type (0, 0), BuildingBlock: AJUNOK_clean_linker_0, # of connection points: 2
#     Edge 42, Type (0, 0), BuildingBlock: AJUNOK_clean_linker_0, # of connection points: 2
#     Edge 43, Type (0, 0), BuildingBlock: AJUNOK_clean_linker_0, # of connection points: 2
#     Edge 44, Type (0, 0), BuildingBlock: AJUNOK_clean_linker_0, # of connection points: 2
#     Edge 45, Type (0, 0), BuildingBlock: AJUNOK_clean_linker_0, # of connection points: 2
#     Edge 46, Type (0, 0), BuildingBlock: AJUNOK_clean_linker_0, # of connection points: 2
#     Edge 47, Type (0, 0), BuildingBlock: AJUNOK_clean_linker_0, # of connection points: 2
#     Edge 48, Type (0, 0), BuildingBlock: AJUNOK_clean_linker_0, # of connection points: 2
#     Edge 49, Type (0, 0), BuildingBlock: AJUNOK_clean_linker_0, # of connection points: 2
#     Edge 50, Type (0, 0), BuildingBlock: AJUNOK_clean_linker_0, # of connection points: 2
#     Edge 51, Type (0, 0), BuildingBlock: AJUNOK_clean_linker_0, # of connection points: 2
#     Edge 52, Type (0, 0), BuildingBlock: AJUNOK_clean_linker_0, # of connection points: 2
#     Edge 53, Type (0, 0), BuildingBlock: AJUNOK_clean_linker_0, # of connection points: 2
#     Edge 54, Type (0, 0), BuildingBlock: AJUNOK_clean_linker_0, # of connection points: 2
#     Edge 55, Type (0, 0), BuildingBlock: AJUNOK_clean_linker_0, # of connection points: 2
#     Edge 56, Type (0, 0), BuildingBlock: AJUNOK_clean_linker_0, # of connection points: 2
#     Edge 57, Type (0, 0), BuildingBlock: AJUNOK_clean_linker_0, # of connection points: 2
#     Edge 58, Type (0, 0), BuildingBlock: AJUNOK_clean_linker_0, # of connection points: 2
#     Edge 59, Type (0, 0), BuildingBlock: AJUNOK_clean_linker_0, # of connection points: 2
#     Edge 60, Type (0, 0), BuildingBlock: AJUNOK_clean_linker_0, # of connection points: 2
#     Edge 61, Type (0, 0), BuildingBlock: AJUNOK_clean_linker_0, # of connection points: 2
#     Edge 62, Type (0, 0), BuildingBlock: AJUNOK_clean_linker_0, # of connection points: 2
#     Edge 63, Type (0, 0), BuildingBlock: AJUNOK_clean_linker_0, # of connection points: 2
#     Edge 64, Type (0, 0), BuildingBlock: AJUNOK_clean_linker_0, # of connection points: 2
#     Edge 65, Type (0, 0), BuildingBlock: AJUNOK_clean_linker_0, # of connection points: 2
#     Edge 66, Type (0, 0), BuildingBlock: AJUNOK_clean_linker_0, # of connection points: 2
#     Edge 67, Type (0, 0), BuildingBlock: AJUNOK_clean_linker_0, # of connection points: 2
#     Edge 68, Type (0, 0), BuildingBlock: AJUNOK_clean_linker_0, # of connection points: 2
#     Edge 69, Type (0, 0), BuildingBlock: AJUNOK_clean_linker_0, # of connection points: 2
#     Edge 70, Type (0, 0), BuildingBlock: AJUNOK_clean_linker_0, # of connection points: 2
#     Edge 71, Type (0, 0), BuildingBlock: AJUNOK_clean_linker_0, # of connection points: 2
#     Edge 72, Type (0, 0), BuildingBlock: AJUNOK_clean_linker_0, # of connection points: 2
#     Edge 73, Type (0, 0), BuildingBlock: AJUNOK_clean_linker_0, # of connection points: 2
#     Edge 74, Type (0, 0), BuildingBlock: AJUNOK_clean_linker_0, # of connection points: 2
#     Edge 75, Type (0, 0), BuildingBlock: AJUNOK_clean_linker_0, # of connection points: 2
#     Edge 76, Type (0, 0), BuildingBlock: AJUNOK_clean_linker_0, # of connection points: 2
#     Edge 77, Type (0, 0), BuildingBlock: AJUNOK_clean_linker_0, # of connection points: 2
#     Edge 78, Type (0, 0), BuildingBlock: AJUNOK_clean_linker_0, # of connection points: 2
#     Edge 79, Type (0, 0), BuildingBlock: AJUNOK_clean_linker_0, # of connection points: 2
#     Edge 80, Type (0, 0), BuildingBlock: AJUNOK_clean_linker_0, # of connection points: 2
#     Edge 81, Type (0, 0), BuildingBlock: AJUNOK_clean_linker_0, # of connection points: 2
#     Edge 82, Type (0, 0), BuildingBlock: AJUNOK_clean_linker_0, # of connection points: 2
#     Edge 83, Type (0, 0), BuildingBlock: AJUNOK_clean_linker_0, # of connection points: 2
#     Edge 84, Type (0, 0), BuildingBlock: AJUNOK_clean_linker_0, # of connection points: 2
#     Edge 85, Type (0, 0), BuildingBlock: AJUNOK_clean_linker_0, # of connection points: 2
#     Edge 86, Type (0, 0), BuildingBlock: AJUNOK_clean_linker_0, # of connection points: 2
#     Edge 87, Type (0, 0), BuildingBlock: AJUNOK_clean_linker_0, # of connection points: 2
#     Edge 88, Type (0, 0), BuildingBlock: AJUNOK_clean_linker_0, # of connection points: 2
#     Edge 89, Type (0, 0), BuildingBlock: AJUNOK_clean_linker_0, # of connection points: 2
#     Edge 90, Type (0, 0), BuildingBlock: AJUNOK_clean_linker_0, # of connection points: 2
#     Edge 91, Type (0, 0), BuildingBlock: AJUNOK_clean_linker_0, # of connection points: 2
#     Edge 92, Type (0, 0), BuildingBlock: AJUNOK_clean_linker_0, # of connection points: 2
#     Edge 93, Type (0, 0), BuildingBlock: AJUNOK_clean_linker_0, # of connection points: 2
#     Edge 94, Type (0, 0), BuildingBlock: AJUNOK_clean_linker_0, # of connection points: 2
#     Edge 95, Type (0, 0), BuildingBlock: AJUNOK_clean_linker_0, # of connection points: 2
# Relax obj value: 0.214
# Max RMSD: 0.240
# Mean RMSD: 0.240
data_MOF--net-uow--node1-NAHDIM_clean_sbu_0--edge1-AJUNOK_clean_linker_0
_symmetry_space_group_name_H-M    P1
_symmetry_Int_Tables_number       1
_symmetry_cell_setting            triclinic
loop_
_symmetry_equiv_pos_as_xyz
'x, y, z'
_cell_length_a     46.481132
_cell_length_b     46.482729
_cell_length_c     29.008943
_cell_angle_alpha  90.087196
_cell_angle_beta   89.934363
_cell_angle_gamma 89.950653
loop_
_atom_site_label
_atom_site_type_symbol
_atom_site_fract_x
_atom_site_fract_y
_atom_site_fract_z
_atom_type_partial_charge
C0 C 0.02309 0.42537 0.28035 0.0
O1 O 0.01092 0.41056 0.24706 0.0
O2 O 0.98456 0.35945 0.32956 0.0
Zn3 Zn 0.02568 0.36949 0.31521 0.0
O4 O 0.03718 0.35614 0.25209 0.0
C5 C 0.04193 0.33097 0.38824 0.0
O6 O 0.01407 0.32638 0.3891 0.0
O7 O 0.03101 0.41225 0.31658 0.0
C8 C 0.0432 0.33034 0.24138 0.0
O9 O 0.04043 0.31004 0.27254 0.0
C10 C 0.96811 0.34441 0.3042 0.0
O11 O 0.97702 0.33664 0.26305 0.0
O12 O 0.05195 0.3496 0.36051 0.0
C13 C 0.79763 0.78576 0.5568 0.0
O14 O 0.80844 0.77 0.59013 0.0
O15 O 0.86547 0.75291 0.5561 0.0
Zn16 Zn 0.85713 0.79257 0.53312 0.0
O17 O 0.87377 0.79657 0.46977 0.0
C18 C 0.8793 0.81492 0.6183 0.0
O19 O 0.86642 0.79207 0.63511 0.0
O20 O 0.81464 0.7985 0.52937 0.0
C21 C 0.89931 0.80536 0.46321 0.0
O22 O 0.91516 0.81268 0.4988 0.0
C23 C 0.87038 0.73135 0.53033 0.0
O24 O 0.8693 0.73441 0.48537 0.0
O25 O 0.87659 0.8205 0.57567 0.0
C26 C 0.45735 0.54502 0.78119 0.0
O27 O 0.47344 0.55984 0.75251 0.0
O28 O 0.48997 0.6116 0.82676 0.0
Zn29 Zn 0.44881 0.60105 0.81457 0.0
O30 O 0.43616 0.61714 0.75389 0.0
C31 C 0.43459 0.63077 0.89913 0.0
O32 O 0.46218 0.62754 0.90737 0.0
O33 O 0.44415 0.55833 0.81309 0.0
C34 C 0.43258 0.64411 0.74964 0.0
O35 O 0.43813 0.66088 0.785 0.0
C36 C 0.50732 0.6223 0.7976 0.0
O37 O 0.49891 0.62588 0.75478 0.0
O38 O 0.4239 0.61958 0.86301 0.0
C39 C 0.67604 0.22365 0.04263 0.0
O40 O 0.65942 0.23806 0.07115 0.0
O41 O 0.60384 0.24625 0.01209 0.0
Zn42 Zn 0.62196 0.20778 9e-05 0.0
O43 O 0.614 0.19559 0.93514 0.0
C44 C 0.60734 0.17364 0.08301 0.0
O45 O 0.62955 0.18572 0.10314 0.0
O46 O 0.66455 0.20894 0.01063 0.0
C47 C 0.59099 0.20344 0.91521 0.0
O48 O 0.57325 0.22081 0.93694 0.0
C49 C 0.61451 0.27085 0.00371 0.0
O50 O 0.64023 0.2728 0.98518 0.0
O51 O 0.60192 0.17949 0.04113 0.0
C52 C 0.04226 0.54852 0.26354 0.0
O53 O 0.0394 0.56488 0.30024 0.0
O54 O 0.01167 0.61931 0.20386 0.0
Zn55 Zn 0.05043 0.60286 0.21827 0.0
O56 O 0.06429 0.62216 0.27583 0.0
C57 C 0.06891 0.61206 0.12481 0.0
O58 O 0.04398 0.60012 0.11538 0.0
O59 O 0.04788 0.56015 0.22501 0.0
C60 C 0.06312 0.64948 0.2761 0.0
O61 O 0.05357 0.66276 0.23921 0.0
C62 C 0.98994 0.60531 0.18976 0.0
O63 O 0.99185 0.57728 0.18492 0.0
O64 O 0.07677 0.61404 0.16662 0.0
C65 C 0.67579 0.77511 0.51536 0.0
O66 O 0.65898 0.76114 0.54406 0.0
O67 O 0.61879 0.73627 0.437 0.0
Zn68 Zn 0.62425 0.77577 0.46296 0.0
O69 O 0.60077 0.78101 0.52026 0.0
C70 C 0.60364 0.79826 0.37576 0.0
O71 O 0.61185 0.77316 0.35958 0.0
O72 O 0.6656 0.78345 0.47704 0.0
C73 C 0.57369 0.78454 0.518 0.0
O74 O 0.56099 0.78315 0.47761 0.0
C75 C 0.6098 0.71471 0.45964 0.0
O76 O 0.6053 0.71737 0.50415 0.0
O77 O 0.60872 0.80436 0.41768 0.0
C78 C 0.44767 0.42131 0.75351 0.0
O79 O 0.42775 0.40574 0.77368 0.0
O80 O 0.50227 0.34963 0.70132 0.0
Zn81 Zn 0.46414 0.36611 0.71978 0.0
O82 O 0.45119 0.34813 0.77858 0.0
C83 C 0.44022 0.35725 0.62869 0.0
O84 O 0.46347 0.37082 0.61501 0.0
O85 O 0.4658 0.40892 0.72734 0.0
C86 C 0.46524 0.34941 0.816 0.0
O87 O 0.49013 0.36276 0.81659 0.0
C88 C 0.52115 0.36406 0.67976 0.0
O89 O 0.51646 0.39151 0.67204 0.0
O90 O 0.43564 0.35442 0.67162 0.0
C91 C 0.80067 0.23591 0.04109 0.0
O92 O 0.81492 0.24989 0.07313 0.0
O93 O 0.86474 0.27349 0.98564 0.0
Zn94 Zn 0.85677 0.2325 0.00258 0.0
O95 O 0.87548 0.22039 0.06219 0.0
C96 C 0.90153 0.20663 0.95385 0.0
O97 O 0.91519 0.22021 0.98698 0.0
O98 O 0.81435 0.22607 0.00656 0.0
C99 C 0.87728 0.19328 0.06716 0.0
O100 O 0.86533 0.17654 0.03609 0.0
C101 C 0.88517 0.28848 0.00197 0.0
O102 O 0.90078 0.27786 0.03561 0.0
O103 O 0.87429 0.20846 0.95184 0.0
C104 C 0.9475 0.55292 0.68056 0.0
O105 O 0.96347 0.56242 0.64643 0.0
O106 O 0.98646 0.61837 0.68125 0.0
Zn107 Zn 0.94704 0.61254 0.70785 0.0
O108 O 0.94315 0.62795 0.77196 0.0
C109 C 0.92122 0.63431 0.62476 0.0
O110 O 0.94095 0.61834 0.60476 0.0
O111 O 0.93772 0.57073 0.70983 0.0
C112 C 0.94717 0.65407 0.78314 0.0
O113 O 0.95619 0.67239 0.75187 0.0
C114 C 0.00918 0.62564 0.70254 0.0
O115 O 0.00835 0.62948 0.74737 0.0
O116 O 0.91919 0.63402 0.66842 0.0
C117 C 0.18432 0.19883 0.44175 0.0
O118 O 0.17076 0.2108 0.407 0.0
O119 O 0.10699 0.21904 0.46244 0.0
Zn120 Zn 0.12695 0.18132 0.47229 0.0
O121 O 0.11458 0.16581 0.53348 0.0
C122 C 0.10802 0.16434 0.38255 0.0
O123 O 0.11608 0.19072 0.37282 0.0
O124 O 0.16992 0.18534 0.47201 0.0
C125 C 0.08815 0.1658 0.54471 0.0
O126 O 0.06915 0.17588 0.51537 0.0
C127 C 0.11673 0.2444 0.46683 0.0
O128 O 0.14335 0.24838 0.48054 0.0
O129 O 0.11249 0.15473 0.4229 0.0
C130 C 0.52804 0.44693 0.21107 0.0
O131 O 0.51289 0.43058 0.23889 0.0
O132 O 0.49811 0.38041 0.16872 0.0
Zn133 Zn 0.53961 0.39222 0.17413 0.0
O134 O 0.55678 0.37428 0.23042 0.0
C135 C 0.54952 0.3628 0.08792 0.0
O136 O 0.52128 0.36208 0.08705 0.0
O137 O 0.54225 0.43506 0.1788 0.0
C138 C 0.56192 0.34743 0.22996 0.0
O139 O 0.55523 0.33245 0.19305 0.0
C140 C 0.48385 0.36689 0.1992 0.0
O141 O 0.49589 0.36105 0.23903 0.0
O142 O 0.56201 0.37649 0.12011 0.0
C143 C 0.31448 0.78387 0.94275 0.0
O144 O 0.32916 0.78046 0.9044 0.0
O145 O 0.38778 0.75118 0.97362 0.0
Zn146 Zn 0.37095 0.79089 0.97971 0.0
O147 O 0.38512 0.80906 0.03817 0.0
C148 C 0.39486 0.83869 0.92843 0.0
O149 O 0.39578 0.85109 0.96912 0.0
O150 O 0.32801 0.78902 0.97988 0.0
C151 C 0.38665 0.7949 0.07547 0.0
O152 O 0.37833 0.76789 0.07566 0.0
C153 C 0.37328 0.72802 0.97464 0.0
O154 O 0.34543 0.72917 0.98206 0.0
O155 O 0.38458 0.81349 0.9249 0.0
C156 C 0.94922 0.43172 0.72622 0.0
O157 O 0.96431 0.41385 0.7007 0.0
O158 O 0.99123 0.38397 0.80876 0.0
Zn159 Zn 0.95075 0.38374 0.78562 0.0
O160 O 0.94726 0.35681 0.73159 0.0
C161 C 0.93266 0.37384 0.87941 0.0
O162 O 0.95563 0.38917 0.8889 0.0
O163 O 0.94032 0.42339 0.76539 0.0
C164 C 0.93287 0.33361 0.7326 0.0
O165 O 0.91968 0.32618 0.77083 0.0
C166 C 0.01353 0.37847 0.78504 0.0
O167 O 0.01082 0.37214 0.7411 0.0
O168 O 0.92553 0.37019 0.8375 0.0
C169 C 0.30732 0.21852 0.46368 0.0
O170 O 0.32124 0.2332 0.43206 0.0
O171 O 0.37242 0.25373 0.53256 0.0
Zn172 Zn 0.36343 0.21537 0.50425 0.0
O173 O 0.38211 0.21134 0.44248 0.0
C174 C 0.38964 0.18809 0.58389 0.0
O175 O 0.38561 0.21328 0.60346 0.0
O176 O 0.32104 0.20922 0.49843 0.0
C177 C 0.40926 0.20859 0.43991 0.0
O178 O 0.42458 0.21039 0.47786 0.0
C179 C 0.38292 0.27501 0.51085 0.0
O180 O 0.38684 0.27303 0.46612 0.0
O181 O 0.38074 0.1841 0.54303 0.0
C182 C 0.5336 0.57142 0.232 0.0
O183 O 0.55439 0.58547 0.21115 0.0
O184 O 0.48619 0.64753 0.28909 0.0
Zn185 Zn 0.52037 0.6281 0.2607 0.0
O186 O 0.52825 0.64517 0.19842 0.0
C187 C 0.55224 0.6318 0.34505 0.0
O188 O 0.53041 0.61679 0.36076 0.0
O189 O 0.51547 0.58547 0.25585 0.0
C190 C 0.54242 0.66847 0.19545 0.0
O191 O 0.5512 0.68117 0.23339 0.0
C192 C 0.46764 0.63509 0.31428 0.0
O193 O 0.46895 0.60705 0.31951 0.0
O194 O 0.55345 0.63732 0.30222 0.0
C195 C 0.1913 0.76293 0.95563 0.0
O196 O 0.17585 0.75385 0.92064 0.0
O197 O 0.13327 0.71497 0.02235 0.0
Zn198 Zn 0.1378 0.75624 0.00343 0.0
O199 O 0.1157 0.76572 0.9458 0.0
C200 C 0.09593 0.77363 0.06712 0.0
O201 O 0.08383 0.7508 0.04874 0.0
O202 O 0.1794 0.76559 0.99484 0.0
C203 C 0.10903 0.79203 0.94052 0.0
O204 O 0.1173 0.81075 0.97179 0.0
C205 C 0.11648 0.6971 0.00309 0.0
O206 O 0.10234 0.70497 0.966 0.0
O207 O 0.12109 0.78053 0.05418 0.0
C208 C 0.5324 0.92854 0.69614 0.0
O209 O 0.52335 0.91034 0.66469 0.0
O210 O 0.49485 0.87367 0.79146 0.0
Zn211 Zn 0.53133 0.87846 0.75541 0.0
O212 O 0.53543 0.85146 0.70174 0.0
C213 C 0.56134 0.86737 0.84121 0.0
O214 O 0.53983 0.88152 0.86002 0.0
O215 O 0.53708 0.91953 0.73677 0.0
C216 C 0.5184 0.84156 0.67145 0.0
O217 O 0.49147 0.85005 0.67053 0.0
C218 C 0.46857 0.87567 0.78014 0.0
O219 O 0.46138 0.88164 0.73747 0.0
O220 O 0.56283 0.86572 0.79759 0.0
C221 C 0.3061 0.29189 0.98898 0.0
O222 O 0.32218 0.27784 0.95922 0.0
O223 O 0.36586 0.25191 0.05086 0.0
Zn224 Zn 0.35923 0.29343 0.03582 0.0
O225 O 0.38112 0.30354 0.97875 0.0
C226 C 0.38503 0.3088 0.12363 0.0
O227 O 0.38087 0.28159 0.13376 0.0
O228 O 0.31747 0.30097 0.026 0.0
C229 C 0.40815 0.30742 0.98106 0.0
O230 O 0.42124 0.30385 0.02075 0.0
C231 C 0.37459 0.23351 0.02154 0.0
O232 O 0.37836 0.24137 0.9785 0.0
O233 O 0.37546 0.31848 0.08569 0.0
C234 C 0.96195 0.04145 0.24059 0.0
O235 O 0.97902 0.05677 0.21416 0.0
O236 O -0.00336 0.10283 0.29831 0.0
Zn237 Zn 0.95536 0.09597 0.28179 0.0
O238 O 0.94386 0.11637 0.22378 0.0
C239 C 0.93994 0.11349 0.37423 0.0
O240 O 0.96513 0.10246 0.3847 0.0
O241 O 0.94878 0.05389 0.27344 0.0
C242 C 0.93608 0.14259 0.22419 0.0
O243 O 0.93732 0.15706 0.26308 0.0
C244 C 0.0146 0.11777 0.27568 0.0
O245 O 0.00663 0.12958 0.23661 0.0
O246 O 0.93101 0.11174 0.33296 0.0
C247 C 0.18212 0.71142 0.56903 0.0
O248 O 0.16961 0.71228 0.60966 0.0
O249 O 0.10922 0.75394 0.54082 0.0
Zn250 Zn 0.12377 0.71341 0.5335 0.0
O251 O 0.1095 0.6964 0.47426 0.0
C252 C 0.09937 0.66473 0.58089 0.0
O253 O 0.10398 0.65191 0.54117 0.0
O254 O 0.16671 0.71191 0.53296 0.0
C255 C 0.10023 0.71114 0.44059 0.0
O256 O 0.0998 0.73932 0.44395 0.0
C257 C 0.12445 0.77506 0.55417 0.0
O258 O 0.15206 0.77123 0.56134 0.0
O259 O 0.10733 0.69066 0.58609 0.0
C260 C 0.54169 0.04998 0.65008 0.0
O261 O 0.5408 0.0585 0.60694 0.0
O262 O 0.50146 0.12684 0.66626 0.0
Zn263 Zn 0.54151 0.11128 0.67412 0.0
O264 O 0.55797 0.12881 0.73123 0.0
C265 C 0.55516 0.1317 0.58263 0.0
O266 O 0.52765 0.12723 0.57541 0.0
O267 O 0.5418 0.06859 0.68213 0.0
C268 C 0.55318 0.15505 0.74074 0.0
O269 O 0.53704 0.17039 0.71287 0.0
C270 C 0.48022 0.11338 0.64919 0.0
O271 O 0.48341 0.08639 0.63682 0.0
O272 O 0.56599 0.12454 0.62116 0.0
C273 C 0.18333 0.30229 0.95449 0.0
O274 O 0.1722 0.28877 0.91895 0.0
O275 O 0.1108 0.27629 0.94865 0.0
Zn276 Zn 0.12385 0.31324 0.97726 0.0
O277 O 0.10579 0.31952 0.03931 0.0
C278 C 0.11027 0.34086 0.89211 0.0
O279 O 0.12536 0.31932 0.87543 0.0
O280 O 0.16667 0.31457 0.98311 0.0
C281 C 0.09084 0.30133 0.0615 0.0
O282 O 0.08705 0.27546 0.04431 0.0
C283 C 0.11925 0.2506 0.95482 0.0
O284 O 0.13921 0.24516 0.98562 0.0
O285 O 0.1088 0.34401 0.93555 0.0
C286 C 0.94735 0.91789 0.21915 0.0
O287 O 0.92573 0.90525 0.24017 0.0
O288 O -0.00491 0.838 0.1808 0.0
Zn289 Zn 0.96085 0.85983 0.20347 0.0
O290 O 0.95291 0.84907 0.26901 0.0
C291 C 0.92858 0.84578 0.12187 0.0
O292 O 0.95093 0.8571 0.1009 0.0
O293 O 0.96602 0.90238 0.19902 0.0
C294 C 0.94037 0.82532 0.27697 0.0
O295 O 0.93445 0.80814 0.24227 0.0
C296 C 0.02002 0.84791 0.17269 0.0
O297 O 0.0253 0.87522 0.18067 0.0
O298 O 0.92749 0.8466 0.16556 0.0
C299 C 0.3065 0.72123 0.55351 0.0
O300 O 0.32132 0.73013 0.58933 0.0
O301 O 0.36903 0.76485 0.49186 0.0
Zn302 Zn 0.36178 0.72374 0.50977 0.0
O303 O 0.38113 0.71357 0.56925 0.0
C304 C 0.40159 0.70579 0.44128 0.0
O305 O 0.41375 0.72991 0.45456 0.0
O306 O 0.31946 0.71705 0.51553 0.0
C307 C 0.38341 0.68698 0.57848 0.0
O308 O 0.37321 0.66814 0.54892 0.0
C309 C 0.38707 0.7812 0.51172 0.0
O310 O 0.40088 0.77169 0.54814 0.0
O311 O 0.37808 0.69821 0.45999 0.0
C312 C 0.45203 0.06671 0.24794 0.0
O313 O 0.46284 0.08407 0.2792 0.0
O314 O 0.49002 0.12672 0.1699 0.0
Zn315 Zn 0.45089 0.1187 0.19591 0.0
O316 O 0.44262 0.14221 0.25237 0.0
C317 C 0.42738 0.13534 0.10741 0.0
O318 O 0.45157 0.12489 0.09098 0.0
O319 O 0.4453 0.07685 0.20877 0.0
C320 C 0.45957 0.15712 0.277 0.0
O321 O 0.4873 0.15706 0.26836 0.0
C322 C 0.51468 0.12087 0.18623 0.0
O323 O 0.51688 0.10765 0.22604 0.0
O324 O 0.42209 0.13276 0.15016 0.0
C325 C 0.68304 0.69224 0.9813 0.0
O326 O 0.66727 0.67928 0.01262 0.0
O327 O 0.62032 0.75362 0.92342 0.0
Zn328 Zn 0.62858 0.71508 0.95117 0.0
O329 O 0.61175 0.71202 0.01474 0.0
C330 C 0.60331 0.68673 0.87106 0.0
O331 O 0.61229 0.70937 0.84814 0.0
O332 O 0.67094 0.7085 0.95203 0.0
C333 C 0.58503 0.70647 0.0176 0.0
O334 O 0.56969 0.70535 0.97965 0.0
C335 C 0.61343 0.77594 0.94623 0.0
O336 O 0.61122 0.77439 0.9913 0.0
O337 O 0.60927 0.6846 0.91358 0.0
C338 C 0.01796 0.9376 0.76323 0.0
O339 O -0.00211 0.92051 0.77957 0.0
O340 O 0.9947 0.87574 0.69837 0.0
Zn341 Zn 0.03409 0.88532 0.7223 0.0
O342 O 0.04302 0.86399 0.78048 0.0
C343 C 0.05709 0.86626 0.63465 0.0
O344 O 0.03069 0.87088 0.62029 0.0
O345 O 0.03668 0.92734 0.73585 0.0
C346 C 0.0511 0.83788 0.77907 0.0
O347 O 0.05134 0.82445 0.73919 0.0
C348 C 0.97524 0.86247 0.7205 0.0
O349 O 0.98031 0.85421 0.76301 0.0
O350 O 0.06365 0.87277 0.67585 0.0
C351 C 0.80625 0.25612 0.52955 0.0
O352 O 0.82 0.24446 0.56438 0.0
O353 O 0.87287 0.21923 0.47156 0.0
Zn354 Zn 0.86312 0.25904 0.49309 0.0
O355 O 0.8793 0.26787 0.55572 0.0
C356 C 0.88073 0.28222 0.40495 0.0
O357 O 0.86799 0.25912 0.3887 0.0
O358 O 0.8205 0.26402 0.49441 0.0
C359 C 0.9047 0.27765 0.5596 0.0
O360 O 0.92073 0.27992 0.52247 0.0
C361 C 0.89152 0.20275 0.48956 0.0
O362 O 0.90519 0.21123 0.52679 0.0
O363 O 0.8803 0.28686 0.44812 0.0
C364 C 0.43774 0.94386 0.27761 0.0
O365 O 0.4205 0.92923 0.25044 0.0
O366 O 0.49363 0.87325 0.32033 0.0
Zn367 Zn 0.45363 0.88733 0.30764 0.0
O368 O 0.43954 0.87115 0.24757 0.0
C369 C 0.43703 0.87044 0.39932 0.0
O370 O 0.46263 0.88053 0.40966 0.0
O371 O 0.45365 0.93036 0.30579 0.0
C372 C 0.4314 0.84512 0.24512 0.0
O373 O 0.43285 0.829 0.28222 0.0
C374 C 0.50976 0.86041 0.29148 0.0
O375 O 0.50074 0.85661 0.24903 0.0
O376 O 0.42815 0.87247 0.35805 0.0
C377 C 0.80766 0.69142 0.9935 0.0
O378 O 0.82343 0.70447 0.9623 0.0
O379 O 0.86713 0.73164 0.05451 0.0
Zn380 Zn 0.86193 0.69051 0.03494 0.0
O381 O 0.8806 0.68282 0.97382 0.0
C382 C 0.89981 0.67457 0.10813 0.0
O383 O 0.9039 0.70252 0.10887 0.0
O384 O 0.81978 0.68244 0.02997 0.0
C385 C 0.90523 0.69199 0.96179 0.0
O386 O 0.91998 0.70845 0.99001 0.0
C387 C 0.87041 0.75348 0.02878 0.0
O388 O 0.87004 0.75037 0.98377 0.0
O389 O 0.88137 0.66422 0.08041 0.0
C390 C 0.01425 0.05942 0.80667 0.0
O391 O 0.98919 0.07233 0.80323 0.0
O392 O -0.00439 0.12929 0.8449 0.0
Zn393 Zn 0.03202 0.1172 0.81335 0.0
O394 O 0.03417 0.13022 0.7475 0.0
C395 C 0.06078 0.16465 0.84365 0.0
O396 O 0.04072 0.17453 0.81595 0.0
O397 O 0.03659 0.07448 0.81376 0.0
C398 C 0.05808 0.12478 0.72811 0.0
O399 O 0.07792 0.11118 0.75187 0.0
C400 C 0.97463 0.14308 0.82768 0.0
O401 O 0.97438 0.14857 0.78328 0.0
O402 O 0.06313 0.1376 0.84852 0.0
C403 C 0.68199 0.27166 0.52726 0.0
O404 O 0.6657 0.26732 0.56358 0.0
O405 O 0.60801 0.24342 0.48925 0.0
Zn406 Zn 0.62738 0.28201 0.48438 0.0
O407 O 0.61668 0.30104 0.42514 0.0
C408 C 0.6019 0.29704 0.57204 0.0
O409 O 0.603 0.26911 0.57871 0.0
O410 O 0.67019 0.27838 0.4893 0.0
C411 C 0.60827 0.28752 0.38962 0.0
O412 O 0.60764 0.25926 0.39041 0.0
C413 C 0.62098 0.21939 0.49121 0.0
O414 O 0.64916 0.21864 0.48818 0.0
O415 O 0.612 0.30733 0.53486 0.0
C416 C 0.05642 0.2948 0.1799 0.0
C417 C 0.05442 0.32356 0.19475 0.0
C418 C 0.06783 0.28782 0.13651 0.0
C419 C 0.07799 0.30932 0.10653 0.0
H420 H 0.04919 0.27746 0.20194 0.0
H421 H 0.06908 0.26535 0.12679 0.0
S422 S 0.07685 0.38812 0.12835 0.0
N423 N 0.06298 0.37382 0.17538 0.0
N424 N 0.0845 0.36072 0.09424 0.0
C425 C 0.07581 0.33822 0.12073 0.0
C426 C 0.06399 0.34534 0.16469 0.0
C427 C 0.94282 0.83299 0.3621 0.0
C428 C 0.93085 0.81826 0.3243 0.0
C429 C 0.93301 0.8281 0.40706 0.0
C430 C 0.91054 0.80863 0.41584 0.0
H431 H 0.95977 0.84865 0.35696 0.0
H432 H 0.94261 0.84027 0.43496 0.0
S433 S 0.87277 0.76355 0.32925 0.0
N434 N 0.89607 0.78248 0.2989 0.0
N435 N 0.87742 0.77354 0.38335 0.0
C436 C 0.89877 0.79329 0.37852 0.0
C437 C 0.909 0.79801 0.33277 0.0
C438 C 0.413 0.6372 0.67028 0.0
C439 C 0.42117 0.65605 0.70593 0.0
C440 C 0.40107 0.64749 0.62927 0.0
C441 C 0.39687 0.67711 0.62197 0.0
H442 H 0.4155 0.61414 0.67413 0.0
H443 H 0.39498 0.63197 0.60319 0.0
S444 S 0.41546 0.73578 0.70377 0.0
N445 N 0.42482 0.70598 0.73079 0.0
N446 N 0.40243 0.72535 0.65356 0.0
C447 C 0.40536 0.69633 0.65698 0.0
C448 C 0.41748 0.68581 0.69895 0.0
C449 C 0.55151 0.1927 0.80217 0.0
C450 C 0.56443 0.16782 0.78383 0.0
C451 C 0.56058 0.20429 0.84429 0.0
C452 C 0.58318 0.1917 0.86942 0.0
H453 H 0.53375 0.20296 0.78447 0.0
H454 H 0.54957 0.22317 0.85738 0.0
S455 S 0.62542 0.12728 0.83484 0.0
N456 N 0.60182 0.13161 0.79295 0.0
N457 N 0.61908 0.15352 0.87186 0.0
C458 C 0.5969 0.16729 0.85075 0.0
C459 C 0.58745 0.1553 0.80807 0.0
C460 C 0.08431 0.65139 0.35514 0.0
C461 C 0.07226 0.66597 0.31736 0.0
C462 C 0.09318 0.66622 0.39461 0.0
C463 C 0.0904 0.69631 0.39811 0.0
H464 H 0.08704 0.62825 0.35432 0.0
H465 H 0.1024 0.65385 0.42258 0.0
S466 S 0.05951 0.74476 0.30925 0.0
N467 N 0.05755 0.71234 0.28619 0.0
N468 N 0.07424 0.74021 0.36047 0.0
C469 C 0.07824 0.71124 0.3607 0.0
C470 C 0.06918 0.69609 0.32036 0.0
C471 C 0.53066 0.80814 0.5538 0.0
C472 C 0.55761 0.79463 0.55906 0.0
C473 C 0.5172 0.82203 0.59098 0.0
C474 C 0.53025 0.82293 0.63465 0.0
H475 H 0.52049 0.80925 0.52027 0.0
H476 H 0.49718 0.83334 0.58482 0.0
S477 S 0.59805 0.78631 0.66857 0.0
N478 N 0.59488 0.77973 0.61288 0.0
N479 N 0.56965 0.8058 0.68258 0.0
C480 C 0.55611 0.80768 0.64115 0.0
C481 C 0.56977 0.79353 0.6034 0.0
C482 C 0.4109 0.3152 0.8963 0.0
C483 C 0.42423 0.31679 0.93968 0.0
C484 C 0.42467 0.32523 0.85666 0.0
C485 C 0.45235 0.33745 0.85862 0.0
H486 H 0.38947 0.30633 0.89281 0.0
H487 H 0.41317 0.32373 0.82428 0.0
S488 S 0.49708 0.34594 0.96374 0.0
N489 N 0.46709 0.33086 0.98231 0.0
N490 N 0.49301 0.34986 0.90758 0.0
C491 C 0.46626 0.33868 0.90166 0.0
C492 C 0.45221 0.3283 0.9422 0.0
C493 C 0.89757 0.19621 0.14693 0.0
C494 C 0.89358 0.18061 0.10589 0.0
C495 C 0.91194 0.184 0.18463 0.0
C496 C 0.92312 0.15583 0.18254 0.0
H497 H 0.88893 0.21776 0.1504 0.0
H498 H 0.91382 0.19663 0.2159 0.0
S499 S 0.92122 0.10728 0.08067 0.0
N500 N 0.90387 0.13642 0.06394 0.0
N501 N 0.93103 0.11355 0.13439 0.0
C502 C 0.92027 0.14047 0.1409 0.0
C503 C 0.90544 0.15282 0.10272 0.0
C504 C 0.91834 0.64754 0.85464 0.0
C505 C 0.93829 0.664 0.8295 0.0
C506 C 0.90792 0.65688 0.89729 0.0
C507 C 0.91737 0.68283 0.91702 0.0
H508 H 0.9101 0.6275 0.84087 0.0
H509 H 0.89233 0.64352 0.91497 0.0
S510 S 0.97027 0.73346 0.86627 0.0
N511 N 0.96761 0.70733 0.82785 0.0
N512 N 0.94834 0.72466 0.90883 0.0
C513 C 0.93782 0.69926 0.8929 0.0
C514 C 0.94815 0.68994 0.84891 0.0
C515 C 0.09969 0.14138 0.61898 0.0
C516 C 0.07924 0.1549 0.59059 0.0
C517 C 0.09242 0.13144 0.66292 0.0
C518 C 0.06441 0.13469 0.68061 0.0
H519 H 0.12166 0.13847 0.60735 0.0
H520 H 0.10914 0.1214 0.68333 0.0
S521 S 0.00249 0.16799 0.61988 0.0
N522 N 0.02945 0.17053 0.58301 0.0
N523 N 0.01581 0.15191 0.66586 0.0
C524 C 0.04356 0.14787 0.65248 0.0
C525 C 0.05096 0.15793 0.60745 0.0
C526 C 0.58859 0.28838 0.30942 0.0
C527 C 0.59766 0.30351 0.34882 0.0
C528 C 0.57733 0.3028 0.27111 0.0
C529 C 0.57457 0.33296 0.27068 0.0
H530 H 0.58996 0.26511 0.30811 0.0
H531 H 0.57048 0.29008 0.24184 0.0
S532 S 0.59587 0.38289 0.36471 0.0
N533 N 0.60367 0.35059 0.38463 0.0
N534 N 0.58246 0.37761 0.31276 0.0
C535 C 0.58387 0.34844 0.30962 0.0
C536 C 0.59543 0.33377 0.34862 0.0
C537 C 0.41106 0.80423 0.1995 0.0
C538 C 0.42022 0.83306 0.20126 0.0
C539 C 0.40021 0.79219 0.1588 0.0
C540 C 0.39805 0.80845 0.11807 0.0
H541 H 0.41221 0.79071 0.22983 0.0
H542 H 0.3935 0.76989 0.15941 0.0
S543 S 0.41913 0.88508 0.10411 0.0
N544 N 0.42641 0.87767 0.15847 0.0
N545 N 0.40605 0.85509 0.08206 0.0
C546 C 0.40714 0.83736 0.11926 0.0
C547 C 0.41821 0.84964 0.16078 0.0
C548 C 0.90472 0.29819 0.68616 0.0
C549 C 0.92836 0.31692 0.68969 0.0
C550 C 0.8979 0.28475 0.64435 0.0
C551 C 0.9146 0.28928 0.6045 0.0
H552 H 0.89065 0.2947 0.7154 0.0
H553 H 0.87889 0.2713 0.64307 0.0
S554 S 0.9809 0.33364 0.59706 0.0
N555 N 0.97001 0.33738 0.6509 0.0
N556 N 0.95737 0.31198 0.57239 0.0
C557 C 0.93928 0.30669 0.60823 0.0
C558 C 0.94608 0.32057 0.65078 0.0
C559 C 0.46402 0.17751 0.35644 0.0
C560 C 0.44774 0.1736 0.31617 0.0
C561 C 0.45177 0.19008 0.39582 0.0
C562 C 0.4229 0.19938 0.39611 0.0
H563 H 0.48595 0.16967 0.35826 0.0
H564 H 0.46475 0.19147 0.42672 0.0
S565 S 0.37288 0.19844 0.29633 0.0
N566 N 0.40253 0.18304 0.27691 0.0
N567 N 0.37957 0.20695 0.35052 0.0
C568 C 0.40707 0.19735 0.3549 0.0
C569 C 0.41947 0.18435 0.31504 0.0
C570 C 0.57535 0.69791 0.14658 0.0
C571 C 0.55122 0.67977 0.14991 0.0
C572 C 0.58577 0.70695 0.10367 0.0
C573 C 0.57215 0.69863 0.0625 0.0
H574 H 0.5869 0.70448 0.17725 0.0
H575 H 0.60486 0.72029 0.10276 0.0
S576 S 0.50688 0.65299 0.05253 0.0
N577 N 0.5131 0.65493 0.10847 0.0
N578 N 0.5324 0.67226 0.02784 0.0
C579 C 0.54731 0.68141 0.0654 0.0
C580 C 0.53693 0.67187 0.10909 0.0
C581 C 0.06648 0.84073 0.86135 0.0
C582 C 0.06349 0.82431 0.82084 0.0
C583 C 0.08077 0.82983 0.89993 0.0
C584 C 0.09254 0.80195 0.89988 0.0
H585 H 0.05836 0.86256 0.86308 0.0
H586 H 0.08286 0.84361 0.92988 0.0
S587 S 0.08901 0.74929 0.80379 0.0
N588 N 0.07231 0.77805 0.78388 0.0
N589 N 0.09911 0.75752 0.85671 0.0
C590 C 0.08883 0.78481 0.86032 0.0
C591 C 0.07433 0.79599 0.82077 0.0
C592 C 0.05025 0.28591 0.43261 0.0
C593 C 0.06142 0.31145 0.4138 0.0
C594 C 0.06832 0.26496 0.45135 0.0
C595 C 0.09832 0.26878 0.45266 0.0
H596 H 0.0274 0.28138 0.43122 0.0
H597 H 0.05869 0.24523 0.46388 0.0
S598 S 0.13829 0.33312 0.41262 0.0
N599 N 0.1043 0.34041 0.40094 0.0
N600 N 0.13832 0.30097 0.43676 0.0
C601 C 0.10973 0.29489 0.43651 0.0
C602 C 0.09128 0.31622 0.41688 0.0
C603 C 0.9076 0.82078 0.69104 0.0
C604 C 0.90081 0.83065 0.64648 0.0
C605 C 0.93092 0.83211 0.71566 0.0
C606 C 0.94843 0.85373 0.69666 0.0
H607 H 0.89558 0.80329 0.70644 0.0
H608 H 0.93592 0.82295 0.749 0.0
S609 S 0.93733 0.89009 0.5841 0.0
N610 N 0.91166 0.86564 0.58653 0.0
N611 N 0.95545 0.88686 0.6327 0.0
C612 C 0.94079 0.86511 0.65339 0.0
C613 C 0.91699 0.85363 0.62837 0.0
C614 C 0.41742 0.69786 0.96757 0.0
C615 C 0.38748 0.70061 0.96216 0.0
C616 C 0.43224 0.67404 0.94992 0.0
C617 C 0.41774 0.6523 0.92543 0.0
H618 H 0.42969 0.71471 0.98428 0.0
H619 H 0.45545 0.67357 0.95331 0.0
S620 S 0.33894 0.64768 0.90632 0.0
N621 N 0.34345 0.67825 0.93445 0.0
N622 N 0.37139 0.63364 0.90058 0.0
C623 C 0.38758 0.65392 0.92218 0.0
C624 C 0.37242 0.67803 0.94075 0.0
C625 C 0.56063 0.14757 0.08796 0.0
C626 C 0.58611 0.15663 0.10979 0.0
C627 C 0.53822 0.13504 0.1129 0.0
C628 C 0.54039 0.13064 0.16067 0.0
H629 H 0.55736 0.15111 0.05144 0.0
H630 H 0.51871 0.12935 0.09461 0.0
S631 S 0.60345 0.14774 0.23394 0.0
N632 N 0.61298 0.15835 0.18179 0.0
N633 N 0.5707 0.13439 0.22864 0.0
C634 C 0.56628 0.13799 0.18272 0.0
C635 C 0.58917 0.15109 0.15729 0.0
C636 C 0.07025 0.63636 0.04803 0.0
C637 C 0.08449 0.62855 0.08894 0.0
C638 C 0.08186 0.65707 0.01828 0.0
C639 C 0.10814 0.6707 0.02837 0.0
H640 H 0.04911 0.62787 0.04027 0.0
H641 H 0.06919 0.66371 0.98884 0.0
S642 S 0.15691 0.65311 0.12564 0.0
N643 N 0.12845 0.63255 0.13396 0.0
N644 N 0.1503 0.67138 0.07806 0.0
C645 C 0.1239 0.66098 0.06673 0.0
C646 C 0.11206 0.63993 0.09703 0.0
C647 C 0.54811 0.85559 0.35081 0.0
C648 C 0.5369 0.84721 0.30784 0.0
C649 C 0.57102 0.84077 0.37098 0.0
C650 C 0.58359 0.81675 0.34923 0.0
H651 H 0.53847 0.87315 0.36997 0.0
H652 H 0.57794 0.84747 0.40499 0.0
S653 S 0.56466 0.78832 0.23342 0.0
N654 N 0.54198 0.81517 0.24187 0.0
N655 N 0.58507 0.78714 0.27993 0.0
C656 C 0.57392 0.80933 0.30476 0.0
C657 C 0.55058 0.8246 0.28404 0.0
C658 C 0.3866 0.3028 0.58409 0.0
C659 C 0.3942 0.29982 0.53738 0.0
C660 C 0.40032 0.32281 0.61253 0.0
C661 C 0.42243 0.3406 0.5956 0.0
H662 H 0.37065 0.28877 0.59944 0.0
H663 H 0.3944 0.32328 0.64864 0.0
S664 S 0.44759 0.34422 0.47417 0.0
N665 N 0.42303 0.31858 0.47412 0.0
N666 N 0.44901 0.3562 0.52772 0.0
C667 C 0.42881 0.33936 0.54816 0.0
C668 C 0.41465 0.31897 0.51902 0.0
C669 C 0.9611 0.16021 0.90608 0.0
C670 C 0.95376 0.15701 0.85926 0.0
C671 C 0.94371 0.17588 0.9363 0.0
C672 C 0.91798 0.1886 0.92128 0.0
H673 H 0.98099 0.15139 0.91941 0.0
H674 H 0.95066 0.17825 0.97175 0.0
S675 S 0.88777 0.1851 0.80317 0.0
N676 N 0.91824 0.16688 0.79977 0.0
N677 N 0.88511 0.19597 0.85726 0.0
C678 C 0.90963 0.18467 0.87514 0.0
C679 C 0.92766 0.16901 0.84396 0.0
C680 C 0.88825 0.67659 0.62204 0.0
C681 C 0.90484 0.65605 0.59817 0.0
C682 C 0.87615 0.70012 0.59928 0.0
C683 C 0.87992 0.70405 0.5516 0.0
H684 H 0.88549 0.67526 0.65906 0.0
H685 H 0.86448 0.71583 0.61963 0.0
S686 S 0.91826 0.65452 0.47195 0.0
N687 N 0.92205 0.63969 0.52327 0.0
N688 N 0.89913 0.68401 0.48036 0.0
C689 C 0.89481 0.68273 0.52666 0.0
C690 C 0.90733 0.65873 0.54997 0.0
C691 C 0.05651 0.15102 0.28381 0.0
C692 C 0.0422 0.12583 0.29761 0.0
C693 C 0.07925 0.16228 0.30984 0.0
C694 C 0.08861 0.14872 0.35057 0.0
H695 H 0.04903 0.16315 0.2543 0.0
H696 H 0.08845 0.18261 0.29918 0.0
S697 S 0.06208 0.07895 0.3961 0.0
N698 N 0.04178 0.08529 0.35059 0.0
N699 N 0.08456 0.10634 0.39942 0.0
C700 C 0.07621 0.12208 0.3623 0.0
C701 C 0.05299 0.11068 0.33586 0.0
C702 C 0.56828 0.2953 0.02191 0.0
C703 C 0.59842 0.29673 0.01831 0.0
C704 C 0.55248 0.31774 0.0417 0.0
C705 C 0.56621 0.34239 0.05922 0.0
H706 H 0.55683 0.27624 0.01066 0.0
H707 H 0.52947 0.31492 0.04558 0.0
S708 S 0.64446 0.35789 0.05418 0.0
N709 N 0.64126 0.32573 0.03048 0.0
N710 N 0.61151 0.36795 0.0683 0.0
C711 C 0.5962 0.3448 0.05361 0.0
C712 C 0.61231 0.32198 0.03291 0.0
C713 C 0.43378 0.86981 0.89721 0.0
C714 C 0.41027 0.85153 0.88893 0.0
C715 C 0.45183 0.8785 0.86124 0.0
C716 C 0.44662 0.86984 0.81556 0.0
H717 H 0.43928 0.8762 0.93203 0.0
H718 H 0.47051 0.89145 0.86946 0.0
S719 S 0.38618 0.82457 0.77484 0.0
N720 N 0.38151 0.8267 0.83121 0.0
N721 N 0.41518 0.84379 0.76332 0.0
C722 C 0.42217 0.85312 0.80627 0.0
C723 C 0.40406 0.84374 0.84308 0.0
C724 C 0.88076 0.32182 0.93496 0.0
C725 C 0.8946 0.31452 0.97651 0.0
C726 C 0.89233 0.34239 0.90514 0.0
C727 C 0.91811 0.35674 0.9157 0.0
H728 H 0.86158 0.31051 0.92397 0.0
H729 H 0.88159 0.34609 0.87255 0.0
S730 S 0.96019 0.34921 0.02384 0.0
N731 N 0.93356 0.32599 0.02942 0.0
N732 N 0.95527 0.36486 0.97341 0.0
C733 C 0.93088 0.35152 0.95892 0.0
C734 C 0.91914 0.33036 0.9893 0.0
C735 C 0.44939 0.15708 0.65696 0.0
C736 C 0.45383 0.12968 0.63743 0.0
C737 C 0.42733 0.17512 0.64144 0.0
C738 C 0.40899 0.16661 0.60541 0.0
H739 H 0.46374 0.16515 0.68338 0.0
H740 H 0.42569 0.19646 0.65627 0.0
S741 S 0.40906 0.09556 0.54667 0.0
N742 N 0.43614 0.09377 0.58333 0.0
N743 N 0.39474 0.12777 0.55392 0.0
C744 C 0.41196 0.13856 0.58761 0.0
C745 C 0.43434 0.12006 0.6037 0.0
C746 C 0.60607 0.68671 0.38662 0.0
C747 C 0.59977 0.68902 0.43394 0.0
C748 C 0.59222 0.66646 0.35879 0.0
C749 C 0.57138 0.64772 0.37705 0.0
H750 H 0.62075 0.70165 0.37027 0.0
H751 H 0.59676 0.66673 0.32215 0.0
S752 S 0.55114 0.64124 0.50051 0.0
N753 N 0.57442 0.66803 0.49918 0.0
N754 N 0.54827 0.62989 0.44676 0.0
C755 C 0.56688 0.64791 0.42509 0.0
C756 C 0.58111 0.66859 0.45357 0.0
C757 C 0.05272 0.78217 0.11593 0.0
C758 C 0.07906 0.79229 0.09855 0.0
C759 C 0.03446 0.80007 0.14131 0.0
C760 C 0.04163 0.82896 0.15031 0.0
H761 H 0.04571 0.76037 0.10902 0.0
H762 H 0.01413 0.79123 0.15283 0.0
S763 S 0.10936 0.86541 0.11582 0.0
N764 N 0.11243 0.83256 0.09466 0.0
N765 N 0.07795 0.86634 0.14241 0.0
C766 C 0.06853 0.83906 0.13497 0.0
C767 C 0.08728 0.8207 0.10911 0.0
C768 C 0.58545 0.82182 0.9422 0.0
C769 C 0.60459 0.80226 0.92141 0.0
C770 C 0.57302 0.84422 0.91677 0.0
C771 C 0.57939 0.84797 0.86968 0.0
H772 H 0.57875 0.8189 0.97766 0.0
H773 H 0.55715 0.85769 0.93364 0.0
S774 S 0.63257 0.80577 0.80166 0.0
N775 N 0.63242 0.79041 0.85291 0.0
N776 N 0.60939 0.8326 0.80519 0.0
C777 C 0.60046 0.83004 0.84965 0.0
C778 C 0.61292 0.80713 0.87547 0.0
C779 C 0.44084 0.36577 0.14829 0.0
C780 C 0.45548 0.35472 0.18675 0.0
C781 C 0.41666 0.3519 0.1303 0.0
C782 C 0.40629 0.32616 0.1497 0.0
H783 H 0.44878 0.3847 0.13065 0.0
H784 H 0.40711 0.36067 0.09931 0.0
S785 S 0.43439 0.29056 0.25498 0.0
N786 N 0.45595 0.31834 0.24704 0.0
N787 N 0.41052 0.29204 0.21294 0.0
C788 C 0.4194 0.31603 0.19031 0.0
C789 C 0.44399 0.33037 0.20891 0.0
C790 C 0.92705 0.16317 0.47588 0.0
C791 C 0.90085 0.17654 0.46446 0.0
C792 C 0.93874 0.14147 0.44796 0.0
C793 C 0.92468 0.13232 0.40757 0.0
H794 H 0.93941 0.17043 0.50531 0.0
H795 H 0.95967 0.13289 0.45699 0.0
S796 S 0.85305 0.15691 0.36682 0.0
N797 N 0.85936 0.17643 0.41327 0.0
N798 N 0.88132 0.13573 0.36088 0.0
C799 C 0.89741 0.14397 0.39772 0.0
C800 C 0.88551 0.16605 0.42613 0.0
C801 C 0.06008 0.63056 0.60108 0.0
C802 C 0.08002 0.65147 0.61535 0.0
C803 C 0.03803 0.62139 0.63042 0.0
C804 C 0.03529 0.63242 0.67542 0.0
H805 H 0.06047 0.62231 0.56614 0.0
H806 H 0.02242 0.60619 0.61712 0.0
S807 S 0.08455 0.68448 0.73163 0.0
N808 N 0.09747 0.6808 0.67891 0.0
N809 N 0.05617 0.66322 0.73442 0.0
C810 C 0.05632 0.65177 0.6913 0.0
C811 C 0.07862 0.66141 0.66114 0.0
C812 C 0.61829 0.17297 0.53387 0.0
C813 C 0.60482 0.19364 0.5059 0.0
C814 C 0.6022 0.15171 0.55628 0.0
C815 C 0.57214 0.15008 0.55102 0.0
H816 H 0.64113 0.17433 0.54098 0.0
H817 H 0.61328 0.13729 0.57962 0.0
S818 S 0.52749 0.19618 0.47483 0.0
N819 N 0.56039 0.2091 0.46944 0.0
N820 N 0.53011 0.16886 0.51088 0.0
C821 C 0.55881 0.16907 0.51984 0.0
C822 C 0.57517 0.19097 0.49752 0.0
C823 C 0.0624 0.35629 0.78982 0.0
C824 C 0.04133 0.37446 0.80892 0.0
C825 C 0.08609 0.3473 0.81591 0.0
C826 C 0.08961 0.35623 0.862 0.0
H827 H 0.05967 0.3474 0.75556 0.0
H828 H 0.10072 0.33183 0.80064 0.0
S829 S 0.04371 0.40898 0.92433 0.0
N830 N 0.02788 0.40482 0.87386 0.0
N831 N 0.07244 0.3881 0.92286 0.0
C832 C 0.07021 0.37673 0.8798 0.0
C833 C 0.04604 0.38576 0.85329 0.0
C834 C 0.89894 0.79894 0.02613 0.0
C835 C 0.87988 0.78079 0.04994 0.0
C836 C 0.91314 0.82144 0.04893 0.0
C837 C 0.90862 0.82667 0.09624 0.0
H838 H 0.90444 0.7946 0.99049 0.0
H839 H 0.92898 0.83369 0.02987 0.0
S840 S 0.8562 0.78869 0.17147 0.0
N841 N 0.85399 0.77198 0.12136 0.0
N842 N 0.88021 0.81443 0.16415 0.0
C843 C 0.88746 0.81034 0.11918 0.0
C844 C 0.87325 0.78732 0.09605 0.0
C845 C 0.43809 0.69934 0.37926 0.0
C846 C 0.41596 0.68751 0.40629 0.0
C847 C 0.45373 0.68242 0.34824 0.0
C848 C 0.44816 0.65281 0.34324 0.0
H849 H 0.44376 0.72186 0.3825 0.0
H850 H 0.47101 0.69258 0.3292 0.0
S851 S 0.39109 0.61164 0.40367 0.0
N852 N 0.38808 0.64465 0.42423 0.0
N853 N 0.41777 0.61267 0.36607 0.0
C854 C 0.42543 0.64083 0.36889 0.0
C855 C 0.40925 0.65821 0.40032 0.0
C856 C 0.38766 0.17123 0.10205 0.0
C857 C 0.40995 0.1559 0.08008 0.0
C858 C 0.37514 0.19532 0.08148 0.0
C859 C 0.38411 0.20491 0.03786 0.0
H860 H 0.38088 0.16571 0.13667 0.0
H861 H 0.35917 0.20727 0.10092 0.0
S862 S 0.43792 0.16937 0.96212 0.0
N863 N 0.43775 0.14978 0.00954 0.0
N864 N 0.41395 0.19506 0.97064 0.0
C865 C 0.40443 0.18829 0.01359 0.0
C866 C 0.41741 0.16376 0.03476 0.0
C867 C 0.54892 0.65579 0.78718 0.0
C868 C 0.53483 0.6348 0.81379 0.0
C869 C 0.57216 0.67144 0.80503 0.0
C870 C 0.58227 0.66659 0.85008 0.0
H871 H 0.54109 0.66128 0.75315 0.0
H872 H 0.58138 0.68832 0.78399 0.0
S873 S 0.55557 0.61075 0.93116 0.0
N874 N 0.53474 0.60763 0.88542 0.0
N875 N 0.57838 0.63682 0.91893 0.0
C876 C 0.56968 0.64415 0.87577 0.0
C877 C 0.54596 0.62833 0.85764 0.0
C878 C 0.06528 0.82977 0.57288 0.0
C879 C 0.07666 0.84756 0.60761 0.0
C880 C 0.08156 0.80738 0.55377 0.0
C881 C 0.10997 0.8021 0.56823 0.0
H882 H 0.04304 0.83191 0.56229 0.0
H883 H 0.07132 0.79331 0.52891 0.0
S884 S 0.15141 0.8457 0.65246 0.0
N885 N 0.11923 0.86075 0.65153 0.0
N886 N 0.14996 0.81881 0.6153 0.0
C887 C 0.12245 0.8213 0.59999 0.0
C888 C 0.10575 0.84398 0.61979 0.0
C889 C 0.91255 0.32484 0.39403 0.0
C890 C 0.89897 0.30054 0.37498 0.0
C891 C 0.93354 0.33999 0.36956 0.0
C892 C 0.94193 0.33151 0.32493 0.0
H893 H 0.90787 0.33162 0.429 0.0
H894 H 0.94415 0.35774 0.38677 0.0
S895 S 0.90997 0.27194 0.25659 0.0
N896 N 0.89308 0.27063 0.30664 0.0
N897 N 0.93263 0.29915 0.26055 0.0
C898 C 0.927 0.3086 0.30401 0.0
C899 C 0.90552 0.2931 0.32905 0.0
C900 C 0.43538 0.84196 0.47237 0.0
C901 C 0.4213 0.85205 0.4326 0.0
C902 C 0.42324 0.8203 0.49973 0.0
C903 C 0.39656 0.8079 0.48834 0.0
H904 H 0.45668 0.84964 0.48117 0.0
H905 H 0.43568 0.81216 0.52845 0.0
S906 S 0.34844 0.83065 0.39298 0.0
N907 N 0.37736 0.85089 0.38706 0.0
N908 N 0.35456 0.81024 0.43844 0.0
C909 C 0.38116 0.81952 0.45096 0.0
C910 C 0.39352 0.84157 0.42311 0.0
C911 C 0.96288 0.65129 0.18129 0.0
C912 C 0.96419 0.62137 0.17407 0.0
C913 C 0.94107 0.66798 0.1618 0.0
C914 C 0.9196 0.65553 0.13411 0.0
H915 H 0.97938 0.66221 0.20099 0.0
H916 H 0.94177 0.69103 0.16722 0.0
S917 S 0.91104 0.57758 0.10925 0.0
N918 N 0.94047 0.57951 0.14091 0.0
N919 N 0.89937 0.61097 0.10409 0.0
C920 C 0.91953 0.62538 0.12892 0.0
C921 C 0.94184 0.6083 0.14893 0.0
C922 C 0.09007 0.23532 0.88736 0.0
C923 C 0.10656 0.22752 0.92602 0.0
C924 C 0.0763 0.21467 0.86037 0.0
C925 C 0.07828 0.18521 0.87075 0.0
H926 H 0.08744 0.25771 0.87787 0.0
H927 H 0.06356 0.22208 0.83147 0.0
S928 S 0.11993 0.1531 0.96698 0.0
N929 N 0.12511 0.18809 0.97241 0.0
N930 N 0.099 0.14903 0.92146 0.0
C931 C 0.09543 0.17687 0.90845 0.0
C932 C 0.10961 0.19807 0.93612 0.0
C933 C 0.56858 0.30285 0.63895 0.0
C934 C 0.58521 0.31559 0.60399 0.0
C935 C 0.54908 0.31908 0.66499 0.0
C936 C 0.54543 0.34876 0.65729 0.0
H937 H 0.5696 0.27989 0.64503 0.0
H938 H 0.53596 0.30792 0.69013 0.0
S939 S 0.58711 0.39336 0.57474 0.0
N940 N 0.59923 0.36034 0.56667 0.0
N941 N 0.56255 0.39086 0.61568 0.0
C942 C 0.56344 0.3622 0.62476 0.0
C943 C 0.58331 0.34562 0.59809 0.0
C944 C 0.03317 0.47383 0.3142 0.0
C945 C 0.02811 0.45661 0.27514 0.0
C946 C 0.03776 0.50351 0.31011 0.0
C947 C 0.03787 0.51704 0.26674 0.0
H948 H 0.03327 0.4644 0.34833 0.0
H949 H 0.04135 0.51589 0.34124 0.0
S950 S 0.02654 0.48137 0.15349 0.0
N951 N 0.02402 0.45513 0.19153 0.0
N952 N 0.0328 0.51078 0.18377 0.0
C953 C 0.03318 0.49998 0.2273 0.0
C954 C 0.02823 0.46982 0.23152 0.0
C955 C 0.74797 0.76867 0.57527 0.0
C956 C 0.76622 0.78575 0.54792 0.0
C957 C 0.71868 0.7659 0.56502 0.0
C958 C 0.70644 0.78 0.52691 0.0
H959 H 0.75643 0.75674 0.60429 0.0
H960 H 0.70574 0.75199 0.58662 0.0
S961 S 0.74421 0.82953 0.4468 0.0
N962 N 0.7694 0.81866 0.48283 0.0
N963 N 0.71441 0.81334 0.46354 0.0
C964 C 0.72417 0.79802 0.50023 0.0
C965 C 0.75401 0.80094 0.51077 0.0
C966 C 0.46859 0.46943 0.73518 0.0
C967 C 0.44943 0.45276 0.76151 0.0
C968 C 0.47097 0.49914 0.74196 0.0
C969 C 0.4544 0.51345 0.77552 0.0
H970 H 0.48189 0.45953 0.70886 0.0
H971 H 0.48603 0.51091 0.72061 0.0
S972 S 0.40118 0.47969 0.85424 0.0
N973 N 0.41365 0.45276 0.82291 0.0
N974 N 0.41818 0.50861 0.83572 0.0
C975 C 0.4352 0.49706 0.80233 0.0
C976 C 0.43269 0.46675 0.79529 0.0
C977 C 0.75472 0.21582 0.01043 0.0
C978 C 0.76903 0.23221 0.04413 0.0
C979 C 0.7248 0.21275 0.01095 0.0
C980 C 0.70782 0.226 0.04511 0.0
H981 H 0.76663 0.20541 0.98297 0.0
H982 H 0.71495 0.20017 0.98375 0.0
S983 S 0.73474 0.27026 0.14265 0.0
N984 N 0.76397 0.26112 0.11375 0.0
N985 N 0.70765 0.25539 0.11466 0.0
C986 C 0.72184 0.24199 0.07969 0.0
C987 C 0.75243 0.24507 0.07921 0.0
C988 C 0.96181 0.47281 0.67472 0.0
C989 C 0.94544 0.46198 0.71164 0.0
C990 C 0.96131 0.50208 0.6635 0.0
C991 C 0.94439 0.52165 0.68874 0.0
H992 H 0.97603 0.45882 0.6553 0.0
H993 H 0.97519 0.5095 0.63597 0.0
S994 S 0.89418 0.50348 0.78411 0.0
N995 N 0.90941 0.47257 0.7702 0.0
N996 N 0.90835 0.52757 0.74907 0.0
C997 C 0.92652 0.51081 0.7239 0.0
C998 C 0.92709 0.48099 0.73538 0.0
C999 C 0.26056 0.22562 0.42254 0.0
C1000 C 0.27612 0.21266 0.45856 0.0
C1001 C 0.23103 0.22072 0.41704 0.0
C1002 C 0.21582 0.20262 0.4473 0.0
H1003 H 0.27117 0.23991 0.39848 0.0
H1004 H 0.22004 0.2315 0.38905 0.0
S1005 S 0.24675 0.16231 0.54613 0.0
N1006 N 0.27421 0.18013 0.52423 0.0
N1007 N 0.21883 0.17087 0.51388 0.0
C1008 C 0.2312 0.18914 0.48312 0.0
C1009 C 0.26128 0.19418 0.48876 0.0
C1010 C 0.54887 0.52523 0.19527 0.0
C1011 C 0.53148 0.53973 0.22753 0.0
C1012 C 0.54748 0.49532 0.19014 0.0
C1013 C 0.52877 0.4786 0.21726 0.0
H1014 H 0.56367 0.53704 0.17351 0.0
H1015 H 0.56135 0.48527 0.16477 0.0
S1016 S 0.47876 0.50606 0.30719 0.0
N1017 N 0.49496 0.53507 0.28728 0.0
N1018 N 0.4924 0.47886 0.27777 0.0
C1019 C 0.51126 0.4928 0.24978 0.0
C1020 C 0.51258 0.52333 0.25487 0.0
C1021 C 0.23852 0.77756 0.9891 0.0
C1022 C 0.2224 0.76923 0.95029 0.0
C1023 C 0.26807 0.78269 0.98597 0.0
C1024 C 0.28287 0.77976 0.94389 0.0
H1025 H 0.22836 0.77986 0.02252 0.0
H1026 H 0.27941 0.78871 0.01715 0.0
S1027 S 0.25051 0.75971 0.83131 0.0
N1028 N 0.22329 0.75921 0.86788 0.0
N1029 N 0.27895 0.76888 0.862 0.0
C1030 C 0.26697 0.77202 0.90448 0.0
C1031 C 0.23675 0.76675 0.90769 0.0
C1032 C 0.52951 0.96947 0.64025 0.0
C1033 C 0.53629 0.95939 0.6847 0.0
C1034 C 0.53192 -0.00132 0.62898 0.0
C1035 C 0.54106 0.01899 0.66179 0.0
H1036 H 0.5219 0.95477 0.61395 0.0
H1037 H 0.52596 0.00544 0.59456 0.0
S1038 S 0.56358 0.00362 0.78212 0.0
N1039 N 0.55411 0.97204 0.76104 0.0
N1040 N 0.55855 0.0268 0.73988 0.0
C1041 C 0.54863 0.00915 0.70603 0.0
C1042 C 0.54628 0.97941 0.71747 0.0
C1043 C 0.26206 0.2823 0.94223 0.0
C1044 C 0.27503 0.29614 0.98001 0.0
C1045 C 0.23254 0.28489 0.9338 0.0
C1046 C 0.21476 0.30147 0.96278 0.0
H1047 H 0.27467 0.26891 0.91922 0.0
H1048 H 0.22358 0.27337 0.90469 0.0
S1049 S 0.23842 0.34377 0.06471 0.0
N1050 N 0.26804 0.32825 0.04549 0.0
N1051 N 0.21258 0.33317 0.02966 0.0
C1052 C 0.22756 0.31608 5e-05 0.0
C1053 C 0.25766 0.3134 0.00868 0.0
C1054 C 0.93725 -0.00494 0.25812 0.0
C1055 C 0.95819 0.01016 0.23283 0.0
C1056 C 0.93357 0.96539 0.25266 0.0
C1057 C 0.95082 0.94951 0.22193 0.0
H1058 H 0.92358 0.00617 0.28264 0.0
H1059 H 0.91735 0.95482 0.27342 0.0
S1060 S 0.0081 0.97884 0.14608 0.0
N1061 N -0.00408 0.00706 0.1747 0.0
N1062 N 0.98908 0.95121 0.16463 0.0
C1063 C 0.97157 0.96435 0.1958 0.0
C1064 C 0.97522 0.99467 0.20118 0.0
C1065 C 0.26072 0.72285 0.59896 0.0
C1066 C 0.27494 0.71707 0.55707 0.0
C1067 C 0.23078 0.7203 0.60286 0.0
C1068 C 0.21386 0.71201 0.56496 0.0
H1069 H 0.2727 0.72979 0.62899 0.0
H1070 H 0.22082 0.72551 0.6356 0.0
S1071 S 0.24062 0.6923 0.44839 0.0
N1072 N 0.2698 0.70112 0.47746 0.0
N1073 N 0.21364 0.69641 0.48482 0.0
C1074 C 0.22784 0.70542 0.52317 0.0
C1075 C 0.25833 0.70791 0.51922 0.0
C1076 C 0.43284 0.01846 0.22585 0.0
C1077 C 0.44779 0.03572 0.25771 0.0
C1078 C 0.4291 0.98897 0.23323 0.0
C1079 C 0.44035 0.97544 0.2726 0.0
H1080 H 0.42403 0.02771 0.19464 0.0
H1081 H 0.41778 0.97663 0.20726 0.0
S1082 S 0.48007 0.01107 0.36789 0.0
N1083 N 0.47305 0.03723 0.33118 0.0
N1084 N 0.46612 0.98173 0.34493 0.0
C1085 C 0.45488 0.99248 0.30527 0.0
C1086 C 0.45856 0.02262 0.29788 0.0
C1087 C 0.75887 0.67992 0.02498 0.0
C1088 C 0.77606 0.68934 0.98797 0.0
C1089 C 0.72879 0.68007 0.02202 0.0
C1090 C 0.71476 0.68974 0.98202 0.0
H1091 H 0.76864 0.67306 0.05702 0.0
H1092 H 0.71651 0.67337 0.05188 0.0
S1093 S 0.74978 0.71338 0.87339 0.0
N1094 N 0.77674 0.70625 0.90854 0.0
N1095 N 0.72029 0.70661 0.90313 0.0
C1096 C 0.73166 0.69803 0.94404 0.0
C1097 C 0.76228 0.69781 0.94697 0.0
C1098 C 0.99197 0.01074 0.80316 0.0
C1099 C 0.0165 0.02815 0.79829 0.0
C1100 C 0.99285 0.98137 0.79253 0.0
C1101 C 0.01816 0.96841 0.77585 0.0
H1102 H 0.97183 0.01987 0.81505 0.0
H1103 H 0.97332 0.96892 0.79648 0.0
S1104 S 0.08856 0.00437 0.75799 0.0
N1105 N 0.06711 0.03016 0.77683 0.0
N1106 N 0.06864 0.975 0.75626 0.0
C1107 C 0.04298 0.98547 0.77136 0.0
C1108 C 0.0422 0.01532 0.78281 0.0
C1109 C 0.73053 0.27406 0.49066 0.0
C1110 C 0.71361 0.26785 0.52963 0.0
C1111 C 0.76036 0.27026 0.49118 0.0
C1112 C 0.77461 0.26001 0.53065 0.0
H1113 H 0.72072 0.2819 0.45924 0.0
H1114 H 0.77227 0.27532 0.46011 0.0
S1115 S 0.74035 0.24081 0.64218 0.0
N1116 N 0.71337 0.25112 0.60915 0.0
N1117 N 0.76952 0.24396 0.6101 0.0
C1118 C 0.75802 0.2538 0.57004 0.0
C1119 C 0.72754 0.25775 0.56955 0.0
loop_
_geom_bond_atom_site_label_1
_geom_bond_atom_site_label_2
_geom_bond_distance
_geom_bond_site_symmetry_2
_ccdc_geom_bond_type
C0 O1 1.160 . S
C0 O7 1.185 . S
O1 C0 1.160 . S
O2 Zn3 1.899 . S
O2 C10 1.284 . S
Zn3 O2 1.899 . S
Zn3 O4 2.032 . S
Zn3 O7 2.086 . S
Zn3 O12 1.977 . S
O4 Zn3 2.032 . S
O4 C8 1.278 . S
C5 O6 1.203 . S
C5 O12 1.267 . S
O6 C5 1.203 . S
O7 C0 1.185 . S
O7 Zn3 2.086 . S
C8 O4 1.278 . S
C8 O9 1.211 . S
O9 C8 1.211 . S
C10 O2 1.284 . S
C10 O11 1.273 . S
O11 C10 1.273 . S
O12 Zn3 1.977 . S
O12 C5 1.267 . S
C13 O14 1.160 . S
C13 O20 1.185 . S
O14 C13 1.160 . S
O15 Zn16 1.899 . S
O15 C23 1.284 . S
Zn16 O15 1.899 . S
Zn16 O17 2.032 . S
Zn16 O20 2.086 . S
Zn16 O25 1.977 . S
O17 Zn16 2.032 . S
O17 C21 1.278 . S
C18 O19 1.203 . S
C18 O25 1.267 . S
O19 C18 1.203 . S
O20 C13 1.185 . S
O20 Zn16 2.086 . S
C21 O17 1.278 . S
C21 O22 1.211 . S
O22 C21 1.211 . S
C23 O15 1.284 . S
C23 O24 1.273 . S
O24 C23 1.273 . S
O25 Zn16 1.977 . S
O25 C18 1.267 . S
C26 O27 1.160 . S
C26 O33 1.185 . S
O27 C26 1.160 . S
O28 Zn29 1.899 . S
O28 C36 1.284 . S
Zn29 O28 1.899 . S
Zn29 O30 2.032 . S
Zn29 O33 2.086 . S
Zn29 O38 1.977 . S
O30 Zn29 2.032 . S
O30 C34 1.278 . S
C31 O32 1.203 . S
C31 O38 1.267 . S
O32 C31 1.203 . S
O33 C26 1.185 . S
O33 Zn29 2.086 . S
C34 O30 1.278 . S
C34 O35 1.211 . S
O35 C34 1.211 . S
C36 O28 1.284 . S
C36 O37 1.273 . S
O37 C36 1.273 . S
O38 Zn29 1.977 . S
O38 C31 1.267 . S
C39 O40 1.160 . S
C39 O46 1.185 . S
O40 C39 1.160 . S
O41 Zn42 1.899 . S
O41 C49 1.284 . S
Zn42 O41 1.899 . S
Zn42 O43 2.032 1_554 S
Zn42 O46 2.086 . S
Zn42 O51 1.977 . S
O43 Zn42 2.032 1_556 S
O43 C47 1.278 . S
C44 O45 1.203 . S
C44 O51 1.267 . S
O45 C44 1.203 . S
O46 C39 1.185 . S
O46 Zn42 2.086 . S
C47 O43 1.278 . S
C47 O48 1.211 . S
O48 C47 1.211 . S
C49 O41 1.284 . S
C49 O50 1.273 . S
O50 C49 1.273 . S
O51 Zn42 1.977 . S
O51 C44 1.267 . S
C52 O53 1.160 . S
C52 O59 1.185 . S
O53 C52 1.160 . S
O54 Zn55 1.899 . S
O54 C62 1.284 . S
Zn55 O54 1.899 . S
Zn55 O56 2.032 . S
Zn55 O59 2.086 . S
Zn55 O64 1.977 . S
O56 Zn55 2.032 . S
O56 C60 1.278 . S
C57 O58 1.203 . S
C57 O64 1.267 . S
O58 C57 1.203 . S
O59 C52 1.185 . S
O59 Zn55 2.086 . S
C60 O56 1.278 . S
C60 O61 1.211 . S
O61 C60 1.211 . S
C62 O54 1.284 . S
C62 O63 1.273 . S
O63 C62 1.273 . S
O64 Zn55 1.977 . S
O64 C57 1.267 . S
C65 O66 1.160 . S
C65 O72 1.185 . S
O66 C65 1.160 . S
O67 Zn68 1.899 . S
O67 C75 1.284 . S
Zn68 O67 1.899 . S
Zn68 O69 2.032 . S
Zn68 O72 2.086 . S
Zn68 O77 1.977 . S
O69 Zn68 2.032 . S
O69 C73 1.278 . S
C70 O71 1.203 . S
C70 O77 1.267 . S
O71 C70 1.203 . S
O72 C65 1.185 . S
O72 Zn68 2.086 . S
C73 O69 1.278 . S
C73 O74 1.211 . S
O74 C73 1.211 . S
C75 O67 1.284 . S
C75 O76 1.273 . S
O76 C75 1.273 . S
O77 Zn68 1.977 . S
O77 C70 1.267 . S
C78 O79 1.160 . S
C78 O85 1.185 . S
O79 C78 1.160 . S
O80 Zn81 1.899 . S
O80 C88 1.284 . S
Zn81 O80 1.899 . S
Zn81 O82 2.032 . S
Zn81 O85 2.086 . S
Zn81 O90 1.977 . S
O82 Zn81 2.032 . S
O82 C86 1.278 . S
C83 O84 1.203 . S
C83 O90 1.267 . S
O84 C83 1.203 . S
O85 C78 1.185 . S
O85 Zn81 2.086 . S
C86 O82 1.278 . S
C86 O87 1.211 . S
O87 C86 1.211 . S
C88 O80 1.284 . S
C88 O89 1.273 . S
O89 C88 1.273 . S
O90 Zn81 1.977 . S
O90 C83 1.267 . S
C91 O92 1.160 . S
C91 O98 1.185 . S
O92 C91 1.160 . S
O93 Zn94 1.899 . S
O93 C101 1.284 . S
Zn94 O93 1.899 . S
Zn94 O95 2.032 1_556 S
Zn94 O98 2.086 . S
Zn94 O103 1.977 . S
O95 Zn94 2.032 1_554 S
O95 C99 1.278 . S
C96 O97 1.203 . S
C96 O103 1.267 . S
O97 C96 1.203 . S
O98 C91 1.185 . S
O98 Zn94 2.086 . S
C99 O95 1.278 . S
C99 O100 1.211 . S
O100 C99 1.211 . S
C101 O93 1.284 . S
C101 O102 1.273 . S
O102 C101 1.273 . S
O103 Zn94 1.977 . S
O103 C96 1.267 . S
C104 O105 1.160 . S
C104 O111 1.185 . S
O105 C104 1.160 . S
O106 Zn107 1.899 . S
O106 C114 1.284 . S
Zn107 O106 1.899 . S
Zn107 O108 2.032 . S
Zn107 O111 2.086 . S
Zn107 O116 1.977 . S
O108 Zn107 2.032 . S
O108 C112 1.278 . S
C109 O110 1.203 . S
C109 O116 1.267 . S
O110 C109 1.203 . S
O111 C104 1.185 . S
O111 Zn107 2.086 . S
C112 O108 1.278 . S
C112 O113 1.211 . S
O113 C112 1.211 . S
C114 O106 1.284 . S
C114 O115 1.273 . S
O115 C114 1.273 . S
O116 Zn107 1.977 . S
O116 C109 1.267 . S
C117 O118 1.160 . S
C117 O124 1.185 . S
O118 C117 1.160 . S
O119 Zn120 1.899 . S
O119 C127 1.284 . S
Zn120 O119 1.899 . S
Zn120 O121 2.032 . S
Zn120 O124 2.086 . S
Zn120 O129 1.977 . S
O121 Zn120 2.032 . S
O121 C125 1.278 . S
C122 O123 1.203 . S
C122 O129 1.267 . S
O123 C122 1.203 . S
O124 C117 1.185 . S
O124 Zn120 2.086 . S
C125 O121 1.278 . S
C125 O126 1.211 . S
O126 C125 1.211 . S
C127 O119 1.284 . S
C127 O128 1.273 . S
O128 C127 1.273 . S
O129 Zn120 1.977 . S
O129 C122 1.267 . S
C130 O131 1.160 . S
C130 O137 1.185 . S
O131 C130 1.160 . S
O132 Zn133 1.899 . S
O132 C140 1.284 . S
Zn133 O132 1.899 . S
Zn133 O134 2.032 . S
Zn133 O137 2.086 . S
Zn133 O142 1.977 . S
O134 Zn133 2.032 . S
O134 C138 1.278 . S
C135 O136 1.203 . S
C135 O142 1.267 . S
O136 C135 1.203 . S
O137 C130 1.185 . S
O137 Zn133 2.086 . S
C138 O134 1.278 . S
C138 O139 1.211 . S
O139 C138 1.211 . S
C140 O132 1.284 . S
C140 O141 1.273 . S
O141 C140 1.273 . S
O142 Zn133 1.977 . S
O142 C135 1.267 . S
C143 O144 1.160 . S
C143 O150 1.185 . S
O144 C143 1.160 . S
O145 Zn146 1.899 . S
O145 C153 1.284 . S
Zn146 O145 1.899 . S
Zn146 O147 2.032 1_556 S
Zn146 O150 2.086 . S
Zn146 O155 1.977 . S
O147 Zn146 2.032 1_554 S
O147 C151 1.278 . S
C148 O149 1.203 . S
C148 O155 1.267 . S
O149 C148 1.203 . S
O150 C143 1.185 . S
O150 Zn146 2.086 . S
C151 O147 1.278 . S
C151 O152 1.211 . S
O152 C151 1.211 . S
C153 O145 1.284 . S
C153 O154 1.273 . S
O154 C153 1.273 . S
O155 Zn146 1.977 . S
O155 C148 1.267 . S
C156 O157 1.160 . S
C156 O163 1.185 . S
O157 C156 1.160 . S
O158 Zn159 1.899 . S
O158 C166 1.284 . S
Zn159 O158 1.899 . S
Zn159 O160 2.032 . S
Zn159 O163 2.086 . S
Zn159 O168 1.977 . S
O160 Zn159 2.032 . S
O160 C164 1.278 . S
C161 O162 1.203 . S
C161 O168 1.267 . S
O162 C161 1.203 . S
O163 C156 1.185 . S
O163 Zn159 2.086 . S
C164 O160 1.278 . S
C164 O165 1.211 . S
O165 C164 1.211 . S
C166 O158 1.284 . S
C166 O167 1.273 . S
O167 C166 1.273 . S
O168 Zn159 1.977 . S
O168 C161 1.267 . S
C169 O170 1.160 . S
C169 O176 1.185 . S
O170 C169 1.160 . S
O171 Zn172 1.899 . S
O171 C179 1.284 . S
Zn172 O171 1.899 . S
Zn172 O173 2.032 . S
Zn172 O176 2.086 . S
Zn172 O181 1.977 . S
O173 Zn172 2.032 . S
O173 C177 1.278 . S
C174 O175 1.203 . S
C174 O181 1.267 . S
O175 C174 1.203 . S
O176 C169 1.185 . S
O176 Zn172 2.086 . S
C177 O173 1.278 . S
C177 O178 1.211 . S
O178 C177 1.211 . S
C179 O171 1.284 . S
C179 O180 1.273 . S
O180 C179 1.273 . S
O181 Zn172 1.977 . S
O181 C174 1.267 . S
C182 O183 1.160 . S
C182 O189 1.185 . S
O183 C182 1.160 . S
O184 Zn185 1.899 . S
O184 C192 1.284 . S
Zn185 O184 1.899 . S
Zn185 O186 2.032 . S
Zn185 O189 2.086 . S
Zn185 O194 1.977 . S
O186 Zn185 2.032 . S
O186 C190 1.278 . S
C187 O188 1.203 . S
C187 O194 1.267 . S
O188 C187 1.203 . S
O189 C182 1.185 . S
O189 Zn185 2.086 . S
C190 O186 1.278 . S
C190 O191 1.211 . S
O191 C190 1.211 . S
C192 O184 1.284 . S
C192 O193 1.273 . S
O193 C192 1.273 . S
O194 Zn185 1.977 . S
O194 C187 1.267 . S
C195 O196 1.160 . S
C195 O202 1.185 . S
O196 C195 1.160 . S
O197 Zn198 1.899 . S
O197 C205 1.284 . S
Zn198 O197 1.899 . S
Zn198 O199 2.032 1_554 S
Zn198 O202 2.086 . S
Zn198 O207 1.977 . S
O199 Zn198 2.032 1_556 S
O199 C203 1.278 . S
C200 O201 1.203 . S
C200 O207 1.267 . S
O201 C200 1.203 . S
O202 C195 1.185 . S
O202 Zn198 2.086 . S
C203 O199 1.278 . S
C203 O204 1.211 . S
O204 C203 1.211 . S
C205 O197 1.284 . S
C205 O206 1.273 . S
O206 C205 1.273 . S
O207 Zn198 1.977 . S
O207 C200 1.267 . S
C208 O209 1.160 . S
C208 O215 1.185 . S
O209 C208 1.160 . S
O210 Zn211 1.899 . S
O210 C218 1.284 . S
Zn211 O210 1.899 . S
Zn211 O212 2.032 . S
Zn211 O215 2.086 . S
Zn211 O220 1.977 . S
O212 Zn211 2.032 . S
O212 C216 1.278 . S
C213 O214 1.203 . S
C213 O220 1.267 . S
O214 C213 1.203 . S
O215 C208 1.185 . S
O215 Zn211 2.086 . S
C216 O212 1.278 . S
C216 O217 1.211 . S
O217 C216 1.211 . S
C218 O210 1.284 . S
C218 O219 1.273 . S
O219 C218 1.273 . S
O220 Zn211 1.977 . S
O220 C213 1.267 . S
C221 O222 1.160 . S
C221 O228 1.185 . S
O222 C221 1.160 . S
O223 Zn224 1.899 . S
O223 C231 1.284 . S
Zn224 O223 1.899 . S
Zn224 O225 2.032 1_554 S
Zn224 O228 2.086 . S
Zn224 O233 1.977 . S
O225 Zn224 2.032 1_556 S
O225 C229 1.278 . S
C226 O227 1.203 . S
C226 O233 1.267 . S
O227 C226 1.203 . S
O228 C221 1.185 . S
O228 Zn224 2.086 . S
C229 O225 1.278 . S
C229 O230 1.211 . S
O230 C229 1.211 . S
C231 O223 1.284 . S
C231 O232 1.273 . S
O232 C231 1.273 . S
O233 Zn224 1.977 . S
O233 C226 1.267 . S
C234 O235 1.160 . S
C234 O241 1.185 . S
O235 C234 1.160 . S
O236 Zn237 1.899 . S
O236 C244 1.284 . S
Zn237 O236 1.899 . S
Zn237 O238 2.032 . S
Zn237 O241 2.086 . S
Zn237 O246 1.977 . S
O238 Zn237 2.032 . S
O238 C242 1.278 . S
C239 O240 1.203 . S
C239 O246 1.267 . S
O240 C239 1.203 . S
O241 C234 1.185 . S
O241 Zn237 2.086 . S
C242 O238 1.278 . S
C242 O243 1.211 . S
O243 C242 1.211 . S
C244 O236 1.284 . S
C244 O245 1.273 . S
O245 C244 1.273 . S
O246 Zn237 1.977 . S
O246 C239 1.267 . S
C247 O248 1.160 . S
C247 O254 1.185 . S
O248 C247 1.160 . S
O249 Zn250 1.899 . S
O249 C257 1.284 . S
Zn250 O249 1.899 . S
Zn250 O251 2.032 . S
Zn250 O254 2.086 . S
Zn250 O259 1.977 . S
O251 Zn250 2.032 . S
O251 C255 1.278 . S
C252 O253 1.203 . S
C252 O259 1.267 . S
O253 C252 1.203 . S
O254 C247 1.185 . S
O254 Zn250 2.086 . S
C255 O251 1.278 . S
C255 O256 1.211 . S
O256 C255 1.211 . S
C257 O249 1.284 . S
C257 O258 1.273 . S
O258 C257 1.273 . S
O259 Zn250 1.977 . S
O259 C252 1.267 . S
C260 O261 1.160 . S
C260 O267 1.185 . S
O261 C260 1.160 . S
O262 Zn263 1.899 . S
O262 C270 1.284 . S
Zn263 O262 1.899 . S
Zn263 O264 2.032 . S
Zn263 O267 2.086 . S
Zn263 O272 1.977 . S
O264 Zn263 2.032 . S
O264 C268 1.278 . S
C265 O266 1.203 . S
C265 O272 1.267 . S
O266 C265 1.203 . S
O267 C260 1.185 . S
O267 Zn263 2.086 . S
C268 O264 1.278 . S
C268 O269 1.211 . S
O269 C268 1.211 . S
C270 O262 1.284 . S
C270 O271 1.273 . S
O271 C270 1.273 . S
O272 Zn263 1.977 . S
O272 C265 1.267 . S
C273 O274 1.160 . S
C273 O280 1.185 . S
O274 C273 1.160 . S
O275 Zn276 1.899 . S
O275 C283 1.284 . S
Zn276 O275 1.899 . S
Zn276 O277 2.032 1_556 S
Zn276 O280 2.086 . S
Zn276 O285 1.977 . S
O277 Zn276 2.032 1_554 S
O277 C281 1.278 . S
C278 O279 1.203 . S
C278 O285 1.267 . S
O279 C278 1.203 . S
O280 C273 1.185 . S
O280 Zn276 2.086 . S
C281 O277 1.278 . S
C281 O282 1.211 . S
O282 C281 1.211 . S
C283 O275 1.284 . S
C283 O284 1.273 . S
O284 C283 1.273 . S
O285 Zn276 1.977 . S
O285 C278 1.267 . S
C286 O287 1.160 . S
C286 O293 1.185 . S
O287 C286 1.160 . S
O288 Zn289 1.899 . S
O288 C296 1.284 . S
Zn289 O288 1.899 . S
Zn289 O290 2.032 . S
Zn289 O293 2.086 . S
Zn289 O298 1.977 . S
O290 Zn289 2.032 . S
O290 C294 1.278 . S
C291 O292 1.203 . S
C291 O298 1.267 . S
O292 C291 1.203 . S
O293 C286 1.185 . S
O293 Zn289 2.086 . S
C294 O290 1.278 . S
C294 O295 1.211 . S
O295 C294 1.211 . S
C296 O288 1.284 . S
C296 O297 1.273 . S
O297 C296 1.273 . S
O298 Zn289 1.977 . S
O298 C291 1.267 . S
C299 O300 1.160 . S
C299 O306 1.185 . S
O300 C299 1.160 . S
O301 Zn302 1.899 . S
O301 C309 1.284 . S
Zn302 O301 1.899 . S
Zn302 O303 2.032 . S
Zn302 O306 2.086 . S
Zn302 O311 1.977 . S
O303 Zn302 2.032 . S
O303 C307 1.278 . S
C304 O305 1.203 . S
C304 O311 1.267 . S
O305 C304 1.203 . S
O306 C299 1.185 . S
O306 Zn302 2.086 . S
C307 O303 1.278 . S
C307 O308 1.211 . S
O308 C307 1.211 . S
C309 O301 1.284 . S
C309 O310 1.273 . S
O310 C309 1.273 . S
O311 Zn302 1.977 . S
O311 C304 1.267 . S
C312 O313 1.160 . S
C312 O319 1.185 . S
O313 C312 1.160 . S
O314 Zn315 1.899 . S
O314 C322 1.284 . S
Zn315 O314 1.899 . S
Zn315 O316 2.032 . S
Zn315 O319 2.086 . S
Zn315 O324 1.977 . S
O316 Zn315 2.032 . S
O316 C320 1.278 . S
C317 O318 1.203 . S
C317 O324 1.267 . S
O318 C317 1.203 . S
O319 C312 1.185 . S
O319 Zn315 2.086 . S
C320 O316 1.278 . S
C320 O321 1.211 . S
O321 C320 1.211 . S
C322 O314 1.284 . S
C322 O323 1.273 . S
O323 C322 1.273 . S
O324 Zn315 1.977 . S
O324 C317 1.267 . S
C325 O326 1.160 . S
C325 O332 1.185 . S
O326 C325 1.160 . S
O327 Zn328 1.899 . S
O327 C335 1.284 . S
Zn328 O327 1.899 . S
Zn328 O329 2.032 1_556 S
Zn328 O332 2.086 . S
Zn328 O337 1.977 . S
O329 Zn328 2.032 1_554 S
O329 C333 1.278 . S
C330 O331 1.203 . S
C330 O337 1.267 . S
O331 C330 1.203 . S
O332 C325 1.185 . S
O332 Zn328 2.086 . S
C333 O329 1.278 . S
C333 O334 1.211 . S
O334 C333 1.211 . S
C335 O327 1.284 . S
C335 O336 1.273 . S
O336 C335 1.273 . S
O337 Zn328 1.977 . S
O337 C330 1.267 . S
C338 O339 1.160 . S
C338 O345 1.185 . S
O339 C338 1.160 . S
O340 Zn341 1.899 . S
O340 C348 1.284 . S
Zn341 O340 1.899 . S
Zn341 O342 2.032 . S
Zn341 O345 2.086 . S
Zn341 O350 1.977 . S
O342 Zn341 2.032 . S
O342 C346 1.278 . S
C343 O344 1.203 . S
C343 O350 1.267 . S
O344 C343 1.203 . S
O345 C338 1.185 . S
O345 Zn341 2.086 . S
C346 O342 1.278 . S
C346 O347 1.211 . S
O347 C346 1.211 . S
C348 O340 1.284 . S
C348 O349 1.273 . S
O349 C348 1.273 . S
O350 Zn341 1.977 . S
O350 C343 1.267 . S
C351 O352 1.160 . S
C351 O358 1.185 . S
O352 C351 1.160 . S
O353 Zn354 1.899 . S
O353 C361 1.284 . S
Zn354 O353 1.899 . S
Zn354 O355 2.032 . S
Zn354 O358 2.086 . S
Zn354 O363 1.977 . S
O355 Zn354 2.032 . S
O355 C359 1.278 . S
C356 O357 1.203 . S
C356 O363 1.267 . S
O357 C356 1.203 . S
O358 C351 1.185 . S
O358 Zn354 2.086 . S
C359 O355 1.278 . S
C359 O360 1.211 . S
O360 C359 1.211 . S
C361 O353 1.284 . S
C361 O362 1.273 . S
O362 C361 1.273 . S
O363 Zn354 1.977 . S
O363 C356 1.267 . S
C364 O365 1.160 . S
C364 O371 1.185 . S
O365 C364 1.160 . S
O366 Zn367 1.899 . S
O366 C374 1.284 . S
Zn367 O366 1.899 . S
Zn367 O368 2.032 . S
Zn367 O371 2.086 . S
Zn367 O376 1.977 . S
O368 Zn367 2.032 . S
O368 C372 1.278 . S
C369 O370 1.203 . S
C369 O376 1.267 . S
O370 C369 1.203 . S
O371 C364 1.185 . S
O371 Zn367 2.086 . S
C372 O368 1.278 . S
C372 O373 1.211 . S
O373 C372 1.211 . S
C374 O366 1.284 . S
C374 O375 1.273 . S
O375 C374 1.273 . S
O376 Zn367 1.977 . S
O376 C369 1.267 . S
C377 O378 1.160 . S
C377 O384 1.185 . S
O378 C377 1.160 . S
O379 Zn380 1.899 . S
O379 C387 1.284 . S
Zn380 O379 1.899 . S
Zn380 O381 2.032 1_554 S
Zn380 O384 2.086 . S
Zn380 O389 1.977 . S
O381 Zn380 2.032 1_556 S
O381 C385 1.278 . S
C382 O383 1.203 . S
C382 O389 1.267 . S
O383 C382 1.203 . S
O384 C377 1.185 . S
O384 Zn380 2.086 . S
C385 O381 1.278 . S
C385 O386 1.211 . S
O386 C385 1.211 . S
C387 O379 1.284 . S
C387 O388 1.273 . S
O388 C387 1.273 . S
O389 Zn380 1.977 . S
O389 C382 1.267 . S
C390 O391 1.160 . S
C390 O397 1.185 . S
O391 C390 1.160 . S
O392 Zn393 1.899 . S
O392 C400 1.284 . S
Zn393 O392 1.899 . S
Zn393 O394 2.032 . S
Zn393 O397 2.086 . S
Zn393 O402 1.977 . S
O394 Zn393 2.032 . S
O394 C398 1.278 . S
C395 O396 1.203 . S
C395 O402 1.267 . S
O396 C395 1.203 . S
O397 C390 1.185 . S
O397 Zn393 2.086 . S
C398 O394 1.278 . S
C398 O399 1.211 . S
O399 C398 1.211 . S
C400 O392 1.284 . S
C400 O401 1.273 . S
O401 C400 1.273 . S
O402 Zn393 1.977 . S
O402 C395 1.267 . S
C403 O404 1.160 . S
C403 O410 1.185 . S
O404 C403 1.160 . S
O405 Zn406 1.899 . S
O405 C413 1.284 . S
Zn406 O405 1.899 . S
Zn406 O407 2.032 . S
Zn406 O410 2.086 . S
Zn406 O415 1.977 . S
O407 Zn406 2.032 . S
O407 C411 1.278 . S
C408 O409 1.203 . S
C408 O415 1.267 . S
O409 C408 1.203 . S
O410 C403 1.185 . S
O410 Zn406 2.086 . S
C411 O407 1.278 . S
C411 O412 1.211 . S
O412 C411 1.211 . S
C413 O405 1.284 . S
C413 O414 1.273 . S
O414 C413 1.273 . S
O415 Zn406 1.977 . S
O415 C408 1.267 . S
C416 C417 1.369 . S
C416 C418 1.419 . S
C416 H420 0.930 . S
C417 C416 1.369 . S
C417 C426 1.429 . S
C418 C416 1.419 . S
C418 C419 1.363 . S
C418 H421 0.929 . S
C419 C418 1.363 . S
C419 C425 1.428 . S
H420 C416 0.930 . S
H421 C418 0.929 . S
S422 N423 1.613 . S
S422 N424 1.610 . S
N423 S422 1.613 . S
N423 C426 1.350 . S
N424 S422 1.610 . S
N424 C425 1.351 . S
C425 C419 1.428 . S
C425 N424 1.351 . S
C425 C426 1.434 . S
C426 C417 1.429 . S
C426 N423 1.350 . S
C426 C425 1.434 . S
C427 C428 1.369 . S
C427 C429 1.419 . S
C427 H431 0.930 . S
C428 C427 1.369 . S
C428 C437 1.429 . S
C429 C427 1.419 . S
C429 C430 1.363 . S
C429 H432 0.929 . S
C430 C429 1.363 . S
C430 C436 1.428 . S
H431 C427 0.930 . S
H432 C429 0.929 . S
S433 N434 1.613 . S
S433 N435 1.610 . S
N434 S433 1.613 . S
N434 C437 1.350 . S
N435 S433 1.610 . S
N435 C436 1.351 . S
C436 C430 1.428 . S
C436 N435 1.351 . S
C436 C437 1.434 . S
C437 C428 1.429 . S
C437 N434 1.350 . S
C437 C436 1.434 . S
C438 C439 1.369 . S
C438 C440 1.419 . S
C438 H442 0.930 . S
C439 C438 1.369 . S
C439 C448 1.429 . S
C440 C438 1.419 . S
C440 C441 1.363 . S
C440 H443 0.929 . S
C441 C440 1.363 . S
C441 C447 1.428 . S
H442 C438 0.930 . S
H443 C440 0.929 . S
S444 N445 1.613 . S
S444 N446 1.610 . S
N445 S444 1.613 . S
N445 C448 1.350 . S
N446 S444 1.610 . S
N446 C447 1.351 . S
C447 C441 1.428 . S
C447 N446 1.351 . S
C447 C448 1.434 . S
C448 C439 1.429 . S
C448 N445 1.350 . S
C448 C447 1.434 . S
C449 C450 1.369 . S
C449 C451 1.419 . S
C449 H453 0.930 . S
C450 C449 1.369 . S
C450 C459 1.429 . S
C451 C449 1.419 . S
C451 C452 1.363 . S
C451 H454 0.929 . S
C452 C451 1.363 . S
C452 C458 1.428 . S
H453 C449 0.930 . S
H454 C451 0.929 . S
S455 N456 1.613 . S
S455 N457 1.610 . S
N456 S455 1.613 . S
N456 C459 1.350 . S
N457 S455 1.610 . S
N457 C458 1.351 . S
C458 C452 1.428 . S
C458 N457 1.351 . S
C458 C459 1.434 . S
C459 C450 1.429 . S
C459 N456 1.350 . S
C459 C458 1.434 . S
C460 C461 1.369 . S
C460 C462 1.419 . S
C460 H464 0.930 . S
C461 C460 1.369 . S
C461 C470 1.429 . S
C462 C460 1.419 . S
C462 C463 1.363 . S
C462 H465 0.929 . S
C463 C462 1.363 . S
C463 C469 1.428 . S
H464 C460 0.930 . S
H465 C462 0.929 . S
S466 N467 1.613 . S
S466 N468 1.610 . S
N467 S466 1.613 . S
N467 C470 1.350 . S
N468 S466 1.610 . S
N468 C469 1.351 . S
C469 C463 1.428 . S
C469 N468 1.351 . S
C469 C470 1.434 . S
C470 C461 1.429 . S
C470 N467 1.350 . S
C470 C469 1.434 . S
C471 C472 1.369 . S
C471 C473 1.419 . S
C471 H475 0.930 . S
C472 C471 1.369 . S
C472 C481 1.429 . S
C473 C471 1.419 . S
C473 C474 1.363 . S
C473 H476 0.929 . S
C474 C473 1.363 . S
C474 C480 1.428 . S
H475 C471 0.930 . S
H476 C473 0.929 . S
S477 N478 1.613 . S
S477 N479 1.610 . S
N478 S477 1.613 . S
N478 C481 1.350 . S
N479 S477 1.610 . S
N479 C480 1.351 . S
C480 C474 1.428 . S
C480 N479 1.351 . S
C480 C481 1.434 . S
C481 C472 1.429 . S
C481 N478 1.350 . S
C481 C480 1.434 . S
C482 C483 1.369 . S
C482 C484 1.419 . S
C482 H486 0.930 . S
C483 C482 1.369 . S
C483 C492 1.429 . S
C484 C482 1.419 . S
C484 C485 1.363 . S
C484 H487 0.929 . S
C485 C484 1.363 . S
C485 C491 1.428 . S
H486 C482 0.930 . S
H487 C484 0.929 . S
S488 N489 1.613 . S
S488 N490 1.610 . S
N489 S488 1.613 . S
N489 C492 1.350 . S
N490 S488 1.610 . S
N490 C491 1.351 . S
C491 C485 1.428 . S
C491 N490 1.351 . S
C491 C492 1.434 . S
C492 C483 1.429 . S
C492 N489 1.350 . S
C492 C491 1.434 . S
C493 C494 1.369 . S
C493 C495 1.419 . S
C493 H497 0.930 . S
C494 C493 1.369 . S
C494 C503 1.429 . S
C495 C493 1.419 . S
C495 C496 1.363 . S
C495 H498 0.929 . S
C496 C495 1.363 . S
C496 C502 1.428 . S
H497 C493 0.930 . S
H498 C495 0.929 . S
S499 N500 1.613 . S
S499 N501 1.610 . S
N500 S499 1.613 . S
N500 C503 1.350 . S
N501 S499 1.610 . S
N501 C502 1.351 . S
C502 C496 1.428 . S
C502 N501 1.351 . S
C502 C503 1.434 . S
C503 C494 1.429 . S
C503 N500 1.350 . S
C503 C502 1.434 . S
C504 C505 1.369 . S
C504 C506 1.419 . S
C504 H508 0.930 . S
C505 C504 1.369 . S
C505 C514 1.429 . S
C506 C504 1.419 . S
C506 C507 1.363 . S
C506 H509 0.929 . S
C507 C506 1.363 . S
C507 C513 1.428 . S
H508 C504 0.930 . S
H509 C506 0.929 . S
S510 N511 1.613 . S
S510 N512 1.610 . S
N511 S510 1.613 . S
N511 C514 1.350 . S
N512 S510 1.610 . S
N512 C513 1.351 . S
C513 C507 1.428 . S
C513 N512 1.351 . S
C513 C514 1.434 . S
C514 C505 1.429 . S
C514 N511 1.350 . S
C514 C513 1.434 . S
C515 C516 1.369 . S
C515 C517 1.419 . S
C515 H519 0.930 . S
C516 C515 1.369 . S
C516 C525 1.429 . S
C517 C515 1.419 . S
C517 C518 1.363 . S
C517 H520 0.929 . S
C518 C517 1.363 . S
C518 C524 1.428 . S
H519 C515 0.930 . S
H520 C517 0.929 . S
S521 N522 1.613 . S
S521 N523 1.610 . S
N522 S521 1.613 . S
N522 C525 1.350 . S
N523 S521 1.610 . S
N523 C524 1.351 . S
C524 C518 1.428 . S
C524 N523 1.351 . S
C524 C525 1.434 . S
C525 C516 1.429 . S
C525 N522 1.350 . S
C525 C524 1.434 . S
C526 C527 1.369 . S
C526 C528 1.419 . S
C526 H530 0.930 . S
C527 C526 1.369 . S
C527 C536 1.429 . S
C528 C526 1.419 . S
C528 C529 1.363 . S
C528 H531 0.929 . S
C529 C528 1.363 . S
C529 C535 1.428 . S
H530 C526 0.930 . S
H531 C528 0.929 . S
S532 N533 1.613 . S
S532 N534 1.610 . S
N533 S532 1.613 . S
N533 C536 1.350 . S
N534 S532 1.610 . S
N534 C535 1.351 . S
C535 C529 1.428 . S
C535 N534 1.351 . S
C535 C536 1.434 . S
C536 C527 1.429 . S
C536 N533 1.350 . S
C536 C535 1.434 . S
C537 C538 1.369 . S
C537 C539 1.419 . S
C537 H541 0.930 . S
C538 C537 1.369 . S
C538 C547 1.429 . S
C539 C537 1.419 . S
C539 C540 1.363 . S
C539 H542 0.929 . S
C540 C539 1.363 . S
C540 C546 1.428 . S
H541 C537 0.930 . S
H542 C539 0.929 . S
S543 N544 1.613 . S
S543 N545 1.610 . S
N544 S543 1.613 . S
N544 C547 1.350 . S
N545 S543 1.610 . S
N545 C546 1.351 . S
C546 C540 1.428 . S
C546 N545 1.351 . S
C546 C547 1.434 . S
C547 C538 1.429 . S
C547 N544 1.350 . S
C547 C546 1.434 . S
C548 C549 1.369 . S
C548 C550 1.419 . S
C548 H552 0.930 . S
C549 C548 1.369 . S
C549 C558 1.429 . S
C550 C548 1.419 . S
C550 C551 1.363 . S
C550 H553 0.929 . S
C551 C550 1.363 . S
C551 C557 1.428 . S
H552 C548 0.930 . S
H553 C550 0.929 . S
S554 N555 1.613 . S
S554 N556 1.610 . S
N555 S554 1.613 . S
N555 C558 1.350 . S
N556 S554 1.610 . S
N556 C557 1.351 . S
C557 C551 1.428 . S
C557 N556 1.351 . S
C557 C558 1.434 . S
C558 C549 1.429 . S
C558 N555 1.350 . S
C558 C557 1.434 . S
C559 C560 1.369 . S
C559 C561 1.419 . S
C559 H563 0.930 . S
C560 C559 1.369 . S
C560 C569 1.429 . S
C561 C559 1.419 . S
C561 C562 1.363 . S
C561 H564 0.929 . S
C562 C561 1.363 . S
C562 C568 1.428 . S
H563 C559 0.930 . S
H564 C561 0.929 . S
S565 N566 1.613 . S
S565 N567 1.610 . S
N566 S565 1.613 . S
N566 C569 1.350 . S
N567 S565 1.610 . S
N567 C568 1.351 . S
C568 C562 1.428 . S
C568 N567 1.351 . S
C568 C569 1.434 . S
C569 C560 1.429 . S
C569 N566 1.350 . S
C569 C568 1.434 . S
C570 C571 1.369 . S
C570 C572 1.419 . S
C570 H574 0.930 . S
C571 C570 1.369 . S
C571 C580 1.429 . S
C572 C570 1.419 . S
C572 C573 1.363 . S
C572 H575 0.929 . S
C573 C572 1.363 . S
C573 C579 1.428 . S
H574 C570 0.930 . S
H575 C572 0.929 . S
S576 N577 1.613 . S
S576 N578 1.610 . S
N577 S576 1.613 . S
N577 C580 1.350 . S
N578 S576 1.610 . S
N578 C579 1.351 . S
C579 C573 1.428 . S
C579 N578 1.351 . S
C579 C580 1.434 . S
C580 C571 1.429 . S
C580 N577 1.350 . S
C580 C579 1.434 . S
C581 C582 1.369 . S
C581 C583 1.419 . S
C581 H585 0.930 . S
C582 C581 1.369 . S
C582 C591 1.429 . S
C583 C581 1.419 . S
C583 C584 1.363 . S
C583 H586 0.929 . S
C584 C583 1.363 . S
C584 C590 1.428 . S
H585 C581 0.930 . S
H586 C583 0.929 . S
S587 N588 1.613 . S
S587 N589 1.610 . S
N588 S587 1.613 . S
N588 C591 1.350 . S
N589 S587 1.610 . S
N589 C590 1.351 . S
C590 C584 1.428 . S
C590 N589 1.351 . S
C590 C591 1.434 . S
C591 C582 1.429 . S
C591 N588 1.350 . S
C591 C590 1.434 . S
C592 C593 1.369 . S
C592 C594 1.419 . S
C592 H596 0.930 . S
C593 C592 1.369 . S
C593 C602 1.429 . S
C594 C592 1.419 . S
C594 C595 1.363 . S
C594 H597 0.929 . S
C595 C594 1.363 . S
C595 C601 1.428 . S
H596 C592 0.930 . S
H597 C594 0.929 . S
S598 N599 1.613 . S
S598 N600 1.610 . S
N599 S598 1.613 . S
N599 C602 1.350 . S
N600 S598 1.610 . S
N600 C601 1.351 . S
C601 C595 1.428 . S
C601 N600 1.351 . S
C601 C602 1.434 . S
C602 C593 1.429 . S
C602 N599 1.350 . S
C602 C601 1.434 . S
C603 C604 1.369 . S
C603 C605 1.419 . S
C603 H607 0.930 . S
C604 C603 1.369 . S
C604 C613 1.429 . S
C605 C603 1.419 . S
C605 C606 1.363 . S
C605 H608 0.929 . S
C606 C605 1.363 . S
C606 C612 1.428 . S
H607 C603 0.930 . S
H608 C605 0.929 . S
S609 N610 1.613 . S
S609 N611 1.610 . S
N610 S609 1.613 . S
N610 C613 1.350 . S
N611 S609 1.610 . S
N611 C612 1.351 . S
C612 C606 1.428 . S
C612 N611 1.351 . S
C612 C613 1.434 . S
C613 C604 1.429 . S
C613 N610 1.350 . S
C613 C612 1.434 . S
C614 C615 1.369 . S
C614 C616 1.419 . S
C614 H618 0.930 . S
C615 C614 1.369 . S
C615 C624 1.429 . S
C616 C614 1.419 . S
C616 C617 1.363 . S
C616 H619 0.929 . S
C617 C616 1.363 . S
C617 C623 1.428 . S
H618 C614 0.930 . S
H619 C616 0.929 . S
S620 N621 1.613 . S
S620 N622 1.610 . S
N621 S620 1.613 . S
N621 C624 1.350 . S
N622 S620 1.610 . S
N622 C623 1.351 . S
C623 C617 1.428 . S
C623 N622 1.351 . S
C623 C624 1.434 . S
C624 C615 1.429 . S
C624 N621 1.350 . S
C624 C623 1.434 . S
C625 C626 1.369 . S
C625 C627 1.419 . S
C625 H629 0.930 . S
C626 C625 1.369 . S
C626 C635 1.429 . S
C627 C625 1.419 . S
C627 C628 1.363 . S
C627 H630 0.929 . S
C628 C627 1.363 . S
C628 C634 1.428 . S
H629 C625 0.930 . S
H630 C627 0.929 . S
S631 N632 1.613 . S
S631 N633 1.610 . S
N632 S631 1.613 . S
N632 C635 1.350 . S
N633 S631 1.610 . S
N633 C634 1.351 . S
C634 C628 1.428 . S
C634 N633 1.351 . S
C634 C635 1.434 . S
C635 C626 1.429 . S
C635 N632 1.350 . S
C635 C634 1.434 . S
C636 C637 1.369 . S
C636 C638 1.419 . S
C636 H640 0.930 . S
C637 C636 1.369 . S
C637 C646 1.429 . S
C638 C636 1.419 . S
C638 C639 1.363 . S
C638 H641 0.929 . S
C639 C638 1.363 . S
C639 C645 1.428 . S
H640 C636 0.930 . S
H641 C638 0.929 . S
S642 N643 1.613 . S
S642 N644 1.610 . S
N643 S642 1.613 . S
N643 C646 1.350 . S
N644 S642 1.610 . S
N644 C645 1.351 . S
C645 C639 1.428 . S
C645 N644 1.351 . S
C645 C646 1.434 . S
C646 C637 1.429 . S
C646 N643 1.350 . S
C646 C645 1.434 . S
C647 C648 1.369 . S
C647 C649 1.419 . S
C647 H651 0.930 . S
C648 C647 1.369 . S
C648 C657 1.429 . S
C649 C647 1.419 . S
C649 C650 1.363 . S
C649 H652 0.929 . S
C650 C649 1.363 . S
C650 C656 1.428 . S
H651 C647 0.930 . S
H652 C649 0.929 . S
S653 N654 1.613 . S
S653 N655 1.610 . S
N654 S653 1.613 . S
N654 C657 1.350 . S
N655 S653 1.610 . S
N655 C656 1.351 . S
C656 C650 1.428 . S
C656 N655 1.351 . S
C656 C657 1.434 . S
C657 C648 1.429 . S
C657 N654 1.350 . S
C657 C656 1.434 . S
C658 C659 1.369 . S
C658 C660 1.419 . S
C658 H662 0.930 . S
C659 C658 1.369 . S
C659 C668 1.429 . S
C660 C658 1.419 . S
C660 C661 1.363 . S
C660 H663 0.929 . S
C661 C660 1.363 . S
C661 C667 1.428 . S
H662 C658 0.930 . S
H663 C660 0.929 . S
S664 N665 1.613 . S
S664 N666 1.610 . S
N665 S664 1.613 . S
N665 C668 1.350 . S
N666 S664 1.610 . S
N666 C667 1.351 . S
C667 C661 1.428 . S
C667 N666 1.351 . S
C667 C668 1.434 . S
C668 C659 1.429 . S
C668 N665 1.350 . S
C668 C667 1.434 . S
C669 C670 1.369 . S
C669 C671 1.419 . S
C669 H673 0.930 . S
C670 C669 1.369 . S
C670 C679 1.429 . S
C671 C669 1.419 . S
C671 C672 1.363 . S
C671 H674 0.929 . S
C672 C671 1.363 . S
C672 C678 1.428 . S
H673 C669 0.930 . S
H674 C671 0.929 . S
S675 N676 1.613 . S
S675 N677 1.610 . S
N676 S675 1.613 . S
N676 C679 1.350 . S
N677 S675 1.610 . S
N677 C678 1.351 . S
C678 C672 1.428 . S
C678 N677 1.351 . S
C678 C679 1.434 . S
C679 C670 1.429 . S
C679 N676 1.350 . S
C679 C678 1.434 . S
C680 C681 1.369 . S
C680 C682 1.419 . S
C680 H684 0.930 . S
C681 C680 1.369 . S
C681 C690 1.429 . S
C682 C680 1.419 . S
C682 C683 1.363 . S
C682 H685 0.929 . S
C683 C682 1.363 . S
C683 C689 1.428 . S
H684 C680 0.930 . S
H685 C682 0.929 . S
S686 N687 1.613 . S
S686 N688 1.610 . S
N687 S686 1.613 . S
N687 C690 1.350 . S
N688 S686 1.610 . S
N688 C689 1.351 . S
C689 C683 1.428 . S
C689 N688 1.351 . S
C689 C690 1.434 . S
C690 C681 1.429 . S
C690 N687 1.350 . S
C690 C689 1.434 . S
C691 C692 1.369 . S
C691 C693 1.419 . S
C691 H695 0.930 . S
C692 C691 1.369 . S
C692 C701 1.429 . S
C693 C691 1.419 . S
C693 C694 1.363 . S
C693 H696 0.929 . S
C694 C693 1.363 . S
C694 C700 1.428 . S
H695 C691 0.930 . S
H696 C693 0.929 . S
S697 N698 1.613 . S
S697 N699 1.610 . S
N698 S697 1.613 . S
N698 C701 1.350 . S
N699 S697 1.610 . S
N699 C700 1.351 . S
C700 C694 1.428 . S
C700 N699 1.351 . S
C700 C701 1.434 . S
C701 C692 1.429 . S
C701 N698 1.350 . S
C701 C700 1.434 . S
C702 C703 1.369 . S
C702 C704 1.419 . S
C702 H706 0.930 . S
C703 C702 1.369 . S
C703 C712 1.429 . S
C704 C702 1.419 . S
C704 C705 1.363 . S
C704 H707 0.929 . S
C705 C704 1.363 . S
C705 C711 1.428 . S
H706 C702 0.930 . S
H707 C704 0.929 . S
S708 N709 1.613 . S
S708 N710 1.610 . S
N709 S708 1.613 . S
N709 C712 1.350 . S
N710 S708 1.610 . S
N710 C711 1.351 . S
C711 C705 1.428 . S
C711 N710 1.351 . S
C711 C712 1.434 . S
C712 C703 1.429 . S
C712 N709 1.350 . S
C712 C711 1.434 . S
C713 C714 1.369 . S
C713 C715 1.419 . S
C713 H717 0.930 . S
C714 C713 1.369 . S
C714 C723 1.429 . S
C715 C713 1.419 . S
C715 C716 1.363 . S
C715 H718 0.929 . S
C716 C715 1.363 . S
C716 C722 1.428 . S
H717 C713 0.930 . S
H718 C715 0.929 . S
S719 N720 1.613 . S
S719 N721 1.610 . S
N720 S719 1.613 . S
N720 C723 1.350 . S
N721 S719 1.610 . S
N721 C722 1.351 . S
C722 C716 1.428 . S
C722 N721 1.351 . S
C722 C723 1.434 . S
C723 C714 1.429 . S
C723 N720 1.350 . S
C723 C722 1.434 . S
C724 C725 1.369 . S
C724 C726 1.419 . S
C724 H728 0.930 . S
C725 C724 1.369 . S
C725 C734 1.429 . S
C726 C724 1.419 . S
C726 C727 1.363 . S
C726 H729 0.929 . S
C727 C726 1.363 . S
C727 C733 1.428 . S
H728 C724 0.930 . S
H729 C726 0.929 . S
S730 N731 1.613 . S
S730 N732 1.610 . S
N731 S730 1.613 . S
N731 C734 1.350 . S
N732 S730 1.610 . S
N732 C733 1.351 . S
C733 C727 1.428 . S
C733 N732 1.351 . S
C733 C734 1.434 . S
C734 C725 1.429 . S
C734 N731 1.350 . S
C734 C733 1.434 . S
C735 C736 1.369 . S
C735 C737 1.419 . S
C735 H739 0.930 . S
C736 C735 1.369 . S
C736 C745 1.429 . S
C737 C735 1.419 . S
C737 C738 1.363 . S
C737 H740 0.929 . S
C738 C737 1.363 . S
C738 C744 1.428 . S
H739 C735 0.930 . S
H740 C737 0.929 . S
S741 N742 1.613 . S
S741 N743 1.610 . S
N742 S741 1.613 . S
N742 C745 1.350 . S
N743 S741 1.610 . S
N743 C744 1.351 . S
C744 C738 1.428 . S
C744 N743 1.351 . S
C744 C745 1.434 . S
C745 C736 1.429 . S
C745 N742 1.350 . S
C745 C744 1.434 . S
C746 C747 1.369 . S
C746 C748 1.419 . S
C746 H750 0.930 . S
C747 C746 1.369 . S
C747 C756 1.429 . S
C748 C746 1.419 . S
C748 C749 1.363 . S
C748 H751 0.929 . S
C749 C748 1.363 . S
C749 C755 1.428 . S
H750 C746 0.930 . S
H751 C748 0.929 . S
S752 N753 1.613 . S
S752 N754 1.610 . S
N753 S752 1.613 . S
N753 C756 1.350 . S
N754 S752 1.610 . S
N754 C755 1.351 . S
C755 C749 1.428 . S
C755 N754 1.351 . S
C755 C756 1.434 . S
C756 C747 1.429 . S
C756 N753 1.350 . S
C756 C755 1.434 . S
C757 C758 1.369 . S
C757 C759 1.419 . S
C757 H761 0.930 . S
C758 C757 1.369 . S
C758 C767 1.429 . S
C759 C757 1.419 . S
C759 C760 1.363 . S
C759 H762 0.929 . S
C760 C759 1.363 . S
C760 C766 1.428 . S
H761 C757 0.930 . S
H762 C759 0.929 . S
S763 N764 1.613 . S
S763 N765 1.610 . S
N764 S763 1.613 . S
N764 C767 1.350 . S
N765 S763 1.610 . S
N765 C766 1.351 . S
C766 C760 1.428 . S
C766 N765 1.351 . S
C766 C767 1.434 . S
C767 C758 1.429 . S
C767 N764 1.350 . S
C767 C766 1.434 . S
C768 C769 1.369 . S
C768 C770 1.419 . S
C768 H772 0.930 . S
C769 C768 1.369 . S
C769 C778 1.429 . S
C770 C768 1.419 . S
C770 C771 1.363 . S
C770 H773 0.929 . S
C771 C770 1.363 . S
C771 C777 1.428 . S
H772 C768 0.930 . S
H773 C770 0.929 . S
S774 N775 1.613 . S
S774 N776 1.610 . S
N775 S774 1.613 . S
N775 C778 1.350 . S
N776 S774 1.610 . S
N776 C777 1.351 . S
C777 C771 1.428 . S
C777 N776 1.351 . S
C777 C778 1.434 . S
C778 C769 1.429 . S
C778 N775 1.350 . S
C778 C777 1.434 . S
C779 C780 1.369 . S
C779 C781 1.419 . S
C779 H783 0.930 . S
C780 C779 1.369 . S
C780 C789 1.429 . S
C781 C779 1.419 . S
C781 C782 1.363 . S
C781 H784 0.929 . S
C782 C781 1.363 . S
C782 C788 1.428 . S
H783 C779 0.930 . S
H784 C781 0.929 . S
S785 N786 1.613 . S
S785 N787 1.610 . S
N786 S785 1.613 . S
N786 C789 1.350 . S
N787 S785 1.610 . S
N787 C788 1.351 . S
C788 C782 1.428 . S
C788 N787 1.351 . S
C788 C789 1.434 . S
C789 C780 1.429 . S
C789 N786 1.350 . S
C789 C788 1.434 . S
C790 C791 1.369 . S
C790 C792 1.419 . S
C790 H794 0.930 . S
C791 C790 1.369 . S
C791 C800 1.429 . S
C792 C790 1.419 . S
C792 C793 1.363 . S
C792 H795 0.929 . S
C793 C792 1.363 . S
C793 C799 1.428 . S
H794 C790 0.930 . S
H795 C792 0.929 . S
S796 N797 1.613 . S
S796 N798 1.610 . S
N797 S796 1.613 . S
N797 C800 1.350 . S
N798 S796 1.610 . S
N798 C799 1.351 . S
C799 C793 1.428 . S
C799 N798 1.351 . S
C799 C800 1.434 . S
C800 C791 1.429 . S
C800 N797 1.350 . S
C800 C799 1.434 . S
C801 C802 1.369 . S
C801 C803 1.419 . S
C801 H805 0.930 . S
C802 C801 1.369 . S
C802 C811 1.429 . S
C803 C801 1.419 . S
C803 C804 1.363 . S
C803 H806 0.929 . S
C804 C803 1.363 . S
C804 C810 1.428 . S
H805 C801 0.930 . S
H806 C803 0.929 . S
S807 N808 1.613 . S
S807 N809 1.610 . S
N808 S807 1.613 . S
N808 C811 1.350 . S
N809 S807 1.610 . S
N809 C810 1.351 . S
C810 C804 1.428 . S
C810 N809 1.351 . S
C810 C811 1.434 . S
C811 C802 1.429 . S
C811 N808 1.350 . S
C811 C810 1.434 . S
C812 C813 1.369 . S
C812 C814 1.419 . S
C812 H816 0.930 . S
C813 C812 1.369 . S
C813 C822 1.429 . S
C814 C812 1.419 . S
C814 C815 1.363 . S
C814 H817 0.929 . S
C815 C814 1.363 . S
C815 C821 1.428 . S
H816 C812 0.930 . S
H817 C814 0.929 . S
S818 N819 1.613 . S
S818 N820 1.610 . S
N819 S818 1.613 . S
N819 C822 1.350 . S
N820 S818 1.610 . S
N820 C821 1.351 . S
C821 C815 1.428 . S
C821 N820 1.351 . S
C821 C822 1.434 . S
C822 C813 1.429 . S
C822 N819 1.350 . S
C822 C821 1.434 . S
C823 C824 1.369 . S
C823 C825 1.419 . S
C823 H827 0.930 . S
C824 C823 1.369 . S
C824 C833 1.429 . S
C825 C823 1.419 . S
C825 C826 1.363 . S
C825 H828 0.929 . S
C826 C825 1.363 . S
C826 C832 1.428 . S
H827 C823 0.930 . S
H828 C825 0.929 . S
S829 N830 1.625 . S
S829 N831 1.610 . S
N830 S829 1.625 . S
N830 C833 1.375 . S
N831 S829 1.610 . S
N831 C832 1.351 . S
C832 C826 1.428 . S
C832 N831 1.351 . S
C832 C833 1.434 . S
C833 C824 1.429 . S
C833 N830 1.375 . S
C833 C832 1.434 . S
C834 C835 1.369 . S
C834 C836 1.419 . S
C834 H838 0.930 . S
C835 C834 1.369 . S
C835 C844 1.429 . S
C836 C834 1.419 . S
C836 C837 1.363 . S
C836 H839 0.929 . S
C837 C836 1.363 . S
C837 C843 1.428 . S
H838 C834 0.930 . S
H839 C836 0.929 . S
S840 N841 1.613 . S
S840 N842 1.610 . S
N841 S840 1.613 . S
N841 C844 1.350 . S
N842 S840 1.610 . S
N842 C843 1.351 . S
C843 C837 1.428 . S
C843 N842 1.351 . S
C843 C844 1.434 . S
C844 C835 1.429 . S
C844 N841 1.350 . S
C844 C843 1.434 . S
C845 C846 1.369 . S
C845 C847 1.419 . S
C845 H849 0.930 . S
C846 C845 1.369 . S
C846 C855 1.429 . S
C847 C845 1.419 . S
C847 C848 1.363 . S
C847 H850 0.929 . S
C848 C847 1.363 . S
C848 C854 1.428 . S
H849 C845 0.930 . S
H850 C847 0.929 . S
S851 N852 1.613 . S
S851 N853 1.610 . S
N852 S851 1.613 . S
N852 C855 1.350 . S
N853 S851 1.610 . S
N853 C854 1.351 . S
C854 C848 1.428 . S
C854 N853 1.351 . S
C854 C855 1.434 . S
C855 C846 1.429 . S
C855 N852 1.350 . S
C855 C854 1.434 . S
C856 C857 1.369 . S
C856 C858 1.419 . S
C856 H860 0.930 . S
C857 C856 1.369 . S
C857 C866 1.429 . S
C858 C856 1.419 . S
C858 C859 1.363 . S
C858 H861 0.929 . S
C859 C858 1.363 . S
C859 C865 1.428 . S
H860 C856 0.930 . S
H861 C858 0.929 . S
S862 N863 1.613 . S
S862 N864 1.610 . S
N863 S862 1.613 . S
N863 C866 1.350 . S
N864 S862 1.610 . S
N864 C865 1.351 . S
C865 C859 1.428 . S
C865 N864 1.351 . S
C865 C866 1.434 . S
C866 C857 1.429 . S
C866 N863 1.350 . S
C866 C865 1.434 . S
C867 C868 1.369 . S
C867 C869 1.419 . S
C867 H871 0.930 . S
C868 C867 1.369 . S
C868 C877 1.429 . S
C869 C867 1.419 . S
C869 C870 1.363 . S
C869 H872 0.929 . S
C870 C869 1.363 . S
C870 C876 1.428 . S
H871 C867 0.930 . S
H872 C869 0.929 . S
S873 N874 1.613 . S
S873 N875 1.610 . S
N874 S873 1.613 . S
N874 C877 1.350 . S
N875 S873 1.610 . S
N875 C876 1.351 . S
C876 C870 1.428 . S
C876 N875 1.351 . S
C876 C877 1.434 . S
C877 C868 1.429 . S
C877 N874 1.350 . S
C877 C876 1.434 . S
C878 C879 1.369 . S
C878 C880 1.419 . S
C878 H882 0.930 . S
C879 C878 1.369 . S
C879 C888 1.429 . S
C880 C878 1.419 . S
C880 C881 1.363 . S
C880 H883 0.929 . S
C881 C880 1.363 . S
C881 C887 1.428 . S
H882 C878 0.930 . S
H883 C880 0.929 . S
S884 N885 1.613 . S
S884 N886 1.610 . S
N885 S884 1.613 . S
N885 C888 1.350 . S
N886 S884 1.610 . S
N886 C887 1.351 . S
C887 C881 1.428 . S
C887 N886 1.351 . S
C887 C888 1.434 . S
C888 C879 1.429 . S
C888 N885 1.350 . S
C888 C887 1.434 . S
C889 C890 1.369 . S
C889 C891 1.419 . S
C889 H893 0.930 . S
C890 C889 1.369 . S
C890 C899 1.429 . S
C891 C889 1.419 . S
C891 C892 1.363 . S
C891 H894 0.929 . S
C892 C891 1.363 . S
C892 C898 1.428 . S
H893 C889 0.930 . S
H894 C891 0.929 . S
S895 N896 1.613 . S
S895 N897 1.610 . S
N896 S895 1.613 . S
N896 C899 1.350 . S
N897 S895 1.610 . S
N897 C898 1.351 . S
C898 C892 1.428 . S
C898 N897 1.351 . S
C898 C899 1.434 . S
C899 C890 1.429 . S
C899 N896 1.350 . S
C899 C898 1.434 . S
C900 C901 1.369 . S
C900 C902 1.419 . S
C900 H904 0.930 . S
C901 C900 1.369 . S
C901 C910 1.429 . S
C902 C900 1.419 . S
C902 C903 1.363 . S
C902 H905 0.929 . S
C903 C902 1.363 . S
C903 C909 1.428 . S
H904 C900 0.930 . S
H905 C902 0.929 . S
S906 N907 1.613 . S
S906 N908 1.610 . S
N907 S906 1.613 . S
N907 C910 1.350 . S
N908 S906 1.610 . S
N908 C909 1.351 . S
C909 C903 1.428 . S
C909 N908 1.351 . S
C909 C910 1.434 . S
C910 C901 1.429 . S
C910 N907 1.350 . S
C910 C909 1.434 . S
C911 C912 1.369 . S
C911 C913 1.419 . S
C911 H915 0.930 . S
C912 C911 1.369 . S
C912 C921 1.429 . S
C913 C911 1.419 . S
C913 C914 1.363 . S
C913 H916 0.929 . S
C914 C913 1.363 . S
C914 C920 1.428 . S
H915 C911 0.930 . S
H916 C913 0.929 . S
S917 N918 1.613 . S
S917 N919 1.610 . S
N918 S917 1.613 . S
N918 C921 1.350 . S
N919 S917 1.610 . S
N919 C920 1.351 . S
C920 C914 1.428 . S
C920 N919 1.351 . S
C920 C921 1.434 . S
C921 C912 1.429 . S
C921 N918 1.350 . S
C921 C920 1.434 . S
C922 C923 1.369 . S
C922 C924 1.419 . S
C922 H926 0.930 . S
C923 C922 1.369 . S
C923 C932 1.429 . S
C924 C922 1.419 . S
C924 C925 1.363 . S
C924 H927 0.929 . S
C925 C924 1.363 . S
C925 C931 1.428 . S
H926 C922 0.930 . S
H927 C924 0.929 . S
S928 N929 1.613 . S
S928 N930 1.610 . S
N929 S928 1.613 . S
N929 C932 1.350 . S
N930 S928 1.610 . S
N930 C931 1.351 . S
C931 C925 1.428 . S
C931 N930 1.351 . S
C931 C932 1.434 . S
C932 C923 1.429 . S
C932 N929 1.350 . S
C932 C931 1.434 . S
C933 C934 1.369 . S
C933 C935 1.419 . S
C933 H937 0.930 . S
C934 C933 1.369 . S
C934 C943 1.429 . S
C935 C933 1.419 . S
C935 C936 1.363 . S
C935 H938 0.929 . S
C936 C935 1.363 . S
C936 C942 1.428 . S
H937 C933 0.930 . S
H938 C935 0.929 . S
S939 N940 1.613 . S
S939 N941 1.610 . S
N940 S939 1.613 . S
N940 C943 1.350 . S
N941 S939 1.610 . S
N941 C942 1.351 . S
C942 C936 1.428 . S
C942 N941 1.351 . S
C942 C943 1.434 . S
C943 C934 1.429 . S
C943 N940 1.350 . S
C943 C942 1.434 . S
C944 C945 1.369 . S
C944 C946 1.419 . S
C944 H948 0.930 . S
C945 C944 1.369 . S
C945 C954 1.429 . S
C946 C944 1.419 . S
C946 C947 1.363 . S
C946 H949 0.929 . S
C947 C946 1.363 . S
C947 C953 1.428 . S
H948 C944 0.930 . S
H949 C946 0.929 . S
S950 N951 1.613 . S
S950 N952 1.610 . S
N951 S950 1.613 . S
N951 C954 1.350 . S
N952 S950 1.610 . S
N952 C953 1.351 . S
C953 C947 1.428 . S
C953 N952 1.351 . S
C953 C954 1.434 . S
C954 C945 1.429 . S
C954 N951 1.350 . S
C954 C953 1.434 . S
C955 C956 1.369 . S
C955 C957 1.419 . S
C955 H959 0.930 . S
C956 C955 1.369 . S
C956 C965 1.429 . S
C957 C955 1.419 . S
C957 C958 1.363 . S
C957 H960 0.929 . S
C958 C957 1.363 . S
C958 C964 1.428 . S
H959 C955 0.930 . S
H960 C957 0.929 . S
S961 N962 1.613 . S
S961 N963 1.610 . S
N962 S961 1.613 . S
N962 C965 1.350 . S
N963 S961 1.610 . S
N963 C964 1.351 . S
C964 C958 1.428 . S
C964 N963 1.351 . S
C964 C965 1.434 . S
C965 C956 1.429 . S
C965 N962 1.350 . S
C965 C964 1.434 . S
C966 C967 1.369 . S
C966 C968 1.419 . S
C966 H970 0.930 . S
C967 C966 1.369 . S
C967 C976 1.429 . S
C968 C966 1.419 . S
C968 C969 1.363 . S
C968 H971 0.929 . S
C969 C968 1.363 . S
C969 C975 1.428 . S
H970 C966 0.930 . S
H971 C968 0.929 . S
S972 N973 1.613 . S
S972 N974 1.610 . S
N973 S972 1.613 . S
N973 C976 1.350 . S
N974 S972 1.610 . S
N974 C975 1.351 . S
C975 C969 1.428 . S
C975 N974 1.351 . S
C975 C976 1.434 . S
C976 C967 1.429 . S
C976 N973 1.350 . S
C976 C975 1.434 . S
C977 C978 1.369 . S
C977 C979 1.419 . S
C977 H981 0.930 . S
C978 C977 1.369 . S
C978 C987 1.429 1_556 S
C979 C977 1.419 . S
C979 C980 1.363 1_556 S
C979 H982 0.929 . S
C980 C979 1.363 1_554 S
C980 C986 1.428 . S
H981 C977 0.930 . S
H982 C979 0.929 . S
S983 N984 1.613 . S
S983 N985 1.610 . S
N984 S983 1.613 . S
N984 C987 1.350 . S
N985 S983 1.610 . S
N985 C986 1.351 . S
C986 C980 1.428 . S
C986 N985 1.351 . S
C986 C987 1.434 . S
C987 C978 1.429 1_554 S
C987 N984 1.350 . S
C987 C986 1.434 . S
C988 C989 1.369 . S
C988 C990 1.419 . S
C988 H992 0.930 . S
C989 C988 1.369 . S
C989 C998 1.429 . S
C990 C988 1.419 . S
C990 C991 1.363 . S
C990 H993 0.929 . S
C991 C990 1.363 . S
C991 C997 1.428 . S
H992 C988 0.930 . S
H993 C990 0.929 . S
S994 N995 1.613 . S
S994 N996 1.610 . S
N995 S994 1.613 . S
N995 C998 1.350 . S
N996 S994 1.610 . S
N996 C997 1.351 . S
C997 C991 1.428 . S
C997 N996 1.351 . S
C997 C998 1.434 . S
C998 C989 1.429 . S
C998 N995 1.350 . S
C998 C997 1.434 . S
C999 C1000 1.369 . S
C999 C1001 1.419 . S
C999 H1003 0.930 . S
C1000 C999 1.369 . S
C1000 C1009 1.429 . S
C1001 C999 1.419 . S
C1001 C1002 1.363 . S
C1001 H1004 0.929 . S
C1002 C1001 1.363 . S
C1002 C1008 1.428 . S
H1003 C999 0.930 . S
H1004 C1001 0.929 . S
S1005 N1006 1.613 . S
S1005 N1007 1.610 . S
N1006 S1005 1.613 . S
N1006 C1009 1.350 . S
N1007 S1005 1.610 . S
N1007 C1008 1.351 . S
C1008 C1002 1.428 . S
C1008 N1007 1.351 . S
C1008 C1009 1.434 . S
C1009 C1000 1.429 . S
C1009 N1006 1.350 . S
C1009 C1008 1.434 . S
C1010 C1011 1.369 . S
C1010 C1012 1.419 . S
C1010 H1014 0.930 . S
C1011 C1010 1.369 . S
C1011 C1020 1.429 . S
C1012 C1010 1.419 . S
C1012 C1013 1.363 . S
C1012 H1015 0.929 . S
C1013 C1012 1.363 . S
C1013 C1019 1.428 . S
H1014 C1010 0.930 . S
H1015 C1012 0.929 . S
S1016 N1017 1.613 . S
S1016 N1018 1.610 . S
N1017 S1016 1.613 . S
N1017 C1020 1.350 . S
N1018 S1016 1.610 . S
N1018 C1019 1.351 . S
C1019 C1013 1.428 . S
C1019 N1018 1.351 . S
C1019 C1020 1.434 . S
C1020 C1011 1.429 . S
C1020 N1017 1.350 . S
C1020 C1019 1.434 . S
C1021 C1022 1.369 . S
C1021 C1023 1.419 . S
C1021 H1025 0.930 . S
C1022 C1021 1.369 . S
C1022 C1031 1.429 1_554 S
C1023 C1021 1.419 . S
C1023 C1024 1.363 1_554 S
C1023 H1026 0.929 . S
C1024 C1023 1.363 1_556 S
C1024 C1030 1.428 . S
H1025 C1021 0.930 . S
H1026 C1023 0.929 . S
S1027 N1028 1.613 . S
S1027 N1029 1.610 . S
N1028 S1027 1.613 . S
N1028 C1031 1.350 . S
N1029 S1027 1.610 . S
N1029 C1030 1.351 . S
C1030 C1024 1.428 . S
C1030 N1029 1.351 . S
C1030 C1031 1.434 . S
C1031 C1022 1.429 1_556 S
C1031 N1028 1.350 . S
C1031 C1030 1.434 . S
C1032 C1033 1.369 . S
C1032 C1034 1.419 1_565 S
C1032 H1036 0.930 . S
C1033 C1032 1.369 . S
C1033 C1042 1.429 . S
C1034 C1032 1.419 1_545 S
C1034 C1035 1.363 . S
C1034 H1037 0.929 . S
C1035 C1034 1.363 . S
C1035 C1041 1.428 . S
H1036 C1032 0.930 . S
H1037 C1034 0.929 . S
S1038 N1039 1.613 . S
S1038 N1040 1.610 1_565 S
N1039 S1038 1.613 . S
N1039 C1042 1.350 . S
N1040 S1038 1.610 1_545 S
N1040 C1041 1.351 . S
C1041 C1035 1.428 . S
C1041 N1040 1.351 . S
C1041 C1042 1.434 1_545 S
C1042 C1033 1.429 . S
C1042 N1039 1.350 . S
C1042 C1041 1.434 1_565 S
C1043 C1044 1.369 . S
C1043 C1045 1.419 . S
C1043 H1047 0.930 . S
C1044 C1043 1.369 . S
C1044 C1053 1.429 1_554 S
C1045 C1043 1.419 . S
C1045 C1046 1.363 1_554 S
C1045 H1048 0.929 . S
C1046 C1045 1.363 1_556 S
C1046 C1052 1.428 . S
H1047 C1043 0.930 . S
H1048 C1045 0.929 . S
S1049 N1050 1.613 . S
S1049 N1051 1.610 . S
N1050 S1049 1.613 . S
N1050 C1053 1.350 . S
N1051 S1049 1.610 . S
N1051 C1052 1.351 . S
C1052 C1046 1.428 . S
C1052 N1051 1.351 . S
C1052 C1053 1.434 . S
C1053 C1044 1.429 1_556 S
C1053 N1050 1.350 . S
C1053 C1052 1.434 . S
C1054 C1055 1.369 . S
C1054 C1056 1.419 1_545 S
C1054 H1058 0.930 . S
C1055 C1054 1.369 . S
C1055 C1064 1.429 . S
C1056 C1054 1.419 1_565 S
C1056 C1057 1.363 . S
C1056 H1059 0.929 . S
C1057 C1056 1.363 . S
C1057 C1063 1.442 . S
H1058 C1054 0.930 . S
H1059 C1056 0.929 . S
S1060 N1061 1.613 . S
S1060 N1062 1.610 . S
N1061 S1060 1.613 . S
N1061 C1064 1.350 . S
N1062 S1060 1.610 . S
N1062 C1063 1.349 1_545 S
C1063 C1057 1.442 . S
C1063 N1062 1.349 1_565 S
C1063 C1064 1.420 1_565 S
C1064 C1055 1.429 . S
C1064 N1061 1.350 . S
C1064 C1063 1.420 1_545 S
C1065 C1066 1.369 . S
C1065 C1067 1.419 . S
C1065 H1069 0.930 . S
C1066 C1065 1.369 . S
C1066 C1075 1.429 . S
C1067 C1065 1.419 . S
C1067 C1068 1.363 . S
C1067 H1070 0.929 . S
C1068 C1067 1.363 . S
C1068 C1074 1.428 . S
H1069 C1065 0.930 . S
H1070 C1067 0.929 . S
S1071 N1072 1.613 . S
S1071 N1073 1.610 . S
N1072 S1071 1.613 . S
N1072 C1075 1.350 . S
N1073 S1071 1.610 . S
N1073 C1074 1.351 . S
C1074 C1068 1.428 . S
C1074 N1073 1.351 . S
C1074 C1075 1.434 . S
C1075 C1066 1.429 . S
C1075 N1072 1.350 . S
C1075 C1074 1.434 . S
C1076 C1077 1.369 . S
C1076 C1078 1.419 1_545 S
C1076 H1080 0.930 . S
C1077 C1076 1.369 . S
C1077 C1086 1.429 . S
C1078 C1076 1.419 1_565 S
C1078 C1079 1.363 . S
C1078 H1081 0.929 . S
C1079 C1078 1.363 . S
C1079 C1085 1.452 . S
H1080 C1076 0.930 . S
H1081 C1078 0.929 . S
S1082 N1083 1.613 . S
S1082 N1084 1.610 . S
N1083 S1082 1.613 . S
N1083 C1086 1.350 . S
N1084 S1082 1.610 . S
N1084 C1085 1.348 1_545 S
C1085 C1079 1.452 . S
C1085 N1084 1.348 1_565 S
C1085 C1086 1.410 1_565 S
C1086 C1077 1.429 . S
C1086 N1083 1.350 . S
C1086 C1085 1.410 1_545 S
C1087 C1088 1.369 . S
C1087 C1089 1.419 . S
C1087 H1091 0.930 . S
C1088 C1087 1.369 . S
C1088 C1097 1.429 1_554 S
C1089 C1087 1.419 . S
C1089 C1090 1.363 1_554 S
C1089 H1092 0.929 . S
C1090 C1089 1.363 1_556 S
C1090 C1096 1.428 . S
H1091 C1087 0.930 . S
H1092 C1089 0.929 . S
S1093 N1094 1.613 . S
S1093 N1095 1.610 . S
N1094 S1093 1.613 . S
N1094 C1097 1.350 . S
N1095 S1093 1.610 . S
N1095 C1096 1.351 . S
C1096 C1090 1.428 . S
C1096 N1095 1.351 . S
C1096 C1097 1.434 . S
C1097 C1088 1.429 1_556 S
C1097 N1094 1.350 . S
C1097 C1096 1.434 . S
C1098 C1099 1.369 . S
C1098 C1100 1.419 1_545 S
C1098 H1102 0.930 . S
C1099 C1098 1.369 . S
C1099 C1108 1.429 . S
C1100 C1098 1.419 1_565 S
C1100 C1101 1.363 . S
C1100 H1103 0.929 . S
C1101 C1100 1.363 . S
C1101 C1107 1.428 . S
H1102 C1098 0.930 . S
H1103 C1100 0.929 . S
S1104 N1105 1.613 . S
S1104 N1106 1.610 . S
N1105 S1104 1.613 . S
N1105 C1108 1.350 . S
N1106 S1104 1.610 . S
N1106 C1107 1.351 1_545 S
C1107 C1101 1.428 . S
C1107 N1106 1.351 1_565 S
C1107 C1108 1.434 1_565 S
C1108 C1099 1.429 . S
C1108 N1105 1.350 . S
C1108 C1107 1.434 1_545 S
C1109 C1110 1.369 . S
C1109 C1111 1.419 . S
C1109 H1113 0.930 . S
C1110 C1109 1.369 . S
C1110 C1119 1.429 . S
C1111 C1109 1.419 . S
C1111 C1112 1.363 . S
C1111 H1114 0.929 . S
C1112 C1111 1.363 . S
C1112 C1118 1.428 . S
H1113 C1109 0.930 . S
H1114 C1111 0.929 . S
S1115 N1116 1.613 . S
S1115 N1117 1.610 . S
N1116 S1115 1.613 . S
N1116 C1119 1.350 . S
N1117 S1115 1.610 . S
N1117 C1118 1.351 . S
C1118 C1112 1.428 . S
C1118 N1117 1.351 . S
C1118 C1119 1.434 . S
C1119 C1110 1.429 . S
C1119 N1116 1.350 . S
C1119 C1118 1.434 . S
C417 C8 1.342 . S
C419 C281 1.340 . S
C428 C294 1.335 . S
C430 C21 1.346 . S
C439 C34 1.336 . S
C441 C307 1.346 . S
C450 C268 1.343 . S
C452 C47 1.340 . S
C461 C60 1.336 . S
C463 C255 1.345 . S
C472 C73 1.348 . S
C474 C216 1.336 . S
C483 C229 1.335 . S
C485 C86 1.346 . S
C494 C99 1.337 . S
C496 C242 1.345 . S
C505 C112 1.340 . S
C507 C385 1.343 . S
C516 C125 1.335 . S
C518 C398 1.346 . S
C527 C411 1.335 . S
C529 C138 1.345 . S
C538 C372 1.335 . S
C540 C151 1.345 . S
C549 C164 1.348 . S
C551 C359 1.336 . S
C560 C320 1.335 . S
C562 C177 1.346 . S
C571 C190 1.347 . S
C573 C333 1.337 . S
C582 C346 1.335 . S
C584 C203 1.346 . S
C593 C5 1.158 . S
C595 C127 1.272 . S
C604 C18 1.146 . S
C606 C348 1.272 1_655 S
C615 C153 1.272 . S
C617 C31 1.157 . S
C626 C44 1.156 . S
C628 C322 1.272 . S
C637 C57 1.147 . S
C639 C205 1.273 . S
C648 C374 1.272 . S
C650 C70 1.145 . S
C659 C179 1.272 . S
C661 C83 1.144 . S
C670 C400 1.272 1_655 S
C672 C96 1.153 . S
C681 C109 1.142 . S
C683 C23 1.272 . S
C692 C244 1.272 1_455 S
C694 C122 1.144 . S
C703 C49 1.273 . S
C705 C135 1.157 . S
C714 C148 1.150 . S
C716 C218 1.272 . S
C725 C101 1.272 . S
C727 C161 1.152 . S
C736 C270 1.273 . S
C738 C174 1.158 . S
C747 C75 1.272 . S
C749 C187 1.145 . S
C758 C200 1.157 . S
C760 C296 1.272 1_455 S
C769 C335 1.273 . S
C771 C213 1.158 . S
C780 C140 1.272 . S
C782 C226 1.144 . S
C791 C361 1.273 . S
C793 C239 1.155 . S
C802 C252 1.159 . S
C804 C114 1.273 1_455 S
C813 C413 1.272 . S
C815 C265 1.145 . S
C824 C166 1.272 1_455 S
C826 C278 1.146 . S
C835 C387 1.273 . S
C837 C291 1.158 . S
C846 C304 1.160 . S
C848 C192 1.273 . S
C857 C317 1.142 . S
C859 C231 1.272 . S
C868 C36 1.273 . S
C870 C330 1.157 . S
C879 C343 1.154 . S
C881 C257 1.272 . S
C890 C356 1.151 . S
C892 C10 1.272 1_655 S
C901 C369 1.153 . S
C903 C309 1.273 . S
C912 C62 1.272 1_655 S
C914 C382 1.155 . S
C923 C283 1.272 . S
C925 C395 1.157 . S
C934 C408 1.159 . S
C936 C88 1.273 . S
C945 C0 1.357 . S
C947 C52 1.362 . S
C956 C13 1.361 . S
C958 C65 1.363 . S
C967 C78 1.358 . S
C969 C26 1.362 . S
C978 C91 1.355 . S
C980 C39 1.360 . S
C989 C156 1.358 . S
C991 C104 1.363 . S
C1000 C169 1.360 . S
C1002 C117 1.363 . S
C1011 C182 1.364 . S
C1013 C130 1.359 . S
C1022 C195 1.354 . S
C1024 C143 1.359 . S
C1033 C208 1.364 . S
C1035 C260 1.362 . S
C1044 C221 1.363 . S
C1046 C273 1.362 . S
C1055 C234 1.357 . S
C1057 C286 1.362 . S
C1066 C299 1.362 . S
C1068 C247 1.363 . S
C1077 C312 1.355 . S
C1079 C364 1.361 . S
C1088 C377 1.354 . S
C1090 C325 1.359 . S
C1099 C390 1.356 . S
C1101 C338 1.361 . S
C1110 C403 1.353 . S
C1112 C351 1.358 . S
