# Generated by pormake.
# Topology ukb, (4)-cn, num edge types: 1
# Building blocks:
#     Node 0, Type 0, BuildingBlock: AZAVOO_clean_sbu_0, # of connection points: 4
#     Node 1, Type 0, BuildingBlock: AZAVOO_clean_sbu_0, # of connection points: 4
#     Node 2, Type 0, BuildingBlock: AZAVOO_clean_sbu_0, # of connection points: 4
#     Node 3, Type 0, BuildingBlock: AZAVOO_clean_sbu_0, # of connection points: 4
#     Node 4, Type 0, BuildingBlock: AZAVOO_clean_sbu_0, # of connection points: 4
#     Node 5, Type 0, BuildingBlock: AZAVOO_clean_sbu_0, # of connection points: 4
#     Node 6, Type 0, BuildingBlock: AZAVOO_clean_sbu_0, # of connection points: 4
#     Node 7, Type 0, BuildingBlock: AZAVOO_clean_sbu_0, # of connection points: 4
#     Node 8, Type 0, BuildingBlock: AZAVOO_clean_sbu_0, # of connection points: 4
#     Node 9, Type 0, BuildingBlock: AZAVOO_clean_sbu_0, # of connection points: 4
#     Node 10, Type 0, BuildingBlock: AZAVOO_clean_sbu_0, # of connection points: 4
#     Node 11, Type 0, BuildingBlock: AZAVOO_clean_sbu_0, # of connection points: 4
#     Node 12, Type 0, BuildingBlock: AZAVOO_clean_sbu_0, # of connection points: 4
#     Node 13, Type 0, BuildingBlock: AZAVOO_clean_sbu_0, # of connection points: 4
#     Node 14, Type 0, BuildingBlock: AZAVOO_clean_sbu_0, # of connection points: 4
#     Node 15, Type 0, BuildingBlock: AZAVOO_clean_sbu_0, # of connection points: 4
#     Edge 16, Type (0, 0), BuildingBlock: KIFKEQ_clean_linker_1, # of connection points: 2
#     Edge 17, Type (0, 0), BuildingBlock: KIFKEQ_clean_linker_1, # of connection points: 2
#     Edge 18, Type (0, 0), BuildingBlock: KIFKEQ_clean_linker_1, # of connection points: 2
#     Edge 19, Type (0, 0), BuildingBlock: KIFKEQ_clean_linker_1, # of connection points: 2
#     Edge 20, Type (0, 0), BuildingBlock: KIFKEQ_clean_linker_1, # of connection points: 2
#     Edge 21, Type (0, 0), BuildingBlock: KIFKEQ_clean_linker_1, # of connection points: 2
#     Edge 22, Type (0, 0), BuildingBlock: KIFKEQ_clean_linker_1, # of connection points: 2
#     Edge 23, Type (0, 0), BuildingBlock: KIFKEQ_clean_linker_1, # of connection points: 2
#     Edge 24, Type (0, 0), BuildingBlock: KIFKEQ_clean_linker_1, # of connection points: 2
#     Edge 25, Type (0, 0), BuildingBlock: KIFKEQ_clean_linker_1, # of connection points: 2
#     Edge 26, Type (0, 0), BuildingBlock: KIFKEQ_clean_linker_1, # of connection points: 2
#     Edge 27, Type (0, 0), BuildingBlock: KIFKEQ_clean_linker_1, # of connection points: 2
#     Edge 28, Type (0, 0), BuildingBlock: KIFKEQ_clean_linker_1, # of connection points: 2
#     Edge 29, Type (0, 0), BuildingBlock: KIFKEQ_clean_linker_1, # of connection points: 2
#     Edge 30, Type (0, 0), BuildingBlock: KIFKEQ_clean_linker_1, # of connection points: 2
#     Edge 31, Type (0, 0), BuildingBlock: KIFKEQ_clean_linker_1, # of connection points: 2
#     Edge 32, Type (0, 0), BuildingBlock: KIFKEQ_clean_linker_1, # of connection points: 2
#     Edge 33, Type (0, 0), BuildingBlock: KIFKEQ_clean_linker_1, # of connection points: 2
#     Edge 34, Type (0, 0), BuildingBlock: KIFKEQ_clean_linker_1, # of connection points: 2
#     Edge 35, Type (0, 0), BuildingBlock: KIFKEQ_clean_linker_1, # of connection points: 2
#     Edge 36, Type (0, 0), BuildingBlock: KIFKEQ_clean_linker_1, # of connection points: 2
#     Edge 37, Type (0, 0), BuildingBlock: KIFKEQ_clean_linker_1, # of connection points: 2
#     Edge 38, Type (0, 0), BuildingBlock: KIFKEQ_clean_linker_1, # of connection points: 2
#     Edge 39, Type (0, 0), BuildingBlock: KIFKEQ_clean_linker_1, # of connection points: 2
#     Edge 40, Type (0, 0), BuildingBlock: KIFKEQ_clean_linker_1, # of connection points: 2
#     Edge 41, Type (0, 0), BuildingBlock: KIFKEQ_clean_linker_1, # of connection points: 2
#     Edge 42, Type (0, 0), BuildingBlock: KIFKEQ_clean_linker_1, # of connection points: 2
#     Edge 43, Type (0, 0), BuildingBlock: KIFKEQ_clean_linker_1, # of connection points: 2
#     Edge 44, Type (0, 0), BuildingBlock: KIFKEQ_clean_linker_1, # of connection points: 2
#     Edge 45, Type (0, 0), BuildingBlock: KIFKEQ_clean_linker_1, # of connection points: 2
#     Edge 46, Type (0, 0), BuildingBlock: KIFKEQ_clean_linker_1, # of connection points: 2
#     Edge 47, Type (0, 0), BuildingBlock: KIFKEQ_clean_linker_1, # of connection points: 2
# Relax obj value: 0.170
# Max RMSD: 0.200
# Mean RMSD: 0.179
data_MOF--net-ukb--node1-AZAVOO_clean_sbu_0--edge1-KIFKEQ_clean_linker_1
_symmetry_space_group_name_H-M    P1
_symmetry_Int_Tables_number       1
_symmetry_cell_setting            triclinic
loop_
_symmetry_equiv_pos_as_xyz
'x, y, z'
_cell_length_a     41.051695
_cell_length_b     44.156739
_cell_length_c     41.378057
_cell_angle_alpha  90.036327
_cell_angle_beta   89.996102
_cell_angle_gamma 89.808986
loop_
_atom_site_label
_atom_site_type_symbol
_atom_site_fract_x
_atom_site_fract_y
_atom_site_fract_z
_atom_type_partial_charge
Mg0 Mg 0.51857 0.14016 0.16341 0.0
O1 O 0.53146 0.18018 0.197 0.0
O2 O 0.5358 0.16156 0.24711 0.0
Mg3 Mg 0.52528 0.11116 0.24613 0.0
C4 C 0.53709 0.18359 0.22721 0.0
C5 C 0.51148 0.16397 0.09382 0.0
O6 O 0.52417 0.13693 0.08934 0.0
O7 O 0.46637 0.13999 0.18173 0.0
O8 O 0.47217 0.1217 0.23179 0.0
O9 O 0.57104 0.13104 0.15588 0.0
O10 O 0.54235 0.11084 0.19559 0.0
C11 C 0.45448 0.13193 0.20885 0.0
C12 C 0.57033 0.11506 0.18209 0.0
O13 O 0.50538 0.17262 0.12251 0.0
Mg14 Mg 0.27903 0.52325 0.69508 0.0
O15 O 0.23649 0.54841 0.72143 0.0
O16 O 0.25836 0.56067 0.76928 0.0
Mg17 Mg 0.31063 0.54454 0.77464 0.0
C18 C 0.23466 0.56098 0.74932 0.0
C19 C 0.26992 0.50009 0.6309 0.0
O20 O 0.30092 0.50309 0.63815 0.0
O21 O 0.27231 0.48012 0.72489 0.0
O22 O 0.29655 0.4945 0.77069 0.0
O23 O 0.29907 0.56685 0.67566 0.0
O24 O 0.31334 0.54638 0.72208 0.0
C25 C 0.28321 0.4742 0.75314 0.0
C26 C 0.31654 0.56805 0.70163 0.0
O27 O 0.24892 0.5061 0.65267 0.0
Mg28 Mg 0.97605 0.32477 0.1705 0.0
O29 O 0.96033 0.28537 0.20368 0.0
O30 O 0.94949 0.30557 0.25224 0.0
Mg31 Mg 0.9609 0.35587 0.25143 0.0
C32 C 0.95079 0.28296 0.23303 0.0
C33 C 0.98794 0.30128 0.10209 0.0
O34 O 0.97626 0.32873 0.09776 0.0
O35 O 0.02657 0.32487 0.19383 0.0
O36 O 0.01473 0.3451 0.24187 0.0
O37 O 0.92407 0.33379 0.1582 0.0
O38 O 0.94919 0.35468 0.19975 0.0
C39 C 0.03525 0.33423 0.22173 0.0
C40 C 0.92246 0.35008 0.18414 0.0
O41 O 0.9922 0.29189 0.13085 0.0
Mg42 Mg 0.21604 0.94027 0.68295 0.0
O43 O 0.26613 0.92346 0.70183 0.0
O44 O 0.25883 0.91601 0.75486 0.0
Mg45 Mg 0.20558 0.92328 0.76873 0.0
C46 C 0.27693 0.91598 0.72976 0.0
C47 C 0.21531 0.95256 0.61309 0.0
O48 O 0.18819 0.9386 0.62085 0.0
O49 O 0.2199 0.98633 0.70771 0.0
O50 O 0.20777 0.9744 0.75879 0.0
O51 O 0.20162 0.89306 0.67076 0.0
O52 O 0.19265 0.91492 0.71795 0.0
C53 C 0.21347 0.99398 0.73681 0.0
C54 C 0.19005 0.89136 0.69978 0.0
O55 O 0.23593 0.95804 0.63529 0.0
Mg56 Mg 0.52022 0.33437 0.83886 0.0
O57 O 0.53213 0.29609 0.80288 0.0
O58 O 0.54092 0.31749 0.75467 0.0
Mg59 Mg 0.53333 0.36834 0.75919 0.0
C60 C 0.53953 0.29423 0.7729 0.0
C61 C 0.50827 0.30884 0.90602 0.0
O62 O 0.51955 0.33622 0.91124 0.0
O63 O 0.46886 0.33868 0.81834 0.0
O64 O 0.47907 0.36049 0.77075 0.0
O65 O 0.57294 0.33881 0.84854 0.0
O66 O 0.5473 0.36441 0.81029 0.0
C67 C 0.45913 0.34983 0.79156 0.0
C68 C 0.57442 0.3565 0.82367 0.0
O69 O 0.50409 0.30024 0.87698 0.0
Mg70 Mg 0.21302 0.50794 0.32772 0.0
O71 O 0.26185 0.52582 0.30663 0.0
O72 O 0.25073 0.53508 0.25451 0.0
Mg73 Mg 0.19694 0.52842 0.24358 0.0
C74 C 0.27058 0.53407 0.27823 0.0
C75 C 0.21299 0.49002 0.39545 0.0
O76 O 0.18356 0.49843 0.38665 0.0
O77 O 0.21722 0.46281 0.30065 0.0
O78 O 0.20182 0.47734 0.25127 0.0
O79 O 0.19873 0.55448 0.34298 0.0
O80 O 0.18745 0.53479 0.29526 0.0
C81 C 0.2096 0.45664 0.27142 0.0
C82 C 0.18605 0.55764 0.31458 0.0
O83 O 0.2353 0.48941 0.37407 0.0
Mg84 Mg 0.97532 0.13678 0.84253 0.0
O85 O 0.96507 0.17603 0.80687 0.0
O86 O 0.95611 0.15502 0.75846 0.0
Mg87 Mg 0.96223 0.10406 0.76219 0.0
C88 C 0.958 0.17818 0.77682 0.0
C89 C 0.98727 0.16075 0.9104 0.0
O90 O 0.97465 0.13374 0.91473 0.0
O91 O 0.02677 0.13051 0.82271 0.0
O92 O 0.01667 0.11069 0.77395 0.0
O93 O 0.92233 0.13369 0.85146 0.0
O94 O 0.94777 0.10777 0.81326 0.0
C95 C 0.03644 0.12014 0.79554 0.0
C96 C 0.92071 0.11607 0.8265 0.0
O97 O 0.99228 0.16977 0.88163 0.0
Mg98 Mg 0.27914 0.95574 0.31473 0.0
O99 O 0.23759 0.9336 0.28456 0.0
O100 O 0.26073 0.92458 0.23652 0.0
Mg101 Mg 0.31305 0.94106 0.23456 0.0
C102 C 0.23644 0.92309 0.25571 0.0
C103 C 0.26562 0.98078 0.37795 0.0
O104 O 0.29622 0.98534 0.36999 0.0
O105 O 0.27363 0.00116 0.28925 0.0
O106 O 0.29744 0.99064 0.24191 0.0
O107 O 0.29707 0.91013 0.32979 0.0
O108 O 0.31465 0.93498 0.28691 0.0
C109 C 0.28377 0.00922 0.26138 0.0
C110 C 0.31572 0.91108 0.30461 0.0
O111 O 0.24675 0.96937 0.35682 0.0
Mg112 Mg 0.52216 0.73717 0.79818 0.0
O113 O 0.47755 0.76811 0.78875 0.0
O114 O 0.43284 0.73964 0.79308 0.0
Mg115 Mg 0.44809 0.69299 0.81158 0.0
C116 C 0.44672 0.76475 0.78663 0.0
C117 C 0.57246 0.78195 0.77157 0.0
O118 O 0.57208 0.76099 0.74904 0.0
O119 O 0.51476 0.74025 0.85308 0.0
O120 O 0.4685 0.71382 0.85814 0.0
O121 O 0.51849 0.72214 0.74648 0.0
O122 O 0.49527 0.69884 0.78785 0.0
C123 C 0.49166 0.72939 0.87024 0.0
C124 C 0.49949 0.70115 0.75723 0.0
O125 O 0.55473 0.77864 0.79652 0.0
Mg126 Mg 0.65194 0.42921 0.33009 0.0
O127 O 0.69535 0.41512 0.29785 0.0
O128 O 0.67573 0.40426 0.24875 0.0
Mg129 Mg 0.62138 0.41444 0.2482 0.0
C130 C 0.69935 0.40623 0.26868 0.0
C131 C 0.67521 0.43873 0.39899 0.0
O132 O 0.64551 0.42806 0.40189 0.0
O133 O 0.6519 0.47604 0.3068 0.0
O134 O 0.63296 0.46451 0.25757 0.0
O135 O 0.64184 0.38069 0.34102 0.0
O136 O 0.6199 0.40563 0.30019 0.0
C137 C 0.64345 0.48369 0.27821 0.0
C138 C 0.6239 0.38044 0.3153 0.0
O139 O 0.68638 0.44336 0.37075 0.0
Mg140 Mg 0.97569 0.72678 0.80905 0.0
O141 O 0.02191 0.69734 0.80904 0.0
O142 O 0.06273 0.72534 0.82844 0.0
Mg143 Mg 0.04292 0.77303 0.83936 0.0
C144 C 0.05175 0.70056 0.81689 0.0
C145 C 0.92536 0.68389 0.7776 0.0
O146 O 0.92121 0.7082 0.75976 0.0
O147 O 0.97051 0.72341 0.86442 0.0
O148 O 0.01007 0.75526 0.87942 0.0
O149 O 0.9905 0.74196 0.75946 0.0
O150 O 0.00336 0.76554 0.80487 0.0
C151 C 0.98602 0.73814 0.88614 0.0
C152 C 0.00668 0.76299 0.77416 0.0
O153 O 0.94576 0.68455 0.80069 0.0
Mg154 Mg 0.83881 0.03507 0.33424 0.0
O155 O 0.79413 0.04935 0.3036 0.0
O156 O 0.8126 0.05824 0.25358 0.0
Mg157 Mg 0.86668 0.04744 0.25109 0.0
C158 C 0.78955 0.0575 0.27427 0.0
C159 C 0.81765 0.02638 0.40414 0.0
O160 O 0.8471 0.03779 0.40636 0.0
O161 O 0.83749 0.9879 0.31195 0.0
O162 O 0.85553 -0.00239 0.26204 0.0
O163 O 0.85016 0.08332 0.34489 0.0
O164 O 0.86965 0.05856 0.3027 0.0
C165 C 0.84536 0.9792 0.28357 0.0
C166 C 0.86676 0.0837 0.3183 0.0
O167 O 0.80602 0.02122 0.3762 0.0
Mg168 Mg 0.49876 0.71958 0.18637 0.0
O169 O 0.4586 0.68446 0.19791 0.0
O170 O 0.41078 0.70621 0.18616 0.0
Mg171 Mg 0.41983 0.7531 0.16494 0.0
C172 C 0.42748 0.68404 0.19708 0.0
C173 C 0.55878 0.68431 0.21343 0.0
O174 O 0.56064 0.7088 0.23138 0.0
O175 O 0.49475 0.71162 0.13194 0.0
O176 O 0.44667 0.73332 0.12093 0.0
O177 O 0.49258 0.739 0.23598 0.0
O178 O 0.46533 0.75427 0.19269 0.0
C179 C 0.47255 0.71951 0.112 0.0
C180 C 0.46972 0.75546 0.22343 0.0
O181 O 0.53664 0.68252 0.19204 0.0
Mg182 Mg 0.84246 0.42087 0.66529 0.0
O183 O 0.79917 0.40904 0.69869 0.0
O184 O 0.81962 0.40136 0.74811 0.0
Mg185 Mg 0.87443 0.4087 0.74718 0.0
C186 C 0.79556 0.40258 0.72862 0.0
C187 C 0.81882 0.43132 0.59626 0.0
O188 O 0.84857 0.42074 0.59272 0.0
O189 O 0.84393 0.46858 0.68675 0.0
O190 O 0.86413 0.45854 0.73588 0.0
O191 O 0.85173 0.37161 0.65627 0.0
O192 O 0.8745 0.39778 0.69564 0.0
C193 C 0.85342 0.47713 0.71472 0.0
C194 C 0.87018 0.37211 0.68165 0.0
O195 O 0.80781 0.43503 0.62473 0.0
Mg196 Mg 0.99195 0.7405 0.20056 0.0
O197 O 0.03243 0.7764 0.19881 0.0
O198 O 0.07629 0.75464 0.17639 0.0
Mg199 Mg 0.06536 0.70422 0.1681 0.0
C200 C 0.06182 0.77754 0.18877 0.0
C201 C 0.93259 0.7767 0.22923 0.0
O202 O 0.93048 0.75264 0.24775 0.0
O203 O 0.98476 0.74168 0.14543 0.0
O204 O 0.02811 0.71511 0.12894 0.0
O205 O 0.00881 0.72819 0.25048 0.0
O206 O 0.02744 0.70752 0.20534 0.0
C207 C 0.00119 0.72857 0.12318 0.0
C208 C 0.0297 0.71074 0.23614 0.0
O209 O 0.9546 0.77781 0.20767 0.0
Mg210 Mg 0.65307 0.04763 0.67027 0.0
O211 O 0.69595 0.06054 0.70341 0.0
O212 O 0.67501 0.07021 0.75223 0.0
Mg213 Mg 0.61977 0.06464 0.75059 0.0
C214 C 0.69931 0.06796 0.7331 0.0
C215 C 0.67631 0.03274 0.60259 0.0
O216 O 0.64619 0.04232 0.59892 0.0
O217 O 0.65037 0.00123 0.69466 0.0
O218 O 0.62719 0.01398 0.74171 0.0
O219 O 0.6448 0.0965 0.65812 0.0
O220 O 0.62103 0.07268 0.69855 0.0
C221 C 0.63836 0.99411 0.72214 0.0
C222 C 0.6259 0.09749 0.68315 0.0
O223 O 0.6879 0.03104 0.63104 0.0
H224 H 0.41736 0.15028 0.25996 0.0
H225 H 0.41186 0.10823 0.16617 0.0
H226 H 0.36122 0.13593 0.27088 0.0
H227 H 0.35756 0.09085 0.17778 0.0
H228 H 0.27581 0.0393 0.20414 0.0
H229 H 0.30539 0.08478 0.189 0.0
H230 H 0.3372 0.09455 0.28836 0.0
H231 H 0.30486 0.0516 0.30333 0.0
C232 C 0.40382 0.13823 0.24154 0.0
C233 C 0.4189 0.12989 0.21247 0.0
C234 C 0.3717 0.12954 0.24788 0.0
C235 C 0.35467 0.11082 0.22602 0.0
C236 C 0.36911 0.10514 0.19559 0.0
C237 C 0.40067 0.11494 0.1888 0.0
C238 C 0.28778 0.05234 0.22285 0.0
C239 C 0.28869 0.04164 0.25473 0.0
C240 C 0.30547 0.0781 0.21415 0.0
C241 C 0.32584 0.09257 0.23685 0.0
C242 C 0.32259 0.08426 0.26964 0.0
C243 C 0.3038 0.05932 0.27849 0.0
H244 H 0.2834 0.42367 0.71443 0.0
H245 H 0.29748 0.45244 0.81321 0.0
H246 H 0.3166 0.3789 0.72469 0.0
H247 H 0.33149 0.40862 0.8231 0.0
H248 H 0.40821 0.34192 0.83396 0.0
H249 H 0.35184 0.35828 0.82625 0.0
H250 H 0.37425 0.38287 0.72762 0.0
H251 H 0.42972 0.36589 0.73503 0.0
C252 C 0.29234 0.41985 0.73872 0.0
C253 C 0.28896 0.44226 0.76265 0.0
C254 C 0.31174 0.39429 0.74452 0.0
C255 C 0.32805 0.39087 0.77425 0.0
C256 C 0.31983 0.41057 0.79972 0.0
C257 C 0.30031 0.43595 0.794 0.0
C258 C 0.40079 0.35003 0.81038 0.0
C259 C 0.42372 0.35338 0.78537 0.0
C260 C 0.36847 0.35947 0.80597 0.0
C261 C 0.35847 0.37242 0.77649 0.0
C262 C 0.38073 0.37288 0.75063 0.0
C263 C 0.41289 0.36348 0.75502 0.0
H264 H 0.08848 0.32652 0.18196 0.0
H265 H 0.06156 0.34624 0.28071 0.0
H266 H 0.14432 0.34198 0.19359 0.0
H267 H 0.11625 0.36278 0.29193 0.0
H268 H 0.20461 0.40659 0.31069 0.0
H269 H 0.17272 0.36163 0.29827 0.0
H270 H 0.1644 0.39115 0.19898 0.0
H271 H 0.19747 0.43475 0.21097 0.0
C272 C 0.0946 0.33347 0.20632 0.0
C273 C 0.07031 0.33608 0.23013 0.0
C274 C 0.12661 0.34249 0.21298 0.0
C275 C 0.13483 0.35448 0.24348 0.0
C276 C 0.11124 0.35371 0.26814 0.0
C277 C 0.07947 0.34456 0.26156 0.0
C278 C 0.19722 0.40274 0.2859 0.0
C279 C 0.20239 0.42492 0.26212 0.0
C280 C 0.1786 0.37706 0.27881 0.0
C281 C 0.16456 0.3734 0.24798 0.0
C282 C 0.17427 0.39315 0.22314 0.0
C283 C 0.19316 0.41852 0.23012 0.0
H284 H 0.18377 0.03302 0.69572 0.0
H285 H 0.21878 0.02542 0.79364 0.0
H286 H 0.14822 0.07384 0.71143 0.0
H287 H 0.18528 0.0686 0.80931 0.0
H288 H 0.0717 0.13474 0.74209 0.0
H289 H 0.12634 0.11715 0.72859 0.0
H290 H 0.13248 0.07316 0.82203 0.0
H291 H 0.07956 0.09351 0.8361 0.0
C292 C 0.18519 0.04125 0.72036 0.0
C293 C 0.20349 0.02554 0.7436 0.0
C294 C 0.16459 0.06496 0.72958 0.0
C295 C 0.1625 0.07415 0.76219 0.0
C296 C 0.18473 0.06133 0.78434 0.0
C297 C 0.20452 0.03688 0.77529 0.0
C298 C 0.08545 0.12214 0.75997 0.0
C299 C 0.0715 0.1152 0.78998 0.0
C300 C 0.11666 0.11163 0.75217 0.0
C301 C 0.13396 0.09264 0.77361 0.0
C302 C 0.12063 0.08778 0.80465 0.0
C303 C 0.08996 0.0993 0.81284 0.0
H304 H 0.59085 0.82382 0.81649 0.0
H305 H 0.59382 0.80451 0.7142 0.0
H306 H 0.61453 0.87347 0.8065 0.0
H307 H 0.61569 0.85463 0.70389 0.0
H308 H 0.66587 0.94412 0.69297 0.0
H309 H 0.65746 0.891 0.70724 0.0
H310 H 0.59428 0.91872 0.7856 0.0
H311 H 0.6038 0.97111 0.77242 0.0
C312 C 0.59669 0.83019 0.79189 0.0
C313 C 0.59013 0.8105 0.76611 0.0
C314 C 0.61009 0.85869 0.78608 0.0
C315 C 0.6165 0.86837 0.75429 0.0
C316 C 0.61142 0.84796 0.7287 0.0
C317 C 0.59862 0.81924 0.73459 0.0
C318 C 0.65054 0.93875 0.71348 0.0
C319 C 0.63541 0.96187 0.73143 0.0
C320 C 0.64559 0.90833 0.72159 0.0
C321 C 0.62514 0.90045 0.74759 0.0
C322 C 0.61075 0.92373 0.76589 0.0
C323 C 0.61599 0.95396 0.75808 0.0
H324 H 0.55903 0.63002 0.18219 0.0
H325 H 0.60536 0.67827 0.26053 0.0
H326 H 0.58777 0.58424 0.19743 0.0
H327 H 0.63506 0.63227 0.27538 0.0
H328 H 0.6506 0.50708 0.21798 0.0
H329 H 0.63872 0.55861 0.20069 0.0
H330 H 0.62109 0.58435 0.3 0.0
H331 H 0.63431 0.53293 0.31735 0.0
C332 C 0.57585 0.63101 0.20233 0.0
C333 C 0.57964 0.65773 0.22034 0.0
C334 C 0.59262 0.60475 0.21094 0.0
C335 C 0.61378 0.60453 0.23768 0.0
C336 C 0.61867 0.6316 0.25489 0.0
C337 C 0.60177 0.65797 0.24627 0.0
C338 C 0.6449 0.52394 0.23617 0.0
C339 C 0.64284 0.51594 0.26894 0.0
C340 C 0.63792 0.55343 0.22626 0.0
C341 C 0.62817 0.57543 0.24885 0.0
C342 C 0.62862 0.568 0.28194 0.0
C343 C 0.63609 0.53851 0.29192 0.0
H344 H 0.93106 0.62946 0.80801 0.0
H345 H 0.88168 0.67373 0.72869 0.0
H346 H 0.90706 0.58157 0.7924 0.0
H347 H 0.85681 0.62557 0.71345 0.0
H348 H 0.86221 0.52536 0.67408 0.0
H349 H 0.87408 0.57753 0.68996 0.0
H350 H 0.85711 0.5541 0.78996 0.0
H351 H 0.84651 0.502 0.77419 0.0
C352 C 0.91467 0.62906 0.78749 0.0
C353 C 0.90841 0.65539 0.76951 0.0
C354 C 0.90066 0.60159 0.77866 0.0
C355 C 0.87986 0.59973 0.75173 0.0
C356 C 0.87294 0.62621 0.73414 0.0
C357 C 0.88707 0.6538 0.74298 0.0
C358 C 0.86038 0.53161 0.69934 0.0
C359 C 0.85406 0.5096 0.72298 0.0
C360 C 0.8671 0.56148 0.70846 0.0
C361 C 0.86721 0.56981 0.74132 0.0
C362 C 0.85816 0.54823 0.76456 0.0
C363 C 0.85192 0.51843 0.75551 0.0
H364 H 0.85411 0.93177 0.32514 0.0
H365 H 0.839 0.95309 0.2244 0.0
H366 H 0.86798 0.87978 0.31055 0.0
H367 H 0.85151 0.90091 0.20985 0.0
H368 H 0.93223 0.82975 0.19579 0.0
H369 H 0.90274 0.87577 0.20852 0.0
H370 H 0.85527 0.83063 0.28826 0.0
H371 H 0.88577 0.78438 0.27595 0.0
C372 C 0.8527 0.92507 0.29999 0.0
C373 C 0.84613 0.94657 0.27584 0.0
C374 C 0.86056 0.89522 0.29159 0.0
C375 C 0.86156 0.88634 0.25893 0.0
C376 C 0.8519 0.90723 0.23515 0.0
C377 C 0.84455 0.93709 0.24348 0.0
C378 C 0.91525 0.82943 0.21584 0.0
C379 C 0.91162 0.80346 0.23505 0.0
C380 C 0.89803 0.85583 0.22298 0.0
C381 C 0.87654 0.85695 0.24943 0.0
C382 C 0.87189 0.83061 0.26793 0.0
C383 C 0.88926 0.80409 0.26079 0.0
H384 H 0.54406 0.20053 0.29024 0.0
H385 H 0.55293 0.23456 0.19267 0.0
H386 H 0.5639 0.24839 0.31121 0.0
H387 H 0.57352 0.28245 0.21382 0.0
H388 H 0.63683 0.32266 0.33514 0.0
H389 H 0.61477 0.27576 0.31322 0.0
H390 H 0.55758 0.32711 0.24466 0.0
H391 H 0.58002 0.37395 0.26623 0.0
C392 C 0.55022 0.21822 0.2732 0.0
C393 C 0.54704 0.21361 0.23971 0.0
C394 C 0.56182 0.24563 0.28528 0.0
C395 C 0.57064 0.26912 0.2642 0.0
C396 C 0.56671 0.26485 0.23072 0.0
C397 C 0.55499 0.23739 0.21859 0.0
C398 C 0.61954 0.32393 0.31541 0.0
C399 C 0.61031 0.35199 0.30232 0.0
C400 C 0.60677 0.29707 0.30294 0.0
C401 C 0.58436 0.29771 0.27721 0.0
C402 C 0.57512 0.32581 0.26416 0.0
C403 C 0.58794 0.35266 0.2766 0.0
H404 H 0.16965 0.55113 0.73535 0.0
H405 H 0.23487 0.61275 0.78367 0.0
H406 H 0.123 0.58136 0.754 0.0
H407 H 0.18937 0.64373 0.80036 0.0
H408 H 0.10586 0.68443 0.85094 0.0
H409 H 0.1473 0.64755 0.83594 0.0
H410 H 0.09313 0.62609 0.74922 0.0
H411 H 0.05056 0.66147 0.76582 0.0
C412 C 0.17397 0.57127 0.74965 0.0
C413 C 0.20582 0.57935 0.75842 0.0
C414 C 0.1473 0.58872 0.7603 0.0
C415 C 0.1521 0.61492 0.77933 0.0
C416 C 0.18424 0.62324 0.78696 0.0
C417 C 0.21055 0.60556 0.77704 0.0
C418 C 0.10265 0.67144 0.82896 0.0
C419 C 0.0751 0.6759 0.80951 0.0
C420 C 0.1266 0.65048 0.82003 0.0
C421 C 0.12425 0.63416 0.79079 0.0
C422 C 0.09593 0.6379 0.77197 0.0
C423 C 0.07149 0.65831 0.78142 0.0
H424 H 0.87852 0.13546 0.3519 0.0
H425 H 0.88617 0.09679 0.25636 0.0
H426 H 0.9009 0.18274 0.3318 0.0
H427 H 0.90656 0.14439 0.23572 0.0
H428 H 0.96866 0.22634 0.2123 0.0
H429 H 0.95033 0.17775 0.2336 0.0
H430 H 0.88746 0.22475 0.3011 0.0
H431 H 0.90721 0.27288 0.28109 0.0
C432 C 0.88465 0.13714 0.3265 0.0
C433 C 0.88038 0.11233 0.30573 0.0
C434 C 0.89731 0.16436 0.31486 0.0
C435 C 0.90539 0.16765 0.28197 0.0
C436 C 0.90119 0.1427 0.26127 0.0
C437 C 0.88915 0.11531 0.27309 0.0
C438 C 0.95102 0.22614 0.23177 0.0
C439 C 0.93955 0.25335 0.24518 0.0
C440 C 0.94032 0.19831 0.2439 0.0
C441 C 0.91742 0.19715 0.26925 0.0
C442 C 0.9057 0.22455 0.28221 0.0
C443 C 0.91687 0.25225 0.27056 0.0
H444 H 0.3099 0.88225 0.68502 0.0
H445 H 0.31681 0.91672 0.78244 0.0
H446 H 0.35597 0.8483 0.69557 0.0
H447 H 0.36316 0.8832 0.79271 0.0
H448 H 0.45829 0.82579 0.79205 0.0
H449 H 0.42279 0.86748 0.77422 0.0
H450 H 0.35425 0.80266 0.7363 0.0
H451 H 0.38906 0.76123 0.75458 0.0
C452 C 0.322 0.88341 0.70825 0.0
C453 C 0.30962 0.90202 0.73297 0.0
C454 C 0.34817 0.8638 0.71436 0.0
C455 C 0.36287 0.86294 0.74505 0.0
C456 C 0.35237 0.88347 0.76882 0.0
C457 C 0.32581 0.90262 0.76294 0.0
C458 C 0.43571 0.82053 0.77976 0.0
C459 C 0.42629 0.79025 0.77501 0.0
C460 C 0.41547 0.84434 0.76956 0.0
C461 C 0.38594 0.83826 0.75366 0.0
C462 C 0.37707 0.80802 0.74811 0.0
C463 C 0.39685 0.7843 0.75891 0.0
H464 H 0.55034 0.28032 0.70942 0.0
H465 H 0.55049 0.24096 0.80508 0.0
H466 H 0.56976 0.23264 0.687 0.0
H467 H 0.57071 0.19348 0.78268 0.0
H468 H 0.64142 0.15527 0.66493 0.0
H469 H 0.61893 0.20247 0.68635 0.0
H470 H 0.55538 0.15139 0.74911 0.0
H471 H 0.57828 0.10446 0.72827 0.0
C472 C 0.55444 0.26149 0.72569 0.0
C473 C 0.54891 0.26451 0.7591 0.0
C474 C 0.56582 0.23421 0.71283 0.0
C475 C 0.57204 0.20932 0.73305 0.0
C476 C 0.56584 0.21211 0.76636 0.0
C477 C 0.55431 0.23938 0.77923 0.0
C478 C 0.62261 0.15419 0.68325 0.0
C479 C 0.61185 0.1262 0.69513 0.0
C480 C 0.6096 0.1812 0.69542 0.0
C481 C 0.58542 0.18069 0.71955 0.0
C482 C 0.57438 0.15261 0.731 0.0
C483 C 0.58747 0.12569 0.71897 0.0
H484 H 0.44565 0.62404 0.20072 0.0
H485 H 0.36943 0.68669 0.228 0.0
H486 H 0.41457 0.58233 0.22531 0.0
H487 H 0.33928 0.64555 0.25316 0.0
H488 H 0.30433 0.57176 0.31815 0.0
H489 H 0.34866 0.60556 0.3019 0.0
H490 H 0.35359 0.56118 0.20912 0.0
H491 H 0.3088 0.52796 0.22498 0.0
C492 C 0.42249 0.62891 0.21217 0.0
C493 C 0.40975 0.65851 0.21209 0.0
C494 C 0.40484 0.60514 0.22628 0.0
C495 C 0.37479 0.61088 0.24144 0.0
C496 C 0.3626 0.6406 0.24205 0.0
C497 C 0.3797 0.66406 0.22729 0.0
C498 C 0.31576 0.56844 0.29481 0.0
C499 C 0.3031 0.54735 0.27277 0.0
C500 C 0.34093 0.5879 0.28544 0.0
C501 C 0.35431 0.58603 0.2542 0.0
C502 C 0.34383 0.56295 0.23338 0.0
C503 C 0.31821 0.54398 0.24246 0.0
H504 H 0.91553 0.36746 0.72958 0.0
H505 H 0.85716 0.31353 0.66464 0.0
H506 H 0.93905 0.32157 0.75246 0.0
H507 H 0.8803 0.26751 0.68793 0.0
H508 H 0.94502 0.23132 0.80891 0.0
H509 H 0.92456 0.27854 0.78581 0.0
H510 H 0.931 0.23976 0.69012 0.0
H511 H 0.95069 0.19252 0.71311 0.0
C512 C 0.90749 0.34579 0.72037 0.0
C513 C 0.88433 0.34412 0.6954 0.0
C514 C 0.92095 0.31947 0.73356 0.0
C515 C 0.91158 0.29086 0.72206 0.0
C516 C 0.88843 0.28921 0.69702 0.0
C517 C 0.87501 0.31556 0.68378 0.0
C518 C 0.94242 0.233 0.78292 0.0
C519 C 0.94928 0.20804 0.76292 0.0
C520 C 0.93072 0.26008 0.76966 0.0
C521 C 0.92577 0.2628 0.73613 0.0
C522 C 0.93381 0.23821 0.71609 0.0
C523 C 0.94535 0.21117 0.72931 0.0
H524 H 0.06215 0.81158 0.24356 0.0
H525 H 0.10608 0.80443 0.14923 0.0
H526 H 0.10176 0.85001 0.25876 0.0
H527 H 0.14401 0.84464 0.16305 0.0
H528 H 0.2353 0.87963 0.20965 0.0
H529 H 0.19038 0.84879 0.19229 0.0
H530 H 0.12619 0.8971 0.25753 0.0
H531 H 0.17255 0.92699 0.2766 0.0
C532 C 0.07967 0.81906 0.2257 0.0
C533 C 0.08133 0.8049 0.19533 0.0
C534 C 0.10241 0.84123 0.23435 0.0
C535 C 0.12685 0.85023 0.21249 0.0
C536 C 0.12656 0.83762 0.18113 0.0
C537 C 0.10452 0.81481 0.17292 0.0
C538 C 0.21157 0.88396 0.22019 0.0
C539 C 0.20755 0.90592 0.24447 0.0
C540 C 0.18548 0.86633 0.20992 0.0
C541 C 0.15413 0.87048 0.22298 0.0
C542 C 0.14992 0.89287 0.24703 0.0
C543 C 0.17643 0.91019 0.2579 0.0
H544 H 0.33439 0.61361 0.66012 0.0
H545 H 0.35593 0.57511 0.75379 0.0
H546 H 0.38174 0.64708 0.66547 0.0
H547 H 0.40223 0.60841 0.75914 0.0
H548 H 0.50089 0.64092 0.74974 0.0
H549 H 0.45584 0.60985 0.73059 0.0
H550 H 0.40369 0.69056 0.70169 0.0
H551 H 0.4496 0.72161 0.72012 0.0
C552 C 0.34881 0.61263 0.68201 0.0
C553 C 0.3415 0.59159 0.70648 0.0
C554 C 0.3759 0.63167 0.68497 0.0
C555 C 0.39606 0.62969 0.71231 0.0
C556 C 0.38765 0.60978 0.73736 0.0
C557 C 0.36078 0.59093 0.73446 0.0
C558 C 0.48043 0.65182 0.73789 0.0
C559 C 0.47859 0.68339 0.73598 0.0
C560 C 0.45452 0.63418 0.72734 0.0
C561 C 0.42603 0.64793 0.71542 0.0
C562 C 0.4254 0.67944 0.71076 0.0
C563 C 0.45166 0.69715 0.72105 0.0
H564 H 0.90472 0.36034 0.24714 0.0
H565 H 0.86765 0.3622 0.14961 0.0
H566 H 0.85145 0.37404 0.26772 0.0
H567 H 0.81432 0.37728 0.16997 0.0
H568 H 0.71532 0.37056 0.21733 0.0
H569 H 0.76927 0.35785 0.19739 0.0
H570 H 0.81223 0.41242 0.27294 0.0
H571 H 0.75802 0.4239 0.29381 0.0
C572 C 0.88543 0.36434 0.22999 0.0
C573 C 0.89055 0.36033 0.19671 0.0
C574 C 0.85469 0.37227 0.24182 0.0
C575 C 0.82835 0.37679 0.2206 0.0
C576 C 0.83375 0.3734 0.18718 0.0
C577 C 0.8644 0.36497 0.17542 0.0
C578 C 0.73629 0.3798 0.22973 0.0
C579 C 0.7324 0.39823 0.25716 0.0
C580 C 0.76731 0.37271 0.21812 0.0
C581 C 0.7953 0.38427 0.2333 0.0
C582 C 0.79135 0.40272 0.26083 0.0
C583 C 0.76025 0.40942 0.27277 0.0
H584 H 0.04624 0.74554 0.72401 0.0
H585 H 0.02574 0.81929 0.78953 0.0
H586 H 0.09548 0.77182 0.70555 0.0
H587 H 0.07379 0.84578 0.77072 0.0
H588 H 0.17465 0.87438 0.76117 0.0
H589 H 0.13158 0.83977 0.77705 0.0
H590 H 0.11549 0.81656 0.67684 0.0
H591 H 0.15958 0.85039 0.66109 0.0
C592 C 0.05185 0.76768 0.73379 0.0
C593 C 0.03241 0.78046 0.75819 0.0
C594 C 0.08008 0.7826 0.72346 0.0
C595 C 0.08898 0.81049 0.73733 0.0
C596 C 0.0683 0.82384 0.76037 0.0
C597 C 0.0405 0.80891 0.77082 0.0
C598 C 0.16247 0.86136 0.74263 0.0
C599 C 0.17005 0.86545 0.70991 0.0
C600 C 0.1376 0.84172 0.75165 0.0
C601 C 0.11943 0.82621 0.72807 0.0
C602 C 0.12892 0.82828 0.69555 0.0
C603 C 0.1542 0.84766 0.68655 0.0
H604 H 0.58321 0.10278 0.24602 0.0
H605 H 0.62711 0.10328 0.15126 0.0
H606 H 0.63551 0.08913 0.26988 0.0
H607 H 0.67892 0.08822 0.17464 0.0
H608 H 0.77446 0.09584 0.22533 0.0
H609 H 0.72103 0.10915 0.20478 0.0
H610 H 0.6764 0.05163 0.27674 0.0
H611 H 0.73036 0.03951 0.29839 0.0
C612 C 0.60385 0.09944 0.23022 0.0
C613 C 0.60107 0.10429 0.19678 0.0
C614 C 0.63391 0.09153 0.24389 0.0
C615 C 0.66171 0.08791 0.22431 0.0
C616 C 0.6584 0.09166 0.19068 0.0
C617 C 0.62859 0.10006 0.17718 0.0
C618 C 0.75325 0.0861 0.23686 0.0
C619 C 0.75661 0.06645 0.26332 0.0
C620 C 0.72252 0.09353 0.2249 0.0
C621 C 0.69424 0.08104 0.23862 0.0
C622 C 0.69756 0.06186 0.26564 0.0
C623 C 0.72846 0.05481 0.27802 0.0
H624 H 0.40397 0.75223 0.22538 0.0
H625 H 0.48606 0.79982 0.26577 0.0
H626 H 0.36668 0.78816 0.25101 0.0
H627 H 0.4486 0.83643 0.29097 0.0
H628 H 0.37034 0.91437 0.26814 0.0
H629 H 0.40891 0.87383 0.25587 0.0
H630 H 0.35062 0.81095 0.31066 0.0
H631 H 0.31215 0.85189 0.32383 0.0
C632 C 0.41392 0.77013 0.2402 0.0
C633 C 0.4477 0.7736 0.2435 0.0
C634 C 0.39264 0.79048 0.25501 0.0
C635 C 0.40493 0.81497 0.27273 0.0
C636 C 0.43871 0.81762 0.27736 0.0
C637 C 0.46002 0.79676 0.26311 0.0
C638 C 0.36575 0.89193 0.27765 0.0
C639 C 0.3382 0.88614 0.29675 0.0
C640 C 0.388 0.86889 0.27094 0.0
C641 C 0.38277 0.83954 0.28269 0.0
C642 C 0.35515 0.83357 0.30162 0.0
C643 C 0.3332 0.85686 0.30899 0.0
H644 H 0.73786 0.39678 0.69525 0.0
H645 H 0.77822 0.39555 0.79176 0.0
H646 H 0.6839 0.38626 0.71757 0.0
H647 H 0.7246 0.38593 0.81386 0.0
H648 H 0.5871 0.39622 0.7742 0.0
H649 H 0.64005 0.40805 0.75032 0.0
H650 H 0.68633 0.34535 0.81617 0.0
H651 H 0.63387 0.33412 0.84032 0.0
C652 C 0.73525 0.39443 0.72118 0.0
C653 C 0.76249 0.39675 0.74165 0.0
C654 C 0.70429 0.38859 0.73398 0.0
C655 C 0.69995 0.38502 0.7675 0.0
C656 C 0.72713 0.3879 0.78789 0.0
C657 C 0.75794 0.39357 0.77516 0.0
C658 C 0.60861 0.385 0.78352 0.0
C659 C 0.60628 0.36431 0.80922 0.0
C660 C 0.63893 0.39166 0.76974 0.0
C661 C 0.66748 0.37775 0.78141 0.0
C662 C 0.66496 0.35692 0.80697 0.0
C663 C 0.6348 0.35038 0.82076 0.0
H664 H 0.16976 0.57662 0.25399 0.0
H665 H 0.16302 0.6018 0.3547 0.0
H666 H 0.13567 0.61957 0.23953 0.0
H667 H 0.12848 0.645 0.34008 0.0
H668 H 0.02735 0.68065 0.29365 0.0
H669 H 0.07036 0.6482 0.31628 0.0
H670 H 0.13571 0.67675 0.24047 0.0
H671 H 0.09313 0.7091 0.21835 0.0
C672 C 0.16139 0.59154 0.273 0.0
C673 C 0.16897 0.58576 0.30545 0.0
C674 C 0.142 0.61628 0.26471 0.0
C675 C 0.12948 0.63557 0.28874 0.0
C676 C 0.13777 0.63037 0.32116 0.0
C677 C 0.15765 0.6058 0.32943 0.0
C678 C 0.05119 0.68045 0.28243 0.0
C679 C 0.05673 0.6964 0.25367 0.0
C680 C 0.07576 0.66201 0.29534 0.0
C681 C 0.10606 0.65957 0.27963 0.0
C682 C 0.11231 0.6777 0.25255 0.0
C683 C 0.08786 0.69597 0.23973 0.0
H684 H 0.90782 0.07579 0.77762 0.0
H685 H 0.86136 0.13899 0.84286 0.0
H686 H 0.85475 0.06335 0.75443 0.0
H687 H 0.80874 0.12721 0.8193 0.0
H688 H 0.71657 0.07661 0.79611 0.0
H689 H 0.77025 0.0869 0.81791 0.0
H690 H 0.81087 0.08396 0.72161 0.0
H691 H 0.75698 0.07275 0.6997 0.0
C692 C 0.88634 0.08715 0.78687 0.0
C693 C 0.8888 0.10829 0.81215 0.0
C694 C 0.85594 0.08014 0.77348 0.0
C695 C 0.82742 0.09417 0.78509 0.0
C696 C 0.83007 0.11551 0.81018 0.0
C697 C 0.86033 0.12239 0.8236 0.0
C698 C 0.73687 0.07814 0.77948 0.0
C699 C 0.73234 0.07401 0.74608 0.0
C700 C 0.76771 0.08421 0.79201 0.0
C701 C 0.79489 0.08654 0.77151 0.0
C702 C 0.79052 0.08205 0.73812 0.0
C703 C 0.75958 0.0758 0.72554 0.0
H704 H 0.52618 0.15341 0.03044 0.0
H705 H 0.48487 0.22099 0.09408 0.0
H706 H 0.52127 0.18822 0.98516 0.0
H707 H 0.47914 0.25562 0.0485 0.0
H708 H 0.5177 0.3204 0.97005 0.0
H709 H 0.51467 0.28509 0.01491 0.0
H710 H 0.4842 0.21432 0.94949 0.0
H711 H 0.48807 0.24964 0.90424 0.0
C712 C 0.51566 0.17558 0.03472 0.0
C713 C 0.50617 0.18449 0.06596 0.0
C714 C 0.51262 0.19549 0.00865 0.0
C715 C 0.4999 0.2248 0.01314 0.0
C716 C 0.48951 0.23339 0.04425 0.0
C717 C 0.49265 0.21348 0.07037 0.0
C718 C 0.51008 0.29738 0.96518 0.0
C719 C 0.50335 0.28781 0.93348 0.0
C720 C 0.50812 0.27714 0.99102 0.0
C721 C 0.49928 0.2468 0.98587 0.0
C722 C 0.49155 0.23743 0.95426 0.0
C723 C 0.49357 0.25771 0.92835 0.0
H724 H 0.17397 0.5039 0.44636 0.0
H725 H 0.26778 0.46509 0.42299 0.0
H726 H 0.18685 0.50151 0.50333 0.0
H727 H 0.28017 0.46098 0.48055 0.0
H728 H 0.30929 0.50043 0.57835 0.0
H729 H 0.29475 0.49305 0.52239 0.0
H730 H 0.19537 0.4743 0.55067 0.0
H731 H 0.20987 0.48349 0.60715 0.0
C732 C 0.19717 0.49422 0.45345 0.0
C733 C 0.22005 0.48503 0.43011 0.0
C734 C 0.20447 0.49259 0.48632 0.0
C735 C 0.23468 0.48124 0.49683 0.0
C736 C 0.25694 0.47054 0.47344 0.0
C737 C 0.24982 0.47269 0.44041 0.0
C738 C 0.28433 0.49451 0.57277 0.0
C739 C 0.26064 0.4928 0.59723 0.0
C740 C 0.27602 0.48994 0.54049 0.0
C741 C 0.24383 0.48303 0.53169 0.0
C742 C 0.22031 0.48015 0.55637 0.0
C743 C 0.22858 0.48524 0.58879 0.0
H744 H 0.01103 0.24284 0.10173 0.0
H745 H 0.97711 0.31411 0.03851 0.0
H746 H 0.01617 0.20892 0.05536 0.0
H747 H 0.98133 0.28013 0.9925 0.0
H748 H 0.01155 0.21865 0.91076 0.0
H749 H 0.01698 0.25257 0.95711 0.0
H750 H 0.98014 0.18234 0.01982 0.0
H751 H 0.97562 0.14837 0.97388 0.0
C752 C 0.00482 0.25132 0.07795 0.0
C753 C 0.99347 0.28114 0.07389 0.0
C754 C 0.00759 0.23184 0.05137 0.0
C755 C 0.99899 0.24169 0.02014 0.0
C756 C 0.98859 0.27182 0.01605 0.0
C757 C 0.98593 0.29129 0.04256 0.0
C758 C 0.00497 0.21039 0.93451 0.0
C759 C 0.99298 0.18085 0.93855 0.0
C760 C 0.0079 0.22987 0.96107 0.0
C761 C 0.99885 0.22028 0.99226 0.0
C762 C 0.98778 0.19043 0.99632 0.0
C763 C 0.98495 0.17097 0.96984 0.0
H764 H 0.30492 0.99152 0.42946 0.0
H765 H 0.20421 0.97637 0.40402 0.0
H766 H 0.29131 0.98831 0.48615 0.0
H767 H 0.19 0.97494 0.4613 0.0
H768 H 0.18558 0.92932 0.56016 0.0
H769 H 0.1956 0.94104 0.50389 0.0
H770 H 0.26718 0.0076 0.53245 0.0
H771 H 0.25823 0.99441 0.58908 0.0
C772 C 0.27962 0.98824 0.43599 0.0
C773 C 0.25569 0.98377 0.41217 0.0
C774 C 0.27174 0.98663 0.46872 0.0
C775 C 0.23957 0.98101 0.47858 0.0
C776 C 0.21522 0.97849 0.45468 0.0
C777 C 0.22324 0.97958 0.42181 0.0
C778 C 0.20343 0.94652 0.55445 0.0
C779 C 0.22132 0.96078 0.57902 0.0
C780 C 0.20894 0.95353 0.52207 0.0
C781 C 0.23213 0.97541 0.51335 0.0
C782 C 0.24951 0.99025 0.5381 0.0
C783 C 0.24438 0.9828 0.57059 0.0
H784 H 0.54236 0.71783 0.91099 0.0
H785 H 0.44183 0.74622 0.90898 0.0
H786 H 0.53954 0.71245 0.9697 0.0
H787 H 0.43931 0.74322 0.96756 0.0
H788 H 0.42824 0.70511 0.06586 0.0
H789 H 0.43515 0.70779 0.00759 0.0
H790 H 0.53603 0.73313 0.02094 0.0
H791 H 0.52935 0.72811 0.07926 0.0
C792 C 0.51999 0.72389 0.92334 0.0
C793 C 0.49231 0.73243 0.90566 0.0
C794 C 0.51827 0.72077 0.95701 0.0
C795 C 0.48895 0.72674 0.97365 0.0
C796 C 0.46197 0.73723 0.95577 0.0
C797 C 0.46348 0.73952 0.92218 0.0
C798 C 0.45204 0.71059 0.05619 0.0
C799 C 0.47826 0.71631 0.07697 0.0
C800 C 0.45596 0.71267 0.02275 0.0
C801 C 0.48597 0.72155 0.00924 0.0
C802 C 0.51259 0.72608 0.03018 0.0
C803 C 0.50883 0.72317 0.06368 0.0
H804 H 0.75647 0.45394 0.59414 0.0
H805 H 0.83452 0.42148 0.53306 0.0
H806 H 0.72193 0.4605 0.54659 0.0
H807 H 0.79986 0.42716 0.48586 0.0
H808 H 0.73825 0.45917 0.40242 0.0
H809 H 0.77294 0.46194 0.45029 0.0
H810 H 0.69358 0.42894 0.50902 0.0
H811 H 0.65883 0.42704 0.46159 0.0
C812 C 0.76629 0.44828 0.57059 0.0
C813 C 0.7982 0.43703 0.56746 0.0
C814 C 0.74645 0.4519 0.54333 0.0
C815 C 0.75802 0.44424 0.51232 0.0
C816 C 0.79022 0.43371 0.50921 0.0
C817 C 0.81006 0.43022 0.5364 0.0
C818 C 0.72814 0.45284 0.42563 0.0
C819 C 0.69582 0.44273 0.42811 0.0
C820 C 0.74808 0.45425 0.45306 0.0
C821 C 0.73616 0.44549 0.48357 0.0
C822 C 0.70353 0.43625 0.48608 0.0
C823 C 0.68362 0.43495 0.45875 0.0
H824 H 0.95945 0.76858 0.09323 0.0
H825 H 0.01534 0.68687 0.07714 0.0
H826 H 0.94494 0.7696 0.03568 0.0
H827 H 0.00091 0.68787 0.02026 0.0
H828 H 0.96266 0.68901 0.91962 0.0
H829 H 0.9563 0.68516 0.97854 0.0
H830 H 0.98159 0.77961 0.98821 0.0
H831 H 0.98802 0.78333 0.92999 0.0
C832 C 0.96814 0.75063 0.07758 0.0
C833 C 0.989 0.72799 0.08954 0.0
C834 C 0.95985 0.75117 0.04472 0.0
C835 C 0.97181 0.72879 0.0235 0.0
C836 C 0.99098 0.70521 0.036 0.0
C837 C 0.99961 0.70491 0.06856 0.0
C838 C 0.96603 0.70902 0.93439 0.0
C839 C 0.97631 0.73631 0.92041 0.0
C840 C 0.9625 0.70684 0.96802 0.0
C841 C 0.9686 0.73208 0.98796 0.0
C842 C 0.97641 0.75986 0.97356 0.0
C843 C 0.98043 0.76189 0.94021 0.0
H844 H 0.65927 0.03883 0.53927 0.0
H845 H 0.73967 0.01267 0.6007 0.0
H846 H 0.69371 0.03315 0.49196 0.0
H847 H 0.77406 0.00603 0.55303 0.0
H848 H 0.83408 0.04052 0.46618 0.0
H849 H 0.80009 0.03784 0.51413 0.0
H850 H 0.72238 -0.00106 0.45735 0.0
H851 H 0.7562 0.00254 0.40898 0.0
C852 C 0.68421 0.03142 0.54267 0.0
C853 C 0.69678 0.02646 0.57383 0.0
C854 C 0.70394 0.02792 0.51543 0.0
C855 C 0.73675 0.01921 0.51859 0.0
C856 C 0.74905 0.01323 0.54972 0.0
C857 C 0.72929 0.01687 0.57705 0.0
C858 C 0.80984 0.03116 0.4639 0.0
C859 C 0.79776 0.022 0.43365 0.0
C860 C 0.79039 0.0294 0.49153 0.0
C861 C 0.75839 0.01828 0.48968 0.0
C862 C 0.74671 0.0081 0.45958 0.0
C863 C 0.76615 0.01 0.43187 0.0
loop_
_geom_bond_atom_site_label_1
_geom_bond_atom_site_label_2
_geom_bond_distance
_geom_bond_site_symmetry_2
_ccdc_geom_bond_type
Mg0 O1 2.028 . S
Mg0 O7 1.986 . S
Mg0 O9 2.114 . S
Mg0 O10 2.251 . S
Mg0 O13 2.010 . S
O1 Mg0 2.028 . S
O1 C4 1.250 . S
O2 Mg3 2.028 . S
O2 C4 1.248 . S
Mg3 O2 2.028 . S
Mg3 O8 2.032 . S
Mg3 O10 2.079 . S
C4 O1 1.250 . S
C4 O2 1.248 . S
C5 O6 1.264 . S
C5 O13 1.249 . S
O6 C5 1.264 . S
O7 Mg0 1.986 . S
O7 C11 1.246 . S
O8 Mg3 2.032 . S
O8 C11 1.259 . S
O9 Mg0 2.114 . S
O9 C12 1.252 . S
O10 Mg0 2.251 . S
O10 Mg3 2.079 . S
O10 C12 1.273 . S
C11 O7 1.246 . S
C11 O8 1.259 . S
C12 O9 1.252 . S
C12 O10 1.273 . S
O13 Mg0 2.010 . S
O13 C5 1.249 . S
Mg14 O15 2.028 . S
Mg14 O21 1.986 . S
Mg14 O23 2.114 . S
Mg14 O24 2.251 . S
Mg14 O27 2.010 . S
O15 Mg14 2.028 . S
O15 C18 1.250 . S
O16 Mg17 2.028 . S
O16 C18 1.248 . S
Mg17 O16 2.028 . S
Mg17 O22 2.032 . S
Mg17 O24 2.079 . S
C18 O15 1.250 . S
C18 O16 1.248 . S
C19 O20 1.264 . S
C19 O27 1.249 . S
O20 C19 1.264 . S
O21 Mg14 1.986 . S
O21 C25 1.246 . S
O22 Mg17 2.032 . S
O22 C25 1.259 . S
O23 Mg14 2.114 . S
O23 C26 1.252 . S
O24 Mg14 2.251 . S
O24 Mg17 2.079 . S
O24 C26 1.273 . S
C25 O21 1.246 . S
C25 O22 1.259 . S
C26 O23 1.252 . S
C26 O24 1.273 . S
O27 Mg14 2.010 . S
O27 C19 1.249 . S
Mg28 O29 2.028 . S
Mg28 O35 1.986 1_655 S
Mg28 O37 2.114 . S
Mg28 O38 2.251 . S
Mg28 O41 2.010 . S
O29 Mg28 2.028 . S
O29 C32 1.250 . S
O30 Mg31 2.028 . S
O30 C32 1.248 . S
Mg31 O30 2.028 . S
Mg31 O36 2.032 1_655 S
Mg31 O38 2.079 . S
C32 O29 1.250 . S
C32 O30 1.248 . S
C33 O34 1.264 . S
C33 O41 1.249 . S
O34 C33 1.264 . S
O35 Mg28 1.986 1_455 S
O35 C39 1.246 . S
O36 Mg31 2.032 1_455 S
O36 C39 1.259 . S
O37 Mg28 2.114 . S
O37 C40 1.252 . S
O38 Mg28 2.251 . S
O38 Mg31 2.079 . S
O38 C40 1.273 . S
C39 O35 1.246 . S
C39 O36 1.259 . S
C40 O37 1.252 . S
C40 O38 1.273 . S
O41 Mg28 2.010 . S
O41 C33 1.249 . S
Mg42 O43 2.028 . S
Mg42 O49 1.986 . S
Mg42 O51 2.114 . S
Mg42 O52 2.251 . S
Mg42 O55 2.010 . S
O43 Mg42 2.028 . S
O43 C46 1.250 . S
O44 Mg45 2.028 . S
O44 C46 1.248 . S
Mg45 O44 2.028 . S
Mg45 O50 2.032 . S
Mg45 O52 2.079 . S
C46 O43 1.250 . S
C46 O44 1.248 . S
C47 O48 1.264 . S
C47 O55 1.249 . S
O48 C47 1.264 . S
O49 Mg42 1.986 . S
O49 C53 1.246 . S
O50 Mg45 2.032 . S
O50 C53 1.259 . S
O51 Mg42 2.114 . S
O51 C54 1.252 . S
O52 Mg42 2.251 . S
O52 Mg45 2.079 . S
O52 C54 1.273 . S
C53 O49 1.246 . S
C53 O50 1.259 . S
C54 O51 1.252 . S
C54 O52 1.273 . S
O55 Mg42 2.010 . S
O55 C47 1.249 . S
Mg56 O57 2.028 . S
Mg56 O63 1.986 . S
Mg56 O65 2.114 . S
Mg56 O66 2.251 . S
Mg56 O69 2.010 . S
O57 Mg56 2.028 . S
O57 C60 1.250 . S
O58 Mg59 2.028 . S
O58 C60 1.248 . S
Mg59 O58 2.028 . S
Mg59 O64 2.032 . S
Mg59 O66 2.079 . S
C60 O57 1.250 . S
C60 O58 1.248 . S
C61 O62 1.264 . S
C61 O69 1.249 . S
O62 C61 1.264 . S
O63 Mg56 1.986 . S
O63 C67 1.246 . S
O64 Mg59 2.032 . S
O64 C67 1.259 . S
O65 Mg56 2.114 . S
O65 C68 1.252 . S
O66 Mg56 2.251 . S
O66 Mg59 2.079 . S
O66 C68 1.273 . S
C67 O63 1.246 . S
C67 O64 1.259 . S
C68 O65 1.252 . S
C68 O66 1.273 . S
O69 Mg56 2.010 . S
O69 C61 1.249 . S
Mg70 O71 2.028 . S
Mg70 O77 1.986 . S
Mg70 O79 2.114 . S
Mg70 O80 2.251 . S
Mg70 O83 2.010 . S
O71 Mg70 2.028 . S
O71 C74 1.250 . S
O72 Mg73 2.028 . S
O72 C74 1.248 . S
Mg73 O72 2.028 . S
Mg73 O78 2.032 . S
Mg73 O80 2.079 . S
C74 O71 1.250 . S
C74 O72 1.248 . S
C75 O76 1.264 . S
C75 O83 1.249 . S
O76 C75 1.264 . S
O77 Mg70 1.986 . S
O77 C81 1.246 . S
O78 Mg73 2.032 . S
O78 C81 1.259 . S
O79 Mg70 2.114 . S
O79 C82 1.252 . S
O80 Mg70 2.251 . S
O80 Mg73 2.079 . S
O80 C82 1.273 . S
C81 O77 1.246 . S
C81 O78 1.259 . S
C82 O79 1.252 . S
C82 O80 1.273 . S
O83 Mg70 2.010 . S
O83 C75 1.249 . S
Mg84 O85 2.028 . S
Mg84 O91 1.986 1_655 S
Mg84 O93 2.114 . S
Mg84 O94 2.251 . S
Mg84 O97 2.010 . S
O85 Mg84 2.028 . S
O85 C88 1.250 . S
O86 Mg87 2.028 . S
O86 C88 1.248 . S
Mg87 O86 2.028 . S
Mg87 O92 2.032 1_655 S
Mg87 O94 2.079 . S
C88 O85 1.250 . S
C88 O86 1.248 . S
C89 O90 1.264 . S
C89 O97 1.249 . S
O90 C89 1.264 . S
O91 Mg84 1.986 1_455 S
O91 C95 1.246 . S
O92 Mg87 2.032 1_455 S
O92 C95 1.259 . S
O93 Mg84 2.114 . S
O93 C96 1.252 . S
O94 Mg84 2.251 . S
O94 Mg87 2.079 . S
O94 C96 1.273 . S
C95 O91 1.246 . S
C95 O92 1.259 . S
C96 O93 1.252 . S
C96 O94 1.273 . S
O97 Mg84 2.010 . S
O97 C89 1.249 . S
Mg98 O99 2.028 . S
Mg98 O105 1.986 . S
Mg98 O107 2.114 . S
Mg98 O108 2.251 . S
Mg98 O111 2.010 . S
O99 Mg98 2.028 . S
O99 C102 1.250 . S
O100 Mg101 2.028 . S
O100 C102 1.248 . S
Mg101 O100 2.028 . S
Mg101 O106 2.032 . S
Mg101 O108 2.079 . S
C102 O99 1.250 . S
C102 O100 1.248 . S
C103 O104 1.264 . S
C103 O111 1.249 . S
O104 C103 1.264 . S
O105 Mg98 1.986 . S
O105 C109 1.246 . S
O106 Mg101 2.032 . S
O106 C109 1.259 . S
O107 Mg98 2.114 . S
O107 C110 1.252 . S
O108 Mg98 2.251 . S
O108 Mg101 2.079 . S
O108 C110 1.273 . S
C109 O105 1.246 . S
C109 O106 1.259 . S
C110 O107 1.252 . S
C110 O108 1.273 . S
O111 Mg98 2.010 . S
O111 C103 1.249 . S
Mg112 O113 2.028 . S
Mg112 O119 1.986 . S
Mg112 O121 2.114 . S
Mg112 O122 2.251 . S
Mg112 O125 2.010 . S
O113 Mg112 2.028 . S
O113 C116 1.250 . S
O114 Mg115 2.028 . S
O114 C116 1.248 . S
Mg115 O114 2.028 . S
Mg115 O120 2.032 . S
Mg115 O122 2.079 . S
C116 O113 1.250 . S
C116 O114 1.248 . S
C117 O118 1.264 . S
C117 O125 1.249 . S
O118 C117 1.264 . S
O119 Mg112 1.986 . S
O119 C123 1.246 . S
O120 Mg115 2.032 . S
O120 C123 1.259 . S
O121 Mg112 2.114 . S
O121 C124 1.252 . S
O122 Mg112 2.251 . S
O122 Mg115 2.079 . S
O122 C124 1.273 . S
C123 O119 1.246 . S
C123 O120 1.259 . S
C124 O121 1.252 . S
C124 O122 1.273 . S
O125 Mg112 2.010 . S
O125 C117 1.249 . S
Mg126 O127 2.028 . S
Mg126 O133 1.986 . S
Mg126 O135 2.114 . S
Mg126 O136 2.251 . S
Mg126 O139 2.010 . S
O127 Mg126 2.028 . S
O127 C130 1.250 . S
O128 Mg129 2.028 . S
O128 C130 1.248 . S
Mg129 O128 2.028 . S
Mg129 O134 2.032 . S
Mg129 O136 2.079 . S
C130 O127 1.250 . S
C130 O128 1.248 . S
C131 O132 1.264 . S
C131 O139 1.249 . S
O132 C131 1.264 . S
O133 Mg126 1.986 . S
O133 C137 1.246 . S
O134 Mg129 2.032 . S
O134 C137 1.259 . S
O135 Mg126 2.114 . S
O135 C138 1.252 . S
O136 Mg126 2.251 . S
O136 Mg129 2.079 . S
O136 C138 1.273 . S
C137 O133 1.246 . S
C137 O134 1.259 . S
C138 O135 1.252 . S
C138 O136 1.273 . S
O139 Mg126 2.010 . S
O139 C131 1.249 . S
Mg140 O141 2.028 . S
Mg140 O147 1.986 . S
Mg140 O149 2.114 . S
Mg140 O150 2.251 . S
Mg140 O153 2.010 1_455 S
O141 Mg140 2.028 . S
O141 C144 1.250 . S
O142 Mg143 2.028 . S
O142 C144 1.248 . S
Mg143 O142 2.028 . S
Mg143 O148 2.032 . S
Mg143 O150 2.079 . S
C144 O141 1.250 . S
C144 O142 1.248 . S
C145 O146 1.264 . S
C145 O153 1.249 . S
O146 C145 1.264 . S
O147 Mg140 1.986 . S
O147 C151 1.246 . S
O148 Mg143 2.032 . S
O148 C151 1.259 . S
O149 Mg140 2.114 . S
O149 C152 1.252 . S
O150 Mg140 2.251 . S
O150 Mg143 2.079 . S
O150 C152 1.273 . S
C151 O147 1.246 . S
C151 O148 1.259 . S
C152 O149 1.252 . S
C152 O150 1.273 . S
O153 Mg140 2.010 1_655 S
O153 C145 1.249 . S
Mg154 O155 2.028 . S
Mg154 O161 1.986 1_545 S
Mg154 O163 2.114 . S
Mg154 O164 2.251 . S
Mg154 O167 2.010 . S
O155 Mg154 2.028 . S
O155 C158 1.250 . S
O156 Mg157 2.028 . S
O156 C158 1.248 . S
Mg157 O156 2.028 . S
Mg157 O162 2.032 1_545 S
Mg157 O164 2.079 . S
C158 O155 1.250 . S
C158 O156 1.248 . S
C159 O160 1.264 . S
C159 O167 1.249 . S
O160 C159 1.264 . S
O161 Mg154 1.986 1_565 S
O161 C165 1.246 . S
O162 Mg157 2.032 1_565 S
O162 C165 1.260 . S
O163 Mg154 2.114 . S
O163 C166 1.252 . S
O164 Mg154 2.251 . S
O164 Mg157 2.079 . S
O164 C166 1.273 . S
C165 O161 1.246 . S
C165 O162 1.260 . S
C166 O163 1.252 . S
C166 O164 1.273 . S
O167 Mg154 2.010 . S
O167 C159 1.249 . S
Mg168 O169 2.028 . S
Mg168 O175 1.986 . S
Mg168 O177 2.114 . S
Mg168 O178 2.251 . S
Mg168 O181 2.010 . S
O169 Mg168 2.028 . S
O169 C172 1.250 . S
O170 Mg171 2.028 . S
O170 C172 1.248 . S
Mg171 O170 2.028 . S
Mg171 O176 2.032 . S
Mg171 O178 2.079 . S
C172 O169 1.250 . S
C172 O170 1.248 . S
C173 O174 1.264 . S
C173 O181 1.249 . S
O174 C173 1.264 . S
O175 Mg168 1.986 . S
O175 C179 1.246 . S
O176 Mg171 2.032 . S
O176 C179 1.259 . S
O177 Mg168 2.114 . S
O177 C180 1.252 . S
O178 Mg168 2.251 . S
O178 Mg171 2.079 . S
O178 C180 1.273 . S
C179 O175 1.246 . S
C179 O176 1.259 . S
C180 O177 1.252 . S
C180 O178 1.273 . S
O181 Mg168 2.010 . S
O181 C173 1.249 . S
Mg182 O183 2.028 . S
Mg182 O189 1.986 . S
Mg182 O191 2.114 . S
Mg182 O192 2.251 . S
Mg182 O195 2.010 . S
O183 Mg182 2.028 . S
O183 C186 1.250 . S
O184 Mg185 2.028 . S
O184 C186 1.248 . S
Mg185 O184 2.028 . S
Mg185 O190 2.032 . S
Mg185 O192 2.079 . S
C186 O183 1.250 . S
C186 O184 1.248 . S
C187 O188 1.264 . S
C187 O195 1.249 . S
O188 C187 1.264 . S
O189 Mg182 1.986 . S
O189 C193 1.246 . S
O190 Mg185 2.032 . S
O190 C193 1.259 . S
O191 Mg182 2.114 . S
O191 C194 1.252 . S
O192 Mg182 2.251 . S
O192 Mg185 2.079 . S
O192 C194 1.273 . S
C193 O189 1.246 . S
C193 O190 1.259 . S
C194 O191 1.252 . S
C194 O192 1.273 . S
O195 Mg182 2.010 . S
O195 C187 1.249 . S
Mg196 O197 2.028 . S
Mg196 O203 1.986 . S
Mg196 O205 2.114 . S
Mg196 O206 2.251 . S
Mg196 O209 2.010 1_455 S
O197 Mg196 2.028 . S
O197 C200 1.250 . S
O198 Mg199 2.028 . S
O198 C200 1.248 . S
Mg199 O198 2.028 . S
Mg199 O204 2.032 . S
Mg199 O206 2.079 . S
C200 O197 1.250 . S
C200 O198 1.248 . S
C201 O202 1.264 . S
C201 O209 1.249 . S
O202 C201 1.264 . S
O203 Mg196 1.986 . S
O203 C207 1.246 . S
O204 Mg199 2.032 . S
O204 C207 1.259 . S
O205 Mg196 2.114 . S
O205 C208 1.252 . S
O206 Mg196 2.251 . S
O206 Mg199 2.079 . S
O206 C208 1.273 . S
C207 O203 1.246 . S
C207 O204 1.259 . S
C208 O205 1.252 . S
C208 O206 1.273 . S
O209 Mg196 2.010 1_655 S
O209 C201 1.249 . S
Mg210 O211 2.028 . S
Mg210 O217 1.986 1_545 S
Mg210 O219 2.114 . S
Mg210 O220 2.251 . S
Mg210 O223 2.010 . S
O211 Mg210 2.028 . S
O211 C214 1.250 . S
O212 Mg213 2.028 . S
O212 C214 1.248 . S
Mg213 O212 2.028 . S
Mg213 O218 2.032 1_545 S
Mg213 O220 2.079 . S
C214 O211 1.250 . S
C214 O212 1.248 . S
C215 O216 1.264 . S
C215 O223 1.249 . S
O216 C215 1.264 . S
O217 Mg210 1.986 1_565 S
O217 C221 1.246 . S
O218 Mg213 2.032 1_565 S
O218 C221 1.260 . S
O219 Mg210 2.114 . S
O219 C222 1.252 . S
O220 Mg210 2.251 . S
O220 Mg213 2.079 . S
O220 C222 1.273 . S
C221 O217 1.246 . S
C221 O218 1.260 . S
C222 O219 1.252 . S
C222 O220 1.273 . S
O223 Mg210 2.010 . S
O223 C215 1.249 . S
H224 C232 0.950 . S
H225 C237 0.950 . S
H226 C234 0.950 . S
H227 C236 0.950 . S
H228 C238 0.950 . S
H229 C240 0.950 . S
H230 C242 0.950 . S
H231 C243 0.950 . S
C232 H224 0.950 . S
C232 C233 1.386 . S
C232 C234 1.391 . S
C233 C232 1.386 . S
C233 C237 1.393 . S
C234 H226 0.950 . S
C234 C232 1.391 . S
C234 C235 1.400 . S
C235 C234 1.400 . S
C235 C236 1.398 . S
C235 C241 1.491 . S
C236 H227 0.950 . S
C236 C235 1.398 . S
C236 C237 1.391 . S
C237 H225 0.950 . S
C237 C233 1.393 . S
C237 C236 1.391 . S
C238 H228 0.950 . S
C238 C239 1.386 . S
C238 C240 1.391 . S
C239 C238 1.386 . S
C239 C243 1.393 . S
C240 H229 0.950 . S
C240 C238 1.391 . S
C240 C241 1.400 . S
C241 C235 1.491 . S
C241 C240 1.400 . S
C241 C242 1.398 . S
C242 H230 0.950 . S
C242 C241 1.398 . S
C242 C243 1.391 . S
C243 H231 0.950 . S
C243 C239 1.393 . S
C243 C242 1.391 . S
H244 C252 0.950 . S
H245 C257 0.950 . S
H246 C254 0.950 . S
H247 C256 0.950 . S
H248 C258 0.950 . S
H249 C260 0.950 . S
H250 C262 0.950 . S
H251 C263 0.950 . S
C252 H244 0.950 . S
C252 C253 1.386 . S
C252 C254 1.391 . S
C253 C252 1.386 . S
C253 C257 1.393 . S
C254 H246 0.950 . S
C254 C252 1.391 . S
C254 C255 1.400 . S
C255 C254 1.400 . S
C255 C256 1.398 . S
C255 C261 1.491 . S
C256 H247 0.950 . S
C256 C255 1.398 . S
C256 C257 1.391 . S
C257 H245 0.950 . S
C257 C253 1.393 . S
C257 C256 1.391 . S
C258 H248 0.950 . S
C258 C259 1.386 . S
C258 C260 1.391 . S
C259 C258 1.386 . S
C259 C263 1.393 . S
C260 H249 0.950 . S
C260 C258 1.391 . S
C260 C261 1.400 . S
C261 C255 1.491 . S
C261 C260 1.400 . S
C261 C262 1.398 . S
C262 H250 0.950 . S
C262 C261 1.398 . S
C262 C263 1.391 . S
C263 H251 0.950 . S
C263 C259 1.393 . S
C263 C262 1.391 . S
H264 C272 0.950 . S
H265 C277 0.950 . S
H266 C274 0.950 . S
H267 C276 0.950 . S
H268 C278 0.950 . S
H269 C280 0.950 . S
H270 C282 0.950 . S
H271 C283 0.950 . S
C272 H264 0.950 . S
C272 C273 1.386 . S
C272 C274 1.391 . S
C273 C272 1.386 . S
C273 C277 1.393 . S
C274 H266 0.950 . S
C274 C272 1.391 . S
C274 C275 1.400 . S
C275 C274 1.400 . S
C275 C276 1.398 . S
C275 C281 1.491 . S
C276 H267 0.950 . S
C276 C275 1.398 . S
C276 C277 1.391 . S
C277 H265 0.950 . S
C277 C273 1.393 . S
C277 C276 1.391 . S
C278 H268 0.950 . S
C278 C279 1.386 . S
C278 C280 1.391 . S
C279 C278 1.386 . S
C279 C283 1.393 . S
C280 H269 0.950 . S
C280 C278 1.391 . S
C280 C281 1.400 . S
C281 C275 1.491 . S
C281 C280 1.400 . S
C281 C282 1.398 . S
C282 H270 0.950 . S
C282 C281 1.398 . S
C282 C283 1.391 . S
C283 H271 0.950 . S
C283 C279 1.393 . S
C283 C282 1.391 . S
H284 C292 0.950 1_565 S
H285 C297 0.950 . S
H286 C294 0.950 . S
H287 C296 0.950 . S
H288 C298 0.950 . S
H289 C300 0.950 . S
H290 C302 0.950 . S
H291 C303 0.950 . S
C292 H284 0.950 1_545 S
C292 C293 1.386 . S
C292 C294 1.391 . S
C293 C292 1.386 . S
C293 C297 1.393 . S
C294 H286 0.950 . S
C294 C292 1.391 . S
C294 C295 1.400 . S
C295 C294 1.400 . S
C295 C296 1.398 . S
C295 C301 1.491 . S
C296 H287 0.950 . S
C296 C295 1.398 . S
C296 C297 1.391 . S
C297 H285 0.950 . S
C297 C293 1.393 . S
C297 C296 1.391 . S
C298 H288 0.950 . S
C298 C299 1.386 . S
C298 C300 1.391 . S
C299 C298 1.386 . S
C299 C303 1.393 . S
C300 H289 0.950 . S
C300 C298 1.391 . S
C300 C301 1.400 . S
C301 C295 1.491 . S
C301 C300 1.400 . S
C301 C302 1.398 . S
C302 H290 0.950 . S
C302 C301 1.398 . S
C302 C303 1.391 . S
C303 H291 0.950 . S
C303 C299 1.393 . S
C303 C302 1.391 . S
H304 C312 0.950 . S
H305 C317 0.950 . S
H306 C314 0.950 . S
H307 C316 0.950 . S
H308 C318 0.950 . S
H309 C320 0.950 . S
H310 C322 0.950 . S
H311 C323 0.950 . S
C312 H304 0.950 . S
C312 C313 1.386 . S
C312 C314 1.391 . S
C313 C312 1.386 . S
C313 C317 1.393 . S
C314 H306 0.950 . S
C314 C312 1.391 . S
C314 C315 1.400 . S
C315 C314 1.400 . S
C315 C316 1.398 . S
C315 C321 1.491 . S
C316 H307 0.950 . S
C316 C315 1.398 . S
C316 C317 1.391 . S
C317 H305 0.950 . S
C317 C313 1.393 . S
C317 C316 1.391 . S
C318 H308 0.950 . S
C318 C319 1.386 . S
C318 C320 1.391 . S
C319 C318 1.386 . S
C319 C323 1.393 . S
C320 H309 0.950 . S
C320 C318 1.391 . S
C320 C321 1.400 . S
C321 C315 1.491 . S
C321 C320 1.400 . S
C321 C322 1.398 . S
C322 H310 0.950 . S
C322 C321 1.398 . S
C322 C323 1.391 . S
C323 H311 0.950 . S
C323 C319 1.393 . S
C323 C322 1.391 . S
H324 C332 0.950 . S
H325 C337 0.950 . S
H326 C334 0.950 . S
H327 C336 0.950 . S
H328 C338 0.950 . S
H329 C340 0.950 . S
H330 C342 0.950 . S
H331 C343 0.950 . S
C332 H324 0.950 . S
C332 C333 1.386 . S
C332 C334 1.391 . S
C333 C332 1.386 . S
C333 C337 1.393 . S
C334 H326 0.950 . S
C334 C332 1.391 . S
C334 C335 1.400 . S
C335 C334 1.400 . S
C335 C336 1.398 . S
C335 C341 1.491 . S
C336 H327 0.950 . S
C336 C335 1.398 . S
C336 C337 1.391 . S
C337 H325 0.950 . S
C337 C333 1.393 . S
C337 C336 1.391 . S
C338 H328 0.950 . S
C338 C339 1.386 . S
C338 C340 1.391 . S
C339 C338 1.386 . S
C339 C343 1.393 . S
C340 H329 0.950 . S
C340 C338 1.391 . S
C340 C341 1.400 . S
C341 C335 1.491 . S
C341 C340 1.400 . S
C341 C342 1.398 . S
C342 H330 0.950 . S
C342 C341 1.398 . S
C342 C343 1.391 . S
C343 H331 0.950 . S
C343 C339 1.393 . S
C343 C342 1.391 . S
H344 C352 0.950 . S
H345 C357 0.950 . S
H346 C354 0.950 . S
H347 C356 0.950 . S
H348 C358 0.950 . S
H349 C360 0.950 . S
H350 C362 0.950 . S
H351 C363 0.950 . S
C352 H344 0.950 . S
C352 C353 1.386 . S
C352 C354 1.391 . S
C353 C352 1.386 . S
C353 C357 1.393 . S
C354 H346 0.950 . S
C354 C352 1.391 . S
C354 C355 1.400 . S
C355 C354 1.400 . S
C355 C356 1.398 . S
C355 C361 1.491 . S
C356 H347 0.950 . S
C356 C355 1.398 . S
C356 C357 1.391 . S
C357 H345 0.950 . S
C357 C353 1.393 . S
C357 C356 1.391 . S
C358 H348 0.950 . S
C358 C359 1.386 . S
C358 C360 1.391 . S
C359 C358 1.386 . S
C359 C363 1.393 . S
C360 H349 0.950 . S
C360 C358 1.391 . S
C360 C361 1.400 . S
C361 C355 1.491 . S
C361 C360 1.400 . S
C361 C362 1.398 . S
C362 H350 0.950 . S
C362 C361 1.398 . S
C362 C363 1.391 . S
C363 H351 0.950 . S
C363 C359 1.393 . S
C363 C362 1.391 . S
H364 C372 0.950 . S
H365 C377 0.950 . S
H366 C374 0.950 . S
H367 C376 0.950 . S
H368 C378 0.950 . S
H369 C380 0.950 . S
H370 C382 0.950 . S
H371 C383 0.950 . S
C372 H364 0.950 . S
C372 C373 1.386 . S
C372 C374 1.391 . S
C373 C372 1.386 . S
C373 C377 1.393 . S
C374 H366 0.950 . S
C374 C372 1.391 . S
C374 C375 1.400 . S
C375 C374 1.400 . S
C375 C376 1.398 . S
C375 C381 1.491 . S
C376 H367 0.950 . S
C376 C375 1.398 . S
C376 C377 1.391 . S
C377 H365 0.950 . S
C377 C373 1.393 . S
C377 C376 1.391 . S
C378 H368 0.950 . S
C378 C379 1.386 . S
C378 C380 1.391 . S
C379 C378 1.386 . S
C379 C383 1.393 . S
C380 H369 0.950 . S
C380 C378 1.391 . S
C380 C381 1.400 . S
C381 C375 1.491 . S
C381 C380 1.400 . S
C381 C382 1.398 . S
C382 H370 0.950 . S
C382 C381 1.398 . S
C382 C383 1.391 . S
C383 H371 0.950 . S
C383 C379 1.393 . S
C383 C382 1.391 . S
H384 C392 0.950 . S
H385 C397 0.950 . S
H386 C394 0.950 . S
H387 C396 0.950 . S
H388 C398 0.950 . S
H389 C400 0.950 . S
H390 C402 0.950 . S
H391 C403 0.950 . S
C392 H384 0.950 . S
C392 C393 1.386 . S
C392 C394 1.391 . S
C393 C392 1.386 . S
C393 C397 1.393 . S
C394 H386 0.950 . S
C394 C392 1.391 . S
C394 C395 1.400 . S
C395 C394 1.400 . S
C395 C396 1.398 . S
C395 C401 1.491 . S
C396 H387 0.950 . S
C396 C395 1.398 . S
C396 C397 1.391 . S
C397 H385 0.950 . S
C397 C393 1.393 . S
C397 C396 1.391 . S
C398 H388 0.950 . S
C398 C399 1.386 . S
C398 C400 1.391 . S
C399 C398 1.386 . S
C399 C403 1.393 . S
C400 H389 0.950 . S
C400 C398 1.391 . S
C400 C401 1.400 . S
C401 C395 1.491 . S
C401 C400 1.400 . S
C401 C402 1.398 . S
C402 H390 0.950 . S
C402 C401 1.398 . S
C402 C403 1.391 . S
C403 H391 0.950 . S
C403 C399 1.393 . S
C403 C402 1.391 . S
H404 C412 0.950 . S
H405 C417 0.950 . S
H406 C414 0.950 . S
H407 C416 0.950 . S
H408 C418 0.950 . S
H409 C420 0.950 . S
H410 C422 0.950 . S
H411 C423 0.950 . S
C412 H404 0.950 . S
C412 C413 1.386 . S
C412 C414 1.391 . S
C413 C412 1.386 . S
C413 C417 1.393 . S
C414 H406 0.950 . S
C414 C412 1.391 . S
C414 C415 1.400 . S
C415 C414 1.400 . S
C415 C416 1.398 . S
C415 C421 1.491 . S
C416 H407 0.950 . S
C416 C415 1.398 . S
C416 C417 1.391 . S
C417 H405 0.950 . S
C417 C413 1.393 . S
C417 C416 1.391 . S
C418 H408 0.950 . S
C418 C419 1.386 . S
C418 C420 1.391 . S
C419 C418 1.386 . S
C419 C423 1.393 . S
C420 H409 0.950 . S
C420 C418 1.391 . S
C420 C421 1.400 . S
C421 C415 1.491 . S
C421 C420 1.400 . S
C421 C422 1.398 . S
C422 H410 0.950 . S
C422 C421 1.398 . S
C422 C423 1.391 . S
C423 H411 0.950 . S
C423 C419 1.393 . S
C423 C422 1.391 . S
H424 C432 0.950 . S
H425 C437 0.950 . S
H426 C434 0.950 . S
H427 C436 0.950 . S
H428 C438 0.950 . S
H429 C440 0.950 . S
H430 C442 0.950 . S
H431 C443 0.950 . S
C432 H424 0.950 . S
C432 C433 1.386 . S
C432 C434 1.391 . S
C433 C432 1.386 . S
C433 C437 1.393 . S
C434 H426 0.950 . S
C434 C432 1.391 . S
C434 C435 1.400 . S
C435 C434 1.400 . S
C435 C436 1.398 . S
C435 C441 1.491 . S
C436 H427 0.950 . S
C436 C435 1.398 . S
C436 C437 1.391 . S
C437 H425 0.950 . S
C437 C433 1.393 . S
C437 C436 1.391 . S
C438 H428 0.950 . S
C438 C439 1.386 . S
C438 C440 1.391 . S
C439 C438 1.386 . S
C439 C443 1.393 . S
C440 H429 0.950 . S
C440 C438 1.391 . S
C440 C441 1.400 . S
C441 C435 1.491 . S
C441 C440 1.400 . S
C441 C442 1.398 . S
C442 H430 0.950 . S
C442 C441 1.398 . S
C442 C443 1.391 . S
C443 H431 0.950 . S
C443 C439 1.393 . S
C443 C442 1.391 . S
H444 C452 0.950 . S
H445 C457 0.950 . S
H446 C454 0.950 . S
H447 C456 0.950 . S
H448 C458 0.950 . S
H449 C460 0.950 . S
H450 C462 0.950 . S
H451 C463 0.950 . S
C452 H444 0.950 . S
C452 C453 1.386 . S
C452 C454 1.391 . S
C453 C452 1.386 . S
C453 C457 1.393 . S
C454 H446 0.950 . S
C454 C452 1.391 . S
C454 C455 1.400 . S
C455 C454 1.400 . S
C455 C456 1.398 . S
C455 C461 1.491 . S
C456 H447 0.950 . S
C456 C455 1.398 . S
C456 C457 1.391 . S
C457 H445 0.950 . S
C457 C453 1.393 . S
C457 C456 1.391 . S
C458 H448 0.950 . S
C458 C459 1.386 . S
C458 C460 1.391 . S
C459 C458 1.386 . S
C459 C463 1.393 . S
C460 H449 0.950 . S
C460 C458 1.391 . S
C460 C461 1.400 . S
C461 C455 1.491 . S
C461 C460 1.400 . S
C461 C462 1.398 . S
C462 H450 0.950 . S
C462 C461 1.398 . S
C462 C463 1.391 . S
C463 H451 0.950 . S
C463 C459 1.393 . S
C463 C462 1.391 . S
H464 C472 0.950 . S
H465 C477 0.950 . S
H466 C474 0.950 . S
H467 C476 0.950 . S
H468 C478 0.950 . S
H469 C480 0.950 . S
H470 C482 0.950 . S
H471 C483 0.950 . S
C472 H464 0.950 . S
C472 C473 1.386 . S
C472 C474 1.391 . S
C473 C472 1.386 . S
C473 C477 1.393 . S
C474 H466 0.950 . S
C474 C472 1.391 . S
C474 C475 1.400 . S
C475 C474 1.400 . S
C475 C476 1.398 . S
C475 C481 1.491 . S
C476 H467 0.950 . S
C476 C475 1.398 . S
C476 C477 1.391 . S
C477 H465 0.950 . S
C477 C473 1.393 . S
C477 C476 1.391 . S
C478 H468 0.950 . S
C478 C479 1.386 . S
C478 C480 1.391 . S
C479 C478 1.386 . S
C479 C483 1.393 . S
C480 H469 0.950 . S
C480 C478 1.391 . S
C480 C481 1.400 . S
C481 C475 1.491 . S
C481 C480 1.400 . S
C481 C482 1.398 . S
C482 H470 0.950 . S
C482 C481 1.398 . S
C482 C483 1.391 . S
C483 H471 0.950 . S
C483 C479 1.393 . S
C483 C482 1.391 . S
H484 C492 0.950 . S
H485 C497 0.950 . S
H486 C494 0.950 . S
H487 C496 0.950 . S
H488 C498 0.950 . S
H489 C500 0.950 . S
H490 C502 0.950 . S
H491 C503 0.950 . S
C492 H484 0.950 . S
C492 C493 1.386 . S
C492 C494 1.391 . S
C493 C492 1.386 . S
C493 C497 1.393 . S
C494 H486 0.950 . S
C494 C492 1.391 . S
C494 C495 1.400 . S
C495 C494 1.400 . S
C495 C496 1.398 . S
C495 C501 1.491 . S
C496 H487 0.950 . S
C496 C495 1.398 . S
C496 C497 1.391 . S
C497 H485 0.950 . S
C497 C493 1.393 . S
C497 C496 1.391 . S
C498 H488 0.950 . S
C498 C499 1.386 . S
C498 C500 1.391 . S
C499 C498 1.386 . S
C499 C503 1.393 . S
C500 H489 0.950 . S
C500 C498 1.391 . S
C500 C501 1.400 . S
C501 C495 1.491 . S
C501 C500 1.400 . S
C501 C502 1.398 . S
C502 H490 0.950 . S
C502 C501 1.398 . S
C502 C503 1.391 . S
C503 H491 0.950 . S
C503 C499 1.393 . S
C503 C502 1.391 . S
H504 C512 0.950 . S
H505 C517 0.950 . S
H506 C514 0.950 . S
H507 C516 0.950 . S
H508 C518 0.950 . S
H509 C520 0.950 . S
H510 C522 0.950 . S
H511 C523 0.950 . S
C512 H504 0.950 . S
C512 C513 1.386 . S
C512 C514 1.391 . S
C513 C512 1.386 . S
C513 C517 1.393 . S
C514 H506 0.950 . S
C514 C512 1.391 . S
C514 C515 1.400 . S
C515 C514 1.400 . S
C515 C516 1.398 . S
C515 C521 1.491 . S
C516 H507 0.950 . S
C516 C515 1.398 . S
C516 C517 1.391 . S
C517 H505 0.950 . S
C517 C513 1.393 . S
C517 C516 1.391 . S
C518 H508 0.950 . S
C518 C519 1.386 . S
C518 C520 1.391 . S
C519 C518 1.386 . S
C519 C523 1.393 . S
C520 H509 0.950 . S
C520 C518 1.391 . S
C520 C521 1.400 . S
C521 C515 1.491 . S
C521 C520 1.400 . S
C521 C522 1.398 . S
C522 H510 0.950 . S
C522 C521 1.398 . S
C522 C523 1.391 . S
C523 H511 0.950 . S
C523 C519 1.393 . S
C523 C522 1.391 . S
H524 C532 0.950 . S
H525 C537 0.950 . S
H526 C534 0.950 . S
H527 C536 0.950 . S
H528 C538 0.950 . S
H529 C540 0.950 . S
H530 C542 0.950 . S
H531 C543 0.950 . S
C532 H524 0.950 . S
C532 C533 1.386 . S
C532 C534 1.391 . S
C533 C532 1.386 . S
C533 C537 1.393 . S
C534 H526 0.950 . S
C534 C532 1.391 . S
C534 C535 1.400 . S
C535 C534 1.400 . S
C535 C536 1.398 . S
C535 C541 1.491 . S
C536 H527 0.950 . S
C536 C535 1.398 . S
C536 C537 1.391 . S
C537 H525 0.950 . S
C537 C533 1.393 . S
C537 C536 1.391 . S
C538 H528 0.950 . S
C538 C539 1.386 . S
C538 C540 1.391 . S
C539 C538 1.386 . S
C539 C543 1.393 . S
C540 H529 0.950 . S
C540 C538 1.391 . S
C540 C541 1.400 . S
C541 C535 1.491 . S
C541 C540 1.400 . S
C541 C542 1.398 . S
C542 H530 0.950 . S
C542 C541 1.398 . S
C542 C543 1.391 . S
C543 H531 0.950 . S
C543 C539 1.393 . S
C543 C542 1.391 . S
H544 C552 0.950 . S
H545 C557 0.950 . S
H546 C554 0.950 . S
H547 C556 0.950 . S
H548 C558 0.950 . S
H549 C560 0.950 . S
H550 C562 0.950 . S
H551 C563 0.950 . S
C552 H544 0.950 . S
C552 C553 1.386 . S
C552 C554 1.391 . S
C553 C552 1.386 . S
C553 C557 1.393 . S
C554 H546 0.950 . S
C554 C552 1.391 . S
C554 C555 1.400 . S
C555 C554 1.400 . S
C555 C556 1.398 . S
C555 C561 1.491 . S
C556 H547 0.950 . S
C556 C555 1.398 . S
C556 C557 1.391 . S
C557 H545 0.950 . S
C557 C553 1.393 . S
C557 C556 1.391 . S
C558 H548 0.950 . S
C558 C559 1.386 . S
C558 C560 1.391 . S
C559 C558 1.386 . S
C559 C563 1.393 . S
C560 H549 0.950 . S
C560 C558 1.391 . S
C560 C561 1.400 . S
C561 C555 1.491 . S
C561 C560 1.400 . S
C561 C562 1.398 . S
C562 H550 0.950 . S
C562 C561 1.398 . S
C562 C563 1.391 . S
C563 H551 0.950 . S
C563 C559 1.393 . S
C563 C562 1.391 . S
H564 C572 0.950 . S
H565 C577 0.950 . S
H566 C574 0.950 . S
H567 C576 0.950 . S
H568 C578 0.950 . S
H569 C580 0.950 . S
H570 C582 0.950 . S
H571 C583 0.950 . S
C572 H564 0.950 . S
C572 C573 1.386 . S
C572 C574 1.391 . S
C573 C572 1.386 . S
C573 C577 1.393 . S
C574 H566 0.950 . S
C574 C572 1.391 . S
C574 C575 1.400 . S
C575 C574 1.400 . S
C575 C576 1.398 . S
C575 C581 1.491 . S
C576 H567 0.950 . S
C576 C575 1.398 . S
C576 C577 1.391 . S
C577 H565 0.950 . S
C577 C573 1.393 . S
C577 C576 1.391 . S
C578 H568 0.950 . S
C578 C579 1.386 . S
C578 C580 1.391 . S
C579 C578 1.386 . S
C579 C583 1.393 . S
C580 H569 0.950 . S
C580 C578 1.391 . S
C580 C581 1.400 . S
C581 C575 1.491 . S
C581 C580 1.400 . S
C581 C582 1.398 . S
C582 H570 0.950 . S
C582 C581 1.398 . S
C582 C583 1.391 . S
C583 H571 0.950 . S
C583 C579 1.393 . S
C583 C582 1.391 . S
H584 C592 0.950 . S
H585 C597 0.950 . S
H586 C594 0.950 . S
H587 C596 0.950 . S
H588 C598 0.950 . S
H589 C600 0.950 . S
H590 C602 0.950 . S
H591 C603 0.950 . S
C592 H584 0.950 . S
C592 C593 1.386 . S
C592 C594 1.391 . S
C593 C592 1.386 . S
C593 C597 1.393 . S
C594 H586 0.950 . S
C594 C592 1.391 . S
C594 C595 1.400 . S
C595 C594 1.400 . S
C595 C596 1.398 . S
C595 C601 1.491 . S
C596 H587 0.950 . S
C596 C595 1.398 . S
C596 C597 1.391 . S
C597 H585 0.950 . S
C597 C593 1.393 . S
C597 C596 1.391 . S
C598 H588 0.950 . S
C598 C599 1.386 . S
C598 C600 1.391 . S
C599 C598 1.386 . S
C599 C603 1.393 . S
C600 H589 0.950 . S
C600 C598 1.391 . S
C600 C601 1.400 . S
C601 C595 1.491 . S
C601 C600 1.400 . S
C601 C602 1.398 . S
C602 H590 0.950 . S
C602 C601 1.398 . S
C602 C603 1.391 . S
C603 H591 0.950 . S
C603 C599 1.393 . S
C603 C602 1.391 . S
H604 C612 0.950 . S
H605 C617 0.950 . S
H606 C614 0.950 . S
H607 C616 0.950 . S
H608 C618 0.950 . S
H609 C620 0.950 . S
H610 C622 0.950 . S
H611 C623 0.950 . S
C612 H604 0.950 . S
C612 C613 1.386 . S
C612 C614 1.391 . S
C613 C612 1.386 . S
C613 C617 1.393 . S
C614 H606 0.950 . S
C614 C612 1.391 . S
C614 C615 1.400 . S
C615 C614 1.400 . S
C615 C616 1.398 . S
C615 C621 1.491 . S
C616 H607 0.950 . S
C616 C615 1.398 . S
C616 C617 1.391 . S
C617 H605 0.950 . S
C617 C613 1.393 . S
C617 C616 1.391 . S
C618 H608 0.950 . S
C618 C619 1.386 . S
C618 C620 1.391 . S
C619 C618 1.386 . S
C619 C623 1.393 . S
C620 H609 0.950 . S
C620 C618 1.391 . S
C620 C621 1.400 . S
C621 C615 1.491 . S
C621 C620 1.400 . S
C621 C622 1.398 . S
C622 H610 0.950 . S
C622 C621 1.398 . S
C622 C623 1.391 . S
C623 H611 0.950 . S
C623 C619 1.393 . S
C623 C622 1.391 . S
H624 C632 0.950 . S
H625 C637 0.950 . S
H626 C634 0.950 . S
H627 C636 0.950 . S
H628 C638 0.950 . S
H629 C640 0.950 . S
H630 C642 0.950 . S
H631 C643 0.950 . S
C632 H624 0.950 . S
C632 C633 1.386 . S
C632 C634 1.391 . S
C633 C632 1.386 . S
C633 C637 1.393 . S
C634 H626 0.950 . S
C634 C632 1.391 . S
C634 C635 1.400 . S
C635 C634 1.400 . S
C635 C636 1.398 . S
C635 C641 1.491 . S
C636 H627 0.950 . S
C636 C635 1.398 . S
C636 C637 1.391 . S
C637 H625 0.950 . S
C637 C633 1.393 . S
C637 C636 1.391 . S
C638 H628 0.950 . S
C638 C639 1.386 . S
C638 C640 1.391 . S
C639 C638 1.386 . S
C639 C643 1.393 . S
C640 H629 0.950 . S
C640 C638 1.391 . S
C640 C641 1.400 . S
C641 C635 1.491 . S
C641 C640 1.400 . S
C641 C642 1.398 . S
C642 H630 0.950 . S
C642 C641 1.398 . S
C642 C643 1.391 . S
C643 H631 0.950 . S
C643 C639 1.393 . S
C643 C642 1.391 . S
H644 C652 0.950 . S
H645 C657 0.950 . S
H646 C654 0.950 . S
H647 C656 0.950 . S
H648 C658 0.950 . S
H649 C660 0.950 . S
H650 C662 0.950 . S
H651 C663 0.950 . S
C652 H644 0.950 . S
C652 C653 1.386 . S
C652 C654 1.391 . S
C653 C652 1.386 . S
C653 C657 1.393 . S
C654 H646 0.950 . S
C654 C652 1.391 . S
C654 C655 1.400 . S
C655 C654 1.400 . S
C655 C656 1.398 . S
C655 C661 1.491 . S
C656 H647 0.950 . S
C656 C655 1.398 . S
C656 C657 1.391 . S
C657 H645 0.950 . S
C657 C653 1.393 . S
C657 C656 1.391 . S
C658 H648 0.950 . S
C658 C659 1.386 . S
C658 C660 1.391 . S
C659 C658 1.386 . S
C659 C663 1.393 . S
C660 H649 0.950 . S
C660 C658 1.391 . S
C660 C661 1.400 . S
C661 C655 1.491 . S
C661 C660 1.400 . S
C661 C662 1.398 . S
C662 H650 0.950 . S
C662 C661 1.398 . S
C662 C663 1.391 . S
C663 H651 0.950 . S
C663 C659 1.393 . S
C663 C662 1.391 . S
H664 C672 0.950 . S
H665 C677 0.950 . S
H666 C674 0.950 . S
H667 C676 0.950 . S
H668 C678 0.950 . S
H669 C680 0.950 . S
H670 C682 0.950 . S
H671 C683 0.950 . S
C672 H664 0.950 . S
C672 C673 1.386 . S
C672 C674 1.391 . S
C673 C672 1.386 . S
C673 C677 1.393 . S
C674 H666 0.950 . S
C674 C672 1.391 . S
C674 C675 1.400 . S
C675 C674 1.400 . S
C675 C676 1.398 . S
C675 C681 1.491 . S
C676 H667 0.950 . S
C676 C675 1.398 . S
C676 C677 1.391 . S
C677 H665 0.950 . S
C677 C673 1.393 . S
C677 C676 1.391 . S
C678 H668 0.950 . S
C678 C679 1.386 . S
C678 C680 1.391 . S
C679 C678 1.386 . S
C679 C683 1.393 . S
C680 H669 0.950 . S
C680 C678 1.391 . S
C680 C681 1.400 . S
C681 C675 1.491 . S
C681 C680 1.400 . S
C681 C682 1.398 . S
C682 H670 0.950 . S
C682 C681 1.398 . S
C682 C683 1.391 . S
C683 H671 0.950 . S
C683 C679 1.393 . S
C683 C682 1.391 . S
H684 C692 0.950 . S
H685 C697 0.950 . S
H686 C694 0.950 . S
H687 C696 0.950 . S
H688 C698 0.950 . S
H689 C700 0.950 . S
H690 C702 0.950 . S
H691 C703 0.950 . S
C692 H684 0.950 . S
C692 C693 1.386 . S
C692 C694 1.391 . S
C693 C692 1.386 . S
C693 C697 1.393 . S
C694 H686 0.950 . S
C694 C692 1.391 . S
C694 C695 1.400 . S
C695 C694 1.400 . S
C695 C696 1.398 . S
C695 C701 1.491 . S
C696 H687 0.950 . S
C696 C695 1.398 . S
C696 C697 1.391 . S
C697 H685 0.950 . S
C697 C693 1.393 . S
C697 C696 1.391 . S
C698 H688 0.950 . S
C698 C699 1.386 . S
C698 C700 1.391 . S
C699 C698 1.386 . S
C699 C703 1.393 . S
C700 H689 0.950 . S
C700 C698 1.391 . S
C700 C701 1.400 . S
C701 C695 1.491 . S
C701 C700 1.400 . S
C701 C702 1.398 . S
C702 H690 0.950 . S
C702 C701 1.398 . S
C702 C703 1.391 . S
C703 H691 0.950 . S
C703 C699 1.393 . S
C703 C702 1.391 . S
H704 C712 0.950 . S
H705 C717 0.950 . S
H706 C714 0.950 . S
H707 C716 0.950 . S
H708 C718 0.950 . S
H709 C720 0.950 . S
H710 C722 0.950 . S
H711 C723 0.950 . S
C712 H704 0.950 . S
C712 C713 1.386 . S
C712 C714 1.391 . S
C713 C712 1.386 . S
C713 C717 1.393 . S
C714 H706 0.950 . S
C714 C712 1.391 . S
C714 C715 1.400 . S
C715 C714 1.400 . S
C715 C716 1.398 . S
C715 C721 1.491 1_554 S
C716 H707 0.950 . S
C716 C715 1.398 . S
C716 C717 1.391 . S
C717 H705 0.950 . S
C717 C713 1.393 . S
C717 C716 1.391 . S
C718 H708 0.950 . S
C718 C719 1.386 . S
C718 C720 1.391 . S
C719 C718 1.386 . S
C719 C723 1.393 . S
C720 H709 0.950 . S
C720 C718 1.391 . S
C720 C721 1.400 . S
C721 C715 1.491 1_556 S
C721 C720 1.400 . S
C721 C722 1.398 . S
C722 H710 0.950 . S
C722 C721 1.398 . S
C722 C723 1.391 . S
C723 H711 0.950 . S
C723 C719 1.393 . S
C723 C722 1.391 . S
H724 C732 0.950 . S
H725 C737 0.950 . S
H726 C734 0.950 . S
H727 C736 0.950 . S
H728 C738 0.950 . S
H729 C740 0.950 . S
H730 C742 0.950 . S
H731 C743 0.950 . S
C732 H724 0.950 . S
C732 C733 1.386 . S
C732 C734 1.391 . S
C733 C732 1.386 . S
C733 C737 1.393 . S
C734 H726 0.950 . S
C734 C732 1.391 . S
C734 C735 1.400 . S
C735 C734 1.400 . S
C735 C736 1.398 . S
C735 C741 1.491 . S
C736 H727 0.950 . S
C736 C735 1.398 . S
C736 C737 1.391 . S
C737 H725 0.950 . S
C737 C733 1.393 . S
C737 C736 1.391 . S
C738 H728 0.950 . S
C738 C739 1.386 . S
C738 C740 1.391 . S
C739 C738 1.386 . S
C739 C743 1.393 . S
C740 H729 0.950 . S
C740 C738 1.391 . S
C740 C741 1.400 . S
C741 C735 1.491 . S
C741 C740 1.400 . S
C741 C742 1.398 . S
C742 H730 0.950 . S
C742 C741 1.398 . S
C742 C743 1.391 . S
C743 H731 0.950 . S
C743 C739 1.393 . S
C743 C742 1.391 . S
H744 C752 0.950 . S
H745 C757 0.950 . S
H746 C754 0.950 . S
H747 C756 0.950 . S
H748 C758 0.950 . S
H749 C760 0.950 . S
H750 C762 0.950 . S
H751 C763 0.950 . S
C752 H744 0.950 . S
C752 C753 1.386 . S
C752 C754 1.391 . S
C753 C752 1.386 . S
C753 C757 1.393 . S
C754 H746 0.950 . S
C754 C752 1.391 . S
C754 C755 1.400 . S
C755 C754 1.400 . S
C755 C756 1.398 . S
C755 C761 1.491 1_554 S
C756 H747 0.950 . S
C756 C755 1.398 . S
C756 C757 1.391 . S
C757 H745 0.950 . S
C757 C753 1.393 . S
C757 C756 1.391 . S
C758 H748 0.950 . S
C758 C759 1.386 . S
C758 C760 1.391 . S
C759 C758 1.386 . S
C759 C763 1.393 . S
C760 H749 0.950 . S
C760 C758 1.391 . S
C760 C761 1.400 . S
C761 C755 1.491 1_556 S
C761 C760 1.400 . S
C761 C762 1.398 . S
C762 H750 0.950 . S
C762 C761 1.398 . S
C762 C763 1.391 . S
C763 H751 0.950 . S
C763 C759 1.393 . S
C763 C762 1.391 . S
H764 C772 0.950 . S
H765 C777 0.950 . S
H766 C774 0.950 . S
H767 C776 0.950 . S
H768 C778 0.950 . S
H769 C780 0.950 . S
H770 C782 0.950 . S
H771 C783 0.950 . S
C772 H764 0.950 . S
C772 C773 1.386 . S
C772 C774 1.391 . S
C773 C772 1.386 . S
C773 C777 1.393 . S
C774 H766 0.950 . S
C774 C772 1.391 . S
C774 C775 1.400 . S
C775 C774 1.400 . S
C775 C776 1.398 . S
C775 C781 1.491 . S
C776 H767 0.950 . S
C776 C775 1.398 . S
C776 C777 1.391 . S
C777 H765 0.950 . S
C777 C773 1.393 . S
C777 C776 1.391 . S
C778 H768 0.950 . S
C778 C779 1.386 . S
C778 C780 1.391 . S
C779 C778 1.386 . S
C779 C783 1.393 . S
C780 H769 0.950 . S
C780 C778 1.391 . S
C780 C781 1.400 . S
C781 C775 1.491 . S
C781 C780 1.400 . S
C781 C782 1.398 . S
C782 H770 0.950 . S
C782 C781 1.398 . S
C782 C783 1.391 . S
C783 H771 0.950 . S
C783 C779 1.393 . S
C783 C782 1.391 . S
H784 C792 0.950 . S
H785 C797 0.950 . S
H786 C794 0.950 . S
H787 C796 0.950 . S
H788 C798 0.950 . S
H789 C800 0.950 . S
H790 C802 0.950 . S
H791 C803 0.950 . S
C792 H784 0.950 . S
C792 C793 1.386 . S
C792 C794 1.391 . S
C793 C792 1.386 . S
C793 C797 1.393 . S
C794 H786 0.950 . S
C794 C792 1.391 . S
C794 C795 1.400 . S
C795 C794 1.400 . S
C795 C796 1.398 . S
C795 C801 1.491 1_556 S
C796 H787 0.950 . S
C796 C795 1.398 . S
C796 C797 1.391 . S
C797 H785 0.950 . S
C797 C793 1.393 . S
C797 C796 1.391 . S
C798 H788 0.950 . S
C798 C799 1.386 . S
C798 C800 1.391 . S
C799 C798 1.386 . S
C799 C803 1.393 . S
C800 H789 0.950 . S
C800 C798 1.391 . S
C800 C801 1.400 . S
C801 C795 1.491 1_554 S
C801 C800 1.400 . S
C801 C802 1.398 . S
C802 H790 0.950 . S
C802 C801 1.398 . S
C802 C803 1.391 . S
C803 H791 0.950 . S
C803 C799 1.393 . S
C803 C802 1.391 . S
H804 C812 0.950 . S
H805 C817 0.950 . S
H806 C814 0.950 . S
H807 C816 0.950 . S
H808 C818 0.950 . S
H809 C820 0.950 . S
H810 C822 0.950 . S
H811 C823 0.950 . S
C812 H804 0.950 . S
C812 C813 1.386 . S
C812 C814 1.391 . S
C813 C812 1.386 . S
C813 C817 1.393 . S
C814 H806 0.950 . S
C814 C812 1.391 . S
C814 C815 1.400 . S
C815 C814 1.400 . S
C815 C816 1.398 . S
C815 C821 1.491 . S
C816 H807 0.950 . S
C816 C815 1.398 . S
C816 C817 1.391 . S
C817 H805 0.950 . S
C817 C813 1.393 . S
C817 C816 1.391 . S
C818 H808 0.950 . S
C818 C819 1.386 . S
C818 C820 1.391 . S
C819 C818 1.386 . S
C819 C823 1.393 . S
C820 H809 0.950 . S
C820 C818 1.391 . S
C820 C821 1.400 . S
C821 C815 1.491 . S
C821 C820 1.400 . S
C821 C822 1.398 . S
C822 H810 0.950 . S
C822 C821 1.398 . S
C822 C823 1.391 . S
C823 H811 0.950 . S
C823 C819 1.393 . S
C823 C822 1.391 . S
H824 C832 0.950 . S
H825 C837 0.950 . S
H826 C834 0.950 . S
H827 C836 0.950 . S
H828 C838 0.950 . S
H829 C840 0.950 . S
H830 C842 0.950 . S
H831 C843 0.950 . S
C832 H824 0.950 . S
C832 C833 1.386 1_655 S
C832 C834 1.391 . S
C833 C832 1.386 1_455 S
C833 C837 1.393 . S
C834 H826 0.950 . S
C834 C832 1.391 . S
C834 C835 1.400 1_655 S
C835 C834 1.400 1_455 S
C835 C836 1.398 . S
C835 C841 1.491 1_554 S
C836 H827 0.950 . S
C836 C835 1.398 . S
C836 C837 1.391 . S
C837 H825 0.950 . S
C837 C833 1.393 . S
C837 C836 1.391 . S
C838 H828 0.950 . S
C838 C839 1.386 . S
C838 C840 1.391 . S
C839 C838 1.386 . S
C839 C843 1.393 1_455 S
C840 H829 0.950 . S
C840 C838 1.391 . S
C840 C841 1.400 . S
C841 C835 1.491 1_556 S
C841 C840 1.400 . S
C841 C842 1.398 1_455 S
C842 H830 0.950 . S
C842 C841 1.398 1_655 S
C842 C843 1.391 . S
C843 H831 0.950 . S
C843 C839 1.393 1_655 S
C843 C842 1.391 . S
H844 C852 0.950 . S
H845 C857 0.950 . S
H846 C854 0.950 . S
H847 C856 0.950 . S
H848 C858 0.950 . S
H849 C860 0.950 . S
H850 C862 0.950 . S
H851 C863 0.950 . S
C852 H844 0.950 . S
C852 C853 1.386 . S
C852 C854 1.391 . S
C853 C852 1.386 . S
C853 C857 1.393 . S
C854 H846 0.950 . S
C854 C852 1.391 . S
C854 C855 1.400 . S
C855 C854 1.400 . S
C855 C856 1.398 . S
C855 C861 1.491 . S
C856 H847 0.950 . S
C856 C855 1.398 . S
C856 C857 1.391 . S
C857 H845 0.950 . S
C857 C853 1.393 . S
C857 C856 1.391 . S
C858 H848 0.950 . S
C858 C859 1.386 . S
C858 C860 1.391 . S
C859 C858 1.386 . S
C859 C863 1.393 . S
C860 H849 0.950 . S
C860 C858 1.391 . S
C860 C861 1.400 . S
C861 C855 1.491 . S
C861 C860 1.400 . S
C861 C862 1.398 . S
C862 H850 0.950 . S
C862 C861 1.398 . S
C862 C863 1.391 . S
C863 H851 0.950 . S
C863 C859 1.393 . S
C863 C862 1.391 . S
C233 C11 1.175 . S
C239 C109 1.159 1_545 S
C253 C25 1.164 . S
C259 C67 1.180 . S
C273 C39 1.161 . S
C279 C81 1.185 . S
C293 C53 1.167 1_545 S
C299 C95 1.156 . S
C313 C117 1.065 . S
C319 C221 1.159 . S
C333 C173 1.079 . S
C339 C137 1.167 . S
C353 C145 1.076 . S
C359 C193 1.147 . S
C373 C165 1.169 . S
C379 C201 1.110 . S
C393 C4 1.156 . S
C399 C138 1.228 . S
C413 C18 1.309 . S
C419 C144 1.346 . S
C433 C166 1.235 . S
C439 C32 1.177 . S
C453 C46 1.321 . S
C459 C116 1.350 . S
C473 C60 1.152 . S
C479 C222 1.229 . S
C493 C172 1.360 . S
C499 C74 1.306 . S
C513 C194 1.228 . S
C519 C88 1.160 . S
C533 C200 1.343 . S
C539 C102 1.315 . S
C553 C26 1.131 . S
C559 C124 1.121 . S
C573 C40 1.216 . S
C579 C130 1.172 . S
C593 C152 1.124 . S
C599 C54 1.134 . S
C613 C12 1.216 . S
C619 C158 1.172 . S
C633 C180 1.115 . S
C639 C110 1.130 . S
C653 C186 1.156 . S
C659 C68 1.207 . S
C673 C82 1.129 . S
C679 C208 1.103 . S
C693 C96 1.214 . S
C699 C214 1.164 . S
C713 C5 1.286 . S
C719 C61 1.286 . S
C733 C75 1.330 . S
C739 C19 1.332 . S
C753 C33 1.272 . S
C759 C89 1.271 . S
C773 C103 1.316 . S
C779 C47 1.319 . S
C793 C123 1.540 . S
C799 C179 1.553 . S
C813 C187 1.330 . S
C819 C131 1.333 . S
C833 C207 1.544 . S
C839 C151 1.552 . S
C853 C215 1.327 . S
C859 C159 1.323 . S
