# Generated by pormake.
# Topology unp, (4)-cn, num edge types: 1
# Building blocks:
#     Node 0, Type 0, BuildingBlock: KUFVIS_clean_sbu_0, # of connection points: 4
#     Node 1, Type 0, BuildingBlock: KUFVIS_clean_sbu_0, # of connection points: 4
#     Node 2, Type 0, BuildingBlock: KUFVIS_clean_sbu_0, # of connection points: 4
#     Node 3, Type 0, BuildingBlock: KUFVIS_clean_sbu_0, # of connection points: 4
#     Node 4, Type 0, BuildingBlock: KUFVIS_clean_sbu_0, # of connection points: 4
#     Node 5, Type 0, BuildingBlock: KUFVIS_clean_sbu_0, # of connection points: 4
#     Node 6, Type 0, BuildingBlock: KUFVIS_clean_sbu_0, # of connection points: 4
#     Node 7, Type 0, BuildingBlock: KUFVIS_clean_sbu_0, # of connection points: 4
#     Node 8, Type 0, BuildingBlock: KUFVIS_clean_sbu_0, # of connection points: 4
#     Node 9, Type 0, BuildingBlock: KUFVIS_clean_sbu_0, # of connection points: 4
#     Node 10, Type 0, BuildingBlock: KUFVIS_clean_sbu_0, # of connection points: 4
#     Node 11, Type 0, BuildingBlock: KUFVIS_clean_sbu_0, # of connection points: 4
#     Node 12, Type 0, BuildingBlock: KUFVIS_clean_sbu_0, # of connection points: 4
#     Node 13, Type 0, BuildingBlock: KUFVIS_clean_sbu_0, # of connection points: 4
#     Node 14, Type 0, BuildingBlock: KUFVIS_clean_sbu_0, # of connection points: 4
#     Node 15, Type 0, BuildingBlock: KUFVIS_clean_sbu_0, # of connection points: 4
#     Node 16, Type 0, BuildingBlock: KUFVIS_clean_sbu_0, # of connection points: 4
#     Node 17, Type 0, BuildingBlock: KUFVIS_clean_sbu_0, # of connection points: 4
#     Edge 18, Type (0, 0), BuildingBlock: XUDNAN_clean_linker_2, # of connection points: 2
#     Edge 19, Type (0, 0), BuildingBlock: XUDNAN_clean_linker_2, # of connection points: 2
#     Edge 20, Type (0, 0), BuildingBlock: XUDNAN_clean_linker_2, # of connection points: 2
#     Edge 21, Type (0, 0), BuildingBlock: XUDNAN_clean_linker_2, # of connection points: 2
#     Edge 22, Type (0, 0), BuildingBlock: XUDNAN_clean_linker_2, # of connection points: 2
#     Edge 23, Type (0, 0), BuildingBlock: XUDNAN_clean_linker_2, # of connection points: 2
#     Edge 24, Type (0, 0), BuildingBlock: XUDNAN_clean_linker_2, # of connection points: 2
#     Edge 25, Type (0, 0), BuildingBlock: XUDNAN_clean_linker_2, # of connection points: 2
#     Edge 26, Type (0, 0), BuildingBlock: XUDNAN_clean_linker_2, # of connection points: 2
#     Edge 27, Type (0, 0), BuildingBlock: XUDNAN_clean_linker_2, # of connection points: 2
#     Edge 28, Type (0, 0), BuildingBlock: XUDNAN_clean_linker_2, # of connection points: 2
#     Edge 29, Type (0, 0), BuildingBlock: XUDNAN_clean_linker_2, # of connection points: 2
#     Edge 30, Type (0, 0), BuildingBlock: XUDNAN_clean_linker_2, # of connection points: 2
#     Edge 31, Type (0, 0), BuildingBlock: XUDNAN_clean_linker_2, # of connection points: 2
#     Edge 32, Type (0, 0), BuildingBlock: XUDNAN_clean_linker_2, # of connection points: 2
#     Edge 33, Type (0, 0), BuildingBlock: XUDNAN_clean_linker_2, # of connection points: 2
#     Edge 34, Type (0, 0), BuildingBlock: XUDNAN_clean_linker_2, # of connection points: 2
#     Edge 35, Type (0, 0), BuildingBlock: XUDNAN_clean_linker_2, # of connection points: 2
#     Edge 36, Type (0, 0), BuildingBlock: XUDNAN_clean_linker_2, # of connection points: 2
#     Edge 37, Type (0, 0), BuildingBlock: XUDNAN_clean_linker_2, # of connection points: 2
#     Edge 38, Type (0, 0), BuildingBlock: XUDNAN_clean_linker_2, # of connection points: 2
#     Edge 39, Type (0, 0), BuildingBlock: XUDNAN_clean_linker_2, # of connection points: 2
#     Edge 40, Type (0, 0), BuildingBlock: XUDNAN_clean_linker_2, # of connection points: 2
#     Edge 41, Type (0, 0), BuildingBlock: XUDNAN_clean_linker_2, # of connection points: 2
#     Edge 42, Type (0, 0), BuildingBlock: XUDNAN_clean_linker_2, # of connection points: 2
#     Edge 43, Type (0, 0), BuildingBlock: XUDNAN_clean_linker_2, # of connection points: 2
#     Edge 44, Type (0, 0), BuildingBlock: XUDNAN_clean_linker_2, # of connection points: 2
#     Edge 45, Type (0, 0), BuildingBlock: XUDNAN_clean_linker_2, # of connection points: 2
#     Edge 46, Type (0, 0), BuildingBlock: XUDNAN_clean_linker_2, # of connection points: 2
#     Edge 47, Type (0, 0), BuildingBlock: XUDNAN_clean_linker_2, # of connection points: 2
#     Edge 48, Type (0, 0), BuildingBlock: XUDNAN_clean_linker_2, # of connection points: 2
#     Edge 49, Type (0, 0), BuildingBlock: XUDNAN_clean_linker_2, # of connection points: 2
#     Edge 50, Type (0, 0), BuildingBlock: XUDNAN_clean_linker_2, # of connection points: 2
#     Edge 51, Type (0, 0), BuildingBlock: XUDNAN_clean_linker_2, # of connection points: 2
#     Edge 52, Type (0, 0), BuildingBlock: XUDNAN_clean_linker_2, # of connection points: 2
#     Edge 53, Type (0, 0), BuildingBlock: XUDNAN_clean_linker_2, # of connection points: 2
# Relax obj value: 0.410
# Max RMSD: 0.190
# Mean RMSD: 0.188
data_MOF--net-unp--node1-KUFVIS_clean_sbu_0--edge1-XUDNAN_clean_linker_2
_symmetry_space_group_name_H-M    P1
_symmetry_Int_Tables_number       1
_symmetry_cell_setting            triclinic
loop_
_symmetry_equiv_pos_as_xyz
'x, y, z'
_cell_length_a     47.956275
_cell_length_b     47.921395
_cell_length_c     57.993979
_cell_angle_alpha  90.167677
_cell_angle_beta   89.857855
_cell_angle_gamma 120.26937
loop_
_atom_site_label
_atom_site_type_symbol
_atom_site_fract_x
_atom_site_fract_y
_atom_site_fract_z
_atom_type_partial_charge
Mn0 Mn 0.20218 0.08542 0.08403 0.0
Mn1 Mn 0.22344 0.041 0.05136 0.0
C2 C 0.16775 0.03047 0.08062 0.0
C3 C 0.17882 0.11762 0.08786 0.0
C4 C 0.25439 0.07088 0.09714 0.0
O5 O 0.23821 0.11842 0.06355 0.0
O6 O 0.24487 0.08557 0.03887 0.0
C7 C 0.19258 0.03972 0.00694 0.0
N8 N 0.19582 0.02364 0.02512 0.0
C9 C 0.15524 0.97236 0.0098 0.0
C10 C 0.1514 0.98839 0.99095 0.0
C11 C 0.17022 0.0222 0.98949 0.0
C12 C 0.1781 0.99108 0.02658 0.0
H13 H 0.20672 0.06575 0.0059 0.0
C14 C 0.25043 0.11355 0.0454 0.0
O15 O 0.20058 0.11986 0.10222 0.0
O16 O 0.17121 0.09721 0.07097 0.0
N17 N 0.20296 0.99735 0.06217 0.0
C18 C 0.2071 0.98598 0.08261 0.0
C19 C 0.18899 0.95274 0.08729 0.0
C20 C 0.16677 0.93157 0.07095 0.0
C21 C 0.16282 0.94385 0.05007 0.0
C22 C 0.18181 0.97715 0.04624 0.0
H23 H 0.22391 0.00218 0.09533 0.0
O24 O 0.16523 0.04594 0.0982 0.0
O25 O 0.19063 0.04773 0.06614 0.0
O26 O 0.23451 0.07984 0.10285 0.0
O27 O 0.25349 0.05754 0.07787 0.0
C28 C 0.14018 0.92446 0.03318 0.0
C29 C 0.13646 0.93869 0.01305 0.0
H30 H 0.13365 0.97509 0.97774 0.0
H31 H 0.16724 0.03473 0.97506 0.0
H32 H 0.19198 0.94348 0.10352 0.0
H33 H 0.15258 0.906 0.07473 0.0
H34 H 0.12512 0.89864 0.03569 0.0
H35 H 0.11866 0.92356 0.00039 0.0
Mn36 Mn 0.94887 0.12407 0.11964 0.0
Mn37 Mn 0.98269 0.18779 0.08445 0.0
C38 C 0.00449 0.15588 0.11834 0.0
C39 C 0.92601 0.06855 0.12373 0.0
C40 C 0.9425 0.1822 0.12656 0.0
O41 O 0.91358 0.11705 0.09711 0.0
O42 O 0.94226 0.15389 0.0696 0.0
C43 C 0.00053 0.16382 0.04339 0.0
N44 N 0.00949 0.18442 0.06165 0.0
C45 C 0.06533 0.21063 0.05043 0.0
C46 C 0.05662 0.19024 0.03117 0.0
C47 C 0.02411 0.16641 0.02784 0.0
C48 C 0.0407 0.20715 0.06521 0.0
H49 H 0.97555 0.14559 0.04072 0.0
C50 C 0.91624 0.12927 0.07711 0.0
O51 O 0.9183 0.08495 0.13759 0.0
O52 O 0.94751 0.08452 0.10803 0.0
N53 N 0.02204 0.22104 0.09781 0.0
C54 C 0.02638 0.23816 0.11758 0.0
C55 C 0.05774 0.26166 0.12426 0.0
C56 C 0.08427 0.26734 0.11053 0.0
C57 C 0.07919 0.24943 0.09024 0.0
C58 C 0.0474 0.22636 0.08447 0.0
H59 H 0.00611 0.23387 0.12822 0.0
O60 O 0.99055 0.1374 0.13604 0.0
O61 O 0.98513 0.15488 0.10241 0.0
O62 O 0.94343 0.15867 0.13588 0.0
O63 O 0.9555 0.19397 0.1071 0.0
C64 C 0.10444 0.25326 0.07567 0.0
C65 C 0.0975 0.23397 0.0557 0.0
H66 H 0.07485 0.19228 0.01916 0.0
H67 H 0.01715 0.14982 0.0135 0.0
H68 H 0.06146 0.27533 0.13998 0.0
H69 H 0.10842 0.2854 0.11579 0.0
H70 H 0.12929 0.27087 0.0797 0.0
H71 H 0.11709 0.23705 0.04465 0.0
Mn72 Mn 0.89759 0.822 0.08555 0.0
Mn73 Mn 0.82028 0.80049 0.07586 0.0
C74 C 0.87509 0.84802 0.10482 0.0
C75 C 0.95128 0.85254 0.07477 0.0
C76 C 0.8408 0.75977 0.10286 0.0
O77 O 0.8865 0.79622 0.05604 0.0
O78 O 0.83674 0.78794 0.04835 0.0
C79 C 0.82933 0.8451 0.03775 0.0
N80 N 0.81871 0.83416 0.05947 0.0
C81 C 0.80156 0.87304 0.06493 0.0
C82 C 0.81183 0.88436 0.04246 0.0
C83 C 0.82601 0.87048 0.02891 0.0
C84 C 0.80535 0.84755 0.07277 0.0
H85 H 0.84041 0.83463 0.0273 0.0
C86 C 0.86164 0.78574 0.04318 0.0
O87 O 0.94112 0.82627 0.08672 0.0
O88 O 0.9304 0.86099 0.06924 0.0
N89 N 0.80239 0.812 0.10121 0.0
C90 C 0.7953 0.79936 0.12287 0.0
C91 C 0.7821 0.81145 0.13898 0.0
C92 C 0.77638 0.83641 0.13265 0.0
C93 C 0.78384 0.849 0.11024 0.0
C94 C 0.79665 0.83577 0.09487 0.0
H95 H 0.79989 0.78036 0.12786 0.0
O96 O 0.90058 0.84864 0.113 0.0
O97 O 0.86386 0.83203 0.08573 0.0
O98 O 0.87091 0.78028 0.10314 0.0
O99 O 0.81971 0.76462 0.09316 0.0
C100 C 0.77954 0.8745 0.10266 0.0
C101 C 0.78832 0.88645 0.08 0.0
H102 H 0.80951 0.9041 0.03559 0.0
H103 H 0.83463 0.87946 0.01177 0.0
H104 H 0.77653 0.80169 0.15627 0.0
H105 H 0.76648 0.84587 0.14519 0.0
H106 H 0.76976 0.88527 0.11417 0.0
H107 H 0.78516 0.90624 0.07443 0.0
Mn108 Mn 0.15148 0.15099 0.88505 0.0
Mn109 Mn 0.14481 0.20471 0.91877 0.0
C110 C 0.1022 0.14856 0.88839 0.0
C111 C 0.14981 0.10167 0.88227 0.0
C112 C 0.17813 0.22086 0.87227 0.0
O113 O 0.19197 0.17037 0.90479 0.0
O114 O 0.18165 0.20039 0.92964 0.0
C115 C 0.12617 0.16862 0.96268 0.0
N116 N 0.11994 0.18425 0.94567 0.0
C117 C 0.06984 0.17247 0.96352 0.0
C118 C 0.07557 0.15589 0.98107 0.0
C119 C 0.10396 0.1542 0.98076 0.0
C120 C 0.09297 0.18654 0.946 0.0
H121 H 0.14769 0.16675 0.96224 0.0
C122 C 0.19883 0.18847 0.92257 0.0
O123 O 0.16551 0.12439 0.86721 0.0
O124 O 0.1359 0.10803 0.89899 0.0
N125 N 0.10968 0.21056 0.90994 0.0
C126 C 0.10569 0.22328 0.89009 0.0
C127 C 0.07788 0.2256 0.8872 0.0
C128 C 0.05448 0.21481 0.90473 0.0
C129 C 0.05911 0.20176 0.92498 0.0
C130 C 0.08754 0.20052 0.92705 0.0
H131 H 0.1235 0.23142 0.87652 0.0
O132 O 0.10782 0.13506 0.87096 0.0
O133 O 0.12562 0.16294 0.90312 0.0
O134 O 0.17097 0.19249 0.86612 0.0
O135 O 0.17031 0.22788 0.89154 0.0
C136 C 0.03607 0.18888 0.94282 0.0
C137 C 0.04135 0.1741 0.962 0.0
H138 H 0.05808 0.14376 0.99465 0.0
H139 H 0.10847 0.14139 0.99423 0.0
H140 H 0.07438 0.23549 0.87144 0.0
H141 H 0.03285 0.21625 0.90232 0.0
H142 H 0.01374 0.18928 0.94163 0.0
H143 H 0.0228 0.16316 0.97503 0.0
Mn144 Mn 0.81851 0.00037 0.89961 0.0
Mn145 Mn 0.76583 0.93323 0.92782 0.0
C146 C 0.81007 0.95098 0.88719 0.0
C147 C 0.87143 0.04316 0.90015 0.0
C148 C 0.74647 0.97043 0.89557 0.0
O149 O 0.8099 0.0167 0.92939 0.0
O150 O 0.78193 0.97046 0.94945 0.0
C151 C 0.809 0.92835 0.96181 0.0
N152 N 0.78806 0.91548 0.94382 0.0
C153 C 0.79277 0.86784 0.94371 0.0
C154 C 0.81398 0.88033 0.96248 0.0
C155 C 0.82234 0.91085 0.97143 0.0
C156 C 0.78012 0.88632 0.93491 0.0
H157 H 0.81552 0.95181 0.96872 0.0
C158 C 0.79703 0.00136 0.94793 0.0
O159 O 0.8493 0.04611 0.88931 0.0
O160 O 0.86286 0.0157 0.90967 0.0
N161 N 0.74933 0.89573 0.90849 0.0
C162 C 0.72966 0.88777 0.88974 0.0
C163 C 0.7203 0.85867 0.87804 0.0
C164 C 0.73115 0.83803 0.88575 0.0
C165 C 0.75124 0.84664 0.90514 0.0
C166 C 0.75968 0.87588 0.91617 0.0
H167 H 0.72128 0.90354 0.8837 0.0
O168 O 0.82368 0.97586 0.87363 0.0
O169 O 0.80277 0.95644 0.90761 0.0
O170 O 0.77436 0.99015 0.88732 0.0
O171 O 0.74129 0.94976 0.91134 0.0
C172 C 0.76354 0.82755 0.91379 0.0
C173 C 0.78415 0.83806 0.93313 0.0
H174 H 0.8245 0.86698 0.96981 0.0
H175 H 0.83914 0.92099 0.98564 0.0
H176 H 0.70483 0.85217 0.86307 0.0
H177 H 0.72403 0.81569 0.87659 0.0
H178 H 0.75745 0.80482 0.90561 0.0
H179 H 0.79359 0.82325 0.93955 0.0
Mn180 Mn 0.9755 0.83453 0.86263 0.0
Mn181 Mn 0.02802 0.82573 0.89558 0.0
C182 C 0.02869 0.87569 0.86431 0.0
C183 C 0.93521 0.84772 0.86146 0.0
C184 C 0.00436 0.79369 0.84882 0.0
O185 O 0.94687 0.79604 0.88275 0.0
O186 O 0.98354 0.79749 0.90751 0.0
C187 C 0.02062 0.85215 0.9399 0.0
N188 N 0.03969 0.85303 0.92213 0.0
C189 C 0.08689 0.89678 0.93978 0.0
C190 C 0.06777 0.8963 0.95829 0.0
C191 C 0.03448 0.87395 0.95832 0.0
C192 C 0.07169 0.8746 0.92185 0.0
H193 H 0.99502 0.83498 0.94003 0.0
C194 C 0.95432 0.78686 0.90113 0.0
O195 O 0.93668 0.82899 0.84582 0.0
O196 O 0.95744 0.85909 0.87716 0.0
N197 N 0.07195 0.85258 0.88607 0.0
C198 C 0.08673 0.85089 0.86644 0.0
C199 C 0.11985 0.87255 0.86329 0.0
C200 C 0.13749 0.89549 0.88043 0.0
C201 C 0.12185 0.89654 0.90059 0.0
C202 C 0.08878 0.8744 0.90275 0.0
H203 H 0.07337 0.83326 0.85323 0.0
O204 O 0.0101 0.87459 0.84767 0.0
O205 O 0.0151 0.85334 0.87988 0.0
O206 O 0.9883 0.80726 0.84336 0.0
O207 O 0.01811 0.79744 0.86837 0.0
C208 C 0.13776 0.91875 0.91859 0.0
C209 C 0.12034 0.91868 0.93825 0.0
H210 H 0.07827 0.91329 0.9724 0.0
H211 H 0.01955 0.87352 0.9725 0.0
H212 H 0.13176 0.87153 0.8477 0.0
H213 H 0.16304 0.91218 0.87793 0.0
H214 H 0.16336 0.93606 0.91747 0.0
H215 H 0.13287 0.93588 0.95193 0.0
Mn216 Mn 0.84191 0.48839 0.41832 0.0
Mn217 Mn 0.88173 0.4592 0.38842 0.0
C218 C 0.834 0.43798 0.42733 0.0
C219 C 0.79728 0.4954 0.41979 0.0
C220 C 0.91265 0.51172 0.42462 0.0
O221 O 0.85986 0.51791 0.39046 0.0
O222 O 0.87723 0.49055 0.36872 0.0
C223 C 0.83341 0.42232 0.35234 0.0
N224 N 0.85216 0.4231 0.37021 0.0
C225 C 0.83123 0.36586 0.36748 0.0
C226 C 0.81175 0.36443 0.34897 0.0
C227 C 0.81287 0.39278 0.34136 0.0
C228 C 0.85125 0.39596 0.37767 0.0
H229 H 0.83408 0.44407 0.34659 0.0
C230 C 0.8713 0.51357 0.37177 0.0
O231 O 0.82342 0.51441 0.43125 0.0
O232 O 0.79737 0.47283 0.40753 0.0
N233 N 0.88769 0.4287 0.40578 0.0
C234 C 0.90775 0.43416 0.42399 0.0
C235 C 0.90966 0.40831 0.43357 0.0
C236 C 0.89108 0.37715 0.42426 0.0
C237 C 0.87097 0.37221 0.40533 0.0
C238 C 0.87036 0.39899 0.39633 0.0
H239 H 0.92224 0.45803 0.43118 0.0
O240 O 0.82549 0.45301 0.44181 0.0
O241 O 0.84569 0.45258 0.40785 0.0
O242 O 0.88694 0.5098 0.43265 0.0
O243 O 0.91345 0.49563 0.40729 0.0
C244 C 0.85121 0.34172 0.39522 0.0
C245 C 0.83133 0.33855 0.37638 0.0
H246 H 0.79567 0.34166 0.34057 0.0
H247 H 0.79786 0.39183 0.32712 0.0
H248 H 0.92534 0.41238 0.44814 0.0
H249 H 0.89236 0.35719 0.43183 0.0
H250 H 0.85091 0.32049 0.40192 0.0
H251 H 0.81598 0.31489 0.36902 0.0
Mn252 Mn 0.52329 0.36094 0.4341 0.0
Mn253 Mn 0.5297 0.42675 0.40892 0.0
C254 C 0.57272 0.40816 0.43381 0.0
C255 C 0.52289 0.31273 0.42834 0.0
C256 C 0.50055 0.40299 0.45631 0.0
O257 O 0.4814 0.34392 0.41616 0.0
O258 O 0.49291 0.38757 0.39485 0.0
C259 C 0.54868 0.41707 0.36246 0.0
N260 N 0.55473 0.43601 0.38147 0.0
C261 C 0.60524 0.47725 0.36581 0.0
C262 C 0.59934 0.45824 0.34597 0.0
C263 C 0.571 0.42804 0.34429 0.0
C264 C 0.58219 0.46489 0.38342 0.0
H265 H 0.52726 0.39353 0.36134 0.0
C266 C 0.47517 0.35755 0.39973 0.0
O267 O 0.5092 0.31671 0.44646 0.0
O268 O 0.53631 0.33646 0.4139 0.0
N269 N 0.56471 0.46633 0.42064 0.0
C270 C 0.56764 0.48063 0.44155 0.0
C271 C 0.59514 0.51065 0.44627 0.0
C272 C 0.61922 0.52579 0.4294 0.0
C273 C 0.61542 0.51087 0.40789 0.0
C274 C 0.58734 0.48109 0.40408 0.0
H275 H 0.54924 0.46927 0.45459 0.0
O276 O 0.5676 0.38485 0.44766 0.0
O277 O 0.54925 0.40226 0.41984 0.0
O278 O 0.50746 0.38063 0.4584 0.0
O279 O 0.50484 0.41905 0.43773 0.0
C280 C 0.63849 0.52427 0.39014 0.0
C281 C 0.63336 0.50753 0.36912 0.0
H282 H 0.61662 0.46599 0.33211 0.0
H283 H 0.56656 0.41313 0.32914 0.0
H284 H 0.5978 0.52206 0.46289 0.0
H285 H 0.64053 0.54883 0.43316 0.0
H286 H 0.66043 0.5473 0.39253 0.0
H287 H 0.65149 0.51817 0.35582 0.0
Mn288 Mn 0.64568 0.15595 0.43746 0.0
Mn289 Mn 0.57806 0.10391 0.409 0.0
C290 C 0.60198 0.16375 0.43682 0.0
C291 C 0.69476 0.20442 0.43677 0.0
C292 C 0.59666 0.08902 0.45523 0.0
O293 O 0.66139 0.13319 0.41622 0.0
O294 O 0.61501 0.09961 0.39761 0.0
C295 C 0.59621 0.13204 0.36227 0.0
N296 N 0.57592 0.12311 0.38075 0.0
C297 C 0.54461 0.14357 0.363 0.0
C298 C 0.565 0.15275 0.34372 0.0
C299 C 0.59082 0.14681 0.3433 0.0
C300 C 0.55047 0.12791 0.38107 0.0
H301 H 0.6165 0.12814 0.36203 0.0
C302 C 0.64538 0.11152 0.40112 0.0
O303 O 0.68931 0.18264 0.45228 0.0
O304 O 0.67269 0.19703 0.4214 0.0
N305 N 0.54136 0.10701 0.41829 0.0
C306 C 0.52635 0.10028 0.4392 0.0
C307 C 0.50076 0.10608 0.44282 0.0
C308 C 0.49132 0.11939 0.42508 0.0
C309 C 0.50753 0.12671 0.40386 0.0
C310 C 0.5322 0.11947 0.40099 0.0
H311 H 0.53445 0.09146 0.4532 0.0
O312 O 0.62284 0.17583 0.45341 0.0
O313 O 0.60686 0.14651 0.42179 0.0
O314 O 0.62331 0.11552 0.45788 0.0
O315 O 0.57805 0.08269 0.43789 0.0
C316 C 0.50134 0.14255 0.38594 0.0
C317 C 0.51982 0.15091 0.36549 0.0
H318 H 0.56135 0.16486 0.32933 0.0
H319 H 0.60684 0.15402 0.32856 0.0
H320 H 0.48884 0.10099 0.45942 0.0
H321 H 0.47211 0.12461 0.42812 0.0
H322 H 0.48317 0.14942 0.38812 0.0
H323 H 0.51566 0.16406 0.35209 0.0
Mn324 Mn 0.75966 0.50765 0.21429 0.0
Mn325 Mn 0.73197 0.55338 0.23724 0.0
C326 C 0.70476 0.48586 0.21974 0.0
C327 C 0.78065 0.47414 0.22162 0.0
C328 C 0.75783 0.56109 0.18836 0.0
O329 O 0.79939 0.54579 0.22808 0.0
O330 O 0.77689 0.56953 0.24843 0.0
C331 C 0.7297 0.53608 0.28624 0.0
N332 N 0.71453 0.53851 0.26719 0.0
C333 C 0.66407 0.51663 0.28743 0.0
C334 C 0.67944 0.51468 0.3074 0.0
C335 C 0.7123 0.52427 0.3068 0.0
C336 C 0.68278 0.52895 0.26749 0.0
H337 H 0.75468 0.54247 0.28561 0.0
C338 C 0.80099 0.56612 0.24302 0.0
O339 O 0.78591 0.48901 0.20196 0.0
O340 O 0.76319 0.47858 0.23657 0.0
N341 N 0.68849 0.53913 0.22805 0.0
C342 C 0.67661 0.53824 0.20657 0.0
C343 C 0.64346 0.52657 0.20374 0.0
C344 C 0.62288 0.51593 0.223 0.0
C345 C 0.63564 0.51697 0.24492 0.0
C346 C 0.66891 0.5291 0.24672 0.0
H347 H 0.69223 0.54602 0.19167 0.0
O348 O 0.71532 0.47248 0.20537 0.0
O349 O 0.72677 0.51132 0.23032 0.0
O350 O 0.76108 0.53626 0.18779 0.0
O351 O 0.74876 0.57008 0.20622 0.0
C352 C 0.61651 0.50561 0.26496 0.0
C353 C 0.63073 0.50558 0.28621 0.0
H354 H 0.66623 0.50495 0.32313 0.0
H355 H 0.72403 0.52211 0.32205 0.0
H356 H 0.63376 0.52558 0.18674 0.0
H357 H 0.59726 0.50658 0.22071 0.0
H358 H 0.59073 0.49626 0.26414 0.0
H359 H 0.61562 0.4964 0.30136 0.0
Mn360 Mn 0.4672 0.24159 0.24118 0.0
Mn361 Mn 0.42213 0.16865 0.26575 0.0
C362 C 0.48837 0.20805 0.24532 0.0
C363 C 0.50195 0.29695 0.24523 0.0
C364 C 0.41247 0.1844 0.21695 0.0
O365 O 0.43094 0.24464 0.25688 0.0
O366 O 0.40744 0.19834 0.27718 0.0
C367 C 0.4366 0.18129 0.31541 0.0
N368 N 0.43736 0.1663 0.29561 0.0
C369 C 0.45485 0.13431 0.3161 0.0
C370 C 0.45303 0.14854 0.33676 0.0
C371 C 0.44441 0.17249 0.3364 0.0
C372 C 0.44597 0.14344 0.29578 0.0
H373 H 0.42935 0.19926 0.31529 0.0
C374 C 0.41171 0.22639 0.27254 0.0
O375 O 0.48426 0.28499 0.22692 0.0
O376 O 0.49913 0.27679 0.2612 0.0
N377 N 0.4354 0.13871 0.2564 0.0
C378 C 0.43519 0.12685 0.23498 0.0
C379 C 0.44582 0.10458 0.23212 0.0
C380 C 0.45611 0.09441 0.25135 0.0
C381 C 0.45584 0.10672 0.27325 0.0
C382 C 0.44547 0.12924 0.27498 0.0
H383 H 0.42729 0.13453 0.22013 0.0
O384 O 0.50073 0.23165 0.23061 0.0
O385 O 0.46454 0.20543 0.25776 0.0
O386 O 0.43705 0.21263 0.21583 0.0
O387 O 0.40383 0.16726 0.23516 0.0
C388 C 0.46558 0.09768 0.29343 0.0
C389 C 0.46466 0.11113 0.3149 0.0
H390 H 0.45772 0.14092 0.35302 0.0
H391 H 0.44322 0.1837 0.35232 0.0
H392 H 0.44603 0.09524 0.21515 0.0
H393 H 0.46422 0.07717 0.24908 0.0
H394 H 0.47362 0.08024 0.29267 0.0
H395 H 0.47178 0.10367 0.33034 0.0
Mn396 Mn 0.7317 0.21416 0.2348 0.0
Mn397 Mn 0.80811 0.24924 0.25385 0.0
C398 C 0.76393 0.26964 0.23301 0.0
C399 C 0.67746 0.19336 0.24423 0.0
C400 C 0.78442 0.21091 0.2094 0.0
O401 O 0.73369 0.17918 0.25322 0.0
O402 O 0.78161 0.20839 0.27129 0.0
C403 C 0.80379 0.26567 0.30233 0.0
N404 N 0.81567 0.27521 0.28065 0.0
C405 C 0.84928 0.33027 0.29305 0.0
C406 C 0.83817 0.32083 0.31562 0.0
C407 C 0.81508 0.28844 0.32026 0.0
C408 C 0.83784 0.30632 0.27601 0.0
H409 H 0.7861 0.24083 0.30594 0.0
C410 C 0.75438 0.18231 0.26839 0.0
O411 O 0.68574 0.18401 0.22568 0.0
O412 O 0.70054 0.21432 0.25718 0.0
N413 N 0.83523 0.28914 0.23814 0.0
C414 C 0.84252 0.29443 0.21526 0.0
C415 C 0.86323 0.32603 0.20742 0.0
C416 C 0.87646 0.35183 0.22318 0.0
C417 C 0.86876 0.34579 0.24666 0.0
C418 C 0.84785 0.3138 0.25344 0.0
H419 H 0.83241 0.27479 0.20303 0.0
O420 O 0.73796 0.25481 0.22058 0.0
O421 O 0.7696 0.25153 0.24655 0.0
O422 O 0.75667 0.20829 0.20835 0.0
O423 O 0.80382 0.22371 0.22624 0.0
C424 C 0.88054 0.37031 0.26353 0.0
C425 C 0.87103 0.36252 0.28676 0.0
H426 H 0.84732 0.33833 0.32943 0.0
H427 H 0.80612 0.28088 0.33757 0.0
H428 H 0.86894 0.3305 0.18926 0.0
H429 H 0.89231 0.37619 0.21705 0.0
H430 H 0.89678 0.39527 0.25882 0.0
H431 H 0.88016 0.38157 0.29959 0.0
Mn432 Mn 0.49154 0.80833 0.78939 0.0
Mn433 Mn 0.5506 0.80128 0.76378 0.0
C434 C 0.48706 0.75798 0.78628 0.0
C435 C 0.44421 0.81026 0.78636 0.0
C436 C 0.55736 0.83334 0.81025 0.0
O437 O 0.51661 0.85 0.77121 0.0
O438 O 0.5505 0.83952 0.75081 0.0
C439 C 0.52989 0.78775 0.71512 0.0
N440 N 0.53728 0.77839 0.73525 0.0
C441 C 0.53215 0.73059 0.71754 0.0
C442 C 0.52487 0.73995 0.69653 0.0
C443 C 0.52351 0.7685 0.69536 0.0
C444 C 0.53866 0.75096 0.73657 0.0
H445 H 0.52917 0.80987 0.7141 0.0
C446 C 0.53811 0.85714 0.75567 0.0
O447 O 0.4638 0.82369 0.80359 0.0
O448 O 0.45222 0.79588 0.77096 0.0
N449 N 0.55185 0.76451 0.77516 0.0
C450 C 0.55773 0.7584 0.79698 0.0
C451 C 0.55765 0.72959 0.80154 0.0
C452 C 0.55176 0.70754 0.78358 0.0
C453 C 0.54581 0.71442 0.76125 0.0
C454 C 0.54591 0.74337 0.7578 0.0
H455 H 0.56223 0.77528 0.81081 0.0
O456 O 0.47099 0.76333 0.80204 0.0
O457 O 0.50562 0.78254 0.77336 0.0
O458 O 0.52793 0.82529 0.81294 0.0
O459 O 0.56779 0.82555 0.79259 0.0
C460 C 0.53952 0.69361 0.74232 0.0
C461 C 0.5331 0.70188 0.72043 0.0
H462 H 0.52033 0.72555 0.68113 0.0
H463 H 0.51781 0.77578 0.67922 0.0
H464 H 0.56214 0.72439 0.81883 0.0
H465 H 0.55172 0.68535 0.78716 0.0
H466 H 0.53957 0.67118 0.74439 0.0
H467 H 0.52878 0.68582 0.70604 0.0
Mn468 Mn 0.17216 0.69949 0.7621 0.0
Mn469 Mn 0.1955 0.76188 0.72591 0.0
C470 C 0.22014 0.74684 0.76844 0.0
C471 C 0.17123 0.65177 0.77027 0.0
C472 C 0.14131 0.74098 0.76079 0.0
O473 O 0.14383 0.67933 0.73402 0.0
O474 O 0.1659 0.72125 0.70921 0.0
C475 C 0.23374 0.74827 0.69239 0.0
N476 N 0.23204 0.76816 0.70845 0.0
C477 C 0.28847 0.8071 0.70395 0.0
C478 C 0.29079 0.78708 0.68729 0.0
C479 C 0.26331 0.75756 0.68149 0.0
C480 C 0.2583 0.79669 0.7141 0.0
H481 H 0.21271 0.72544 0.688 0.0
C482 C 0.14623 0.69149 0.71406 0.0
O483 O 0.14973 0.65757 0.77915 0.0
O484 O 0.19284 0.67354 0.75689 0.0
N485 N 0.22466 0.80212 0.74046 0.0
C486 C 0.21866 0.81778 0.75769 0.0
C487 C 0.24388 0.84734 0.76596 0.0
C488 C 0.27496 0.86046 0.75646 0.0
C489 C 0.28052 0.84392 0.73871 0.0
C490 C 0.2544 0.81469 0.73103 0.0
H491 H 0.19487 0.80769 0.76515 0.0
O492 O 0.2061 0.72652 0.78517 0.0
O493 O 0.20539 0.73849 0.74873 0.0
O494 O 0.14545 0.71986 0.77103 0.0
O495 O 0.158 0.75734 0.74345 0.0
C496 C 0.31107 0.85502 0.72861 0.0
C497 C 0.31501 0.83667 0.71121 0.0
H498 H 0.31368 0.79384 0.67916 0.0
H499 H 0.26499 0.74191 0.66875 0.0
H500 H 0.23942 0.85991 0.77972 0.0
H501 H 0.29441 0.88313 0.76304 0.0
H502 H 0.33175 0.8775 0.73424 0.0
H503 H 0.33867 0.84532 0.70376 0.0
Mn504 Mn 0.28468 0.48825 0.77453 0.0
Mn505 Mn 0.20918 0.43838 0.75523 0.0
C506 C 0.24319 0.49723 0.78441 0.0
C507 C 0.33531 0.53364 0.76825 0.0
C508 C 0.24123 0.42076 0.79299 0.0
O509 O 0.29081 0.46309 0.74879 0.0
O510 O 0.2403 0.43526 0.73423 0.0
C511 C 0.21054 0.4701 0.71121 0.0
N512 N 0.19772 0.45972 0.73259 0.0
C513 C 0.15842 0.47609 0.72653 0.0
C514 C 0.17098 0.48666 0.70434 0.0
C515 C 0.19728 0.48384 0.69671 0.0
C516 C 0.17263 0.46261 0.74018 0.0
H517 H 0.23062 0.46776 0.70524 0.0
C518 C 0.27031 0.44378 0.73406 0.0
O519 O 0.33164 0.51141 0.78275 0.0
O520 O 0.30988 0.52922 0.7573 0.0
N521 N 0.17705 0.4395 0.77419 0.0
C522 C 0.16787 0.4282 0.79606 0.0
C523 C 0.14242 0.43008 0.80652 0.0
C524 C 0.12654 0.44331 0.79433 0.0
C525 C 0.13618 0.45443 0.77174 0.0
C526 C 0.16167 0.45191 0.76221 0.0
H527 H 0.17992 0.4179 0.80547 0.0
O528 O 0.26946 0.50999 0.79658 0.0
O529 O 0.24248 0.48018 0.7668 0.0
O530 O 0.26687 0.44826 0.79487 0.0
O531 O 0.21875 0.41471 0.77859 0.0
C532 C 0.12152 0.46794 0.75831 0.0
C533 C 0.13249 0.47857 0.73567 0.0
H534 H 0.16083 0.49729 0.69311 0.0
H535 H 0.20722 0.49212 0.67966 0.0
H536 H 0.13508 0.42138 0.82394 0.0
H537 H 0.10699 0.44481 0.80247 0.0
H538 H 0.10176 0.47024 0.76522 0.0
H539 H 0.121 0.48888 0.72551 0.0
Mn540 Mn 0.46157 0.84401 0.58464 0.0
Mn541 Mn 0.42719 0.88989 0.59147 0.0
C542 C 0.40889 0.82497 0.57333 0.0
C543 C 0.47266 0.80511 0.59862 0.0
C544 C 0.47841 0.90286 0.55562 0.0
O545 O 0.49045 0.87769 0.60793 0.0
O546 O 0.46311 0.90414 0.61412 0.0
C547 C 0.39895 0.8706 0.63815 0.0
N548 N 0.39504 0.87275 0.61511 0.0
C549 C 0.33771 0.84982 0.61967 0.0
C550 C 0.34121 0.84793 0.6435 0.0
C551 C 0.37194 0.85816 0.65276 0.0
C552 C 0.36558 0.86299 0.60602 0.0
H553 H 0.42252 0.8784 0.64534 0.0
C554 C 0.48645 0.89899 0.61834 0.0
O555 O 0.49014 0.82496 0.58242 0.0
O556 O 0.44971 0.80877 0.60721 0.0
N557 N 0.39192 0.87731 0.57058 0.0
C558 C 0.39246 0.87903 0.54713 0.0
C559 C 0.36341 0.86797 0.53503 0.0
C560 C 0.33413 0.85526 0.54716 0.0
C561 C 0.33416 0.85364 0.5713 0.0
C562 C 0.36389 0.86519 0.58243 0.0
H563 H 0.41483 0.88838 0.53771 0.0
O564 O 0.42551 0.81319 0.56418 0.0
O565 O 0.42401 0.84792 0.58826 0.0
O566 O 0.48085 0.87806 0.55945 0.0
O567 O 0.45937 0.90945 0.56661 0.0
C568 C 0.30581 0.84041 0.58471 0.0
C569 C 0.3076 0.83866 0.6089 0.0
H570 H 0.32044 0.83857 0.65477 0.0
H571 H 0.37483 0.85648 0.6711 0.0
H572 H 0.36356 0.86905 0.51639 0.0
H573 H 0.31175 0.84651 0.53776 0.0
H574 H 0.28247 0.83123 0.57658 0.0
H575 H 0.28561 0.82822 0.61902 0.0
Mn576 Mn 0.15931 0.58963 0.53947 0.0
Mn577 Mn 0.10767 0.51295 0.55432 0.0
C578 C 0.17289 0.55062 0.53257 0.0
C579 C 0.19923 0.64073 0.55065 0.0
C580 C 0.0974 0.54778 0.51439 0.0
O581 O 0.12739 0.59218 0.56112 0.0
O582 O 0.10128 0.54172 0.57578 0.0
C583 C 0.13073 0.50828 0.60065 0.0
N584 N 0.12483 0.49858 0.5782 0.0
C585 C 0.14226 0.46006 0.58423 0.0
C586 C 0.14808 0.46932 0.60748 0.0
C587 C 0.14245 0.49365 0.61569 0.0
C588 C 0.13019 0.4752 0.57013 0.0
H589 H 0.12641 0.52697 0.60703 0.0
C590 C 0.10846 0.57141 0.57581 0.0
O591 O 0.18104 0.63674 0.53296 0.0
O592 O 0.19456 0.61514 0.56159 0.0
N593 N 0.113 0.48373 0.53471 0.0
C594 C 0.10699 0.47823 0.5117 0.0
C595 C 0.11264 0.45545 0.5006 0.0
C596 C 0.12432 0.43854 0.51326 0.0
C597 C 0.13023 0.44454 0.53693 0.0
C598 C 0.12404 0.46742 0.54708 0.0
H599 H 0.0981 0.49119 0.50186 0.0
O600 O 0.18761 0.57793 0.52158 0.0
O601 O 0.15132 0.54766 0.54743 0.0
O602 O 0.12577 0.57217 0.51414 0.0
O603 O 0.08768 0.52528 0.5294 0.0
C604 C 0.14243 0.42902 0.55079 0.0
C605 C 0.14829 0.43667 0.57445 0.0
H606 H 0.15732 0.45824 0.6191 0.0
H607 H 0.14717 0.50113 0.63356 0.0
H608 H 0.10808 0.451 0.48231 0.0
H609 H 0.12882 0.42113 0.5046 0.0
H610 H 0.14751 0.41126 0.54341 0.0
H611 H 0.15775 0.42464 0.58491 0.0
Mn612 Mn 0.4036 0.53701 0.5744 0.0
Mn613 Mn 0.45974 0.55705 0.61568 0.0
C614 C 0.43726 0.59068 0.58392 0.0
C615 C 0.35105 0.52126 0.56372 0.0
C616 C 0.46385 0.53241 0.56837 0.0
O617 O 0.38849 0.49492 0.5917 0.0
O618 O 0.42375 0.51254 0.62131 0.0
C619 C 0.42315 0.55742 0.65667 0.0
N620 N 0.44897 0.57325 0.64228 0.0
C621 C 0.46832 0.6227 0.66353 0.0
C622 C 0.44213 0.6069 0.67871 0.0
C623 C 0.41947 0.57407 0.6753 0.0
C624 C 0.4712 0.60468 0.64563 0.0
H625 H 0.40536 0.53234 0.65385 0.0
C626 C 0.39851 0.49057 0.611 0.0
O627 O 0.36925 0.51486 0.55077 0.0
O628 O 0.36337 0.53659 0.58289 0.0
N629 N 0.49503 0.60019 0.61185 0.0
C630 C 0.51713 0.61255 0.59447 0.0
C631 C 0.54073 0.6455 0.59475 0.0
C632 C 0.54123 0.66538 0.61278 0.0
C633 C 0.51812 0.65213 0.63042 0.0
C634 C 0.49554 0.61902 0.62945 0.0
H635 H 0.51652 0.59744 0.58041 0.0
O636 O 0.42315 0.58292 0.56393 0.0
O637 O 0.43148 0.56669 0.59731 0.0
O638 O 0.43974 0.5329 0.55975 0.0
O639 O 0.47314 0.54044 0.58918 0.0
C640 C 0.51584 0.67067 0.64844 0.0
C641 C 0.49083 0.65593 0.66489 0.0
H642 H 0.43895 0.61988 0.69283 0.0
H643 H 0.39905 0.56175 0.68684 0.0
H644 H 0.55831 0.65563 0.58097 0.0
H645 H 0.55917 0.69088 0.61274 0.0
H646 H 0.53271 0.69641 0.64946 0.0
H647 H 0.48834 0.67038 0.67816 0.0
H648 H 0.34769 0.14445 0.21348 0.0
H649 H 0.43602 0.18961 0.17329 0.0
H650 H 0.40538 0.15891 0.13879 0.0
H651 H 0.30962 0.06589 0.18639 0.0
H652 H 0.26989 0.06118 0.187 0.0
H653 H 0.29902 0.08504 0.2088 0.0
H654 H 0.29276 0.13435 0.19879 0.0
H655 H 0.26311 0.1104 0.17739 0.0
H656 H 0.2981 0.14819 0.16936 0.0
H657 H 0.3649 0.12279 0.10899 0.0
H658 H 0.31667 0.09262 0.08433 0.0
H659 H 0.25498 0.07386 0.14395 0.0
C660 C 0.36053 0.14785 0.19738 0.0
C661 C 0.39408 0.1692 0.19589 0.0
C662 C 0.41018 0.17348 0.17459 0.0
C663 C 0.39309 0.15586 0.15507 0.0
C664 C 0.36 0.13446 0.15722 0.0
C665 C 0.34381 0.13098 0.17773 0.0
C666 C 0.30786 0.10864 0.17511 0.0
C667 C 0.29591 0.0784 0.19022 0.0
C668 C 0.28938 0.12647 0.18046 0.0
C669 C 0.30622 0.10038 0.14982 0.0
C670 C 0.33659 0.11479 0.13992 0.0
C671 C 0.341 0.11131 0.11655 0.0
C672 C 0.31354 0.09389 0.10274 0.0
C673 C 0.28228 0.08091 0.11236 0.0
C674 C 0.27868 0.08337 0.13627 0.0
H675 H 0.90717 0.16088 0.16647 0.0
H676 H 0.92671 0.22522 0.10833 0.0
H677 H 0.88188 0.23317 0.12035 0.0
H678 H 0.8214 0.12267 0.16497 0.0
H679 H 0.81677 0.12072 0.19588 0.0
H680 H 0.85062 0.12004 0.18293 0.0
H681 H 0.89074 0.16982 0.20722 0.0
H682 H 0.85697 0.16973 0.22084 0.0
H683 H 0.88762 0.20577 0.20679 0.0
H684 H 0.83404 0.23331 0.13839 0.0
H685 H 0.79432 0.23396 0.16552 0.0
H686 H 0.80645 0.16952 0.21112 0.0
C687 C 0.90242 0.17703 0.1564 0.0
C688 C 0.92044 0.19225 0.13639 0.0
C689 C 0.91332 0.21325 0.12377 0.0
C690 C 0.88762 0.21764 0.13028 0.0
C691 C 0.86937 0.20096 0.14945 0.0
C692 C 0.87694 0.1817 0.16262 0.0
C693 C 0.85458 0.16764 0.18306 0.0
C694 C 0.83467 0.13057 0.18161 0.0
C695 C 0.87361 0.17893 0.20581 0.0
C696 C 0.83354 0.18241 0.17953 0.0
C697 C 0.84195 0.20106 0.1598 0.0
C698 C 0.82697 0.21852 0.15375 0.0
C699 C 0.80413 0.21839 0.16901 0.0
C700 C 0.79707 0.20121 0.18998 0.0
C701 C 0.81093 0.18205 0.1948 0.0
H702 H 0.73542 0.60086 0.17571 0.0
H703 H 0.80474 0.57174 0.15702 0.0
H704 H 0.83073 0.61753 0.12988 0.0
H705 H 0.73122 0.63238 0.11663 0.0
H706 H 0.72733 0.6646 0.12939 0.0
H707 H 0.71078 0.62624 0.14388 0.0
H708 H 0.74371 0.6557 0.18033 0.0
H709 H 0.76105 0.694 0.16586 0.0
H710 H 0.78698 0.6809 0.17823 0.0
H711 H 0.85561 0.67186 0.11186 0.0
H712 H 0.87293 0.7271 0.09854 0.0
H713 H 0.78566 0.71961 0.12696 0.0
C714 C 0.75533 0.60345 0.16527 0.0
C715 C 0.76813 0.58286 0.16837 0.0
C716 C 0.79438 0.58707 0.15465 0.0
C717 C 0.80937 0.61308 0.1393 0.0
C718 C 0.79721 0.63399 0.13757 0.0
C719 C 0.7702 0.62893 0.14966 0.0
C720 C 0.76339 0.65621 0.14601 0.0
C721 C 0.73127 0.64413 0.13321 0.0
C722 C 0.76383 0.67266 0.16897 0.0
C723 C 0.79181 0.67828 0.13097 0.0
C724 C 0.81098 0.66496 0.1263 0.0
C725 C 0.84037 0.68217 0.11483 0.0
C726 C 0.85018 0.71362 0.10763 0.0
C727 C 0.83051 0.72737 0.11176 0.0
C728 C 0.80085 0.70938 0.12338 0.0
H729 H 0.18834 0.36037 0.79675 0.0
H730 H 0.28793 0.41899 0.81927 0.0
H731 H 0.2845 0.37115 0.83801 0.0
H732 H 0.15893 0.31308 0.84767 0.0
H733 H 0.1312 0.27681 0.83232 0.0
H734 H 0.14234 0.31569 0.82043 0.0
H735 H 0.1608 0.30015 0.78284 0.0
H736 H 0.15045 0.26148 0.7949 0.0
H737 H 0.19075 0.28802 0.78433 0.0
H738 H 0.26953 0.31758 0.85539 0.0
H739 H 0.24204 0.26353 0.87364 0.0
H740 H 0.15345 0.24004 0.8383 0.0
C741 C 0.2095 0.36329 0.80563 0.0
C742 C 0.23845 0.39343 0.80647 0.0
C743 C 0.26543 0.39617 0.81847 0.0
C744 C 0.26384 0.36908 0.82895 0.0
C745 C 0.23517 0.33956 0.82717 0.0
C746 C 0.20839 0.33663 0.81606 0.0
C747 C 0.17996 0.30262 0.81751 0.0
C748 C 0.15144 0.30203 0.83025 0.0
C749 C 0.16992 0.28717 0.79346 0.0
C750 C 0.19476 0.28691 0.83154 0.0
C751 C 0.22676 0.30851 0.83673 0.0
C752 C 0.24472 0.30027 0.85109 0.0
C753 C 0.22911 0.26957 0.86119 0.0
C754 C 0.19616 0.24776 0.85664 0.0
C755 C 0.17903 0.2561 0.8412 0.0
H756 H 0.73406 0.95998 0.85035 0.0
H757 H 0.69307 0.96598 0.91539 0.0
H758 H 0.63834 0.93592 0.89867 0.0
H759 H 0.66866 0.957 0.81029 0.0
H760 H 0.67131 0.92763 0.79237 0.0
H761 H 0.70678 0.95852 0.80685 0.0
H762 H 0.71495 0.91383 0.82525 0.0
H763 H 0.67903 0.8829 0.81153 0.0
H764 H 0.68295 0.88291 0.84242 0.0
H765 H 0.58846 0.89523 0.8779 0.0
H766 H 0.54744 0.85167 0.85322 0.0
H767 H 0.62221 0.86921 0.80329 0.0
C768 C 0.71369 0.95695 0.86045 0.0
C769 C 0.71753 0.96591 0.88383 0.0
C770 C 0.69037 0.95992 0.8972 0.0
C771 C 0.65924 0.94266 0.88789 0.0
C772 C 0.65592 0.93155 0.86528 0.0
C773 C 0.68249 0.93899 0.85156 0.0
C774 C 0.67261 0.9197 0.82942 0.0
C775 C 0.68028 0.94205 0.80849 0.0
C776 C 0.68833 0.89861 0.82704 0.0
C777 C 0.63668 0.89924 0.83331 0.0
C778 C 0.62731 0.90675 0.85382 0.0
C779 C 0.59542 0.88957 0.86156 0.0
C780 C 0.57238 0.86464 0.84759 0.0
C781 C 0.58161 0.85682 0.82642 0.0
C782 C 0.61427 0.87431 0.81944 0.0
H783 H 0.11401 0.72797 0.8036 0.0
H784 H 0.10971 0.76559 0.73653 0.0
H785 H 0.06544 0.77352 0.75038 0.0
H786 H 0.02693 0.68787 0.81763 0.0
H787 H 0.0348 0.6998 0.8475 0.0
H788 H 0.06273 0.69254 0.83137 0.0
H789 H 0.10956 0.75003 0.84163 0.0
H790 H 0.08189 0.75707 0.85805 0.0
H791 H 0.10529 0.78451 0.83528 0.0
H792 H 0.02546 0.7819 0.7724 0.0
H793 H -0.00143 0.79708 0.80204 0.0
H794 H 0.02954 0.75437 0.85472 0.0
C795 C 0.10335 0.73732 0.79169 0.0
C796 C 0.11507 0.74597 0.76898 0.0
C797 C 0.10107 0.75886 0.75405 0.0
C798 C 0.07568 0.76308 0.76166 0.0
C799 C 0.06466 0.75427 0.7842 0.0
C800 C 0.0783 0.74198 0.79906 0.0
C801 C 0.06497 0.7382 0.82319 0.0
C802 C 0.04624 0.70247 0.83033 0.0
C803 C 0.09203 0.75868 0.84054 0.0
C804 C 0.04253 0.75137 0.81979 0.0
C805 C 0.04202 0.75974 0.79707 0.0
C806 C 0.02524 0.77502 0.79018 0.0
C807 C 0.00991 0.78341 0.80715 0.0
C808 C 0.01204 0.77696 0.8307 0.0
C809 C 0.02729 0.75942 0.83684 0.0
H810 H 0.92294 0.49978 0.4681 0.0
H811 H 0.96996 0.55987 0.40866 0.0
H812 H 0.02334 0.57845 0.42651 0.0
H813 H 0.98315 0.55133 0.51319 0.0
H814 H 0.97928 0.51627 0.52761 0.0
H815 H 0.94529 0.51369 0.51247 0.0
H816 H 0.94064 0.46567 0.48864 0.0
H817 H 0.97518 0.46868 0.50313 0.0
H818 H 0.97487 0.47101 0.47212 0.0
H819 H 0.07101 0.58514 0.44852 0.0
H820 H 0.11022 0.58171 0.47409 0.0
H821 H 0.03153 0.51352 0.51765 0.0
C822 C 0.94449 0.51818 0.45952 0.0
C823 C 0.94271 0.52946 0.43752 0.0
C824 C 0.97119 0.55191 0.4259 0.0
C825 C 0.00147 0.56234 0.43582 0.0
C826 C 0.00259 0.54955 0.45712 0.0
C827 C 0.97485 0.52812 0.46892 0.0
C828 C 0.9826 0.5148 0.49001 0.0
C829 C 0.97196 0.52463 0.51213 0.0
C830 C 0.96742 0.47786 0.48836 0.0
C831 C 0.01896 0.53179 0.48809 0.0
C832 C 0.03003 0.55194 0.46914 0.0
C833 C 0.06269 0.5697 0.46355 0.0
C834 C 0.08473 0.56744 0.47809 0.0
C835 C 0.07391 0.54726 0.4978 0.0
C836 C 0.04054 0.52893 0.50261 0.0
H837 H 0.45991 0.52302 0.5218 0.0
H838 H 0.49783 0.5044 0.58412 0.0
H839 H 0.50904 0.46663 0.56251 0.0
H840 H 0.41907 0.44445 0.50135 0.0
H841 H 0.42825 0.45461 0.47132 0.0
H842 H 0.42646 0.48296 0.49082 0.0
H843 H 0.48481 0.52696 0.47977 0.0
H844 H 0.48629 0.4991 0.4596 0.0
H845 H 0.51689 0.5178 0.48151 0.0
H846 H 0.51084 0.42668 0.53477 0.0
H847 H 0.51233 0.39522 0.50142 0.0
H848 H 0.47224 0.43999 0.45801 0.0
C849 C 0.47133 0.51165 0.53081 0.0
C850 C 0.47794 0.5166 0.55464 0.0
C851 C 0.49283 0.50121 0.56581 0.0
C852 C 0.49895 0.47943 0.55374 0.0
C853 C 0.49036 0.47371 0.53055 0.0
C854 C 0.47765 0.49001 0.51908 0.0
C855 C 0.47004 0.47929 0.49425 0.0
C856 C 0.4338 0.46445 0.48916 0.0
C857 C 0.49075 0.50746 0.47782 0.0
C858 C 0.47992 0.45398 0.49361 0.0
C859 C 0.49144 0.45092 0.5147 0.0
C860 C 0.50207 0.42901 0.51813 0.0
C861 C 0.5024 0.41093 0.49916 0.0
C862 C 0.49234 0.41512 0.47713 0.0
C863 C 0.47999 0.43616 0.47463 0.0
H864 H 0.53541 0.04893 0.46954 0.0
H865 H 0.634 0.07086 0.47957 0.0
H866 H 0.61409 0.02276 0.50491 0.0
H867 H 0.50938 0.02376 0.52817 0.0
H868 H 0.46934 0.99347 0.51932 0.0
H869 H 0.4921 0.02936 0.50226 0.0
H870 H 0.48447 0.99361 0.46648 0.0
H871 H 0.46234 0.9576 0.48354 0.0
H872 H 0.49757 0.96437 0.46767 0.0
H873 H 0.58195 0.96966 0.52691 0.0
H874 H 0.54196 0.92218 0.54927 0.0
H875 H 0.46583 0.93915 0.52624 0.0
C876 C 0.55295 0.04401 0.47728 0.0
C877 C 0.5862 0.06351 0.47268 0.0
C878 C 0.6084 0.05623 0.48313 0.0
C879 C 0.59728 0.02888 0.4973 0.0
C880 C 0.56408 0.00969 0.50101 0.0
C881 C 0.54241 0.01749 0.49171 0.0
C882 C 0.50813 0.99402 0.49889 0.0
C883 C 0.49392 0.01118 0.51301 0.0
C884 C 0.48689 0.97636 0.47789 0.0
C885 C 0.5137 0.97145 0.51362 0.0
C886 C 0.546 0.98043 0.51435 0.0
C887 C 0.55666 0.96259 0.52659 0.0
C888 C 0.53381 0.93555 0.53901 0.0
C889 C 0.50096 0.92717 0.53933 0.0
C890 C 0.49082 0.94508 0.52621 0.0
H891 H 0.12516 0.10893 0.06541 0.0
H892 H 0.19226 0.16521 0.11973 0.0
H893 H 0.15857 0.18921 0.12944 0.0
H894 H 0.10005 0.16802 0.0483 0.0
H895 H 0.05916 0.13515 0.04399 0.0
H896 H 0.09262 0.1288 0.03943 0.0
H897 H 0.0654 0.08073 0.06818 0.0
H898 H 0.03315 0.08878 0.07328 0.0
H899 H 0.05679 0.08803 0.09713 0.0
H900 H 0.11267 0.19908 0.13773 0.0
H901 H 0.05916 0.19446 0.14321 0.0
H902 H 0.02348 0.13375 0.08256 0.0
C903 C 0.13334 0.12707 0.07887 0.0
C904 C 0.16144 0.13541 0.09168 0.0
C905 C 0.17088 0.15861 0.10958 0.0
C906 C 0.15195 0.17246 0.11517 0.0
C907 C 0.12378 0.16296 0.1026 0.0
C908 C 0.11464 0.14087 0.08476 0.0
C909 C 0.08157 0.13162 0.0757 0.0
C910 C 0.08349 0.14158 0.05035 0.0
C911 C 0.05785 0.09515 0.07878 0.0
C912 C 0.07314 0.15154 0.09148 0.0
C913 C 0.0978 0.16955 0.1069 0.0
C914 C 0.09362 0.18598 0.12531 0.0
C915 C 0.06325 0.18326 0.12835 0.0
C916 C 0.03786 0.16476 0.11282 0.0
C917 C 0.04312 0.14933 0.09397 0.0
H918 H 0.9207 0.02786 0.0892 0.0
H919 H 0.89604 0.02935 0.16099 0.0
H920 H 0.87262 0.96995 0.16298 0.0
H921 H 0.84874 0.94998 0.07416 0.0
H922 H 0.87192 0.93962 0.05503 0.0
H923 H 0.88351 0.98129 0.05938 0.0
H924 H 0.9408 0.99367 0.07125 0.0
H925 H 0.92887 0.95195 0.06708 0.0
H926 H 0.94505 0.97116 0.09447 0.0
H927 H 0.86057 0.91214 0.15838 0.0
H928 H 0.85789 0.86088 0.14685 0.0
H929 H 0.88454 0.89666 0.07716 0.0
C930 C 0.91003 0.01564 0.10529 0.0
C931 C 0.91032 0.03306 0.125 0.0
C932 C 0.896 0.01631 0.14569 0.0
C933 C 0.88259 0.98263 0.14694 0.0
C934 C 0.88303 0.96615 0.12718 0.0
C935 C 0.89603 0.98216 0.10667 0.0
C936 C 0.89515 0.95948 0.08817 0.0
C937 C 0.87349 0.95744 0.06801 0.0
C938 C 0.9295 0.96967 0.07977 0.0
C939 C 0.88043 0.92823 0.10159 0.0
C940 C 0.8737 0.93247 0.12412 0.0
C941 C 0.8646 0.90818 0.1406 0.0
C942 C 0.86308 0.87921 0.13397 0.0
C943 C 0.86969 0.87462 0.11098 0.0
C944 C 0.8778 0.89914 0.09457 0.0
H945 H 0.13304 0.97425 0.10508 0.0
H946 H 0.13676 0.0208 0.04034 0.0
H947 H 0.08536 0.97355 0.02849 0.0
H948 H 0.08937 0.88769 0.08172 0.0
H949 H 0.06585 0.87279 0.10776 0.0
H950 H 0.10641 0.90691 0.10895 0.0
H951 H 0.08485 0.94065 0.12922 0.0
H952 H 0.0444 0.90683 0.12788 0.0
H953 H 0.05353 0.94499 0.1155 0.0
H954 H 0.03044 0.92775 0.02657 0.0
H955 H 0.97421 0.88595 0.03507 0.0
H956 H 0.00438 0.86676 0.10062 0.0
C957 C 0.12339 0.97375 0.08813 0.0
C958 C 0.1393 0.00033 0.07314 0.0
C959 C 0.12548 -8e-05 0.05156 0.0
C960 C 0.0963 0.97323 0.04471 0.0
C961 C 0.08108 0.94722 0.05976 0.0
C962 C 0.0941 0.9471 0.081 0.0
C963 C 0.07067 0.91796 0.09506 0.0
C964 C 0.08386 0.89497 0.09858 0.0
C965 C 0.0629 0.92824 0.11827 0.0
C966 C 0.04169 0.90318 0.07909 0.0
C967 C 0.04861 0.92006 0.05858 0.0
C968 C 0.02488 0.91372 0.04224 0.0
C969 C 0.99304 0.89011 0.04725 0.0
C970 C 0.98532 0.87305 0.06831 0.0
C971 C 0.01002 0.87891 0.08411 0.0
H972 H 0.0454 0.91536 0.90112 0.0
H973 H 0.07874 0.90451 0.8342 0.0
H974 H 0.12322 0.96134 0.83575 0.0
H975 H 0.05028 0.98458 0.8894 0.0
H976 H 0.06271 0.00356 0.9173 0.0
H977 H 0.04095 0.96035 0.9151 0.0
H978 H 0.08664 0.95799 0.93663 0.0
H979 H 0.10899 0.00132 0.93898 0.0
H980 H 0.12759 0.98056 0.92598 0.0
H981 H 0.15512 0.02118 0.84024 0.0
H982 H 0.17136 0.07834 0.8473 0.0
H983 H 0.1161 0.05056 0.91086 0.0
C984 C 0.06336 0.92455 0.88753 0.0
C985 C 0.05963 0.90556 0.86793 0.0
C986 C 0.08201 0.91866 0.84962 0.0
C987 C 0.10732 0.95084 0.85042 0.0
C988 C 0.10959 0.9696 0.86955 0.0
C989 C 0.08837 0.95679 0.88797 0.0
C990 C 0.09169 0.98315 0.90418 0.0
C991 C 0.05952 0.98289 0.9066 0.0
C992 C 0.10451 0.98055 0.92783 0.0
C993 C 0.11666 0.01273 0.89139 0.0
C994 C 0.12734 0.00453 0.87177 0.0
C995 C 0.14763 0.0279 0.8559 0.0
C996 C 0.15667 0.06031 0.86 0.0
C997 C 0.14511 0.06889 0.87967 0.0
C998 C 0.12571 0.04484 0.89582 0.0
H999 H 0.05416 0.14619 0.8609 0.0
H1000 H 0.07367 0.12288 0.92881 0.0
H1001 H 0.01789 0.10488 0.94069 0.0
H1002 H 0.99175 0.16819 0.87682 0.0
H1003 H 0.96678 0.14697 0.85241 0.0
H1004 H 0.01003 0.1648 0.85057 0.0
H1005 H 0.00229 0.10895 0.83873 0.0
H1006 H 0.95922 0.09138 0.84067 0.0
H1007 H 0.97906 0.07456 0.85715 0.0
H1008 H 0.96166 0.08915 0.94561 0.0
H1009 H 0.90292 0.05881 0.94015 0.0
H1010 H 0.9153 0.08437 0.86767 0.0
C1011 C 0.04672 0.13826 0.87846 0.0
C1012 C 0.06873 0.13843 0.89468 0.0
C1013 C 0.05773 0.12528 0.91682 0.0
C1014 C 0.0261 0.11494 0.92368 0.0
C1015 C 0.00539 0.11689 0.90788 0.0
C1016 C 0.0147 0.12695 0.88544 0.0
C1017 C 0.9857 0.12026 0.87081 0.0
C1018 C 0.98876 0.15195 0.86214 0.0
C1019 C 0.98131 0.09742 0.85066 0.0
C1020 C 0.95868 0.10403 0.88846 0.0
C1021 C 0.97112 0.10389 0.90993 0.0
C1022 C 0.95153 0.0891 0.92894 0.0
C1023 C 0.91822 0.07206 0.92568 0.0
C1024 C 0.90479 0.06951 0.90356 0.0
C1025 C 0.92508 0.08674 0.88484 0.0
H1026 H 0.92625 0.88254 0.89436 0.0
H1027 H 0.88537 0.83046 0.83053 0.0
H1028 H 0.8426 0.84512 0.83271 0.0
H1029 H 0.85203 0.86319 0.92344 0.0
H1030 H 0.86979 0.90315 0.93594 0.0
H1031 H 0.89459 0.88583 0.9296 0.0
H1032 H 0.93197 0.9362 0.90497 0.0
H1033 H 0.90682 0.95313 0.91128 0.0
H1034 H 0.91488 0.94767 0.88175 0.0
H1035 H 0.80911 0.87217 0.83975 0.0
H1036 H 0.78806 0.90814 0.8512 0.0
H1037 H 0.84872 0.93759 0.91184 0.0
C1038 C 0.90815 0.87382 0.8809 0.0
C1039 C 0.90906 0.85536 0.86228 0.0
C1040 C 0.88503 0.84465 0.84498 0.0
C1041 C 0.86063 0.85273 0.84615 0.0
C1042 C 0.86056 0.87113 0.86484 0.0
C1043 C 0.88379 0.88145 0.88188 0.0
C1044 C 0.88022 0.90278 0.89934 0.0
C1045 C 0.87368 0.88778 0.92352 0.0
C1046 C 0.91023 0.93695 0.89931 0.0
C1047 C 0.85111 0.90291 0.88965 0.0
C1048 C 0.8402 0.88484 0.86959 0.0
C1049 C 0.8167 0.88549 0.8558 0.0
C1050 C 0.80482 0.90582 0.86239 0.0
C1051 C 0.81591 0.9243 0.88283 0.0
C1052 C 0.83873 0.92227 0.89679 0.0
H1053 H 0.74663 0.47008 0.39011 0.0
H1054 H 0.78035 0.52337 0.45424 0.0
H1055 H 0.72619 0.5163 0.46091 0.0
H1056 H 0.68779 0.49811 0.37513 0.0
H1057 H 0.65903 0.45896 0.36358 0.0
H1058 H 0.7017 0.47375 0.36121 0.0
H1059 H 0.69489 0.42282 0.38139 0.0
H1060 H 0.65223 0.40717 0.38354 0.0
H1061 H 0.67531 0.41143 0.40915 0.0
H1062 H 0.66668 0.49115 0.46545 0.0
H1063 H 0.60762 0.45373 0.46594 0.0
H1064 H 0.61242 0.42059 0.39744 0.0
C1065 C 0.74289 0.48124 0.40516 0.0
C1066 C 0.76756 0.49726 0.42168 0.0
C1067 C 0.76181 0.51127 0.44128 0.0
C1068 C 0.73112 0.50738 0.44517 0.0
C1069 C 0.70681 0.49015 0.429 0.0
C1070 C 0.71259 0.47788 0.40911 0.0
C1071 C 0.68177 0.45716 0.39576 0.0
C1072 C 0.68259 0.47294 0.37255 0.0
C1073 C 0.67571 0.42262 0.39229 0.0
C1074 C 0.6573 0.45768 0.41205 0.0
C1075 C 0.67227 0.47723 0.43101 0.0
C1076 C 0.65468 0.47696 0.45029 0.0
C1077 C 0.62121 0.45566 0.45048 0.0
C1078 C 0.60565 0.43559 0.43131 0.0
C1079 C 0.62377 0.43714 0.41171 0.0
H1080 H 0.51762 0.26741 0.46004 0.0
H1081 H 0.53516 0.29346 0.38765 0.0
H1082 H 0.55049 0.2523 0.38133 0.0
H1083 H 0.58251 0.2587 0.46898 0.0
H1084 H 0.5638 0.22382 0.48752 0.0
H1085 H 0.54769 0.25047 0.48604 0.0
H1086 H 0.49173 0.20246 0.47501 0.0
H1087 H 0.50741 0.17528 0.47633 0.0
H1088 H 0.488 0.17769 0.45045 0.0
H1089 H 0.5764 0.22006 0.38451 0.0
H1090 H 0.6027 0.18938 0.39554 0.0
H1091 H 0.56521 0.17888 0.46495 0.0
C1092 C 0.52349 0.26349 0.44274 0.0
C1093 C 0.52532 0.28364 0.42435 0.0
C1094 C 0.53376 0.27839 0.402 0.0
C1095 C 0.54241 0.25498 0.3982 0.0
C1096 C 0.54206 0.23667 0.41685 0.0
C1097 C 0.5321 0.23992 0.43858 0.0
C1098 C 0.53674 0.21886 0.45589 0.0
C1099 C 0.55901 0.23919 0.47577 0.0
C1100 C 0.50402 0.19197 0.46496 0.0
C1101 C 0.55273 0.20508 0.44073 0.0
C1102 C 0.55531 0.21563 0.41825 0.0
C1103 C 0.57306 0.21016 0.40171 0.0
C1104 C 0.58775 0.19256 0.40808 0.0
C1105 C 0.58394 0.17988 0.43058 0.0
C1106 C 0.5668 0.18678 0.44728 0.0
H1107 H 0.78409 0.39018 0.40448 0.0
H1108 H 0.8529 0.4084 0.45879 0.0
H1109 H 0.82776 0.3493 0.46539 0.0
H1110 H 0.72009 0.3302 0.43906 0.0
H1111 H 0.69655 0.3065 0.41483 0.0
H1112 H 0.72289 0.34943 0.41179 0.0
H1113 H 0.75424 0.341 0.37759 0.0
H1114 H 0.72431 0.29889 0.38013 0.0
H1115 H 0.76616 0.31099 0.38121 0.0
H1116 H 0.79322 0.28729 0.46626 0.0
H1117 H 0.74957 0.22967 0.46416 0.0
H1118 H 0.70182 0.2549 0.41162 0.0
C1119 C 0.79442 0.3815 0.41721 0.0
C1120 C 0.82138 0.40329 0.43031 0.0
C1121 C 0.83299 0.39166 0.44803 0.0
C1122 C 0.81884 0.35827 0.45187 0.0
C1123 C 0.79232 0.33717 0.43845 0.0
C1124 C 0.77983 0.3485 0.4218 0.0
C1125 C 0.74799 0.3218 0.41263 0.0
C1126 C 0.72026 0.32731 0.42003 0.0
C1127 C 0.74834 0.31807 0.38633 0.0
C1128 C 0.74604 0.29326 0.42507 0.0
C1129 C 0.77139 0.30239 0.44019 0.0
C1130 C 0.77338 0.27987 0.45433 0.0
C1131 C 0.74862 0.24725 0.453 0.0
C1132 C 0.72258 0.23772 0.43752 0.0
C1133 C 0.72167 0.26115 0.42335 0.0
H1134 H 0.78203 0.31395 0.19874 0.0
H1135 H 0.77703 0.30329 0.2729 0.0
H1136 H 0.79525 0.3611 0.27747 0.0
H1137 H 0.85019 0.40295 0.19668 0.0
H1138 H 0.83047 0.411 0.17335 0.0
H1139 H 0.82701 0.37185 0.17582 0.0
H1140 H 0.76467 0.34472 0.17553 0.0
H1141 H 0.76782 0.38353 0.17322 0.0
H1142 H 0.74512 0.35691 0.19658 0.0
H1143 H 0.80183 0.41488 0.27432 0.0
H1144 H 0.79352 0.45992 0.26396 0.0
H1145 H 0.79214 0.4368 0.1915 0.0
C1146 C 0.78629 0.32438 0.21586 0.0
C1147 C 0.78005 0.30487 0.23551 0.0
C1148 C 0.78369 0.31843 0.25772 0.0
C1149 C 0.79385 0.35121 0.26043 0.0
C1150 C 0.79954 0.3699 0.24071 0.0
C1151 C 0.79591 0.35702 0.21879 0.0
C1152 C 0.79772 0.38053 0.2006 0.0
C1153 C 0.82817 0.39229 0.18573 0.0
C1154 C 0.767 0.36552 0.18563 0.0
C1155 C 0.80021 0.4075 0.21579 0.0
C1156 C 0.80239 0.4013 0.23882 0.0
C1157 C 0.80097 0.42045 0.25635 0.0
C1158 C 0.79605 0.44586 0.25031 0.0
C1159 C 0.7924 0.45181 0.22694 0.0
C1160 C 0.7957 0.43318 0.20943 0.0
H1161 H 0.64886 0.45419 0.1951 0.0
H1162 H 0.68757 0.47095 0.26428 0.0
H1163 H 0.63385 0.43206 0.27958 0.0
H1164 H 0.56277 0.43365 0.2116 0.0
H1165 H 0.54577 0.40242 0.1899 0.0
H1166 H 0.58448 0.43824 0.18516 0.0
H1167 H 0.61002 0.40255 0.1777 0.0
H1168 H 0.57167 0.3668 0.1825 0.0
H1169 H 0.60621 0.37385 0.19933 0.0
H1170 H 0.58049 0.38454 0.28647 0.0
H1171 H 0.53252 0.33004 0.28421 0.0
H1172 H 0.52753 0.34131 0.21043 0.0
C1173 C 0.64544 0.45057 0.21354 0.0
C1174 C 0.67172 0.46682 0.22873 0.0
C1175 C 0.6672 0.46017 0.2526 0.0
C1176 C 0.63679 0.43796 0.26141 0.0
C1177 C 0.61124 0.42203 0.24602 0.0
C1178 C 0.61519 0.42803 0.22255 0.0
C1179 C 0.58546 0.4038 0.20938 0.0
C1180 C 0.56861 0.42052 0.19836 0.0
C1181 C 0.59386 0.38569 0.19118 0.0
C1182 C 0.56537 0.38173 0.22887 0.0
C1183 C 0.58021 0.39337 0.24995 0.0
C1184 C 0.56825 0.37551 0.27016 0.0
C1185 C 0.54109 0.34449 0.26869 0.0
C1186 C 0.52637 0.33157 0.24715 0.0
C1187 C 0.53797 0.3509 0.22717 0.0
H1188 H 0.51323 0.18286 0.21528 0.0
H1189 H 0.50771 0.20118 0.28774 0.0
H1190 H 0.54923 0.18689 0.29634 0.0
H1191 H 0.53553 0.11639 0.2235 0.0
H1192 H 0.56235 0.13133 0.19903 0.0
H1193 H 0.52608 0.13389 0.19945 0.0
H1194 H 0.56029 0.19547 0.19215 0.0
H1195 H 0.59658 0.19334 0.19199 0.0
H1196 H 0.59269 0.22036 0.21169 0.0
H1197 H 0.59939 0.18464 0.2958 0.0
H1198 H 0.6527 0.19157 0.28671 0.0
H1199 H 0.62667 0.17391 0.21444 0.0
C1200 C 0.51973 0.18217 0.23305 0.0
C1201 C 0.50651 0.1918 0.251 0.0
C1202 C 0.51651 0.19235 0.27395 0.0
C1203 C 0.5402 0.18437 0.27895 0.0
C1204 C 0.55361 0.17589 0.26078 0.0
C1205 C 0.54336 0.17421 0.23828 0.0
C1206 C 0.56483 0.16922 0.22155 0.0
C1207 C 0.54609 0.13571 0.21021 0.0
C1208 C 0.57946 0.19621 0.2033 0.0
C1209 C 0.59033 0.17113 0.23791 0.0
C1210 C 0.58293 0.1742 0.26052 0.0
C1211 C 0.60483 0.1809 0.27836 0.0
C1212 C 0.63519 0.1851 0.27298 0.0
C1213 C 0.64354 0.18281 0.24992 0.0
C1214 C 0.62046 0.17475 0.23229 0.0
H1215 H 0.26487 0.74229 0.74358 0.0
H1216 H 0.25329 0.79713 0.79834 0.0
H1217 H 0.31227 0.82541 0.80576 0.0
H1218 H 0.31518 0.72628 0.77546 0.0
H1219 H 0.3394 0.72619 0.75168 0.0
H1220 H 0.29838 0.71621 0.74682 0.0
H1221 H 0.31768 0.76074 0.71614 0.0
H1222 H 0.35894 0.77142 0.72076 0.0
H1223 H 0.34769 0.80188 0.72336 0.0
H1224 H 0.37088 0.84158 0.81068 0.0
H1225 H 0.42371 0.84418 0.81281 0.0
H1226 H 0.3952 0.77584 0.7562 0.0
C1227 C 0.27512 0.76142 0.75635 0.0
C1228 C 0.25512 0.76871 0.76981 0.0
C1229 C 0.26867 0.79218 0.78744 0.0
C1230 C 0.30203 0.80824 0.79173 0.0
C1231 C 0.32112 0.79981 0.77857 0.0
C1232 C 0.30807 0.77688 0.76121 0.0
C1233 C 0.33224 0.76795 0.75228 0.0
C1234 C 0.3206 0.73205 0.75685 0.0
C1235 C 0.33956 0.77605 0.7266 0.0
C1236 C 0.36104 0.78968 0.76706 0.0
C1237 C 0.35431 0.80794 0.78211 0.0
C1238 C 0.37658 0.82784 0.79867 0.0
C1239 C 0.40644 0.82906 0.79983 0.0
C1240 C 0.4136 0.81042 0.78454 0.0
C1241 C 0.39065 0.79079 0.76787 0.0
H1242 H 0.23985 0.53457 0.75182 0.0
H1243 H 0.20416 0.49554 0.81971 0.0
H1244 H 0.17464 0.52581 0.82146 0.0
H1245 H 0.25896 0.61191 0.76884 0.0
H1246 H 0.25176 0.62379 0.74106 0.0
H1247 H 0.26378 0.59388 0.74293 0.0
H1248 H 0.21253 0.55257 0.72012 0.0
H1249 H 0.20224 0.58371 0.71742 0.0
H1250 H 0.17346 0.54532 0.7295 0.0
H1251 H 0.1519 0.56358 0.81617 0.0
H1252 H 0.14422 0.60985 0.80687 0.0
H1253 H 0.20094 0.62739 0.74461 0.0
C1254 C 0.22481 0.53157 0.76667 0.0
C1255 C 0.2228 0.51182 0.7852 0.0
C1256 C 0.20486 0.50988 0.80508 0.0
C1257 C 0.18808 0.52688 0.80615 0.0
C1258 C 0.19065 0.54645 0.78752 0.0
C1259 C 0.20912 0.54925 0.76832 0.0
C1260 C 0.21331 0.57618 0.75264 0.0
C1261 C 0.24906 0.60301 0.75131 0.0
C1262 C 0.19954 0.56361 0.72849 0.0
C1263 C 0.19346 0.58745 0.76552 0.0
C1264 C 0.18024 0.56997 0.78548 0.0
C1265 C 0.16199 0.57726 0.8005 0.0
C1266 C 0.15767 0.60344 0.79509 0.0
C1267 C 0.17205 0.62208 0.77507 0.0
C1268 C 0.18966 0.61355 0.76005 0.0
H1269 H 0.46981 0.7041 0.81249 0.0
H1270 H 0.4727 0.73637 0.74245 0.0
H1271 H 0.44387 0.6801 0.72896 0.0
H1272 H 0.47152 0.62685 0.79719 0.0
H1273 H 0.44327 0.60476 0.81995 0.0
H1274 H 0.47173 0.64733 0.82335 0.0
H1275 H 0.42458 0.65759 0.8318 0.0
H1276 H 0.39605 0.6153 0.82834 0.0
H1277 H 0.39227 0.64452 0.81116 0.0
H1278 H 0.40469 0.62258 0.72428 0.0
H1279 H 0.35895 0.56701 0.72853 0.0
H1280 H 0.3797 0.56949 0.80141 0.0
C1281 C 0.46553 0.69912 0.79422 0.0
C1282 C 0.47502 0.72457 0.7783 0.0
C1283 C 0.46743 0.71733 0.7547 0.0
C1284 C 0.45075 0.68535 0.7469 0.0
C1285 C 0.44123 0.66069 0.763 0.0
C1286 C 0.44851 0.66709 0.78619 0.0
C1287 C 0.4314 0.63626 0.80026 0.0
C1288 C 0.45594 0.62832 0.81081 0.0
C1289 C 0.40979 0.63857 0.81897 0.0
C1290 C 0.41152 0.61203 0.78163 0.0
C1291 C 0.41821 0.6266 0.76019 0.0
C1292 C 0.40005 0.61054 0.74077 0.0
C1293 C 0.37399 0.57907 0.74336 0.0
C1294 C 0.36631 0.56392 0.76518 0.0
C1295 C 0.38588 0.58023 0.78441 0.0
H1296 H 0.50145 0.77764 0.5739 0.0
H1297 H 0.44835 0.76773 0.63691 0.0
H1298 H 0.44163 0.71386 0.64317 0.0
H1299 H 0.45334 0.7034 0.5536 0.0
H1300 H 0.48363 0.69584 0.5416 0.0
H1301 H 0.49196 0.73662 0.54479 0.0
H1302 H 0.54268 0.75097 0.56897 0.0
H1303 H 0.53479 0.71012 0.56601 0.0
H1304 H 0.53908 0.72761 0.59426 0.0
H1305 H 0.42877 0.65779 0.63762 0.0
H1306 H 0.41611 0.60436 0.62301 0.0
H1307 H 0.47888 0.64934 0.56434 0.0
C1308 C 0.48969 0.76469 0.58953 0.0
C1309 C 0.47552 0.77684 0.60498 0.0
C1310 C 0.45946 0.75888 0.6249 0.0
C1311 C 0.4556 0.72828 0.62863 0.0
C1312 C 0.4682 0.71612 0.61239 0.0
C1313 C 0.48553 0.73396 0.59345 0.0
C1314 C 0.4931 0.71372 0.57723 0.0
C1315 C 0.47969 0.71232 0.55288 0.0
C1316 C 0.52958 0.72636 0.57658 0.0
C1317 C 0.47523 0.68119 0.58911 0.0
C1318 C 0.46158 0.68334 0.6096 0.0
C1319 C 0.44051 0.65601 0.62218 0.0
C1320 C 0.43354 0.62578 0.61381 0.0
C1321 C 0.448 0.62307 0.5933 0.0
C1322 C 0.46882 0.65107 0.58066 0.0
H1323 H 0.24199 0.69016 0.52347 0.0
H1324 H 0.21419 0.6625 0.59457 0.0
H1325 H 0.26074 0.71406 0.60766 0.0
H1326 H 0.32132 0.71786 0.53158 0.0
H1327 H 0.33684 0.75116 0.51162 0.0
H1328 H 0.29717 0.7169 0.50746 0.0
H1329 H 0.27303 0.7546 0.50761 0.0
H1330 H 0.31275 0.7892 0.51193 0.0
H1331 H 0.28059 0.7813 0.53174 0.0
H1332 H 0.31366 0.76286 0.61324 0.0
H1333 H 0.37152 0.8036 0.61125 0.0
H1334 H 0.36783 0.79901 0.53665 0.0
C1335 C 0.2452 0.6957 0.54172 0.0
C1336 C 0.22451 0.67292 0.55809 0.0
C1337 C 0.22983 0.67999 0.58187 0.0
C1338 C 0.25599 0.70927 0.58941 0.0
C1339 C 0.27672 0.73095 0.57291 0.0
C1340 C 0.27174 0.72452 0.54953 0.0
C1341 C 0.30043 0.74915 0.53561 0.0
C1342 C 0.31478 0.73278 0.52071 0.0
C1343 C 0.29113 0.76978 0.52084 0.0
C1344 C 0.32308 0.76904 0.55486 0.0
C1345 C 0.30839 0.75889 0.57618 0.0
C1346 C 0.32516 0.7716 0.59666 0.0
C1347 C 0.35796 0.79478 0.59536 0.0
C1348 C 0.37359 0.80503 0.57377 0.0
C1349 C 0.35597 0.79216 0.55328 0.0
H1350 H 0.30734 0.52897 0.58876 0.0
H1351 H 0.32149 0.49654 0.52215 0.0
H1352 H 0.26975 0.49027 0.50868 0.0
H1353 H 0.21672 0.47837 0.59087 0.0
H1354 H 0.21496 0.51135 0.60458 0.0
H1355 H 0.24906 0.50607 0.60939 0.0
H1356 H 0.28631 0.56549 0.5961 0.0
H1357 H 0.25178 0.56965 0.59055 0.0
H1358 H 0.28054 0.57741 0.56786 0.0
H1359 H 0.22344 0.49894 0.50013 0.0
H1360 H 0.18553 0.51979 0.49798 0.0
H1361 H 0.1994 0.54268 0.57074 0.0
C1362 C 0.29913 0.51964 0.57155 0.0
C1363 C 0.31833 0.51318 0.55651 0.0
C1364 C 0.30701 0.50147 0.53401 0.0
C1365 C 0.2776 0.49772 0.52624 0.0
C1366 C 0.25966 0.50528 0.54132 0.0
C1367 C 0.26989 0.51567 0.56361 0.0
C1368 C 0.24849 0.52593 0.57558 0.0
C1369 C 0.23123 0.50406 0.59631 0.0
C1370 C 0.26794 0.56172 0.58293 0.0
C1371 C 0.22518 0.5208 0.55631 0.0
C1372 C 0.23185 0.50873 0.53667 0.0
C1373 C 0.21709 0.50718 0.51559 0.0
C1374 C 0.19568 0.51905 0.51447 0.0
C1375 C 0.18885 0.53152 0.53439 0.0
C1376 C 0.20314 0.53167 0.55559 0.0
H1377 H 0.24537 0.16733 0.0428 0.0
H1378 H 0.2894 0.11816 0.00931 0.0
H1379 H 0.29729 0.14976 0.97418 0.0
H1380 H 0.19683 0.15715 0.00399 0.0
H1381 H 0.1971 0.19491 0.0046 0.0
H1382 H 0.20884 0.18186 0.02966 0.0
H1383 H 0.26406 0.23496 0.03039 0.0
H1384 H 0.25224 0.24871 0.00533 0.0
H1385 H 0.28929 0.24767 0.00504 0.0
H1386 H 0.28108 0.16784 0.94049 0.0
H1387 H 0.24567 0.17332 0.91254 0.0
H1388 H 0.21162 0.21172 0.96645 0.0
C1389 C 0.25855 0.16477 0.02855 0.0
C1390 C 0.26652 0.14019 0.02866 0.0
C1391 C 0.28301 0.13685 0.00956 0.0
C1392 C 0.28773 0.15488 0.98952 0.0
C1393 C 0.27615 0.17636 0.98894 0.0
C1394 C 0.26265 0.18211 0.00826 0.0
C1395 C 0.24536 0.20017 0.00198 0.0
C1396 C 0.20998 0.18242 0.01053 0.0
C1397 C 0.26386 0.23495 0.01123 0.0
C1398 C 0.24748 0.19972 0.97597 0.0
C1399 C 0.26657 0.18725 0.96879 0.0
C1400 C 0.26713 0.1788 0.94581 0.0
C1401 C 0.24667 0.18172 0.93004 0.0
C1402 C 0.22577 0.19281 0.93737 0.0
C1403 C 0.22768 0.20361 0.96028 0.0
H1404 H 0.84364 0.06406 0.95472 0.0
H1405 H 0.76577 0.9812 0.98951 0.0
H1406 H 0.78262 0.0108 0.02646 0.0
H1407 H 0.89999 0.0787 0.99381 0.0
H1408 H 0.92156 0.12222 0.99247 0.0
H1409 H 0.89893 0.099 0.96797 0.0
H1410 H 0.86587 0.12798 0.96751 0.0
H1411 H 0.88883 0.15218 0.99179 0.0
H1412 H 0.84538 0.12908 0.99329 0.0
H1413 H 0.81312 0.04472 0.05985 0.0
H1414 H 0.85572 0.07925 0.08734 0.0
H1415 H 0.91472 0.13953 0.0308 0.0
C1416 C 0.82925 0.05258 0.96993 0.0
C1417 C 0.80316 0.02046 0.96923 0.0
C1418 C 0.7857 0.00589 0.98965 0.0
C1419 C 0.79497 0.02259 0.01068 0.0
C1420 C 0.82163 0.05381 0.0109 0.0
C1421 C 0.83843 0.06875 0.99101 0.0
C1422 C 0.86904 0.10023 0.99626 0.0
C1423 C 0.89912 0.09997 0.98711 0.0
C1424 C 0.86715 0.12908 0.98665 0.0
C1425 C 0.86782 0.09972 0.0223 0.0
C1426 C 0.83986 0.07325 0.03039 0.0
C1427 C 0.83478 0.0659 0.05377 0.0
C1428 C 0.85925 0.08562 0.06924 0.0
C1429 C 0.88864 0.11213 0.06122 0.0
C1430 C 0.89241 0.11975 0.03752 0.0
H1431 H 0.9606 0.76782 0.9441 0.0
H1432 H 0.88966 0.76635 0.89705 0.0
H1433 H 0.85165 0.7531 0.92928 0.0
H1434 H 0.9006 0.70609 0.98801 0.0
H1435 H 0.92689 0.72981 0.01123 0.0
H1436 H 0.94375 0.72776 0.98387 0.0
H1437 H 0.97479 0.7903 0.98177 0.0
H1438 H 0.95762 0.79269 0.00864 0.0
H1439 H 0.95258 0.8114 0.98331 0.0
H1440 H 0.82814 0.75583 0.96698 0.0
H1441 H 0.8203 0.7707 0.00628 0.0
H1442 H 0.90669 0.77091 0.02872 0.0
C1443 C 0.9365 0.76308 0.94033 0.0
C1444 C 0.92829 0.76834 0.91806 0.0
C1445 C 0.89661 0.7624 0.91395 0.0
C1446 C 0.87474 0.75481 0.9322 0.0
C1447 C 0.88471 0.75271 0.95436 0.0
C1448 C 0.91465 0.75595 0.9584 0.0
C1449 C 0.92207 0.75846 0.98389 0.0
C1450 C 0.92339 0.72875 0.99224 0.0
C1451 C 0.95358 0.79007 0.98971 0.0
C1452 C 0.8928 0.75859 0.99344 0.0
C1453 C 0.87107 0.75442 0.97629 0.0
C1454 C 0.84442 0.75804 0.98068 0.0
C1455 C 0.84023 0.76665 0.00304 0.0
C1456 C 0.86287 0.77197 0.0206 0.0
C1457 C 0.88878 0.7668 0.01576 0.0
H1458 H 0.80553 0.58983 0.28655 0.0
H1459 H 0.86007 0.57239 0.23459 0.0
H1460 H 0.8959 0.57215 0.2646 0.0
H1461 H 0.87602 0.63187 0.33235 0.0
H1462 H 0.84694 0.61111 0.35493 0.0
H1463 H 0.83559 0.62499 0.32971 0.0
H1464 H 0.78792 0.56725 0.32353 0.0
H1465 H 0.79941 0.55243 0.34781 0.0
H1466 H 0.7956 0.5343 0.31985 0.0
H1467 H 0.9113 0.55336 0.29856 0.0
H1468 H 0.90919 0.52387 0.33379 0.0
H1469 H 0.84377 0.5508 0.36493 0.0
C1470 C 0.82607 0.58773 0.28138 0.0
C1471 C 0.82955 0.58039 0.25833 0.0
C1472 C 0.85674 0.5778 0.25219 0.0
C1473 C 0.87731 0.57766 0.26919 0.0
C1474 C 0.87064 0.58061 0.29219 0.0
C1475 C 0.84619 0.58659 0.29833 0.0
C1476 C 0.83938 0.58188 0.32402 0.0
C1477 C 0.85014 0.6144 0.33596 0.0
C1478 C 0.80349 0.55749 0.32905 0.0
C1479 C 0.86097 0.56867 0.33076 0.0
C1480 C 0.87973 0.56933 0.31237 0.0
C1481 C 0.89772 0.55384 0.31333 0.0
C1482 C 0.89606 0.5368 0.33334 0.0
C1483 C 0.87639 0.53517 0.35211 0.0
C1484 C 0.85955 0.55225 0.35102 0.0
H1485 H 0.43022 0.29019 0.27668 0.0
H1486 H 0.36938 0.1967 0.30838 0.0
H1487 H 0.36784 0.22363 0.34408 0.0
H1488 H 0.47985 0.32158 0.31845 0.0
H1489 H 0.48748 0.36244 0.31738 0.0
H1490 H 0.47411 0.33777 0.29201 0.0
H1491 H 0.42522 0.34641 0.28829 0.0
H1492 H 0.43882 0.37196 0.31352 0.0
H1493 H 0.39833 0.33779 0.31243 0.0
H1494 H 0.3876 0.2581 0.37868 0.0
H1495 H 0.42294 0.29744 0.40793 0.0
H1496 H 0.46987 0.36954 0.35451 0.0
C1497 C 0.41497 0.27534 0.29063 0.0
C1498 C 0.40011 0.24129 0.2897 0.0
C1499 C 0.38098 0.2228 0.30858 0.0
C1500 C 0.37995 0.23796 0.32902 0.0
C1501 C 0.39761 0.27161 0.33017 0.0
C1502 C 0.41407 0.29018 0.31121 0.0
C1503 C 0.43596 0.32527 0.31792 0.0
C1504 C 0.4714 0.33741 0.31105 0.0
C1505 C 0.42384 0.34662 0.30742 0.0
C1506 C 0.43151 0.32296 0.34383 0.0
C1507 C 0.40868 0.29201 0.35054 0.0
C1508 C 0.40456 0.2827 0.37365 0.0
C1509 C 0.42489 0.30517 0.39018 0.0
C1510 C 0.44903 0.33664 0.38353 0.0
C1511 C 0.4512 0.34593 0.36021 0.0
H1512 H 0.71037 0.14434 0.39388 0.0
H1513 H 0.62116 0.06315 0.36872 0.0
H1514 H 0.64868 0.0627 0.33308 0.0
H1515 H 0.72792 0.18694 0.34902 0.0
H1516 H 0.77119 0.20464 0.34844 0.0
H1517 H 0.74994 0.19055 0.37511 0.0
H1518 H 0.77384 0.1532 0.38096 0.0
H1519 H 0.79568 0.16757 0.35418 0.0
H1520 H 0.76932 0.12486 0.35872 0.0
H1521 H 0.67769 0.08245 0.29688 0.0
H1522 H 0.70565 0.11933 0.26461 0.0
H1523 H 0.77787 0.18755 0.31186 0.0
C1524 C 0.69712 0.12529 0.38144 0.0
C1525 C 0.66361 0.10393 0.38404 0.0
C1526 C 0.64687 0.07981 0.36714 0.0
C1527 C 0.66242 0.07926 0.34683 0.0
C1528 C 0.6948 0.1027 0.34377 0.0
C1529 C 0.71227 0.12487 0.36091 0.0
C1530 C 0.74428 0.15165 0.35178 0.0
C1531 C 0.7485 0.18537 0.35634 0.0
C1532 C 0.77245 0.14915 0.36202 0.0
C1533 C 0.74029 0.14328 0.32637 0.0
C1534 C 0.71224 0.11423 0.32221 0.0
C1535 C 0.70029 0.10457 0.29992 0.0
C1536 C 0.71625 0.1258 0.28165 0.0
C1537 C 0.74384 0.15641 0.28578 0.0
C1538 C 0.7571 0.16415 0.30816 0.0
H1539 H 0.54068 0.89829 0.63093 0.0
H1540 H 0.47832 0.93508 0.6517 0.0
H1541 H 0.50226 0.94636 0.69038 0.0
H1542 H 0.52682 0.85218 0.67288 0.0
H1543 H 0.56624 0.85718 0.67755 0.0
H1544 H 0.55617 0.86569 0.64988 0.0
H1545 H 0.60566 0.9237 0.65139 0.0
H1546 H 0.61611 0.91518 0.67931 0.0
H1547 H 0.61089 0.9496 0.67558 0.0
H1548 H 0.51573 0.93431 0.72799 0.0
H1549 H 0.51803 0.9015 0.75956 0.0
H1550 H 0.57319 0.87312 0.71603 0.0
C1551 C 0.53323 0.9102 0.64332 0.0
C1552 C 0.50735 0.91532 0.63843 0.0
C1553 C 0.49809 0.93083 0.65502 0.0
C1554 C 0.51176 0.93753 0.67709 0.0
C1555 C 0.53502 0.92913 0.68215 0.0
C1556 C 0.54636 0.91654 0.66548 0.0
C1557 C 0.56574 0.90287 0.6761 0.0
C1558 C 0.55292 0.86742 0.66869 0.0
C1559 C 0.60174 0.92412 0.67025 0.0
C1560 C 0.55971 0.90563 0.70139 0.0
C1561 C 0.54331 0.92226 0.7046 0.0
C1562 C 0.52958 0.92231 0.72583 0.0
C1563 C 0.53081 0.90337 0.7437 0.0
C1564 C 0.54546 0.88441 0.74013 0.0
C1565 C 0.56204 0.88754 0.7193 0.0
H1566 H 0.12772 0.63416 0.58599 0.0
H1567 H 0.06814 0.53629 0.61146 0.0
H1568 H 0.06242 0.55793 0.64865 0.0
H1569 H 0.17302 0.66281 0.63241 0.0
H1570 H 0.17794 0.70266 0.63243 0.0
H1571 H 0.16975 0.68056 0.60592 0.0
H1572 H 0.11937 0.68587 0.59888 0.0
H1573 H 0.12763 0.70874 0.62525 0.0
H1574 H 0.08871 0.67313 0.62087 0.0
H1575 H 0.0732 0.58934 0.685 0.0
H1576 H 0.09856 0.62775 0.71712 0.0
H1577 H 0.15183 0.70507 0.66797 0.0
C1578 C 0.11226 0.61716 0.59898 0.0
C1579 C 0.09831 0.5835 0.59574 0.0
C1580 C 0.07894 0.56218 0.61345 0.0
C1581 C 0.07546 0.57427 0.63464 0.0
C1582 C 0.09121 0.60766 0.63773 0.0
C1583 C 0.10888 0.62883 0.62023 0.0
C1584 C 0.12766 0.66332 0.62883 0.0
C1585 C 0.16422 0.67816 0.62466 0.0
C1586 C 0.11507 0.68398 0.61781 0.0
C1587 C 0.1194 0.65803 0.65418 0.0
C1588 C 0.09775 0.62591 0.65892 0.0
C1589 C 0.08947 0.61467 0.68145 0.0
C1590 C 0.10418 0.63668 0.6996 0.0
C1591 C 0.12715 0.66949 0.69508 0.0
C1592 C 0.134 0.6803 0.67204 0.0
H1593 H 0.40903 0.47477 0.65377 0.0
H1594 H 0.33744 0.44213 0.59941 0.0
H1595 H 0.29503 0.40975 0.62747 0.0
H1596 H 0.3601 0.40012 0.69577 0.0
H1597 H 0.37462 0.42785 0.71976 0.0
H1598 H 0.40035 0.43471 0.69514 0.0
H1599 H 0.4085 0.49234 0.69086 0.0
H1600 H 0.38288 0.48534 0.71515 0.0
H1601 H 0.37342 0.49672 0.68798 0.0
H1602 H 0.26031 0.40001 0.66074 0.0
H1603 H 0.23735 0.41047 0.69537 0.0
H1604 H 0.33033 0.45133 0.72933 0.0
C1605 C 0.38466 0.45937 0.64757 0.0
C1606 C 0.37648 0.46154 0.62455 0.0
C1607 C 0.34437 0.44108 0.61701 0.0
C1608 C 0.32001 0.42247 0.63291 0.0
C1609 C 0.32824 0.42429 0.65615 0.0
C1610 C 0.36008 0.44158 0.66343 0.0
C1611 C 0.36226 0.44628 0.68935 0.0
C1612 C 0.37508 0.42602 0.70067 0.0
C1613 C 0.38294 0.48228 0.69617 0.0
C1614 C 0.32702 0.43289 0.69504 0.0
C1615 C 0.30762 0.41888 0.67592 0.0
C1616 C 0.27504 0.4098 0.67602 0.0
C1617 C 0.26225 0.41615 0.69575 0.0
C1618 C 0.28218 0.43199 0.715 0.0
C1619 C 0.3145 0.43905 0.71491 0.0
loop_
_geom_bond_atom_site_label_1
_geom_bond_atom_site_label_2
_geom_bond_distance
_geom_bond_site_symmetry_2
_ccdc_geom_bond_type
Mn0 O5 2.095 . S
Mn0 O15 2.162 . S
Mn0 O16 2.297 . S
Mn0 O24 2.385 . S
Mn0 O25 2.209 . S
Mn0 O26 2.094 . S
Mn1 O6 2.121 . S
Mn1 N8 2.257 . S
Mn1 N17 2.282 . S
Mn1 O25 2.215 . S
Mn1 O27 2.117 . S
C2 O24 1.234 . S
C2 O25 1.283 . S
C3 O15 1.281 . S
C3 O16 1.236 . S
C4 O26 1.240 . S
C4 O27 1.264 . S
O5 Mn0 2.095 . S
O5 C14 1.250 . S
O6 Mn1 2.121 . S
O6 C14 1.258 . S
C7 N8 1.326 . S
C7 C11 1.460 . S
C7 H13 0.929 . S
N8 Mn1 2.257 . S
N8 C7 1.326 . S
N8 C12 1.362 . S
C9 C10 1.258 . S
C9 C12 1.431 . S
C9 C29 1.449 . S
C10 C9 1.258 . S
C10 C11 1.477 . S
C10 H30 0.931 . S
C11 C7 1.460 . S
C11 C10 1.477 . S
C11 H31 0.930 . S
C12 N8 1.362 . S
C12 C9 1.431 . S
C12 C22 1.476 . S
H13 C7 0.929 . S
C14 O5 1.250 . S
C14 O6 1.258 . S
O15 Mn0 2.162 . S
O15 C3 1.281 . S
O16 Mn0 2.297 . S
O16 C3 1.236 . S
N17 Mn1 2.282 . S
N17 C18 1.328 . S
N17 C22 1.318 . S
C18 N17 1.328 . S
C18 C19 1.457 . S
C18 H23 0.929 . S
C19 C18 1.457 . S
C19 C20 1.291 . S
C19 H32 0.931 . S
C20 C19 1.291 . S
C20 C21 1.373 . S
C20 H33 0.929 . S
C21 C20 1.373 . S
C21 C22 1.396 . S
C21 C28 1.403 . S
C22 C12 1.476 . S
C22 N17 1.318 . S
C22 C21 1.396 . S
H23 C18 0.929 . S
O24 Mn0 2.385 . S
O24 C2 1.234 . S
O25 Mn0 2.209 . S
O25 Mn1 2.215 . S
O25 C2 1.283 . S
O26 Mn0 2.094 . S
O26 C4 1.240 . S
O27 Mn1 2.117 . S
O27 C4 1.264 . S
C28 C21 1.403 . S
C28 C29 1.399 . S
C28 H34 0.929 . S
C29 C9 1.449 . S
C29 C28 1.399 . S
C29 H35 0.930 . S
H30 C10 0.931 . S
H31 C11 0.930 . S
H32 C19 0.931 . S
H33 C20 0.929 . S
H34 C28 0.929 . S
H35 C29 0.930 . S
Mn36 O41 2.095 . S
Mn36 O51 2.162 . S
Mn36 O52 2.297 . S
Mn36 O60 2.385 1_565 S
Mn36 O61 2.209 1_565 S
Mn36 O62 2.094 1_565 S
Mn37 O42 2.121 . S
Mn37 N44 2.257 . S
Mn37 N53 2.282 . S
Mn37 O61 2.215 . S
Mn37 O63 2.117 . S
C38 O60 1.234 . S
C38 O61 1.283 . S
C39 O51 1.281 . S
C39 O52 1.236 . S
C40 O62 1.240 . S
C40 O63 1.264 . S
O41 Mn36 2.095 . S
O41 C50 1.255 . S
O42 Mn37 2.121 . S
O42 C50 1.248 1_545 S
C43 N44 1.326 . S
C43 C47 1.460 . S
C43 H49 0.929 . S
N44 Mn37 2.257 . S
N44 C43 1.326 . S
N44 C48 1.362 . S
C45 C46 1.258 . S
C45 C48 1.431 . S
C45 C65 1.449 . S
C46 C45 1.258 . S
C46 C47 1.477 . S
C46 H66 0.931 . S
C47 C43 1.460 . S
C47 C46 1.477 . S
C47 H67 0.930 . S
C48 N44 1.362 . S
C48 C45 1.431 . S
C48 C58 1.476 . S
H49 C43 0.929 . S
C50 O41 1.255 . S
C50 O42 1.248 1_565 S
O51 Mn36 2.162 . S
O51 C39 1.281 . S
O52 Mn36 2.297 . S
O52 C39 1.236 . S
N53 Mn37 2.282 . S
N53 C54 1.328 . S
N53 C58 1.318 . S
C54 N53 1.328 . S
C54 C55 1.457 . S
C54 H59 0.929 . S
C55 C54 1.457 . S
C55 C56 1.291 . S
C55 H68 0.931 . S
C56 C55 1.291 . S
C56 C57 1.373 . S
C56 H69 0.929 . S
C57 C56 1.373 . S
C57 C58 1.396 . S
C57 C64 1.403 . S
C58 C48 1.476 . S
C58 N53 1.318 . S
C58 C57 1.396 . S
H59 C54 0.929 . S
O60 Mn36 2.385 1_545 S
O60 C38 1.234 . S
O61 Mn36 2.209 1_545 S
O61 Mn37 2.215 . S
O61 C38 1.283 . S
O62 Mn36 2.094 1_545 S
O62 C40 1.240 . S
O63 Mn37 2.117 . S
O63 C40 1.264 . S
C64 C57 1.403 . S
C64 C65 1.399 . S
C64 H70 0.929 . S
C65 C45 1.449 . S
C65 C64 1.399 . S
C65 H71 0.930 . S
H66 C46 0.931 . S
H67 C47 0.930 . S
H68 C55 0.931 . S
H69 C56 0.929 . S
H70 C64 0.929 . S
H71 C65 0.930 . S
Mn72 O77 2.095 . S
Mn72 O87 2.162 . S
Mn72 O88 2.297 . S
Mn72 O96 2.385 1_455 S
Mn72 O97 2.209 1_455 S
Mn72 O98 2.094 1_455 S
Mn73 O78 2.121 . S
Mn73 N80 2.257 . S
Mn73 N89 2.282 . S
Mn73 O97 2.215 . S
Mn73 O99 2.117 . S
C74 O96 1.234 . S
C74 O97 1.283 . S
C75 O87 1.281 . S
C75 O88 1.236 . S
C76 O98 1.240 . S
C76 O99 1.264 . S
O77 Mn72 2.095 . S
O77 C86 1.256 . S
O78 Mn73 2.121 . S
O78 C86 1.245 1_655 S
C79 N80 1.326 . S
C79 C83 1.460 . S
C79 H85 0.929 . S
N80 Mn73 2.257 . S
N80 C79 1.326 . S
N80 C84 1.362 . S
C81 C82 1.258 . S
C81 C84 1.431 . S
C81 C101 1.449 . S
C82 C81 1.258 . S
C82 C83 1.477 . S
C82 H102 0.931 . S
C83 C79 1.460 . S
C83 C82 1.477 . S
C83 H103 0.930 . S
C84 N80 1.362 . S
C84 C81 1.431 . S
C84 C94 1.476 . S
H85 C79 0.929 . S
C86 O77 1.256 . S
C86 O78 1.245 1_455 S
O87 Mn72 2.162 . S
O87 C75 1.281 . S
O88 Mn72 2.297 . S
O88 C75 1.236 . S
N89 Mn73 2.282 . S
N89 C90 1.328 . S
N89 C94 1.318 . S
C90 N89 1.328 . S
C90 C91 1.457 . S
C90 H95 0.929 . S
C91 C90 1.457 . S
C91 C92 1.291 . S
C91 H104 0.931 . S
C92 C91 1.291 . S
C92 C93 1.373 . S
C92 H105 0.929 . S
C93 C92 1.373 . S
C93 C94 1.396 . S
C93 C100 1.403 . S
C94 C84 1.476 . S
C94 N89 1.318 . S
C94 C93 1.396 . S
H95 C90 0.929 . S
O96 Mn72 2.385 1_655 S
O96 C74 1.234 . S
O97 Mn72 2.209 1_655 S
O97 Mn73 2.215 . S
O97 C74 1.283 . S
O98 Mn72 2.094 1_655 S
O98 C76 1.240 . S
O99 Mn73 2.117 . S
O99 C76 1.264 . S
C100 C93 1.403 . S
C100 C101 1.399 . S
C100 H106 0.929 . S
C101 C81 1.449 . S
C101 C100 1.399 . S
C101 H107 0.930 . S
H102 C82 0.931 . S
H103 C83 0.930 . S
H104 C91 0.931 . S
H105 C92 0.929 . S
H106 C100 0.929 . S
H107 C101 0.930 . S
Mn108 O113 2.095 . S
Mn108 O123 2.162 . S
Mn108 O124 2.297 . S
Mn108 O132 2.385 . S
Mn108 O133 2.209 . S
Mn108 O134 2.094 . S
Mn109 O114 2.121 . S
Mn109 N116 2.257 . S
Mn109 N125 2.282 . S
Mn109 O133 2.215 . S
Mn109 O135 2.117 . S
C110 O132 1.234 . S
C110 O133 1.283 . S
C111 O123 1.281 . S
C111 O124 1.236 . S
C112 O134 1.240 . S
C112 O135 1.264 . S
O113 Mn108 2.095 . S
O113 C122 1.250 . S
O114 Mn109 2.121 . S
O114 C122 1.258 . S
C115 N116 1.326 . S
C115 C119 1.460 . S
C115 H121 0.929 . S
N116 Mn109 2.257 . S
N116 C115 1.326 . S
N116 C120 1.362 . S
C117 C118 1.258 . S
C117 C120 1.431 . S
C117 C137 1.449 . S
C118 C117 1.258 . S
C118 C119 1.477 . S
C118 H138 0.931 . S
C119 C115 1.460 . S
C119 C118 1.477 . S
C119 H139 0.930 . S
C120 N116 1.362 . S
C120 C117 1.431 . S
C120 C130 1.476 . S
H121 C115 0.929 . S
C122 O113 1.250 . S
C122 O114 1.258 . S
O123 Mn108 2.162 . S
O123 C111 1.281 . S
O124 Mn108 2.297 . S
O124 C111 1.236 . S
N125 Mn109 2.282 . S
N125 C126 1.328 . S
N125 C130 1.318 . S
C126 N125 1.328 . S
C126 C127 1.457 . S
C126 H131 0.929 . S
C127 C126 1.457 . S
C127 C128 1.291 . S
C127 H140 0.931 . S
C128 C127 1.291 . S
C128 C129 1.373 . S
C128 H141 0.929 . S
C129 C128 1.373 . S
C129 C130 1.396 . S
C129 C136 1.403 . S
C130 C120 1.476 . S
C130 N125 1.318 . S
C130 C129 1.396 . S
H131 C126 0.929 . S
O132 Mn108 2.385 . S
O132 C110 1.234 . S
O133 Mn108 2.209 . S
O133 Mn109 2.215 . S
O133 C110 1.283 . S
O134 Mn108 2.094 . S
O134 C112 1.240 . S
O135 Mn109 2.117 . S
O135 C112 1.264 . S
C136 C129 1.403 . S
C136 C137 1.399 . S
C136 H142 0.929 . S
C137 C117 1.449 . S
C137 C136 1.399 . S
C137 H143 0.930 . S
H138 C118 0.931 . S
H139 C119 0.930 . S
H140 C127 0.931 . S
H141 C128 0.929 . S
H142 C136 0.929 . S
H143 C137 0.930 . S
Mn144 O149 2.095 . S
Mn144 O159 2.162 . S
Mn144 O160 2.297 . S
Mn144 O168 2.385 1_545 S
Mn144 O169 2.209 1_545 S
Mn144 O170 2.094 1_545 S
Mn145 O150 2.121 . S
Mn145 N152 2.257 . S
Mn145 N161 2.282 . S
Mn145 O169 2.215 . S
Mn145 O171 2.117 . S
C146 O168 1.234 . S
C146 O169 1.283 . S
C147 O159 1.281 . S
C147 O160 1.236 . S
C148 O170 1.240 . S
C148 O171 1.264 . S
O149 Mn144 2.095 . S
O149 C158 1.256 . S
O150 Mn145 2.121 . S
O150 C158 1.245 1_565 S
C151 N152 1.326 . S
C151 C155 1.460 . S
C151 H157 0.929 . S
N152 Mn145 2.257 . S
N152 C151 1.326 . S
N152 C156 1.362 . S
C153 C154 1.258 . S
C153 C156 1.431 . S
C153 C173 1.449 . S
C154 C153 1.258 . S
C154 C155 1.477 . S
C154 H174 0.931 . S
C155 C151 1.460 . S
C155 C154 1.477 . S
C155 H175 0.930 . S
C156 N152 1.362 . S
C156 C153 1.431 . S
C156 C166 1.476 . S
H157 C151 0.929 . S
C158 O149 1.256 . S
C158 O150 1.245 1_545 S
O159 Mn144 2.162 . S
O159 C147 1.281 . S
O160 Mn144 2.297 . S
O160 C147 1.236 . S
N161 Mn145 2.282 . S
N161 C162 1.328 . S
N161 C166 1.318 . S
C162 N161 1.328 . S
C162 C163 1.457 . S
C162 H167 0.929 . S
C163 C162 1.457 . S
C163 C164 1.291 . S
C163 H176 0.931 . S
C164 C163 1.291 . S
C164 C165 1.373 . S
C164 H177 0.929 . S
C165 C164 1.373 . S
C165 C166 1.396 . S
C165 C172 1.403 . S
C166 C156 1.476 . S
C166 N161 1.318 . S
C166 C165 1.396 . S
H167 C162 0.929 . S
O168 Mn144 2.385 1_565 S
O168 C146 1.234 . S
O169 Mn144 2.209 1_565 S
O169 Mn145 2.215 . S
O169 C146 1.283 . S
O170 Mn144 2.094 1_565 S
O170 C148 1.240 . S
O171 Mn145 2.117 . S
O171 C148 1.264 . S
C172 C165 1.403 . S
C172 C173 1.399 . S
C172 H178 0.929 . S
C173 C153 1.449 . S
C173 C172 1.399 . S
C173 H179 0.930 . S
H174 C154 0.931 . S
H175 C155 0.930 . S
H176 C163 0.931 . S
H177 C164 0.929 . S
H178 C172 0.929 . S
H179 C173 0.930 . S
Mn180 O185 2.095 . S
Mn180 O195 2.162 . S
Mn180 O196 2.297 . S
Mn180 O204 2.385 1_655 S
Mn180 O205 2.209 1_655 S
Mn180 O206 2.094 1_655 S
Mn181 O186 2.121 . S
Mn181 N188 2.257 . S
Mn181 N197 2.282 . S
Mn181 O205 2.215 . S
Mn181 O207 2.117 . S
C182 O204 1.234 . S
C182 O205 1.283 . S
C183 O195 1.281 . S
C183 O196 1.236 . S
C184 O206 1.240 . S
C184 O207 1.264 . S
O185 Mn180 2.095 . S
O185 C194 1.255 . S
O186 Mn181 2.121 . S
O186 C194 1.248 1_455 S
C187 N188 1.326 . S
C187 C191 1.460 . S
C187 H193 0.929 . S
N188 Mn181 2.257 . S
N188 C187 1.326 . S
N188 C192 1.362 . S
C189 C190 1.258 . S
C189 C192 1.431 . S
C189 C209 1.449 . S
C190 C189 1.258 . S
C190 C191 1.477 . S
C190 H210 0.931 . S
C191 C187 1.460 . S
C191 C190 1.477 . S
C191 H211 0.930 . S
C192 N188 1.362 . S
C192 C189 1.431 . S
C192 C202 1.476 . S
H193 C187 0.929 . S
C194 O185 1.255 . S
C194 O186 1.248 1_655 S
O195 Mn180 2.162 . S
O195 C183 1.281 . S
O196 Mn180 2.297 . S
O196 C183 1.236 . S
N197 Mn181 2.282 . S
N197 C198 1.328 . S
N197 C202 1.318 . S
C198 N197 1.328 . S
C198 C199 1.457 . S
C198 H203 0.929 . S
C199 C198 1.457 . S
C199 C200 1.291 . S
C199 H212 0.931 . S
C200 C199 1.291 . S
C200 C201 1.373 . S
C200 H213 0.929 . S
C201 C200 1.373 . S
C201 C202 1.396 . S
C201 C208 1.403 . S
C202 C192 1.476 . S
C202 N197 1.318 . S
C202 C201 1.396 . S
H203 C198 0.929 . S
O204 Mn180 2.385 1_455 S
O204 C182 1.234 . S
O205 Mn180 2.209 1_455 S
O205 Mn181 2.215 . S
O205 C182 1.283 . S
O206 Mn180 2.094 1_455 S
O206 C184 1.240 . S
O207 Mn181 2.117 . S
O207 C184 1.264 . S
C208 C201 1.403 . S
C208 C209 1.399 . S
C208 H214 0.929 . S
C209 C189 1.449 . S
C209 C208 1.399 . S
C209 H215 0.930 . S
H210 C190 0.931 . S
H211 C191 0.930 . S
H212 C199 0.931 . S
H213 C200 0.929 . S
H214 C208 0.929 . S
H215 C209 0.930 . S
Mn216 O221 2.095 . S
Mn216 O231 2.162 . S
Mn216 O232 2.297 . S
Mn216 O240 2.385 . S
Mn216 O241 2.209 . S
Mn216 O242 2.094 . S
Mn217 O222 2.121 . S
Mn217 N224 2.257 . S
Mn217 N233 2.282 . S
Mn217 O241 2.215 . S
Mn217 O243 2.117 . S
C218 O240 1.234 . S
C218 O241 1.283 . S
C219 O231 1.281 . S
C219 O232 1.236 . S
C220 O242 1.240 . S
C220 O243 1.264 . S
O221 Mn216 2.095 . S
O221 C230 1.250 . S
O222 Mn217 2.121 . S
O222 C230 1.258 . S
C223 N224 1.326 . S
C223 C227 1.460 . S
C223 H229 0.929 . S
N224 Mn217 2.257 . S
N224 C223 1.326 . S
N224 C228 1.362 . S
C225 C226 1.258 . S
C225 C228 1.431 . S
C225 C245 1.449 . S
C226 C225 1.258 . S
C226 C227 1.477 . S
C226 H246 0.931 . S
C227 C223 1.460 . S
C227 C226 1.477 . S
C227 H247 0.930 . S
C228 N224 1.362 . S
C228 C225 1.431 . S
C228 C238 1.476 . S
H229 C223 0.929 . S
C230 O221 1.250 . S
C230 O222 1.258 . S
O231 Mn216 2.162 . S
O231 C219 1.281 . S
O232 Mn216 2.297 . S
O232 C219 1.236 . S
N233 Mn217 2.282 . S
N233 C234 1.328 . S
N233 C238 1.318 . S
C234 N233 1.328 . S
C234 C235 1.457 . S
C234 H239 0.929 . S
C235 C234 1.457 . S
C235 C236 1.291 . S
C235 H248 0.931 . S
C236 C235 1.291 . S
C236 C237 1.373 . S
C236 H249 0.929 . S
C237 C236 1.373 . S
C237 C238 1.396 . S
C237 C244 1.403 . S
C238 C228 1.476 . S
C238 N233 1.318 . S
C238 C237 1.396 . S
H239 C234 0.929 . S
O240 Mn216 2.385 . S
O240 C218 1.234 . S
O241 Mn216 2.209 . S
O241 Mn217 2.215 . S
O241 C218 1.283 . S
O242 Mn216 2.094 . S
O242 C220 1.240 . S
O243 Mn217 2.117 . S
O243 C220 1.264 . S
C244 C237 1.403 . S
C244 C245 1.399 . S
C244 H250 0.929 . S
C245 C225 1.449 . S
C245 C244 1.399 . S
C245 H251 0.930 . S
H246 C226 0.931 . S
H247 C227 0.930 . S
H248 C235 0.931 . S
H249 C236 0.929 . S
H250 C244 0.929 . S
H251 C245 0.930 . S
Mn252 O257 2.095 . S
Mn252 O267 2.162 . S
Mn252 O268 2.297 . S
Mn252 O276 2.385 . S
Mn252 O277 2.209 . S
Mn252 O278 2.094 . S
Mn253 O258 2.121 . S
Mn253 N260 2.257 . S
Mn253 N269 2.282 . S
Mn253 O277 2.215 . S
Mn253 O279 2.117 . S
C254 O276 1.234 . S
C254 O277 1.283 . S
C255 O267 1.281 . S
C255 O268 1.236 . S
C256 O278 1.240 . S
C256 O279 1.264 . S
O257 Mn252 2.095 . S
O257 C266 1.250 . S
O258 Mn253 2.121 . S
O258 C266 1.258 . S
C259 N260 1.326 . S
C259 C263 1.460 . S
C259 H265 0.929 . S
N260 Mn253 2.257 . S
N260 C259 1.326 . S
N260 C264 1.362 . S
C261 C262 1.258 . S
C261 C264 1.431 . S
C261 C281 1.449 . S
C262 C261 1.258 . S
C262 C263 1.477 . S
C262 H282 0.931 . S
C263 C259 1.460 . S
C263 C262 1.477 . S
C263 H283 0.930 . S
C264 N260 1.362 . S
C264 C261 1.431 . S
C264 C274 1.476 . S
H265 C259 0.929 . S
C266 O257 1.250 . S
C266 O258 1.258 . S
O267 Mn252 2.162 . S
O267 C255 1.281 . S
O268 Mn252 2.297 . S
O268 C255 1.236 . S
N269 Mn253 2.282 . S
N269 C270 1.328 . S
N269 C274 1.318 . S
C270 N269 1.328 . S
C270 C271 1.457 . S
C270 H275 0.929 . S
C271 C270 1.457 . S
C271 C272 1.291 . S
C271 H284 0.931 . S
C272 C271 1.291 . S
C272 C273 1.373 . S
C272 H285 0.929 . S
C273 C272 1.373 . S
C273 C274 1.396 . S
C273 C280 1.403 . S
C274 C264 1.476 . S
C274 N269 1.318 . S
C274 C273 1.396 . S
H275 C270 0.929 . S
O276 Mn252 2.385 . S
O276 C254 1.234 . S
O277 Mn252 2.209 . S
O277 Mn253 2.215 . S
O277 C254 1.283 . S
O278 Mn252 2.094 . S
O278 C256 1.240 . S
O279 Mn253 2.117 . S
O279 C256 1.264 . S
C280 C273 1.403 . S
C280 C281 1.399 . S
C280 H286 0.929 . S
C281 C261 1.449 . S
C281 C280 1.399 . S
C281 H287 0.930 . S
H282 C262 0.931 . S
H283 C263 0.930 . S
H284 C271 0.931 . S
H285 C272 0.929 . S
H286 C280 0.929 . S
H287 C281 0.930 . S
Mn288 O293 2.095 . S
Mn288 O303 2.162 . S
Mn288 O304 2.297 . S
Mn288 O312 2.385 . S
Mn288 O313 2.209 . S
Mn288 O314 2.094 . S
Mn289 O294 2.121 . S
Mn289 N296 2.257 . S
Mn289 N305 2.282 . S
Mn289 O313 2.215 . S
Mn289 O315 2.117 . S
C290 O312 1.234 . S
C290 O313 1.283 . S
C291 O303 1.281 . S
C291 O304 1.236 . S
C292 O314 1.240 . S
C292 O315 1.264 . S
O293 Mn288 2.095 . S
O293 C302 1.250 . S
O294 Mn289 2.121 . S
O294 C302 1.258 . S
C295 N296 1.326 . S
C295 C299 1.460 . S
C295 H301 0.929 . S
N296 Mn289 2.257 . S
N296 C295 1.326 . S
N296 C300 1.362 . S
C297 C298 1.258 . S
C297 C300 1.431 . S
C297 C317 1.449 . S
C298 C297 1.258 . S
C298 C299 1.477 . S
C298 H318 0.931 . S
C299 C295 1.460 . S
C299 C298 1.477 . S
C299 H319 0.930 . S
C300 N296 1.362 . S
C300 C297 1.431 . S
C300 C310 1.476 . S
H301 C295 0.929 . S
C302 O293 1.250 . S
C302 O294 1.258 . S
O303 Mn288 2.162 . S
O303 C291 1.281 . S
O304 Mn288 2.297 . S
O304 C291 1.236 . S
N305 Mn289 2.282 . S
N305 C306 1.328 . S
N305 C310 1.318 . S
C306 N305 1.328 . S
C306 C307 1.457 . S
C306 H311 0.929 . S
C307 C306 1.457 . S
C307 C308 1.291 . S
C307 H320 0.931 . S
C308 C307 1.291 . S
C308 C309 1.373 . S
C308 H321 0.929 . S
C309 C308 1.373 . S
C309 C310 1.396 . S
C309 C316 1.403 . S
C310 C300 1.476 . S
C310 N305 1.318 . S
C310 C309 1.396 . S
H311 C306 0.929 . S
O312 Mn288 2.385 . S
O312 C290 1.234 . S
O313 Mn288 2.209 . S
O313 Mn289 2.215 . S
O313 C290 1.283 . S
O314 Mn288 2.094 . S
O314 C292 1.240 . S
O315 Mn289 2.117 . S
O315 C292 1.264 . S
C316 C309 1.403 . S
C316 C317 1.399 . S
C316 H322 0.929 . S
C317 C297 1.449 . S
C317 C316 1.399 . S
C317 H323 0.930 . S
H318 C298 0.931 . S
H319 C299 0.930 . S
H320 C307 0.931 . S
H321 C308 0.929 . S
H322 C316 0.929 . S
H323 C317 0.930 . S
Mn324 O329 2.095 . S
Mn324 O339 2.162 . S
Mn324 O340 2.297 . S
Mn324 O348 2.385 . S
Mn324 O349 2.209 . S
Mn324 O350 2.094 . S
Mn325 O330 2.121 . S
Mn325 N332 2.257 . S
Mn325 N341 2.282 . S
Mn325 O349 2.215 . S
Mn325 O351 2.117 . S
C326 O348 1.234 . S
C326 O349 1.283 . S
C327 O339 1.281 . S
C327 O340 1.236 . S
C328 O350 1.240 . S
C328 O351 1.264 . S
O329 Mn324 2.095 . S
O329 C338 1.250 . S
O330 Mn325 2.121 . S
O330 C338 1.258 . S
C331 N332 1.326 . S
C331 C335 1.460 . S
C331 H337 0.929 . S
N332 Mn325 2.257 . S
N332 C331 1.326 . S
N332 C336 1.362 . S
C333 C334 1.258 . S
C333 C336 1.431 . S
C333 C353 1.449 . S
C334 C333 1.258 . S
C334 C335 1.477 . S
C334 H354 0.931 . S
C335 C331 1.460 . S
C335 C334 1.477 . S
C335 H355 0.930 . S
C336 N332 1.362 . S
C336 C333 1.431 . S
C336 C346 1.476 . S
H337 C331 0.929 . S
C338 O329 1.250 . S
C338 O330 1.258 . S
O339 Mn324 2.162 . S
O339 C327 1.281 . S
O340 Mn324 2.297 . S
O340 C327 1.236 . S
N341 Mn325 2.282 . S
N341 C342 1.328 . S
N341 C346 1.318 . S
C342 N341 1.328 . S
C342 C343 1.457 . S
C342 H347 0.929 . S
C343 C342 1.457 . S
C343 C344 1.291 . S
C343 H356 0.931 . S
C344 C343 1.291 . S
C344 C345 1.373 . S
C344 H357 0.929 . S
C345 C344 1.373 . S
C345 C346 1.396 . S
C345 C352 1.403 . S
C346 C336 1.476 . S
C346 N341 1.318 . S
C346 C345 1.396 . S
H347 C342 0.929 . S
O348 Mn324 2.385 . S
O348 C326 1.234 . S
O349 Mn324 2.209 . S
O349 Mn325 2.215 . S
O349 C326 1.283 . S
O350 Mn324 2.094 . S
O350 C328 1.240 . S
O351 Mn325 2.117 . S
O351 C328 1.264 . S
C352 C345 1.403 . S
C352 C353 1.399 . S
C352 H358 0.929 . S
C353 C333 1.449 . S
C353 C352 1.399 . S
C353 H359 0.930 . S
H354 C334 0.931 . S
H355 C335 0.930 . S
H356 C343 0.931 . S
H357 C344 0.929 . S
H358 C352 0.929 . S
H359 C353 0.930 . S
Mn360 O365 2.095 . S
Mn360 O375 2.162 . S
Mn360 O376 2.297 . S
Mn360 O384 2.385 . S
Mn360 O385 2.209 . S
Mn360 O386 2.094 . S
Mn361 O366 2.121 . S
Mn361 N368 2.257 . S
Mn361 N377 2.282 . S
Mn361 O385 2.215 . S
Mn361 O387 2.117 . S
C362 O384 1.234 . S
C362 O385 1.283 . S
C363 O375 1.281 . S
C363 O376 1.236 . S
C364 O386 1.240 . S
C364 O387 1.264 . S
O365 Mn360 2.095 . S
O365 C374 1.250 . S
O366 Mn361 2.121 . S
O366 C374 1.258 . S
C367 N368 1.326 . S
C367 C371 1.460 . S
C367 H373 0.929 . S
N368 Mn361 2.257 . S
N368 C367 1.326 . S
N368 C372 1.362 . S
C369 C370 1.258 . S
C369 C372 1.431 . S
C369 C389 1.449 . S
C370 C369 1.258 . S
C370 C371 1.477 . S
C370 H390 0.931 . S
C371 C367 1.460 . S
C371 C370 1.477 . S
C371 H391 0.930 . S
C372 N368 1.362 . S
C372 C369 1.431 . S
C372 C382 1.476 . S
H373 C367 0.929 . S
C374 O365 1.250 . S
C374 O366 1.258 . S
O375 Mn360 2.162 . S
O375 C363 1.281 . S
O376 Mn360 2.297 . S
O376 C363 1.236 . S
N377 Mn361 2.282 . S
N377 C378 1.328 . S
N377 C382 1.318 . S
C378 N377 1.328 . S
C378 C379 1.457 . S
C378 H383 0.929 . S
C379 C378 1.457 . S
C379 C380 1.291 . S
C379 H392 0.931 . S
C380 C379 1.291 . S
C380 C381 1.373 . S
C380 H393 0.929 . S
C381 C380 1.373 . S
C381 C382 1.396 . S
C381 C388 1.403 . S
C382 C372 1.476 . S
C382 N377 1.318 . S
C382 C381 1.396 . S
H383 C378 0.929 . S
O384 Mn360 2.385 . S
O384 C362 1.234 . S
O385 Mn360 2.209 . S
O385 Mn361 2.215 . S
O385 C362 1.283 . S
O386 Mn360 2.094 . S
O386 C364 1.240 . S
O387 Mn361 2.117 . S
O387 C364 1.264 . S
C388 C381 1.403 . S
C388 C389 1.399 . S
C388 H394 0.929 . S
C389 C369 1.449 . S
C389 C388 1.399 . S
C389 H395 0.930 . S
H390 C370 0.931 . S
H391 C371 0.930 . S
H392 C379 0.931 . S
H393 C380 0.929 . S
H394 C388 0.929 . S
H395 C389 0.930 . S
Mn396 O401 2.095 . S
Mn396 O411 2.162 . S
Mn396 O412 2.297 . S
Mn396 O420 2.385 . S
Mn396 O421 2.209 . S
Mn396 O422 2.094 . S
Mn397 O402 2.121 . S
Mn397 N404 2.257 . S
Mn397 N413 2.282 . S
Mn397 O421 2.215 . S
Mn397 O423 2.117 . S
C398 O420 1.234 . S
C398 O421 1.283 . S
C399 O411 1.281 . S
C399 O412 1.236 . S
C400 O422 1.240 . S
C400 O423 1.264 . S
O401 Mn396 2.095 . S
O401 C410 1.250 . S
O402 Mn397 2.121 . S
O402 C410 1.258 . S
C403 N404 1.326 . S
C403 C407 1.460 . S
C403 H409 0.929 . S
N404 Mn397 2.257 . S
N404 C403 1.326 . S
N404 C408 1.362 . S
C405 C406 1.258 . S
C405 C408 1.431 . S
C405 C425 1.449 . S
C406 C405 1.258 . S
C406 C407 1.477 . S
C406 H426 0.931 . S
C407 C403 1.460 . S
C407 C406 1.477 . S
C407 H427 0.930 . S
C408 N404 1.362 . S
C408 C405 1.431 . S
C408 C418 1.476 . S
H409 C403 0.929 . S
C410 O401 1.250 . S
C410 O402 1.258 . S
O411 Mn396 2.162 . S
O411 C399 1.281 . S
O412 Mn396 2.297 . S
O412 C399 1.236 . S
N413 Mn397 2.282 . S
N413 C414 1.328 . S
N413 C418 1.318 . S
C414 N413 1.328 . S
C414 C415 1.457 . S
C414 H419 0.929 . S
C415 C414 1.457 . S
C415 C416 1.291 . S
C415 H428 0.931 . S
C416 C415 1.291 . S
C416 C417 1.373 . S
C416 H429 0.929 . S
C417 C416 1.373 . S
C417 C418 1.396 . S
C417 C424 1.403 . S
C418 C408 1.476 . S
C418 N413 1.318 . S
C418 C417 1.396 . S
H419 C414 0.929 . S
O420 Mn396 2.385 . S
O420 C398 1.234 . S
O421 Mn396 2.209 . S
O421 Mn397 2.215 . S
O421 C398 1.283 . S
O422 Mn396 2.094 . S
O422 C400 1.240 . S
O423 Mn397 2.117 . S
O423 C400 1.264 . S
C424 C417 1.403 . S
C424 C425 1.399 . S
C424 H430 0.929 . S
C425 C405 1.449 . S
C425 C424 1.399 . S
C425 H431 0.930 . S
H426 C406 0.931 . S
H427 C407 0.930 . S
H428 C415 0.931 . S
H429 C416 0.929 . S
H430 C424 0.929 . S
H431 C425 0.930 . S
Mn432 O437 2.095 . S
Mn432 O447 2.162 . S
Mn432 O448 2.297 . S
Mn432 O456 2.385 . S
Mn432 O457 2.209 . S
Mn432 O458 2.094 . S
Mn433 O438 2.121 . S
Mn433 N440 2.257 . S
Mn433 N449 2.282 . S
Mn433 O457 2.215 . S
Mn433 O459 2.117 . S
C434 O456 1.234 . S
C434 O457 1.283 . S
C435 O447 1.281 . S
C435 O448 1.236 . S
C436 O458 1.240 . S
C436 O459 1.264 . S
O437 Mn432 2.095 . S
O437 C446 1.250 . S
O438 Mn433 2.121 . S
O438 C446 1.258 . S
C439 N440 1.326 . S
C439 C443 1.460 . S
C439 H445 0.929 . S
N440 Mn433 2.257 . S
N440 C439 1.326 . S
N440 C444 1.362 . S
C441 C442 1.258 . S
C441 C444 1.431 . S
C441 C461 1.449 . S
C442 C441 1.258 . S
C442 C443 1.477 . S
C442 H462 0.931 . S
C443 C439 1.460 . S
C443 C442 1.477 . S
C443 H463 0.930 . S
C444 N440 1.362 . S
C444 C441 1.431 . S
C444 C454 1.476 . S
H445 C439 0.929 . S
C446 O437 1.250 . S
C446 O438 1.258 . S
O447 Mn432 2.162 . S
O447 C435 1.281 . S
O448 Mn432 2.297 . S
O448 C435 1.236 . S
N449 Mn433 2.282 . S
N449 C450 1.328 . S
N449 C454 1.318 . S
C450 N449 1.328 . S
C450 C451 1.457 . S
C450 H455 0.929 . S
C451 C450 1.457 . S
C451 C452 1.291 . S
C451 H464 0.931 . S
C452 C451 1.291 . S
C452 C453 1.373 . S
C452 H465 0.929 . S
C453 C452 1.373 . S
C453 C454 1.396 . S
C453 C460 1.403 . S
C454 C444 1.476 . S
C454 N449 1.318 . S
C454 C453 1.396 . S
H455 C450 0.929 . S
O456 Mn432 2.385 . S
O456 C434 1.234 . S
O457 Mn432 2.209 . S
O457 Mn433 2.215 . S
O457 C434 1.283 . S
O458 Mn432 2.094 . S
O458 C436 1.240 . S
O459 Mn433 2.117 . S
O459 C436 1.264 . S
C460 C453 1.403 . S
C460 C461 1.399 . S
C460 H466 0.929 . S
C461 C441 1.449 . S
C461 C460 1.399 . S
C461 H467 0.930 . S
H462 C442 0.931 . S
H463 C443 0.930 . S
H464 C451 0.931 . S
H465 C452 0.929 . S
H466 C460 0.929 . S
H467 C461 0.930 . S
Mn468 O473 2.095 . S
Mn468 O483 2.162 . S
Mn468 O484 2.297 . S
Mn468 O492 2.385 . S
Mn468 O493 2.209 . S
Mn468 O494 2.094 . S
Mn469 O474 2.121 . S
Mn469 N476 2.257 . S
Mn469 N485 2.282 . S
Mn469 O493 2.215 . S
Mn469 O495 2.117 . S
C470 O492 1.234 . S
C470 O493 1.283 . S
C471 O483 1.281 . S
C471 O484 1.236 . S
C472 O494 1.240 . S
C472 O495 1.264 . S
O473 Mn468 2.095 . S
O473 C482 1.250 . S
O474 Mn469 2.121 . S
O474 C482 1.258 . S
C475 N476 1.326 . S
C475 C479 1.460 . S
C475 H481 0.929 . S
N476 Mn469 2.257 . S
N476 C475 1.326 . S
N476 C480 1.362 . S
C477 C478 1.258 . S
C477 C480 1.431 . S
C477 C497 1.449 . S
C478 C477 1.258 . S
C478 C479 1.477 . S
C478 H498 0.931 . S
C479 C475 1.460 . S
C479 C478 1.477 . S
C479 H499 0.930 . S
C480 N476 1.362 . S
C480 C477 1.431 . S
C480 C490 1.476 . S
H481 C475 0.929 . S
C482 O473 1.250 . S
C482 O474 1.258 . S
O483 Mn468 2.162 . S
O483 C471 1.281 . S
O484 Mn468 2.297 . S
O484 C471 1.236 . S
N485 Mn469 2.282 . S
N485 C486 1.328 . S
N485 C490 1.318 . S
C486 N485 1.328 . S
C486 C487 1.457 . S
C486 H491 0.929 . S
C487 C486 1.457 . S
C487 C488 1.291 . S
C487 H500 0.931 . S
C488 C487 1.291 . S
C488 C489 1.373 . S
C488 H501 0.929 . S
C489 C488 1.373 . S
C489 C490 1.396 . S
C489 C496 1.403 . S
C490 C480 1.476 . S
C490 N485 1.318 . S
C490 C489 1.396 . S
H491 C486 0.929 . S
O492 Mn468 2.385 . S
O492 C470 1.234 . S
O493 Mn468 2.209 . S
O493 Mn469 2.215 . S
O493 C470 1.283 . S
O494 Mn468 2.094 . S
O494 C472 1.240 . S
O495 Mn469 2.117 . S
O495 C472 1.264 . S
C496 C489 1.403 . S
C496 C497 1.399 . S
C496 H502 0.929 . S
C497 C477 1.449 . S
C497 C496 1.399 . S
C497 H503 0.930 . S
H498 C478 0.931 . S
H499 C479 0.930 . S
H500 C487 0.931 . S
H501 C488 0.929 . S
H502 C496 0.929 . S
H503 C497 0.930 . S
Mn504 O509 2.095 . S
Mn504 O519 2.162 . S
Mn504 O520 2.297 . S
Mn504 O528 2.385 . S
Mn504 O529 2.209 . S
Mn504 O530 2.094 . S
Mn505 O510 2.121 . S
Mn505 N512 2.257 . S
Mn505 N521 2.282 . S
Mn505 O529 2.215 . S
Mn505 O531 2.117 . S
C506 O528 1.234 . S
C506 O529 1.283 . S
C507 O519 1.281 . S
C507 O520 1.236 . S
C508 O530 1.240 . S
C508 O531 1.264 . S
O509 Mn504 2.095 . S
O509 C518 1.250 . S
O510 Mn505 2.121 . S
O510 C518 1.258 . S
C511 N512 1.326 . S
C511 C515 1.460 . S
C511 H517 0.929 . S
N512 Mn505 2.257 . S
N512 C511 1.326 . S
N512 C516 1.362 . S
C513 C514 1.258 . S
C513 C516 1.431 . S
C513 C533 1.449 . S
C514 C513 1.258 . S
C514 C515 1.477 . S
C514 H534 0.931 . S
C515 C511 1.460 . S
C515 C514 1.477 . S
C515 H535 0.930 . S
C516 N512 1.362 . S
C516 C513 1.431 . S
C516 C526 1.476 . S
H517 C511 0.929 . S
C518 O509 1.250 . S
C518 O510 1.258 . S
O519 Mn504 2.162 . S
O519 C507 1.281 . S
O520 Mn504 2.297 . S
O520 C507 1.236 . S
N521 Mn505 2.282 . S
N521 C522 1.328 . S
N521 C526 1.318 . S
C522 N521 1.328 . S
C522 C523 1.457 . S
C522 H527 0.929 . S
C523 C522 1.457 . S
C523 C524 1.291 . S
C523 H536 0.931 . S
C524 C523 1.291 . S
C524 C525 1.373 . S
C524 H537 0.929 . S
C525 C524 1.373 . S
C525 C526 1.396 . S
C525 C532 1.403 . S
C526 C516 1.476 . S
C526 N521 1.318 . S
C526 C525 1.396 . S
H527 C522 0.929 . S
O528 Mn504 2.385 . S
O528 C506 1.234 . S
O529 Mn504 2.209 . S
O529 Mn505 2.215 . S
O529 C506 1.283 . S
O530 Mn504 2.094 . S
O530 C508 1.240 . S
O531 Mn505 2.117 . S
O531 C508 1.264 . S
C532 C525 1.403 . S
C532 C533 1.399 . S
C532 H538 0.929 . S
C533 C513 1.449 . S
C533 C532 1.399 . S
C533 H539 0.930 . S
H534 C514 0.931 . S
H535 C515 0.930 . S
H536 C523 0.931 . S
H537 C524 0.929 . S
H538 C532 0.929 . S
H539 C533 0.930 . S
Mn540 O545 2.095 . S
Mn540 O555 2.162 . S
Mn540 O556 2.297 . S
Mn540 O564 2.385 . S
Mn540 O565 2.209 . S
Mn540 O566 2.094 . S
Mn541 O546 2.121 . S
Mn541 N548 2.257 . S
Mn541 N557 2.282 . S
Mn541 O565 2.215 . S
Mn541 O567 2.117 . S
C542 O564 1.234 . S
C542 O565 1.283 . S
C543 O555 1.281 . S
C543 O556 1.236 . S
C544 O566 1.240 . S
C544 O567 1.264 . S
O545 Mn540 2.095 . S
O545 C554 1.250 . S
O546 Mn541 2.121 . S
O546 C554 1.258 . S
C547 N548 1.326 . S
C547 C551 1.460 . S
C547 H553 0.929 . S
N548 Mn541 2.257 . S
N548 C547 1.326 . S
N548 C552 1.362 . S
C549 C550 1.258 . S
C549 C552 1.431 . S
C549 C569 1.449 . S
C550 C549 1.258 . S
C550 C551 1.477 . S
C550 H570 0.931 . S
C551 C547 1.460 . S
C551 C550 1.477 . S
C551 H571 0.930 . S
C552 N548 1.362 . S
C552 C549 1.431 . S
C552 C562 1.476 . S
H553 C547 0.929 . S
C554 O545 1.250 . S
C554 O546 1.258 . S
O555 Mn540 2.162 . S
O555 C543 1.281 . S
O556 Mn540 2.297 . S
O556 C543 1.236 . S
N557 Mn541 2.282 . S
N557 C558 1.328 . S
N557 C562 1.318 . S
C558 N557 1.328 . S
C558 C559 1.457 . S
C558 H563 0.929 . S
C559 C558 1.457 . S
C559 C560 1.291 . S
C559 H572 0.931 . S
C560 C559 1.291 . S
C560 C561 1.373 . S
C560 H573 0.929 . S
C561 C560 1.373 . S
C561 C562 1.396 . S
C561 C568 1.403 . S
C562 C552 1.476 . S
C562 N557 1.318 . S
C562 C561 1.396 . S
H563 C558 0.929 . S
O564 Mn540 2.385 . S
O564 C542 1.234 . S
O565 Mn540 2.209 . S
O565 Mn541 2.215 . S
O565 C542 1.283 . S
O566 Mn540 2.094 . S
O566 C544 1.240 . S
O567 Mn541 2.117 . S
O567 C544 1.264 . S
C568 C561 1.403 . S
C568 C569 1.399 . S
C568 H574 0.929 . S
C569 C549 1.449 . S
C569 C568 1.399 . S
C569 H575 0.930 . S
H570 C550 0.931 . S
H571 C551 0.930 . S
H572 C559 0.931 . S
H573 C560 0.929 . S
H574 C568 0.929 . S
H575 C569 0.930 . S
Mn576 O581 2.095 . S
Mn576 O591 2.162 . S
Mn576 O592 2.297 . S
Mn576 O600 2.385 . S
Mn576 O601 2.209 . S
Mn576 O602 2.094 . S
Mn577 O582 2.121 . S
Mn577 N584 2.257 . S
Mn577 N593 2.282 . S
Mn577 O601 2.215 . S
Mn577 O603 2.117 . S
C578 O600 1.234 . S
C578 O601 1.283 . S
C579 O591 1.281 . S
C579 O592 1.236 . S
C580 O602 1.240 . S
C580 O603 1.264 . S
O581 Mn576 2.095 . S
O581 C590 1.250 . S
O582 Mn577 2.121 . S
O582 C590 1.258 . S
C583 N584 1.326 . S
C583 C587 1.460 . S
C583 H589 0.929 . S
N584 Mn577 2.257 . S
N584 C583 1.326 . S
N584 C588 1.362 . S
C585 C586 1.258 . S
C585 C588 1.431 . S
C585 C605 1.449 . S
C586 C585 1.258 . S
C586 C587 1.477 . S
C586 H606 0.931 . S
C587 C583 1.460 . S
C587 C586 1.477 . S
C587 H607 0.930 . S
C588 N584 1.362 . S
C588 C585 1.431 . S
C588 C598 1.476 . S
H589 C583 0.929 . S
C590 O581 1.250 . S
C590 O582 1.258 . S
O591 Mn576 2.162 . S
O591 C579 1.281 . S
O592 Mn576 2.297 . S
O592 C579 1.236 . S
N593 Mn577 2.282 . S
N593 C594 1.328 . S
N593 C598 1.318 . S
C594 N593 1.328 . S
C594 C595 1.457 . S
C594 H599 0.929 . S
C595 C594 1.457 . S
C595 C596 1.291 . S
C595 H608 0.931 . S
C596 C595 1.291 . S
C596 C597 1.373 . S
C596 H609 0.929 . S
C597 C596 1.373 . S
C597 C598 1.396 . S
C597 C604 1.403 . S
C598 C588 1.476 . S
C598 N593 1.318 . S
C598 C597 1.396 . S
H599 C594 0.929 . S
O600 Mn576 2.385 . S
O600 C578 1.234 . S
O601 Mn576 2.209 . S
O601 Mn577 2.215 . S
O601 C578 1.283 . S
O602 Mn576 2.094 . S
O602 C580 1.240 . S
O603 Mn577 2.117 . S
O603 C580 1.264 . S
C604 C597 1.403 . S
C604 C605 1.399 . S
C604 H610 0.929 . S
C605 C585 1.449 . S
C605 C604 1.399 . S
C605 H611 0.930 . S
H606 C586 0.931 . S
H607 C587 0.930 . S
H608 C595 0.931 . S
H609 C596 0.929 . S
H610 C604 0.929 . S
H611 C605 0.930 . S
Mn612 O617 2.095 . S
Mn612 O627 2.162 . S
Mn612 O628 2.297 . S
Mn612 O636 2.385 . S
Mn612 O637 2.209 . S
Mn612 O638 2.094 . S
Mn613 O618 2.121 . S
Mn613 N620 2.257 . S
Mn613 N629 2.282 . S
Mn613 O637 2.215 . S
Mn613 O639 2.117 . S
C614 O636 1.234 . S
C614 O637 1.283 . S
C615 O627 1.281 . S
C615 O628 1.236 . S
C616 O638 1.240 . S
C616 O639 1.264 . S
O617 Mn612 2.095 . S
O617 C626 1.250 . S
O618 Mn613 2.121 . S
O618 C626 1.258 . S
C619 N620 1.326 . S
C619 C623 1.460 . S
C619 H625 0.929 . S
N620 Mn613 2.257 . S
N620 C619 1.326 . S
N620 C624 1.362 . S
C621 C622 1.258 . S
C621 C624 1.431 . S
C621 C641 1.449 . S
C622 C621 1.258 . S
C622 C623 1.477 . S
C622 H642 0.931 . S
C623 C619 1.460 . S
C623 C622 1.477 . S
C623 H643 0.930 . S
C624 N620 1.362 . S
C624 C621 1.431 . S
C624 C634 1.476 . S
H625 C619 0.929 . S
C626 O617 1.250 . S
C626 O618 1.258 . S
O627 Mn612 2.162 . S
O627 C615 1.281 . S
O628 Mn612 2.297 . S
O628 C615 1.236 . S
N629 Mn613 2.282 . S
N629 C630 1.328 . S
N629 C634 1.318 . S
C630 N629 1.328 . S
C630 C631 1.457 . S
C630 H635 0.929 . S
C631 C630 1.457 . S
C631 C632 1.291 . S
C631 H644 0.931 . S
C632 C631 1.291 . S
C632 C633 1.373 . S
C632 H645 0.929 . S
C633 C632 1.373 . S
C633 C634 1.396 . S
C633 C640 1.403 . S
C634 C624 1.476 . S
C634 N629 1.318 . S
C634 C633 1.396 . S
H635 C630 0.929 . S
O636 Mn612 2.385 . S
O636 C614 1.234 . S
O637 Mn612 2.209 . S
O637 Mn613 2.215 . S
O637 C614 1.283 . S
O638 Mn612 2.094 . S
O638 C616 1.240 . S
O639 Mn613 2.117 . S
O639 C616 1.264 . S
C640 C633 1.403 . S
C640 C641 1.399 . S
C640 H646 0.929 . S
C641 C621 1.449 . S
C641 C640 1.399 . S
C641 H647 0.930 . S
H642 C622 0.931 . S
H643 C623 0.930 . S
H644 C631 0.931 . S
H645 C632 0.929 . S
H646 C640 0.929 . S
H647 C641 0.930 . S
H648 C660 0.930 . S
H649 C662 0.930 . S
H650 C663 0.930 . S
H651 C667 0.959 . S
H652 C667 0.959 . S
H653 C667 0.961 . S
H654 C668 0.960 . S
H655 C668 0.961 . S
H656 C668 0.959 . S
H657 C671 0.929 . S
H658 C672 0.931 . S
H659 C674 0.930 . S
C660 H648 0.930 . S
C660 C661 1.399 . S
C660 C665 1.399 . S
C661 C660 1.399 . S
C661 C662 1.376 . S
C662 H649 0.930 . S
C662 C661 1.376 . S
C662 C663 1.388 . S
C663 H650 0.930 . S
C663 C662 1.388 . S
C663 C664 1.390 . S
C664 C663 1.390 . S
C664 C665 1.394 . S
C664 C670 1.465 . S
C665 C660 1.399 . S
C665 C664 1.394 . S
C665 C666 1.516 . S
C666 C665 1.516 . S
C666 C667 1.502 . S
C666 C668 1.561 . S
C666 C669 1.526 . S
C667 H651 0.959 . S
C667 H652 0.959 . S
C667 H653 0.961 . S
C667 C666 1.502 . S
C668 H654 0.960 . S
C668 H655 0.961 . S
C668 H656 0.959 . S
C668 C666 1.561 . S
C669 C666 1.526 . S
C669 C670 1.396 . S
C669 C674 1.390 . S
C670 C664 1.465 . S
C670 C669 1.396 . S
C670 C671 1.399 . S
C671 H657 0.929 . S
C671 C670 1.399 . S
C671 C672 1.385 . S
C672 H658 0.931 . S
C672 C671 1.385 . S
C672 C673 1.389 . S
C673 C672 1.389 . S
C673 C674 1.387 . S
C674 H659 0.930 . S
C674 C669 1.390 . S
C674 C673 1.387 . S
H675 C687 0.930 . S
H676 C689 0.930 . S
H677 C690 0.930 . S
H678 C694 0.959 . S
H679 C694 0.959 . S
H680 C694 0.961 . S
H681 C695 0.960 . S
H682 C695 0.961 . S
H683 C695 0.959 . S
H684 C698 0.929 . S
H685 C699 0.931 . S
H686 C701 0.930 . S
C687 H675 0.930 . S
C687 C688 1.399 . S
C687 C692 1.399 . S
C688 C687 1.399 . S
C688 C689 1.376 . S
C689 H676 0.930 . S
C689 C688 1.376 . S
C689 C690 1.388 . S
C690 H677 0.930 . S
C690 C689 1.388 . S
C690 C691 1.390 . S
C691 C690 1.390 . S
C691 C692 1.394 . S
C691 C697 1.465 . S
C692 C687 1.399 . S
C692 C691 1.394 . S
C692 C693 1.516 . S
C693 C692 1.516 . S
C693 C694 1.502 . S
C693 C695 1.561 . S
C693 C696 1.526 . S
C694 H678 0.959 . S
C694 H679 0.959 . S
C694 H680 0.961 . S
C694 C693 1.502 . S
C695 H681 0.960 . S
C695 H682 0.961 . S
C695 H683 0.959 . S
C695 C693 1.561 . S
C696 C693 1.526 . S
C696 C697 1.396 . S
C696 C701 1.390 . S
C697 C691 1.465 . S
C697 C696 1.396 . S
C697 C698 1.399 . S
C698 H684 0.929 . S
C698 C697 1.399 . S
C698 C699 1.385 . S
C699 H685 0.931 . S
C699 C698 1.385 . S
C699 C700 1.389 . S
C700 C699 1.389 . S
C700 C701 1.387 . S
C701 H686 0.930 . S
C701 C696 1.390 . S
C701 C700 1.387 . S
H702 C714 0.930 . S
H703 C716 0.930 . S
H704 C717 0.930 . S
H705 C721 0.959 . S
H706 C721 0.959 . S
H707 C721 0.961 . S
H708 C722 0.960 . S
H709 C722 0.961 . S
H710 C722 0.959 . S
H711 C725 0.929 . S
H712 C726 0.931 1_455 S
H713 C728 0.930 . S
C714 H702 0.930 . S
C714 C715 1.399 . S
C714 C719 1.399 . S
C715 C714 1.399 . S
C715 C716 1.376 . S
C716 H703 0.930 . S
C716 C715 1.376 . S
C716 C717 1.388 . S
C717 H704 0.930 . S
C717 C716 1.388 . S
C717 C718 1.390 . S
C718 C717 1.390 . S
C718 C719 1.394 . S
C718 C724 1.465 . S
C719 C714 1.399 . S
C719 C718 1.394 . S
C719 C720 1.516 . S
C720 C719 1.516 . S
C720 C721 1.502 . S
C720 C722 1.561 . S
C720 C723 1.526 . S
C721 H705 0.959 . S
C721 H706 0.959 . S
C721 H707 0.961 . S
C721 C720 1.502 . S
C722 H708 0.960 . S
C722 H709 0.961 . S
C722 H710 0.959 . S
C722 C720 1.561 . S
C723 C720 1.526 . S
C723 C724 1.396 . S
C723 C728 1.390 . S
C724 C718 1.465 . S
C724 C723 1.396 . S
C724 C725 1.399 . S
C725 H711 0.929 . S
C725 C724 1.399 . S
C725 C726 1.385 . S
C726 H712 0.931 1_655 S
C726 C725 1.385 . S
C726 C727 1.389 . S
C727 C726 1.389 . S
C727 C728 1.387 . S
C728 H713 0.930 . S
C728 C723 1.390 . S
C728 C727 1.387 . S
H729 C741 0.930 . S
H730 C743 0.930 . S
H731 C744 0.930 . S
H732 C748 0.959 . S
H733 C748 0.959 . S
H734 C748 0.961 . S
H735 C749 0.960 . S
H736 C749 0.961 . S
H737 C749 0.959 . S
H738 C752 0.929 . S
H739 C753 0.931 . S
H740 C755 0.930 . S
C741 H729 0.930 . S
C741 C742 1.399 . S
C741 C746 1.399 . S
C742 C741 1.399 . S
C742 C743 1.376 . S
C743 H730 0.930 . S
C743 C742 1.376 . S
C743 C744 1.388 . S
C744 H731 0.930 . S
C744 C743 1.388 . S
C744 C745 1.390 . S
C745 C744 1.390 . S
C745 C746 1.394 . S
C745 C751 1.465 . S
C746 C741 1.399 . S
C746 C745 1.394 . S
C746 C747 1.516 . S
C747 C746 1.516 . S
C747 C748 1.502 . S
C747 C749 1.561 . S
C747 C750 1.526 . S
C748 H732 0.959 . S
C748 H733 0.959 . S
C748 H734 0.961 . S
C748 C747 1.502 . S
C749 H735 0.960 . S
C749 H736 0.961 . S
C749 H737 0.959 . S
C749 C747 1.561 . S
C750 C747 1.526 . S
C750 C751 1.396 . S
C750 C755 1.390 . S
C751 C745 1.465 . S
C751 C750 1.396 . S
C751 C752 1.399 . S
C752 H738 0.929 . S
C752 C751 1.399 . S
C752 C753 1.385 . S
C753 H739 0.931 . S
C753 C752 1.385 . S
C753 C754 1.389 . S
C754 C753 1.389 . S
C754 C755 1.387 . S
C755 H740 0.930 . S
C755 C750 1.390 . S
C755 C754 1.387 . S
H756 C768 0.930 . S
H757 C770 0.930 . S
H758 C771 0.930 . S
H759 C775 0.959 . S
H760 C775 0.959 . S
H761 C775 0.961 . S
H762 C776 0.960 . S
H763 C776 0.961 . S
H764 C776 0.959 . S
H765 C779 0.929 . S
H766 C780 0.931 . S
H767 C782 0.930 . S
C768 H756 0.930 . S
C768 C769 1.399 . S
C768 C773 1.399 . S
C769 C768 1.399 . S
C769 C770 1.376 . S
C770 H757 0.930 . S
C770 C769 1.376 . S
C770 C771 1.388 . S
C771 H758 0.930 . S
C771 C770 1.388 . S
C771 C772 1.390 . S
C772 C771 1.390 . S
C772 C773 1.394 . S
C772 C778 1.465 . S
C773 C768 1.399 . S
C773 C772 1.394 . S
C773 C774 1.516 . S
C774 C773 1.516 . S
C774 C775 1.502 . S
C774 C776 1.561 . S
C774 C777 1.526 . S
C775 H759 0.959 . S
C775 H760 0.959 . S
C775 H761 0.961 . S
C775 C774 1.502 . S
C776 H762 0.960 . S
C776 H763 0.961 . S
C776 H764 0.959 . S
C776 C774 1.561 . S
C777 C774 1.526 . S
C777 C778 1.396 . S
C777 C782 1.390 . S
C778 C772 1.465 . S
C778 C777 1.396 . S
C778 C779 1.399 . S
C779 H765 0.929 . S
C779 C778 1.399 . S
C779 C780 1.385 . S
C780 H766 0.931 . S
C780 C779 1.385 . S
C780 C781 1.389 . S
C781 C780 1.389 . S
C781 C782 1.387 . S
C782 H767 0.930 . S
C782 C777 1.390 . S
C782 C781 1.387 . S
H783 C795 0.930 . S
H784 C797 0.930 . S
H785 C798 0.930 . S
H786 C802 0.959 . S
H787 C802 0.959 . S
H788 C802 0.961 . S
H789 C803 0.960 . S
H790 C803 0.961 . S
H791 C803 0.959 . S
H792 C806 0.929 . S
H793 C807 0.931 . S
H794 C809 0.930 . S
C795 H783 0.930 . S
C795 C796 1.399 . S
C795 C800 1.399 . S
C796 C795 1.399 . S
C796 C797 1.376 . S
C797 H784 0.930 . S
C797 C796 1.376 . S
C797 C798 1.388 . S
C798 H785 0.930 . S
C798 C797 1.388 . S
C798 C799 1.390 . S
C799 C798 1.390 . S
C799 C800 1.394 . S
C799 C805 1.465 . S
C800 C795 1.399 . S
C800 C799 1.394 . S
C800 C801 1.516 . S
C801 C800 1.516 . S
C801 C802 1.502 . S
C801 C803 1.561 . S
C801 C804 1.526 . S
C802 H786 0.959 . S
C802 H787 0.959 . S
C802 H788 0.961 . S
C802 C801 1.502 . S
C803 H789 0.960 . S
C803 H790 0.961 . S
C803 H791 0.959 . S
C803 C801 1.561 . S
C804 C801 1.526 . S
C804 C805 1.396 . S
C804 C809 1.390 . S
C805 C799 1.465 . S
C805 C804 1.396 . S
C805 C806 1.399 . S
C806 H792 0.929 . S
C806 C805 1.399 . S
C806 C807 1.385 . S
C807 H793 0.931 . S
C807 C806 1.385 . S
C807 C808 1.389 . S
C808 C807 1.389 . S
C808 C809 1.387 . S
C809 H794 0.930 . S
C809 C804 1.390 . S
C809 C808 1.387 . S
H810 C822 0.930 . S
H811 C824 0.930 . S
H812 C825 0.930 . S
H813 C829 0.959 . S
H814 C829 0.959 1_455 S
H815 C829 0.961 . S
H816 C830 0.960 . S
H817 C830 0.961 1_455 S
H818 C830 0.959 . S
H819 C833 0.929 . S
H820 C834 0.931 . S
H821 C836 0.930 . S
C822 H810 0.930 . S
C822 C823 1.399 . S
C822 C827 1.399 . S
C823 C822 1.399 . S
C823 C824 1.376 . S
C824 H811 0.930 . S
C824 C823 1.376 . S
C824 C825 1.388 . S
C825 H812 0.930 . S
C825 C824 1.388 . S
C825 C826 1.390 . S
C826 C825 1.390 . S
C826 C827 1.394 . S
C826 C832 1.465 1_655 S
C827 C822 1.399 . S
C827 C826 1.394 . S
C827 C828 1.516 . S
C828 C827 1.516 . S
C828 C829 1.502 . S
C828 C830 1.561 . S
C828 C831 1.526 1_655 S
C829 H813 0.959 . S
C829 H814 0.959 1_655 S
C829 H815 0.961 . S
C829 C828 1.502 . S
C830 H816 0.960 . S
C830 H817 0.961 1_655 S
C830 H818 0.959 . S
C830 C828 1.561 . S
C831 C828 1.526 1_455 S
C831 C832 1.396 . S
C831 C836 1.390 . S
C832 C826 1.465 1_455 S
C832 C831 1.396 . S
C832 C833 1.399 . S
C833 H819 0.929 . S
C833 C832 1.399 . S
C833 C834 1.385 . S
C834 H820 0.931 . S
C834 C833 1.385 . S
C834 C835 1.389 . S
C835 C834 1.389 . S
C835 C836 1.387 . S
C836 H821 0.930 . S
C836 C831 1.390 . S
C836 C835 1.387 . S
H837 C849 0.930 . S
H838 C851 0.930 . S
H839 C852 0.930 . S
H840 C856 0.959 . S
H841 C856 0.959 . S
H842 C856 0.961 . S
H843 C857 0.960 . S
H844 C857 0.961 . S
H845 C857 0.959 . S
H846 C860 0.929 . S
H847 C861 0.931 . S
H848 C863 0.930 . S
C849 H837 0.930 . S
C849 C850 1.399 . S
C849 C854 1.399 . S
C850 C849 1.399 . S
C850 C851 1.376 . S
C851 H838 0.930 . S
C851 C850 1.376 . S
C851 C852 1.388 . S
C852 H839 0.930 . S
C852 C851 1.388 . S
C852 C853 1.390 . S
C853 C852 1.390 . S
C853 C854 1.394 . S
C853 C859 1.465 . S
C854 C849 1.399 . S
C854 C853 1.394 . S
C854 C855 1.516 . S
C855 C854 1.516 . S
C855 C856 1.502 . S
C855 C857 1.561 . S
C855 C858 1.526 . S
C856 H840 0.959 . S
C856 H841 0.959 . S
C856 H842 0.961 . S
C856 C855 1.502 . S
C857 H843 0.960 . S
C857 H844 0.961 . S
C857 H845 0.959 . S
C857 C855 1.561 . S
C858 C855 1.526 . S
C858 C859 1.396 . S
C858 C863 1.390 . S
C859 C853 1.465 . S
C859 C858 1.396 . S
C859 C860 1.399 . S
C860 H846 0.929 . S
C860 C859 1.399 . S
C860 C861 1.385 . S
C861 H847 0.931 . S
C861 C860 1.385 . S
C861 C862 1.389 . S
C862 C861 1.389 . S
C862 C863 1.387 . S
C863 H848 0.930 . S
C863 C858 1.390 . S
C863 C862 1.387 . S
H864 C876 0.930 . S
H865 C878 0.930 . S
H866 C879 0.930 . S
H867 C883 0.959 . S
H868 C883 0.959 . S
H869 C883 0.961 1_545 S
H870 C884 0.960 1_545 S
H871 C884 0.961 . S
H872 C884 0.959 . S
H873 C887 0.929 . S
H874 C888 0.931 . S
H875 C890 0.930 . S
C876 H864 0.930 . S
C876 C877 1.399 . S
C876 C881 1.399 . S
C877 C876 1.399 . S
C877 C878 1.376 . S
C878 H865 0.930 . S
C878 C877 1.376 . S
C878 C879 1.388 . S
C879 H866 0.930 . S
C879 C878 1.388 . S
C879 C880 1.390 . S
C880 C879 1.390 . S
C880 C881 1.394 . S
C880 C886 1.465 1_545 S
C881 C876 1.399 . S
C881 C880 1.394 . S
C881 C882 1.516 1_545 S
C882 C881 1.516 1_565 S
C882 C883 1.502 . S
C882 C884 1.561 . S
C882 C885 1.526 . S
C883 H867 0.959 . S
C883 H868 0.959 . S
C883 H869 0.961 1_565 S
C883 C882 1.502 . S
C884 H870 0.960 1_565 S
C884 H871 0.961 . S
C884 H872 0.959 . S
C884 C882 1.561 . S
C885 C882 1.526 . S
C885 C886 1.396 . S
C885 C890 1.390 . S
C886 C880 1.465 1_565 S
C886 C885 1.396 . S
C886 C887 1.399 . S
C887 H873 0.929 . S
C887 C886 1.399 . S
C887 C888 1.385 . S
C888 H874 0.931 . S
C888 C887 1.385 . S
C888 C889 1.389 . S
C889 C888 1.389 . S
C889 C890 1.387 . S
C890 H875 0.930 . S
C890 C885 1.390 . S
C890 C889 1.387 . S
H891 C903 0.930 . S
H892 C905 0.930 . S
H893 C906 0.930 . S
H894 C910 0.959 . S
H895 C910 0.959 . S
H896 C910 0.961 1_455 S
H897 C911 0.960 1_455 S
H898 C911 0.961 . S
H899 C911 0.959 . S
H900 C914 0.929 . S
H901 C915 0.931 . S
H902 C917 0.930 . S
C903 H891 0.930 . S
C903 C904 1.399 . S
C903 C908 1.399 . S
C904 C903 1.399 . S
C904 C905 1.376 . S
C905 H892 0.930 . S
C905 C904 1.376 . S
C905 C906 1.388 . S
C906 H893 0.930 . S
C906 C905 1.388 . S
C906 C907 1.390 . S
C907 C906 1.390 . S
C907 C908 1.394 . S
C907 C913 1.465 1_455 S
C908 C903 1.399 . S
C908 C907 1.394 . S
C908 C909 1.516 1_455 S
C909 C908 1.516 1_655 S
C909 C910 1.502 . S
C909 C911 1.561 . S
C909 C912 1.526 . S
C910 H894 0.959 . S
C910 H895 0.959 . S
C910 H896 0.961 1_655 S
C910 C909 1.502 . S
C911 H897 0.960 1_655 S
C911 H898 0.961 . S
C911 H899 0.959 . S
C911 C909 1.561 . S
C912 C909 1.526 . S
C912 C913 1.396 . S
C912 C917 1.390 . S
C913 C907 1.465 1_655 S
C913 C912 1.396 . S
C913 C914 1.399 . S
C914 H900 0.929 . S
C914 C913 1.399 . S
C914 C915 1.385 . S
C915 H901 0.931 . S
C915 C914 1.385 . S
C915 C916 1.389 . S
C916 C915 1.389 . S
C916 C917 1.387 . S
C917 H902 0.930 . S
C917 C912 1.390 . S
C917 C916 1.387 . S
H918 C930 0.930 . S
H919 C932 0.930 . S
H920 C933 0.930 . S
H921 C937 0.959 . S
H922 C937 0.959 . S
H923 C937 0.961 . S
H924 C938 0.960 . S
H925 C938 0.961 . S
H926 C938 0.959 . S
H927 C941 0.929 . S
H928 C942 0.931 . S
H929 C944 0.930 . S
C930 H918 0.930 . S
C930 C931 1.399 . S
C930 C935 1.399 . S
C931 C930 1.399 . S
C931 C932 1.376 . S
C932 H919 0.930 . S
C932 C931 1.376 . S
C932 C933 1.388 . S
C933 H920 0.930 . S
C933 C932 1.388 . S
C933 C934 1.390 . S
C934 C933 1.390 . S
C934 C935 1.394 . S
C934 C940 1.465 . S
C935 C930 1.399 . S
C935 C934 1.394 . S
C935 C936 1.516 . S
C936 C935 1.516 . S
C936 C937 1.502 . S
C936 C938 1.561 . S
C936 C939 1.526 . S
C937 H921 0.959 . S
C937 H922 0.959 . S
C937 H923 0.961 . S
C937 C936 1.502 . S
C938 H924 0.960 . S
C938 H925 0.961 . S
C938 H926 0.959 . S
C938 C936 1.561 . S
C939 C936 1.526 . S
C939 C940 1.396 . S
C939 C944 1.390 . S
C940 C934 1.465 . S
C940 C939 1.396 . S
C940 C941 1.399 . S
C941 H927 0.929 . S
C941 C940 1.399 . S
C941 C942 1.385 . S
C942 H928 0.931 . S
C942 C941 1.385 . S
C942 C943 1.389 . S
C943 C942 1.389 . S
C943 C944 1.387 . S
C944 H929 0.930 . S
C944 C939 1.390 . S
C944 C943 1.387 . S
H945 C957 0.930 . S
H946 C959 0.930 . S
H947 C960 0.930 . S
H948 C964 0.959 . S
H949 C964 0.959 1_565 S
H950 C964 0.961 . S
H951 C965 0.960 . S
H952 C965 0.961 1_565 S
H953 C965 0.964 1_565 S
H954 C968 0.929 . S
H955 C969 0.931 . S
H956 C971 0.930 . S
C957 H945 0.930 . S
C957 C958 1.399 . S
C957 C962 1.399 . S
C958 C957 1.399 . S
C958 C959 1.376 . S
C959 H946 0.930 . S
C959 C958 1.376 . S
C959 C960 1.388 . S
C960 H947 0.930 . S
C960 C959 1.388 . S
C960 C961 1.390 . S
C961 C960 1.390 . S
C961 C962 1.394 . S
C961 C967 1.465 1_545 S
C962 C957 1.399 . S
C962 C961 1.394 . S
C962 C963 1.516 . S
C963 C962 1.516 . S
C963 C964 1.502 . S
C963 C965 1.561 . S
C963 C966 1.526 1_545 S
C964 H948 0.959 . S
C964 H949 0.959 1_545 S
C964 H950 0.961 . S
C964 C963 1.502 . S
C965 H951 0.960 . S
C965 H952 0.961 1_545 S
C965 H953 0.964 1_545 S
C965 C963 1.561 . S
C966 C963 1.526 1_565 S
C966 C967 1.396 . S
C966 C971 1.390 . S
C967 C961 1.465 1_565 S
C967 C966 1.396 . S
C967 C968 1.399 . S
C968 H954 0.929 . S
C968 C967 1.399 . S
C968 C969 1.385 . S
C969 H955 0.931 . S
C969 C968 1.385 . S
C969 C970 1.389 . S
C970 C969 1.389 . S
C970 C971 1.387 . S
C971 H956 0.930 . S
C971 C966 1.390 . S
C971 C970 1.387 . S
H972 C984 0.930 . S
H973 C986 0.930 . S
H974 C987 0.930 . S
H975 C991 0.959 . S
H976 C991 0.959 . S
H977 C991 0.961 1_565 S
H978 C992 0.960 . S
H979 C992 0.961 1_545 S
H980 C992 0.959 . S
H981 C995 0.929 . S
H982 C996 0.931 . S
H983 C998 0.930 . S
C984 H972 0.930 . S
C984 C985 1.399 . S
C984 C989 1.399 . S
C985 C984 1.399 . S
C985 C986 1.376 . S
C986 H973 0.930 . S
C986 C985 1.376 . S
C986 C987 1.388 . S
C987 H974 0.930 . S
C987 C986 1.388 . S
C987 C988 1.390 . S
C988 C987 1.390 . S
C988 C989 1.394 . S
C988 C994 1.465 1_565 S
C989 C984 1.399 . S
C989 C988 1.394 . S
C989 C990 1.516 . S
C990 C989 1.516 . S
C990 C991 1.502 1_565 S
C990 C992 1.561 . S
C990 C993 1.526 1_565 S
C991 H975 0.959 . S
C991 H976 0.959 . S
C991 H977 0.961 1_545 S
C991 C990 1.502 1_545 S
C992 H978 0.960 . S
C992 H979 0.961 1_565 S
C992 H980 0.959 . S
C992 C990 1.561 . S
C993 C990 1.526 1_545 S
C993 C994 1.396 . S
C993 C998 1.390 . S
C994 C988 1.465 1_545 S
C994 C993 1.396 . S
C994 C995 1.399 . S
C995 H981 0.929 . S
C995 C994 1.399 . S
C995 C996 1.385 . S
C996 H982 0.931 . S
C996 C995 1.385 . S
C996 C997 1.389 . S
C997 C996 1.389 . S
C997 C998 1.387 . S
C998 H983 0.930 . S
C998 C993 1.390 . S
C998 C997 1.387 . S
H999 C1011 0.930 . S
H1000 C1013 0.930 . S
H1001 C1014 0.930 . S
H1002 C1018 0.959 . S
H1003 C1018 0.959 1_655 S
H1004 C1018 0.961 . S
H1005 C1019 0.960 1_455 S
H1006 C1019 0.961 . S
H1007 C1019 0.959 . S
H1008 C1022 0.929 . S
H1009 C1023 0.931 . S
H1010 C1025 0.930 . S
C1011 H999 0.930 . S
C1011 C1012 1.399 . S
C1011 C1016 1.399 . S
C1012 C1011 1.399 . S
C1012 C1013 1.376 . S
C1013 H1000 0.930 . S
C1013 C1012 1.376 . S
C1013 C1014 1.388 . S
C1014 H1001 0.930 . S
C1014 C1013 1.388 . S
C1014 C1015 1.390 . S
C1015 C1014 1.390 . S
C1015 C1016 1.394 . S
C1015 C1021 1.465 1_455 S
C1016 C1011 1.399 . S
C1016 C1015 1.394 . S
C1016 C1017 1.516 . S
C1017 C1016 1.516 . S
C1017 C1018 1.502 . S
C1017 C1019 1.561 1_455 S
C1017 C1020 1.526 1_455 S
C1018 H1002 0.959 . S
C1018 H1003 0.959 1_455 S
C1018 H1004 0.961 . S
C1018 C1017 1.502 . S
C1019 H1005 0.960 1_655 S
C1019 H1006 0.961 . S
C1019 H1007 0.959 . S
C1019 C1017 1.561 1_655 S
C1020 C1017 1.526 1_655 S
C1020 C1021 1.396 . S
C1020 C1025 1.390 . S
C1021 C1015 1.465 1_655 S
C1021 C1020 1.396 . S
C1021 C1022 1.399 . S
C1022 H1008 0.929 . S
C1022 C1021 1.399 . S
C1022 C1023 1.385 . S
C1023 H1009 0.931 . S
C1023 C1022 1.385 . S
C1023 C1024 1.389 . S
C1024 C1023 1.389 . S
C1024 C1025 1.387 . S
C1025 H1010 0.930 . S
C1025 C1020 1.390 . S
C1025 C1024 1.387 . S
H1026 C1038 0.930 . S
H1027 C1040 0.930 . S
H1028 C1041 0.930 . S
H1029 C1045 0.959 . S
H1030 C1045 0.959 . S
H1031 C1045 0.961 . S
H1032 C1046 0.960 . S
H1033 C1046 0.961 . S
H1034 C1046 0.959 . S
H1035 C1049 0.929 . S
H1036 C1050 0.931 . S
H1037 C1052 0.930 . S
C1038 H1026 0.930 . S
C1038 C1039 1.399 . S
C1038 C1043 1.399 . S
C1039 C1038 1.399 . S
C1039 C1040 1.376 . S
C1040 H1027 0.930 . S
C1040 C1039 1.376 . S
C1040 C1041 1.388 . S
C1041 H1028 0.930 . S
C1041 C1040 1.388 . S
C1041 C1042 1.390 . S
C1042 C1041 1.390 . S
C1042 C1043 1.394 . S
C1042 C1048 1.465 . S
C1043 C1038 1.399 . S
C1043 C1042 1.394 . S
C1043 C1044 1.516 . S
C1044 C1043 1.516 . S
C1044 C1045 1.502 . S
C1044 C1046 1.561 . S
C1044 C1047 1.526 . S
C1045 H1029 0.959 . S
C1045 H1030 0.959 . S
C1045 H1031 0.961 . S
C1045 C1044 1.502 . S
C1046 H1032 0.960 . S
C1046 H1033 0.961 . S
C1046 H1034 0.959 . S
C1046 C1044 1.561 . S
C1047 C1044 1.526 . S
C1047 C1048 1.396 . S
C1047 C1052 1.390 . S
C1048 C1042 1.465 . S
C1048 C1047 1.396 . S
C1048 C1049 1.399 . S
C1049 H1035 0.929 . S
C1049 C1048 1.399 . S
C1049 C1050 1.385 . S
C1050 H1036 0.931 . S
C1050 C1049 1.385 . S
C1050 C1051 1.389 . S
C1051 C1050 1.389 . S
C1051 C1052 1.387 . S
C1052 H1037 0.930 . S
C1052 C1047 1.390 . S
C1052 C1051 1.387 . S
H1053 C1065 0.930 . S
H1054 C1067 0.930 . S
H1055 C1068 0.930 . S
H1056 C1072 0.959 . S
H1057 C1072 0.959 . S
H1058 C1072 0.961 . S
H1059 C1073 0.960 . S
H1060 C1073 0.961 . S
H1061 C1073 0.959 . S
H1062 C1076 0.929 . S
H1063 C1077 0.931 . S
H1064 C1079 0.930 . S
C1065 H1053 0.930 . S
C1065 C1066 1.399 . S
C1065 C1070 1.399 . S
C1066 C1065 1.399 . S
C1066 C1067 1.376 . S
C1067 H1054 0.930 . S
C1067 C1066 1.376 . S
C1067 C1068 1.388 . S
C1068 H1055 0.930 . S
C1068 C1067 1.388 . S
C1068 C1069 1.390 . S
C1069 C1068 1.390 . S
C1069 C1070 1.394 . S
C1069 C1075 1.465 . S
C1070 C1065 1.399 . S
C1070 C1069 1.394 . S
C1070 C1071 1.516 . S
C1071 C1070 1.516 . S
C1071 C1072 1.502 . S
C1071 C1073 1.561 . S
C1071 C1074 1.526 . S
C1072 H1056 0.959 . S
C1072 H1057 0.959 . S
C1072 H1058 0.961 . S
C1072 C1071 1.502 . S
C1073 H1059 0.960 . S
C1073 H1060 0.961 . S
C1073 H1061 0.959 . S
C1073 C1071 1.561 . S
C1074 C1071 1.526 . S
C1074 C1075 1.396 . S
C1074 C1079 1.390 . S
C1075 C1069 1.465 . S
C1075 C1074 1.396 . S
C1075 C1076 1.399 . S
C1076 H1062 0.929 . S
C1076 C1075 1.399 . S
C1076 C1077 1.385 . S
C1077 H1063 0.931 . S
C1077 C1076 1.385 . S
C1077 C1078 1.389 . S
C1078 C1077 1.389 . S
C1078 C1079 1.387 . S
C1079 H1064 0.930 . S
C1079 C1074 1.390 . S
C1079 C1078 1.387 . S
H1080 C1092 0.930 . S
H1081 C1094 0.930 . S
H1082 C1095 0.930 . S
H1083 C1099 0.959 . S
H1084 C1099 0.959 . S
H1085 C1099 0.961 . S
H1086 C1100 0.960 . S
H1087 C1100 0.961 . S
H1088 C1100 0.959 . S
H1089 C1103 0.929 . S
H1090 C1104 0.931 . S
H1091 C1106 0.930 . S
C1092 H1080 0.930 . S
C1092 C1093 1.399 . S
C1092 C1097 1.399 . S
C1093 C1092 1.399 . S
C1093 C1094 1.376 . S
C1094 H1081 0.930 . S
C1094 C1093 1.376 . S
C1094 C1095 1.388 . S
C1095 H1082 0.930 . S
C1095 C1094 1.388 . S
C1095 C1096 1.390 . S
C1096 C1095 1.390 . S
C1096 C1097 1.394 . S
C1096 C1102 1.465 . S
C1097 C1092 1.399 . S
C1097 C1096 1.394 . S
C1097 C1098 1.516 . S
C1098 C1097 1.516 . S
C1098 C1099 1.502 . S
C1098 C1100 1.561 . S
C1098 C1101 1.526 . S
C1099 H1083 0.959 . S
C1099 H1084 0.959 . S
C1099 H1085 0.961 . S
C1099 C1098 1.502 . S
C1100 H1086 0.960 . S
C1100 H1087 0.961 . S
C1100 H1088 0.959 . S
C1100 C1098 1.561 . S
C1101 C1098 1.526 . S
C1101 C1102 1.396 . S
C1101 C1106 1.390 . S
C1102 C1096 1.465 . S
C1102 C1101 1.396 . S
C1102 C1103 1.399 . S
C1103 H1089 0.929 . S
C1103 C1102 1.399 . S
C1103 C1104 1.385 . S
C1104 H1090 0.931 . S
C1104 C1103 1.385 . S
C1104 C1105 1.389 . S
C1105 C1104 1.389 . S
C1105 C1106 1.387 . S
C1106 H1091 0.930 . S
C1106 C1101 1.390 . S
C1106 C1105 1.387 . S
H1107 C1119 0.930 . S
H1108 C1121 0.930 . S
H1109 C1122 0.930 . S
H1110 C1126 0.959 . S
H1111 C1126 0.959 . S
H1112 C1126 0.961 . S
H1113 C1127 0.960 . S
H1114 C1127 0.961 . S
H1115 C1127 0.959 . S
H1116 C1130 0.929 . S
H1117 C1131 0.931 . S
H1118 C1133 0.930 . S
C1119 H1107 0.930 . S
C1119 C1120 1.399 . S
C1119 C1124 1.399 . S
C1120 C1119 1.399 . S
C1120 C1121 1.376 . S
C1121 H1108 0.930 . S
C1121 C1120 1.376 . S
C1121 C1122 1.388 . S
C1122 H1109 0.930 . S
C1122 C1121 1.388 . S
C1122 C1123 1.390 . S
C1123 C1122 1.390 . S
C1123 C1124 1.394 . S
C1123 C1129 1.465 . S
C1124 C1119 1.399 . S
C1124 C1123 1.394 . S
C1124 C1125 1.516 . S
C1125 C1124 1.516 . S
C1125 C1126 1.502 . S
C1125 C1127 1.561 . S
C1125 C1128 1.526 . S
C1126 H1110 0.959 . S
C1126 H1111 0.959 . S
C1126 H1112 0.961 . S
C1126 C1125 1.502 . S
C1127 H1113 0.960 . S
C1127 H1114 0.961 . S
C1127 H1115 0.959 . S
C1127 C1125 1.561 . S
C1128 C1125 1.526 . S
C1128 C1129 1.396 . S
C1128 C1133 1.390 . S
C1129 C1123 1.465 . S
C1129 C1128 1.396 . S
C1129 C1130 1.399 . S
C1130 H1116 0.929 . S
C1130 C1129 1.399 . S
C1130 C1131 1.385 . S
C1131 H1117 0.931 . S
C1131 C1130 1.385 . S
C1131 C1132 1.389 . S
C1132 C1131 1.389 . S
C1132 C1133 1.387 . S
C1133 H1118 0.930 . S
C1133 C1128 1.390 . S
C1133 C1132 1.387 . S
H1134 C1146 0.930 . S
H1135 C1148 0.930 . S
H1136 C1149 0.930 . S
H1137 C1153 0.959 . S
H1138 C1153 0.959 . S
H1139 C1153 0.961 . S
H1140 C1154 0.960 . S
H1141 C1154 0.961 . S
H1142 C1154 0.959 . S
H1143 C1157 0.929 . S
H1144 C1158 0.931 . S
H1145 C1160 0.930 . S
C1146 H1134 0.930 . S
C1146 C1147 1.399 . S
C1146 C1151 1.399 . S
C1147 C1146 1.399 . S
C1147 C1148 1.376 . S
C1148 H1135 0.930 . S
C1148 C1147 1.376 . S
C1148 C1149 1.388 . S
C1149 H1136 0.930 . S
C1149 C1148 1.388 . S
C1149 C1150 1.390 . S
C1150 C1149 1.390 . S
C1150 C1151 1.394 . S
C1150 C1156 1.465 . S
C1151 C1146 1.399 . S
C1151 C1150 1.394 . S
C1151 C1152 1.516 . S
C1152 C1151 1.516 . S
C1152 C1153 1.502 . S
C1152 C1154 1.561 . S
C1152 C1155 1.526 . S
C1153 H1137 0.959 . S
C1153 H1138 0.959 . S
C1153 H1139 0.961 . S
C1153 C1152 1.502 . S
C1154 H1140 0.960 . S
C1154 H1141 0.961 . S
C1154 H1142 0.959 . S
C1154 C1152 1.561 . S
C1155 C1152 1.526 . S
C1155 C1156 1.396 . S
C1155 C1160 1.390 . S
C1156 C1150 1.465 . S
C1156 C1155 1.396 . S
C1156 C1157 1.399 . S
C1157 H1143 0.929 . S
C1157 C1156 1.399 . S
C1157 C1158 1.385 . S
C1158 H1144 0.931 . S
C1158 C1157 1.385 . S
C1158 C1159 1.389 . S
C1159 C1158 1.389 . S
C1159 C1160 1.387 . S
C1160 H1145 0.930 . S
C1160 C1155 1.390 . S
C1160 C1159 1.387 . S
H1161 C1173 0.930 . S
H1162 C1175 0.930 . S
H1163 C1176 0.930 . S
H1164 C1180 0.959 . S
H1165 C1180 0.959 . S
H1166 C1180 0.961 . S
H1167 C1181 0.960 . S
H1168 C1181 0.961 . S
H1169 C1181 0.959 . S
H1170 C1184 0.929 . S
H1171 C1185 0.931 . S
H1172 C1187 0.930 . S
C1173 H1161 0.930 . S
C1173 C1174 1.399 . S
C1173 C1178 1.399 . S
C1174 C1173 1.399 . S
C1174 C1175 1.376 . S
C1175 H1162 0.930 . S
C1175 C1174 1.376 . S
C1175 C1176 1.388 . S
C1176 H1163 0.930 . S
C1176 C1175 1.388 . S
C1176 C1177 1.390 . S
C1177 C1176 1.390 . S
C1177 C1178 1.394 . S
C1177 C1183 1.465 . S
C1178 C1173 1.399 . S
C1178 C1177 1.394 . S
C1178 C1179 1.516 . S
C1179 C1178 1.516 . S
C1179 C1180 1.502 . S
C1179 C1181 1.561 . S
C1179 C1182 1.526 . S
C1180 H1164 0.959 . S
C1180 H1165 0.959 . S
C1180 H1166 0.961 . S
C1180 C1179 1.502 . S
C1181 H1167 0.960 . S
C1181 H1168 0.961 . S
C1181 H1169 0.959 . S
C1181 C1179 1.561 . S
C1182 C1179 1.526 . S
C1182 C1183 1.396 . S
C1182 C1187 1.390 . S
C1183 C1177 1.465 . S
C1183 C1182 1.396 . S
C1183 C1184 1.399 . S
C1184 H1170 0.929 . S
C1184 C1183 1.399 . S
C1184 C1185 1.385 . S
C1185 H1171 0.931 . S
C1185 C1184 1.385 . S
C1185 C1186 1.389 . S
C1186 C1185 1.389 . S
C1186 C1187 1.387 . S
C1187 H1172 0.930 . S
C1187 C1182 1.390 . S
C1187 C1186 1.387 . S
H1188 C1200 0.930 . S
H1189 C1202 0.930 . S
H1190 C1203 0.930 . S
H1191 C1207 0.959 . S
H1192 C1207 0.959 . S
H1193 C1207 0.961 . S
H1194 C1208 0.960 . S
H1195 C1208 0.961 . S
H1196 C1208 0.959 . S
H1197 C1211 0.929 . S
H1198 C1212 0.931 . S
H1199 C1214 0.930 . S
C1200 H1188 0.930 . S
C1200 C1201 1.399 . S
C1200 C1205 1.399 . S
C1201 C1200 1.399 . S
C1201 C1202 1.376 . S
C1202 H1189 0.930 . S
C1202 C1201 1.376 . S
C1202 C1203 1.388 . S
C1203 H1190 0.930 . S
C1203 C1202 1.388 . S
C1203 C1204 1.390 . S
C1204 C1203 1.390 . S
C1204 C1205 1.394 . S
C1204 C1210 1.465 . S
C1205 C1200 1.399 . S
C1205 C1204 1.394 . S
C1205 C1206 1.516 . S
C1206 C1205 1.516 . S
C1206 C1207 1.502 . S
C1206 C1208 1.561 . S
C1206 C1209 1.526 . S
C1207 H1191 0.959 . S
C1207 H1192 0.959 . S
C1207 H1193 0.961 . S
C1207 C1206 1.502 . S
C1208 H1194 0.960 . S
C1208 H1195 0.961 . S
C1208 H1196 0.959 . S
C1208 C1206 1.561 . S
C1209 C1206 1.526 . S
C1209 C1210 1.396 . S
C1209 C1214 1.390 . S
C1210 C1204 1.465 . S
C1210 C1209 1.396 . S
C1210 C1211 1.399 . S
C1211 H1197 0.929 . S
C1211 C1210 1.399 . S
C1211 C1212 1.385 . S
C1212 H1198 0.931 . S
C1212 C1211 1.385 . S
C1212 C1213 1.389 . S
C1213 C1212 1.389 . S
C1213 C1214 1.387 . S
C1214 H1199 0.930 . S
C1214 C1209 1.390 . S
C1214 C1213 1.387 . S
H1215 C1227 0.930 . S
H1216 C1229 0.930 . S
H1217 C1230 0.930 . S
H1218 C1234 0.959 . S
H1219 C1234 0.959 . S
H1220 C1234 0.961 . S
H1221 C1235 0.960 . S
H1222 C1235 0.961 . S
H1223 C1235 0.959 . S
H1224 C1238 0.929 . S
H1225 C1239 0.931 . S
H1226 C1241 0.930 . S
C1227 H1215 0.930 . S
C1227 C1228 1.399 . S
C1227 C1232 1.399 . S
C1228 C1227 1.399 . S
C1228 C1229 1.376 . S
C1229 H1216 0.930 . S
C1229 C1228 1.376 . S
C1229 C1230 1.388 . S
C1230 H1217 0.930 . S
C1230 C1229 1.388 . S
C1230 C1231 1.390 . S
C1231 C1230 1.390 . S
C1231 C1232 1.394 . S
C1231 C1237 1.465 . S
C1232 C1227 1.399 . S
C1232 C1231 1.394 . S
C1232 C1233 1.516 . S
C1233 C1232 1.516 . S
C1233 C1234 1.502 . S
C1233 C1235 1.561 . S
C1233 C1236 1.526 . S
C1234 H1218 0.959 . S
C1234 H1219 0.959 . S
C1234 H1220 0.961 . S
C1234 C1233 1.502 . S
C1235 H1221 0.960 . S
C1235 H1222 0.961 . S
C1235 H1223 0.959 . S
C1235 C1233 1.561 . S
C1236 C1233 1.526 . S
C1236 C1237 1.396 . S
C1236 C1241 1.390 . S
C1237 C1231 1.465 . S
C1237 C1236 1.396 . S
C1237 C1238 1.399 . S
C1238 H1224 0.929 . S
C1238 C1237 1.399 . S
C1238 C1239 1.385 . S
C1239 H1225 0.931 . S
C1239 C1238 1.385 . S
C1239 C1240 1.389 . S
C1240 C1239 1.389 . S
C1240 C1241 1.387 . S
C1241 H1226 0.930 . S
C1241 C1236 1.390 . S
C1241 C1240 1.387 . S
H1242 C1254 0.930 . S
H1243 C1256 0.930 . S
H1244 C1257 0.930 . S
H1245 C1261 0.959 . S
H1246 C1261 0.959 . S
H1247 C1261 0.961 . S
H1248 C1262 0.960 . S
H1249 C1262 0.961 . S
H1250 C1262 0.959 . S
H1251 C1265 0.929 . S
H1252 C1266 0.931 . S
H1253 C1268 0.930 . S
C1254 H1242 0.930 . S
C1254 C1255 1.399 . S
C1254 C1259 1.399 . S
C1255 C1254 1.399 . S
C1255 C1256 1.376 . S
C1256 H1243 0.930 . S
C1256 C1255 1.376 . S
C1256 C1257 1.388 . S
C1257 H1244 0.930 . S
C1257 C1256 1.388 . S
C1257 C1258 1.390 . S
C1258 C1257 1.390 . S
C1258 C1259 1.394 . S
C1258 C1264 1.465 . S
C1259 C1254 1.399 . S
C1259 C1258 1.394 . S
C1259 C1260 1.516 . S
C1260 C1259 1.516 . S
C1260 C1261 1.502 . S
C1260 C1262 1.561 . S
C1260 C1263 1.526 . S
C1261 H1245 0.959 . S
C1261 H1246 0.959 . S
C1261 H1247 0.961 . S
C1261 C1260 1.502 . S
C1262 H1248 0.960 . S
C1262 H1249 0.961 . S
C1262 H1250 0.959 . S
C1262 C1260 1.561 . S
C1263 C1260 1.526 . S
C1263 C1264 1.396 . S
C1263 C1268 1.390 . S
C1264 C1258 1.465 . S
C1264 C1263 1.396 . S
C1264 C1265 1.399 . S
C1265 H1251 0.929 . S
C1265 C1264 1.399 . S
C1265 C1266 1.385 . S
C1266 H1252 0.931 . S
C1266 C1265 1.385 . S
C1266 C1267 1.389 . S
C1267 C1266 1.389 . S
C1267 C1268 1.387 . S
C1268 H1253 0.930 . S
C1268 C1263 1.390 . S
C1268 C1267 1.387 . S
H1269 C1281 0.930 . S
H1270 C1283 0.930 . S
H1271 C1284 0.930 . S
H1272 C1288 0.959 . S
H1273 C1288 0.959 . S
H1274 C1288 0.961 . S
H1275 C1289 0.960 . S
H1276 C1289 0.961 . S
H1277 C1289 0.959 . S
H1278 C1292 0.929 . S
H1279 C1293 0.931 . S
H1280 C1295 0.930 . S
C1281 H1269 0.930 . S
C1281 C1282 1.399 . S
C1281 C1286 1.399 . S
C1282 C1281 1.399 . S
C1282 C1283 1.376 . S
C1283 H1270 0.930 . S
C1283 C1282 1.376 . S
C1283 C1284 1.388 . S
C1284 H1271 0.930 . S
C1284 C1283 1.388 . S
C1284 C1285 1.390 . S
C1285 C1284 1.390 . S
C1285 C1286 1.394 . S
C1285 C1291 1.465 . S
C1286 C1281 1.399 . S
C1286 C1285 1.394 . S
C1286 C1287 1.516 . S
C1287 C1286 1.516 . S
C1287 C1288 1.502 . S
C1287 C1289 1.561 . S
C1287 C1290 1.526 . S
C1288 H1272 0.959 . S
C1288 H1273 0.959 . S
C1288 H1274 0.961 . S
C1288 C1287 1.502 . S
C1289 H1275 0.960 . S
C1289 H1276 0.961 . S
C1289 H1277 0.959 . S
C1289 C1287 1.561 . S
C1290 C1287 1.526 . S
C1290 C1291 1.396 . S
C1290 C1295 1.390 . S
C1291 C1285 1.465 . S
C1291 C1290 1.396 . S
C1291 C1292 1.399 . S
C1292 H1278 0.929 . S
C1292 C1291 1.399 . S
C1292 C1293 1.385 . S
C1293 H1279 0.931 . S
C1293 C1292 1.385 . S
C1293 C1294 1.389 . S
C1294 C1293 1.389 . S
C1294 C1295 1.387 . S
C1295 H1280 0.930 . S
C1295 C1290 1.390 . S
C1295 C1294 1.387 . S
H1296 C1308 0.930 . S
H1297 C1310 0.930 . S
H1298 C1311 0.930 . S
H1299 C1315 0.959 . S
H1300 C1315 0.959 . S
H1301 C1315 0.961 . S
H1302 C1316 0.960 . S
H1303 C1316 0.961 . S
H1304 C1316 0.959 . S
H1305 C1319 0.929 . S
H1306 C1320 0.931 . S
H1307 C1322 0.930 . S
C1308 H1296 0.930 . S
C1308 C1309 1.399 . S
C1308 C1313 1.399 . S
C1309 C1308 1.399 . S
C1309 C1310 1.376 . S
C1310 H1297 0.930 . S
C1310 C1309 1.376 . S
C1310 C1311 1.388 . S
C1311 H1298 0.930 . S
C1311 C1310 1.388 . S
C1311 C1312 1.390 . S
C1312 C1311 1.390 . S
C1312 C1313 1.394 . S
C1312 C1318 1.465 . S
C1313 C1308 1.399 . S
C1313 C1312 1.394 . S
C1313 C1314 1.516 . S
C1314 C1313 1.516 . S
C1314 C1315 1.502 . S
C1314 C1316 1.561 . S
C1314 C1317 1.526 . S
C1315 H1299 0.959 . S
C1315 H1300 0.959 . S
C1315 H1301 0.961 . S
C1315 C1314 1.502 . S
C1316 H1302 0.960 . S
C1316 H1303 0.961 . S
C1316 H1304 0.959 . S
C1316 C1314 1.561 . S
C1317 C1314 1.526 . S
C1317 C1318 1.396 . S
C1317 C1322 1.390 . S
C1318 C1312 1.465 . S
C1318 C1317 1.396 . S
C1318 C1319 1.399 . S
C1319 H1305 0.929 . S
C1319 C1318 1.399 . S
C1319 C1320 1.385 . S
C1320 H1306 0.931 . S
C1320 C1319 1.385 . S
C1320 C1321 1.389 . S
C1321 C1320 1.389 . S
C1321 C1322 1.387 . S
C1322 H1307 0.930 . S
C1322 C1317 1.390 . S
C1322 C1321 1.387 . S
H1323 C1335 0.930 . S
H1324 C1337 0.930 . S
H1325 C1338 0.930 . S
H1326 C1342 0.959 . S
H1327 C1342 0.959 . S
H1328 C1342 0.961 . S
H1329 C1343 0.960 . S
H1330 C1343 0.961 . S
H1331 C1343 0.959 . S
H1332 C1346 0.929 . S
H1333 C1347 0.931 . S
H1334 C1349 0.930 . S
C1335 H1323 0.930 . S
C1335 C1336 1.399 . S
C1335 C1340 1.399 . S
C1336 C1335 1.399 . S
C1336 C1337 1.376 . S
C1337 H1324 0.930 . S
C1337 C1336 1.376 . S
C1337 C1338 1.388 . S
C1338 H1325 0.930 . S
C1338 C1337 1.388 . S
C1338 C1339 1.390 . S
C1339 C1338 1.390 . S
C1339 C1340 1.394 . S
C1339 C1345 1.465 . S
C1340 C1335 1.399 . S
C1340 C1339 1.394 . S
C1340 C1341 1.516 . S
C1341 C1340 1.516 . S
C1341 C1342 1.502 . S
C1341 C1343 1.561 . S
C1341 C1344 1.526 . S
C1342 H1326 0.959 . S
C1342 H1327 0.959 . S
C1342 H1328 0.961 . S
C1342 C1341 1.502 . S
C1343 H1329 0.960 . S
C1343 H1330 0.961 . S
C1343 H1331 0.959 . S
C1343 C1341 1.561 . S
C1344 C1341 1.526 . S
C1344 C1345 1.396 . S
C1344 C1349 1.390 . S
C1345 C1339 1.465 . S
C1345 C1344 1.396 . S
C1345 C1346 1.399 . S
C1346 H1332 0.929 . S
C1346 C1345 1.399 . S
C1346 C1347 1.385 . S
C1347 H1333 0.931 . S
C1347 C1346 1.385 . S
C1347 C1348 1.389 . S
C1348 C1347 1.389 . S
C1348 C1349 1.387 . S
C1349 H1334 0.930 . S
C1349 C1344 1.390 . S
C1349 C1348 1.387 . S
H1350 C1362 0.930 . S
H1351 C1364 0.930 . S
H1352 C1365 0.930 . S
H1353 C1369 0.959 . S
H1354 C1369 0.959 . S
H1355 C1369 0.961 . S
H1356 C1370 0.960 . S
H1357 C1370 0.961 . S
H1358 C1370 0.959 . S
H1359 C1373 0.929 . S
H1360 C1374 0.931 . S
H1361 C1376 0.930 . S
C1362 H1350 0.930 . S
C1362 C1363 1.399 . S
C1362 C1367 1.399 . S
C1363 C1362 1.399 . S
C1363 C1364 1.376 . S
C1364 H1351 0.930 . S
C1364 C1363 1.376 . S
C1364 C1365 1.388 . S
C1365 H1352 0.930 . S
C1365 C1364 1.388 . S
C1365 C1366 1.390 . S
C1366 C1365 1.390 . S
C1366 C1367 1.394 . S
C1366 C1372 1.465 . S
C1367 C1362 1.399 . S
C1367 C1366 1.394 . S
C1367 C1368 1.516 . S
C1368 C1367 1.516 . S
C1368 C1369 1.502 . S
C1368 C1370 1.561 . S
C1368 C1371 1.526 . S
C1369 H1353 0.959 . S
C1369 H1354 0.959 . S
C1369 H1355 0.961 . S
C1369 C1368 1.502 . S
C1370 H1356 0.960 . S
C1370 H1357 0.961 . S
C1370 H1358 0.959 . S
C1370 C1368 1.561 . S
C1371 C1368 1.526 . S
C1371 C1372 1.396 . S
C1371 C1376 1.390 . S
C1372 C1366 1.465 . S
C1372 C1371 1.396 . S
C1372 C1373 1.399 . S
C1373 H1359 0.929 . S
C1373 C1372 1.399 . S
C1373 C1374 1.385 . S
C1374 H1360 0.931 . S
C1374 C1373 1.385 . S
C1374 C1375 1.389 . S
C1375 C1374 1.389 . S
C1375 C1376 1.387 . S
C1376 H1361 0.930 . S
C1376 C1371 1.390 . S
C1376 C1375 1.387 . S
H1377 C1389 0.930 . S
H1378 C1391 0.930 . S
H1379 C1392 0.930 . S
H1380 C1396 0.959 . S
H1381 C1396 0.959 1_556 S
H1382 C1396 0.961 . S
H1383 C1397 0.960 . S
H1384 C1397 0.961 1_556 S
H1385 C1397 0.959 1_556 S
H1386 C1400 0.929 . S
H1387 C1401 0.931 . S
H1388 C1403 0.930 . S
C1389 H1377 0.930 . S
C1389 C1390 1.399 . S
C1389 C1394 1.399 . S
C1390 C1389 1.399 . S
C1390 C1391 1.376 . S
C1391 H1378 0.930 . S
C1391 C1390 1.376 . S
C1391 C1392 1.388 . S
C1392 H1379 0.930 . S
C1392 C1391 1.388 . S
C1392 C1393 1.390 . S
C1393 C1392 1.390 . S
C1393 C1394 1.394 . S
C1393 C1399 1.465 1_554 S
C1394 C1389 1.399 . S
C1394 C1393 1.394 . S
C1394 C1395 1.516 . S
C1395 C1394 1.516 . S
C1395 C1396 1.502 . S
C1395 C1397 1.561 . S
C1395 C1398 1.526 1_554 S
C1396 H1380 0.959 . S
C1396 H1381 0.959 1_554 S
C1396 H1382 0.961 . S
C1396 C1395 1.502 . S
C1397 H1383 0.960 . S
C1397 H1384 0.961 1_554 S
C1397 H1385 0.959 1_554 S
C1397 C1395 1.561 . S
C1398 C1395 1.526 1_556 S
C1398 C1399 1.396 . S
C1398 C1403 1.390 . S
C1399 C1393 1.465 1_556 S
C1399 C1398 1.396 . S
C1399 C1400 1.399 . S
C1400 H1386 0.929 . S
C1400 C1399 1.399 . S
C1400 C1401 1.385 . S
C1401 H1387 0.931 . S
C1401 C1400 1.385 . S
C1401 C1402 1.389 . S
C1402 C1401 1.389 . S
C1402 C1403 1.387 . S
C1403 H1388 0.930 . S
C1403 C1398 1.390 . S
C1403 C1402 1.387 . S
H1404 C1416 0.930 . S
H1405 C1418 0.930 . S
H1406 C1419 0.930 . S
H1407 C1423 0.959 . S
H1408 C1423 0.959 . S
H1409 C1423 0.961 1_556 S
H1410 C1424 0.960 1_556 S
H1411 C1424 0.961 . S
H1412 C1424 0.959 . S
H1413 C1427 0.929 . S
H1414 C1428 0.931 . S
H1415 C1430 0.930 . S
C1416 H1404 0.930 . S
C1416 C1417 1.399 . S
C1416 C1421 1.399 . S
C1417 C1416 1.399 . S
C1417 C1418 1.376 1_545 S
C1418 H1405 0.930 . S
C1418 C1417 1.376 1_565 S
C1418 C1419 1.388 . S
C1419 H1406 0.930 . S
C1419 C1418 1.388 . S
C1419 C1420 1.390 . S
C1420 C1419 1.390 . S
C1420 C1421 1.394 1_565 S
C1420 C1426 1.465 1_556 S
C1421 C1416 1.399 . S
C1421 C1420 1.394 1_545 S
C1421 C1422 1.516 1_556 S
C1422 C1421 1.516 1_554 S
C1422 C1423 1.502 . S
C1422 C1424 1.561 . S
C1422 C1425 1.526 . S
C1423 H1407 0.959 . S
C1423 H1408 0.959 . S
C1423 H1409 0.961 1_554 S
C1423 C1422 1.502 . S
C1424 H1410 0.960 1_554 S
C1424 H1411 0.961 . S
C1424 H1412 0.959 . S
C1424 C1422 1.561 . S
C1425 C1422 1.526 . S
C1425 C1426 1.396 1_545 S
C1425 C1430 1.390 . S
C1426 C1420 1.465 1_554 S
C1426 C1425 1.396 1_565 S
C1426 C1427 1.399 . S
C1427 H1413 0.929 . S
C1427 C1426 1.399 . S
C1427 C1428 1.385 . S
C1428 H1414 0.931 . S
C1428 C1427 1.385 . S
C1428 C1429 1.389 . S
C1429 C1428 1.389 . S
C1429 C1430 1.387 1_565 S
C1430 H1415 0.930 . S
C1430 C1425 1.390 . S
C1430 C1429 1.387 1_545 S
H1431 C1443 0.930 . S
H1432 C1445 0.930 . S
H1433 C1446 0.930 . S
H1434 C1450 0.959 . S
H1435 C1450 0.959 1_554 S
H1436 C1450 0.961 . S
H1437 C1451 0.993 . S
H1438 C1451 0.935 1_554 S
H1439 C1451 0.953 1_554 S
H1440 C1454 0.929 . S
H1441 C1455 0.931 . S
H1442 C1457 0.930 . S
C1443 H1431 0.930 . S
C1443 C1444 1.399 1_455 S
C1443 C1448 1.399 . S
C1444 C1443 1.399 1_655 S
C1444 C1445 1.376 . S
C1445 H1432 0.930 . S
C1445 C1444 1.376 . S
C1445 C1446 1.388 . S
C1446 H1433 0.930 . S
C1446 C1445 1.388 . S
C1446 C1447 1.390 . S
C1447 C1446 1.390 . S
C1447 C1448 1.394 1_655 S
C1447 C1453 1.465 1_556 S
C1448 C1443 1.399 . S
C1448 C1447 1.394 1_455 S
C1448 C1449 1.542 . S
C1449 C1448 1.542 . S
C1449 C1450 1.505 . S
C1449 C1451 1.561 . S
C1449 C1452 1.497 1_556 S
C1450 H1434 0.959 . S
C1450 H1435 0.959 1_556 S
C1450 H1436 0.961 . S
C1450 C1449 1.505 . S
C1451 H1437 0.993 . S
C1451 H1438 0.935 1_556 S
C1451 H1439 0.953 1_556 S
C1451 C1449 1.561 . S
C1452 C1449 1.497 1_554 S
C1452 C1453 1.396 1_455 S
C1452 C1457 1.390 . S
C1453 C1447 1.465 1_554 S
C1453 C1452 1.396 1_655 S
C1453 C1454 1.399 . S
C1454 H1440 0.929 . S
C1454 C1453 1.399 . S
C1454 C1455 1.385 . S
C1455 H1441 0.931 . S
C1455 C1454 1.385 . S
C1455 C1456 1.389 1_655 S
C1456 C1455 1.389 1_455 S
C1456 C1457 1.387 . S
C1457 H1442 0.930 . S
C1457 C1452 1.390 . S
C1457 C1456 1.387 . S
H1458 C1470 0.930 . S
H1459 C1472 0.930 . S
H1460 C1473 0.930 . S
H1461 C1477 0.959 . S
H1462 C1477 0.959 . S
H1463 C1477 0.961 . S
H1464 C1478 0.960 . S
H1465 C1478 0.961 . S
H1466 C1478 0.959 . S
H1467 C1481 0.929 . S
H1468 C1482 0.931 . S
H1469 C1484 0.930 . S
C1470 H1458 0.930 . S
C1470 C1471 1.399 . S
C1470 C1475 1.399 . S
C1471 C1470 1.399 . S
C1471 C1472 1.376 . S
C1472 H1459 0.930 . S
C1472 C1471 1.376 . S
C1472 C1473 1.388 . S
C1473 H1460 0.930 . S
C1473 C1472 1.388 . S
C1473 C1474 1.390 . S
C1474 C1473 1.390 . S
C1474 C1475 1.394 . S
C1474 C1480 1.465 . S
C1475 C1470 1.399 . S
C1475 C1474 1.394 . S
C1475 C1476 1.516 . S
C1476 C1475 1.516 . S
C1476 C1477 1.502 . S
C1476 C1478 1.561 . S
C1476 C1479 1.526 . S
C1477 H1461 0.959 . S
C1477 H1462 0.959 . S
C1477 H1463 0.961 . S
C1477 C1476 1.502 . S
C1478 H1464 0.960 . S
C1478 H1465 0.961 . S
C1478 H1466 0.959 . S
C1478 C1476 1.561 . S
C1479 C1476 1.526 . S
C1479 C1480 1.396 . S
C1479 C1484 1.390 . S
C1480 C1474 1.465 . S
C1480 C1479 1.396 . S
C1480 C1481 1.399 . S
C1481 H1467 0.929 . S
C1481 C1480 1.399 . S
C1481 C1482 1.385 . S
C1482 H1468 0.931 . S
C1482 C1481 1.385 . S
C1482 C1483 1.389 . S
C1483 C1482 1.389 . S
C1483 C1484 1.387 . S
C1484 H1469 0.930 . S
C1484 C1479 1.390 . S
C1484 C1483 1.387 . S
H1485 C1497 0.930 . S
H1486 C1499 0.930 . S
H1487 C1500 0.930 . S
H1488 C1504 0.959 . S
H1489 C1504 0.959 . S
H1490 C1504 0.961 . S
H1491 C1505 0.960 . S
H1492 C1505 0.961 . S
H1493 C1505 0.959 . S
H1494 C1508 0.929 . S
H1495 C1509 0.931 . S
H1496 C1511 0.930 . S
C1497 H1485 0.930 . S
C1497 C1498 1.399 . S
C1497 C1502 1.399 . S
C1498 C1497 1.399 . S
C1498 C1499 1.376 . S
C1499 H1486 0.930 . S
C1499 C1498 1.376 . S
C1499 C1500 1.388 . S
C1500 H1487 0.930 . S
C1500 C1499 1.388 . S
C1500 C1501 1.390 . S
C1501 C1500 1.390 . S
C1501 C1502 1.394 . S
C1501 C1507 1.465 . S
C1502 C1497 1.399 . S
C1502 C1501 1.394 . S
C1502 C1503 1.516 . S
C1503 C1502 1.516 . S
C1503 C1504 1.502 . S
C1503 C1505 1.561 . S
C1503 C1506 1.526 . S
C1504 H1488 0.959 . S
C1504 H1489 0.959 . S
C1504 H1490 0.961 . S
C1504 C1503 1.502 . S
C1505 H1491 0.960 . S
C1505 H1492 0.961 . S
C1505 H1493 0.959 . S
C1505 C1503 1.561 . S
C1506 C1503 1.526 . S
C1506 C1507 1.396 . S
C1506 C1511 1.390 . S
C1507 C1501 1.465 . S
C1507 C1506 1.396 . S
C1507 C1508 1.399 . S
C1508 H1494 0.929 . S
C1508 C1507 1.399 . S
C1508 C1509 1.385 . S
C1509 H1495 0.931 . S
C1509 C1508 1.385 . S
C1509 C1510 1.389 . S
C1510 C1509 1.389 . S
C1510 C1511 1.387 . S
C1511 H1496 0.930 . S
C1511 C1506 1.390 . S
C1511 C1510 1.387 . S
H1512 C1524 0.930 . S
H1513 C1526 0.930 . S
H1514 C1527 0.930 . S
H1515 C1531 0.959 . S
H1516 C1531 0.959 . S
H1517 C1531 0.961 . S
H1518 C1532 0.960 . S
H1519 C1532 0.961 . S
H1520 C1532 0.959 . S
H1521 C1535 0.929 . S
H1522 C1536 0.931 . S
H1523 C1538 0.930 . S
C1524 H1512 0.930 . S
C1524 C1525 1.399 . S
C1524 C1529 1.399 . S
C1525 C1524 1.399 . S
C1525 C1526 1.376 . S
C1526 H1513 0.930 . S
C1526 C1525 1.376 . S
C1526 C1527 1.388 . S
C1527 H1514 0.930 . S
C1527 C1526 1.388 . S
C1527 C1528 1.390 . S
C1528 C1527 1.390 . S
C1528 C1529 1.394 . S
C1528 C1534 1.465 . S
C1529 C1524 1.399 . S
C1529 C1528 1.394 . S
C1529 C1530 1.516 . S
C1530 C1529 1.516 . S
C1530 C1531 1.502 . S
C1530 C1532 1.561 . S
C1530 C1533 1.526 . S
C1531 H1515 0.959 . S
C1531 H1516 0.959 . S
C1531 H1517 0.961 . S
C1531 C1530 1.502 . S
C1532 H1518 0.960 . S
C1532 H1519 0.961 . S
C1532 H1520 0.959 . S
C1532 C1530 1.561 . S
C1533 C1530 1.526 . S
C1533 C1534 1.396 . S
C1533 C1538 1.390 . S
C1534 C1528 1.465 . S
C1534 C1533 1.396 . S
C1534 C1535 1.399 . S
C1535 H1521 0.929 . S
C1535 C1534 1.399 . S
C1535 C1536 1.385 . S
C1536 H1522 0.931 . S
C1536 C1535 1.385 . S
C1536 C1537 1.389 . S
C1537 C1536 1.389 . S
C1537 C1538 1.387 . S
C1538 H1523 0.930 . S
C1538 C1533 1.390 . S
C1538 C1537 1.387 . S
H1539 C1551 0.930 . S
H1540 C1553 0.930 . S
H1541 C1554 0.930 . S
H1542 C1558 0.959 . S
H1543 C1558 0.959 . S
H1544 C1558 0.961 . S
H1545 C1559 0.960 . S
H1546 C1559 0.961 . S
H1547 C1559 0.959 . S
H1548 C1562 0.929 . S
H1549 C1563 0.931 . S
H1550 C1565 0.930 . S
C1551 H1539 0.930 . S
C1551 C1552 1.399 . S
C1551 C1556 1.399 . S
C1552 C1551 1.399 . S
C1552 C1553 1.376 . S
C1553 H1540 0.930 . S
C1553 C1552 1.376 . S
C1553 C1554 1.388 . S
C1554 H1541 0.930 . S
C1554 C1553 1.388 . S
C1554 C1555 1.390 . S
C1555 C1554 1.390 . S
C1555 C1556 1.394 . S
C1555 C1561 1.465 . S
C1556 C1551 1.399 . S
C1556 C1555 1.394 . S
C1556 C1557 1.516 . S
C1557 C1556 1.516 . S
C1557 C1558 1.502 . S
C1557 C1559 1.561 . S
C1557 C1560 1.526 . S
C1558 H1542 0.959 . S
C1558 H1543 0.959 . S
C1558 H1544 0.961 . S
C1558 C1557 1.502 . S
C1559 H1545 0.960 . S
C1559 H1546 0.961 . S
C1559 H1547 0.959 . S
C1559 C1557 1.561 . S
C1560 C1557 1.526 . S
C1560 C1561 1.396 . S
C1560 C1565 1.390 . S
C1561 C1555 1.465 . S
C1561 C1560 1.396 . S
C1561 C1562 1.399 . S
C1562 H1548 0.929 . S
C1562 C1561 1.399 . S
C1562 C1563 1.385 . S
C1563 H1549 0.931 . S
C1563 C1562 1.385 . S
C1563 C1564 1.389 . S
C1564 C1563 1.389 . S
C1564 C1565 1.387 . S
C1565 H1550 0.930 . S
C1565 C1560 1.390 . S
C1565 C1564 1.387 . S
H1566 C1578 0.930 . S
H1567 C1580 0.930 . S
H1568 C1581 0.930 . S
H1569 C1585 0.959 . S
H1570 C1585 0.959 . S
H1571 C1585 0.961 . S
H1572 C1586 0.960 . S
H1573 C1586 0.961 . S
H1574 C1586 0.959 . S
H1575 C1589 0.929 . S
H1576 C1590 0.931 . S
H1577 C1592 0.930 . S
C1578 H1566 0.930 . S
C1578 C1579 1.399 . S
C1578 C1583 1.399 . S
C1579 C1578 1.399 . S
C1579 C1580 1.376 . S
C1580 H1567 0.930 . S
C1580 C1579 1.376 . S
C1580 C1581 1.388 . S
C1581 H1568 0.930 . S
C1581 C1580 1.388 . S
C1581 C1582 1.390 . S
C1582 C1581 1.390 . S
C1582 C1583 1.394 . S
C1582 C1588 1.465 . S
C1583 C1578 1.399 . S
C1583 C1582 1.394 . S
C1583 C1584 1.516 . S
C1584 C1583 1.516 . S
C1584 C1585 1.502 . S
C1584 C1586 1.561 . S
C1584 C1587 1.526 . S
C1585 H1569 0.959 . S
C1585 H1570 0.959 . S
C1585 H1571 0.961 . S
C1585 C1584 1.502 . S
C1586 H1572 0.960 . S
C1586 H1573 0.961 . S
C1586 H1574 0.959 . S
C1586 C1584 1.561 . S
C1587 C1584 1.526 . S
C1587 C1588 1.396 . S
C1587 C1592 1.390 . S
C1588 C1582 1.465 . S
C1588 C1587 1.396 . S
C1588 C1589 1.399 . S
C1589 H1575 0.929 . S
C1589 C1588 1.399 . S
C1589 C1590 1.385 . S
C1590 H1576 0.931 . S
C1590 C1589 1.385 . S
C1590 C1591 1.389 . S
C1591 C1590 1.389 . S
C1591 C1592 1.387 . S
C1592 H1577 0.930 . S
C1592 C1587 1.390 . S
C1592 C1591 1.387 . S
H1593 C1605 0.930 . S
H1594 C1607 0.930 . S
H1595 C1608 0.930 . S
H1596 C1612 0.959 . S
H1597 C1612 0.959 . S
H1598 C1612 0.961 . S
H1599 C1613 0.960 . S
H1600 C1613 0.961 . S
H1601 C1613 0.959 . S
H1602 C1616 0.929 . S
H1603 C1617 0.931 . S
H1604 C1619 0.930 . S
C1605 H1593 0.930 . S
C1605 C1606 1.399 . S
C1605 C1610 1.399 . S
C1606 C1605 1.399 . S
C1606 C1607 1.376 . S
C1607 H1594 0.930 . S
C1607 C1606 1.376 . S
C1607 C1608 1.388 . S
C1608 H1595 0.930 . S
C1608 C1607 1.388 . S
C1608 C1609 1.390 . S
C1609 C1608 1.390 . S
C1609 C1610 1.394 . S
C1609 C1615 1.465 . S
C1610 C1605 1.399 . S
C1610 C1609 1.394 . S
C1610 C1611 1.516 . S
C1611 C1610 1.516 . S
C1611 C1612 1.502 . S
C1611 C1613 1.561 . S
C1611 C1614 1.526 . S
C1612 H1596 0.959 . S
C1612 H1597 0.959 . S
C1612 H1598 0.961 . S
C1612 C1611 1.502 . S
C1613 H1599 0.960 . S
C1613 H1600 0.961 . S
C1613 H1601 0.959 . S
C1613 C1611 1.561 . S
C1614 C1611 1.526 . S
C1614 C1615 1.396 . S
C1614 C1619 1.390 . S
C1615 C1609 1.465 . S
C1615 C1614 1.396 . S
C1615 C1616 1.399 . S
C1616 H1602 0.929 . S
C1616 C1615 1.399 . S
C1616 C1617 1.385 . S
C1617 H1603 0.931 . S
C1617 C1616 1.385 . S
C1617 C1618 1.389 . S
C1618 C1617 1.389 . S
C1618 C1619 1.387 . S
C1619 H1604 0.930 . S
C1619 C1614 1.390 . S
C1619 C1618 1.387 . S
C661 C364 1.132 . S
C673 C4 1.134 . S
C688 C40 1.058 . S
C700 C400 1.103 . S
C715 C328 1.099 . S
C727 C76 1.147 . S
C742 C508 1.153 . S
C754 C112 1.086 . S
C769 C148 1.065 . S
C781 C436 1.140 . S
C796 C472 1.056 . S
C808 C184 1.131 . S
C823 C220 1.078 . S
C835 C580 1.155 . S
C850 C616 1.093 . S
C862 C256 1.089 . S
C877 C292 1.164 . S
C889 C544 1.100 . S
C904 C3 0.958 . S
C916 C38 1.020 . S
C931 C39 0.990 . S
C943 C74 1.031 . S
C958 C2 1.031 . S
C970 C75 0.980 . S
C985 C182 1.054 . S
C997 C111 1.058 . S
C1012 C110 1.047 . S
C1024 C147 1.036 . S
C1039 C183 0.954 . S
C1051 C146 1.014 . S
C1066 C219 1.001 . S
C1078 C254 1.053 . S
C1093 C255 1.040 . S
C1105 C290 1.045 . S
C1120 C218 1.066 . S
C1132 C291 1.061 . S
C1147 C398 1.035 . S
C1159 C327 0.986 . S
C1174 C326 1.018 . S
C1186 C363 0.969 . S
C1201 C362 1.020 . S
C1213 C399 0.962 . S
C1228 C470 1.075 . S
C1240 C435 1.066 . S
C1255 C506 1.061 . S
C1267 C471 1.056 . S
C1282 C434 1.018 . S
C1294 C507 0.972 . S
C1309 C543 1.051 . S
C1321 C614 1.054 . S
C1336 C579 1.054 . S
C1348 C542 1.051 . S
C1363 C615 0.963 . S
C1375 C578 1.030 . S
C1390 C14 1.598 . S
C1402 C122 1.514 . S
C1417 C158 1.532 . S
C1429 C50 1.590 . S
C1444 C194 1.597 . S
C1456 C86 1.514 . S
C1471 C338 1.546 . S
C1483 C230 1.544 . S
C1498 C374 1.515 . S
C1510 C266 1.591 . S
C1525 C302 1.582 . S
C1537 C410 1.553 . S
C1552 C554 1.538 . S
C1564 C446 1.552 . S
C1579 C590 1.587 . S
C1591 C482 1.516 . S
C1606 C626 1.501 . S
C1618 C518 1.585 . S
