# Generated by pormake.
# Topology zfo, (5)-cn, num edge types: 1
# Building blocks:
#     Node 0, Type 0, BuildingBlock: XOMCOT_clean_sbu_0, # of connection points: 5
#     Node 1, Type 0, BuildingBlock: XOMCOT_clean_sbu_0, # of connection points: 5
#     Node 2, Type 0, BuildingBlock: XOMCOT_clean_sbu_0, # of connection points: 5
#     Node 3, Type 0, BuildingBlock: XOMCOT_clean_sbu_0, # of connection points: 5
#     Node 4, Type 0, BuildingBlock: XOMCOT_clean_sbu_0, # of connection points: 5
#     Node 5, Type 0, BuildingBlock: XOMCOT_clean_sbu_0, # of connection points: 5
#     Node 6, Type 0, BuildingBlock: XOMCOT_clean_sbu_0, # of connection points: 5
#     Node 7, Type 0, BuildingBlock: XOMCOT_clean_sbu_0, # of connection points: 5
#     Node 8, Type 0, BuildingBlock: XOMCOT_clean_sbu_0, # of connection points: 5
#     Node 9, Type 0, BuildingBlock: XOMCOT_clean_sbu_0, # of connection points: 5
#     Node 10, Type 0, BuildingBlock: XOMCOT_clean_sbu_0, # of connection points: 5
#     Node 11, Type 0, BuildingBlock: XOMCOT_clean_sbu_0, # of connection points: 5
#     Node 12, Type 0, BuildingBlock: XOMCOT_clean_sbu_0, # of connection points: 5
#     Node 13, Type 0, BuildingBlock: XOMCOT_clean_sbu_0, # of connection points: 5
#     Node 14, Type 0, BuildingBlock: XOMCOT_clean_sbu_0, # of connection points: 5
#     Node 15, Type 0, BuildingBlock: XOMCOT_clean_sbu_0, # of connection points: 5
#     Edge 16, Type (0, 0), BuildingBlock: MIFKUJ_clean_linker_0, # of connection points: 2
#     Edge 17, Type (0, 0), BuildingBlock: MIFKUJ_clean_linker_0, # of connection points: 2
#     Edge 18, Type (0, 0), BuildingBlock: MIFKUJ_clean_linker_0, # of connection points: 2
#     Edge 19, Type (0, 0), BuildingBlock: MIFKUJ_clean_linker_0, # of connection points: 2
#     Edge 20, Type (0, 0), BuildingBlock: MIFKUJ_clean_linker_0, # of connection points: 2
#     Edge 21, Type (0, 0), BuildingBlock: MIFKUJ_clean_linker_0, # of connection points: 2
#     Edge 22, Type (0, 0), BuildingBlock: MIFKUJ_clean_linker_0, # of connection points: 2
#     Edge 23, Type (0, 0), BuildingBlock: MIFKUJ_clean_linker_0, # of connection points: 2
#     Edge 24, Type (0, 0), BuildingBlock: MIFKUJ_clean_linker_0, # of connection points: 2
#     Edge 25, Type (0, 0), BuildingBlock: MIFKUJ_clean_linker_0, # of connection points: 2
#     Edge 26, Type (0, 0), BuildingBlock: MIFKUJ_clean_linker_0, # of connection points: 2
#     Edge 27, Type (0, 0), BuildingBlock: MIFKUJ_clean_linker_0, # of connection points: 2
#     Edge 28, Type (0, 0), BuildingBlock: MIFKUJ_clean_linker_0, # of connection points: 2
#     Edge 29, Type (0, 0), BuildingBlock: MIFKUJ_clean_linker_0, # of connection points: 2
#     Edge 30, Type (0, 0), BuildingBlock: MIFKUJ_clean_linker_0, # of connection points: 2
#     Edge 31, Type (0, 0), BuildingBlock: MIFKUJ_clean_linker_0, # of connection points: 2
#     Edge 32, Type (0, 0), BuildingBlock: MIFKUJ_clean_linker_0, # of connection points: 2
#     Edge 33, Type (0, 0), BuildingBlock: MIFKUJ_clean_linker_0, # of connection points: 2
#     Edge 34, Type (0, 0), BuildingBlock: MIFKUJ_clean_linker_0, # of connection points: 2
#     Edge 35, Type (0, 0), BuildingBlock: MIFKUJ_clean_linker_0, # of connection points: 2
#     Edge 36, Type (0, 0), BuildingBlock: MIFKUJ_clean_linker_0, # of connection points: 2
#     Edge 37, Type (0, 0), BuildingBlock: MIFKUJ_clean_linker_0, # of connection points: 2
#     Edge 38, Type (0, 0), BuildingBlock: MIFKUJ_clean_linker_0, # of connection points: 2
#     Edge 39, Type (0, 0), BuildingBlock: MIFKUJ_clean_linker_0, # of connection points: 2
#     Edge 40, Type (0, 0), BuildingBlock: MIFKUJ_clean_linker_0, # of connection points: 2
#     Edge 41, Type (0, 0), BuildingBlock: MIFKUJ_clean_linker_0, # of connection points: 2
#     Edge 42, Type (0, 0), BuildingBlock: MIFKUJ_clean_linker_0, # of connection points: 2
#     Edge 43, Type (0, 0), BuildingBlock: MIFKUJ_clean_linker_0, # of connection points: 2
#     Edge 44, Type (0, 0), BuildingBlock: MIFKUJ_clean_linker_0, # of connection points: 2
#     Edge 45, Type (0, 0), BuildingBlock: MIFKUJ_clean_linker_0, # of connection points: 2
#     Edge 46, Type (0, 0), BuildingBlock: MIFKUJ_clean_linker_0, # of connection points: 2
#     Edge 47, Type (0, 0), BuildingBlock: MIFKUJ_clean_linker_0, # of connection points: 2
#     Edge 48, Type (0, 0), BuildingBlock: MIFKUJ_clean_linker_0, # of connection points: 2
#     Edge 49, Type (0, 0), BuildingBlock: MIFKUJ_clean_linker_0, # of connection points: 2
#     Edge 50, Type (0, 0), BuildingBlock: MIFKUJ_clean_linker_0, # of connection points: 2
#     Edge 51, Type (0, 0), BuildingBlock: MIFKUJ_clean_linker_0, # of connection points: 2
#     Edge 52, Type (0, 0), BuildingBlock: MIFKUJ_clean_linker_0, # of connection points: 2
#     Edge 53, Type (0, 0), BuildingBlock: MIFKUJ_clean_linker_0, # of connection points: 2
#     Edge 54, Type (0, 0), BuildingBlock: MIFKUJ_clean_linker_0, # of connection points: 2
#     Edge 55, Type (0, 0), BuildingBlock: MIFKUJ_clean_linker_0, # of connection points: 2
# Relax obj value: 0.175
# Max RMSD: 0.183
# Mean RMSD: 0.183
data_MOF--net-zfo--node1-XOMCOT_clean_sbu_0--edge1-MIFKUJ_clean_linker_0
_symmetry_space_group_name_H-M    P1
_symmetry_Int_Tables_number       1
_symmetry_cell_setting            triclinic
loop_
_symmetry_equiv_pos_as_xyz
'x, y, z'
_cell_length_a     43.218686
_cell_length_b     43.216067
_cell_length_c     74.263625
_cell_angle_alpha  90.007968
_cell_angle_beta   90.010331
_cell_angle_gamma 90.006185
loop_
_atom_site_label
_atom_site_type_symbol
_atom_site_fract_x
_atom_site_fract_y
_atom_site_fract_z
_atom_type_partial_charge
Co0 Co 0.07077 0.22506 0.15701 0.0
C1 C 0.13631 0.20937 0.15749 0.0
C2 C 0.11075 0.17988 0.17534 0.0
C3 C 0.1419 0.17425 0.17765 0.0
N4 N 0.10748 0.20194 0.16272 0.0
N5 N 0.158 0.19307 0.16651 0.0
H6 H 0.14105 0.22753 0.14787 0.0
H7 H 0.092 0.17008 0.18312 0.0
C8 C 0.02619 0.17421 0.14743 0.0
O9 O 0.01752 0.19008 0.1332 0.0
N10 N 0.03382 0.24932 0.15174 0.0
C11 C 0.03327 0.27872 0.14559 0.0
C12 C 0.00339 0.28925 0.14543 0.0
C13 C 0.00408 0.24316 0.15621 0.0
N14 N 0.98493 0.26683 0.15198 0.0
C15 C 0.08473 0.24388 0.12063 0.0
C16 C 0.08959 0.18501 0.10639 0.0
C17 C 0.09227 0.21049 0.09483 0.0
C18 C 0.09048 0.24025 0.10226 0.0
C19 C 0.08403 0.18975 0.12473 0.0
N20 N 0.07969 0.2189 0.13146 0.0
H21 H 0.08505 0.26686 0.12611 0.0
H22 H 0.08326 0.16985 0.13351 0.0
H23 H 0.05322 0.29272 0.1425 0.0
H24 H 0.99661 0.22211 0.16275 0.0
O25 O 0.09375 0.26279 0.16109 0.0
O26 O 0.06741 0.23721 0.18195 0.0
O27 O 0.0462 0.18541 0.1583 0.0
C28 C 0.08531 0.2604 0.17786 0.0
H29 H 0.15179 0.15896 0.18764 0.0
H30 H 0.99605 0.31224 0.14155 0.0
H31 H 0.09213 0.16162 0.10137 0.0
H32 H 0.09314 0.26066 0.09394 0.0
Co33 Co 0.77473 0.06615 0.65908 0.0
C34 C 0.78028 0.13413 0.66444 0.0
C35 C 0.82026 0.11536 0.65135 0.0
C36 C 0.82357 0.14702 0.65245 0.0
N37 N 0.79315 0.10721 0.65897 0.0
N38 N 0.79831 0.15877 0.66064 0.0
H39 H 0.75784 0.13596 0.6707 0.0
H40 H 0.83595 0.09964 0.64467 0.0
C41 C 0.82947 0.02117 0.65926 0.0
O42 O 0.81152 0.99683 0.65817 0.0
N43 N 0.75494 0.0259 0.6591 0.0
C44 C 0.73345 0.0163 0.64716 0.0
C45 C 0.72194 0.98824 0.65266 0.0
C46 C 0.75491 0.00427 0.67223 0.0
N47 N 0.73568 0.9806 0.66831 0.0
C48 C 0.75748 0.09104 0.62502 0.0
C49 C 0.78556 0.04626 0.60404 0.0
C50 C 0.76954 0.0704 0.59557 0.0
C51 C 0.75544 0.09306 0.6063 0.0
C52 C 0.78715 0.04518 0.62276 0.0
N53 N 0.77328 0.06742 0.63301 0.0
H54 H 0.7463 0.10846 0.63319 0.0
H55 H 0.79886 0.02598 0.62892 0.0
H56 H 0.7262 0.02896 0.63534 0.0
H57 H 0.76924 0.00545 0.68418 0.0
O58 O 0.7345 0.08318 0.66441 0.0
O59 O 0.76946 0.06884 0.68476 0.0
O60 O 0.81835 0.04859 0.65886 0.0
C61 C 0.74219 0.08016 0.68129 0.0
H62 H 0.84245 0.1604 0.64689 0.0
H63 H 0.70542 0.97409 0.64542 0.0
H64 H 0.79697 0.02838 0.59626 0.0
H65 H 0.74253 0.11192 0.6003 0.0
Co66 Co 0.92966 0.79048 0.16382 0.0
C67 C 0.8612 0.79395 0.16297 0.0
C68 C 0.88142 0.83576 0.17282 0.0
C69 C 0.85004 0.83702 0.17574 0.0
N70 N 0.88853 0.80896 0.16443 0.0
N71 N 0.83735 0.8105 0.16971 0.0
H72 H 0.85906 0.7702 0.15883 0.0
H73 H 0.89812 0.85203 0.17809 0.0
C74 C 0.93869 0.85379 0.14964 0.0
O75 O 0.9155 0.84735 0.13881 0.0
N76 N 0.97009 0.77155 0.16405 0.0
C77 C 0.97568 0.7416 0.1602 0.0
C78 C 0.00654 0.7357 0.16283 0.0
C79 C 0.99771 0.78372 0.16877 0.0
N80 N 0.02029 0.76211 0.16818 0.0
C81 C 0.90599 0.76592 0.13019 0.0
C82 C 0.95118 0.79186 0.10864 0.0
C83 C 0.92668 0.77594 0.10046 0.0
C84 C 0.90436 0.76208 0.11152 0.0
C85 C 0.95195 0.79499 0.12732 0.0
N86 N 0.92842 0.78389 0.13781 0.0
H87 H 0.88951 0.7539 0.13843 0.0
H88 H 0.97136 0.80685 0.13336 0.0
H89 H 0.95842 0.7251 0.15583 0.0
H90 H 0.00118 0.80754 0.17279 0.0
O91 O 0.91188 0.75182 0.17169 0.0
O92 O 0.92839 0.78924 0.18985 0.0
O93 O 0.94854 0.83314 0.16062 0.0
C94 C 0.91551 0.76221 0.18798 0.0
H95 H 0.83803 0.85485 0.18322 0.0
H96 H 0.01818 0.71381 0.16072 0.0
H97 H 0.96969 0.80176 0.10067 0.0
H98 H 0.88551 0.74877 0.10583 0.0
Co99 Co 0.21361 0.92551 0.65773 0.0
C100 C 0.20619 0.8571 0.65781 0.0
C101 C 0.1685 0.87988 0.67093 0.0
C102 C 0.1651 0.84846 0.67327 0.0
N103 N 0.19391 0.88537 0.66083 0.0
N104 N 0.18887 0.83423 0.66497 0.0
H105 H 0.22876 0.85318 0.65211 0.0
H106 H 0.15433 0.89755 0.67712 0.0
C107 C 0.14842 0.93657 0.64732 0.0
O108 O 0.15111 0.91218 0.63686 0.0
N109 N 0.23366 0.96502 0.65534 0.0
C110 C 0.2608 0.96972 0.64687 0.0
C111 C 0.26987 0.99975 0.64971 0.0
C112 C 0.22639 0.99218 0.66322 0.0
N113 N 0.24831 0.01375 0.66 0.0
C114 C 0.23337 0.89882 0.62397 0.0
C115 C 0.20368 0.94119 0.60213 0.0
C116 C 0.22 0.91681 0.59404 0.0
C117 C 0.23556 0.89586 0.60528 0.0
C118 C 0.2026 0.94355 0.62084 0.0
N119 N 0.21554 0.92134 0.63158 0.0
H120 H 0.24713 0.88373 0.63222 0.0
H121 H 0.19126 0.96342 0.62669 0.0
H122 H 0.27351 0.95222 0.63955 0.0
H123 H 0.20629 0.9957 0.67166 0.0
O124 O 0.25301 0.90747 0.66388 0.0
O125 O 0.21945 0.92701 0.68346 0.0
O126 O 0.17153 0.94589 0.65663 0.0
C127 C 0.2459 0.91349 0.68054 0.0
H128 H 0.14722 0.83711 0.68104 0.0
H129 H 0.29083 0.01046 0.64473 0.0
H130 H 0.19162 0.95835 0.59417 0.0
H131 H 0.24999 0.87772 0.59974 0.0
Co132 Co 0.57293 0.28803 0.83716 0.0
C133 C 0.64215 0.29001 0.83634 0.0
C134 C 0.6214 0.32677 0.82128 0.0
C135 C 0.65291 0.32825 0.81896 0.0
N136 N 0.61458 0.30332 0.83261 0.0
N137 N 0.66592 0.30504 0.82841 0.0
H138 H 0.64497 0.26903 0.84392 0.0
H139 H 0.60448 0.34109 0.81453 0.0
C140 C 0.57084 0.35443 0.84656 0.0
O141 O 0.59609 0.34904 0.85593 0.0
N142 N 0.53173 0.27234 0.84097 0.0
C143 C 0.52471 0.24811 0.85164 0.0
C144 C 0.49325 0.24412 0.85165 0.0
C145 C 0.50452 0.28243 0.83425 0.0
N146 N 0.48068 0.26562 0.84076 0.0
C147 C 0.59927 0.26628 0.87066 0.0
C148 C 0.5607 0.30022 0.89277 0.0
C149 C 0.58289 0.2809 0.90067 0.0
C150 C 0.60218 0.26354 0.88934 0.0
C151 C 0.55877 0.30241 0.87411 0.0
N152 N 0.57891 0.28675 0.86321 0.0
H153 H 0.61225 0.25065 0.86231 0.0
H154 H 0.54015 0.3159 0.86843 0.0
H155 H 0.54139 0.2344 0.859 0.0
H156 H 0.50218 0.30172 0.82505 0.0
O157 O 0.58632 0.24678 0.83116 0.0
O158 O 0.56888 0.28162 0.81161 0.0
O159 O 0.55739 0.33218 0.83827 0.0
C160 C 0.58021 0.25417 0.81455 0.0
H161 H 0.66513 0.34425 0.8103 0.0
H162 H 0.48049 0.22649 0.85889 0.0
H163 H 0.5441 0.31278 0.90089 0.0
H164 H 0.61905 0.24757 0.89479 0.0
Co165 Co 0.71719 0.57613 0.3428 0.0
C166 C 0.71378 0.64429 0.33887 0.0
C167 C 0.6737 0.62195 0.32816 0.0
C168 C 0.6729 0.65257 0.32319 0.0
N169 N 0.69895 0.61673 0.33847 0.0
N170 N 0.69833 0.66649 0.32979 0.0
H171 H 0.73677 0.64757 0.34415 0.0
H172 H 0.6584 0.60421 0.32306 0.0
C173 C 0.65126 0.56818 0.35259 0.0
O174 O 0.65456 0.59355 0.36217 0.0
N175 N 0.73602 0.53616 0.34619 0.0
C176 C 0.76287 0.53135 0.35496 0.0
C177 C 0.77125 0.50094 0.35287 0.0
C178 C 0.72822 0.50863 0.3389 0.0
N179 N 0.74956 0.48676 0.34276 0.0
C180 C 0.73442 0.60565 0.37635 0.0
C181 C 0.70608 0.56279 0.3985 0.0
C182 C 0.72131 0.58803 0.40636 0.0
C183 C 0.736 0.6094 0.39503 0.0
C184 C 0.70521 0.55986 0.3798 0.0
N185 N 0.71807 0.58187 0.36889 0.0
H186 H 0.74721 0.62139 0.368 0.0
H187 H 0.69442 0.53956 0.37409 0.0
H188 H 0.77586 0.54901 0.36198 0.0
H189 H 0.70819 0.50499 0.3304 0.0
O190 O 0.75738 0.5927 0.33685 0.0
O191 O 0.7238 0.57337 0.31716 0.0
O192 O 0.67443 0.557 0.34402 0.0
C193 C 0.75024 0.58688 0.32017 0.0
H194 H 0.65636 0.66306 0.31411 0.0
H195 H 0.79188 0.49007 0.35821 0.0
H196 H 0.69549 0.54502 0.40673 0.0
H197 H 0.74864 0.62888 0.40052 0.0
Co198 Co 0.42123 0.72023 0.83963 0.0
C199 C 0.35418 0.71137 0.83824 0.0
C200 C 0.37788 0.67671 0.8228 0.0
C201 C 0.34654 0.6738 0.81979 0.0
N202 N 0.38249 0.70032 0.83432 0.0
N203 N 0.33177 0.69572 0.82946 0.0
H204 H 0.35028 0.73193 0.84626 0.0
H205 H 0.39607 0.6638 0.8162 0.0
C206 C 0.4641 0.66879 0.84941 0.0
O207 O 0.47478 0.68625 0.8625 0.0
N208 N 0.46047 0.74058 0.84424 0.0
C209 C 0.46642 0.76612 0.85412 0.0
C210 C 0.49692 0.77421 0.85187 0.0
C211 C 0.4873 0.73423 0.83567 0.0
N212 N 0.51002 0.75411 0.84029 0.0
C213 C 0.40501 0.74258 0.87494 0.0
C214 C 0.40356 0.6855 0.89161 0.0
C215 C 0.40051 0.7122 0.90216 0.0
C216 C 0.40008 0.741 0.89349 0.0
C217 C 0.40828 0.68822 0.87309 0.0
N218 N 0.41168 0.71662 0.86522 0.0
H219 H 0.40335 0.76478 0.86841 0.0
H220 H 0.40921 0.66734 0.86515 0.0
H221 H 0.44995 0.77912 0.86188 0.0
H222 H 0.48986 0.71583 0.82589 0.0
O223 O 0.40257 0.75994 0.83481 0.0
O224 O 0.42563 0.73018 0.81448 0.0
O225 O 0.44245 0.67871 0.8392 0.0
C226 C 0.41056 0.75549 0.81812 0.0
H227 H 0.33558 0.65764 0.81066 0.0
H228 H 0.50847 0.79355 0.85824 0.0
H229 H 0.40228 0.66269 0.89761 0.0
H230 H 0.3967 0.76222 0.90099 0.0
Co231 Co 0.28148 0.42453 0.34025 0.0
C232 C 0.28584 0.35669 0.3343 0.0
C233 C 0.32138 0.38137 0.32034 0.0
C234 C 0.32283 0.35077 0.31528 0.0
N235 N 0.2988 0.38501 0.33275 0.0
N236 N 0.30028 0.33543 0.32401 0.0
H237 H 0.26504 0.35185 0.34175 0.0
H238 H 0.33469 0.40001 0.31448 0.0
C239 C 0.34896 0.43083 0.34628 0.0
O240 O 0.34751 0.40345 0.35393 0.0
N241 N 0.26353 0.46365 0.34687 0.0
C242 C 0.23905 0.46747 0.35786 0.0
C243 C 0.2304 0.49805 0.35749 0.0
C244 C 0.26955 0.49182 0.33992 0.0
N245 N 0.24951 0.51326 0.34618 0.0
C246 C 0.2673 0.39125 0.37309 0.0
C247 C 0.30225 0.42844 0.39552 0.0
C248 C 0.28602 0.40353 0.403 0.0
C249 C 0.268 0.38504 0.39157 0.0
C250 C 0.3007 0.43393 0.37705 0.0
N251 N 0.28466 0.41455 0.36586 0.0
H252 H 0.25164 0.37817 0.36482 0.0
H253 H 0.31178 0.45446 0.37185 0.0
H254 H 0.22769 0.44906 0.36518 0.0
H255 H 0.28718 0.49621 0.32988 0.0
O256 O 0.24055 0.40862 0.33544 0.0
O257 O 0.27074 0.43183 0.31541 0.0
O258 O 0.32433 0.44363 0.34023 0.0
C259 C 0.24484 0.41764 0.31891 0.0
H260 H 0.33792 0.34097 0.30515 0.0
H261 H 0.21124 0.50825 0.36476 0.0
H262 H 0.31522 0.44426 0.40395 0.0
H263 H 0.2543 0.36614 0.39687 0.0
Co264 Co 0.9223 0.78368 0.8435 0.0
C265 C 0.85366 0.78411 0.83977 0.0
C266 C 0.87455 0.82441 0.82828 0.0
C267 C 0.84347 0.82504 0.82446 0.0
N268 N 0.88093 0.79933 0.8385 0.0
N269 N 0.83044 0.79959 0.83162 0.0
H270 H 0.85099 0.76127 0.84538 0.0
H271 H 0.89158 0.8402 0.82289 0.0
C272 C 0.92668 0.8504 0.85254 0.0
O273 O 0.90148 0.84603 0.86212 0.0
N274 N 0.96325 0.76762 0.84766 0.0
C275 C 0.97043 0.7443 0.85895 0.0
C276 C 0.00189 0.73986 0.85859 0.0
C277 C 0.99022 0.77664 0.84019 0.0
N278 N 0.01418 0.76011 0.8468 0.0
C279 C 0.89329 0.76617 0.87719 0.0
C280 C 0.93449 0.79756 0.89904 0.0
C281 C 0.91063 0.78056 0.90709 0.0
C282 C 0.88999 0.76449 0.89591 0.0
C283 C 0.937 0.79852 0.88035 0.0
N284 N 0.91588 0.78393 0.86956 0.0
H285 H 0.87847 0.7521 0.86897 0.0
H286 H 0.9566 0.8104 0.87456 0.0
H287 H 0.9539 0.73152 0.86697 0.0
H288 H 0.99231 0.79496 0.83033 0.0
O289 O 0.90845 0.74221 0.83819 0.0
O290 O 0.92642 0.77572 0.81805 0.0
O291 O 0.93887 0.82763 0.84406 0.0
C292 C 0.9148 0.74853 0.82146 0.0
H293 H 0.83174 0.8418 0.81605 0.0
H294 H 0.01476 0.72272 0.86614 0.0
H295 H 0.9518 0.80923 0.90712 0.0
H296 H 0.87162 0.75048 0.90155 0.0
Co297 Co 0.21896 0.92531 0.33856 0.0
C298 C 0.21218 0.85814 0.33609 0.0
C299 C 0.17426 0.88119 0.32311 0.0
C300 C 0.1715 0.84979 0.32016 0.0
N301 N 0.19974 0.88623 0.33313 0.0
N302 N 0.19556 0.83547 0.3282 0.0
H303 H 0.23353 0.85451 0.34341 0.0
H304 H 0.15958 0.8991 0.3176 0.0
C305 C 0.16627 0.9671 0.34834 0.0
O306 O 0.18325 0.97843 0.36147 0.0
N307 N 0.23883 0.9647 0.34346 0.0
C308 C 0.26509 0.96998 0.35282 0.0
C309 C 0.27365 0.00035 0.35062 0.0
C310 C 0.23233 0.99189 0.33531 0.0
N311 N 0.25302 0.01406 0.33964 0.0
C312 C 0.24209 0.90779 0.37339 0.0
C313 C 0.18584 0.90776 0.39102 0.0
C314 C 0.21297 0.90348 0.40099 0.0
C315 C 0.24126 0.90225 0.39188 0.0
C316 C 0.18775 0.91251 0.37245 0.0
N317 N 0.21584 0.9153 0.36413 0.0
H318 H 0.264 0.90596 0.36656 0.0
H319 H 0.1665 0.91394 0.36489 0.0
H320 H 0.2784 0.95297 0.36001 0.0
H321 H 0.21352 0.99506 0.32586 0.0
O322 O 0.25888 0.9074 0.33361 0.0
O323 O 0.2288 0.93024 0.31338 0.0
O324 O 0.17703 0.94579 0.33819 0.0
C325 C 0.25433 0.91547 0.31696 0.0
H326 H 0.15407 0.83857 0.31198 0.0
H327 H 0.29379 0.01138 0.35644 0.0
H328 H 0.1634 0.90734 0.39752 0.0
H329 H 0.26264 0.8979 0.39906 0.0
Co330 Co 0.07767 0.21549 0.83908 0.0
C331 C 0.14352 0.20136 0.83819 0.0
C332 C 0.11812 0.17122 0.8206 0.0
C333 C 0.14932 0.16724 0.8174 0.0
N334 N 0.11469 0.19275 0.83356 0.0
N335 N 0.16511 0.18633 0.82846 0.0
H336 H 0.14843 0.2204 0.84723 0.0
H337 H 0.09933 0.16104 0.81302 0.0
C338 C 0.03309 0.16552 0.84951 0.0
O339 O 0.02431 0.18282 0.86314 0.0
N340 N 0.04028 0.23923 0.84399 0.0
C341 C 0.0388 0.26846 0.85039 0.0
C342 C 0.00885 0.27878 0.84945 0.0
C343 C 0.01113 0.23289 0.83843 0.0
N344 N 0.99144 0.25639 0.84197 0.0
C345 C 0.09241 0.23619 0.87499 0.0
C346 C 0.09598 0.17822 0.8905 0.0
C347 C 0.09871 0.20437 0.90155 0.0
C348 C 0.09772 0.23365 0.89346 0.0
C349 C 0.09083 0.18189 0.87203 0.0
N350 N 0.08687 0.21065 0.86469 0.0
H351 H 0.09339 0.25877 0.86899 0.0
H352 H 0.08995 0.16147 0.86366 0.0
H353 H 0.05819 0.28256 0.85433 0.0
H354 H 0.00463 0.21217 0.8312 0.0
O355 O 0.09986 0.25346 0.8345 0.0
O356 O 0.07407 0.22657 0.81396 0.0
O357 O 0.05359 0.17543 0.83852 0.0
C358 C 0.09159 0.25022 0.81776 0.0
H359 H 0.1595 0.15275 0.8071 0.0
H360 H 0.00065 0.30133 0.85363 0.0
H361 H 0.09806 0.15512 0.89602 0.0
H362 H 0.10056 0.25455 0.90133 0.0
Co363 Co 0.78449 0.07212 0.33855 0.0
C364 C 0.7908 0.14049 0.3401 0.0
C365 C 0.8299 0.11915 0.32763 0.0
C366 C 0.83236 0.15067 0.32549 0.0
N367 N 0.80418 0.11264 0.33722 0.0
N368 N 0.80756 0.16408 0.33324 0.0
H369 H 0.76805 0.14345 0.34566 0.0
H370 H 0.84463 0.10211 0.3213 0.0
C371 C 0.84912 0.06026 0.34934 0.0
O372 O 0.84539 0.08358 0.3605 0.0
N373 N 0.76444 0.03236 0.33901 0.0
C374 C 0.73716 0.02623 0.34698 0.0
C375 C 0.72908 0.99619 0.34322 0.0
C376 C 0.77268 0.00611 0.33045 0.0
N377 N 0.75133 0.9836 0.33278 0.0
C378 C 0.76517 0.09532 0.3732 0.0
C379 C 0.79162 0.04852 0.39334 0.0
C380 C 0.77628 0.07262 0.40225 0.0
C381 C 0.76251 0.09596 0.39191 0.0
C382 C 0.79373 0.04882 0.37459 0.0
N383 N 0.78208 0.07295 0.36478 0.0
H384 H 0.75245 0.11212 0.36558 0.0
H385 H 0.80466 0.02945 0.36795 0.0
H386 H 0.72392 0.04265 0.35483 0.0
H387 H 0.79337 0.00382 0.32234 0.0
O388 O 0.74545 0.09129 0.33322 0.0
O389 O 0.77882 0.07398 0.31275 0.0
O390 O 0.82664 0.05166 0.33926 0.0
C391 C 0.75283 0.08793 0.31637 0.0
H392 H 0.84981 0.16248 0.31762 0.0
H393 H 0.7085 0.98444 0.34794 0.0
H394 H 0.80207 0.02964 0.40075 0.0
H395 H 0.74905 0.11414 0.39819 0.0
Co396 Co 0.43167 0.71979 0.15857 0.0
C397 C 0.3641 0.71568 0.15795 0.0
C398 C 0.38385 0.67524 0.17014 0.0
C399 C 0.3521 0.67368 0.17168 0.0
N400 N 0.39123 0.70165 0.16156 0.0
N401 N 0.3397 0.69933 0.16416 0.0
H402 H 0.36251 0.73838 0.15192 0.0
H403 H 0.40032 0.65899 0.17567 0.0
C404 C 0.47461 0.66635 0.15196 0.0
O405 O 0.49063 0.68348 0.14072 0.0
N406 N 0.47217 0.73879 0.15608 0.0
C407 C 0.47976 0.76412 0.1464 0.0
C408 C 0.50944 0.77278 0.1506 0.0
C409 C 0.4973 0.73295 0.1664 0.0
N410 N 0.52042 0.75319 0.16315 0.0
C411 C 0.41944 0.74321 0.12305 0.0
C412 C 0.41926 0.68679 0.1056 0.0
C413 C 0.4152 0.71379 0.09544 0.0
C414 C 0.41469 0.74225 0.10447 0.0
C415 C 0.42384 0.68884 0.12417 0.0
N416 N 0.42591 0.71695 0.13255 0.0
H417 H 0.41736 0.76519 0.12978 0.0
H418 H 0.42472 0.66759 0.13173 0.0
H419 H 0.46475 0.77667 0.13747 0.0
H420 H 0.49833 0.71479 0.17643 0.0
O421 O 0.41408 0.76016 0.16267 0.0
O422 O 0.43259 0.72933 0.18398 0.0
O423 O 0.45073 0.67723 0.15987 0.0
C424 C 0.41912 0.75524 0.17968 0.0
H425 H 0.33934 0.65547 0.17836 0.0
H426 H 0.52197 0.79216 0.14492 0.0
H427 H 0.4182 0.66419 0.09933 0.0
H428 H 0.41084 0.76368 0.09725 0.0
Co429 Co 0.28406 0.42459 0.65882 0.0
C430 C 0.28659 0.35668 0.66545 0.0
C431 C 0.32001 0.38156 0.681 0.0
C432 C 0.3205 0.35113 0.68636 0.0
N433 N 0.29937 0.38498 0.66748 0.0
N434 N 0.29928 0.33561 0.67664 0.0
H435 H 0.26723 0.35168 0.65683 0.0
H436 H 0.33264 0.40029 0.68727 0.0
C437 C 0.35213 0.42805 0.65496 0.0
O438 O 0.35028 0.40037 0.6477 0.0
N439 N 0.26822 0.46405 0.65105 0.0
C440 C 0.2483 0.46896 0.63738 0.0
C441 C 0.24235 0.50013 0.63625 0.0
C442 C 0.2736 0.49209 0.65836 0.0
N443 N 0.25817 0.51453 0.64945 0.0
C444 C 0.2707 0.39078 0.62614 0.0
C445 C 0.30875 0.42529 0.60399 0.0
C446 C 0.29089 0.40163 0.59636 0.0
C447 C 0.27162 0.38429 0.6077 0.0
C448 C 0.30709 0.43101 0.62245 0.0
N449 N 0.28913 0.41313 0.6335 0.0
H450 H 0.25376 0.379 0.63421 0.0
H451 H 0.3192 0.45094 0.62764 0.0
H452 H 0.23855 0.45109 0.62891 0.0
H453 H 0.28839 0.49597 0.66991 0.0
O454 O 0.24233 0.41022 0.66259 0.0
O455 O 0.27137 0.43332 0.68322 0.0
O456 O 0.32749 0.44216 0.65991 0.0
C457 C 0.24553 0.41944 0.67917 0.0
H458 H 0.33411 0.34155 0.69725 0.0
H459 H 0.22691 0.51132 0.62679 0.0
H460 H 0.32286 0.44027 0.59567 0.0
H461 H 0.25681 0.36629 0.60235 0.0
Co462 Co 0.56976 0.28232 0.15692 0.0
C463 C 0.63755 0.29326 0.15677 0.0
C464 C 0.61305 0.33506 0.16254 0.0
C465 C 0.64427 0.34094 0.16395 0.0
N466 N 0.60868 0.30536 0.15733 0.0
N467 N 0.65942 0.31451 0.16044 0.0
H468 H 0.64269 0.26905 0.15471 0.0
H469 H 0.59508 0.35103 0.16643 0.0
C470 C 0.54911 0.34416 0.14387 0.0
O471 O 0.56975 0.34153 0.13098 0.0
N472 N 0.53177 0.25886 0.1572 0.0
C473 C 0.52919 0.22922 0.15175 0.0
C474 C 0.49952 0.21934 0.15487 0.0
C475 C 0.50354 0.26686 0.16341 0.0
N476 N 0.48351 0.24294 0.16217 0.0
C477 C 0.59589 0.26563 0.12255 0.0
C478 C 0.54457 0.28138 0.10229 0.0
C479 C 0.57113 0.27061 0.09352 0.0
C480 C 0.59679 0.26203 0.10388 0.0
C481 C 0.54453 0.28424 0.12098 0.0
N482 N 0.57054 0.27795 0.13082 0.0
H483 H 0.61544 0.258 0.13029 0.0
H484 H 0.52368 0.29217 0.12756 0.0
H485 H 0.54771 0.21568 0.14594 0.0
H486 H 0.49788 0.28933 0.16894 0.0
O487 O 0.5916 0.24507 0.16308 0.0
O488 O 0.57256 0.27882 0.18278 0.0
O489 O 0.5458 0.32256 0.15551 0.0
C490 C 0.58747 0.2531 0.17977 0.0
H491 H 0.65493 0.3623 0.16838 0.0
H492 H 0.49021 0.1967 0.15176 0.0
H493 H 0.52395 0.28738 0.09477 0.0
H494 H 0.61755 0.25302 0.0976 0.0
Co495 Co 0.72131 0.5724 0.66322 0.0
C496 C 0.7148 0.64038 0.66896 0.0
C497 C 0.67656 0.61497 0.67969 0.0
C498 C 0.67325 0.64541 0.6846 0.0
N499 N 0.702 0.61181 0.66926 0.0
N500 N 0.69744 0.66127 0.67794 0.0
H501 H 0.73733 0.64558 0.6635 0.0
H502 H 0.66243 0.59611 0.68456 0.0
C503 C 0.65541 0.56384 0.65373 0.0
O504 O 0.65809 0.59007 0.64491 0.0
N505 N 0.741 0.53337 0.65817 0.0
C506 C 0.76728 0.5298 0.64867 0.0
C507 C 0.77555 0.49914 0.64904 0.0
C508 C 0.73353 0.50492 0.66424 0.0
N509 N 0.75441 0.48354 0.65886 0.0
C510 C 0.73608 0.60558 0.63031 0.0
C511 C 0.70861 0.56323 0.60744 0.0
C512 C 0.72266 0.58949 0.60002 0.0
C513 C 0.73694 0.61064 0.61169 0.0
C514 C 0.70847 0.559 0.62603 0.0
N515 N 0.72089 0.58066 0.63735 0.0
H516 H 0.74854 0.62119 0.63893 0.0
H517 H 0.69866 0.53789 0.63132 0.0
H518 H 0.77975 0.54835 0.64212 0.0
H519 H 0.71385 0.50018 0.67283 0.0
O520 O 0.76131 0.58943 0.66916 0.0
O521 O 0.72923 0.56708 0.68861 0.0
O522 O 0.67893 0.55233 0.66183 0.0
C523 C 0.75534 0.58125 0.68566 0.0
H524 H 0.65566 0.65477 0.69343 0.0
H525 H 0.79559 0.48907 0.64254 0.0
H526 H 0.69843 0.54561 0.59891 0.0
H527 H 0.74875 0.63086 0.60649 0.0
H528 H 0.04714 0.13179 0.17188 0.0
H529 H 0.03307 0.0772 0.17416 0.0
H530 H 0.96782 0.08839 0.13071 0.0
H531 H 0.98173 0.14316 0.12831 0.0
H532 H 0.94466 0.05284 0.15889 0.0
H533 H 0.03631 0.05811 0.12216 0.0
H534 H 0.09006 0.07318 0.11535 0.0
H535 H 0.12227 0.02092 0.16081 0.0
H536 H 0.06859 0.00595 0.16808 0.0
H537 H 0.92146 0.90192 0.12828 0.0
H538 H 0.9379 0.95564 0.13019 0.0
H539 H 9e-05 0.93261 0.17357 0.0
H540 H 0.9837 0.87822 0.17175 0.0
H541 H 0.02592 0.97368 0.14831 0.0
H542 H 0.93451 0.96557 0.18395 0.0
H543 H 0.88074 0.95045 0.19067 0.0
H544 H 0.84806 0.00802 0.14756 0.0
H545 H 0.90171 0.02309 0.14037 0.0
C546 C 0.02956 0.12278 0.16291 0.0
C547 C 0.01566 0.14185 0.14983 0.0
C548 C 0.02166 0.09151 0.16419 0.0
C549 C 0.99968 0.07868 0.15247 0.0
C550 C 0.98491 0.09785 0.13986 0.0
C551 C 0.99294 0.12913 0.13848 0.0
C552 C 0.99278 0.04506 0.15296 0.0
C553 C 0.96235 0.03554 0.15642 0.0
C554 C 0.01609 0.0225 0.15023 0.0
C555 C 0.0484 0.0312 0.14578 0.0
C556 C 0.05482 0.05004 0.1308 0.0
C557 C 0.08528 0.05854 0.12684 0.0
C558 C 0.10956 0.04809 0.13767 0.0
C559 C 0.10343 0.02904 0.15245 0.0
C560 C 0.07299 0.02053 0.15649 0.0
C561 C 0.93879 0.90807 0.13819 0.0
C562 C 0.95106 0.88576 0.14999 0.0
C563 C 0.94809 0.93889 0.13928 0.0
C564 C 0.96981 0.94821 0.15221 0.0
C565 C 0.98314 0.92588 0.16356 0.0
C566 C 0.97374 0.89486 0.16252 0.0
C567 C 0.9777 0.98148 0.15399 0.0
C568 C 0.00829 0.99096 0.15096 0.0
C569 C 0.95454 0.00404 0.15715 0.0
C570 C 0.92218 0.99527 0.16152 0.0
C571 C 0.91589 0.97483 0.17581 0.0
C572 C 0.88542 0.96629 0.17972 0.0
C573 C 0.86101 0.97822 0.16953 0.0
C574 C 0.867 0.99878 0.15543 0.0
C575 C 0.89744 0.00735 0.15144 0.0
H576 H 0.83743 0.97158 0.17258 0.0
H577 H 0.13313 0.05469 0.13459 0.0
H578 H 0.12537 0.96948 0.6758 0.0
H579 H 0.0722 0.98839 0.67944 0.0
H580 H 0.05074 0.95849 0.62541 0.0
H581 H 0.1032 0.93845 0.62204 0.0
H582 H 0.03366 0.02812 0.66457 0.0
H583 H 0.9814 0.9262 0.62339 0.0
H584 H 0.99413 0.87204 0.61593 0.0
H585 H 0.04903 0.86487 0.66394 0.0
H586 H 0.03626 0.9188 0.67182 0.0
H587 H 0.87506 0.05798 0.64531 0.0
H588 H 0.93074 0.04769 0.64512 0.0
H589 H 0.91545 0.9641 0.67575 0.0
H590 H 0.8598 0.97352 0.67504 0.0
H591 H 0.95186 0.95092 0.65116 0.0
H592 H 0.94996 0.03322 0.69374 0.0
H593 H 0.93753 0.08499 0.70569 0.0
H594 H 0.99047 0.12715 0.66337 0.0
H595 H 0.0029 0.07563 0.65102 0.0
C596 C 0.10934 0.96732 0.66466 0.0
C597 C 0.11814 0.95205 0.64876 0.0
C598 C 0.07902 0.97817 0.66673 0.0
C599 C 0.05728 0.97419 0.65285 0.0
C600 C 0.06686 0.96105 0.63648 0.0
C601 C 0.09685 0.94967 0.63455 0.0
C602 C 0.02412 0.98159 0.6558 0.0
C603 C 0.01571 0.0113 0.66166 0.0
C604 C 0.00074 0.95931 0.65257 0.0
C605 C 0.0081 0.92664 0.64809 0.0
C606 C 0.99606 0.91301 0.63239 0.0
C607 C 0.0033 0.88236 0.62809 0.0
C608 C 0.02245 0.86505 0.63942 0.0
C609 C 0.03428 0.87832 0.65514 0.0
C610 C 0.02707 0.90894 0.65953 0.0
C611 C 0.8837 0.0376 0.65213 0.0
C612 C 0.86321 0.01648 0.66014 0.0
C613 C 0.91555 0.0318 0.65212 0.0
C614 C 0.92749 0.00524 0.66059 0.0
C615 C 0.90692 0.98465 0.66902 0.0
C616 C 0.87511 0.99004 0.66863 0.0
C617 C 0.96105 0.99773 0.65973 0.0
C618 C 0.96963 0.96787 0.65418 0.0
C619 C 0.98447 0.01952 0.66396 0.0
C620 C 0.97713 0.05056 0.67136 0.0
C621 C 0.95877 0.05354 0.6869 0.0
C622 C 0.95176 0.08284 0.69376 0.0
C623 C 0.96314 0.10934 0.68527 0.0
C624 C 0.98164 0.10659 0.66992 0.0
C625 C 0.98871 0.07735 0.663 0.0
H626 H 0.95768 0.132 0.6906 0.0
H627 H 0.02806 0.84135 0.63605 0.0
H628 H 0.5112 0.64069 0.86772 0.0
H629 H 0.52863 0.58713 0.86498 0.0
H630 H 0.46023 0.57075 0.82375 0.0
H631 H 0.44239 0.62422 0.82652 0.0
H632 H 0.46109 0.52484 0.84904 0.0
H633 H 0.53485 0.57933 0.81263 0.0
H634 H 0.57327 0.62013 0.8064 0.0
H635 H 0.63151 0.58502 0.84855 0.0
H636 H 0.59314 0.54443 0.8553 0.0
H637 H 0.52242 0.37624 0.82625 0.0
H638 H 0.5037 0.42969 0.82445 0.0
H639 H 0.57265 0.45779 0.86317 0.0
H640 H 0.59178 0.40489 0.86477 0.0
H641 H 0.5705 0.49784 0.83635 0.0
H642 H 0.49652 0.4477 0.87498 0.0
H643 H 0.45799 0.40809 0.88325 0.0
H644 H 0.40078 0.43555 0.83876 0.0
H645 H 0.43921 0.47508 0.83008 0.0
C646 C 0.49991 0.62575 0.85803 0.0
C647 C 0.47542 0.63673 0.84733 0.0
C648 C 0.50998 0.59518 0.85643 0.0
C649 C 0.49588 0.57508 0.84405 0.0
C650 C 0.47143 0.58593 0.83336 0.0
C651 C 0.46137 0.61652 0.83492 0.0
C652 C 0.50631 0.54255 0.84253 0.0
C653 C 0.48489 0.51887 0.84595 0.0
C654 C 0.53752 0.53491 0.83888 0.0
C655 C 0.56096 0.55896 0.83457 0.0
C656 C 0.55575 0.58043 0.82066 0.0
C657 C 0.57752 0.60355 0.81704 0.0
C658 C 0.60477 0.60526 0.82712 0.0
C659 C 0.61036 0.58376 0.84079 0.0
C660 C 0.58861 0.56067 0.84451 0.0
C661 C 0.53351 0.39382 0.83439 0.0
C662 C 0.55855 0.38631 0.84566 0.0
C663 C 0.52278 0.42432 0.83338 0.0
C664 C 0.53669 0.4477 0.84376 0.0
C665 C 0.56166 0.44018 0.85498 0.0
C666 C 0.57247 0.40984 0.85594 0.0
C667 C 0.52536 0.48008 0.8431 0.0
C668 C 0.54663 0.50377 0.83925 0.0
C669 C 0.49408 0.48776 0.84653 0.0
C670 C 0.47091 0.46409 0.85176 0.0
C671 C 0.47584 0.44512 0.86688 0.0
C672 C 0.45401 0.42271 0.87165 0.0
C673 C 0.427 0.41924 0.8615 0.0
C674 C 0.42174 0.43823 0.84659 0.0
C675 C 0.44353 0.46065 0.84174 0.0
H676 H 0.41012 0.40188 0.86523 0.0
H677 H 0.62158 0.62319 0.82431 0.0
H678 H 0.59593 0.5956 0.35929 0.0
H679 H 0.54446 0.57323 0.35658 0.0
H680 H 0.58454 0.48635 0.3399 0.0
H681 H 0.63641 0.50922 0.34189 0.0
H682 H 0.53573 0.4972 0.32052 0.0
H683 H 0.55593 0.49899 0.38366 0.0
H684 H 0.57105 0.52155 0.41287 0.0
H685 H 0.49516 0.58546 0.4098 0.0
H686 H 0.47983 0.56356 0.38044 0.0
H687 H 0.40547 0.40361 0.34525 0.0
H688 H 0.45609 0.4288 0.34422 0.0
H689 H 0.41187 0.51822 0.3436 0.0
H690 H 0.3608 0.49304 0.34418 0.0
H691 H 0.46157 0.50666 0.37124 0.0
H692 H 0.44138 0.50088 0.30752 0.0
H693 H 0.42694 0.47444 0.27933 0.0
H694 H 0.5041 0.41268 0.28521 0.0
H695 H 0.51874 0.43848 0.3136 0.0
C696 C 0.59386 0.57168 0.3551 0.0
C697 C 0.62024 0.55405 0.35097 0.0
C698 C 0.56435 0.55887 0.35361 0.0
C699 C 0.56054 0.52787 0.34842 0.0
C700 C 0.58686 0.51029 0.34401 0.0
C701 C 0.61648 0.52331 0.3452 0.0
C702 C 0.52906 0.51402 0.34758 0.0
C703 C 0.51971 0.49897 0.33172 0.0
C704 C 0.50783 0.51666 0.36207 0.0
C705 C 0.51691 0.52983 0.37976 0.0
C706 C 0.5426 0.51801 0.38915 0.0
C707 C 0.55119 0.53065 0.40574 0.0
C708 C 0.53413 0.55497 0.41316 0.0
C709 C 0.50838 0.56664 0.40403 0.0
C710 C 0.49971 0.55411 0.38742 0.0
C711 C 0.40648 0.42865 0.34478 0.0
C712 C 0.37924 0.44642 0.34484 0.0
C713 C 0.4354 0.44296 0.34413 0.0
C714 C 0.43762 0.47529 0.3438 0.0
C715 C 0.41051 0.49319 0.3438 0.0
C716 C 0.38145 0.47883 0.34408 0.0
C717 C 0.46845 0.49015 0.34422 0.0
C718 C 0.47766 0.50516 0.36006 0.0
C719 C 0.48969 0.48693 0.32987 0.0
C720 C 0.48097 0.47143 0.31279 0.0
C721 C 0.45509 0.48147 0.3029 0.0
C722 C 0.44691 0.46664 0.28686 0.0
C723 C 0.46454 0.44184 0.2805 0.0
C724 C 0.49044 0.43187 0.29016 0.0
C725 C 0.49871 0.44661 0.30622 0.0
H726 H 0.45817 0.43039 0.26808 0.0
H727 H 0.54081 0.56473 0.42601 0.0
H728 H 0.05453 0.11973 0.8273 0.0
H729 H 0.03845 0.06556 0.82656 0.0
H730 H 0.96991 0.08412 0.86739 0.0
H731 H 0.98633 0.13819 0.8685 0.0
H732 H 0.00124 0.03378 0.87556 0.0
H733 H 0.95067 0.07222 0.82234 0.0
H734 H 0.94769 0.09828 0.79285 0.0
H735 H 0.01073 0.03182 0.77046 0.0
H736 H 0.01441 0.00559 0.7999 0.0
H737 H 0.90694 0.90212 0.87 0.0
H738 H 0.92782 0.95429 0.8681 0.0
H739 H 0.9976 0.92287 0.83084 0.0
H740 H 0.97654 0.87014 0.83254 0.0
H741 H 0.97004 0.97783 0.82011 0.0
H742 H 0.01768 0.93761 0.87331 0.0
H743 H 0.01915 0.91139 0.90278 0.0
H744 H 0.96033 0.98153 0.92526 0.0
H745 H 0.95812 0.00794 0.89584 0.0
C746 C 0.03581 0.11238 0.836 0.0
C747 C 0.02171 0.13331 0.84798 0.0
C748 C 0.02659 0.08137 0.83552 0.0
C749 C 0.00281 0.07075 0.84683 0.0
C750 C 0.98837 0.09174 0.85857 0.0
C751 C 0.99771 0.12269 0.85915 0.0
C752 C 0.99369 0.03758 0.84697 0.0
C753 C 0.99408 0.02169 0.86345 0.0
C754 C 0.98531 0.02144 0.83109 0.0
C755 C 0.98307 0.03714 0.81337 0.0
C756 C 0.96409 0.06331 0.81117 0.0
C757 C 0.96224 0.07809 0.79445 0.0
C758 C 0.97908 0.06677 0.7798 0.0
C759 C 0.99774 0.04059 0.78183 0.0
C760 C 0.9997 0.02575 0.79852 0.0
C761 C 0.92678 0.90613 0.86141 0.0
C762 C 0.94014 0.88188 0.85146 0.0
C763 C 0.93875 0.93604 0.86039 0.0
C764 C 0.96447 0.94242 0.8495 0.0
C765 C 0.97777 0.91839 0.83938 0.0
C766 C 0.9658 0.88829 0.84041 0.0
C767 C 0.97706 0.97435 0.84874 0.0
C768 C 0.97742 0.98994 0.83217 0.0
C769 C 0.98603 0.9903 0.86455 0.0
C770 C 0.98756 0.97464 0.88232 0.0
C771 C 0.00489 0.94734 0.8845 0.0
C772 C 0.00587 0.93245 0.90121 0.0
C773 C 0.9898 0.94475 0.91588 0.0
C774 C 0.97276 0.97201 0.91388 0.0
C775 C 0.97167 0.98698 0.8972 0.0
H776 H 0.99058 0.93318 0.92879 0.0
H777 H 0.97761 0.07823 0.76688 0.0
H778 H 0.12597 0.95227 0.32128 0.0
H779 H 0.07068 0.96403 0.31965 0.0
H780 H 0.07659 0.01315 0.37009 0.0
H781 H 0.13188 0.00154 0.37185 0.0
H782 H 0.02777 0.97129 0.36886 0.0
H783 H 0.07102 0.05263 0.33211 0.0
H784 H 0.10203 0.07374 0.3071 0.0
H785 H 0.04594 0.02428 0.26901 0.0
H786 H 0.01485 0.0025 0.29384 0.0
H787 H 0.89604 0.06485 0.37345 0.0
H788 H 0.94788 0.04323 0.37123 0.0
H789 H 0.92393 -4e-05 0.32077 0.0
H790 H 0.87147 0.02172 0.3229 0.0
H791 H 0.97989 0.03219 0.31953 0.0
H792 H 0.93315 0.95506 0.35595 0.0
H793 H 0.90179 0.93417 0.38087 0.0
H794 H 0.96393 0.97479 0.4193 0.0
H795 H 0.99543 0.99634 0.39462 0.0
C796 C 0.11557 0.96575 0.33198 0.0
C797 C 0.13333 0.97597 0.34672 0.0
C798 C 0.08398 0.97248 0.331 0.0
C799 C 0.06959 0.98946 0.34474 0.0
C800 C 0.08729 -8e-05 0.35937 0.0
C801 C 0.11891 0.99342 0.3603 0.0
C802 C 0.03595 0.99591 0.34411 0.0
C803 C 0.01731 0.98481 0.35816 0.0
C804 C 0.02221 0.01254 0.32977 0.0
C805 C 0.04085 0.02564 0.31484 0.0
C806 C 0.06548 0.04602 0.31841 0.0
C807 C 0.08304 0.05815 0.30427 0.0
C808 C 0.07602 0.05028 0.28648 0.0
C809 C 0.05138 0.03031 0.2828 0.0
C810 C 0.03378 0.01808 0.2969 0.0
C811 C 0.90162 0.05057 0.36191 0.0
C812 C 0.87968 0.04504 0.34832 0.0
C813 C 0.93126 0.0381 0.36071 0.0
C814 C 0.93967 0.01983 0.34591 0.0
C815 C 0.9178 0.01396 0.33233 0.0
C816 C 0.88788 0.02626 0.33361 0.0
C817 C 0.97183 0.00819 0.34451 0.0
C818 C 0.99023 0.01827 0.33009 0.0
C819 C 0.98536 0.9905 0.35847 0.0
C820 C 0.96655 0.97751 0.37341 0.0
C821 C 0.94001 0.95975 0.36972 0.0
C822 C 0.92222 0.94775 0.3838 0.0
C823 C 0.93083 0.9532 0.40166 0.0
C824 C 0.95728 0.9706 0.40546 0.0
C825 C 0.97514 0.98268 0.39143 0.0
H826 H 0.91703 0.94389 0.41254 0.0
H827 H 0.08963 0.05971 0.27555 0.0
H828 H 0.5265 0.3824 0.11815 0.0
H829 H 0.51029 0.43621 0.12189 0.0
H830 H 0.52525 0.42892 0.17923 0.0
H831 H 0.53929 0.37436 0.17558 0.0
H832 H 0.48145 0.46651 0.17474 0.0
H833 H 0.58156 0.45913 0.1491 0.0
H834 H 0.62176 0.44182 0.1278 0.0
H835 H 0.57347 0.48603 0.0843 0.0
H836 H 0.53272 0.50322 0.10531 0.0
H837 H 0.53143 0.63912 0.15171 0.0
H838 H 0.54311 0.58379 0.15388 0.0
H839 H 0.44529 0.56367 0.15663 0.0
H840 H 0.4339 0.61892 0.15581 0.0
H841 H 0.53449 0.53992 0.13372 0.0
H842 H 0.42896 0.49644 0.176 0.0
H843 H 0.39674 0.51434 0.20136 0.0
H844 H 0.47007 0.5741 0.21905 0.0
H845 H 0.50288 0.55627 0.19395 0.0
C846 C 0.52555 0.39216 0.13158 0.0
C847 C 0.53427 0.37445 0.14657 0.0
C848 C 0.51661 0.42298 0.13371 0.0
C849 C 0.51759 0.43705 0.15078 0.0
C850 C 0.5245 0.41875 0.16591 0.0
C851 C 0.5325 0.38757 0.16383 0.0
C852 C 0.51332 0.4711 0.15261 0.0
C853 C 0.49305 0.48258 0.16579 0.0
C854 C 0.52939 0.4923 0.14145 0.0
C855 C 0.55396 0.48223 0.12876 0.0
C856 C 0.57942 0.46501 0.13497 0.0
C857 C 0.60231 0.45523 0.12295 0.0
C858 C 0.60013 0.46277 0.1047 0.0
C859 C 0.5751 0.48018 0.09844 0.0
C860 C 0.55211 0.48997 0.1104 0.0
C861 C 0.51255 0.62278 0.15304 0.0
C862 C 0.48183 0.63318 0.15374 0.0
C863 C 0.51917 0.59117 0.15422 0.0
C864 C 0.49514 0.56931 0.15567 0.0
C865 C 0.46438 0.57987 0.15614 0.0
C866 C 0.45783 0.6115 0.15552 0.0
C867 C 0.50213 0.53552 0.15568 0.0
C868 C 0.52295 0.52401 0.1428 0.0
C869 C 0.48779 0.51451 0.16776 0.0
C870 C 0.46827 0.52521 0.18298 0.0
C871 C 0.43826 0.5133 0.18534 0.0
C872 C 0.41988 0.52346 0.19967 0.0
C873 C 0.43131 0.54541 0.21177 0.0
C874 C 0.46119 0.55719 0.20962 0.0
C875 C 0.47968 0.54709 0.19534 0.0
H876 H 0.41704 0.55326 0.22285 0.0
H877 H 0.61788 0.45517 0.09542 0.0
H878 H 0.36577 0.48963 0.65909 0.0
H879 H 0.41744 0.51318 0.66074 0.0
H880 H 0.45916 0.42273 0.65741 0.0
H881 H 0.4079 0.39913 0.65553 0.0
H882 H 0.48619 0.46294 0.68402 0.0
H883 H 0.45637 0.46179 0.62108 0.0
H884 H 0.42149 0.47359 0.59571 0.0
H885 H 0.42908 0.57072 0.6071 0.0
H886 H 0.46364 0.55944 0.63274 0.0
H887 H 0.64128 0.50327 0.66125 0.0
H888 H 0.58956 0.48004 0.66292 0.0
H889 H 0.54854 0.56928 0.65223 0.0
H890 H 0.59985 0.59205 0.64973 0.0
H891 H 0.52013 0.52976 0.63343 0.0
H892 H 0.54979 0.53347 0.69555 0.0
H893 H 0.58296 0.5238 0.72199 0.0
H894 H 0.57415 0.4258 0.71396 0.0
H895 H 0.54124 0.43488 0.68733 0.0
C896 C 0.38597 0.4748 0.65886 0.0
C897 C 0.38285 0.44259 0.65704 0.0
C898 C 0.4154 0.48825 0.65978 0.0
C899 C 0.44203 0.46963 0.65914 0.0
C900 C 0.43888 0.43744 0.65796 0.0
C901 C 0.40958 0.42405 0.65677 0.0
C902 C 0.47327 0.48364 0.65877 0.0
C903 C 0.49381 0.47739 0.67293 0.0
C904 C 0.48281 0.50295 0.64446 0.0
C905 C 0.46231 0.50975 0.62893 0.0
C906 C 0.45039 0.48565 0.61826 0.0
C907 C 0.43072 0.49224 0.60382 0.0
C908 C 0.42301 0.52288 0.59982 0.0
C909 C 0.43503 0.54699 0.61023 0.0
C910 C 0.45468 0.54051 0.62471 0.0
C911 C 0.62115 0.51783 0.65929 0.0
C912 C 0.62456 0.5494 0.65528 0.0
C913 C 0.5916 0.50462 0.66035 0.0
C914 C 0.56501 0.52297 0.65791 0.0
C915 C 0.56858 0.55456 0.65408 0.0
C916 C 0.59798 0.56757 0.65267 0.0
C917 C 0.53339 0.50939 0.65882 0.0
C918 C 0.51269 0.51555 0.64467 0.0
C919 C 0.5236 0.49042 0.67331 0.0
C920 C 0.5433 0.48487 0.68934 0.0
C921 C 0.55511 0.50986 0.69935 0.0
C922 C 0.57383 0.50448 0.71438 0.0
C923 C 0.58072 0.47421 0.71962 0.0
C924 C 0.56883 0.44924 0.70987 0.0
C925 C 0.55012 0.45448 0.69482 0.0
H926 H 0.59522 0.47009 0.73126 0.0
H927 H 0.40777 0.52794 0.58864 0.0
H928 H 0.13131 0.24233 0.07246 0.0
H929 H 0.13542 0.23814 0.03974 0.0
H930 H 0.0675 0.16499 0.03987 0.0
H931 H 0.06328 0.16905 0.07266 0.0
H932 H 0.11379 0.1526 0.01641 0.0
H933 H 0.04661 0.23801 0.02924 0.0
H934 H 0.0313 0.28723 0.04349 0.0
H935 H 0.10728 0.33348 0.01773 0.0
H936 H 0.12332 0.28441 0.00354 0.0
H937 H 0.06846 0.16438 0.92403 0.0
H938 H 0.07107 0.16214 0.95689 0.0
H939 H 0.13883 0.23544 0.95687 0.0
H940 H 0.13647 0.23771 0.92401 0.0
H941 H 0.09316 0.24701 0.98033 0.0
H942 H 0.15909 0.16069 0.9666 0.0
H943 H 0.17296 0.11114 0.95225 0.0
H944 H 0.09756 0.06623 0.97935 0.0
H945 H 0.08297 0.11562 0.99368 0.0
C946 C 0.11723 0.22535 0.06553 0.0
C947 C 0.09671 0.20625 0.07514 0.0
C948 C 0.11966 0.22294 0.04683 0.0
C949 C 0.10139 0.20159 0.03733 0.0
C950 C 0.08178 0.18165 0.04693 0.0
C951 C 0.07943 0.18396 0.06567 0.0
C952 C 0.10188 0.20096 0.01734 0.0
C953 C 0.10897 0.17314 0.0085 0.0
C954 C 0.09603 0.22789 0.00703 0.0
C955 C 0.08635 0.25747 0.01548 0.0
C956 C 0.06019 0.25863 0.02673 0.0
C957 C 0.05136 0.2865 0.03478 0.0
C958 C 0.06835 0.31345 0.03156 0.0
C959 C 0.09417 0.31258 0.02024 0.0
C960 C 0.10313 0.28475 0.01218 0.0
C961 C 0.08435 0.17963 0.931 0.0
C962 C 0.10218 0.20131 0.9214 0.0
C963 C 0.08578 0.17835 0.94979 0.0
C964 C 0.10526 0.19852 0.95935 0.0
C965 C 0.12355 0.21973 0.94978 0.0
C966 C 0.1221 0.22106 0.931 0.0
C967 C 0.10536 0.19871 0.97934 0.0
C968 C 0.0982 0.22647 0.98821 0.0
C969 C 0.11095 0.17168 0.98963 0.0
C970 C 0.11976 0.14193 0.98108 0.0
C971 C 0.14531 0.1403 0.96939 0.0
C972 C 0.15334 0.11223 0.96128 0.0
C973 C 0.13611 0.08557 0.96485 0.0
C974 C 0.11087 0.08691 0.97658 0.0
C975 C 0.10273 0.11492 0.98471 0.0
H976 H 0.14236 0.06386 0.95856 0.0
H977 H 0.06147 0.33501 0.0378 0.0
H978 H 0.76473 0.02407 0.42497 0.0
H979 H 0.76175 0.02518 0.45783 0.0
H980 H 0.77897 0.12352 0.45737 0.0
H981 H 0.78289 0.12244 0.42452 0.0
H982 H 0.81372 0.09445 0.48235 0.0
H983 H 0.70689 0.09609 0.46494 0.0
H984 H 0.66023 0.07796 0.44901 0.0
H985 H 0.66566 0.9908 0.47658 0.0
H986 H 0.71264 0.00826 0.4925 0.0
H987 H 0.77593 0.12118 0.5739 0.0
H988 H 0.77463 0.12285 0.54097 0.0
H989 H 0.75826 0.0244 0.53938 0.0
H990 H 0.75865 0.02269 0.57229 0.0
H991 H 0.72207 0.05503 0.51543 0.0
H992 H 0.8296 0.0524 0.53192 0.0
H993 H 0.87655 0.06997 0.54778 0.0
H994 H 0.86997 0.15849 0.5218 0.0
H995 H 0.8227 0.14157 0.50596 0.0
C996 C 0.76812 0.04589 0.43187 0.0
C997 C 0.77404 0.07318 0.42216 0.0
C998 C 0.76609 0.04654 0.45063 0.0
C999 C 0.76979 0.0745 0.46 0.0
C1000 C 0.77591 0.10173 0.45037 0.0
C1001 C 0.77792 0.10111 0.43161 0.0
C1002 C 0.76791 0.07524 0.47989 0.0
C1003 C 0.79349 0.08629 0.48958 0.0
C1004 C 0.74178 0.06392 0.48929 0.0
C1005 C 0.71346 0.05339 0.47979 0.0
C1006 C 0.69828 0.07297 0.4675 0.0
C1007 C 0.67175 0.06283 0.45849 0.0
C1008 C 0.66003 0.03322 0.46175 0.0
C1009 C 0.67478 0.01372 0.47406 0.0
C1010 C 0.70135 0.02374 0.48309 0.0
C1011 C 0.77166 0.09997 0.56654 0.0
C1012 C 0.76761 0.07176 0.57566 0.0
C1013 C 0.77117 0.10092 0.54774 0.0
C1014 C 0.76674 0.07368 0.53777 0.0
C1015 C 0.76184 0.04565 0.54684 0.0
C1016 C 0.76235 0.04468 0.56562 0.0
C1017 C 0.76788 0.07421 0.51786 0.0
C1018 C 0.74221 0.06335 0.50817 0.0
C1019 C 0.79395 0.08565 0.50845 0.0
C1020 C 0.82243 0.09583 0.51791 0.0
C1021 C 0.83802 0.0757 0.5297 0.0
C1022 C 0.86471 0.08552 0.53867 0.0
C1023 C 0.87619 0.11536 0.53584 0.0
C1024 C 0.86103 0.1354 0.524 0.0
C1025 C 0.8343 0.1257 0.51501 0.0
H1026 H 0.89686 0.12292 0.54279 0.0
H1027 H 0.63948 0.02541 0.45476 0.0
H1028 H 0.91829 0.82727 0.93145 0.0
H1029 H 0.91958 0.82338 0.96424 0.0
H1030 H 0.89943 0.72582 0.96077 0.0
H1031 H 0.89836 0.72945 0.92784 0.0
H1032 H 0.86696 0.75463 0.98815 0.0
H1033 H 0.97185 0.74784 0.96781 0.0
H1034 H 0.01792 0.76413 0.95068 0.0
H1035 H 0.01985 0.85019 0.97957 0.0
H1036 H 0.97348 0.8346 0.99669 0.0
H1037 H 0.91118 0.72584 0.07955 0.0
H1038 H 0.90703 0.72381 0.04668 0.0
H1039 H 0.93253 0.82019 0.04356 0.0
H1040 H 0.93683 0.82232 0.07631 0.0
H1041 H 0.96318 0.78759 0.01919 0.0
H1042 H 0.85692 0.79562 0.03845 0.0
H1043 H 0.81037 0.77985 0.05532 0.0
H1044 H 0.81084 0.69182 0.0285 0.0
H1045 H 0.85767 0.70692 0.01164 0.0
C1046 C 0.91414 0.80496 0.93764 0.0
C1047 C 0.90853 0.7786 0.92703 0.0
C1048 C 0.91482 0.8028 0.95638 0.0
C1049 C 0.91009 0.77421 0.96491 0.0
C1050 C 0.9032 0.74808 0.95443 0.0
C1051 C 0.9025 0.75022 0.93563 0.0
C1052 C 0.91342 0.77161 0.98472 0.0
C1053 C 0.88813 0.76138 0.99495 0.0
C1054 C 0.94093 0.78082 0.99357 0.0
C1055 C 0.96903 0.79014 0.98343 0.0
C1056 C 0.98197 0.77032 0.97042 0.0
C1057 C 0.00815 0.77942 0.96073 0.0
C1058 C 0.02177 0.8082 0.96401 0.0
C1059 C 0.00927 0.82791 0.97703 0.0
C1060 C 0.98305 0.81894 0.98675 0.0
C1061 C 0.9157 0.74663 0.07185 0.0
C1062 C 0.92435 0.77424 0.08053 0.0
C1063 C 0.91332 0.74544 0.05307 0.0
C1064 C 0.9192 0.77193 0.04266 0.0
C1065 C 0.92799 0.79944 0.0513 0.0
C1066 C 0.93053 0.80059 0.07002 0.0
C1067 C 0.9165 0.77119 0.02273 0.0
C1068 C 0.94202 0.78069 0.01243 0.0
C1069 C 0.88919 0.76133 0.01386 0.0
C1070 C 0.86098 0.75227 0.02393 0.0
C1071 C 0.84723 0.77281 0.03626 0.0
C1072 C 0.82078 0.76401 0.0458 0.0
C1073 C 0.8077 0.73482 0.04302 0.0
C1074 C 0.82102 0.7144 0.03066 0.0
C1075 C 0.8475 0.72307 0.0211 0.0
H1076 H 0.78722 0.72805 0.05042 0.0
H1077 H 0.04204 0.8152 0.95649 0.0
H1078 H 0.23805 0.85881 0.42256 0.0
H1079 H 0.23927 0.85807 0.45568 0.0
H1080 H 0.18846 0.94389 0.457 0.0
H1081 H 0.18641 0.94431 0.42398 0.0
H1082 H 0.25371 0.93428 0.47775 0.0
H1083 H 0.14712 0.89817 0.46874 0.0
H1084 H 0.1087 0.86251 0.4556 0.0
H1085 H 0.15509 0.78526 0.47997 0.0
H1086 H 0.19409 0.82048 0.49302 0.0
H1087 H 0.221 0.96307 0.56859 0.0
H1088 H 0.22006 0.95772 0.53605 0.0
H1089 H 0.22339 0.85833 0.54132 0.0
H1090 H 0.22161 0.86337 0.57401 0.0
H1091 H 0.18484 0.8712 0.51661 0.0
H1092 H 0.28801 0.90375 0.52805 0.0
H1093 H 0.32997 0.93579 0.54065 0.0
H1094 H 0.29642 0.01465 0.5114 0.0
H1095 H 0.25398 0.98319 0.49881 0.0
C1096 C 0.22688 0.87728 0.42998 0.0
C1097 C 0.21201 0.90154 0.42083 0.0
C1098 C 0.22758 0.87683 0.4488 0.0
C1099 C 0.21394 0.90092 0.45864 0.0
C1100 C 0.199 0.92509 0.44954 0.0
C1101 C 0.19771 0.92521 0.43076 0.0
C1102 C 0.21623 0.9016 0.47844 0.0
C1103 C 0.23853 0.92079 0.48634 0.0
C1104 C 0.19719 0.88299 0.48942 0.0
C1105 C 0.17373 0.86189 0.48163 0.0
C1106 C 0.14933 0.87355 0.47111 0.0
C1107 C 0.1274 0.85343 0.46373 0.0
C1108 C 0.12952 0.82162 0.46689 0.0
C1109 C 0.15352 0.80989 0.47749 0.0
C1110 C 0.17553 0.82992 0.48489 0.0
C1111 C 0.22106 0.93999 0.56293 0.0
C1112 C 0.22124 0.91365 0.57407 0.0
C1113 C 0.22109 0.93699 0.54422 0.0
C1114 C 0.22225 0.90762 0.53616 0.0
C1115 C 0.22264 0.88126 0.5472 0.0
C1116 C 0.22201 0.88422 0.56594 0.0
C1117 C 0.22209 0.90451 0.51622 0.0
C1118 C 0.20027 0.88471 0.50819 0.0
C1119 C 0.24211 0.92212 0.5051 0.0
C1120 C 0.26765 0.94115 0.5126 0.0
C1121 C 0.28944 0.92798 0.5244 0.0
C1122 C 0.31334 0.94603 0.53153 0.0
C1123 C 0.31582 0.97725 0.52686 0.0
C1124 C 0.29445 0.99047 0.51502 0.0
C1125 C 0.27049 0.97252 0.50787 0.0
H1126 H 0.33434 0.99118 0.53239 0.0
H1127 H 0.11251 0.80609 0.46117 0.0
H1128 H 0.55407 0.31508 0.06967 0.0
H1129 H 0.55653 0.31296 0.03686 0.0
H1130 H 0.59262 0.21994 0.03969 0.0
H1131 H 0.59099 0.22237 0.07267 0.0
H1132 H 0.6233 0.25107 0.01558 0.0
H1133 H 0.51643 0.23483 0.02727 0.0
H1134 H 0.46518 0.24468 0.04066 0.0
H1135 H 0.46099 0.33281 0.01408 0.0
H1136 H 0.51244 0.3237 0.00072 0.0
H1137 H 0.59316 0.22832 0.92064 0.0
H1138 H 0.59263 0.22332 0.95346 0.0
H1139 H 0.57426 0.32098 0.95854 0.0
H1140 H 0.57588 0.32652 0.92585 0.0
H1141 H 0.53324 0.28183 0.97821 0.0
H1142 H 0.64305 0.29691 0.96802 0.0
H1143 H 0.69345 0.28422 0.95431 0.0
H1144 H 0.68996 0.19344 0.97773 0.0
H1145 H 0.6393 0.20546 0.99137 0.0
C1146 C 0.56229 0.2941 0.06327 0.0
C1147 C 0.57215 0.26882 0.07365 0.0
C1148 C 0.56362 0.29286 0.04453 0.0
C1149 C 0.57421 0.26606 0.03579 0.0
C1150 C 0.58429 0.24081 0.04615 0.0
C1151 C 0.58335 0.24221 0.06495 0.0
C1152 C 0.57533 0.26484 0.01584 0.0
C1153 C 0.60342 0.25726 0.00742 0.0
C1154 C 0.54947 0.27312 0.00516 0.0
C1155 C 0.51843 0.27867 0.0131 0.0
C1156 C 0.50469 0.25641 0.02437 0.0
C1157 C 0.47558 0.26185 0.03195 0.0
C1158 C 0.45987 0.28938 0.02825 0.0
C1159 C 0.4732 0.3115 0.01694 0.0
C1160 C 0.50232 0.30619 0.00934 0.0
C1161 C 0.58964 0.24887 0.92872 0.0
C1162 C 0.58446 0.27783 0.92058 0.0
C1163 C 0.58914 0.2459 0.94746 0.0
C1164 C 0.58331 0.27178 0.95834 0.0
C1165 C 0.57857 0.30072 0.95031 0.0
C1166 C 0.57938 0.30379 0.93163 0.0
C1167 C 0.58127 0.26873 0.97811 0.0
C1168 C 0.55295 0.27539 0.98644 0.0
C1169 C 0.60672 0.25912 0.98866 0.0
C1170 C 0.63723 0.25197 0.98054 0.0
C1171 C 0.6529 0.27415 0.97011 0.0
C1172 C 0.68154 0.2671 0.96238 0.0
C1173 C 0.69485 0.23801 0.9651 0.0
C1174 C 0.6796 0.21594 0.9756 0.0
C1175 C 0.65093 0.22287 0.98334 0.0
H1176 H 0.71703 0.23259 0.95911 0.0
H1177 H 0.43734 0.29354 0.03413 0.0
H1178 H 0.77125 0.60771 0.57873 0.0
H1179 H 0.77256 0.61069 0.54579 0.0
H1180 H 0.67648 0.58381 0.54363 0.0
H1181 H 0.67508 0.58072 0.57645 0.0
H1182 H 0.71007 0.5501 0.52097 0.0
H1183 H 0.70025 0.65863 0.53493 0.0
H1184 H 0.71517 0.70769 0.5495 0.0
H1185 H 0.80343 0.70469 0.52302 0.0
H1186 H 0.78918 0.65536 0.50847 0.0
H1187 H 0.67421 0.57916 0.4303 0.0
H1188 H 0.67634 0.5822 0.46311 0.0
H1189 H 0.77276 0.60756 0.46037 0.0
H1190 H 0.77078 0.6046 0.42745 0.0
H1191 H 0.74245 0.64171 0.48539 0.0
H1192 H 0.75237 0.53432 0.47094 0.0
H1193 H 0.73816 0.4851 0.45631 0.0
H1194 H 0.65086 0.48547 0.4839 0.0
H1195 H 0.66436 0.53495 0.4985 0.0
C1196 C 0.75029 0.60294 0.57123 0.0
C1197 C 0.72309 0.59385 0.58018 0.0
C1198 C 0.75108 0.60461 0.5524 0.0
C1199 C 0.72458 0.59756 0.54223 0.0
C1200 C 0.69725 0.58919 0.55118 0.0
C1201 C 0.69649 0.58738 0.56994 0.0
C1202 C 0.72548 0.59746 0.52223 0.0
C1203 C 0.71677 0.57029 0.5132 0.0
C1204 C 0.73523 0.62343 0.51208 0.0
C1205 C 0.74377 0.65314 0.52076 0.0
C1206 C 0.72293 0.6683 0.53233 0.0
C1207 C 0.73125 0.69618 0.54056 0.0
C1208 C 0.76026 0.70926 0.53723 0.0
C1209 C 0.78098 0.69451 0.52561 0.0
C1210 C 0.77279 0.66661 0.51735 0.0
C1211 C 0.69591 0.58528 0.43667 0.0
C1212 C 0.72239 0.59138 0.42627 0.0
C1213 C 0.69708 0.58706 0.45543 0.0
C1214 C 0.72484 0.59464 0.46421 0.0
C1215 C 0.75111 0.60163 0.45388 0.0
C1216 C 0.74992 0.59998 0.43507 0.0
C1217 C 0.72644 0.59455 0.48419 0.0
C1218 C 0.73579 0.62155 0.49319 0.0
C1219 C 0.71739 0.56837 0.49436 0.0
C1220 C 0.70928 0.53849 0.4857 0.0
C1221 C 0.73005 0.52402 0.47379 0.0
C1222 C 0.72214 0.49606 0.46552 0.0
C1223 C 0.6936 0.48221 0.46914 0.0
C1224 C 0.67295 0.49625 0.48109 0.0
C1225 C 0.68073 0.52424 0.48938 0.0
H1226 H 0.68752 0.46056 0.46273 0.0
H1227 H 0.76666 0.73084 0.54361 0.0
H1228 H 0.44686 0.67743 0.07168 0.0
H1229 H 0.44168 0.6759 0.03893 0.0
H1230 H 0.37028 0.74549 0.04149 0.0
H1231 H 0.3747 0.74653 0.07435 0.0
H1232 H 0.35567 0.69954 0.01777 0.0
H1233 H 0.44225 0.76565 0.02976 0.0
H1234 H 0.49236 0.78016 0.0432 0.0
H1235 H 0.53658 0.70489 0.01559 0.0
H1236 H 0.48661 0.68965 0.00218 0.0
H1237 H 0.36279 0.74469 0.92513 0.0
H1238 H 0.36298 0.74341 0.95809 0.0
H1239 H 0.43428 0.67358 0.95711 0.0
H1240 H 0.4347 0.67521 0.92423 0.0
H1241 H 0.44815 0.72032 0.98008 0.0
H1242 H 0.36115 0.65449 0.96793 0.0
H1243 H 0.3109 0.64047 0.95449 0.0
H1244 H 0.26735 0.71597 0.98224 0.0
H1245 H 0.31746 0.73072 0.99565 0.0
C1246 C 0.42978 0.69214 0.0653 0.0
C1247 C 0.41131 0.71223 0.0756 0.0
C1248 C 0.42703 0.69142 0.04658 0.0
C1249 C 0.40588 0.71088 0.03778 0.0
C1250 C 0.38684 0.7304 0.04803 0.0
C1251 C 0.3896 0.73116 0.06677 0.0
C1252 C 0.40411 0.71125 0.01785 0.0
C1253 C 0.37577 0.70447 0.00951 0.0
C1254 C 0.4305 0.71716 0.00711 0.0
C1255 C 0.46062 0.72633 0.0151 0.0
C1256 C 0.46261 0.75204 0.02666 0.0
C1257 C 0.491 0.76042 0.03426 0.0
C1258 C 0.51762 0.74341 0.03029 0.0
C1259 C 0.51593 0.71802 0.01867 0.0
C1260 C 0.48758 0.70951 0.01106 0.0
C1261 C 0.37847 0.72905 0.93194 0.0
C1262 C 0.39873 0.71005 0.92208 0.0
C1263 C 0.37839 0.72817 0.95076 0.0
C1264 C 0.39853 0.70827 0.96003 0.0
C1265 C 0.41851 0.68905 0.95021 0.0
C1266 C 0.41853 0.68983 0.93142 0.0
C1267 C 0.39977 0.70836 0.97997 0.0
C1268 C 0.42803 0.71534 0.98832 0.0
C1269 C 0.37329 0.70273 0.99069 0.0
C1270 C 0.34313 0.6939 0.98265 0.0
C1271 C 0.34091 0.66827 0.97104 0.0
C1272 C 0.31244 0.66016 0.96345 0.0
C1273 C 0.28596 0.67737 0.96746 0.0
C1274 C 0.28789 0.70269 0.97912 0.0
C1275 C 0.31632 0.71092 0.98673 0.0
H1276 H 0.26394 0.67105 0.96158 0.0
H1277 H 0.53959 0.74994 0.03617 0.0
H1278 H 0.24124 0.39019 0.57435 0.0
H1279 H 0.24097 0.38586 0.54155 0.0
H1280 H 0.33996 0.39851 0.5406 0.0
H1281 H 0.34047 0.4026 0.57344 0.0
H1282 H 0.31134 0.43604 0.51692 0.0
H1283 H 0.30776 0.32799 0.53207 0.0
H1284 H 0.28728 0.28154 0.54722 0.0
H1285 H 0.19988 0.29385 0.52066 0.0
H1286 H 0.21971 0.34065 0.50553 0.0
H1287 H 0.33635 0.40482 0.42517 0.0
H1288 H 0.33726 0.40031 0.45797 0.0
H1289 H 0.23846 0.38603 0.45833 0.0
H1290 H 0.23744 0.39032 0.42545 0.0
H1291 H 0.26659 0.34859 0.48231 0.0
H1292 H 0.26867 0.45659 0.46789 0.0
H1293 H 0.28777 0.50376 0.45287 0.0
H1294 H 0.37622 0.49257 0.4784 0.0
H1295 H 0.35777 0.44505 0.49337 0.0
C1296 C 0.26305 0.39142 0.56721 0.0
C1297 C 0.2909 0.39672 0.57654 0.0
C1298 C 0.26283 0.38902 0.54844 0.0
C1299 C 0.29047 0.39167 0.53862 0.0
C1300 C 0.31835 0.39646 0.5479 0.0
C1301 C 0.31859 0.39887 0.56666 0.0
C1302 C 0.29015 0.39103 0.51864 0.0
C1303 C 0.30201 0.41668 0.50935 0.0
C1304 C 0.27706 0.36622 0.50879 0.0
C1305 C 0.26514 0.338 0.5178 0.0
C1306 C 0.2841 0.32094 0.52957 0.0
C1307 C 0.27262 0.29452 0.53813 0.0
C1308 C 0.24227 0.28479 0.53494 0.0
C1309 C 0.22337 0.30143 0.52313 0.0
C1310 C 0.23473 0.32788 0.51455 0.0
C1311 C 0.31483 0.40065 0.43224 0.0
C1312 C 0.28679 0.39819 0.42275 0.0
C1313 C 0.31537 0.39806 0.45097 0.0
C1314 C 0.28784 0.39337 0.46063 0.0
C1315 C 0.25997 0.3897 0.45115 0.0
C1316 C 0.25943 0.3921 0.43237 0.0
C1317 C 0.28806 0.39347 0.48062 0.0
C1318 C 0.27605 0.36785 0.4899 0.0
C1319 C 0.30082 0.41842 0.49051 0.0
C1320 C 0.31193 0.44709 0.48161 0.0
C1321 C 0.29227 0.46406 0.47019 0.0
C1322 C 0.30296 0.49087 0.46171 0.0
C1323 C 0.33321 0.50111 0.46464 0.0
C1324 C 0.3528 0.48458 0.47612 0.0
C1325 C 0.34223 0.45772 0.48462 0.0
H1326 H 0.34145 0.52188 0.45806 0.0
H1327 H 0.23343 0.26433 0.54158 0.0
H1328 H 0.06847 0.26382 0.21327 0.0
H1329 H 0.09192 0.29578 0.23681 0.0
H1330 H 0.15355 0.33611 0.1976 0.0
H1331 H 0.13027 0.30419 0.17401 0.0
H1332 H 0.18415 0.31594 0.22731 0.0
H1333 H 0.09434 0.37789 0.21487 0.0
H1334 H 0.03855 0.38772 0.21095 0.0
H1335 H 0.02185 0.36038 0.26568 0.0
H1336 H 0.07751 0.34995 0.26985 0.0
H1337 H 0.25032 0.42927 0.28294 0.0
H1338 H 0.21899 0.40751 0.25863 0.0
H1339 H 0.15995 0.36303 0.29763 0.0
H1340 H 0.19107 0.38486 0.32207 0.0
H1341 H 0.12709 0.38685 0.26803 0.0
H1342 H 0.21377 0.31794 0.27902 0.0
H1343 H 0.26903 0.30564 0.28348 0.0
H1344 H 0.29073 0.34582 0.23214 0.0
H1345 H 0.23568 0.35886 0.22756 0.0
C1346 C 0.08675 0.27977 0.20963 0.0
C1347 C 0.09747 0.28156 0.19179 0.0
C1348 C 0.10006 0.29809 0.22308 0.0
C1349 C 0.12432 0.3185 0.21893 0.0
C1350 C 0.13478 0.3206 0.20108 0.0
C1351 C 0.12136 0.30243 0.18761 0.0
C1352 C 0.13992 0.33642 0.23335 0.0
C1353 C 0.17176 0.33193 0.23594 0.0
C1354 C 0.12353 0.35643 0.24506 0.0
C1355 C 0.09007 0.36287 0.24262 0.0
C1356 C 0.07874 0.37374 0.22603 0.0
C1357 C 0.04714 0.37946 0.22377 0.0
C1358 C 0.02665 0.37461 0.23804 0.0
C1359 C 0.03774 0.3641 0.25463 0.0
C1360 C 0.06932 0.35831 0.25695 0.0
C1361 C 0.23034 0.41534 0.28637 0.0
C1362 C 0.22327 0.40861 0.30441 0.0
C1363 C 0.21254 0.40283 0.27246 0.0
C1364 C 0.18744 0.38334 0.27636 0.0
C1365 C 0.17925 0.378 0.29436 0.0
C1366 C 0.19709 0.39047 0.30829 0.0
C1367 C 0.17131 0.3667 0.26167 0.0
C1368 C 0.13944 0.37119 0.25917 0.0
C1369 C 0.18755 0.34655 0.25004 0.0
C1370 C 0.22067 0.33916 0.25288 0.0
C1371 C 0.23038 0.32424 0.26872 0.0
C1372 C 0.26165 0.31721 0.2713 0.0
C1373 C 0.28337 0.32495 0.25812 0.0
C1374 C 0.27388 0.33978 0.24233 0.0
C1375 C 0.24265 0.34693 0.23971 0.0
H1376 H 0.30756 0.31946 0.26014 0.0
H1377 H 0.0022 0.37904 0.23626 0.0
H1378 H 0.67929 0.08364 0.68204 0.0
H1379 H 0.64732 0.10893 0.70496 0.0
H1380 H 0.72981 0.13291 0.73476 0.0
H1381 H 0.76133 0.10572 0.71261 0.0
H1382 H 0.69005 0.12129 0.75736 0.0
H1383 H 0.68961 0.18509 0.70529 0.0
H1384 H 0.68271 0.19862 0.67328 0.0
H1385 H 0.586 0.17673 0.67689 0.0
H1386 H 0.59239 0.16271 0.7089 0.0
H1387 H 0.5998 0.27166 0.78145 0.0
H1388 H 0.62371 0.23893 0.75858 0.0
H1389 H 0.60433 0.1581 0.79091 0.0
H1390 H 0.58242 0.19124 0.8144 0.0
H1391 H 0.6112 0.1971 0.73714 0.0
H1392 H 0.65821 0.10465 0.78729 0.0
H1393 H 0.67621 0.10141 0.81879 0.0
H1394 H 0.69823 0.19827 0.81822 0.0
H1395 H 0.68043 0.20209 0.78674 0.0
C1396 C 0.69039 0.09393 0.69368 0.0
C1397 C 0.72263 0.0928 0.69566 0.0
C1398 C 0.6722 0.10861 0.70667 0.0
C1399 C 0.68614 0.12349 0.72144 0.0
C1400 C 0.71839 0.12157 0.72357 0.0
C1401 C 0.73643 0.10606 0.7109 0.0
C1402 C 0.66746 0.14184 0.7344 0.0
C1403 C 0.67276 0.1378 0.7529 0.0
C1404 C 0.64553 0.16414 0.72867 0.0
C1405 C 0.64155 0.17253 0.70943 0.0
C1406 C 0.66691 0.18296 0.69922 0.0
C1407 C 0.66309 0.19074 0.68109 0.0
C1408 C 0.63396 0.18845 0.67304 0.0
C1409 C 0.60856 0.17844 0.68314 0.0
C1410 C 0.61226 0.17059 0.70128 0.0
C1411 C 0.6003 0.24685 0.78353 0.0
C1412 C 0.58954 0.23388 0.79966 0.0
C1413 C 0.61396 0.22812 0.77045 0.0
C1414 C 0.61649 0.19603 0.77314 0.0
C1415 C 0.60358 0.18287 0.78874 0.0
C1416 C 0.59081 0.20172 0.80208 0.0
C1417 C 0.63403 0.17675 0.76008 0.0
C1418 C 0.62838 0.18047 0.74158 0.0
C1419 C 0.65723 0.15573 0.76575 0.0
C1420 C 0.66762 0.15369 0.78475 0.0
C1421 C 0.66686 0.12524 0.79391 0.0
C1422 C 0.67699 0.12333 0.81176 0.0
C1423 C 0.68817 0.14967 0.82053 0.0
C1424 C 0.68932 0.17797 0.81146 0.0
C1425 C 0.67915 0.18003 0.79363 0.0
H1426 H 0.69607 0.14813 0.83433 0.0
H1427 H 0.63104 0.19449 0.659 0.0
H1428 H 0.81299 0.58881 0.31708 0.0
H1429 H 0.84301 0.61696 0.29438 0.0
H1430 H 0.75804 0.64668 0.26904 0.0
H1431 H 0.72839 0.61646 0.2908 0.0
H1432 H 0.79512 0.63808 0.24444 0.0
H1433 H 0.80435 0.69314 0.29982 0.0
H1434 H 0.81609 0.70092 0.33203 0.0
H1435 H 0.91118 0.67737 0.32257 0.0
H1436 H 0.89997 0.66894 0.29037 0.0
H1437 H 0.85689 0.76888 0.19942 0.0
H1438 H 0.83013 0.73843 0.22248 0.0
H1439 H 0.91472 0.68885 0.23351 0.0
H1440 H 0.94149 0.71932 0.21017 0.0
H1441 H 0.87925 0.70774 0.26504 0.0
H1442 H 0.86427 0.65726 0.2069 0.0
H1443 H 0.84762 0.65693 0.17514 0.0
H1444 H 0.75532 0.68138 0.19112 0.0
H1445 H 0.77163 0.68277 0.22292 0.0
C1446 C 0.80094 0.60083 0.30637 0.0
C1447 C 0.76855 0.60028 0.30546 0.0
C1448 C 0.81801 0.61729 0.29356 0.0
C1449 C 0.80287 0.63473 0.28019 0.0
C1450 C 0.7704 0.63345 0.27912 0.0
C1451 C 0.75343 0.6161 0.29152 0.0
C1452 C 0.82061 0.65467 0.26749 0.0
C1453 C 0.81324 0.65351 0.24907 0.0
C1454 C 0.84442 0.67494 0.27336 0.0
C1455 C 0.85125 0.68009 0.29271 0.0
C1456 C 0.82772 0.68941 0.30463 0.0
C1457 C 0.83428 0.69396 0.32288 0.0
C1458 C 0.86432 0.68959 0.32934 0.0
C1459 C 0.88791 0.68071 0.31755 0.0
C1460 C 0.88148 0.67604 0.2993 0.0
C1461 C 0.86975 0.75168 0.20692 0.0
C1462 C 0.90107 0.74623 0.20318 0.0
C1463 C 0.85451 0.73434 0.22004 0.0
C1464 C 0.87042 0.71125 0.22956 0.0
C1465 C 0.90211 0.7066 0.22628 0.0
C1466 C 0.91733 0.72389 0.21303 0.0
C1467 C 0.85355 0.69096 0.24225 0.0
C1468 C 0.86112 0.69214 0.26058 0.0
C1469 C 0.82906 0.67169 0.23643 0.0
C1470 C 0.81925 0.67033 0.21729 0.0
C1471 C 0.8405 0.66283 0.20363 0.0
C1472 C 0.83112 0.66249 0.18561 0.0
C1473 C 0.80046 0.66925 0.1811 0.0
C1474 C 0.77909 0.67625 0.19461 0.0
C1475 C 0.78839 0.67686 0.21263 0.0
H1476 H 0.79325 0.66899 0.16714 0.0
H1477 H 0.86934 0.69314 0.34346 0.0
H1478 H 0.4106 0.7446 0.78205 0.0
H1479 H 0.38699 0.77649 0.75856 0.0
H1480 H 0.36325 0.84555 0.79813 0.0
H1481 H 0.38636 0.81349 0.82183 0.0
H1482 H 0.32188 0.79477 0.76076 0.0
H1483 H 0.37145 0.91656 0.7725 0.0
H1484 H 0.41909 0.94118 0.78393 0.0
H1485 H 0.47215 0.862 0.7676 0.0
H1486 H 0.42493 0.83714 0.75584 0.0
H1487 H 0.23079 0.90778 0.71602 0.0
H1488 H 0.2629 0.88594 0.74007 0.0
H1489 H 0.33861 0.87541 0.70275 0.0
H1490 H 0.30652 0.89674 0.67857 0.0
H1491 H 0.35544 0.89795 0.73882 0.0
H1492 H 0.2969 0.81787 0.70821 0.0
H1493 H 0.24923 0.79308 0.69719 0.0
H1494 H 0.21489 0.78688 0.75133 0.0
H1495 H 0.26208 0.81246 0.76263 0.0
C1496 C 0.40083 0.7668 0.78572 0.0
C1497 C 0.4002 0.77656 0.80375 0.0
C1498 C 0.38729 0.7849 0.77231 0.0
C1499 C 0.37348 0.81326 0.77669 0.0
C1500 C 0.374 0.82376 0.79454 0.0
C1501 C 0.38714 0.80543 0.80803 0.0
C1502 C 0.35634 0.83058 0.76279 0.0
C1503 C 0.32917 0.81734 0.75597 0.0
C1504 C 0.36595 0.86 0.75668 0.0
C1505 C 0.39458 0.87486 0.76349 0.0
C1506 C 0.3933 0.90446 0.7713 0.0
C1507 C 0.42023 0.91845 0.77784 0.0
C1508 C 0.44861 0.90312 0.77655 0.0
C1509 C 0.45013 0.8738 0.76867 0.0
C1510 C 0.42328 0.85972 0.7621 0.0
C1511 C 0.25443 0.90126 0.71302 0.0
C1512 C 0.26615 0.90371 0.69543 0.0
C1513 C 0.27269 0.88883 0.72674 0.0
C1514 C 0.303 0.87906 0.7231 0.0
C1515 C 0.31528 0.88297 0.70578 0.0
C1516 C 0.29689 0.89495 0.69199 0.0
C1517 C 0.32092 0.86214 0.73685 0.0
C1518 C 0.3481 0.87545 0.74369 0.0
C1519 C 0.3113 0.83274 0.74306 0.0
C1520 C 0.28289 0.81742 0.73623 0.0
C1521 C 0.27905 0.81155 0.71774 0.0
C1522 C 0.25211 0.79729 0.71145 0.0
C1523 C 0.22902 0.78839 0.72356 0.0
C1524 C 0.23278 0.79382 0.74197 0.0
C1525 C 0.2596 0.80824 0.74832 0.0
H1526 H 0.20824 0.77721 0.71872 0.0
H1527 H 0.46942 0.91398 0.78163 0.0
H1528 H 0.9129 0.68557 0.82267 0.0
H1529 H 0.89393 0.65043 0.79926 0.0
H1530 H 0.87451 0.72889 0.76501 0.0
H1531 H 0.89558 0.76355 0.78784 0.0
H1532 H 0.84234 0.64133 0.78672 0.0
H1533 H 0.87133 0.71292 0.72191 0.0
H1534 H 0.91363 0.74568 0.71038 0.0
H1535 H 0.97759 0.7015 0.74639 0.0
H1536 H 0.93578 0.66818 0.75797 0.0
H1537 H 0.73796 0.60309 0.71825 0.0
H1538 H 0.7711 0.62559 0.7414 0.0
H1539 H 0.85187 0.60248 0.70984 0.0
H1540 H 0.81827 0.58235 0.68598 0.0
H1541 H 0.86125 0.65433 0.72133 0.0
H1542 H 0.82939 0.56409 0.75198 0.0
H1543 H 0.79382 0.52432 0.76373 0.0
H1544 H 0.74847 0.59264 0.79638 0.0
H1545 H 0.78349 0.63292 0.78464 0.0
C1546 C 0.90521 0.6951 0.80994 0.0
C1547 C 0.90602 0.72713 0.80691 0.0
C1548 C 0.8942 0.67507 0.7966 0.0
C1549 C 0.88306 0.6868 0.78016 0.0
C1550 C 0.88388 0.71896 0.77724 0.0
C1551 C 0.89578 0.73885 0.79034 0.0
C1552 C 0.86868 0.66581 0.76659 0.0
C1553 C 0.84676 0.64399 0.77243 0.0
C1554 C 0.87497 0.66838 0.74793 0.0
C1555 C 0.90033 0.6882 0.7409 0.0
C1556 C 0.89444 0.71008 0.7273 0.0
C1557 C 0.91834 0.72878 0.72077 0.0
C1558 C 0.94826 0.72573 0.72767 0.0
C1559 C 0.95438 0.70391 0.74109 0.0
C1560 C 0.93058 0.68514 0.74766 0.0
C1561 C 0.76284 0.60241 0.71645 0.0
C1562 C 0.7757 0.59079 0.7005 0.0
C1563 C 0.78185 0.61511 0.72974 0.0
C1564 C 0.81423 0.61527 0.72767 0.0
C1565 C 0.82705 0.60276 0.71185 0.0
C1566 C 0.80792 0.59106 0.69826 0.0
C1567 C 0.83439 0.63033 0.74143 0.0
C1568 C 0.85728 0.65118 0.73562 0.0
C1569 C 0.8301 0.62572 0.76016 0.0
C1570 C 0.80898 0.60157 0.76733 0.0
C1571 C 0.81172 0.57067 0.76158 0.0
C1572 C 0.79166 0.54803 0.76825 0.0
C1573 C 0.76887 0.55596 0.78077 0.0
C1574 C 0.76613 0.58653 0.78668 0.0
C1575 C 0.78612 0.60927 0.78004 0.0
H1576 H 0.75336 0.5384 0.78592 0.0
H1577 H 0.96672 0.74025 0.72261 0.0
H1578 H 0.24677 0.92159 0.28066 0.0
H1579 H 0.27858 0.89832 0.25702 0.0
H1580 H 0.34115 0.86265 0.29725 0.0
H1581 H 0.30958 0.88594 0.32095 0.0
H1582 H 0.37209 0.88377 0.26764 0.0
H1583 H 0.28791 0.81729 0.28138 0.0
H1584 H 0.23362 0.80212 0.28632 0.0
H1585 H 0.21234 0.82294 0.23117 0.0
H1586 H 0.26644 0.83899 0.22597 0.0
H1587 H 0.43278 0.75629 0.21561 0.0
H1588 H 0.4083 0.78845 0.23881 0.0
H1589 H 0.35302 0.83329 0.19811 0.0
H1590 H 0.37758 0.80167 0.17487 0.0
H1591 H 0.31931 0.8077 0.22808 0.0
H1592 H 0.40738 0.87329 0.21554 0.0
H1593 H 0.46307 0.88434 0.21226 0.0
H1594 H 0.47825 0.85887 0.26745 0.0
H1595 H 0.42269 0.84723 0.27098 0.0
C1596 C 0.26758 0.90925 0.28444 0.0
C1597 C 0.27559 0.90536 0.30263 0.0
C1598 C 0.28564 0.89588 0.27095 0.0
C1599 C 0.31192 0.87844 0.27545 0.0
C1600 C 0.3209 0.87598 0.29353 0.0
C1601 C 0.3028 0.88924 0.30704 0.0
C1602 C 0.32893 0.86119 0.26141 0.0
C1603 C 0.36063 0.86697 0.25907 0.0
C1604 C 0.31386 0.83925 0.25029 0.0
C1605 C 0.28119 0.82981 0.25335 0.0
C1606 C 0.2716 0.81904 0.27035 0.0
C1607 C 0.24087 0.81023 0.2732 0.0
C1608 C 0.21953 0.81173 0.2591 0.0
C1609 C 0.22889 0.82194 0.2421 0.0
C1610 C 0.2596 0.83093 0.2392 0.0
C1611 C 0.41574 0.77333 0.21161 0.0
C1612 C 0.40709 0.77654 0.19347 0.0
C1613 C 0.40184 0.79165 0.22484 0.0
C1614 C 0.37892 0.81315 0.22009 0.0
C1615 C 0.37069 0.81679 0.20197 0.0
C1616 C 0.38486 0.79883 0.18874 0.0
C1617 C 0.36227 0.8307 0.23412 0.0
C1618 C 0.33065 0.82474 0.23654 0.0
C1619 C 0.37755 0.85192 0.24554 0.0
C1620 C 0.41092 0.85909 0.24347 0.0
C1621 C 0.42264 0.86978 0.22693 0.0
C1622 C 0.45417 0.87621 0.22504 0.0
C1623 C 0.4742 0.87223 0.23963 0.0
C1624 C 0.46272 0.8619 0.25615 0.0
C1625 C 0.4312 0.85541 0.25811 0.0
H1626 H 0.49861 0.87721 0.23813 0.0
H1627 H 0.19577 0.80489 0.26135 0.0
H1628 H 0.07936 0.24853 0.78166 0.0
H1629 H 0.10258 0.28059 0.75809 0.0
H1630 H 0.15512 0.33004 0.79825 0.0
H1631 H 0.13174 0.29839 0.82188 0.0
H1632 H 0.13156 0.36912 0.77388 0.0
H1633 H 0.18664 0.27358 0.77336 0.0
H1634 H 0.19663 0.21772 0.77091 0.0
H1635 H 0.15992 0.2175 0.7172 0.0
H1636 H 0.14963 0.27346 0.71932 0.0
H1637 H 0.24839 0.43114 0.71532 0.0
H1638 H 0.21782 0.4063 0.73897 0.0
H1639 H 0.16321 0.35968 0.69862 0.0
H1640 H 0.19373 0.38424 0.67492 0.0
H1641 H 0.18748 0.31984 0.72312 0.0
H1642 H 0.13162 0.41601 0.72434 0.0
H1643 H 0.12608 0.47267 0.7265 0.0
H1644 H 0.16699 0.47126 0.77919 0.0
H1645 H 0.17318 0.41461 0.77724 0.0
C1646 C 0.09565 0.26641 0.78547 0.0
C1647 C 0.10371 0.27096 0.80361 0.0
C1648 C 0.10903 0.28459 0.77199 0.0
C1649 C 0.13084 0.30746 0.7764 0.0
C1650 C 0.13834 0.31253 0.79455 0.0
C1651 C 0.12495 0.29441 0.80803 0.0
C1652 C 0.1461 0.32592 0.7621 0.0
C1653 C 0.14403 0.35834 0.76286 0.0
C1654 C 0.16202 0.31181 0.7476 0.0
C1655 C 0.16714 0.27782 0.74656 0.0
C1656 C 0.18047 0.26166 0.76107 0.0
C1657 C 0.18624 0.22993 0.75973 0.0
C1658 C 0.17884 0.21401 0.74394 0.0
C1659 C 0.16563 0.22981 0.72944 0.0
C1660 C 0.15986 0.26158 0.7307 0.0
C1661 C 0.22939 0.41619 0.71148 0.0
C1662 C 0.22351 0.4096 0.69325 0.0
C1663 C 0.21194 0.40201 0.72501 0.0
C1664 C 0.18828 0.38111 0.72054 0.0
C1665 C 0.18142 0.37568 0.70235 0.0
C1666 C 0.19878 0.38989 0.68882 0.0
C1667 C 0.17246 0.36291 0.73474 0.0
C1668 C 0.17469 0.33054 0.73404 0.0
C1669 C 0.15691 0.37703 0.74934 0.0
C1670 C 0.15312 0.41109 0.75056 0.0
C1671 C 0.13967 0.4278 0.73632 0.0
C1672 C 0.13636 0.45992 0.73753 0.0
C1673 C 0.14624 0.47557 0.75296 0.0
C1674 C 0.15938 0.45912 0.76724 0.0
C1675 C 0.16276 0.427 0.7661 0.0
H1676 H 0.14367 0.50043 0.75386 0.0
H1677 H 0.18342 0.18945 0.74293 0.0
H1678 H 0.72654 0.14425 0.31815 0.0
H1679 H 0.69776 0.17118 0.29469 0.0
H1680 H 0.70746 0.0917 0.25981 0.0
H1681 H 0.7388 0.0658 0.28293 0.0
H1682 H 0.71408 0.13916 0.24084 0.0
H1683 H 0.63721 0.1115 0.28434 0.0
H1684 H 0.61362 0.10817 0.31452 0.0
H1685 H 0.61033 0.20733 0.31769 0.0
H1686 H 0.63415 0.21124 0.28759 0.0
H1687 H 0.60156 0.19198 0.17884 0.0
H1688 H 0.6269 0.16148 0.2023 0.0
H1689 H 0.62959 0.24193 0.23675 0.0
H1690 H 0.60289 0.27216 0.21357 0.0
H1691 H 0.61534 0.192 0.25545 0.0
H1692 H 0.69134 0.21634 0.20914 0.0
H1693 H 0.71112 0.21499 0.17797 0.0
H1694 H 0.71309 0.11585 0.17934 0.0
H1695 H 0.69212 0.11636 0.2102 0.0
C1696 C 0.7224 0.13256 0.30547 0.0
C1697 C 0.73441 0.10291 0.30231 0.0
C1698 C 0.70575 0.14784 0.29211 0.0
C1699 C 0.69953 0.13315 0.27564 0.0
C1700 C 0.71177 0.10346 0.27245 0.0
C1701 C 0.72948 0.08861 0.28562 0.0
C1702 C 0.68079 0.14904 0.26167 0.0
C1703 C 0.69224 0.15028 0.244 0.0
C1704 C 0.65245 0.16396 0.26578 0.0
C1705 C 0.63772 0.16165 0.28378 0.0
C1706 C 0.63159 0.13259 0.29151 0.0
C1707 C 0.61815 0.1306 0.3086 0.0
C1708 C 0.61055 0.15752 0.31803 0.0
C1709 C 0.61626 0.18649 0.31037 0.0
C1710 C 0.62969 0.18861 0.29329 0.0
C1711 C 0.60734 0.20304 0.1915 0.0
C1712 C 0.60051 0.2344 0.19443 0.0
C1713 C 0.62194 0.18566 0.20484 0.0
C1714 C 0.63083 0.19964 0.22109 0.0
C1715 C 0.62309 0.23075 0.22425 0.0
C1716 C 0.60786 0.24798 0.21104 0.0
C1717 C 0.64868 0.18211 0.23471 0.0
C1718 C 0.63711 0.1807 0.25232 0.0
C1719 C 0.67653 0.16643 0.23042 0.0
C1720 C 0.68989 0.16639 0.21198 0.0
C1721 C 0.6958 0.19424 0.20278 0.0
C1722 C 0.70723 0.19364 0.18516 0.0
C1723 C 0.71348 0.16544 0.17673 0.0
C1724 C 0.70824 0.1377 0.18588 0.0
C1725 C 0.69649 0.13812 0.20341 0.0
H1726 H 0.72237 0.16509 0.16311 0.0
H1727 H 0.60017 0.15593 0.33126 0.0
H1728 H 0.45416 0.19765 0.17997 0.0
H1729 H 0.3982 0.1916 0.1834 0.0
H1730 H 0.38402 0.27959 0.15716 0.0
H1731 H 0.44036 0.28609 0.15439 0.0
H1732 H 0.34119 0.27102 0.18249 0.0
H1733 H 0.38118 0.21166 0.13335 0.0
H1734 H 0.41565 0.17413 0.11842 0.0
H1735 H 0.38204 0.10188 0.15295 0.0
H1736 H 0.34769 0.13911 0.16828 0.0
H1737 H 0.1891 0.24266 0.15262 0.0
H1738 H 0.24434 0.25184 0.15323 0.0
H1739 H 0.25828 0.16549 0.18116 0.0
H1740 H 0.20286 0.15502 0.17971 0.0
H1741 H 0.30091 0.17398 0.15541 0.0
H1742 H 0.25853 0.23662 0.20377 0.0
H1743 H 0.2209 0.27502 0.21492 0.0
H1744 H 0.25736 0.34286 0.17841 0.0
H1745 H 0.29501 0.30477 0.1669 0.0
C1746 C 0.43902 0.21591 0.17528 0.0
C1747 C 0.4513 0.24215 0.16677 0.0
C1748 C 0.40713 0.21243 0.17716 0.0
C1749 C 0.3869 0.23474 0.17007 0.0
C1750 C 0.3992 0.262 0.16262 0.0
C1751 C 0.43127 0.26575 0.16106 0.0
C1752 C 0.3532 0.22836 0.16919 0.0
C1753 C 0.33238 0.24991 0.17647 0.0
C1754 C 0.34164 0.20075 0.16137 0.0
C1755 C 0.36209 0.17824 0.15208 0.0
C1756 C 0.3813 0.18781 0.13784 0.0
C1757 C 0.4008 0.16659 0.1293 0.0
C1758 C 0.4011 0.13566 0.13476 0.0
C1759 C 0.38182 0.12586 0.14875 0.0
C1760 C 0.36232 0.14701 0.15737 0.0
C1761 C 0.20364 0.2252 0.15867 0.0
C1762 C 0.19109 0.19804 0.16622 0.0
C1763 C 0.2354 0.23079 0.15921 0.0
C1764 C 0.25537 0.20974 0.16763 0.0
C1765 C 0.24321 0.18224 0.17476 0.0
C1766 C 0.21141 0.17641 0.17404 0.0
C1767 C 0.28895 0.21638 0.16892 0.0
C1768 C 0.30976 0.19492 0.16163 0.0
C1769 C 0.30039 0.24425 0.17647 0.0
C1770 C 0.27939 0.26777 0.18437 0.0
C1771 C 0.25855 0.25975 0.19815 0.0
C1772 C 0.23718 0.28144 0.2045 0.0
C1773 C 0.23657 0.31126 0.19724 0.0
C1774 C 0.25778 0.31969 0.18393 0.0
C1775 C 0.27919 0.29809 0.17753 0.0
H1776 H 0.21962 0.32785 0.20188 0.0
H1777 H 0.41621 0.11926 0.12813 0.0
H1778 H 0.74102 0.18441 0.66375 0.0
H1779 H 0.72865 0.23902 0.66762 0.0
H1780 H 0.8259 0.2614 0.66711 0.0
H1781 H 0.83859 0.20656 0.66391 0.0
H1782 H 0.79497 0.29415 0.69273 0.0
H1783 H 0.78171 0.27006 0.62942 0.0
H1784 H 0.75968 0.24089 0.60391 0.0
H1785 H 0.66804 0.26746 0.62003 0.0
H1786 H 0.68954 0.2965 0.64578 0.0
H1787 H 0.80504 0.44786 0.66328 0.0
H1788 H 0.80657 0.39201 0.6677 0.0
H1789 H 0.7068 0.38912 0.66822 0.0
H1790 H 0.70518 0.4454 0.66348 0.0
H1791 H 0.73154 0.34566 0.64577 0.0
H1792 H 0.74542 0.37614 0.70656 0.0
H1793 H 0.76739 0.40538 0.73204 0.0
H1794 H 0.8571 0.36703 0.72117 0.0
H1795 H 0.83579 0.33789 0.69544 0.0
C1796 C 0.75988 0.20077 0.66476 0.0
C1797 C 0.7909 0.19098 0.66344 0.0
C1798 C 0.7527 0.23208 0.66681 0.0
C1799 C 0.77633 0.25431 0.66744 0.0
C1800 C 0.80729 0.24462 0.66661 0.0
C1801 C 0.81451 0.21329 0.66459 0.0
C1802 C 0.7689 0.28779 0.66831 0.0
C1803 C 0.78128 0.30549 0.68242 0.0
C1804 C 0.75011 0.30235 0.65518 0.0
C1805 C 0.7372 0.28517 0.63962 0.0
C1806 C 0.75685 0.2695 0.62759 0.0
C1807 C 0.74447 0.25302 0.61308 0.0
C1808 C 0.71248 0.25225 0.61038 0.0
C1809 C 0.69281 0.26804 0.62216 0.0
C1810 C 0.70508 0.28454 0.6367 0.0
C1811 C 0.78341 0.43538 0.66436 0.0
C1812 C 0.75498 0.45096 0.6629 0.0
C1813 C 0.78431 0.40348 0.66708 0.0
C1814 C 0.7568 0.38642 0.66845 0.0
C1815 C 0.72829 0.4019 0.66728 0.0
C1816 C 0.72739 0.434 0.66468 0.0
C1817 C 0.75828 0.35222 0.66996 0.0
C1818 C 0.7448 0.33433 0.65628 0.0
C1819 C 0.77602 0.33749 0.6835 0.0
C1820 C 0.78902 0.35497 0.69898 0.0
C1821 C 0.76989 0.37412 0.70951 0.0
C1822 C 0.78222 0.39065 0.72401 0.0
C1823 C 0.81363 0.38811 0.7282 0.0
C1824 C 0.83277 0.36898 0.7179 0.0
C1825 C 0.82057 0.35241 0.70337 0.0
H1826 H 0.82313 0.40092 0.73944 0.0
H1827 H 0.70293 0.23947 0.59914 0.0
H1828 H 0.55348 0.80384 0.17185 0.0
H1829 H 0.60831 0.80552 0.17983 0.0
H1830 H 0.61151 0.70574 0.1797 0.0
H1831 H 0.55638 0.70405 0.17159 0.0
H1832 H 0.64783 0.78125 0.20665 0.0
H1833 H 0.67791 0.68742 0.15585 0.0
H1834 H 0.65517 0.66062 0.12962 0.0
H1835 H 0.60354 0.74232 0.11617 0.0
H1836 H 0.62629 0.76966 0.14216 0.0
H1837 H 0.81658 0.75081 0.17148 0.0
H1838 H 0.76349 0.73376 0.17599 0.0
H1839 H 0.73358 0.82864 0.1799 0.0
H1840 H 0.7865 0.84617 0.17468 0.0
H1841 H 0.71269 0.74476 0.15574 0.0
H1842 H 0.67464 0.83265 0.21182 0.0
H1843 H 0.69841 0.85951 0.23764 0.0
H1844 H 0.76873 0.78958 0.2408 0.0
H1845 H 0.74486 0.76171 0.21543 0.0
C1846 C 0.56578 0.78228 0.17383 0.0
C1847 C 0.55093 0.75383 0.17085 0.0
C1848 C 0.59698 0.78325 0.17857 0.0
C1849 C 0.614 0.75578 0.1802 0.0
C1850 C 0.59874 0.72721 0.17845 0.0
C1851 C 0.56733 0.72625 0.17386 0.0
C1852 C 0.64819 0.75757 0.18114 0.0
C1853 C 0.66213 0.77328 0.19558 0.0
C1854 C 0.66684 0.74632 0.16692 0.0
C1855 C 0.65347 0.73037 0.15106 0.0
C1856 C 0.66175 0.69964 0.14725 0.0
C1857 C 0.64887 0.68437 0.13243 0.0
C1858 C 0.62782 0.69971 0.12128 0.0
C1859 C 0.61974 0.73042 0.12486 0.0
C1860 C 0.63261 0.7458 0.13963 0.0
C1861 C 0.79883 0.76823 0.17305 0.0
C1862 C 0.80599 0.80005 0.17257 0.0
C1863 C 0.76847 0.7583 0.17585 0.0
C1864 C 0.74474 0.77986 0.17857 0.0
C1865 C 0.7517 0.81157 0.17818 0.0
C1866 C 0.782 0.82156 0.17519 0.0
C1867 C 0.71234 0.76944 0.18095 0.0
C1868 C 0.69871 0.75211 0.1671 0.0
C1869 C 0.69414 0.7791 0.19578 0.0
C1870 C 0.7081 0.79526 0.2115 0.0
C1871 C 0.69504 0.82285 0.21808 0.0
C1872 C 0.70857 0.83829 0.23264 0.0
C1873 C 0.7352 0.8264 0.24076 0.0
C1874 C 0.74827 0.79894 0.2344 0.0
C1875 C 0.73468 0.78326 0.21995 0.0
H1876 H 0.74557 0.83833 0.25207 0.0
H1877 H 0.61784 0.68784 0.10984 0.0
H1878 H 0.25256 0.54075 0.68231 0.0
H1879 H 0.24424 0.59606 0.68865 0.0
H1880 H 0.25289 0.61643 0.63203 0.0
H1881 H 0.26042 0.56126 0.62567 0.0
H1882 H 0.28587 0.65863 0.65798 0.0
H1883 H 0.18555 0.61011 0.64518 0.0
H1884 H 0.14498 0.57122 0.65097 0.0
H1885 H 0.1367 0.60316 0.70551 0.0
H1886 H 0.17759 0.64196 0.7001 0.0
H1887 H 0.21986 0.80235 0.63948 0.0
H1888 H 0.23483 0.74798 0.64037 0.0
H1889 H 0.19083 0.7382 0.69223 0.0
H1890 H 0.17498 0.79252 0.69109 0.0
H1891 H 0.17875 0.68999 0.67375 0.0
H1892 H 0.27269 0.74112 0.68766 0.0
H1893 H 0.31444 0.77969 0.68454 0.0
H1894 H 0.3375 0.74298 0.63253 0.0
H1895 H 0.29564 0.70444 0.63524 0.0
C1896 C 0.25318 0.55721 0.67132 0.0
C1897 C 0.25699 0.54697 0.65351 0.0
C1898 C 0.24835 0.58863 0.67493 0.0
C1899 C 0.24792 0.61016 0.66078 0.0
C1900 C 0.25323 0.60011 0.6431 0.0
C1901 C 0.25737 0.56871 0.63948 0.0
C1902 C 0.23983 0.6429 0.66405 0.0
C1903 C 0.26247 0.66562 0.66137 0.0
C1904 C 0.20959 0.65175 0.66913 0.0
C1905 C 0.18486 0.62863 0.6723 0.0
C1906 C 0.17528 0.60863 0.65845 0.0
C1907 C 0.15219 0.58665 0.66165 0.0
C1908 C 0.13834 0.58465 0.67861 0.0
C1909 C 0.14749 0.60469 0.69239 0.0
C1910 C 0.17061 0.62668 0.68926 0.0
C1911 C 0.21351 0.78864 0.65111 0.0
C1912 C 0.19652 0.8018 0.66529 0.0
C1913 C 0.22222 0.75758 0.65167 0.0
C1914 C 0.21473 0.7391 0.66661 0.0
C1915 C 0.19708 0.75198 0.68061 0.0
C1916 C 0.18793 0.78301 0.67992 0.0
C1917 C 0.22466 0.70617 0.66726 0.0
C1918 C 0.20235 0.68327 0.67066 0.0
C1919 C 0.25545 0.69716 0.66329 0.0
C1920 C 0.28084 0.7201 0.6616 0.0
C1921 C 0.28651 0.74146 0.6755 0.0
C1922 C 0.31021 0.76328 0.67381 0.0
C1923 C 0.32853 0.76386 0.65832 0.0
C1924 C 0.32326 0.74253 0.64451 0.0
C1925 C 0.29959 0.72065 0.64613 0.0
H1926 H 0.34686 0.78079 0.65704 0.0
H1927 H 0.12047 0.56762 0.68107 0.0
H1928 H 0.95043 0.20894 0.84246 0.0
H1929 H 0.894 0.21281 0.83941 0.0
H1930 H 0.90229 0.31113 0.8305 0.0
H1931 H 0.95832 0.30736 0.8336 0.0
H1932 H 0.86023 0.29905 0.8557 0.0
H1933 H 0.88446 0.26016 0.79626 0.0
H1934 H 0.90666 0.22295 0.77465 0.0
H1935 H 0.84903 0.15092 0.79613 0.0
H1936 H 0.82676 0.18764 0.81803 0.0
H1937 H 0.71438 0.34403 0.8243 0.0
H1938 H 0.76925 0.33119 0.82605 0.0
H1939 H 0.74628 0.23573 0.83645 0.0
H1940 H 0.6912 0.2483 0.83428 0.0
H1941 H 0.79443 0.24131 0.81248 0.0
H1942 H 0.76813 0.28011 0.87063 0.0
H1943 H 0.74573 0.31668 0.89252 0.0
H1944 H 0.8074 0.38786 0.87411 0.0
H1945 H 0.82988 0.35183 0.85191 0.0
C1946 C 0.94017 0.23124 0.83956 0.0
C1947 C 0.95872 0.2579 0.83843 0.0
C1948 C 0.90797 0.23345 0.83783 0.0
C1949 C 0.89393 0.26229 0.83475 0.0
C1950 C 0.91258 0.28869 0.83304 0.0
C1951 C 0.9446 0.28652 0.83485 0.0
C1952 C 0.85977 0.26563 0.83417 0.0
C1953 C 0.84592 0.28666 0.84611 0.0
C1954 C 0.84094 0.24859 0.82213 0.0
C1955 C 0.85421 0.22656 0.80891 0.0
C1956 C 0.87671 0.23633 0.79647 0.0
C1957 C 0.88926 0.21534 0.78415 0.0
C1958 C 0.87933 0.18456 0.78405 0.0
C1959 C 0.85674 0.17475 0.79624 0.0
C1960 C 0.84413 0.19564 0.8086 0.0
C1961 C 0.72093 0.32025 0.82676 0.0
C1962 C 0.69834 0.29724 0.82922 0.0
C1963 C 0.75232 0.31297 0.8279 0.0
C1964 C 0.76182 0.28258 0.83161 0.0
C1965 C 0.73942 0.25936 0.83367 0.0
C1966 C 0.70795 0.26665 0.83258 0.0
C1967 C 0.79517 0.27541 0.83363 0.0
C1968 C 0.8088 0.25356 0.82211 0.0
C1969 C 0.81388 0.29159 0.84611 0.0
C1970 C 0.80052 0.31332 0.8595 0.0
C1971 C 0.77676 0.30363 0.87115 0.0
C1972 C 0.76407 0.32425 0.88363 0.0
C1973 C 0.77509 0.35459 0.88468 0.0
C1974 C 0.79887 0.36435 0.87327 0.0
C1975 C 0.81162 0.34383 0.86075 0.0
H1976 H 0.76524 0.37052 0.89435 0.0
H1977 H 0.88909 0.16835 0.77451 0.0
H1978 H 0.66281 0.71668 0.32343 0.0
H1979 H 0.68043 0.76931 0.31716 0.0
H1980 H 0.77532 0.73903 0.32056 0.0
H1981 H 0.75785 0.6862 0.32662 0.0
H1982 H 0.76539 0.7898 0.34061 0.0
H1983 H 0.74558 0.75838 0.28102 0.0
H1984 H 0.71663 0.73505 0.25589 0.0
H1985 H 0.64685 0.80525 0.26059 0.0
H1986 H 0.67483 0.82852 0.28615 0.0
H1987 H 0.80173 0.94782 0.32628 0.0
H1988 H 0.80164 0.89263 0.31849 0.0
H1989 H 0.70188 0.89367 0.31649 0.0
H1990 H 0.70192 0.94867 0.32378 0.0
H1991 H 0.72609 0.85529 0.29072 0.0
H1992 H 0.73977 0.87538 0.35524 0.0
H1993 H 0.76767 0.89771 0.38116 0.0
H1994 H 0.8496 0.84768 0.36624 0.0
H1995 H 0.82223 0.82534 0.3401 0.0
C1996 C 0.68741 0.72115 0.32263 0.0
C1997 C 0.70888 0.69734 0.32573 0.0
C1998 C 0.69747 0.7512 0.31899 0.0
C1999 C 0.72922 0.758 0.31825 0.0
C2000 C 0.75075 0.73423 0.32111 0.0
C2001 C 0.74069 0.70413 0.32474 0.0
C2002 C 0.73965 0.79038 0.31576 0.0
C2003 C 0.75745 0.80392 0.32944 0.0
C2004 C 0.72916 0.80881 0.30122 0.0
C2005 C 0.71226 0.79509 0.28568 0.0
C2006 C 0.72386 0.76866 0.27689 0.0
C2007 C 0.70756 0.75538 0.26257 0.0
C2008 C 0.67983 0.76856 0.25671 0.0
C2009 C 0.66829 0.795 0.26519 0.0
C2010 C 0.68436 0.80825 0.27961 0.0
C2011 C 0.77987 0.9364 0.32375 0.0
C2012 C 0.7518 0.95239 0.32598 0.0
C2013 C 0.77983 0.90488 0.31936 0.0
C2014 C 0.75172 0.88896 0.31715 0.0
C2015 C 0.72384 0.90544 0.31817 0.0
C2016 C 0.72387 0.9368 0.32257 0.0
C2017 C 0.75068 0.85473 0.31593 0.0
C2018 C 0.73468 0.84087 0.30157 0.0
C2019 C 0.76281 0.83587 0.32983 0.0
C2020 C 0.77911 0.84902 0.34562 0.0
C2021 C 0.76379 0.86931 0.35744 0.0
C2022 C 0.77949 0.88194 0.37217 0.0
C2023 C 0.81042 0.87421 0.37531 0.0
C2024 C 0.82567 0.85372 0.36376 0.0
C2025 C 0.81008 0.84106 0.349 0.0
H2026 H 0.82255 0.88402 0.38671 0.0
H2027 H 0.66741 0.75843 0.24551 0.0
H2028 H 0.03853 0.7629 0.81337 0.0
H2029 H 0.09379 0.75835 0.80561 0.0
H2030 H 0.11698 0.75759 0.86211 0.0
H2031 H 0.06196 0.76133 0.86978 0.0
H2032 H 0.15806 0.79471 0.83821 0.0
H2033 H 0.10915 0.6924 0.84453 0.0
H2034 H 0.06996 0.65349 0.83614 0.0
H2035 H 0.10103 0.65643 0.78124 0.0
H2036 H 0.14013 0.69574 0.78929 0.0
H2037 H 0.29764 0.72052 0.8562 0.0
H2038 H 0.24374 0.73725 0.85456 0.0
H2039 H 0.2391 0.707 0.79924 0.0
H2040 H 0.29302 0.68982 0.80094 0.0
H2041 H 0.18851 0.69066 0.81609 0.0
H2042 H 0.24316 0.78423 0.80937 0.0
H2043 H 0.28253 0.82398 0.81582 0.0
H2044 H 0.24148 0.84063 0.86757 0.0
H2045 H 0.20213 0.8006 0.86157 0.0
C2046 C 0.05561 0.76244 0.82403 0.0
C2047 C 0.04629 0.76231 0.84214 0.0
C2048 C 0.087 0.75978 0.81963 0.0
C2049 C 0.10931 0.7576 0.83332 0.0
C2050 C 0.10007 0.75938 0.85138 0.0
C2051 C 0.06877 0.76136 0.85575 0.0
C2052 C 0.14192 0.75027 0.82915 0.0
C2053 C 0.16486 0.77202 0.83337 0.0
C2054 C 0.15053 0.72105 0.82222 0.0
C2055 C 0.12725 0.69726 0.81746 0.0
C2056 C 0.10742 0.68495 0.83064 0.0
C2057 C 0.08527 0.66279 0.82596 0.0
C2058 C 0.08293 0.65257 0.80815 0.0
C2059 C 0.10282 0.66442 0.79501 0.0
C2060 C 0.12498 0.68663 0.79963 0.0
C2061 C 0.28513 0.71751 0.84369 0.0
C2062 C 0.29954 0.70394 0.82871 0.0
C2063 C 0.25439 0.7272 0.84272 0.0
C2064 C 0.23755 0.72398 0.82665 0.0
C2065 C 0.25168 0.70984 0.81175 0.0
C2066 C 0.28241 0.69988 0.81277 0.0
C2067 C 0.205 0.73478 0.8257 0.0
C2068 C 0.18198 0.71366 0.82054 0.0
C2069 C 0.19636 0.76486 0.83139 0.0
C2070 C 0.21978 0.78924 0.83506 0.0
C2071 C 0.24263 0.79621 0.82218 0.0
C2072 C 0.26494 0.81882 0.82575 0.0
C2073 C 0.26453 0.83479 0.84211 0.0
C2074 C 0.24177 0.82823 0.85491 0.0
C2075 C 0.21942 0.80561 0.85142 0.0
H2076 H 0.28183 0.85228 0.84485 0.0
H2077 H 0.06577 0.63541 0.80455 0.0
H2078 H 0.24244 0.31136 0.32443 0.0
H2079 H 0.22839 0.25666 0.32229 0.0
H2080 H 0.32478 0.23262 0.31636 0.0
H2081 H 0.33878 0.28742 0.31813 0.0
H2082 H 0.29046 0.1977 0.29495 0.0
H2083 H 0.28678 0.22851 0.35752 0.0
H2084 H 0.26923 0.26037 0.38312 0.0
H2085 H 0.1752 0.23329 0.37305 0.0
H2086 H 0.19218 0.20159 0.34723 0.0
H2087 H 0.30367 0.04832 0.33242 0.0
H2088 H 0.30517 0.10327 0.32477 0.0
H2089 H 0.20542 0.10656 0.32564 0.0
H2090 H 0.20386 0.05128 0.3334 0.0
H2091 H 0.23347 0.15219 0.34656 0.0
H2092 H 0.24019 0.11412 0.28653 0.0
H2093 H 0.25973 0.0816 0.26174 0.0
H2094 H 0.35021 0.12124 0.26788 0.0
H2095 H 0.33135 0.15368 0.2929 0.0
C2096 C 0.2606 0.29437 0.32273 0.0
C2097 C 0.29177 0.3035 0.32177 0.0
C2098 C 0.25255 0.26316 0.32143 0.0
C2099 C 0.27558 0.24049 0.31951 0.0
C2100 C 0.30661 0.2497 0.31786 0.0
C2101 C 0.31462 0.28095 0.31891 0.0
C2102 C 0.26771 0.20709 0.32017 0.0
C2103 C 0.27813 0.18771 0.30627 0.0
C2104 C 0.25089 0.19417 0.33471 0.0
C2105 C 0.2407 0.21298 0.35033 0.0
C2106 C 0.26234 0.22953 0.3607 0.0
C2107 C 0.2525 0.24753 0.37525 0.0
C2108 C 0.22111 0.24893 0.37967 0.0
C2109 C 0.1995 0.23223 0.36959 0.0
C2110 C 0.20921 0.21424 0.35499 0.0
C2111 C 0.28207 0.06071 0.33087 0.0
C2112 C 0.25365 0.04566 0.3336 0.0
C2113 C 0.28294 0.09201 0.32634 0.0
C2114 C 0.2554 0.10889 0.32452 0.0
C2115 C 0.22691 0.09383 0.32689 0.0
C2116 C 0.22603 0.06233 0.33123 0.0
C2117 C 0.25683 0.14273 0.32155 0.0
C2118 C 0.24526 0.16222 0.33505 0.0
C2119 C 0.27289 0.15566 0.30675 0.0
C2120 C 0.28437 0.1362 0.29169 0.0
C2121 C 0.26431 0.11573 0.2827 0.0
C2122 C 0.27526 0.09734 0.26858 0.0
C2123 C 0.3062 0.09932 0.26326 0.0
C2124 C 0.32625 0.11973 0.27202 0.0
C2125 C 0.31543 0.13816 0.28615 0.0
H2126 H 0.31463 0.08506 0.25232 0.0
H2127 H 0.21353 0.26288 0.39094 0.0
H2128 H 0.544 0.70447 0.82974 0.0
H2129 H 0.59915 0.70415 0.82203 0.0
H2130 H 0.60298 0.80295 0.83013 0.0
H2131 H 0.54795 0.80354 0.83722 0.0
H2132 H 0.63741 0.78508 0.80113 0.0
H2133 H 0.62198 0.75087 0.86396 0.0
H2134 H 0.60043 0.71465 0.88638 0.0
H2135 H 0.64689 0.63893 0.8605 0.0
H2136 H 0.66831 0.67465 0.83776 0.0
H2137 H 0.78035 0.83642 0.83056 0.0
H2138 H 0.72657 0.82064 0.82672 0.0
H2139 H 0.75499 0.72503 0.82371 0.0
H2140 H 0.80902 0.74086 0.82791 0.0
H2141 H 0.70576 0.72971 0.8441 0.0
H2142 H 0.73012 0.76321 0.7854 0.0
H2143 H 0.75272 0.79742 0.76232 0.0
H2144 H 0.69073 0.87028 0.7779 0.0
H2145 H 0.66787 0.83661 0.80116 0.0
C2146 C 0.55649 0.72618 0.82952 0.0
C2147 C 0.54171 0.75401 0.83431 0.0
C2148 C 0.58801 0.72593 0.82522 0.0
C2149 C 0.60522 0.75349 0.82573 0.0
C2150 C 0.59016 0.78141 0.82969 0.0
C2151 C 0.55877 0.78167 0.83396 0.0
C2152 C 0.63929 0.7535 0.82353 0.0
C2153 C 0.65242 0.77296 0.81048 0.0
C2154 C 0.65888 0.73662 0.83522 0.0
C2155 C 0.64649 0.71535 0.8491 0.0
C2156 C 0.62747 0.72647 0.86302 0.0
C2157 C 0.61526 0.70603 0.87577 0.0
C2158 C 0.62218 0.67448 0.87482 0.0
C2159 C 0.64145 0.66333 0.86117 0.0
C2160 C 0.65363 0.68366 0.84836 0.0
C2161 C 0.77513 0.81208 0.82895 0.0
C2162 C 0.79881 0.78991 0.8295 0.0
C2163 C 0.74442 0.80305 0.82667 0.0
C2164 C 0.73676 0.77167 0.82453 0.0
C2165 C 0.76036 0.74937 0.82525 0.0
C2166 C 0.79116 0.75842 0.82773 0.0
C2167 C 0.70389 0.76251 0.82224 0.0
C2168 C 0.69097 0.74126 0.8344 0.0
C2169 C 0.68453 0.7773 0.80949 0.0
C2170 C 0.69739 0.7974 0.7951 0.0
C2171 C 0.72133 0.78655 0.78393 0.0
C2172 C 0.73417 0.80583 0.7708 0.0
C2173 C 0.72322 0.83601 0.76868 0.0
C2174 C 0.69916 0.84688 0.77954 0.0
C2175 C 0.68618 0.82766 0.79267 0.0
H2176 H 0.7335 0.85098 0.75866 0.0
H2177 H 0.61269 0.65869 0.88469 0.0
H2178 H 0.19714 0.54627 0.34186 0.0
H2179 H 0.19294 0.60136 0.3349 0.0
H2180 H 0.2924 0.60808 0.33202 0.0
H2181 H 0.29667 0.55256 0.33898 0.0
H2182 H 0.26416 0.65319 0.35416 0.0
H2183 H 0.25457 0.61377 0.29451 0.0
H2184 H 0.23443 0.58017 0.27038 0.0
H2185 H 0.14312 0.61672 0.27852 0.0
H2186 H 0.1626 0.65021 0.3029 0.0
H2187 H 0.25306 0.81062 0.32803 0.0
H2188 H 0.26641 0.7557 0.32764 0.0
H2189 H 0.16946 0.73209 0.32563 0.0
H2190 H 0.15601 0.78714 0.3259 0.0
H2191 H 0.20246 0.69571 0.30351 0.0
H2192 H 0.20996 0.72965 0.36518 0.0
H2193 H 0.22861 0.7628 0.38994 0.0
H2194 H 0.32225 0.73579 0.3787 0.0
H2195 H 0.30417 0.7028 0.35368 0.0
C2196 C 0.2181 0.55947 0.3397 0.0
C2197 C 0.24725 0.54527 0.34107 0.0
C2198 C 0.21567 0.59085 0.33558 0.0
C2199 C 0.24235 0.6087 0.33284 0.0
C2200 C 0.27155 0.59459 0.33402 0.0
C2201 C 0.27397 0.56298 0.33791 0.0
C2202 C 0.2394 0.64243 0.3298 0.0
C2203 C 0.25128 0.66259 0.34287 0.0
C2204 C 0.2219 0.65449 0.31531 0.0
C2205 C 0.21003 0.63434 0.30065 0.0
C2206 C 0.23014 0.61445 0.29128 0.0
C2207 C 0.21885 0.59546 0.27753 0.0
C2208 C 0.1875 0.59626 0.27295 0.0
C2209 C 0.16739 0.6161 0.28209 0.0
C2210 C 0.17856 0.63513 0.29587 0.0
C2211 C 0.23458 0.79373 0.32765 0.0
C2212 C 0.20344 0.80315 0.32731 0.0
C2213 C 0.24225 0.76236 0.32732 0.0
C2214 C 0.21892 0.73979 0.3269 0.0
C2215 C 0.18784 0.74913 0.32598 0.0
C2216 C 0.18017 0.78054 0.32616 0.0
C2217 C 0.22679 0.70644 0.32805 0.0
C2218 C 0.21576 0.68637 0.31465 0.0
C2219 C 0.24486 0.69439 0.34233 0.0
C2220 C 0.25575 0.71404 0.35744 0.0
C2221 C 0.23455 0.73097 0.3679 0.0
C2222 C 0.24501 0.7497 0.38199 0.0
C2223 C 0.27661 0.75148 0.38585 0.0
C2224 C 0.29779 0.73444 0.37567 0.0
C2225 C 0.28745 0.71571 0.36154 0.0
H2226 H 0.28466 0.76599 0.39677 0.0
H2227 H 0.17881 0.58155 0.26229 0.0
H2228 H 0.43524 0.26977 0.865 0.0
H2229 H 0.38009 0.26164 0.85933 0.0
H2230 H 0.39803 0.25711 0.80223 0.0
H2231 H 0.45347 0.26623 0.80802 0.0
H2232 H 0.33882 0.28323 0.81094 0.0
H2233 H 0.39853 0.19255 0.8236 0.0
H2234 H 0.43652 0.16141 0.84048 0.0
H2235 H 0.37944 0.16643 0.88771 0.0
H2236 H 0.34136 0.19812 0.8712 0.0
H2237 H 0.20196 0.18806 0.79898 0.0
H2238 H 0.25593 0.20574 0.79776 0.0
H2239 H 0.25501 0.21984 0.85527 0.0
H2240 H 0.20109 0.20256 0.85647 0.0
H2241 H 0.30681 0.1869 0.84228 0.0
H2242 H 0.24825 0.27973 0.82957 0.0
H2243 H 0.21102 0.31178 0.81269 0.0
H2244 H 0.26552 0.30146 0.76474 0.0
H2245 H 0.30288 0.26891 0.78128 0.0
C2246 C 0.42715 0.26807 0.85123 0.0
C2247 C 0.44831 0.26837 0.83694 0.0
C2248 C 0.39577 0.26337 0.84798 0.0
C2249 C 0.38514 0.2581 0.83039 0.0
C2250 C 0.40583 0.26105 0.8159 0.0
C2251 C 0.43736 0.26627 0.81918 0.0
C2252 C 0.35365 0.24534 0.82769 0.0
C2253 C 0.33187 0.26192 0.81751 0.0
C2254 C 0.34467 0.21753 0.83631 0.0
C2255 C 0.3672 0.19789 0.84619 0.0
C2256 C 0.39416 0.18717 0.83762 0.0
C2257 C 0.41571 0.16942 0.84712 0.0
C2258 C 0.41042 0.16198 0.86517 0.0
C2259 C 0.38352 0.17222 0.87374 0.0
C2260 C 0.36193 0.19006 0.86431 0.0
C2261 C 0.21344 0.19466 0.81134 0.0
C2262 C 0.19746 0.19398 0.82783 0.0
C2263 C 0.24409 0.20498 0.81061 0.0
C2264 C 0.25926 0.21432 0.82641 0.0
C2265 C 0.2436 0.21284 0.84293 0.0
C2266 C 0.21289 0.20301 0.84361 0.0
C2267 C 0.29169 0.22518 0.82597 0.0
C2268 C 0.31376 0.20804 0.83551 0.0
C2269 C 0.30081 0.25225 0.81663 0.0
C2270 C 0.27822 0.27161 0.80663 0.0
C2271 C 0.25215 0.28402 0.81539 0.0
C2272 C 0.23108 0.30238 0.80589 0.0
C2273 C 0.23597 0.30875 0.78767 0.0
C2274 C 0.26183 0.2966 0.77887 0.0
C2275 C 0.28296 0.27819 0.7883 0.0
H2276 H 0.21965 0.32301 0.78035 0.0
H2277 H 0.42714 0.14825 0.8725 0.0
H2278 H 0.74962 0.18885 0.33638 0.0
H2279 H 0.73577 0.24333 0.33584 0.0
H2280 H 0.83134 0.26762 0.32688 0.0
H2281 H 0.84575 0.21313 0.32833 0.0
H2282 H 0.80678 0.30251 0.3523 0.0
H2283 H 0.77495 0.26916 0.29282 0.0
H2284 H 0.7461 0.23514 0.27208 0.0
H2285 H 0.66034 0.2644 0.29576 0.0
H2286 H 0.68871 0.29823 0.31684 0.0
H2287 H 0.79917 0.45653 0.33011 0.0
H2288 H 0.80383 0.40085 0.32516 0.0
H2289 H 0.7072 0.3892 0.33808 0.0
H2290 H 0.70238 0.44552 0.3426 0.0
H2291 H 0.72759 0.34732 0.31149 0.0
H2292 H 0.75755 0.37984 0.37054 0.0
H2293 H 0.78495 0.41214 0.3928 0.0
H2294 H 0.87234 0.3825 0.37138 0.0
H2295 H 0.84544 0.35039 0.34879 0.0
C2296 C 0.76788 0.20561 0.33447 0.0
C2297 C 0.79897 0.19636 0.33247 0.0
C2298 C 0.75976 0.23687 0.33391 0.0
C2299 C 0.78243 0.25957 0.33107 0.0
C2300 C 0.81341 0.25048 0.329 0.0
C2301 C 0.8216 0.21925 0.3297 0.0
C2302 C 0.77426 0.29291 0.33105 0.0
C2303 C 0.78979 0.31231 0.34318 0.0
C2304 C 0.75111 0.3055 0.31967 0.0
C2305 C 0.73399 0.28606 0.30651 0.0
C2306 C 0.74995 0.26826 0.29365 0.0
C2307 C 0.73368 0.24899 0.28184 0.0
C2308 C 0.70141 0.24752 0.28263 0.0
C2309 C 0.68534 0.2655 0.29517 0.0
C2310 C 0.7015 0.28477 0.30704 0.0
C2311 C 0.77882 0.44212 0.33155 0.0
C2312 C 0.75055 0.45506 0.33699 0.0
C2313 C 0.78145 0.41038 0.32871 0.0
C2314 C 0.75603 0.39083 0.33165 0.0
C2315 C 0.72712 0.4039 0.33581 0.0
C2316 C 0.72438 0.43594 0.3384 0.0
C2317 C 0.76092 0.35686 0.33234 0.0
C2318 C 0.74462 0.3374 0.32053 0.0
C2319 C 0.78318 0.34396 0.34415 0.0
C2320 C 0.79947 0.3629 0.35789 0.0
C2321 C 0.78261 0.38036 0.37051 0.0
C2322 C 0.79805 0.39863 0.38318 0.0
C2323 C 0.83036 0.39942 0.38348 0.0
C2324 C 0.8473 0.38188 0.37112 0.0
C2325 C 0.83198 0.36362 0.35839 0.0
H2326 H 0.84227 0.41358 0.3933 0.0
H2327 H 0.68887 0.2325 0.27352 0.0
H2328 H 0.05559 0.72512 0.1886 0.0
H2329 H 0.11219 0.72517 0.19025 0.0
H2330 H 0.11503 0.80609 0.15628 0.0
H2331 H 0.05805 0.80638 0.155 0.0
H2332 H 0.14836 0.75382 0.14322 0.0
H2333 H 0.14146 0.81466 0.19631 0.0
H2334 H 0.12346 0.83014 0.22648 0.0
H2335 H 0.15907 0.74565 0.24872 0.0
H2336 H 0.17686 0.72938 0.21863 0.0
H2337 H 0.31246 0.74347 0.14334 0.0
H2338 H 0.25983 0.763 0.14578 0.0
H2339 H 0.24093 0.69715 0.188 0.0
H2340 H 0.29404 0.67866 0.18642 0.0
H2341 H 0.21731 0.75127 0.1966 0.0
H2342 H 0.21612 0.68671 0.14355 0.0
H2343 H 0.23349 0.66946 0.11354 0.0
H2344 H 0.21191 0.7588 0.09159 0.0
H2345 H 0.19477 0.77671 0.12153 0.0
C2346 C 0.06837 0.74337 0.18192 0.0
C2347 C 0.05273 0.76573 0.17168 0.0
C2348 C 0.1006 0.74347 0.18291 0.0
C2349 C 0.11776 0.76568 0.17342 0.0
C2350 C 0.10213 0.78889 0.16378 0.0
C2351 C 0.06974 0.78915 0.16311 0.0
C2352 C 0.15169 0.76182 0.17178 0.0
C2353 C 0.16365 0.754 0.15482 0.0
C2354 C 0.1713 0.7612 0.18701 0.0
C2355 C 0.16023 0.77066 0.20513 0.0
C2356 C 0.14514 0.79919 0.20758 0.0
C2357 C 0.13504 0.80814 0.22469 0.0
C2358 C 0.13998 0.78882 0.23949 0.0
C2359 C 0.15515 0.76054 0.23723 0.0
C2360 C 0.16529 0.75147 0.22015 0.0
C2361 C 0.29734 0.73324 0.15328 0.0
C2362 C 0.30781 0.70941 0.1647 0.0
C2363 C 0.26704 0.7443 0.15453 0.0
C2364 C 0.24628 0.73139 0.16696 0.0
C2365 C 0.25653 0.70752 0.17831 0.0
C2366 C 0.28692 0.69666 0.17721 0.0
C2367 C 0.21381 0.74248 0.16812 0.0
C2368 C 0.20214 0.75157 0.18496 0.0
C2369 C 0.1943 0.74392 0.15282 0.0
C2370 C 0.20451 0.73315 0.13481 0.0
C2371 C 0.21531 0.70274 0.13235 0.0
C2372 C 0.22507 0.69284 0.11535 0.0
C2373 C 0.2239 0.71305 0.10068 0.0
C2374 C 0.21287 0.74319 0.10297 0.0
C2375 C 0.20311 0.75323 0.11994 0.0
H2376 H 0.23147 0.70534 0.08753 0.0
H2377 H 0.1322 0.79582 0.25273 0.0
H2378 H 0.33665 0.28853 0.68645 0.0
H2379 H 0.32345 0.23356 0.68744 0.0
H2380 H 0.22977 0.2549 0.67175 0.0
H2381 H 0.24265 0.31008 0.67113 0.0
H2382 H 0.23362 0.20742 0.69794 0.0
H2383 H 0.27659 0.23343 0.64026 0.0
H2384 H 0.31514 0.25619 0.61968 0.0
H2385 H 0.3851 0.19591 0.64101 0.0
H2386 H 0.34705 0.1731 0.66192 0.0
H2387 H 0.20097 0.05447 0.66265 0.0
H2388 H 0.20538 0.10998 0.66944 0.0
H2389 H 0.30324 0.0985 0.67899 0.0
H2390 H 0.2989 0.04357 0.67181 0.0
H2391 H 0.2938 0.14231 0.6555 0.0
H2392 H 0.2506 0.11614 0.71349 0.0
H2393 H 0.21198 0.09414 0.73431 0.0
H2394 H 0.1422 0.15399 0.71238 0.0
H2395 H 0.18037 0.17616 0.69131 0.0
C2396 C 0.31313 0.28157 0.68352 0.0
C2397 C 0.29084 0.30355 0.67844 0.0
C2398 C 0.30564 0.25019 0.68403 0.0
C2399 C 0.27575 0.24023 0.67945 0.0
C2400 C 0.25299 0.26218 0.67525 0.0
C2401 C 0.26051 0.29362 0.67468 0.0
C2402 C 0.26915 0.20681 0.67761 0.0
C2403 C 0.2465 0.19312 0.68856 0.0
C2404 C 0.28615 0.18829 0.66545 0.0
C2405 C 0.30903 0.20176 0.65277 0.0
C2406 C 0.30025 0.22519 0.64065 0.0
C2407 C 0.322 0.23807 0.62892 0.0
C2408 C 0.35257 0.22755 0.62906 0.0
C2409 C 0.36142 0.20406 0.64092 0.0
C2410 C 0.33977 0.19113 0.65271 0.0
C2411 C 0.2232 0.06385 0.66656 0.0
C2412 C 0.24968 0.04502 0.66648 0.0
C2413 C 0.22572 0.09546 0.67048 0.0
C2414 C 0.25469 0.10842 0.67468 0.0
C2415 C 0.28073 0.0891 0.67563 0.0
C2416 C 0.27827 0.05777 0.6715 0.0
C2417 C 0.25886 0.14239 0.67624 0.0
C2418 C 0.28093 0.15638 0.66501 0.0
C2419 C 0.24126 0.16101 0.68812 0.0
C2420 C 0.21826 0.14756 0.7007 0.0
C2421 C 0.22696 0.12441 0.713 0.0
C2422 C 0.20517 0.11197 0.72488 0.0
C2423 C 0.17463 0.12258 0.72462 0.0
C2424 C 0.16584 0.14571 0.71252 0.0
C2425 C 0.18756 0.15827 0.70064 0.0
H2426 H 0.1578 0.11294 0.73384 0.0
H2427 H 0.36938 0.23756 0.61996 0.0
H2428 H 0.70452 0.3471 0.14444 0.0
H2429 H 0.76026 0.33567 0.14514 0.0
H2430 H 0.7434 0.25947 0.18128 0.0
H2431 H 0.68739 0.27015 0.17996 0.0
H2432 H 0.79663 0.29816 0.19016 0.0
H2433 H 0.75299 0.23961 0.14162 0.0
H2434 H 0.72129 0.23213 0.11437 0.0
H2435 H 0.77797 0.29711 0.08564 0.0
H2436 H 0.80972 0.30539 0.11284 0.0
H2437 H 0.94874 0.23535 0.17584 0.0
H2438 H 0.89246 0.23956 0.17919 0.0
H2439 H 0.89 0.30697 0.13637 0.0
H2440 H 0.9456 0.30201 0.1325 0.0
H2441 H 0.84482 0.26653 0.13236 0.0
H2442 H 0.88643 0.32762 0.18136 0.0
H2443 H 0.91729 0.33646 0.20882 0.0
H2444 H 0.86439 0.26748 0.23682 0.0
H2445 H 0.83348 0.25793 0.20943 0.0
C2446 C 0.71289 0.32805 0.15256 0.0
C2447 C 0.69202 0.3092 0.16196 0.0
C2448 C 0.74453 0.32153 0.15297 0.0
C2449 C 0.75571 0.29647 0.1631 0.0
C2450 C 0.73501 0.27862 0.17325 0.0
C2451 C 0.70326 0.28463 0.17245 0.0
C2452 C 0.78877 0.2879 0.16217 0.0
C2453 C 0.8072 0.2908 0.17762 0.0
C2454 C 0.80237 0.2785 0.14577 0.0
C2455 C 0.78355 0.27334 0.12932 0.0
C2456 C 0.75854 0.25251 0.12954 0.0
C2457 C 0.74059 0.24809 0.11409 0.0
C2458 C 0.74756 0.26419 0.09829 0.0
C2459 C 0.77257 0.28468 0.0979 0.0
C2460 C 0.79057 0.28923 0.11332 0.0
C2461 C 0.93616 0.25082 0.16704 0.0
C2462 C 0.95178 0.26857 0.15401 0.0
C2463 C 0.90404 0.25341 0.16907 0.0
C2464 C 0.88707 0.27386 0.15816 0.0
C2465 C 0.90259 0.29112 0.14498 0.0
C2466 C 0.93451 0.28849 0.14292 0.0
C2467 C 0.85314 0.27762 0.16025 0.0
C2468 C 0.83438 0.27364 0.14499 0.0
C2469 C 0.83933 0.28608 0.17684 0.0
C2470 C 0.85791 0.29179 0.19329 0.0
C2471 C 0.88156 0.31415 0.19333 0.0
C2472 C 0.89903 0.31932 0.20889 0.0
C2473 C 0.89288 0.30246 0.22454 0.0
C2474 C 0.86918 0.28046 0.22468 0.0
C2475 C 0.85168 0.27517 0.20914 0.0
H2476 H 0.90642 0.30651 0.23658 0.0
H2477 H 0.73364 0.26074 0.08635 0.0
H2478 H 0.68477 0.94528 0.67213 0.0
H2479 H 0.68339 0.89098 0.68142 0.0
H2480 H 0.78126 0.89412 0.69271 0.0
H2481 H 0.78265 0.94857 0.68343 0.0
H2482 H 0.76461 0.84838 0.66848 0.0
H2483 H 0.73294 0.88411 0.7258 0.0
H2484 H 0.70246 0.91371 0.74787 0.0
H2485 H 0.62046 0.86429 0.73248 0.0
H2486 H 0.65022 0.83496 0.70992 0.0
H2487 H 0.75398 0.68639 0.68379 0.0
H2488 H 0.76565 0.7411 0.68916 0.0
H2489 H 0.66845 0.76294 0.68493 0.0
H2490 H 0.65677 0.70822 0.68006 0.0
H2491 H 0.69323 0.79583 0.71089 0.0
H2492 H 0.72045 0.77212 0.64905 0.0
H2493 H 0.74824 0.74386 0.62514 0.0
H2494 H 0.83526 0.77211 0.64772 0.0
H2495 H 0.80794 0.80023 0.6719 0.0
C2496 C 0.70579 0.93453 0.677 0.0
C2497 C 0.73381 0.95097 0.67701 0.0
C2498 C 0.70498 0.90362 0.68239 0.0
C2499 C 0.73223 0.88859 0.68777 0.0
C2500 C 0.75998 0.90539 0.68867 0.0
C2501 C 0.76071 0.93648 0.68348 0.0
C2502 C 0.73218 0.85461 0.69021 0.0
C2503 C 0.74959 0.83684 0.67808 0.0
C2504 C 0.71199 0.83972 0.70244 0.0
C2505 C 0.69388 0.85742 0.71601 0.0
C2506 C 0.70833 0.87981 0.72691 0.0
C2507 C 0.69116 0.89656 0.73953 0.0
C2508 C 0.65953 0.89095 0.74155 0.0
C2509 C 0.64498 0.86861 0.73091 0.0
C2510 C 0.662 0.85192 0.71819 0.0
C2511 C 0.7352 0.70295 0.68396 0.0
C2512 C 0.70451 0.69324 0.68129 0.0
C2513 C 0.74184 0.73415 0.6871 0.0
C2514 C 0.71796 0.75622 0.68722 0.0
C2515 C 0.68725 0.74636 0.68496 0.0
C2516 C 0.68059 0.71516 0.68211 0.0
C2517 C 0.72478 0.78978 0.68873 0.0
C2518 C 0.70871 0.80741 0.70158 0.0
C2519 C 0.74576 0.80472 0.67694 0.0
C2520 C 0.76218 0.78793 0.66239 0.0
C2521 C 0.74551 0.77211 0.64898 0.0
C2522 C 0.76117 0.75615 0.63538 0.0
C2523 C 0.79349 0.7561 0.63495 0.0
C2524 C 0.81022 0.7721 0.6481 0.0
C2525 C 0.79467 0.78806 0.66175 0.0
H2526 H 0.80558 0.74374 0.62441 0.0
H2527 H 0.64631 0.90383 0.7514 0.0
loop_
_geom_bond_atom_site_label_1
_geom_bond_atom_site_label_2
_geom_bond_distance
_geom_bond_site_symmetry_2
_ccdc_geom_bond_type
Co0 N4 2.148 . S
Co0 N10 2.128 . S
Co0 N20 2.194 . S
Co0 O25 2.351 . S
Co0 O26 2.155 . S
Co0 O27 2.096 . S
C1 N4 1.301 . S
C1 N5 1.328 . S
C1 H6 0.930 . S
C2 C3 1.333 . S
C2 N4 1.317 . S
C2 H7 0.930 . S
C3 C2 1.333 . S
C3 N5 1.350 . S
C3 H29 0.931 . S
N4 Co0 2.148 . S
N4 C1 1.301 . S
N4 C2 1.317 . S
N5 C1 1.328 . S
N5 C3 1.350 . S
H6 C1 0.930 . S
H7 C2 0.930 . S
C8 O9 1.224 . S
C8 O27 1.247 . S
O9 C8 1.224 . S
N10 Co0 2.128 . S
N10 C11 1.355 . S
N10 C13 1.311 1_455 S
C11 N10 1.355 . S
C11 C12 1.363 1_455 S
C11 H23 0.929 . S
C12 C11 1.363 1_655 S
C12 N14 1.375 . S
C12 H30 0.931 . S
C13 N10 1.311 1_655 S
C13 N14 1.347 . S
C13 H24 0.929 . S
N14 C12 1.375 . S
N14 C13 1.347 . S
C15 C18 1.365 . S
C15 N20 1.328 . S
C15 H21 0.929 . S
C16 C17 1.362 . S
C16 C19 1.378 . S
C16 H31 0.929 . S
C17 C16 1.362 . S
C17 C18 1.366 . S
C18 C15 1.365 . S
C18 C17 1.366 . S
C18 H32 0.930 . S
C19 C16 1.378 . S
C19 N20 1.315 . S
C19 H22 0.930 . S
N20 Co0 2.194 . S
N20 C15 1.328 . S
N20 C19 1.315 . S
H21 C15 0.929 . S
H22 C19 0.930 . S
H23 C11 0.929 . S
H24 C13 0.929 . S
O25 Co0 2.351 . S
O25 C28 1.244 . S
O26 Co0 2.155 . S
O26 C28 1.240 . S
O27 Co0 2.096 . S
O27 C8 1.247 . S
C28 O25 1.244 . S
C28 O26 1.240 . S
H29 C3 0.931 . S
H30 C12 0.931 . S
H31 C16 0.929 . S
H32 C18 0.930 . S
Co33 N37 2.148 . S
Co33 N43 2.128 . S
Co33 N53 2.194 . S
Co33 O58 2.351 . S
Co33 O59 2.155 . S
Co33 O60 2.096 . S
C34 N37 1.301 . S
C34 N38 1.328 . S
C34 H39 0.930 . S
C35 C36 1.333 . S
C35 N37 1.317 . S
C35 H40 0.930 . S
C36 C35 1.333 . S
C36 N38 1.350 . S
C36 H62 0.931 . S
N37 Co33 2.148 . S
N37 C34 1.301 . S
N37 C35 1.317 . S
N38 C34 1.328 . S
N38 C36 1.350 . S
H39 C34 0.930 . S
H40 C35 0.930 . S
C41 O42 1.224 . S
C41 O60 1.247 . S
O42 C41 1.224 . S
N43 Co33 2.128 . S
N43 C44 1.355 . S
N43 C46 1.311 1_545 S
C44 N43 1.355 . S
C44 C45 1.363 1_545 S
C44 H56 0.929 . S
C45 C44 1.363 1_565 S
C45 N47 1.375 . S
C45 H63 0.931 . S
C46 N43 1.311 1_565 S
C46 N47 1.347 . S
C46 H57 0.929 . S
N47 C45 1.375 . S
N47 C46 1.347 . S
C48 C51 1.365 . S
C48 N53 1.328 . S
C48 H54 0.929 . S
C49 C50 1.362 . S
C49 C52 1.378 . S
C49 H64 0.929 . S
C50 C49 1.362 . S
C50 C51 1.366 . S
C51 C48 1.365 . S
C51 C50 1.366 . S
C51 H65 0.930 . S
C52 C49 1.378 . S
C52 N53 1.315 . S
C52 H55 0.930 . S
N53 Co33 2.194 . S
N53 C48 1.328 . S
N53 C52 1.315 . S
H54 C48 0.929 . S
H55 C52 0.930 . S
H56 C44 0.929 . S
H57 C46 0.929 . S
O58 Co33 2.351 . S
O58 C61 1.244 . S
O59 Co33 2.155 . S
O59 C61 1.240 . S
O60 Co33 2.096 . S
O60 C41 1.247 . S
C61 O58 1.244 . S
C61 O59 1.240 . S
H62 C36 0.931 . S
H63 C45 0.931 . S
H64 C49 0.929 . S
H65 C51 0.930 . S
Co66 N70 2.148 . S
Co66 N76 2.128 . S
Co66 N86 2.194 . S
Co66 O91 2.351 . S
Co66 O92 2.155 . S
Co66 O93 2.096 . S
C67 N70 1.301 . S
C67 N71 1.328 . S
C67 H72 0.930 . S
C68 C69 1.333 . S
C68 N70 1.317 . S
C68 H73 0.930 . S
C69 C68 1.333 . S
C69 N71 1.350 . S
C69 H95 0.931 . S
N70 Co66 2.148 . S
N70 C67 1.301 . S
N70 C68 1.317 . S
N71 C67 1.328 . S
N71 C69 1.350 . S
H72 C67 0.930 . S
H73 C68 0.930 . S
C74 O75 1.224 . S
C74 O93 1.247 . S
O75 C74 1.224 . S
N76 Co66 2.128 . S
N76 C77 1.355 . S
N76 C79 1.311 1_655 S
C77 N76 1.355 . S
C77 C78 1.363 1_655 S
C77 H89 0.929 . S
C78 C77 1.363 1_455 S
C78 N80 1.375 . S
C78 H96 0.931 . S
C79 N76 1.311 1_455 S
C79 N80 1.347 . S
C79 H90 0.929 . S
N80 C78 1.375 . S
N80 C79 1.347 . S
C81 C84 1.365 . S
C81 N86 1.328 . S
C81 H87 0.929 . S
C82 C83 1.362 . S
C82 C85 1.378 . S
C82 H97 0.929 . S
C83 C82 1.362 . S
C83 C84 1.366 . S
C84 C81 1.365 . S
C84 C83 1.366 . S
C84 H98 0.930 . S
C85 C82 1.378 . S
C85 N86 1.315 . S
C85 H88 0.930 . S
N86 Co66 2.194 . S
N86 C81 1.328 . S
N86 C85 1.315 . S
H87 C81 0.929 . S
H88 C85 0.930 . S
H89 C77 0.929 . S
H90 C79 0.929 . S
O91 Co66 2.351 . S
O91 C94 1.244 . S
O92 Co66 2.155 . S
O92 C94 1.240 . S
O93 Co66 2.096 . S
O93 C74 1.247 . S
C94 O91 1.244 . S
C94 O92 1.240 . S
H95 C69 0.931 . S
H96 C78 0.931 . S
H97 C82 0.929 . S
H98 C84 0.930 . S
Co99 N103 2.148 . S
Co99 N109 2.128 . S
Co99 N119 2.194 . S
Co99 O124 2.351 . S
Co99 O125 2.155 . S
Co99 O126 2.096 . S
C100 N103 1.301 . S
C100 N104 1.328 . S
C100 H105 0.930 . S
C101 C102 1.333 . S
C101 N103 1.317 . S
C101 H106 0.930 . S
C102 C101 1.333 . S
C102 N104 1.350 . S
C102 H128 0.931 . S
N103 Co99 2.148 . S
N103 C100 1.301 . S
N103 C101 1.317 . S
N104 C100 1.328 . S
N104 C102 1.350 . S
H105 C100 0.930 . S
H106 C101 0.930 . S
C107 O108 1.224 . S
C107 O126 1.247 . S
O108 C107 1.224 . S
N109 Co99 2.128 . S
N109 C110 1.355 . S
N109 C112 1.311 1_565 S
C110 N109 1.355 . S
C110 C111 1.363 1_565 S
C110 H122 0.929 . S
C111 C110 1.363 1_545 S
C111 N113 1.375 . S
C111 H129 0.931 . S
C112 N109 1.311 1_545 S
C112 N113 1.347 . S
C112 H123 0.929 . S
N113 C111 1.375 . S
N113 C112 1.347 . S
C114 C117 1.365 . S
C114 N119 1.328 . S
C114 H120 0.929 . S
C115 C116 1.362 . S
C115 C118 1.378 . S
C115 H130 0.929 . S
C116 C115 1.362 . S
C116 C117 1.366 . S
C117 C114 1.365 . S
C117 C116 1.366 . S
C117 H131 0.930 . S
C118 C115 1.378 . S
C118 N119 1.315 . S
C118 H121 0.930 . S
N119 Co99 2.194 . S
N119 C114 1.328 . S
N119 C118 1.315 . S
H120 C114 0.929 . S
H121 C118 0.930 . S
H122 C110 0.929 . S
H123 C112 0.929 . S
O124 Co99 2.351 . S
O124 C127 1.244 . S
O125 Co99 2.155 . S
O125 C127 1.240 . S
O126 Co99 2.096 . S
O126 C107 1.247 . S
C127 O124 1.244 . S
C127 O125 1.240 . S
H128 C102 0.931 . S
H129 C111 0.931 . S
H130 C115 0.929 . S
H131 C117 0.930 . S
Co132 N136 2.148 . S
Co132 N142 2.128 . S
Co132 N152 2.194 . S
Co132 O157 2.351 . S
Co132 O158 2.155 . S
Co132 O159 2.096 . S
C133 N136 1.301 . S
C133 N137 1.328 . S
C133 H138 0.930 . S
C134 C135 1.333 . S
C134 N136 1.317 . S
C134 H139 0.930 . S
C135 C134 1.333 . S
C135 N137 1.350 . S
C135 H161 0.931 . S
N136 Co132 2.148 . S
N136 C133 1.301 . S
N136 C134 1.317 . S
N137 C133 1.328 . S
N137 C135 1.350 . S
H138 C133 0.930 . S
H139 C134 0.930 . S
C140 O141 1.224 . S
C140 O159 1.247 . S
O141 C140 1.224 . S
N142 Co132 2.128 . S
N142 C143 1.355 . S
N142 C145 1.311 . S
C143 N142 1.355 . S
C143 C144 1.363 . S
C143 H155 0.929 . S
C144 C143 1.363 . S
C144 N146 1.375 . S
C144 H162 0.931 . S
C145 N142 1.311 . S
C145 N146 1.347 . S
C145 H156 0.929 . S
N146 C144 1.375 . S
N146 C145 1.347 . S
C147 C150 1.365 . S
C147 N152 1.328 . S
C147 H153 0.929 . S
C148 C149 1.362 . S
C148 C151 1.378 . S
C148 H163 0.929 . S
C149 C148 1.362 . S
C149 C150 1.366 . S
C150 C147 1.365 . S
C150 C149 1.366 . S
C150 H164 0.930 . S
C151 C148 1.378 . S
C151 N152 1.315 . S
C151 H154 0.930 . S
N152 Co132 2.194 . S
N152 C147 1.328 . S
N152 C151 1.315 . S
H153 C147 0.929 . S
H154 C151 0.930 . S
H155 C143 0.929 . S
H156 C145 0.929 . S
O157 Co132 2.351 . S
O157 C160 1.244 . S
O158 Co132 2.155 . S
O158 C160 1.240 . S
O159 Co132 2.096 . S
O159 C140 1.247 . S
C160 O157 1.244 . S
C160 O158 1.240 . S
H161 C135 0.931 . S
H162 C144 0.931 . S
H163 C148 0.929 . S
H164 C150 0.930 . S
Co165 N169 2.148 . S
Co165 N175 2.128 . S
Co165 N185 2.194 . S
Co165 O190 2.351 . S
Co165 O191 2.155 . S
Co165 O192 2.096 . S
C166 N169 1.301 . S
C166 N170 1.328 . S
C166 H171 0.930 . S
C167 C168 1.333 . S
C167 N169 1.317 . S
C167 H172 0.930 . S
C168 C167 1.333 . S
C168 N170 1.350 . S
C168 H194 0.931 . S
N169 Co165 2.148 . S
N169 C166 1.301 . S
N169 C167 1.317 . S
N170 C166 1.328 . S
N170 C168 1.350 . S
H171 C166 0.930 . S
H172 C167 0.930 . S
C173 O174 1.224 . S
C173 O192 1.247 . S
O174 C173 1.224 . S
N175 Co165 2.128 . S
N175 C176 1.355 . S
N175 C178 1.311 . S
C176 N175 1.355 . S
C176 C177 1.363 . S
C176 H188 0.929 . S
C177 C176 1.363 . S
C177 N179 1.375 . S
C177 H195 0.931 . S
C178 N175 1.311 . S
C178 N179 1.347 . S
C178 H189 0.929 . S
N179 C177 1.375 . S
N179 C178 1.347 . S
C180 C183 1.365 . S
C180 N185 1.328 . S
C180 H186 0.929 . S
C181 C182 1.362 . S
C181 C184 1.378 . S
C181 H196 0.929 . S
C182 C181 1.362 . S
C182 C183 1.366 . S
C183 C180 1.365 . S
C183 C182 1.366 . S
C183 H197 0.930 . S
C184 C181 1.378 . S
C184 N185 1.315 . S
C184 H187 0.930 . S
N185 Co165 2.194 . S
N185 C180 1.328 . S
N185 C184 1.315 . S
H186 C180 0.929 . S
H187 C184 0.930 . S
H188 C176 0.929 . S
H189 C178 0.929 . S
O190 Co165 2.351 . S
O190 C193 1.244 . S
O191 Co165 2.155 . S
O191 C193 1.240 . S
O192 Co165 2.096 . S
O192 C173 1.247 . S
C193 O190 1.244 . S
C193 O191 1.240 . S
H194 C168 0.931 . S
H195 C177 0.931 . S
H196 C181 0.929 . S
H197 C183 0.930 . S
Co198 N202 2.148 . S
Co198 N208 2.128 . S
Co198 N218 2.194 . S
Co198 O223 2.351 . S
Co198 O224 2.155 . S
Co198 O225 2.096 . S
C199 N202 1.301 . S
C199 N203 1.328 . S
C199 H204 0.930 . S
C200 C201 1.333 . S
C200 N202 1.317 . S
C200 H205 0.930 . S
C201 C200 1.333 . S
C201 N203 1.350 . S
C201 H227 0.931 . S
N202 Co198 2.148 . S
N202 C199 1.301 . S
N202 C200 1.317 . S
N203 C199 1.328 . S
N203 C201 1.350 . S
H204 C199 0.930 . S
H205 C200 0.930 . S
C206 O207 1.224 . S
C206 O225 1.247 . S
O207 C206 1.224 . S
N208 Co198 2.128 . S
N208 C209 1.355 . S
N208 C211 1.311 . S
C209 N208 1.355 . S
C209 C210 1.363 . S
C209 H221 0.929 . S
C210 C209 1.363 . S
C210 N212 1.375 . S
C210 H228 0.931 . S
C211 N208 1.311 . S
C211 N212 1.347 . S
C211 H222 0.929 . S
N212 C210 1.375 . S
N212 C211 1.347 . S
C213 C216 1.365 . S
C213 N218 1.328 . S
C213 H219 0.929 . S
C214 C215 1.362 . S
C214 C217 1.378 . S
C214 H229 0.929 . S
C215 C214 1.362 . S
C215 C216 1.366 . S
C216 C213 1.365 . S
C216 C215 1.366 . S
C216 H230 0.930 . S
C217 C214 1.378 . S
C217 N218 1.315 . S
C217 H220 0.930 . S
N218 Co198 2.194 . S
N218 C213 1.328 . S
N218 C217 1.315 . S
H219 C213 0.929 . S
H220 C217 0.930 . S
H221 C209 0.929 . S
H222 C211 0.929 . S
O223 Co198 2.351 . S
O223 C226 1.244 . S
O224 Co198 2.155 . S
O224 C226 1.240 . S
O225 Co198 2.096 . S
O225 C206 1.247 . S
C226 O223 1.244 . S
C226 O224 1.240 . S
H227 C201 0.931 . S
H228 C210 0.931 . S
H229 C214 0.929 . S
H230 C216 0.930 . S
Co231 N235 2.148 . S
Co231 N241 2.128 . S
Co231 N251 2.194 . S
Co231 O256 2.351 . S
Co231 O257 2.155 . S
Co231 O258 2.096 . S
C232 N235 1.301 . S
C232 N236 1.328 . S
C232 H237 0.930 . S
C233 C234 1.333 . S
C233 N235 1.317 . S
C233 H238 0.930 . S
C234 C233 1.333 . S
C234 N236 1.350 . S
C234 H260 0.931 . S
N235 Co231 2.148 . S
N235 C232 1.301 . S
N235 C233 1.317 . S
N236 C232 1.328 . S
N236 C234 1.350 . S
H237 C232 0.930 . S
H238 C233 0.930 . S
C239 O240 1.224 . S
C239 O258 1.247 . S
O240 C239 1.224 . S
N241 Co231 2.128 . S
N241 C242 1.355 . S
N241 C244 1.311 . S
C242 N241 1.355 . S
C242 C243 1.363 . S
C242 H254 0.929 . S
C243 C242 1.363 . S
C243 N245 1.375 . S
C243 H261 0.931 . S
C244 N241 1.311 . S
C244 N245 1.347 . S
C244 H255 0.929 . S
N245 C243 1.375 . S
N245 C244 1.347 . S
C246 C249 1.365 . S
C246 N251 1.328 . S
C246 H252 0.929 . S
C247 C248 1.362 . S
C247 C250 1.378 . S
C247 H262 0.929 . S
C248 C247 1.362 . S
C248 C249 1.366 . S
C249 C246 1.365 . S
C249 C248 1.366 . S
C249 H263 0.930 . S
C250 C247 1.378 . S
C250 N251 1.315 . S
C250 H253 0.930 . S
N251 Co231 2.194 . S
N251 C246 1.328 . S
N251 C250 1.315 . S
H252 C246 0.929 . S
H253 C250 0.930 . S
H254 C242 0.929 . S
H255 C244 0.929 . S
O256 Co231 2.351 . S
O256 C259 1.244 . S
O257 Co231 2.155 . S
O257 C259 1.240 . S
O258 Co231 2.096 . S
O258 C239 1.247 . S
C259 O256 1.244 . S
C259 O257 1.240 . S
H260 C234 0.931 . S
H261 C243 0.931 . S
H262 C247 0.929 . S
H263 C249 0.930 . S
Co264 N268 2.148 . S
Co264 N274 2.128 . S
Co264 N284 2.194 . S
Co264 O289 2.351 . S
Co264 O290 2.155 . S
Co264 O291 2.096 . S
C265 N268 1.301 . S
C265 N269 1.328 . S
C265 H270 0.930 . S
C266 C267 1.333 . S
C266 N268 1.317 . S
C266 H271 0.930 . S
C267 C266 1.333 . S
C267 N269 1.350 . S
C267 H293 0.931 . S
N268 Co264 2.148 . S
N268 C265 1.301 . S
N268 C266 1.317 . S
N269 C265 1.328 . S
N269 C267 1.350 . S
H270 C265 0.930 . S
H271 C266 0.930 . S
C272 O273 1.224 . S
C272 O291 1.247 . S
O273 C272 1.224 . S
N274 Co264 2.128 . S
N274 C275 1.355 . S
N274 C277 1.311 1_655 S
C275 N274 1.355 . S
C275 C276 1.363 1_655 S
C275 H287 0.929 . S
C276 C275 1.363 1_455 S
C276 N278 1.375 . S
C276 H294 0.931 . S
C277 N274 1.311 1_455 S
C277 N278 1.347 . S
C277 H288 0.929 . S
N278 C276 1.375 . S
N278 C277 1.347 . S
C279 C282 1.365 . S
C279 N284 1.328 . S
C279 H285 0.929 . S
C280 C281 1.362 . S
C280 C283 1.378 . S
C280 H295 0.929 . S
C281 C280 1.362 . S
C281 C282 1.366 . S
C282 C279 1.365 . S
C282 C281 1.366 . S
C282 H296 0.930 . S
C283 C280 1.378 . S
C283 N284 1.315 . S
C283 H286 0.930 . S
N284 Co264 2.194 . S
N284 C279 1.328 . S
N284 C283 1.315 . S
H285 C279 0.929 . S
H286 C283 0.930 . S
H287 C275 0.929 . S
H288 C277 0.929 . S
O289 Co264 2.351 . S
O289 C292 1.244 . S
O290 Co264 2.155 . S
O290 C292 1.240 . S
O291 Co264 2.096 . S
O291 C272 1.247 . S
C292 O289 1.244 . S
C292 O290 1.240 . S
H293 C267 0.931 . S
H294 C276 0.931 . S
H295 C280 0.929 . S
H296 C282 0.930 . S
Co297 N301 2.148 . S
Co297 N307 2.128 . S
Co297 N317 2.194 . S
Co297 O322 2.351 . S
Co297 O323 2.155 . S
Co297 O324 2.096 . S
C298 N301 1.301 . S
C298 N302 1.328 . S
C298 H303 0.930 . S
C299 C300 1.333 . S
C299 N301 1.317 . S
C299 H304 0.930 . S
C300 C299 1.333 . S
C300 N302 1.350 . S
C300 H326 0.931 . S
N301 Co297 2.148 . S
N301 C298 1.301 . S
N301 C299 1.317 . S
N302 C298 1.328 . S
N302 C300 1.350 . S
H303 C298 0.930 . S
H304 C299 0.930 . S
C305 O306 1.224 . S
C305 O324 1.247 . S
O306 C305 1.224 . S
N307 Co297 2.128 . S
N307 C308 1.355 . S
N307 C310 1.311 1_565 S
C308 N307 1.355 . S
C308 C309 1.363 1_565 S
C308 H320 0.929 . S
C309 C308 1.363 1_545 S
C309 N311 1.375 . S
C309 H327 0.931 . S
C310 N307 1.311 1_545 S
C310 N311 1.347 . S
C310 H321 0.929 . S
N311 C309 1.375 . S
N311 C310 1.347 . S
C312 C315 1.365 . S
C312 N317 1.328 . S
C312 H318 0.929 . S
C313 C314 1.362 . S
C313 C316 1.378 . S
C313 H328 0.929 . S
C314 C313 1.362 . S
C314 C315 1.366 . S
C315 C312 1.365 . S
C315 C314 1.366 . S
C315 H329 0.930 . S
C316 C313 1.378 . S
C316 N317 1.315 . S
C316 H319 0.930 . S
N317 Co297 2.194 . S
N317 C312 1.328 . S
N317 C316 1.315 . S
H318 C312 0.929 . S
H319 C316 0.930 . S
H320 C308 0.929 . S
H321 C310 0.929 . S
O322 Co297 2.351 . S
O322 C325 1.244 . S
O323 Co297 2.155 . S
O323 C325 1.240 . S
O324 Co297 2.096 . S
O324 C305 1.247 . S
C325 O322 1.244 . S
C325 O323 1.240 . S
H326 C300 0.931 . S
H327 C309 0.931 . S
H328 C313 0.929 . S
H329 C315 0.930 . S
Co330 N334 2.148 . S
Co330 N340 2.128 . S
Co330 N350 2.194 . S
Co330 O355 2.351 . S
Co330 O356 2.155 . S
Co330 O357 2.096 . S
C331 N334 1.301 . S
C331 N335 1.328 . S
C331 H336 0.930 . S
C332 C333 1.333 . S
C332 N334 1.317 . S
C332 H337 0.930 . S
C333 C332 1.333 . S
C333 N335 1.350 . S
C333 H359 0.931 . S
N334 Co330 2.148 . S
N334 C331 1.301 . S
N334 C332 1.317 . S
N335 C331 1.328 . S
N335 C333 1.350 . S
H336 C331 0.930 . S
H337 C332 0.930 . S
C338 O339 1.224 . S
C338 O357 1.247 . S
O339 C338 1.224 . S
N340 Co330 2.128 . S
N340 C341 1.355 . S
N340 C343 1.311 1_455 S
C341 N340 1.355 . S
C341 C342 1.363 1_455 S
C341 H353 0.929 . S
C342 C341 1.363 1_655 S
C342 N344 1.375 . S
C342 H360 0.931 . S
C343 N340 1.311 1_655 S
C343 N344 1.347 . S
C343 H354 0.929 . S
N344 C342 1.375 . S
N344 C343 1.347 . S
C345 C348 1.365 . S
C345 N350 1.328 . S
C345 H351 0.929 . S
C346 C347 1.362 . S
C346 C349 1.378 . S
C346 H361 0.929 . S
C347 C346 1.362 . S
C347 C348 1.366 . S
C348 C345 1.365 . S
C348 C347 1.366 . S
C348 H362 0.930 . S
C349 C346 1.378 . S
C349 N350 1.315 . S
C349 H352 0.930 . S
N350 Co330 2.194 . S
N350 C345 1.328 . S
N350 C349 1.315 . S
H351 C345 0.929 . S
H352 C349 0.930 . S
H353 C341 0.929 . S
H354 C343 0.929 . S
O355 Co330 2.351 . S
O355 C358 1.244 . S
O356 Co330 2.155 . S
O356 C358 1.240 . S
O357 Co330 2.096 . S
O357 C338 1.247 . S
C358 O355 1.244 . S
C358 O356 1.240 . S
H359 C333 0.931 . S
H360 C342 0.931 . S
H361 C346 0.929 . S
H362 C348 0.930 . S
Co363 N367 2.148 . S
Co363 N373 2.128 . S
Co363 N383 2.194 . S
Co363 O388 2.351 . S
Co363 O389 2.155 . S
Co363 O390 2.096 . S
C364 N367 1.301 . S
C364 N368 1.328 . S
C364 H369 0.930 . S
C365 C366 1.333 . S
C365 N367 1.317 . S
C365 H370 0.930 . S
C366 C365 1.333 . S
C366 N368 1.350 . S
C366 H392 0.931 . S
N367 Co363 2.148 . S
N367 C364 1.301 . S
N367 C365 1.317 . S
N368 C364 1.328 . S
N368 C366 1.350 . S
H369 C364 0.930 . S
H370 C365 0.930 . S
C371 O372 1.224 . S
C371 O390 1.247 . S
O372 C371 1.224 . S
N373 Co363 2.128 . S
N373 C374 1.355 . S
N373 C376 1.311 1_545 S
C374 N373 1.355 . S
C374 C375 1.363 1_545 S
C374 H386 0.929 . S
C375 C374 1.363 1_565 S
C375 N377 1.375 . S
C375 H393 0.931 . S
C376 N373 1.311 1_565 S
C376 N377 1.347 . S
C376 H387 0.929 . S
N377 C375 1.375 . S
N377 C376 1.347 . S
C378 C381 1.365 . S
C378 N383 1.328 . S
C378 H384 0.929 . S
C379 C380 1.362 . S
C379 C382 1.378 . S
C379 H394 0.929 . S
C380 C379 1.362 . S
C380 C381 1.366 . S
C381 C378 1.365 . S
C381 C380 1.366 . S
C381 H395 0.930 . S
C382 C379 1.378 . S
C382 N383 1.315 . S
C382 H385 0.930 . S
N383 Co363 2.194 . S
N383 C378 1.328 . S
N383 C382 1.315 . S
H384 C378 0.929 . S
H385 C382 0.930 . S
H386 C374 0.929 . S
H387 C376 0.929 . S
O388 Co363 2.351 . S
O388 C391 1.244 . S
O389 Co363 2.155 . S
O389 C391 1.240 . S
O390 Co363 2.096 . S
O390 C371 1.247 . S
C391 O388 1.244 . S
C391 O389 1.240 . S
H392 C366 0.931 . S
H393 C375 0.931 . S
H394 C379 0.929 . S
H395 C381 0.930 . S
Co396 N400 2.148 . S
Co396 N406 2.128 . S
Co396 N416 2.194 . S
Co396 O421 2.351 . S
Co396 O422 2.155 . S
Co396 O423 2.096 . S
C397 N400 1.301 . S
C397 N401 1.328 . S
C397 H402 0.930 . S
C398 C399 1.333 . S
C398 N400 1.317 . S
C398 H403 0.930 . S
C399 C398 1.333 . S
C399 N401 1.350 . S
C399 H425 0.931 . S
N400 Co396 2.148 . S
N400 C397 1.301 . S
N400 C398 1.317 . S
N401 C397 1.328 . S
N401 C399 1.350 . S
H402 C397 0.930 . S
H403 C398 0.930 . S
C404 O405 1.224 . S
C404 O423 1.247 . S
O405 C404 1.224 . S
N406 Co396 2.128 . S
N406 C407 1.355 . S
N406 C409 1.311 . S
C407 N406 1.355 . S
C407 C408 1.363 . S
C407 H419 0.929 . S
C408 C407 1.363 . S
C408 N410 1.375 . S
C408 H426 0.931 . S
C409 N406 1.311 . S
C409 N410 1.347 . S
C409 H420 0.929 . S
N410 C408 1.375 . S
N410 C409 1.347 . S
C411 C414 1.365 . S
C411 N416 1.328 . S
C411 H417 0.929 . S
C412 C413 1.362 . S
C412 C415 1.378 . S
C412 H427 0.929 . S
C413 C412 1.362 . S
C413 C414 1.366 . S
C414 C411 1.365 . S
C414 C413 1.366 . S
C414 H428 0.930 . S
C415 C412 1.378 . S
C415 N416 1.315 . S
C415 H418 0.930 . S
N416 Co396 2.194 . S
N416 C411 1.328 . S
N416 C415 1.315 . S
H417 C411 0.929 . S
H418 C415 0.930 . S
H419 C407 0.929 . S
H420 C409 0.929 . S
O421 Co396 2.351 . S
O421 C424 1.244 . S
O422 Co396 2.155 . S
O422 C424 1.240 . S
O423 Co396 2.096 . S
O423 C404 1.247 . S
C424 O421 1.244 . S
C424 O422 1.240 . S
H425 C399 0.931 . S
H426 C408 0.931 . S
H427 C412 0.929 . S
H428 C414 0.930 . S
Co429 N433 2.148 . S
Co429 N439 2.128 . S
Co429 N449 2.194 . S
Co429 O454 2.351 . S
Co429 O455 2.155 . S
Co429 O456 2.096 . S
C430 N433 1.301 . S
C430 N434 1.328 . S
C430 H435 0.930 . S
C431 C432 1.333 . S
C431 N433 1.317 . S
C431 H436 0.930 . S
C432 C431 1.333 . S
C432 N434 1.350 . S
C432 H458 0.931 . S
N433 Co429 2.148 . S
N433 C430 1.301 . S
N433 C431 1.317 . S
N434 C430 1.328 . S
N434 C432 1.350 . S
H435 C430 0.930 . S
H436 C431 0.930 . S
C437 O438 1.224 . S
C437 O456 1.247 . S
O438 C437 1.224 . S
N439 Co429 2.128 . S
N439 C440 1.355 . S
N439 C442 1.311 . S
C440 N439 1.355 . S
C440 C441 1.363 . S
C440 H452 0.929 . S
C441 C440 1.363 . S
C441 N443 1.375 . S
C441 H459 0.931 . S
C442 N439 1.311 . S
C442 N443 1.347 . S
C442 H453 0.929 . S
N443 C441 1.375 . S
N443 C442 1.347 . S
C444 C447 1.365 . S
C444 N449 1.328 . S
C444 H450 0.929 . S
C445 C446 1.362 . S
C445 C448 1.378 . S
C445 H460 0.929 . S
C446 C445 1.362 . S
C446 C447 1.366 . S
C447 C444 1.365 . S
C447 C446 1.366 . S
C447 H461 0.930 . S
C448 C445 1.378 . S
C448 N449 1.315 . S
C448 H451 0.930 . S
N449 Co429 2.194 . S
N449 C444 1.328 . S
N449 C448 1.315 . S
H450 C444 0.929 . S
H451 C448 0.930 . S
H452 C440 0.929 . S
H453 C442 0.929 . S
O454 Co429 2.351 . S
O454 C457 1.244 . S
O455 Co429 2.155 . S
O455 C457 1.240 . S
O456 Co429 2.096 . S
O456 C437 1.247 . S
C457 O454 1.244 . S
C457 O455 1.240 . S
H458 C432 0.931 . S
H459 C441 0.931 . S
H460 C445 0.929 . S
H461 C447 0.930 . S
Co462 N466 2.148 . S
Co462 N472 2.128 . S
Co462 N482 2.194 . S
Co462 O487 2.351 . S
Co462 O488 2.155 . S
Co462 O489 2.096 . S
C463 N466 1.301 . S
C463 N467 1.328 . S
C463 H468 0.930 . S
C464 C465 1.333 . S
C464 N466 1.317 . S
C464 H469 0.930 . S
C465 C464 1.333 . S
C465 N467 1.350 . S
C465 H491 0.931 . S
N466 Co462 2.148 . S
N466 C463 1.301 . S
N466 C464 1.317 . S
N467 C463 1.328 . S
N467 C465 1.350 . S
H468 C463 0.930 . S
H469 C464 0.930 . S
C470 O471 1.224 . S
C470 O489 1.247 . S
O471 C470 1.224 . S
N472 Co462 2.128 . S
N472 C473 1.355 . S
N472 C475 1.311 . S
C473 N472 1.355 . S
C473 C474 1.363 . S
C473 H485 0.929 . S
C474 C473 1.363 . S
C474 N476 1.375 . S
C474 H492 0.931 . S
C475 N472 1.311 . S
C475 N476 1.347 . S
C475 H486 0.929 . S
N476 C474 1.375 . S
N476 C475 1.347 . S
C477 C480 1.365 . S
C477 N482 1.328 . S
C477 H483 0.929 . S
C478 C479 1.362 . S
C478 C481 1.378 . S
C478 H493 0.929 . S
C479 C478 1.362 . S
C479 C480 1.366 . S
C480 C477 1.365 . S
C480 C479 1.366 . S
C480 H494 0.930 . S
C481 C478 1.378 . S
C481 N482 1.315 . S
C481 H484 0.930 . S
N482 Co462 2.194 . S
N482 C477 1.328 . S
N482 C481 1.315 . S
H483 C477 0.929 . S
H484 C481 0.930 . S
H485 C473 0.929 . S
H486 C475 0.929 . S
O487 Co462 2.351 . S
O487 C490 1.244 . S
O488 Co462 2.155 . S
O488 C490 1.240 . S
O489 Co462 2.096 . S
O489 C470 1.247 . S
C490 O487 1.244 . S
C490 O488 1.240 . S
H491 C465 0.931 . S
H492 C474 0.931 . S
H493 C478 0.929 . S
H494 C480 0.930 . S
Co495 N499 2.148 . S
Co495 N505 2.128 . S
Co495 N515 2.194 . S
Co495 O520 2.351 . S
Co495 O521 2.155 . S
Co495 O522 2.096 . S
C496 N499 1.301 . S
C496 N500 1.328 . S
C496 H501 0.930 . S
C497 C498 1.333 . S
C497 N499 1.317 . S
C497 H502 0.930 . S
C498 C497 1.333 . S
C498 N500 1.350 . S
C498 H524 0.931 . S
N499 Co495 2.148 . S
N499 C496 1.301 . S
N499 C497 1.317 . S
N500 C496 1.328 . S
N500 C498 1.350 . S
H501 C496 0.930 . S
H502 C497 0.930 . S
C503 O504 1.224 . S
C503 O522 1.247 . S
O504 C503 1.224 . S
N505 Co495 2.128 . S
N505 C506 1.355 . S
N505 C508 1.311 . S
C506 N505 1.355 . S
C506 C507 1.363 . S
C506 H518 0.929 . S
C507 C506 1.363 . S
C507 N509 1.375 . S
C507 H525 0.931 . S
C508 N505 1.311 . S
C508 N509 1.347 . S
C508 H519 0.929 . S
N509 C507 1.375 . S
N509 C508 1.347 . S
C510 C513 1.365 . S
C510 N515 1.328 . S
C510 H516 0.929 . S
C511 C512 1.362 . S
C511 C514 1.378 . S
C511 H526 0.929 . S
C512 C511 1.362 . S
C512 C513 1.366 . S
C513 C510 1.365 . S
C513 C512 1.366 . S
C513 H527 0.930 . S
C514 C511 1.378 . S
C514 N515 1.315 . S
C514 H517 0.930 . S
N515 Co495 2.194 . S
N515 C510 1.328 . S
N515 C514 1.315 . S
H516 C510 0.929 . S
H517 C514 0.930 . S
H518 C506 0.929 . S
H519 C508 0.929 . S
O520 Co495 2.351 . S
O520 C523 1.244 . S
O521 Co495 2.155 . S
O521 C523 1.240 . S
O522 Co495 2.096 . S
O522 C503 1.247 . S
C523 O520 1.244 . S
C523 O521 1.240 . S
H524 C498 0.931 . S
H525 C507 0.931 . S
H526 C511 0.929 . S
H527 C513 0.930 . S
H528 C546 0.951 . S
H529 C548 0.951 . S
H530 C550 0.950 . S
H531 C551 0.950 1_655 S
H532 C553 0.950 . S
H533 C556 0.950 1_655 S
H534 C557 0.950 . S
H535 C559 0.950 . S
H536 C560 0.950 1_565 S
H537 C561 0.951 . S
H538 C563 0.951 . S
H539 C565 0.950 . S
H540 C566 0.950 1_455 S
H541 C568 0.950 . S
H542 C571 0.950 1_455 S
H543 C572 0.950 . S
H544 C574 0.950 . S
H545 C575 0.950 1_545 S
C546 H528 0.951 . S
C546 C547 1.366 . S
C546 C548 1.388 . S
C547 C546 1.366 . S
C547 C551 1.385 . S
C548 H529 0.951 . S
C548 C546 1.388 . S
C548 C549 1.366 . S
C549 C548 1.366 . S
C549 C550 1.414 1_455 S
C549 C552 1.499 . S
C550 H530 0.950 . S
C550 C549 1.414 1_655 S
C550 C551 1.374 1_655 S
C551 H531 0.950 1_455 S
C551 C547 1.385 . S
C551 C550 1.374 1_455 S
C552 C549 1.499 . S
C552 C553 1.373 1_455 S
C552 C554 1.389 . S
C553 H532 0.950 . S
C553 C552 1.373 1_655 S
C553 C569 1.377 1_545 S
C554 C552 1.389 . S
C554 C555 1.524 . S
C554 C568 1.377 1_545 S
C555 C554 1.524 . S
C555 C556 1.397 . S
C555 C560 1.363 . S
C556 H533 0.950 1_455 S
C556 C555 1.397 . S
C556 C557 1.334 . S
C557 H534 0.950 . S
C557 C556 1.334 . S
C557 C558 1.287 . S
C558 C557 1.287 . S
C558 C559 1.524 . S
C558 H577 0.913 . S
C559 H535 0.950 . S
C559 C558 1.524 . S
C559 C560 1.415 . S
C560 H536 0.950 1_545 S
C560 C555 1.363 . S
C560 C559 1.415 . S
C561 H537 0.951 . S
C561 C562 1.366 . S
C561 C563 1.388 . S
C562 C561 1.366 . S
C562 C566 1.385 . S
C563 H538 0.951 . S
C563 C561 1.388 . S
C563 C564 1.366 . S
C564 C563 1.366 . S
C564 C565 1.414 1_655 S
C564 C567 1.499 . S
C565 H539 0.950 . S
C565 C564 1.414 1_455 S
C565 C566 1.374 1_455 S
C566 H540 0.950 1_655 S
C566 C562 1.385 . S
C566 C565 1.374 1_655 S
C567 C564 1.499 . S
C567 C568 1.373 1_655 S
C567 C569 1.389 . S
C568 H541 0.950 . S
C568 C554 1.377 1_565 S
C568 C567 1.373 1_455 S
C569 C553 1.377 1_565 S
C569 C567 1.389 . S
C569 C570 1.524 . S
C570 C569 1.524 . S
C570 C571 1.397 . S
C570 C575 1.363 . S
C571 H542 0.950 1_655 S
C571 C570 1.397 . S
C571 C572 1.334 . S
C572 H543 0.950 . S
C572 C571 1.334 . S
C572 C573 1.287 . S
C573 C572 1.287 . S
C573 C574 1.524 . S
C573 H576 0.999 . S
C574 H544 0.950 . S
C574 C573 1.524 . S
C574 C575 1.415 . S
C575 H545 0.950 1_565 S
C575 C570 1.363 . S
C575 C574 1.415 . S
H576 C573 0.999 . S
H577 C558 0.913 . S
H578 C596 0.951 . S
H579 C598 0.951 . S
H580 C600 0.950 1_545 S
H581 C601 0.950 . S
H582 C603 0.950 . S
H583 C606 0.950 . S
H584 C607 0.950 . S
H585 C609 0.943 1_655 S
H586 C610 0.950 1_655 S
H587 C611 0.951 . S
H588 C613 0.951 . S
H589 C615 0.950 1_565 S
H590 C616 0.950 . S
H591 C618 0.950 . S
H592 C621 0.950 . S
H593 C622 0.950 . S
H594 C624 0.943 1_455 S
H595 C625 0.950 1_455 S
C596 H578 0.951 . S
C596 C597 1.366 . S
C596 C598 1.388 . S
C597 C596 1.366 . S
C597 C601 1.385 . S
C598 H579 0.951 . S
C598 C596 1.388 . S
C598 C599 1.366 . S
C599 C598 1.366 . S
C599 C600 1.414 . S
C599 C602 1.499 . S
C600 H580 0.950 1_565 S
C600 C599 1.414 . S
C600 C601 1.374 . S
C601 H581 0.950 . S
C601 C597 1.385 . S
C601 C600 1.374 . S
C602 C599 1.499 . S
C602 C603 1.373 1_565 S
C602 C604 1.389 . S
C603 H582 0.950 . S
C603 C602 1.373 1_545 S
C603 C619 1.377 1_455 S
C604 C602 1.389 . S
C604 C605 1.524 . S
C604 C618 1.377 1_455 S
C605 C604 1.524 . S
C605 C606 1.397 . S
C605 C610 1.363 . S
C606 H583 0.950 . S
C606 C605 1.397 . S
C606 C607 1.334 . S
C607 H584 0.950 . S
C607 C606 1.334 . S
C607 C608 1.287 . S
C608 C607 1.287 . S
C608 C609 1.524 . S
C608 H627 0.913 . S
C609 H585 0.943 1_455 S
C609 C608 1.524 . S
C609 C610 1.415 . S
C610 H586 0.950 1_455 S
C610 C605 1.363 . S
C610 C609 1.415 . S
C611 H587 0.951 . S
C611 C612 1.366 . S
C611 C613 1.388 . S
C612 C611 1.366 . S
C612 C616 1.385 . S
C613 H588 0.951 . S
C613 C611 1.388 . S
C613 C614 1.366 . S
C614 C613 1.366 . S
C614 C615 1.414 . S
C614 C617 1.499 . S
C615 H589 0.950 1_545 S
C615 C614 1.414 . S
C615 C616 1.374 . S
C616 H590 0.950 . S
C616 C612 1.385 . S
C616 C615 1.374 . S
C617 C614 1.499 . S
C617 C618 1.373 1_545 S
C617 C619 1.389 . S
C618 H591 0.950 . S
C618 C604 1.377 1_655 S
C618 C617 1.373 1_565 S
C619 C603 1.377 1_655 S
C619 C617 1.389 . S
C619 C620 1.524 . S
C620 C619 1.524 . S
C620 C621 1.397 . S
C620 C625 1.363 . S
C621 H592 0.950 . S
C621 C620 1.397 . S
C621 C622 1.334 . S
C622 H593 0.950 . S
C622 C621 1.334 . S
C622 C623 1.287 . S
C623 C622 1.287 . S
C623 C624 1.524 . S
C623 H626 0.999 . S
C624 H594 0.943 1_655 S
C624 C623 1.524 . S
C624 C625 1.415 . S
C625 H595 0.950 1_655 S
C625 C620 1.363 . S
C625 C624 1.415 . S
H626 C623 0.999 . S
H627 C608 0.913 . S
H628 C646 0.951 . S
H629 C648 0.951 . S
H630 C650 0.950 . S
H631 C651 0.950 . S
H632 C653 0.950 . S
H633 C656 0.950 . S
H634 C657 0.950 . S
H635 C659 0.950 . S
H636 C660 0.950 . S
H637 C661 0.951 . S
H638 C663 0.951 . S
H639 C665 0.950 . S
H640 C666 0.950 . S
H641 C668 0.950 . S
H642 C671 0.950 . S
H643 C672 0.950 . S
H644 C674 0.950 . S
H645 C675 0.950 . S
C646 H628 0.951 . S
C646 C647 1.366 . S
C646 C648 1.388 . S
C647 C646 1.366 . S
C647 C651 1.385 . S
C648 H629 0.951 . S
C648 C646 1.388 . S
C648 C649 1.366 . S
C649 C648 1.366 . S
C649 C650 1.414 . S
C649 C652 1.499 . S
C650 H630 0.950 . S
C650 C649 1.414 . S
C650 C651 1.374 . S
C651 H631 0.950 . S
C651 C647 1.385 . S
C651 C650 1.374 . S
C652 C649 1.499 . S
C652 C653 1.373 . S
C652 C654 1.389 . S
C653 H632 0.950 . S
C653 C652 1.373 . S
C653 C669 1.377 . S
C654 C652 1.389 . S
C654 C655 1.524 . S
C654 C668 1.377 . S
C655 C654 1.524 . S
C655 C656 1.397 . S
C655 C660 1.363 . S
C656 H633 0.950 . S
C656 C655 1.397 . S
C656 C657 1.334 . S
C657 H634 0.950 . S
C657 C656 1.334 . S
C657 C658 1.287 . S
C658 C657 1.287 . S
C658 C659 1.524 . S
C658 H677 0.913 . S
C659 H635 0.950 . S
C659 C658 1.524 . S
C659 C660 1.415 . S
C660 H636 0.950 . S
C660 C655 1.363 . S
C660 C659 1.415 . S
C661 H637 0.951 . S
C661 C662 1.366 . S
C661 C663 1.388 . S
C662 C661 1.366 . S
C662 C666 1.385 . S
C663 H638 0.951 . S
C663 C661 1.388 . S
C663 C664 1.366 . S
C664 C663 1.366 . S
C664 C665 1.414 . S
C664 C667 1.499 . S
C665 H639 0.950 . S
C665 C664 1.414 . S
C665 C666 1.374 . S
C666 H640 0.950 . S
C666 C662 1.385 . S
C666 C665 1.374 . S
C667 C664 1.499 . S
C667 C668 1.373 . S
C667 C669 1.389 . S
C668 H641 0.950 . S
C668 C654 1.377 . S
C668 C667 1.373 . S
C669 C653 1.377 . S
C669 C667 1.389 . S
C669 C670 1.524 . S
C670 C669 1.524 . S
C670 C671 1.397 . S
C670 C675 1.363 . S
C671 H642 0.950 . S
C671 C670 1.397 . S
C671 C672 1.334 . S
C672 H643 0.950 . S
C672 C671 1.334 . S
C672 C673 1.287 . S
C673 C672 1.287 . S
C673 C674 1.524 . S
C673 H676 0.999 . S
C674 H644 0.950 . S
C674 C673 1.524 . S
C674 C675 1.415 . S
C675 H645 0.950 . S
C675 C670 1.363 . S
C675 C674 1.415 . S
H676 C673 0.999 . S
H677 C658 0.913 . S
H678 C696 0.951 . S
H679 C698 0.951 . S
H680 C700 0.950 . S
H681 C701 0.950 . S
H682 C703 0.950 . S
H683 C706 0.950 . S
H684 C707 0.950 . S
H685 C709 0.950 . S
H686 C710 0.950 . S
H687 C711 0.951 . S
H688 C713 0.951 . S
H689 C715 0.950 . S
H690 C716 0.950 . S
H691 C718 0.950 . S
H692 C721 0.950 . S
H693 C722 0.950 . S
H694 C724 0.950 . S
H695 C725 0.950 . S
C696 H678 0.951 . S
C696 C697 1.366 . S
C696 C698 1.388 . S
C697 C696 1.366 . S
C697 C701 1.385 . S
C698 H679 0.951 . S
C698 C696 1.388 . S
C698 C699 1.366 . S
C699 C698 1.366 . S
C699 C700 1.414 . S
C699 C702 1.499 . S
C700 H680 0.950 . S
C700 C699 1.414 . S
C700 C701 1.374 . S
C701 H681 0.950 . S
C701 C697 1.385 . S
C701 C700 1.374 . S
C702 C699 1.499 . S
C702 C703 1.373 . S
C702 C704 1.389 . S
C703 H682 0.950 . S
C703 C702 1.373 . S
C703 C719 1.377 . S
C704 C702 1.389 . S
C704 C705 1.524 . S
C704 C718 1.377 . S
C705 C704 1.524 . S
C705 C706 1.397 . S
C705 C710 1.363 . S
C706 H683 0.950 . S
C706 C705 1.397 . S
C706 C707 1.334 . S
C707 H684 0.950 . S
C707 C706 1.334 . S
C707 C708 1.287 . S
C708 C707 1.287 . S
C708 C709 1.524 . S
C708 H727 0.913 . S
C709 H685 0.950 . S
C709 C708 1.524 . S
C709 C710 1.415 . S
C710 H686 0.950 . S
C710 C705 1.363 . S
C710 C709 1.415 . S
C711 H687 0.951 . S
C711 C712 1.366 . S
C711 C713 1.388 . S
C712 C711 1.366 . S
C712 C716 1.385 . S
C713 H688 0.951 . S
C713 C711 1.388 . S
C713 C714 1.366 . S
C714 C713 1.366 . S
C714 C715 1.414 . S
C714 C717 1.499 . S
C715 H689 0.950 . S
C715 C714 1.414 . S
C715 C716 1.374 . S
C716 H690 0.950 . S
C716 C712 1.385 . S
C716 C715 1.374 . S
C717 C714 1.499 . S
C717 C718 1.373 . S
C717 C719 1.389 . S
C718 H691 0.950 . S
C718 C704 1.377 . S
C718 C717 1.373 . S
C719 C703 1.377 . S
C719 C717 1.389 . S
C719 C720 1.524 . S
C720 C719 1.524 . S
C720 C721 1.397 . S
C720 C725 1.363 . S
C721 H692 0.950 . S
C721 C720 1.397 . S
C721 C722 1.334 . S
C722 H693 0.950 . S
C722 C721 1.334 . S
C722 C723 1.287 . S
C723 C722 1.287 . S
C723 C724 1.524 . S
C723 H726 0.999 . S
C724 H694 0.950 . S
C724 C723 1.524 . S
C724 C725 1.415 . S
C725 H695 0.950 . S
C725 C720 1.363 . S
C725 C724 1.415 . S
H726 C723 0.999 . S
H727 C708 0.913 . S
H728 C746 0.951 . S
H729 C748 0.951 . S
H730 C750 0.950 . S
H731 C751 0.950 1_655 S
H732 C753 0.950 . S
H733 C756 0.950 . S
H734 C757 0.950 . S
H735 C759 0.962 . S
H736 C760 0.950 1_565 S
H737 C761 0.951 . S
H738 C763 0.951 . S
H739 C765 0.950 . S
H740 C766 0.950 1_455 S
H741 C768 0.950 . S
H742 C771 0.950 . S
H743 C772 0.950 . S
H744 C774 0.962 . S
H745 C775 0.950 1_545 S
C746 H728 0.951 . S
C746 C747 1.366 . S
C746 C748 1.388 . S
C747 C746 1.366 . S
C747 C751 1.385 . S
C748 H729 0.951 . S
C748 C746 1.388 . S
C748 C749 1.366 . S
C749 C748 1.366 . S
C749 C750 1.414 1_455 S
C749 C752 1.499 . S
C750 H730 0.950 . S
C750 C749 1.414 1_655 S
C750 C751 1.374 1_655 S
C751 H731 0.950 1_455 S
C751 C747 1.385 . S
C751 C750 1.374 1_455 S
C752 C749 1.499 . S
C752 C753 1.373 1_455 S
C752 C754 1.389 . S
C753 H732 0.950 . S
C753 C752 1.373 1_655 S
C753 C769 1.377 1_545 S
C754 C752 1.389 . S
C754 C755 1.524 . S
C754 C768 1.377 1_545 S
C755 C754 1.524 . S
C755 C756 1.397 . S
C755 C760 1.363 . S
C756 H733 0.950 . S
C756 C755 1.397 . S
C756 C757 1.334 . S
C757 H734 0.950 . S
C757 C756 1.334 . S
C757 C758 1.287 . S
C758 C757 1.287 . S
C758 C759 1.524 . S
C758 H777 0.913 . S
C759 H735 0.962 . S
C759 C758 1.524 . S
C759 C760 1.415 . S
C760 H736 0.950 1_545 S
C760 C755 1.363 . S
C760 C759 1.415 . S
C761 H737 0.951 . S
C761 C762 1.366 . S
C761 C763 1.388 . S
C762 C761 1.366 . S
C762 C766 1.385 . S
C763 H738 0.951 . S
C763 C761 1.388 . S
C763 C764 1.366 . S
C764 C763 1.366 . S
C764 C765 1.414 1_655 S
C764 C767 1.499 . S
C765 H739 0.950 . S
C765 C764 1.414 1_455 S
C765 C766 1.374 1_455 S
C766 H740 0.950 1_655 S
C766 C762 1.385 . S
C766 C765 1.374 1_655 S
C767 C764 1.499 . S
C767 C768 1.373 1_655 S
C767 C769 1.389 . S
C768 H741 0.950 . S
C768 C754 1.377 1_565 S
C768 C767 1.373 1_455 S
C769 C753 1.377 1_565 S
C769 C767 1.389 . S
C769 C770 1.524 . S
C770 C769 1.524 . S
C770 C771 1.397 . S
C770 C775 1.363 . S
C771 H742 0.950 . S
C771 C770 1.397 . S
C771 C772 1.334 . S
C772 H743 0.950 . S
C772 C771 1.334 . S
C772 C773 1.287 . S
C773 C772 1.287 . S
C773 C774 1.524 . S
C773 H776 0.999 . S
C774 H744 0.962 . S
C774 C773 1.524 . S
C774 C775 1.415 . S
C775 H745 0.950 1_565 S
C775 C770 1.363 . S
C775 C774 1.415 . S
H776 C773 0.999 . S
H777 C758 0.913 . S
H778 C796 0.951 . S
H779 C798 0.951 . S
H780 C800 0.950 . S
H781 C801 0.950 . S
H782 C803 0.950 . S
H783 C806 0.950 . S
H784 C807 0.950 . S
H785 C809 0.950 . S
H786 C810 0.950 . S
H787 C811 0.951 . S
H788 C813 0.951 . S
H789 C815 0.950 . S
H790 C816 0.950 . S
H791 C818 0.950 . S
H792 C821 0.950 . S
H793 C822 0.950 . S
H794 C824 0.950 . S
H795 C825 0.950 . S
C796 H778 0.951 . S
C796 C797 1.366 . S
C796 C798 1.388 . S
C797 C796 1.366 . S
C797 C801 1.385 . S
C798 H779 0.951 . S
C798 C796 1.388 . S
C798 C799 1.366 . S
C799 C798 1.366 . S
C799 C800 1.414 . S
C799 C802 1.499 . S
C800 H780 0.950 . S
C800 C799 1.414 . S
C800 C801 1.374 . S
C801 H781 0.950 . S
C801 C797 1.385 . S
C801 C800 1.374 . S
C802 C799 1.499 . S
C802 C803 1.373 . S
C802 C804 1.389 1_565 S
C803 H782 0.950 . S
C803 C802 1.373 . S
C803 C819 1.377 1_455 S
C804 C802 1.389 1_545 S
C804 C805 1.524 . S
C804 C818 1.377 1_455 S
C805 C804 1.524 . S
C805 C806 1.397 . S
C805 C810 1.363 . S
C806 H783 0.950 . S
C806 C805 1.397 . S
C806 C807 1.334 . S
C807 H784 0.950 . S
C807 C806 1.334 . S
C807 C808 1.287 . S
C808 C807 1.287 . S
C808 C809 1.524 . S
C808 H827 0.913 . S
C809 H785 0.950 . S
C809 C808 1.524 . S
C809 C810 1.415 . S
C810 H786 0.950 . S
C810 C805 1.363 . S
C810 C809 1.415 . S
C811 H787 0.951 . S
C811 C812 1.366 . S
C811 C813 1.388 . S
C812 C811 1.366 . S
C812 C816 1.385 . S
C813 H788 0.951 . S
C813 C811 1.388 . S
C813 C814 1.366 . S
C814 C813 1.366 . S
C814 C815 1.414 . S
C814 C817 1.499 . S
C815 H789 0.950 . S
C815 C814 1.414 . S
C815 C816 1.374 . S
C816 H790 0.950 . S
C816 C812 1.385 . S
C816 C815 1.374 . S
C817 C814 1.499 . S
C817 C818 1.373 . S
C817 C819 1.389 1_545 S
C818 H791 0.950 . S
C818 C804 1.377 1_655 S
C818 C817 1.373 . S
C819 C803 1.377 1_655 S
C819 C817 1.389 1_565 S
C819 C820 1.524 . S
C820 C819 1.524 . S
C820 C821 1.397 . S
C820 C825 1.363 . S
C821 H792 0.950 . S
C821 C820 1.397 . S
C821 C822 1.334 . S
C822 H793 0.950 . S
C822 C821 1.334 . S
C822 C823 1.287 . S
C823 C822 1.287 . S
C823 C824 1.524 . S
C823 H826 0.999 . S
C824 H794 0.950 . S
C824 C823 1.524 . S
C824 C825 1.415 . S
C825 H795 0.950 . S
C825 C820 1.363 . S
C825 C824 1.415 . S
H826 C823 0.999 . S
H827 C808 0.913 . S
H828 C846 0.951 . S
H829 C848 0.951 . S
H830 C850 0.950 . S
H831 C851 0.950 . S
H832 C853 0.950 . S
H833 C856 0.950 . S
H834 C857 0.950 . S
H835 C859 0.950 . S
H836 C860 0.950 . S
H837 C861 0.951 . S
H838 C863 0.951 . S
H839 C865 0.950 . S
H840 C866 0.950 . S
H841 C868 0.950 . S
H842 C871 0.950 . S
H843 C872 0.950 . S
H844 C874 0.950 . S
H845 C875 0.950 . S
C846 H828 0.951 . S
C846 C847 1.366 . S
C846 C848 1.388 . S
C847 C846 1.366 . S
C847 C851 1.385 . S
C848 H829 0.951 . S
C848 C846 1.388 . S
C848 C849 1.366 . S
C849 C848 1.366 . S
C849 C850 1.414 . S
C849 C852 1.499 . S
C850 H830 0.950 . S
C850 C849 1.414 . S
C850 C851 1.374 . S
C851 H831 0.950 . S
C851 C847 1.385 . S
C851 C850 1.374 . S
C852 C849 1.499 . S
C852 C853 1.373 . S
C852 C854 1.389 . S
C853 H832 0.950 . S
C853 C852 1.373 . S
C853 C869 1.377 . S
C854 C852 1.389 . S
C854 C855 1.524 . S
C854 C868 1.377 . S
C855 C854 1.524 . S
C855 C856 1.397 . S
C855 C860 1.363 . S
C856 H833 0.950 . S
C856 C855 1.397 . S
C856 C857 1.334 . S
C857 H834 0.950 . S
C857 C856 1.334 . S
C857 C858 1.287 . S
C858 C857 1.287 . S
C858 C859 1.524 . S
C858 H877 0.913 . S
C859 H835 0.950 . S
C859 C858 1.524 . S
C859 C860 1.415 . S
C860 H836 0.950 . S
C860 C855 1.363 . S
C860 C859 1.415 . S
C861 H837 0.951 . S
C861 C862 1.366 . S
C861 C863 1.388 . S
C862 C861 1.366 . S
C862 C866 1.385 . S
C863 H838 0.951 . S
C863 C861 1.388 . S
C863 C864 1.366 . S
C864 C863 1.366 . S
C864 C865 1.414 . S
C864 C867 1.499 . S
C865 H839 0.950 . S
C865 C864 1.414 . S
C865 C866 1.374 . S
C866 H840 0.950 . S
C866 C862 1.385 . S
C866 C865 1.374 . S
C867 C864 1.499 . S
C867 C868 1.373 . S
C867 C869 1.389 . S
C868 H841 0.950 . S
C868 C854 1.377 . S
C868 C867 1.373 . S
C869 C853 1.377 . S
C869 C867 1.389 . S
C869 C870 1.524 . S
C870 C869 1.524 . S
C870 C871 1.397 . S
C870 C875 1.363 . S
C871 H842 0.950 . S
C871 C870 1.397 . S
C871 C872 1.334 . S
C872 H843 0.950 . S
C872 C871 1.334 . S
C872 C873 1.287 . S
C873 C872 1.287 . S
C873 C874 1.524 . S
C873 H876 0.999 . S
C874 H844 0.950 . S
C874 C873 1.524 . S
C874 C875 1.415 . S
C875 H845 0.950 . S
C875 C870 1.363 . S
C875 C874 1.415 . S
H876 C873 0.999 . S
H877 C858 0.913 . S
H878 C896 0.951 . S
H879 C898 0.951 . S
H880 C900 0.950 . S
H881 C901 0.950 . S
H882 C903 0.950 . S
H883 C906 0.950 . S
H884 C907 0.950 . S
H885 C909 0.950 . S
H886 C910 0.950 . S
H887 C911 0.951 . S
H888 C913 0.951 . S
H889 C915 0.950 . S
H890 C916 0.950 . S
H891 C918 0.950 . S
H892 C921 0.950 . S
H893 C922 0.950 . S
H894 C924 0.950 . S
H895 C925 0.950 . S
C896 H878 0.951 . S
C896 C897 1.366 . S
C896 C898 1.388 . S
C897 C896 1.366 . S
C897 C901 1.385 . S
C898 H879 0.951 . S
C898 C896 1.388 . S
C898 C899 1.366 . S
C899 C898 1.366 . S
C899 C900 1.414 . S
C899 C902 1.499 . S
C900 H880 0.950 . S
C900 C899 1.414 . S
C900 C901 1.374 . S
C901 H881 0.950 . S
C901 C897 1.385 . S
C901 C900 1.374 . S
C902 C899 1.499 . S
C902 C903 1.373 . S
C902 C904 1.389 . S
C903 H882 0.950 . S
C903 C902 1.373 . S
C903 C919 1.377 . S
C904 C902 1.389 . S
C904 C905 1.524 . S
C904 C918 1.377 . S
C905 C904 1.524 . S
C905 C906 1.397 . S
C905 C910 1.363 . S
C906 H883 0.950 . S
C906 C905 1.397 . S
C906 C907 1.334 . S
C907 H884 0.950 . S
C907 C906 1.334 . S
C907 C908 1.287 . S
C908 C907 1.287 . S
C908 C909 1.524 . S
C908 H927 0.913 . S
C909 H885 0.950 . S
C909 C908 1.524 . S
C909 C910 1.415 . S
C910 H886 0.950 . S
C910 C905 1.363 . S
C910 C909 1.415 . S
C911 H887 0.951 . S
C911 C912 1.366 . S
C911 C913 1.388 . S
C912 C911 1.366 . S
C912 C916 1.385 . S
C913 H888 0.951 . S
C913 C911 1.388 . S
C913 C914 1.366 . S
C914 C913 1.366 . S
C914 C915 1.414 . S
C914 C917 1.499 . S
C915 H889 0.950 . S
C915 C914 1.414 . S
C915 C916 1.374 . S
C916 H890 0.950 . S
C916 C912 1.385 . S
C916 C915 1.374 . S
C917 C914 1.499 . S
C917 C918 1.373 . S
C917 C919 1.389 . S
C918 H891 0.950 . S
C918 C904 1.377 . S
C918 C917 1.373 . S
C919 C903 1.377 . S
C919 C917 1.389 . S
C919 C920 1.524 . S
C920 C919 1.524 . S
C920 C921 1.397 . S
C920 C925 1.363 . S
C921 H892 0.950 . S
C921 C920 1.397 . S
C921 C922 1.334 . S
C922 H893 0.950 . S
C922 C921 1.334 . S
C922 C923 1.287 . S
C923 C922 1.287 . S
C923 C924 1.524 . S
C923 H926 0.999 . S
C924 H894 0.950 . S
C924 C923 1.524 . S
C924 C925 1.415 . S
C925 H895 0.950 . S
C925 C920 1.363 . S
C925 C924 1.415 . S
H926 C923 0.999 . S
H927 C908 0.913 . S
H928 C946 0.951 . S
H929 C948 0.951 . S
H930 C950 0.950 . S
H931 C951 0.950 . S
H932 C953 0.950 . S
H933 C956 0.950 . S
H934 C957 0.950 . S
H935 C959 0.950 . S
H936 C960 0.950 . S
H937 C961 0.951 . S
H938 C963 0.951 . S
H939 C965 0.950 . S
H940 C966 0.950 . S
H941 C968 0.950 . S
H942 C971 0.950 . S
H943 C972 0.950 . S
H944 C974 0.950 . S
H945 C975 0.950 . S
C946 H928 0.951 . S
C946 C947 1.366 . S
C946 C948 1.388 . S
C947 C946 1.366 . S
C947 C951 1.385 . S
C948 H929 0.951 . S
C948 C946 1.388 . S
C948 C949 1.366 . S
C949 C948 1.366 . S
C949 C950 1.414 . S
C949 C952 1.499 . S
C950 H930 0.950 . S
C950 C949 1.414 . S
C950 C951 1.374 . S
C951 H931 0.950 . S
C951 C947 1.385 . S
C951 C950 1.374 . S
C952 C949 1.499 . S
C952 C953 1.373 . S
C952 C954 1.389 . S
C953 H932 0.950 . S
C953 C952 1.373 . S
C953 C969 1.377 1_554 S
C954 C952 1.389 . S
C954 C955 1.524 . S
C954 C968 1.377 1_554 S
C955 C954 1.524 . S
C955 C956 1.397 . S
C955 C960 1.363 . S
C956 H933 0.950 . S
C956 C955 1.397 . S
C956 C957 1.334 . S
C957 H934 0.950 . S
C957 C956 1.334 . S
C957 C958 1.287 . S
C958 C957 1.287 . S
C958 C959 1.524 . S
C958 H977 0.913 . S
C959 H935 0.950 . S
C959 C958 1.524 . S
C959 C960 1.415 . S
C960 H936 0.950 . S
C960 C955 1.363 . S
C960 C959 1.415 . S
C961 H937 0.951 . S
C961 C962 1.366 . S
C961 C963 1.388 . S
C962 C961 1.366 . S
C962 C966 1.385 . S
C963 H938 0.951 . S
C963 C961 1.388 . S
C963 C964 1.366 . S
C964 C963 1.366 . S
C964 C965 1.414 . S
C964 C967 1.499 . S
C965 H939 0.950 . S
C965 C964 1.414 . S
C965 C966 1.374 . S
C966 H940 0.950 . S
C966 C962 1.385 . S
C966 C965 1.374 . S
C967 C964 1.499 . S
C967 C968 1.373 . S
C967 C969 1.389 . S
C968 H941 0.950 . S
C968 C954 1.377 1_556 S
C968 C967 1.373 . S
C969 C953 1.377 1_556 S
C969 C967 1.389 . S
C969 C970 1.524 . S
C970 C969 1.524 . S
C970 C971 1.397 . S
C970 C975 1.363 . S
C971 H942 0.950 . S
C971 C970 1.397 . S
C971 C972 1.334 . S
C972 H943 0.950 . S
C972 C971 1.334 . S
C972 C973 1.287 . S
C973 C972 1.287 . S
C973 C974 1.524 . S
C973 H976 0.999 . S
C974 H944 0.950 . S
C974 C973 1.524 . S
C974 C975 1.415 . S
C975 H945 0.950 . S
C975 C970 1.363 . S
C975 C974 1.415 . S
H976 C973 0.999 . S
H977 C958 0.913 . S
H978 C996 0.951 . S
H979 C998 0.951 . S
H980 C1000 0.950 . S
H981 C1001 0.950 . S
H982 C1003 0.950 . S
H983 C1006 0.950 . S
H984 C1007 0.950 . S
H985 C1009 0.950 . S
H986 C1010 0.950 . S
H987 C1011 0.951 . S
H988 C1013 0.951 . S
H989 C1015 0.950 . S
H990 C1016 0.950 . S
H991 C1018 0.950 . S
H992 C1021 0.950 . S
H993 C1022 0.950 . S
H994 C1024 0.950 . S
H995 C1025 0.950 . S
C996 H978 0.951 . S
C996 C997 1.366 . S
C996 C998 1.388 . S
C997 C996 1.366 . S
C997 C1001 1.385 . S
C998 H979 0.951 . S
C998 C996 1.388 . S
C998 C999 1.366 . S
C999 C998 1.366 . S
C999 C1000 1.414 . S
C999 C1002 1.499 . S
C1000 H980 0.950 . S
C1000 C999 1.414 . S
C1000 C1001 1.374 . S
C1001 H981 0.950 . S
C1001 C997 1.385 . S
C1001 C1000 1.374 . S
C1002 C999 1.499 . S
C1002 C1003 1.373 . S
C1002 C1004 1.389 . S
C1003 H982 0.950 . S
C1003 C1002 1.373 . S
C1003 C1019 1.377 . S
C1004 C1002 1.389 . S
C1004 C1005 1.524 . S
C1004 C1018 1.377 . S
C1005 C1004 1.524 . S
C1005 C1006 1.397 . S
C1005 C1010 1.363 . S
C1006 H983 0.950 . S
C1006 C1005 1.397 . S
C1006 C1007 1.334 . S
C1007 H984 0.950 . S
C1007 C1006 1.334 . S
C1007 C1008 1.287 . S
C1008 C1007 1.287 . S
C1008 C1009 1.524 . S
C1008 H1027 0.913 . S
C1009 H985 0.950 . S
C1009 C1008 1.524 . S
C1009 C1010 1.415 . S
C1010 H986 0.950 . S
C1010 C1005 1.363 . S
C1010 C1009 1.415 . S
C1011 H987 0.951 . S
C1011 C1012 1.366 . S
C1011 C1013 1.388 . S
C1012 C1011 1.366 . S
C1012 C1016 1.385 . S
C1013 H988 0.951 . S
C1013 C1011 1.388 . S
C1013 C1014 1.366 . S
C1014 C1013 1.366 . S
C1014 C1015 1.414 . S
C1014 C1017 1.499 . S
C1015 H989 0.950 . S
C1015 C1014 1.414 . S
C1015 C1016 1.374 . S
C1016 H990 0.950 . S
C1016 C1012 1.385 . S
C1016 C1015 1.374 . S
C1017 C1014 1.499 . S
C1017 C1018 1.373 . S
C1017 C1019 1.389 . S
C1018 H991 0.950 . S
C1018 C1004 1.377 . S
C1018 C1017 1.373 . S
C1019 C1003 1.377 . S
C1019 C1017 1.389 . S
C1019 C1020 1.524 . S
C1020 C1019 1.524 . S
C1020 C1021 1.397 . S
C1020 C1025 1.363 . S
C1021 H992 0.950 . S
C1021 C1020 1.397 . S
C1021 C1022 1.334 . S
C1022 H993 0.950 . S
C1022 C1021 1.334 . S
C1022 C1023 1.287 . S
C1023 C1022 1.287 . S
C1023 C1024 1.524 . S
C1023 H1026 0.999 . S
C1024 H994 0.950 . S
C1024 C1023 1.524 . S
C1024 C1025 1.415 . S
C1025 H995 0.950 . S
C1025 C1020 1.363 . S
C1025 C1024 1.415 . S
H1026 C1023 0.999 . S
H1027 C1008 0.913 . S
H1028 C1046 0.951 . S
H1029 C1048 0.951 . S
H1030 C1050 0.950 . S
H1031 C1051 0.950 . S
H1032 C1053 0.950 . S
H1033 C1056 0.950 . S
H1034 C1057 0.950 . S
H1035 C1059 0.950 . S
H1036 C1060 0.950 . S
H1037 C1061 0.951 . S
H1038 C1063 0.951 . S
H1039 C1065 0.950 . S
H1040 C1066 0.950 . S
H1041 C1068 0.950 . S
H1042 C1071 0.950 . S
H1043 C1072 0.950 . S
H1044 C1074 0.950 . S
H1045 C1075 0.950 . S
C1046 H1028 0.951 . S
C1046 C1047 1.366 . S
C1046 C1048 1.388 . S
C1047 C1046 1.366 . S
C1047 C1051 1.385 . S
C1048 H1029 0.951 . S
C1048 C1046 1.388 . S
C1048 C1049 1.366 . S
C1049 C1048 1.366 . S
C1049 C1050 1.414 . S
C1049 C1052 1.499 . S
C1050 H1030 0.950 . S
C1050 C1049 1.414 . S
C1050 C1051 1.374 . S
C1051 H1031 0.950 . S
C1051 C1047 1.385 . S
C1051 C1050 1.374 . S
C1052 C1049 1.499 . S
C1052 C1053 1.373 . S
C1052 C1054 1.389 . S
C1053 H1032 0.950 . S
C1053 C1052 1.373 . S
C1053 C1069 1.377 1_556 S
C1054 C1052 1.389 . S
C1054 C1055 1.524 . S
C1054 C1068 1.377 1_556 S
C1055 C1054 1.524 . S
C1055 C1056 1.397 1_655 S
C1055 C1060 1.363 . S
C1056 H1033 0.950 . S
C1056 C1055 1.397 1_455 S
C1056 C1057 1.334 . S
C1057 H1034 0.950 . S
C1057 C1056 1.334 . S
C1057 C1058 1.287 . S
C1058 C1057 1.287 . S
C1058 C1059 1.524 . S
C1058 H1077 0.913 . S
C1059 H1035 0.950 . S
C1059 C1058 1.524 . S
C1059 C1060 1.415 1_455 S
C1060 H1036 0.950 . S
C1060 C1055 1.363 . S
C1060 C1059 1.415 1_655 S
C1061 H1037 0.951 . S
C1061 C1062 1.366 . S
C1061 C1063 1.388 . S
C1062 C1061 1.366 . S
C1062 C1066 1.385 . S
C1063 H1038 0.951 . S
C1063 C1061 1.388 . S
C1063 C1064 1.366 . S
C1064 C1063 1.366 . S
C1064 C1065 1.414 . S
C1064 C1067 1.499 . S
C1065 H1039 0.950 . S
C1065 C1064 1.414 . S
C1065 C1066 1.374 . S
C1066 H1040 0.950 . S
C1066 C1062 1.385 . S
C1066 C1065 1.374 . S
C1067 C1064 1.499 . S
C1067 C1068 1.373 . S
C1067 C1069 1.389 . S
C1068 H1041 0.950 . S
C1068 C1054 1.377 1_554 S
C1068 C1067 1.373 . S
C1069 C1053 1.377 1_554 S
C1069 C1067 1.389 . S
C1069 C1070 1.524 . S
C1070 C1069 1.524 . S
C1070 C1071 1.397 . S
C1070 C1075 1.363 . S
C1071 H1042 0.950 . S
C1071 C1070 1.397 . S
C1071 C1072 1.334 . S
C1072 H1043 0.950 . S
C1072 C1071 1.334 . S
C1072 C1073 1.287 . S
C1073 C1072 1.287 . S
C1073 C1074 1.524 . S
C1073 H1076 0.999 . S
C1074 H1044 0.950 . S
C1074 C1073 1.524 . S
C1074 C1075 1.415 . S
C1075 H1045 0.950 . S
C1075 C1070 1.363 . S
C1075 C1074 1.415 . S
H1076 C1073 0.999 . S
H1077 C1058 0.913 . S
H1078 C1096 0.951 . S
H1079 C1098 0.951 . S
H1080 C1100 0.950 . S
H1081 C1101 0.950 . S
H1082 C1103 0.950 . S
H1083 C1106 0.950 . S
H1084 C1107 0.950 . S
H1085 C1109 0.950 . S
H1086 C1110 0.950 . S
H1087 C1111 0.951 . S
H1088 C1113 0.951 . S
H1089 C1115 0.950 . S
H1090 C1116 0.950 . S
H1091 C1118 0.950 . S
H1092 C1121 0.950 . S
H1093 C1122 0.950 . S
H1094 C1124 0.950 . S
H1095 C1125 0.950 . S
C1096 H1078 0.951 . S
C1096 C1097 1.366 . S
C1096 C1098 1.388 . S
C1097 C1096 1.366 . S
C1097 C1101 1.385 . S
C1098 H1079 0.951 . S
C1098 C1096 1.388 . S
C1098 C1099 1.366 . S
C1099 C1098 1.366 . S
C1099 C1100 1.414 . S
C1099 C1102 1.499 . S
C1100 H1080 0.950 . S
C1100 C1099 1.414 . S
C1100 C1101 1.374 . S
C1101 H1081 0.950 . S
C1101 C1097 1.385 . S
C1101 C1100 1.374 . S
C1102 C1099 1.499 . S
C1102 C1103 1.373 . S
C1102 C1104 1.389 . S
C1103 H1082 0.950 . S
C1103 C1102 1.373 . S
C1103 C1119 1.377 . S
C1104 C1102 1.389 . S
C1104 C1105 1.524 . S
C1104 C1118 1.377 . S
C1105 C1104 1.524 . S
C1105 C1106 1.397 . S
C1105 C1110 1.363 . S
C1106 H1083 0.950 . S
C1106 C1105 1.397 . S
C1106 C1107 1.334 . S
C1107 H1084 0.950 . S
C1107 C1106 1.334 . S
C1107 C1108 1.287 . S
C1108 C1107 1.287 . S
C1108 C1109 1.524 . S
C1108 H1127 0.913 . S
C1109 H1085 0.950 . S
C1109 C1108 1.524 . S
C1109 C1110 1.415 . S
C1110 H1086 0.950 . S
C1110 C1105 1.363 . S
C1110 C1109 1.415 . S
C1111 H1087 0.951 . S
C1111 C1112 1.366 . S
C1111 C1113 1.388 . S
C1112 C1111 1.366 . S
C1112 C1116 1.385 . S
C1113 H1088 0.951 . S
C1113 C1111 1.388 . S
C1113 C1114 1.366 . S
C1114 C1113 1.366 . S
C1114 C1115 1.414 . S
C1114 C1117 1.499 . S
C1115 H1089 0.950 . S
C1115 C1114 1.414 . S
C1115 C1116 1.374 . S
C1116 H1090 0.950 . S
C1116 C1112 1.385 . S
C1116 C1115 1.374 . S
C1117 C1114 1.499 . S
C1117 C1118 1.373 . S
C1117 C1119 1.389 . S
C1118 H1091 0.950 . S
C1118 C1104 1.377 . S
C1118 C1117 1.373 . S
C1119 C1103 1.377 . S
C1119 C1117 1.389 . S
C1119 C1120 1.524 . S
C1120 C1119 1.524 . S
C1120 C1121 1.397 . S
C1120 C1125 1.363 1_565 S
C1121 H1092 0.950 . S
C1121 C1120 1.397 . S
C1121 C1122 1.334 . S
C1122 H1093 0.950 . S
C1122 C1121 1.334 . S
C1122 C1123 1.254 1_565 S
C1123 C1122 1.254 1_545 S
C1123 C1124 1.544 . S
C1123 H1126 1.017 . S
C1124 H1094 0.950 . S
C1124 C1123 1.544 . S
C1124 C1125 1.415 . S
C1125 H1095 0.950 . S
C1125 C1120 1.363 1_545 S
C1125 C1124 1.415 . S
H1126 C1123 1.017 . S
H1127 C1108 0.913 . S
H1128 C1146 0.951 . S
H1129 C1148 0.951 . S
H1130 C1150 0.950 . S
H1131 C1151 0.950 . S
H1132 C1153 0.950 . S
H1133 C1156 0.950 . S
H1134 C1157 0.950 . S
H1135 C1159 0.950 . S
H1136 C1160 0.950 . S
H1137 C1161 0.951 . S
H1138 C1163 0.951 . S
H1139 C1165 0.950 . S
H1140 C1166 0.950 . S
H1141 C1168 0.950 . S
H1142 C1171 0.950 . S
H1143 C1172 0.950 . S
H1144 C1174 0.950 . S
H1145 C1175 0.950 . S
C1146 H1128 0.951 . S
C1146 C1147 1.366 . S
C1146 C1148 1.388 . S
C1147 C1146 1.366 . S
C1147 C1151 1.385 . S
C1148 H1129 0.951 . S
C1148 C1146 1.388 . S
C1148 C1149 1.366 . S
C1149 C1148 1.366 . S
C1149 C1150 1.414 . S
C1149 C1152 1.499 . S
C1150 H1130 0.950 . S
C1150 C1149 1.414 . S
C1150 C1151 1.374 . S
C1151 H1131 0.950 . S
C1151 C1147 1.385 . S
C1151 C1150 1.374 . S
C1152 C1149 1.499 . S
C1152 C1153 1.373 . S
C1152 C1154 1.389 . S
C1153 H1132 0.950 . S
C1153 C1152 1.373 . S
C1153 C1169 1.377 1_554 S
C1154 C1152 1.389 . S
C1154 C1155 1.524 . S
C1154 C1168 1.377 1_554 S
C1155 C1154 1.524 . S
C1155 C1156 1.397 . S
C1155 C1160 1.363 . S
C1156 H1133 0.950 . S
C1156 C1155 1.397 . S
C1156 C1157 1.334 . S
C1157 H1134 0.950 . S
C1157 C1156 1.334 . S
C1157 C1158 1.287 . S
C1158 C1157 1.287 . S
C1158 C1159 1.524 . S
C1158 H1177 0.913 . S
C1159 H1135 0.950 . S
C1159 C1158 1.524 . S
C1159 C1160 1.415 . S
C1160 H1136 0.950 . S
C1160 C1155 1.363 . S
C1160 C1159 1.415 . S
C1161 H1137 0.951 . S
C1161 C1162 1.366 . S
C1161 C1163 1.388 . S
C1162 C1161 1.366 . S
C1162 C1166 1.385 . S
C1163 H1138 0.951 . S
C1163 C1161 1.388 . S
C1163 C1164 1.366 . S
C1164 C1163 1.366 . S
C1164 C1165 1.414 . S
C1164 C1167 1.499 . S
C1165 H1139 0.950 . S
C1165 C1164 1.414 . S
C1165 C1166 1.374 . S
C1166 H1140 0.950 . S
C1166 C1162 1.385 . S
C1166 C1165 1.374 . S
C1167 C1164 1.499 . S
C1167 C1168 1.373 . S
C1167 C1169 1.389 . S
C1168 H1141 0.950 . S
C1168 C1154 1.377 1_556 S
C1168 C1167 1.373 . S
C1169 C1153 1.377 1_556 S
C1169 C1167 1.389 . S
C1169 C1170 1.524 . S
C1170 C1169 1.524 . S
C1170 C1171 1.397 . S
C1170 C1175 1.363 . S
C1171 H1142 0.950 . S
C1171 C1170 1.397 . S
C1171 C1172 1.334 . S
C1172 H1143 0.950 . S
C1172 C1171 1.334 . S
C1172 C1173 1.287 . S
C1173 C1172 1.287 . S
C1173 C1174 1.524 . S
C1173 H1176 0.999 . S
C1174 H1144 0.950 . S
C1174 C1173 1.524 . S
C1174 C1175 1.415 . S
C1175 H1145 0.950 . S
C1175 C1170 1.363 . S
C1175 C1174 1.415 . S
H1176 C1173 0.999 . S
H1177 C1158 0.913 . S
H1178 C1196 0.951 . S
H1179 C1198 0.951 . S
H1180 C1200 0.950 . S
H1181 C1201 0.950 . S
H1182 C1203 0.950 . S
H1183 C1206 0.950 . S
H1184 C1207 0.950 . S
H1185 C1209 0.950 . S
H1186 C1210 0.950 . S
H1187 C1211 0.951 . S
H1188 C1213 0.951 . S
H1189 C1215 0.950 . S
H1190 C1216 0.950 . S
H1191 C1218 0.950 . S
H1192 C1221 0.950 . S
H1193 C1222 0.950 . S
H1194 C1224 0.950 . S
H1195 C1225 0.950 . S
C1196 H1178 0.951 . S
C1196 C1197 1.366 . S
C1196 C1198 1.388 . S
C1197 C1196 1.366 . S
C1197 C1201 1.385 . S
C1198 H1179 0.951 . S
C1198 C1196 1.388 . S
C1198 C1199 1.366 . S
C1199 C1198 1.366 . S
C1199 C1200 1.414 . S
C1199 C1202 1.499 . S
C1200 H1180 0.950 . S
C1200 C1199 1.414 . S
C1200 C1201 1.374 . S
C1201 H1181 0.950 . S
C1201 C1197 1.385 . S
C1201 C1200 1.374 . S
C1202 C1199 1.499 . S
C1202 C1203 1.373 . S
C1202 C1204 1.389 . S
C1203 H1182 0.950 . S
C1203 C1202 1.373 . S
C1203 C1219 1.377 . S
C1204 C1202 1.389 . S
C1204 C1205 1.524 . S
C1204 C1218 1.377 . S
C1205 C1204 1.524 . S
C1205 C1206 1.397 . S
C1205 C1210 1.363 . S
C1206 H1183 0.950 . S
C1206 C1205 1.397 . S
C1206 C1207 1.334 . S
C1207 H1184 0.950 . S
C1207 C1206 1.334 . S
C1207 C1208 1.287 . S
C1208 C1207 1.287 . S
C1208 C1209 1.524 . S
C1208 H1227 0.913 . S
C1209 H1185 0.950 . S
C1209 C1208 1.524 . S
C1209 C1210 1.415 . S
C1210 H1186 0.950 . S
C1210 C1205 1.363 . S
C1210 C1209 1.415 . S
C1211 H1187 0.951 . S
C1211 C1212 1.366 . S
C1211 C1213 1.388 . S
C1212 C1211 1.366 . S
C1212 C1216 1.385 . S
C1213 H1188 0.951 . S
C1213 C1211 1.388 . S
C1213 C1214 1.366 . S
C1214 C1213 1.366 . S
C1214 C1215 1.414 . S
C1214 C1217 1.499 . S
C1215 H1189 0.950 . S
C1215 C1214 1.414 . S
C1215 C1216 1.374 . S
C1216 H1190 0.950 . S
C1216 C1212 1.385 . S
C1216 C1215 1.374 . S
C1217 C1214 1.499 . S
C1217 C1218 1.373 . S
C1217 C1219 1.389 . S
C1218 H1191 0.950 . S
C1218 C1204 1.377 . S
C1218 C1217 1.373 . S
C1219 C1203 1.377 . S
C1219 C1217 1.389 . S
C1219 C1220 1.524 . S
C1220 C1219 1.524 . S
C1220 C1221 1.397 . S
C1220 C1225 1.363 . S
C1221 H1192 0.950 . S
C1221 C1220 1.397 . S
C1221 C1222 1.334 . S
C1222 H1193 0.950 . S
C1222 C1221 1.334 . S
C1222 C1223 1.287 . S
C1223 C1222 1.287 . S
C1223 C1224 1.524 . S
C1223 H1226 0.999 . S
C1224 H1194 0.950 . S
C1224 C1223 1.524 . S
C1224 C1225 1.415 . S
C1225 H1195 0.950 . S
C1225 C1220 1.363 . S
C1225 C1224 1.415 . S
H1226 C1223 0.999 . S
H1227 C1208 0.913 . S
H1228 C1246 0.951 . S
H1229 C1248 0.951 . S
H1230 C1250 0.950 . S
H1231 C1251 0.950 . S
H1232 C1253 0.950 . S
H1233 C1256 0.950 . S
H1234 C1257 0.950 . S
H1235 C1259 0.950 . S
H1236 C1260 0.950 . S
H1237 C1261 0.951 . S
H1238 C1263 0.951 . S
H1239 C1265 0.950 . S
H1240 C1266 0.950 . S
H1241 C1268 0.950 . S
H1242 C1271 0.950 . S
H1243 C1272 0.950 . S
H1244 C1274 0.950 . S
H1245 C1275 0.950 . S
C1246 H1228 0.951 . S
C1246 C1247 1.366 . S
C1246 C1248 1.388 . S
C1247 C1246 1.366 . S
C1247 C1251 1.385 . S
C1248 H1229 0.951 . S
C1248 C1246 1.388 . S
C1248 C1249 1.366 . S
C1249 C1248 1.366 . S
C1249 C1250 1.414 . S
C1249 C1252 1.499 . S
C1250 H1230 0.950 . S
C1250 C1249 1.414 . S
C1250 C1251 1.374 . S
C1251 H1231 0.950 . S
C1251 C1247 1.385 . S
C1251 C1250 1.374 . S
C1252 C1249 1.499 . S
C1252 C1253 1.373 . S
C1252 C1254 1.389 . S
C1253 H1232 0.950 . S
C1253 C1252 1.373 . S
C1253 C1269 1.377 1_554 S
C1254 C1252 1.389 . S
C1254 C1255 1.524 . S
C1254 C1268 1.377 1_554 S
C1255 C1254 1.524 . S
C1255 C1256 1.397 . S
C1255 C1260 1.363 . S
C1256 H1233 0.950 . S
C1256 C1255 1.397 . S
C1256 C1257 1.334 . S
C1257 H1234 0.950 . S
C1257 C1256 1.334 . S
C1257 C1258 1.287 . S
C1258 C1257 1.287 . S
C1258 C1259 1.524 . S
C1258 H1277 0.913 . S
C1259 H1235 0.950 . S
C1259 C1258 1.524 . S
C1259 C1260 1.415 . S
C1260 H1236 0.950 . S
C1260 C1255 1.363 . S
C1260 C1259 1.415 . S
C1261 H1237 0.951 . S
C1261 C1262 1.366 . S
C1261 C1263 1.388 . S
C1262 C1261 1.366 . S
C1262 C1266 1.385 . S
C1263 H1238 0.951 . S
C1263 C1261 1.388 . S
C1263 C1264 1.366 . S
C1264 C1263 1.366 . S
C1264 C1265 1.414 . S
C1264 C1267 1.499 . S
C1265 H1239 0.950 . S
C1265 C1264 1.414 . S
C1265 C1266 1.374 . S
C1266 H1240 0.950 . S
C1266 C1262 1.385 . S
C1266 C1265 1.374 . S
C1267 C1264 1.499 . S
C1267 C1268 1.373 . S
C1267 C1269 1.389 . S
C1268 H1241 0.950 . S
C1268 C1254 1.377 1_556 S
C1268 C1267 1.373 . S
C1269 C1253 1.377 1_556 S
C1269 C1267 1.389 . S
C1269 C1270 1.524 . S
C1270 C1269 1.524 . S
C1270 C1271 1.397 . S
C1270 C1275 1.363 . S
C1271 H1242 0.950 . S
C1271 C1270 1.397 . S
C1271 C1272 1.334 . S
C1272 H1243 0.950 . S
C1272 C1271 1.334 . S
C1272 C1273 1.287 . S
C1273 C1272 1.287 . S
C1273 C1274 1.524 . S
C1273 H1276 0.999 . S
C1274 H1244 0.950 . S
C1274 C1273 1.524 . S
C1274 C1275 1.415 . S
C1275 H1245 0.950 . S
C1275 C1270 1.363 . S
C1275 C1274 1.415 . S
H1276 C1273 0.999 . S
H1277 C1258 0.913 . S
H1278 C1296 0.951 . S
H1279 C1298 0.951 . S
H1280 C1300 0.950 . S
H1281 C1301 0.950 . S
H1282 C1303 0.950 . S
H1283 C1306 0.950 . S
H1284 C1307 0.950 . S
H1285 C1309 0.950 . S
H1286 C1310 0.950 . S
H1287 C1311 0.951 . S
H1288 C1313 0.951 . S
H1289 C1315 0.950 . S
H1290 C1316 0.950 . S
H1291 C1318 0.950 . S
H1292 C1321 0.950 . S
H1293 C1322 0.950 . S
H1294 C1324 0.950 . S
H1295 C1325 0.950 . S
C1296 H1278 0.951 . S
C1296 C1297 1.366 . S
C1296 C1298 1.388 . S
C1297 C1296 1.366 . S
C1297 C1301 1.385 . S
C1298 H1279 0.951 . S
C1298 C1296 1.388 . S
C1298 C1299 1.366 . S
C1299 C1298 1.366 . S
C1299 C1300 1.414 . S
C1299 C1302 1.499 . S
C1300 H1280 0.950 . S
C1300 C1299 1.414 . S
C1300 C1301 1.374 . S
C1301 H1281 0.950 . S
C1301 C1297 1.385 . S
C1301 C1300 1.374 . S
C1302 C1299 1.499 . S
C1302 C1303 1.373 . S
C1302 C1304 1.389 . S
C1303 H1282 0.950 . S
C1303 C1302 1.373 . S
C1303 C1319 1.377 . S
C1304 C1302 1.389 . S
C1304 C1305 1.524 . S
C1304 C1318 1.377 . S
C1305 C1304 1.524 . S
C1305 C1306 1.397 . S
C1305 C1310 1.363 . S
C1306 H1283 0.950 . S
C1306 C1305 1.397 . S
C1306 C1307 1.334 . S
C1307 H1284 0.950 . S
C1307 C1306 1.334 . S
C1307 C1308 1.287 . S
C1308 C1307 1.287 . S
C1308 C1309 1.524 . S
C1308 H1327 0.913 . S
C1309 H1285 0.950 . S
C1309 C1308 1.524 . S
C1309 C1310 1.415 . S
C1310 H1286 0.950 . S
C1310 C1305 1.363 . S
C1310 C1309 1.415 . S
C1311 H1287 0.951 . S
C1311 C1312 1.366 . S
C1311 C1313 1.388 . S
C1312 C1311 1.366 . S
C1312 C1316 1.385 . S
C1313 H1288 0.951 . S
C1313 C1311 1.388 . S
C1313 C1314 1.366 . S
C1314 C1313 1.366 . S
C1314 C1315 1.414 . S
C1314 C1317 1.499 . S
C1315 H1289 0.950 . S
C1315 C1314 1.414 . S
C1315 C1316 1.374 . S
C1316 H1290 0.950 . S
C1316 C1312 1.385 . S
C1316 C1315 1.374 . S
C1317 C1314 1.499 . S
C1317 C1318 1.373 . S
C1317 C1319 1.389 . S
C1318 H1291 0.950 . S
C1318 C1304 1.377 . S
C1318 C1317 1.373 . S
C1319 C1303 1.377 . S
C1319 C1317 1.389 . S
C1319 C1320 1.524 . S
C1320 C1319 1.524 . S
C1320 C1321 1.397 . S
C1320 C1325 1.363 . S
C1321 H1292 0.950 . S
C1321 C1320 1.397 . S
C1321 C1322 1.334 . S
C1322 H1293 0.950 . S
C1322 C1321 1.334 . S
C1322 C1323 1.287 . S
C1323 C1322 1.287 . S
C1323 C1324 1.524 . S
C1323 H1326 0.999 . S
C1324 H1294 0.950 . S
C1324 C1323 1.524 . S
C1324 C1325 1.415 . S
C1325 H1295 0.950 . S
C1325 C1320 1.363 . S
C1325 C1324 1.415 . S
H1326 C1323 0.999 . S
H1327 C1308 0.913 . S
H1328 C1346 0.951 . S
H1329 C1348 0.951 . S
H1330 C1350 0.950 . S
H1331 C1351 0.950 . S
H1332 C1353 0.950 . S
H1333 C1356 0.950 . S
H1334 C1357 0.950 . S
H1335 C1359 0.950 . S
H1336 C1360 0.950 . S
H1337 C1361 0.951 . S
H1338 C1363 0.951 . S
H1339 C1365 0.950 . S
H1340 C1366 0.950 . S
H1341 C1368 0.950 . S
H1342 C1371 0.950 . S
H1343 C1372 0.950 . S
H1344 C1374 0.950 . S
H1345 C1375 0.950 . S
C1346 H1328 0.951 . S
C1346 C1347 1.366 . S
C1346 C1348 1.388 . S
C1347 C1346 1.366 . S
C1347 C1351 1.385 . S
C1348 H1329 0.951 . S
C1348 C1346 1.388 . S
C1348 C1349 1.366 . S
C1349 C1348 1.366 . S
C1349 C1350 1.414 . S
C1349 C1352 1.499 . S
C1350 H1330 0.950 . S
C1350 C1349 1.414 . S
C1350 C1351 1.374 . S
C1351 H1331 0.950 . S
C1351 C1347 1.385 . S
C1351 C1350 1.374 . S
C1352 C1349 1.499 . S
C1352 C1353 1.373 . S
C1352 C1354 1.389 . S
C1353 H1332 0.950 . S
C1353 C1352 1.373 . S
C1353 C1369 1.377 . S
C1354 C1352 1.389 . S
C1354 C1355 1.524 . S
C1354 C1368 1.377 . S
C1355 C1354 1.524 . S
C1355 C1356 1.397 . S
C1355 C1360 1.363 . S
C1356 H1333 0.950 . S
C1356 C1355 1.397 . S
C1356 C1357 1.334 . S
C1357 H1334 0.950 . S
C1357 C1356 1.334 . S
C1357 C1358 1.287 . S
C1358 C1357 1.287 . S
C1358 C1359 1.524 . S
C1358 H1377 0.913 . S
C1359 H1335 0.950 . S
C1359 C1358 1.524 . S
C1359 C1360 1.415 . S
C1360 H1336 0.950 . S
C1360 C1355 1.363 . S
C1360 C1359 1.415 . S
C1361 H1337 0.951 . S
C1361 C1362 1.366 . S
C1361 C1363 1.388 . S
C1362 C1361 1.366 . S
C1362 C1366 1.385 . S
C1363 H1338 0.951 . S
C1363 C1361 1.388 . S
C1363 C1364 1.366 . S
C1364 C1363 1.366 . S
C1364 C1365 1.414 . S
C1364 C1367 1.499 . S
C1365 H1339 0.950 . S
C1365 C1364 1.414 . S
C1365 C1366 1.374 . S
C1366 H1340 0.950 . S
C1366 C1362 1.385 . S
C1366 C1365 1.374 . S
C1367 C1364 1.499 . S
C1367 C1368 1.373 . S
C1367 C1369 1.389 . S
C1368 H1341 0.950 . S
C1368 C1354 1.377 . S
C1368 C1367 1.373 . S
C1369 C1353 1.377 . S
C1369 C1367 1.389 . S
C1369 C1370 1.524 . S
C1370 C1369 1.524 . S
C1370 C1371 1.397 . S
C1370 C1375 1.363 . S
C1371 H1342 0.950 . S
C1371 C1370 1.397 . S
C1371 C1372 1.334 . S
C1372 H1343 0.950 . S
C1372 C1371 1.334 . S
C1372 C1373 1.287 . S
C1373 C1372 1.287 . S
C1373 C1374 1.524 . S
C1373 H1376 0.999 . S
C1374 H1344 0.950 . S
C1374 C1373 1.524 . S
C1374 C1375 1.415 . S
C1375 H1345 0.950 . S
C1375 C1370 1.363 . S
C1375 C1374 1.415 . S
H1376 C1373 0.999 . S
H1377 C1358 0.913 . S
H1378 C1396 0.951 . S
H1379 C1398 0.951 . S
H1380 C1400 0.950 . S
H1381 C1401 0.950 . S
H1382 C1403 0.950 . S
H1383 C1406 0.950 . S
H1384 C1407 0.950 . S
H1385 C1409 0.950 . S
H1386 C1410 0.950 . S
H1387 C1411 0.951 . S
H1388 C1413 0.951 . S
H1389 C1415 0.950 . S
H1390 C1416 0.950 . S
H1391 C1418 0.950 . S
H1392 C1421 0.950 . S
H1393 C1422 0.950 . S
H1394 C1424 0.950 . S
H1395 C1425 0.950 . S
C1396 H1378 0.951 . S
C1396 C1397 1.366 . S
C1396 C1398 1.388 . S
C1397 C1396 1.366 . S
C1397 C1401 1.385 . S
C1398 H1379 0.951 . S
C1398 C1396 1.388 . S
C1398 C1399 1.366 . S
C1399 C1398 1.366 . S
C1399 C1400 1.414 . S
C1399 C1402 1.499 . S
C1400 H1380 0.950 . S
C1400 C1399 1.414 . S
C1400 C1401 1.374 . S
C1401 H1381 0.950 . S
C1401 C1397 1.385 . S
C1401 C1400 1.374 . S
C1402 C1399 1.499 . S
C1402 C1403 1.373 . S
C1402 C1404 1.389 . S
C1403 H1382 0.950 . S
C1403 C1402 1.373 . S
C1403 C1419 1.377 . S
C1404 C1402 1.389 . S
C1404 C1405 1.524 . S
C1404 C1418 1.377 . S
C1405 C1404 1.524 . S
C1405 C1406 1.397 . S
C1405 C1410 1.363 . S
C1406 H1383 0.950 . S
C1406 C1405 1.397 . S
C1406 C1407 1.334 . S
C1407 H1384 0.950 . S
C1407 C1406 1.334 . S
C1407 C1408 1.287 . S
C1408 C1407 1.287 . S
C1408 C1409 1.524 . S
C1408 H1427 0.913 . S
C1409 H1385 0.950 . S
C1409 C1408 1.524 . S
C1409 C1410 1.415 . S
C1410 H1386 0.950 . S
C1410 C1405 1.363 . S
C1410 C1409 1.415 . S
C1411 H1387 0.951 . S
C1411 C1412 1.366 . S
C1411 C1413 1.388 . S
C1412 C1411 1.366 . S
C1412 C1416 1.385 . S
C1413 H1388 0.951 . S
C1413 C1411 1.388 . S
C1413 C1414 1.366 . S
C1414 C1413 1.366 . S
C1414 C1415 1.414 . S
C1414 C1417 1.499 . S
C1415 H1389 0.950 . S
C1415 C1414 1.414 . S
C1415 C1416 1.374 . S
C1416 H1390 0.950 . S
C1416 C1412 1.385 . S
C1416 C1415 1.374 . S
C1417 C1414 1.499 . S
C1417 C1418 1.373 . S
C1417 C1419 1.389 . S
C1418 H1391 0.950 . S
C1418 C1404 1.377 . S
C1418 C1417 1.373 . S
C1419 C1403 1.377 . S
C1419 C1417 1.389 . S
C1419 C1420 1.524 . S
C1420 C1419 1.524 . S
C1420 C1421 1.397 . S
C1420 C1425 1.363 . S
C1421 H1392 0.950 . S
C1421 C1420 1.397 . S
C1421 C1422 1.334 . S
C1422 H1393 0.950 . S
C1422 C1421 1.334 . S
C1422 C1423 1.287 . S
C1423 C1422 1.287 . S
C1423 C1424 1.524 . S
C1423 H1426 0.999 . S
C1424 H1394 0.950 . S
C1424 C1423 1.524 . S
C1424 C1425 1.415 . S
C1425 H1395 0.950 . S
C1425 C1420 1.363 . S
C1425 C1424 1.415 . S
H1426 C1423 0.999 . S
H1427 C1408 0.913 . S
H1428 C1446 0.951 . S
H1429 C1448 0.951 . S
H1430 C1450 0.950 . S
H1431 C1451 0.950 . S
H1432 C1453 0.950 . S
H1433 C1456 0.950 . S
H1434 C1457 0.950 . S
H1435 C1459 0.950 . S
H1436 C1460 0.950 . S
H1437 C1461 0.951 . S
H1438 C1463 0.951 . S
H1439 C1465 0.950 . S
H1440 C1466 0.950 . S
H1441 C1468 0.950 . S
H1442 C1471 0.950 . S
H1443 C1472 0.950 . S
H1444 C1474 0.950 . S
H1445 C1475 0.950 . S
C1446 H1428 0.951 . S
C1446 C1447 1.366 . S
C1446 C1448 1.388 . S
C1447 C1446 1.366 . S
C1447 C1451 1.385 . S
C1448 H1429 0.951 . S
C1448 C1446 1.388 . S
C1448 C1449 1.366 . S
C1449 C1448 1.366 . S
C1449 C1450 1.414 . S
C1449 C1452 1.499 . S
C1450 H1430 0.950 . S
C1450 C1449 1.414 . S
C1450 C1451 1.374 . S
C1451 H1431 0.950 . S
C1451 C1447 1.385 . S
C1451 C1450 1.374 . S
C1452 C1449 1.499 . S
C1452 C1453 1.373 . S
C1452 C1454 1.389 . S
C1453 H1432 0.950 . S
C1453 C1452 1.373 . S
C1453 C1469 1.377 . S
C1454 C1452 1.389 . S
C1454 C1455 1.524 . S
C1454 C1468 1.377 . S
C1455 C1454 1.524 . S
C1455 C1456 1.397 . S
C1455 C1460 1.363 . S
C1456 H1433 0.950 . S
C1456 C1455 1.397 . S
C1456 C1457 1.334 . S
C1457 H1434 0.950 . S
C1457 C1456 1.334 . S
C1457 C1458 1.287 . S
C1458 C1457 1.287 . S
C1458 C1459 1.524 . S
C1458 H1477 0.913 . S
C1459 H1435 0.950 . S
C1459 C1458 1.524 . S
C1459 C1460 1.415 . S
C1460 H1436 0.950 . S
C1460 C1455 1.363 . S
C1460 C1459 1.415 . S
C1461 H1437 0.951 . S
C1461 C1462 1.366 . S
C1461 C1463 1.388 . S
C1462 C1461 1.366 . S
C1462 C1466 1.385 . S
C1463 H1438 0.951 . S
C1463 C1461 1.388 . S
C1463 C1464 1.366 . S
C1464 C1463 1.366 . S
C1464 C1465 1.414 . S
C1464 C1467 1.499 . S
C1465 H1439 0.950 . S
C1465 C1464 1.414 . S
C1465 C1466 1.374 . S
C1466 H1440 0.950 . S
C1466 C1462 1.385 . S
C1466 C1465 1.374 . S
C1467 C1464 1.499 . S
C1467 C1468 1.373 . S
C1467 C1469 1.389 . S
C1468 H1441 0.950 . S
C1468 C1454 1.377 . S
C1468 C1467 1.373 . S
C1469 C1453 1.377 . S
C1469 C1467 1.389 . S
C1469 C1470 1.524 . S
C1470 C1469 1.524 . S
C1470 C1471 1.397 . S
C1470 C1475 1.363 . S
C1471 H1442 0.950 . S
C1471 C1470 1.397 . S
C1471 C1472 1.334 . S
C1472 H1443 0.950 . S
C1472 C1471 1.334 . S
C1472 C1473 1.287 . S
C1473 C1472 1.287 . S
C1473 C1474 1.524 . S
C1473 H1476 0.999 . S
C1474 H1444 0.950 . S
C1474 C1473 1.524 . S
C1474 C1475 1.415 . S
C1475 H1445 0.950 . S
C1475 C1470 1.363 . S
C1475 C1474 1.415 . S
H1476 C1473 0.999 . S
H1477 C1458 0.913 . S
H1478 C1496 0.951 . S
H1479 C1498 0.951 . S
H1480 C1500 0.950 . S
H1481 C1501 0.950 . S
H1482 C1503 0.950 . S
H1483 C1506 0.950 . S
H1484 C1507 0.950 . S
H1485 C1509 0.950 . S
H1486 C1510 0.950 . S
H1487 C1511 0.951 . S
H1488 C1513 0.951 . S
H1489 C1515 0.950 . S
H1490 C1516 0.950 . S
H1491 C1518 0.950 . S
H1492 C1521 0.950 . S
H1493 C1522 0.950 . S
H1494 C1524 0.950 . S
H1495 C1525 0.950 . S
C1496 H1478 0.951 . S
C1496 C1497 1.366 . S
C1496 C1498 1.388 . S
C1497 C1496 1.366 . S
C1497 C1501 1.385 . S
C1498 H1479 0.951 . S
C1498 C1496 1.388 . S
C1498 C1499 1.366 . S
C1499 C1498 1.366 . S
C1499 C1500 1.414 . S
C1499 C1502 1.499 . S
C1500 H1480 0.950 . S
C1500 C1499 1.414 . S
C1500 C1501 1.374 . S
C1501 H1481 0.950 . S
C1501 C1497 1.385 . S
C1501 C1500 1.374 . S
C1502 C1499 1.499 . S
C1502 C1503 1.373 . S
C1502 C1504 1.389 . S
C1503 H1482 0.950 . S
C1503 C1502 1.373 . S
C1503 C1519 1.377 . S
C1504 C1502 1.389 . S
C1504 C1505 1.524 . S
C1504 C1518 1.377 . S
C1505 C1504 1.524 . S
C1505 C1506 1.397 . S
C1505 C1510 1.363 . S
C1506 H1483 0.950 . S
C1506 C1505 1.397 . S
C1506 C1507 1.334 . S
C1507 H1484 0.950 . S
C1507 C1506 1.334 . S
C1507 C1508 1.287 . S
C1508 C1507 1.287 . S
C1508 C1509 1.524 . S
C1508 H1527 0.913 . S
C1509 H1485 0.950 . S
C1509 C1508 1.524 . S
C1509 C1510 1.415 . S
C1510 H1486 0.950 . S
C1510 C1505 1.363 . S
C1510 C1509 1.415 . S
C1511 H1487 0.951 . S
C1511 C1512 1.366 . S
C1511 C1513 1.388 . S
C1512 C1511 1.366 . S
C1512 C1516 1.385 . S
C1513 H1488 0.951 . S
C1513 C1511 1.388 . S
C1513 C1514 1.366 . S
C1514 C1513 1.366 . S
C1514 C1515 1.414 . S
C1514 C1517 1.499 . S
C1515 H1489 0.950 . S
C1515 C1514 1.414 . S
C1515 C1516 1.374 . S
C1516 H1490 0.950 . S
C1516 C1512 1.385 . S
C1516 C1515 1.374 . S
C1517 C1514 1.499 . S
C1517 C1518 1.373 . S
C1517 C1519 1.389 . S
C1518 H1491 0.950 . S
C1518 C1504 1.377 . S
C1518 C1517 1.373 . S
C1519 C1503 1.377 . S
C1519 C1517 1.389 . S
C1519 C1520 1.524 . S
C1520 C1519 1.524 . S
C1520 C1521 1.397 . S
C1520 C1525 1.363 . S
C1521 H1492 0.950 . S
C1521 C1520 1.397 . S
C1521 C1522 1.334 . S
C1522 H1493 0.950 . S
C1522 C1521 1.334 . S
C1522 C1523 1.287 . S
C1523 C1522 1.287 . S
C1523 C1524 1.524 . S
C1523 H1526 0.999 . S
C1524 H1494 0.950 . S
C1524 C1523 1.524 . S
C1524 C1525 1.415 . S
C1525 H1495 0.950 . S
C1525 C1520 1.363 . S
C1525 C1524 1.415 . S
H1526 C1523 0.999 . S
H1527 C1508 0.913 . S
H1528 C1546 0.951 . S
H1529 C1548 0.951 . S
H1530 C1550 0.950 . S
H1531 C1551 0.950 . S
H1532 C1553 0.950 . S
H1533 C1556 0.950 . S
H1534 C1557 0.950 . S
H1535 C1559 0.950 . S
H1536 C1560 0.950 . S
H1537 C1561 0.951 . S
H1538 C1563 0.951 . S
H1539 C1565 0.950 . S
H1540 C1566 0.950 . S
H1541 C1568 0.950 . S
H1542 C1571 0.950 . S
H1543 C1572 0.950 . S
H1544 C1574 0.950 . S
H1545 C1575 0.950 . S
C1546 H1528 0.951 . S
C1546 C1547 1.366 . S
C1546 C1548 1.388 . S
C1547 C1546 1.366 . S
C1547 C1551 1.385 . S
C1548 H1529 0.951 . S
C1548 C1546 1.388 . S
C1548 C1549 1.366 . S
C1549 C1548 1.366 . S
C1549 C1550 1.414 . S
C1549 C1552 1.499 . S
C1550 H1530 0.950 . S
C1550 C1549 1.414 . S
C1550 C1551 1.374 . S
C1551 H1531 0.950 . S
C1551 C1547 1.385 . S
C1551 C1550 1.374 . S
C1552 C1549 1.499 . S
C1552 C1553 1.373 . S
C1552 C1554 1.389 . S
C1553 H1532 0.950 . S
C1553 C1552 1.373 . S
C1553 C1569 1.377 . S
C1554 C1552 1.389 . S
C1554 C1555 1.524 . S
C1554 C1568 1.377 . S
C1555 C1554 1.524 . S
C1555 C1556 1.397 . S
C1555 C1560 1.363 . S
C1556 H1533 0.950 . S
C1556 C1555 1.397 . S
C1556 C1557 1.334 . S
C1557 H1534 0.950 . S
C1557 C1556 1.334 . S
C1557 C1558 1.287 . S
C1558 C1557 1.287 . S
C1558 C1559 1.524 . S
C1558 H1577 0.913 . S
C1559 H1535 0.950 . S
C1559 C1558 1.524 . S
C1559 C1560 1.415 . S
C1560 H1536 0.950 . S
C1560 C1555 1.363 . S
C1560 C1559 1.415 . S
C1561 H1537 0.951 . S
C1561 C1562 1.366 . S
C1561 C1563 1.388 . S
C1562 C1561 1.366 . S
C1562 C1566 1.385 . S
C1563 H1538 0.951 . S
C1563 C1561 1.388 . S
C1563 C1564 1.366 . S
C1564 C1563 1.366 . S
C1564 C1565 1.414 . S
C1564 C1567 1.499 . S
C1565 H1539 0.950 . S
C1565 C1564 1.414 . S
C1565 C1566 1.374 . S
C1566 H1540 0.950 . S
C1566 C1562 1.385 . S
C1566 C1565 1.374 . S
C1567 C1564 1.499 . S
C1567 C1568 1.373 . S
C1567 C1569 1.389 . S
C1568 H1541 0.950 . S
C1568 C1554 1.377 . S
C1568 C1567 1.373 . S
C1569 C1553 1.377 . S
C1569 C1567 1.389 . S
C1569 C1570 1.524 . S
C1570 C1569 1.524 . S
C1570 C1571 1.397 . S
C1570 C1575 1.363 . S
C1571 H1542 0.950 . S
C1571 C1570 1.397 . S
C1571 C1572 1.334 . S
C1572 H1543 0.950 . S
C1572 C1571 1.334 . S
C1572 C1573 1.287 . S
C1573 C1572 1.287 . S
C1573 C1574 1.524 . S
C1573 H1576 0.999 . S
C1574 H1544 0.950 . S
C1574 C1573 1.524 . S
C1574 C1575 1.415 . S
C1575 H1545 0.950 . S
C1575 C1570 1.363 . S
C1575 C1574 1.415 . S
H1576 C1573 0.999 . S
H1577 C1558 0.913 . S
H1578 C1596 0.951 . S
H1579 C1598 0.951 . S
H1580 C1600 0.950 . S
H1581 C1601 0.950 . S
H1582 C1603 0.950 . S
H1583 C1606 0.950 . S
H1584 C1607 0.950 . S
H1585 C1609 0.950 . S
H1586 C1610 0.950 . S
H1587 C1611 0.951 . S
H1588 C1613 0.951 . S
H1589 C1615 0.950 . S
H1590 C1616 0.950 . S
H1591 C1618 0.950 . S
H1592 C1621 0.950 . S
H1593 C1622 0.950 . S
H1594 C1624 0.950 . S
H1595 C1625 0.950 . S
C1596 H1578 0.951 . S
C1596 C1597 1.366 . S
C1596 C1598 1.388 . S
C1597 C1596 1.366 . S
C1597 C1601 1.385 . S
C1598 H1579 0.951 . S
C1598 C1596 1.388 . S
C1598 C1599 1.366 . S
C1599 C1598 1.366 . S
C1599 C1600 1.414 . S
C1599 C1602 1.499 . S
C1600 H1580 0.950 . S
C1600 C1599 1.414 . S
C1600 C1601 1.374 . S
C1601 H1581 0.950 . S
C1601 C1597 1.385 . S
C1601 C1600 1.374 . S
C1602 C1599 1.499 . S
C1602 C1603 1.373 . S
C1602 C1604 1.389 . S
C1603 H1582 0.950 . S
C1603 C1602 1.373 . S
C1603 C1619 1.377 . S
C1604 C1602 1.389 . S
C1604 C1605 1.524 . S
C1604 C1618 1.377 . S
C1605 C1604 1.524 . S
C1605 C1606 1.397 . S
C1605 C1610 1.363 . S
C1606 H1583 0.950 . S
C1606 C1605 1.397 . S
C1606 C1607 1.334 . S
C1607 H1584 0.950 . S
C1607 C1606 1.334 . S
C1607 C1608 1.287 . S
C1608 C1607 1.287 . S
C1608 C1609 1.524 . S
C1608 H1627 0.913 . S
C1609 H1585 0.950 . S
C1609 C1608 1.524 . S
C1609 C1610 1.415 . S
C1610 H1586 0.950 . S
C1610 C1605 1.363 . S
C1610 C1609 1.415 . S
C1611 H1587 0.951 . S
C1611 C1612 1.366 . S
C1611 C1613 1.388 . S
C1612 C1611 1.366 . S
C1612 C1616 1.385 . S
C1613 H1588 0.951 . S
C1613 C1611 1.388 . S
C1613 C1614 1.366 . S
C1614 C1613 1.366 . S
C1614 C1615 1.414 . S
C1614 C1617 1.499 . S
C1615 H1589 0.950 . S
C1615 C1614 1.414 . S
C1615 C1616 1.374 . S
C1616 H1590 0.950 . S
C1616 C1612 1.385 . S
C1616 C1615 1.374 . S
C1617 C1614 1.499 . S
C1617 C1618 1.373 . S
C1617 C1619 1.389 . S
C1618 H1591 0.950 . S
C1618 C1604 1.377 . S
C1618 C1617 1.373 . S
C1619 C1603 1.377 . S
C1619 C1617 1.389 . S
C1619 C1620 1.524 . S
C1620 C1619 1.524 . S
C1620 C1621 1.397 . S
C1620 C1625 1.363 . S
C1621 H1592 0.950 . S
C1621 C1620 1.397 . S
C1621 C1622 1.334 . S
C1622 H1593 0.950 . S
C1622 C1621 1.334 . S
C1622 C1623 1.287 . S
C1623 C1622 1.287 . S
C1623 C1624 1.524 . S
C1623 H1626 0.999 . S
C1624 H1594 0.950 . S
C1624 C1623 1.524 . S
C1624 C1625 1.415 . S
C1625 H1595 0.950 . S
C1625 C1620 1.363 . S
C1625 C1624 1.415 . S
H1626 C1623 0.999 . S
H1627 C1608 0.913 . S
H1628 C1646 0.951 . S
H1629 C1648 0.951 . S
H1630 C1650 0.950 . S
H1631 C1651 0.950 . S
H1632 C1653 0.950 . S
H1633 C1656 0.950 . S
H1634 C1657 0.950 . S
H1635 C1659 0.950 . S
H1636 C1660 0.950 . S
H1637 C1661 0.951 . S
H1638 C1663 0.951 . S
H1639 C1665 0.950 . S
H1640 C1666 0.950 . S
H1641 C1668 0.950 . S
H1642 C1671 0.950 . S
H1643 C1672 0.950 . S
H1644 C1674 0.950 . S
H1645 C1675 0.950 . S
C1646 H1628 0.951 . S
C1646 C1647 1.366 . S
C1646 C1648 1.388 . S
C1647 C1646 1.366 . S
C1647 C1651 1.385 . S
C1648 H1629 0.951 . S
C1648 C1646 1.388 . S
C1648 C1649 1.366 . S
C1649 C1648 1.366 . S
C1649 C1650 1.414 . S
C1649 C1652 1.499 . S
C1650 H1630 0.950 . S
C1650 C1649 1.414 . S
C1650 C1651 1.374 . S
C1651 H1631 0.950 . S
C1651 C1647 1.385 . S
C1651 C1650 1.374 . S
C1652 C1649 1.499 . S
C1652 C1653 1.373 . S
C1652 C1654 1.389 . S
C1653 H1632 0.950 . S
C1653 C1652 1.373 . S
C1653 C1669 1.377 . S
C1654 C1652 1.389 . S
C1654 C1655 1.524 . S
C1654 C1668 1.377 . S
C1655 C1654 1.524 . S
C1655 C1656 1.397 . S
C1655 C1660 1.363 . S
C1656 H1633 0.950 . S
C1656 C1655 1.397 . S
C1656 C1657 1.334 . S
C1657 H1634 0.950 . S
C1657 C1656 1.334 . S
C1657 C1658 1.287 . S
C1658 C1657 1.287 . S
C1658 C1659 1.524 . S
C1658 H1677 0.913 . S
C1659 H1635 0.950 . S
C1659 C1658 1.524 . S
C1659 C1660 1.415 . S
C1660 H1636 0.950 . S
C1660 C1655 1.363 . S
C1660 C1659 1.415 . S
C1661 H1637 0.951 . S
C1661 C1662 1.366 . S
C1661 C1663 1.388 . S
C1662 C1661 1.366 . S
C1662 C1666 1.385 . S
C1663 H1638 0.951 . S
C1663 C1661 1.388 . S
C1663 C1664 1.366 . S
C1664 C1663 1.366 . S
C1664 C1665 1.414 . S
C1664 C1667 1.499 . S
C1665 H1639 0.950 . S
C1665 C1664 1.414 . S
C1665 C1666 1.374 . S
C1666 H1640 0.950 . S
C1666 C1662 1.385 . S
C1666 C1665 1.374 . S
C1667 C1664 1.499 . S
C1667 C1668 1.373 . S
C1667 C1669 1.389 . S
C1668 H1641 0.950 . S
C1668 C1654 1.377 . S
C1668 C1667 1.373 . S
C1669 C1653 1.377 . S
C1669 C1667 1.389 . S
C1669 C1670 1.524 . S
C1670 C1669 1.524 . S
C1670 C1671 1.397 . S
C1670 C1675 1.363 . S
C1671 H1642 0.950 . S
C1671 C1670 1.397 . S
C1671 C1672 1.334 . S
C1672 H1643 0.950 . S
C1672 C1671 1.334 . S
C1672 C1673 1.287 . S
C1673 C1672 1.287 . S
C1673 C1674 1.524 . S
C1673 H1676 0.999 . S
C1674 H1644 0.950 . S
C1674 C1673 1.524 . S
C1674 C1675 1.415 . S
C1675 H1645 0.950 . S
C1675 C1670 1.363 . S
C1675 C1674 1.415 . S
H1676 C1673 0.999 . S
H1677 C1658 0.913 . S
H1678 C1696 0.951 . S
H1679 C1698 0.951 . S
H1680 C1700 0.950 . S
H1681 C1701 0.950 . S
H1682 C1703 0.950 . S
H1683 C1706 0.950 . S
H1684 C1707 0.950 . S
H1685 C1709 0.950 . S
H1686 C1710 0.950 . S
H1687 C1711 0.951 . S
H1688 C1713 0.951 . S
H1689 C1715 0.950 . S
H1690 C1716 0.950 . S
H1691 C1718 0.950 . S
H1692 C1721 0.950 . S
H1693 C1722 0.950 . S
H1694 C1724 0.950 . S
H1695 C1725 0.950 . S
C1696 H1678 0.951 . S
C1696 C1697 1.366 . S
C1696 C1698 1.388 . S
C1697 C1696 1.366 . S
C1697 C1701 1.385 . S
C1698 H1679 0.951 . S
C1698 C1696 1.388 . S
C1698 C1699 1.366 . S
C1699 C1698 1.366 . S
C1699 C1700 1.414 . S
C1699 C1702 1.499 . S
C1700 H1680 0.950 . S
C1700 C1699 1.414 . S
C1700 C1701 1.374 . S
C1701 H1681 0.950 . S
C1701 C1697 1.385 . S
C1701 C1700 1.374 . S
C1702 C1699 1.499 . S
C1702 C1703 1.373 . S
C1702 C1704 1.389 . S
C1703 H1682 0.950 . S
C1703 C1702 1.373 . S
C1703 C1719 1.377 . S
C1704 C1702 1.389 . S
C1704 C1705 1.524 . S
C1704 C1718 1.377 . S
C1705 C1704 1.524 . S
C1705 C1706 1.397 . S
C1705 C1710 1.363 . S
C1706 H1683 0.950 . S
C1706 C1705 1.397 . S
C1706 C1707 1.334 . S
C1707 H1684 0.950 . S
C1707 C1706 1.334 . S
C1707 C1708 1.287 . S
C1708 C1707 1.287 . S
C1708 C1709 1.524 . S
C1708 H1727 0.913 . S
C1709 H1685 0.950 . S
C1709 C1708 1.524 . S
C1709 C1710 1.415 . S
C1710 H1686 0.950 . S
C1710 C1705 1.363 . S
C1710 C1709 1.415 . S
C1711 H1687 0.951 . S
C1711 C1712 1.366 . S
C1711 C1713 1.388 . S
C1712 C1711 1.366 . S
C1712 C1716 1.385 . S
C1713 H1688 0.951 . S
C1713 C1711 1.388 . S
C1713 C1714 1.366 . S
C1714 C1713 1.366 . S
C1714 C1715 1.414 . S
C1714 C1717 1.499 . S
C1715 H1689 0.950 . S
C1715 C1714 1.414 . S
C1715 C1716 1.374 . S
C1716 H1690 0.950 . S
C1716 C1712 1.385 . S
C1716 C1715 1.374 . S
C1717 C1714 1.499 . S
C1717 C1718 1.373 . S
C1717 C1719 1.389 . S
C1718 H1691 0.950 . S
C1718 C1704 1.377 . S
C1718 C1717 1.373 . S
C1719 C1703 1.377 . S
C1719 C1717 1.389 . S
C1719 C1720 1.524 . S
C1720 C1719 1.524 . S
C1720 C1721 1.397 . S
C1720 C1725 1.363 . S
C1721 H1692 0.950 . S
C1721 C1720 1.397 . S
C1721 C1722 1.334 . S
C1722 H1693 0.950 . S
C1722 C1721 1.334 . S
C1722 C1723 1.287 . S
C1723 C1722 1.287 . S
C1723 C1724 1.524 . S
C1723 H1726 0.999 . S
C1724 H1694 0.950 . S
C1724 C1723 1.524 . S
C1724 C1725 1.415 . S
C1725 H1695 0.950 . S
C1725 C1720 1.363 . S
C1725 C1724 1.415 . S
H1726 C1723 0.999 . S
H1727 C1708 0.913 . S
H1728 C1746 0.951 . S
H1729 C1748 0.951 . S
H1730 C1750 0.950 . S
H1731 C1751 0.950 . S
H1732 C1753 0.950 . S
H1733 C1756 0.950 . S
H1734 C1757 0.950 . S
H1735 C1759 0.950 . S
H1736 C1760 0.950 . S
H1737 C1761 0.951 . S
H1738 C1763 0.951 . S
H1739 C1765 0.950 . S
H1740 C1766 0.950 . S
H1741 C1768 0.950 . S
H1742 C1771 0.950 . S
H1743 C1772 0.950 . S
H1744 C1774 0.950 . S
H1745 C1775 0.950 . S
C1746 H1728 0.951 . S
C1746 C1747 1.366 . S
C1746 C1748 1.388 . S
C1747 C1746 1.366 . S
C1747 C1751 1.385 . S
C1748 H1729 0.951 . S
C1748 C1746 1.388 . S
C1748 C1749 1.366 . S
C1749 C1748 1.366 . S
C1749 C1750 1.414 . S
C1749 C1752 1.499 . S
C1750 H1730 0.950 . S
C1750 C1749 1.414 . S
C1750 C1751 1.374 . S
C1751 H1731 0.950 . S
C1751 C1747 1.385 . S
C1751 C1750 1.374 . S
C1752 C1749 1.499 . S
C1752 C1753 1.373 . S
C1752 C1754 1.389 . S
C1753 H1732 0.950 . S
C1753 C1752 1.373 . S
C1753 C1769 1.377 . S
C1754 C1752 1.389 . S
C1754 C1755 1.524 . S
C1754 C1768 1.377 . S
C1755 C1754 1.524 . S
C1755 C1756 1.397 . S
C1755 C1760 1.363 . S
C1756 H1733 0.950 . S
C1756 C1755 1.397 . S
C1756 C1757 1.334 . S
C1757 H1734 0.950 . S
C1757 C1756 1.334 . S
C1757 C1758 1.287 . S
C1758 C1757 1.287 . S
C1758 C1759 1.524 . S
C1758 H1777 0.913 . S
C1759 H1735 0.950 . S
C1759 C1758 1.524 . S
C1759 C1760 1.415 . S
C1760 H1736 0.950 . S
C1760 C1755 1.363 . S
C1760 C1759 1.415 . S
C1761 H1737 0.951 . S
C1761 C1762 1.366 . S
C1761 C1763 1.388 . S
C1762 C1761 1.366 . S
C1762 C1766 1.385 . S
C1763 H1738 0.951 . S
C1763 C1761 1.388 . S
C1763 C1764 1.366 . S
C1764 C1763 1.366 . S
C1764 C1765 1.414 . S
C1764 C1767 1.499 . S
C1765 H1739 0.950 . S
C1765 C1764 1.414 . S
C1765 C1766 1.374 . S
C1766 H1740 0.950 . S
C1766 C1762 1.385 . S
C1766 C1765 1.374 . S
C1767 C1764 1.499 . S
C1767 C1768 1.373 . S
C1767 C1769 1.389 . S
C1768 H1741 0.950 . S
C1768 C1754 1.377 . S
C1768 C1767 1.373 . S
C1769 C1753 1.377 . S
C1769 C1767 1.389 . S
C1769 C1770 1.524 . S
C1770 C1769 1.524 . S
C1770 C1771 1.397 . S
C1770 C1775 1.363 . S
C1771 H1742 0.950 . S
C1771 C1770 1.397 . S
C1771 C1772 1.334 . S
C1772 H1743 0.950 . S
C1772 C1771 1.334 . S
C1772 C1773 1.287 . S
C1773 C1772 1.287 . S
C1773 C1774 1.524 . S
C1773 H1776 0.999 . S
C1774 H1744 0.950 . S
C1774 C1773 1.524 . S
C1774 C1775 1.415 . S
C1775 H1745 0.950 . S
C1775 C1770 1.363 . S
C1775 C1774 1.415 . S
H1776 C1773 0.999 . S
H1777 C1758 0.913 . S
H1778 C1796 0.951 . S
H1779 C1798 0.951 . S
H1780 C1800 0.950 . S
H1781 C1801 0.950 . S
H1782 C1803 0.950 . S
H1783 C1806 0.950 . S
H1784 C1807 0.950 . S
H1785 C1809 0.950 . S
H1786 C1810 0.950 . S
H1787 C1811 0.951 . S
H1788 C1813 0.951 . S
H1789 C1815 0.950 . S
H1790 C1816 0.950 . S
H1791 C1818 0.950 . S
H1792 C1821 0.950 . S
H1793 C1822 0.950 . S
H1794 C1824 0.950 . S
H1795 C1825 0.950 . S
C1796 H1778 0.951 . S
C1796 C1797 1.366 . S
C1796 C1798 1.388 . S
C1797 C1796 1.366 . S
C1797 C1801 1.385 . S
C1798 H1779 0.951 . S
C1798 C1796 1.388 . S
C1798 C1799 1.366 . S
C1799 C1798 1.366 . S
C1799 C1800 1.414 . S
C1799 C1802 1.499 . S
C1800 H1780 0.950 . S
C1800 C1799 1.414 . S
C1800 C1801 1.374 . S
C1801 H1781 0.950 . S
C1801 C1797 1.385 . S
C1801 C1800 1.374 . S
C1802 C1799 1.499 . S
C1802 C1803 1.373 . S
C1802 C1804 1.389 . S
C1803 H1782 0.950 . S
C1803 C1802 1.373 . S
C1803 C1819 1.377 . S
C1804 C1802 1.389 . S
C1804 C1805 1.524 . S
C1804 C1818 1.377 . S
C1805 C1804 1.524 . S
C1805 C1806 1.397 . S
C1805 C1810 1.363 . S
C1806 H1783 0.950 . S
C1806 C1805 1.397 . S
C1806 C1807 1.334 . S
C1807 H1784 0.950 . S
C1807 C1806 1.334 . S
C1807 C1808 1.287 . S
C1808 C1807 1.287 . S
C1808 C1809 1.524 . S
C1808 H1827 0.913 . S
C1809 H1785 0.950 . S
C1809 C1808 1.524 . S
C1809 C1810 1.415 . S
C1810 H1786 0.950 . S
C1810 C1805 1.363 . S
C1810 C1809 1.415 . S
C1811 H1787 0.951 . S
C1811 C1812 1.366 . S
C1811 C1813 1.388 . S
C1812 C1811 1.366 . S
C1812 C1816 1.385 . S
C1813 H1788 0.951 . S
C1813 C1811 1.388 . S
C1813 C1814 1.366 . S
C1814 C1813 1.366 . S
C1814 C1815 1.414 . S
C1814 C1817 1.499 . S
C1815 H1789 0.950 . S
C1815 C1814 1.414 . S
C1815 C1816 1.374 . S
C1816 H1790 0.950 . S
C1816 C1812 1.385 . S
C1816 C1815 1.374 . S
C1817 C1814 1.499 . S
C1817 C1818 1.373 . S
C1817 C1819 1.389 . S
C1818 H1791 0.950 . S
C1818 C1804 1.377 . S
C1818 C1817 1.373 . S
C1819 C1803 1.377 . S
C1819 C1817 1.389 . S
C1819 C1820 1.524 . S
C1820 C1819 1.524 . S
C1820 C1821 1.397 . S
C1820 C1825 1.363 . S
C1821 H1792 0.950 . S
C1821 C1820 1.397 . S
C1821 C1822 1.334 . S
C1822 H1793 0.950 . S
C1822 C1821 1.334 . S
C1822 C1823 1.287 . S
C1823 C1822 1.287 . S
C1823 C1824 1.524 . S
C1823 H1826 0.999 . S
C1824 H1794 0.950 . S
C1824 C1823 1.524 . S
C1824 C1825 1.415 . S
C1825 H1795 0.950 . S
C1825 C1820 1.363 . S
C1825 C1824 1.415 . S
H1826 C1823 0.999 . S
H1827 C1808 0.913 . S
H1828 C1846 0.951 . S
H1829 C1848 0.951 . S
H1830 C1850 0.950 . S
H1831 C1851 0.950 . S
H1832 C1853 0.950 . S
H1833 C1856 0.950 . S
H1834 C1857 0.950 . S
H1835 C1859 0.950 . S
H1836 C1860 0.950 . S
H1837 C1861 0.951 . S
H1838 C1863 0.951 . S
H1839 C1865 0.950 . S
H1840 C1866 0.950 . S
H1841 C1868 0.950 . S
H1842 C1871 0.950 . S
H1843 C1872 0.950 . S
H1844 C1874 0.950 . S
H1845 C1875 0.950 . S
C1846 H1828 0.951 . S
C1846 C1847 1.366 . S
C1846 C1848 1.388 . S
C1847 C1846 1.366 . S
C1847 C1851 1.385 . S
C1848 H1829 0.951 . S
C1848 C1846 1.388 . S
C1848 C1849 1.366 . S
C1849 C1848 1.366 . S
C1849 C1850 1.414 . S
C1849 C1852 1.499 . S
C1850 H1830 0.950 . S
C1850 C1849 1.414 . S
C1850 C1851 1.374 . S
C1851 H1831 0.950 . S
C1851 C1847 1.385 . S
C1851 C1850 1.374 . S
C1852 C1849 1.499 . S
C1852 C1853 1.373 . S
C1852 C1854 1.389 . S
C1853 H1832 0.950 . S
C1853 C1852 1.373 . S
C1853 C1869 1.377 . S
C1854 C1852 1.389 . S
C1854 C1855 1.524 . S
C1854 C1868 1.377 . S
C1855 C1854 1.524 . S
C1855 C1856 1.397 . S
C1855 C1860 1.363 . S
C1856 H1833 0.950 . S
C1856 C1855 1.397 . S
C1856 C1857 1.334 . S
C1857 H1834 0.950 . S
C1857 C1856 1.334 . S
C1857 C1858 1.287 . S
C1858 C1857 1.287 . S
C1858 C1859 1.524 . S
C1858 H1877 0.913 . S
C1859 H1835 0.950 . S
C1859 C1858 1.524 . S
C1859 C1860 1.415 . S
C1860 H1836 0.950 . S
C1860 C1855 1.363 . S
C1860 C1859 1.415 . S
C1861 H1837 0.951 . S
C1861 C1862 1.366 . S
C1861 C1863 1.388 . S
C1862 C1861 1.366 . S
C1862 C1866 1.385 . S
C1863 H1838 0.951 . S
C1863 C1861 1.388 . S
C1863 C1864 1.366 . S
C1864 C1863 1.366 . S
C1864 C1865 1.414 . S
C1864 C1867 1.499 . S
C1865 H1839 0.950 . S
C1865 C1864 1.414 . S
C1865 C1866 1.374 . S
C1866 H1840 0.950 . S
C1866 C1862 1.385 . S
C1866 C1865 1.374 . S
C1867 C1864 1.499 . S
C1867 C1868 1.373 . S
C1867 C1869 1.389 . S
C1868 H1841 0.950 . S
C1868 C1854 1.377 . S
C1868 C1867 1.373 . S
C1869 C1853 1.377 . S
C1869 C1867 1.389 . S
C1869 C1870 1.524 . S
C1870 C1869 1.524 . S
C1870 C1871 1.397 . S
C1870 C1875 1.363 . S
C1871 H1842 0.950 . S
C1871 C1870 1.397 . S
C1871 C1872 1.334 . S
C1872 H1843 0.950 . S
C1872 C1871 1.334 . S
C1872 C1873 1.287 . S
C1873 C1872 1.287 . S
C1873 C1874 1.524 . S
C1873 H1876 0.999 . S
C1874 H1844 0.950 . S
C1874 C1873 1.524 . S
C1874 C1875 1.415 . S
C1875 H1845 0.950 . S
C1875 C1870 1.363 . S
C1875 C1874 1.415 . S
H1876 C1873 0.999 . S
H1877 C1858 0.913 . S
H1878 C1896 0.951 . S
H1879 C1898 0.951 . S
H1880 C1900 0.950 . S
H1881 C1901 0.950 . S
H1882 C1903 0.950 . S
H1883 C1906 0.950 . S
H1884 C1907 0.950 . S
H1885 C1909 0.950 . S
H1886 C1910 0.950 . S
H1887 C1911 0.951 . S
H1888 C1913 0.951 . S
H1889 C1915 0.950 . S
H1890 C1916 0.950 . S
H1891 C1918 0.950 . S
H1892 C1921 0.950 . S
H1893 C1922 0.950 . S
H1894 C1924 0.950 . S
H1895 C1925 0.950 . S
C1896 H1878 0.951 . S
C1896 C1897 1.366 . S
C1896 C1898 1.388 . S
C1897 C1896 1.366 . S
C1897 C1901 1.385 . S
C1898 H1879 0.951 . S
C1898 C1896 1.388 . S
C1898 C1899 1.366 . S
C1899 C1898 1.366 . S
C1899 C1900 1.414 . S
C1899 C1902 1.499 . S
C1900 H1880 0.950 . S
C1900 C1899 1.414 . S
C1900 C1901 1.374 . S
C1901 H1881 0.950 . S
C1901 C1897 1.385 . S
C1901 C1900 1.374 . S
C1902 C1899 1.499 . S
C1902 C1903 1.373 . S
C1902 C1904 1.389 . S
C1903 H1882 0.950 . S
C1903 C1902 1.373 . S
C1903 C1919 1.377 . S
C1904 C1902 1.389 . S
C1904 C1905 1.524 . S
C1904 C1918 1.377 . S
C1905 C1904 1.524 . S
C1905 C1906 1.397 . S
C1905 C1910 1.363 . S
C1906 H1883 0.950 . S
C1906 C1905 1.397 . S
C1906 C1907 1.334 . S
C1907 H1884 0.950 . S
C1907 C1906 1.334 . S
C1907 C1908 1.287 . S
C1908 C1907 1.287 . S
C1908 C1909 1.524 . S
C1908 H1927 0.913 . S
C1909 H1885 0.950 . S
C1909 C1908 1.524 . S
C1909 C1910 1.415 . S
C1910 H1886 0.950 . S
C1910 C1905 1.363 . S
C1910 C1909 1.415 . S
C1911 H1887 0.951 . S
C1911 C1912 1.366 . S
C1911 C1913 1.388 . S
C1912 C1911 1.366 . S
C1912 C1916 1.385 . S
C1913 H1888 0.951 . S
C1913 C1911 1.388 . S
C1913 C1914 1.366 . S
C1914 C1913 1.366 . S
C1914 C1915 1.414 . S
C1914 C1917 1.499 . S
C1915 H1889 0.950 . S
C1915 C1914 1.414 . S
C1915 C1916 1.374 . S
C1916 H1890 0.950 . S
C1916 C1912 1.385 . S
C1916 C1915 1.374 . S
C1917 C1914 1.499 . S
C1917 C1918 1.373 . S
C1917 C1919 1.389 . S
C1918 H1891 0.950 . S
C1918 C1904 1.377 . S
C1918 C1917 1.373 . S
C1919 C1903 1.377 . S
C1919 C1917 1.389 . S
C1919 C1920 1.524 . S
C1920 C1919 1.524 . S
C1920 C1921 1.397 . S
C1920 C1925 1.363 . S
C1921 H1892 0.950 . S
C1921 C1920 1.397 . S
C1921 C1922 1.334 . S
C1922 H1893 0.950 . S
C1922 C1921 1.334 . S
C1922 C1923 1.287 . S
C1923 C1922 1.287 . S
C1923 C1924 1.524 . S
C1923 H1926 0.999 . S
C1924 H1894 0.950 . S
C1924 C1923 1.524 . S
C1924 C1925 1.415 . S
C1925 H1895 0.950 . S
C1925 C1920 1.363 . S
C1925 C1924 1.415 . S
H1926 C1923 0.999 . S
H1927 C1908 0.913 . S
H1928 C1946 0.951 . S
H1929 C1948 0.951 . S
H1930 C1950 0.950 . S
H1931 C1951 0.950 . S
H1932 C1953 0.950 . S
H1933 C1956 0.950 . S
H1934 C1957 0.950 . S
H1935 C1959 0.950 . S
H1936 C1960 0.950 . S
H1937 C1961 0.951 . S
H1938 C1963 0.951 . S
H1939 C1965 0.950 . S
H1940 C1966 0.950 . S
H1941 C1968 0.950 . S
H1942 C1971 0.950 . S
H1943 C1972 0.950 . S
H1944 C1974 0.950 . S
H1945 C1975 0.950 . S
C1946 H1928 0.951 . S
C1946 C1947 1.366 . S
C1946 C1948 1.388 . S
C1947 C1946 1.366 . S
C1947 C1951 1.385 . S
C1948 H1929 0.951 . S
C1948 C1946 1.388 . S
C1948 C1949 1.366 . S
C1949 C1948 1.366 . S
C1949 C1950 1.414 . S
C1949 C1952 1.499 . S
C1950 H1930 0.950 . S
C1950 C1949 1.414 . S
C1950 C1951 1.374 . S
C1951 H1931 0.950 . S
C1951 C1947 1.385 . S
C1951 C1950 1.374 . S
C1952 C1949 1.499 . S
C1952 C1953 1.373 . S
C1952 C1954 1.389 . S
C1953 H1932 0.950 . S
C1953 C1952 1.373 . S
C1953 C1969 1.377 . S
C1954 C1952 1.389 . S
C1954 C1955 1.524 . S
C1954 C1968 1.377 . S
C1955 C1954 1.524 . S
C1955 C1956 1.397 . S
C1955 C1960 1.363 . S
C1956 H1933 0.950 . S
C1956 C1955 1.397 . S
C1956 C1957 1.334 . S
C1957 H1934 0.950 . S
C1957 C1956 1.334 . S
C1957 C1958 1.287 . S
C1958 C1957 1.287 . S
C1958 C1959 1.524 . S
C1958 H1977 0.913 . S
C1959 H1935 0.950 . S
C1959 C1958 1.524 . S
C1959 C1960 1.415 . S
C1960 H1936 0.950 . S
C1960 C1955 1.363 . S
C1960 C1959 1.415 . S
C1961 H1937 0.951 . S
C1961 C1962 1.366 . S
C1961 C1963 1.388 . S
C1962 C1961 1.366 . S
C1962 C1966 1.385 . S
C1963 H1938 0.951 . S
C1963 C1961 1.388 . S
C1963 C1964 1.366 . S
C1964 C1963 1.366 . S
C1964 C1965 1.414 . S
C1964 C1967 1.499 . S
C1965 H1939 0.950 . S
C1965 C1964 1.414 . S
C1965 C1966 1.374 . S
C1966 H1940 0.950 . S
C1966 C1962 1.385 . S
C1966 C1965 1.374 . S
C1967 C1964 1.499 . S
C1967 C1968 1.373 . S
C1967 C1969 1.389 . S
C1968 H1941 0.950 . S
C1968 C1954 1.377 . S
C1968 C1967 1.373 . S
C1969 C1953 1.377 . S
C1969 C1967 1.389 . S
C1969 C1970 1.524 . S
C1970 C1969 1.524 . S
C1970 C1971 1.397 . S
C1970 C1975 1.363 . S
C1971 H1942 0.950 . S
C1971 C1970 1.397 . S
C1971 C1972 1.334 . S
C1972 H1943 0.950 . S
C1972 C1971 1.334 . S
C1972 C1973 1.287 . S
C1973 C1972 1.287 . S
C1973 C1974 1.524 . S
C1973 H1976 0.999 . S
C1974 H1944 0.950 . S
C1974 C1973 1.524 . S
C1974 C1975 1.415 . S
C1975 H1945 0.950 . S
C1975 C1970 1.363 . S
C1975 C1974 1.415 . S
H1976 C1973 0.999 . S
H1977 C1958 0.913 . S
H1978 C1996 0.951 . S
H1979 C1998 0.951 . S
H1980 C2000 0.950 . S
H1981 C2001 0.950 . S
H1982 C2003 0.950 . S
H1983 C2006 0.950 . S
H1984 C2007 0.950 . S
H1985 C2009 0.950 . S
H1986 C2010 0.950 . S
H1987 C2011 0.951 . S
H1988 C2013 0.951 . S
H1989 C2015 0.950 . S
H1990 C2016 0.950 . S
H1991 C2018 0.950 . S
H1992 C2021 0.950 . S
H1993 C2022 0.950 . S
H1994 C2024 0.950 . S
H1995 C2025 0.950 . S
C1996 H1978 0.951 . S
C1996 C1997 1.366 . S
C1996 C1998 1.388 . S
C1997 C1996 1.366 . S
C1997 C2001 1.385 . S
C1998 H1979 0.951 . S
C1998 C1996 1.388 . S
C1998 C1999 1.366 . S
C1999 C1998 1.366 . S
C1999 C2000 1.414 . S
C1999 C2002 1.499 . S
C2000 H1980 0.950 . S
C2000 C1999 1.414 . S
C2000 C2001 1.374 . S
C2001 H1981 0.950 . S
C2001 C1997 1.385 . S
C2001 C2000 1.374 . S
C2002 C1999 1.499 . S
C2002 C2003 1.373 . S
C2002 C2004 1.389 . S
C2003 H1982 0.950 . S
C2003 C2002 1.373 . S
C2003 C2019 1.377 . S
C2004 C2002 1.389 . S
C2004 C2005 1.524 . S
C2004 C2018 1.377 . S
C2005 C2004 1.524 . S
C2005 C2006 1.397 . S
C2005 C2010 1.363 . S
C2006 H1983 0.950 . S
C2006 C2005 1.397 . S
C2006 C2007 1.334 . S
C2007 H1984 0.950 . S
C2007 C2006 1.334 . S
C2007 C2008 1.287 . S
C2008 C2007 1.287 . S
C2008 C2009 1.524 . S
C2008 H2027 0.913 . S
C2009 H1985 0.950 . S
C2009 C2008 1.524 . S
C2009 C2010 1.415 . S
C2010 H1986 0.950 . S
C2010 C2005 1.363 . S
C2010 C2009 1.415 . S
C2011 H1987 0.951 . S
C2011 C2012 1.366 . S
C2011 C2013 1.388 . S
C2012 C2011 1.366 . S
C2012 C2016 1.385 . S
C2013 H1988 0.951 . S
C2013 C2011 1.388 . S
C2013 C2014 1.366 . S
C2014 C2013 1.366 . S
C2014 C2015 1.414 . S
C2014 C2017 1.499 . S
C2015 H1989 0.950 . S
C2015 C2014 1.414 . S
C2015 C2016 1.374 . S
C2016 H1990 0.950 . S
C2016 C2012 1.385 . S
C2016 C2015 1.374 . S
C2017 C2014 1.499 . S
C2017 C2018 1.373 . S
C2017 C2019 1.389 . S
C2018 H1991 0.950 . S
C2018 C2004 1.377 . S
C2018 C2017 1.373 . S
C2019 C2003 1.377 . S
C2019 C2017 1.389 . S
C2019 C2020 1.524 . S
C2020 C2019 1.524 . S
C2020 C2021 1.397 . S
C2020 C2025 1.363 . S
C2021 H1992 0.950 . S
C2021 C2020 1.397 . S
C2021 C2022 1.334 . S
C2022 H1993 0.950 . S
C2022 C2021 1.334 . S
C2022 C2023 1.287 . S
C2023 C2022 1.287 . S
C2023 C2024 1.524 . S
C2023 H2026 0.999 . S
C2024 H1994 0.950 . S
C2024 C2023 1.524 . S
C2024 C2025 1.415 . S
C2025 H1995 0.950 . S
C2025 C2020 1.363 . S
C2025 C2024 1.415 . S
H2026 C2023 0.999 . S
H2027 C2008 0.913 . S
H2028 C2046 0.951 . S
H2029 C2048 0.951 . S
H2030 C2050 0.950 . S
H2031 C2051 0.950 . S
H2032 C2053 0.950 . S
H2033 C2056 0.950 . S
H2034 C2057 0.950 . S
H2035 C2059 0.950 . S
H2036 C2060 0.950 . S
H2037 C2061 0.951 . S
H2038 C2063 0.951 . S
H2039 C2065 0.950 . S
H2040 C2066 0.950 . S
H2041 C2068 0.950 . S
H2042 C2071 0.950 . S
H2043 C2072 0.950 . S
H2044 C2074 0.950 . S
H2045 C2075 0.950 . S
C2046 H2028 0.951 . S
C2046 C2047 1.366 . S
C2046 C2048 1.388 . S
C2047 C2046 1.366 . S
C2047 C2051 1.385 . S
C2048 H2029 0.951 . S
C2048 C2046 1.388 . S
C2048 C2049 1.366 . S
C2049 C2048 1.366 . S
C2049 C2050 1.414 . S
C2049 C2052 1.499 . S
C2050 H2030 0.950 . S
C2050 C2049 1.414 . S
C2050 C2051 1.374 . S
C2051 H2031 0.950 . S
C2051 C2047 1.385 . S
C2051 C2050 1.374 . S
C2052 C2049 1.499 . S
C2052 C2053 1.373 . S
C2052 C2054 1.389 . S
C2053 H2032 0.950 . S
C2053 C2052 1.373 . S
C2053 C2069 1.377 . S
C2054 C2052 1.389 . S
C2054 C2055 1.524 . S
C2054 C2068 1.377 . S
C2055 C2054 1.524 . S
C2055 C2056 1.397 . S
C2055 C2060 1.363 . S
C2056 H2033 0.950 . S
C2056 C2055 1.397 . S
C2056 C2057 1.334 . S
C2057 H2034 0.950 . S
C2057 C2056 1.334 . S
C2057 C2058 1.287 . S
C2058 C2057 1.287 . S
C2058 C2059 1.524 . S
C2058 H2077 0.913 . S
C2059 H2035 0.950 . S
C2059 C2058 1.524 . S
C2059 C2060 1.415 . S
C2060 H2036 0.950 . S
C2060 C2055 1.363 . S
C2060 C2059 1.415 . S
C2061 H2037 0.951 . S
C2061 C2062 1.366 . S
C2061 C2063 1.388 . S
C2062 C2061 1.366 . S
C2062 C2066 1.385 . S
C2063 H2038 0.951 . S
C2063 C2061 1.388 . S
C2063 C2064 1.366 . S
C2064 C2063 1.366 . S
C2064 C2065 1.414 . S
C2064 C2067 1.499 . S
C2065 H2039 0.950 . S
C2065 C2064 1.414 . S
C2065 C2066 1.374 . S
C2066 H2040 0.950 . S
C2066 C2062 1.385 . S
C2066 C2065 1.374 . S
C2067 C2064 1.499 . S
C2067 C2068 1.373 . S
C2067 C2069 1.389 . S
C2068 H2041 0.950 . S
C2068 C2054 1.377 . S
C2068 C2067 1.373 . S
C2069 C2053 1.377 . S
C2069 C2067 1.389 . S
C2069 C2070 1.524 . S
C2070 C2069 1.524 . S
C2070 C2071 1.397 . S
C2070 C2075 1.363 . S
C2071 H2042 0.950 . S
C2071 C2070 1.397 . S
C2071 C2072 1.334 . S
C2072 H2043 0.950 . S
C2072 C2071 1.334 . S
C2072 C2073 1.287 . S
C2073 C2072 1.287 . S
C2073 C2074 1.524 . S
C2073 H2076 0.999 . S
C2074 H2044 0.950 . S
C2074 C2073 1.524 . S
C2074 C2075 1.415 . S
C2075 H2045 0.950 . S
C2075 C2070 1.363 . S
C2075 C2074 1.415 . S
H2076 C2073 0.999 . S
H2077 C2058 0.913 . S
H2078 C2096 0.951 . S
H2079 C2098 0.951 . S
H2080 C2100 0.950 . S
H2081 C2101 0.950 . S
H2082 C2103 0.950 . S
H2083 C2106 0.950 . S
H2084 C2107 0.950 . S
H2085 C2109 0.950 . S
H2086 C2110 0.950 . S
H2087 C2111 0.951 . S
H2088 C2113 0.951 . S
H2089 C2115 0.950 . S
H2090 C2116 0.950 . S
H2091 C2118 0.950 . S
H2092 C2121 0.950 . S
H2093 C2122 0.950 . S
H2094 C2124 0.950 . S
H2095 C2125 0.950 . S
C2096 H2078 0.951 . S
C2096 C2097 1.366 . S
C2096 C2098 1.388 . S
C2097 C2096 1.366 . S
C2097 C2101 1.385 . S
C2098 H2079 0.951 . S
C2098 C2096 1.388 . S
C2098 C2099 1.366 . S
C2099 C2098 1.366 . S
C2099 C2100 1.414 . S
C2099 C2102 1.499 . S
C2100 H2080 0.950 . S
C2100 C2099 1.414 . S
C2100 C2101 1.374 . S
C2101 H2081 0.950 . S
C2101 C2097 1.385 . S
C2101 C2100 1.374 . S
C2102 C2099 1.499 . S
C2102 C2103 1.373 . S
C2102 C2104 1.389 . S
C2103 H2082 0.950 . S
C2103 C2102 1.373 . S
C2103 C2119 1.377 . S
C2104 C2102 1.389 . S
C2104 C2105 1.524 . S
C2104 C2118 1.377 . S
C2105 C2104 1.524 . S
C2105 C2106 1.397 . S
C2105 C2110 1.363 . S
C2106 H2083 0.950 . S
C2106 C2105 1.397 . S
C2106 C2107 1.334 . S
C2107 H2084 0.950 . S
C2107 C2106 1.334 . S
C2107 C2108 1.287 . S
C2108 C2107 1.287 . S
C2108 C2109 1.524 . S
C2108 H2127 0.913 . S
C2109 H2085 0.950 . S
C2109 C2108 1.524 . S
C2109 C2110 1.415 . S
C2110 H2086 0.950 . S
C2110 C2105 1.363 . S
C2110 C2109 1.415 . S
C2111 H2087 0.951 . S
C2111 C2112 1.366 . S
C2111 C2113 1.388 . S
C2112 C2111 1.366 . S
C2112 C2116 1.385 . S
C2113 H2088 0.951 . S
C2113 C2111 1.388 . S
C2113 C2114 1.366 . S
C2114 C2113 1.366 . S
C2114 C2115 1.414 . S
C2114 C2117 1.499 . S
C2115 H2089 0.950 . S
C2115 C2114 1.414 . S
C2115 C2116 1.374 . S
C2116 H2090 0.950 . S
C2116 C2112 1.385 . S
C2116 C2115 1.374 . S
C2117 C2114 1.499 . S
C2117 C2118 1.373 . S
C2117 C2119 1.389 . S
C2118 H2091 0.950 . S
C2118 C2104 1.377 . S
C2118 C2117 1.373 . S
C2119 C2103 1.377 . S
C2119 C2117 1.389 . S
C2119 C2120 1.524 . S
C2120 C2119 1.524 . S
C2120 C2121 1.397 . S
C2120 C2125 1.363 . S
C2121 H2092 0.950 . S
C2121 C2120 1.397 . S
C2121 C2122 1.334 . S
C2122 H2093 0.950 . S
C2122 C2121 1.334 . S
C2122 C2123 1.287 . S
C2123 C2122 1.287 . S
C2123 C2124 1.524 . S
C2123 H2126 0.999 . S
C2124 H2094 0.950 . S
C2124 C2123 1.524 . S
C2124 C2125 1.415 . S
C2125 H2095 0.950 . S
C2125 C2120 1.363 . S
C2125 C2124 1.415 . S
H2126 C2123 0.999 . S
H2127 C2108 0.913 . S
H2128 C2146 0.951 . S
H2129 C2148 0.951 . S
H2130 C2150 0.950 . S
H2131 C2151 0.950 . S
H2132 C2153 0.950 . S
H2133 C2156 0.950 . S
H2134 C2157 0.950 . S
H2135 C2159 0.950 . S
H2136 C2160 0.950 . S
H2137 C2161 0.951 . S
H2138 C2163 0.951 . S
H2139 C2165 0.950 . S
H2140 C2166 0.950 . S
H2141 C2168 0.950 . S
H2142 C2171 0.950 . S
H2143 C2172 0.950 . S
H2144 C2174 0.950 . S
H2145 C2175 0.950 . S
C2146 H2128 0.951 . S
C2146 C2147 1.366 . S
C2146 C2148 1.388 . S
C2147 C2146 1.366 . S
C2147 C2151 1.385 . S
C2148 H2129 0.951 . S
C2148 C2146 1.388 . S
C2148 C2149 1.366 . S
C2149 C2148 1.366 . S
C2149 C2150 1.414 . S
C2149 C2152 1.499 . S
C2150 H2130 0.950 . S
C2150 C2149 1.414 . S
C2150 C2151 1.374 . S
C2151 H2131 0.950 . S
C2151 C2147 1.385 . S
C2151 C2150 1.374 . S
C2152 C2149 1.499 . S
C2152 C2153 1.373 . S
C2152 C2154 1.389 . S
C2153 H2132 0.950 . S
C2153 C2152 1.373 . S
C2153 C2169 1.377 . S
C2154 C2152 1.389 . S
C2154 C2155 1.524 . S
C2154 C2168 1.377 . S
C2155 C2154 1.524 . S
C2155 C2156 1.397 . S
C2155 C2160 1.363 . S
C2156 H2133 0.950 . S
C2156 C2155 1.397 . S
C2156 C2157 1.334 . S
C2157 H2134 0.950 . S
C2157 C2156 1.334 . S
C2157 C2158 1.287 . S
C2158 C2157 1.287 . S
C2158 C2159 1.524 . S
C2158 H2177 0.913 . S
C2159 H2135 0.950 . S
C2159 C2158 1.524 . S
C2159 C2160 1.415 . S
C2160 H2136 0.950 . S
C2160 C2155 1.363 . S
C2160 C2159 1.415 . S
C2161 H2137 0.951 . S
C2161 C2162 1.366 . S
C2161 C2163 1.388 . S
C2162 C2161 1.366 . S
C2162 C2166 1.385 . S
C2163 H2138 0.951 . S
C2163 C2161 1.388 . S
C2163 C2164 1.366 . S
C2164 C2163 1.366 . S
C2164 C2165 1.414 . S
C2164 C2167 1.499 . S
C2165 H2139 0.950 . S
C2165 C2164 1.414 . S
C2165 C2166 1.374 . S
C2166 H2140 0.950 . S
C2166 C2162 1.385 . S
C2166 C2165 1.374 . S
C2167 C2164 1.499 . S
C2167 C2168 1.373 . S
C2167 C2169 1.389 . S
C2168 H2141 0.950 . S
C2168 C2154 1.377 . S
C2168 C2167 1.373 . S
C2169 C2153 1.377 . S
C2169 C2167 1.389 . S
C2169 C2170 1.524 . S
C2170 C2169 1.524 . S
C2170 C2171 1.397 . S
C2170 C2175 1.363 . S
C2171 H2142 0.950 . S
C2171 C2170 1.397 . S
C2171 C2172 1.334 . S
C2172 H2143 0.950 . S
C2172 C2171 1.334 . S
C2172 C2173 1.287 . S
C2173 C2172 1.287 . S
C2173 C2174 1.524 . S
C2173 H2176 0.999 . S
C2174 H2144 0.950 . S
C2174 C2173 1.524 . S
C2174 C2175 1.415 . S
C2175 H2145 0.950 . S
C2175 C2170 1.363 . S
C2175 C2174 1.415 . S
H2176 C2173 0.999 . S
H2177 C2158 0.913 . S
H2178 C2196 0.951 . S
H2179 C2198 0.951 . S
H2180 C2200 0.950 . S
H2181 C2201 0.950 . S
H2182 C2203 0.950 . S
H2183 C2206 0.950 . S
H2184 C2207 0.950 . S
H2185 C2209 0.950 . S
H2186 C2210 0.950 . S
H2187 C2211 0.951 . S
H2188 C2213 0.951 . S
H2189 C2215 0.950 . S
H2190 C2216 0.950 . S
H2191 C2218 0.950 . S
H2192 C2221 0.950 . S
H2193 C2222 0.950 . S
H2194 C2224 0.950 . S
H2195 C2225 0.950 . S
C2196 H2178 0.951 . S
C2196 C2197 1.366 . S
C2196 C2198 1.388 . S
C2197 C2196 1.366 . S
C2197 C2201 1.385 . S
C2198 H2179 0.951 . S
C2198 C2196 1.388 . S
C2198 C2199 1.366 . S
C2199 C2198 1.366 . S
C2199 C2200 1.414 . S
C2199 C2202 1.499 . S
C2200 H2180 0.950 . S
C2200 C2199 1.414 . S
C2200 C2201 1.374 . S
C2201 H2181 0.950 . S
C2201 C2197 1.385 . S
C2201 C2200 1.374 . S
C2202 C2199 1.499 . S
C2202 C2203 1.373 . S
C2202 C2204 1.389 . S
C2203 H2182 0.950 . S
C2203 C2202 1.373 . S
C2203 C2219 1.377 . S
C2204 C2202 1.389 . S
C2204 C2205 1.524 . S
C2204 C2218 1.377 . S
C2205 C2204 1.524 . S
C2205 C2206 1.397 . S
C2205 C2210 1.363 . S
C2206 H2183 0.950 . S
C2206 C2205 1.397 . S
C2206 C2207 1.334 . S
C2207 H2184 0.950 . S
C2207 C2206 1.334 . S
C2207 C2208 1.287 . S
C2208 C2207 1.287 . S
C2208 C2209 1.524 . S
C2208 H2227 0.913 . S
C2209 H2185 0.950 . S
C2209 C2208 1.524 . S
C2209 C2210 1.415 . S
C2210 H2186 0.950 . S
C2210 C2205 1.363 . S
C2210 C2209 1.415 . S
C2211 H2187 0.951 . S
C2211 C2212 1.366 . S
C2211 C2213 1.388 . S
C2212 C2211 1.366 . S
C2212 C2216 1.385 . S
C2213 H2188 0.951 . S
C2213 C2211 1.388 . S
C2213 C2214 1.366 . S
C2214 C2213 1.366 . S
C2214 C2215 1.414 . S
C2214 C2217 1.499 . S
C2215 H2189 0.950 . S
C2215 C2214 1.414 . S
C2215 C2216 1.374 . S
C2216 H2190 0.950 . S
C2216 C2212 1.385 . S
C2216 C2215 1.374 . S
C2217 C2214 1.499 . S
C2217 C2218 1.373 . S
C2217 C2219 1.389 . S
C2218 H2191 0.950 . S
C2218 C2204 1.377 . S
C2218 C2217 1.373 . S
C2219 C2203 1.377 . S
C2219 C2217 1.389 . S
C2219 C2220 1.524 . S
C2220 C2219 1.524 . S
C2220 C2221 1.397 . S
C2220 C2225 1.363 . S
C2221 H2192 0.950 . S
C2221 C2220 1.397 . S
C2221 C2222 1.334 . S
C2222 H2193 0.950 . S
C2222 C2221 1.334 . S
C2222 C2223 1.287 . S
C2223 C2222 1.287 . S
C2223 C2224 1.524 . S
C2223 H2226 0.999 . S
C2224 H2194 0.950 . S
C2224 C2223 1.524 . S
C2224 C2225 1.415 . S
C2225 H2195 0.950 . S
C2225 C2220 1.363 . S
C2225 C2224 1.415 . S
H2226 C2223 0.999 . S
H2227 C2208 0.913 . S
H2228 C2246 0.951 . S
H2229 C2248 0.951 . S
H2230 C2250 0.950 . S
H2231 C2251 0.950 . S
H2232 C2253 0.950 . S
H2233 C2256 0.950 . S
H2234 C2257 0.950 . S
H2235 C2259 0.950 . S
H2236 C2260 0.950 . S
H2237 C2261 0.951 . S
H2238 C2263 0.951 . S
H2239 C2265 0.950 . S
H2240 C2266 0.950 . S
H2241 C2268 0.950 . S
H2242 C2271 0.950 . S
H2243 C2272 0.950 . S
H2244 C2274 0.950 . S
H2245 C2275 0.950 . S
C2246 H2228 0.951 . S
C2246 C2247 1.366 . S
C2246 C2248 1.388 . S
C2247 C2246 1.366 . S
C2247 C2251 1.385 . S
C2248 H2229 0.951 . S
C2248 C2246 1.388 . S
C2248 C2249 1.366 . S
C2249 C2248 1.366 . S
C2249 C2250 1.414 . S
C2249 C2252 1.499 . S
C2250 H2230 0.950 . S
C2250 C2249 1.414 . S
C2250 C2251 1.374 . S
C2251 H2231 0.950 . S
C2251 C2247 1.385 . S
C2251 C2250 1.374 . S
C2252 C2249 1.499 . S
C2252 C2253 1.373 . S
C2252 C2254 1.389 . S
C2253 H2232 0.950 . S
C2253 C2252 1.373 . S
C2253 C2269 1.377 . S
C2254 C2252 1.389 . S
C2254 C2255 1.524 . S
C2254 C2268 1.377 . S
C2255 C2254 1.524 . S
C2255 C2256 1.397 . S
C2255 C2260 1.363 . S
C2256 H2233 0.950 . S
C2256 C2255 1.397 . S
C2256 C2257 1.334 . S
C2257 H2234 0.950 . S
C2257 C2256 1.334 . S
C2257 C2258 1.287 . S
C2258 C2257 1.287 . S
C2258 C2259 1.524 . S
C2258 H2277 0.913 . S
C2259 H2235 0.950 . S
C2259 C2258 1.524 . S
C2259 C2260 1.415 . S
C2260 H2236 0.950 . S
C2260 C2255 1.363 . S
C2260 C2259 1.415 . S
C2261 H2237 0.951 . S
C2261 C2262 1.366 . S
C2261 C2263 1.388 . S
C2262 C2261 1.366 . S
C2262 C2266 1.385 . S
C2263 H2238 0.951 . S
C2263 C2261 1.388 . S
C2263 C2264 1.366 . S
C2264 C2263 1.366 . S
C2264 C2265 1.414 . S
C2264 C2267 1.499 . S
C2265 H2239 0.950 . S
C2265 C2264 1.414 . S
C2265 C2266 1.374 . S
C2266 H2240 0.950 . S
C2266 C2262 1.385 . S
C2266 C2265 1.374 . S
C2267 C2264 1.499 . S
C2267 C2268 1.373 . S
C2267 C2269 1.389 . S
C2268 H2241 0.950 . S
C2268 C2254 1.377 . S
C2268 C2267 1.373 . S
C2269 C2253 1.377 . S
C2269 C2267 1.389 . S
C2269 C2270 1.524 . S
C2270 C2269 1.524 . S
C2270 C2271 1.397 . S
C2270 C2275 1.363 . S
C2271 H2242 0.950 . S
C2271 C2270 1.397 . S
C2271 C2272 1.334 . S
C2272 H2243 0.950 . S
C2272 C2271 1.334 . S
C2272 C2273 1.287 . S
C2273 C2272 1.287 . S
C2273 C2274 1.524 . S
C2273 H2276 0.999 . S
C2274 H2244 0.950 . S
C2274 C2273 1.524 . S
C2274 C2275 1.415 . S
C2275 H2245 0.950 . S
C2275 C2270 1.363 . S
C2275 C2274 1.415 . S
H2276 C2273 0.999 . S
H2277 C2258 0.913 . S
H2278 C2296 0.951 . S
H2279 C2298 0.951 . S
H2280 C2300 0.950 . S
H2281 C2301 0.950 . S
H2282 C2303 0.950 . S
H2283 C2306 0.950 . S
H2284 C2307 0.950 . S
H2285 C2309 0.950 . S
H2286 C2310 0.950 . S
H2287 C2311 0.951 . S
H2288 C2313 0.951 . S
H2289 C2315 0.950 . S
H2290 C2316 0.950 . S
H2291 C2318 0.950 . S
H2292 C2321 0.950 . S
H2293 C2322 0.950 . S
H2294 C2324 0.950 . S
H2295 C2325 0.950 . S
C2296 H2278 0.951 . S
C2296 C2297 1.366 . S
C2296 C2298 1.388 . S
C2297 C2296 1.366 . S
C2297 C2301 1.385 . S
C2298 H2279 0.951 . S
C2298 C2296 1.388 . S
C2298 C2299 1.366 . S
C2299 C2298 1.366 . S
C2299 C2300 1.414 . S
C2299 C2302 1.499 . S
C2300 H2280 0.950 . S
C2300 C2299 1.414 . S
C2300 C2301 1.374 . S
C2301 H2281 0.950 . S
C2301 C2297 1.385 . S
C2301 C2300 1.374 . S
C2302 C2299 1.499 . S
C2302 C2303 1.373 . S
C2302 C2304 1.389 . S
C2303 H2282 0.950 . S
C2303 C2302 1.373 . S
C2303 C2319 1.377 . S
C2304 C2302 1.389 . S
C2304 C2305 1.524 . S
C2304 C2318 1.377 . S
C2305 C2304 1.524 . S
C2305 C2306 1.397 . S
C2305 C2310 1.363 . S
C2306 H2283 0.950 . S
C2306 C2305 1.397 . S
C2306 C2307 1.334 . S
C2307 H2284 0.950 . S
C2307 C2306 1.334 . S
C2307 C2308 1.287 . S
C2308 C2307 1.287 . S
C2308 C2309 1.524 . S
C2308 H2327 0.913 . S
C2309 H2285 0.950 . S
C2309 C2308 1.524 . S
C2309 C2310 1.415 . S
C2310 H2286 0.950 . S
C2310 C2305 1.363 . S
C2310 C2309 1.415 . S
C2311 H2287 0.951 . S
C2311 C2312 1.366 . S
C2311 C2313 1.388 . S
C2312 C2311 1.366 . S
C2312 C2316 1.385 . S
C2313 H2288 0.951 . S
C2313 C2311 1.388 . S
C2313 C2314 1.366 . S
C2314 C2313 1.366 . S
C2314 C2315 1.414 . S
C2314 C2317 1.499 . S
C2315 H2289 0.950 . S
C2315 C2314 1.414 . S
C2315 C2316 1.374 . S
C2316 H2290 0.950 . S
C2316 C2312 1.385 . S
C2316 C2315 1.374 . S
C2317 C2314 1.499 . S
C2317 C2318 1.373 . S
C2317 C2319 1.389 . S
C2318 H2291 0.950 . S
C2318 C2304 1.377 . S
C2318 C2317 1.373 . S
C2319 C2303 1.377 . S
C2319 C2317 1.389 . S
C2319 C2320 1.524 . S
C2320 C2319 1.524 . S
C2320 C2321 1.397 . S
C2320 C2325 1.363 . S
C2321 H2292 0.950 . S
C2321 C2320 1.397 . S
C2321 C2322 1.334 . S
C2322 H2293 0.950 . S
C2322 C2321 1.334 . S
C2322 C2323 1.287 . S
C2323 C2322 1.287 . S
C2323 C2324 1.524 . S
C2323 H2326 0.999 . S
C2324 H2294 0.950 . S
C2324 C2323 1.524 . S
C2324 C2325 1.415 . S
C2325 H2295 0.950 . S
C2325 C2320 1.363 . S
C2325 C2324 1.415 . S
H2326 C2323 0.999 . S
H2327 C2308 0.913 . S
H2328 C2346 0.951 . S
H2329 C2348 0.951 . S
H2330 C2350 0.950 . S
H2331 C2351 0.950 . S
H2332 C2353 0.950 . S
H2333 C2356 0.950 . S
H2334 C2357 0.950 . S
H2335 C2359 0.950 . S
H2336 C2360 0.950 . S
H2337 C2361 0.951 . S
H2338 C2363 0.951 . S
H2339 C2365 0.950 . S
H2340 C2366 0.950 . S
H2341 C2368 0.950 . S
H2342 C2371 0.950 . S
H2343 C2372 0.950 . S
H2344 C2374 0.950 . S
H2345 C2375 0.950 . S
C2346 H2328 0.951 . S
C2346 C2347 1.366 . S
C2346 C2348 1.388 . S
C2347 C2346 1.366 . S
C2347 C2351 1.385 . S
C2348 H2329 0.951 . S
C2348 C2346 1.388 . S
C2348 C2349 1.366 . S
C2349 C2348 1.366 . S
C2349 C2350 1.414 . S
C2349 C2352 1.499 . S
C2350 H2330 0.950 . S
C2350 C2349 1.414 . S
C2350 C2351 1.374 . S
C2351 H2331 0.950 . S
C2351 C2347 1.385 . S
C2351 C2350 1.374 . S
C2352 C2349 1.499 . S
C2352 C2353 1.373 . S
C2352 C2354 1.389 . S
C2353 H2332 0.950 . S
C2353 C2352 1.373 . S
C2353 C2369 1.377 . S
C2354 C2352 1.389 . S
C2354 C2355 1.524 . S
C2354 C2368 1.377 . S
C2355 C2354 1.524 . S
C2355 C2356 1.397 . S
C2355 C2360 1.363 . S
C2356 H2333 0.950 . S
C2356 C2355 1.397 . S
C2356 C2357 1.334 . S
C2357 H2334 0.950 . S
C2357 C2356 1.334 . S
C2357 C2358 1.287 . S
C2358 C2357 1.287 . S
C2358 C2359 1.524 . S
C2358 H2377 0.913 . S
C2359 H2335 0.950 . S
C2359 C2358 1.524 . S
C2359 C2360 1.415 . S
C2360 H2336 0.950 . S
C2360 C2355 1.363 . S
C2360 C2359 1.415 . S
C2361 H2337 0.951 . S
C2361 C2362 1.366 . S
C2361 C2363 1.388 . S
C2362 C2361 1.366 . S
C2362 C2366 1.385 . S
C2363 H2338 0.951 . S
C2363 C2361 1.388 . S
C2363 C2364 1.366 . S
C2364 C2363 1.366 . S
C2364 C2365 1.414 . S
C2364 C2367 1.499 . S
C2365 H2339 0.950 . S
C2365 C2364 1.414 . S
C2365 C2366 1.374 . S
C2366 H2340 0.950 . S
C2366 C2362 1.385 . S
C2366 C2365 1.374 . S
C2367 C2364 1.499 . S
C2367 C2368 1.373 . S
C2367 C2369 1.389 . S
C2368 H2341 0.950 . S
C2368 C2354 1.377 . S
C2368 C2367 1.373 . S
C2369 C2353 1.377 . S
C2369 C2367 1.389 . S
C2369 C2370 1.524 . S
C2370 C2369 1.524 . S
C2370 C2371 1.397 . S
C2370 C2375 1.363 . S
C2371 H2342 0.950 . S
C2371 C2370 1.397 . S
C2371 C2372 1.334 . S
C2372 H2343 0.950 . S
C2372 C2371 1.334 . S
C2372 C2373 1.287 . S
C2373 C2372 1.287 . S
C2373 C2374 1.524 . S
C2373 H2376 0.999 . S
C2374 H2344 0.950 . S
C2374 C2373 1.524 . S
C2374 C2375 1.415 . S
C2375 H2345 0.950 . S
C2375 C2370 1.363 . S
C2375 C2374 1.415 . S
H2376 C2373 0.999 . S
H2377 C2358 0.913 . S
H2378 C2396 0.951 . S
H2379 C2398 0.951 . S
H2380 C2400 0.950 . S
H2381 C2401 0.950 . S
H2382 C2403 0.950 . S
H2383 C2406 0.950 . S
H2384 C2407 0.950 . S
H2385 C2409 0.950 . S
H2386 C2410 0.950 . S
H2387 C2411 0.951 . S
H2388 C2413 0.951 . S
H2389 C2415 0.950 . S
H2390 C2416 0.950 . S
H2391 C2418 0.950 . S
H2392 C2421 0.950 . S
H2393 C2422 0.950 . S
H2394 C2424 0.950 . S
H2395 C2425 0.950 . S
C2396 H2378 0.951 . S
C2396 C2397 1.366 . S
C2396 C2398 1.388 . S
C2397 C2396 1.366 . S
C2397 C2401 1.385 . S
C2398 H2379 0.951 . S
C2398 C2396 1.388 . S
C2398 C2399 1.366 . S
C2399 C2398 1.366 . S
C2399 C2400 1.414 . S
C2399 C2402 1.499 . S
C2400 H2380 0.950 . S
C2400 C2399 1.414 . S
C2400 C2401 1.374 . S
C2401 H2381 0.950 . S
C2401 C2397 1.385 . S
C2401 C2400 1.374 . S
C2402 C2399 1.499 . S
C2402 C2403 1.373 . S
C2402 C2404 1.389 . S
C2403 H2382 0.950 . S
C2403 C2402 1.373 . S
C2403 C2419 1.377 . S
C2404 C2402 1.389 . S
C2404 C2405 1.524 . S
C2404 C2418 1.377 . S
C2405 C2404 1.524 . S
C2405 C2406 1.397 . S
C2405 C2410 1.363 . S
C2406 H2383 0.950 . S
C2406 C2405 1.397 . S
C2406 C2407 1.334 . S
C2407 H2384 0.950 . S
C2407 C2406 1.334 . S
C2407 C2408 1.287 . S
C2408 C2407 1.287 . S
C2408 C2409 1.524 . S
C2408 H2427 0.913 . S
C2409 H2385 0.950 . S
C2409 C2408 1.524 . S
C2409 C2410 1.415 . S
C2410 H2386 0.950 . S
C2410 C2405 1.363 . S
C2410 C2409 1.415 . S
C2411 H2387 0.951 . S
C2411 C2412 1.366 . S
C2411 C2413 1.388 . S
C2412 C2411 1.366 . S
C2412 C2416 1.385 . S
C2413 H2388 0.951 . S
C2413 C2411 1.388 . S
C2413 C2414 1.366 . S
C2414 C2413 1.366 . S
C2414 C2415 1.414 . S
C2414 C2417 1.499 . S
C2415 H2389 0.950 . S
C2415 C2414 1.414 . S
C2415 C2416 1.374 . S
C2416 H2390 0.950 . S
C2416 C2412 1.385 . S
C2416 C2415 1.374 . S
C2417 C2414 1.499 . S
C2417 C2418 1.373 . S
C2417 C2419 1.389 . S
C2418 H2391 0.950 . S
C2418 C2404 1.377 . S
C2418 C2417 1.373 . S
C2419 C2403 1.377 . S
C2419 C2417 1.389 . S
C2419 C2420 1.524 . S
C2420 C2419 1.524 . S
C2420 C2421 1.397 . S
C2420 C2425 1.363 . S
C2421 H2392 0.950 . S
C2421 C2420 1.397 . S
C2421 C2422 1.334 . S
C2422 H2393 0.950 . S
C2422 C2421 1.334 . S
C2422 C2423 1.287 . S
C2423 C2422 1.287 . S
C2423 C2424 1.524 . S
C2423 H2426 0.999 . S
C2424 H2394 0.950 . S
C2424 C2423 1.524 . S
C2424 C2425 1.415 . S
C2425 H2395 0.950 . S
C2425 C2420 1.363 . S
C2425 C2424 1.415 . S
H2426 C2423 0.999 . S
H2427 C2408 0.913 . S
H2428 C2446 0.951 . S
H2429 C2448 0.951 . S
H2430 C2450 0.950 . S
H2431 C2451 0.950 . S
H2432 C2453 0.950 . S
H2433 C2456 0.950 . S
H2434 C2457 0.950 . S
H2435 C2459 0.950 . S
H2436 C2460 0.950 . S
H2437 C2461 0.951 . S
H2438 C2463 0.951 . S
H2439 C2465 0.950 . S
H2440 C2466 0.950 . S
H2441 C2468 0.950 . S
H2442 C2471 0.950 . S
H2443 C2472 0.950 . S
H2444 C2474 0.950 . S
H2445 C2475 0.950 . S
C2446 H2428 0.951 . S
C2446 C2447 1.366 . S
C2446 C2448 1.388 . S
C2447 C2446 1.366 . S
C2447 C2451 1.385 . S
C2448 H2429 0.951 . S
C2448 C2446 1.388 . S
C2448 C2449 1.366 . S
C2449 C2448 1.366 . S
C2449 C2450 1.414 . S
C2449 C2452 1.499 . S
C2450 H2430 0.950 . S
C2450 C2449 1.414 . S
C2450 C2451 1.374 . S
C2451 H2431 0.950 . S
C2451 C2447 1.385 . S
C2451 C2450 1.374 . S
C2452 C2449 1.499 . S
C2452 C2453 1.373 . S
C2452 C2454 1.389 . S
C2453 H2432 0.950 . S
C2453 C2452 1.373 . S
C2453 C2469 1.377 . S
C2454 C2452 1.389 . S
C2454 C2455 1.524 . S
C2454 C2468 1.377 . S
C2455 C2454 1.524 . S
C2455 C2456 1.397 . S
C2455 C2460 1.363 . S
C2456 H2433 0.950 . S
C2456 C2455 1.397 . S
C2456 C2457 1.334 . S
C2457 H2434 0.950 . S
C2457 C2456 1.334 . S
C2457 C2458 1.287 . S
C2458 C2457 1.287 . S
C2458 C2459 1.524 . S
C2458 H2477 0.913 . S
C2459 H2435 0.950 . S
C2459 C2458 1.524 . S
C2459 C2460 1.415 . S
C2460 H2436 0.950 . S
C2460 C2455 1.363 . S
C2460 C2459 1.415 . S
C2461 H2437 0.951 . S
C2461 C2462 1.366 . S
C2461 C2463 1.388 . S
C2462 C2461 1.366 . S
C2462 C2466 1.385 . S
C2463 H2438 0.951 . S
C2463 C2461 1.388 . S
C2463 C2464 1.366 . S
C2464 C2463 1.366 . S
C2464 C2465 1.414 . S
C2464 C2467 1.499 . S
C2465 H2439 0.950 . S
C2465 C2464 1.414 . S
C2465 C2466 1.374 . S
C2466 H2440 0.950 . S
C2466 C2462 1.385 . S
C2466 C2465 1.374 . S
C2467 C2464 1.499 . S
C2467 C2468 1.373 . S
C2467 C2469 1.389 . S
C2468 H2441 0.950 . S
C2468 C2454 1.377 . S
C2468 C2467 1.373 . S
C2469 C2453 1.377 . S
C2469 C2467 1.389 . S
C2469 C2470 1.524 . S
C2470 C2469 1.524 . S
C2470 C2471 1.397 . S
C2470 C2475 1.363 . S
C2471 H2442 0.950 . S
C2471 C2470 1.397 . S
C2471 C2472 1.334 . S
C2472 H2443 0.950 . S
C2472 C2471 1.334 . S
C2472 C2473 1.287 . S
C2473 C2472 1.287 . S
C2473 C2474 1.524 . S
C2473 H2476 0.999 . S
C2474 H2444 0.950 . S
C2474 C2473 1.524 . S
C2474 C2475 1.415 . S
C2475 H2445 0.950 . S
C2475 C2470 1.363 . S
C2475 C2474 1.415 . S
H2476 C2473 0.999 . S
H2477 C2458 0.913 . S
H2478 C2496 0.951 . S
H2479 C2498 0.951 . S
H2480 C2500 0.950 . S
H2481 C2501 0.950 . S
H2482 C2503 0.950 . S
H2483 C2506 0.950 . S
H2484 C2507 0.950 . S
H2485 C2509 0.950 . S
H2486 C2510 0.950 . S
H2487 C2511 0.951 . S
H2488 C2513 0.951 . S
H2489 C2515 0.950 . S
H2490 C2516 0.950 . S
H2491 C2518 0.950 . S
H2492 C2521 0.950 . S
H2493 C2522 0.950 . S
H2494 C2524 0.950 . S
H2495 C2525 0.950 . S
C2496 H2478 0.951 . S
C2496 C2497 1.366 . S
C2496 C2498 1.388 . S
C2497 C2496 1.366 . S
C2497 C2501 1.385 . S
C2498 H2479 0.951 . S
C2498 C2496 1.388 . S
C2498 C2499 1.366 . S
C2499 C2498 1.366 . S
C2499 C2500 1.414 . S
C2499 C2502 1.499 . S
C2500 H2480 0.950 . S
C2500 C2499 1.414 . S
C2500 C2501 1.374 . S
C2501 H2481 0.950 . S
C2501 C2497 1.385 . S
C2501 C2500 1.374 . S
C2502 C2499 1.499 . S
C2502 C2503 1.373 . S
C2502 C2504 1.389 . S
C2503 H2482 0.950 . S
C2503 C2502 1.373 . S
C2503 C2519 1.377 . S
C2504 C2502 1.389 . S
C2504 C2505 1.524 . S
C2504 C2518 1.377 . S
C2505 C2504 1.524 . S
C2505 C2506 1.397 . S
C2505 C2510 1.363 . S
C2506 H2483 0.950 . S
C2506 C2505 1.397 . S
C2506 C2507 1.334 . S
C2507 H2484 0.950 . S
C2507 C2506 1.334 . S
C2507 C2508 1.287 . S
C2508 C2507 1.287 . S
C2508 C2509 1.524 . S
C2508 H2527 0.913 . S
C2509 H2485 0.950 . S
C2509 C2508 1.524 . S
C2509 C2510 1.415 . S
C2510 H2486 0.950 . S
C2510 C2505 1.363 . S
C2510 C2509 1.415 . S
C2511 H2487 0.951 . S
C2511 C2512 1.366 . S
C2511 C2513 1.388 . S
C2512 C2511 1.366 . S
C2512 C2516 1.385 . S
C2513 H2488 0.951 . S
C2513 C2511 1.388 . S
C2513 C2514 1.366 . S
C2514 C2513 1.366 . S
C2514 C2515 1.414 . S
C2514 C2517 1.499 . S
C2515 H2489 0.950 . S
C2515 C2514 1.414 . S
C2515 C2516 1.374 . S
C2516 H2490 0.950 . S
C2516 C2512 1.385 . S
C2516 C2515 1.374 . S
C2517 C2514 1.499 . S
C2517 C2518 1.373 . S
C2517 C2519 1.389 . S
C2518 H2491 0.950 . S
C2518 C2504 1.377 . S
C2518 C2517 1.373 . S
C2519 C2503 1.377 . S
C2519 C2517 1.389 . S
C2519 C2520 1.524 . S
C2520 C2519 1.524 . S
C2520 C2521 1.397 . S
C2520 C2525 1.363 . S
C2521 H2492 0.950 . S
C2521 C2520 1.397 . S
C2521 C2522 1.334 . S
C2522 H2493 0.950 . S
C2522 C2521 1.334 . S
C2522 C2523 1.287 . S
C2523 C2522 1.287 . S
C2523 C2524 1.524 . S
C2523 H2526 0.999 . S
C2524 H2494 0.950 . S
C2524 C2523 1.524 . S
C2524 C2525 1.415 . S
C2525 H2495 0.950 . S
C2525 C2520 1.363 . S
C2525 C2524 1.415 . S
H2526 C2523 0.999 . S
H2527 C2508 0.913 . S
C547 C8 2.321 . S
C562 C74 2.320 . S
C597 C107 2.321 . S
C612 C41 2.320 . S
C647 C206 2.320 . S
C662 C140 2.321 . S
C697 C173 2.321 . S
C712 C239 2.320 . S
C747 C338 2.320 . S
C762 C272 2.321 . S
C797 C305 2.321 . S
C812 C371 2.321 . S
C847 C470 2.321 . S
C862 C404 2.320 . S
C897 C437 2.321 . S
C912 C503 2.320 . S
C947 C17 1.441 . S
C962 C347 1.442 . S
C997 C380 1.442 . S
C1012 C50 1.442 . S
C1047 C281 1.442 . S
C1062 C83 1.442 . S
C1097 C314 1.442 . S
C1112 C116 1.441 . S
C1147 C479 1.442 . S
C1162 C149 1.442 . S
C1197 C512 1.442 . S
C1212 C182 1.442 . S
C1247 C413 1.441 . S
C1262 C215 1.442 . S
C1297 C446 1.442 . S
C1312 C248 1.442 . S
C1347 C28 0.875 . S
C1362 C259 0.876 . S
C1397 C61 0.875 . S
C1412 C160 0.876 . S
C1447 C193 0.875 . S
C1462 C94 0.875 . S
C1497 C226 0.875 . S
C1512 C127 0.876 . S
C1547 C292 0.876 . S
C1562 C523 0.876 . S
C1597 C325 0.876 . S
C1612 C424 0.875 . S
C1647 C358 0.876 . S
C1662 C457 0.875 . S
C1697 C391 0.875 . S
C1712 C490 0.876 . S
C1747 N476 0.929 . S
C1762 N5 0.939 . S
C1797 N38 0.939 . S
C1812 N509 0.928 . S
C1847 N410 0.928 . S
C1862 N71 0.940 . S
C1897 N443 0.929 . S
C1912 N104 0.939 . S
C1947 N344 0.928 . S
C1962 N137 0.939 . S
C1997 N170 0.940 . S
C2012 N377 0.928 . S
C2047 N278 0.929 . S
C2062 N203 0.939 . S
C2097 N236 0.939 . S
C2112 N311 0.929 . S
C2147 N212 0.928 . S
C2162 N269 0.940 . S
C2197 N245 0.928 . S
C2212 N302 0.939 . S
C2247 N146 0.929 . S
C2262 N335 0.939 . S
C2297 N368 0.939 . S
C2312 N179 0.929 . S
C2347 N80 0.928 . S
C2362 N401 0.939 . S
C2397 N434 0.939 . S
C2412 N113 0.928 . S
C2447 N467 0.939 . S
C2462 N14 0.928 . S
C2497 N47 0.928 . S
C2512 N500 0.939 . S
