# Generated by pormake.
# Topology wlj, (5)-cn, num edge types: 1
# Building blocks:
#     Node 0, Type 0, BuildingBlock: BEQFEK_clean_sbu_0, # of connection points: 5
#     Node 1, Type 0, BuildingBlock: BEQFEK_clean_sbu_0, # of connection points: 5
#     Node 2, Type 0, BuildingBlock: BEQFEK_clean_sbu_0, # of connection points: 5
#     Node 3, Type 0, BuildingBlock: BEQFEK_clean_sbu_0, # of connection points: 5
#     Node 4, Type 0, BuildingBlock: BEQFEK_clean_sbu_0, # of connection points: 5
#     Node 5, Type 0, BuildingBlock: BEQFEK_clean_sbu_0, # of connection points: 5
#     Edge 6, Type (0, 0), BuildingBlock: ZUJKAS_clean_linker_0, # of connection points: 2
#     Edge 7, Type (0, 0), BuildingBlock: ZUJKAS_clean_linker_0, # of connection points: 2
#     Edge 8, Type (0, 0), BuildingBlock: ZUJKAS_clean_linker_0, # of connection points: 2
#     Edge 9, Type (0, 0), BuildingBlock: ZUJKAS_clean_linker_0, # of connection points: 2
#     Edge 10, Type (0, 0), BuildingBlock: ZUJKAS_clean_linker_0, # of connection points: 2
#     Edge 11, Type (0, 0), BuildingBlock: ZUJKAS_clean_linker_0, # of connection points: 2
#     Edge 12, Type (0, 0), BuildingBlock: ZUJKAS_clean_linker_0, # of connection points: 2
#     Edge 13, Type (0, 0), BuildingBlock: ZUJKAS_clean_linker_0, # of connection points: 2
#     Edge 14, Type (0, 0), BuildingBlock: ZUJKAS_clean_linker_0, # of connection points: 2
#     Edge 15, Type (0, 0), BuildingBlock: ZUJKAS_clean_linker_0, # of connection points: 2
#     Edge 16, Type (0, 0), BuildingBlock: ZUJKAS_clean_linker_0, # of connection points: 2
#     Edge 17, Type (0, 0), BuildingBlock: ZUJKAS_clean_linker_0, # of connection points: 2
#     Edge 18, Type (0, 0), BuildingBlock: ZUJKAS_clean_linker_0, # of connection points: 2
#     Edge 19, Type (0, 0), BuildingBlock: ZUJKAS_clean_linker_0, # of connection points: 2
#     Edge 20, Type (0, 0), BuildingBlock: ZUJKAS_clean_linker_0, # of connection points: 2
# Relax obj value: 0.038
# Max RMSD: 0.093
# Mean RMSD: 0.093
data_MOF--net-wlj--node1-BEQFEK_clean_sbu_0--edge1-ZUJKAS_clean_linker_0
_symmetry_space_group_name_H-M    P1
_symmetry_Int_Tables_number       1
_symmetry_cell_setting            triclinic
loop_
_symmetry_equiv_pos_as_xyz
'x, y, z'
_cell_length_a     30.09923
_cell_length_b     30.087684
_cell_length_c     86.475698
_cell_angle_alpha  90.016718
_cell_angle_beta   89.991648
_cell_angle_gamma 119.9271
loop_
_atom_site_label
_atom_site_type_symbol
_atom_site_fract_x
_atom_site_fract_y
_atom_site_fract_z
_atom_type_partial_charge
Co0 Co 0.47734 0.3347 0.22415 0.0
Co1 Co 0.52399 0.28083 0.24421 0.0
C2 C 0.44324 0.22352 0.22003 0.0
O3 O 0.44131 0.2635 0.21643 0.0
O4 O 0.47278 0.22452 0.23075 0.0
C5 C 0.40295 0.35079 0.20801 0.0
O6 O 0.37508 0.30056 0.20863 0.0
C7 C 0.52325 0.21311 0.26896 0.0
C8 C 0.60566 0.23832 0.271 0.0
C9 C 0.55793 0.20412 0.27703 0.0
N10 N 0.54947 0.25119 0.25877 0.0
N11 N 0.59868 0.266 0.26004 0.0
C12 C 0.46601 0.18409 0.27014 0.0
H13 H 0.44845 0.18974 0.25959 0.0
H14 H 0.45382 0.19831 0.28018 0.0
H15 H 0.45197 0.14264 0.27193 0.0
C16 C 0.45998 0.36452 0.25517 0.0
N17 N 0.47432 0.33769 0.24601 0.0
N18 N 0.49615 0.31759 0.25449 0.0
C19 C 0.49791 0.33253 0.26931 0.0
C20 C 0.47469 0.36249 0.27027 0.0
C21 C 0.43343 0.39212 0.2494 0.0
H22 H 0.40279 0.36726 0.24116 0.0
H23 H 0.41613 0.40279 0.259 0.0
H24 H 0.46143 0.42725 0.24314 0.0
O25 O 0.5498 0.36787 0.2173 0.0
O26 O 0.58254 0.32904 0.23121 0.0
H27 H 0.54063 0.35539 0.29077 0.0
H28 H 0.50392 0.28743 0.28741 0.0
C29 C 0.5281 0.32511 0.2818 0.0
H30 H 0.56247 0.326 0.27684 0.0
H31 H 0.62755 0.29497 0.2534 0.0
O32 O 0.44719 0.37308 0.21418 0.0
C33 C 0.58731 0.36162 0.22099 0.0
Co34 Co 0.66841 0.14273 0.89143 0.0
Co35 Co 0.71845 0.24369 0.9111 0.0
C36 C 0.77953 0.22043 0.88824 0.0
O37 O 0.74041 0.17803 0.88451 0.0
O38 O 0.77679 0.24924 0.89856 0.0
C39 C 0.63638 0.07087 0.86718 0.0
O40 O 0.66338 0.11311 0.85915 0.0
C41 C 0.78416 0.31322 0.93554 0.0
C42 C 0.75161 0.3642 0.93856 0.0
C43 C 0.78927 0.35467 0.94416 0.0
N44 N 0.7454 0.29925 0.92546 0.0
N45 N 0.72636 0.3301 0.92725 0.0
C46 C 0.8125 0.28448 0.93742 0.0
H47 H 0.79021 0.24551 0.93235 0.0
H48 H 0.82017 0.28159 0.94983 0.0
H49 H 0.84964 0.30517 0.93121 0.0
C50 C 0.63684 0.09639 0.92246 0.0
N51 N 0.66305 0.13742 0.91323 0.0
N52 N 0.68211 0.17951 0.9216 0.0
C53 C 0.66745 0.16651 0.93645 0.0
C54 C 0.63843 0.11333 0.9375 0.0
C55 C 0.61064 0.04213 0.91681 0.0
H56 H 0.63591 0.03702 0.90855 0.0
H57 H 0.60094 0.01459 0.92649 0.0
H58 H 0.57501 0.03378 0.91061 0.0
O59 O 0.63485 0.18042 0.88352 0.0
O60 O 0.67082 0.2524 0.89724 0.0
H61 H 0.64719 0.1861 0.95844 0.0
H62 H 0.71452 0.21965 0.95384 0.0
C63 C 0.67549 0.20422 0.94896 0.0
H64 H 0.67195 0.23646 0.94418 0.0
H65 H 0.6956 0.32736 0.92091 0.0
O66 O 0.63309 0.07405 0.88174 0.0
C67 C 0.63972 0.2239 0.88681 0.0
Co68 Co 0.85575 0.52171 0.55777 0.0
Co69 Co 0.75483 0.47635 0.57754 0.0
C70 C 0.77901 0.55633 0.55313 0.0
O71 O 0.82094 0.55795 0.54976 0.0
O72 O 0.75003 0.52709 0.56382 0.0
C73 C 0.94841 0.59714 0.54281 0.0
O74 O 0.92874 0.62721 0.54455 0.0
C75 C 0.68347 0.47611 0.60118 0.0
C76 C 0.6345 0.39306 0.60551 0.0
C77 C 0.64233 0.44065 0.60997 0.0
N78 N 0.6996 0.45054 0.59212 0.0
N79 N 0.66994 0.40092 0.59473 0.0
C80 C 0.70565 0.53307 0.60089 0.0
H81 H 0.72717 0.54961 0.59004 0.0
H82 H 0.73258 0.55068 0.6107 0.0
H83 H 0.67477 0.5428 0.60213 0.0
C84 C 0.90198 0.53718 0.58876 0.0
N85 N 0.86133 0.52464 0.57956 0.0
N86 N 0.81931 0.5047 0.58798 0.0
C87 C 0.83201 0.50351 0.60289 0.0
C88 C 0.88484 0.52422 0.60389 0.0
C89 C 0.95486 0.5546 0.58278 0.0
H90 H 0.95309 0.52732 0.57384 0.0
H91 H 0.96996 0.59267 0.57722 0.0
H92 H 0.98147 0.55723 0.59206 0.0
O93 O 0.81714 0.44952 0.55113 0.0
O94 O 0.74479 0.41718 0.5646 0.0
H95 H 0.76551 0.44031 0.61296 0.0
H96 H 0.81249 0.48226 0.627 0.0
C97 C 0.79397 0.48068 0.61578 0.0
H98 H 0.77332 0.50225 0.61702 0.0
H99 H 0.67403 0.37236 0.58919 0.0
O100 O 0.92406 0.55147 0.54791 0.0
C101 C 0.77326 0.41217 0.55466 0.0
Co102 Co 0.33389 0.47771 0.78546 0.0
Co103 Co 0.27903 0.52253 0.76505 0.0
C104 C 0.22238 0.44278 0.78947 0.0
O105 O 0.26259 0.44136 0.79312 0.0
O106 O 0.22299 0.47184 0.77865 0.0
C107 C 0.35012 0.40256 0.80101 0.0
O108 O 0.30026 0.37349 0.79947 0.0
C109 C 0.21017 0.52123 0.74051 0.0
C110 C 0.23925 0.60406 0.73722 0.0
C111 C 0.20268 0.55606 0.73194 0.0
N112 N 0.24968 0.54762 0.75024 0.0
N113 N 0.26678 0.59709 0.74822 0.0
C114 C 0.17866 0.46393 0.74016 0.0
H115 H 0.18389 0.44724 0.75096 0.0
H116 H 0.19101 0.44897 0.73034 0.0
H117 H 0.13752 0.45161 0.73853 0.0
C118 C 0.36504 0.46067 0.75465 0.0
N119 N 0.33733 0.4743 0.76366 0.0
N120 N 0.3157 0.49418 0.75498 0.0
C121 C 0.32979 0.49454 0.74013 0.0
C122 C 0.36127 0.47305 0.73943 0.0
C123 C 0.39589 0.43788 0.76067 0.0
H124 H 0.42807 0.46686 0.76776 0.0
H125 H 0.37145 0.40479 0.76823 0.0
H126 H 0.4113 0.4247 0.75116 0.0
O127 O 0.3664 0.55012 0.79215 0.0
O128 O 0.32728 0.58184 0.77793 0.0
H129 H 0.32342 0.55801 0.7315 0.0
H130 H 0.34644 0.52991 0.71746 0.0
C131 C 0.31958 0.52151 0.72725 0.0
H132 H 0.27996 0.49688 0.72297 0.0
H133 H 0.29725 0.62613 0.75437 0.0
O134 O 0.3722 0.44791 0.79561 0.0
C135 C 0.35985 0.58727 0.78825 0.0
Co136 Co 0.52255 0.85581 0.45228 0.0
Co137 Co 0.47505 0.75715 0.43151 0.0
C138 C 0.55825 0.7792 0.45458 0.0
O139 O 0.56031 0.82082 0.45871 0.0
O140 O 0.52751 0.75098 0.44402 0.0
C141 C 0.59927 0.94976 0.46658 0.0
O142 O 0.63138 0.93415 0.46259 0.0
C143 C 0.47195 0.68692 0.40725 0.0
C144 C 0.38947 0.64469 0.40143 0.0
C145 C 0.43622 0.64928 0.39749 0.0
N146 N 0.44729 0.70367 0.41643 0.0
N147 N 0.39796 0.67792 0.41299 0.0
C148 C 0.52894 0.7099 0.4071 0.0
H149 H 0.54777 0.74916 0.41206 0.0
H150 H 0.54295 0.71115 0.39514 0.0
H151 H 0.53942 0.686 0.4143 0.0
C152 C 0.5363 0.90536 0.42175 0.0
N153 N 0.52309 0.86372 0.43057 0.0
N154 N 0.50301 0.82259 0.42174 0.0
C155 C 0.50281 0.83692 0.40696 0.0
C156 C 0.52392 0.88984 0.40648 0.0
C157 C 0.55933 0.95875 0.42797 0.0
H158 H 0.53193 0.96095 0.43609 0.0
H159 H 0.59458 0.96811 0.43453 0.0
H160 H 0.56933 0.98745 0.41863 0.0
O161 O 0.45146 0.8159 0.45976 0.0
O162 O 0.41723 0.74574 0.44526 0.0
H163 H 0.43866 0.77027 0.39732 0.0
H164 H 0.47491 0.81975 0.38333 0.0
C165 C 0.47773 0.80023 0.39385 0.0
H166 H 0.50031 0.78131 0.39108 0.0
H167 H 0.3702 0.68382 0.41833 0.0
O168 O 0.55225 0.92278 0.46296 0.0
C169 C 0.41355 0.77266 0.45602 0.0
Co170 Co 0.14292 0.66879 0.11813 0.0
Co171 Co 0.24301 0.71983 0.09803 0.0
C172 C 0.22139 0.78071 0.12111 0.0
O173 O 0.1793 0.74125 0.12489 0.0
O174 O 0.24997 0.7785 0.11061 0.0
C175 C 0.07116 0.63808 0.14248 0.0
O176 O 0.11338 0.66396 0.1506 0.0
C177 C 0.31794 0.78779 0.07486 0.0
C178 C 0.35365 0.74219 0.06779 0.0
C179 C 0.35392 0.78759 0.06479 0.0
N180 N 0.29741 0.74443 0.08328 0.0
N181 N 0.31938 0.71768 0.07912 0.0
C182 C 0.29932 0.82551 0.07547 0.0
H183 H 0.26002 0.80728 0.08036 0.0
H184 H 0.29951 0.84069 0.06376 0.0
H185 H 0.32512 0.85801 0.08305 0.0
C186 C 0.09556 0.63421 0.08737 0.0
N187 N 0.13666 0.66245 0.0964 0.0
N188 N 0.17824 0.68416 0.0878 0.0
C189 C 0.16473 0.67071 0.07291 0.0
C190 C 0.11187 0.63846 0.07214 0.0
C191 C 0.04293 0.59927 0.0936 0.0
H192 H 0.04538 0.57661 0.10335 0.0
H193 H 0.02676 0.62269 0.09816 0.0
H194 H 0.01683 0.57253 0.08468 0.0
O195 O 0.18016 0.63495 0.12587 0.0
O196 O 0.25158 0.67164 0.11191 0.0
H197 H 0.22755 0.67184 0.061 0.0
H198 H 0.18204 0.67644 0.04837 0.0
C199 C 0.2018 0.68808 0.05971 0.0
H200 H 0.2255 0.7304 0.0599 0.0
H201 H 0.30996 0.68199 0.08374 0.0
O202 O 0.07446 0.63507 0.12792 0.0
C203 C 0.22361 0.64023 0.12237 0.0
H204 H 0.42939 0.12745 0.22542 0.0
H205 H 0.38711 0.0523 0.20853 0.0
H206 H 0.34987 0.13831 0.17633 0.0
H207 H 0.39044 0.21286 0.1933 0.0
H208 H 0.27143 0.04305 0.17939 0.0
H209 H 0.44984 0.03631 0.16929 0.0
H210 H 0.43275 0.03114 0.18935 0.0
H211 H 0.44964 0.0893 0.17896 0.0
C212 C 0.41185 0.13024 0.2148 0.0
C213 C 0.41375 0.17637 0.21066 0.0
C214 C 0.38805 0.08737 0.20509 0.0
C215 C 0.36648 0.09007 0.19096 0.0
C216 C 0.36658 0.13541 0.18711 0.0
H217 H 0.30311 0.87618 0.11492 0.0
H218 H 0.33595 0.95318 0.13102 0.0
C219 C 0.38984 0.17805 0.19686 0.0
C220 C 0.34446 0.04612 0.18002 0.0
H221 H 0.37284 0.96637 0.15957 0.0
C222 C 0.29365 0.02637 0.17501 0.0
C223 C 0.37379 0.0251 0.17404 0.0
C224 C 0.42967 0.04685 0.17805 0.0
C225 C 0.2711 0.98562 0.16441 0.0
C226 C 0.2997 0.96305 0.15899 0.0
C227 C 0.35077 0.98339 0.1638 0.0
C228 C 0.27729 0.91766 0.1486 0.0
C229 C 0.21721 0.96791 0.15893 0.0
C230 C 0.23326 0.87218 0.15306 0.0
C231 C 0.21408 0.82839 0.14381 0.0
C232 C 0.23909 0.82879 0.13001 0.0
C233 C 0.2829 0.87455 0.12546 0.0
C234 C 0.30177 0.91856 0.13467 0.0
H235 H 0.20745 0.99886 0.16 0.0
H236 H 0.2119 0.95504 0.14669 0.0
H237 H 0.18978 0.93529 0.16619 0.0
H238 H 0.21449 0.87001 0.16395 0.0
H239 H 0.18058 0.79371 0.14777 0.0
H240 H 0.12598 0.42782 0.78401 0.0
H241 H 0.05101 0.38551 0.80095 0.0
H242 H 0.13799 0.35042 0.8334 0.0
H243 H 0.21238 0.39101 0.81638 0.0
H244 H 0.04312 0.27128 0.8305 0.0
H245 H 0.03442 0.44901 0.83994 0.0
H246 H 0.02932 0.43133 0.81993 0.0
H247 H 0.08764 0.44908 0.83034 0.0
C248 C 0.12903 0.41075 0.7947 0.0
C249 C 0.17538 0.41327 0.79889 0.0
C250 C 0.08625 0.38694 0.80443 0.0
C251 C 0.08927 0.36597 0.81865 0.0
C252 C 0.13485 0.36667 0.82256 0.0
H253 H 0.87454 0.30291 0.89441 0.0
H254 H 0.95175 0.33593 0.87842 0.0
C255 C 0.1774 0.38994 0.81278 0.0
C256 C 0.04539 0.34394 0.8296 0.0
H257 H 0.9649 0.37191 0.84978 0.0
C258 C 0.02611 0.29334 0.83476 0.0
C259 C 0.02394 0.37308 0.83543 0.0
C260 C 0.0452 0.42878 0.83126 0.0
C261 C 0.98538 0.27078 0.84536 0.0
C262 C 0.96236 0.29914 0.85062 0.0
C263 C 0.98226 0.35002 0.84567 0.0
C264 C 0.91691 0.27663 0.86098 0.0
C265 C 0.96818 0.21714 0.85101 0.0
C266 C 0.87174 0.23218 0.85657 0.0
C267 C 0.82784 0.2129 0.86576 0.0
C268 C 0.82779 0.23822 0.87945 0.0
C269 C 0.87325 0.28245 0.88395 0.0
C270 C 0.91738 0.30142 0.87481 0.0
H271 H 0.99944 0.20779 0.85007 0.0
H272 H 0.95519 0.21205 0.86323 0.0
H273 H 0.93579 0.18926 0.84376 0.0
H274 H 0.86988 0.21314 0.84576 0.0
H275 H 0.7934 0.17907 0.86183 0.0
H276 H 0.6147 0.82073 0.48079 0.0
H277 H 0.65774 0.78658 0.49657 0.0
H278 H 0.61572 0.66375 0.46383 0.0
H279 H 0.57096 0.69686 0.44812 0.0
H280 H 0.5934 0.62776 0.4925 0.0
H281 H 0.79213 0.7909 0.49184 0.0
H282 H 0.74748 0.80996 0.49828 0.0
H283 H 0.74348 0.78695 0.4788 0.0
C284 C 0.61517 0.78687 0.47677 0.0
C285 C 0.58927 0.76152 0.46316 0.0
C286 C 0.64018 0.76755 0.4858 0.0
C287 C 0.64072 0.72302 0.48129 0.0
C288 C 0.61599 0.6983 0.46751 0.0
H289 H 0.82108 0.60729 0.52612 0.0
H290 H 0.7877 0.64792 0.5089 0.0
C291 C 0.59049 0.71733 0.45853 0.0
C292 C 0.66374 0.70027 0.49154 0.0
H293 H 0.77239 0.72757 0.5115 0.0
C294 C 0.6327 0.64947 0.49654 0.0
C295 C 0.71517 0.72836 0.49671 0.0
C296 C 0.75162 0.78186 0.491 0.0
C297 C 0.65128 0.62628 0.50676 0.0
C298 C 0.7019 0.65521 0.51253 0.0
C299 C 0.73331 0.70568 0.50729 0.0
C300 C 0.72353 0.63316 0.52358 0.0
C301 C 0.61671 0.57068 0.511 0.0
C302 C 0.69947 0.61265 0.53781 0.0
C303 C 0.71816 0.58882 0.54765 0.0
C304 C 0.76184 0.58585 0.54356 0.0
C305 C 0.78729 0.60873 0.52965 0.0
C306 C 0.76825 0.63201 0.51976 0.0
H307 H 0.58577 0.55047 0.50232 0.0
H308 H 0.63869 0.55019 0.512 0.0
H309 H 0.59827 0.56843 0.52231 0.0
H310 H 0.66579 0.61445 0.54122 0.0
H311 H 0.69798 0.57211 0.55835 0.0
H312 H 0.31472 0.64139 0.11863 0.0
H313 H 0.3455 0.59229 0.13317 0.0
H314 H 0.20556 0.52116 0.1597 0.0
H315 H 0.17464 0.57036 0.14542 0.0
H316 H 0.29412 0.55859 0.17776 0.0
H317 H 0.29568 0.43829 0.12924 0.0
H318 H 0.33061 0.50615 0.12566 0.0
H319 H 0.26227 0.47409 0.12818 0.0
C320 C 0.29035 0.61514 0.12751 0.0
C321 C 0.24212 0.60976 0.13082 0.0
C322 C 0.30793 0.58694 0.13575 0.0
C323 C 0.27752 0.55268 0.14737 0.0
C324 C 0.22952 0.54731 0.15073 0.0
H325 H 0.31305 0.31478 0.19206 0.0
H326 H 0.28267 0.36466 0.1778 0.0
C327 C 0.21191 0.57544 0.14253 0.0
C328 C 0.29606 0.5232 0.15632 0.0
H329 H 0.33184 0.43234 0.15297 0.0
C330 C 0.30236 0.53095 0.17236 0.0
C331 C 0.3062 0.48681 0.14924 0.0
C332 C 0.29797 0.47535 0.13216 0.0
C333 C 0.31901 0.50357 0.18152 0.0
C334 C 0.33025 0.46803 0.17439 0.0
C335 C 0.3235 0.45992 0.15837 0.0
C336 C 0.3484 0.43828 0.18337 0.0
C337 C 0.32351 0.51219 0.19877 0.0
C338 C 0.39551 0.46322 0.19118 0.0
C339 C 0.41299 0.43486 0.19936 0.0
C340 C 0.38372 0.381 0.1998 0.0
C341 C 0.33646 0.35619 0.19199 0.0
C342 C 0.31908 0.38459 0.1838 0.0
H343 H 0.30187 0.53102 0.2028 0.0
H344 H 0.30922 0.47537 0.20507 0.0
H345 H 0.36444 0.53741 0.20185 0.0
H346 H 0.41909 0.5046 0.19077 0.0
H347 H 0.44963 0.45515 0.20521 0.0
H348 H 0.42943 0.61183 0.81167 0.0
H349 H 0.47655 0.69347 0.82534 0.0
H350 H 0.40629 0.75799 0.79642 0.0
H351 H 0.35833 0.67626 0.78278 0.0
H352 H 0.54587 0.7902 0.81402 0.0
H353 H 0.37633 0.78777 0.84026 0.0
H354 H 0.37319 0.73171 0.83157 0.0
H355 H 0.37301 0.78047 0.81961 0.0
C356 C 0.42389 0.64331 0.80819 0.0
C357 C 0.38979 0.63733 0.79618 0.0
C358 C 0.45091 0.68995 0.81603 0.0
C359 C 0.44427 0.73145 0.81206 0.0
C360 C 0.41112 0.72605 0.79988 0.0
H361 H 0.63777 0.05107 0.83641 0.0
H362 H 0.59216 0.96811 0.82333 0.0
C363 C 0.38397 0.67938 0.79204 0.0
C364 C 0.47253 0.78052 0.82057 0.0
H365 H 0.45619 0.8648 0.84294 0.0
C366 C 0.52632 0.80649 0.82038 0.0
C367 C 0.44685 0.80123 0.82903 0.0
C368 C 0.38917 0.7737 0.8303 0.0
C369 C 0.55519 0.85321 0.8282 0.0
C370 C 0.52949 0.87475 0.83622 0.0
C371 C 0.47572 0.84833 0.83666 0.0
C372 C 0.5577 0.92483 0.8442 0.0
C373 C 0.6129 0.87878 0.82799 0.0
C374 C 0.55265 0.92805 0.86023 0.0
C375 C 0.57853 0.97544 0.86775 0.0
C376 C 0.60959 0.0205 0.85932 0.0
C377 C 0.61433 0.0171 0.84325 0.0
C378 C 0.58853 0.96969 0.83576 0.0
H379 H 0.62606 0.85143 0.8248 0.0
H380 H 0.62833 0.91011 0.81931 0.0
H381 H 0.62929 0.89576 0.83944 0.0
H382 H 0.52879 0.89382 0.86693 0.0
H383 H 0.57395 0.97676 0.88013 0.0
H384 H 0.00704 0.68982 0.5286 0.0
H385 H 0.08553 0.7177 0.51362 0.0
H386 H 0.07809 0.57319 0.52264 0.0
H387 H 0.99997 0.54512 0.53778 0.0
H388 H 0.17585 0.6589 0.52696 0.0
H389 H 0.09268 0.66496 0.47021 0.0
H390 H 0.0841 0.70128 0.48523 0.0
H391 H 0.0536 0.63271 0.48687 0.0
C392 C 0.02213 0.66399 0.52744 0.0
C393 C 0.99708 0.61512 0.53431 0.0
C394 C 0.06678 0.67986 0.51878 0.0
C395 C 0.087 0.64711 0.51681 0.0
C396 C 0.06281 0.59884 0.52394 0.0
H397 H 0.32258 0.68365 0.45104 0.0
H398 H 0.24291 0.65136 0.46583 0.0
C399 C 0.01817 0.5829 0.53258 0.0
C400 C 0.1338 0.66338 0.50746 0.0
H401 H 0.18298 0.69972 0.4711 0.0
C402 C 0.17742 0.66767 0.51474 0.0
C403 C 0.13537 0.67402 0.49147 0.0
C404 C 0.08884 0.6676 0.48291 0.0
C405 C 0.22308 0.68354 0.50652 0.0
C406 C 0.22519 0.69598 0.49066 0.0
C407 C 0.18124 0.69052 0.48329 0.0
C408 C 0.27306 0.71566 0.48162 0.0
C409 C 0.26857 0.6865 0.51482 0.0
C410 C 0.31593 0.76283 0.48548 0.0
C411 C 0.36134 0.78142 0.47708 0.0
C412 C 0.36474 0.75321 0.4646 0.0
C413 C 0.32136 0.70624 0.46061 0.0
C414 C 0.27582 0.68774 0.46903 0.0
H415 H 0.25702 0.66363 0.52566 0.0
H416 H 0.28908 0.67265 0.50731 0.0
H417 H 0.29573 0.72703 0.51791 0.0
H418 H 0.31421 0.78536 0.495 0.0
H419 H 0.39386 0.81784 0.48045 0.0
H420 H 0.57272 0.17554 0.863 0.0
H421 H 0.52407 0.20632 0.84832 0.0
H422 H 0.58911 0.34373 0.87604 0.0
H423 H 0.63771 0.3132 0.89092 0.0
H424 H 0.48171 0.29635 0.87181 0.0
H425 H 0.58455 0.32335 0.81621 0.0
H426 H 0.55957 0.26083 0.82467 0.0
H427 H 0.60937 0.31592 0.83444 0.0
C428 C 0.57677 0.21233 0.86601 0.0
C429 C 0.60936 0.24201 0.87811 0.0
C430 C 0.54912 0.22996 0.85753 0.0
C431 C 0.55365 0.27761 0.86095 0.0
C432 C 0.58538 0.30696 0.87318 0.0
H433 H 0.45395 0.45151 0.80532 0.0
H434 H 0.50298 0.42104 0.82 0.0
C435 C 0.61314 0.28944 0.88165 0.0
C436 C 0.52474 0.29654 0.8519 0.0
H437 H 0.51024 0.33178 0.81556 0.0
C438 C 0.48796 0.30422 0.85952 0.0
C439 C 0.53351 0.3073 0.83592 0.0
C440 C 0.5742 0.30192 0.82731 0.0
C441 C 0.45902 0.32163 0.85151 0.0
C442 C 0.46673 0.33094 0.83543 0.0
C443 C 0.50412 0.32409 0.82786 0.0
C444 C 0.43688 0.3486 0.8263 0.0
C445 C 0.421 0.33065 0.86034 0.0
C446 C 0.3836 0.3175 0.82476 0.0
C447 C 0.35543 0.33476 0.81638 0.0
C448 C 0.38014 0.38339 0.80935 0.0
C449 C 0.43371 0.41398 0.81065 0.0
C450 C 0.46181 0.39664 0.81902 0.0
H451 H 0.42845 0.33361 0.87299 0.0
H452 H 0.42207 0.36626 0.85635 0.0
H453 H 0.38178 0.29804 0.85831 0.0
H454 H 0.36379 0.27989 0.83006 0.0
H455 H 0.31428 0.31014 0.81553 0.0
H456 H 0.67588 0.32918 0.55432 0.0
H457 H 0.64547 0.2488 0.53997 0.0
H458 H 0.79825 0.30237 0.52271 0.0
H459 H 0.82904 0.38278 0.53685 0.0
H460 H 0.66255 0.24574 0.505 0.0
H461 H 0.74441 0.15329 0.54219 0.0
H462 H 0.73038 0.20129 0.54946 0.0
H463 H 0.78548 0.21992 0.53745 0.0
C464 C 0.7031 0.32371 0.54757 0.0
C465 C 0.75487 0.36243 0.54671 0.0
C466 C 0.68563 0.27787 0.53938 0.0
C467 C 0.71978 0.26979 0.53041 0.0
C468 C 0.7715 0.3079 0.5297 0.0
H469 H 0.69804 0.02229 0.47363 0.0
H470 H 0.72678 0.10086 0.48871 0.0
C471 C 0.78891 0.35385 0.53774 0.0
C472 C 0.70118 0.22243 0.52122 0.0
H473 H 0.70662 0.11214 0.5186 0.0
C474 C 0.67181 0.21626 0.50798 0.0
C475 C 0.71403 0.18466 0.52512 0.0
C476 C 0.74506 0.18963 0.53937 0.0
C477 C 0.65552 0.17344 0.49832 0.0
C478 C 0.66787 0.1352 0.50228 0.0
C479 C 0.69721 0.14146 0.51558 0.0
C480 C 0.6504 0.0882 0.49286 0.0
C481 C 0.62657 0.17037 0.48373 0.0
C482 C 0.59795 0.05486 0.49031 0.0
C483 C 0.58147 0.01029 0.48159 0.0
C484 C 0.61712 0.99774 0.47546 0.0
C485 C 0.66964 0.03091 0.47817 0.0
C486 C 0.68611 0.07576 0.4868 0.0
H487 H 0.63374 0.2088 0.48007 0.0
H488 H 0.63733 0.15323 0.47409 0.0
H489 H 0.58484 0.14596 0.48588 0.0
H490 H 0.56964 0.06297 0.49521 0.0
H491 H 0.5407 0.98532 0.47984 0.0
H492 H 0.977 0.57861 0.12922 0.0
H493 H 0.89372 0.53421 0.14221 0.0
H494 H 0.96761 0.59309 0.18616 0.0
H495 H 0.05096 0.63802 0.1733 0.0
H496 H 0.8628 0.45961 0.1654 0.0
H497 H 0.85305 0.62971 0.18554 0.0
H498 H 0.89747 0.63357 0.17084 0.0
H499 H 0.91089 0.63011 0.19092 0.0
C500 C 0.97553 0.58241 0.14164 0.0
C501 C 0.02061 0.61198 0.15023 0.0
C502 C 0.92793 0.55698 0.14903 0.0
C503 C 0.9245 0.56096 0.1651 0.0
C504 C 0.96936 0.59035 0.1737 0.0
H505 H 0.67614 0.35941 0.22579 0.0
H506 H 0.75745 0.40793 0.21203 0.0
C507 C 0.01699 0.61575 0.16634 0.0
C508 C 0.8742 0.53279 0.17294 0.0
H509 H 0.79072 0.54887 0.19576 0.0
C510 C 0.84688 0.47908 0.17199 0.0
C511 C 0.85336 0.5584 0.18136 0.0
C512 C 0.87991 0.61615 0.18215 0.0
C513 C 0.79963 0.45015 0.17951 0.0
C514 C 0.77968 0.47567 0.18839 0.0
C515 C 0.80645 0.52944 0.18908 0.0
C516 C 0.73081 0.4472 0.19697 0.0
C517 C 0.77119 0.39257 0.17772 0.0
C518 C 0.6894 0.45436 0.19335 0.0
C519 C 0.64292 0.42694 0.20125 0.0
C520 C 0.63711 0.39199 0.21297 0.0
C521 C 0.67912 0.38572 0.21676 0.0
C522 C 0.72557 0.4132 0.20886 0.0
H523 H 0.78482 0.3803 0.16752 0.0
H524 H 0.77759 0.37506 0.18816 0.0
H525 H 0.72933 0.37742 0.17652 0.0
H526 H 0.69284 0.48069 0.18427 0.0
H527 H 0.61146 0.43286 0.19805 0.0
H528 H 0.57207 0.90059 0.37896 0.0
H529 H 0.5753 0.95307 0.35675 0.0
H530 H 0.48154 0.00031 0.38167 0.0
H531 H 0.47932 0.94882 0.40393 0.0
H532 H 0.49852 0.94777 0.3389 0.0
H533 H 0.59945 0.1368 0.36823 0.0
H534 H 0.59456 0.07964 0.37662 0.0
H535 H 0.54167 0.09147 0.3779 0.0
C536 C 0.55251 0.92253 0.37965 0.0
C537 C 0.52604 0.92143 0.39313 0.0
C538 C 0.55427 0.95236 0.36701 0.0
C539 C 0.52948 0.98142 0.36766 0.0
C540 C 0.50215 0.9794 0.38105 0.0
H541 H 0.49081 0.17754 0.30138 0.0
H542 H 0.48027 0.12023 0.32292 0.0
C543 C 0.50072 0.9499 0.39372 0.0
C544 C 0.53135 0.01296 0.35421 0.0
H545 H 0.5656 0.13506 0.34326 0.0
C546 C 0.51338 0.98875 0.33984 0.0
C547 C 0.55076 0.06647 0.35545 0.0
C548 C 0.57317 0.09526 0.37034 0.0
C549 C 0.51381 0.01651 0.32673 0.0
C550 C 0.53292 0.06982 0.32803 0.0
C551 C 0.55062 0.09404 0.34238 0.0
C552 C 0.53669 0.10161 0.31449 0.0
C553 C 0.4934 0.98867 0.31161 0.0
C554 C 0.57196 0.1101 0.30268 0.0
C555 C 0.57797 0.14269 0.29036 0.0
C556 C 0.54845 0.16697 0.28957 0.0
C557 C 0.51286 0.15811 0.30138 0.0
C558 C 0.50719 0.12583 0.31378 0.0
H559 H 0.47051 0.94646 0.31323 0.0
H560 H 0.46917 0.0019 0.30579 0.0
H561 H 0.52602 0.99717 0.30383 0.0
H562 H 0.59566 0.09239 0.30316 0.0
H563 H 0.606 0.14919 0.28149 0.0
H564 H 0.77051 0.40048 0.96834 0.0
H565 H 0.82788 0.44909 0.98957 0.0
H566 H 0.94476 0.4218 0.97079 0.0
H567 H 0.88838 0.37455 0.94921 0.0
H568 H 0.91982 0.4018 0.00507 0.0
H569 H 0.9623 0.59419 0.98444 0.0
H570 H 0.8959 0.54485 0.98463 0.0
H571 H 0.93963 0.53951 0.97169 0.0
C572 C 0.80844 0.4048 0.96868 0.0
C573 C 0.82434 0.38263 0.95718 0.0
C574 C 0.84112 0.4326 0.98083 0.0
C575 C 0.89046 0.43903 0.9817 0.0
C576 C 0.9066 0.4169 0.97034 0.0
H577 H 0.12985 0.57973 0.0519 0.0
H578 H 0.07772 0.53178 0.02961 0.0
C579 C 0.87399 0.3893 0.95809 0.0
C580 C 0.92505 0.46896 0.99451 0.0
H581 H 0.99224 0.58996 0.00937 0.0
C582 C 0.93603 0.44299 0.006 0.0
C583 C 0.94566 0.52254 0.99568 0.0
C584 C 0.93572 0.55221 0.98343 0.0
C585 C 0.96622 0.46912 0.01889 0.0
C586 C 0.98703 0.52288 0.02007 0.0
C587 C 0.9763 0.54881 0.00846 0.0
C588 C 0.0195 0.55292 0.03332 0.0
C589 C 0.97409 0.43862 0.03136 0.0
C590 C 0.00515 0.58226 0.04248 0.0
C591 C 0.03549 0.61053 0.055 0.0
C592 C 0.08071 0.60999 0.05856 0.0
C593 C 0.09536 0.58111 0.0493 0.0
C594 C 0.06525 0.55317 0.03671 0.0
H595 H 0.94427 0.3974 0.03091 0.0
H596 H 0.01192 0.44134 0.02969 0.0
H597 H 0.97347 0.4537 0.04303 0.0
H598 H 0.97018 0.5829 0.04002 0.0
H599 H 0.0236 0.63276 0.06194 0.0
H600 H 0.32308 0.42786 0.7116 0.0
H601 H 0.3713 0.42424 0.68917 0.0
H602 H 0.5128 0.51262 0.71428 0.0
H603 H 0.46453 0.51508 0.73677 0.0
H604 H 0.44362 0.49947 0.67148 0.0
H605 H 0.52715 0.39307 0.70011 0.0
H606 H 0.47626 0.39981 0.70874 0.0
H607 H 0.54169 0.45112 0.71004 0.0
C608 C 0.36446 0.44614 0.71229 0.0
C609 C 0.39021 0.47098 0.72591 0.0
C610 C 0.39195 0.44417 0.69951 0.0
C611 C 0.44561 0.46723 0.70015 0.0
C612 C 0.47137 0.49322 0.71367 0.0
H613 H 0.6793 0.51381 0.63276 0.0
H614 H 0.63099 0.52313 0.65409 0.0
C615 C 0.44386 0.49476 0.72647 0.0
C616 C 0.47469 0.46484 0.68661 0.0
H617 H 0.56074 0.42846 0.67535 0.0
C618 C 0.46901 0.4837 0.67232 0.0
C619 C 0.50774 0.44409 0.68769 0.0
C620 C 0.51325 0.4204 0.70243 0.0
C621 C 0.49602 0.48299 0.65916 0.0
C622 C 0.52951 0.46303 0.66035 0.0
C623 C 0.53527 0.44417 0.67458 0.0
C624 C 0.55789 0.45997 0.64683 0.0
C625 C 0.48912 0.50389 0.64407 0.0
C626 C 0.5326 0.42142 0.63573 0.0
C627 C 0.56006 0.41603 0.62355 0.0
C628 C 0.61313 0.44951 0.62216 0.0
C629 C 0.63824 0.48854 0.63321 0.0
C630 C 0.61081 0.49358 0.64549 0.0
H631 H 0.46637 0.52349 0.64545 0.0
H632 H 0.52706 0.53134 0.63905 0.0
H633 H 0.46911 0.47193 0.6357 0.0
H634 H 0.49183 0.39481 0.6367 0.0
H635 H 0.53988 0.38535 0.61527 0.0
H636 H 0.15333 0.60926 0.72651 0.0
H637 H 0.09538 0.59829 0.70515 0.0
H638 H 0.11032 0.4721 0.68773 0.0
H639 H 0.1691 0.4835 0.70889 0.0
H640 H 0.12607 0.5488 0.66539 0.0
H641 H 0.94522 0.48195 0.69828 0.0
H642 H 0.99943 0.53894 0.70578 0.0
H643 H 0.9996 0.47932 0.70604 0.0
C644 C 0.14379 0.57879 0.71822 0.0
C645 C 0.16487 0.54649 0.71959 0.0
C646 C 0.11049 0.57241 0.70609 0.0
C647 C 0.09791 0.53384 0.69502 0.0
C648 C 0.11904 0.50164 0.69629 0.0
H649 H 0.86897 0.44374 0.6221 0.0
H650 H 0.9206 0.44487 0.64423 0.0
C651 C 0.15215 0.5078 0.7085 0.0
C652 C 0.06494 0.52908 0.68169 0.0
H653 H 0.94519 0.50589 0.67206 0.0
C654 C 0.08643 0.53912 0.66681 0.0
C655 C 0.01318 0.51606 0.6836 0.0
C656 C 0.98769 0.50298 0.69926 0.0
C657 C 0.05781 0.53772 0.65382 0.0
C658 C 0.00658 0.52641 0.6558 0.0
C659 C 0.98467 0.51506 0.67062 0.0
C660 C 0.97508 0.52608 0.6426 0.0
C661 C 0.08247 0.54807 0.63805 0.0
C662 C 0.98831 0.57149 0.63452 0.0
C663 C 0.95861 0.57097 0.62202 0.0
C664 C 0.9152 0.52508 0.61745 0.0
C665 C 0.90187 0.47973 0.62558 0.0
C666 C 0.93139 0.48029 0.63814 0.0
H667 H 0.11749 0.54453 0.63805 0.0
H668 H 0.05522 0.52122 0.62932 0.0
H669 H 0.0936 0.58769 0.63445 0.0
H670 H 0.02151 0.60734 0.63793 0.0
H671 H 0.96949 0.60637 0.6159 0.0
H672 H 0.50205 0.46361 0.27187 0.0
H673 H 0.49802 0.51074 0.29437 0.0
H674 H 0.44137 0.37403 0.32218 0.0
H675 H 0.44309 0.32611 0.29944 0.0
H676 H 0.38756 0.4218 0.32719 0.0
H677 H 0.59467 0.56379 0.33066 0.0
H678 H 0.56825 0.56349 0.31205 0.0
H679 H 0.56978 0.50745 0.31859 0.0
C680 C 0.48819 0.4435 0.28274 0.0
C681 C 0.47247 0.39114 0.28391 0.0
C682 C 0.4867 0.47067 0.29565 0.0
C683 C 0.47036 0.44621 0.31005 0.0
C684 C 0.45448 0.3938 0.31122 0.0
H685 H 0.50245 0.61114 0.39659 0.0
H686 H 0.51149 0.56073 0.37584 0.0
C687 C 0.45561 0.36652 0.29826 0.0
C688 C 0.46795 0.47484 0.32371 0.0
H689 H 0.53867 0.58253 0.34544 0.0
C690 C 0.42072 0.45671 0.33125 0.0
C691 C 0.5114 0.51993 0.3292 0.0
C692 C 0.56399 0.53953 0.32231 0.0
C693 C 0.41535 0.48324 0.34381 0.0
C694 C 0.45811 0.5299 0.34872 0.0
C695 C 0.50575 0.54716 0.34152 0.0
C696 C 0.45386 0.56172 0.36111 0.0
C697 C 0.36397 0.46071 0.35176 0.0
C698 C 0.4193 0.57994 0.35958 0.0
C699 C 0.41415 0.60871 0.37139 0.0
C700 C 0.44419 0.62079 0.38484 0.0
C701 C 0.47962 0.60351 0.38623 0.0
C702 C 0.48451 0.57433 0.37444 0.0
H703 H 0.34076 0.41863 0.34989 0.0
H704 H 0.36847 0.46827 0.36439 0.0
H705 H 0.34226 0.47836 0.3469 0.0
H706 H 0.39619 0.57182 0.34925 0.0
H707 H 0.38674 0.62177 0.36995 0.0
H708 H 0.67616 0.11842 0.96653 0.0
H709 H 0.62969 0.06736 0.98923 0.0
H710 H 0.49206 0.98707 0.96186 0.0
H711 H 0.53787 0.0393 0.93936 0.0
H712 H 0.47421 0.01621 0.99024 0.0
H713 H 0.58768 0.91774 0.99654 0.0
H714 H 0.62526 0.98649 0.99674 0.0
H715 H 0.59109 0.95392 0.97951 0.0
C716 C 0.63595 0.08993 0.96542 0.0
C717 C 0.61069 0.08227 0.95119 0.0
C718 C 0.60958 0.06054 0.97833 0.0
C719 C 0.55763 0.02278 0.97716 0.0
C720 C 0.53221 0.01572 0.96299 0.0
H721 H 0.3778 0.76514 0.03671 0.0
H722 H 0.42726 0.82435 0.01596 0.0
C723 C 0.55849 0.04522 0.95012 0.0
C724 C 0.52945 0.99063 0.99067 0.0
H725 H 0.52654 0.90231 0.01605 0.0
C726 C 0.48566 0.99136 0.99592 0.0
C727 C 0.54417 0.95782 0.99793 0.0
C728 C 0.58932 0.95342 0.99234 0.0
C729 C 0.45608 0.96006 0.00821 0.0
C730 C 0.4713 0.92789 0.01564 0.0
C731 C 0.51519 0.92732 0.01042 0.0
C732 C 0.44089 0.89255 0.02833 0.0
C733 C 0.40796 0.96055 0.01281 0.0
C734 C 0.43252 0.91124 0.04227 0.0
C735 C 0.40399 0.87735 0.05416 0.0
C736 C 0.38357 0.82424 0.05232 0.0
C737 C 0.39285 0.80584 0.03846 0.0
C738 C 0.42108 0.83961 0.02658 0.0
H739 H 0.3951 0.97748 1.00364 0.0
H740 H 0.37631 0.92116 0.01533 0.0
H741 H 0.41558 0.98398 0.02343 0.0
H742 H 0.44864 0.95206 0.04404 0.0
H743 H 0.39902 0.89288 0.06488 0.0
loop_
_geom_bond_atom_site_label_1
_geom_bond_atom_site_label_2
_geom_bond_distance
_geom_bond_site_symmetry_2
_ccdc_geom_bond_type
Co0 O3 1.970 . S
Co0 N17 1.989 . S
Co0 O25 1.967 . S
Co0 O32 1.920 . S
Co1 O4 1.966 . S
Co1 N10 2.022 . S
Co1 N18 1.993 . S
Co1 O26 1.941 . S
C2 O3 1.258 . S
C2 O4 1.263 . S
O3 Co0 1.970 . S
O3 C2 1.258 . S
O4 Co1 1.966 . S
O4 C2 1.263 . S
C5 O6 1.235 . S
C5 O32 1.289 . S
O6 C5 1.235 . S
C7 C9 1.400 . S
C7 N10 1.351 . S
C7 C12 1.501 . S
C8 C9 1.387 . S
C8 N11 1.341 . S
C9 C7 1.400 . S
C9 C8 1.387 . S
N10 Co1 2.022 . S
N10 C7 1.351 . S
N10 N11 1.365 . S
N11 C8 1.341 . S
N11 N10 1.365 . S
N11 H31 0.862 . S
C12 C7 1.501 . S
C12 H13 0.961 . S
C12 H14 0.961 . S
C12 H15 0.960 . S
H13 C12 0.961 . S
H14 C12 0.961 . S
H15 C12 0.960 . S
C16 N17 1.342 . S
C16 C20 1.401 . S
C16 C21 1.499 . S
N17 Co0 1.989 . S
N17 C16 1.342 . S
N17 N18 1.388 . S
N18 Co1 1.993 . S
N18 N17 1.388 . S
N18 C19 1.346 . S
C19 N18 1.346 . S
C19 C20 1.396 . S
C19 C29 1.510 . S
C20 C16 1.401 . S
C20 C19 1.396 . S
C21 C16 1.499 . S
C21 H22 0.959 . S
C21 H23 0.960 . S
C21 H24 0.961 . S
H22 C21 0.959 . S
H23 C21 0.960 . S
H24 C21 0.961 . S
O25 Co0 1.967 . S
O25 C33 1.258 . S
O26 Co1 1.941 . S
O26 C33 1.266 . S
H27 C29 0.959 . S
H28 C29 0.961 . S
C29 C19 1.510 . S
C29 H27 0.959 . S
C29 H28 0.961 . S
C29 H30 0.960 . S
H30 C29 0.960 . S
H31 N11 0.862 . S
O32 Co0 1.920 . S
O32 C5 1.289 . S
C33 O25 1.258 . S
C33 O26 1.266 . S
Co34 O37 1.970 . S
Co34 N51 1.989 . S
Co34 O59 1.967 . S
Co34 O66 1.920 . S
Co35 O38 1.966 . S
Co35 N44 2.022 . S
Co35 N52 1.993 . S
Co35 O60 1.941 . S
C36 O37 1.258 . S
C36 O38 1.263 . S
O37 Co34 1.970 . S
O37 C36 1.258 . S
O38 Co35 1.966 . S
O38 C36 1.263 . S
C39 O40 1.235 . S
C39 O66 1.289 . S
O40 C39 1.235 . S
C41 C43 1.400 . S
C41 N44 1.351 . S
C41 C46 1.501 . S
C42 C43 1.387 . S
C42 N45 1.341 . S
C43 C41 1.400 . S
C43 C42 1.387 . S
N44 Co35 2.022 . S
N44 C41 1.351 . S
N44 N45 1.365 . S
N45 C42 1.341 . S
N45 N44 1.365 . S
N45 H65 0.862 . S
C46 C41 1.501 . S
C46 H47 0.961 . S
C46 H48 0.961 . S
C46 H49 0.960 . S
H47 C46 0.961 . S
H48 C46 0.961 . S
H49 C46 0.960 . S
C50 N51 1.342 . S
C50 C54 1.401 . S
C50 C55 1.499 . S
N51 Co34 1.989 . S
N51 C50 1.342 . S
N51 N52 1.388 . S
N52 Co35 1.993 . S
N52 N51 1.388 . S
N52 C53 1.346 . S
C53 N52 1.346 . S
C53 C54 1.396 . S
C53 C63 1.510 . S
C54 C50 1.401 . S
C54 C53 1.396 . S
C55 C50 1.499 . S
C55 H56 0.959 . S
C55 H57 0.960 1_545 S
C55 H58 0.961 . S
H56 C55 0.959 . S
H57 C55 0.960 1_565 S
H58 C55 0.961 . S
O59 Co34 1.967 . S
O59 C67 1.258 . S
O60 Co35 1.941 . S
O60 C67 1.266 . S
H61 C63 0.959 . S
H62 C63 0.961 . S
C63 C53 1.510 . S
C63 H61 0.959 . S
C63 H62 0.961 . S
C63 H64 0.960 . S
H64 C63 0.960 . S
H65 N45 0.862 . S
O66 Co34 1.920 . S
O66 C39 1.289 . S
C67 O59 1.258 . S
C67 O60 1.266 . S
Co68 O71 1.970 . S
Co68 N85 1.989 . S
Co68 O93 1.967 . S
Co68 O100 1.920 . S
Co69 O72 1.966 . S
Co69 N78 2.022 . S
Co69 N86 1.993 . S
Co69 O94 1.941 . S
C70 O71 1.258 . S
C70 O72 1.263 . S
O71 Co68 1.970 . S
O71 C70 1.258 . S
O72 Co69 1.966 . S
O72 C70 1.263 . S
C73 O74 1.235 . S
C73 O100 1.289 . S
O74 C73 1.235 . S
C75 C77 1.400 . S
C75 N78 1.351 . S
C75 C80 1.501 . S
C76 C77 1.387 . S
C76 N79 1.341 . S
C77 C75 1.400 . S
C77 C76 1.387 . S
N78 Co69 2.022 . S
N78 C75 1.351 . S
N78 N79 1.365 . S
N79 C76 1.341 . S
N79 N78 1.365 . S
N79 H99 0.862 . S
C80 C75 1.501 . S
C80 H81 0.961 . S
C80 H82 0.961 . S
C80 H83 0.960 . S
H81 C80 0.961 . S
H82 C80 0.961 . S
H83 C80 0.960 . S
C84 N85 1.342 . S
C84 C88 1.401 . S
C84 C89 1.499 . S
N85 Co68 1.989 . S
N85 C84 1.342 . S
N85 N86 1.388 . S
N86 Co69 1.993 . S
N86 N85 1.388 . S
N86 C87 1.346 . S
C87 N86 1.346 . S
C87 C88 1.396 . S
C87 C97 1.510 . S
C88 C84 1.401 . S
C88 C87 1.396 . S
C89 C84 1.499 . S
C89 H90 0.959 . S
C89 H91 0.960 1_655 S
C89 H92 0.961 . S
H90 C89 0.959 . S
H91 C89 0.960 1_455 S
H92 C89 0.961 . S
O93 Co68 1.967 . S
O93 C101 1.258 . S
O94 Co69 1.941 . S
O94 C101 1.266 . S
H95 C97 0.959 . S
H96 C97 0.961 . S
C97 C87 1.510 . S
C97 H95 0.959 . S
C97 H96 0.961 . S
C97 H98 0.960 . S
H98 C97 0.960 . S
H99 N79 0.862 . S
O100 Co68 1.920 . S
O100 C73 1.289 . S
C101 O93 1.258 . S
C101 O94 1.266 . S
Co102 O105 1.970 . S
Co102 N119 1.989 . S
Co102 O127 1.967 . S
Co102 O134 1.920 . S
Co103 O106 1.966 . S
Co103 N112 2.022 . S
Co103 N120 1.993 . S
Co103 O128 1.941 . S
C104 O105 1.258 . S
C104 O106 1.263 . S
O105 Co102 1.970 . S
O105 C104 1.258 . S
O106 Co103 1.966 . S
O106 C104 1.263 . S
C107 O108 1.235 . S
C107 O134 1.289 . S
O108 C107 1.235 . S
C109 C111 1.400 . S
C109 N112 1.351 . S
C109 C114 1.501 . S
C110 C111 1.387 . S
C110 N113 1.341 . S
C111 C109 1.400 . S
C111 C110 1.387 . S
N112 Co103 2.022 . S
N112 C109 1.351 . S
N112 N113 1.365 . S
N113 C110 1.341 . S
N113 N112 1.365 . S
N113 H133 0.862 . S
C114 C109 1.501 . S
C114 H115 0.961 . S
C114 H116 0.961 . S
C114 H117 0.960 . S
H115 C114 0.961 . S
H116 C114 0.961 . S
H117 C114 0.960 . S
C118 N119 1.342 . S
C118 C122 1.401 . S
C118 C123 1.499 . S
N119 Co102 1.989 . S
N119 C118 1.342 . S
N119 N120 1.388 . S
N120 Co103 1.993 . S
N120 N119 1.388 . S
N120 C121 1.346 . S
C121 N120 1.346 . S
C121 C122 1.396 . S
C121 C131 1.510 . S
C122 C118 1.401 . S
C122 C121 1.396 . S
C123 C118 1.499 . S
C123 H124 0.959 . S
C123 H125 0.960 . S
C123 H126 0.961 . S
H124 C123 0.959 . S
H125 C123 0.960 . S
H126 C123 0.961 . S
O127 Co102 1.967 . S
O127 C135 1.258 . S
O128 Co103 1.941 . S
O128 C135 1.266 . S
H129 C131 0.959 . S
H130 C131 0.961 . S
C131 C121 1.510 . S
C131 H129 0.959 . S
C131 H130 0.961 . S
C131 H132 0.960 . S
H132 C131 0.960 . S
H133 N113 0.862 . S
O134 Co102 1.920 . S
O134 C107 1.289 . S
C135 O127 1.258 . S
C135 O128 1.266 . S
Co136 O139 1.970 . S
Co136 N153 1.989 . S
Co136 O161 1.967 . S
Co136 O168 1.920 . S
Co137 O140 1.966 . S
Co137 N146 2.022 . S
Co137 N154 1.993 . S
Co137 O162 1.941 . S
C138 O139 1.258 . S
C138 O140 1.263 . S
O139 Co136 1.970 . S
O139 C138 1.258 . S
O140 Co137 1.966 . S
O140 C138 1.263 . S
C141 O142 1.235 . S
C141 O168 1.289 . S
O142 C141 1.235 . S
C143 C145 1.400 . S
C143 N146 1.351 . S
C143 C148 1.501 . S
C144 C145 1.387 . S
C144 N147 1.341 . S
C145 C143 1.400 . S
C145 C144 1.387 . S
N146 Co137 2.022 . S
N146 C143 1.351 . S
N146 N147 1.365 . S
N147 C144 1.341 . S
N147 N146 1.365 . S
N147 H167 0.862 . S
C148 C143 1.501 . S
C148 H149 0.961 . S
C148 H150 0.961 . S
C148 H151 0.960 . S
H149 C148 0.961 . S
H150 C148 0.961 . S
H151 C148 0.960 . S
C152 N153 1.342 . S
C152 C156 1.401 . S
C152 C157 1.499 . S
N153 Co136 1.989 . S
N153 C152 1.342 . S
N153 N154 1.388 . S
N154 Co137 1.993 . S
N154 N153 1.388 . S
N154 C155 1.346 . S
C155 N154 1.346 . S
C155 C156 1.396 . S
C155 C165 1.510 . S
C156 C152 1.401 . S
C156 C155 1.396 . S
C157 C152 1.499 . S
C157 H158 0.959 . S
C157 H159 0.960 1_565 S
C157 H160 0.961 . S
H158 C157 0.959 . S
H159 C157 0.960 1_545 S
H160 C157 0.961 . S
O161 Co136 1.967 . S
O161 C169 1.258 . S
O162 Co137 1.941 . S
O162 C169 1.266 . S
H163 C165 0.959 . S
H164 C165 0.961 . S
C165 C155 1.510 . S
C165 H163 0.959 . S
C165 H164 0.961 . S
C165 H166 0.960 . S
H166 C165 0.960 . S
H167 N147 0.862 . S
O168 Co136 1.920 . S
O168 C141 1.289 . S
C169 O161 1.258 . S
C169 O162 1.266 . S
Co170 O173 1.970 . S
Co170 N187 1.989 . S
Co170 O195 1.967 . S
Co170 O202 1.920 . S
Co171 O174 1.966 . S
Co171 N180 2.022 . S
Co171 N188 1.993 . S
Co171 O196 1.941 . S
C172 O173 1.258 . S
C172 O174 1.263 . S
O173 Co170 1.970 . S
O173 C172 1.258 . S
O174 Co171 1.966 . S
O174 C172 1.263 . S
C175 O176 1.235 . S
C175 O202 1.289 . S
O176 C175 1.235 . S
C177 C179 1.400 . S
C177 N180 1.351 . S
C177 C182 1.501 . S
C178 C179 1.387 . S
C178 N181 1.341 . S
C179 C177 1.400 . S
C179 C178 1.387 . S
N180 Co171 2.022 . S
N180 C177 1.351 . S
N180 N181 1.365 . S
N181 C178 1.341 . S
N181 N180 1.365 . S
N181 H201 0.862 . S
C182 C177 1.501 . S
C182 H183 0.961 . S
C182 H184 0.961 . S
C182 H185 0.960 . S
H183 C182 0.961 . S
H184 C182 0.961 . S
H185 C182 0.960 . S
C186 N187 1.342 . S
C186 C190 1.401 . S
C186 C191 1.499 . S
N187 Co170 1.989 . S
N187 C186 1.342 . S
N187 N188 1.388 . S
N188 Co171 1.993 . S
N188 N187 1.388 . S
N188 C189 1.346 . S
C189 N188 1.346 . S
C189 C190 1.396 . S
C189 C199 1.510 . S
C190 C186 1.401 . S
C190 C189 1.396 . S
C191 C186 1.499 . S
C191 H192 0.959 . S
C191 H193 0.960 1_455 S
C191 H194 0.961 . S
H192 C191 0.959 . S
H193 C191 0.960 1_655 S
H194 C191 0.961 . S
O195 Co170 1.967 . S
O195 C203 1.258 . S
O196 Co171 1.941 . S
O196 C203 1.266 . S
H197 C199 0.959 . S
H198 C199 0.961 . S
C199 C189 1.510 . S
C199 H197 0.959 . S
C199 H198 0.961 . S
C199 H200 0.960 . S
H200 C199 0.960 . S
H201 N181 0.862 . S
O202 Co170 1.920 . S
O202 C175 1.289 . S
C203 O195 1.258 . S
C203 O196 1.266 . S
H204 C212 0.929 . S
H205 C214 0.930 . S
H206 C216 0.930 . S
H207 C219 0.929 . S
H208 C222 0.930 . S
H209 C224 0.960 . S
H210 C224 0.960 . S
H211 C224 0.960 . S
C212 H204 0.929 . S
C212 C213 1.377 . S
C212 C214 1.384 . S
C213 C212 1.377 . S
C213 C219 1.390 . S
C214 H205 0.930 . S
C214 C212 1.384 . S
C214 C215 1.372 . S
C215 C214 1.372 . S
C215 C216 1.400 . S
C215 C220 1.490 . S
C216 H206 0.930 . S
C216 C215 1.400 . S
C216 C219 1.386 . S
H217 C233 0.930 . S
H218 C234 0.931 . S
C219 H207 0.929 . S
C219 C213 1.390 . S
C219 C216 1.386 . S
C220 C215 1.490 . S
C220 C222 1.395 . S
C220 C223 1.403 . S
H221 C227 0.930 . S
C222 H208 0.930 . S
C222 C220 1.395 . S
C222 C225 1.403 1_545 S
C223 C220 1.403 . S
C223 C224 1.524 . S
C223 C227 1.400 1_545 S
C224 H209 0.960 . S
C224 H210 0.960 . S
C224 H211 0.960 . S
C224 C223 1.524 . S
C225 C222 1.403 1_565 S
C225 C226 1.392 . S
C225 C229 1.495 . S
C226 C225 1.392 . S
C226 C227 1.385 . S
C226 C228 1.478 . S
C227 H221 0.930 . S
C227 C223 1.400 1_565 S
C227 C226 1.385 . S
C228 C226 1.478 . S
C228 C230 1.381 . S
C228 C234 1.383 . S
C229 C225 1.495 . S
C229 H235 0.959 . S
C229 H236 0.961 . S
C229 H237 0.960 . S
C230 C228 1.381 . S
C230 C231 1.394 . S
C230 H238 0.930 . S
C231 C230 1.394 . S
C231 C232 1.383 . S
C231 H239 0.929 . S
C232 C231 1.383 . S
C232 C233 1.377 . S
C233 H217 0.930 . S
C233 C232 1.377 . S
C233 C234 1.379 . S
C234 H218 0.931 . S
C234 C228 1.383 . S
C234 C233 1.379 . S
H235 C229 0.959 . S
H236 C229 0.961 . S
H237 C229 0.960 . S
H238 C230 0.930 . S
H239 C231 0.929 . S
H240 C248 0.929 . S
H241 C250 0.930 . S
H242 C252 0.930 . S
H243 C255 0.929 . S
H244 C258 0.925 1_455 S
H245 C260 0.960 . S
H246 C260 0.960 . S
H247 C260 0.960 . S
C248 H240 0.929 . S
C248 C249 1.377 . S
C248 C250 1.384 . S
C249 C248 1.377 . S
C249 C255 1.390 . S
C250 H241 0.930 . S
C250 C248 1.384 . S
C250 C251 1.372 . S
C251 C250 1.372 . S
C251 C252 1.400 . S
C251 C256 1.490 . S
C252 H242 0.930 . S
C252 C251 1.400 . S
C252 C255 1.386 . S
H253 C269 0.930 . S
H254 C270 0.931 . S
C255 H243 0.929 . S
C255 C249 1.390 . S
C255 C252 1.386 . S
C256 C251 1.490 . S
C256 C258 1.389 1_455 S
C256 C259 1.403 . S
H257 C263 0.930 . S
C258 H244 0.925 1_655 S
C258 C256 1.389 1_655 S
C258 C261 1.415 . S
C259 C256 1.403 . S
C259 C260 1.524 . S
C259 C263 1.400 1_455 S
C260 H245 0.960 . S
C260 H246 0.960 . S
C260 H247 0.960 . S
C260 C259 1.524 . S
C261 C258 1.415 . S
C261 C262 1.392 . S
C261 C265 1.495 . S
C262 C261 1.392 . S
C262 C263 1.385 . S
C262 C264 1.478 . S
C263 H257 0.930 . S
C263 C259 1.400 1_655 S
C263 C262 1.385 . S
C264 C262 1.478 . S
C264 C266 1.381 . S
C264 C270 1.383 . S
C265 C261 1.495 . S
C265 H271 0.959 . S
C265 H272 0.961 . S
C265 H273 0.960 . S
C266 C264 1.381 . S
C266 C267 1.394 . S
C266 H274 0.930 . S
C267 C266 1.394 . S
C267 C268 1.383 . S
C267 H275 0.929 . S
C268 C267 1.383 . S
C268 C269 1.377 . S
C269 H253 0.930 . S
C269 C268 1.377 . S
C269 C270 1.379 . S
C270 H254 0.931 . S
C270 C264 1.383 . S
C270 C269 1.379 . S
H271 C265 0.959 . S
H272 C265 0.961 . S
H273 C265 0.960 . S
H274 C266 0.930 . S
H275 C267 0.929 . S
H276 C284 0.929 . S
H277 C286 0.930 . S
H278 C288 0.930 . S
H279 C291 0.929 . S
H280 C294 0.930 . S
H281 C296 0.960 . S
H282 C296 0.960 . S
H283 C296 0.960 . S
C284 H276 0.929 . S
C284 C285 1.377 . S
C284 C286 1.384 . S
C285 C284 1.377 . S
C285 C291 1.390 . S
C286 H277 0.930 . S
C286 C284 1.384 . S
C286 C287 1.372 . S
C287 C286 1.372 . S
C287 C288 1.400 . S
C287 C292 1.490 . S
C288 H278 0.930 . S
C288 C287 1.400 . S
C288 C291 1.386 . S
H289 C305 0.930 . S
H290 C306 0.931 . S
C291 H279 0.929 . S
C291 C285 1.390 . S
C291 C288 1.386 . S
C292 C287 1.490 . S
C292 C294 1.395 . S
C292 C295 1.403 . S
H293 C299 0.930 . S
C294 H280 0.930 . S
C294 C292 1.395 . S
C294 C297 1.403 . S
C295 C292 1.403 . S
C295 C296 1.524 . S
C295 C299 1.400 . S
C296 H281 0.960 . S
C296 H282 0.960 . S
C296 H283 0.960 . S
C296 C295 1.524 . S
C297 C294 1.403 . S
C297 C298 1.392 . S
C297 C301 1.495 . S
C298 C297 1.392 . S
C298 C299 1.385 . S
C298 C300 1.478 . S
C299 H293 0.930 . S
C299 C295 1.400 . S
C299 C298 1.385 . S
C300 C298 1.478 . S
C300 C302 1.381 . S
C300 C306 1.383 . S
C301 C297 1.495 . S
C301 H307 0.959 . S
C301 H308 0.961 . S
C301 H309 0.960 . S
C302 C300 1.381 . S
C302 C303 1.394 . S
C302 H310 0.930 . S
C303 C302 1.394 . S
C303 C304 1.383 . S
C303 H311 0.929 . S
C304 C303 1.383 . S
C304 C305 1.377 . S
C305 H289 0.930 . S
C305 C304 1.377 . S
C305 C306 1.379 . S
C306 H290 0.931 . S
C306 C300 1.383 . S
C306 C305 1.379 . S
H307 C301 0.959 . S
H308 C301 0.961 . S
H309 C301 0.960 . S
H310 C302 0.930 . S
H311 C303 0.929 . S
H312 C320 0.929 . S
H313 C322 0.930 . S
H314 C324 0.930 . S
H315 C327 0.929 . S
H316 C330 0.930 . S
H317 C332 0.960 . S
H318 C332 0.960 . S
H319 C332 0.960 . S
C320 H312 0.929 . S
C320 C321 1.377 . S
C320 C322 1.384 . S
C321 C320 1.377 . S
C321 C327 1.390 . S
C322 H313 0.930 . S
C322 C320 1.384 . S
C322 C323 1.372 . S
C323 C322 1.372 . S
C323 C324 1.400 . S
C323 C328 1.490 . S
C324 H314 0.930 . S
C324 C323 1.400 . S
C324 C327 1.386 . S
H325 C341 0.930 . S
H326 C342 0.931 . S
C327 H315 0.929 . S
C327 C321 1.390 . S
C327 C324 1.386 . S
C328 C323 1.490 . S
C328 C330 1.395 . S
C328 C331 1.403 . S
H329 C335 0.930 . S
C330 H316 0.930 . S
C330 C328 1.395 . S
C330 C333 1.403 . S
C331 C328 1.403 . S
C331 C332 1.524 . S
C331 C335 1.400 . S
C332 H317 0.960 . S
C332 H318 0.960 . S
C332 H319 0.960 . S
C332 C331 1.524 . S
C333 C330 1.403 . S
C333 C334 1.392 . S
C333 C337 1.495 . S
C334 C333 1.392 . S
C334 C335 1.385 . S
C334 C336 1.478 . S
C335 H329 0.930 . S
C335 C331 1.400 . S
C335 C334 1.385 . S
C336 C334 1.478 . S
C336 C338 1.381 . S
C336 C342 1.383 . S
C337 C333 1.495 . S
C337 H343 0.959 . S
C337 H344 0.961 . S
C337 H345 0.960 . S
C338 C336 1.381 . S
C338 C339 1.394 . S
C338 H346 0.930 . S
C339 C338 1.394 . S
C339 C340 1.383 . S
C339 H347 0.929 . S
C340 C339 1.383 . S
C340 C341 1.377 . S
C341 H325 0.930 . S
C341 C340 1.377 . S
C341 C342 1.379 . S
C342 H326 0.931 . S
C342 C336 1.383 . S
C342 C341 1.379 . S
H343 C337 0.959 . S
H344 C337 0.961 . S
H345 C337 0.960 . S
H346 C338 0.930 . S
H347 C339 0.929 . S
H348 C356 0.929 . S
H349 C358 0.930 . S
H350 C360 0.930 . S
H351 C363 0.929 . S
H352 C366 0.930 . S
H353 C368 0.960 . S
H354 C368 0.960 . S
H355 C368 0.960 . S
C356 H348 0.929 . S
C356 C357 1.377 . S
C356 C358 1.384 . S
C357 C356 1.377 . S
C357 C363 1.390 . S
C358 H349 0.930 . S
C358 C356 1.384 . S
C358 C359 1.372 . S
C359 C358 1.372 . S
C359 C360 1.400 . S
C359 C364 1.490 . S
C360 H350 0.930 . S
C360 C359 1.400 . S
C360 C363 1.386 . S
H361 C377 0.930 1_545 S
H362 C378 0.931 . S
C363 H351 0.929 . S
C363 C357 1.390 . S
C363 C360 1.386 . S
C364 C359 1.490 . S
C364 C366 1.395 . S
C364 C367 1.403 . S
H365 C371 0.930 . S
C366 H352 0.930 . S
C366 C364 1.395 . S
C366 C369 1.403 . S
C367 C364 1.403 . S
C367 C368 1.524 . S
C367 C371 1.400 . S
C368 H353 0.960 . S
C368 H354 0.960 . S
C368 H355 0.960 . S
C368 C367 1.524 . S
C369 C366 1.403 . S
C369 C370 1.392 . S
C369 C373 1.495 . S
C370 C369 1.392 . S
C370 C371 1.385 . S
C370 C372 1.478 . S
C371 H365 0.930 . S
C371 C367 1.400 . S
C371 C370 1.385 . S
C372 C370 1.478 . S
C372 C374 1.381 . S
C372 C378 1.383 . S
C373 C369 1.495 . S
C373 H379 0.959 . S
C373 H380 0.961 . S
C373 H381 0.960 . S
C374 C372 1.381 . S
C374 C375 1.394 . S
C374 H382 0.930 . S
C375 C374 1.394 . S
C375 C376 1.383 . S
C375 H383 0.929 . S
C376 C375 1.383 . S
C376 C377 1.377 . S
C377 H361 0.930 1_565 S
C377 C376 1.377 . S
C377 C378 1.379 . S
C378 H362 0.931 . S
C378 C372 1.383 . S
C378 C377 1.379 . S
H379 C373 0.959 . S
H380 C373 0.961 . S
H381 C373 0.960 . S
H382 C374 0.930 . S
H383 C375 0.929 . S
H384 C392 0.929 . S
H385 C394 0.930 . S
H386 C396 0.930 . S
H387 C399 0.929 1_655 S
H388 C402 0.930 . S
H389 C404 0.960 . S
H390 C404 0.960 . S
H391 C404 0.960 . S
C392 H384 0.929 . S
C392 C393 1.377 . S
C392 C394 1.384 . S
C393 C392 1.377 . S
C393 C399 1.390 . S
C394 H385 0.930 . S
C394 C392 1.384 . S
C394 C395 1.372 . S
C395 C394 1.372 . S
C395 C396 1.400 . S
C395 C400 1.490 . S
C396 H386 0.930 . S
C396 C395 1.400 . S
C396 C399 1.386 . S
H397 C413 0.930 . S
H398 C414 0.931 . S
C399 H387 0.929 1_455 S
C399 C393 1.390 . S
C399 C396 1.386 . S
C400 C395 1.490 . S
C400 C402 1.395 . S
C400 C403 1.403 . S
H401 C407 0.930 . S
C402 H388 0.930 . S
C402 C400 1.395 . S
C402 C405 1.403 . S
C403 C400 1.403 . S
C403 C404 1.524 . S
C403 C407 1.400 . S
C404 H389 0.960 . S
C404 H390 0.960 . S
C404 H391 0.960 . S
C404 C403 1.524 . S
C405 C402 1.403 . S
C405 C406 1.392 . S
C405 C409 1.495 . S
C406 C405 1.392 . S
C406 C407 1.385 . S
C406 C408 1.478 . S
C407 H401 0.930 . S
C407 C403 1.400 . S
C407 C406 1.385 . S
C408 C406 1.478 . S
C408 C410 1.381 . S
C408 C414 1.383 . S
C409 C405 1.495 . S
C409 H415 0.959 . S
C409 H416 0.961 . S
C409 H417 0.960 . S
C410 C408 1.381 . S
C410 C411 1.394 . S
C410 H418 0.930 . S
C411 C410 1.394 . S
C411 C412 1.383 . S
C411 H419 0.929 . S
C412 C411 1.383 . S
C412 C413 1.377 . S
C413 H397 0.930 . S
C413 C412 1.377 . S
C413 C414 1.379 . S
C414 H398 0.931 . S
C414 C408 1.383 . S
C414 C413 1.379 . S
H415 C409 0.959 . S
H416 C409 0.961 . S
H417 C409 0.960 . S
H418 C410 0.930 . S
H419 C411 0.929 . S
H420 C428 0.929 . S
H421 C430 0.930 . S
H422 C432 0.930 . S
H423 C435 0.929 . S
H424 C438 0.930 . S
H425 C440 0.960 . S
H426 C440 0.960 . S
H427 C440 0.960 . S
C428 H420 0.929 . S
C428 C429 1.377 . S
C428 C430 1.384 . S
C429 C428 1.377 . S
C429 C435 1.390 . S
C430 H421 0.930 . S
C430 C428 1.384 . S
C430 C431 1.372 . S
C431 C430 1.372 . S
C431 C432 1.400 . S
C431 C436 1.490 . S
C432 H422 0.930 . S
C432 C431 1.400 . S
C432 C435 1.386 . S
H433 C449 0.930 . S
H434 C450 0.931 . S
C435 H423 0.929 . S
C435 C429 1.390 . S
C435 C432 1.386 . S
C436 C431 1.490 . S
C436 C438 1.395 . S
C436 C439 1.403 . S
H437 C443 0.930 . S
C438 H424 0.930 . S
C438 C436 1.395 . S
C438 C441 1.403 . S
C439 C436 1.403 . S
C439 C440 1.524 . S
C439 C443 1.400 . S
C440 H425 0.960 . S
C440 H426 0.960 . S
C440 H427 0.960 . S
C440 C439 1.524 . S
C441 C438 1.403 . S
C441 C442 1.392 . S
C441 C445 1.495 . S
C442 C441 1.392 . S
C442 C443 1.385 . S
C442 C444 1.478 . S
C443 H437 0.930 . S
C443 C439 1.400 . S
C443 C442 1.385 . S
C444 C442 1.478 . S
C444 C446 1.381 . S
C444 C450 1.383 . S
C445 C441 1.495 . S
C445 H451 0.959 . S
C445 H452 0.961 . S
C445 H453 0.960 . S
C446 C444 1.381 . S
C446 C447 1.394 . S
C446 H454 0.930 . S
C447 C446 1.394 . S
C447 C448 1.383 . S
C447 H455 0.929 . S
C448 C447 1.383 . S
C448 C449 1.377 . S
C449 H433 0.930 . S
C449 C448 1.377 . S
C449 C450 1.379 . S
C450 H434 0.931 . S
C450 C444 1.383 . S
C450 C449 1.379 . S
H451 C445 0.959 . S
H452 C445 0.961 . S
H453 C445 0.960 . S
H454 C446 0.930 . S
H455 C447 0.929 . S
H456 C464 0.929 . S
H457 C466 0.930 . S
H458 C468 0.930 . S
H459 C471 0.929 . S
H460 C474 0.930 . S
H461 C476 0.960 . S
H462 C476 0.960 . S
H463 C476 0.960 . S
C464 H456 0.929 . S
C464 C465 1.377 . S
C464 C466 1.384 . S
C465 C464 1.377 . S
C465 C471 1.390 . S
C466 H457 0.930 . S
C466 C464 1.384 . S
C466 C467 1.372 . S
C467 C466 1.372 . S
C467 C468 1.400 . S
C467 C472 1.490 . S
C468 H458 0.930 . S
C468 C467 1.400 . S
C468 C471 1.386 . S
H469 C485 0.930 . S
H470 C486 0.931 . S
C471 H459 0.929 . S
C471 C465 1.390 . S
C471 C468 1.386 . S
C472 C467 1.490 . S
C472 C474 1.395 . S
C472 C475 1.403 . S
H473 C479 0.930 . S
C474 H460 0.930 . S
C474 C472 1.395 . S
C474 C477 1.403 . S
C475 C472 1.403 . S
C475 C476 1.524 . S
C475 C479 1.400 . S
C476 H461 0.960 . S
C476 H462 0.960 . S
C476 H463 0.960 . S
C476 C475 1.524 . S
C477 C474 1.403 . S
C477 C478 1.392 . S
C477 C481 1.495 . S
C478 C477 1.392 . S
C478 C479 1.385 . S
C478 C480 1.478 . S
C479 H473 0.930 . S
C479 C475 1.400 . S
C479 C478 1.385 . S
C480 C478 1.478 . S
C480 C482 1.381 . S
C480 C486 1.383 . S
C481 C477 1.495 . S
C481 H487 0.959 . S
C481 H488 0.961 . S
C481 H489 0.960 . S
C482 C480 1.381 . S
C482 C483 1.394 . S
C482 H490 0.930 . S
C483 C482 1.394 . S
C483 C484 1.383 . S
C483 H491 0.929 . S
C484 C483 1.383 . S
C484 C485 1.377 . S
C485 H469 0.930 . S
C485 C484 1.377 . S
C485 C486 1.379 . S
C486 H470 0.931 . S
C486 C480 1.383 . S
C486 C485 1.379 . S
H487 C481 0.959 . S
H488 C481 0.961 . S
H489 C481 0.960 . S
H490 C482 0.930 . S
H491 C483 0.929 . S
H492 C500 0.929 . S
H493 C502 0.930 . S
H494 C504 0.930 . S
H495 C507 0.929 1_455 S
H496 C510 0.930 . S
H497 C512 0.960 . S
H498 C512 0.960 . S
H499 C512 0.960 . S
C500 H492 0.929 . S
C500 C501 1.377 . S
C500 C502 1.384 . S
C501 C500 1.377 . S
C501 C507 1.390 . S
C502 H493 0.930 . S
C502 C500 1.384 . S
C502 C503 1.372 . S
C503 C502 1.372 . S
C503 C504 1.400 . S
C503 C508 1.490 . S
C504 H494 0.930 . S
C504 C503 1.400 . S
C504 C507 1.386 . S
H505 C521 0.930 . S
H506 C522 0.931 . S
C507 H495 0.929 1_655 S
C507 C501 1.390 . S
C507 C504 1.386 . S
C508 C503 1.490 . S
C508 C510 1.395 . S
C508 C511 1.403 . S
H509 C515 0.930 . S
C510 H496 0.930 . S
C510 C508 1.395 . S
C510 C513 1.403 . S
C511 C508 1.403 . S
C511 C512 1.524 . S
C511 C515 1.400 . S
C512 H497 0.960 . S
C512 H498 0.960 . S
C512 H499 0.960 . S
C512 C511 1.524 . S
C513 C510 1.403 . S
C513 C514 1.392 . S
C513 C517 1.495 . S
C514 C513 1.392 . S
C514 C515 1.385 . S
C514 C516 1.478 . S
C515 H509 0.930 . S
C515 C511 1.400 . S
C515 C514 1.385 . S
C516 C514 1.478 . S
C516 C518 1.381 . S
C516 C522 1.383 . S
C517 C513 1.495 . S
C517 H523 0.959 . S
C517 H524 0.961 . S
C517 H525 0.960 . S
C518 C516 1.381 . S
C518 C519 1.394 . S
C518 H526 0.930 . S
C519 C518 1.394 . S
C519 C520 1.383 . S
C519 H527 0.929 . S
C520 C519 1.383 . S
C520 C521 1.377 . S
C521 H505 0.930 . S
C521 C520 1.377 . S
C521 C522 1.379 . S
C522 H506 0.931 . S
C522 C516 1.383 . S
C522 C521 1.379 . S
H523 C517 0.959 . S
H524 C517 0.961 . S
H525 C517 0.960 . S
H526 C518 0.930 . S
H527 C519 0.929 . S
H528 C536 0.929 . S
H529 C538 0.930 . S
H530 C540 0.930 . S
H531 C543 0.929 . S
H532 C546 0.930 1_565 S
H533 C548 0.960 . S
H534 C548 0.960 . S
H535 C548 0.960 . S
C536 H528 0.929 . S
C536 C537 1.377 . S
C536 C538 1.384 . S
C537 C536 1.377 . S
C537 C543 1.390 . S
C538 H529 0.930 . S
C538 C536 1.384 . S
C538 C539 1.382 . S
C539 C538 1.382 . S
C539 C540 1.398 . S
C539 C544 1.482 1_565 S
C540 H530 0.930 . S
C540 C539 1.398 . S
C540 C543 1.386 . S
H541 C557 0.930 . S
H542 C558 0.931 . S
C543 H531 0.929 . S
C543 C537 1.390 . S
C543 C540 1.386 . S
C544 C539 1.482 1_545 S
C544 C546 1.395 . S
C544 C547 1.403 . S
H545 C551 0.930 . S
C546 H532 0.930 1_545 S
C546 C544 1.395 . S
C546 C549 1.403 . S
C547 C544 1.403 . S
C547 C548 1.524 . S
C547 C551 1.400 . S
C548 H533 0.960 . S
C548 H534 0.960 . S
C548 H535 0.960 . S
C548 C547 1.524 . S
C549 C546 1.403 . S
C549 C550 1.392 . S
C549 C553 1.495 . S
C550 C549 1.392 . S
C550 C551 1.385 . S
C550 C552 1.478 . S
C551 H545 0.930 . S
C551 C547 1.400 . S
C551 C550 1.385 . S
C552 C550 1.478 . S
C552 C554 1.381 . S
C552 C558 1.383 . S
C553 C549 1.495 . S
C553 H559 0.959 1_545 S
C553 H560 0.957 . S
C553 H561 0.960 . S
C554 C552 1.381 . S
C554 C555 1.394 . S
C554 H562 0.930 . S
C555 C554 1.394 . S
C555 C556 1.383 . S
C555 H563 0.929 . S
C556 C555 1.383 . S
C556 C557 1.377 . S
C557 H541 0.930 . S
C557 C556 1.377 . S
C557 C558 1.379 . S
C558 H542 0.931 . S
C558 C552 1.383 . S
C558 C557 1.379 . S
H559 C553 0.959 1_565 S
H560 C553 0.957 . S
H561 C553 0.960 . S
H562 C554 0.930 . S
H563 C555 0.929 . S
H564 C572 0.929 . S
H565 C574 0.930 . S
H566 C576 0.930 . S
H567 C579 0.929 . S
H568 C582 0.930 . S
H569 C584 0.960 . S
H570 C584 0.960 . S
H571 C584 0.960 . S
C572 H564 0.929 . S
C572 C573 1.377 . S
C572 C574 1.384 . S
C573 C572 1.377 . S
C573 C579 1.390 . S
C574 H565 0.930 . S
C574 C572 1.384 . S
C574 C575 1.372 . S
C575 C574 1.372 . S
C575 C576 1.400 . S
C575 C580 1.490 . S
C576 H566 0.930 . S
C576 C575 1.400 . S
C576 C579 1.386 . S
H577 C593 0.930 . S
H578 C594 0.931 . S
C579 H567 0.929 . S
C579 C573 1.390 . S
C579 C576 1.386 . S
C580 C575 1.490 . S
C580 C582 1.395 1_556 S
C580 C583 1.403 . S
H581 C587 0.930 . S
C582 H568 0.930 . S
C582 C580 1.395 1_554 S
C582 C585 1.403 . S
C583 C580 1.403 . S
C583 C584 1.524 . S
C583 C587 1.400 1_556 S
C584 H569 0.960 . S
C584 H570 0.960 . S
C584 H571 0.960 . S
C584 C583 1.524 . S
C585 C582 1.403 . S
C585 C586 1.392 . S
C585 C589 1.495 . S
C586 C585 1.392 . S
C586 C587 1.385 . S
C586 C588 1.478 1_655 S
C587 H581 0.930 . S
C587 C583 1.400 1_554 S
C587 C586 1.385 . S
C588 C586 1.478 1_455 S
C588 C590 1.381 1_455 S
C588 C594 1.383 . S
C589 C585 1.495 . S
C589 H595 0.959 . S
C589 H596 0.961 1_655 S
C589 H597 0.960 . S
C590 C588 1.381 1_655 S
C590 C591 1.394 1_655 S
C590 H598 0.930 . S
C591 C590 1.394 1_455 S
C591 C592 1.383 . S
C591 H599 0.929 1_455 S
C592 C591 1.383 . S
C592 C593 1.377 . S
C593 H577 0.930 . S
C593 C592 1.377 . S
C593 C594 1.379 . S
C594 H578 0.931 . S
C594 C588 1.383 . S
C594 C593 1.379 . S
H595 C589 0.959 . S
H596 C589 0.961 1_455 S
H597 C589 0.960 . S
H598 C590 0.930 . S
H599 C591 0.929 1_655 S
H600 C608 0.929 . S
H601 C610 0.930 . S
H602 C612 0.930 . S
H603 C615 0.929 . S
H604 C618 0.930 . S
H605 C620 0.960 . S
H606 C620 0.960 . S
H607 C620 0.960 . S
C608 H600 0.929 . S
C608 C609 1.377 . S
C608 C610 1.384 . S
C609 C608 1.377 . S
C609 C615 1.390 . S
C610 H601 0.930 . S
C610 C608 1.384 . S
C610 C611 1.372 . S
C611 C610 1.372 . S
C611 C612 1.400 . S
C611 C616 1.490 . S
C612 H602 0.930 . S
C612 C611 1.400 . S
C612 C615 1.386 . S
H613 C629 0.930 . S
H614 C630 0.931 . S
C615 H603 0.929 . S
C615 C609 1.390 . S
C615 C612 1.386 . S
C616 C611 1.490 . S
C616 C618 1.395 . S
C616 C619 1.403 . S
H617 C623 0.930 . S
C618 H604 0.930 . S
C618 C616 1.395 . S
C618 C621 1.403 . S
C619 C616 1.403 . S
C619 C620 1.524 . S
C619 C623 1.400 . S
C620 H605 0.960 . S
C620 H606 0.960 . S
C620 H607 0.960 . S
C620 C619 1.524 . S
C621 C618 1.403 . S
C621 C622 1.392 . S
C621 C625 1.495 . S
C622 C621 1.392 . S
C622 C623 1.385 . S
C622 C624 1.478 . S
C623 H617 0.930 . S
C623 C619 1.400 . S
C623 C622 1.385 . S
C624 C622 1.478 . S
C624 C626 1.381 . S
C624 C630 1.383 . S
C625 C621 1.495 . S
C625 H631 0.959 . S
C625 H632 0.961 . S
C625 H633 0.960 . S
C626 C624 1.381 . S
C626 C627 1.394 . S
C626 H634 0.930 . S
C627 C626 1.394 . S
C627 C628 1.383 . S
C627 H635 0.929 . S
C628 C627 1.383 . S
C628 C629 1.377 . S
C629 H613 0.930 . S
C629 C628 1.377 . S
C629 C630 1.379 . S
C630 H614 0.931 . S
C630 C624 1.383 . S
C630 C629 1.379 . S
H631 C625 0.959 . S
H632 C625 0.961 . S
H633 C625 0.960 . S
H634 C626 0.930 . S
H635 C627 0.929 . S
H636 C644 0.929 . S
H637 C646 0.930 . S
H638 C648 0.930 . S
H639 C651 0.929 . S
H640 C654 0.930 . S
H641 C656 0.960 1_655 S
H642 C656 0.960 . S
H643 C656 0.960 . S
C644 H636 0.929 . S
C644 C645 1.377 . S
C644 C646 1.384 . S
C645 C644 1.377 . S
C645 C651 1.390 . S
C646 H637 0.930 . S
C646 C644 1.384 . S
C646 C647 1.372 . S
C647 C646 1.372 . S
C647 C648 1.400 . S
C647 C652 1.490 . S
C648 H638 0.930 . S
C648 C647 1.400 . S
C648 C651 1.386 . S
H649 C665 0.930 . S
H650 C666 0.931 . S
C651 H639 0.929 . S
C651 C645 1.390 . S
C651 C648 1.386 . S
C652 C647 1.490 . S
C652 C654 1.395 . S
C652 C655 1.403 . S
H653 C659 0.930 1_655 S
C654 H640 0.930 . S
C654 C652 1.395 . S
C654 C657 1.403 . S
C655 C652 1.403 . S
C655 C656 1.524 . S
C655 C659 1.400 . S
C656 H641 0.960 1_455 S
C656 H642 0.960 . S
C656 H643 0.960 . S
C656 C655 1.524 . S
C657 C654 1.403 . S
C657 C658 1.392 . S
C657 C661 1.495 . S
C658 C657 1.392 . S
C658 C659 1.385 . S
C658 C660 1.478 . S
C659 H653 0.930 1_455 S
C659 C655 1.400 . S
C659 C658 1.385 . S
C660 C658 1.478 . S
C660 C662 1.381 . S
C660 C666 1.383 1_455 S
C661 C657 1.495 . S
C661 H667 0.959 . S
C661 H668 0.961 . S
C661 H669 0.960 . S
C662 C660 1.381 . S
C662 C663 1.394 1_455 S
C662 H670 0.930 . S
C663 C662 1.394 1_655 S
C663 C664 1.383 . S
C663 H671 0.929 . S
C664 C663 1.383 . S
C664 C665 1.377 . S
C665 H649 0.930 . S
C665 C664 1.377 . S
C665 C666 1.379 . S
C666 H650 0.931 . S
C666 C660 1.383 1_655 S
C666 C665 1.379 . S
H667 C661 0.959 . S
H668 C661 0.961 . S
H669 C661 0.960 . S
H670 C662 0.930 . S
H671 C663 0.929 . S
H672 C680 0.929 . S
H673 C682 0.930 . S
H674 C684 0.930 . S
H675 C687 0.929 . S
H676 C690 0.930 . S
H677 C692 0.960 . S
H678 C692 0.960 . S
H679 C692 0.960 . S
C680 H672 0.929 . S
C680 C681 1.377 . S
C680 C682 1.384 . S
C681 C680 1.377 . S
C681 C687 1.390 . S
C682 H673 0.930 . S
C682 C680 1.384 . S
C682 C683 1.372 . S
C683 C682 1.372 . S
C683 C684 1.400 . S
C683 C688 1.490 . S
C684 H674 0.930 . S
C684 C683 1.400 . S
C684 C687 1.386 . S
H685 C701 0.930 . S
H686 C702 0.931 . S
C687 H675 0.929 . S
C687 C681 1.390 . S
C687 C684 1.386 . S
C688 C683 1.490 . S
C688 C690 1.395 . S
C688 C691 1.403 . S
H689 C695 0.930 . S
C690 H676 0.930 . S
C690 C688 1.395 . S
C690 C693 1.403 . S
C691 C688 1.403 . S
C691 C692 1.524 . S
C691 C695 1.400 . S
C692 H677 0.960 . S
C692 H678 0.960 . S
C692 H679 0.960 . S
C692 C691 1.524 . S
C693 C690 1.403 . S
C693 C694 1.392 . S
C693 C697 1.495 . S
C694 C693 1.392 . S
C694 C695 1.385 . S
C694 C696 1.478 . S
C695 H689 0.930 . S
C695 C691 1.400 . S
C695 C694 1.385 . S
C696 C694 1.478 . S
C696 C698 1.381 . S
C696 C702 1.383 . S
C697 C693 1.495 . S
C697 H703 0.959 . S
C697 H704 0.961 . S
C697 H705 0.960 . S
C698 C696 1.381 . S
C698 C699 1.394 . S
C698 H706 0.930 . S
C699 C698 1.394 . S
C699 C700 1.383 . S
C699 H707 0.929 . S
C700 C699 1.383 . S
C700 C701 1.377 . S
C701 H685 0.930 . S
C701 C700 1.377 . S
C701 C702 1.379 . S
C702 H686 0.931 . S
C702 C696 1.383 . S
C702 C701 1.379 . S
H703 C697 0.959 . S
H704 C697 0.961 . S
H705 C697 0.960 . S
H706 C698 0.930 . S
H707 C699 0.929 . S
H708 C716 0.929 . S
H709 C718 0.930 . S
H710 C720 0.930 . S
H711 C723 0.929 . S
H712 C726 0.930 1_545 S
H713 C728 0.960 . S
H714 C728 0.960 . S
H715 C728 0.960 . S
C716 H708 0.929 . S
C716 C717 1.377 . S
C716 C718 1.384 . S
C717 C716 1.377 . S
C717 C723 1.390 . S
C718 H709 0.930 . S
C718 C716 1.384 . S
C718 C719 1.372 . S
C719 C718 1.372 . S
C719 C720 1.400 1_545 S
C719 C724 1.490 1_545 S
C720 H710 0.930 . S
C720 C719 1.400 1_565 S
C720 C723 1.386 1_565 S
H721 C737 0.930 . S
H722 C738 0.931 . S
C723 H711 0.929 . S
C723 C717 1.390 . S
C723 C720 1.386 1_545 S
C724 C719 1.490 1_565 S
C724 C726 1.395 . S
C724 C727 1.403 . S
H725 C731 0.938 . S
C726 H712 0.930 1_565 S
C726 C724 1.395 . S
C726 C729 1.403 1_556 S
C727 C724 1.403 . S
C727 C728 1.524 . S
C727 C731 1.400 . S
C728 H713 0.960 . S
C728 H714 0.960 . S
C728 H715 0.960 . S
C728 C727 1.524 . S
C729 C726 1.403 1_554 S
C729 C730 1.392 . S
C729 C733 1.495 1_565 S
C730 C729 1.392 . S
C730 C731 1.385 1_554 S
C730 C732 1.478 . S
C731 H725 0.938 . S
C731 C727 1.400 . S
C731 C730 1.385 1_556 S
C732 C730 1.478 . S
C732 C734 1.381 . S
C732 C738 1.383 . S
C733 C729 1.495 1_545 S
C733 H739 0.959 . S
C733 H740 0.961 1_545 S
C733 H741 0.960 . S
C734 C732 1.381 . S
C734 C735 1.394 . S
C734 H742 0.930 . S
C735 C734 1.394 . S
C735 C736 1.383 . S
C735 H743 0.929 . S
C736 C735 1.383 . S
C736 C737 1.377 . S
C737 H721 0.930 . S
C737 C736 1.377 . S
C737 C738 1.379 . S
C738 H722 0.931 . S
C738 C732 1.383 . S
C738 C737 1.379 . S
H739 C733 0.959 . S
H740 C733 0.961 1_565 S
H741 C733 0.960 . S
H742 C734 0.930 . S
H743 C735 0.929 . S
C213 C2 1.952 . S
C232 C172 1.949 . S
C249 C104 1.951 . S
C268 C36 1.946 . S
C285 C138 1.952 . S
C304 C70 1.950 . S
C321 C203 1.489 . S
C340 C5 1.461 . S
C357 C135 1.489 . S
C376 C39 1.458 1_565 S
C393 C73 1.472 1_455 S
C412 C169 1.487 . S
C429 C67 1.489 . S
C448 C107 1.477 . S
C465 C101 1.489 . S
C484 C141 1.471 1_545 S
C501 C175 1.473 1_655 S
C520 C33 1.487 . S
C537 C156 1.283 . S
C556 C9 1.260 . S
C573 C43 1.242 . S
C592 C190 1.279 . S
C609 C122 1.283 . S
C628 C77 1.261 . S
C645 C111 1.246 . S
C664 C88 1.280 . S
C681 C20 1.283 . S
C700 C145 1.218 . S
C717 C54 1.284 . S
C736 C179 1.273 . S
