# Generated by pormake.
# Topology xff, (7)-cn, num edge types: 1
# Building blocks:
#     Node 0, Type 0, BuildingBlock: NUHQUE_clean_sbu_2, # of connection points: 7
#     Node 1, Type 0, BuildingBlock: NUHQUE_clean_sbu_2, # of connection points: 7
#     Node 2, Type 0, BuildingBlock: NUHQUE_clean_sbu_2, # of connection points: 7
#     Node 3, Type 0, BuildingBlock: NUHQUE_clean_sbu_2, # of connection points: 7
#     Node 4, Type 0, BuildingBlock: NUHQUE_clean_sbu_2, # of connection points: 7
#     Node 5, Type 0, BuildingBlock: NUHQUE_clean_sbu_2, # of connection points: 7
#     Node 6, Type 0, BuildingBlock: NUHQUE_clean_sbu_2, # of connection points: 7
#     Node 7, Type 0, BuildingBlock: NUHQUE_clean_sbu_2, # of connection points: 7
#     Node 8, Type 0, BuildingBlock: NUHQUE_clean_sbu_2, # of connection points: 7
#     Node 9, Type 0, BuildingBlock: NUHQUE_clean_sbu_2, # of connection points: 7
#     Node 10, Type 0, BuildingBlock: NUHQUE_clean_sbu_2, # of connection points: 7
#     Node 11, Type 0, BuildingBlock: NUHQUE_clean_sbu_2, # of connection points: 7
#     Node 12, Type 0, BuildingBlock: NUHQUE_clean_sbu_2, # of connection points: 7
#     Node 13, Type 0, BuildingBlock: NUHQUE_clean_sbu_2, # of connection points: 7
#     Node 14, Type 0, BuildingBlock: NUHQUE_clean_sbu_2, # of connection points: 7
#     Node 15, Type 0, BuildingBlock: NUHQUE_clean_sbu_2, # of connection points: 7
#     Edge 16, Type (0, 0), BuildingBlock: UVAHIK_clean_linker_0, # of connection points: 2
#     Edge 17, Type (0, 0), BuildingBlock: UVAHIK_clean_linker_0, # of connection points: 2
#     Edge 18, Type (0, 0), BuildingBlock: UVAHIK_clean_linker_0, # of connection points: 2
#     Edge 19, Type (0, 0), BuildingBlock: UVAHIK_clean_linker_0, # of connection points: 2
#     Edge 20, Type (0, 0), BuildingBlock: UVAHIK_clean_linker_0, # of connection points: 2
#     Edge 21, Type (0, 0), BuildingBlock: UVAHIK_clean_linker_0, # of connection points: 2
#     Edge 22, Type (0, 0), BuildingBlock: UVAHIK_clean_linker_0, # of connection points: 2
#     Edge 23, Type (0, 0), BuildingBlock: UVAHIK_clean_linker_0, # of connection points: 2
#     Edge 24, Type (0, 0), BuildingBlock: UVAHIK_clean_linker_0, # of connection points: 2
#     Edge 25, Type (0, 0), BuildingBlock: UVAHIK_clean_linker_0, # of connection points: 2
#     Edge 26, Type (0, 0), BuildingBlock: UVAHIK_clean_linker_0, # of connection points: 2
#     Edge 27, Type (0, 0), BuildingBlock: UVAHIK_clean_linker_0, # of connection points: 2
#     Edge 28, Type (0, 0), BuildingBlock: UVAHIK_clean_linker_0, # of connection points: 2
#     Edge 29, Type (0, 0), BuildingBlock: UVAHIK_clean_linker_0, # of connection points: 2
#     Edge 30, Type (0, 0), BuildingBlock: UVAHIK_clean_linker_0, # of connection points: 2
#     Edge 31, Type (0, 0), BuildingBlock: UVAHIK_clean_linker_0, # of connection points: 2
#     Edge 32, Type (0, 0), BuildingBlock: UVAHIK_clean_linker_0, # of connection points: 2
#     Edge 33, Type (0, 0), BuildingBlock: UVAHIK_clean_linker_0, # of connection points: 2
#     Edge 34, Type (0, 0), BuildingBlock: UVAHIK_clean_linker_0, # of connection points: 2
#     Edge 35, Type (0, 0), BuildingBlock: UVAHIK_clean_linker_0, # of connection points: 2
#     Edge 36, Type (0, 0), BuildingBlock: UVAHIK_clean_linker_0, # of connection points: 2
#     Edge 37, Type (0, 0), BuildingBlock: UVAHIK_clean_linker_0, # of connection points: 2
#     Edge 38, Type (0, 0), BuildingBlock: UVAHIK_clean_linker_0, # of connection points: 2
#     Edge 39, Type (0, 0), BuildingBlock: UVAHIK_clean_linker_0, # of connection points: 2
#     Edge 40, Type (0, 0), BuildingBlock: UVAHIK_clean_linker_0, # of connection points: 2
#     Edge 41, Type (0, 0), BuildingBlock: UVAHIK_clean_linker_0, # of connection points: 2
#     Edge 42, Type (0, 0), BuildingBlock: UVAHIK_clean_linker_0, # of connection points: 2
#     Edge 43, Type (0, 0), BuildingBlock: UVAHIK_clean_linker_0, # of connection points: 2
#     Edge 44, Type (0, 0), BuildingBlock: UVAHIK_clean_linker_0, # of connection points: 2
#     Edge 45, Type (0, 0), BuildingBlock: UVAHIK_clean_linker_0, # of connection points: 2
#     Edge 46, Type (0, 0), BuildingBlock: UVAHIK_clean_linker_0, # of connection points: 2
#     Edge 47, Type (0, 0), BuildingBlock: UVAHIK_clean_linker_0, # of connection points: 2
#     Edge 48, Type (0, 0), BuildingBlock: UVAHIK_clean_linker_0, # of connection points: 2
#     Edge 49, Type (0, 0), BuildingBlock: UVAHIK_clean_linker_0, # of connection points: 2
#     Edge 50, Type (0, 0), BuildingBlock: UVAHIK_clean_linker_0, # of connection points: 2
#     Edge 51, Type (0, 0), BuildingBlock: UVAHIK_clean_linker_0, # of connection points: 2
#     Edge 52, Type (0, 0), BuildingBlock: UVAHIK_clean_linker_0, # of connection points: 2
#     Edge 53, Type (0, 0), BuildingBlock: UVAHIK_clean_linker_0, # of connection points: 2
#     Edge 54, Type (0, 0), BuildingBlock: UVAHIK_clean_linker_0, # of connection points: 2
#     Edge 55, Type (0, 0), BuildingBlock: UVAHIK_clean_linker_0, # of connection points: 2
#     Edge 56, Type (0, 0), BuildingBlock: UVAHIK_clean_linker_0, # of connection points: 2
#     Edge 57, Type (0, 0), BuildingBlock: UVAHIK_clean_linker_0, # of connection points: 2
#     Edge 58, Type (0, 0), BuildingBlock: UVAHIK_clean_linker_0, # of connection points: 2
#     Edge 59, Type (0, 0), BuildingBlock: UVAHIK_clean_linker_0, # of connection points: 2
#     Edge 60, Type (0, 0), BuildingBlock: UVAHIK_clean_linker_0, # of connection points: 2
#     Edge 61, Type (0, 0), BuildingBlock: UVAHIK_clean_linker_0, # of connection points: 2
#     Edge 62, Type (0, 0), BuildingBlock: UVAHIK_clean_linker_0, # of connection points: 2
#     Edge 63, Type (0, 0), BuildingBlock: UVAHIK_clean_linker_0, # of connection points: 2
#     Edge 64, Type (0, 0), BuildingBlock: UVAHIK_clean_linker_0, # of connection points: 2
#     Edge 65, Type (0, 0), BuildingBlock: UVAHIK_clean_linker_0, # of connection points: 2
#     Edge 66, Type (0, 0), BuildingBlock: UVAHIK_clean_linker_0, # of connection points: 2
#     Edge 67, Type (0, 0), BuildingBlock: UVAHIK_clean_linker_0, # of connection points: 2
#     Edge 68, Type (0, 0), BuildingBlock: UVAHIK_clean_linker_0, # of connection points: 2
#     Edge 69, Type (0, 0), BuildingBlock: UVAHIK_clean_linker_0, # of connection points: 2
#     Edge 70, Type (0, 0), BuildingBlock: UVAHIK_clean_linker_0, # of connection points: 2
#     Edge 71, Type (0, 0), BuildingBlock: UVAHIK_clean_linker_0, # of connection points: 2
# Relax obj value: 0.129
# Max RMSD: 0.229
# Mean RMSD: 0.229
data_MOF--net-xff--node1-NUHQUE_clean_sbu_2--edge1-UVAHIK_clean_linker_0
_symmetry_space_group_name_H-M    P1
_symmetry_Int_Tables_number       1
_symmetry_cell_setting            triclinic
loop_
_symmetry_equiv_pos_as_xyz
'x, y, z'
_cell_length_a     43.548413
_cell_length_b     43.507788
_cell_length_c     85.303635
_cell_angle_alpha  89.91632
_cell_angle_beta   89.979046
_cell_angle_gamma 89.922101
loop_
_atom_site_label
_atom_site_type_symbol
_atom_site_fract_x
_atom_site_fract_y
_atom_site_fract_z
_atom_type_partial_charge
O0 O 0.27312 0.23677 0.06106 0.0
Tb1 Tb 0.27873 0.21141 0.08295 0.0
Eu2 Eu 0.31986 0.13808 0.08387 0.0
C3 C 0.29515 0.23948 0.05057 0.0
O4 O 0.32014 0.22279 0.05203 0.0
C5 C 0.35379 0.20521 0.086 0.0
O6 O 0.33533 0.10337 0.10201 0.0
C7 C 0.31446 0.11606 0.05568 0.0
C8 C 0.35192 0.11306 0.11393 0.0
O9 O 0.36114 0.14179 0.114 0.0
C10 C 0.25033 0.14799 0.09089 0.0
C11 C 0.29906 0.09369 0.04516 0.0
C12 C 0.28953 0.10351 0.03013 0.0
C13 C 0.27888 0.0822 0.01894 0.0
C14 C 0.27698 0.05109 0.02322 0.0
C15 C 0.28662 0.04087 0.03797 0.0
C16 C 0.29744 0.06216 0.04901 0.0
O17 O 0.32813 0.22148 0.08494 0.0
O18 O 0.35518 0.17501 0.08577 0.0
O19 O 0.24782 0.24862 0.08965 0.0
O20 O 0.26929 0.22269 0.10767 0.0
C21 C 0.25043 0.24528 0.10472 0.0
O22 O 0.27622 0.14 0.09744 0.0
O23 O 0.24973 0.1704 0.08049 0.0
O24 O 0.33387 0.10521 0.06617 0.0
O25 O 0.29877 0.14014 0.06058 0.0
H26 H 0.29192 0.12749 0.02689 0.0
H27 H 0.26866 0.03432 0.01484 0.0
H28 H 0.30574 0.05401 0.06025 0.0
O29 O 0.53607 0.51069 0.30242 0.0
Tb30 Tb 0.55844 0.52077 0.32476 0.0
Eu31 Eu 0.62683 0.55201 0.33809 0.0
C32 C 0.53221 0.53136 0.29127 0.0
O33 O 0.54718 0.55748 0.29205 0.0
C34 C 0.56693 0.59177 0.33239 0.0
O35 O 0.65805 0.56472 0.35827 0.0
C36 C 0.6518 0.55451 0.31031 0.0
C37 C 0.64786 0.55851 0.37247 0.0
O38 O 0.62069 0.54568 0.37387 0.0
C39 C 0.61165 0.48121 0.33847 0.0
C40 C 0.67314 0.53934 0.29901 0.0
C41 C 0.66234 0.53104 0.28394 0.0
C42 C 0.68285 0.5202 0.27242 0.0
C43 C 0.71391 0.51671 0.27622 0.0
C44 C 0.72526 0.52475 0.29101 0.0
C45 C 0.70483 0.53629 0.30237 0.0
O46 O 0.55843 0.57113 0.32193 0.0
O47 O 0.58934 0.58622 0.34227 0.0
O48 O 0.51436 0.50018 0.33045 0.0
O49 O 0.54094 0.51846 0.34905 0.0
C50 C 0.51531 0.50459 0.34548 0.0
O51 O 0.62047 0.50432 0.34716 0.0
O52 O 0.59506 0.48575 0.32571 0.0
O53 O 0.66365 0.56764 0.32283 0.0
O54 O 0.62497 0.54158 0.31299 0.0
H55 H 0.63837 0.53437 0.28095 0.0
H56 H 0.72972 0.50876 0.26726 0.0
H57 H 0.71374 0.54327 0.31368 0.0
O58 O 0.22124 0.79971 0.56783 0.0
Tb59 Tb 0.22218 0.81339 0.59241 0.0
Eu60 Eu 0.20425 0.88974 0.57676 0.0
C61 C 0.19916 0.78091 0.56342 0.0
O62 O 0.17714 0.77459 0.57343 0.0
C63 C 0.15481 0.8357 0.58621 0.0
O64 O 0.19402 0.91362 0.59996 0.0
C65 C 0.19855 0.92646 0.55269 0.0
C66 C 0.19341 0.89793 0.61319 0.0
O67 O 0.19777 0.86816 0.61268 0.0
C68 C 0.26643 0.87022 0.59318 0.0
C69 C 0.21456 0.94735 0.54144 0.0
C70 C 0.22567 0.93582 0.52699 0.0
C71 C 0.23752 0.9558 0.51548 0.0
C72 C 0.23944 0.98727 0.51882 0.0
C73 C 0.22784 0.9994 0.53279 0.0
C74 C 0.21512 0.97946 0.54405 0.0
O75 O 0.17359 0.82196 0.5961 0.0
O76 O 0.1643 0.85609 0.57578 0.0
O77 O 0.25235 0.77349 0.59469 0.0
O78 O 0.21796 0.78051 0.61189 0.0
C79 C 0.2405 0.76279 0.60755 0.0
O80 O 0.25504 0.88044 0.57989 0.0
O81 O 0.25216 0.84908 0.60137 0.0
O82 O 0.19478 0.93551 0.56727 0.0
O83 O 0.20369 0.89675 0.5515 0.0
H84 H 0.22371 0.91155 0.52437 0.0
H85 H 0.24884 1.00285 0.51011 0.0
H86 H 0.2052 0.98904 0.55463 0.0
O87 O 0.9704 0.46962 0.82179 0.0
Tb88 Tb 0.95313 0.47054 0.84583 0.0
Eu89 Eu 0.87869 0.44409 0.82987 0.0
C90 C 0.99263 0.44989 0.81872 0.0
O91 O 1.00116 0.43084 0.82985 0.0
C92 C 0.93746 0.40004 0.84071 0.0
O93 O 0.85549 0.4364 0.85346 0.0
C94 C 0.84224 0.43326 0.80622 0.0
C95 C 0.87175 0.4369 0.86649 0.0
O96 O 0.90147 0.44105 0.86547 0.0
C97 C 0.89286 0.50958 0.84341 0.0
C98 C 0.82185 0.44834 0.7944 0.0
C99 C 0.83419 0.45971 0.78017 0.0
C100 C 0.81485 0.4713 0.76832 0.0
C101 C 0.78315 0.47262 0.77107 0.0
C102 C 0.77027 0.4609 0.78484 0.0
C103 C 0.78959 0.44845 0.79646 0.0
O104 O 0.95071 0.42112 0.84953 0.0
O105 O 0.91443 0.40582 0.83099 0.0
O106 O 0.98961 0.50431 0.84945 0.0
O107 O 0.98135 0.47121 0.86718 0.0
C108 C 0.99792 0.49488 0.86327 0.0
O109 O 0.88529 0.49555 0.83038 0.0
O110 O 0.91345 0.49761 0.85282 0.0
O111 O 0.83311 0.43233 0.82092 0.0
O112 O 0.87202 0.4375 0.80483 0.0
H113 H 0.85867 0.45839 0.778 0.0
H114 H 0.76805 0.48192 0.76212 0.0
H115 H 0.77949 0.43857 0.80692 0.0
O116 O 0.71539 0.79673 0.95645 0.0
Tb117 Tb 0.71529 0.81221 0.93215 0.0
Eu118 Eu 0.69909 0.88069 0.95245 0.0
C119 C 0.69587 0.77474 0.96013 0.0
O120 O 0.67601 0.76588 0.94947 0.0
C121 C 0.6493 0.82949 0.94193 0.0
O122 O 0.68593 0.89981 0.92859 0.0
C123 C 0.69288 0.91857 0.97596 0.0
C124 C 0.70247 0.92153 0.9219 0.0
O125 O 0.72564 0.93326 0.92972 0.0
C126 C 0.75922 0.86755 0.93385 0.0
C127 C 0.70867 0.93987 0.98709 0.0
C128 C 0.72012 0.92872 1.00159 0.0
C129 C 0.73144 0.94913 1.01299 0.0
C130 C 0.73259 0.98057 1.00954 0.0
C131 C 0.72094 0.99238 0.99549 0.0
C132 C 0.70864 0.97199 0.98432 0.0
O133 O 0.66646 0.82097 0.92997 0.0
O134 O 0.66092 0.84514 0.9538 0.0
O135 O 0.74849 0.77525 0.92876 0.0
O136 O 0.71182 0.77949 0.91254 0.0
C137 C 0.73627 0.7637 0.9162 0.0
O138 O 0.74976 0.87304 0.94821 0.0
O139 O 0.74219 0.85116 0.92435 0.0
O140 O 0.68944 0.92699 0.96123 0.0
O141 O 0.69785 0.88888 0.97758 0.0
H142 H 0.71881 0.90444 1.00435 0.0
H143 H 0.74135 0.99634 0.01831 0.0
H144 H 0.69859 0.98119 0.97368 0.0
O145 O 0.46928 0.46775 0.70351 0.0
Tb146 Tb 0.4512 0.46926 0.67964 0.0
Eu147 Eu 0.38191 0.44516 0.69859 0.0
C148 C 0.49247 0.44885 0.70604 0.0
O149 O 0.50139 0.43094 0.69452 0.0
C150 C 0.4379 0.40065 0.68718 0.0
O151 O 0.36373 0.43305 0.67448 0.0
C152 C 0.34376 0.43479 0.72159 0.0
C153 C 0.34136 0.44912 0.66804 0.0
O154 O 0.32875 0.47147 0.67615 0.0
C155 C 0.39214 0.5084 0.68239 0.0
C156 C 0.32225 0.45018 0.73275 0.0
C157 C 0.33328 0.46229 0.7471 0.0
C158 C 0.31282 0.47404 0.75838 0.0
C159 C 0.28138 0.47481 0.75498 0.0
C160 C 0.26979 0.46257 0.74106 0.0
C161 C 0.29019 0.44991 0.73 0.0
O162 O 0.44655 0.42008 0.67615 0.0
O163 O 0.41967 0.40892 0.69886 0.0
O164 O 0.48412 0.50626 0.67577 0.0
O165 O 0.48203 0.46998 0.65921 0.0
C166 C 0.49536 0.49589 0.66269 0.0
O167 O 0.38639 0.49662 0.69625 0.0
O168 O 0.40998 0.49359 0.6726 0.0
O169 O 0.33582 0.43294 0.70673 0.0
O170 O 0.37335 0.43957 0.72353 0.0
H171 H 0.35757 0.46139 0.74981 0.0
H172 H 0.26548 0.48411 0.76356 0.0
H173 H 0.28106 0.43955 0.71944 0.0
O174 O 0.76552 0.23675 0.47221 0.0
Tb175 Tb 0.77401 0.20954 0.45118 0.0
Eu176 Eu 0.81312 0.13914 0.44433 0.0
C177 C 0.78428 0.23719 0.48432 0.0
O178 O 0.80684 0.21717 0.48504 0.0
C179 C 0.84724 0.20469 0.44582 0.0
O180 O 0.82814 0.10795 0.42461 0.0
C181 C 0.81689 0.11583 0.47242 0.0
C182 C 0.82623 0.11981 0.41043 0.0
O183 O 0.8165 0.1483 0.40908 0.0
C184 C 0.74163 0.14738 0.44336 0.0
C185 C 0.80234 0.09456 0.48398 0.0
C186 C 0.79413 0.10579 0.49897 0.0
C187 C 0.78361 0.08564 0.51074 0.0
C188 C 0.78031 0.05439 0.50724 0.0
C189 C 0.78802 0.04262 0.49246 0.0
C190 C 0.79936 0.06275 0.48088 0.0
O191 O 0.82388 0.21704 0.45347 0.0
O192 O 0.84576 0.17753 0.43916 0.0
O193 O 0.74506 0.2473 0.44329 0.0
O194 O 0.769 0.22146 0.4261 0.0
C195 C 0.74999 0.24431 0.42836 0.0
O196 O 0.76544 0.1393 0.43499 0.0
O197 O 0.74376 0.16936 0.45396 0.0
O198 O 0.83045 0.10377 0.46005 0.0
O199 O 0.803 0.14214 0.46941 0.0
H200 H 0.79716 0.12993 0.50168 0.0
H201 H 0.77232 0.03885 0.51632 0.0
H202 H 0.80601 0.05357 0.46957 0.0
O203 O 0.03221 0.51321 0.22591 0.0
Tb204 Tb 0.05798 0.52116 0.20429 0.0
Eu205 Eu 0.12893 0.55387 0.19281 0.0
C206 C 0.02871 0.53394 0.23702 0.0
O207 O 0.04509 0.55924 0.2366 0.0
C208 C 0.06693 0.59322 0.19719 0.0
O209 O 0.15926 0.56757 0.17239 0.0
C210 C 0.15514 0.55495 0.22032 0.0
C211 C 0.14917 0.56072 0.15826 0.0
O212 O 0.12259 0.54668 0.15701 0.0
C213 C 0.11327 0.48367 0.19243 0.0
C214 C 0.17598 0.53775 0.23115 0.0
C215 C 0.16462 0.52649 0.24562 0.0
C216 C 0.18435 0.51185 0.25642 0.0
C217 C 0.21556 0.50896 0.25271 0.0
C218 C 0.22765 0.52064 0.23869 0.0
C219 C 0.20773 0.53498 0.22791 0.0
O220 O 0.05501 0.57157 0.20623 0.0
O221 O 0.09212 0.58902 0.18898 0.0
O222 O 0.0194 0.49282 0.19713 0.0
O223 O 0.04183 0.51954 0.17974 0.0
C224 C 0.01976 0.4999 0.18235 0.0
O225 O 0.12226 0.50647 0.18357 0.0
O226 O 0.09685 0.48892 0.20513 0.0
O227 O 0.16718 0.56745 0.20765 0.0
O228 O 0.12732 0.54399 0.21798 0.0
H229 H 0.14057 0.52938 0.24855 0.0
H230 H 0.23098 0.49898 0.26132 0.0
H231 H 0.21711 0.54429 0.21715 0.0
O232 O 0.76864 0.73101 0.55329 0.0
Tb233 Tb 0.77879 0.70728 0.57528 0.0
Eu234 Eu 0.81769 0.64001 0.58676 0.0
C235 C 0.78913 0.73468 0.54206 0.0
O236 O 0.8146 0.7185 0.54243 0.0
C237 C 0.85076 0.70452 0.58264 0.0
O238 O 0.83149 0.60936 0.60695 0.0
C239 C 0.82337 0.61508 0.55918 0.0
C240 C 0.82872 0.62124 0.62107 0.0
O241 O 0.81868 0.64965 0.62225 0.0
C242 C 0.74598 0.64712 0.5862 0.0
C243 C 0.81067 0.59189 0.54809 0.0
C244 C 0.8011 0.60149 0.53299 0.0
C245 C 0.79314 0.57974 0.52149 0.0
C246 C 0.79403 0.54845 0.5253 0.0
C247 C 0.8033 0.53837 0.54011 0.0
C248 C 0.81145 0.56006 0.55158 0.0
O249 O 0.82881 0.71297 0.57287 0.0
O250 O 0.84817 0.68012 0.59157 0.0
O251 O 0.75368 0.74873 0.58148 0.0
O252 O 0.77241 0.72178 0.5999 0.0
C253 C 0.75661 0.74649 0.59657 0.0
O254 O 0.76951 0.6415 0.59529 0.0
O255 O 0.74807 0.66709 0.57455 0.0
O256 O 0.8378 0.60504 0.57176 0.0
O257 O 0.8075 0.64043 0.56163 0.0
H258 H 0.80121 0.62571 0.52998 0.0
H259 H 0.78789 0.53155 0.51649 0.0
H260 H 0.81943 0.55207 0.56291 0.0
O261 O 0.04582 0.03065 0.81409 0.0
Tb262 Tb 0.06369 0.02568 0.83783 0.0
Eu263 Eu 0.13832 0.06173 0.83199 0.0
C264 C 0.02405 0.05099 0.81133 0.0
O265 O 0.01619 0.06998 0.82258 0.0
C266 C 0.07519 0.09749 0.83844 0.0
O267 O 0.16495 0.08382 0.85178 0.0
C268 C 0.16657 0.0555 0.80534 0.0
C269 C 0.15074 0.08483 0.86543 0.0
O270 O 0.12226 0.07497 0.86604 0.0
C271 C 0.12648 0.99278 0.84429 0.0
C272 C 0.18985 0.03978 0.79545 0.0
C273 C 0.18107 0.02928 0.78043 0.0
C274 C 0.203 0.01743 0.76989 0.0
C275 C 0.23359 0.01487 0.77488 0.0
C276 C 0.24293 0.02578 0.78955 0.0
C277 C 0.22108 0.03844 0.79983 0.0
O278 O 0.06427 0.07343 0.84599 0.0
O279 O 0.09962 0.09564 0.82946 0.0
O280 O 0.01938 1.00243 0.83994 0.0
O281 O 0.04489 0.01134 0.86058 0.0
C282 C 0.01961 0.99965 0.8551 0.0
O283 O 0.14045 0.019 0.84678 0.0
O284 O 0.10048 0.9914 0.83646 0.0
O285 O 0.176 0.07418 0.81651 0.0
O286 O 0.14114 0.04056 0.80884 0.0
H287 H 0.15742 0.03183 0.77668 0.0
H288 H 0.25073 0.00554 0.76697 0.0
H289 H 0.22851 0.04768 0.81098 0.0
O290 O 0.72477 0.29422 0.07334 0.0
Tb291 Tb 0.7245 0.31173 0.09734 0.0
Eu292 Eu 0.70595 0.38807 0.08085 0.0
C293 C 0.70127 0.27741 0.06871 0.0
O294 O 0.67747 0.27492 0.07808 0.0
C295 C 0.65853 0.33574 0.09157 0.0
O296 O 0.69194 0.40952 0.10412 0.0
C297 C 0.69822 0.42475 0.05694 0.0
C298 C 0.70129 0.39736 0.11746 0.0
O299 O 0.71807 0.37232 0.117 0.0
C300 C 0.77373 0.36694 0.09365 0.0
C301 C 0.71513 0.44507 0.04578 0.0
C302 C 0.73006 0.43271 0.03245 0.0
C303 C 0.74492 0.4521 0.02165 0.0
C304 C 0.74476 0.48388 0.02416 0.0
C305 C 0.72897 0.49678 0.03684 0.0
C306 C 0.71408 0.47734 0.04762 0.0
O307 O 0.67757 0.32575 0.1024 0.0
O308 O 0.66839 0.35222 0.07965 0.0
O309 O 0.73347 0.26263 0.1011 0.0
O310 O 0.73458 0.29245 0.1206 0.0
C311 C 0.73812 0.26416 0.1161 0.0
O312 O 0.75742 0.38287 0.08346 0.0
O313 O 0.76373 0.3419 0.1007 0.0
O314 O 0.69549 0.4338 0.07159 0.0
O315 O 0.70247 0.39492 0.05566 0.0
H316 H 0.72996 0.40816 0.03034 0.0
H317 H 0.7555 0.49887 0.01559 0.0
H318 H 0.70141 0.48738 0.05729 0.0
O319 O 0.47122 0.96862 0.32192 0.0
Tb320 Tb 0.45451 0.96838 0.34603 0.0
Eu321 Eu 0.38297 0.94589 0.32712 0.0
C322 C 0.49176 0.9477 0.31803 0.0
O323 O 0.49965 0.92694 0.32847 0.0
C324 C 0.43891 0.89965 0.33796 0.0
O325 O 0.35773 0.93469 0.3498 0.0
C326 C 0.34857 0.93766 0.30244 0.0
C327 C 0.37207 0.93518 0.3634 0.0
O328 O 0.4015 0.94124 0.36364 0.0
C329 C 0.39592 0.01008 0.343 0.0
C330 C 0.32789 0.95309 0.2909 0.0
C331 C 0.33989 0.96448 0.27662 0.0
C332 C 0.32025 0.97571 0.26484 0.0
C333 C 0.28857 0.9766 0.26763 0.0
C334 C 0.27599 0.96522 0.2816 0.0
C335 C 0.29571 0.95314 0.29315 0.0
O336 O 0.44988 0.91867 0.34862 0.0
O337 O 0.41954 0.90856 0.32692 0.0
O338 O 0.49291 0.99997 0.34968 0.0
O339 O 0.48185 0.96833 0.3677 0.0
C340 C 0.50001 0.99078 0.36372 0.0
O341 O 0.38886 0.99722 0.32956 0.0
O342 O 0.41562 0.99707 0.35258 0.0
O343 O 0.33869 0.93356 0.31686 0.0
O344 O 0.37805 0.94406 0.30176 0.0
H345 H 0.36434 0.96331 0.27434 0.0
H346 H 0.27338 0.98518 0.25855 0.0
H347 H 0.28592 0.94339 0.30373 0.0
O348 O 0.22024 0.30118 0.4538 0.0
Tb349 Tb 0.21992 0.31654 0.42945 0.0
Eu350 Eu 0.20298 0.3856 0.44907 0.0
C351 C 0.20077 0.27917 0.45755 0.0
O352 O 0.18071 0.27041 0.44696 0.0
C353 C 0.15342 0.33365 0.43894 0.0
O354 O 0.18777 0.40479 0.42551 0.0
C355 C 0.19787 0.42311 0.47277 0.0
C356 C 0.20414 0.42567 0.41804 0.0
O357 O 0.2288 0.43673 0.42486 0.0
C358 C 0.2632 0.37274 0.43032 0.0
C359 C 0.2153 0.44358 0.48364 0.0
C360 C 0.23003 0.4315 0.49712 0.0
C361 C 0.24447 0.45108 0.50799 0.0
C362 C 0.244 0.48286 0.50532 0.0
C363 C 0.22877 0.49557 0.49236 0.0
C364 C 0.21441 0.47581 0.48156 0.0
O365 O 0.17086 0.32443 0.42721 0.0
O366 O 0.1647 0.35013 0.4506 0.0
O367 O 0.25344 0.27979 0.42637 0.0
O368 O 0.21676 0.2832 0.4101 0.0
C369 C 0.24134 0.26775 0.4139 0.0
O370 O 0.25369 0.37851 0.44463 0.0
O371 O 0.24662 0.35533 0.42108 0.0
O372 O 0.19432 0.43186 0.4581 0.0
O373 O 0.20176 0.39324 0.47424 0.0
H374 H 0.22989 0.40697 0.49933 0.0
H375 H 0.25388 0.49807 0.51403 0.0
H376 H 0.20204 0.48558 0.47171 0.0
O377 O 0.96984 0.96671 0.20806 0.0
Tb378 Tb 0.95337 0.96915 0.18394 0.0
Eu379 Eu 0.88079 0.9446 0.20121 0.0
C380 C 0.99059 0.94559 0.21138 0.0
O381 O 0.99815 0.92567 0.20049 0.0
C382 C 0.93713 0.9 0.1902 0.0
O383 O 0.85746 0.93409 0.17794 0.0
C384 C 0.8448 0.93423 0.22508 0.0
C385 C 0.87184 0.93798 0.16449 0.0
O386 O 0.9005 0.94709 0.16464 0.0
C387 C 0.89494 0.01115 0.18786 0.0
C388 C 0.82422 0.94984 0.23657 0.0
C389 C 0.83598 0.96051 0.25104 0.0
C390 C 0.81627 0.97264 0.26256 0.0
C391 C 0.78483 0.97509 0.25927 0.0
C392 C 0.77247 0.96413 0.24519 0.0
C393 C 0.79222 0.95125 0.23392 0.0
O394 O 0.94789 0.91989 0.17987 0.0
O395 O 0.91796 0.90812 0.20144 0.0
O396 O 0.99338 0.99914 0.1821 0.0
O397 O 0.9813 0.97198 0.16247 0.0
C398 C 1.00048 0.99246 0.16773 0.0
O399 O 0.88683 0.99601 0.20052 0.0
O400 O 0.91586 1.00038 0.17824 0.0
O401 O 0.83565 0.93223 0.21043 0.0
O402 O 0.87447 0.93912 0.22636 0.0
H403 H 0.86024 0.95822 0.25362 0.0
H404 H 0.76952 0.98454 0.26806 0.0
H405 H 0.78257 0.94197 0.22321 0.0
O406 O 0.26051 0.7329 0.97645 0.0
Tb407 Tb 0.27405 0.70764 0.95553 0.0
Eu408 Eu 0.30507 0.64052 0.94144 0.0
C409 C 0.27863 0.73553 0.98873 0.0
O410 O 0.30345 0.71842 0.9896 0.0
C411 C 0.34385 0.6998 0.94793 0.0
O412 O 0.31742 0.6113 0.92049 0.0
C413 C 0.31318 0.61379 0.96849 0.0
C414 C 0.31212 0.62302 0.90651 0.0
O415 O 0.30002 0.65066 0.90565 0.0
C416 C 0.23396 0.65319 0.94443 0.0
C417 C 0.30145 0.59194 0.98059 0.0
C418 C 0.29174 0.60334 0.99533 0.0
C419 C 0.28559 0.58306 1.00781 0.0
C420 C 0.28851 0.55141 1.0054 0.0
C421 C 0.29809 0.53952 0.99099 0.0
C422 C 0.30426 0.55976 0.97851 0.0
O423 O 0.32389 0.70572 0.95913 0.0
O424 O 0.33755 0.67946 0.93708 0.0
O425 O 0.26149 0.75312 0.94693 0.0
O426 O 0.26647 0.71709 0.93039 0.0
C427 C 0.25973 0.7461 0.93218 0.0
O428 O 0.25575 0.64518 0.93466 0.0
O429 O 0.23966 0.67084 0.95666 0.0
O430 O 0.32352 0.6026 0.95516 0.0
O431 O 0.29957 0.64068 0.96694 0.0
H432 H 0.2905 0.62791 0.99734 0.0
H433 H 0.28386 0.53573 0.01502 0.0
H434 H 0.31265 0.55047 0.96753 0.0
O435 O 0.54687 0.02912 0.71865 0.0
Tb436 Tb 0.56521 0.02628 0.69488 0.0
Eu437 Eu 0.64173 0.06082 0.69688 0.0
C438 C 0.52674 0.05064 0.7222 0.0
O439 O 0.52076 0.07208 0.71181 0.0
C440 C 0.57829 0.09901 0.6927 0.0
O441 O 0.67359 0.07897 0.67797 0.0
C442 C 0.66713 0.05002 0.72395 0.0
C443 C 0.66157 0.09486 0.66629 0.0
O444 O 0.6323 0.10207 0.66699 0.0
C445 C 0.62552 0.99348 0.68557 0.0
C446 C 0.68957 0.03366 0.73412 0.0
C447 C 0.67986 0.02281 0.74897 0.0
C448 C 0.70135 0.01161 0.75994 0.0
C449 C 0.73235 0.00995 0.75563 0.0
C450 C 0.7425 0.02085 0.74109 0.0
C451 C 0.72114 0.03287 0.73035 0.0
O452 O 0.56358 0.07459 0.68744 0.0
O453 O 0.60572 0.09764 0.69912 0.0
O454 O 0.52204 1.00115 0.69216 0.0
O455 O 0.5471 0.01333 0.67179 0.0
C456 C 0.5224 0.99991 0.67695 0.0
O457 O 0.63808 0.01948 0.68127 0.0
O458 O 0.60307 0.99315 0.69586 0.0
O459 O 0.6776 0.07038 0.71382 0.0
O460 O 0.64231 0.03548 0.71913 0.0
H461 H 0.65595 0.02493 0.75235 0.0
H462 H 0.7491 1.00168 0.76407 0.0
H463 H 0.72923 0.0424 0.71936 0.0
C464 C 0.11833 0.44623 0.1708 0.0
C465 C 0.12021 0.45223 0.18693 0.0
C466 C 0.12851 0.41836 0.16468 0.0
C467 C 0.18505 0.35846 0.17095 0.0
H468 H 0.1414 0.31913 0.13683 0.0
C469 C 0.23851 0.26058 0.13259 0.0
C470 C 0.23393 0.26434 0.11638 0.0
C471 C 0.2226 0.27916 0.14335 0.0
C472 C 0.15396 0.32983 0.14632 0.0
H473 H 0.13369 0.43357 0.20943 0.0
H474 H 0.15234 0.38438 0.19859 0.0
H475 H 0.11589 0.35872 0.15227 0.0
H476 H 0.20924 0.29037 0.09875 0.0
H477 H 0.18183 0.32261 0.11732 0.0
H478 H 0.22363 0.3304 0.16451 0.0
C479 C 0.14259 0.40139 0.19075 0.0
C480 C 0.13926 0.35242 0.15522 0.0
C481 C 0.13173 0.42932 0.19697 0.0
C482 C 0.21318 0.28683 0.11116 0.0
C483 C 0.19726 0.30517 0.12184 0.0
C484 C 0.19986 0.33582 0.16198 0.0
C485 C 0.14133 0.3958 0.17449 0.0
C486 C 0.15494 0.36775 0.16729 0.0
C487 C 0.20165 0.3016 0.13808 0.0
C488 C 0.1848 0.32201 0.1492 0.0
H489 H 0.10959 0.46352 0.16279 0.0
H490 H 0.12755 0.41503 0.1521 0.0
H491 H 0.19781 0.36999 0.18011 0.0
H492 H 0.2544 0.24339 0.13693 0.0
H493 H 0.22646 0.27577 0.15577 0.0
C494 C 0.29553 0.38838 0.40744 0.0
C495 C 0.29032 0.38896 0.42371 0.0
C496 C 0.32018 0.40426 0.40084 0.0
C497 C 0.39663 0.43553 0.40858 0.0
H498 H 0.38064 0.48154 0.37047 0.0
C499 C 0.49259 0.49889 0.37263 0.0
C500 C 0.49058 0.49482 0.35632 0.0
C501 C 0.46855 0.48909 0.38247 0.0
C502 C 0.38561 0.46868 0.38106 0.0
H503 H 0.30741 0.40648 0.44582 0.0
H504 H 0.35113 0.43401 0.43419 0.0
H505 H 0.33811 0.45842 0.38473 0.0
H506 H 0.46209 0.47711 0.33756 0.0
H507 H 0.42081 0.46 0.35449 0.0
H508 H 0.44439 0.44508 0.40456 0.0
C509 C 0.33582 0.42124 0.42662 0.0
C510 C 0.36118 0.45547 0.38924 0.0
C511 C 0.31077 0.40557 0.43325 0.0
C512 C 0.46429 0.48079 0.35007 0.0
C513 C 0.44044 0.47114 0.3598 0.0
C514 C 0.42124 0.44867 0.40029 0.0
C515 C 0.34056 0.42101 0.41029 0.0
C516 C 0.36642 0.43806 0.40287 0.0
C517 C 0.44206 0.47528 0.37612 0.0
C518 C 0.41606 0.46469 0.38618 0.0
H519 H 0.28031 0.37592 0.39968 0.0
H520 H 0.32342 0.40323 0.38826 0.0
H521 H 0.40139 0.4222 0.41903 0.0
H522 H 0.51264 0.50959 0.37776 0.0
H523 H 0.47051 0.49267 0.39498 0.0
C524 C 0.24026 0.72727 0.63081 0.0
C525 C 0.25208 0.73555 0.61607 0.0
C526 C 0.25237 0.70197 0.63896 0.0
C527 C 0.29741 0.63071 0.63276 0.0
H528 H 0.31772 0.63735 0.6769 0.0
C529 C 0.38171 0.54748 0.66163 0.0
C530 C 0.37479 0.53548 0.67653 0.0
C531 C 0.36438 0.57139 0.65527 0.0
C532 C 0.31178 0.63499 0.66463 0.0
H533 H 0.28562 0.72394 0.59827 0.0
H534 H 0.30667 0.68006 0.61238 0.0
H535 H 0.29102 0.67974 0.66373 0.0
H536 H 0.34457 0.53991 0.69661 0.0
H537 H 0.31412 0.58208 0.6854 0.0
H538 H 0.31846 0.58632 0.63352 0.0
C539 C 0.2879 0.69274 0.61765 0.0
C540 C 0.29648 0.65925 0.65708 0.0
C541 C 0.27595 0.71801 0.60958 0.0
C542 C 0.35053 0.54865 0.68512 0.0
C543 C 0.33312 0.5728 0.67871 0.0
C544 C 0.31263 0.60658 0.64027 0.0
C545 C 0.27633 0.68439 0.63245 0.0
C546 C 0.28974 0.65764 0.64097 0.0
C547 C 0.33958 0.58406 0.66358 0.0
C548 C 0.32065 0.60867 0.6562 0.0
H549 H 0.22188 0.74047 0.63609 0.0
H550 H 0.24282 0.69603 0.65029 0.0
H551 H 0.29194 0.6284 0.62043 0.0
H552 H 0.4004 0.53819 0.65472 0.0
H553 H 0.37046 0.57997 0.64375 0.0
C554 C 0.1859 0.62333 0.94988 0.0
C555 C 0.20251 0.64374 0.94037 0.0
C556 C 0.15944 0.60888 0.94403 0.0
C557 C 0.10206 0.61181 0.91169 0.0
H558 H 0.10195 0.52292 0.91503 0.0
C559 C 0.03576 0.53691 0.86792 0.0
C560 C 0.02034 0.51076 0.87346 0.0
C561 C 0.05544 0.55338 0.87774 0.0
C562 C 0.10129 0.54774 0.91417 0.0
H563 H 0.20421 0.66612 0.91773 0.0
H564 H 0.15794 0.64177 0.9077 0.0
H565 H 0.13893 0.55288 0.93016 0.0
H566 H 0.01366 0.48102 0.89355 0.0
H567 H 0.04808 0.50989 0.91082 0.0
H568 H 0.06493 0.60679 0.89549 0.0
C569 C 0.16495 0.63679 0.91961 0.0
C570 C 0.12245 0.56493 0.92289 0.0
C571 C 0.19147 0.65077 0.92534 0.0
C572 C 0.02538 0.50105 0.88896 0.0
C573 C 0.04513 0.51757 0.89883 0.0
C574 C 0.08091 0.59468 0.90302 0.0
C575 C 0.14907 0.61499 0.92868 0.0
C576 C 0.12358 0.59713 0.92145 0.0
C577 C 0.06015 0.54418 0.89339 0.0
C578 C 0.08075 0.56237 0.90382 0.0
H579 H 0.19437 0.61716 0.9614 0.0
H580 H 0.14761 0.59228 0.95133 0.0
H581 H 0.102 0.6366 0.9105 0.0
H582 H 0.03239 0.54488 0.85601 0.0
H583 H 0.06709 0.57333 0.87302 0.0
C584 C 0.88386 0.55142 0.86294 0.0
C585 C 0.87533 0.5369 0.84888 0.0
C586 C 0.86638 0.57547 0.86906 0.0
C587 C 0.80885 0.63496 0.8597 0.0
H588 H 0.79569 0.63292 0.90466 0.0
C589 C 0.73596 0.72667 0.89349 0.0
C590 C 0.74899 0.73705 0.90759 0.0
C591 C 0.74882 0.70154 0.88549 0.0
C592 C 0.79929 0.634 0.89211 0.0
H593 H 0.84204 0.53717 0.82998 0.0
H594 H 0.81137 0.57954 0.84075 0.0
H595 H 0.82303 0.59097 0.89201 0.0
H596 H 0.78565 0.72946 0.92432 0.0
H597 H 0.80798 0.68604 0.9105 0.0
H598 H 0.78535 0.6784 0.85994 0.0
C599 C 0.83173 0.57211 0.84698 0.0
C600 C 0.81499 0.60991 0.88485 0.0
C601 C 0.84928 0.54781 0.84083 0.0
C602 C 0.77499 0.72191 0.91353 0.0
C603 C 0.78769 0.69686 0.90563 0.0
C604 C 0.79308 0.6592 0.86701 0.0
C605 C 0.83981 0.58581 0.86134 0.0
C606 C 0.82061 0.61037 0.86861 0.0
C607 C 0.77477 0.68622 0.89154 0.0
C608 C 0.78873 0.65931 0.88337 0.0
H609 H 0.90391 0.54393 0.86943 0.0
H610 H 0.87369 0.58594 0.87995 0.0
H611 H 0.81284 0.63603 0.84718 0.0
H612 H 0.71593 0.73799 0.88863 0.0
H613 H 0.73823 0.69384 0.87471 0.0
C614 C 0.52805 0.50083 0.6385 0.0
C615 C 0.51863 0.51213 0.65316 0.0
C616 C 0.54999 0.51678 0.6296 0.0
C617 C 0.61395 0.57076 0.63457 0.0
H618 H 0.60872 0.58234 0.58952 0.0
C619 C 0.71903 0.60373 0.59915 0.0
C620 C 0.71713 0.63048 0.58991 0.0
C621 C 0.69272 0.58985 0.60508 0.0
C622 C 0.61027 0.57945 0.60211 0.0
H623 H 0.52426 0.54917 0.66987 0.0
H624 H 0.56249 0.57677 0.65448 0.0
H625 H 0.56634 0.55714 0.60365 0.0
H626 H 0.68575 0.6624 0.57875 0.0
H627 H 0.63903 0.63756 0.58916 0.0
H628 H 0.65787 0.59246 0.63311 0.0
C629 C 0.5532 0.55555 0.64986 0.0
C630 C 0.58623 0.56481 0.61017 0.0
C631 C 0.53126 0.53975 0.65867 0.0
C632 C 0.68794 0.64186 0.58585 0.0
C633 C 0.66128 0.62771 0.59181 0.0
C634 C 0.63795 0.58499 0.62654 0.0
C635 C 0.56303 0.54419 0.63527 0.0
C636 C 0.58791 0.56021 0.6265 0.0
C637 C 0.66362 0.60216 0.60191 0.0
C638 C 0.63657 0.58923 0.61022 0.0
H639 H 0.51856 0.47965 0.63395 0.0
H640 H 0.55729 0.50729 0.61848 0.0
H641 H 0.61615 0.56736 0.6471 0.0
H642 H 0.74107 0.5939 0.60228 0.0
H643 H 0.69519 0.56984 0.61256 0.0
C644 C 0.71382 0.28625 0.4211 0.0
C645 C 0.73495 0.26376 0.41628 0.0
C646 C 0.69865 0.30469 0.41017 0.0
C647 C 0.70274 0.33589 0.3701 0.0
H648 H 0.61774 0.35654 0.37878 0.0
C649 C 0.63269 0.42761 0.33424 0.0
C650 C 0.61975 0.45002 0.34409 0.0
C651 C 0.64462 0.40019 0.34063 0.0
C652 C 0.64142 0.35091 0.37612 0.0
H653 H 0.75703 0.24318 0.39611 0.0
H654 H 0.7304 0.27584 0.37677 0.0
H655 H 0.64345 0.31735 0.39443 0.0
H656 H 0.608 0.46092 0.36812 0.0
H657 H 0.62771 0.41327 0.3791 0.0
H658 H 0.70068 0.37032 0.35201 0.0
C659 C 0.72565 0.27906 0.38912 0.0
C660 C 0.65623 0.32852 0.38514 0.0
C661 C 0.74084 0.26032 0.40016 0.0
C662 C 0.61773 0.444 0.36024 0.0
C663 C 0.62897 0.41661 0.36652 0.0
C664 C 0.68779 0.35836 0.361 0.0
C665 C 0.70411 0.3013 0.39402 0.0
C666 C 0.6874 0.32148 0.38265 0.0
C667 C 0.64307 0.39455 0.35689 0.0
C668 C 0.65726 0.36685 0.36428 0.0
H669 H 0.70885 0.28965 0.43342 0.0
H670 H 0.68281 0.32197 0.41444 0.0
H671 H 0.72674 0.33107 0.36787 0.0
H672 H 0.63487 0.43189 0.32178 0.0
H673 H 0.65534 0.38359 0.33291 0.0
C674 C 0.82049 0.36415 0.11076 0.0
C675 C 0.80391 0.37941 0.0989 0.0
C676 C 0.84594 0.37793 0.11777 0.0
C677 C 0.90582 0.43658 0.11485 0.0
H678 H 0.89793 0.43878 0.1601 0.0
C679 C 0.99272 0.50049 0.15612 0.0
C680 C 0.99813 0.48676 0.17078 0.0
C681 C 0.97016 0.48852 0.14602 0.0
C682 C 0.90091 0.43803 0.14751 0.0
H683 H 0.80275 0.42052 0.08444 0.0
H684 H 0.8478 0.44437 0.09663 0.0
H685 H 0.85798 0.41498 0.14449 0.0
H686 H 0.98558 0.4489 0.18599 0.0
H687 H 0.94766 0.42748 0.16838 0.0
H688 H 0.94933 0.45897 0.11797 0.0
C689 C 0.84066 0.42176 0.10051 0.0
C690 C 0.87782 0.42448 0.13855 0.0
C691 C 0.81484 0.40806 0.09355 0.0
C692 C 0.9816 0.46029 0.17487 0.0
C693 C 0.95958 0.44814 0.16478 0.0
C694 C 0.92932 0.44986 0.12389 0.0
C695 C 0.85582 0.40722 0.11304 0.0
C696 C 0.88015 0.42318 0.12216 0.0
C697 C 0.95289 0.46244 0.15037 0.0
C698 C 0.92739 0.45027 0.14039 0.0
H699 H 0.8131 0.34201 0.11517 0.0
H700 H 0.85747 0.36598 0.12725 0.0
H701 H 0.90814 0.43595 0.10221 0.0
H702 H 0.0052 0.52094 0.15268 0.0
H703 H 0.96566 0.50021 0.13505 0.0
C704 C 0.65062 0.96584 0.66338 0.0
C705 C 0.63658 0.96463 0.67821 0.0
C706 C 0.66131 0.93912 0.65615 0.0
C707 C 0.69396 0.86462 0.66213 0.0
H708 H 0.66333 0.84663 0.62049 0.0
C709 C 0.74077 0.76289 0.62385 0.0
C710 C 0.74315 0.76887 0.6077 0.0
C711 C 0.72613 0.7841 0.63383 0.0
C712 C 0.67246 0.85141 0.63203 0.0
H713 H 0.62319 0.93435 0.69721 0.0
H714 H 0.643 0.88733 0.68464 0.0
H715 H 0.64089 0.88862 0.63545 0.0
H716 H 0.73314 0.80208 0.58945 0.0
H717 H 0.70894 0.83909 0.60664 0.0
H718 H 0.72674 0.82847 0.65839 0.0
C719 C 0.64521 0.90916 0.67862 0.0
C720 C 0.65933 0.87533 0.64065 0.0
C721 C 0.63377 0.93597 0.68575 0.0
C722 C 0.73139 0.79662 0.60181 0.0
C723 C 0.71717 0.81778 0.6117 0.0
C724 C 0.70753 0.84087 0.65338 0.0
C725 C 0.65884 0.91055 0.66369 0.0
C726 C 0.67031 0.88257 0.65564 0.0
C727 C 0.71378 0.81171 0.62781 0.0
C728 C 0.69746 0.83447 0.63802 0.0
H729 H 0.65306 0.98749 0.65721 0.0
H730 H 0.67183 0.94081 0.64467 0.0
H731 H 0.7029 0.86989 0.67366 0.0
H732 H 0.7496 0.74162 0.62869 0.0
H733 H 0.72393 0.77856 0.64615 0.0
C734 C 0.96838 0.97446 0.85699 0.0
C735 C 0.99425 0.9867 0.86451 0.0
C736 C 0.94366 0.96329 0.86572 0.0
C737 C 0.92096 0.93583 0.90521 0.0
H738 H 0.83905 0.95093 0.88909 0.0
C739 C 0.80812 0.89801 0.93719 0.0
C740 C 0.78689 0.88297 0.92745 0.0
C741 C 0.83397 0.91257 0.93073 0.0
C742 C 0.86178 0.94646 0.89373 0.0
H743 H 0.01481 0.9966 0.88706 0.0
H744 H 0.97132 0.97735 0.90241 0.0
H745 H 0.88324 0.97257 0.87556 0.0
H746 H 0.77611 0.87168 0.90327 0.0
H747 H 0.82064 0.89702 0.89216 0.0
H748 H 0.89914 0.90956 0.9234 0.0
C749 C 0.97028 0.97608 0.88975 0.0
C750 C 0.88715 0.95874 0.88594 0.0
C751 C 0.99513 0.98721 0.88097 0.0
C752 C 0.79197 0.88293 0.91117 0.0
C753 C 0.81743 0.89769 0.90475 0.0
C754 C 0.89545 0.92363 0.91309 0.0
C755 C 0.94409 0.96425 0.88221 0.0
C756 C 0.91712 0.95304 0.89135 0.0
C757 C 0.83871 0.91274 0.91441 0.0
C758 C 0.86565 0.92828 0.90722 0.0
H759 H 0.96715 0.97364 0.84431 0.0
H760 H 0.92421 0.95375 0.85951 0.0
H761 H 0.9437 0.93084 0.90967 0.0
H762 H 0.80484 0.89845 0.94978 0.0
H763 H 0.84998 0.92409 0.93845 0.0
C764 C 0.89102 0.05999 0.17239 0.0
C765 C 0.87835 0.0397 0.18348 0.0
C766 C 0.87449 0.08565 0.16723 0.0
C767 C 0.79623 0.11269 0.1611 0.0
H768 H 0.83403 0.19286 0.1564 0.0
C769 C 0.74976 0.20844 0.12015 0.0
C770 C 0.74951 0.23862 0.12595 0.0
C771 C 0.76304 0.18461 0.12887 0.0
C772 C 0.82306 0.17068 0.15777 0.0
H773 H 0.83844 0.03072 0.19799 0.0
H774 H 0.8093 0.07537 0.18873 0.0
H775 H 0.86274 0.15103 0.16882 0.0
H776 H 0.76238 0.26755 0.14552 0.0
H777 H 0.78611 0.22593 0.16067 0.0
H778 H 0.75688 0.13212 0.14963 0.0
C779 C 0.83216 0.07141 0.18413 0.0
C780 C 0.83957 0.14671 0.16478 0.0
C781 C 0.84893 0.04598 0.1895 0.0
C782 C 0.76219 0.24445 0.14079 0.0
C783 C 0.77591 0.2207 0.14941 0.0
C784 C 0.77989 0.13655 0.15388 0.0
C785 C 0.84469 0.09138 0.17285 0.0
C786 C 0.82643 0.11739 0.16641 0.0
C787 C 0.77675 0.19058 0.14347 0.0
C788 C 0.79322 0.16574 0.15203 0.0
H789 H 0.91363 0.05584 0.16753 0.0
H790 H 0.88465 0.10048 0.15844 0.0
H791 H 0.7856 0.09027 0.1621 0.0
H792 H 0.74019 0.20334 0.10872 0.0
H793 H 0.76355 0.1617 0.12392 0.0
C794 C 0.71421 0.10031 0.43474 0.0
C795 C 0.71259 0.1306 0.4404 0.0
C796 C 0.688 0.08517 0.42945 0.0
C797 C 0.61281 0.10112 0.41197 0.0
H798 H 0.6034 0.01281 0.41596 0.0
C799 C 0.54022 0.03071 0.36833 0.0
C800 C 0.52294 0.00581 0.37398 0.0
C801 C 0.56074 0.04622 0.37814 0.0
C802 C 0.60535 0.03752 0.41484 0.0
H803 H 0.68186 0.16838 0.44555 0.0
H804 H 0.6355 0.14177 0.43622 0.0
H805 H 0.64226 0.03927 0.43139 0.0
H806 H 0.51362 0.97755 0.39433 0.0
H807 H 0.54942 1.00467 0.41156 0.0
H808 H 0.57595 0.09935 0.39537 0.0
C809 C 0.65733 0.12984 0.43584 0.0
C810 C 0.62786 0.0527 0.42361 0.0
C811 C 0.68376 0.14499 0.44133 0.0
C812 C 0.5268 0.99654 0.38963 0.0
C813 C 0.54735 0.01208 0.39948 0.0
C814 C 0.59028 0.08593 0.40318 0.0
C815 C 0.65928 0.09991 0.42956 0.0
C816 C 0.63238 0.0846 0.42203 0.0
C817 C 0.56449 0.03727 0.39389 0.0
C818 C 0.58668 0.05382 0.40424 0.0
H819 H 0.73608 0.0885 0.43391 0.0
H820 H 0.6906 0.06237 0.42455 0.0
H821 H 0.61573 0.12563 0.41035 0.0
H822 H 0.53776 0.03837 0.3563 0.0
H823 H 0.57394 0.06506 0.3733 0.0
C824 C 0.38758 0.0519 0.36264 0.0
C825 C 0.37916 0.03789 0.34844 0.0
C826 C 0.37069 0.0765 0.36865 0.0
C827 C 0.31493 0.1376 0.35867 0.0
H828 H 0.30061 0.13657 0.40354 0.0
C829 C 0.2415 0.23015 0.39145 0.0
C830 C 0.25425 0.2409 0.40554 0.0
C831 C 0.25453 0.20483 0.38369 0.0
C832 C 0.30455 0.13735 0.39101 0.0
H833 H 0.34671 0.03955 0.32917 0.0
H834 H 0.31704 0.08271 0.33974 0.0
H835 H 0.32767 0.094 0.39127 0.0
H836 H 0.29059 0.23377 0.42252 0.0
H837 H 0.31318 0.18997 0.40911 0.0
H838 H 0.29189 0.18128 0.35853 0.0
C839 C 0.33688 0.07457 0.34618 0.0
C840 C 0.32012 0.11293 0.38396 0.0
C841 C 0.35386 0.0498 0.34013 0.0
C842 C 0.28014 0.22594 0.41172 0.0
C843 C 0.293 0.20068 0.40406 0.0
C844 C 0.29925 0.16215 0.36575 0.0
C845 C 0.34481 0.08785 0.36066 0.0
C846 C 0.3261 0.11299 0.36776 0.0
C847 C 0.28036 0.18969 0.38998 0.0
C848 C 0.29444 0.16257 0.38207 0.0
H849 H 0.40708 0.04363 0.36931 0.0
H850 H 0.37792 0.0866 0.37964 0.0
H851 H 0.31921 0.13842 0.34617 0.0
H852 H 0.22156 0.24133 0.38642 0.0
H853 H 0.24415 0.19684 0.37291 0.0
C854 C 0.02952 1.00168 0.14266 0.0
C855 C 0.02511 0.00775 0.15867 0.0
C856 C 0.05234 0.01727 0.13418 0.0
C857 C 0.12512 0.05917 0.14004 0.0
H858 H 0.11174 0.09005 0.0979 0.0
C859 C 0.22552 0.10267 0.10339 0.0
C860 C 0.22226 0.13106 0.09566 0.0
C861 C 0.20014 0.08758 0.10967 0.0
C862 C 0.11571 0.08171 0.10969 0.0
H863 H 0.04082 0.03497 0.17834 0.0
H864 H 0.08043 0.06201 0.16366 0.0
H865 H 0.0699 0.0639 0.11184 0.0
H866 H 0.18935 0.1651 0.08777 0.0
H867 H 0.1445 0.13855 0.09894 0.0
H868 H 0.1706 0.07705 0.13809 0.0
C869 C 0.06661 0.04507 0.15762 0.0
C870 C 0.09189 0.06646 0.11761 0.0
C871 C 0.04384 0.02963 0.16604 0.0
C872 C 0.1926 0.14329 0.09368 0.0
C873 C 0.16697 0.12808 0.10006 0.0
C874 C 0.14882 0.07419 0.13214 0.0
C875 C 0.07127 0.03907 0.14159 0.0
C876 C 0.09635 0.05503 0.13291 0.0
C877 C 0.17066 0.10043 0.10849 0.0
C878 C 0.14455 0.08549 0.11684 0.0
H879 H 0.01528 0.98501 0.13668 0.0
H880 H 0.0555 0.0119 0.12189 0.0
H881 H 0.12951 0.05044 0.15173 0.0
H882 H 0.24792 0.09222 0.10491 0.0
H883 H 0.20374 0.06597 0.11572 0.0
C884 C 0.23532 0.75789 0.90608 0.0
C885 C 0.24964 0.76793 0.91991 0.0
C886 C 0.22299 0.77933 0.89544 0.0
C887 C 0.22929 0.85952 0.88256 0.0
H888 H 0.14228 0.85643 0.87309 0.0
C889 C 0.16537 0.96683 0.86139 0.0
C890 C 0.14075 0.96437 0.8508 0.0
C891 C 0.17909 0.94068 0.8678 0.0
C892 C 0.16673 0.85741 0.87531 0.0
H893 H 0.26313 0.80799 0.93328 0.0
H894 H 0.24279 0.84519 0.91454 0.0
H895 H 0.16646 0.81396 0.88737 0.0
H896 H 0.1113 0.93209 0.83867 0.0
H897 H 0.13582 0.88611 0.84964 0.0
H898 H 0.22998 0.90263 0.87057 0.0
C899 C 0.24071 0.82091 0.91194 0.0
C900 C 0.18054 0.83305 0.88353 0.0
C901 C 0.25231 0.79961 0.92268 0.0
C902 C 0.1302 0.93485 0.84679 0.0
C903 C 0.1442 0.90849 0.85315 0.0
C904 C 0.21566 0.88356 0.87418 0.0
C905 C 0.22555 0.81108 0.89832 0.0
C906 C 0.21179 0.83431 0.8876 0.0
C907 C 0.16894 0.91106 0.86373 0.0
C908 C 0.18397 0.8834 0.87087 0.0
H909 H 0.23273 0.73356 0.90375 0.0
H910 H 0.21144 0.77116 0.88501 0.0
H911 H 0.25351 0.8609 0.88537 0.0
H912 H 0.17395 0.98911 0.86495 0.0
H913 H 0.19742 0.94384 0.87621 0.0
C914 C 0.31316 0.90458 0.59148 0.0
C915 C 0.29413 0.8847 0.60015 0.0
C916 C 0.33868 0.91856 0.59858 0.0
C917 C 0.36706 0.94233 0.63723 0.0
H918 H 0.44876 0.93852 0.61927 0.0
C919 C 0.47314 0.97123 0.67423 0.0
C920 C 0.49765 0.98686 0.66716 0.0
C921 C 0.44892 0.95994 0.66518 0.0
C922 C 0.42604 0.94024 0.62435 0.0
H923 H 0.28718 0.86399 0.62308 0.0
H924 H 0.33103 0.88847 0.6353 0.0
H925 H 0.4051 0.91769 0.60467 0.0
H926 H 0.51631 1.00277 0.64506 0.0
H927 H 0.47362 0.98361 0.6292 0.0
H928 H 0.38749 0.96499 0.6568 0.0
C929 C 0.32634 0.89329 0.62307 0.0
C930 C 0.40106 0.92827 0.61598 0.0
C931 C 0.30126 0.87908 0.61598 0.0
C932 C 0.4977 0.99069 0.6508 0.0
C933 C 0.47329 0.97959 0.64172 0.0
C934 C 0.39186 0.95452 0.64551 0.0
C935 C 0.34525 0.91331 0.61451 0.0
C936 C 0.37142 0.92864 0.62249 0.0
C937 C 0.44841 0.96429 0.64882 0.0
C938 C 0.42182 0.95308 0.63936 0.0
H939 H 0.30832 0.90937 0.57927 0.0
H940 H 0.35288 0.93396 0.59172 0.0
H941 H 0.34438 0.94343 0.64243 0.0
H942 H 0.4726 0.96778 0.68681 0.0
H943 H 0.43061 0.94766 0.67106 0.0
C944 C 0.26469 0.99152 0.04821 0.0
C945 C 0.28848 0.00734 0.04062 0.0
C946 C 0.26319 0.95933 0.04746 0.0
C947 C 0.25257 0.89641 0.03268 0.0
H948 H 0.32524 0.84575 0.028 0.0
C949 C 0.25303 0.78497 0.99635 0.0
C950 C 0.27434 0.7616 0.99975 0.0
C951 C 0.25257 0.81214 1.0051 0.0
C952 C 0.30455 0.85923 0.02955 0.0
H953 H 0.32969 1.00242 0.02672 0.0
H954 H 0.32723 0.94664 0.0253 0.0
H955 H 0.33021 0.89803 0.03757 0.0
H956 H 0.31037 0.74759 0.01579 0.0
H957 H 0.30896 0.79455 0.03135 0.0
H958 H 0.22689 0.85753 0.02472 0.0
C959 C 0.30999 0.95856 0.03213 0.0
C960 C 0.30748 0.88949 0.03485 0.0
C961 C 0.31145 0.99057 0.03291 0.0
C962 C 0.29383 0.76523 1.01275 0.0
C963 C 0.29319 0.79233 0.02161 0.0
C964 C 0.2496 0.86603 0.02749 0.0
C965 C 0.28538 0.94248 0.03902 0.0
C966 C 0.28167 0.90885 0.036 0.0
C967 C 0.27322 0.81659 0.01759 0.0
C968 C 0.27566 0.84729 0.02538 0.0
H969 H 0.24648 1.00411 0.05402 0.0
H970 H 0.24412 0.94774 0.05306 0.0
H971 H 0.23213 0.91056 0.03332 0.0
H972 H 0.23771 0.78303 0.98641 0.0
H973 H 0.23708 0.83028 1.00148 0.0
C974 C 0.98452 0.50441 0.24851 0.0
C975 C 1.00293 0.53094 0.24836 0.0
C976 C 0.95768 0.50326 0.25753 0.0
C977 C 0.89879 0.55479 0.27366 0.0
H978 H 0.86896 0.48066 0.29377 0.0
C979 C 0.77549 0.54957 0.29807 0.0
C980 C 0.75904 0.52329 0.29354 0.0
C981 C 0.8076 0.55035 0.29669 0.0
C982 C 0.87688 0.50156 0.28818 0.0
H983 H 0.00818 0.57657 0.25824 0.0
H984 H 0.96141 0.57449 0.27398 0.0
H985 H 0.92114 0.48212 0.28332 0.0
H986 H 0.76338 0.47647 0.28526 0.0
H987 H 0.81896 0.47778 0.28273 0.0
H988 H 0.85428 0.57388 0.27788 0.0
C989 C 0.9676 0.55468 0.26698 0.0
C990 C 0.90683 0.50238 0.28219 0.0
C991 C 0.99456 0.55576 0.25802 0.0
C992 C 0.77547 0.49708 0.28879 0.0
C993 C 0.80744 0.49783 0.28742 0.0
C994 C 0.86881 0.55393 0.27957 0.0
C995 C 0.94846 0.52867 0.26658 0.0
C996 C 0.91796 0.5288 0.27457 0.0
C997 C 0.82389 0.52483 0.29079 0.0
C998 C 0.85717 0.52708 0.28661 0.0
H999 H 0.99023 0.48485 0.24122 0.0
H1000 H 0.94339 0.48295 0.25682 0.0
H1001 H 0.90642 0.5754 0.26769 0.0
H1002 H 0.76344 0.57017 0.30169 0.0
H1003 H 0.81953 0.57136 0.29967 0.0
C1004 C 0.23299 0.25632 0.47911 0.0
C1005 C 0.20421 0.26038 0.47196 0.0
C1006 C 0.23723 0.2333 0.49047 0.0
C1007 C 0.19622 0.1776 0.51648 0.0
H1008 H 0.26422 0.1236 0.50646 0.0
C1009 C 0.19809 0.04852 0.53285 0.0
C1010 C 0.22642 0.03336 0.53423 0.0
C1011 C 0.19697 0.08003 0.5294 0.0
C1012 C 0.24549 0.13862 0.50978 0.0
H1013 H 0.15684 0.24517 0.47195 0.0
H1014 H 0.16406 0.20558 0.49179 0.0
H1015 H 0.25964 0.17277 0.49321 0.0
H1016 H 0.27568 0.03942 0.53424 0.0
H1017 H 0.27391 0.0946 0.52905 0.0
H1018 H 0.18169 0.14311 0.53283 0.0
C1019 C 0.18345 0.21991 0.48867 0.0
C1020 C 0.24286 0.16696 0.50211 0.0
C1021 C 0.17933 0.24256 0.47722 0.0
C1022 C 0.25354 0.05067 0.53334 0.0
C1023 C 0.25246 0.08221 0.53011 0.0
C1024 C 0.19897 0.14931 0.52427 0.0
C1025 C 0.21266 0.21423 0.49505 0.0
C1026 C 0.2178 0.18649 0.50506 0.0
C1027 C 0.22421 0.0971 0.52736 0.0
C1028 C 0.22326 0.12904 0.52076 0.0
H1029 H 0.25264 0.26957 0.47525 0.0
H1030 H 0.25997 0.22972 0.49528 0.0
H1031 H 0.17681 0.19226 0.51917 0.0
H1032 H 0.17688 0.03556 0.53318 0.0
H1033 H 0.17476 0.09041 0.52727 0.0
C1034 C 0.72101 0.43189 0.783 0.0
C1035 C 0.73629 0.4597 0.78581 0.0
C1036 C 0.68975 0.43175 0.77904 0.0
C1037 C 0.6325 0.48403 0.76076 0.0
H1038 H 0.57811 0.41453 0.7666 0.0
C1039 C 0.51546 0.47753 0.72883 0.0
C1040 C 0.51152 0.45004 0.72044 0.0
C1041 C 0.53837 0.4798 0.74037 0.0
C1042 C 0.59299 0.43418 0.76491 0.0
H1043 H 0.73069 0.50894 0.78766 0.0
H1044 H 0.67588 0.50875 0.78159 0.0
H1045 H 0.62657 0.41665 0.78096 0.0
H1046 H 0.52693 0.40285 0.71832 0.0
H1047 H 0.56623 0.40661 0.7385 0.0
H1048 H 0.59916 0.50125 0.74451 0.0
C1049 C 0.688 0.48702 0.78196 0.0
C1050 C 0.62089 0.43535 0.77309 0.0
C1051 C 0.7193 0.48715 0.78572 0.0
C1052 C 0.52944 0.42437 0.72457 0.0
C1053 C 0.55192 0.42649 0.73621 0.0
C1054 C 0.60451 0.48298 0.7527 0.0
C1055 C 0.67304 0.45947 0.77787 0.0
C1056 C 0.64145 0.45994 0.77086 0.0
C1057 C 0.55739 0.45448 0.74392 0.0
C1058 C 0.58473 0.45769 0.75436 0.0
H1059 H 0.73377 0.41051 0.78265 0.0
H1060 H 0.67935 0.41006 0.77584 0.0
H1061 H 0.64775 0.50312 0.75842 0.0
H1062 H 0.50215 0.49775 0.72584 0.0
H1063 H 0.54183 0.50163 0.74619 0.0
C1064 C 0.73158 0.24534 0.0496 0.0
C1065 C 0.70322 0.25673 0.05491 0.0
C1066 C 0.73271 0.22092 0.03886 0.0
C1067 C 0.68403 0.15561 0.02602 0.0
H1068 H 0.75009 0.14088 0.99652 0.0
C1069 C 0.69029 0.04096 0.99293 0.0
C1070 C 0.71902 0.02639 0.99393 0.0
C1071 C 0.68741 0.07239 0.99632 0.0
C1072 C 0.73145 0.14465 1.0047 0.0
H1073 H 0.6539 0.25321 0.05213 0.0
H1074 H 0.6558 0.21173 0.03305 0.0
H1075 H 0.74702 0.19016 1.0102 0.0
H1076 H 0.76754 0.03372 0.99791 0.0
H1077 H 0.76268 0.08835 1.0037 0.0
H1078 H 0.66884 0.11004 0.02089 0.0
C1079 C 0.67724 0.22069 0.03755 0.0
C1080 C 0.72975 0.17291 1.0126 0.0
C1081 C 0.67613 0.24474 0.0484 0.0
C1082 C 0.74512 0.04441 0.99699 0.0
C1083 C 0.74229 0.07578 1.00031 0.0
C1084 C 0.68567 0.12752 0.01811 0.0
C1085 C 0.70547 0.20757 0.03307 0.0
C1086 C 0.70623 0.17864 0.02355 0.0
C1087 C 0.71323 0.08991 1.00072 0.0
C1088 C 0.70964 0.1214 1.00752 0.0
H1089 H 0.75285 0.25392 0.0545 0.0
H1090 H 0.7549 0.21143 0.03579 0.0
H1091 H 0.66594 0.15869 0.03459 0.0
H1092 H 0.66976 0.0276 0.99076 0.0
H1093 H 0.66473 0.08262 0.99625 0.0
C1094 C 0.01541 0.47911 0.79599 0.0
C1095 C 0.01132 0.45138 0.80419 0.0
C1096 C 0.03806 0.48149 0.78431 0.0
C1097 C 0.09216 0.43585 0.7594 0.0
H1098 H 0.14707 0.50464 0.76583 0.0
C1099 C 0.22065 0.43328 0.74228 0.0
C1100 C 0.23594 0.46108 0.7394 0.0
C1101 C 0.18921 0.43314 0.74588 0.0
C1102 C 0.13176 0.4856 0.76351 0.0
H1103 H 0.02611 0.40389 0.80581 0.0
H1104 H 0.06503 0.40789 0.78546 0.0
H1105 H 0.09849 0.50285 0.77976 0.0
H1106 H 0.23023 0.51021 0.73695 0.0
H1107 H 0.17516 0.50999 0.74243 0.0
H1108 H 0.12585 0.4182 0.74343 0.0
C1109 C 0.05102 0.42787 0.78798 0.0
C1110 C 0.10377 0.48459 0.77157 0.0
C1111 C 0.02876 0.42562 0.79973 0.0
C1112 C 0.21883 0.48843 0.73895 0.0
C1113 C 0.18738 0.48829 0.74237 0.0
C1114 C 0.12012 0.43694 0.75124 0.0
C1115 C 0.0567 0.45607 0.78046 0.0
C1116 C 0.08395 0.45933 0.76994 0.0
C1117 C 0.1724 0.46084 0.74662 0.0
C1118 C 0.14071 0.46148 0.75348 0.0
H1119 H 1.00244 0.49939 0.79922 0.0
H1120 H 0.04164 0.50348 0.77864 0.0
H1121 H 0.07725 0.41623 0.75771 0.0
H1122 H 0.23349 0.41198 0.74305 0.0
H1123 H 0.17874 0.41154 0.7492 0.0
C1124 C 0.75924 0.99308 0.49492 0.0
C1125 C 0.78575 0.00881 0.49002 0.0
C1126 C 0.75899 0.96104 0.496 0.0
C1127 C 0.81293 0.89691 0.50244 0.0
H1128 H 0.73928 0.84761 0.49823 0.0
C1129 C 0.81108 0.76943 0.52134 0.0
C1130 C 0.7863 0.76108 0.53104 0.0
C1131 C 0.8106 0.79713 0.51295 0.0
C1132 C 0.76004 0.86106 0.49949 0.0
H1133 H 0.83217 1.0031 0.48143 0.0
H1134 H 0.83165 0.94685 0.48299 0.0
H1135 H 0.73945 0.90064 0.48883 0.0
H1136 H 0.74082 0.77465 0.53877 0.0
H1137 H 0.73993 0.82279 0.52412 0.0
H1138 H 0.83331 0.85756 0.51338 0.0
C1139 C 0.81116 0.95941 0.48628 0.0
C1140 C 0.76016 0.8915 0.4941 0.0
C1141 C 0.81136 0.99161 0.48517 0.0
C1142 C 0.76031 0.78029 0.53143 0.0
C1143 C 0.75976 0.80791 0.52297 0.0
C1144 C 0.81286 0.86643 0.50775 0.0
C1145 C 0.78528 0.94375 0.4922 0.0
C1146 C 0.78639 0.91011 0.49583 0.0
C1147 C 0.78524 0.8171 0.51396 0.0
C1148 C 0.78621 0.84831 0.50666 0.0
H1149 H 0.7391 0.00574 0.49868 0.0
H1150 H 0.73872 0.95002 0.50073 0.0
H1151 H 0.83342 0.91053 0.50423 0.0
H1152 H 0.83148 0.75521 0.52072 0.0
H1153 H 0.83043 0.80325 0.50595 0.0
C1154 C 0.27787 0.54652 0.23236 0.0
C1155 C 0.26159 0.51978 0.23638 0.0
C1156 C 0.30999 0.54735 0.23359 0.0
C1157 C 0.37969 0.49816 0.24086 0.0
H1158 H 0.40977 0.57136 0.26161 0.0
C1159 C 0.48871 0.50093 0.2797 0.0
C1160 C 0.5068 0.5277 0.27978 0.0
C1161 C 0.46172 0.49954 0.2708 0.0
C1162 C 0.40198 0.55093 0.25557 0.0
H1163 H 0.26643 0.47219 0.2435 0.0
H1164 H 0.32196 0.47371 0.24595 0.0
H1165 H 0.35726 0.56998 0.25203 0.0
H1166 H 0.5115 0.57333 0.26975 0.0
H1167 H 0.46452 0.57082 0.25425 0.0
H1168 H 0.42423 0.47871 0.24511 0.0
C1169 C 0.31027 0.4941 0.24177 0.0
C1170 C 0.37176 0.55015 0.25 0.0
C1171 C 0.27829 0.49327 0.24048 0.0
C1172 C 0.49812 0.55237 0.27005 0.0
C1173 C 0.47104 0.55104 0.26123 0.0
C1174 C 0.40988 0.49887 0.24654 0.0
C1175 C 0.32654 0.52145 0.23887 0.0
C1176 C 0.35994 0.52355 0.24284 0.0
C1177 C 0.45208 0.52493 0.26182 0.0
C1178 C 0.42122 0.52508 0.25422 0.0
H1179 H 0.26571 0.56736 0.2292 0.0
H1180 H 0.32174 0.56864 0.23093 0.0
H1181 H 0.37168 0.47745 0.23515 0.0
H1182 H 0.49467 0.48149 0.28704 0.0
H1183 H 0.4476 0.47913 0.27161 0.0
C1184 C 0.78332 0.48822 0.55035 0.0
C1185 C 0.80631 0.5048 0.54253 0.0
C1186 C 0.78162 0.45613 0.5488 0.0
C1187 C 0.76862 0.39546 0.53225 0.0
H1188 H 0.8397 0.34425 0.52404 0.0
C1189 C 0.76247 0.28778 0.49309 0.0
C1190 C 0.78294 0.26323 0.49559 0.0
C1191 C 0.76407 0.31437 0.50226 0.0
C1192 C 0.81948 0.3579 0.52654 0.0
H1193 H 0.8462 0.50111 0.52756 0.0
H1194 H 0.84345 0.44556 0.52481 0.0
H1195 H 0.84666 0.39521 0.53511 0.0
H1196 H 0.82002 0.24682 0.51036 0.0
H1197 H 0.82232 0.29287 0.52661 0.0
H1198 H 0.74143 0.35809 0.52372 0.0
C1199 C 0.82695 0.45679 0.53238 0.0
C1200 C 0.82353 0.38741 0.53273 0.0
C1201 C 0.82861 0.48871 0.53394 0.0
C1202 C 0.80401 0.26533 0.50803 0.0
C1203 C 0.80549 0.29191 0.51728 0.0
C1204 C 0.76455 0.36585 0.52616 0.0
C1205 C 0.80281 0.44011 0.53932 0.0
C1206 C 0.79824 0.40698 0.53524 0.0
C1207 C 0.78604 0.31713 0.51428 0.0
C1208 C 0.78997 0.34696 0.52278 0.0
H1209 H 0.76558 0.50023 0.55682 0.0
H1210 H 0.76298 0.44406 0.55451 0.0
H1211 H 0.74854 0.40979 0.5339 0.0
H1212 H 0.74599 0.28707 0.48359 0.0
H1213 H 0.74893 0.33332 0.4994 0.0
C1214 C 0.29164 0.0553 0.79185 0.0
C1215 C 0.2763 0.02702 0.79273 0.0
C1216 C 0.32353 0.05623 0.78976 0.0
C1217 C 0.3839 0.00698 0.77245 0.0
H1218 H 0.43599 0.07652 0.78222 0.0
C1219 C 0.50283 0.01947 0.74381 0.0
C1220 C 0.50675 0.04788 0.73621 0.0
C1221 C 0.47944 0.01559 0.75494 0.0
C1222 C 0.42177 0.05686 0.77947 0.0
H1223 H 0.28217 0.9777 0.79344 0.0
H1224 H 0.33798 0.97916 0.7907 0.0
H1225 H 0.38598 0.0716 0.79499 0.0
H1226 H 0.49082 0.09508 0.73521 0.0
H1227 H 0.45038 0.0884 0.75463 0.0
H1228 H 0.41931 0.99262 0.7567 0.0
C1229 C 0.3255 1.00069 0.79106 0.0
C1230 C 0.39302 0.05407 0.78673 0.0
C1231 C 0.29359 0.99979 0.79289 0.0
C1232 C 0.48831 0.07285 0.7408 0.0
C1233 C 0.4652 0.06907 0.75202 0.0
C1234 C 0.41269 0.00962 0.76533 0.0
C1235 C 0.34075 0.02885 0.78864 0.0
C1236 C 0.37329 0.02953 0.78299 0.0
C1237 C 0.45977 0.04013 0.75882 0.0
C1238 C 0.43163 0.03501 0.76841 0.0
H1239 H 0.2787 0.07657 0.79141 0.0
H1240 H 0.3342 0.07837 0.78783 0.0
H1241 H 0.36934 0.98805 0.76896 0.0
H1242 H 0.51663 0.99977 0.74053 0.0
H1243 H 0.47603 0.99308 0.76009 0.0
C1244 C 0.67454 0.73761 0.97957 0.0
C1245 C 0.6991 0.75617 0.97461 0.0
C1246 C 0.67878 0.71528 0.99117 0.0
C1247 C 0.73927 0.66466 1.00548 0.0
H1248 H 0.67738 0.63859 0.03534 0.0
C1249 C 0.75257 0.54911 0.03701 0.0
C1250 C 0.7261 0.53073 0.0375 0.0
C1251 C 0.75044 0.58053 0.03368 0.0
C1252 C 0.69487 0.64545 0.02703 0.0
H1253 H 0.74695 0.76716 0.97862 0.0
H1254 H 0.75448 0.72792 0.99891 0.0
H1255 H 0.67147 0.68759 0.02162 0.0
H1256 H 0.67659 0.53095 0.03568 0.0
H1257 H 0.6727 0.58562 0.02951 0.0
H1258 H 0.76191 0.6221 1.01011 0.0
C1259 C 0.73193 0.73062 0.99374 0.0
C1260 C 0.69153 0.67363 0.01921 0.0
C1261 C 0.72757 0.75327 0.98222 0.0
C1262 C 0.69729 0.54472 0.03559 0.0
C1263 C 0.69515 0.57612 0.03203 0.0
C1264 C 0.74249 0.63645 1.01317 0.0
C1265 C 0.70779 0.71074 0.998 0.0
C1266 C 0.71339 0.68328 1.00809 0.0
C1267 C 0.72181 0.59423 0.03044 0.0
C1268 C 0.72004 0.62608 0.02384 0.0
H1269 H 0.65229 0.73937 0.97396 0.0
H1270 H 0.65975 0.70031 0.99405 0.0
H1271 H 0.75628 0.67108 0.99681 0.0
H1272 H 0.77506 0.53881 0.03844 0.0
H1273 H 0.77142 0.59378 0.03299 0.0
C1274 C 0.02029 0.97536 0.23141 0.0
C1275 C 0.00974 0.94706 0.22566 0.0
C1276 C 0.04459 0.97635 0.2422 0.0
C1277 C 0.11078 0.92759 0.25402 0.0
H1278 H 0.12749 0.9946 0.28263 0.0
C1279 C 0.22732 0.93521 0.28509 0.0
C1280 C 0.24198 0.96362 0.28293 0.0
C1281 C 0.19571 0.93232 0.28235 0.0
C1282 C 0.12308 0.97566 0.27473 0.0
H1283 H 0.01418 0.89767 0.2277 0.0
H1284 H 0.05508 0.89923 0.24713 0.0
H1285 H 0.07709 0.99087 0.27013 0.0
H1286 H 0.23479 0.01173 0.27752 0.0
H1287 H 0.17973 0.00682 0.27288 0.0
H1288 H 0.15679 0.91269 0.25836 0.0
C1289 C 0.0458 0.92077 0.24288 0.0
C1290 C 0.09422 0.97358 0.26749 0.0
C1291 C 0.02205 0.91982 0.23188 0.0
C1292 C 0.22404 0.98954 0.27926 0.0
C1293 C 0.19246 0.98672 0.27665 0.0
C1294 C 0.1394 0.92952 0.26134 0.0
C1295 C 0.05849 0.94902 0.24763 0.0
C1296 C 0.08783 0.94979 0.25679 0.0
C1297 C 0.17812 0.95784 0.27753 0.0
C1298 C 0.14617 0.95386 0.27157 0.0
H1299 H 0.01144 0.99671 0.22666 0.0
H1300 H 0.05369 0.99858 0.24546 0.0
H1301 H 0.10728 0.90933 0.2456 0.0
H1302 H 0.24061 0.91481 0.2878 0.0
H1303 H 0.18527 0.90981 0.28333 0.0
C1304 C 0.17514 0.74908 0.54253 0.0
C1305 C 0.2018 0.76167 0.54917 0.0
C1306 C 0.17707 0.72517 0.53165 0.0
C1307 C 0.23134 0.67757 0.50758 0.0
H1308 H 0.17232 0.61344 0.5169 0.0
C1309 C 0.25105 0.54855 0.49458 0.0
C1310 C 0.2256 0.52963 0.49149 0.0
C1311 C 0.2472 0.57996 0.4975 0.0
C1312 C 0.18863 0.63124 0.51384 0.0
H1313 H 0.25149 0.76037 0.54893 0.0
H1314 H 0.255 0.71805 0.5302 0.0
H1315 H 0.16757 0.66299 0.52955 0.0
H1316 H 0.17639 0.52934 0.48787 0.0
H1317 H 0.16963 0.58434 0.49269 0.0
H1318 H 0.25308 0.64494 0.49231 0.0
C1319 C 0.23251 0.72697 0.53314 0.0
C1320 C 0.18591 0.65985 0.52113 0.0
C1321 C 0.23055 0.75131 0.54388 0.0
C1322 C 0.19647 0.5433 0.49015 0.0
C1323 C 0.19257 0.57476 0.49312 0.0
C1324 C 0.23414 0.64877 0.5003 0.0
C1325 C 0.20573 0.71276 0.52735 0.0
C1326 C 0.20742 0.68336 0.51829 0.0
C1327 C 0.21774 0.59324 0.49742 0.0
C1328 C 0.21304 0.62508 0.50352 0.0
H1329 H 0.15265 0.75677 0.54631 0.0
H1330 H 0.15596 0.71554 0.52711 0.0
H1331 H 0.24813 0.69516 0.50493 0.0
H1332 H 0.27383 0.53869 0.4956 0.0
H1333 H 0.2671 0.59334 0.50082 0.0
C1334 C 0.72112 0.98979 0.2473 0.0
C1335 C 0.7385 0.96356 0.24351 0.0
C1336 C 0.68949 0.9876 0.24989 0.0
C1337 C 0.6359 0.9307 0.26505 0.0
H1338 H 0.57478 0.99414 0.25805 0.0
C1339 C 0.52058 0.92246 0.29645 0.0
C1340 C 0.50977 0.94962 0.30339 0.0
C1341 C 0.54335 0.92344 0.28493 0.0
C1342 C 0.59158 0.97625 0.26017 0.0
H1343 H 0.73599 0.915 0.23821 0.0
H1344 H 0.68057 0.91114 0.24255 0.0
H1345 H 0.62451 0.99726 0.24479 0.0
H1346 H 0.51292 0.99923 0.30314 0.0
H1347 H 0.55358 1.0011 0.28341 0.0
H1348 H 0.60419 0.91047 0.28102 0.0
C1349 C 0.6915 0.93337 0.24371 0.0
C1350 C 0.62005 0.97798 0.25251 0.0
C1351 C 0.72317 0.93561 0.24104 0.0
C1352 C 0.52067 0.97797 0.29785 0.0
C1353 C 0.54403 0.97896 0.28652 0.0
C1354 C 0.60768 0.92909 0.27278 0.0
C1355 C 0.67453 0.95906 0.24882 0.0
C1356 C 0.64274 0.95545 0.25505 0.0
C1357 C 0.55654 0.95159 0.28036 0.0
C1358 C 0.58521 0.95205 0.27067 0.0
H1359 H 0.73237 0.01165 0.24924 0.0
H1360 H 0.67724 0.00783 0.25385 0.0
H1361 H 0.653 0.91329 0.26759 0.0
H1362 H 0.51236 0.90029 0.30045 0.0
H1363 H 0.55157 0.90193 0.28012 0.0
C1364 C 0.31769 0.26884 0.02788 0.0
C1365 C 0.29382 0.26469 0.03879 0.0
C1366 C 0.31855 0.29502 0.01829 0.0
C1367 C 0.27235 0.36352 1.00539 0.0
H1368 H 0.35238 0.40171 1.00177 0.0
C1369 C 0.32454 0.49241 1.00051 0.0
C1370 C 0.30372 0.50595 0.99 0.0
C1371 C 0.32546 0.46058 1.00251 0.0
C1372 C 0.32982 0.3914 1.00264 0.0
H1373 H 0.25141 0.2843 0.04763 0.0
H1374 H 0.25322 0.32998 0.03128 0.0
H1375 H 0.34811 0.35057 1.01301 0.0
H1376 H 0.26859 0.49687 0.97273 0.0
H1377 H 0.2705 0.44075 0.97594 0.0
H1378 H 0.25391 0.40526 0.99596 0.0
C1379 C 0.27109 0.31289 0.02986 0.0
C1380 C 0.32739 0.36177 1.00893 0.0
C1381 C 0.27012 0.28665 0.03935 0.0
C1382 C 0.28505 0.48691 0.98079 0.0
C1383 C 0.2859 0.45485 0.98281 0.0
C1384 C 0.27477 0.39327 0.9992 0.0
C1385 C 0.29568 0.31784 0.01943 0.0
C1386 C 0.29853 0.34768 1.01079 0.0
C1387 C 0.30552 0.44134 0.99404 0.0
C1388 C 0.30347 0.40797 0.99815 0.0
H1389 H 0.33624 0.25232 0.02706 0.0
H1390 H 0.33754 0.29764 1.0102 0.0
H1391 H 0.24978 0.35326 1.00633 0.0
H1392 H 0.33898 0.50667 1.00785 0.0
H1393 H 0.34058 0.4513 1.01141 0.0
C1394 C 1.00202 0.02116 0.7888 0.0
C1395 C 1.00436 0.04883 0.7972 0.0
C1396 C 0.97888 0.01728 0.77756 0.0
C1397 C 0.91972 0.0578 0.7538 0.0
H1398 H 0.86987 0.9863 0.76293 0.0
C1399 C 0.79033 0.052 0.73993 0.0
C1400 C 0.77603 0.02327 0.7386 0.0
C1401 C 0.82203 0.05395 0.74248 0.0
C1402 C 0.88373 0.00602 0.75981 0.0
H1403 H 0.98589 0.09489 0.79953 0.0
H1404 H 0.94596 0.08829 0.77981 0.0
H1405 H 0.9194 0.99202 0.77552 0.0
H1406 H 0.78359 0.9742 0.73768 0.0
H1407 H 0.83916 0.97746 0.74116 0.0
H1408 H 0.88381 0.07208 0.73826 0.0
C1409 C 0.9618 0.06952 0.78193 0.0
C1410 C 0.91224 0.00931 0.76712 0.0
C1411 C 0.98461 0.07325 0.7933 0.0
C1412 C 0.79422 0.99663 0.73855 0.0
C1413 C 0.82598 0.99856 0.74082 0.0
C1414 C 0.8913 0.05433 0.7463 0.0
C1415 C 0.95796 0.04115 0.77433 0.0
C1416 C 0.93021 0.03562 0.76455 0.0
C1417 C 0.84014 0.02715 0.74361 0.0
C1418 C 0.87246 0.02879 0.74954 0.0
H1419 H 0.01683 1.00188 0.79156 0.0
H1420 H 0.97665 0.99523 0.77179 0.0
H1421 H 0.93321 0.0782 0.75146 0.0
H1422 H 0.77665 0.07281 0.74031 0.0
H1423 H 0.8318 0.07639 0.74471 0.0
C1424 C 0.28006 0.07221 0.98995 0.0
C1425 C 0.27131 0.09134 1.00248 0.0
C1426 C 0.27047 0.07839 0.97465 0.0
C1427 C 0.20964 0.12019 0.9528 0.0
H1428 H 0.25595 0.09039 0.91708 0.0
C1429 C 0.15059 0.09138 0.89452 0.0
C1430 C 0.16653 0.09365 0.88022 0.0
C1431 C 0.16531 0.09707 0.90876 0.0
C1432 C 0.24279 0.09939 0.92682 0.0
H1433 H 0.24707 0.13322 1.00844 0.0
H1434 H 0.23109 0.14473 0.98155 0.0
H1435 H 0.27962 0.09104 0.94285 0.0
H1436 H 0.21045 0.10472 0.86973 0.0
H1437 H 0.23617 0.1155 0.89467 0.0
H1438 H 0.1731 0.12928 0.93671 0.0
C1439 C 0.24467 0.12429 0.98368 0.0
C1440 C 0.25626 0.0993 0.94174 0.0
C1441 C 0.25412 0.11792 0.9991 0.0
C1442 C 0.19751 0.10269 0.88052 0.0
C1443 C 0.21228 0.10865 0.89486 0.0
C1444 C 0.19633 0.12067 0.93785 0.0
C1445 C 0.25218 0.10423 0.97126 0.0
C1446 C 0.23955 0.10873 0.95505 0.0
C1447 C 0.19645 0.10556 0.90922 0.0
C1448 C 0.21231 0.10931 0.9247 0.0
H1449 H 0.29392 0.05191 0.992 0.0
H1450 H 0.27655 0.06208 0.96559 0.0
H1451 H 0.19584 0.12758 0.96266 0.0
H1452 H 0.12675 0.08438 0.89482 0.0
H1453 H 0.15234 0.09371 0.91945 0.0
C1454 C 0.67192 0.4349 0.13452 0.0
C1455 C 0.69447 0.41191 0.13288 0.0
C1456 C 0.66619 0.44839 0.14922 0.0
C1457 C 0.70468 0.46504 0.18645 0.0
H1458 H 0.62356 0.47318 0.20482 0.0
C1459 C 0.68872 0.53053 0.24385 0.0
C1460 C 0.67362 0.51443 0.25588 0.0
C1461 C 0.68669 0.52078 0.22829 0.0
C1462 C 0.64632 0.47109 0.19981 0.0
H1463 H 0.72855 0.38511 0.14548 0.0
H1464 H 0.71904 0.40894 0.1708 0.0
H1465 H 0.62944 0.45039 0.17858 0.0
H1466 H 0.64295 0.47664 0.26093 0.0
H1467 H 0.63899 0.4596 0.23348 0.0
H1468 H 0.72176 0.48548 0.20748 0.0
C1469 C 0.70566 0.41647 0.1608 0.0
C1470 C 0.64967 0.45825 0.18477 0.0
C1471 C 0.71101 0.40272 0.14625 0.0
C1472 C 0.65454 0.48964 0.25186 0.0
C1473 C 0.65241 0.47986 0.23617 0.0
C1474 C 0.70132 0.47823 0.20128 0.0
C1475 C 0.68331 0.43955 0.16249 0.0
C1476 C 0.67897 0.45477 0.17801 0.0
C1477 C 0.66949 0.49462 0.2243 0.0
C1478 C 0.67217 0.48131 0.20822 0.0
H1479 H 0.65869 0.44243 0.12447 0.0
H1480 H 0.64891 0.46622 0.15015 0.0
H1481 H 0.72754 0.46286 0.18155 0.0
H1482 H 0.70358 0.54972 0.24663 0.0
H1483 H 0.69967 0.53301 0.21943 0.0
C1484 C 0.32491 0.92041 0.37896 0.0
C1485 C 0.35558 0.9304 0.37846 0.0
C1486 C 0.30979 0.91661 0.39338 0.0
C1487 C 0.3248 0.91174 0.43671 0.0
H1488 H 0.23989 0.93748 0.43999 0.0
C1489 C 0.26409 0.91855 0.49712 0.0
C1490 C 0.24602 0.94493 0.49946 0.0
C1491 C 0.27442 0.91076 0.48203 0.0
C1492 C 0.26368 0.93031 0.43934 0.0
H1493 H 0.39428 0.94438 0.3928 0.0
H1494 H 0.36796 0.93879 0.41761 0.0
H1495 H 0.26455 0.93623 0.41445 0.0
H1496 H 0.22278 0.98247 0.4876 0.0
H1497 H 0.24145 0.96979 0.4617 0.0
H1498 H 0.32456 0.90779 0.4617 0.0
C1499 C 0.35563 0.93289 0.40701 0.0
C1500 C 0.27774 0.92916 0.42459 0.0
C1501 C 0.37073 0.93639 0.39268 0.0
C1502 C 0.23724 0.96235 0.48629 0.0
C1503 C 0.24761 0.95474 0.47132 0.0
C1504 C 0.31085 0.91326 0.45148 0.0
C1505 C 0.32493 0.92294 0.40763 0.0
C1506 C 0.30877 0.92061 0.42309 0.0
C1507 C 0.26681 0.92916 0.46894 0.0
C1508 C 0.2803 0.92333 0.45307 0.0
H1509 H 0.31261 0.91549 0.36822 0.0
H1510 H 0.28626 0.9086 0.39334 0.0
H1511 H 0.34849 0.90427 0.43605 0.0
H1512 H 0.27115 0.90457 0.507 0.0
H1513 H 0.28874 0.89058 0.48066 0.0
C1514 C 0.84817 0.57363 0.63489 0.0
C1515 C 0.83551 0.60334 0.6355 0.0
C1516 C 0.8537 0.55702 0.64874 0.0
C1517 C 0.85836 0.56665 0.69244 0.0
H1518 H 0.83783 0.48009 0.69308 0.0
C1519 C 0.85249 0.49993 0.75106 0.0
C1520 C 0.82675 0.48072 0.75264 0.0
C1521 C 0.86079 0.51161 0.73629 0.0
C1522 C 0.84358 0.50429 0.69316 0.0
H1523 H 0.81888 0.63888 0.6512 0.0
H1524 H 0.82753 0.60996 0.67502 0.0
H1525 H 0.83774 0.5078 0.66832 0.0
H1526 H 0.79114 0.45675 0.73979 0.0
H1527 H 0.80466 0.47772 0.71445 0.0
H1528 H 0.86207 0.56371 0.71737 0.0
C1529 C 0.83408 0.59955 0.66399 0.0
C1530 C 0.84396 0.52014 0.67886 0.0
C1531 C 0.82879 0.61612 0.65024 0.0
C1532 C 0.81071 0.47203 0.73905 0.0
C1533 C 0.81882 0.48376 0.7244 0.0
C1534 C 0.8576 0.5509 0.70675 0.0
C1535 C 0.84656 0.56973 0.6635 0.0
C1536 C 0.85044 0.55179 0.67835 0.0
C1537 C 0.84354 0.50428 0.7228 0.0
C1538 C 0.84929 0.51969 0.70738 0.0
H1539 H 0.85373 0.56317 0.62372 0.0
H1540 H 0.86361 0.53425 0.64786 0.0
H1541 H 0.86429 0.59081 0.69251 0.0
H1542 H 0.8654 0.50694 0.76129 0.0
H1543 H 0.88031 0.52691 0.73552 0.0
C1544 C 0.7621 0.9159 0.03174 0.0
C1545 C 0.74011 0.93904 0.02911 0.0
C1546 C 0.77395 0.91097 0.04689 0.0
C1547 C 0.79055 0.95577 0.08167 0.0
H1548 H 0.80134 0.87914 0.1043 0.0
C1549 C 0.86919 0.9461 0.13549 0.0
C1550 C 0.85592 0.934 0.14921 0.0
C1551 C 0.85421 0.94373 0.12107 0.0
C1552 C 0.79835 0.90067 0.09809 0.0
H1553 H 0.71127 0.97306 0.04045 0.0
H1554 H 0.7321 0.96476 0.0666 0.0
H1555 H 0.77585 0.87913 0.07849 0.0
H1556 H 0.81675 0.9091 0.1584 0.0
H1557 H 0.79069 0.90442 0.13292 0.0
H1558 H 0.81341 0.97734 0.10094 0.0
C1559 C 0.74056 0.95076 0.05703 0.0
C1560 C 0.784 0.90062 0.08333 0.0
C1561 C 0.72865 0.95548 0.04204 0.0
C1562 C 0.82753 0.91875 0.14806 0.0
C1563 C 0.81271 0.91591 0.13349 0.0
C1564 C 0.8053 0.95574 0.0962 0.0
C1565 C 0.76403 0.9292 0.05956 0.0
C1566 C 0.77979 0.92827 0.07503 0.0
C1567 C 0.82575 0.92879 0.1199 0.0
C1568 C 0.80935 0.92825 0.1046 0.0
H1569 H 0.77134 0.9029 0.022 0.0
H1570 H 0.79204 0.89417 0.04854 0.0
H1571 H 0.78783 0.9774 0.07551 0.0
H1572 H 0.891 0.95801 0.1359 0.0
H1573 H 0.86488 0.95372 0.11079 0.0
C1574 C 0.30688 0.47423 0.78753 0.0
C1575 C 0.32318 0.48406 0.77421 0.0
C1576 C 0.31308 0.48657 0.80227 0.0
C1577 C 0.3445 0.55672 0.82034 0.0
H1578 H 0.32844 0.51137 0.85865 0.0
C1579 C 0.31024 0.61801 0.87732 0.0
C1580 C 0.31915 0.60584 0.8919 0.0
C1581 C 0.31631 0.60216 0.86344 0.0
C1582 C 0.33351 0.5244 0.84814 0.0
H1583 H 0.36018 0.51317 0.76609 0.0
H1584 H 0.37162 0.53452 0.79206 0.0
H1585 H 0.33154 0.48411 0.83382 0.0
H1586 H 0.34187 0.56748 0.90327 0.0
H1587 H 0.35298 0.53988 0.87893 0.0
H1588 H 0.34681 0.59695 0.83467 0.0
C1589 C 0.35349 0.51765 0.79099 0.0
C1590 C 0.3349 0.50876 0.83381 0.0
C1591 C 0.3472 0.50522 0.77614 0.0
C1592 C 0.33457 0.57743 0.89224 0.0
C1593 C 0.34083 0.56158 0.87827 0.0
C1594 C 0.34335 0.57231 0.83468 0.0
C1595 C 0.33597 0.509 0.8042 0.0
C1596 C 0.33947 0.52482 0.81965 0.0
C1597 C 0.3317 0.57372 0.86366 0.0
C1598 C 0.3369 0.55652 0.84872 0.0
H1599 H 0.2885 0.4576 0.78646 0.0
H1600 H 0.2988 0.47949 0.81202 0.0
H1601 H 0.34792 0.56998 0.80974 0.0
H1602 H 0.29816 0.63975 0.87659 0.0
H1603 H 0.30824 0.61201 0.85252 0.0
C1604 C 0.66662 0.12122 0.64028 0.0
C1605 C 0.67901 0.10128 0.65163 0.0
C1606 C 0.68063 0.12472 0.62562 0.0
C1607 C 0.75253 0.10877 0.60302 0.0
H1608 H 0.69745 0.11204 0.56734 0.0
C1609 C 0.79065 0.08026 0.53972 0.0
C1610 C 0.77708 0.09594 0.52706 0.0
C1611 C 0.78115 0.0858 0.55512 0.0
C1612 C 0.71324 0.11171 0.57714 0.0
H1613 H 0.71658 0.07006 0.65657 0.0
H1614 H 0.7409 0.07575 0.63088 0.0
H1615 H 0.67646 0.11181 0.59376 0.0
H1616 H 0.74382 0.13072 0.52068 0.0
H1617 H 0.72715 0.14068 0.54772 0.0
H1618 H 0.78927 0.10783 0.58628 0.0
C1619 C 0.72048 0.08909 0.63339 0.0
C1620 C 0.70118 0.11155 0.59237 0.0
C1621 C 0.70651 0.08575 0.64814 0.0
C1622 C 0.75478 0.11844 0.53021 0.0
C1623 C 0.74503 0.12385 0.54569 0.0
C1624 C 0.7646 0.10882 0.58776 0.0
C1625 C 0.70739 0.10818 0.62179 0.0
C1626 C 0.7206 0.1098 0.60556 0.0
C1627 C 0.75765 0.10709 0.55832 0.0
C1628 C 0.7451 0.10997 0.5746 0.0
H1629 H 0.6456 0.13378 0.64259 0.0
H1630 H 0.67021 0.14018 0.6172 0.0
H1631 H 0.76828 0.10792 0.61282 0.0
H1632 H 0.80793 0.0628 0.53764 0.0
H1633 H 0.79125 0.07225 0.56445 0.0
C1634 C 0.17039 0.42324 0.39397 0.0
C1635 C 0.19595 0.43562 0.40182 0.0
C1636 C 0.16361 0.43191 0.37848 0.0
C1637 C 0.18045 0.49211 0.34834 0.0
H1638 H 0.15548 0.42929 0.31884 0.0
C1639 C 0.16012 0.52144 0.28283 0.0
C1640 C 0.174 0.50109 0.27218 0.0
C1641 C 0.15695 0.51333 0.29871 0.0
C1642 C 0.16243 0.44717 0.3269 0.0
H1643 H 0.23431 0.46703 0.39942 0.0
H1644 H 0.22272 0.48186 0.37256 0.0
H1645 H 0.16256 0.41601 0.34638 0.0
H1646 H 0.19363 0.45563 0.26962 0.0
H1647 H 0.18807 0.44144 0.29709 0.0
H1648 H 0.18151 0.523 0.32877 0.0
C1649 C 0.20755 0.46579 0.37838 0.0
C1650 C 0.1662 0.4396 0.34278 0.0
C1651 C 0.21433 0.45711 0.39382 0.0
C1652 C 0.18277 0.47178 0.27754 0.0
C1653 C 0.17949 0.46363 0.29333 0.0
C1654 C 0.17664 0.49969 0.33247 0.0
C1655 C 0.18217 0.45325 0.37043 0.0
C1656 C 0.17579 0.46184 0.3537 0.0
C1657 C 0.16741 0.4846 0.30427 0.0
C1658 C 0.16808 0.47723 0.32145 0.0
H1659 H 0.15571 0.40664 0.39975 0.0
H1660 H 0.1437 0.42196 0.37284 0.0
H1661 H 0.18739 0.51001 0.3564 0.0
H1662 H 0.15339 0.54427 0.27908 0.0
H1663 H 0.1471 0.52992 0.30672 0.0
C1664 C 0.65858 0.54989 0.40088 0.0
C1665 C 0.6662 0.56485 0.38678 0.0
C1666 C 0.67518 0.55545 0.41457 0.0
C1667 C 0.72176 0.61092 0.43558 0.0
H1668 H 0.75154 0.53943 0.45816 0.0
C1669 C 0.75989 0.60719 0.50168 0.0
C1670 C 0.78528 0.58836 0.50509 0.0
C1671 C 0.74858 0.60916 0.48626 0.0
C1672 C 0.74361 0.55969 0.45197 0.0
H1673 H 0.69705 0.59785 0.37611 0.0
H1674 H 0.72592 0.60812 0.40037 0.0
H1675 H 0.72555 0.53282 0.43311 0.0
H1676 H 0.82034 0.55914 0.49495 0.0
H1677 H 0.80079 0.56262 0.46824 0.0
H1678 H 0.73917 0.63769 0.45483 0.0
C1679 C 0.70709 0.59189 0.40064 0.0
C1680 C 0.72858 0.55586 0.43765 0.0
C1681 C 0.69073 0.58586 0.38677 0.0
C1682 C 0.80053 0.57357 0.49268 0.0
C1683 C 0.78926 0.57545 0.4774 0.0
C1684 C 0.73644 0.61475 0.45012 0.0
C1685 C 0.69958 0.57649 0.41464 0.0
C1686 C 0.71733 0.58135 0.42933 0.0
C1687 C 0.76247 0.59225 0.47409 0.0
C1688 C 0.74753 0.58911 0.45846 0.0
H1689 H 0.63986 0.53354 0.40133 0.0
H1690 H 0.66875 0.5434 0.4252 0.0
H1691 H 0.71311 0.63095 0.42944 0.0
H1692 H 0.74763 0.61868 0.51104 0.0
H1693 H 0.72787 0.62228 0.48406 0.0
C1694 C 0.18112 0.94431 0.62995 0.0
C1695 C 0.18902 0.91307 0.62867 0.0
C1696 C 0.17743 0.95798 0.64476 0.0
C1697 C 0.16776 0.93822 0.68737 0.0
H1698 H 0.19821 0.02077 0.69397 0.0
C1699 C 0.16851 0.99323 0.74939 0.0
C1700 C 0.19516 0.00974 0.75329 0.0
C1701 C 0.16299 0.98424 0.73382 0.0
C1702 C 0.18971 0.99761 0.69239 0.0
H1703 H 0.1995 0.87186 0.64202 0.0
H1704 H 0.19399 0.89561 0.6675 0.0
H1705 H 0.19842 0.99912 0.66771 0.0
H1706 H 0.23582 0.03145 0.74361 0.0
H1707 H 0.22696 0.01502 0.71691 0.0
H1708 H 0.16071 0.93602 0.71217 0.0
C1709 C 0.1897 0.90955 0.65721 0.0
C1710 C 0.18943 0.98531 0.67722 0.0
C1711 C 0.19314 0.89592 0.6425 0.0
C1712 C 0.21539 0.01813 0.74115 0.0
C1713 C 0.21001 0.00909 0.72569 0.0
C1714 C 0.16831 0.9504 0.70256 0.0
C1715 C 0.18173 0.94077 0.65862 0.0
C1716 C 0.17908 0.95516 0.67452 0.0
C1717 C 0.18396 0.99166 0.72177 0.0
C1718 C 0.17993 0.98005 0.70537 0.0
H1719 H 0.17771 0.95816 0.61954 0.0
H1720 H 0.17101 0.982 0.64531 0.0
H1721 H 0.15892 0.91519 0.68577 0.0
H1722 H 0.15239 0.98647 0.75843 0.0
H1723 H 0.14242 0.97125 0.73126 0.0
C1724 C 0.74053 0.42771 0.99514 0.0
C1725 C 0.75896 0.4404 1.00697 0.0
C1726 C 0.75228 0.4235 0.97996 0.0
C1727 C 0.81409 0.45501 0.95459 0.0
H1728 H 0.79024 0.39047 0.92577 0.0
C1729 C 0.87535 0.43863 0.89571 0.0
C1730 C 0.85729 0.43429 0.88223 0.0
C1731 C 0.8623 0.4374 0.91065 0.0
C1732 C 0.79686 0.40878 0.93366 0.0
H1733 H 0.80446 0.45684 1.0126 0.0
H1734 H 0.82548 0.44821 0.98648 0.0
H1735 H 0.77061 0.39003 0.95271 0.0
H1736 H 0.81125 0.42456 0.87398 0.0
H1737 H 0.78833 0.42219 0.90029 0.0
H1738 H 0.84053 0.47358 0.9357 0.0
C1739 C 0.80167 0.44241 0.98862 0.0
C1740 C 0.78565 0.40854 0.94911 0.0
C1741 C 0.78982 0.44695 1.00367 0.0
C1742 C 0.8258 0.42806 0.88411 0.0
C1743 C 0.81271 0.42656 0.89917 0.0
C1744 C 0.82541 0.45509 0.93927 0.0
C1745 C 0.78278 0.43178 0.97637 0.0
C1746 C 0.79438 0.43153 0.95984 0.0
C1747 C 0.8308 0.43164 0.9126 0.0
C1748 C 0.81721 0.43188 0.92864 0.0
H1749 H 0.7165 0.42293 0.99735 0.0
H1750 H 0.73696 0.41541 0.97087 0.0
H1751 H 0.82061 0.47368 0.96227 0.0
H1752 H 0.8997 0.44336 0.89478 0.0
H1753 H 0.87699 0.44096 0.92073 0.0
C1754 C 0.35572 0.00631 0.24739 0.0
C1755 C 0.33189 0.98484 0.2491 0.0
C1756 C 0.36376 0.01734 0.23247 0.0
C1757 C 0.35449 1.00214 0.18964 0.0
H1758 H 0.36184 0.09056 0.18578 0.0
C1759 C 0.33958 0.06685 0.13058 0.0
C1760 C 0.35672 0.09377 0.12809 0.0
C1761 C 0.34124 0.05123 0.14495 0.0
C1762 C 0.36042 0.06576 0.18661 0.0
H1763 H 0.29915 0.95668 0.23651 0.0
H1764 H 0.31295 0.97586 0.21066 0.0
H1765 H 0.35744 0.06739 0.21165 0.0
H1766 H 0.39042 0.12432 0.13843 0.0
H1767 H 0.39379 0.09683 0.16322 0.0
H1768 H 0.35689 1.00059 0.16456 0.0
C1769 C 0.32552 0.9843 0.22072 0.0
C1770 C 0.35791 0.05246 0.2015 0.0
C1771 C 0.31739 0.9735 0.23557 0.0
C1772 C 0.37666 0.10382 0.13999 0.0
C1773 C 0.37844 0.08816 0.15429 0.0
C1774 C 0.35706 0.01544 0.17473 0.0
C1775 C 0.34837 0.00682 0.21897 0.0
C1776 C 0.35442 0.02052 0.20321 0.0
C1777 C 0.36019 0.0621 0.15713 0.0
C1778 C 0.35963 0.04749 0.173 0.0
H1779 H 0.36727 0.01543 0.25761 0.0
H1780 H 0.38172 0.03444 0.23152 0.0
H1781 H 0.35227 0.9774 0.19053 0.0
H1782 H 0.3239 0.05857 0.12169 0.0
H1783 H 0.32667 0.03139 0.14673 0.0
C1784 C 0.24056 0.42097 0.53317 0.0
C1785 C 0.25786 0.43957 0.52299 0.0
C1786 C 0.2505 0.41562 0.54859 0.0
C1787 C 0.31772 0.4236 0.57568 0.0
H1788 H 0.25496 0.43482 0.6074 0.0
C1789 C 0.34558 0.42056 0.6424 0.0
C1790 C 0.33125 0.44317 0.65165 0.0
C1791 C 0.33658 0.41592 0.62678 0.0
C1792 C 0.27282 0.4317 0.59871 0.0
H1793 H 0.30014 0.46535 0.52068 0.0
H1794 H 0.31745 0.45611 0.54741 0.0
H1795 H 0.24044 0.433 0.57984 0.0
H1796 H 0.29605 0.4785 0.65166 0.0
H1797 H 0.28059 0.47058 0.62457 0.0
H1798 H 0.35022 0.4235 0.59454 0.0
C1799 C 0.29624 0.44555 0.5436 0.0
C1800 C 0.26443 0.43022 0.58287 0.0
C1801 C 0.28625 0.45099 0.52825 0.0
C1802 C 0.30753 0.46077 0.64494 0.0
C1803 C 0.2985 0.45609 0.62938 0.0
C1804 C 0.32611 0.42501 0.59153 0.0
C1805 C 0.27808 0.42858 0.55415 0.0
C1806 C 0.2868 0.42667 0.5711 0.0
C1807 C 0.31295 0.43369 0.62004 0.0
C1808 C 0.30383 0.42964 0.60325 0.0
H1809 H 0.21849 0.41204 0.52951 0.0
H1810 H 0.23614 0.40204 0.5563 0.0
H1811 H 0.33557 0.42052 0.56698 0.0
H1812 H 0.36394 0.40658 0.64717 0.0
H1813 H 0.34805 0.39828 0.62001 0.0
C1814 C 0.8279 0.115 0.38128 0.0
C1815 C 0.83342 0.10187 0.39608 0.0
C1816 C 0.83343 0.09845 0.36757 0.0
C1817 C 0.84157 0.01904 0.35262 0.0
H1818 H 0.86331 0.06262 0.31453 0.0
C1819 C 0.81027 0.97308 0.29177 0.0
C1820 C 0.82745 0.98142 0.27846 0.0
C1821 C 0.81785 0.98429 0.30658 0.0
C1822 C 0.85781 0.04979 0.32504 0.0
H1823 H 0.84976 0.06103 0.40803 0.0
H1824 H 0.86007 0.03209 0.38396 0.0
H1825 H 0.86504 0.08919 0.33951 0.0
H1826 H 0.86747 0.00646 0.27051 0.0
H1827 H 0.88142 0.02552 0.29657 0.0
H1828 H 0.83485 0.97947 0.33818 0.0
C1829 C 0.85092 0.05517 0.383 0.0
C1830 C 0.8583 0.06525 0.33941 0.0
C1831 C 0.84515 0.07178 0.39682 0.0
C1832 C 0.85369 0.99974 0.28051 0.0
C1833 C 0.86145 0.01091 0.29544 0.0
C1834 C 0.84143 1.00346 0.33827 0.0
C1835 C 0.84497 0.06827 0.36817 0.0
C1836 C 0.84911 0.05043 0.35334 0.0
C1837 C 0.84314 1.00394 0.30863 0.0
C1838 C 0.84848 0.0189 0.32418 0.0
H1839 H 0.81871 0.13805 0.38022 0.0
H1840 H 0.8278 0.10919 0.35648 0.0
H1841 H 0.83435 0.00675 0.36303 0.0
H1842 H 0.79026 0.95847 0.29067 0.0
H1843 H 0.8029 0.97857 0.31629 0.0
C1844 C 0.29626 0.58342 0.03647 0.0
C1845 C 0.27808 0.59371 0.0239 0.0
C1846 C 0.28586 0.58595 0.05189 0.0
C1847 C 0.22887 0.62014 0.07879 0.0
H1848 H 0.23099 0.53967 0.09846 0.0
C1849 C 0.18916 0.59117 0.14338 0.0
C1850 C 0.16698 0.5677 0.14384 0.0
C1851 C 0.20468 0.59797 0.12933 0.0
C1852 C 0.23045 0.56234 0.09318 0.0
H1853 H 0.2358 0.61683 0.01767 0.0
H1854 H 0.21753 0.62165 0.04487 0.0
H1855 H 0.25513 0.54716 0.07295 0.0
H1856 H 0.14407 0.53275 0.13002 0.0
H1857 H 0.17173 0.54392 0.10587 0.0
H1858 H 0.2038 0.63502 0.09919 0.0
C1859 C 0.2399 0.6116 0.04271 0.0
C1860 C 0.24439 0.5667 0.0786 0.0
C1861 C 0.25035 0.60896 0.02717 0.0
C1862 C 0.16097 0.55101 0.13009 0.0
C1863 C 0.17683 0.55734 0.11624 0.0
C1864 C 0.21532 0.61587 0.0936 0.0
C1865 C 0.25699 0.59889 0.05516 0.0
C1866 C 0.24351 0.59553 0.07113 0.0
C1867 C 0.19876 0.58091 0.11566 0.0
C1868 C 0.2156 0.58676 0.1008 0.0
H1869 H 0.31779 0.57167 0.03427 0.0
H1870 H 0.29977 0.57639 0.06124 0.0
H1871 H 0.22786 0.6426 0.07332 0.0
H1872 H 0.19415 0.60453 0.15377 0.0
H1873 H 0.22161 0.61619 0.1292 0.0
C1874 C 0.7134 0.95594 0.89892 0.0
C1875 C 0.69632 0.93173 0.90551 0.0
C1876 C 0.70866 0.96512 0.88338 0.0
C1877 C 0.67924 0.93818 0.84512 0.0
H1878 H 0.68336 0.02481 0.83466 0.0
C1879 C 0.67069 0.98298 0.78057 0.0
C1880 C 0.693 1.00495 0.77656 0.0
C1881 C 0.66608 0.97463 0.79636 0.0
C1882 C 0.68227 1.00049 0.83733 0.0
H1883 H 0.66077 0.89817 0.90077 0.0
H1884 H 0.65248 0.91427 0.87355 0.0
H1885 H 0.68518 0.00884 0.86201 0.0
H1886 H 0.72686 0.03637 0.78593 0.0
H1887 H 0.71894 0.02207 0.81316 0.0
H1888 H 0.67704 0.92989 0.82034 0.0
C1889 C 0.66964 0.92608 0.88047 0.0
C1890 C 0.68336 0.99132 0.85306 0.0
C1891 C 0.67427 0.91697 0.89611 0.0
C1892 C 0.70959 0.01925 0.78865 0.0
C1893 C 0.70487 0.01117 0.80431 0.0
C1894 C 0.67821 0.94739 0.82933 0.0
C1895 C 0.68678 0.95032 0.87389 0.0
C1896 C 0.68255 0.96001 0.85718 0.0
C1897 C 0.68339 0.98845 0.80843 0.0
C1898 C 0.68044 0.97866 0.82521 0.0
H1899 H 0.73071 0.96775 0.90574 0.0
H1900 H 0.72267 0.98352 0.87869 0.0
H1901 H 0.67872 0.91386 0.84783 0.0
H1902 H 0.65764 0.97153 0.7715 0.0
H1903 H 0.64916 0.95723 0.79911 0.0
C1904 C 0.60381 0.33917 0.08222 0.0
C1905 C 0.62608 0.32518 0.09183 0.0
C1906 C 0.57354 0.32824 0.08196 0.0
C1907 C 0.52925 0.25801 0.08835 0.0
H1908 H 0.45823 0.3114 0.09194 0.0
C1909 C 0.40853 0.20687 0.09475 0.0
C1910 C 0.38353 0.22164 0.08752 0.0
C1911 C 0.43723 0.22103 0.09556 0.0
C1912 C 0.47775 0.29617 0.09068 0.0
H1913 H 0.63376 0.28884 0.10884 0.0
H1914 H 0.5812 0.26951 0.10816 0.0
H1915 H 0.5099 0.33339 0.09265 0.0
H1916 H 0.36906 0.26325 0.07566 0.0
H1917 H 0.4196 0.28777 0.07658 0.0
H1918 H 0.49765 0.22091 0.08589 0.0
C1919 C 0.58716 0.28902 0.10087 0.0
C1920 C 0.50737 0.30881 0.09116 0.0
C1921 C 0.61725 0.30023 0.10131 0.0
C1922 C 0.38783 0.25131 0.08137 0.0
C1923 C 0.41684 0.26539 0.08195 0.0
C1924 C 0.49976 0.24545 0.08765 0.0
C1925 C 0.56501 0.30276 0.09112 0.0
C1926 C 0.53343 0.28979 0.09019 0.0
C1927 C 0.44208 0.25024 0.0889 0.0
C1928 C 0.4735 0.26423 0.08902 0.0
H1929 H 0.6098 0.35849 0.0748 0.0
H1930 H 0.55701 0.3392 0.07428 0.0
H1931 H 0.54887 0.24283 0.08726 0.0
H1932 H 0.40596 0.1842 0.09985 0.0
H1933 H 0.45565 0.20892 0.10145 0.0
C1934 C 0.52924 0.63101 0.32184 0.0
C1935 C 0.55227 0.62278 0.33264 0.0
C1936 C 0.51574 0.66036 0.32227 0.0
C1937 C 0.50437 0.72765 0.34865 0.0
H1938 H 0.48776 0.77193 0.31012 0.0
C1939 C 0.47274 0.85711 0.34838 0.0
C1940 C 0.45056 0.86737 0.33757 0.0
C1941 C 0.48411 0.82696 0.34774 0.0
C1942 C 0.49188 0.75978 0.32101 0.0
H1943 H 0.57908 0.63934 0.35235 0.0
H1944 H 0.55593 0.6901 0.35298 0.0
H1945 H 0.5089 0.72 0.30897 0.0
H1946 H 0.42289 0.85349 0.31764 0.0
H1947 H 0.44242 0.80107 0.31666 0.0
H1948 H 0.48747 0.76737 0.3607 0.0
C1949 C 0.5479 0.67385 0.34429 0.0
C1950 C 0.50401 0.72992 0.32034 0.0
C1951 C 0.56138 0.64466 0.34385 0.0
C1952 C 0.43999 0.84656 0.32616 0.0
C1953 C 0.45138 0.81644 0.32551 0.0
C1954 C 0.49224 0.75746 0.34932 0.0
C1955 C 0.52485 0.68216 0.33355 0.0
C1956 C 0.51067 0.71351 0.33416 0.0
C1957 C 0.47365 0.80619 0.33627 0.0
C1958 C 0.486 0.77407 0.33552 0.0
H1959 H 0.52157 0.61479 0.31306 0.0
H1960 H 0.49787 0.66581 0.31389 0.0
H1961 H 0.50862 0.71558 0.35955 0.0
H1962 H 0.48157 0.87242 0.35729 0.0
H1963 H 0.50154 0.82011 0.35609 0.0
C1964 C 0.11157 0.8033 0.59656 0.0
C1965 C 0.12204 0.82598 0.58608 0.0
C1966 C 0.08108 0.79331 0.59619 0.0
C1967 C 0.01279 0.78923 0.57047 0.0
H1968 H 0.97112 0.76971 0.60939 0.0
C1969 C 0.8861 0.74625 0.57267 0.0
C1970 C 0.88032 0.72165 0.58299 0.0
C1971 C 0.91439 0.76167 0.57298 0.0
C1972 C 0.98247 0.77485 0.59839 0.0
H1973 H 0.10821 0.85612 0.56705 0.0
H1974 H 0.05488 0.83884 0.56652 0.0
H1975 H 0.02248 0.79171 0.6101 0.0
H1976 H 0.89995 0.69427 0.60181 0.0
H1977 H 0.94886 0.72081 0.60223 0.0
H1978 H 0.97277 0.77199 0.55878 0.0
C1979 C 0.07046 0.82854 0.57492 0.0
C1980 C 0.01198 0.78745 0.5988 0.0
C1981 C 0.10104 0.83859 0.57529 0.0
C1982 C 0.90342 0.71309 0.59368 0.0
C1983 C 0.93152 0.72851 0.59401 0.0
C1984 C 0.98319 0.77661 0.57006 0.0
C1985 C 0.0601 0.80571 0.58535 0.0
C1986 C 0.02777 0.79435 0.58485 0.0
C1987 C 0.93745 0.75298 0.58368 0.0
C1988 C 0.96786 0.76877 0.58402 0.0
H1989 H 0.12701 0.7929 0.605 0.0
H1990 H 0.07411 0.77535 0.60424 0.0
H1991 H 0.02433 0.79399 0.55948 0.0
H1992 H 0.86886 0.75351 0.56429 0.0
H1993 H 0.91811 0.78058 0.56493 0.0
C1994 C 0.02894 0.13009 0.84482 0.0
C1995 C 0.05992 0.12789 0.84022 0.0
C1996 C 0.01425 0.15878 0.84555 0.0
C1997 C 0.02477 0.23859 0.85351 0.0
H1998 H 0.96105 0.25802 0.82336 0.0
C1999 C 0.98012 0.3629 0.84661 0.0
C2000 C 0.94992 0.3682 0.84145 0.0
C2001 C 0.99239 0.33316 0.84692 0.0
C2002 C 0.9783 0.25298 0.83212 0.0
H2003 H 0.09998 0.15433 0.8334 0.0
H2004 H 0.07458 0.20438 0.83535 0.0
H2005 H 0.98385 0.20674 0.82371 0.0
H2006 H 0.90864 0.34605 0.83297 0.0
H2007 H 0.92929 0.29404 0.83432 0.0
H2008 H 0.0188 0.28399 0.86245 0.0
C2009 C 0.0616 0.18379 0.83801 0.0
C2010 C 0.99149 0.22356 0.83221 0.0
C2011 C 0.07607 0.15512 0.83687 0.0
C2012 C 0.93209 0.34284 0.83688 0.0
C2013 C 0.94413 0.31293 0.83755 0.0
C2014 C 0.01112 0.26775 0.8537 0.0
C2015 C 0.03049 0.18585 0.84216 0.0
C2016 C 0.01511 0.21627 0.84276 0.0
C2017 C 0.9746 0.30757 0.84248 0.0
C2018 C 0.98797 0.27569 0.84284 0.0
H2019 H 0.01585 0.10963 0.84754 0.0
H2020 H 0.99024 0.15986 0.84884 0.0
H2021 H 0.04284 0.23338 0.86183 0.0
H2022 H 0.99464 0.38185 0.85014 0.0
H2023 H 0.01612 0.33049 0.85042 0.0
C2024 C 0.59808 0.82595 0.95558 0.0
C2025 C 0.61696 0.81856 0.94273 0.0
C2026 C 0.56788 0.81492 0.95647 0.0
C2027 C 0.50541 0.78217 0.9319 0.0
H2028 H 0.47339 0.75255 0.97155 0.0
C2029 C 0.39523 0.70929 0.93554 0.0
C2030 C 0.37446 0.71495 0.94784 0.0
C2031 C 0.42403 0.72344 0.93525 0.0
C2032 C 0.48182 0.76109 0.96043 0.0
H2033 H 0.61863 0.79366 0.92072 0.0
H2034 H 0.56639 0.77428 0.92234 0.0
H2035 H 0.52495 0.77444 0.97039 0.0
H2036 H 0.36791 0.74008 0.96953 0.0
H2037 H 0.41832 0.76486 0.969 0.0
H2038 H 0.46249 0.76851 0.92189 0.0
C2039 C 0.57468 0.78899 0.93165 0.0
C2040 C 0.51142 0.77367 0.95975 0.0
C2041 C 0.6048 0.8 0.93077 0.0
C2042 C 0.38332 0.73514 0.95988 0.0
C2043 C 0.41229 0.74924 0.95962 0.0
C2044 C 0.47591 0.76954 0.93257 0.0
C2045 C 0.55578 0.79625 0.94451 0.0
C2046 C 0.52374 0.7841 0.94544 0.0
C2047 C 0.43297 0.74364 0.94725 0.0
C2048 C 0.46382 0.75853 0.9468 0.0
H2049 H 0.6066 0.84021 0.96502 0.0
H2050 H 0.55393 0.82129 0.96646 0.0
H2051 H 0.51381 0.79054 0.92073 0.0
H2052 H 0.3893 0.69386 0.92606 0.0
H2053 H 0.43949 0.71818 0.92567 0.0
C2054 C 0.53159 0.13254 0.68904 0.0
C2055 C 0.56351 0.12974 0.69106 0.0
C2056 C 0.51755 0.16154 0.68844 0.0
C2057 C 0.53322 0.24502 0.69698 0.0
H2058 H 0.45725 0.25696 0.67406 0.0
C2059 C 0.47913 0.36319 0.6794 0.0
C2060 C 0.45121 0.36916 0.68715 0.0
C2061 C 0.49239 0.33386 0.67987 0.0
C2062 C 0.47842 0.25383 0.68053 0.0
H2063 H 0.60586 0.1555 0.69321 0.0
H2064 H 0.5819 0.20576 0.69122 0.0
H2065 H 0.48178 0.20648 0.67415 0.0
H2066 H 0.415 0.34868 0.70113 0.0
H2067 H 0.43776 0.29699 0.70138 0.0
H2068 H 0.53026 0.29306 0.70262 0.0
C2069 C 0.56724 0.18571 0.6909 0.0
C2070 C 0.49248 0.22482 0.68073 0.0
C2071 C 0.58115 0.15673 0.6919 0.0
C2072 C 0.43656 0.34489 0.69509 0.0
C2073 C 0.44948 0.31533 0.69522 0.0
C2074 C 0.51952 0.27415 0.69645 0.0
C2075 C 0.53512 0.18869 0.68941 0.0
C2076 C 0.52011 0.21984 0.68901 0.0
C2077 C 0.47765 0.30968 0.68773 0.0
C2078 C 0.49196 0.27876 0.68829 0.0
H2079 H 0.51724 0.11231 0.68826 0.0
H2080 H 0.49279 0.16247 0.68754 0.0
H2081 H 0.55395 0.24233 0.70384 0.0
H2082 H 0.49109 0.38132 0.67321 0.0
H2083 H 0.51412 0.32999 0.674 0.0
C2084 C 0.10066 0.33406 0.45122 0.0
C2085 C 0.12089 0.32303 0.43964 0.0
C2086 C 0.07019 0.32368 0.45194 0.0
C2087 C 0.01038 0.28352 0.42812 0.0
H2088 H 0.97172 0.26929 0.46843 0.0
C2089 C 0.9002 0.21121 0.43466 0.0
C2090 C 0.87718 0.22125 0.44507 0.0
C2091 C 0.92873 0.22587 0.43403 0.0
C2092 C 0.98203 0.2735 0.45707 0.0
H2093 H 0.12471 0.29204 0.41983 0.0
H2094 H 0.07215 0.27358 0.42127 0.0
H2095 H 0.02372 0.29013 0.46733 0.0
H2096 H 0.86643 0.25488 0.46299 0.0
H2097 H 0.91656 0.28043 0.46195 0.0
H2098 H 0.96896 0.26623 0.41789 0.0
C2099 C 0.07947 0.29081 0.42961 0.0
C2100 C 0.01191 0.28551 0.45642 0.0
C2101 C 0.10982 0.30131 0.42884 0.0
C2102 C 0.88354 0.24654 0.45481 0.0
C2103 C 0.91234 0.26107 0.45429 0.0
C2104 C 0.98066 0.27134 0.42877 0.0
C2105 C 0.05912 0.30185 0.44115 0.0
C2106 C 0.02668 0.29039 0.44193 0.0
C2107 C 0.93529 0.25091 0.44386 0.0
C2108 C 0.96619 0.26583 0.44325 0.0
H2109 H 0.1083 0.35087 0.45971 0.0
H2110 H 0.05522 0.33307 0.46087 0.0
H2111 H 0.02054 0.28759 0.41672 0.0
H2112 H 0.89626 0.19187 0.42694 0.0
H2113 H 0.94592 0.21715 0.426 0.0
C2114 C 0.02685 0.63172 0.20598 0.0
C2115 C 0.05225 0.62419 0.19652 0.0
C2116 C 0.01364 0.66117 0.20529 0.0
C2117 C 0.03093 0.74135 0.19257 0.0
H2118 H 0.94269 0.75222 0.19476 0.0
C2119 C 0.9731 0.85894 0.18015 0.0
C2120 C 0.94903 0.86786 0.19018 0.0
C2121 C 0.98505 0.82901 0.18075 0.0
C2122 C 0.96741 0.74963 0.19427 0.0
H2123 H 0.08319 0.64193 0.17869 0.0
H2124 H 0.06009 0.69258 0.17738 0.0
H2125 H 0.96457 0.70063 0.19649 0.0
H2126 H 0.91841 0.8518 0.20853 0.0
H2127 H 0.93925 0.79992 0.20956 0.0
H2128 H 0.03379 0.7903 0.19029 0.0
C2129 C 0.05067 0.67607 0.18558 0.0
C2130 C 0.97998 0.72 0.1953 0.0
C2131 C 0.06385 0.64679 0.18628 0.0
C2132 C 0.93694 0.84588 0.20062 0.0
C2133 C 0.94879 0.81597 0.20116 0.0
C2134 C 0.01837 0.77092 0.19149 0.0
C2135 C 0.02549 0.68382 0.19512 0.0
C2136 C 0.01193 0.71542 0.19441 0.0
C2137 C 0.97316 0.80715 0.19132 0.0
C2138 C 0.98644 0.7755 0.1923 0.0
H2139 H 0.01729 0.61498 0.21401 0.0
H2140 H 0.99445 0.66634 0.21292 0.0
H2141 H 0.05566 0.73889 0.19214 0.0
H2142 H 0.98301 0.87517 0.17196 0.0
H2143 H 1.00357 0.82295 0.17285 0.0
loop_
_geom_bond_atom_site_label_1
_geom_bond_atom_site_label_2
_geom_bond_distance
_geom_bond_site_symmetry_2
_ccdc_geom_bond_type
O0 Tb1 2.292 . S
O0 C3 1.255 . S
Tb1 O0 2.292 . S
Tb1 O17 2.326 . S
Tb1 O19 2.500 . S
Tb1 O20 2.473 . S
Tb1 O23 2.324 . S
Eu2 O6 2.292 . S
Eu2 C7 2.852 . S
Eu2 O18 2.324 . S
Eu2 O22 2.326 . S
Eu2 O24 2.500 . S
Eu2 O25 2.473 . S
C3 O0 1.255 . S
C3 O4 1.247 . S
O4 C3 1.247 . S
C5 O17 1.242 . S
C5 O18 1.258 . S
O6 Eu2 2.292 . S
O6 C8 1.255 . S
C7 Eu2 2.852 . S
C7 C11 1.503 . S
C7 O24 1.273 . S
C7 O25 1.257 . S
C8 O6 1.255 . S
C8 O9 1.247 . S
O9 C8 1.247 . S
C10 O22 1.242 . S
C10 O23 1.258 . S
C11 C7 1.503 . S
C11 C12 1.379 . S
C11 C16 1.392 . S
C12 C11 1.379 . S
C12 C13 1.404 . S
C12 H26 0.929 . S
C13 C12 1.404 . S
C13 C14 1.389 . S
C14 C13 1.389 . S
C14 C15 1.399 . S
C14 H27 0.931 . S
C15 C14 1.399 . S
C15 C16 1.390 . S
C16 C11 1.392 . S
C16 C15 1.390 . S
C16 H28 0.929 . S
O17 Tb1 2.326 . S
O17 C5 1.242 . S
O18 Eu2 2.324 . S
O18 C5 1.258 . S
O19 Tb1 2.500 . S
O19 C21 1.273 . S
O20 Tb1 2.473 . S
O20 C21 1.257 . S
C21 O19 1.273 . S
C21 O20 1.257 . S
O22 Eu2 2.326 . S
O22 C10 1.242 . S
O23 Tb1 2.324 . S
O23 C10 1.258 . S
O24 Eu2 2.500 . S
O24 C7 1.273 . S
O25 Eu2 2.473 . S
O25 C7 1.257 . S
H26 C12 0.929 . S
H27 C14 0.931 . S
H28 C16 0.929 . S
O29 Tb30 2.292 . S
O29 C32 1.255 . S
Tb30 O29 2.292 . S
Tb30 O46 2.326 . S
Tb30 O48 2.500 . S
Tb30 O49 2.473 . S
Tb30 O52 2.324 . S
Eu31 O35 2.292 . S
Eu31 C36 2.852 . S
Eu31 O47 2.324 . S
Eu31 O51 2.326 . S
Eu31 O53 2.500 . S
Eu31 O54 2.473 . S
C32 O29 1.255 . S
C32 O33 1.247 . S
O33 C32 1.247 . S
C34 O46 1.242 . S
C34 O47 1.258 . S
O35 Eu31 2.292 . S
O35 C37 1.255 . S
C36 Eu31 2.852 . S
C36 C40 1.503 . S
C36 O53 1.273 . S
C36 O54 1.257 . S
C37 O35 1.255 . S
C37 O38 1.247 . S
O38 C37 1.247 . S
C39 O51 1.242 . S
C39 O52 1.258 . S
C40 C36 1.503 . S
C40 C41 1.379 . S
C40 C45 1.392 . S
C41 C40 1.379 . S
C41 C42 1.404 . S
C41 H55 0.929 . S
C42 C41 1.404 . S
C42 C43 1.389 . S
C43 C42 1.389 . S
C43 C44 1.399 . S
C43 H56 0.931 . S
C44 C43 1.399 . S
C44 C45 1.390 . S
C45 C40 1.392 . S
C45 C44 1.390 . S
C45 H57 0.929 . S
O46 Tb30 2.326 . S
O46 C34 1.242 . S
O47 Eu31 2.324 . S
O47 C34 1.258 . S
O48 Tb30 2.500 . S
O48 C50 1.273 . S
O49 Tb30 2.473 . S
O49 C50 1.257 . S
C50 O48 1.273 . S
C50 O49 1.257 . S
O51 Eu31 2.326 . S
O51 C39 1.242 . S
O52 Tb30 2.324 . S
O52 C39 1.258 . S
O53 Eu31 2.500 . S
O53 C36 1.273 . S
O54 Eu31 2.473 . S
O54 C36 1.257 . S
H55 C41 0.929 . S
H56 C43 0.931 . S
H57 C45 0.929 . S
O58 Tb59 2.292 . S
O58 C61 1.255 . S
Tb59 O58 2.292 . S
Tb59 O75 2.326 . S
Tb59 O77 2.500 . S
Tb59 O78 2.473 . S
Tb59 O81 2.324 . S
Eu60 O64 2.292 . S
Eu60 C65 2.852 . S
Eu60 O76 2.324 . S
Eu60 O80 2.326 . S
Eu60 O82 2.500 . S
Eu60 O83 2.473 . S
C61 O58 1.255 . S
C61 O62 1.247 . S
O62 C61 1.247 . S
C63 O75 1.242 . S
C63 O76 1.258 . S
O64 Eu60 2.292 . S
O64 C66 1.255 . S
C65 Eu60 2.852 . S
C65 C69 1.503 . S
C65 O82 1.273 . S
C65 O83 1.257 . S
C66 O64 1.255 . S
C66 O67 1.247 . S
O67 C66 1.247 . S
C68 O80 1.242 . S
C68 O81 1.258 . S
C69 C65 1.503 . S
C69 C70 1.379 . S
C69 C74 1.392 . S
C70 C69 1.379 . S
C70 C71 1.404 . S
C70 H84 0.929 . S
C71 C70 1.404 . S
C71 C72 1.389 . S
C72 C71 1.389 . S
C72 C73 1.399 . S
C72 H85 0.931 . S
C73 C72 1.399 . S
C73 C74 1.390 . S
C74 C69 1.392 . S
C74 C73 1.390 . S
C74 H86 0.929 . S
O75 Tb59 2.326 . S
O75 C63 1.242 . S
O76 Eu60 2.324 . S
O76 C63 1.258 . S
O77 Tb59 2.500 . S
O77 C79 1.273 . S
O78 Tb59 2.473 . S
O78 C79 1.257 . S
C79 O77 1.273 . S
C79 O78 1.257 . S
O80 Eu60 2.326 . S
O80 C68 1.242 . S
O81 Tb59 2.324 . S
O81 C68 1.258 . S
O82 Eu60 2.500 . S
O82 C65 1.273 . S
O83 Eu60 2.473 . S
O83 C65 1.257 . S
H84 C70 0.929 . S
H85 C72 0.931 . S
H86 C74 0.929 . S
O87 Tb88 2.292 . S
O87 C90 1.255 . S
Tb88 O87 2.292 . S
Tb88 O104 2.326 . S
Tb88 O106 2.500 . S
Tb88 O107 2.473 . S
Tb88 O110 2.324 . S
Eu89 O93 2.292 . S
Eu89 C94 2.852 . S
Eu89 O105 2.324 . S
Eu89 O109 2.326 . S
Eu89 O111 2.500 . S
Eu89 O112 2.473 . S
C90 O87 1.255 . S
C90 O91 1.247 . S
O91 C90 1.247 . S
C92 O104 1.242 . S
C92 O105 1.258 . S
O93 Eu89 2.292 . S
O93 C95 1.255 . S
C94 Eu89 2.852 . S
C94 C98 1.503 . S
C94 O111 1.273 . S
C94 O112 1.257 . S
C95 O93 1.255 . S
C95 O96 1.247 . S
O96 C95 1.247 . S
C97 O109 1.242 . S
C97 O110 1.258 . S
C98 C94 1.503 . S
C98 C99 1.379 . S
C98 C103 1.392 . S
C99 C98 1.379 . S
C99 C100 1.404 . S
C99 H113 0.929 . S
C100 C99 1.404 . S
C100 C101 1.389 . S
C101 C100 1.389 . S
C101 C102 1.399 . S
C101 H114 0.931 . S
C102 C101 1.399 . S
C102 C103 1.390 . S
C103 C98 1.392 . S
C103 C102 1.390 . S
C103 H115 0.929 . S
O104 Tb88 2.326 . S
O104 C92 1.242 . S
O105 Eu89 2.324 . S
O105 C92 1.258 . S
O106 Tb88 2.500 . S
O106 C108 1.273 . S
O107 Tb88 2.473 . S
O107 C108 1.257 . S
C108 O106 1.273 . S
C108 O107 1.257 . S
O109 Eu89 2.326 . S
O109 C97 1.242 . S
O110 Tb88 2.324 . S
O110 C97 1.258 . S
O111 Eu89 2.500 . S
O111 C94 1.273 . S
O112 Eu89 2.473 . S
O112 C94 1.257 . S
H113 C99 0.929 . S
H114 C101 0.931 . S
H115 C103 0.929 . S
O116 Tb117 2.292 . S
O116 C119 1.255 . S
Tb117 O116 2.292 . S
Tb117 O133 2.326 . S
Tb117 O135 2.500 . S
Tb117 O136 2.473 . S
Tb117 O139 2.324 . S
Eu118 O122 2.292 . S
Eu118 C123 2.852 . S
Eu118 O134 2.324 . S
Eu118 O138 2.326 . S
Eu118 O140 2.500 . S
Eu118 O141 2.473 . S
C119 O116 1.255 . S
C119 O120 1.247 . S
O120 C119 1.247 . S
C121 O133 1.242 . S
C121 O134 1.258 . S
O122 Eu118 2.292 . S
O122 C124 1.255 . S
C123 Eu118 2.852 . S
C123 C127 1.503 . S
C123 O140 1.273 . S
C123 O141 1.257 . S
C124 O122 1.255 . S
C124 O125 1.247 . S
O125 C124 1.247 . S
C126 O138 1.242 . S
C126 O139 1.258 . S
C127 C123 1.503 . S
C127 C128 1.379 . S
C127 C132 1.392 . S
C128 C127 1.379 . S
C128 C129 1.404 . S
C128 H142 0.929 . S
C129 C128 1.404 . S
C129 C130 1.389 . S
C130 C129 1.389 . S
C130 C131 1.399 . S
C130 H143 0.931 . S
C131 C130 1.399 . S
C131 C132 1.390 . S
C132 C127 1.392 . S
C132 C131 1.390 . S
C132 H144 0.929 . S
O133 Tb117 2.326 . S
O133 C121 1.242 . S
O134 Eu118 2.324 . S
O134 C121 1.258 . S
O135 Tb117 2.500 . S
O135 C137 1.273 . S
O136 Tb117 2.473 . S
O136 C137 1.257 . S
C137 O135 1.273 . S
C137 O136 1.257 . S
O138 Eu118 2.326 . S
O138 C126 1.242 . S
O139 Tb117 2.324 . S
O139 C126 1.258 . S
O140 Eu118 2.500 . S
O140 C123 1.273 . S
O141 Eu118 2.473 . S
O141 C123 1.257 . S
H142 C128 0.929 . S
H143 C130 0.931 . S
H144 C132 0.929 . S
O145 Tb146 2.292 . S
O145 C148 1.255 . S
Tb146 O145 2.292 . S
Tb146 O162 2.326 . S
Tb146 O164 2.500 . S
Tb146 O165 2.473 . S
Tb146 O168 2.324 . S
Eu147 O151 2.292 . S
Eu147 C152 2.852 . S
Eu147 O163 2.324 . S
Eu147 O167 2.326 . S
Eu147 O169 2.500 . S
Eu147 O170 2.473 . S
C148 O145 1.255 . S
C148 O149 1.247 . S
O149 C148 1.247 . S
C150 O162 1.242 . S
C150 O163 1.258 . S
O151 Eu147 2.292 . S
O151 C153 1.255 . S
C152 Eu147 2.852 . S
C152 C156 1.503 . S
C152 O169 1.273 . S
C152 O170 1.257 . S
C153 O151 1.255 . S
C153 O154 1.247 . S
O154 C153 1.247 . S
C155 O167 1.242 . S
C155 O168 1.258 . S
C156 C152 1.503 . S
C156 C157 1.379 . S
C156 C161 1.392 . S
C157 C156 1.379 . S
C157 C158 1.404 . S
C157 H171 0.929 . S
C158 C157 1.404 . S
C158 C159 1.389 . S
C159 C158 1.389 . S
C159 C160 1.399 . S
C159 H172 0.931 . S
C160 C159 1.399 . S
C160 C161 1.390 . S
C161 C156 1.392 . S
C161 C160 1.390 . S
C161 H173 0.929 . S
O162 Tb146 2.326 . S
O162 C150 1.242 . S
O163 Eu147 2.324 . S
O163 C150 1.258 . S
O164 Tb146 2.500 . S
O164 C166 1.273 . S
O165 Tb146 2.473 . S
O165 C166 1.257 . S
C166 O164 1.273 . S
C166 O165 1.257 . S
O167 Eu147 2.326 . S
O167 C155 1.242 . S
O168 Tb146 2.324 . S
O168 C155 1.258 . S
O169 Eu147 2.500 . S
O169 C152 1.273 . S
O170 Eu147 2.473 . S
O170 C152 1.257 . S
H171 C157 0.929 . S
H172 C159 0.931 . S
H173 C161 0.929 . S
O174 Tb175 2.292 . S
O174 C177 1.255 . S
Tb175 O174 2.292 . S
Tb175 O191 2.326 . S
Tb175 O193 2.500 . S
Tb175 O194 2.473 . S
Tb175 O197 2.324 . S
Eu176 O180 2.292 . S
Eu176 C181 2.852 . S
Eu176 O192 2.324 . S
Eu176 O196 2.326 . S
Eu176 O198 2.500 . S
Eu176 O199 2.473 . S
C177 O174 1.255 . S
C177 O178 1.247 . S
O178 C177 1.247 . S
C179 O191 1.242 . S
C179 O192 1.258 . S
O180 Eu176 2.292 . S
O180 C182 1.255 . S
C181 Eu176 2.852 . S
C181 C185 1.503 . S
C181 O198 1.273 . S
C181 O199 1.257 . S
C182 O180 1.255 . S
C182 O183 1.247 . S
O183 C182 1.247 . S
C184 O196 1.242 . S
C184 O197 1.258 . S
C185 C181 1.503 . S
C185 C186 1.379 . S
C185 C190 1.392 . S
C186 C185 1.379 . S
C186 C187 1.404 . S
C186 H200 0.929 . S
C187 C186 1.404 . S
C187 C188 1.389 . S
C188 C187 1.389 . S
C188 C189 1.399 . S
C188 H201 0.931 . S
C189 C188 1.399 . S
C189 C190 1.390 . S
C190 C185 1.392 . S
C190 C189 1.390 . S
C190 H202 0.929 . S
O191 Tb175 2.326 . S
O191 C179 1.242 . S
O192 Eu176 2.324 . S
O192 C179 1.258 . S
O193 Tb175 2.500 . S
O193 C195 1.273 . S
O194 Tb175 2.473 . S
O194 C195 1.257 . S
C195 O193 1.273 . S
C195 O194 1.257 . S
O196 Eu176 2.326 . S
O196 C184 1.242 . S
O197 Tb175 2.324 . S
O197 C184 1.258 . S
O198 Eu176 2.500 . S
O198 C181 1.273 . S
O199 Eu176 2.473 . S
O199 C181 1.257 . S
H200 C186 0.929 . S
H201 C188 0.931 . S
H202 C190 0.929 . S
O203 Tb204 2.292 . S
O203 C206 1.255 . S
Tb204 O203 2.292 . S
Tb204 O220 2.326 . S
Tb204 O222 2.500 . S
Tb204 O223 2.473 . S
Tb204 O226 2.324 . S
Eu205 O209 2.292 . S
Eu205 C210 2.852 . S
Eu205 O221 2.324 . S
Eu205 O225 2.326 . S
Eu205 O227 2.500 . S
Eu205 O228 2.473 . S
C206 O203 1.255 . S
C206 O207 1.247 . S
O207 C206 1.247 . S
C208 O220 1.242 . S
C208 O221 1.258 . S
O209 Eu205 2.292 . S
O209 C211 1.255 . S
C210 Eu205 2.852 . S
C210 C214 1.503 . S
C210 O227 1.273 . S
C210 O228 1.257 . S
C211 O209 1.255 . S
C211 O212 1.247 . S
O212 C211 1.247 . S
C213 O225 1.242 . S
C213 O226 1.258 . S
C214 C210 1.503 . S
C214 C215 1.379 . S
C214 C219 1.392 . S
C215 C214 1.379 . S
C215 C216 1.404 . S
C215 H229 0.929 . S
C216 C215 1.404 . S
C216 C217 1.389 . S
C217 C216 1.389 . S
C217 C218 1.399 . S
C217 H230 0.931 . S
C218 C217 1.399 . S
C218 C219 1.390 . S
C219 C214 1.392 . S
C219 C218 1.390 . S
C219 H231 0.929 . S
O220 Tb204 2.326 . S
O220 C208 1.242 . S
O221 Eu205 2.324 . S
O221 C208 1.258 . S
O222 Tb204 2.500 . S
O222 C224 1.273 . S
O223 Tb204 2.473 . S
O223 C224 1.257 . S
C224 O222 1.273 . S
C224 O223 1.257 . S
O225 Eu205 2.326 . S
O225 C213 1.242 . S
O226 Tb204 2.324 . S
O226 C213 1.258 . S
O227 Eu205 2.500 . S
O227 C210 1.273 . S
O228 Eu205 2.473 . S
O228 C210 1.257 . S
H229 C215 0.929 . S
H230 C217 0.931 . S
H231 C219 0.929 . S
O232 Tb233 2.292 . S
O232 C235 1.255 . S
Tb233 O232 2.292 . S
Tb233 O249 2.326 . S
Tb233 O251 2.500 . S
Tb233 O252 2.473 . S
Tb233 O255 2.324 . S
Eu234 O238 2.292 . S
Eu234 C239 2.852 . S
Eu234 O250 2.324 . S
Eu234 O254 2.326 . S
Eu234 O256 2.500 . S
Eu234 O257 2.473 . S
C235 O232 1.255 . S
C235 O236 1.247 . S
O236 C235 1.247 . S
C237 O249 1.242 . S
C237 O250 1.258 . S
O238 Eu234 2.292 . S
O238 C240 1.255 . S
C239 Eu234 2.852 . S
C239 C243 1.503 . S
C239 O256 1.273 . S
C239 O257 1.257 . S
C240 O238 1.255 . S
C240 O241 1.247 . S
O241 C240 1.247 . S
C242 O254 1.242 . S
C242 O255 1.258 . S
C243 C239 1.503 . S
C243 C244 1.379 . S
C243 C248 1.392 . S
C244 C243 1.379 . S
C244 C245 1.404 . S
C244 H258 0.929 . S
C245 C244 1.404 . S
C245 C246 1.389 . S
C246 C245 1.389 . S
C246 C247 1.399 . S
C246 H259 0.931 . S
C247 C246 1.399 . S
C247 C248 1.390 . S
C248 C243 1.392 . S
C248 C247 1.390 . S
C248 H260 0.929 . S
O249 Tb233 2.326 . S
O249 C237 1.242 . S
O250 Eu234 2.324 . S
O250 C237 1.258 . S
O251 Tb233 2.500 . S
O251 C253 1.273 . S
O252 Tb233 2.473 . S
O252 C253 1.257 . S
C253 O251 1.273 . S
C253 O252 1.257 . S
O254 Eu234 2.326 . S
O254 C242 1.242 . S
O255 Tb233 2.324 . S
O255 C242 1.258 . S
O256 Eu234 2.500 . S
O256 C239 1.273 . S
O257 Eu234 2.473 . S
O257 C239 1.257 . S
H258 C244 0.929 . S
H259 C246 0.931 . S
H260 C248 0.929 . S
O261 Tb262 2.292 . S
O261 C264 1.255 . S
Tb262 O261 2.292 . S
Tb262 O278 2.326 . S
Tb262 O280 2.500 . S
Tb262 O281 2.473 . S
Tb262 O284 2.324 1_545 S
Eu263 O267 2.292 . S
Eu263 C268 2.852 . S
Eu263 O279 2.324 . S
Eu263 O283 2.326 . S
Eu263 O285 2.500 . S
Eu263 O286 2.473 . S
C264 O261 1.255 . S
C264 O265 1.247 . S
O265 C264 1.247 . S
C266 O278 1.242 . S
C266 O279 1.258 . S
O267 Eu263 2.292 . S
O267 C269 1.255 . S
C268 Eu263 2.852 . S
C268 C272 1.503 . S
C268 O285 1.273 . S
C268 O286 1.257 . S
C269 O267 1.255 . S
C269 O270 1.247 . S
O270 C269 1.247 . S
C271 O283 1.242 1_565 S
C271 O284 1.258 . S
C272 C268 1.503 . S
C272 C273 1.379 . S
C272 C277 1.392 . S
C273 C272 1.379 . S
C273 C274 1.404 . S
C273 H287 0.929 . S
C274 C273 1.404 . S
C274 C275 1.389 . S
C275 C274 1.389 . S
C275 C276 1.399 . S
C275 H288 0.931 . S
C276 C275 1.399 . S
C276 C277 1.390 . S
C277 C272 1.392 . S
C277 C276 1.390 . S
C277 H289 0.929 . S
O278 Tb262 2.326 . S
O278 C266 1.242 . S
O279 Eu263 2.324 . S
O279 C266 1.258 . S
O280 Tb262 2.500 . S
O280 C282 1.273 . S
O281 Tb262 2.473 . S
O281 C282 1.257 . S
C282 O280 1.273 . S
C282 O281 1.257 . S
O283 Eu263 2.326 . S
O283 C271 1.242 1_545 S
O284 Tb262 2.324 1_565 S
O284 C271 1.258 . S
O285 Eu263 2.500 . S
O285 C268 1.273 . S
O286 Eu263 2.473 . S
O286 C268 1.257 . S
H287 C273 0.929 . S
H288 C275 0.931 . S
H289 C277 0.929 . S
O290 Tb291 2.292 . S
O290 C293 1.255 . S
Tb291 O290 2.292 . S
Tb291 O307 2.326 . S
Tb291 O309 2.500 . S
Tb291 O310 2.473 . S
Tb291 O313 2.324 . S
Eu292 O296 2.292 . S
Eu292 C297 2.852 . S
Eu292 O308 2.324 . S
Eu292 O312 2.326 . S
Eu292 O314 2.500 . S
Eu292 O315 2.473 . S
C293 O290 1.255 . S
C293 O294 1.247 . S
O294 C293 1.247 . S
C295 O307 1.242 . S
C295 O308 1.258 . S
O296 Eu292 2.292 . S
O296 C298 1.255 . S
C297 Eu292 2.852 . S
C297 C301 1.503 . S
C297 O314 1.273 . S
C297 O315 1.257 . S
C298 O296 1.255 . S
C298 O299 1.247 . S
O299 C298 1.247 . S
C300 O312 1.242 . S
C300 O313 1.258 . S
C301 C297 1.503 . S
C301 C302 1.379 . S
C301 C306 1.392 . S
C302 C301 1.379 . S
C302 C303 1.404 . S
C302 H316 0.929 . S
C303 C302 1.404 . S
C303 C304 1.389 . S
C304 C303 1.389 . S
C304 C305 1.399 . S
C304 H317 0.931 . S
C305 C304 1.399 . S
C305 C306 1.390 . S
C306 C301 1.392 . S
C306 C305 1.390 . S
C306 H318 0.929 . S
O307 Tb291 2.326 . S
O307 C295 1.242 . S
O308 Eu292 2.324 . S
O308 C295 1.258 . S
O309 Tb291 2.500 . S
O309 C311 1.273 . S
O310 Tb291 2.473 . S
O310 C311 1.257 . S
C311 O309 1.273 . S
C311 O310 1.257 . S
O312 Eu292 2.326 . S
O312 C300 1.242 . S
O313 Tb291 2.324 . S
O313 C300 1.258 . S
O314 Eu292 2.500 . S
O314 C297 1.273 . S
O315 Eu292 2.473 . S
O315 C297 1.257 . S
H316 C302 0.929 . S
H317 C304 0.931 . S
H318 C306 0.929 . S
O319 Tb320 2.292 . S
O319 C322 1.255 . S
Tb320 O319 2.292 . S
Tb320 O336 2.326 . S
Tb320 O338 2.500 . S
Tb320 O339 2.473 . S
Tb320 O342 2.324 1_565 S
Eu321 O325 2.292 . S
Eu321 C326 2.852 . S
Eu321 O337 2.324 . S
Eu321 O341 2.326 . S
Eu321 O343 2.500 . S
Eu321 O344 2.473 . S
C322 O319 1.255 . S
C322 O323 1.247 . S
O323 C322 1.247 . S
C324 O336 1.242 . S
C324 O337 1.258 . S
O325 Eu321 2.292 . S
O325 C327 1.255 . S
C326 Eu321 2.852 . S
C326 C330 1.503 . S
C326 O343 1.273 . S
C326 O344 1.257 . S
C327 O325 1.255 . S
C327 O328 1.247 . S
O328 C327 1.247 . S
C329 O341 1.242 1_545 S
C329 O342 1.258 . S
C330 C326 1.503 . S
C330 C331 1.379 . S
C330 C335 1.392 . S
C331 C330 1.379 . S
C331 C332 1.404 . S
C331 H345 0.929 . S
C332 C331 1.404 . S
C332 C333 1.389 . S
C333 C332 1.389 . S
C333 C334 1.399 . S
C333 H346 0.931 . S
C334 C333 1.399 . S
C334 C335 1.390 . S
C335 C330 1.392 . S
C335 C334 1.390 . S
C335 H347 0.929 . S
O336 Tb320 2.326 . S
O336 C324 1.242 . S
O337 Eu321 2.324 . S
O337 C324 1.258 . S
O338 Tb320 2.500 . S
O338 C340 1.273 . S
O339 Tb320 2.473 . S
O339 C340 1.257 . S
C340 O338 1.273 . S
C340 O339 1.257 . S
O341 Eu321 2.326 . S
O341 C329 1.242 1_565 S
O342 Tb320 2.324 1_545 S
O342 C329 1.258 . S
O343 Eu321 2.500 . S
O343 C326 1.273 . S
O344 Eu321 2.473 . S
O344 C326 1.257 . S
H345 C331 0.929 . S
H346 C333 0.931 . S
H347 C335 0.929 . S
O348 Tb349 2.292 . S
O348 C351 1.255 . S
Tb349 O348 2.292 . S
Tb349 O365 2.326 . S
Tb349 O367 2.500 . S
Tb349 O368 2.473 . S
Tb349 O371 2.324 . S
Eu350 O354 2.292 . S
Eu350 C355 2.852 . S
Eu350 O366 2.324 . S
Eu350 O370 2.326 . S
Eu350 O372 2.500 . S
Eu350 O373 2.473 . S
C351 O348 1.255 . S
C351 O352 1.247 . S
O352 C351 1.247 . S
C353 O365 1.242 . S
C353 O366 1.258 . S
O354 Eu350 2.292 . S
O354 C356 1.255 . S
C355 Eu350 2.852 . S
C355 C359 1.503 . S
C355 O372 1.273 . S
C355 O373 1.257 . S
C356 O354 1.255 . S
C356 O357 1.247 . S
O357 C356 1.247 . S
C358 O370 1.242 . S
C358 O371 1.258 . S
C359 C355 1.503 . S
C359 C360 1.379 . S
C359 C364 1.392 . S
C360 C359 1.379 . S
C360 C361 1.404 . S
C360 H374 0.929 . S
C361 C360 1.404 . S
C361 C362 1.389 . S
C362 C361 1.389 . S
C362 C363 1.399 . S
C362 H375 0.931 . S
C363 C362 1.399 . S
C363 C364 1.390 . S
C364 C359 1.392 . S
C364 C363 1.390 . S
C364 H376 0.929 . S
O365 Tb349 2.326 . S
O365 C353 1.242 . S
O366 Eu350 2.324 . S
O366 C353 1.258 . S
O367 Tb349 2.500 . S
O367 C369 1.273 . S
O368 Tb349 2.473 . S
O368 C369 1.257 . S
C369 O367 1.273 . S
C369 O368 1.257 . S
O370 Eu350 2.326 . S
O370 C358 1.242 . S
O371 Tb349 2.324 . S
O371 C358 1.258 . S
O372 Eu350 2.500 . S
O372 C355 1.273 . S
O373 Eu350 2.473 . S
O373 C355 1.257 . S
H374 C360 0.929 . S
H375 C362 0.931 . S
H376 C364 0.929 . S
O377 Tb378 2.292 . S
O377 C380 1.255 . S
Tb378 O377 2.292 . S
Tb378 O394 2.326 . S
Tb378 O396 2.500 . S
Tb378 O397 2.473 . S
Tb378 O400 2.324 1_565 S
Eu379 O383 2.292 . S
Eu379 C384 2.852 . S
Eu379 O395 2.324 . S
Eu379 O399 2.326 . S
Eu379 O401 2.500 . S
Eu379 O402 2.473 . S
C380 O377 1.255 . S
C380 O381 1.247 . S
O381 C380 1.247 . S
C382 O394 1.242 . S
C382 O395 1.258 . S
O383 Eu379 2.292 . S
O383 C385 1.255 . S
C384 Eu379 2.852 . S
C384 C388 1.503 . S
C384 O401 1.273 . S
C384 O402 1.257 . S
C385 O383 1.255 . S
C385 O386 1.247 . S
O386 C385 1.247 . S
C387 O399 1.242 1_545 S
C387 O400 1.258 . S
C388 C384 1.503 . S
C388 C389 1.379 . S
C388 C393 1.392 . S
C389 C388 1.379 . S
C389 C390 1.404 . S
C389 H403 0.929 . S
C390 C389 1.404 . S
C390 C391 1.389 . S
C391 C390 1.389 . S
C391 C392 1.399 . S
C391 H404 0.931 . S
C392 C391 1.399 . S
C392 C393 1.390 . S
C393 C388 1.392 . S
C393 C392 1.390 . S
C393 H405 0.929 . S
O394 Tb378 2.326 . S
O394 C382 1.242 . S
O395 Eu379 2.324 . S
O395 C382 1.258 . S
O396 Tb378 2.500 . S
O396 C398 1.273 . S
O397 Tb378 2.473 . S
O397 C398 1.257 . S
C398 O396 1.273 . S
C398 O397 1.257 . S
O399 Eu379 2.326 . S
O399 C387 1.242 1_565 S
O400 Tb378 2.324 1_545 S
O400 C387 1.258 . S
O401 Eu379 2.500 . S
O401 C384 1.273 . S
O402 Eu379 2.473 . S
O402 C384 1.257 . S
H403 C389 0.929 . S
H404 C391 0.931 . S
H405 C393 0.929 . S
O406 Tb407 2.292 . S
O406 C409 1.255 . S
Tb407 O406 2.292 . S
Tb407 O423 2.326 . S
Tb407 O425 2.500 . S
Tb407 O426 2.473 . S
Tb407 O429 2.324 . S
Eu408 O412 2.292 . S
Eu408 C413 2.852 . S
Eu408 O424 2.324 . S
Eu408 O428 2.326 . S
Eu408 O430 2.500 . S
Eu408 O431 2.473 . S
C409 O406 1.255 . S
C409 O410 1.247 . S
O410 C409 1.247 . S
C411 O423 1.242 . S
C411 O424 1.258 . S
O412 Eu408 2.292 . S
O412 C414 1.255 . S
C413 Eu408 2.852 . S
C413 C417 1.503 . S
C413 O430 1.273 . S
C413 O431 1.257 . S
C414 O412 1.255 . S
C414 O415 1.247 . S
O415 C414 1.247 . S
C416 O428 1.242 . S
C416 O429 1.258 . S
C417 C413 1.503 . S
C417 C418 1.379 . S
C417 C422 1.392 . S
C418 C417 1.379 . S
C418 C419 1.404 . S
C418 H432 0.929 . S
C419 C418 1.404 . S
C419 C420 1.389 . S
C420 C419 1.389 . S
C420 C421 1.399 . S
C420 H433 0.931 . S
C421 C420 1.399 . S
C421 C422 1.390 . S
C422 C417 1.392 . S
C422 C421 1.390 . S
C422 H434 0.929 . S
O423 Tb407 2.326 . S
O423 C411 1.242 . S
O424 Eu408 2.324 . S
O424 C411 1.258 . S
O425 Tb407 2.500 . S
O425 C427 1.273 . S
O426 Tb407 2.473 . S
O426 C427 1.257 . S
C427 O425 1.273 . S
C427 O426 1.257 . S
O428 Eu408 2.326 . S
O428 C416 1.242 . S
O429 Tb407 2.324 . S
O429 C416 1.258 . S
O430 Eu408 2.500 . S
O430 C413 1.273 . S
O431 Eu408 2.473 . S
O431 C413 1.257 . S
H432 C418 0.929 . S
H433 C420 0.931 . S
H434 C422 0.929 . S
O435 Tb436 2.292 . S
O435 C438 1.255 . S
Tb436 O435 2.292 . S
Tb436 O452 2.326 . S
Tb436 O454 2.500 . S
Tb436 O455 2.473 . S
Tb436 O458 2.324 1_545 S
Eu437 O441 2.292 . S
Eu437 C442 2.852 . S
Eu437 O453 2.324 . S
Eu437 O457 2.326 . S
Eu437 O459 2.500 . S
Eu437 O460 2.473 . S
C438 O435 1.255 . S
C438 O439 1.247 . S
O439 C438 1.247 . S
C440 O452 1.242 . S
C440 O453 1.258 . S
O441 Eu437 2.292 . S
O441 C443 1.255 . S
C442 Eu437 2.852 . S
C442 C446 1.503 . S
C442 O459 1.273 . S
C442 O460 1.257 . S
C443 O441 1.255 . S
C443 O444 1.247 . S
O444 C443 1.247 . S
C445 O457 1.242 1_565 S
C445 O458 1.258 . S
C446 C442 1.503 . S
C446 C447 1.379 . S
C446 C451 1.392 . S
C447 C446 1.379 . S
C447 C448 1.404 . S
C447 H461 0.929 . S
C448 C447 1.404 . S
C448 C449 1.389 . S
C449 C448 1.389 . S
C449 C450 1.399 . S
C449 H462 0.931 . S
C450 C449 1.399 . S
C450 C451 1.390 . S
C451 C446 1.392 . S
C451 C450 1.390 . S
C451 H463 0.929 . S
O452 Tb436 2.326 . S
O452 C440 1.242 . S
O453 Eu437 2.324 . S
O453 C440 1.258 . S
O454 Tb436 2.500 . S
O454 C456 1.273 . S
O455 Tb436 2.473 . S
O455 C456 1.257 . S
C456 O454 1.273 . S
C456 O455 1.257 . S
O457 Eu437 2.326 . S
O457 C445 1.242 1_545 S
O458 Tb436 2.324 1_565 S
O458 C445 1.258 . S
O459 Eu437 2.500 . S
O459 C442 1.273 . S
O460 Eu437 2.473 . S
O460 C442 1.257 . S
H461 C447 0.929 . S
H462 C449 0.931 . S
H463 C451 0.929 . S
C464 C465 1.349 . S
C464 C466 1.327 . S
C464 H489 0.950 . S
C465 C464 1.349 . S
C465 C481 1.349 . S
C466 C464 1.327 . S
C466 C485 1.429 . S
C466 H490 0.950 . S
C467 C484 1.574 . S
C467 C486 1.368 . S
C467 H491 0.949 . S
H468 C472 0.949 . S
C469 C470 1.349 . S
C469 C471 1.327 . S
C469 H492 0.950 . S
C470 C469 1.349 . S
C470 C482 1.349 . S
C471 C469 1.327 . S
C471 C487 1.429 . S
C471 H493 0.950 . S
C472 H468 0.949 . S
C472 C480 1.574 . S
C472 C488 1.368 . S
H473 C481 0.950 . S
H474 C479 0.950 . S
H475 C480 0.949 . S
H476 C482 0.950 . S
H477 C483 0.950 . S
H478 C484 0.949 . S
C479 H474 0.950 . S
C479 C481 1.327 . S
C479 C485 1.429 . S
C480 C472 1.574 . S
C480 H475 0.949 . S
C480 C486 1.368 . S
C481 C465 1.349 . S
C481 H473 0.950 . S
C481 C479 1.327 . S
C482 C470 1.349 . S
C482 H476 0.950 . S
C482 C483 1.327 . S
C483 H477 0.950 . S
C483 C482 1.327 . S
C483 C487 1.429 . S
C484 C467 1.574 . S
C484 H478 0.949 . S
C484 C488 1.368 . S
C485 C466 1.429 . S
C485 C479 1.429 . S
C485 C486 1.523 . S
C486 C467 1.368 . S
C486 C480 1.368 . S
C486 C485 1.523 . S
C487 C471 1.429 . S
C487 C483 1.429 . S
C487 C488 1.523 . S
C488 C472 1.368 . S
C488 C484 1.368 . S
C488 C487 1.523 . S
H489 C464 0.950 . S
H490 C466 0.950 . S
H491 C467 0.949 . S
H492 C469 0.950 . S
H493 C471 0.950 . S
C494 C495 1.349 . S
C494 C496 1.327 . S
C494 H519 0.950 . S
C495 C494 1.349 . S
C495 C511 1.349 . S
C496 C494 1.327 . S
C496 C515 1.429 . S
C496 H520 0.950 . S
C497 C514 1.574 . S
C497 C516 1.368 . S
C497 H521 0.949 . S
H498 C502 0.949 . S
C499 C500 1.349 . S
C499 C501 1.327 . S
C499 H522 0.950 . S
C500 C499 1.349 . S
C500 C512 1.349 . S
C501 C499 1.327 . S
C501 C517 1.429 . S
C501 H523 0.950 . S
C502 H498 0.949 . S
C502 C510 1.574 . S
C502 C518 1.368 . S
H503 C511 0.950 . S
H504 C509 0.950 . S
H505 C510 0.949 . S
H506 C512 0.950 . S
H507 C513 0.950 . S
H508 C514 0.949 . S
C509 H504 0.950 . S
C509 C511 1.327 . S
C509 C515 1.429 . S
C510 C502 1.574 . S
C510 H505 0.949 . S
C510 C516 1.368 . S
C511 C495 1.349 . S
C511 H503 0.950 . S
C511 C509 1.327 . S
C512 C500 1.349 . S
C512 H506 0.950 . S
C512 C513 1.327 . S
C513 H507 0.950 . S
C513 C512 1.327 . S
C513 C517 1.429 . S
C514 C497 1.574 . S
C514 H508 0.949 . S
C514 C518 1.368 . S
C515 C496 1.429 . S
C515 C509 1.429 . S
C515 C516 1.523 . S
C516 C497 1.368 . S
C516 C510 1.368 . S
C516 C515 1.523 . S
C517 C501 1.429 . S
C517 C513 1.429 . S
C517 C518 1.523 . S
C518 C502 1.368 . S
C518 C514 1.368 . S
C518 C517 1.523 . S
H519 C494 0.950 . S
H520 C496 0.950 . S
H521 C497 0.949 . S
H522 C499 0.950 . S
H523 C501 0.950 . S
C524 C525 1.349 . S
C524 C526 1.327 . S
C524 H549 0.950 . S
C525 C524 1.349 . S
C525 C541 1.349 . S
C526 C524 1.327 . S
C526 C545 1.429 . S
C526 H550 0.950 . S
C527 C544 1.574 . S
C527 C546 1.368 . S
C527 H551 0.949 . S
H528 C532 0.949 . S
C529 C530 1.349 . S
C529 C531 1.327 . S
C529 H552 0.950 . S
C530 C529 1.349 . S
C530 C542 1.349 . S
C531 C529 1.327 . S
C531 C547 1.429 . S
C531 H553 0.950 . S
C532 H528 0.949 . S
C532 C540 1.574 . S
C532 C548 1.368 . S
H533 C541 0.950 . S
H534 C539 0.950 . S
H535 C540 0.949 . S
H536 C542 0.950 . S
H537 C543 0.950 . S
H538 C544 0.949 . S
C539 H534 0.950 . S
C539 C541 1.327 . S
C539 C545 1.429 . S
C540 C532 1.574 . S
C540 H535 0.949 . S
C540 C546 1.368 . S
C541 C525 1.349 . S
C541 H533 0.950 . S
C541 C539 1.327 . S
C542 C530 1.349 . S
C542 H536 0.950 . S
C542 C543 1.327 . S
C543 H537 0.950 . S
C543 C542 1.327 . S
C543 C547 1.429 . S
C544 C527 1.574 . S
C544 H538 0.949 . S
C544 C548 1.368 . S
C545 C526 1.429 . S
C545 C539 1.429 . S
C545 C546 1.523 . S
C546 C527 1.368 . S
C546 C540 1.368 . S
C546 C545 1.523 . S
C547 C531 1.429 . S
C547 C543 1.429 . S
C547 C548 1.523 . S
C548 C532 1.368 . S
C548 C544 1.368 . S
C548 C547 1.523 . S
H549 C524 0.950 . S
H550 C526 0.950 . S
H551 C527 0.949 . S
H552 C529 0.950 . S
H553 C531 0.950 . S
C554 C555 1.349 . S
C554 C556 1.327 . S
C554 H579 0.950 . S
C555 C554 1.349 . S
C555 C571 1.349 . S
C556 C554 1.327 . S
C556 C575 1.429 . S
C556 H580 0.950 . S
C557 C574 1.574 . S
C557 C576 1.368 . S
C557 H581 0.949 . S
H558 C562 0.949 . S
C559 C560 1.349 . S
C559 C561 1.327 . S
C559 H582 0.950 . S
C560 C559 1.349 . S
C560 C572 1.349 . S
C561 C559 1.327 . S
C561 C577 1.429 . S
C561 H583 0.950 . S
C562 H558 0.949 . S
C562 C570 1.574 . S
C562 C578 1.368 . S
H563 C571 0.950 . S
H564 C569 0.950 . S
H565 C570 0.949 . S
H566 C572 0.950 1_655 S
H567 C573 0.950 . S
H568 C574 0.949 . S
C569 H564 0.950 . S
C569 C571 1.327 . S
C569 C575 1.429 . S
C570 C562 1.574 . S
C570 H565 0.949 . S
C570 C576 1.368 . S
C571 C555 1.349 . S
C571 H563 0.950 . S
C571 C569 1.327 . S
C572 C560 1.349 . S
C572 H566 0.950 1_455 S
C572 C573 1.327 . S
C573 H567 0.950 . S
C573 C572 1.327 . S
C573 C577 1.429 . S
C574 C557 1.574 . S
C574 H568 0.949 . S
C574 C578 1.368 . S
C575 C556 1.429 . S
C575 C569 1.429 . S
C575 C576 1.523 . S
C576 C557 1.368 . S
C576 C570 1.368 . S
C576 C575 1.523 . S
C577 C561 1.429 . S
C577 C573 1.429 . S
C577 C578 1.523 . S
C578 C562 1.368 . S
C578 C574 1.368 . S
C578 C577 1.523 . S
H579 C554 0.950 . S
H580 C556 0.950 . S
H581 C557 0.949 . S
H582 C559 0.950 . S
H583 C561 0.950 . S
C584 C585 1.349 . S
C584 C586 1.327 . S
C584 H609 0.950 . S
C585 C584 1.349 . S
C585 C601 1.349 . S
C586 C584 1.327 . S
C586 C605 1.429 . S
C586 H610 0.950 . S
C587 C604 1.574 . S
C587 C606 1.368 . S
C587 H611 0.949 . S
H588 C592 0.949 . S
C589 C590 1.349 . S
C589 C591 1.327 . S
C589 H612 0.950 . S
C590 C589 1.349 . S
C590 C602 1.349 . S
C591 C589 1.327 . S
C591 C607 1.429 . S
C591 H613 0.950 . S
C592 H588 0.949 . S
C592 C600 1.574 . S
C592 C608 1.368 . S
H593 C601 0.950 . S
H594 C599 0.950 . S
H595 C600 0.949 . S
H596 C602 0.950 . S
H597 C603 0.950 . S
H598 C604 0.949 . S
C599 H594 0.950 . S
C599 C601 1.327 . S
C599 C605 1.429 . S
C600 C592 1.574 . S
C600 H595 0.949 . S
C600 C606 1.368 . S
C601 C585 1.349 . S
C601 H593 0.950 . S
C601 C599 1.327 . S
C602 C590 1.349 . S
C602 H596 0.950 . S
C602 C603 1.327 . S
C603 H597 0.950 . S
C603 C602 1.327 . S
C603 C607 1.429 . S
C604 C587 1.574 . S
C604 H598 0.949 . S
C604 C608 1.368 . S
C605 C586 1.429 . S
C605 C599 1.429 . S
C605 C606 1.523 . S
C606 C587 1.368 . S
C606 C600 1.368 . S
C606 C605 1.523 . S
C607 C591 1.429 . S
C607 C603 1.429 . S
C607 C608 1.523 . S
C608 C592 1.368 . S
C608 C604 1.368 . S
C608 C607 1.523 . S
H609 C584 0.950 . S
H610 C586 0.950 . S
H611 C587 0.949 . S
H612 C589 0.950 . S
H613 C591 0.950 . S
C614 C615 1.349 . S
C614 C616 1.327 . S
C614 H639 0.950 . S
C615 C614 1.349 . S
C615 C631 1.349 . S
C616 C614 1.327 . S
C616 C635 1.429 . S
C616 H640 0.950 . S
C617 C634 1.574 . S
C617 C636 1.368 . S
C617 H641 0.949 . S
H618 C622 0.949 . S
C619 C620 1.349 . S
C619 C621 1.327 . S
C619 H642 0.950 . S
C620 C619 1.349 . S
C620 C632 1.349 . S
C621 C619 1.327 . S
C621 C637 1.429 . S
C621 H643 0.950 . S
C622 H618 0.949 . S
C622 C630 1.574 . S
C622 C638 1.368 . S
H623 C631 0.950 . S
H624 C629 0.950 . S
H625 C630 0.949 . S
H626 C632 0.950 . S
H627 C633 0.950 . S
H628 C634 0.949 . S
C629 H624 0.950 . S
C629 C631 1.327 . S
C629 C635 1.429 . S
C630 C622 1.574 . S
C630 H625 0.949 . S
C630 C636 1.368 . S
C631 C615 1.349 . S
C631 H623 0.950 . S
C631 C629 1.327 . S
C632 C620 1.349 . S
C632 H626 0.950 . S
C632 C633 1.327 . S
C633 H627 0.950 . S
C633 C632 1.327 . S
C633 C637 1.429 . S
C634 C617 1.574 . S
C634 H628 0.949 . S
C634 C638 1.368 . S
C635 C616 1.429 . S
C635 C629 1.429 . S
C635 C636 1.523 . S
C636 C617 1.368 . S
C636 C630 1.368 . S
C636 C635 1.523 . S
C637 C621 1.429 . S
C637 C633 1.429 . S
C637 C638 1.523 . S
C638 C622 1.368 . S
C638 C634 1.368 . S
C638 C637 1.523 . S
H639 C614 0.950 . S
H640 C616 0.950 . S
H641 C617 0.949 . S
H642 C619 0.950 . S
H643 C621 0.950 . S
C644 C645 1.349 . S
C644 C646 1.327 . S
C644 H669 0.950 . S
C645 C644 1.349 . S
C645 C661 1.349 . S
C646 C644 1.327 . S
C646 C665 1.429 . S
C646 H670 0.950 . S
C647 C664 1.574 . S
C647 C666 1.368 . S
C647 H671 0.949 . S
H648 C652 0.949 . S
C649 C650 1.349 . S
C649 C651 1.327 . S
C649 H672 0.950 . S
C650 C649 1.349 . S
C650 C662 1.349 . S
C651 C649 1.327 . S
C651 C667 1.429 . S
C651 H673 0.950 . S
C652 H648 0.949 . S
C652 C660 1.574 . S
C652 C668 1.368 . S
H653 C661 0.950 . S
H654 C659 0.950 . S
H655 C660 0.949 . S
H656 C662 0.950 . S
H657 C663 0.950 . S
H658 C664 0.949 . S
C659 H654 0.950 . S
C659 C661 1.327 . S
C659 C665 1.429 . S
C660 C652 1.574 . S
C660 H655 0.949 . S
C660 C666 1.368 . S
C661 C645 1.349 . S
C661 H653 0.950 . S
C661 C659 1.327 . S
C662 C650 1.349 . S
C662 H656 0.950 . S
C662 C663 1.327 . S
C663 H657 0.950 . S
C663 C662 1.327 . S
C663 C667 1.429 . S
C664 C647 1.574 . S
C664 H658 0.949 . S
C664 C668 1.368 . S
C665 C646 1.429 . S
C665 C659 1.429 . S
C665 C666 1.523 . S
C666 C647 1.368 . S
C666 C660 1.368 . S
C666 C665 1.523 . S
C667 C651 1.429 . S
C667 C663 1.429 . S
C667 C668 1.523 . S
C668 C652 1.368 . S
C668 C664 1.368 . S
C668 C667 1.523 . S
H669 C644 0.950 . S
H670 C646 0.950 . S
H671 C647 0.949 . S
H672 C649 0.950 . S
H673 C651 0.950 . S
C674 C675 1.349 . S
C674 C676 1.327 . S
C674 H699 0.950 . S
C675 C674 1.349 . S
C675 C691 1.349 . S
C676 C674 1.327 . S
C676 C695 1.429 . S
C676 H700 0.950 . S
C677 C694 1.574 . S
C677 C696 1.368 . S
C677 H701 0.949 . S
H678 C682 0.949 . S
C679 C680 1.349 . S
C679 C681 1.327 . S
C679 H702 0.950 . S
C680 C679 1.349 . S
C680 C692 1.349 . S
C681 C679 1.327 . S
C681 C697 1.429 . S
C681 H703 0.950 . S
C682 H678 0.949 . S
C682 C690 1.574 . S
C682 C698 1.368 . S
H683 C691 0.950 . S
H684 C689 0.950 . S
H685 C690 0.949 . S
H686 C692 0.950 1_455 S
H687 C693 0.950 . S
H688 C694 0.949 . S
C689 H684 0.950 . S
C689 C691 1.327 . S
C689 C695 1.429 . S
C690 C682 1.574 . S
C690 H685 0.949 . S
C690 C696 1.368 . S
C691 C675 1.349 . S
C691 H683 0.950 . S
C691 C689 1.327 . S
C692 C680 1.349 . S
C692 H686 0.950 1_655 S
C692 C693 1.327 . S
C693 H687 0.950 . S
C693 C692 1.327 . S
C693 C697 1.429 . S
C694 C677 1.574 . S
C694 H688 0.949 . S
C694 C698 1.368 . S
C695 C676 1.429 . S
C695 C689 1.429 . S
C695 C696 1.523 . S
C696 C677 1.368 . S
C696 C690 1.368 . S
C696 C695 1.523 . S
C697 C681 1.429 . S
C697 C693 1.429 . S
C697 C698 1.523 . S
C698 C682 1.368 . S
C698 C694 1.368 . S
C698 C697 1.523 . S
H699 C674 0.950 . S
H700 C676 0.950 . S
H701 C677 0.949 . S
H702 C679 0.950 . S
H703 C681 0.950 . S
C704 C705 1.349 . S
C704 C706 1.327 . S
C704 H729 0.950 . S
C705 C704 1.349 . S
C705 C721 1.349 . S
C706 C704 1.327 . S
C706 C725 1.429 . S
C706 H730 0.950 . S
C707 C724 1.574 . S
C707 C726 1.368 . S
C707 H731 0.949 . S
H708 C712 0.949 . S
C709 C710 1.349 . S
C709 C711 1.327 . S
C709 H732 0.950 . S
C710 C709 1.349 . S
C710 C722 1.349 . S
C711 C709 1.327 . S
C711 C727 1.429 . S
C711 H733 0.950 . S
C712 H708 0.949 . S
C712 C720 1.574 . S
C712 C728 1.368 . S
H713 C721 0.950 . S
H714 C719 0.950 . S
H715 C720 0.949 . S
H716 C722 0.950 . S
H717 C723 0.950 . S
H718 C724 0.949 . S
C719 H714 0.950 . S
C719 C721 1.327 . S
C719 C725 1.429 . S
C720 C712 1.574 . S
C720 H715 0.949 . S
C720 C726 1.368 . S
C721 C705 1.349 . S
C721 H713 0.950 . S
C721 C719 1.327 . S
C722 C710 1.349 . S
C722 H716 0.950 . S
C722 C723 1.327 . S
C723 H717 0.950 . S
C723 C722 1.327 . S
C723 C727 1.429 . S
C724 C707 1.574 . S
C724 H718 0.949 . S
C724 C728 1.368 . S
C725 C706 1.429 . S
C725 C719 1.429 . S
C725 C726 1.523 . S
C726 C707 1.368 . S
C726 C720 1.368 . S
C726 C725 1.523 . S
C727 C711 1.429 . S
C727 C723 1.429 . S
C727 C728 1.523 . S
C728 C712 1.368 . S
C728 C724 1.368 . S
C728 C727 1.523 . S
H729 C704 0.950 . S
H730 C706 0.950 . S
H731 C707 0.949 . S
H732 C709 0.950 . S
H733 C711 0.950 . S
C734 C735 1.349 1_565 S
C734 C736 1.327 . S
C734 H759 0.950 . S
C735 C734 1.349 1_545 S
C735 C751 1.349 . S
C736 C734 1.327 . S
C736 C755 1.429 . S
C736 H760 0.950 . S
C737 C754 1.574 . S
C737 C756 1.368 . S
C737 H761 0.949 1_565 S
H738 C742 0.949 . S
C739 C740 1.349 . S
C739 C741 1.327 . S
C739 H762 0.950 . S
C740 C739 1.349 . S
C740 C752 1.349 . S
C741 C739 1.327 . S
C741 C757 1.429 . S
C741 H763 0.950 . S
C742 H738 0.949 . S
C742 C750 1.574 . S
C742 C758 1.368 . S
H743 C751 0.950 . S
H744 C749 0.950 . S
H745 C750 0.949 . S
H746 C752 0.950 . S
H747 C753 0.950 . S
H748 C754 0.949 . S
C749 H744 0.950 . S
C749 C751 1.327 . S
C749 C755 1.429 1_545 S
C750 C742 1.574 . S
C750 H745 0.949 . S
C750 C756 1.368 . S
C751 C735 1.349 . S
C751 H743 0.950 . S
C751 C749 1.327 . S
C752 C740 1.349 . S
C752 H746 0.950 . S
C752 C753 1.327 . S
C753 H747 0.950 . S
C753 C752 1.327 . S
C753 C757 1.429 . S
C754 C737 1.574 . S
C754 H748 0.949 . S
C754 C758 1.368 . S
C755 C736 1.429 . S
C755 C749 1.429 1_565 S
C755 C756 1.523 . S
C756 C737 1.368 . S
C756 C750 1.368 . S
C756 C755 1.523 . S
C757 C741 1.429 . S
C757 C753 1.429 . S
C757 C758 1.523 . S
C758 C742 1.368 . S
C758 C754 1.368 . S
C758 C757 1.523 . S
H759 C734 0.950 . S
H760 C736 0.950 . S
H761 C737 0.949 1_545 S
H762 C739 0.950 . S
H763 C741 0.950 . S
C764 C765 1.349 . S
C764 C766 1.327 . S
C764 H789 0.950 . S
C765 C764 1.349 . S
C765 C781 1.349 . S
C766 C764 1.327 . S
C766 C785 1.429 . S
C766 H790 0.950 . S
C767 C784 1.574 . S
C767 C786 1.368 . S
C767 H791 0.949 . S
H768 C772 0.949 . S
C769 C770 1.349 . S
C769 C771 1.327 . S
C769 H792 0.950 . S
C770 C769 1.349 . S
C770 C782 1.349 . S
C771 C769 1.327 . S
C771 C787 1.429 . S
C771 H793 0.950 . S
C772 H768 0.949 . S
C772 C780 1.574 . S
C772 C788 1.368 . S
H773 C781 0.950 . S
H774 C779 0.950 . S
H775 C780 0.949 . S
H776 C782 0.950 . S
H777 C783 0.950 . S
H778 C784 0.949 . S
C779 H774 0.950 . S
C779 C781 1.327 . S
C779 C785 1.429 . S
C780 C772 1.574 . S
C780 H775 0.949 . S
C780 C786 1.368 . S
C781 C765 1.349 . S
C781 H773 0.950 . S
C781 C779 1.327 . S
C782 C770 1.349 . S
C782 H776 0.950 . S
C782 C783 1.327 . S
C783 H777 0.950 . S
C783 C782 1.327 . S
C783 C787 1.429 . S
C784 C767 1.574 . S
C784 H778 0.949 . S
C784 C788 1.368 . S
C785 C766 1.429 . S
C785 C779 1.429 . S
C785 C786 1.523 . S
C786 C767 1.368 . S
C786 C780 1.368 . S
C786 C785 1.523 . S
C787 C771 1.429 . S
C787 C783 1.429 . S
C787 C788 1.523 . S
C788 C772 1.368 . S
C788 C784 1.368 . S
C788 C787 1.523 . S
H789 C764 0.950 . S
H790 C766 0.950 . S
H791 C767 0.949 . S
H792 C769 0.950 . S
H793 C771 0.950 . S
C794 C795 1.349 . S
C794 C796 1.327 . S
C794 H819 0.950 . S
C795 C794 1.349 . S
C795 C811 1.349 . S
C796 C794 1.327 . S
C796 C815 1.429 . S
C796 H820 0.950 . S
C797 C814 1.574 . S
C797 C816 1.368 . S
C797 H821 0.949 . S
H798 C802 0.949 . S
C799 C800 1.349 1_545 S
C799 C801 1.327 . S
C799 H822 0.950 . S
C800 C799 1.349 1_565 S
C800 C812 1.349 . S
C801 C799 1.327 . S
C801 C817 1.429 . S
C801 H823 0.950 . S
C802 H798 0.949 . S
C802 C810 1.574 . S
C802 C818 1.368 . S
H803 C811 0.950 . S
H804 C809 0.950 . S
H805 C810 0.949 . S
H806 C812 0.950 . S
H807 C813 0.950 . S
H808 C814 0.949 . S
C809 H804 0.950 . S
C809 C811 1.327 . S
C809 C815 1.429 . S
C810 C802 1.574 . S
C810 H805 0.949 . S
C810 C816 1.368 . S
C811 C795 1.349 . S
C811 H803 0.950 . S
C811 C809 1.327 . S
C812 C800 1.349 . S
C812 H806 0.950 . S
C812 C813 1.327 . S
C813 H807 0.950 . S
C813 C812 1.327 . S
C813 C817 1.429 1_565 S
C814 C797 1.574 . S
C814 H808 0.949 . S
C814 C818 1.368 . S
C815 C796 1.429 . S
C815 C809 1.429 . S
C815 C816 1.523 . S
C816 C797 1.368 . S
C816 C810 1.368 . S
C816 C815 1.523 . S
C817 C801 1.429 . S
C817 C813 1.429 1_545 S
C817 C818 1.523 . S
C818 C802 1.368 . S
C818 C814 1.368 . S
C818 C817 1.523 . S
H819 C794 0.950 . S
H820 C796 0.950 . S
H821 C797 0.949 . S
H822 C799 0.950 . S
H823 C801 0.950 . S
C824 C825 1.349 . S
C824 C826 1.327 . S
C824 H849 0.950 . S
C825 C824 1.349 . S
C825 C841 1.349 . S
C826 C824 1.327 . S
C826 C845 1.429 . S
C826 H850 0.950 . S
C827 C844 1.574 . S
C827 C846 1.368 . S
C827 H851 0.949 . S
H828 C832 0.949 . S
C829 C830 1.349 . S
C829 C831 1.327 . S
C829 H852 0.950 . S
C830 C829 1.349 . S
C830 C842 1.349 . S
C831 C829 1.327 . S
C831 C847 1.429 . S
C831 H853 0.950 . S
C832 H828 0.949 . S
C832 C840 1.574 . S
C832 C848 1.368 . S
H833 C841 0.950 . S
H834 C839 0.950 . S
H835 C840 0.949 . S
H836 C842 0.950 . S
H837 C843 0.950 . S
H838 C844 0.949 . S
C839 H834 0.950 . S
C839 C841 1.327 . S
C839 C845 1.429 . S
C840 C832 1.574 . S
C840 H835 0.949 . S
C840 C846 1.368 . S
C841 C825 1.349 . S
C841 H833 0.950 . S
C841 C839 1.327 . S
C842 C830 1.349 . S
C842 H836 0.950 . S
C842 C843 1.327 . S
C843 H837 0.950 . S
C843 C842 1.327 . S
C843 C847 1.429 . S
C844 C827 1.574 . S
C844 H838 0.949 . S
C844 C848 1.368 . S
C845 C826 1.429 . S
C845 C839 1.429 . S
C845 C846 1.523 . S
C846 C827 1.368 . S
C846 C840 1.368 . S
C846 C845 1.523 . S
C847 C831 1.429 . S
C847 C843 1.429 . S
C847 C848 1.523 . S
C848 C832 1.368 . S
C848 C844 1.368 . S
C848 C847 1.523 . S
H849 C824 0.950 . S
H850 C826 0.950 . S
H851 C827 0.949 . S
H852 C829 0.950 . S
H853 C831 0.950 . S
C854 C855 1.349 1_545 S
C854 C856 1.327 . S
C854 H879 0.950 1_455 S
C855 C854 1.349 1_565 S
C855 C871 1.349 . S
C856 C854 1.327 . S
C856 C875 1.429 . S
C856 H880 0.950 . S
C857 C874 1.574 . S
C857 C876 1.368 . S
C857 H881 0.949 . S
H858 C862 0.949 . S
C859 C860 1.349 . S
C859 C861 1.327 . S
C859 H882 0.950 . S
C860 C859 1.349 . S
C860 C872 1.349 . S
C861 C859 1.327 . S
C861 C877 1.429 . S
C861 H883 0.950 . S
C862 H858 0.949 . S
C862 C870 1.574 . S
C862 C878 1.368 . S
H863 C871 0.950 . S
H864 C869 0.950 . S
H865 C870 0.949 . S
H866 C872 0.950 . S
H867 C873 0.950 . S
H868 C874 0.949 . S
C869 H864 0.950 . S
C869 C871 1.327 . S
C869 C875 1.429 1_565 S
C870 C862 1.574 . S
C870 H865 0.949 . S
C870 C876 1.368 . S
C871 C855 1.349 . S
C871 H863 0.950 . S
C871 C869 1.327 . S
C872 C860 1.349 . S
C872 H866 0.950 . S
C872 C873 1.327 . S
C873 H867 0.950 . S
C873 C872 1.327 . S
C873 C877 1.429 . S
C874 C857 1.574 . S
C874 H868 0.949 . S
C874 C878 1.368 . S
C875 C856 1.429 . S
C875 C869 1.429 1_545 S
C875 C876 1.523 . S
C876 C857 1.368 . S
C876 C870 1.368 . S
C876 C875 1.523 . S
C877 C861 1.429 . S
C877 C873 1.429 . S
C877 C878 1.523 . S
C878 C862 1.368 . S
C878 C874 1.368 . S
C878 C877 1.523 . S
H879 C854 0.950 1_655 S
H880 C856 0.950 . S
H881 C857 0.949 . S
H882 C859 0.950 . S
H883 C861 0.950 . S
C884 C885 1.349 . S
C884 C886 1.327 . S
C884 H909 0.950 . S
C885 C884 1.349 . S
C885 C901 1.349 . S
C886 C884 1.327 . S
C886 C905 1.429 . S
C886 H910 0.950 . S
C887 C904 1.574 . S
C887 C906 1.368 . S
C887 H911 0.949 . S
H888 C892 0.949 . S
C889 C890 1.349 . S
C889 C891 1.327 . S
C889 H912 0.950 . S
C890 C889 1.349 . S
C890 C902 1.349 . S
C891 C889 1.327 . S
C891 C907 1.429 . S
C891 H913 0.950 . S
C892 H888 0.949 . S
C892 C900 1.574 . S
C892 C908 1.368 . S
H893 C901 0.950 . S
H894 C899 0.950 . S
H895 C900 0.949 . S
H896 C902 0.950 . S
H897 C903 0.950 . S
H898 C904 0.949 . S
C899 H894 0.950 . S
C899 C901 1.327 . S
C899 C905 1.429 . S
C900 C892 1.574 . S
C900 H895 0.949 . S
C900 C906 1.368 . S
C901 C885 1.349 . S
C901 H893 0.950 . S
C901 C899 1.327 . S
C902 C890 1.349 . S
C902 H896 0.950 . S
C902 C903 1.327 . S
C903 H897 0.950 . S
C903 C902 1.327 . S
C903 C907 1.429 . S
C904 C887 1.574 . S
C904 H898 0.949 . S
C904 C908 1.368 . S
C905 C886 1.429 . S
C905 C899 1.429 . S
C905 C906 1.523 . S
C906 C887 1.368 . S
C906 C900 1.368 . S
C906 C905 1.523 . S
C907 C891 1.429 . S
C907 C903 1.429 . S
C907 C908 1.523 . S
C908 C892 1.368 . S
C908 C904 1.368 . S
C908 C907 1.523 . S
H909 C884 0.950 . S
H910 C886 0.950 . S
H911 C887 0.949 . S
H912 C889 0.950 . S
H913 C891 0.950 . S
C914 C915 1.349 . S
C914 C916 1.327 . S
C914 H939 0.950 . S
C915 C914 1.349 . S
C915 C931 1.349 . S
C916 C914 1.327 . S
C916 C935 1.429 . S
C916 H940 0.950 . S
C917 C934 1.574 . S
C917 C936 1.368 . S
C917 H941 0.949 . S
H918 C922 0.949 1_545 S
C919 C920 1.349 1_565 S
C919 C921 1.327 . S
C919 H942 0.950 . S
C920 C919 1.349 1_545 S
C920 C932 1.349 . S
C921 C919 1.327 . S
C921 C937 1.429 . S
C921 H943 0.950 . S
C922 H918 0.949 1_565 S
C922 C930 1.574 . S
C922 C938 1.368 . S
H923 C931 0.950 . S
H924 C929 0.950 . S
H925 C930 0.949 . S
H926 C932 0.950 . S
H927 C933 0.950 . S
H928 C934 0.949 . S
C929 H924 0.950 . S
C929 C931 1.327 . S
C929 C935 1.429 . S
C930 C922 1.574 . S
C930 H925 0.949 . S
C930 C936 1.368 . S
C931 C915 1.349 . S
C931 H923 0.950 . S
C931 C929 1.327 . S
C932 C920 1.349 . S
C932 H926 0.950 . S
C932 C933 1.327 . S
C933 H927 0.950 . S
C933 C932 1.327 . S
C933 C937 1.429 1_545 S
C934 C917 1.574 . S
C934 H928 0.949 . S
C934 C938 1.368 . S
C935 C916 1.429 . S
C935 C929 1.429 . S
C935 C936 1.523 . S
C936 C917 1.368 . S
C936 C930 1.368 . S
C936 C935 1.523 . S
C937 C921 1.429 . S
C937 C933 1.429 1_565 S
C937 C938 1.523 . S
C938 C922 1.368 . S
C938 C934 1.368 . S
C938 C937 1.523 . S
H939 C914 0.950 . S
H940 C916 0.950 . S
H941 C917 0.949 . S
H942 C919 0.950 . S
H943 C921 0.950 . S
C944 C945 1.349 . S
C944 C946 1.327 . S
C944 H969 0.950 . S
C945 C944 1.349 . S
C945 C961 1.349 . S
C946 C944 1.327 . S
C946 C965 1.429 . S
C946 H970 0.950 . S
C947 C964 1.574 . S
C947 C966 1.368 1_556 S
C947 H971 0.949 . S
H948 C952 0.949 . S
C949 C950 1.349 . S
C949 C951 1.327 . S
C949 H972 0.950 . S
C950 C949 1.349 . S
C950 C962 1.349 . S
C951 C949 1.327 . S
C951 C967 1.429 . S
C951 H973 0.950 . S
C952 H948 0.949 . S
C952 C960 1.574 . S
C952 C968 1.368 1_554 S
H953 C961 0.950 . S
H954 C959 0.950 1_556 S
H955 C960 0.949 . S
H956 C962 0.950 . S
H957 C963 0.950 1_554 S
H958 C964 0.949 . S
C959 H954 0.950 1_554 S
C959 C961 1.327 . S
C959 C965 1.429 . S
C960 C952 1.574 . S
C960 H955 0.949 . S
C960 C966 1.368 . S
C961 C945 1.349 . S
C961 H953 0.950 . S
C961 C959 1.327 . S
C962 C950 1.349 . S
C962 H956 0.950 . S
C962 C963 1.327 . S
C963 H957 0.950 1_556 S
C963 C962 1.327 . S
C963 C967 1.429 . S
C964 C947 1.574 . S
C964 H958 0.949 . S
C964 C968 1.368 . S
C965 C946 1.429 . S
C965 C959 1.429 . S
C965 C966 1.523 . S
C966 C947 1.368 1_554 S
C966 C960 1.368 . S
C966 C965 1.523 . S
C967 C951 1.429 . S
C967 C963 1.429 . S
C967 C968 1.523 . S
C968 C952 1.368 1_556 S
C968 C964 1.368 . S
C968 C967 1.523 . S
H969 C944 0.950 . S
H970 C946 0.950 . S
H971 C947 0.949 . S
H972 C949 0.950 . S
H973 C951 0.950 . S
C974 C975 1.340 1_655 S
C974 C976 1.327 . S
C974 H999 0.950 1_655 S
C975 C974 1.340 1_455 S
C975 C991 1.329 1_455 S
C976 C974 1.327 . S
C976 C995 1.429 . S
C976 H1000 0.950 . S
C977 C994 1.574 . S
C977 C996 1.368 . S
C977 H1001 0.949 . S
H978 C982 0.949 . S
C979 C980 1.349 . S
C979 C981 1.327 . S
C979 H1002 0.950 . S
C980 C979 1.349 . S
C980 C992 1.349 . S
C981 C979 1.327 . S
C981 C997 1.429 . S
C981 H1003 0.950 . S
C982 H978 0.949 . S
C982 C990 1.574 . S
C982 C998 1.368 . S
H983 C991 0.950 . S
H984 C989 0.950 . S
H985 C990 0.949 . S
H986 C992 0.950 . S
H987 C993 0.950 . S
H988 C994 0.949 . S
C989 H984 0.950 . S
C989 C991 1.327 . S
C989 C995 1.429 . S
C990 C982 1.574 . S
C990 H985 0.949 . S
C990 C996 1.368 . S
C991 C975 1.329 1_655 S
C991 H983 0.950 . S
C991 C989 1.327 . S
C992 C980 1.349 . S
C992 H986 0.950 . S
C992 C993 1.327 . S
C993 H987 0.950 . S
C993 C992 1.327 . S
C993 C997 1.429 . S
C994 C977 1.574 . S
C994 H988 0.949 . S
C994 C998 1.368 . S
C995 C976 1.429 . S
C995 C989 1.429 . S
C995 C996 1.523 . S
C996 C977 1.368 . S
C996 C990 1.368 . S
C996 C995 1.523 . S
C997 C981 1.429 . S
C997 C993 1.429 . S
C997 C998 1.523 . S
C998 C982 1.368 . S
C998 C994 1.368 . S
C998 C997 1.523 . S
H999 C974 0.950 1_455 S
H1000 C976 0.950 . S
H1001 C977 0.949 . S
H1002 C979 0.950 . S
H1003 C981 0.950 . S
C1004 C1005 1.349 . S
C1004 C1006 1.327 . S
C1004 H1029 0.950 . S
C1005 C1004 1.349 . S
C1005 C1021 1.349 . S
C1006 C1004 1.327 . S
C1006 C1025 1.429 . S
C1006 H1030 0.950 . S
C1007 C1024 1.574 . S
C1007 C1026 1.368 . S
C1007 H1031 0.949 . S
H1008 C1012 0.949 . S
C1009 C1010 1.349 . S
C1009 C1011 1.327 . S
C1009 H1032 0.950 . S
C1010 C1009 1.349 . S
C1010 C1022 1.349 . S
C1011 C1009 1.327 . S
C1011 C1027 1.429 . S
C1011 H1033 0.950 . S
C1012 H1008 0.949 . S
C1012 C1020 1.574 . S
C1012 C1028 1.368 . S
H1013 C1021 0.950 . S
H1014 C1019 0.950 . S
H1015 C1020 0.949 . S
H1016 C1022 0.950 . S
H1017 C1023 0.950 . S
H1018 C1024 0.949 . S
C1019 H1014 0.950 . S
C1019 C1021 1.327 . S
C1019 C1025 1.429 . S
C1020 C1012 1.574 . S
C1020 H1015 0.949 . S
C1020 C1026 1.368 . S
C1021 C1005 1.349 . S
C1021 H1013 0.950 . S
C1021 C1019 1.327 . S
C1022 C1010 1.349 . S
C1022 H1016 0.950 . S
C1022 C1023 1.327 . S
C1023 H1017 0.950 . S
C1023 C1022 1.327 . S
C1023 C1027 1.429 . S
C1024 C1007 1.574 . S
C1024 H1018 0.949 . S
C1024 C1028 1.368 . S
C1025 C1006 1.429 . S
C1025 C1019 1.429 . S
C1025 C1026 1.523 . S
C1026 C1007 1.368 . S
C1026 C1020 1.368 . S
C1026 C1025 1.523 . S
C1027 C1011 1.429 . S
C1027 C1023 1.429 . S
C1027 C1028 1.523 . S
C1028 C1012 1.368 . S
C1028 C1024 1.368 . S
C1028 C1027 1.523 . S
H1029 C1004 0.950 . S
H1030 C1006 0.950 . S
H1031 C1007 0.949 . S
H1032 C1009 0.950 . S
H1033 C1011 0.950 . S
C1034 C1035 1.349 . S
C1034 C1036 1.327 . S
C1034 H1059 0.950 . S
C1035 C1034 1.349 . S
C1035 C1051 1.349 . S
C1036 C1034 1.327 . S
C1036 C1055 1.429 . S
C1036 H1060 0.950 . S
C1037 C1054 1.574 . S
C1037 C1056 1.368 . S
C1037 H1061 0.949 . S
H1038 C1042 0.949 . S
C1039 C1040 1.349 . S
C1039 C1041 1.327 . S
C1039 H1062 0.950 . S
C1040 C1039 1.349 . S
C1040 C1052 1.349 . S
C1041 C1039 1.327 . S
C1041 C1057 1.429 . S
C1041 H1063 0.950 . S
C1042 H1038 0.949 . S
C1042 C1050 1.574 . S
C1042 C1058 1.368 . S
H1043 C1051 0.950 . S
H1044 C1049 0.950 . S
H1045 C1050 0.949 . S
H1046 C1052 0.950 . S
H1047 C1053 0.950 . S
H1048 C1054 0.949 . S
C1049 H1044 0.950 . S
C1049 C1051 1.327 . S
C1049 C1055 1.429 . S
C1050 C1042 1.574 . S
C1050 H1045 0.949 . S
C1050 C1056 1.368 . S
C1051 C1035 1.349 . S
C1051 H1043 0.950 . S
C1051 C1049 1.327 . S
C1052 C1040 1.349 . S
C1052 H1046 0.950 . S
C1052 C1053 1.327 . S
C1053 H1047 0.950 . S
C1053 C1052 1.327 . S
C1053 C1057 1.429 . S
C1054 C1037 1.574 . S
C1054 H1048 0.949 . S
C1054 C1058 1.368 . S
C1055 C1036 1.429 . S
C1055 C1049 1.429 . S
C1055 C1056 1.523 . S
C1056 C1037 1.368 . S
C1056 C1050 1.368 . S
C1056 C1055 1.523 . S
C1057 C1041 1.429 . S
C1057 C1053 1.429 . S
C1057 C1058 1.523 . S
C1058 C1042 1.368 . S
C1058 C1054 1.368 . S
C1058 C1057 1.523 . S
H1059 C1034 0.950 . S
H1060 C1036 0.950 . S
H1061 C1037 0.949 . S
H1062 C1039 0.950 . S
H1063 C1041 0.950 . S
C1064 C1065 1.349 . S
C1064 C1066 1.327 . S
C1064 H1089 0.950 . S
C1065 C1064 1.349 . S
C1065 C1081 1.349 . S
C1066 C1064 1.327 . S
C1066 C1085 1.429 . S
C1066 H1090 0.950 . S
C1067 C1084 1.574 . S
C1067 C1086 1.368 . S
C1067 H1091 0.949 . S
H1068 C1072 0.949 . S
C1069 C1070 1.349 . S
C1069 C1071 1.327 . S
C1069 H1092 0.950 . S
C1070 C1069 1.349 . S
C1070 C1082 1.349 . S
C1071 C1069 1.327 . S
C1071 C1087 1.429 . S
C1071 H1093 0.950 . S
C1072 H1068 0.949 . S
C1072 C1080 1.574 . S
C1072 C1088 1.368 . S
H1073 C1081 0.950 . S
H1074 C1079 0.950 . S
H1075 C1080 0.949 . S
H1076 C1082 0.950 . S
H1077 C1083 0.950 . S
H1078 C1084 0.949 . S
C1079 H1074 0.950 . S
C1079 C1081 1.327 . S
C1079 C1085 1.429 . S
C1080 C1072 1.574 . S
C1080 H1075 0.949 . S
C1080 C1086 1.368 1_556 S
C1081 C1065 1.349 . S
C1081 H1073 0.950 . S
C1081 C1079 1.327 . S
C1082 C1070 1.349 . S
C1082 H1076 0.950 . S
C1082 C1083 1.327 . S
C1083 H1077 0.950 . S
C1083 C1082 1.327 . S
C1083 C1087 1.429 . S
C1084 C1067 1.574 . S
C1084 H1078 0.949 . S
C1084 C1088 1.368 1_554 S
C1085 C1066 1.429 . S
C1085 C1079 1.429 . S
C1085 C1086 1.523 . S
C1086 C1067 1.368 . S
C1086 C1080 1.368 1_554 S
C1086 C1085 1.523 . S
C1087 C1071 1.429 . S
C1087 C1083 1.429 . S
C1087 C1088 1.523 . S
C1088 C1072 1.368 . S
C1088 C1084 1.368 1_556 S
C1088 C1087 1.523 . S
H1089 C1064 0.950 . S
H1090 C1066 0.950 . S
H1091 C1067 0.949 . S
H1092 C1069 0.950 . S
H1093 C1071 0.950 . S
C1094 C1095 1.328 1_455 S
C1094 C1096 1.327 . S
C1094 H1119 0.950 . S
C1095 C1094 1.328 1_655 S
C1095 C1111 1.341 1_655 S
C1096 C1094 1.327 . S
C1096 C1115 1.429 . S
C1096 H1120 0.950 . S
C1097 C1114 1.574 . S
C1097 C1116 1.368 . S
C1097 H1121 0.949 . S
H1098 C1102 0.949 . S
C1099 C1100 1.349 . S
C1099 C1101 1.327 . S
C1099 H1122 0.950 . S
C1100 C1099 1.349 . S
C1100 C1112 1.349 . S
C1101 C1099 1.327 . S
C1101 C1117 1.429 . S
C1101 H1123 0.950 . S
C1102 H1098 0.949 . S
C1102 C1110 1.574 . S
C1102 C1118 1.368 . S
H1103 C1111 0.950 1_655 S
H1104 C1109 0.950 . S
H1105 C1110 0.949 . S
H1106 C1112 0.950 . S
H1107 C1113 0.950 . S
H1108 C1114 0.949 . S
C1109 H1104 0.950 . S
C1109 C1111 1.327 . S
C1109 C1115 1.429 . S
C1110 C1102 1.574 . S
C1110 H1105 0.949 . S
C1110 C1116 1.368 . S
C1111 C1095 1.341 1_455 S
C1111 H1103 0.950 1_455 S
C1111 C1109 1.327 . S
C1112 C1100 1.349 . S
C1112 H1106 0.950 . S
C1112 C1113 1.327 . S
C1113 H1107 0.950 . S
C1113 C1112 1.327 . S
C1113 C1117 1.429 . S
C1114 C1097 1.574 . S
C1114 H1108 0.949 . S
C1114 C1118 1.368 . S
C1115 C1096 1.429 . S
C1115 C1109 1.429 . S
C1115 C1116 1.523 . S
C1116 C1097 1.368 . S
C1116 C1110 1.368 . S
C1116 C1115 1.523 . S
C1117 C1101 1.429 . S
C1117 C1113 1.429 . S
C1117 C1118 1.523 . S
C1118 C1102 1.368 . S
C1118 C1114 1.368 . S
C1118 C1117 1.523 . S
H1119 C1094 0.950 . S
H1120 C1096 0.950 . S
H1121 C1097 0.949 . S
H1122 C1099 0.950 . S
H1123 C1101 0.950 . S
C1124 C1125 1.349 . S
C1124 C1126 1.327 . S
C1124 H1149 0.950 . S
C1125 C1124 1.349 . S
C1125 C1141 1.349 . S
C1126 C1124 1.327 . S
C1126 C1145 1.429 . S
C1126 H1150 0.950 . S
C1127 C1144 1.574 . S
C1127 C1146 1.368 . S
C1127 H1151 0.949 . S
H1128 C1132 0.949 . S
C1129 C1130 1.349 . S
C1129 C1131 1.327 . S
C1129 H1152 0.950 . S
C1130 C1129 1.349 . S
C1130 C1142 1.349 . S
C1131 C1129 1.327 . S
C1131 C1147 1.429 . S
C1131 H1153 0.950 . S
C1132 H1128 0.949 . S
C1132 C1140 1.574 . S
C1132 C1148 1.368 . S
H1133 C1141 0.950 . S
H1134 C1139 0.950 . S
H1135 C1140 0.949 . S
H1136 C1142 0.950 . S
H1137 C1143 0.950 . S
H1138 C1144 0.949 . S
C1139 H1134 0.950 . S
C1139 C1141 1.327 . S
C1139 C1145 1.429 . S
C1140 C1132 1.574 . S
C1140 H1135 0.949 . S
C1140 C1146 1.368 . S
C1141 C1125 1.349 . S
C1141 H1133 0.950 . S
C1141 C1139 1.327 . S
C1142 C1130 1.349 . S
C1142 H1136 0.950 . S
C1142 C1143 1.327 . S
C1143 H1137 0.950 . S
C1143 C1142 1.327 . S
C1143 C1147 1.429 . S
C1144 C1127 1.574 . S
C1144 H1138 0.949 . S
C1144 C1148 1.368 . S
C1145 C1126 1.429 . S
C1145 C1139 1.429 . S
C1145 C1146 1.523 . S
C1146 C1127 1.368 . S
C1146 C1140 1.368 . S
C1146 C1145 1.523 . S
C1147 C1131 1.429 . S
C1147 C1143 1.429 . S
C1147 C1148 1.523 . S
C1148 C1132 1.368 . S
C1148 C1144 1.368 . S
C1148 C1147 1.523 . S
H1149 C1124 0.950 . S
H1150 C1126 0.950 . S
H1151 C1127 0.949 . S
H1152 C1129 0.950 . S
H1153 C1131 0.950 . S
C1154 C1155 1.349 . S
C1154 C1156 1.327 . S
C1154 H1179 0.950 . S
C1155 C1154 1.349 . S
C1155 C1171 1.349 . S
C1156 C1154 1.327 . S
C1156 C1175 1.429 . S
C1156 H1180 0.950 . S
C1157 C1174 1.574 . S
C1157 C1176 1.368 . S
C1157 H1181 0.949 . S
H1158 C1162 0.949 . S
C1159 C1160 1.349 . S
C1159 C1161 1.327 . S
C1159 H1182 0.950 . S
C1160 C1159 1.349 . S
C1160 C1172 1.349 . S
C1161 C1159 1.327 . S
C1161 C1177 1.429 . S
C1161 H1183 0.950 . S
C1162 H1158 0.949 . S
C1162 C1170 1.574 . S
C1162 C1178 1.368 . S
H1163 C1171 0.950 . S
H1164 C1169 0.950 . S
H1165 C1170 0.949 . S
H1166 C1172 0.950 . S
H1167 C1173 0.950 . S
H1168 C1174 0.949 . S
C1169 H1164 0.950 . S
C1169 C1171 1.327 . S
C1169 C1175 1.429 . S
C1170 C1162 1.574 . S
C1170 H1165 0.949 . S
C1170 C1176 1.368 . S
C1171 C1155 1.349 . S
C1171 H1163 0.950 . S
C1171 C1169 1.327 . S
C1172 C1160 1.349 . S
C1172 H1166 0.950 . S
C1172 C1173 1.327 . S
C1173 H1167 0.950 . S
C1173 C1172 1.327 . S
C1173 C1177 1.429 . S
C1174 C1157 1.574 . S
C1174 H1168 0.949 . S
C1174 C1178 1.368 . S
C1175 C1156 1.429 . S
C1175 C1169 1.429 . S
C1175 C1176 1.523 . S
C1176 C1157 1.368 . S
C1176 C1170 1.368 . S
C1176 C1175 1.523 . S
C1177 C1161 1.429 . S
C1177 C1173 1.429 . S
C1177 C1178 1.523 . S
C1178 C1162 1.368 . S
C1178 C1174 1.368 . S
C1178 C1177 1.523 . S
H1179 C1154 0.950 . S
H1180 C1156 0.950 . S
H1181 C1157 0.949 . S
H1182 C1159 0.950 . S
H1183 C1161 0.950 . S
C1184 C1185 1.349 . S
C1184 C1186 1.327 . S
C1184 H1209 0.950 . S
C1185 C1184 1.349 . S
C1185 C1201 1.349 . S
C1186 C1184 1.327 . S
C1186 C1205 1.429 . S
C1186 H1210 0.950 . S
C1187 C1204 1.574 . S
C1187 C1206 1.368 . S
C1187 H1211 0.949 . S
H1188 C1192 0.949 . S
C1189 C1190 1.349 . S
C1189 C1191 1.327 . S
C1189 H1212 0.950 . S
C1190 C1189 1.349 . S
C1190 C1202 1.349 . S
C1191 C1189 1.327 . S
C1191 C1207 1.429 . S
C1191 H1213 0.950 . S
C1192 H1188 0.949 . S
C1192 C1200 1.574 . S
C1192 C1208 1.368 . S
H1193 C1201 0.950 . S
H1194 C1199 0.950 . S
H1195 C1200 0.949 . S
H1196 C1202 0.950 . S
H1197 C1203 0.950 . S
H1198 C1204 0.949 . S
C1199 H1194 0.950 . S
C1199 C1201 1.327 . S
C1199 C1205 1.429 . S
C1200 C1192 1.574 . S
C1200 H1195 0.949 . S
C1200 C1206 1.368 . S
C1201 C1185 1.349 . S
C1201 H1193 0.950 . S
C1201 C1199 1.327 . S
C1202 C1190 1.349 . S
C1202 H1196 0.950 . S
C1202 C1203 1.327 . S
C1203 H1197 0.950 . S
C1203 C1202 1.327 . S
C1203 C1207 1.429 . S
C1204 C1187 1.574 . S
C1204 H1198 0.949 . S
C1204 C1208 1.368 . S
C1205 C1186 1.429 . S
C1205 C1199 1.429 . S
C1205 C1206 1.523 . S
C1206 C1187 1.368 . S
C1206 C1200 1.368 . S
C1206 C1205 1.523 . S
C1207 C1191 1.429 . S
C1207 C1203 1.429 . S
C1207 C1208 1.523 . S
C1208 C1192 1.368 . S
C1208 C1204 1.368 . S
C1208 C1207 1.523 . S
H1209 C1184 0.950 . S
H1210 C1186 0.950 . S
H1211 C1187 0.949 . S
H1212 C1189 0.950 . S
H1213 C1191 0.950 . S
C1214 C1215 1.349 . S
C1214 C1216 1.327 . S
C1214 H1239 0.950 . S
C1215 C1214 1.349 . S
C1215 C1231 1.349 . S
C1216 C1214 1.327 . S
C1216 C1235 1.429 . S
C1216 H1240 0.950 . S
C1217 C1234 1.574 . S
C1217 C1236 1.368 . S
C1217 H1241 0.949 1_545 S
H1218 C1222 0.949 . S
C1219 C1220 1.349 . S
C1219 C1221 1.327 . S
C1219 H1242 0.935 1_545 S
C1220 C1219 1.349 . S
C1220 C1232 1.349 . S
C1221 C1219 1.327 . S
C1221 C1237 1.429 . S
C1221 H1243 0.950 1_545 S
C1222 H1218 0.949 . S
C1222 C1230 1.574 . S
C1222 C1238 1.368 . S
H1223 C1231 0.950 1_565 S
H1224 C1229 0.950 1_565 S
H1225 C1230 0.949 . S
H1226 C1232 0.950 . S
H1227 C1233 0.950 . S
H1228 C1234 0.949 1_565 S
C1229 H1224 0.950 1_545 S
C1229 C1231 1.327 . S
C1229 C1235 1.429 . S
C1230 C1222 1.574 . S
C1230 H1225 0.949 . S
C1230 C1236 1.368 . S
C1231 C1215 1.349 . S
C1231 H1223 0.950 1_545 S
C1231 C1229 1.327 . S
C1232 C1220 1.349 . S
C1232 H1226 0.950 . S
C1232 C1233 1.327 . S
C1233 H1227 0.950 . S
C1233 C1232 1.327 . S
C1233 C1237 1.429 . S
C1234 C1217 1.574 . S
C1234 H1228 0.949 1_545 S
C1234 C1238 1.368 . S
C1235 C1216 1.429 . S
C1235 C1229 1.429 . S
C1235 C1236 1.523 . S
C1236 C1217 1.368 . S
C1236 C1230 1.368 . S
C1236 C1235 1.523 . S
C1237 C1221 1.429 . S
C1237 C1233 1.429 . S
C1237 C1238 1.523 . S
C1238 C1222 1.368 . S
C1238 C1234 1.368 . S
C1238 C1237 1.523 . S
H1239 C1214 0.950 . S
H1240 C1216 0.950 . S
H1241 C1217 0.949 1_565 S
H1242 C1219 0.935 1_565 S
H1243 C1221 0.950 1_565 S
C1244 C1245 1.349 . S
C1244 C1246 1.327 . S
C1244 H1269 0.950 . S
C1245 C1244 1.349 . S
C1245 C1261 1.349 . S
C1246 C1244 1.327 . S
C1246 C1265 1.429 . S
C1246 H1270 0.909 1_556 S
C1247 C1264 1.574 . S
C1247 C1266 1.368 . S
C1247 H1271 0.949 . S
H1248 C1252 0.949 . S
C1249 C1250 1.349 . S
C1249 C1251 1.327 . S
C1249 H1272 0.950 . S
C1250 C1249 1.349 . S
C1250 C1262 1.349 . S
C1251 C1249 1.327 . S
C1251 C1267 1.429 . S
C1251 H1273 0.950 1_554 S
C1252 H1248 0.949 . S
C1252 C1260 1.574 . S
C1252 C1268 1.368 . S
H1253 C1261 0.950 . S
H1254 C1259 0.950 . S
H1255 C1260 0.949 . S
H1256 C1262 0.950 . S
H1257 C1263 0.950 . S
H1258 C1264 0.949 . S
C1259 H1254 0.950 . S
C1259 C1261 1.327 . S
C1259 C1265 1.429 . S
C1260 C1252 1.574 . S
C1260 H1255 0.949 . S
C1260 C1266 1.368 1_554 S
C1261 C1245 1.349 . S
C1261 H1253 0.950 . S
C1261 C1259 1.327 . S
C1262 C1250 1.349 . S
C1262 H1256 0.950 . S
C1262 C1263 1.327 . S
C1263 H1257 0.950 . S
C1263 C1262 1.327 . S
C1263 C1267 1.429 . S
C1264 C1247 1.574 . S
C1264 H1258 0.949 . S
C1264 C1268 1.368 1_556 S
C1265 C1246 1.429 . S
C1265 C1259 1.429 . S
C1265 C1266 1.523 . S
C1266 C1247 1.368 . S
C1266 C1260 1.368 1_556 S
C1266 C1265 1.523 . S
C1267 C1251 1.429 . S
C1267 C1263 1.429 . S
C1267 C1268 1.523 . S
C1268 C1252 1.368 . S
C1268 C1264 1.368 1_554 S
C1268 C1267 1.523 . S
H1269 C1244 0.950 . S
H1270 C1246 0.909 1_554 S
H1271 C1247 0.949 . S
H1272 C1249 0.950 . S
H1273 C1251 0.950 1_556 S
C1274 C1275 1.341 1_455 S
C1274 C1276 1.327 . S
C1274 H1299 0.950 1_465 S
C1275 C1274 1.341 1_655 S
C1275 C1291 1.328 1_655 S
C1276 C1274 1.327 . S
C1276 C1295 1.429 . S
C1276 H1300 0.950 1_565 S
C1277 C1294 1.574 . S
C1277 C1296 1.368 . S
C1277 H1301 0.949 . S
H1278 C1282 0.949 1_545 S
C1279 C1280 1.349 . S
C1279 C1281 1.327 . S
C1279 H1302 0.950 . S
C1280 C1279 1.349 . S
C1280 C1292 1.347 . S
C1281 C1279 1.327 . S
C1281 C1297 1.429 . S
C1281 H1303 0.950 . S
C1282 H1278 0.949 1_565 S
C1282 C1290 1.574 . S
C1282 C1298 1.368 . S
H1283 C1291 0.950 . S
H1284 C1289 0.950 . S
H1285 C1290 0.949 1_545 S
H1286 C1292 0.952 1_545 S
H1287 C1293 0.928 1_545 S
H1288 C1294 0.949 . S
C1289 H1284 0.950 . S
C1289 C1291 1.327 . S
C1289 C1295 1.429 . S
C1290 C1282 1.574 . S
C1290 H1285 0.949 1_565 S
C1290 C1296 1.368 . S
C1291 C1275 1.328 1_455 S
C1291 H1283 0.950 . S
C1291 C1289 1.327 . S
C1292 C1280 1.347 . S
C1292 H1286 0.952 1_565 S
C1292 C1293 1.327 . S
C1293 H1287 0.928 1_565 S
C1293 C1292 1.327 . S
C1293 C1297 1.451 . S
C1294 C1277 1.574 . S
C1294 H1288 0.949 . S
C1294 C1298 1.368 . S
C1295 C1276 1.429 . S
C1295 C1289 1.429 . S
C1295 C1296 1.523 . S
C1296 C1277 1.368 . S
C1296 C1290 1.368 . S
C1296 C1295 1.523 . S
C1297 C1281 1.429 . S
C1297 C1293 1.451 . S
C1297 C1298 1.523 . S
C1298 C1282 1.368 . S
C1298 C1294 1.368 . S
C1298 C1297 1.523 . S
H1299 C1274 0.950 1_645 S
H1300 C1276 0.950 1_545 S
H1301 C1277 0.949 . S
H1302 C1279 0.950 . S
H1303 C1281 0.950 . S
C1304 C1305 1.349 . S
C1304 C1306 1.327 . S
C1304 H1329 0.950 . S
C1305 C1304 1.349 . S
C1305 C1321 1.349 . S
C1306 C1304 1.327 . S
C1306 C1325 1.429 . S
C1306 H1330 0.950 . S
C1307 C1324 1.574 . S
C1307 C1326 1.368 . S
C1307 H1331 0.949 . S
H1308 C1312 0.949 . S
C1309 C1310 1.349 . S
C1309 C1311 1.327 . S
C1309 H1332 0.950 . S
C1310 C1309 1.349 . S
C1310 C1322 1.349 . S
C1311 C1309 1.327 . S
C1311 C1327 1.429 . S
C1311 H1333 0.950 . S
C1312 H1308 0.949 . S
C1312 C1320 1.574 . S
C1312 C1328 1.368 . S
H1313 C1321 0.950 . S
H1314 C1319 0.950 . S
H1315 C1320 0.949 . S
H1316 C1322 0.950 . S
H1317 C1323 0.950 . S
H1318 C1324 0.949 . S
C1319 H1314 0.950 . S
C1319 C1321 1.327 . S
C1319 C1325 1.429 . S
C1320 C1312 1.574 . S
C1320 H1315 0.949 . S
C1320 C1326 1.368 . S
C1321 C1305 1.349 . S
C1321 H1313 0.950 . S
C1321 C1319 1.327 . S
C1322 C1310 1.349 . S
C1322 H1316 0.950 . S
C1322 C1323 1.327 . S
C1323 H1317 0.950 . S
C1323 C1322 1.327 . S
C1323 C1327 1.429 . S
C1324 C1307 1.574 . S
C1324 H1318 0.949 . S
C1324 C1328 1.368 . S
C1325 C1306 1.429 . S
C1325 C1319 1.429 . S
C1325 C1326 1.523 . S
C1326 C1307 1.368 . S
C1326 C1320 1.368 . S
C1326 C1325 1.523 . S
C1327 C1311 1.429 . S
C1327 C1323 1.429 . S
C1327 C1328 1.523 . S
C1328 C1312 1.368 . S
C1328 C1324 1.368 . S
C1328 C1327 1.523 . S
H1329 C1304 0.950 . S
H1330 C1306 0.950 . S
H1331 C1307 0.949 . S
H1332 C1309 0.950 . S
H1333 C1311 0.950 . S
C1334 C1335 1.326 1_545 S
C1334 C1336 1.327 . S
C1334 H1359 0.974 . S
C1335 C1334 1.326 1_565 S
C1335 C1351 1.349 . S
C1336 C1334 1.327 . S
C1336 C1355 1.430 1_545 S
C1336 H1360 0.949 . S
C1337 C1354 1.574 . S
C1337 C1356 1.368 . S
C1337 H1361 0.949 . S
H1338 C1342 0.949 1_545 S
C1339 C1340 1.349 . S
C1339 C1341 1.327 . S
C1339 H1362 0.950 . S
C1340 C1339 1.349 . S
C1340 C1352 1.349 . S
C1341 C1339 1.327 . S
C1341 C1357 1.429 . S
C1341 H1363 0.950 . S
C1342 H1338 0.949 1_565 S
C1342 C1350 1.574 . S
C1342 C1358 1.368 . S
H1343 C1351 0.950 . S
H1344 C1349 0.950 . S
H1345 C1350 0.949 1_545 S
H1346 C1352 0.950 1_545 S
H1347 C1353 0.950 1_545 S
H1348 C1354 0.949 . S
C1349 H1344 0.950 . S
C1349 C1351 1.327 . S
C1349 C1355 1.429 . S
C1350 C1342 1.574 . S
C1350 H1345 0.949 1_565 S
C1350 C1356 1.368 . S
C1351 C1335 1.349 . S
C1351 H1343 0.950 . S
C1351 C1349 1.327 . S
C1352 C1340 1.349 . S
C1352 H1346 0.950 1_565 S
C1352 C1353 1.327 . S
C1353 H1347 0.950 1_565 S
C1353 C1352 1.327 . S
C1353 C1357 1.429 . S
C1354 C1337 1.574 . S
C1354 H1348 0.949 . S
C1354 C1358 1.368 . S
C1355 C1336 1.430 1_565 S
C1355 C1349 1.429 . S
C1355 C1356 1.523 . S
C1356 C1337 1.368 . S
C1356 C1350 1.368 . S
C1356 C1355 1.523 . S
C1357 C1341 1.429 . S
C1357 C1353 1.429 . S
C1357 C1358 1.523 . S
C1358 C1342 1.368 . S
C1358 C1354 1.368 . S
C1358 C1357 1.523 . S
H1359 C1334 0.974 . S
H1360 C1336 0.949 . S
H1361 C1337 0.949 . S
H1362 C1339 0.950 . S
H1363 C1341 0.950 . S
C1364 C1365 1.349 . S
C1364 C1366 1.327 . S
C1364 H1389 0.950 . S
C1365 C1364 1.349 . S
C1365 C1381 1.349 . S
C1366 C1364 1.327 . S
C1366 C1385 1.429 . S
C1366 H1390 0.950 1_554 S
C1367 C1384 1.574 . S
C1367 C1386 1.368 . S
C1367 H1391 0.949 . S
H1368 C1372 0.949 . S
C1369 C1370 1.349 . S
C1369 C1371 1.327 . S
C1369 H1392 0.950 . S
C1370 C1369 1.349 . S
C1370 C1382 1.349 . S
C1371 C1369 1.327 . S
C1371 C1387 1.429 . S
C1371 H1393 0.950 1_556 S
C1372 H1368 0.949 . S
C1372 C1380 1.574 . S
C1372 C1388 1.368 . S
H1373 C1381 0.950 . S
H1374 C1379 0.950 . S
H1375 C1380 0.949 . S
H1376 C1382 0.950 . S
H1377 C1383 0.950 . S
H1378 C1384 0.949 . S
C1379 H1374 0.950 . S
C1379 C1381 1.327 . S
C1379 C1385 1.429 . S
C1380 C1372 1.574 . S
C1380 H1375 0.949 . S
C1380 C1386 1.368 1_556 S
C1381 C1365 1.349 . S
C1381 H1373 0.950 . S
C1381 C1379 1.327 . S
C1382 C1370 1.349 . S
C1382 H1376 0.950 . S
C1382 C1383 1.327 . S
C1383 H1377 0.950 . S
C1383 C1382 1.327 . S
C1383 C1387 1.429 . S
C1384 C1367 1.574 . S
C1384 H1378 0.949 . S
C1384 C1388 1.368 1_554 S
C1385 C1366 1.429 . S
C1385 C1379 1.429 . S
C1385 C1386 1.523 . S
C1386 C1367 1.368 . S
C1386 C1380 1.368 1_554 S
C1386 C1385 1.523 . S
C1387 C1371 1.429 . S
C1387 C1383 1.429 . S
C1387 C1388 1.523 . S
C1388 C1372 1.368 . S
C1388 C1384 1.368 1_556 S
C1388 C1387 1.523 . S
H1389 C1364 0.950 . S
H1390 C1366 0.950 1_556 S
H1391 C1367 0.949 . S
H1392 C1369 0.950 . S
H1393 C1371 0.950 1_554 S
C1394 C1395 1.327 1_655 S
C1394 C1396 1.327 . S
C1394 H1419 0.950 . S
C1395 C1394 1.327 1_455 S
C1395 C1411 1.342 1_455 S
C1396 C1394 1.327 . S
C1396 C1415 1.429 . S
C1396 H1420 0.951 . S
C1397 C1414 1.574 . S
C1397 C1416 1.368 . S
C1397 H1421 0.949 . S
H1398 C1402 0.949 1_565 S
C1399 C1400 1.349 . S
C1399 C1401 1.327 . S
C1399 H1422 0.950 . S
C1400 C1399 1.349 . S
C1400 C1412 1.349 . S
C1401 C1399 1.327 . S
C1401 C1417 1.429 . S
C1401 H1423 0.950 . S
C1402 H1398 0.949 1_545 S
C1402 C1410 1.574 . S
C1402 C1418 1.368 . S
H1403 C1411 0.950 1_455 S
H1404 C1409 0.950 . S
H1405 C1410 0.949 1_565 S
H1406 C1412 0.950 1_565 S
H1407 C1413 0.950 1_565 S
H1408 C1414 0.949 . S
C1409 H1404 0.950 . S
C1409 C1411 1.327 . S
C1409 C1415 1.429 . S
C1410 C1402 1.574 . S
C1410 H1405 0.949 1_545 S
C1410 C1416 1.368 . S
C1411 C1395 1.342 1_655 S
C1411 H1403 0.950 1_655 S
C1411 C1409 1.327 . S
C1412 C1400 1.349 . S
C1412 H1406 0.950 1_545 S
C1412 C1413 1.327 . S
C1413 H1407 0.950 1_545 S
C1413 C1412 1.327 . S
C1413 C1417 1.429 . S
C1414 C1397 1.574 . S
C1414 H1408 0.949 . S
C1414 C1418 1.368 . S
C1415 C1396 1.429 . S
C1415 C1409 1.429 . S
C1415 C1416 1.523 . S
C1416 C1397 1.368 . S
C1416 C1410 1.368 . S
C1416 C1415 1.523 . S
C1417 C1401 1.429 . S
C1417 C1413 1.429 . S
C1417 C1418 1.523 . S
C1418 C1402 1.368 . S
C1418 C1414 1.368 . S
C1418 C1417 1.523 . S
H1419 C1394 0.950 . S
H1420 C1396 0.951 . S
H1421 C1397 0.949 . S
H1422 C1399 0.950 . S
H1423 C1401 0.950 . S
C1424 C1425 1.349 . S
C1424 C1426 1.327 . S
C1424 H1449 0.950 . S
C1425 C1424 1.349 . S
C1425 C1441 1.349 . S
C1426 C1424 1.327 . S
C1426 C1445 1.429 . S
C1426 H1450 0.950 . S
C1427 C1444 1.574 . S
C1427 C1446 1.368 . S
C1427 H1451 0.949 . S
H1428 C1432 0.949 . S
C1429 C1430 1.349 . S
C1429 C1431 1.327 . S
C1429 H1452 0.950 . S
C1430 C1429 1.349 . S
C1430 C1442 1.349 . S
C1431 C1429 1.327 . S
C1431 C1447 1.429 . S
C1431 H1453 0.950 . S
C1432 H1428 0.949 . S
C1432 C1440 1.574 . S
C1432 C1448 1.368 . S
H1433 C1441 0.950 . S
H1434 C1439 0.950 . S
H1435 C1440 0.949 . S
H1436 C1442 0.950 . S
H1437 C1443 0.950 . S
H1438 C1444 0.949 . S
C1439 H1434 0.950 . S
C1439 C1441 1.327 . S
C1439 C1445 1.429 . S
C1440 C1432 1.574 . S
C1440 H1435 0.949 . S
C1440 C1446 1.368 . S
C1441 C1425 1.349 . S
C1441 H1433 0.950 . S
C1441 C1439 1.327 . S
C1442 C1430 1.349 . S
C1442 H1436 0.950 . S
C1442 C1443 1.327 . S
C1443 H1437 0.950 . S
C1443 C1442 1.327 . S
C1443 C1447 1.429 . S
C1444 C1427 1.574 . S
C1444 H1438 0.949 . S
C1444 C1448 1.368 . S
C1445 C1426 1.429 . S
C1445 C1439 1.429 . S
C1445 C1446 1.523 . S
C1446 C1427 1.368 . S
C1446 C1440 1.368 . S
C1446 C1445 1.523 . S
C1447 C1431 1.429 . S
C1447 C1443 1.429 . S
C1447 C1448 1.523 . S
C1448 C1432 1.368 . S
C1448 C1444 1.368 . S
C1448 C1447 1.523 . S
H1449 C1424 0.950 . S
H1450 C1426 0.950 . S
H1451 C1427 0.949 . S
H1452 C1429 0.950 . S
H1453 C1431 0.950 . S
C1454 C1455 1.349 . S
C1454 C1456 1.327 . S
C1454 H1479 0.950 . S
C1455 C1454 1.349 . S
C1455 C1471 1.349 . S
C1456 C1454 1.327 . S
C1456 C1475 1.429 . S
C1456 H1480 0.950 . S
C1457 C1474 1.574 . S
C1457 C1476 1.368 . S
C1457 H1481 0.949 . S
H1458 C1462 0.949 . S
C1459 C1460 1.349 . S
C1459 C1461 1.327 . S
C1459 H1482 0.950 . S
C1460 C1459 1.349 . S
C1460 C1472 1.349 . S
C1461 C1459 1.327 . S
C1461 C1477 1.429 . S
C1461 H1483 0.950 . S
C1462 H1458 0.949 . S
C1462 C1470 1.574 . S
C1462 C1478 1.368 . S
H1463 C1471 0.950 . S
H1464 C1469 0.950 . S
H1465 C1470 0.949 . S
H1466 C1472 0.950 . S
H1467 C1473 0.950 . S
H1468 C1474 0.949 . S
C1469 H1464 0.950 . S
C1469 C1471 1.327 . S
C1469 C1475 1.429 . S
C1470 C1462 1.574 . S
C1470 H1465 0.949 . S
C1470 C1476 1.368 . S
C1471 C1455 1.349 . S
C1471 H1463 0.950 . S
C1471 C1469 1.327 . S
C1472 C1460 1.349 . S
C1472 H1466 0.950 . S
C1472 C1473 1.327 . S
C1473 H1467 0.950 . S
C1473 C1472 1.327 . S
C1473 C1477 1.429 . S
C1474 C1457 1.574 . S
C1474 H1468 0.949 . S
C1474 C1478 1.368 . S
C1475 C1456 1.429 . S
C1475 C1469 1.429 . S
C1475 C1476 1.523 . S
C1476 C1457 1.368 . S
C1476 C1470 1.368 . S
C1476 C1475 1.523 . S
C1477 C1461 1.429 . S
C1477 C1473 1.429 . S
C1477 C1478 1.523 . S
C1478 C1462 1.368 . S
C1478 C1474 1.368 . S
C1478 C1477 1.523 . S
H1479 C1454 0.950 . S
H1480 C1456 0.950 . S
H1481 C1457 0.949 . S
H1482 C1459 0.950 . S
H1483 C1461 0.950 . S
C1484 C1485 1.349 . S
C1484 C1486 1.327 . S
C1484 H1509 0.950 . S
C1485 C1484 1.349 . S
C1485 C1501 1.349 . S
C1486 C1484 1.327 . S
C1486 C1505 1.429 . S
C1486 H1510 0.950 . S
C1487 C1504 1.574 . S
C1487 C1506 1.368 . S
C1487 H1511 0.949 . S
H1488 C1492 0.949 . S
C1489 C1490 1.349 . S
C1489 C1491 1.327 . S
C1489 H1512 0.950 . S
C1490 C1489 1.349 . S
C1490 C1502 1.349 . S
C1491 C1489 1.327 . S
C1491 C1507 1.429 . S
C1491 H1513 0.950 . S
C1492 H1488 0.949 . S
C1492 C1500 1.574 . S
C1492 C1508 1.368 . S
H1493 C1501 0.950 . S
H1494 C1499 0.950 . S
H1495 C1500 0.949 . S
H1496 C1502 0.950 . S
H1497 C1503 0.950 . S
H1498 C1504 0.949 . S
C1499 H1494 0.950 . S
C1499 C1501 1.327 . S
C1499 C1505 1.429 . S
C1500 C1492 1.574 . S
C1500 H1495 0.949 . S
C1500 C1506 1.368 . S
C1501 C1485 1.349 . S
C1501 H1493 0.950 . S
C1501 C1499 1.327 . S
C1502 C1490 1.349 . S
C1502 H1496 0.950 . S
C1502 C1503 1.327 . S
C1503 H1497 0.950 . S
C1503 C1502 1.327 . S
C1503 C1507 1.429 . S
C1504 C1487 1.574 . S
C1504 H1498 0.949 . S
C1504 C1508 1.368 . S
C1505 C1486 1.429 . S
C1505 C1499 1.429 . S
C1505 C1506 1.523 . S
C1506 C1487 1.368 . S
C1506 C1500 1.368 . S
C1506 C1505 1.523 . S
C1507 C1491 1.429 . S
C1507 C1503 1.429 . S
C1507 C1508 1.523 . S
C1508 C1492 1.368 . S
C1508 C1504 1.368 . S
C1508 C1507 1.523 . S
H1509 C1484 0.950 . S
H1510 C1486 0.950 . S
H1511 C1487 0.949 . S
H1512 C1489 0.950 . S
H1513 C1491 0.950 . S
C1514 C1515 1.349 . S
C1514 C1516 1.327 . S
C1514 H1539 0.950 . S
C1515 C1514 1.349 . S
C1515 C1531 1.349 . S
C1516 C1514 1.327 . S
C1516 C1535 1.429 . S
C1516 H1540 0.950 . S
C1517 C1534 1.574 . S
C1517 C1536 1.368 . S
C1517 H1541 0.949 . S
H1518 C1522 0.949 . S
C1519 C1520 1.349 . S
C1519 C1521 1.327 . S
C1519 H1542 0.950 . S
C1520 C1519 1.349 . S
C1520 C1532 1.349 . S
C1521 C1519 1.327 . S
C1521 C1537 1.429 . S
C1521 H1543 0.950 . S
C1522 H1518 0.949 . S
C1522 C1530 1.574 . S
C1522 C1538 1.368 . S
H1523 C1531 0.950 . S
H1524 C1529 0.950 . S
H1525 C1530 0.949 . S
H1526 C1532 0.950 . S
H1527 C1533 0.950 . S
H1528 C1534 0.949 . S
C1529 H1524 0.950 . S
C1529 C1531 1.327 . S
C1529 C1535 1.429 . S
C1530 C1522 1.574 . S
C1530 H1525 0.949 . S
C1530 C1536 1.368 . S
C1531 C1515 1.349 . S
C1531 H1523 0.950 . S
C1531 C1529 1.327 . S
C1532 C1520 1.349 . S
C1532 H1526 0.950 . S
C1532 C1533 1.327 . S
C1533 H1527 0.950 . S
C1533 C1532 1.327 . S
C1533 C1537 1.429 . S
C1534 C1517 1.574 . S
C1534 H1528 0.949 . S
C1534 C1538 1.368 . S
C1535 C1516 1.429 . S
C1535 C1529 1.429 . S
C1535 C1536 1.523 . S
C1536 C1517 1.368 . S
C1536 C1530 1.368 . S
C1536 C1535 1.523 . S
C1537 C1521 1.429 . S
C1537 C1533 1.429 . S
C1537 C1538 1.523 . S
C1538 C1522 1.368 . S
C1538 C1534 1.368 . S
C1538 C1537 1.523 . S
H1539 C1514 0.950 . S
H1540 C1516 0.950 . S
H1541 C1517 0.949 . S
H1542 C1519 0.950 . S
H1543 C1521 0.950 . S
C1544 C1545 1.349 . S
C1544 C1546 1.327 . S
C1544 H1569 0.950 . S
C1545 C1544 1.349 . S
C1545 C1561 1.349 . S
C1546 C1544 1.327 . S
C1546 C1565 1.429 . S
C1546 H1570 0.950 . S
C1547 C1564 1.574 . S
C1547 C1566 1.368 . S
C1547 H1571 0.949 . S
H1548 C1552 0.949 . S
C1549 C1550 1.349 . S
C1549 C1551 1.327 . S
C1549 H1572 0.950 . S
C1550 C1549 1.349 . S
C1550 C1562 1.349 . S
C1551 C1549 1.327 . S
C1551 C1567 1.429 . S
C1551 H1573 0.950 . S
C1552 H1548 0.949 . S
C1552 C1560 1.574 . S
C1552 C1568 1.368 . S
H1553 C1561 0.950 . S
H1554 C1559 0.950 . S
H1555 C1560 0.949 . S
H1556 C1562 0.950 . S
H1557 C1563 0.950 . S
H1558 C1564 0.949 . S
C1559 H1554 0.950 . S
C1559 C1561 1.327 . S
C1559 C1565 1.429 . S
C1560 C1552 1.574 . S
C1560 H1555 0.949 . S
C1560 C1566 1.368 . S
C1561 C1545 1.349 . S
C1561 H1553 0.950 . S
C1561 C1559 1.327 . S
C1562 C1550 1.349 . S
C1562 H1556 0.950 . S
C1562 C1563 1.327 . S
C1563 H1557 0.950 . S
C1563 C1562 1.327 . S
C1563 C1567 1.429 . S
C1564 C1547 1.574 . S
C1564 H1558 0.949 . S
C1564 C1568 1.368 . S
C1565 C1546 1.429 . S
C1565 C1559 1.429 . S
C1565 C1566 1.523 . S
C1566 C1547 1.368 . S
C1566 C1560 1.368 . S
C1566 C1565 1.523 . S
C1567 C1551 1.429 . S
C1567 C1563 1.429 . S
C1567 C1568 1.523 . S
C1568 C1552 1.368 . S
C1568 C1564 1.368 . S
C1568 C1567 1.523 . S
H1569 C1544 0.950 . S
H1570 C1546 0.950 . S
H1571 C1547 0.949 . S
H1572 C1549 0.950 . S
H1573 C1551 0.950 . S
C1574 C1575 1.349 . S
C1574 C1576 1.327 . S
C1574 H1599 0.950 . S
C1575 C1574 1.349 . S
C1575 C1591 1.349 . S
C1576 C1574 1.327 . S
C1576 C1595 1.429 . S
C1576 H1600 0.950 . S
C1577 C1594 1.574 . S
C1577 C1596 1.368 . S
C1577 H1601 0.949 . S
H1578 C1582 0.949 . S
C1579 C1580 1.349 . S
C1579 C1581 1.327 . S
C1579 H1602 0.950 . S
C1580 C1579 1.349 . S
C1580 C1592 1.349 . S
C1581 C1579 1.327 . S
C1581 C1597 1.429 . S
C1581 H1603 0.950 . S
C1582 H1578 0.949 . S
C1582 C1590 1.574 . S
C1582 C1598 1.368 . S
H1583 C1591 0.950 . S
H1584 C1589 0.950 . S
H1585 C1590 0.949 . S
H1586 C1592 0.950 . S
H1587 C1593 0.950 . S
H1588 C1594 0.949 . S
C1589 H1584 0.950 . S
C1589 C1591 1.327 . S
C1589 C1595 1.429 . S
C1590 C1582 1.574 . S
C1590 H1585 0.949 . S
C1590 C1596 1.368 . S
C1591 C1575 1.349 . S
C1591 H1583 0.950 . S
C1591 C1589 1.327 . S
C1592 C1580 1.349 . S
C1592 H1586 0.950 . S
C1592 C1593 1.327 . S
C1593 H1587 0.950 . S
C1593 C1592 1.327 . S
C1593 C1597 1.429 . S
C1594 C1577 1.574 . S
C1594 H1588 0.949 . S
C1594 C1598 1.368 . S
C1595 C1576 1.429 . S
C1595 C1589 1.429 . S
C1595 C1596 1.523 . S
C1596 C1577 1.368 . S
C1596 C1590 1.368 . S
C1596 C1595 1.523 . S
C1597 C1581 1.429 . S
C1597 C1593 1.429 . S
C1597 C1598 1.523 . S
C1598 C1582 1.368 . S
C1598 C1594 1.368 . S
C1598 C1597 1.523 . S
H1599 C1574 0.950 . S
H1600 C1576 0.950 . S
H1601 C1577 0.949 . S
H1602 C1579 0.950 . S
H1603 C1581 0.950 . S
C1604 C1605 1.349 . S
C1604 C1606 1.327 . S
C1604 H1629 0.950 . S
C1605 C1604 1.349 . S
C1605 C1621 1.349 . S
C1606 C1604 1.327 . S
C1606 C1625 1.429 . S
C1606 H1630 0.950 . S
C1607 C1624 1.574 . S
C1607 C1626 1.368 . S
C1607 H1631 0.949 . S
H1608 C1612 0.949 . S
C1609 C1610 1.349 . S
C1609 C1611 1.327 . S
C1609 H1632 0.950 . S
C1610 C1609 1.349 . S
C1610 C1622 1.349 . S
C1611 C1609 1.327 . S
C1611 C1627 1.429 . S
C1611 H1633 0.950 . S
C1612 H1608 0.949 . S
C1612 C1620 1.574 . S
C1612 C1628 1.368 . S
H1613 C1621 0.950 . S
H1614 C1619 0.950 . S
H1615 C1620 0.949 . S
H1616 C1622 0.950 . S
H1617 C1623 0.950 . S
H1618 C1624 0.949 . S
C1619 H1614 0.950 . S
C1619 C1621 1.327 . S
C1619 C1625 1.429 . S
C1620 C1612 1.574 . S
C1620 H1615 0.949 . S
C1620 C1626 1.368 . S
C1621 C1605 1.349 . S
C1621 H1613 0.950 . S
C1621 C1619 1.327 . S
C1622 C1610 1.349 . S
C1622 H1616 0.950 . S
C1622 C1623 1.327 . S
C1623 H1617 0.950 . S
C1623 C1622 1.327 . S
C1623 C1627 1.429 . S
C1624 C1607 1.574 . S
C1624 H1618 0.949 . S
C1624 C1628 1.368 . S
C1625 C1606 1.429 . S
C1625 C1619 1.429 . S
C1625 C1626 1.523 . S
C1626 C1607 1.368 . S
C1626 C1620 1.368 . S
C1626 C1625 1.523 . S
C1627 C1611 1.429 . S
C1627 C1623 1.429 . S
C1627 C1628 1.523 . S
C1628 C1612 1.368 . S
C1628 C1624 1.368 . S
C1628 C1627 1.523 . S
H1629 C1604 0.950 . S
H1630 C1606 0.950 . S
H1631 C1607 0.949 . S
H1632 C1609 0.950 . S
H1633 C1611 0.950 . S
C1634 C1635 1.349 . S
C1634 C1636 1.327 . S
C1634 H1659 0.950 . S
C1635 C1634 1.349 . S
C1635 C1651 1.349 . S
C1636 C1634 1.327 . S
C1636 C1655 1.429 . S
C1636 H1660 0.950 . S
C1637 C1654 1.574 . S
C1637 C1656 1.368 . S
C1637 H1661 0.949 . S
H1638 C1642 0.949 . S
C1639 C1640 1.349 . S
C1639 C1641 1.327 . S
C1639 H1662 0.950 . S
C1640 C1639 1.349 . S
C1640 C1652 1.349 . S
C1641 C1639 1.327 . S
C1641 C1657 1.429 . S
C1641 H1663 0.950 . S
C1642 H1638 0.949 . S
C1642 C1650 1.574 . S
C1642 C1658 1.368 . S
H1643 C1651 0.950 . S
H1644 C1649 0.950 . S
H1645 C1650 0.949 . S
H1646 C1652 0.950 . S
H1647 C1653 0.950 . S
H1648 C1654 0.949 . S
C1649 H1644 0.950 . S
C1649 C1651 1.327 . S
C1649 C1655 1.429 . S
C1650 C1642 1.574 . S
C1650 H1645 0.949 . S
C1650 C1656 1.368 . S
C1651 C1635 1.349 . S
C1651 H1643 0.950 . S
C1651 C1649 1.327 . S
C1652 C1640 1.349 . S
C1652 H1646 0.950 . S
C1652 C1653 1.327 . S
C1653 H1647 0.950 . S
C1653 C1652 1.327 . S
C1653 C1657 1.429 . S
C1654 C1637 1.574 . S
C1654 H1648 0.949 . S
C1654 C1658 1.368 . S
C1655 C1636 1.429 . S
C1655 C1649 1.429 . S
C1655 C1656 1.523 . S
C1656 C1637 1.368 . S
C1656 C1650 1.368 . S
C1656 C1655 1.523 . S
C1657 C1641 1.429 . S
C1657 C1653 1.429 . S
C1657 C1658 1.523 . S
C1658 C1642 1.368 . S
C1658 C1654 1.368 . S
C1658 C1657 1.523 . S
H1659 C1634 0.950 . S
H1660 C1636 0.950 . S
H1661 C1637 0.949 . S
H1662 C1639 0.950 . S
H1663 C1641 0.950 . S
C1664 C1665 1.349 . S
C1664 C1666 1.327 . S
C1664 H1689 0.950 . S
C1665 C1664 1.349 . S
C1665 C1681 1.349 . S
C1666 C1664 1.327 . S
C1666 C1685 1.429 . S
C1666 H1690 0.950 . S
C1667 C1684 1.574 . S
C1667 C1686 1.368 . S
C1667 H1691 0.949 . S
H1668 C1672 0.949 . S
C1669 C1670 1.349 . S
C1669 C1671 1.327 . S
C1669 H1692 0.950 . S
C1670 C1669 1.349 . S
C1670 C1682 1.349 . S
C1671 C1669 1.327 . S
C1671 C1687 1.429 . S
C1671 H1693 0.950 . S
C1672 H1668 0.949 . S
C1672 C1680 1.574 . S
C1672 C1688 1.368 . S
H1673 C1681 0.950 . S
H1674 C1679 0.950 . S
H1675 C1680 0.949 . S
H1676 C1682 0.950 . S
H1677 C1683 0.950 . S
H1678 C1684 0.949 . S
C1679 H1674 0.950 . S
C1679 C1681 1.327 . S
C1679 C1685 1.429 . S
C1680 C1672 1.574 . S
C1680 H1675 0.949 . S
C1680 C1686 1.368 . S
C1681 C1665 1.349 . S
C1681 H1673 0.950 . S
C1681 C1679 1.327 . S
C1682 C1670 1.349 . S
C1682 H1676 0.950 . S
C1682 C1683 1.327 . S
C1683 H1677 0.950 . S
C1683 C1682 1.327 . S
C1683 C1687 1.429 . S
C1684 C1667 1.574 . S
C1684 H1678 0.949 . S
C1684 C1688 1.368 . S
C1685 C1666 1.429 . S
C1685 C1679 1.429 . S
C1685 C1686 1.523 . S
C1686 C1667 1.368 . S
C1686 C1680 1.368 . S
C1686 C1685 1.523 . S
C1687 C1671 1.429 . S
C1687 C1683 1.429 . S
C1687 C1688 1.523 . S
C1688 C1672 1.368 . S
C1688 C1684 1.368 . S
C1688 C1687 1.523 . S
H1689 C1664 0.950 . S
H1690 C1666 0.950 . S
H1691 C1667 0.949 . S
H1692 C1669 0.950 . S
H1693 C1671 0.950 . S
C1694 C1695 1.349 . S
C1694 C1696 1.327 . S
C1694 H1719 0.950 . S
C1695 C1694 1.349 . S
C1695 C1711 1.349 . S
C1696 C1694 1.327 . S
C1696 C1715 1.429 . S
C1696 H1720 0.950 1_565 S
C1697 C1714 1.574 . S
C1697 C1716 1.368 . S
C1697 H1721 0.949 . S
H1698 C1702 0.949 . S
C1699 C1700 1.349 1_565 S
C1699 C1701 1.327 . S
C1699 H1722 0.950 . S
C1700 C1699 1.349 1_545 S
C1700 C1712 1.349 . S
C1701 C1699 1.327 . S
C1701 C1717 1.411 1_565 S
C1701 H1723 0.950 . S
C1702 H1698 0.949 . S
C1702 C1710 1.574 . S
C1702 C1718 1.368 1_545 S
H1703 C1711 0.950 . S
H1704 C1709 0.950 . S
H1705 C1710 0.949 . S
H1706 C1712 0.950 . S
H1707 C1713 0.950 . S
H1708 C1714 0.949 . S
C1709 H1704 0.950 . S
C1709 C1711 1.327 . S
C1709 C1715 1.429 . S
C1710 C1702 1.574 . S
C1710 H1705 0.949 . S
C1710 C1716 1.368 1_545 S
C1711 C1695 1.349 . S
C1711 H1703 0.950 . S
C1711 C1709 1.327 . S
C1712 C1700 1.349 . S
C1712 H1706 0.950 . S
C1712 C1713 1.327 . S
C1713 H1707 0.950 . S
C1713 C1712 1.327 . S
C1713 C1717 1.454 . S
C1714 C1697 1.574 . S
C1714 H1708 0.949 . S
C1714 C1718 1.368 . S
C1715 C1696 1.429 . S
C1715 C1709 1.429 . S
C1715 C1716 1.523 . S
C1716 C1697 1.368 . S
C1716 C1710 1.368 1_565 S
C1716 C1715 1.523 . S
C1717 C1701 1.411 1_545 S
C1717 C1713 1.454 . S
C1717 C1718 1.516 1_545 S
C1718 C1702 1.368 1_565 S
C1718 C1714 1.368 . S
C1718 C1717 1.516 1_565 S
H1719 C1694 0.950 . S
H1720 C1696 0.950 1_545 S
H1721 C1697 0.949 . S
H1722 C1699 0.950 . S
H1723 C1701 0.950 . S
C1724 C1725 1.349 . S
C1724 C1726 1.327 . S
C1724 H1749 0.950 . S
C1725 C1724 1.349 . S
C1725 C1741 1.349 . S
C1726 C1724 1.327 . S
C1726 C1745 1.429 . S
C1726 H1750 0.950 . S
C1727 C1744 1.574 . S
C1727 C1746 1.368 . S
C1727 H1751 0.949 . S
H1728 C1732 0.949 . S
C1729 C1730 1.349 . S
C1729 C1731 1.327 . S
C1729 H1752 0.950 . S
C1730 C1729 1.349 . S
C1730 C1742 1.349 . S
C1731 C1729 1.327 . S
C1731 C1747 1.429 . S
C1731 H1753 0.950 . S
C1732 H1728 0.949 . S
C1732 C1740 1.574 . S
C1732 C1748 1.368 . S
H1733 C1741 0.950 . S
H1734 C1739 0.950 . S
H1735 C1740 0.949 . S
H1736 C1742 0.950 . S
H1737 C1743 0.950 . S
H1738 C1744 0.949 . S
C1739 H1734 0.950 . S
C1739 C1741 1.327 . S
C1739 C1745 1.429 . S
C1740 C1732 1.574 . S
C1740 H1735 0.949 . S
C1740 C1746 1.368 . S
C1741 C1725 1.349 . S
C1741 H1733 0.950 . S
C1741 C1739 1.327 . S
C1742 C1730 1.349 . S
C1742 H1736 0.950 . S
C1742 C1743 1.327 . S
C1743 H1737 0.950 . S
C1743 C1742 1.327 . S
C1743 C1747 1.429 . S
C1744 C1727 1.574 . S
C1744 H1738 0.949 . S
C1744 C1748 1.368 . S
C1745 C1726 1.429 . S
C1745 C1739 1.429 . S
C1745 C1746 1.523 . S
C1746 C1727 1.368 . S
C1746 C1740 1.368 . S
C1746 C1745 1.523 . S
C1747 C1731 1.429 . S
C1747 C1743 1.429 . S
C1747 C1748 1.523 . S
C1748 C1732 1.368 . S
C1748 C1744 1.368 . S
C1748 C1747 1.523 . S
H1749 C1724 0.950 . S
H1750 C1726 0.950 . S
H1751 C1727 0.949 . S
H1752 C1729 0.950 . S
H1753 C1731 0.950 . S
C1754 C1755 1.349 1_545 S
C1754 C1756 1.327 . S
C1754 H1779 0.950 . S
C1755 C1754 1.349 1_565 S
C1755 C1771 1.349 . S
C1756 C1754 1.327 . S
C1756 C1775 1.413 1_545 S
C1756 H1780 0.950 . S
C1757 C1774 1.574 . S
C1757 C1776 1.368 1_565 S
C1757 H1781 0.949 . S
H1758 C1762 0.949 . S
C1759 C1760 1.349 . S
C1759 C1761 1.327 . S
C1759 H1782 0.950 . S
C1760 C1759 1.349 . S
C1760 C1772 1.349 . S
C1761 C1759 1.327 . S
C1761 C1777 1.429 . S
C1761 H1783 0.950 1_545 S
C1762 H1758 0.949 . S
C1762 C1770 1.574 . S
C1762 C1778 1.368 . S
H1763 C1771 0.950 . S
H1764 C1769 0.950 . S
H1765 C1770 0.949 . S
H1766 C1772 0.950 . S
H1767 C1773 0.950 . S
H1768 C1774 0.949 . S
C1769 H1764 0.950 . S
C1769 C1771 1.327 . S
C1769 C1775 1.453 . S
C1770 C1762 1.574 . S
C1770 H1765 0.949 . S
C1770 C1776 1.368 . S
C1771 C1755 1.349 . S
C1771 H1763 0.950 . S
C1771 C1769 1.327 . S
C1772 C1760 1.349 . S
C1772 H1766 0.950 . S
C1772 C1773 1.327 . S
C1773 H1767 0.950 . S
C1773 C1772 1.327 . S
C1773 C1777 1.429 . S
C1774 C1757 1.574 . S
C1774 H1768 0.949 . S
C1774 C1778 1.368 1_565 S
C1775 C1756 1.413 1_565 S
C1775 C1769 1.453 . S
C1775 C1776 1.516 1_565 S
C1776 C1757 1.368 1_545 S
C1776 C1770 1.368 . S
C1776 C1775 1.516 1_545 S
C1777 C1761 1.429 . S
C1777 C1773 1.429 . S
C1777 C1778 1.523 . S
C1778 C1762 1.368 . S
C1778 C1774 1.368 1_545 S
C1778 C1777 1.523 . S
H1779 C1754 0.950 . S
H1780 C1756 0.950 . S
H1781 C1757 0.949 . S
H1782 C1759 0.950 . S
H1783 C1761 0.950 1_565 S
C1784 C1785 1.349 . S
C1784 C1786 1.327 . S
C1784 H1809 0.950 . S
C1785 C1784 1.349 . S
C1785 C1801 1.349 . S
C1786 C1784 1.327 . S
C1786 C1805 1.429 . S
C1786 H1810 0.950 . S
C1787 C1804 1.574 . S
C1787 C1806 1.368 . S
C1787 H1811 0.949 . S
H1788 C1792 0.949 . S
C1789 C1790 1.349 . S
C1789 C1791 1.327 . S
C1789 H1812 0.950 . S
C1790 C1789 1.349 . S
C1790 C1802 1.349 . S
C1791 C1789 1.327 . S
C1791 C1807 1.429 . S
C1791 H1813 0.950 . S
C1792 H1788 0.949 . S
C1792 C1800 1.574 . S
C1792 C1808 1.368 . S
H1793 C1801 0.950 . S
H1794 C1799 0.950 . S
H1795 C1800 0.949 . S
H1796 C1802 0.950 . S
H1797 C1803 0.950 . S
H1798 C1804 0.949 . S
C1799 H1794 0.950 . S
C1799 C1801 1.327 . S
C1799 C1805 1.429 . S
C1800 C1792 1.574 . S
C1800 H1795 0.949 . S
C1800 C1806 1.368 . S
C1801 C1785 1.349 . S
C1801 H1793 0.950 . S
C1801 C1799 1.327 . S
C1802 C1790 1.349 . S
C1802 H1796 0.950 . S
C1802 C1803 1.327 . S
C1803 H1797 0.950 . S
C1803 C1802 1.327 . S
C1803 C1807 1.429 . S
C1804 C1787 1.574 . S
C1804 H1798 0.949 . S
C1804 C1808 1.368 . S
C1805 C1786 1.429 . S
C1805 C1799 1.429 . S
C1805 C1806 1.523 . S
C1806 C1787 1.368 . S
C1806 C1800 1.368 . S
C1806 C1805 1.523 . S
C1807 C1791 1.429 . S
C1807 C1803 1.429 . S
C1807 C1808 1.523 . S
C1808 C1792 1.368 . S
C1808 C1804 1.368 . S
C1808 C1807 1.523 . S
H1809 C1784 0.950 . S
H1810 C1786 0.950 . S
H1811 C1787 0.949 . S
H1812 C1789 0.950 . S
H1813 C1791 0.950 . S
C1814 C1815 1.349 . S
C1814 C1816 1.327 . S
C1814 H1839 0.950 . S
C1815 C1814 1.349 . S
C1815 C1831 1.349 . S
C1816 C1814 1.327 . S
C1816 C1835 1.429 . S
C1816 H1840 0.950 . S
C1817 C1834 1.570 1_545 S
C1817 C1836 1.378 . S
C1817 H1841 0.943 1_545 S
H1818 C1822 0.949 . S
C1819 C1820 1.349 . S
C1819 C1821 1.327 . S
C1819 H1842 0.950 . S
C1820 C1819 1.349 . S
C1820 C1832 1.349 1_565 S
C1821 C1819 1.327 . S
C1821 C1837 1.450 . S
C1821 H1843 0.950 . S
C1822 H1818 0.949 . S
C1822 C1830 1.574 . S
C1822 C1838 1.368 . S
H1823 C1831 0.950 . S
H1824 C1829 0.950 . S
H1825 C1830 0.949 . S
H1826 C1832 0.950 . S
H1827 C1833 0.950 . S
H1828 C1834 0.949 . S
C1829 H1824 0.950 . S
C1829 C1831 1.327 . S
C1829 C1835 1.429 . S
C1830 C1822 1.574 . S
C1830 H1825 0.949 . S
C1830 C1836 1.368 . S
C1831 C1815 1.349 . S
C1831 H1823 0.950 . S
C1831 C1829 1.327 . S
C1832 C1820 1.349 1_545 S
C1832 H1826 0.950 . S
C1832 C1833 1.327 . S
C1833 H1827 0.950 . S
C1833 C1832 1.327 . S
C1833 C1837 1.415 1_545 S
C1834 C1817 1.570 1_565 S
C1834 H1828 0.949 . S
C1834 C1838 1.368 1_565 S
C1835 C1816 1.429 . S
C1835 C1829 1.429 . S
C1835 C1836 1.523 . S
C1836 C1817 1.378 . S
C1836 C1830 1.368 . S
C1836 C1835 1.523 . S
C1837 C1821 1.450 . S
C1837 C1833 1.415 1_565 S
C1837 C1838 1.516 1_565 S
C1838 C1822 1.368 . S
C1838 C1834 1.368 1_545 S
C1838 C1837 1.516 1_545 S
H1839 C1814 0.950 . S
H1840 C1816 0.950 . S
H1841 C1817 0.943 1_565 S
H1842 C1819 0.950 . S
H1843 C1821 0.950 . S
C1844 C1845 1.349 . S
C1844 C1846 1.327 . S
C1844 H1869 0.950 . S
C1845 C1844 1.349 . S
C1845 C1861 1.349 . S
C1846 C1844 1.327 . S
C1846 C1865 1.429 . S
C1846 H1870 0.950 . S
C1847 C1864 1.574 . S
C1847 C1866 1.368 . S
C1847 H1871 0.949 . S
H1848 C1852 0.949 . S
C1849 C1850 1.349 . S
C1849 C1851 1.327 . S
C1849 H1872 0.950 . S
C1850 C1849 1.349 . S
C1850 C1862 1.349 . S
C1851 C1849 1.327 . S
C1851 C1867 1.429 . S
C1851 H1873 0.950 . S
C1852 H1848 0.949 . S
C1852 C1860 1.574 . S
C1852 C1868 1.368 . S
H1853 C1861 0.950 . S
H1854 C1859 0.950 . S
H1855 C1860 0.949 . S
H1856 C1862 0.950 . S
H1857 C1863 0.950 . S
H1858 C1864 0.949 . S
C1859 H1854 0.950 . S
C1859 C1861 1.327 . S
C1859 C1865 1.429 . S
C1860 C1852 1.574 . S
C1860 H1855 0.949 . S
C1860 C1866 1.368 . S
C1861 C1845 1.349 . S
C1861 H1853 0.950 . S
C1861 C1859 1.327 . S
C1862 C1850 1.349 . S
C1862 H1856 0.950 . S
C1862 C1863 1.327 . S
C1863 H1857 0.950 . S
C1863 C1862 1.327 . S
C1863 C1867 1.429 . S
C1864 C1847 1.574 . S
C1864 H1858 0.949 . S
C1864 C1868 1.368 . S
C1865 C1846 1.429 . S
C1865 C1859 1.429 . S
C1865 C1866 1.523 . S
C1866 C1847 1.368 . S
C1866 C1860 1.368 . S
C1866 C1865 1.523 . S
C1867 C1851 1.429 . S
C1867 C1863 1.429 . S
C1867 C1868 1.523 . S
C1868 C1852 1.368 . S
C1868 C1864 1.368 . S
C1868 C1867 1.523 . S
H1869 C1844 0.950 . S
H1870 C1846 0.950 . S
H1871 C1847 0.949 . S
H1872 C1849 0.950 . S
H1873 C1851 0.950 . S
C1874 C1875 1.349 . S
C1874 C1876 1.327 . S
C1874 H1899 0.950 . S
C1875 C1874 1.349 . S
C1875 C1891 1.349 . S
C1876 C1874 1.327 . S
C1876 C1895 1.429 . S
C1876 H1900 0.950 1_565 S
C1877 C1894 1.574 . S
C1877 C1896 1.368 . S
C1877 H1901 0.949 . S
H1878 C1882 0.949 . S
C1879 C1880 1.349 1_565 S
C1879 C1881 1.327 . S
C1879 H1902 0.950 . S
C1880 C1879 1.349 1_545 S
C1880 C1892 1.349 . S
C1881 C1879 1.327 . S
C1881 C1897 1.411 1_565 S
C1881 H1903 0.950 . S
C1882 H1878 0.949 . S
C1882 C1890 1.574 . S
C1882 C1898 1.368 1_545 S
H1883 C1891 0.950 . S
H1884 C1889 0.950 . S
H1885 C1890 0.949 . S
H1886 C1892 0.950 . S
H1887 C1893 0.950 . S
H1888 C1894 0.949 . S
C1889 H1884 0.950 . S
C1889 C1891 1.327 . S
C1889 C1895 1.429 . S
C1890 C1882 1.574 . S
C1890 H1885 0.949 . S
C1890 C1896 1.368 1_545 S
C1891 C1875 1.349 . S
C1891 H1883 0.950 . S
C1891 C1889 1.327 . S
C1892 C1880 1.349 . S
C1892 H1886 0.950 . S
C1892 C1893 1.327 . S
C1893 H1887 0.950 . S
C1893 C1892 1.327 . S
C1893 C1897 1.455 . S
C1894 C1877 1.574 . S
C1894 H1888 0.949 . S
C1894 C1898 1.368 . S
C1895 C1876 1.429 . S
C1895 C1889 1.429 . S
C1895 C1896 1.523 . S
C1896 C1877 1.368 . S
C1896 C1890 1.368 1_565 S
C1896 C1895 1.523 . S
C1897 C1881 1.411 1_545 S
C1897 C1893 1.455 . S
C1897 C1898 1.516 1_545 S
C1898 C1882 1.368 1_565 S
C1898 C1894 1.368 . S
C1898 C1897 1.516 1_565 S
H1899 C1874 0.950 . S
H1900 C1876 0.950 1_545 S
H1901 C1877 0.949 . S
H1902 C1879 0.950 . S
H1903 C1881 0.950 . S
C1904 C1905 1.349 . S
C1904 C1906 1.327 . S
C1904 H1929 0.950 . S
C1905 C1904 1.349 . S
C1905 C1921 1.349 . S
C1906 C1904 1.327 . S
C1906 C1925 1.429 . S
C1906 H1930 0.950 . S
C1907 C1924 1.574 . S
C1907 C1926 1.368 . S
C1907 H1931 0.949 . S
H1908 C1912 0.949 . S
C1909 C1910 1.349 . S
C1909 C1911 1.327 . S
C1909 H1932 0.950 . S
C1910 C1909 1.349 . S
C1910 C1922 1.349 . S
C1911 C1909 1.327 . S
C1911 C1927 1.429 . S
C1911 H1933 0.950 . S
C1912 H1908 0.949 . S
C1912 C1920 1.574 . S
C1912 C1928 1.368 . S
H1913 C1921 0.950 . S
H1914 C1919 0.950 . S
H1915 C1920 0.949 . S
H1916 C1922 0.950 . S
H1917 C1923 0.950 . S
H1918 C1924 0.949 . S
C1919 H1914 0.950 . S
C1919 C1921 1.327 . S
C1919 C1925 1.429 . S
C1920 C1912 1.574 . S
C1920 H1915 0.949 . S
C1920 C1926 1.368 . S
C1921 C1905 1.349 . S
C1921 H1913 0.950 . S
C1921 C1919 1.327 . S
C1922 C1910 1.349 . S
C1922 H1916 0.950 . S
C1922 C1923 1.327 . S
C1923 H1917 0.950 . S
C1923 C1922 1.327 . S
C1923 C1927 1.429 . S
C1924 C1907 1.574 . S
C1924 H1918 0.949 . S
C1924 C1928 1.368 . S
C1925 C1906 1.429 . S
C1925 C1919 1.429 . S
C1925 C1926 1.523 . S
C1926 C1907 1.368 . S
C1926 C1920 1.368 . S
C1926 C1925 1.523 . S
C1927 C1911 1.429 . S
C1927 C1923 1.429 . S
C1927 C1928 1.523 . S
C1928 C1912 1.368 . S
C1928 C1924 1.368 . S
C1928 C1927 1.523 . S
H1929 C1904 0.950 . S
H1930 C1906 0.950 . S
H1931 C1907 0.949 . S
H1932 C1909 0.950 . S
H1933 C1911 0.950 . S
C1934 C1935 1.349 . S
C1934 C1936 1.327 . S
C1934 H1959 0.950 . S
C1935 C1934 1.349 . S
C1935 C1951 1.349 . S
C1936 C1934 1.327 . S
C1936 C1955 1.429 . S
C1936 H1960 0.950 . S
C1937 C1954 1.574 . S
C1937 C1956 1.368 . S
C1937 H1961 0.949 . S
H1938 C1942 0.949 . S
C1939 C1940 1.349 . S
C1939 C1941 1.327 . S
C1939 H1962 0.950 . S
C1940 C1939 1.349 . S
C1940 C1952 1.349 . S
C1941 C1939 1.327 . S
C1941 C1957 1.429 . S
C1941 H1963 0.950 . S
C1942 H1938 0.949 . S
C1942 C1950 1.574 . S
C1942 C1958 1.368 . S
H1943 C1951 0.950 . S
H1944 C1949 0.950 . S
H1945 C1950 0.949 . S
H1946 C1952 0.950 . S
H1947 C1953 0.950 . S
H1948 C1954 0.949 . S
C1949 H1944 0.950 . S
C1949 C1951 1.327 . S
C1949 C1955 1.429 . S
C1950 C1942 1.574 . S
C1950 H1945 0.949 . S
C1950 C1956 1.368 . S
C1951 C1935 1.349 . S
C1951 H1943 0.950 . S
C1951 C1949 1.327 . S
C1952 C1940 1.349 . S
C1952 H1946 0.950 . S
C1952 C1953 1.327 . S
C1953 H1947 0.950 . S
C1953 C1952 1.327 . S
C1953 C1957 1.429 . S
C1954 C1937 1.574 . S
C1954 H1948 0.949 . S
C1954 C1958 1.368 . S
C1955 C1936 1.429 . S
C1955 C1949 1.429 . S
C1955 C1956 1.523 . S
C1956 C1937 1.368 . S
C1956 C1950 1.368 . S
C1956 C1955 1.523 . S
C1957 C1941 1.429 . S
C1957 C1953 1.429 . S
C1957 C1958 1.523 . S
C1958 C1942 1.368 . S
C1958 C1954 1.368 . S
C1958 C1957 1.523 . S
H1959 C1934 0.950 . S
H1960 C1936 0.950 . S
H1961 C1937 0.949 . S
H1962 C1939 0.950 . S
H1963 C1941 0.950 . S
C1964 C1965 1.349 . S
C1964 C1966 1.327 . S
C1964 H1989 0.950 . S
C1965 C1964 1.349 . S
C1965 C1981 1.349 . S
C1966 C1964 1.327 . S
C1966 C1985 1.429 . S
C1966 H1990 0.950 . S
C1967 C1984 1.574 1_455 S
C1967 C1986 1.368 . S
C1967 H1991 0.949 . S
H1968 C1972 0.949 . S
C1969 C1970 1.349 . S
C1969 C1971 1.327 . S
C1969 H1992 0.950 . S
C1970 C1969 1.349 . S
C1970 C1982 1.349 . S
C1971 C1969 1.327 . S
C1971 C1987 1.429 . S
C1971 H1993 0.950 . S
C1972 H1968 0.949 . S
C1972 C1980 1.574 1_655 S
C1972 C1988 1.368 . S
H1973 C1981 0.950 . S
H1974 C1979 0.950 . S
H1975 C1980 0.949 . S
H1976 C1982 0.950 . S
H1977 C1983 0.950 . S
H1978 C1984 0.949 . S
C1979 H1974 0.950 . S
C1979 C1981 1.327 . S
C1979 C1985 1.429 . S
C1980 C1972 1.574 1_455 S
C1980 H1975 0.949 . S
C1980 C1986 1.368 . S
C1981 C1965 1.349 . S
C1981 H1973 0.950 . S
C1981 C1979 1.327 . S
C1982 C1970 1.349 . S
C1982 H1976 0.950 . S
C1982 C1983 1.327 . S
C1983 H1977 0.950 . S
C1983 C1982 1.327 . S
C1983 C1987 1.429 . S
C1984 C1967 1.574 1_655 S
C1984 H1978 0.949 . S
C1984 C1988 1.368 . S
C1985 C1966 1.429 . S
C1985 C1979 1.429 . S
C1985 C1986 1.523 . S
C1986 C1967 1.368 . S
C1986 C1980 1.368 . S
C1986 C1985 1.523 . S
C1987 C1971 1.429 . S
C1987 C1983 1.429 . S
C1987 C1988 1.523 . S
C1988 C1972 1.368 . S
C1988 C1984 1.368 . S
C1988 C1987 1.523 . S
H1989 C1964 0.950 . S
H1990 C1966 0.950 . S
H1991 C1967 0.949 . S
H1992 C1969 0.950 . S
H1993 C1971 0.950 . S
C1994 C1995 1.349 . S
C1994 C1996 1.327 . S
C1994 H2019 0.950 . S
C1995 C1994 1.349 . S
C1995 C2011 1.349 . S
C1996 C1994 1.327 . S
C1996 C2015 1.429 . S
C1996 H2020 0.950 . S
C1997 C2014 1.574 . S
C1997 C2016 1.368 . S
C1997 H2021 0.949 . S
H1998 C2002 0.949 . S
C1999 C2000 1.349 . S
C1999 C2001 1.327 . S
C1999 H2022 0.950 . S
C2000 C1999 1.349 . S
C2000 C2012 1.349 . S
C2001 C1999 1.327 . S
C2001 C2017 1.429 . S
C2001 H2023 0.950 . S
C2002 H1998 0.949 . S
C2002 C2010 1.574 . S
C2002 C2018 1.368 . S
H2003 C2011 0.950 . S
H2004 C2009 0.950 . S
H2005 C2010 0.949 . S
H2006 C2012 0.950 . S
H2007 C2013 0.950 . S
H2008 C2014 0.949 . S
C2009 H2004 0.950 . S
C2009 C2011 1.327 . S
C2009 C2015 1.429 . S
C2010 C2002 1.574 . S
C2010 H2005 0.949 . S
C2010 C2016 1.368 1_655 S
C2011 C1995 1.349 . S
C2011 H2003 0.950 . S
C2011 C2009 1.327 . S
C2012 C2000 1.349 . S
C2012 H2006 0.950 . S
C2012 C2013 1.327 . S
C2013 H2007 0.950 . S
C2013 C2012 1.327 . S
C2013 C2017 1.429 . S
C2014 C1997 1.574 . S
C2014 H2008 0.949 . S
C2014 C2018 1.368 1_455 S
C2015 C1996 1.429 . S
C2015 C2009 1.429 . S
C2015 C2016 1.523 . S
C2016 C1997 1.368 . S
C2016 C2010 1.368 1_455 S
C2016 C2015 1.523 . S
C2017 C2001 1.429 . S
C2017 C2013 1.429 . S
C2017 C2018 1.523 . S
C2018 C2002 1.368 . S
C2018 C2014 1.368 1_655 S
C2018 C2017 1.523 . S
H2019 C1994 0.950 . S
H2020 C1996 0.950 . S
H2021 C1997 0.949 . S
H2022 C1999 0.950 . S
H2023 C2001 0.950 . S
C2024 C2025 1.349 . S
C2024 C2026 1.327 . S
C2024 H2049 0.950 . S
C2025 C2024 1.349 . S
C2025 C2041 1.349 . S
C2026 C2024 1.327 . S
C2026 C2045 1.429 . S
C2026 H2050 0.950 . S
C2027 C2044 1.574 . S
C2027 C2046 1.368 . S
C2027 H2051 0.949 . S
H2028 C2032 0.949 . S
C2029 C2030 1.349 . S
C2029 C2031 1.327 . S
C2029 H2052 0.950 . S
C2030 C2029 1.349 . S
C2030 C2042 1.349 . S
C2031 C2029 1.327 . S
C2031 C2047 1.429 . S
C2031 H2053 0.950 . S
C2032 H2028 0.949 . S
C2032 C2040 1.574 . S
C2032 C2048 1.368 . S
H2033 C2041 0.950 . S
H2034 C2039 0.950 . S
H2035 C2040 0.949 . S
H2036 C2042 0.950 . S
H2037 C2043 0.950 . S
H2038 C2044 0.949 . S
C2039 H2034 0.950 . S
C2039 C2041 1.327 . S
C2039 C2045 1.429 . S
C2040 C2032 1.574 . S
C2040 H2035 0.949 . S
C2040 C2046 1.368 . S
C2041 C2025 1.349 . S
C2041 H2033 0.950 . S
C2041 C2039 1.327 . S
C2042 C2030 1.349 . S
C2042 H2036 0.950 . S
C2042 C2043 1.327 . S
C2043 H2037 0.950 . S
C2043 C2042 1.327 . S
C2043 C2047 1.429 . S
C2044 C2027 1.574 . S
C2044 H2038 0.949 . S
C2044 C2048 1.368 . S
C2045 C2026 1.429 . S
C2045 C2039 1.429 . S
C2045 C2046 1.523 . S
C2046 C2027 1.368 . S
C2046 C2040 1.368 . S
C2046 C2045 1.523 . S
C2047 C2031 1.429 . S
C2047 C2043 1.429 . S
C2047 C2048 1.523 . S
C2048 C2032 1.368 . S
C2048 C2044 1.368 . S
C2048 C2047 1.523 . S
H2049 C2024 0.950 . S
H2050 C2026 0.950 . S
H2051 C2027 0.949 . S
H2052 C2029 0.950 . S
H2053 C2031 0.950 . S
C2054 C2055 1.349 . S
C2054 C2056 1.327 . S
C2054 H2079 0.950 . S
C2055 C2054 1.349 . S
C2055 C2071 1.349 . S
C2056 C2054 1.327 . S
C2056 C2075 1.429 . S
C2056 H2080 0.950 . S
C2057 C2074 1.574 . S
C2057 C2076 1.368 . S
C2057 H2081 0.949 . S
H2058 C2062 0.949 . S
C2059 C2060 1.349 . S
C2059 C2061 1.327 . S
C2059 H2082 0.950 . S
C2060 C2059 1.349 . S
C2060 C2072 1.349 . S
C2061 C2059 1.327 . S
C2061 C2077 1.429 . S
C2061 H2083 0.950 . S
C2062 H2058 0.949 . S
C2062 C2070 1.574 . S
C2062 C2078 1.368 . S
H2063 C2071 0.950 . S
H2064 C2069 0.950 . S
H2065 C2070 0.949 . S
H2066 C2072 0.950 . S
H2067 C2073 0.950 . S
H2068 C2074 0.949 . S
C2069 H2064 0.950 . S
C2069 C2071 1.327 . S
C2069 C2075 1.429 . S
C2070 C2062 1.574 . S
C2070 H2065 0.949 . S
C2070 C2076 1.368 . S
C2071 C2055 1.349 . S
C2071 H2063 0.950 . S
C2071 C2069 1.327 . S
C2072 C2060 1.349 . S
C2072 H2066 0.950 . S
C2072 C2073 1.327 . S
C2073 H2067 0.950 . S
C2073 C2072 1.327 . S
C2073 C2077 1.429 . S
C2074 C2057 1.574 . S
C2074 H2068 0.949 . S
C2074 C2078 1.368 . S
C2075 C2056 1.429 . S
C2075 C2069 1.429 . S
C2075 C2076 1.523 . S
C2076 C2057 1.368 . S
C2076 C2070 1.368 . S
C2076 C2075 1.523 . S
C2077 C2061 1.429 . S
C2077 C2073 1.429 . S
C2077 C2078 1.523 . S
C2078 C2062 1.368 . S
C2078 C2074 1.368 . S
C2078 C2077 1.523 . S
H2079 C2054 0.950 . S
H2080 C2056 0.950 . S
H2081 C2057 0.949 . S
H2082 C2059 0.950 . S
H2083 C2061 0.950 . S
C2084 C2085 1.349 . S
C2084 C2086 1.327 . S
C2084 H2109 0.950 . S
C2085 C2084 1.349 . S
C2085 C2101 1.349 . S
C2086 C2084 1.327 . S
C2086 C2105 1.429 . S
C2086 H2110 0.950 . S
C2087 C2104 1.574 1_455 S
C2087 C2106 1.368 . S
C2087 H2111 0.949 . S
H2088 C2092 0.949 . S
C2089 C2090 1.349 . S
C2089 C2091 1.327 . S
C2089 H2112 0.950 . S
C2090 C2089 1.349 . S
C2090 C2102 1.349 . S
C2091 C2089 1.327 . S
C2091 C2107 1.429 . S
C2091 H2113 0.950 . S
C2092 H2088 0.949 . S
C2092 C2100 1.574 1_655 S
C2092 C2108 1.368 . S
H2093 C2101 0.950 . S
H2094 C2099 0.950 . S
H2095 C2100 0.949 . S
H2096 C2102 0.950 . S
H2097 C2103 0.950 . S
H2098 C2104 0.949 . S
C2099 H2094 0.950 . S
C2099 C2101 1.327 . S
C2099 C2105 1.429 . S
C2100 C2092 1.574 1_455 S
C2100 H2095 0.949 . S
C2100 C2106 1.368 . S
C2101 C2085 1.349 . S
C2101 H2093 0.950 . S
C2101 C2099 1.327 . S
C2102 C2090 1.349 . S
C2102 H2096 0.950 . S
C2102 C2103 1.327 . S
C2103 H2097 0.950 . S
C2103 C2102 1.327 . S
C2103 C2107 1.429 . S
C2104 C2087 1.574 1_655 S
C2104 H2098 0.949 . S
C2104 C2108 1.368 . S
C2105 C2086 1.429 . S
C2105 C2099 1.429 . S
C2105 C2106 1.523 . S
C2106 C2087 1.368 . S
C2106 C2100 1.368 . S
C2106 C2105 1.523 . S
C2107 C2091 1.429 . S
C2107 C2103 1.429 . S
C2107 C2108 1.523 . S
C2108 C2092 1.368 . S
C2108 C2104 1.368 . S
C2108 C2107 1.523 . S
H2109 C2084 0.950 . S
H2110 C2086 0.950 . S
H2111 C2087 0.949 . S
H2112 C2089 0.950 . S
H2113 C2091 0.950 . S
C2114 C2115 1.349 . S
C2114 C2116 1.327 . S
C2114 H2139 0.950 . S
C2115 C2114 1.349 . S
C2115 C2131 1.349 . S
C2116 C2114 1.327 . S
C2116 C2135 1.429 . S
C2116 H2140 0.950 . S
C2117 C2134 1.574 . S
C2117 C2136 1.368 . S
C2117 H2141 0.949 . S
H2118 C2122 0.949 . S
C2119 C2120 1.349 . S
C2119 C2121 1.327 . S
C2119 H2142 0.950 . S
C2120 C2119 1.349 . S
C2120 C2132 1.349 . S
C2121 C2119 1.327 . S
C2121 C2137 1.429 . S
C2121 H2143 0.950 . S
C2122 H2118 0.949 . S
C2122 C2130 1.574 . S
C2122 C2138 1.368 . S
H2123 C2131 0.950 . S
H2124 C2129 0.950 . S
H2125 C2130 0.949 . S
H2126 C2132 0.950 . S
H2127 C2133 0.950 . S
H2128 C2134 0.949 . S
C2129 H2124 0.950 . S
C2129 C2131 1.327 . S
C2129 C2135 1.429 . S
C2130 C2122 1.574 . S
C2130 H2125 0.949 . S
C2130 C2136 1.368 1_655 S
C2131 C2115 1.349 . S
C2131 H2123 0.950 . S
C2131 C2129 1.327 . S
C2132 C2120 1.349 . S
C2132 H2126 0.950 . S
C2132 C2133 1.327 . S
C2133 H2127 0.950 . S
C2133 C2132 1.327 . S
C2133 C2137 1.429 . S
C2134 C2117 1.574 . S
C2134 H2128 0.949 . S
C2134 C2138 1.368 1_455 S
C2135 C2116 1.429 . S
C2135 C2129 1.429 . S
C2135 C2136 1.523 . S
C2136 C2117 1.368 . S
C2136 C2130 1.368 1_455 S
C2136 C2135 1.523 . S
C2137 C2121 1.429 . S
C2137 C2133 1.429 . S
C2137 C2138 1.523 . S
C2138 C2122 1.368 . S
C2138 C2134 1.368 1_655 S
C2138 C2137 1.523 . S
H2139 C2114 0.950 . S
H2140 C2116 0.950 . S
H2141 C2117 0.949 . S
H2142 C2119 0.950 . S
H2143 C2121 0.950 . S
C465 C213 2.228 . S
C470 C21 2.028 . S
C495 C358 2.228 . S
C500 C50 2.028 . S
C525 C79 2.028 . S
C530 C155 2.228 . S
C555 C416 2.228 . S
C560 C108 2.028 1_455 S
C585 C97 2.228 . S
C590 C137 2.028 . S
C615 C166 2.028 . S
C620 C242 2.228 . S
C645 C195 2.028 . S
C650 C39 2.228 . S
C675 C300 2.228 . S
C680 C224 2.028 1_655 S
C705 C445 2.228 . S
C710 C253 2.028 . S
C735 C282 2.028 1_655 S
C740 C126 2.228 . S
C765 C387 2.228 . S
C770 C311 2.028 . S
C795 C184 2.228 . S
C800 C340 2.028 . S
C825 C329 2.228 . S
C830 C369 2.028 . S
C855 C398 2.028 1_455 S
C860 C10 2.228 . S
C885 C427 2.028 . S
C890 C271 2.228 . S
C915 C68 2.228 . S
C920 C456 2.028 . S
C945 C15 1.256 1_565 S
C950 C409 1.302 . S
C975 C206 1.331 . S
C980 C44 1.256 . S
C1005 C351 1.302 . S
C1010 C73 1.256 1_545 S
C1035 C102 1.256 . S
C1040 C148 1.302 . S
C1065 C293 1.302 . S
C1070 C131 1.256 1_545 S
C1095 C90 1.331 . S
C1100 C160 1.256 . S
C1125 C189 1.256 1_565 S
C1130 C235 1.302 . S
C1155 C218 1.256 . S
C1160 C32 1.302 . S
C1185 C247 1.256 . S
C1190 C177 1.302 . S
C1215 C276 1.256 . S
C1220 C438 1.302 . S
C1245 C119 1.302 . S
C1250 C305 1.256 . S
C1275 C380 1.331 . S
C1280 C334 1.256 . S
C1305 C61 1.302 . S
C1310 C363 1.256 . S
C1335 C392 1.256 . S
C1340 C322 1.302 . S
C1365 C3 1.302 . S
C1370 C421 1.256 . S
C1395 C264 1.331 . S
C1400 C450 1.256 . S
C1425 C13 1.497 1_556 S
C1430 C269 1.424 . S
C1455 C298 1.424 . S
C1460 C42 1.497 . S
C1485 C327 1.424 . S
C1490 C71 1.497 . S
C1515 C240 1.424 . S
C1520 C100 1.497 . S
C1545 C129 1.497 1_554 S
C1550 C385 1.424 . S
C1575 C158 1.497 . S
C1580 C414 1.424 . S
C1605 C443 1.424 . S
C1610 C187 1.497 . S
C1635 C356 1.424 . S
C1640 C216 1.497 . S
C1665 C37 1.424 . S
C1670 C245 1.497 . S
C1695 C66 1.424 . S
C1700 C274 1.497 . S
C1725 C303 1.497 1_556 S
C1730 C95 1.424 . S
C1755 C332 1.497 . S
C1760 C8 1.424 . S
C1785 C361 1.497 . S
C1790 C153 1.424 . S
C1815 C182 1.424 . S
C1820 C390 1.497 . S
C1845 C419 1.497 1_554 S
C1850 C211 1.424 . S
C1875 C124 1.424 . S
C1880 C448 1.497 . S
C1905 C295 2.366 . S
C1910 C5 2.366 . S
C1935 C34 2.365 . S
C1940 C324 2.365 . S
C1965 C63 2.366 . S
C1970 C237 2.366 . S
C1995 C266 2.365 . S
C2000 C92 2.365 . S
C2025 C121 2.366 . S
C2030 C411 2.366 . S
C2055 C440 2.365 . S
C2060 C150 2.365 . S
C2085 C353 2.366 . S
C2090 C179 2.366 . S
C2115 C208 2.365 . S
C2120 C382 2.365 . S
